# Generated by pormake.
# Topology hwx, (6,3)-cn, num edge types: 1
# Building blocks:
#     Node 0, Type 0, BuildingBlock: IZENUY_clean_sbu_0, # of connection points: 6
#     Node 1, Type 0, BuildingBlock: IZENUY_clean_sbu_0, # of connection points: 6
#     Node 2, Type 0, BuildingBlock: IZENUY_clean_sbu_0, # of connection points: 6
#     Node 3, Type 0, BuildingBlock: IZENUY_clean_sbu_0, # of connection points: 6
#     Node 4, Type 1, BuildingBlock: OLANEW_clean_sbu_2, # of connection points: 3
#     Node 5, Type 1, BuildingBlock: OLANEW_clean_sbu_2, # of connection points: 3
#     Node 6, Type 1, BuildingBlock: OLANEW_clean_sbu_2, # of connection points: 3
#     Node 7, Type 1, BuildingBlock: OLANEW_clean_sbu_2, # of connection points: 3
#     Node 8, Type 1, BuildingBlock: OLANEW_clean_sbu_2, # of connection points: 3
#     Node 9, Type 1, BuildingBlock: OLANEW_clean_sbu_2, # of connection points: 3
#     Node 10, Type 1, BuildingBlock: OLANEW_clean_sbu_2, # of connection points: 3
#     Node 11, Type 1, BuildingBlock: OLANEW_clean_sbu_2, # of connection points: 3
#     Edge 12, Type (0, 1), BuildingBlock: ZUJKAS_clean_linker_0, # of connection points: 2
#     Edge 13, Type (0, 1), BuildingBlock: ZUJKAS_clean_linker_0, # of connection points: 2
#     Edge 14, Type (0, 1), BuildingBlock: ZUJKAS_clean_linker_0, # of connection points: 2
#     Edge 15, Type (0, 1), BuildingBlock: ZUJKAS_clean_linker_0, # of connection points: 2
#     Edge 16, Type (0, 1), BuildingBlock: ZUJKAS_clean_linker_0, # of connection points: 2
#     Edge 17, Type (0, 1), BuildingBlock: ZUJKAS_clean_linker_0, # of connection points: 2
#     Edge 18, Type (0, 1), BuildingBlock: ZUJKAS_clean_linker_0, # of connection points: 2
#     Edge 19, Type (0, 1), BuildingBlock: ZUJKAS_clean_linker_0, # of connection points: 2
#     Edge 20, Type (0, 1), BuildingBlock: ZUJKAS_clean_linker_0, # of connection points: 2
#     Edge 21, Type (0, 1), BuildingBlock: ZUJKAS_clean_linker_0, # of connection points: 2
#     Edge 22, Type (0, 1), BuildingBlock: ZUJKAS_clean_linker_0, # of connection points: 2
#     Edge 23, Type (0, 1), BuildingBlock: ZUJKAS_clean_linker_0, # of connection points: 2
#     Edge 24, Type (0, 1), BuildingBlock: ZUJKAS_clean_linker_0, # of connection points: 2
#     Edge 25, Type (0, 1), BuildingBlock: ZUJKAS_clean_linker_0, # of connection points: 2
#     Edge 26, Type (0, 1), BuildingBlock: ZUJKAS_clean_linker_0, # of connection points: 2
#     Edge 27, Type (0, 1), BuildingBlock: ZUJKAS_clean_linker_0, # of connection points: 2
#     Edge 28, Type (0, 1), BuildingBlock: ZUJKAS_clean_linker_0, # of connection points: 2
#     Edge 29, Type (0, 1), BuildingBlock: ZUJKAS_clean_linker_0, # of connection points: 2
#     Edge 30, Type (0, 1), BuildingBlock: ZUJKAS_clean_linker_0, # of connection points: 2
#     Edge 31, Type (0, 1), BuildingBlock: ZUJKAS_clean_linker_0, # of connection points: 2
#     Edge 32, Type (0, 1), BuildingBlock: ZUJKAS_clean_linker_0, # of connection points: 2
#     Edge 33, Type (0, 1), BuildingBlock: ZUJKAS_clean_linker_0, # of connection points: 2
#     Edge 34, Type (0, 1), BuildingBlock: ZUJKAS_clean_linker_0, # of connection points: 2
#     Edge 35, Type (0, 1), BuildingBlock: ZUJKAS_clean_linker_0, # of connection points: 2
# Relax obj value: 0.014
# Max RMSD: 0.072
# Mean RMSD: 0.062
data_MOF--net-hwx--node1-IZENUY_clean_sbu_0--node2-OLANEW_clean_sbu_2--edge1-ZUJKAS_clean_linker_0
_symmetry_space_group_name_H-M    P1
_symmetry_Int_Tables_number       1
_symmetry_cell_setting            triclinic
loop_
_symmetry_equiv_pos_as_xyz
'x, y, z'
_cell_length_a     69.223744
_cell_length_b     69.163686
_cell_length_c     28.70053
_cell_angle_alpha  86.034912
_cell_angle_beta   93.968714
_cell_angle_gamma 90.058166
loop_
_atom_site_label
_atom_site_type_symbol
_atom_site_fract_x
_atom_site_fract_y
_atom_site_fract_z
_atom_type_partial_charge
Fe0 Fe 0.24149 0.21595 0.06646 0.0
Fe1 Fe 0.23608 0.21826 0.95904 0.0
O2 O 0.23091 0.20704 0.01423 0.0
Fe3 Fe 0.21522 0.18679 0.01735 0.0
O4 O 0.19852 0.19943 0.05076 0.0
O5 O 0.22084 0.20968 0.10132 0.0
O6 O 0.23029 0.23954 0.05274 0.0
C7 C 0.23229 0.25002 0.01562 0.0
C8 C 0.24473 0.17695 0.08831 0.0
O9 O 0.2382 0.24282 0.9797 0.0
C10 C 0.23651 0.17814 0.94459 0.0
O11 O 0.26409 0.22387 0.04133 0.0
O12 O 0.26183 0.21372 0.97035 0.0
O13 O 0.22762 0.1751 0.07057 0.0
O14 O 0.25342 0.19293 0.08357 0.0
C15 C 0.1974 0.21112 0.94298 0.0
O16 O 0.23496 0.19568 0.92873 0.0
O17 O 0.23093 0.17283 0.98437 0.0
C18 C 0.27196 0.21901 0.00536 0.0
O19 O 0.21069 0.22361 0.94343 0.0
O20 O 0.19995 0.19465 0.96467 0.0
C21 C 0.20323 0.20648 0.0893 0.0
Fe22 Fe 0.28126 0.71542 0.58787 0.0
Fe23 Fe 0.3039 0.68481 0.54127 0.0
O24 O 0.28861 0.70545 0.53663 0.0
Fe25 Fe 0.2806 0.71598 0.48064 0.0
O26 O 0.27988 0.74091 0.49903 0.0
O27 O 0.29202 0.73865 0.57201 0.0
O28 O 0.30399 0.70932 0.62311 0.0
C29 C 0.32073 0.70522 0.61109 0.0
C30 C 0.24737 0.71791 0.52613 0.0
O31 O 0.3228 0.69749 0.57322 0.0
C32 C 0.27851 0.67563 0.46924 0.0
O33 O 0.26991 0.69286 0.60719 0.0
O34 O 0.29442 0.67414 0.59537 0.0
O35 O 0.25556 0.71185 0.49209 0.0
O36 O 0.25723 0.72328 0.56182 0.0
C37 C 0.31799 0.70782 0.46519 0.0
O38 O 0.28588 0.6708 0.50974 0.0
O39 O 0.27974 0.69294 0.45204 0.0
C40 C 0.2784 0.67666 0.61284 0.0
O41 O 0.31623 0.69161 0.48789 0.0
O42 O 0.30518 0.72075 0.46534 0.0
C43 C 0.28796 0.74862 0.53411 0.0
Fe44 Fe 0.76419 0.79947 0.97207 0.0
Fe45 Fe 0.76709 0.79472 0.07926 0.0
O46 O 0.77298 0.80765 0.02669 0.0
Fe47 Fe 0.78765 0.82869 0.0288 0.0
O48 O 0.77565 0.84119 0.97597 0.0
O49 O 0.75146 0.82215 0.95595 0.0
O50 O 0.74146 0.78988 0.99317 0.0
C51 C 0.73237 0.79334 0.02849 0.0
C52 C 0.80236 0.81168 0.95555 0.0
O53 O 0.74132 0.79848 0.06537 0.0
C54 C 0.80517 0.80298 0.10087 0.0
O55 O 0.77635 0.77618 0.98429 0.0
O56 O 0.76638 0.77086 0.05496 0.0
O57 O 0.8058 0.81819 0.99526 0.0
O58 O 0.78528 0.80758 0.94104 0.0
C59 C 0.76475 0.83395 0.10093 0.0
O60 O 0.79241 0.79006 0.09665 0.0
O61 O 0.80233 0.81993 0.08191 0.0
C62 C 0.77372 0.76477 0.0195 0.0
O63 O 0.76671 0.81612 0.11336 0.0
O64 O 0.77058 0.84079 0.0625 0.0
C65 C 0.75939 0.83861 0.95423 0.0
Fe66 Fe 0.701 0.33281 0.50672 0.0
Fe67 Fe 0.7216 0.3012 0.57171 0.0
O68 O 0.71518 0.3114 0.51454 0.0
Fe69 Fe 0.72292 0.30017 0.4654 0.0
O70 O 0.72534 0.32305 0.42917 0.0
O71 O 0.71972 0.34569 0.47667 0.0
O72 O 0.71121 0.34312 0.56051 0.0
C73 C 0.72713 0.33961 0.58416 0.0
C74 C 0.68568 0.31008 0.4347 0.0
O75 O 0.73454 0.32289 0.58683 0.0
C76 C 0.71263 0.26848 0.52707 0.0
O77 O 0.68129 0.3213 0.53634 0.0
O78 O 0.69949 0.30916 0.59689 0.0
O79 O 0.69815 0.29679 0.4428 0.0
O80 O 0.6883 0.32642 0.45148 0.0
C81 C 0.75556 0.29595 0.52421 0.0
O82 O 0.70906 0.27893 0.55979 0.0
O83 O 0.7218 0.27528 0.49283 0.0
C84 C 0.68294 0.31359 0.57749 0.0
O85 O 0.74488 0.29132 0.55725 0.0
O86 O 0.74824 0.30272 0.48499 0.0
C87 C 0.72702 0.34041 0.44058 0.0
O88 O 0.22383 0.51736 0.95987 0.0
Cd89 Cd 0.22091 0.49771 0.0335 0.0
O90 O 0.20322 0.53936 0.97803 0.0
Cd91 Cd 0.20159 0.52784 0.05035 0.0
O92 O 0.20825 0.53479 0.12275 0.0
C93 C 0.1986 0.54842 0.13767 0.0
O94 O 0.18423 0.55628 0.11051 0.0
C95 C 0.21429 0.53293 0.94904 0.0
C96 C 0.2215 0.45773 0.02428 0.0
O97 O 0.20547 0.46715 0.02143 0.0
O98 O 0.23723 0.46726 0.03089 0.0
O99 O 0.98048 0.74962 0.42473 0.0
Cd100 Cd 0.00051 0.73911 0.49542 0.0
O101 O 0.96758 0.76778 0.47334 0.0
Cd102 Cd 0.9468 0.78598 0.50419 0.0
O103 O 0.93083 0.79687 0.55985 0.0
C104 C 0.92811 0.78471 0.59401 0.0
O105 O 0.93459 0.76692 0.59279 0.0
C106 C 0.96758 0.76183 0.43238 0.0
C107 C 0.04029 0.738 0.48737 0.0
O108 O 0.02969 0.72321 0.47943 0.0
O109 O 0.03196 0.75352 0.49782 0.0
O110 O 0.78001 0.49773 0.08604 0.0
Cd111 Cd 0.78352 0.5168 0.01164 0.0
O112 O 0.80326 0.47747 0.07335 0.0
Cd113 Cd 0.80599 0.48861 0.00115 0.0
O114 O 0.80021 0.48053 0.92935 0.0
C115 C 0.80799 0.46481 0.91953 0.0
O116 O 0.8199 0.45568 0.95129 0.0
C117 C 0.79063 0.48311 0.09962 0.0
C118 C 0.78434 0.55705 0.01694 0.0
O119 O 0.76828 0.54796 0.01145 0.0
O120 O 0.80003 0.54706 0.02087 0.0
O121 O 0.01178 0.21245 0.64444 0.0
Cd122 Cd 0.98475 0.20254 0.59185 0.0
O123 O 0.02763 0.21638 0.58137 0.0
Cd124 Cd 0.05108 0.22258 0.53521 0.0
O125 O 0.07079 0.22428 0.47887 0.0
C126 C 0.07124 0.21005 0.45321 0.0
O127 O 0.06011 0.19502 0.46204 0.0
C128 C 0.02757 0.21632 0.62575 0.0
C129 C 0.95062 0.22415 0.58801 0.0
O130 O 0.95395 0.21012 0.61912 0.0
O131 O 0.96375 0.22839 0.55962 0.0
O132 O 0.67029 0.00408 0.64252 0.0
Cd133 Cd 0.65361 0.02735 0.5851 0.0
O134 O 0.68308 0.9913 0.58422 0.0
Cd135 Cd 0.6983 0.97045 0.54571 0.0
O136 O 0.7102 0.95409 0.49164 0.0
C137 C 0.69859 0.94559 0.46357 0.0
O138 O 0.67991 0.94647 0.46884 0.0
C139 C 0.68085 0.99107 0.62791 0.0
C140 C 0.66727 0.06541 0.58249 0.0
O141 O 0.65441 0.05969 0.61039 0.0
O142 O 0.67405 0.05298 0.55671 0.0
O143 O 0.53403 0.26025 0.0689 0.0
Cd144 Cd 0.51788 0.25215 0.99402 0.0
O145 O 0.52676 0.29129 0.06065 0.0
Cd146 Cd 0.51667 0.28929 0.98752 0.0
O147 O 0.52685 0.29178 0.9171 0.0
C148 C 0.54049 0.30393 0.91252 0.0
O149 O 0.54602 0.31395 0.94835 0.0
C150 C 0.53443 0.27691 0.08513 0.0
C151 C 0.47792 0.24689 0.99641 0.0
O152 O 0.48977 0.23295 0.00884 0.0
O153 O 0.48497 0.26337 0.98334 0.0
O154 O 0.2898 0.01588 0.44865 0.0
Cd155 Cd 0.28969 0.99712 0.52438 0.0
O156 O 0.31314 0.03488 0.47421 0.0
Cd157 Cd 0.31223 0.02463 0.54765 0.0
O158 O 0.3052 0.03581 0.61384 0.0
C159 C 0.30462 0.05422 0.61198 0.0
O160 O 0.30859 0.0639 0.57278 0.0
C161 C 0.30154 0.02974 0.44106 0.0
C162 C 0.29149 0.9569 0.51973 0.0
O163 O 0.2752 0.96588 0.5162 0.0
O164 O 0.30696 0.96698 0.52465 0.0
O165 O 0.50203 0.67449 0.91253 0.0
Cd166 Cd 0.52965 0.66281 0.96414 0.0
O167 O 0.48891 0.68478 0.97335 0.0
Cd168 Cd 0.46682 0.69574 0.01576 0.0
O169 O 0.44814 0.70385 0.06943 0.0
C170 C 0.45041 0.69481 0.10952 0.0
O171 O 0.4637 0.68117 0.11648 0.0
C172 C 0.48792 0.68262 0.92957 0.0
C173 C 0.55696 0.6916 0.98017 0.0
O174 O 0.55734 0.68142 0.94457 0.0
O175 O 0.54354 0.68824 0.00822 0.0
H176 H 0.16423 0.19888 0.07935 0.0
H177 H 0.1406 0.2007 0.13866 0.0
H178 H 0.18515 0.22092 0.23585 0.0
H179 H 0.20884 0.21909 0.17724 0.0
H180 H 0.16341 0.18896 0.2712 0.0
H181 H 0.11639 0.24914 0.19054 0.0
H182 H 0.12094 0.22997 0.15343 0.0
H183 H 0.14055 0.24506 0.17307 0.0
C184 C 0.16897 0.20388 0.11319 0.0
C185 C 0.18847 0.20875 0.12357 0.0
C186 C 0.15542 0.205 0.14694 0.0
C187 C 0.16113 0.21107 0.19147 0.0
C188 C 0.18047 0.21623 0.20163 0.0
H189 H 0.09449 0.2396 0.42206 0.0
H190 H 0.11595 0.23968 0.35767 0.0
C191 C 0.19398 0.21517 0.16801 0.0
C192 C 0.1473 0.21106 0.22854 0.0
H193 H 0.10621 0.23264 0.25968 0.0
C194 C 0.15089 0.19849 0.26871 0.0
C195 C 0.1311 0.22363 0.22523 0.0
C196 C 0.127 0.23786 0.18347 0.0
C197 C 0.13862 0.19806 0.30566 0.0
C198 C 0.12226 0.21042 0.30207 0.0
C199 C 0.11872 0.22311 0.26208 0.0
C200 C 0.10882 0.21051 0.33996 0.0
C201 C 0.14344 0.18465 0.34862 0.0
C202 C 0.09758 0.19415 0.35083 0.0
C203 C 0.08532 0.19404 0.38752 0.0
C204 C 0.08407 0.21032 0.41398 0.0
C205 C 0.09518 0.22679 0.40252 0.0
C206 C 0.10739 0.2269 0.36568 0.0
H207 H 0.15859 0.17922 0.3501 0.0
H208 H 0.14135 0.1921 0.38097 0.0
H209 H 0.13361 0.17198 0.34809 0.0
H210 H 0.09833 0.18145 0.33096 0.0
H211 H 0.0769 0.18115 0.39525 0.0
H212 H 0.24646 0.67757 0.66445 0.0
H213 H 0.23411 0.65135 0.71593 0.0
H214 H 0.27944 0.61353 0.67998 0.0
H215 H 0.29206 0.63961 0.62916 0.0
H216 H 0.22125 0.61375 0.69668 0.0
H217 H 0.28586 0.61117 0.82298 0.0
H218 H 0.28122 0.63103 0.7795 0.0
H219 H 0.29124 0.60866 0.76339 0.0
C220 C 0.25383 0.66369 0.66755 0.0
C221 C 0.27042 0.66079 0.64313 0.0
C222 C 0.24672 0.64871 0.69687 0.0
C223 C 0.25607 0.63061 0.70235 0.0
C224 C 0.27227 0.62752 0.67704 0.0
H225 H 0.24075 0.52673 0.88476 0.0
H226 H 0.24949 0.5491 0.8198 0.0
C227 C 0.27942 0.64245 0.64789 0.0
C228 C 0.24905 0.61501 0.73494 0.0
H229 H 0.26256 0.58652 0.83368 0.0
C230 C 0.23025 0.6078 0.7267 0.0
C231 C 0.26085 0.60726 0.77401 0.0
C232 C 0.28085 0.61502 0.78588 0.0
C233 C 0.22299 0.59288 0.75629 0.0
C234 C 0.23478 0.58519 0.7954 0.0
C235 C 0.25361 0.59233 0.80342 0.0
C236 C 0.22766 0.57046 0.83009 0.0
C237 C 0.20287 0.58532 0.74516 0.0
C238 C 0.21226 0.57491 0.85687 0.0
C239 C 0.20723 0.56218 0.89398 0.0
C240 C 0.21759 0.54478 0.90526 0.0
C241 C 0.23245 0.53997 0.87702 0.0
C242 C 0.2375 0.55276 0.83994 0.0
H243 H 0.19798 0.58863 0.70777 0.0
H244 H 0.20219 0.5694 0.75322 0.0
H245 H 0.1926 0.59234 0.76682 0.0
H246 H 0.20471 0.58864 0.85048 0.0
H247 H 0.19573 0.56637 0.91499 0.0
H248 H 0.8359 0.82705 0.11798 0.0
H249 H 0.86447 0.82065 0.17178 0.0
H250 H 0.84324 0.76337 0.20832 0.0
H251 H 0.81453 0.76961 0.15482 0.0
H252 H 0.85521 0.78499 0.28601 0.0
H253 H 0.91094 0.78467 0.15566 0.0
H254 H 0.89522 0.80549 0.15024 0.0
H255 H 0.88541 0.78201 0.13989 0.0
C256 C 0.83732 0.81303 0.13723 0.0
C257 C 0.82287 0.79885 0.13209 0.0
C258 C 0.85373 0.80938 0.16777 0.0
C259 C 0.85604 0.79148 0.19363 0.0
C260 C 0.84173 0.77726 0.18851 0.0
H261 H 0.95566 0.74195 0.35706 0.0
H262 H 0.92892 0.74998 0.29875 0.0
C263 C 0.82534 0.78086 0.15787 0.0
C264 C 0.87303 0.78781 0.22738 0.0
H265 H 0.9223 0.78341 0.23568 0.0
C266 C 0.86989 0.78464 0.27507 0.0
C267 C 0.89211 0.78724 0.21284 0.0
C268 C 0.89621 0.78987 0.16185 0.0
C269 C 0.88536 0.78102 0.30876 0.0
C270 C 0.90449 0.78078 0.29435 0.0
C271 C 0.90763 0.7838 0.2466 0.0
C272 C 0.92134 0.77666 0.32826 0.0
C273 C 0.88111 0.77708 0.3594 0.0
C274 C 0.92625 0.78928 0.36341 0.0
C275 C 0.94157 0.78476 0.39675 0.0
C276 C 0.95219 0.76751 0.39557 0.0
C277 C 0.94769 0.7553 0.35915 0.0
C278 C 0.9324 0.75984 0.32582 0.0
H279 H 0.86559 0.77369 0.36329 0.0
H280 H 0.89004 0.76481 0.376 0.0
H281 H 0.88476 0.79011 0.37869 0.0
H282 H 0.91819 0.8026 0.36513 0.0
H283 H 0.94517 0.79487 0.42306 0.0
H284 H 0.71452 0.37681 0.59056 0.0
H285 H 0.72935 0.40155 0.63831 0.0
H286 H 0.77502 0.36156 0.6892 0.0
H287 H 0.7605 0.33683 0.64127 0.0
H288 H 0.73579 0.39893 0.73482 0.0
H289 H 0.80499 0.41031 0.65086 0.0
H290 H 0.78456 0.39824 0.62318 0.0
H291 H 0.80031 0.38531 0.66716 0.0
C292 C 0.7278 0.3733 0.61164 0.0
C293 C 0.73629 0.3548 0.61214 0.0
C294 C 0.73626 0.38748 0.63883 0.0
C295 C 0.75344 0.38349 0.6667 0.0
C296 C 0.762 0.36509 0.66712 0.0
H297 H 0.82105 0.43075 0.89041 0.0
H298 H 0.80782 0.41318 0.82461 0.0
C299 C 0.75357 0.35091 0.63998 0.0
C300 C 0.76174 0.39807 0.69778 0.0
H301 H 0.80327 0.42252 0.72657 0.0
C302 C 0.75044 0.40433 0.73264 0.0
C303 C 0.78086 0.40505 0.69479 0.0
C304 C 0.79333 0.39954 0.65669 0.0
C305 C 0.75804 0.41673 0.76594 0.0
C306 C 0.77734 0.42331 0.76372 0.0
C307 C 0.78847 0.41746 0.72811 0.0
C308 C 0.78658 0.43514 0.80009 0.0
C309 C 0.74563 0.42198 0.80445 0.0
C310 C 0.77944 0.45362 0.80713 0.0
C311 C 0.78694 0.46373 0.84487 0.0
C312 C 0.80176 0.45551 0.87605 0.0
C313 C 0.80956 0.43745 0.86729 0.0
C314 C 0.80204 0.42738 0.82963 0.0
H315 H 0.73264 0.41259 0.80664 0.0
H316 H 0.75405 0.42078 0.8389 0.0
H317 H 0.74063 0.43721 0.79755 0.0
H318 H 0.76773 0.46 0.78416 0.0
H319 H 0.78071 0.47766 0.85044 0.0
H320 H 0.65765 0.33647 0.4017 0.0
H321 H 0.62912 0.33113 0.349 0.0
H322 H 0.64583 0.27138 0.34297 0.0
H323 H 0.67433 0.27648 0.3958 0.0
H324 H 0.62933 0.31819 0.25733 0.0
H325 H 0.58838 0.26816 0.37348 0.0
H326 H 0.60788 0.28316 0.3954 0.0
H327 H 0.61313 0.26123 0.36854 0.0
C328 C 0.65524 0.32215 0.38937 0.0
C329 C 0.66833 0.30691 0.40293 0.0
C330 C 0.6389 0.31914 0.35931 0.0
C331 C 0.63523 0.30081 0.34268 0.0
C332 C 0.64821 0.28555 0.35615 0.0
H333 H 0.55697 0.25059 0.13988 0.0
H334 H 0.57991 0.25714 0.20541 0.0
C335 C 0.66459 0.28855 0.38605 0.0
C336 C 0.6184 0.29787 0.30919 0.0
H337 H 0.57704 0.27148 0.29306 0.0
C338 C 0.61777 0.30814 0.26524 0.0
C339 C 0.60343 0.28468 0.31967 0.0
C340 C 0.60307 0.27378 0.36697 0.0
C341 C 0.60288 0.30513 0.23082 0.0
C342 C 0.58796 0.29181 0.2411 0.0
C343 C 0.58844 0.28173 0.28534 0.0
C344 C 0.57232 0.28748 0.20541 0.0
C345 C 0.60371 0.31568 0.18315 0.0
C346 C 0.55987 0.30217 0.18495 0.0
C347 C 0.54679 0.29851 0.14726 0.0
C348 C 0.54581 0.28002 0.12966 0.0
C349 C 0.5574 0.26502 0.15236 0.0
C350 C 0.57053 0.26873 0.18986 0.0
H351 H 0.61835 0.32164 0.17758 0.0
H352 H 0.59967 0.30593 0.15493 0.0
H353 H 0.59331 0.32798 0.17997 0.0
H354 H 0.56069 0.31664 0.1972 0.0
H355 H 0.53796 0.31036 0.13092 0.0
H356 H 0.23908 0.13871 0.96312 0.0
H357 H 0.25212 0.11489 0.91414 0.0
H358 H 0.26399 0.16063 0.81033 0.0
H359 H 0.25112 0.18452 0.85885 0.0
H360 H 0.23961 0.10748 0.8197 0.0
H361 H 0.31611 0.13138 0.83583 0.0
H362 H 0.2985 0.138 0.8756 0.0
H363 H 0.29921 0.15071 0.81895 0.0
C364 C 0.24448 0.14372 0.92989 0.0
C365 C 0.24407 0.16355 0.91495 0.0
C366 C 0.25193 0.13008 0.902 0.0
C367 C 0.25927 0.13606 0.85902 0.0
C368 C 0.25871 0.15577 0.84382 0.0
H369 H 0.30243 0.09329 0.61706 0.0
H370 H 0.29187 0.11104 0.68125 0.0
C371 C 0.25122 0.16939 0.87151 0.0
C372 C 0.2671 0.12174 0.82918 0.0
H373 H 0.30747 0.11076 0.7743 0.0
C374 C 0.25451 0.10796 0.81023 0.0
C375 C 0.28657 0.1224 0.81718 0.0
C376 C 0.30096 0.13629 0.83827 0.0
C377 C 0.26062 0.09547 0.7775 0.0
C378 C 0.2799 0.09665 0.76413 0.0
C379 C 0.29268 0.10994 0.78453 0.0
C380 C 0.28668 0.08544 0.72622 0.0
C381 C 0.24615 0.08181 0.75578 0.0
C382 C 0.28752 0.0651 0.73047 0.0
C383 C 0.29354 0.05483 0.69361 0.0
C384 C 0.2989 0.06478 0.65206 0.0
C385 C 0.29837 0.08515 0.64846 0.0
C386 C 0.29236 0.09535 0.68517 0.0
H387 H 0.23106 0.08525 0.76336 0.0
H388 H 0.24705 0.08233 0.71723 0.0
H389 H 0.24949 0.06677 0.77005 0.0
H390 H 0.2835 0.05719 0.76222 0.0
H391 H 0.29388 0.03914 0.69754 0.0
H392 H 0.32259 0.73757 0.39857 0.0
H393 H 0.34658 0.73976 0.3396 0.0
H394 H 0.37256 0.68615 0.39872 0.0
H395 H 0.34877 0.68381 0.45786 0.0
H396 H 0.39948 0.71761 0.37301 0.0
H397 H 0.34377 0.70187 0.23125 0.0
H398 H 0.33863 0.72133 0.26705 0.0
H399 H 0.33987 0.69689 0.29246 0.0
C400 C 0.33353 0.72635 0.39939 0.0
C401 C 0.33362 0.71038 0.43261 0.0
C402 C 0.34717 0.7276 0.36557 0.0
C403 C 0.36112 0.71298 0.36455 0.0
C404 C 0.36183 0.69753 0.3989 0.0
H405 H 0.44994 0.67626 0.19652 0.0
H406 H 0.42893 0.68284 0.25845 0.0
C407 C 0.34818 0.6962 0.43257 0.0
C408 C 0.37441 0.71314 0.32638 0.0
H409 H 0.37576 0.70608 0.21017 0.0
C410 C 0.39433 0.71524 0.3373 0.0
C411 C 0.36757 0.71009 0.27992 0.0
C412 C 0.34632 0.70728 0.26671 0.0
C413 C 0.40768 0.7142 0.30288 0.0
C414 C 0.4009 0.7105 0.25669 0.0
C415 C 0.38092 0.70891 0.2456 0.0
C416 C 0.41427 0.7072 0.21984 0.0
C417 C 0.42888 0.71715 0.3163 0.0
C418 C 0.41269 0.71841 0.17705 0.0
C419 C 0.42454 0.71452 0.14126 0.0
C420 C 0.43813 0.6993 0.1476 0.0
C421 C 0.43971 0.68817 0.19058 0.0
C422 C 0.42782 0.69201 0.22622 0.0
H423 H 0.43097 0.7258 0.34747 0.0
H424 H 0.4359 0.70283 0.32526 0.0
H425 H 0.43631 0.72458 0.28705 0.0
H426 H 0.40221 0.7301 0.17127 0.0
H427 H 0.42295 0.72336 0.10857 0.0
H428 H 0.7243 0.83921 0.90315 0.0
H429 H 0.71096 0.86516 0.84792 0.0
H430 H 0.7617 0.89977 0.87655 0.0
H431 H 0.77494 0.87418 0.93245 0.0
H432 H 0.72886 0.92098 0.87479 0.0
H433 H 0.72794 0.87876 0.71725 0.0
H434 H 0.71466 0.86758 0.76339 0.0
H435 H 0.74045 0.87048 0.77224 0.0
C436 C 0.73262 0.85235 0.89775 0.0
C437 C 0.75077 0.85453 0.92208 0.0
C438 C 0.72503 0.86712 0.86588 0.0
C439 C 0.73551 0.88425 0.85735 0.0
C440 C 0.75341 0.88663 0.88232 0.0
H441 H 0.71436 0.97026 0.6225 0.0
H442 H 0.72779 0.94448 0.67817 0.0
C443 C 0.76096 0.87195 0.91432 0.0
C444 C 0.7278 0.89987 0.82293 0.0
H445 H 0.71243 0.90957 0.70796 0.0
C446 C 0.7253 0.91849 0.83829 0.0
C447 C 0.72348 0.89671 0.77511 0.0
C448 C 0.72694 0.87736 0.75581 0.0
C449 C 0.71835 0.93395 0.80738 0.0
C450 C 0.71333 0.93061 0.75996 0.0
C451 C 0.71611 0.91207 0.7444 0.0
C452 C 0.7051 0.94614 0.726 0.0
C453 C 0.71681 0.95378 0.8257 0.0
C454 C 0.68778 0.95548 0.73406 0.0
C455 C 0.68007 0.97015 0.70225 0.0
C456 C 0.68933 0.97555 0.66126 0.0
C457 C 0.7066 0.9661 0.65303 0.0
C458 C 0.71438 0.95147 0.68506 0.0
H459 H 0.72637 0.95512 0.85803 0.0
H460 H 0.72067 0.96532 0.79912 0.0
H461 H 0.70169 0.95627 0.83442 0.0
H462 H 0.68012 0.95133 0.76483 0.0
H463 H 0.66668 0.97708 0.70945 0.0
H464 H 0.83878 0.82772 0.96244 0.0
H465 H 0.86325 0.82766 0.90442 0.0
H466 H 0.82566 0.79293 0.81809 0.0
H467 H 0.80118 0.79318 0.87493 0.0
H468 H 0.88261 0.79785 0.86843 0.0
H469 H 0.83782 0.83823 0.72736 0.0
H470 H 0.83171 0.83683 0.78765 0.0
H471 H 0.82527 0.81745 0.75076 0.0
C472 C 0.83578 0.82005 0.93111 0.0
C473 C 0.81793 0.81068 0.92297 0.0
C474 C 0.84974 0.82007 0.89801 0.0
C475 C 0.84603 0.81074 0.8564 0.0
C476 C 0.82857 0.80074 0.84925 0.0
H477 H 0.9163 0.76103 0.66636 0.0
H478 H 0.89861 0.76994 0.73222 0.0
C479 C 0.81463 0.80081 0.88198 0.0
C480 C 0.86036 0.811 0.82037 0.0
H481 H 0.86418 0.81947 0.70288 0.0
C482 C 0.87873 0.80286 0.83235 0.0
C483 C 0.85547 0.818 0.77354 0.0
C484 C 0.83657 0.82831 0.75916 0.0
C485 C 0.89188 0.80037 0.7981 0.0
C486 C 0.88626 0.80575 0.75058 0.0
C487 C 0.86838 0.81505 0.73916 0.0
C488 C 0.898 0.80068 0.71185 0.0
C489 C 0.91155 0.79183 0.81316 0.0
C490 C 0.90305 0.81491 0.67756 0.0
C491 C 0.9129 0.8098 0.63924 0.0
C492 C 0.91786 0.79034 0.63458 0.0
C493 C 0.91284 0.77616 0.66907 0.0
C494 C 0.90288 0.78126 0.70707 0.0
H495 H 0.91609 0.79507 0.84969 0.0
H496 H 0.91088 0.77584 0.81202 0.0
H497 H 0.92273 0.79745 0.78983 0.0
H498 H 0.89926 0.82996 0.68029 0.0
H499 H 0.91658 0.82106 0.61327 0.0
H500 H 0.73972 0.3362 0.35332 0.0
H501 H 0.75286 0.36134 0.30017 0.0
H502 H 0.74727 0.40334 0.40268 0.0
H503 H 0.7343 0.37839 0.45614 0.0
H504 H 0.73378 0.39586 0.26504 0.0
H505 H 0.80316 0.41117 0.3644 0.0
H506 H 0.78931 0.38945 0.37627 0.0
H507 H 0.78212 0.412 0.39756 0.0
C508 C 0.74146 0.35073 0.36477 0.0
C509 C 0.7359 0.35526 0.40899 0.0
C510 C 0.74895 0.36508 0.33433 0.0
C511 C 0.75123 0.38414 0.3477 0.0
C512 C 0.74594 0.38865 0.39198 0.0
H513 H 0.76099 0.48687 0.15714 0.0
H514 H 0.75197 0.46385 0.22061 0.0
C515 C 0.7384 0.37436 0.42236 0.0
C516 C 0.75813 0.39955 0.3144 0.0
H517 H 0.79402 0.43285 0.29866 0.0
C518 C 0.74696 0.40393 0.27232 0.0
C519 C 0.77539 0.40996 0.32394 0.0
C520 C 0.78832 0.40534 0.36779 0.0
C521 C 0.75249 0.41857 0.23965 0.0
C522 C 0.76952 0.4293 0.24964 0.0
C523 C 0.78083 0.42478 0.29145 0.0
C524 C 0.77623 0.44457 0.21576 0.0
C525 C 0.74027 0.42219 0.19426 0.0
C526 C 0.79334 0.44182 0.19362 0.0
C527 C 0.79859 0.45496 0.1575 0.0
C528 C 0.78684 0.47117 0.14298 0.0
C529 C 0.77033 0.47452 0.16728 0.0
C530 C 0.76507 0.46131 0.20336 0.0
H531 H 0.73008 0.4101 0.18777 0.0
H532 H 0.73163 0.43562 0.19568 0.0
H533 H 0.74954 0.42423 0.16425 0.0
H534 H 0.80221 0.42905 0.20289 0.0
H535 H 0.81146 0.45197 0.13978 0.0
H536 H 0.19055 0.23909 0.871 0.0
H537 H 0.16163 0.24284 0.81698 0.0
H538 H 0.13455 0.19533 0.8928 0.0
H539 H 0.16354 0.19113 0.94595 0.0
H540 H 0.13192 0.19083 0.80153 0.0
H541 H 0.10888 0.26552 0.83085 0.0
H542 H 0.13343 0.26405 0.81497 0.0
H543 H 0.12673 0.25231 0.86938 0.0
C544 C 0.17833 0.2296 0.8765 0.0
C545 C 0.17938 0.21475 0.91265 0.0
C546 C 0.16175 0.23184 0.84573 0.0
C547 C 0.1458 0.21951 0.85109 0.0
C548 C 0.14667 0.20502 0.88793 0.0
H549 H 0.03014 0.22827 0.71448 0.0
H550 H 0.05918 0.23001 0.76771 0.0
C551 C 0.16327 0.20264 0.9183 0.0
C552 C 0.1287 0.22068 0.81668 0.0
H553 H 0.09292 0.25083 0.76616 0.0
C554 C 0.12337 0.20396 0.79392 0.0
C555 C 0.11743 0.23774 0.80705 0.0
C556 C 0.12176 0.25587 0.83216 0.0
C557 C 0.10714 0.20377 0.76187 0.0
C558 C 0.09622 0.22099 0.75108 0.0
C559 C 0.10146 0.23772 0.77399 0.0
C560 C 0.07892 0.22163 0.71738 0.0
C561 C 0.10157 0.18495 0.74092 0.0
C562 C 0.0804 0.21681 0.67104 0.0
C563 C 0.06381 0.21557 0.64074 0.0
C564 C 0.04542 0.21957 0.6558 0.0
C565 C 0.04408 0.22515 0.70171 0.0
C566 C 0.06067 0.22621 0.73214 0.0
H567 H 0.108 0.17224 0.76229 0.0
H568 H 0.0856 0.18317 0.73768 0.0
H569 H 0.10701 0.1849 0.70546 0.0
H570 H 0.09436 0.21346 0.65867 0.0
H571 H 0.06541 0.21054 0.60645 0.0
H572 H 0.27259 0.63726 0.49476 0.0
H573 H 0.25908 0.61236 0.44542 0.0
H574 H 0.25126 0.65495 0.32868 0.0
H575 H 0.26479 0.67992 0.37741 0.0
H576 H 0.22199 0.61144 0.39387 0.0
H577 H 0.28326 0.61106 0.27907 0.0
H578 H 0.28507 0.62151 0.33515 0.0
H579 H 0.27337 0.63471 0.28483 0.0
C580 C 0.26804 0.64134 0.45855 0.0
C581 C 0.26995 0.66057 0.43992 0.0
C582 C 0.26029 0.6271 0.4305 0.0
C583 C 0.25446 0.63179 0.38332 0.0
C584 C 0.25599 0.65099 0.36484 0.0
H585 H 0.18181 0.57837 0.17742 0.0
H586 H 0.19514 0.59608 0.24283 0.0
C587 C 0.26367 0.66525 0.39283 0.0
C588 C 0.24669 0.61667 0.35317 0.0
H589 H 0.25451 0.5949 0.25305 0.0
C590 C 0.22916 0.60765 0.36331 0.0
C591 C 0.25626 0.61155 0.31384 0.0
C592 C 0.27563 0.62006 0.30269 0.0
C593 C 0.22051 0.5942 0.33389 0.0
C594 C 0.22958 0.58988 0.29315 0.0
C595 C 0.24751 0.59831 0.28416 0.0
C596 C 0.2203 0.57756 0.25779 0.0
C597 C 0.20173 0.58482 0.34655 0.0
C598 C 0.22999 0.56121 0.24452 0.0
C599 C 0.22244 0.55108 0.20689 0.0
C600 C 0.20517 0.55726 0.18157 0.0
C601 C 0.19513 0.57319 0.19617 0.0
C602 C 0.20267 0.58328 0.2338 0.0
H603 H 0.19983 0.58499 0.38465 0.0
H604 H 0.18947 0.59299 0.32752 0.0
H605 H 0.20099 0.5696 0.33655 0.0
H606 H 0.24367 0.55661 0.26246 0.0
H607 H 0.23054 0.53888 0.19656 0.0
H608 H 0.3575 0.69202 0.60342 0.0
H609 H 0.38503 0.69274 0.66097 0.0
H610 H 0.35072 0.7238 0.75126 0.0
H611 H 0.3228 0.72269 0.69426 0.0
H612 H 0.40511 0.7223 0.69893 0.0
H613 H 0.36959 0.67784 0.83741 0.0
H614 H 0.35948 0.68065 0.7777 0.0
H615 H 0.35694 0.69971 0.81639 0.0
C616 C 0.35575 0.69907 0.63543 0.0
C617 C 0.33784 0.70709 0.64446 0.0
C618 C 0.37155 0.69949 0.66829 0.0
C619 C 0.36983 0.70799 0.7108 0.0
C620 C 0.35222 0.71673 0.7192 0.0
H621 H 0.46065 0.71068 0.94103 0.0
H622 H 0.43149 0.7188 0.89014 0.0
C623 C 0.33632 0.71618 0.68645 0.0
C624 C 0.38648 0.70725 0.74632 0.0
H625 H 0.40143 0.68827 0.85601 0.0
C626 C 0.40425 0.715 0.7334 0.0
C627 C 0.38534 0.69769 0.79133 0.0
C628 C 0.36688 0.68834 0.80656 0.0
C629 C 0.421 0.71306 0.76383 0.0
C630 C 0.41992 0.7031 0.80819 0.0
C631 C 0.40208 0.69597 0.82192 0.0
C632 C 0.4375 0.69845 0.83908 0.0
C633 C 0.43985 0.72129 0.74813 0.0
C634 C 0.45036 0.68426 0.82722 0.0
C635 C 0.46672 0.67926 0.85671 0.0
C636 C 0.47052 0.68833 0.89875 0.0
C637 C 0.45775 0.70282 0.91011 0.0
C638 C 0.44124 0.7077 0.8807 0.0
H639 H 0.43758 0.73178 0.71711 0.0
H640 H 0.44774 0.72863 0.77691 0.0
H641 H 0.44915 0.7093 0.73866 0.0
H642 H 0.44762 0.6769 0.79531 0.0
H643 H 0.47629 0.66809 0.84679 0.0
H644 H 0.74651 0.82352 0.17978 0.0
H645 H 0.7355 0.8444 0.23762 0.0
H646 H 0.75528 0.89467 0.1572 0.0
H647 H 0.76606 0.8738 0.09827 0.0
H648 H 0.75754 0.86803 0.2912 0.0
H649 H 0.70064 0.91061 0.18319 0.0
H650 H 0.71102 0.88877 0.16435 0.0
H651 H 0.72408 0.91122 0.15991 0.0
C652 C 0.74843 0.83903 0.17408 0.0
C653 C 0.75723 0.84698 0.1344 0.0
C654 C 0.74212 0.85095 0.20726 0.0
C655 C 0.74443 0.8711 0.20162 0.0
C656 C 0.75303 0.87918 0.16184 0.0
H657 H 0.73576 0.94421 0.43673 0.0
H658 H 0.74756 0.9272 0.37227 0.0
C659 C 0.75926 0.86723 0.12831 0.0
C660 C 0.73851 0.88335 0.23866 0.0
H661 H 0.7078 0.91974 0.26047 0.0
C662 C 0.7467 0.87938 0.28447 0.0
C663 C 0.72424 0.89801 0.22986 0.0
C664 C 0.71433 0.90235 0.18178 0.0
C665 C 0.74087 0.88952 0.32184 0.0
C666 C 0.72679 0.90437 0.31297 0.0
C667 C 0.7187 0.90845 0.2671 0.0
C668 C 0.71965 0.91524 0.35117 0.0
C669 C 0.7494 0.88377 0.37066 0.0
C670 C 0.69996 0.91461 0.35993 0.0
C671 C 0.69314 0.92445 0.39644 0.0
C672 C 0.70589 0.93515 0.42495 0.0
C673 C 0.72559 0.93595 0.41575 0.0
C674 C 0.73238 0.92618 0.37901 0.0
H675 H 0.75607 0.8691 0.373 0.0
H676 H 0.76086 0.89425 0.38055 0.0
H677 H 0.73818 0.88393 0.3965 0.0
H678 H 0.68989 0.90629 0.33881 0.0
H679 H 0.67788 0.92358 0.40246 0.0
H680 H 0.64488 0.32036 0.54747 0.0
H681 H 0.61664 0.31773 0.59439 0.0
H682 H 0.65369 0.29975 0.71668 0.0
H683 H 0.68187 0.30195 0.67014 0.0
H684 H 0.62062 0.27771 0.70795 0.0
H685 H 0.60307 0.35646 0.6882 0.0
H686 H 0.604 0.34466 0.63456 0.0
H687 H 0.62569 0.34689 0.67189 0.0
C688 C 0.64702 0.31584 0.58436 0.0
C689 C 0.66568 0.31154 0.60514 0.0
C690 C 0.63086 0.31442 0.61113 0.0
C691 C 0.63312 0.30884 0.65915 0.0
C692 C 0.65164 0.30414 0.67968 0.0
H693 H 0.57131 0.32721 0.89553 0.0
H694 H 0.59119 0.32794 0.82867 0.0
C695 C 0.66775 0.30545 0.653 0.0
C696 C 0.61636 0.30811 0.68869 0.0
H697 H 0.58317 0.33661 0.73428 0.0
C698 C 0.61227 0.29052 0.71339 0.0
C699 C 0.60561 0.3249 0.69584 0.0
C700 C 0.60984 0.34436 0.67158 0.0
C701 C 0.59815 0.2894 0.74629 0.0
C702 C 0.58757 0.30625 0.75392 0.0
C703 C 0.59122 0.32369 0.72805 0.0
C704 C 0.57429 0.30661 0.79219 0.0
C705 C 0.59542 0.27042 0.77431 0.0
C706 C 0.55787 0.29469 0.79339 0.0
C707 C 0.54647 0.29413 0.83193 0.0
C708 C 0.55127 0.3056 0.86964 0.0
C709 C 0.56724 0.31811 0.86725 0.0
C710 C 0.57862 0.31859 0.82895 0.0
H711 H 0.60733 0.25999 0.77069 0.0
H712 H 0.59463 0.27279 0.81201 0.0
H713 H 0.58162 0.26373 0.76177 0.0
H714 H 0.55405 0.28562 0.76492 0.0
H715 H 0.53417 0.28445 0.83258 0.0
H716 H 0.22937 0.14123 0.10909 0.0
H717 H 0.24318 0.11516 0.16275 0.0
H718 H 0.29426 0.14943 0.18986 0.0
H719 H 0.28045 0.17583 0.13659 0.0
H720 H 0.27809 0.09397 0.16385 0.0
H721 H 0.27495 0.13662 0.32054 0.0
H722 H 0.2624 0.14404 0.265 0.0
H723 H 0.28804 0.14776 0.27395 0.0
C724 C 0.24357 0.14328 0.12635 0.0
C725 C 0.25369 0.16077 0.11896 0.0
C726 C 0.25146 0.1283 0.15688 0.0
C727 C 0.26961 0.13047 0.18077 0.0
C728 C 0.28007 0.14761 0.17238 0.0
H729 H 0.32562 0.05885 0.41228 0.0
H730 H 0.32021 0.08199 0.34447 0.0
C731 C 0.27217 0.16266 0.14182 0.0
C732 C 0.27714 0.115 0.21562 0.0
H733 H 0.28817 0.10522 0.33259 0.0
C734 C 0.28041 0.09642 0.20074 0.0
C735 C 0.28009 0.11824 0.2637 0.0
C736 C 0.27606 0.13768 0.28201 0.0
C737 C 0.28655 0.08098 0.23275 0.0
C738 C 0.28918 0.08417 0.28092 0.0
C739 C 0.28623 0.10283 0.2956 0.0
C740 C 0.29408 0.06831 0.31731 0.0
C741 C 0.29026 0.06145 0.2147 0.0
C742 C 0.28144 0.05262 0.32397 0.0
C743 C 0.28453 0.03927 0.3627 0.0
C744 C 0.3002 0.04152 0.39576 0.0
C745 C 0.31336 0.0567 0.38764 0.0
C746 C 0.3103 0.06998 0.34889 0.0
H747 H 0.29326 0.06277 0.17708 0.0
H748 H 0.30266 0.05397 0.23494 0.0
H749 H 0.27721 0.05229 0.21831 0.0
H750 H 0.26862 0.05124 0.3006 0.0
H751 H 0.27406 0.02782 0.36798 0.0
H752 H 0.2409 0.27765 0.94734 0.0
H753 H 0.23812 0.31279 0.94877 0.0
H754 H 0.21449 0.30589 0.08405 0.0
H755 H 0.21763 0.27068 0.08346 0.0
H756 H 0.20705 0.33638 0.95414 0.0
H757 H 0.25896 0.34287 0.1084 0.0
H758 H 0.25636 0.32088 0.07827 0.0
H759 H 0.23919 0.32677 0.1194 0.0
C760 C 0.23511 0.28356 0.97746 0.0
C761 C 0.22968 0.27131 0.01553 0.0
C762 C 0.23351 0.30368 0.97817 0.0
C763 C 0.22644 0.312 0.01688 0.0
C764 C 0.22044 0.29982 0.05432 0.0
H765 H 0.19068 0.43292 0.02049 0.0
H766 H 0.19146 0.39765 0.01801 0.0
C767 C 0.22215 0.27968 0.0538 0.0
C768 C 0.22543 0.33341 0.0179 0.0
H769 H 0.24169 0.37132 0.07984 0.0
C770 C 0.21463 0.34404 0.98159 0.0
C771 C 0.23557 0.3434 0.05337 0.0
C772 C 0.24833 0.33294 0.09183 0.0
C773 C 0.21357 0.36436 0.97995 0.0
C774 C 0.22325 0.37431 0.01618 0.0
C775 C 0.23415 0.36368 0.0523 0.0
C776 C 0.22263 0.39575 0.01689 0.0
C777 C 0.2025 0.37499 0.93882 0.0
C778 C 0.23991 0.40641 0.01821 0.0
C779 C 0.23953 0.42654 0.02021 0.0
C780 C 0.22184 0.43645 0.02094 0.0
C781 C 0.20454 0.42576 0.01956 0.0
C782 C 0.20494 0.40559 0.01786 0.0
H783 H 0.20066 0.36593 0.90834 0.0
H784 H 0.18787 0.37876 0.94899 0.0
H785 H 0.20994 0.38862 0.9278 0.0
H786 H 0.25374 0.39912 0.01766 0.0
H787 H 0.25312 0.43432 0.02129 0.0
H788 H 0.2243 0.73159 0.59062 0.0
H789 H 0.18906 0.73568 0.58325 0.0
H790 H 0.18696 0.71354 0.44621 0.0
H791 H 0.22209 0.70952 0.45292 0.0
H792 H 0.16535 0.74813 0.45104 0.0
H793 H 0.14867 0.69161 0.58963 0.0
H794 H 0.16614 0.7094 0.60725 0.0
H795 H 0.17182 0.69302 0.56422 0.0
C796 C 0.21635 0.72755 0.55894 0.0
C797 C 0.22604 0.72021 0.52238 0.0
C798 C 0.19622 0.72982 0.5549 0.0
C799 C 0.18544 0.72473 0.51438 0.0
C800 C 0.19505 0.71751 0.47779 0.0
H801 H 0.06216 0.70661 0.47123 0.0
H802 H 0.09748 0.70411 0.47575 0.0
C803 C 0.21513 0.71521 0.48178 0.0
C804 C 0.16415 0.7271 0.50967 0.0
H805 H 0.12244 0.71078 0.5554 0.0
C806 C 0.15594 0.74 0.47384 0.0
C807 C 0.15197 0.71628 0.53919 0.0
C808 C 0.16002 0.70166 0.57703 0.0
C809 C 0.1358 0.74249 0.46693 0.0
C810 C 0.12364 0.73192 0.49698 0.0
C811 C 0.13185 0.71893 0.5326 0.0
C812 C 0.10232 0.73391 0.49175 0.0
C813 C 0.12767 0.7561 0.42705 0.0
C814 C 0.09338 0.75153 0.49909 0.0
C815 C 0.07319 0.75302 0.49652 0.0
C816 C 0.06161 0.73688 0.48673 0.0
C817 C 0.07065 0.71933 0.47872 0.0
C818 C 0.09082 0.71785 0.48139 0.0
H819 H 0.13852 0.75961 0.40099 0.0
H820 H 0.11471 0.74976 0.40897 0.0
H821 H 0.12321 0.76984 0.44109 0.0
H822 H 0.10201 0.76401 0.50783 0.0
H823 H 0.06668 0.76672 0.50307 0.0
H824 H 0.78956 0.74554 0.95031 0.0
H825 H 0.79394 0.71046 0.94766 0.0
H826 H 0.76965 0.70122 0.08174 0.0
H827 H 0.76564 0.73604 0.08524 0.0
H828 H 0.80169 0.67908 0.07647 0.0
H829 H 0.75091 0.67201 0.92003 0.0
H830 H 0.77042 0.68872 0.91125 0.0
H831 H 0.75249 0.6938 0.9512 0.0
C832 C 0.78519 0.73603 0.97925 0.0
C833 C 0.77711 0.74364 0.01781 0.0
C834 C 0.78759 0.71597 0.97756 0.0
C835 C 0.78181 0.70318 0.01415 0.0
C836 C 0.77415 0.71078 0.05303 0.0
H837 H 0.75354 0.58178 0.01677 0.0
H838 H 0.75414 0.61714 0.01612 0.0
C839 C 0.77184 0.73075 0.05488 0.0
C840 C 0.78352 0.68183 0.01236 0.0
H841 H 0.76731 0.64362 0.95137 0.0
C842 C 0.79425 0.67132 0.04901 0.0
C843 C 0.77359 0.67171 0.97683 0.0
C844 C 0.76105 0.68207 0.93779 0.0
C845 C 0.79516 0.65098 0.05139 0.0
C846 C 0.78543 0.64087 0.01555 0.0
C847 C 0.77486 0.65139 0.97866 0.0
C848 C 0.78534 0.61936 0.01659 0.0
C849 C 0.80598 0.64051 0.09314 0.0
C850 C 0.80268 0.60882 0.01687 0.0
C851 C 0.80239 0.58856 0.01768 0.0
C852 C 0.78473 0.57847 0.01761 0.0
C853 C 0.76739 0.58908 0.01695 0.0
C854 C 0.7677 0.60931 0.01644 0.0
H855 H 0.80822 0.64991 0.12291 0.0
H856 H 0.79812 0.62729 0.10515 0.0
H857 H 0.82044 0.63606 0.08316 0.0
H858 H 0.81643 0.61626 0.01595 0.0
H859 H 0.816 0.58084 0.01773 0.0
H860 H 0.77513 0.27775 0.60072 0.0
H861 H 0.80916 0.26822 0.60977 0.0
H862 H 0.81767 0.29354 0.47124 0.0
H863 H 0.78347 0.30321 0.46162 0.0
H864 H 0.82713 0.24347 0.5463 0.0
H865 H 0.86276 0.31532 0.55867 0.0
H866 H 0.83771 0.31144 0.57064 0.0
H867 H 0.8446 0.31295 0.51141 0.0
C868 C 0.78421 0.28147 0.57219 0.0
C869 C 0.77651 0.29119 0.53031 0.0
C870 C 0.80367 0.276 0.5775 0.0
C871 C 0.81591 0.2803 0.54134 0.0
C872 C 0.80846 0.2903 0.49978 0.0
H873 H 0.93724 0.25094 0.51859 0.0
H874 H 0.90472 0.26511 0.50673 0.0
C875 C 0.78891 0.29573 0.49428 0.0
C876 C 0.83617 0.27324 0.54646 0.0
H877 H 0.88321 0.28795 0.56001 0.0
C878 C 0.83941 0.25317 0.54928 0.0
C879 C 0.8521 0.28598 0.54993 0.0
C880 C 0.84925 0.30764 0.54782 0.0
C881 C 0.85821 0.24544 0.55552 0.0
C882 C 0.87416 0.25814 0.56032 0.0
C883 C 0.87094 0.27826 0.55666 0.0
C884 C 0.89426 0.25071 0.56937 0.0
C885 C 0.86078 0.22375 0.55614 0.0
C886 C 0.89933 0.2384 0.60928 0.0
C887 C 0.91783 0.23019 0.61603 0.0
C888 C 0.9317 0.23434 0.58325 0.0
C889 C 0.92687 0.24741 0.54443 0.0
C890 C 0.9083 0.25552 0.53758 0.0
H891 H 0.84802 0.21673 0.53885 0.0
H892 H 0.87387 0.21996 0.53836 0.0
H893 H 0.8625 0.21764 0.59297 0.0
H894 H 0.88886 0.23488 0.63488 0.0
H895 H 0.92114 0.22033 0.64652 0.0
H896 H 0.72256 0.24014 0.47071 0.0
H897 H 0.71505 0.20552 0.47938 0.0
H898 H 0.68436 0.21482 0.60162 0.0
H899 H 0.69167 0.2494 0.59327 0.0
H900 H 0.72493 0.17922 0.55988 0.0
H901 H 0.64551 0.18471 0.51766 0.0
H902 H 0.66194 0.2041 0.50263 0.0
H903 H 0.65491 0.20016 0.56162 0.0
C904 C 0.71411 0.23486 0.4993 0.0
C905 C 0.70771 0.24758 0.53128 0.0
C906 C 0.70987 0.21507 0.50422 0.0
C907 C 0.69899 0.20767 0.54084 0.0
C908 C 0.69254 0.22029 0.57271 0.0
H909 H 0.65648 0.09477 0.63445 0.0
H910 H 0.66525 0.12901 0.62513 0.0
C911 C 0.69682 0.24005 0.56798 0.0
C912 C 0.69478 0.18666 0.54655 0.0
H913 H 0.65779 0.154 0.54749 0.0
C914 C 0.71028 0.17365 0.55692 0.0
C915 C 0.67564 0.1795 0.54283 0.0
C916 C 0.65852 0.19279 0.53019 0.0
C917 C 0.7071 0.15365 0.56473 0.0
C918 C 0.68794 0.14648 0.56109 0.0
C919 C 0.67247 0.15952 0.55042 0.0
C920 C 0.68354 0.12551 0.56811 0.0
C921 C 0.72425 0.14048 0.57806 0.0
C922 C 0.69092 0.11215 0.53916 0.0
C923 C 0.68602 0.09253 0.54458 0.0
C924 C 0.67347 0.08594 0.57874 0.0
C925 C 0.66621 0.09935 0.60787 0.0
C926 C 0.67117 0.11894 0.60253 0.0
H927 H 0.73699 0.14862 0.59194 0.0
H928 H 0.72067 0.1289 0.60481 0.0
H929 H 0.72844 0.13349 0.54657 0.0
H930 H 0.70014 0.11695 0.51169 0.0
H931 H 0.69175 0.08262 0.52133 0.0
H932 H 0.29881 0.22415 0.0776 0.0
H933 H 0.33366 0.22866 0.07399 0.0
H934 H 0.32806 0.22379 0.92465 0.0
H935 H 0.29318 0.21868 0.92813 0.0
H936 H 0.35883 0.20376 0.96431 0.0
H937 H 0.36004 0.2775 0.02817 0.0
H938 H 0.34972 0.26003 0.06829 0.0
H939 H 0.3378 0.26545 0.0111 0.0
C940 C 0.30496 0.22408 0.04393 0.0
C941 C 0.29317 0.22125 0.00307 0.0
C942 C 0.32489 0.22678 0.0419 0.0
C943 C 0.33342 0.22705 0.9989 0.0
C944 C 0.32177 0.2238 0.95817 0.0
H945 H 0.44924 0.27147 0.95846 0.0
H946 H 0.41426 0.26628 0.9568 0.0
C947 C 0.30183 0.22089 0.96022 0.0
C948 C 0.35452 0.23048 0.99658 0.0
H949 H 0.39067 0.26197 0.02575 0.0
C950 C 0.36578 0.21654 0.97747 0.0
C951 C 0.36355 0.24733 0.013 0.0
C952 C 0.35212 0.26352 0.03083 0.0
C953 C 0.38587 0.21879 0.97528 0.0
C954 C 0.39503 0.23516 0.99389 0.0
C955 C 0.3837 0.24929 0.01205 0.0
C956 C 0.41632 0.23807 0.99452 0.0
C957 C 0.39699 0.20375 0.95224 0.0
C958 C 0.42913 0.22406 0.01681 0.0
C959 C 0.44915 0.2269 0.01738 0.0
C960 C 0.45673 0.24397 0.9964 0.0
C961 C 0.44387 0.25816 0.97495 0.0
C962 C 0.42387 0.25521 0.97396 0.0
H963 H 0.3874 0.19576 0.9276 0.0
H964 H 0.40889 0.21045 0.93276 0.0
H965 H 0.40339 0.19304 0.97953 0.0
H966 H 0.42366 0.21097 0.03411 0.0
H967 H 0.45867 0.21577 0.03458 0.0
H968 H 0.27815 0.77501 0.46083 0.0
H969 H 0.28106 0.81022 0.45881 0.0
H970 H 0.30698 0.80593 0.60016 0.0
H971 H 0.30386 0.77062 0.60288 0.0
H972 H 0.27782 0.83292 0.58731 0.0
H973 H 0.3287 0.84417 0.44723 0.0
H974 H 0.30777 0.83034 0.43002 0.0
H975 H 0.32465 0.82066 0.47624 0.0
C976 C 0.28463 0.78149 0.49142 0.0
C977 C 0.29075 0.76994 0.53206 0.0
C978 C 0.2864 0.80165 0.49006 0.0
C979 C 0.2945 0.8107 0.52908 0.0
C980 C 0.30077 0.79923 0.56956 0.0
H981 H 0.32364 0.93356 0.53066 0.0
H982 H 0.32482 0.89811 0.53404 0.0
C983 C 0.29898 0.77905 0.57102 0.0
C984 C 0.29542 0.83216 0.52846 0.0
H985 H 0.31238 0.87234 0.4685 0.0
C986 C 0.28549 0.84154 0.56155 0.0
C987 C 0.30563 0.84339 0.49519 0.0
C988 C 0.31746 0.83414 0.46045 0.0
C989 C 0.28507 0.86183 0.56151 0.0
C990 C 0.29453 0.87308 0.5269 0.0
C991 C 0.30492 0.86371 0.49462 0.0
C992 C 0.29379 0.89458 0.52367 0.0
C993 C 0.27464 0.87103 0.59886 0.0
C994 C 0.27599 0.90438 0.51577 0.0
C995 C 0.27526 0.92462 0.51392 0.0
C996 C 0.29235 0.93548 0.51957 0.0
C997 C 0.31021 0.92564 0.5263 0.0
C998 C 0.31092 0.90538 0.52823 0.0
H999 H 0.2729 0.8607 0.62968 0.0
H1000 H 0.2825 0.884 0.61079 0.0
H1001 H 0.25997 0.87567 0.58431 0.0
H1002 H 0.26264 0.89635 0.5111 0.0
H1003 H 0.26128 0.93174 0.50836 0.0
H1004 H 0.70826 0.79433 0.10071 0.0
H1005 H 0.67471 0.7829 0.10121 0.0
H1006 H 0.67612 0.76948 0.95695 0.0
H1007 H 0.70923 0.78117 0.9557 0.0
H1008 H 0.64149 0.78639 0.97592 0.0
H1009 H 0.66221 0.72506 0.10596 0.0
H1010 H 0.66768 0.749 0.12357 0.0
H1011 H 0.68 0.73962 0.07684 0.0
C1012 C 0.70134 0.78914 0.06897 0.0
C1013 C 0.71154 0.78841 0.02836 0.0
C1014 C 0.68222 0.78253 0.06941 0.0
C1015 C 0.67308 0.77501 0.02937 0.0
C1016 C 0.68292 0.77515 0.9883 0.0
H1017 H 0.5842 0.70499 0.92184 0.0
H1018 H 0.61011 0.72806 0.93805 0.0
C1019 C 0.70192 0.78178 0.98774 0.0
C1020 C 0.65368 0.76597 0.03009 0.0
H1021 H 0.63034 0.72569 0.07266 0.0
C1022 C 0.63894 0.77328 0.99758 0.0
C1023 C 0.65039 0.74888 0.05845 0.0
C1024 C 0.6659 0.74003 0.09299 0.0
C1025 C 0.62129 0.76351 0.9913 0.0
C1026 C 0.61841 0.74593 0.01794 0.0
C1027 C 0.63266 0.73919 0.05231 0.0
C1028 C 0.60169 0.73325 0.00733 0.0
C1029 C 0.60605 0.77179 0.95534 0.0
C1030 C 0.58849 0.72841 0.04115 0.0
C1031 C 0.5736 0.71521 0.03196 0.0
C1032 C 0.57191 0.70644 0.98907 0.0
C1033 C 0.58509 0.71149 0.95519 0.0
C1034 C 0.59983 0.72478 0.96425 0.0
H1035 H 0.60799 0.78763 0.94789 0.0
H1036 H 0.60721 0.76467 0.92216 0.0
H1037 H 0.59128 0.76913 0.96717 0.0
H1038 H 0.58983 0.73468 0.07478 0.0
H1039 H 0.56371 0.71156 0.05883 0.0
loop_
_geom_bond_atom_site_label_1
_geom_bond_atom_site_label_2
_geom_bond_distance
_geom_bond_site_symmetry_2
_ccdc_geom_bond_type
Fe0 O2 1.918 . S
Fe0 O5 1.997 . S
Fe0 O6 2.002 . S
Fe0 O11 1.976 . S
Fe0 O14 1.996 . S
Fe1 O2 1.918 1_556 S
Fe1 O9 1.997 . S
Fe1 O12 1.996 . S
Fe1 O16 1.976 . S
Fe1 O19 2.002 . S
O2 Fe0 1.918 . S
O2 Fe1 1.918 1_554 S
O2 Fe3 1.918 . S
Fe3 O2 1.918 . S
Fe3 O4 2.002 . S
Fe3 O13 1.976 . S
Fe3 O17 1.996 1_554 S
Fe3 O20 1.997 1_554 S
O4 Fe3 2.002 . S
O4 C21 1.295 . S
O5 Fe0 1.997 . S
O5 C21 1.235 . S
O6 Fe0 2.002 . S
O6 C7 1.295 . S
C7 O6 1.295 . S
C7 O9 1.235 1_554 S
C8 O13 1.287 . S
C8 O14 1.255 . S
O9 Fe1 1.997 . S
O9 C7 1.235 1_556 S
C10 O16 1.287 . S
C10 O17 1.255 . S
O11 Fe0 1.976 . S
O11 C18 1.287 . S
O12 Fe1 1.996 . S
O12 C18 1.255 1_556 S
O13 Fe3 1.976 . S
O13 C8 1.287 . S
O14 Fe0 1.996 . S
O14 C8 1.255 . S
C15 O19 1.295 . S
C15 O20 1.235 . S
O16 Fe1 1.976 . S
O16 C10 1.287 . S
O17 Fe3 1.996 1_556 S
O17 C10 1.255 . S
C18 O11 1.287 . S
C18 O12 1.255 1_554 S
O19 Fe1 2.002 . S
O19 C15 1.295 . S
O20 Fe3 1.997 1_556 S
O20 C15 1.235 . S
C21 O4 1.295 . S
C21 O5 1.235 . S
Fe22 O24 1.918 . S
Fe22 O27 1.997 . S
Fe22 O28 2.002 . S
Fe22 O33 1.976 . S
Fe22 O36 1.996 . S
Fe23 O24 1.918 . S
Fe23 O31 1.997 . S
Fe23 O34 1.996 . S
Fe23 O38 1.976 . S
Fe23 O41 2.002 . S
O24 Fe22 1.918 . S
O24 Fe23 1.918 . S
O24 Fe25 1.918 . S
Fe25 O24 1.918 . S
Fe25 O26 2.002 . S
Fe25 O35 1.976 . S
Fe25 O39 1.996 . S
Fe25 O42 1.997 . S
O26 Fe25 2.002 . S
O26 C43 1.295 . S
O27 Fe22 1.997 . S
O27 C43 1.235 . S
O28 Fe22 2.002 . S
O28 C29 1.295 . S
C29 O28 1.295 . S
C29 O31 1.235 . S
C30 O35 1.287 . S
C30 O36 1.255 . S
O31 Fe23 1.997 . S
O31 C29 1.235 . S
C32 O38 1.287 . S
C32 O39 1.255 . S
O33 Fe22 1.976 . S
O33 C40 1.287 . S
O34 Fe23 1.996 . S
O34 C40 1.255 . S
O35 Fe25 1.976 . S
O35 C30 1.287 . S
O36 Fe22 1.996 . S
O36 C30 1.255 . S
C37 O41 1.295 . S
C37 O42 1.235 . S
O38 Fe23 1.976 . S
O38 C32 1.287 . S
O39 Fe25 1.996 . S
O39 C32 1.255 . S
C40 O33 1.287 . S
C40 O34 1.255 . S
O41 Fe23 2.002 . S
O41 C37 1.295 . S
O42 Fe25 1.997 . S
O42 C37 1.235 . S
C43 O26 1.295 . S
C43 O27 1.235 . S
Fe44 O46 1.918 1_556 S
Fe44 O49 1.997 . S
Fe44 O50 2.002 . S
Fe44 O55 1.976 . S
Fe44 O58 1.996 . S
Fe45 O46 1.918 . S
Fe45 O53 1.997 . S
Fe45 O56 1.996 . S
Fe45 O60 1.976 . S
Fe45 O63 2.002 . S
O46 Fe44 1.918 1_554 S
O46 Fe45 1.918 . S
O46 Fe47 1.918 . S
Fe47 O46 1.918 . S
Fe47 O48 2.002 1_554 S
Fe47 O57 1.976 1_554 S
Fe47 O61 1.996 . S
Fe47 O64 1.997 . S
O48 Fe47 2.002 1_556 S
O48 C65 1.295 . S
O49 Fe44 1.997 . S
O49 C65 1.235 . S
O50 Fe44 2.002 . S
O50 C51 1.295 1_556 S
C51 O50 1.295 1_554 S
C51 O53 1.235 . S
C52 O57 1.287 . S
C52 O58 1.255 . S
O53 Fe45 1.997 . S
O53 C51 1.235 . S
C54 O60 1.287 . S
C54 O61 1.255 . S
O55 Fe44 1.976 . S
O55 C62 1.287 1_556 S
O56 Fe45 1.996 . S
O56 C62 1.255 . S
O57 Fe47 1.976 1_556 S
O57 C52 1.287 . S
O58 Fe44 1.996 . S
O58 C52 1.255 . S
C59 O63 1.295 . S
C59 O64 1.235 . S
O60 Fe45 1.976 . S
O60 C54 1.287 . S
O61 Fe47 1.996 . S
O61 C54 1.255 . S
C62 O55 1.287 1_554 S
C62 O56 1.255 . S
O63 Fe45 2.002 . S
O63 C59 1.295 . S
O64 Fe47 1.997 . S
O64 C59 1.235 . S
C65 O48 1.295 . S
C65 O49 1.235 . S
Fe66 O68 1.918 . S
Fe66 O71 1.997 . S
Fe66 O72 2.002 . S
Fe66 O77 1.976 . S
Fe66 O80 1.996 . S
Fe67 O68 1.918 . S
Fe67 O75 1.997 . S
Fe67 O78 1.996 . S
Fe67 O82 1.976 . S
Fe67 O85 2.002 . S
O68 Fe66 1.918 . S
O68 Fe67 1.918 . S
O68 Fe69 1.918 . S
Fe69 O68 1.918 . S
Fe69 O70 2.002 . S
Fe69 O79 1.976 . S
Fe69 O83 1.996 . S
Fe69 O86 1.997 . S
O70 Fe69 2.002 . S
O70 C87 1.295 . S
O71 Fe66 1.997 . S
O71 C87 1.235 . S
O72 Fe66 2.002 . S
O72 C73 1.295 . S
C73 O72 1.295 . S
C73 O75 1.235 . S
C74 O79 1.287 . S
C74 O80 1.255 . S
O75 Fe67 1.997 . S
O75 C73 1.235 . S
C76 O82 1.287 . S
C76 O83 1.255 . S
O77 Fe66 1.976 . S
O77 C84 1.287 . S
O78 Fe67 1.996 . S
O78 C84 1.255 . S
O79 Fe69 1.976 . S
O79 C74 1.287 . S
O80 Fe66 1.996 . S
O80 C74 1.255 . S
C81 O85 1.295 . S
C81 O86 1.235 . S
O82 Fe67 1.976 . S
O82 C76 1.287 . S
O83 Fe69 1.996 . S
O83 C76 1.255 . S
C84 O77 1.287 . S
C84 O78 1.255 . S
O85 Fe67 2.002 . S
O85 C81 1.295 . S
O86 Fe69 1.997 . S
O86 C81 1.235 . S
C87 O70 1.295 . S
C87 O71 1.235 . S
O88 Cd89 2.300 1_556 S
O88 C95 1.275 . S
Cd89 O88 2.300 1_554 S
Cd89 O97 2.381 1_554 S
Cd89 O98 2.378 . S
O90 Cd91 2.385 1_556 S
O90 C95 1.255 . S
Cd91 O90 2.385 1_554 S
Cd91 O92 2.317 . S
O92 Cd91 2.317 . S
O92 C93 1.232 . S
C93 O92 1.232 . S
C93 O94 1.218 . S
O94 C93 1.218 . S
C95 O88 1.275 . S
C95 O90 1.255 . S
C96 O97 1.258 1_554 S
C96 O98 1.256 . S
O97 Cd89 2.381 1_556 S
O97 C96 1.258 1_556 S
O98 Cd89 2.378 . S
O98 C96 1.256 . S
O99 Cd100 2.300 1_655 S
O99 C106 1.275 . S
Cd100 O99 2.300 1_455 S
Cd100 O108 2.381 . S
Cd100 O109 2.378 . S
O101 Cd102 2.385 . S
O101 C106 1.255 . S
Cd102 O101 2.385 . S
Cd102 O103 2.317 . S
O103 Cd102 2.317 . S
O103 C104 1.232 . S
C104 O103 1.232 . S
C104 O105 1.218 . S
O105 C104 1.218 . S
C106 O99 1.275 . S
C106 O101 1.255 . S
C107 O108 1.258 . S
C107 O109 1.256 . S
O108 Cd100 2.381 . S
O108 C107 1.258 . S
O109 Cd100 2.378 . S
O109 C107 1.256 . S
O110 Cd111 2.300 . S
O110 C117 1.275 . S
Cd111 O110 2.300 . S
Cd111 O119 2.381 . S
Cd111 O120 2.378 . S
O112 Cd113 2.393 . S
O112 C117 1.255 . S
Cd113 O112 2.393 . S
Cd113 O114 2.310 1_554 S
O114 Cd113 2.310 1_556 S
O114 C115 1.232 . S
C115 O114 1.232 . S
C115 O116 1.218 . S
O116 C115 1.218 . S
C117 O110 1.275 . S
C117 O112 1.255 . S
C118 O119 1.258 . S
C118 O120 1.256 . S
O119 Cd111 2.381 . S
O119 C118 1.258 . S
O120 Cd111 2.378 . S
O120 C118 1.256 . S
O121 Cd122 2.313 . S
O121 C128 1.275 . S
Cd122 O121 2.313 . S
Cd122 O130 2.355 1_455 S
Cd122 O131 2.352 1_455 S
O123 Cd124 2.385 . S
O123 C128 1.255 . S
Cd124 O123 2.385 . S
Cd124 O125 2.317 . S
O125 Cd124 2.317 . S
O125 C126 1.232 . S
C126 O125 1.232 . S
C126 O127 1.218 . S
O127 C126 1.218 . S
C128 O121 1.275 . S
C128 O123 1.255 . S
C129 O130 1.258 . S
C129 O131 1.256 . S
O130 Cd122 2.355 1_655 S
O130 C129 1.258 . S
O131 Cd122 2.352 1_655 S
O131 C129 1.256 . S
O132 Cd133 2.300 1_565 S
O132 C139 1.275 . S
Cd133 O132 2.300 1_545 S
Cd133 O141 2.381 . S
Cd133 O142 2.378 . S
O134 Cd135 2.385 . S
O134 C139 1.255 . S
Cd135 O134 2.385 . S
Cd135 O136 2.317 . S
O136 Cd135 2.317 . S
O136 C137 1.232 . S
C137 O136 1.232 . S
C137 O138 1.218 . S
O138 C137 1.218 . S
C139 O132 1.275 . S
C139 O134 1.255 . S
C140 O141 1.258 . S
C140 O142 1.256 . S
O141 Cd133 2.381 . S
O141 C140 1.258 . S
O142 Cd133 2.378 . S
O142 C140 1.256 . S
O143 Cd144 2.300 . S
O143 C150 1.275 . S
Cd144 O143 2.300 . S
Cd144 O152 2.381 . S
Cd144 O153 2.378 1_554 S
O145 Cd146 2.385 1_554 S
O145 C150 1.255 . S
Cd146 O145 2.385 1_556 S
Cd146 O147 2.317 . S
O147 Cd146 2.317 . S
O147 C148 1.232 . S
C148 O147 1.232 . S
C148 O149 1.218 . S
O149 C148 1.218 . S
C150 O143 1.275 . S
C150 O145 1.255 . S
C151 O152 1.258 . S
C151 O153 1.256 1_554 S
O152 Cd144 2.381 . S
O152 C151 1.258 . S
O153 Cd144 2.378 1_556 S
O153 C151 1.256 1_556 S
O154 Cd155 2.300 1_545 S
O154 C161 1.275 . S
Cd155 O154 2.300 1_565 S
Cd155 O163 2.381 . S
Cd155 O164 2.378 . S
O156 Cd157 2.385 . S
O156 C161 1.255 . S
Cd157 O156 2.385 . S
Cd157 O158 2.317 . S
O158 Cd157 2.317 . S
O158 C159 1.232 . S
C159 O158 1.232 . S
C159 O160 1.218 . S
O160 C159 1.218 . S
C161 O154 1.275 . S
C161 O156 1.255 . S
C162 O163 1.258 . S
C162 O164 1.256 . S
O163 Cd155 2.381 . S
O163 C162 1.258 . S
O164 Cd155 2.378 . S
O164 C162 1.256 . S
O165 Cd166 2.300 1_556 S
O165 C172 1.275 . S
Cd166 O165 2.300 1_554 S
Cd166 O174 2.381 . S
Cd166 O175 2.378 . S
O167 Cd168 2.385 . S
O167 C172 1.255 1_554 S
Cd168 O167 2.385 . S
Cd168 O169 2.317 . S
O169 Cd168 2.317 . S
O169 C170 1.232 . S
C170 O169 1.232 . S
C170 O171 1.218 . S
O171 C170 1.218 . S
C172 O165 1.275 . S
C172 O167 1.255 1_556 S
C173 O174 1.258 . S
C173 O175 1.256 . S
O174 Cd166 2.381 . S
O174 C173 1.258 . S
O175 Cd166 2.378 . S
O175 C173 1.256 . S
H176 C184 0.929 . S
H177 C186 0.930 . S
H178 C188 0.930 . S
H179 C191 0.929 . S
H180 C194 0.930 . S
H181 C196 0.960 . S
H182 C196 0.960 . S
H183 C196 0.960 . S
C184 H176 0.929 . S
C184 C185 1.377 . S
C184 C186 1.384 . S
C185 C184 1.377 . S
C185 C191 1.390 . S
C186 H177 0.930 . S
C186 C184 1.384 . S
C186 C187 1.372 . S
C187 C186 1.372 . S
C187 C188 1.400 . S
C187 C192 1.490 . S
C188 H178 0.930 . S
C188 C187 1.400 . S
C188 C191 1.386 . S
H189 C205 0.930 . S
H190 C206 0.931 . S
C191 H179 0.929 . S
C191 C185 1.390 . S
C191 C188 1.386 . S
C192 C187 1.490 . S
C192 C194 1.395 . S
C192 C195 1.403 . S
H193 C199 0.930 . S
C194 H180 0.930 . S
C194 C192 1.395 . S
C194 C197 1.403 . S
C195 C192 1.403 . S
C195 C196 1.524 . S
C195 C199 1.400 . S
C196 H181 0.960 . S
C196 H182 0.960 . S
C196 H183 0.960 . S
C196 C195 1.524 . S
C197 C194 1.403 . S
C197 C198 1.392 . S
C197 C201 1.495 . S
C198 C197 1.392 . S
C198 C199 1.385 . S
C198 C200 1.478 . S
C199 H193 0.930 . S
C199 C195 1.400 . S
C199 C198 1.385 . S
C200 C198 1.478 . S
C200 C202 1.381 . S
C200 C206 1.383 . S
C201 C197 1.495 . S
C201 H207 0.959 . S
C201 H208 0.961 . S
C201 H209 0.960 . S
C202 C200 1.381 . S
C202 C203 1.394 . S
C202 H210 0.930 . S
C203 C202 1.394 . S
C203 C204 1.383 . S
C203 H211 0.929 . S
C204 C203 1.383 . S
C204 C205 1.377 . S
C205 H189 0.930 . S
C205 C204 1.377 . S
C205 C206 1.379 . S
C206 H190 0.931 . S
C206 C200 1.383 . S
C206 C205 1.379 . S
H207 C201 0.959 . S
H208 C201 0.961 . S
H209 C201 0.960 . S
H210 C202 0.930 . S
H211 C203 0.929 . S
H212 C220 0.929 . S
H213 C222 0.930 . S
H214 C224 0.930 . S
H215 C227 0.929 . S
H216 C230 0.930 . S
H217 C232 0.960 . S
H218 C232 0.960 . S
H219 C232 0.960 . S
C220 H212 0.929 . S
C220 C221 1.377 . S
C220 C222 1.384 . S
C221 C220 1.377 . S
C221 C227 1.390 . S
C222 H213 0.930 . S
C222 C220 1.384 . S
C222 C223 1.372 . S
C223 C222 1.372 . S
C223 C224 1.400 . S
C223 C228 1.490 . S
C224 H214 0.930 . S
C224 C223 1.400 . S
C224 C227 1.386 . S
H225 C241 0.930 . S
H226 C242 0.931 . S
C227 H215 0.929 . S
C227 C221 1.390 . S
C227 C224 1.386 . S
C228 C223 1.490 . S
C228 C230 1.395 . S
C228 C231 1.403 . S
H229 C235 0.930 . S
C230 H216 0.930 . S
C230 C228 1.395 . S
C230 C233 1.403 . S
C231 C228 1.403 . S
C231 C232 1.524 . S
C231 C235 1.400 . S
C232 H217 0.960 . S
C232 H218 0.960 . S
C232 H219 0.960 . S
C232 C231 1.524 . S
C233 C230 1.403 . S
C233 C234 1.392 . S
C233 C237 1.495 . S
C234 C233 1.392 . S
C234 C235 1.385 . S
C234 C236 1.478 . S
C235 H229 0.930 . S
C235 C231 1.400 . S
C235 C234 1.385 . S
C236 C234 1.478 . S
C236 C238 1.381 . S
C236 C242 1.383 . S
C237 C233 1.495 . S
C237 H243 0.959 . S
C237 H244 0.961 . S
C237 H245 0.960 . S
C238 C236 1.381 . S
C238 C239 1.394 . S
C238 H246 0.930 . S
C239 C238 1.394 . S
C239 C240 1.383 . S
C239 H247 0.929 . S
C240 C239 1.383 . S
C240 C241 1.377 . S
C241 H225 0.930 . S
C241 C240 1.377 . S
C241 C242 1.379 . S
C242 H226 0.931 . S
C242 C236 1.383 . S
C242 C241 1.379 . S
H243 C237 0.959 . S
H244 C237 0.961 . S
H245 C237 0.960 . S
H246 C238 0.930 . S
H247 C239 0.929 . S
H248 C256 0.929 . S
H249 C258 0.930 . S
H250 C260 0.930 . S
H251 C263 0.929 . S
H252 C266 0.930 . S
H253 C268 0.960 . S
H254 C268 0.960 . S
H255 C268 0.960 . S
C256 H248 0.929 . S
C256 C257 1.377 . S
C256 C258 1.384 . S
C257 C256 1.377 . S
C257 C263 1.390 . S
C258 H249 0.930 . S
C258 C256 1.384 . S
C258 C259 1.372 . S
C259 C258 1.372 . S
C259 C260 1.400 . S
C259 C264 1.490 . S
C260 H250 0.930 . S
C260 C259 1.400 . S
C260 C263 1.386 . S
H261 C277 0.930 . S
H262 C278 0.931 . S
C263 H251 0.929 . S
C263 C257 1.390 . S
C263 C260 1.386 . S
C264 C259 1.490 . S
C264 C266 1.395 . S
C264 C267 1.403 . S
H265 C271 0.930 . S
C266 H252 0.930 . S
C266 C264 1.395 . S
C266 C269 1.403 . S
C267 C264 1.403 . S
C267 C268 1.524 . S
C267 C271 1.400 . S
C268 H253 0.960 . S
C268 H254 0.960 . S
C268 H255 0.960 . S
C268 C267 1.524 . S
C269 C266 1.403 . S
C269 C270 1.392 . S
C269 C273 1.495 . S
C270 C269 1.392 . S
C270 C271 1.385 . S
C270 C272 1.478 . S
C271 H265 0.930 . S
C271 C267 1.400 . S
C271 C270 1.385 . S
C272 C270 1.478 . S
C272 C274 1.381 . S
C272 C278 1.383 . S
C273 C269 1.495 . S
C273 H279 0.959 . S
C273 H280 0.961 . S
C273 H281 0.960 . S
C274 C272 1.381 . S
C274 C275 1.394 . S
C274 H282 0.930 . S
C275 C274 1.394 . S
C275 C276 1.383 . S
C275 H283 0.929 . S
C276 C275 1.383 . S
C276 C277 1.377 . S
C277 H261 0.930 . S
C277 C276 1.377 . S
C277 C278 1.379 . S
C278 H262 0.931 . S
C278 C272 1.383 . S
C278 C277 1.379 . S
H279 C273 0.959 . S
H280 C273 0.961 . S
H281 C273 0.960 . S
H282 C274 0.930 . S
H283 C275 0.929 . S
H284 C292 0.929 . S
H285 C294 0.930 . S
H286 C296 0.930 . S
H287 C299 0.929 . S
H288 C302 0.930 . S
H289 C304 0.960 . S
H290 C304 0.960 . S
H291 C304 0.960 . S
C292 H284 0.929 . S
C292 C293 1.377 . S
C292 C294 1.384 . S
C293 C292 1.377 . S
C293 C299 1.390 . S
C294 H285 0.930 . S
C294 C292 1.384 . S
C294 C295 1.372 . S
C295 C294 1.372 . S
C295 C296 1.400 . S
C295 C300 1.490 . S
C296 H286 0.930 . S
C296 C295 1.400 . S
C296 C299 1.386 . S
H297 C313 0.930 . S
H298 C314 0.931 . S
C299 H287 0.929 . S
C299 C293 1.390 . S
C299 C296 1.386 . S
C300 C295 1.490 . S
C300 C302 1.395 . S
C300 C303 1.403 . S
H301 C307 0.930 . S
C302 H288 0.930 . S
C302 C300 1.395 . S
C302 C305 1.403 . S
C303 C300 1.403 . S
C303 C304 1.524 . S
C303 C307 1.400 . S
C304 H289 0.960 . S
C304 H290 0.960 . S
C304 H291 0.960 . S
C304 C303 1.524 . S
C305 C302 1.403 . S
C305 C306 1.392 . S
C305 C309 1.495 . S
C306 C305 1.392 . S
C306 C307 1.385 . S
C306 C308 1.478 . S
C307 H301 0.930 . S
C307 C303 1.400 . S
C307 C306 1.385 . S
C308 C306 1.478 . S
C308 C310 1.381 . S
C308 C314 1.383 . S
C309 C305 1.495 . S
C309 H315 0.959 . S
C309 H316 0.961 . S
C309 H317 0.960 . S
C310 C308 1.381 . S
C310 C311 1.394 . S
C310 H318 0.930 . S
C311 C310 1.394 . S
C311 C312 1.383 . S
C311 H319 0.929 . S
C312 C311 1.383 . S
C312 C313 1.377 . S
C313 H297 0.930 . S
C313 C312 1.377 . S
C313 C314 1.379 . S
C314 H298 0.931 . S
C314 C308 1.383 . S
C314 C313 1.379 . S
H315 C309 0.959 . S
H316 C309 0.961 . S
H317 C309 0.960 . S
H318 C310 0.930 . S
H319 C311 0.929 . S
H320 C328 0.929 . S
H321 C330 0.930 . S
H322 C332 0.930 . S
H323 C335 0.929 . S
H324 C338 0.930 . S
H325 C340 0.960 . S
H326 C340 0.960 . S
H327 C340 0.960 . S
C328 H320 0.929 . S
C328 C329 1.377 . S
C328 C330 1.384 . S
C329 C328 1.377 . S
C329 C335 1.390 . S
C330 H321 0.930 . S
C330 C328 1.384 . S
C330 C331 1.372 . S
C331 C330 1.372 . S
C331 C332 1.400 . S
C331 C336 1.490 . S
C332 H322 0.930 . S
C332 C331 1.400 . S
C332 C335 1.386 . S
H333 C349 0.930 . S
H334 C350 0.931 . S
C335 H323 0.929 . S
C335 C329 1.390 . S
C335 C332 1.386 . S
C336 C331 1.490 . S
C336 C338 1.395 . S
C336 C339 1.403 . S
H337 C343 0.930 . S
C338 H324 0.930 . S
C338 C336 1.395 . S
C338 C341 1.403 . S
C339 C336 1.403 . S
C339 C340 1.524 . S
C339 C343 1.400 . S
C340 H325 0.960 . S
C340 H326 0.960 . S
C340 H327 0.960 . S
C340 C339 1.524 . S
C341 C338 1.403 . S
C341 C342 1.392 . S
C341 C345 1.495 . S
C342 C341 1.392 . S
C342 C343 1.385 . S
C342 C344 1.478 . S
C343 H337 0.930 . S
C343 C339 1.400 . S
C343 C342 1.385 . S
C344 C342 1.478 . S
C344 C346 1.381 . S
C344 C350 1.383 . S
C345 C341 1.495 . S
C345 H351 0.959 . S
C345 H352 0.961 . S
C345 H353 0.960 . S
C346 C344 1.381 . S
C346 C347 1.394 . S
C346 H354 0.930 . S
C347 C346 1.394 . S
C347 C348 1.383 . S
C347 H355 0.929 . S
C348 C347 1.383 . S
C348 C349 1.377 . S
C349 H333 0.930 . S
C349 C348 1.377 . S
C349 C350 1.379 . S
C350 H334 0.931 . S
C350 C344 1.383 . S
C350 C349 1.379 . S
H351 C345 0.959 . S
H352 C345 0.961 . S
H353 C345 0.960 . S
H354 C346 0.930 . S
H355 C347 0.929 . S
H356 C364 0.929 . S
H357 C366 0.930 . S
H358 C368 0.930 . S
H359 C371 0.929 . S
H360 C374 0.930 . S
H361 C376 0.960 . S
H362 C376 0.960 . S
H363 C376 0.960 . S
C364 H356 0.929 . S
C364 C365 1.377 . S
C364 C366 1.384 . S
C365 C364 1.377 . S
C365 C371 1.390 . S
C366 H357 0.930 . S
C366 C364 1.384 . S
C366 C367 1.372 . S
C367 C366 1.372 . S
C367 C368 1.400 . S
C367 C372 1.490 . S
C368 H358 0.930 . S
C368 C367 1.400 . S
C368 C371 1.386 . S
H369 C385 0.930 . S
H370 C386 0.931 . S
C371 H359 0.929 . S
C371 C365 1.390 . S
C371 C368 1.386 . S
C372 C367 1.490 . S
C372 C374 1.395 . S
C372 C375 1.403 . S
H373 C379 0.930 . S
C374 H360 0.930 . S
C374 C372 1.395 . S
C374 C377 1.403 . S
C375 C372 1.403 . S
C375 C376 1.524 . S
C375 C379 1.400 . S
C376 H361 0.960 . S
C376 H362 0.960 . S
C376 H363 0.960 . S
C376 C375 1.524 . S
C377 C374 1.403 . S
C377 C378 1.392 . S
C377 C381 1.495 . S
C378 C377 1.392 . S
C378 C379 1.385 . S
C378 C380 1.478 . S
C379 H373 0.930 . S
C379 C375 1.400 . S
C379 C378 1.385 . S
C380 C378 1.478 . S
C380 C382 1.381 . S
C380 C386 1.383 . S
C381 C377 1.495 . S
C381 H387 0.959 . S
C381 H388 0.961 . S
C381 H389 0.960 . S
C382 C380 1.381 . S
C382 C383 1.394 . S
C382 H390 0.930 . S
C383 C382 1.394 . S
C383 C384 1.383 . S
C383 H391 0.929 . S
C384 C383 1.383 . S
C384 C385 1.377 . S
C385 H369 0.930 . S
C385 C384 1.377 . S
C385 C386 1.379 . S
C386 H370 0.931 . S
C386 C380 1.383 . S
C386 C385 1.379 . S
H387 C381 0.959 . S
H388 C381 0.961 . S
H389 C381 0.960 . S
H390 C382 0.930 . S
H391 C383 0.929 . S
H392 C400 0.929 . S
H393 C402 0.930 . S
H394 C404 0.930 . S
H395 C407 0.929 . S
H396 C410 0.930 . S
H397 C412 0.960 . S
H398 C412 0.960 . S
H399 C412 0.960 . S
C400 H392 0.929 . S
C400 C401 1.377 . S
C400 C402 1.384 . S
C401 C400 1.377 . S
C401 C407 1.390 . S
C402 H393 0.930 . S
C402 C400 1.384 . S
C402 C403 1.372 . S
C403 C402 1.372 . S
C403 C404 1.400 . S
C403 C408 1.490 . S
C404 H394 0.930 . S
C404 C403 1.400 . S
C404 C407 1.386 . S
H405 C421 0.930 . S
H406 C422 0.931 . S
C407 H395 0.929 . S
C407 C401 1.390 . S
C407 C404 1.386 . S
C408 C403 1.490 . S
C408 C410 1.395 . S
C408 C411 1.403 . S
H409 C415 0.930 . S
C410 H396 0.930 . S
C410 C408 1.395 . S
C410 C413 1.403 . S
C411 C408 1.403 . S
C411 C412 1.524 . S
C411 C415 1.400 . S
C412 H397 0.960 . S
C412 H398 0.960 . S
C412 H399 0.960 . S
C412 C411 1.524 . S
C413 C410 1.403 . S
C413 C414 1.392 . S
C413 C417 1.495 . S
C414 C413 1.392 . S
C414 C415 1.385 . S
C414 C416 1.478 . S
C415 H409 0.930 . S
C415 C411 1.400 . S
C415 C414 1.385 . S
C416 C414 1.478 . S
C416 C418 1.381 . S
C416 C422 1.383 . S
C417 C413 1.495 . S
C417 H423 0.959 . S
C417 H424 0.961 . S
C417 H425 0.960 . S
C418 C416 1.381 . S
C418 C419 1.394 . S
C418 H426 0.930 . S
C419 C418 1.394 . S
C419 C420 1.383 . S
C419 H427 0.929 . S
C420 C419 1.383 . S
C420 C421 1.377 . S
C421 H405 0.930 . S
C421 C420 1.377 . S
C421 C422 1.379 . S
C422 H406 0.931 . S
C422 C416 1.383 . S
C422 C421 1.379 . S
H423 C417 0.959 . S
H424 C417 0.961 . S
H425 C417 0.960 . S
H426 C418 0.930 . S
H427 C419 0.929 . S
H428 C436 0.929 . S
H429 C438 0.930 . S
H430 C440 0.930 . S
H431 C443 0.929 . S
H432 C446 0.930 . S
H433 C448 0.960 . S
H434 C448 0.960 . S
H435 C448 0.960 . S
C436 H428 0.929 . S
C436 C437 1.377 . S
C436 C438 1.384 . S
C437 C436 1.377 . S
C437 C443 1.390 . S
C438 H429 0.930 . S
C438 C436 1.384 . S
C438 C439 1.372 . S
C439 C438 1.372 . S
C439 C440 1.400 . S
C439 C444 1.490 . S
C440 H430 0.930 . S
C440 C439 1.400 . S
C440 C443 1.386 . S
H441 C457 0.930 . S
H442 C458 0.931 . S
C443 H431 0.929 . S
C443 C437 1.390 . S
C443 C440 1.386 . S
C444 C439 1.490 . S
C444 C446 1.395 . S
C444 C447 1.403 . S
H445 C451 0.930 . S
C446 H432 0.930 . S
C446 C444 1.395 . S
C446 C449 1.403 . S
C447 C444 1.403 . S
C447 C448 1.524 . S
C447 C451 1.400 . S
C448 H433 0.960 . S
C448 H434 0.960 . S
C448 H435 0.960 . S
C448 C447 1.524 . S
C449 C446 1.403 . S
C449 C450 1.392 . S
C449 C453 1.495 . S
C450 C449 1.392 . S
C450 C451 1.385 . S
C450 C452 1.478 . S
C451 H445 0.930 . S
C451 C447 1.400 . S
C451 C450 1.385 . S
C452 C450 1.478 . S
C452 C454 1.381 . S
C452 C458 1.383 . S
C453 C449 1.495 . S
C453 H459 0.959 . S
C453 H460 0.961 . S
C453 H461 0.960 . S
C454 C452 1.381 . S
C454 C455 1.394 . S
C454 H462 0.930 . S
C455 C454 1.394 . S
C455 C456 1.383 . S
C455 H463 0.929 . S
C456 C455 1.383 . S
C456 C457 1.377 . S
C457 H441 0.930 . S
C457 C456 1.377 . S
C457 C458 1.379 . S
C458 H442 0.931 . S
C458 C452 1.383 . S
C458 C457 1.379 . S
H459 C453 0.959 . S
H460 C453 0.961 . S
H461 C453 0.960 . S
H462 C454 0.930 . S
H463 C455 0.929 . S
H464 C472 0.929 . S
H465 C474 0.930 . S
H466 C476 0.930 . S
H467 C479 0.929 . S
H468 C482 0.930 . S
H469 C484 0.960 . S
H470 C484 0.960 . S
H471 C484 0.960 . S
C472 H464 0.929 . S
C472 C473 1.377 . S
C472 C474 1.384 . S
C473 C472 1.377 . S
C473 C479 1.390 . S
C474 H465 0.930 . S
C474 C472 1.384 . S
C474 C475 1.372 . S
C475 C474 1.372 . S
C475 C476 1.400 . S
C475 C480 1.490 . S
C476 H466 0.930 . S
C476 C475 1.400 . S
C476 C479 1.386 . S
H477 C493 0.930 . S
H478 C494 0.931 . S
C479 H467 0.929 . S
C479 C473 1.390 . S
C479 C476 1.386 . S
C480 C475 1.490 . S
C480 C482 1.395 . S
C480 C483 1.403 . S
H481 C487 0.930 . S
C482 H468 0.930 . S
C482 C480 1.395 . S
C482 C485 1.403 . S
C483 C480 1.403 . S
C483 C484 1.524 . S
C483 C487 1.400 . S
C484 H469 0.960 . S
C484 H470 0.960 . S
C484 H471 0.960 . S
C484 C483 1.524 . S
C485 C482 1.403 . S
C485 C486 1.392 . S
C485 C489 1.495 . S
C486 C485 1.392 . S
C486 C487 1.385 . S
C486 C488 1.478 . S
C487 H481 0.930 . S
C487 C483 1.400 . S
C487 C486 1.385 . S
C488 C486 1.478 . S
C488 C490 1.381 . S
C488 C494 1.383 . S
C489 C485 1.495 . S
C489 H495 0.959 . S
C489 H496 0.961 . S
C489 H497 0.960 . S
C490 C488 1.381 . S
C490 C491 1.394 . S
C490 H498 0.930 . S
C491 C490 1.394 . S
C491 C492 1.383 . S
C491 H499 0.929 . S
C492 C491 1.383 . S
C492 C493 1.377 . S
C493 H477 0.930 . S
C493 C492 1.377 . S
C493 C494 1.379 . S
C494 H478 0.931 . S
C494 C488 1.383 . S
C494 C493 1.379 . S
H495 C489 0.959 . S
H496 C489 0.961 . S
H497 C489 0.960 . S
H498 C490 0.930 . S
H499 C491 0.929 . S
H500 C508 0.929 . S
H501 C510 0.930 . S
H502 C512 0.930 . S
H503 C515 0.929 . S
H504 C518 0.930 . S
H505 C520 0.960 . S
H506 C520 0.960 . S
H507 C520 0.960 . S
C508 H500 0.929 . S
C508 C509 1.377 . S
C508 C510 1.384 . S
C509 C508 1.377 . S
C509 C515 1.390 . S
C510 H501 0.930 . S
C510 C508 1.384 . S
C510 C511 1.372 . S
C511 C510 1.372 . S
C511 C512 1.400 . S
C511 C516 1.490 . S
C512 H502 0.930 . S
C512 C511 1.400 . S
C512 C515 1.386 . S
H513 C529 0.930 . S
H514 C530 0.931 . S
C515 H503 0.929 . S
C515 C509 1.390 . S
C515 C512 1.386 . S
C516 C511 1.490 . S
C516 C518 1.395 . S
C516 C519 1.403 . S
H517 C523 0.930 . S
C518 H504 0.930 . S
C518 C516 1.395 . S
C518 C521 1.403 . S
C519 C516 1.403 . S
C519 C520 1.524 . S
C519 C523 1.400 . S
C520 H505 0.960 . S
C520 H506 0.960 . S
C520 H507 0.960 . S
C520 C519 1.524 . S
C521 C518 1.403 . S
C521 C522 1.392 . S
C521 C525 1.495 . S
C522 C521 1.392 . S
C522 C523 1.385 . S
C522 C524 1.478 . S
C523 H517 0.930 . S
C523 C519 1.400 . S
C523 C522 1.385 . S
C524 C522 1.478 . S
C524 C526 1.381 . S
C524 C530 1.383 . S
C525 C521 1.495 . S
C525 H531 0.959 . S
C525 H532 0.961 . S
C525 H533 0.960 . S
C526 C524 1.381 . S
C526 C527 1.394 . S
C526 H534 0.930 . S
C527 C526 1.394 . S
C527 C528 1.383 . S
C527 H535 0.929 . S
C528 C527 1.383 . S
C528 C529 1.377 . S
C529 H513 0.930 . S
C529 C528 1.377 . S
C529 C530 1.379 . S
C530 H514 0.931 . S
C530 C524 1.383 . S
C530 C529 1.379 . S
H531 C525 0.959 . S
H532 C525 0.961 . S
H533 C525 0.960 . S
H534 C526 0.930 . S
H535 C527 0.929 . S
H536 C544 0.929 . S
H537 C546 0.930 . S
H538 C548 0.930 . S
H539 C551 0.929 . S
H540 C554 0.930 . S
H541 C556 0.960 . S
H542 C556 0.960 . S
H543 C556 0.960 . S
C544 H536 0.929 . S
C544 C545 1.377 . S
C544 C546 1.384 . S
C545 C544 1.377 . S
C545 C551 1.390 . S
C546 H537 0.930 . S
C546 C544 1.384 . S
C546 C547 1.372 . S
C547 C546 1.372 . S
C547 C548 1.400 . S
C547 C552 1.490 . S
C548 H538 0.930 . S
C548 C547 1.400 . S
C548 C551 1.386 . S
H549 C565 0.930 . S
H550 C566 0.931 . S
C551 H539 0.929 . S
C551 C545 1.390 . S
C551 C548 1.386 . S
C552 C547 1.490 . S
C552 C554 1.395 . S
C552 C555 1.403 . S
H553 C559 0.930 . S
C554 H540 0.930 . S
C554 C552 1.395 . S
C554 C557 1.403 . S
C555 C552 1.403 . S
C555 C556 1.524 . S
C555 C559 1.400 . S
C556 H541 0.960 . S
C556 H542 0.960 . S
C556 H543 0.960 . S
C556 C555 1.524 . S
C557 C554 1.403 . S
C557 C558 1.392 . S
C557 C561 1.495 . S
C558 C557 1.392 . S
C558 C559 1.385 . S
C558 C560 1.478 . S
C559 H553 0.930 . S
C559 C555 1.400 . S
C559 C558 1.385 . S
C560 C558 1.478 . S
C560 C562 1.381 . S
C560 C566 1.383 . S
C561 C557 1.495 . S
C561 H567 0.959 . S
C561 H568 0.961 . S
C561 H569 0.960 . S
C562 C560 1.381 . S
C562 C563 1.394 . S
C562 H570 0.930 . S
C563 C562 1.394 . S
C563 C564 1.383 . S
C563 H571 0.929 . S
C564 C563 1.383 . S
C564 C565 1.377 . S
C565 H549 0.930 . S
C565 C564 1.377 . S
C565 C566 1.379 . S
C566 H550 0.931 . S
C566 C560 1.383 . S
C566 C565 1.379 . S
H567 C561 0.959 . S
H568 C561 0.961 . S
H569 C561 0.960 . S
H570 C562 0.930 . S
H571 C563 0.929 . S
H572 C580 0.929 . S
H573 C582 0.930 . S
H574 C584 0.930 . S
H575 C587 0.929 . S
H576 C590 0.930 . S
H577 C592 0.960 . S
H578 C592 0.960 . S
H579 C592 0.960 . S
C580 H572 0.929 . S
C580 C581 1.377 . S
C580 C582 1.384 . S
C581 C580 1.377 . S
C581 C587 1.390 . S
C582 H573 0.930 . S
C582 C580 1.384 . S
C582 C583 1.372 . S
C583 C582 1.372 . S
C583 C584 1.400 . S
C583 C588 1.490 . S
C584 H574 0.930 . S
C584 C583 1.400 . S
C584 C587 1.386 . S
H585 C601 0.930 . S
H586 C602 0.931 . S
C587 H575 0.929 . S
C587 C581 1.390 . S
C587 C584 1.386 . S
C588 C583 1.490 . S
C588 C590 1.395 . S
C588 C591 1.403 . S
H589 C595 0.930 . S
C590 H576 0.930 . S
C590 C588 1.395 . S
C590 C593 1.403 . S
C591 C588 1.403 . S
C591 C592 1.524 . S
C591 C595 1.400 . S
C592 H577 0.960 . S
C592 H578 0.960 . S
C592 H579 0.960 . S
C592 C591 1.524 . S
C593 C590 1.403 . S
C593 C594 1.392 . S
C593 C597 1.495 . S
C594 C593 1.392 . S
C594 C595 1.385 . S
C594 C596 1.478 . S
C595 H589 0.930 . S
C595 C591 1.400 . S
C595 C594 1.385 . S
C596 C594 1.478 . S
C596 C598 1.381 . S
C596 C602 1.383 . S
C597 C593 1.495 . S
C597 H603 0.959 . S
C597 H604 0.961 . S
C597 H605 0.960 . S
C598 C596 1.381 . S
C598 C599 1.394 . S
C598 H606 0.930 . S
C599 C598 1.394 . S
C599 C600 1.383 . S
C599 H607 0.929 . S
C600 C599 1.383 . S
C600 C601 1.377 . S
C601 H585 0.930 . S
C601 C600 1.377 . S
C601 C602 1.379 . S
C602 H586 0.931 . S
C602 C596 1.383 . S
C602 C601 1.379 . S
H603 C597 0.959 . S
H604 C597 0.961 . S
H605 C597 0.960 . S
H606 C598 0.930 . S
H607 C599 0.929 . S
H608 C616 0.929 . S
H609 C618 0.930 . S
H610 C620 0.930 . S
H611 C623 0.929 . S
H612 C626 0.930 . S
H613 C628 0.960 . S
H614 C628 0.960 . S
H615 C628 0.960 . S
C616 H608 0.929 . S
C616 C617 1.377 . S
C616 C618 1.384 . S
C617 C616 1.377 . S
C617 C623 1.390 . S
C618 H609 0.930 . S
C618 C616 1.384 . S
C618 C619 1.372 . S
C619 C618 1.372 . S
C619 C620 1.400 . S
C619 C624 1.490 . S
C620 H610 0.930 . S
C620 C619 1.400 . S
C620 C623 1.386 . S
H621 C637 0.930 . S
H622 C638 0.931 . S
C623 H611 0.929 . S
C623 C617 1.390 . S
C623 C620 1.386 . S
C624 C619 1.490 . S
C624 C626 1.395 . S
C624 C627 1.403 . S
H625 C631 0.930 . S
C626 H612 0.930 . S
C626 C624 1.395 . S
C626 C629 1.403 . S
C627 C624 1.403 . S
C627 C628 1.524 . S
C627 C631 1.400 . S
C628 H613 0.960 . S
C628 H614 0.960 . S
C628 H615 0.960 . S
C628 C627 1.524 . S
C629 C626 1.403 . S
C629 C630 1.392 . S
C629 C633 1.495 . S
C630 C629 1.392 . S
C630 C631 1.385 . S
C630 C632 1.478 . S
C631 H625 0.930 . S
C631 C627 1.400 . S
C631 C630 1.385 . S
C632 C630 1.478 . S
C632 C634 1.381 . S
C632 C638 1.383 . S
C633 C629 1.495 . S
C633 H639 0.959 . S
C633 H640 0.961 . S
C633 H641 0.960 . S
C634 C632 1.381 . S
C634 C635 1.394 . S
C634 H642 0.930 . S
C635 C634 1.394 . S
C635 C636 1.383 . S
C635 H643 0.929 . S
C636 C635 1.383 . S
C636 C637 1.377 . S
C637 H621 0.930 . S
C637 C636 1.377 . S
C637 C638 1.379 . S
C638 H622 0.931 . S
C638 C632 1.383 . S
C638 C637 1.379 . S
H639 C633 0.959 . S
H640 C633 0.961 . S
H641 C633 0.960 . S
H642 C634 0.930 . S
H643 C635 0.929 . S
H644 C652 0.929 . S
H645 C654 0.930 . S
H646 C656 0.930 . S
H647 C659 0.929 . S
H648 C662 0.930 . S
H649 C664 0.960 . S
H650 C664 0.960 . S
H651 C664 0.960 . S
C652 H644 0.929 . S
C652 C653 1.377 . S
C652 C654 1.384 . S
C653 C652 1.377 . S
C653 C659 1.390 . S
C654 H645 0.930 . S
C654 C652 1.384 . S
C654 C655 1.372 . S
C655 C654 1.372 . S
C655 C656 1.400 . S
C655 C660 1.490 . S
C656 H646 0.930 . S
C656 C655 1.400 . S
C656 C659 1.386 . S
H657 C673 0.930 . S
H658 C674 0.931 . S
C659 H647 0.929 . S
C659 C653 1.390 . S
C659 C656 1.386 . S
C660 C655 1.490 . S
C660 C662 1.395 . S
C660 C663 1.403 . S
H661 C667 0.930 . S
C662 H648 0.930 . S
C662 C660 1.395 . S
C662 C665 1.403 . S
C663 C660 1.403 . S
C663 C664 1.524 . S
C663 C667 1.400 . S
C664 H649 0.960 . S
C664 H650 0.960 . S
C664 H651 0.960 . S
C664 C663 1.524 . S
C665 C662 1.403 . S
C665 C666 1.392 . S
C665 C669 1.495 . S
C666 C665 1.392 . S
C666 C667 1.385 . S
C666 C668 1.478 . S
C667 H661 0.930 . S
C667 C663 1.400 . S
C667 C666 1.385 . S
C668 C666 1.478 . S
C668 C670 1.381 . S
C668 C674 1.383 . S
C669 C665 1.495 . S
C669 H675 0.959 . S
C669 H676 0.961 . S
C669 H677 0.960 . S
C670 C668 1.381 . S
C670 C671 1.394 . S
C670 H678 0.930 . S
C671 C670 1.394 . S
C671 C672 1.383 . S
C671 H679 0.929 . S
C672 C671 1.383 . S
C672 C673 1.377 . S
C673 H657 0.930 . S
C673 C672 1.377 . S
C673 C674 1.379 . S
C674 H658 0.931 . S
C674 C668 1.383 . S
C674 C673 1.379 . S
H675 C669 0.959 . S
H676 C669 0.961 . S
H677 C669 0.960 . S
H678 C670 0.930 . S
H679 C671 0.929 . S
H680 C688 0.929 . S
H681 C690 0.930 . S
H682 C692 0.930 . S
H683 C695 0.929 . S
H684 C698 0.930 . S
H685 C700 0.960 . S
H686 C700 0.960 . S
H687 C700 0.960 . S
C688 H680 0.929 . S
C688 C689 1.377 . S
C688 C690 1.384 . S
C689 C688 1.377 . S
C689 C695 1.390 . S
C690 H681 0.930 . S
C690 C688 1.384 . S
C690 C691 1.372 . S
C691 C690 1.372 . S
C691 C692 1.400 . S
C691 C696 1.490 . S
C692 H682 0.930 . S
C692 C691 1.400 . S
C692 C695 1.386 . S
H693 C709 0.930 . S
H694 C710 0.931 . S
C695 H683 0.929 . S
C695 C689 1.390 . S
C695 C692 1.386 . S
C696 C691 1.490 . S
C696 C698 1.395 . S
C696 C699 1.403 . S
H697 C703 0.930 . S
C698 H684 0.930 . S
C698 C696 1.395 . S
C698 C701 1.403 . S
C699 C696 1.403 . S
C699 C700 1.524 . S
C699 C703 1.400 . S
C700 H685 0.960 . S
C700 H686 0.960 . S
C700 H687 0.960 . S
C700 C699 1.524 . S
C701 C698 1.403 . S
C701 C702 1.392 . S
C701 C705 1.495 . S
C702 C701 1.392 . S
C702 C703 1.385 . S
C702 C704 1.478 . S
C703 H697 0.930 . S
C703 C699 1.400 . S
C703 C702 1.385 . S
C704 C702 1.478 . S
C704 C706 1.381 . S
C704 C710 1.383 . S
C705 C701 1.495 . S
C705 H711 0.959 . S
C705 H712 0.961 . S
C705 H713 0.960 . S
C706 C704 1.381 . S
C706 C707 1.394 . S
C706 H714 0.930 . S
C707 C706 1.394 . S
C707 C708 1.383 . S
C707 H715 0.929 . S
C708 C707 1.383 . S
C708 C709 1.377 . S
C709 H693 0.930 . S
C709 C708 1.377 . S
C709 C710 1.379 . S
C710 H694 0.931 . S
C710 C704 1.383 . S
C710 C709 1.379 . S
H711 C705 0.959 . S
H712 C705 0.961 . S
H713 C705 0.960 . S
H714 C706 0.930 . S
H715 C707 0.929 . S
H716 C724 0.929 . S
H717 C726 0.930 . S
H718 C728 0.930 . S
H719 C731 0.929 . S
H720 C734 0.930 . S
H721 C736 0.960 . S
H722 C736 0.960 . S
H723 C736 0.960 . S
C724 H716 0.929 . S
C724 C725 1.377 . S
C724 C726 1.384 . S
C725 C724 1.377 . S
C725 C731 1.390 . S
C726 H717 0.930 . S
C726 C724 1.384 . S
C726 C727 1.372 . S
C727 C726 1.372 . S
C727 C728 1.400 . S
C727 C732 1.490 . S
C728 H718 0.930 . S
C728 C727 1.400 . S
C728 C731 1.386 . S
H729 C745 0.930 . S
H730 C746 0.931 . S
C731 H719 0.929 . S
C731 C725 1.390 . S
C731 C728 1.386 . S
C732 C727 1.490 . S
C732 C734 1.395 . S
C732 C735 1.403 . S
H733 C739 0.930 . S
C734 H720 0.930 . S
C734 C732 1.395 . S
C734 C737 1.403 . S
C735 C732 1.403 . S
C735 C736 1.524 . S
C735 C739 1.400 . S
C736 H721 0.960 . S
C736 H722 0.960 . S
C736 H723 0.960 . S
C736 C735 1.524 . S
C737 C734 1.403 . S
C737 C738 1.392 . S
C737 C741 1.495 . S
C738 C737 1.392 . S
C738 C739 1.385 . S
C738 C740 1.478 . S
C739 H733 0.930 . S
C739 C735 1.400 . S
C739 C738 1.385 . S
C740 C738 1.478 . S
C740 C742 1.381 . S
C740 C746 1.383 . S
C741 C737 1.495 . S
C741 H747 0.959 . S
C741 H748 0.961 . S
C741 H749 0.960 . S
C742 C740 1.381 . S
C742 C743 1.394 . S
C742 H750 0.930 . S
C743 C742 1.394 . S
C743 C744 1.383 . S
C743 H751 0.929 . S
C744 C743 1.383 . S
C744 C745 1.377 . S
C745 H729 0.930 . S
C745 C744 1.377 . S
C745 C746 1.379 . S
C746 H730 0.931 . S
C746 C740 1.383 . S
C746 C745 1.379 . S
H747 C741 0.959 . S
H748 C741 0.961 . S
H749 C741 0.960 . S
H750 C742 0.930 . S
H751 C743 0.929 . S
H752 C760 0.929 1_556 S
H753 C762 0.930 1_556 S
H754 C764 0.930 . S
H755 C767 0.929 . S
H756 C770 0.930 . S
H757 C772 0.960 . S
H758 C772 0.960 . S
H759 C772 0.960 . S
C760 H752 0.929 1_554 S
C760 C761 1.377 . S
C760 C762 1.384 . S
C761 C760 1.377 . S
C761 C767 1.390 . S
C762 H753 0.930 1_554 S
C762 C760 1.384 . S
C762 C763 1.372 . S
C763 C762 1.372 . S
C763 C764 1.400 . S
C763 C768 1.490 . S
C764 H754 0.930 . S
C764 C763 1.400 . S
C764 C767 1.386 . S
H765 C781 0.930 . S
H766 C782 0.931 . S
C767 H755 0.929 . S
C767 C761 1.390 . S
C767 C764 1.386 . S
C768 C763 1.490 . S
C768 C770 1.395 1_554 S
C768 C771 1.403 . S
H769 C775 0.930 . S
C770 H756 0.930 . S
C770 C768 1.395 1_556 S
C770 C773 1.403 . S
C771 C768 1.403 . S
C771 C772 1.524 . S
C771 C775 1.400 . S
C772 H757 0.960 . S
C772 H758 0.960 . S
C772 H759 0.960 . S
C772 C771 1.524 . S
C773 C770 1.403 . S
C773 C774 1.392 1_556 S
C773 C777 1.495 . S
C774 C773 1.392 1_554 S
C774 C775 1.385 . S
C774 C776 1.478 . S
C775 H769 0.930 . S
C775 C771 1.400 . S
C775 C774 1.385 . S
C776 C774 1.478 . S
C776 C778 1.381 1_554 S
C776 C782 1.383 . S
C777 C773 1.495 . S
C777 H783 0.959 . S
C777 H784 0.961 . S
C777 H785 0.960 . S
C778 C776 1.381 1_556 S
C778 C779 1.394 . S
C778 H786 0.930 . S
C779 C778 1.394 . S
C779 C780 1.383 1_556 S
C779 H787 0.929 . S
C780 C779 1.383 1_554 S
C780 C781 1.377 . S
C781 H765 0.930 . S
C781 C780 1.377 . S
C781 C782 1.379 . S
C782 H766 0.931 . S
C782 C776 1.383 . S
C782 C781 1.379 . S
H783 C777 0.959 . S
H784 C777 0.961 . S
H785 C777 0.960 . S
H786 C778 0.930 . S
H787 C779 0.929 . S
H788 C796 0.929 . S
H789 C798 0.930 . S
H790 C800 0.930 . S
H791 C803 0.929 . S
H792 C806 0.930 . S
H793 C808 0.960 . S
H794 C808 0.960 . S
H795 C808 0.960 . S
C796 H788 0.929 . S
C796 C797 1.377 . S
C796 C798 1.384 . S
C797 C796 1.377 . S
C797 C803 1.390 . S
C798 H789 0.930 . S
C798 C796 1.384 . S
C798 C799 1.372 . S
C799 C798 1.372 . S
C799 C800 1.400 . S
C799 C804 1.490 . S
C800 H790 0.930 . S
C800 C799 1.400 . S
C800 C803 1.386 . S
H801 C817 0.930 . S
H802 C818 0.931 . S
C803 H791 0.929 . S
C803 C797 1.390 . S
C803 C800 1.386 . S
C804 C799 1.490 . S
C804 C806 1.395 . S
C804 C807 1.403 . S
H805 C811 0.930 . S
C806 H792 0.930 . S
C806 C804 1.395 . S
C806 C809 1.403 . S
C807 C804 1.403 . S
C807 C808 1.524 . S
C807 C811 1.400 . S
C808 H793 0.960 . S
C808 H794 0.960 . S
C808 H795 0.960 . S
C808 C807 1.524 . S
C809 C806 1.403 . S
C809 C810 1.392 . S
C809 C813 1.495 . S
C810 C809 1.392 . S
C810 C811 1.385 . S
C810 C812 1.478 . S
C811 H805 0.930 . S
C811 C807 1.400 . S
C811 C810 1.385 . S
C812 C810 1.478 . S
C812 C814 1.381 . S
C812 C818 1.383 . S
C813 C809 1.495 . S
C813 H819 0.959 . S
C813 H820 0.961 . S
C813 H821 0.960 . S
C814 C812 1.381 . S
C814 C815 1.394 . S
C814 H822 0.930 . S
C815 C814 1.394 . S
C815 C816 1.383 . S
C815 H823 0.929 . S
C816 C815 1.383 . S
C816 C817 1.377 . S
C817 H801 0.930 . S
C817 C816 1.377 . S
C817 C818 1.379 . S
C818 H802 0.931 . S
C818 C812 1.383 . S
C818 C817 1.379 . S
H819 C813 0.959 . S
H820 C813 0.961 . S
H821 C813 0.960 . S
H822 C814 0.930 . S
H823 C815 0.929 . S
H824 C832 0.929 . S
H825 C834 0.930 . S
H826 C836 0.930 . S
H827 C839 0.929 . S
H828 C842 0.930 . S
H829 C844 0.960 . S
H830 C844 0.960 . S
H831 C844 0.960 . S
C832 H824 0.929 . S
C832 C833 1.377 . S
C832 C834 1.384 . S
C833 C832 1.377 . S
C833 C839 1.390 . S
C834 H825 0.930 . S
C834 C832 1.384 . S
C834 C835 1.372 . S
C835 C834 1.372 . S
C835 C836 1.400 . S
C835 C840 1.490 . S
C836 H826 0.930 . S
C836 C835 1.400 . S
C836 C839 1.386 . S
H837 C853 0.930 . S
H838 C854 0.931 . S
C839 H827 0.929 . S
C839 C833 1.390 . S
C839 C836 1.386 . S
C840 C835 1.490 . S
C840 C842 1.395 . S
C840 C843 1.403 1_554 S
H841 C847 0.930 1_556 S
C842 H828 0.930 . S
C842 C840 1.395 . S
C842 C845 1.403 . S
C843 C840 1.403 1_556 S
C843 C844 1.524 . S
C843 C847 1.400 1_556 S
C844 H829 0.960 . S
C844 H830 0.960 . S
C844 H831 0.960 . S
C844 C843 1.524 . S
C845 C842 1.403 . S
C845 C846 1.392 . S
C845 C849 1.495 . S
C846 C845 1.392 . S
C846 C847 1.385 . S
C846 C848 1.478 . S
C847 H841 0.930 1_554 S
C847 C843 1.400 1_554 S
C847 C846 1.385 . S
C848 C846 1.478 . S
C848 C850 1.381 . S
C848 C854 1.383 . S
C849 C845 1.495 . S
C849 H855 0.959 . S
C849 H856 0.961 . S
C849 H857 0.960 . S
C850 C848 1.381 . S
C850 C851 1.394 . S
C850 H858 0.930 . S
C851 C850 1.394 . S
C851 C852 1.383 . S
C851 H859 0.929 . S
C852 C851 1.383 . S
C852 C853 1.377 . S
C853 H837 0.930 . S
C853 C852 1.377 . S
C853 C854 1.379 . S
C854 H838 0.931 . S
C854 C848 1.383 . S
C854 C853 1.379 . S
H855 C849 0.959 . S
H856 C849 0.961 . S
H857 C849 0.960 . S
H858 C850 0.930 . S
H859 C851 0.929 . S
H860 C868 0.929 . S
H861 C870 0.930 . S
H862 C872 0.930 . S
H863 C875 0.929 . S
H864 C878 0.930 . S
H865 C880 0.960 . S
H866 C880 0.960 . S
H867 C880 0.960 . S
C868 H860 0.929 . S
C868 C869 1.377 . S
C868 C870 1.384 . S
C869 C868 1.377 . S
C869 C875 1.390 . S
C870 H861 0.930 . S
C870 C868 1.384 . S
C870 C871 1.372 . S
C871 C870 1.372 . S
C871 C872 1.400 . S
C871 C876 1.490 . S
C872 H862 0.930 . S
C872 C871 1.400 . S
C872 C875 1.386 . S
H873 C889 0.930 . S
H874 C890 0.931 . S
C875 H863 0.929 . S
C875 C869 1.390 . S
C875 C872 1.386 . S
C876 C871 1.490 . S
C876 C878 1.395 . S
C876 C879 1.403 . S
H877 C883 0.930 . S
C878 H864 0.930 . S
C878 C876 1.395 . S
C878 C881 1.403 . S
C879 C876 1.403 . S
C879 C880 1.524 . S
C879 C883 1.400 . S
C880 H865 0.960 . S
C880 H866 0.960 . S
C880 H867 0.960 . S
C880 C879 1.524 . S
C881 C878 1.403 . S
C881 C882 1.392 . S
C881 C885 1.495 . S
C882 C881 1.392 . S
C882 C883 1.385 . S
C882 C884 1.478 . S
C883 H877 0.930 . S
C883 C879 1.400 . S
C883 C882 1.385 . S
C884 C882 1.478 . S
C884 C886 1.381 . S
C884 C890 1.383 . S
C885 C881 1.495 . S
C885 H891 0.959 . S
C885 H892 0.961 . S
C885 H893 0.960 . S
C886 C884 1.381 . S
C886 C887 1.394 . S
C886 H894 0.930 . S
C887 C886 1.394 . S
C887 C888 1.383 . S
C887 H895 0.929 . S
C888 C887 1.383 . S
C888 C889 1.377 . S
C889 H873 0.930 . S
C889 C888 1.377 . S
C889 C890 1.379 . S
C890 H874 0.931 . S
C890 C884 1.383 . S
C890 C889 1.379 . S
H891 C885 0.959 . S
H892 C885 0.961 . S
H893 C885 0.960 . S
H894 C886 0.930 . S
H895 C887 0.929 . S
H896 C904 0.929 . S
H897 C906 0.930 . S
H898 C908 0.930 . S
H899 C911 0.929 . S
H900 C914 0.930 . S
H901 C916 0.960 . S
H902 C916 0.960 . S
H903 C916 0.960 . S
C904 H896 0.929 . S
C904 C905 1.377 . S
C904 C906 1.384 . S
C905 C904 1.377 . S
C905 C911 1.390 . S
C906 H897 0.930 . S
C906 C904 1.384 . S
C906 C907 1.372 . S
C907 C906 1.372 . S
C907 C908 1.400 . S
C907 C912 1.490 . S
C908 H898 0.930 . S
C908 C907 1.400 . S
C908 C911 1.386 . S
H909 C925 0.930 . S
H910 C926 0.931 . S
C911 H899 0.929 . S
C911 C905 1.390 . S
C911 C908 1.386 . S
C912 C907 1.490 . S
C912 C914 1.395 . S
C912 C915 1.403 . S
H913 C919 0.930 . S
C914 H900 0.930 . S
C914 C912 1.395 . S
C914 C917 1.403 . S
C915 C912 1.403 . S
C915 C916 1.524 . S
C915 C919 1.400 . S
C916 H901 0.960 . S
C916 H902 0.960 . S
C916 H903 0.960 . S
C916 C915 1.524 . S
C917 C914 1.403 . S
C917 C918 1.392 . S
C917 C921 1.495 . S
C918 C917 1.392 . S
C918 C919 1.385 . S
C918 C920 1.478 . S
C919 H913 0.930 . S
C919 C915 1.400 . S
C919 C918 1.385 . S
C920 C918 1.478 . S
C920 C922 1.381 . S
C920 C926 1.383 . S
C921 C917 1.495 . S
C921 H927 0.959 . S
C921 H928 0.961 . S
C921 H929 0.960 . S
C922 C920 1.381 . S
C922 C923 1.394 . S
C922 H930 0.930 . S
C923 C922 1.394 . S
C923 C924 1.383 . S
C923 H931 0.929 . S
C924 C923 1.383 . S
C924 C925 1.377 . S
C925 H909 0.930 . S
C925 C924 1.377 . S
C925 C926 1.379 . S
C926 H910 0.931 . S
C926 C920 1.383 . S
C926 C925 1.379 . S
H927 C921 0.959 . S
H928 C921 0.961 . S
H929 C921 0.960 . S
H930 C922 0.930 . S
H931 C923 0.929 . S
H932 C940 0.929 . S
H933 C942 0.930 . S
H934 C944 0.930 . S
H935 C947 0.929 . S
H936 C950 0.930 . S
H937 C952 0.960 . S
H938 C952 0.960 . S
H939 C952 0.960 1_556 S
C940 H932 0.929 . S
C940 C941 1.377 . S
C940 C942 1.384 . S
C941 C940 1.377 . S
C941 C947 1.390 1_554 S
C942 H933 0.930 . S
C942 C940 1.384 . S
C942 C943 1.372 . S
C943 C942 1.372 . S
C943 C944 1.400 1_554 S
C943 C948 1.490 . S
C944 H934 0.930 . S
C944 C943 1.400 1_556 S
C944 C947 1.386 . S
H945 C961 0.930 . S
H946 C962 0.931 . S
C947 H935 0.929 . S
C947 C941 1.390 1_556 S
C947 C944 1.386 . S
C948 C943 1.490 . S
C948 C950 1.395 . S
C948 C951 1.403 . S
H949 C955 0.930 . S
C950 H936 0.930 . S
C950 C948 1.395 . S
C950 C953 1.403 . S
C951 C948 1.403 . S
C951 C952 1.524 . S
C951 C955 1.400 . S
C952 H937 0.960 . S
C952 H938 0.960 . S
C952 H939 0.960 1_554 S
C952 C951 1.524 . S
C953 C950 1.403 . S
C953 C954 1.392 . S
C953 C957 1.495 . S
C954 C953 1.392 . S
C954 C955 1.385 . S
C954 C956 1.478 . S
C955 H949 0.930 . S
C955 C951 1.400 . S
C955 C954 1.385 . S
C956 C954 1.478 . S
C956 C958 1.381 . S
C956 C962 1.383 1_554 S
C957 C953 1.495 . S
C957 H963 0.959 . S
C957 H964 0.961 . S
C957 H965 0.960 . S
C958 C956 1.381 . S
C958 C959 1.394 . S
C958 H966 0.930 . S
C959 C958 1.394 . S
C959 C960 1.383 . S
C959 H967 0.929 . S
C960 C959 1.383 . S
C960 C961 1.377 1_554 S
C961 H945 0.930 . S
C961 C960 1.377 1_556 S
C961 C962 1.379 . S
C962 H946 0.931 . S
C962 C956 1.383 1_556 S
C962 C961 1.379 . S
H963 C957 0.959 . S
H964 C957 0.961 . S
H965 C957 0.960 . S
H966 C958 0.930 . S
H967 C959 0.929 . S
H968 C976 0.929 . S
H969 C978 0.930 . S
H970 C980 0.930 . S
H971 C983 0.929 . S
H972 C986 0.930 . S
H973 C988 0.960 . S
H974 C988 0.960 . S
H975 C988 0.960 . S
C976 H968 0.929 . S
C976 C977 1.377 . S
C976 C978 1.384 . S
C977 C976 1.377 . S
C977 C983 1.390 . S
C978 H969 0.930 . S
C978 C976 1.384 . S
C978 C979 1.372 . S
C979 C978 1.372 . S
C979 C980 1.400 . S
C979 C984 1.490 . S
C980 H970 0.930 . S
C980 C979 1.400 . S
C980 C983 1.386 . S
H981 C997 0.930 . S
H982 C998 0.931 . S
C983 H971 0.929 . S
C983 C977 1.390 . S
C983 C980 1.386 . S
C984 C979 1.490 . S
C984 C986 1.395 . S
C984 C987 1.403 . S
H985 C991 0.930 . S
C986 H972 0.930 . S
C986 C984 1.395 . S
C986 C989 1.403 . S
C987 C984 1.403 . S
C987 C988 1.524 . S
C987 C991 1.400 . S
C988 H973 0.960 . S
C988 H974 0.960 . S
C988 H975 0.960 . S
C988 C987 1.524 . S
C989 C986 1.403 . S
C989 C990 1.392 . S
C989 C993 1.495 . S
C990 C989 1.392 . S
C990 C991 1.385 . S
C990 C992 1.478 . S
C991 H985 0.930 . S
C991 C987 1.400 . S
C991 C990 1.385 . S
C992 C990 1.478 . S
C992 C994 1.381 . S
C992 C998 1.383 . S
C993 C989 1.495 . S
C993 H999 0.959 . S
C993 H1000 0.961 . S
C993 H1001 0.960 . S
C994 C992 1.381 . S
C994 C995 1.394 . S
C994 H1002 0.930 . S
C995 C994 1.394 . S
C995 C996 1.383 . S
C995 H1003 0.929 . S
C996 C995 1.383 . S
C996 C997 1.377 . S
C997 H981 0.930 . S
C997 C996 1.377 . S
C997 C998 1.379 . S
C998 H982 0.931 . S
C998 C992 1.383 . S
C998 C997 1.379 . S
H999 C993 0.959 . S
H1000 C993 0.961 . S
H1001 C993 0.960 . S
H1002 C994 0.930 . S
H1003 C995 0.929 . S
H1004 C1012 0.929 . S
H1005 C1014 0.930 . S
H1006 C1016 0.930 . S
H1007 C1019 0.929 . S
H1008 C1022 0.930 . S
H1009 C1024 0.960 . S
H1010 C1024 0.960 . S
H1011 C1024 0.960 . S
C1012 H1004 0.929 . S
C1012 C1013 1.377 . S
C1012 C1014 1.384 . S
C1013 C1012 1.377 . S
C1013 C1019 1.390 . S
C1014 H1005 0.930 . S
C1014 C1012 1.384 . S
C1014 C1015 1.372 . S
C1015 C1014 1.372 . S
C1015 C1016 1.400 . S
C1015 C1020 1.490 . S
C1016 H1006 0.930 . S
C1016 C1015 1.400 . S
C1016 C1019 1.386 . S
H1017 C1033 0.930 . S
H1018 C1034 0.931 . S
C1019 H1007 0.929 . S
C1019 C1013 1.390 . S
C1019 C1016 1.386 . S
C1020 C1015 1.490 . S
C1020 C1022 1.395 1_554 S
C1020 C1023 1.403 . S
H1021 C1027 0.930 . S
C1022 H1008 0.930 . S
C1022 C1020 1.395 1_556 S
C1022 C1025 1.403 . S
C1023 C1020 1.403 . S
C1023 C1024 1.524 . S
C1023 C1027 1.400 . S
C1024 H1009 0.960 . S
C1024 H1010 0.960 . S
C1024 H1011 0.960 . S
C1024 C1023 1.524 . S
C1025 C1022 1.403 . S
C1025 C1026 1.392 1_556 S
C1025 C1029 1.495 . S
C1026 C1025 1.392 1_554 S
C1026 C1027 1.385 . S
C1026 C1028 1.478 . S
C1027 H1021 0.930 . S
C1027 C1023 1.400 . S
C1027 C1026 1.385 . S
C1028 C1026 1.478 . S
C1028 C1030 1.381 . S
C1028 C1034 1.383 . S
C1029 C1025 1.495 . S
C1029 H1035 0.959 . S
C1029 H1036 0.961 . S
C1029 H1037 0.960 . S
C1030 C1028 1.381 . S
C1030 C1031 1.394 . S
C1030 H1038 0.930 . S
C1031 C1030 1.394 . S
C1031 C1032 1.383 . S
C1031 H1039 0.929 . S
C1032 C1031 1.383 . S
C1032 C1033 1.377 . S
C1033 H1017 0.930 . S
C1033 C1032 1.377 . S
C1033 C1034 1.379 . S
C1034 H1018 0.931 . S
C1034 C1028 1.383 . S
C1034 C1033 1.379 . S
H1035 C1029 0.959 . S
H1036 C1029 0.961 . S
H1037 C1029 0.960 . S
H1038 C1030 0.930 . S
H1039 C1031 0.929 . S
C185 C21 1.482 . S
C204 C126 1.223 . S
C221 C40 1.559 . S
C240 C95 1.510 . S
C276 C106 1.466 . S
C257 C54 1.465 . S
C293 C73 1.513 . S
C312 C115 1.411 . S
C348 C150 1.485 . S
C329 C74 1.490 . S
C384 C159 1.422 . S
C365 C10 1.511 . S
C420 C170 1.267 . S
C401 C37 1.458 . S
C456 C139 1.493 . S
C437 C65 1.563 . S
C473 C52 1.431 . S
C492 C104 1.302 . S
C509 C87 1.587 . S
C528 C117 1.586 . S
C545 C15 1.513 . S
C564 C128 1.501 . S
C600 C93 1.248 . S
C581 C32 1.476 . S
C617 C29 1.541 . S
C636 C172 1.483 . S
C672 C137 1.239 . S
C653 C59 1.543 . S
C708 C148 1.317 . S
C689 C84 1.413 . S
C725 C8 1.527 . S
C744 C161 1.502 . S
C780 C96 1.566 . S
C761 C7 1.595 . S
C816 C107 1.515 . S
C797 C30 1.517 . S
C833 C62 1.610 . S
C852 C118 1.607 . S
C869 C81 1.529 . S
C888 C129 1.532 . S
C924 C140 1.545 . S
C905 C76 1.610 . S
C941 C18 1.521 . S
C960 C151 1.525 . S
C977 C43 1.600 . S
C996 C162 1.602 . S
C1013 C51 1.533 . S
C1032 C173 1.514 . S
