# Generated by pormake.
# Topology pto, (3,4)-cn, num edge types: 1
# Building blocks:
#     Node 0, Type 0, BuildingBlock: OLANEW_clean_sbu_2, # of connection points: 3
#     Node 1, Type 0, BuildingBlock: OLANEW_clean_sbu_2, # of connection points: 3
#     Node 2, Type 0, BuildingBlock: OLANEW_clean_sbu_2, # of connection points: 3
#     Node 3, Type 0, BuildingBlock: OLANEW_clean_sbu_2, # of connection points: 3
#     Node 4, Type 0, BuildingBlock: OLANEW_clean_sbu_2, # of connection points: 3
#     Node 5, Type 0, BuildingBlock: OLANEW_clean_sbu_2, # of connection points: 3
#     Node 6, Type 0, BuildingBlock: OLANEW_clean_sbu_2, # of connection points: 3
#     Node 7, Type 0, BuildingBlock: OLANEW_clean_sbu_2, # of connection points: 3
#     Node 8, Type 1, BuildingBlock: KOZSID_clean_sbu_0, # of connection points: 4
#     Node 9, Type 1, BuildingBlock: KOZSID_clean_sbu_0, # of connection points: 4
#     Node 10, Type 1, BuildingBlock: KOZSID_clean_sbu_0, # of connection points: 4
#     Node 11, Type 1, BuildingBlock: KOZSID_clean_sbu_0, # of connection points: 4
#     Node 12, Type 1, BuildingBlock: KOZSID_clean_sbu_0, # of connection points: 4
#     Node 13, Type 1, BuildingBlock: KOZSID_clean_sbu_0, # of connection points: 4
#     Edge 14, Type (0, 1), BuildingBlock: EZIPEK_clean_linker_0, # of connection points: 2
#     Edge 15, Type (0, 1), BuildingBlock: EZIPEK_clean_linker_0, # of connection points: 2
#     Edge 16, Type (0, 1), BuildingBlock: EZIPEK_clean_linker_0, # of connection points: 2
#     Edge 17, Type (0, 1), BuildingBlock: EZIPEK_clean_linker_0, # of connection points: 2
#     Edge 18, Type (0, 1), BuildingBlock: EZIPEK_clean_linker_0, # of connection points: 2
#     Edge 19, Type (0, 1), BuildingBlock: EZIPEK_clean_linker_0, # of connection points: 2
#     Edge 20, Type (0, 1), BuildingBlock: EZIPEK_clean_linker_0, # of connection points: 2
#     Edge 21, Type (0, 1), BuildingBlock: EZIPEK_clean_linker_0, # of connection points: 2
#     Edge 22, Type (0, 1), BuildingBlock: EZIPEK_clean_linker_0, # of connection points: 2
#     Edge 23, Type (0, 1), BuildingBlock: EZIPEK_clean_linker_0, # of connection points: 2
#     Edge 24, Type (0, 1), BuildingBlock: EZIPEK_clean_linker_0, # of connection points: 2
#     Edge 25, Type (0, 1), BuildingBlock: EZIPEK_clean_linker_0, # of connection points: 2
#     Edge 26, Type (0, 1), BuildingBlock: EZIPEK_clean_linker_0, # of connection points: 2
#     Edge 27, Type (0, 1), BuildingBlock: EZIPEK_clean_linker_0, # of connection points: 2
#     Edge 28, Type (0, 1), BuildingBlock: EZIPEK_clean_linker_0, # of connection points: 2
#     Edge 29, Type (0, 1), BuildingBlock: EZIPEK_clean_linker_0, # of connection points: 2
#     Edge 30, Type (0, 1), BuildingBlock: EZIPEK_clean_linker_0, # of connection points: 2
#     Edge 31, Type (0, 1), BuildingBlock: EZIPEK_clean_linker_0, # of connection points: 2
#     Edge 32, Type (0, 1), BuildingBlock: EZIPEK_clean_linker_0, # of connection points: 2
#     Edge 33, Type (0, 1), BuildingBlock: EZIPEK_clean_linker_0, # of connection points: 2
#     Edge 34, Type (0, 1), BuildingBlock: EZIPEK_clean_linker_0, # of connection points: 2
#     Edge 35, Type (0, 1), BuildingBlock: EZIPEK_clean_linker_0, # of connection points: 2
#     Edge 36, Type (0, 1), BuildingBlock: EZIPEK_clean_linker_0, # of connection points: 2
#     Edge 37, Type (0, 1), BuildingBlock: EZIPEK_clean_linker_0, # of connection points: 2
# Relax obj value: 0.010
# Max RMSD: 0.123
# Mean RMSD: 0.050
data_MOF--net-pto--node1-OLANEW_clean_sbu_2--node2-KOZSID_clean_sbu_0--edge1-EZIPEK_clean_linker_0
_symmetry_space_group_name_H-M    P1
_symmetry_Int_Tables_number       1
_symmetry_cell_setting            triclinic
loop_
_symmetry_equiv_pos_as_xyz
'x, y, z'
_cell_length_a     30.347059
_cell_length_b     42.521262
_cell_length_c     36.037366
_cell_angle_alpha  90.444858
_cell_angle_beta   86.263482
_cell_angle_gamma 109.71939
loop_
_atom_site_label
_atom_site_type_symbol
_atom_site_fract_x
_atom_site_fract_y
_atom_site_fract_z
_atom_type_partial_charge
O0 O 0.38292 0.34065 0.26748 0.0
Cd1 Cd 0.34199 0.32974 0.32868 0.0
O2 O 0.40867 0.39537 0.27415 0.0
Cd3 Cd 0.35789 0.39408 0.32015 0.0
O4 O 0.29633 0.40961 0.3278 0.0
C5 C 0.30346 0.44081 0.32841 0.0
O6 O 0.34675 0.46177 0.32774 0.0
C7 C 0.40813 0.36965 0.25578 0.0
C8 C 0.37138 0.28632 0.37007 0.0
O9 O 0.39375 0.31785 0.36934 0.0
O10 O 0.33543 0.27512 0.3508 0.0
O11 O 0.31182 0.892 0.78946 0.0
Cd12 Cd 0.28791 0.88463 0.72563 0.0
O13 O 0.33651 0.84877 0.78601 0.0
Cd14 Cd 0.3058 0.82938 0.7342 0.0
O15 O 0.25219 0.78602 0.71326 0.0
C16 C 0.26154 0.76172 0.69811 0.0
O17 O 0.30546 0.76371 0.69123 0.0
C18 C 0.3319 0.87359 0.80363 0.0
C19 C 0.3207 0.94502 0.68621 0.0
O20 O 0.34565 0.926 0.68673 0.0
O21 O 0.28048 0.93557 0.70421 0.0
O22 O 0.83203 0.81029 0.36231 0.0
Cd23 Cd 0.81599 0.76863 0.31248 0.0
O24 O 0.81139 0.84447 0.32704 0.0
Cd25 Cd 0.79456 0.81366 0.2778 0.0
O26 O 0.75843 0.80903 0.22666 0.0
C27 C 0.71421 0.80181 0.23042 0.0
O28 O 0.69283 0.79474 0.26375 0.0
C29 C 0.82523 0.83792 0.35764 0.0
C30 C 0.85529 0.71797 0.31554 0.0
O31 O 0.87762 0.74578 0.2987 0.0
O32 O 0.81505 0.71433 0.33193 0.0
O33 O 0.79875 0.33539 0.7183 0.0
Cd34 Cd 0.75183 0.27811 0.7393 0.0
O35 O 0.8465 0.34525 0.76388 0.0
Cd36 Cd 0.80478 0.29937 0.79337 0.0
O37 O 0.74842 0.29117 0.83666 0.0
C38 C 0.74547 0.31843 0.84927 0.0
O39 O 0.77523 0.34692 0.83606 0.0
C40 C 0.8336 0.3548 0.73442 0.0
C41 C 0.7702 0.22513 0.70254 0.0
O42 O 0.74308 0.23911 0.6893 0.0
O43 O 0.78972 0.2367 0.73259 0.0
O44 O 0.7506 0.8199 0.68829 0.0
Cd45 Cd 0.72878 0.77022 0.72901 0.0
O46 O 0.79808 0.85233 0.72749 0.0
Cd47 Cd 0.77898 0.8149 0.77218 0.0
O48 O 0.73644 0.8028 0.82473 0.0
C49 C 0.72 0.82564 0.83449 0.0
O50 O 0.72985 0.85236 0.81315 0.0
C51 C 0.7793 0.84825 0.69648 0.0
C52 C 0.77682 0.72572 0.71266 0.0
O53 O 0.79267 0.74988 0.73507 0.0
O54 O 0.73867 0.72278 0.6974 0.0
O55 O 0.91906 0.29856 0.32857 0.0
Cd56 Cd 0.89447 0.24165 0.30326 0.0
O57 O 0.86824 0.30527 0.29193 0.0
Cd58 Cd 0.83132 0.33277 0.26306 0.0
O59 O 0.78279 0.34222 0.22612 0.0
C60 C 0.77543 0.3256 0.19632 0.0
O61 O 0.79777 0.30448 0.18863 0.0
C62 C 0.89978 0.31762 0.31458 0.0
C63 C 0.8749 0.1887 0.3538 0.0
O64 O 0.91614 0.20164 0.33796 0.0
O65 O 0.84335 0.20113 0.34647 0.0
O66 O 0.28761 0.39865 0.8141 0.0
Cd67 Cd 0.27284 0.40377 0.7488 0.0
O68 O 0.36058 0.40291 0.79726 0.0
Cd69 Cd 0.35023 0.39556 0.73851 0.0
O70 O 0.35114 0.35394 0.70362 0.0
C71 C 0.36085 0.33123 0.72053 0.0
O72 O 0.36856 0.3344 0.75605 0.0
C73 C 0.32841 0.40046 0.82256 0.0
C74 C 0.21681 0.44252 0.73781 0.0
O75 O 0.26095 0.45617 0.74124 0.0
O76 O 0.19907 0.41057 0.7399 0.0
O77 O 0.46317 0.89819 0.27926 0.0
Cd78 Cd 0.4554 0.89861 0.34699 0.0
O79 O 0.39384 0.85977 0.28629 0.0
Cd80 Cd 0.33346 0.81834 0.27002 0.0
O81 O 0.273 0.77269 0.27874 0.0
C82 C 0.27449 0.74518 0.26581 0.0
O83 O 0.31191 0.74465 0.24567 0.0
C84 C 0.42874 0.87665 0.26505 0.0
C85 C 0.42572 0.94856 0.37804 0.0
O86 O 0.46946 0.95222 0.37405 0.0
O87 O 0.396 0.92183 0.36607 0.0
C88 C 0.10279 0.61026 0.33717 0.0
C89 C 0.11638 0.62988 0.36815 0.0
C90 C 0.08967 0.61223 0.39801 0.0
C91 C 0.06125 0.58302 0.38362 0.0
N92 N 0.06848 0.58091 0.34639 0.0
Co93 Co 0.03264 0.54388 0.31399 0.0
N94 N 0.99819 0.51574 0.35819 0.0
C95 C 0.00242 0.52402 0.3944 0.0
C96 C 0.97844 0.49819 0.4185 0.0
C97 C 0.95878 0.47154 0.39632 0.0
C98 C 0.97171 0.48284 0.35994 0.0
N99 N 0.99508 0.50759 0.28161 0.0
C100 C 0.96622 0.47628 0.2908 0.0
C101 C 0.947 0.45871 0.25982 0.0
C102 C 0.96534 0.4795 0.22982 0.0
C103 C 0.99444 0.50847 0.2442 0.0
N104 N 0.06918 0.57061 0.2697 0.0
C105 C 0.06446 0.56205 0.23357 0.0
C106 C 0.09603 0.58454 0.2094 0.0
C107 C 0.1227 0.60887 0.23142 0.0
C108 C 0.10546 0.59986 0.26788 0.0
N109 N 0.08102 0.5225 0.3162 0.0
C110 C 0.15139 0.49369 0.31976 0.0
C111 C 0.12764 0.49169 0.28739 0.0
C112 C 0.09304 0.50653 0.28606 0.0
C113 C 0.13926 0.51011 0.35028 0.0
C114 C 0.10383 0.52388 0.34809 0.0
N115 N 0.98461 0.56634 0.31206 0.0
C116 C 0.95352 0.60281 0.27902 0.0
C117 C 0.93447 0.61127 0.31223 0.0
C118 C 0.93715 0.59486 0.34482 0.0
C119 C 0.96165 0.57229 0.34403 0.0
C120 C 0.9778 0.58012 0.27949 0.0
H121 H 0.96252 0.56087 0.36995 0.0
H122 H 0.99187 0.57501 0.25323 0.0
H123 H 0.07629 0.5048 0.26052 0.0
H124 H 0.09551 0.53563 0.37253 0.0
C125 C 0.03099 0.55583 0.4046 0.0
C126 C 0.12359 0.62049 0.29964 0.0
C127 C 0.95971 0.46128 0.32781 0.0
C128 C 0.02823 0.53375 0.22322 0.0
H129 H 0.1431 0.6543 0.36905 0.0
H130 H 0.09149 0.61951 0.42687 0.0
H131 H 0.97678 0.49839 0.44859 0.0
H132 H 0.9381 0.44647 0.40574 0.0
H133 H 0.92396 0.433 0.25887 0.0
H134 H 0.96061 0.47335 0.20081 0.0
H135 H 0.09891 0.58358 0.17935 0.0
H136 H 0.15118 0.63099 0.2217 0.0
H137 H 0.13624 0.47913 0.26315 0.0
H138 H 0.15702 0.51218 0.37578 0.0
H139 H 0.95097 0.61449 0.253 0.0
H140 H 0.9216 0.60019 0.37098 0.0
C141 C 0.06596 0.63964 0.72117 0.0
C142 C 0.07507 0.66 0.75207 0.0
C143 C 0.03766 0.64706 0.77755 0.0
C144 C 0.00787 0.61966 0.76086 0.0
N145 N 0.02455 0.61449 0.72665 0.0
Co146 Co 0.99193 0.57886 0.69243 0.0
N147 N 0.95063 0.55194 0.73374 0.0
C148 C 0.94192 0.56312 0.76748 0.0
C149 C 0.91298 0.53803 0.79059 0.0
C150 C 0.90294 0.50944 0.76994 0.0
C151 C 0.92623 0.51878 0.73522 0.0
N152 N 0.95849 0.54348 0.65827 0.0
C153 C 0.93259 0.51124 0.66595 0.0
C154 C 0.91527 0.4946 0.63394 0.0
C155 C 0.93123 0.51751 0.60521 0.0
C156 C 0.95722 0.54674 0.6213 0.0
N157 N 0.03349 0.60541 0.65093 0.0
C158 C 0.02568 0.60189 0.61454 0.0
C159 C 0.06141 0.62345 0.5923 0.0
C160 C 0.09336 0.64181 0.61627 0.0
C161 C 0.07507 0.63051 0.65193 0.0
N162 N 0.03704 0.55626 0.6999 0.0
C163 C 0.09835 0.52157 0.71216 0.0
C164 C 0.08435 0.52421 0.67636 0.0
C165 C 0.05421 0.54212 0.67072 0.0
C166 C 0.08231 0.53753 0.7414 0.0
C167 C 0.05106 0.55418 0.73483 0.0
N168 N 0.9469 0.60185 0.68559 0.0
C169 C 0.93226 0.65384 0.68141 0.0
C170 C 0.88418 0.63714 0.68766 0.0
C171 C 0.86756 0.60223 0.69069 0.0
C172 C 0.89962 0.58497 0.68934 0.0
C173 C 0.96295 0.63576 0.6804 0.0
H174 H 0.88631 0.55814 0.69281 0.0
H175 H 0.99987 0.64948 0.67713 0.0
H176 H 0.04406 0.54398 0.64293 0.0
H177 H 0.03778 0.565 0.75821 0.0
C178 C 0.96845 0.59537 0.77832 0.0
C179 C 0.09524 0.64639 0.68613 0.0
C180 C 0.92239 0.49639 0.70341 0.0
C181 C 0.98855 0.57487 0.60228 0.0
H182 H 0.10528 0.68209 0.75564 0.0
H183 H 0.03349 0.65597 0.80532 0.0
H184 H 0.90229 0.53992 0.81953 0.0
H185 H 0.88104 0.48467 0.77937 0.0
H186 H 0.89371 0.46865 0.63162 0.0
H187 H 0.92652 0.51287 0.57591 0.0
H188 H 0.06463 0.62495 0.56222 0.0
H189 H 0.12588 0.66165 0.60844 0.0
H190 H 0.0964 0.51233 0.65304 0.0
H191 H 0.09276 0.53622 0.76937 0.0
H192 H 0.94614 0.68084 0.67882 0.0
H193 H 0.83037 0.58862 0.69534 0.0
C194 C 0.41471 0.09595 0.60018 0.0
C195 C 0.45369 0.096 0.61828 0.0
C196 C 0.48893 0.12517 0.60797 0.0
C197 C 0.46948 0.14119 0.5843 0.0
N198 N 0.42426 0.12389 0.57902 0.0
Co199 Co 0.38267 0.13779 0.54727 0.0
N200 N 0.43729 0.17143 0.51998 0.0
C201 C 0.48173 0.18257 0.53041 0.0
C202 C 0.51227 0.20502 0.50551 0.0
C203 C 0.4853 0.20876 0.47797 0.0
C204 C 0.43958 0.18853 0.48788 0.0
N205 N 0.3408 0.15187 0.51589 0.0
C206 C 0.35118 0.17184 0.48513 0.0
C207 C 0.31108 0.17636 0.47311 0.0
C208 C 0.27469 0.15923 0.49762 0.0
C209 C 0.29436 0.14519 0.52312 0.0
N210 N 0.32842 0.10413 0.57447 0.0
C211 C 0.28343 0.10281 0.57559 0.0
C212 C 0.25364 0.07618 0.59617 0.0
C213 C 0.28169 0.05978 0.60888 0.0
C214 C 0.32718 0.07753 0.59538 0.0
N215 N 0.37957 0.17129 0.58382 0.0
C216 C 0.37299 0.21937 0.63475 0.0
C217 C 0.37001 0.18761 0.64714 0.0
C218 C 0.37348 0.16384 0.62111 0.0
C219 C 0.37945 0.22675 0.59679 0.0
C220 C 0.38242 0.20234 0.5719 0.0
N221 N 0.38553 0.10418 0.51089 0.0
C222 C 0.34663 0.05915 0.47086 0.0
C223 C 0.38895 0.05359 0.46225 0.0
C224 C 0.42972 0.07439 0.47736 0.0
C225 C 0.42732 0.09966 0.50143 0.0
C226 C 0.34561 0.08442 0.49554 0.0
H227 H 0.4592 0.11513 0.5129 0.0
H228 H 0.31236 0.08757 0.50268 0.0
H229 H 0.3708 0.1394 0.63108 0.0
H230 H 0.38622 0.20845 0.54294 0.0
C231 C 0.49431 0.16863 0.56135 0.0
C232 C 0.36865 0.06987 0.60497 0.0
C233 C 0.39879 0.19063 0.46967 0.0
C234 C 0.26974 0.1231 0.55185 0.0
H235 H 0.45634 0.07691 0.63683 0.0
H236 H 0.52497 0.13295 0.61548 0.0
H237 H 0.54973 0.21701 0.50698 0.0
H238 H 0.49739 0.22563 0.45424 0.0
H239 H 0.30856 0.19139 0.44977 0.0
H240 H 0.23821 0.15712 0.49677 0.0
H241 H 0.21582 0.06872 0.60013 0.0
H242 H 0.27002 0.03743 0.62618 0.0
H243 H 0.36485 0.18126 0.67653 0.0
H244 H 0.38159 0.25111 0.58643 0.0
H245 H 0.31453 0.04349 0.45941 0.0
H246 H 0.46305 0.07078 0.47098 0.0
C247 C 0.4963 0.88952 0.08762 0.0
C248 C 0.50705 0.92218 0.09963 0.0
C249 C 0.53407 0.94233 0.07118 0.0
C250 C 0.53866 0.92093 0.04362 0.0
N251 N 0.51631 0.88866 0.05311 0.0
Co252 Co 0.51614 0.84943 0.02304 0.0
N253 N 0.57248 0.87627 0.99211 0.0
C254 C 0.58865 0.90982 0.98858 0.0
C255 C 0.62778 0.92142 0.9645 0.0
C256 C 0.63636 0.8934 0.95184 0.0
C257 C 0.60182 0.86613 0.96899 0.0
N258 N 0.51566 0.80994 0.99327 0.0
C259 C 0.54997 0.80519 0.97042 0.0
C260 C 0.53476 0.77365 0.95489 0.0
C261 C 0.48902 0.75852 0.96803 0.0
C262 C 0.47892 0.78148 0.99091 0.0
N263 N 0.45934 0.82285 0.05365 0.0
C264 C 0.42778 0.79357 0.04441 0.0
C265 C 0.39159 0.78153 0.07119 0.0
C266 C 0.4011 0.80478 0.09888 0.0
C267 C 0.44266 0.82966 0.08731 0.0
N268 N 0.47658 0.86013 0.98807 0.0
C269 C 0.42009 0.87373 0.937 0.0
C270 C 0.4586 0.86464 0.92487 0.0
C271 C 0.48635 0.85798 0.95077 0.0
C272 C 0.41064 0.87671 0.97513 0.0
C273 C 0.4394 0.86969 0.00033 0.0
N274 N 0.55611 0.83894 0.05767 0.0
C275 C 0.5722 0.79998 0.09808 0.0
C276 C 0.6114 0.82541 0.10996 0.0
C277 C 0.62365 0.85729 0.09395 0.0
C278 C 0.59521 0.86365 0.06828 0.0
C279 C 0.54526 0.8072 0.07153 0.0
H280 H 0.60445 0.88876 0.05753 0.0
H281 H 0.51487 0.78738 0.06306 0.0
H282 H 0.51552 0.85077 0.94048 0.0
H283 H 0.43134 0.87165 0.02968 0.0
C284 C 0.57079 0.92944 0.01251 0.0
C285 C 0.46491 0.85988 0.10822 0.0
C286 C 0.59493 0.83119 0.95948 0.0
C287 C 0.43813 0.7756 0.01434 0.0
H288 H 0.49666 0.93066 0.12606 0.0
H289 H 0.55043 0.96922 0.07144 0.0
H290 H 0.6484 0.94716 0.95773 0.0
H291 H 0.66432 0.89307 0.93177 0.0
H292 H 0.55432 0.76298 0.93545 0.0
H293 H 0.46629 0.7335 0.96226 0.0
H294 H 0.36296 0.75795 0.07143 0.0
H295 H 0.38014 0.80354 0.12467 0.0
H296 H 0.4667 0.86213 0.89549 0.0
H297 H 0.38089 0.8837 0.98524 0.0
H298 H 0.56194 0.77498 0.10986 0.0
H299 H 0.65397 0.87744 0.10239 0.0
C300 C 0.84883 0.99102 0.59846 0.0
C301 C 0.88733 0.99277 0.61819 0.0
C302 C 0.9219 0.02217 0.6076 0.0
C303 C 0.90256 0.03664 0.58216 0.0
N304 N 0.85801 0.0182 0.57611 0.0
Co305 Co 0.8171 0.0296 0.54159 0.0
N306 N 0.87189 0.063 0.51412 0.0
C307 C 0.91552 0.07574 0.52602 0.0
C308 C 0.94582 0.09944 0.50226 0.0
C309 C 0.91952 0.10238 0.47391 0.0
C310 C 0.87439 0.08021 0.482 0.0
N311 N 0.77567 0.04129 0.50746 0.0
C312 C 0.78642 0.05936 0.47526 0.0
C313 C 0.74622 0.06063 0.45994 0.0
C314 C 0.70919 0.04383 0.4841 0.0
C315 C 0.72868 0.03297 0.51252 0.0
N316 N 0.76269 0.99589 0.56872 0.0
C317 C 0.71731 0.99319 0.56777 0.0
C318 C 0.68762 0.9666 0.58849 0.0
C319 C 0.71613 0.95166 0.60343 0.0
C320 C 0.76177 0.97016 0.59103 0.0
N321 N 0.81124 0.06438 0.57591 0.0
C322 C 0.79912 0.1139 0.62303 0.0
C323 C 0.79189 0.08176 0.63694 0.0
C324 C 0.7985 0.05738 0.61291 0.0
C325 C 0.81364 0.12103 0.58566 0.0
C326 C 0.81956 0.09605 0.56276 0.0
N327 N 0.82281 0.99474 0.50762 0.0
C328 C 0.78681 0.94815 0.4685 0.0
C329 C 0.82968 0.94291 0.46169 0.0
C330 C 0.86916 0.96418 0.47817 0.0
C331 C 0.8651 0.99018 0.50066 0.0
C332 C 0.78404 0.97394 0.49174 0.0
H333 H 0.89614 0.00637 0.51268 0.0
H334 H 0.75031 0.97679 0.49707 0.0
H335 H 0.79307 0.03289 0.62424 0.0
H336 H 0.83096 0.10257 0.5344 0.0
C337 C 0.92735 0.06347 0.55843 0.0
C338 C 0.80356 0.96401 0.60273 0.0
C339 C 0.83387 0.08018 0.46172 0.0
C340 C 0.70362 0.0116 0.5417 0.0
H341 H 0.89018 0.97461 0.63793 0.0
H342 H 0.95755 0.03106 0.61605 0.0
H343 H 0.98258 0.11313 0.50528 0.0
H344 H 0.93172 0.11987 0.45074 0.0
H345 H 0.74417 0.07369 0.4348 0.0
H346 H 0.67242 0.0397 0.48108 0.0
H347 H 0.64966 0.95805 0.59093 0.0
H348 H 0.70462 0.92967 0.62129 0.0
H349 H 0.78105 0.07558 0.66597 0.0
H350 H 0.81998 0.14574 0.57411 0.0
H351 H 0.75556 0.93216 0.45618 0.0
H352 H 0.90292 0.96085 0.47343 0.0
C353 C 0.51523 0.39851 0.08344 0.0
C354 C 0.52346 0.43152 0.09328 0.0
C355 C 0.5462 0.45077 0.0628 0.0
C356 C 0.55055 0.4285 0.03619 0.0
N357 N 0.5322 0.39655 0.04824 0.0
Co358 Co 0.53025 0.35653 0.01907 0.0
N359 N 0.58121 0.38339 0.98349 0.0
C360 C 0.59493 0.41667 0.97805 0.0
C361 C 0.63129 0.42807 0.95131 0.0
C362 C 0.64066 0.40014 0.93915 0.0
C363 C 0.60933 0.37321 0.95922 0.0
N364 N 0.5278 0.31659 0.98955 0.0
C365 C 0.56019 0.31207 0.96456 0.0
C366 C 0.54446 0.28027 0.94979 0.0
C367 C 0.50035 0.26454 0.9661 0.0
C368 C 0.49172 0.28754 0.98985 0.0
N369 N 0.47935 0.32961 0.05459 0.0
C370 C 0.44836 0.29912 0.04859 0.0
C371 C 0.41723 0.28675 0.0787 0.0
C372 C 0.42933 0.31112 0.10505 0.0
C373 C 0.46723 0.3371 0.0894 0.0
N374 N 0.48386 0.36426 0.9886 0.0
C375 C 0.42002 0.37821 0.945 0.0
C376 C 0.41464 0.37917 0.9837 0.0
C377 C 0.4471 0.37219 0.00501 0.0
C378 C 0.4572 0.3696 0.92844 0.0
C379 C 0.48866 0.36259 0.95073 0.0
N380 N 0.5766 0.34905 0.04968 0.0
C381 C 0.60314 0.31219 0.08547 0.0
C382 C 0.64108 0.33931 0.09614 0.0
C383 C 0.64669 0.37123 0.08261 0.0
C384 C 0.61434 0.37552 0.05914 0.0
C385 C 0.57102 0.31765 0.06246 0.0
H386 H 0.61959 0.40036 0.04897 0.0
H387 H 0.54142 0.29654 0.05528 0.0
H388 H 0.44271 0.3735 0.03475 0.0
H389 H 0.51712 0.35612 0.93733 0.0
C390 C 0.57841 0.43654 0.00267 0.0
C391 C 0.4882 0.36955 0.10686 0.0
C392 C 0.60436 0.33815 0.95253 0.0
C393 C 0.45474 0.28094 0.01731 0.0
H394 H 0.51374 0.44066 0.11958 0.0
H395 H 0.55952 0.47778 0.06084 0.0
H396 H 0.64991 0.45369 0.94263 0.0
H397 H 0.66711 0.39959 0.91775 0.0
H398 H 0.5628 0.26966 0.92925 0.0
H399 H 0.47811 0.23898 0.96221 0.0
H400 H 0.39013 0.26247 0.0817 0.0
H401 H 0.41195 0.31002 0.13245 0.0
H402 H 0.38592 0.38557 0.99722 0.0
H403 H 0.46191 0.36841 0.89846 0.0
H404 H 0.598 0.28715 0.09539 0.0
H405 H 0.67587 0.39268 0.09021 0.0
C406 C 0.26582 0.47701 0.29745 0.0
C407 C 0.26386 0.45359 0.32594 0.0
C408 C 0.18512 0.45301 0.34706 0.0
C409 C 0.1898 0.47947 0.32159 0.0
N410 N 0.23942 0.52164 0.27824 0.0
N411 N 0.22498 0.42363 0.38214 0.0
C412 C 0.23154 0.49291 0.29837 0.0
C413 C 0.22433 0.44265 0.35191 0.0
N414 N 0.29907 0.48297 0.26844 0.0
N415 N 0.14293 0.43718 0.36595 0.0
H416 H 0.25346 0.4162 0.38724 0.0
H417 H 0.19921 0.41794 0.40399 0.0
H418 H 0.11339 0.44403 0.36329 0.0
H419 H 0.13613 0.41541 0.3817 0.0
H420 H 0.29901 0.49732 0.24514 0.0
H421 H 0.32353 0.47066 0.26554 0.0
H422 H 0.27144 0.5343 0.26393 0.0
H423 H 0.21584 0.53471 0.27886 0.0
C424 C 0.18506 0.73382 0.6703 0.0
C425 C 0.22243 0.73093 0.69004 0.0
C426 C 0.18032 0.6708 0.69867 0.0
C427 C 0.14033 0.67501 0.68427 0.0
N428 N 0.10206 0.71186 0.66158 0.0
N429 N 0.25278 0.69728 0.72813 0.0
C430 C 0.14198 0.70687 0.67133 0.0
C431 C 0.21971 0.69949 0.70525 0.0
N432 N 0.1911 0.76208 0.64985 0.0
N433 N 0.18048 0.63939 0.70625 0.0
H434 H 0.28137 0.71772 0.73499 0.0
H435 H 0.24957 0.67571 0.74316 0.0
H436 H 0.15186 0.6179 0.70215 0.0
H437 H 0.21031 0.6345 0.71331 0.0
H438 H 0.1665 0.76423 0.63206 0.0
H439 H 0.22278 0.78198 0.64755 0.0
H440 H 0.10038 0.73544 0.65611 0.0
H441 H 0.06963 0.69286 0.66194 0.0
C442 C 0.84984 0.65891 0.30031 0.0
C443 C 0.87512 0.6904 0.31529 0.0
C444 C 0.94089 0.67074 0.32498 0.0
C445 C 0.91384 0.63843 0.31324 0.0
N446 N 0.84016 0.60005 0.2951 0.0
N447 N 0.94105 0.72444 0.34808 0.0
C448 C 0.86754 0.632 0.3025 0.0
C449 C 0.91975 0.69586 0.32925 0.0
N450 N 0.81013 0.65514 0.28227 0.0
N451 N 0.98719 0.67767 0.33117 0.0
H452 H 0.92628 0.74314 0.35252 0.0
H453 H 0.97117 0.72828 0.36232 0.0
H454 H 0.00381 0.65983 0.32891 0.0
H455 H 0.0101 0.70169 0.33555 0.0
H456 H 0.79308 0.63394 0.26732 0.0
H457 H 0.79651 0.67436 0.2792 0.0
H458 H 0.80446 0.59314 0.29121 0.0
H459 H 0.85226 0.57984 0.29581 0.0
C460 C 0.82839 0.41188 0.72556 0.0
C461 C 0.85529 0.39022 0.72218 0.0
C462 C 0.92627 0.43808 0.70581 0.0
C463 C 0.89901 0.45947 0.70827 0.0
N464 N 0.82292 0.46584 0.71063 0.0
N465 N 0.92733 0.38117 0.70259 0.0
C466 C 0.84962 0.44603 0.71496 0.0
C467 C 0.90359 0.4029 0.7103 0.0
N468 N 0.78335 0.40038 0.74101 0.0
N469 N 0.97392 0.45154 0.69998 0.0
H470 H 0.91143 0.35532 0.70544 0.0
H471 H 0.96141 0.38829 0.69053 0.0
H472 H 0.9914 0.47709 0.69609 0.0
H473 H 0.99648 0.43786 0.70114 0.0
H474 H 0.76415 0.41597 0.74823 0.0
H475 H 0.76629 0.37568 0.74973 0.0
H476 H 0.78643 0.45659 0.71115 0.0
H477 H 0.83728 0.49108 0.70314 0.0
C478 C 0.38945 0.27052 0.43273 0.0
C479 C 0.38512 0.26362 0.39431 0.0
C480 C 0.39839 0.21049 0.40403 0.0
C481 C 0.40413 0.21811 0.44214 0.0
N482 N 0.42118 0.2605 0.4893 0.0
N483 N 0.39667 0.23112 0.34172 0.0
C484 C 0.40508 0.24985 0.45533 0.0
C485 C 0.39303 0.23479 0.37938 0.0
N486 N 0.37566 0.2954 0.44839 0.0
N487 N 0.39674 0.17968 0.3917 0.0
H488 H 0.39401 0.24882 0.32292 0.0
H489 H 0.40665 0.21222 0.32912 0.0
H490 H 0.40306 0.16209 0.4087 0.0
H491 H 0.38695 0.17101 0.36533 0.0
H492 H 0.37318 0.29884 0.47701 0.0
H493 H 0.36178 0.31033 0.43347 0.0
H494 H 0.42624 0.28461 0.49875 0.0
H495 H 0.43538 0.24702 0.50589 0.0
C496 C 0.38604 0.90661 0.85077 0.0
C497 C 0.34682 0.87875 0.84206 0.0
C498 C 0.34855 0.85121 0.90101 0.0
C499 C 0.38912 0.8783 0.90898 0.0
N500 N 0.43891 0.93524 0.89764 0.0
N501 N 0.28199 0.83017 0.863 0.0
C502 C 0.40513 0.90731 0.8859 0.0
C503 C 0.32512 0.85292 0.86871 0.0
N504 N 0.40666 0.93125 0.8247 0.0
N505 N 0.33414 0.82305 0.923 0.0
H506 H 0.26383 0.83115 0.83965 0.0
H507 H 0.26231 0.8125 0.88288 0.0
H508 H 0.34966 0.82112 0.94747 0.0
H509 H 0.30855 0.80088 0.91596 0.0
H510 H 0.43851 0.95025 0.82768 0.0
H511 H 0.39308 0.93177 0.79896 0.0
H512 H 0.44958 0.9582 0.8837 0.0
H513 H 0.45329 0.93612 0.92333 0.0
C514 C 0.80441 0.85569 0.42154 0.0
C515 C 0.83248 0.86312 0.38752 0.0
C516 C 0.85915 0.9228 0.40218 0.0
C517 C 0.83292 0.9153 0.43702 0.0
N518 N 0.78889 0.87404 0.48333 0.0
N519 N 0.89553 0.90221 0.35004 0.0
C520 C 0.80824 0.88151 0.44781 0.0
C521 C 0.86277 0.89624 0.37938 0.0
N522 N 0.77198 0.82456 0.4279 0.0
N523 N 0.87842 0.95519 0.3898 0.0
H524 H 0.89965 0.88316 0.33322 0.0
H525 H 0.92163 0.9253 0.34481 0.0
H526 H 0.87564 0.97543 0.40509 0.0
H527 H 0.89342 0.9618 0.36292 0.0
H528 H 0.74665 0.81891 0.45007 0.0
H529 H 0.76782 0.80489 0.40952 0.0
H530 H 0.77502 0.84975 0.49405 0.0
H531 H 0.79036 0.89228 0.50315 0.0
C532 C 0.71347 0.32031 0.91473 0.0
C533 C 0.70678 0.31875 0.8761 0.0
C534 C 0.63235 0.32894 0.88738 0.0
C535 C 0.63858 0.32989 0.92614 0.0
N536 N 0.6795 0.32043 0.97763 0.0
N537 N 0.65697 0.31519 0.82574 0.0
C538 C 0.67747 0.32365 0.94011 0.0
C539 C 0.66518 0.32101 0.86247 0.0
N540 N 0.75489 0.31968 0.92697 0.0
N541 N 0.59586 0.33669 0.87437 0.0
H542 H 0.68069 0.30978 0.80665 0.0
H543 H 0.62527 0.31302 0.81466 0.0
H544 H 0.57024 0.34159 0.8918 0.0
H545 H 0.59241 0.34039 0.84635 0.0
H546 H 0.76437 0.3247 0.95419 0.0
H547 H 0.78119 0.31591 0.90924 0.0
H548 H 0.70423 0.31235 0.98952 0.0
H549 H 0.65413 0.32339 0.99698 0.0
C550 C 0.34974 0.97895 0.62712 0.0
C551 C 0.33817 0.97758 0.66604 0.0
C552 C 0.35076 0.03767 0.66579 0.0
C553 C 0.36265 0.03894 0.62696 0.0
N554 N 0.3864 0.01356 0.57293 0.0
N555 N 0.33922 0.00666 0.72389 0.0
C556 C 0.36638 0.01044 0.60837 0.0
C557 C 0.34205 0.00729 0.68586 0.0
N558 N 0.34219 0.95011 0.6076 0.0
N559 N 0.34694 0.06536 0.68332 0.0
H560 H 0.33407 0.98501 0.73951 0.0
H561 H 0.34638 0.02802 0.74 0.0
H562 H 0.35571 0.08854 0.66999 0.0
H563 H 0.33264 0.06498 0.71043 0.0
H564 H 0.34502 0.94953 0.57866 0.0
H565 H 0.32918 0.92642 0.62002 0.0
H566 H 0.39547 0.99454 0.55969 0.0
H567 H 0.39808 0.03617 0.55809 0.0
C568 C 0.66732 0.8328 0.20258 0.0
C569 C 0.68858 0.8078 0.19918 0.0
C570 C 0.6642 0.7972 0.1354 0.0
C571 C 0.63823 0.81931 0.14055 0.0
N572 N 0.60884 0.85417 0.18147 0.0
N573 N 0.70247 0.76298 0.16447 0.0
C574 C 0.63799 0.83597 0.17485 0.0
C575 C 0.6858 0.78911 0.16612 0.0
N576 N 0.67699 0.85474 0.23137 0.0
N577 N 0.66976 0.78498 0.10087 0.0
H578 H 0.71857 0.75641 0.18642 0.0
H579 H 0.69691 0.74617 0.14265 0.0
H580 H 0.65519 0.79084 0.07757 0.0
H581 H 0.69225 0.77155 0.09457 0.0
H582 H 0.66659 0.87571 0.23292 0.0
H583 H 0.69956 0.85412 0.25176 0.0
H584 H 0.603 0.86326 0.20759 0.0
H585 H 0.58728 0.85784 0.16184 0.0
C586 C 0.82383 0.19543 0.67512 0.0
C587 C 0.77762 0.19568 0.6841 0.0
C588 C 0.74524 0.1417 0.65339 0.0
C589 C 0.79118 0.14042 0.64689 0.0
N590 N 0.87335 0.16252 0.65781 0.0
N591 N 0.69424 0.16527 0.68948 0.0
C592 C 0.83021 0.16618 0.65985 0.0
C593 C 0.73823 0.16774 0.67538 0.0
N594 N 0.86158 0.22373 0.67906 0.0
N595 N 0.7084 0.11862 0.63761 0.0
H596 H 0.68763 0.18305 0.70695 0.0
H597 H 0.66492 0.14397 0.68707 0.0
H598 H 0.71184 0.09868 0.62208 0.0
H599 H 0.67517 0.12071 0.63755 0.0
H600 H 0.89563 0.22605 0.66934 0.0
H601 H 0.85853 0.24612 0.68872 0.0
H602 H 0.90218 0.17878 0.67031 0.0
H603 H 0.87924 0.1415 0.64651 0.0
C604 C 0.47483 0.36755 0.21225 0.0
C605 C 0.43188 0.37372 0.21828 0.0
C606 C 0.42818 0.38083 0.15136 0.0
C607 C 0.47116 0.3746 0.14533 0.0
N608 N 0.541 0.37017 0.16923 0.0
N609 N 0.37176 0.39237 0.19522 0.0
C610 C 0.49629 0.37051 0.1756 0.0
C611 C 0.40997 0.38248 0.18831 0.0
N612 N 0.49439 0.35805 0.2414 0.0
N613 N 0.40392 0.38386 0.1217 0.0
H614 H 0.3559 0.39243 0.22176 0.0
H615 H 0.35754 0.40278 0.17509 0.0
H616 H 0.41722 0.38455 0.09423 0.0
H617 H 0.36958 0.38392 0.124 0.0
H618 H 0.52273 0.34947 0.23826 0.0
H619 H 0.4805 0.35694 0.26882 0.0
H620 H 0.56315 0.3709 0.19034 0.0
H621 H 0.55748 0.37216 0.14259 0.0
C622 C 0.80851 0.68277 0.73608 0.0
C623 C 0.80129 0.70113 0.70569 0.0
C624 C 0.84002 0.67193 0.66281 0.0
C625 C 0.85227 0.65687 0.69365 0.0
N626 N 0.85374 0.65111 0.76011 0.0
N627 N 0.81522 0.71656 0.64055 0.0
C628 C 0.83789 0.66303 0.73045 0.0
C629 C 0.81804 0.69643 0.66905 0.0
N630 N 0.7859 0.68321 0.77007 0.0
N631 N 0.849 0.6625 0.62757 0.0
H632 H 0.80013 0.73517 0.64405 0.0
H633 H 0.83137 0.71683 0.61411 0.0
H634 H 0.86534 0.64478 0.62214 0.0
H635 H 0.83669 0.66996 0.60405 0.0
H636 H 0.78588 0.6676 0.7922 0.0
H637 H 0.76328 0.69679 0.77518 0.0
H638 H 0.84914 0.65821 0.78741 0.0
H639 H 0.87469 0.63608 0.7573 0.0
C640 C 0.96363 0.37379 0.31545 0.0
C641 C 0.91568 0.35398 0.32263 0.0
C642 C 0.89653 0.40468 0.33715 0.0
C643 C 0.94472 0.42405 0.33153 0.0
N644 N 0.02515 0.42647 0.32489 0.0
N645 N 0.83835 0.34964 0.34826 0.0
C646 C 0.97858 0.40832 0.32392 0.0
C647 C 0.88262 0.36917 0.3359 0.0
N648 N 0.99441 0.36024 0.29824 0.0
N649 N 0.86398 0.42026 0.34244 0.0
H650 H 0.82729 0.3236 0.3484 0.0
H651 H 0.81407 0.3591 0.36151 0.0
H652 H 0.87318 0.44613 0.3448 0.0
H653 H 0.82798 0.40782 0.34224 0.0
H654 H 0.02839 0.37441 0.28858 0.0
H655 H 0.98491 0.33539 0.29016 0.0
H656 H 0.05152 0.41589 0.32249 0.0
H657 H 0.03696 0.4516 0.33205 0.0
C658 C 0.14426 0.45724 0.75359 0.0
C659 C 0.18693 0.46314 0.73165 0.0
C660 C 0.17465 0.51057 0.70113 0.0
C661 C 0.12909 0.50166 0.71923 0.0
N662 N 0.06703 0.46203 0.75763 0.0
N663 N 0.2375 0.49113 0.67855 0.0
C664 C 0.11283 0.47368 0.74402 0.0
C665 C 0.2008 0.48868 0.70376 0.0
N666 N 0.13459 0.43721 0.78466 0.0
N667 N 0.19371 0.54047 0.68249 0.0
H668 H 0.25629 0.47463 0.67817 0.0
H669 H 0.24594 0.50726 0.65554 0.0
H670 H 0.17634 0.55776 0.68097 0.0
H671 H 0.22856 0.54954 0.67195 0.0
H672 H 0.10614 0.43481 0.80359 0.0
H673 H 0.15764 0.42595 0.79385 0.0
H674 H 0.05237 0.43955 0.77243 0.0
H675 H 0.04249 0.47301 0.75123 0.0
C676 C 0.24518 0.6871 0.29318 0.0
C677 C 0.2356 0.71363 0.2755 0.0
C678 C 0.15161 0.68093 0.27978 0.0
C679 C 0.16208 0.65316 0.29315 0.0
N680 N 0.21897 0.62788 0.30806 0.0
N681 N 0.18063 0.734 0.24658 0.0
C682 C 0.20894 0.65568 0.29857 0.0
C683 C 0.18898 0.71018 0.26752 0.0
N684 N 0.28823 0.69235 0.3065 0.0
N685 N 0.10593 0.67939 0.27913 0.0
H686 H 0.20716 0.75537 0.23617 0.0
H687 H 0.14808 0.73114 0.23659 0.0
H688 H 0.07768 0.65813 0.28741 0.0
H689 H 0.09612 0.69998 0.27343 0.0
H690 H 0.29562 0.67497 0.32297 0.0
H691 H 0.31531 0.71533 0.30439 0.0
H692 H 0.25303 0.62735 0.30816 0.0
H693 H 0.1932 0.60455 0.31308 0.0
C694 C 0.80709 0.87951 0.63547 0.0
C695 C 0.78627 0.87776 0.67217 0.0
C696 C 0.78256 0.93405 0.66472 0.0
C697 C 0.79859 0.9344 0.62684 0.0
N698 N 0.82351 0.9072 0.57483 0.0
N699 N 0.74551 0.90044 0.71925 0.0
C700 C 0.81017 0.90702 0.61181 0.0
C701 C 0.77177 0.90428 0.68619 0.0
N702 N 0.82532 0.85551 0.62377 0.0
N703 N 0.77859 0.96242 0.68045 0.0
H704 H 0.7355 0.87869 0.73552 0.0
H705 H 0.72963 0.91747 0.72877 0.0
H706 H 0.78597 0.98475 0.66561 0.0
H707 H 0.77214 0.96469 0.70892 0.0
H708 H 0.8452 0.85697 0.59879 0.0
H709 H 0.82366 0.83514 0.64044 0.0
H710 H 0.82807 0.88674 0.56121 0.0
H711 H 0.82732 0.92733 0.55705 0.0
C712 C 0.75591 0.3402 0.13364 0.0
C713 C 0.74095 0.32912 0.17085 0.0
C714 C 0.66075 0.32602 0.15967 0.0
C715 C 0.67498 0.33456 0.12167 0.0
N716 N 0.73382 0.34362 0.0708 0.0
N717 N 0.67781 0.30539 0.21757 0.0
C718 C 0.72196 0.33988 0.10816 0.0
C719 C 0.69299 0.3204 0.18346 0.0
N720 N 0.80274 0.35234 0.12302 0.0
N721 N 0.61689 0.32426 0.17335 0.0
H722 H 0.70016 0.30046 0.23572 0.0
H723 H 0.64252 0.29507 0.22657 0.0
H724 H 0.59179 0.32738 0.15674 0.0
H725 H 0.60651 0.32224 0.2016 0.0
H726 H 0.81601 0.36414 0.09747 0.0
H727 H 0.82877 0.35341 0.14101 0.0
H728 H 0.76615 0.3439 0.05888 0.0
H729 H 0.70987 0.34342 0.05126 0.0
C730 C 0.40709 0.29631 0.69433 0.0
C731 C 0.36328 0.30133 0.70068 0.0
C732 C 0.3245 0.24992 0.66727 0.0
C733 C 0.36853 0.24524 0.66091 0.0
N734 N 0.4515 0.26265 0.66976 0.0
N735 N 0.27899 0.28022 0.69971 0.0
C736 C 0.40946 0.26778 0.67526 0.0
C737 C 0.32153 0.27737 0.68892 0.0
N738 N 0.44775 0.31876 0.70542 0.0
N739 N 0.28594 0.22869 0.65154 0.0
H740 H 0.27553 0.3 0.71555 0.0
H741 H 0.24693 0.2619 0.6955 0.0
H742 H 0.28636 0.20739 0.63714 0.0
H743 H 0.25414 0.23289 0.65101 0.0
H744 H 0.45011 0.34101 0.71894 0.0
H745 H 0.45011 0.34101 0.71894 0.0
H746 H 0.48247 0.27893 0.67966 0.0
H747 H 0.45523 0.24196 0.65592 0.0
C748 C 0.45426 0.84583 0.21359 0.0
C749 C 0.43196 0.869 0.22512 0.0
C750 C 0.42161 0.87996 0.16022 0.0
C751 C 0.45095 0.86137 0.14861 0.0
N752 N 0.49427 0.82544 0.16357 0.0
N753 N 0.3952 0.90905 0.21038 0.0
C754 C 0.46657 0.84363 0.17514 0.0
C755 C 0.4155 0.88616 0.19871 0.0
N756 N 0.46327 0.82584 0.2395 0.0
N757 N 0.39859 0.89079 0.13449 0.0
H758 H 0.38861 0.91326 0.23843 0.0
H759 H 0.38746 0.92522 0.19238 0.0
H760 H 0.4018 0.88615 0.10614 0.0
H761 H 0.37323 0.9017 0.14146 0.0
H762 H 0.4752 0.8061 0.23296 0.0
H763 H 0.4552 0.8272 0.26792 0.0
H764 H 0.51024 0.81411 0.18137 0.0
H765 H 0.50378 0.82319 0.1357 0.0
C766 C 0.84989 0.16524 0.41812 0.0
C767 C 0.86405 0.16062 0.38087 0.0
C768 C 0.85815 0.10306 0.39623 0.0
C769 C 0.84054 0.10696 0.43281 0.0
N770 N 0.80887 0.13952 0.47549 0.0
N771 N 0.87444 0.1238 0.33245 0.0
C772 C 0.83314 0.13735 0.44286 0.0
C773 C 0.86631 0.12915 0.36932 0.0
N774 N 0.85425 0.19661 0.43039 0.0
N775 N 0.86759 0.07456 0.38737 0.0
H776 H 0.88038 0.14224 0.31198 0.0
H777 H 0.87155 0.10044 0.3217 0.0
H778 H 0.85975 0.05426 0.40573 0.0
H779 H 0.88567 0.07177 0.36271 0.0
H780 H 0.84981 0.20207 0.45832 0.0
H781 H 0.86695 0.21786 0.41328 0.0
H782 H 0.79846 0.15994 0.48225 0.0
H783 H 0.79401 0.11959 0.4939 0.0
C784 C 0.37418 0.42479 0.87695 0.0
C785 C 0.33927 0.39761 0.8615 0.0
C786 C 0.34896 0.35924 0.90805 0.0
C787 C 0.38682 0.38583 0.92123 0.0
N788 N 0.42835 0.44482 0.92565 0.0
N789 N 0.28432 0.34143 0.86759 0.0
C790 C 0.39682 0.41905 0.90824 0.0
C791 C 0.3233 0.36567 0.87912 0.0
N792 N 0.38674 0.45571 0.8605 0.0
N793 N 0.33936 0.32761 0.92195 0.0
H794 H 0.26527 0.34524 0.84608 0.0
H795 H 0.26843 0.31846 0.88108 0.0
H796 H 0.35622 0.32243 0.94426 0.0
H797 H 0.31619 0.30628 0.91073 0.0
H798 H 0.41542 0.47605 0.86728 0.0
H799 H 0.36853 0.46079 0.83902 0.0
H800 H 0.43494 0.46993 0.91957 0.0
H801 H 0.44586 0.44114 0.9483 0.0
C802 C 0.42462 0.00721 0.38187 0.0
C803 C 0.41014 0.97433 0.39717 0.0
C804 C 0.37548 0.9925 0.45321 0.0
C805 C 0.39104 0.02552 0.43825 0.0
N806 N 0.42069 0.06332 0.38604 0.0
N807 N 0.36569 0.93399 0.44441 0.0
C808 C 0.41271 0.03256 0.4018 0.0
C809 C 0.38322 0.9664 0.43176 0.0
N810 N 0.45019 0.01421 0.34842 0.0
N811 N 0.35552 0.9865 0.48875 0.0
H812 H 0.37386 0.91447 0.43153 0.0
H813 H 0.34087 0.92582 0.4667 0.0
H814 H 0.34752 0.00455 0.50482 0.0
H815 H 0.34883 0.96417 0.50332 0.0
H816 H 0.46698 0.03827 0.33778 0.0
H817 H 0.45627 0.99582 0.33161 0.0
H818 H 0.43244 0.06947 0.35841 0.0
H819 H 0.41186 0.08222 0.39992 0.0
C820 C 0.70081 0.82156 0.90376 0.0
C821 C 0.68609 0.82123 0.86706 0.0
C822 C 0.61102 0.8249 0.89161 0.0
C823 C 0.6252 0.82474 0.92808 0.0
N824 N 0.67891 0.81698 0.97024 0.0
N825 N 0.62366 0.81399 0.82626 0.0
C826 C 0.66867 0.82103 0.93461 0.0
C827 C 0.63994 0.82026 0.86101 0.0
N828 N 0.74609 0.82412 0.90901 0.0
N829 N 0.57041 0.83111 0.88726 0.0
H830 H 0.64398 0.80996 0.80344 0.0
H831 H 0.58883 0.80942 0.82064 0.0
H832 H 0.55822 0.83448 0.86182 0.0
H833 H 0.55822 0.83448 0.86182 0.0
H834 H 0.76054 0.82817 0.93477 0.0
H835 H 0.77033 0.82415 0.88712 0.0
H836 H 0.70808 0.81109 0.97696 0.0
H837 H 0.65606 0.817 0.99319 0.0
loop_
_geom_bond_atom_site_label_1
_geom_bond_atom_site_label_2
_geom_bond_distance
_geom_bond_site_symmetry_2
_ccdc_geom_bond_type
O0 Cd1 2.300 . S
O0 C7 1.275 . S
Cd1 O0 2.300 . S
Cd1 O9 2.381 . S
Cd1 O10 2.378 . S
O2 Cd3 2.385 . S
O2 C7 1.255 . S
Cd3 O2 2.385 . S
Cd3 O4 2.317 . S
O4 Cd3 2.317 . S
O4 C5 1.232 . S
C5 O4 1.232 . S
C5 O6 1.218 . S
O6 C5 1.218 . S
C7 O0 1.275 . S
C7 O2 1.255 . S
C8 O9 1.258 . S
C8 O10 1.256 . S
O9 Cd1 2.381 . S
O9 C8 1.258 . S
O10 Cd1 2.378 . S
O10 C8 1.256 . S
O11 Cd12 2.300 . S
O11 C18 1.275 . S
Cd12 O11 2.300 . S
Cd12 O20 2.381 . S
Cd12 O21 2.378 . S
O13 Cd14 2.385 . S
O13 C18 1.255 . S
Cd14 O13 2.385 . S
Cd14 O15 2.317 . S
O15 Cd14 2.317 . S
O15 C16 1.232 . S
C16 O15 1.232 . S
C16 O17 1.218 . S
O17 C16 1.218 . S
C18 O11 1.275 . S
C18 O13 1.255 . S
C19 O20 1.258 . S
C19 O21 1.256 . S
O20 Cd12 2.381 . S
O20 C19 1.258 . S
O21 Cd12 2.378 . S
O21 C19 1.256 . S
O22 Cd23 2.300 . S
O22 C29 1.275 . S
Cd23 O22 2.300 . S
Cd23 O31 2.381 . S
Cd23 O32 2.378 . S
O24 Cd25 2.385 . S
O24 C29 1.255 . S
Cd25 O24 2.385 . S
Cd25 O26 2.317 . S
O26 Cd25 2.317 . S
O26 C27 1.232 . S
C27 O26 1.232 . S
C27 O28 1.218 . S
O28 C27 1.218 . S
C29 O22 1.275 . S
C29 O24 1.255 . S
C30 O31 1.258 . S
C30 O32 1.256 . S
O31 Cd23 2.381 . S
O31 C30 1.258 . S
O32 Cd23 2.378 . S
O32 C30 1.256 . S
O33 Cd34 2.300 . S
O33 C40 1.275 . S
Cd34 O33 2.300 . S
Cd34 O42 2.381 . S
Cd34 O43 2.378 . S
O35 Cd36 2.385 . S
O35 C40 1.255 . S
Cd36 O35 2.385 . S
Cd36 O37 2.317 . S
O37 Cd36 2.317 . S
O37 C38 1.232 . S
C38 O37 1.232 . S
C38 O39 1.218 . S
O39 C38 1.218 . S
C40 O33 1.275 . S
C40 O35 1.255 . S
C41 O42 1.258 . S
C41 O43 1.256 . S
O42 Cd34 2.381 . S
O42 C41 1.258 . S
O43 Cd34 2.378 . S
O43 C41 1.256 . S
O44 Cd45 2.300 . S
O44 C51 1.275 . S
Cd45 O44 2.300 . S
Cd45 O53 2.381 . S
Cd45 O54 2.378 . S
O46 Cd47 2.385 . S
O46 C51 1.255 . S
Cd47 O46 2.385 . S
Cd47 O48 2.317 . S
O48 Cd47 2.317 . S
O48 C49 1.232 . S
C49 O48 1.232 . S
C49 O50 1.218 . S
O50 C49 1.218 . S
C51 O44 1.275 . S
C51 O46 1.255 . S
C52 O53 1.258 . S
C52 O54 1.256 . S
O53 Cd45 2.381 . S
O53 C52 1.258 . S
O54 Cd45 2.378 . S
O54 C52 1.256 . S
O55 Cd56 2.300 . S
O55 C62 1.275 . S
Cd56 O55 2.300 . S
Cd56 O64 2.381 . S
Cd56 O65 2.378 . S
O57 Cd58 2.385 . S
O57 C62 1.255 . S
Cd58 O57 2.385 . S
Cd58 O59 2.317 . S
O59 Cd58 2.317 . S
O59 C60 1.232 . S
C60 O59 1.232 . S
C60 O61 1.218 . S
O61 C60 1.218 . S
C62 O55 1.275 . S
C62 O57 1.255 . S
C63 O64 1.258 . S
C63 O65 1.256 . S
O64 Cd56 2.381 . S
O64 C63 1.258 . S
O65 Cd56 2.378 . S
O65 C63 1.256 . S
O66 Cd67 2.300 . S
O66 C73 1.275 . S
Cd67 O66 2.300 . S
Cd67 O75 2.381 . S
Cd67 O76 2.378 . S
O68 Cd69 2.385 . S
O68 C73 1.255 . S
Cd69 O68 2.385 . S
Cd69 O70 2.317 . S
O70 Cd69 2.317 . S
O70 C71 1.232 . S
C71 O70 1.232 . S
C71 O72 1.218 . S
O72 C71 1.218 . S
C73 O66 1.275 . S
C73 O68 1.255 . S
C74 O75 1.258 . S
C74 O76 1.256 . S
O75 Cd67 2.381 . S
O75 C74 1.258 . S
O76 Cd67 2.378 . S
O76 C74 1.256 . S
O77 Cd78 2.300 . S
O77 C84 1.275 . S
Cd78 O77 2.300 . S
Cd78 O86 2.381 . S
Cd78 O87 2.378 . S
O79 Cd80 2.385 . S
O79 C84 1.255 . S
Cd80 O79 2.385 . S
Cd80 O81 2.317 . S
O81 Cd80 2.317 . S
O81 C82 1.232 . S
C82 O81 1.232 . S
C82 O83 1.218 . S
O83 C82 1.218 . S
C84 O77 1.275 . S
C84 O79 1.255 . S
C85 O86 1.258 . S
C85 O87 1.256 . S
O86 Cd78 2.381 . S
O86 C85 1.258 . S
O87 Cd78 2.378 . S
O87 C85 1.256 . S
C88 C89 1.443 . S
C88 N92 1.376 . S
C88 C126 1.389 . S
C89 C88 1.443 . S
C89 C90 1.340 . S
C89 H129 0.951 . S
C90 C89 1.340 . S
C90 C91 1.439 . S
C90 H130 0.950 . S
C91 C90 1.439 . S
C91 N92 1.374 . S
C91 C125 1.395 . S
N92 C88 1.376 . S
N92 C91 1.374 . S
N92 Co93 2.008 . S
Co93 N92 2.008 . S
Co93 N94 1.995 . S
Co93 N99 2.008 . S
Co93 N104 1.995 . S
Co93 N109 2.282 . S
Co93 N115 2.282 . S
N94 Co93 1.995 . S
N94 C95 1.376 . S
N94 C98 1.383 1_455 S
C95 N94 1.376 . S
C95 C96 1.446 1_455 S
C95 C125 1.391 . S
C96 C95 1.446 1_655 S
C96 C97 1.339 . S
C96 H131 0.949 . S
C97 C96 1.339 . S
C97 C98 1.439 . S
C97 H132 0.950 . S
C98 N94 1.383 1_655 S
C98 C97 1.439 . S
C98 C127 1.392 . S
N99 Co93 2.008 . S
N99 C100 1.376 . S
N99 C103 1.374 . S
C100 N99 1.376 . S
C100 C101 1.443 . S
C100 C127 1.389 1_455 S
C101 C100 1.443 . S
C101 C102 1.340 . S
C101 H133 0.951 1_455 S
C102 C101 1.340 . S
C102 C103 1.439 . S
C102 H134 0.950 . S
C103 N99 1.374 . S
C103 C102 1.439 . S
C103 C128 1.395 . S
N104 Co93 1.995 . S
N104 C105 1.376 . S
N104 C108 1.383 . S
C105 N104 1.376 . S
C105 C106 1.446 . S
C105 C128 1.391 . S
C106 C105 1.446 . S
C106 C107 1.339 . S
C106 H135 0.949 . S
C107 C106 1.339 . S
C107 C108 1.439 . S
C107 H136 0.950 . S
C108 N104 1.383 . S
C108 C107 1.439 . S
C108 C126 1.392 . S
N109 Co93 2.282 . S
N109 C112 1.332 . S
N109 C114 1.332 . S
C110 C111 1.386 . S
C110 C113 1.388 . S
C111 C110 1.386 . S
C111 C112 1.382 . S
C111 H137 0.950 . S
C112 N109 1.332 . S
C112 C111 1.382 . S
C112 H123 0.952 . S
C113 C110 1.388 . S
C113 C114 1.382 . S
C113 H138 0.950 . S
C114 N109 1.332 . S
C114 C113 1.382 . S
C114 H124 0.948 . S
N115 Co93 2.282 . S
N115 C119 1.332 1_455 S
N115 C120 1.332 . S
C116 C117 1.388 . S
C116 C120 1.382 1_655 S
C116 H139 0.950 . S
C117 C116 1.388 . S
C117 C118 1.386 . S
C118 C117 1.386 . S
C118 C119 1.382 . S
C118 H140 0.950 . S
C119 N115 1.332 1_655 S
C119 C118 1.382 . S
C119 H121 0.952 . S
C120 N115 1.332 . S
C120 C116 1.382 1_455 S
C120 H122 0.948 . S
H121 C119 0.952 . S
H122 C120 0.948 . S
H123 C112 0.952 . S
H124 C114 0.948 . S
C125 C91 1.395 . S
C125 C95 1.391 . S
C126 C88 1.389 . S
C126 C108 1.392 . S
C127 C98 1.392 . S
C127 C100 1.389 1_655 S
C128 C103 1.395 . S
C128 C105 1.391 . S
H129 C89 0.951 . S
H130 C90 0.950 . S
H131 C96 0.949 . S
H132 C97 0.950 . S
H133 C101 0.951 1_655 S
H134 C102 0.950 . S
H135 C106 0.949 . S
H136 C107 0.950 . S
H137 C111 0.950 . S
H138 C113 0.950 . S
H139 C116 0.950 . S
H140 C118 0.950 . S
C141 C142 1.443 . S
C141 N145 1.376 . S
C141 C179 1.389 . S
C142 C141 1.443 . S
C142 C143 1.340 . S
C142 H182 0.951 . S
C143 C142 1.340 . S
C143 C144 1.439 . S
C143 H183 0.950 . S
C144 C143 1.439 . S
C144 N145 1.374 . S
C144 C178 1.395 1_455 S
N145 C141 1.376 . S
N145 C144 1.374 . S
N145 Co146 2.008 . S
Co146 N145 2.008 . S
Co146 N147 1.995 1_455 S
Co146 N152 2.008 1_455 S
Co146 N157 1.995 . S
Co146 N162 2.282 . S
Co146 N168 2.282 1_455 S
N147 Co146 1.995 1_655 S
N147 C148 1.376 . S
N147 C151 1.383 . S
C148 N147 1.376 . S
C148 C149 1.446 . S
C148 C178 1.391 . S
C149 C148 1.446 . S
C149 C150 1.339 . S
C149 H184 0.949 . S
C150 C149 1.339 . S
C150 C151 1.439 . S
C150 H185 0.950 . S
C151 N147 1.383 . S
C151 C150 1.439 . S
C151 C180 1.392 . S
N152 Co146 2.008 1_655 S
N152 C153 1.376 . S
N152 C156 1.373 1_655 S
C153 N152 1.376 . S
C153 C154 1.443 . S
C153 C180 1.389 . S
C154 C153 1.443 . S
C154 C155 1.340 . S
C154 H186 0.951 . S
C155 C154 1.340 . S
C155 C156 1.439 1_655 S
C155 H187 0.950 . S
C156 N152 1.373 1_455 S
C156 C155 1.439 1_455 S
C156 C181 1.396 . S
N157 Co146 1.995 . S
N157 C158 1.376 . S
N157 C161 1.383 . S
C158 N157 1.376 . S
C158 C159 1.446 . S
C158 C181 1.391 . S
C159 C158 1.446 . S
C159 C160 1.339 . S
C159 H188 0.949 . S
C160 C159 1.339 . S
C160 C161 1.439 . S
C160 H189 0.950 . S
C161 N157 1.383 . S
C161 C160 1.439 . S
C161 C179 1.392 . S
N162 Co146 2.282 . S
N162 C165 1.332 . S
N162 C167 1.332 . S
C163 C164 1.386 . S
C163 C166 1.388 . S
C164 C163 1.386 . S
C164 C165 1.382 . S
C164 H190 0.950 . S
C165 N162 1.332 . S
C165 C164 1.382 . S
C165 H176 0.952 . S
C166 C163 1.388 . S
C166 C167 1.382 . S
C166 H191 0.950 . S
C167 N162 1.332 . S
C167 C166 1.382 . S
C167 H177 0.948 . S
N168 Co146 2.282 1_655 S
N168 C172 1.332 . S
N168 C173 1.332 . S
C169 C170 1.388 . S
C169 C173 1.382 . S
C169 H192 0.950 . S
C170 C169 1.388 . S
C170 C171 1.386 . S
C171 C170 1.386 . S
C171 C172 1.382 . S
C171 H193 0.950 . S
C172 N168 1.332 . S
C172 C171 1.382 . S
C172 H174 0.952 . S
C173 N168 1.332 . S
C173 C169 1.382 . S
C173 H175 0.948 . S
H174 C172 0.952 . S
H175 C173 0.948 . S
H176 C165 0.952 . S
H177 C167 0.948 . S
C178 C144 1.395 1_655 S
C178 C148 1.391 . S
C179 C141 1.389 . S
C179 C161 1.392 . S
C180 C151 1.392 . S
C180 C153 1.389 . S
C181 C156 1.396 . S
C181 C158 1.391 . S
H182 C142 0.951 . S
H183 C143 0.950 . S
H184 C149 0.949 . S
H185 C150 0.950 . S
H186 C154 0.951 . S
H187 C155 0.950 . S
H188 C159 0.949 . S
H189 C160 0.950 . S
H190 C164 0.950 . S
H191 C166 0.950 . S
H192 C169 0.950 . S
H193 C171 0.950 . S
C194 C195 1.443 . S
C194 N198 1.376 . S
C194 C232 1.389 . S
C195 C194 1.443 . S
C195 C196 1.340 . S
C195 H235 0.951 . S
C196 C195 1.340 . S
C196 C197 1.439 . S
C196 H236 0.950 . S
C197 C196 1.439 . S
C197 N198 1.374 . S
C197 C231 1.395 . S
N198 C194 1.376 . S
N198 C197 1.374 . S
N198 Co199 2.008 . S
Co199 N198 2.008 . S
Co199 N200 1.995 . S
Co199 N205 2.008 . S
Co199 N210 1.995 . S
Co199 N215 2.282 . S
Co199 N221 2.282 . S
N200 Co199 1.995 . S
N200 C201 1.376 . S
N200 C204 1.383 . S
C201 N200 1.376 . S
C201 C202 1.446 . S
C201 C231 1.391 . S
C202 C201 1.446 . S
C202 C203 1.339 . S
C202 H237 0.949 . S
C203 C202 1.339 . S
C203 C204 1.439 . S
C203 H238 0.950 . S
C204 N200 1.383 . S
C204 C203 1.439 . S
C204 C233 1.392 . S
N205 Co199 2.008 . S
N205 C206 1.376 . S
N205 C209 1.374 . S
C206 N205 1.376 . S
C206 C207 1.443 . S
C206 C233 1.389 . S
C207 C206 1.443 . S
C207 C208 1.340 . S
C207 H239 0.951 . S
C208 C207 1.340 . S
C208 C209 1.439 . S
C208 H240 0.950 . S
C209 N205 1.374 . S
C209 C208 1.439 . S
C209 C234 1.395 . S
N210 Co199 1.995 . S
N210 C211 1.376 . S
N210 C214 1.383 . S
C211 N210 1.376 . S
C211 C212 1.446 . S
C211 C234 1.391 . S
C212 C211 1.446 . S
C212 C213 1.339 . S
C212 H241 0.949 . S
C213 C212 1.339 . S
C213 C214 1.439 . S
C213 H242 0.950 . S
C214 N210 1.383 . S
C214 C213 1.439 . S
C214 C232 1.392 . S
N215 Co199 2.282 . S
N215 C218 1.332 . S
N215 C220 1.332 . S
C216 C217 1.386 . S
C216 C219 1.388 . S
C217 C216 1.386 . S
C217 C218 1.382 . S
C217 H243 0.950 . S
C218 N215 1.332 . S
C218 C217 1.382 . S
C218 H229 0.952 . S
C219 C216 1.388 . S
C219 C220 1.382 . S
C219 H244 0.950 . S
C220 N215 1.332 . S
C220 C219 1.382 . S
C220 H230 0.948 . S
N221 Co199 2.282 . S
N221 C225 1.332 . S
N221 C226 1.332 . S
C222 C223 1.388 . S
C222 C226 1.382 . S
C222 H245 0.950 . S
C223 C222 1.388 . S
C223 C224 1.386 . S
C224 C223 1.386 . S
C224 C225 1.382 . S
C224 H246 0.950 . S
C225 N221 1.332 . S
C225 C224 1.382 . S
C225 H227 0.952 . S
C226 N221 1.332 . S
C226 C222 1.382 . S
C226 H228 0.948 . S
H227 C225 0.952 . S
H228 C226 0.948 . S
H229 C218 0.952 . S
H230 C220 0.948 . S
C231 C197 1.395 . S
C231 C201 1.391 . S
C232 C194 1.389 . S
C232 C214 1.392 . S
C233 C204 1.392 . S
C233 C206 1.389 . S
C234 C209 1.395 . S
C234 C211 1.391 . S
H235 C195 0.951 . S
H236 C196 0.950 . S
H237 C202 0.949 . S
H238 C203 0.950 . S
H239 C207 0.951 . S
H240 C208 0.950 . S
H241 C212 0.949 . S
H242 C213 0.950 . S
H243 C217 0.950 . S
H244 C219 0.950 . S
H245 C222 0.950 . S
H246 C224 0.950 . S
C247 C248 1.443 . S
C247 N251 1.376 . S
C247 C285 1.389 . S
C248 C247 1.443 . S
C248 C249 1.340 . S
C248 H288 0.951 . S
C249 C248 1.340 . S
C249 C250 1.439 . S
C249 H289 0.950 . S
C250 C249 1.439 . S
C250 N251 1.374 . S
C250 C284 1.395 . S
N251 C247 1.376 . S
N251 C250 1.374 . S
N251 Co252 2.008 . S
Co252 N251 2.008 . S
Co252 N253 1.995 1_554 S
Co252 N258 2.008 1_554 S
Co252 N263 1.995 . S
Co252 N268 2.282 1_554 S
Co252 N274 2.282 . S
N253 Co252 1.995 1_556 S
N253 C254 1.376 . S
N253 C257 1.383 . S
C254 N253 1.376 . S
C254 C255 1.446 . S
C254 C284 1.391 1_556 S
C255 C254 1.446 . S
C255 C256 1.339 . S
C255 H290 0.949 . S
C256 C255 1.339 . S
C256 C257 1.439 . S
C256 H291 0.950 . S
C257 N253 1.383 . S
C257 C256 1.439 . S
C257 C286 1.392 . S
N258 Co252 2.008 1_556 S
N258 C259 1.376 . S
N258 C262 1.374 . S
C259 N258 1.376 . S
C259 C260 1.443 . S
C259 C286 1.389 . S
C260 C259 1.443 . S
C260 C261 1.340 . S
C260 H292 0.951 . S
C261 C260 1.340 . S
C261 C262 1.439 . S
C261 H293 0.950 . S
C262 N258 1.374 . S
C262 C261 1.439 . S
C262 C287 1.395 1_556 S
N263 Co252 1.995 . S
N263 C264 1.376 . S
N263 C267 1.383 . S
C264 N263 1.376 . S
C264 C265 1.446 . S
C264 C287 1.391 . S
C265 C264 1.446 . S
C265 C266 1.339 . S
C265 H294 0.949 . S
C266 C265 1.339 . S
C266 C267 1.439 . S
C266 H295 0.950 . S
C267 N263 1.383 . S
C267 C266 1.439 . S
C267 C285 1.392 . S
N268 Co252 2.282 1_556 S
N268 C271 1.332 . S
N268 C273 1.332 . S
C269 C270 1.386 . S
C269 C272 1.388 . S
C270 C269 1.386 . S
C270 C271 1.382 . S
C270 H296 0.950 . S
C271 N268 1.332 . S
C271 C270 1.382 . S
C271 H282 0.952 . S
C272 C269 1.388 . S
C272 C273 1.382 . S
C272 H297 0.950 . S
C273 N268 1.332 . S
C273 C272 1.382 . S
C273 H283 0.948 . S
N274 Co252 2.282 . S
N274 C278 1.332 . S
N274 C279 1.332 . S
C275 C276 1.388 . S
C275 C279 1.382 . S
C275 H298 0.950 . S
C276 C275 1.388 . S
C276 C277 1.386 . S
C277 C276 1.386 . S
C277 C278 1.382 . S
C277 H299 0.950 . S
C278 N274 1.332 . S
C278 C277 1.382 . S
C278 H280 0.952 . S
C279 N274 1.332 . S
C279 C275 1.382 . S
C279 H281 0.948 . S
H280 C278 0.952 . S
H281 C279 0.948 . S
H282 C271 0.952 . S
H283 C273 0.948 . S
C284 C250 1.395 . S
C284 C254 1.391 1_554 S
C285 C247 1.389 . S
C285 C267 1.392 . S
C286 C257 1.392 . S
C286 C259 1.389 . S
C287 C262 1.395 1_554 S
C287 C264 1.391 . S
H288 C248 0.951 . S
H289 C249 0.950 . S
H290 C255 0.949 . S
H291 C256 0.950 . S
H292 C260 0.951 . S
H293 C261 0.950 . S
H294 C265 0.949 . S
H295 C266 0.950 . S
H296 C270 0.950 . S
H297 C272 0.950 . S
H298 C275 0.950 . S
H299 C277 0.950 . S
C300 C301 1.443 . S
C300 N304 1.376 1_565 S
C300 C338 1.389 . S
C301 C300 1.443 . S
C301 C302 1.340 1_565 S
C301 H341 0.951 . S
C302 C301 1.340 1_545 S
C302 C303 1.439 . S
C302 H342 0.950 . S
C303 C302 1.439 . S
C303 N304 1.374 . S
C303 C337 1.395 . S
N304 C300 1.376 1_545 S
N304 C303 1.374 . S
N304 Co305 2.008 . S
Co305 N304 2.008 . S
Co305 N306 1.995 . S
Co305 N311 2.008 . S
Co305 N316 1.995 1_545 S
Co305 N321 2.282 . S
Co305 N327 2.282 1_545 S
N306 Co305 1.995 . S
N306 C307 1.376 . S
N306 C310 1.383 . S
C307 N306 1.376 . S
C307 C308 1.446 . S
C307 C337 1.391 . S
C308 C307 1.446 . S
C308 C309 1.339 . S
C308 H343 0.949 . S
C309 C308 1.339 . S
C309 C310 1.439 . S
C309 H344 0.950 . S
C310 N306 1.383 . S
C310 C309 1.439 . S
C310 C339 1.392 . S
N311 Co305 2.008 . S
N311 C312 1.376 . S
N311 C315 1.374 . S
C312 N311 1.376 . S
C312 C313 1.443 . S
C312 C339 1.389 . S
C313 C312 1.443 . S
C313 C314 1.340 . S
C313 H345 0.951 . S
C314 C313 1.340 . S
C314 C315 1.439 . S
C314 H346 0.950 . S
C315 N311 1.374 . S
C315 C314 1.439 . S
C315 C340 1.395 . S
N316 Co305 1.995 1_565 S
N316 C317 1.376 . S
N316 C320 1.383 . S
C317 N316 1.376 . S
C317 C318 1.446 . S
C317 C340 1.391 1_565 S
C318 C317 1.446 . S
C318 C319 1.339 . S
C318 H347 0.949 . S
C319 C318 1.339 . S
C319 C320 1.439 . S
C319 H348 0.950 . S
C320 N316 1.383 . S
C320 C319 1.439 . S
C320 C338 1.392 . S
N321 Co305 2.282 . S
N321 C324 1.332 . S
N321 C326 1.332 . S
C322 C323 1.386 . S
C322 C325 1.388 . S
C323 C322 1.386 . S
C323 C324 1.382 . S
C323 H349 0.950 . S
C324 N321 1.332 . S
C324 C323 1.382 . S
C324 H335 0.952 . S
C325 C322 1.388 . S
C325 C326 1.382 . S
C325 H350 0.950 . S
C326 N321 1.332 . S
C326 C325 1.382 . S
C326 H336 0.948 . S
N327 Co305 2.282 1_565 S
N327 C331 1.332 . S
N327 C332 1.332 . S
C328 C329 1.388 . S
C328 C332 1.382 . S
C328 H351 0.950 . S
C329 C328 1.388 . S
C329 C330 1.386 . S
C330 C329 1.386 . S
C330 C331 1.382 . S
C330 H352 0.950 . S
C331 N327 1.332 . S
C331 C330 1.382 . S
C331 H333 0.952 1_565 S
C332 N327 1.332 . S
C332 C328 1.382 . S
C332 H334 0.948 . S
H333 C331 0.952 1_545 S
H334 C332 0.948 . S
H335 C324 0.952 . S
H336 C326 0.948 . S
C337 C303 1.395 . S
C337 C307 1.391 . S
C338 C300 1.389 . S
C338 C320 1.392 . S
C339 C310 1.392 . S
C339 C312 1.389 . S
C340 C315 1.395 . S
C340 C317 1.391 1_545 S
H341 C301 0.951 . S
H342 C302 0.950 . S
H343 C308 0.949 . S
H344 C309 0.950 . S
H345 C313 0.951 . S
H346 C314 0.950 . S
H347 C318 0.949 . S
H348 C319 0.950 . S
H349 C323 0.950 . S
H350 C325 0.950 . S
H351 C328 0.950 . S
H352 C330 0.950 . S
C353 C354 1.443 . S
C353 N357 1.376 . S
C353 C391 1.389 . S
C354 C353 1.443 . S
C354 C355 1.340 . S
C354 H394 0.951 . S
C355 C354 1.340 . S
C355 C356 1.439 . S
C355 H395 0.950 . S
C356 C355 1.439 . S
C356 N357 1.374 . S
C356 C390 1.395 . S
N357 C353 1.376 . S
N357 C356 1.374 . S
N357 Co358 2.008 . S
Co358 N357 2.008 . S
Co358 N359 1.995 . S
Co358 N364 2.008 . S
Co358 N369 1.995 . S
Co358 N374 2.282 1_554 S
Co358 N380 2.282 . S
N359 Co358 1.995 . S
N359 C360 1.376 . S
N359 C363 1.383 1_554 S
C360 N359 1.376 . S
C360 C361 1.446 1_554 S
C360 C390 1.391 . S
C361 C360 1.446 1_556 S
C361 C362 1.339 . S
C361 H396 0.949 . S
C362 C361 1.339 . S
C362 C363 1.439 . S
C362 H397 0.950 . S
C363 N359 1.383 1_556 S
C363 C362 1.439 . S
C363 C392 1.392 . S
N364 Co358 2.008 . S
N364 C365 1.376 1_554 S
N364 C368 1.374 . S
C365 N364 1.376 1_556 S
C365 C366 1.443 . S
C365 C392 1.389 . S
C366 C365 1.443 . S
C366 C367 1.340 . S
C366 H398 0.951 . S
C367 C366 1.340 . S
C367 C368 1.439 1_556 S
C367 H399 0.950 . S
C368 N364 1.374 . S
C368 C367 1.439 1_554 S
C368 C393 1.395 . S
N369 Co358 1.995 . S
N369 C370 1.376 . S
N369 C373 1.383 . S
C370 N369 1.376 . S
C370 C371 1.446 . S
C370 C393 1.391 . S
C371 C370 1.446 . S
C371 C372 1.339 . S
C371 H400 0.949 . S
C372 C371 1.339 . S
C372 C373 1.439 . S
C372 H401 0.950 . S
C373 N369 1.383 . S
C373 C372 1.439 . S
C373 C391 1.392 . S
N374 Co358 2.282 1_556 S
N374 C377 1.332 . S
N374 C379 1.332 . S
C375 C376 1.386 . S
C375 C378 1.388 . S
C376 C375 1.386 . S
C376 C377 1.382 . S
C376 H402 0.950 . S
C377 N374 1.332 . S
C377 C376 1.382 . S
C377 H388 0.952 1_556 S
C378 C375 1.388 . S
C378 C379 1.382 . S
C378 H403 0.950 . S
C379 N374 1.332 . S
C379 C378 1.382 . S
C379 H389 0.948 . S
N380 Co358 2.282 . S
N380 C384 1.332 . S
N380 C385 1.332 . S
C381 C382 1.388 . S
C381 C385 1.382 . S
C381 H404 0.950 . S
C382 C381 1.388 . S
C382 C383 1.386 . S
C383 C382 1.386 . S
C383 C384 1.382 . S
C383 H405 0.950 . S
C384 N380 1.332 . S
C384 C383 1.382 . S
C384 H386 0.952 . S
C385 N380 1.332 . S
C385 C381 1.382 . S
C385 H387 0.948 . S
H386 C384 0.952 . S
H387 C385 0.948 . S
H388 C377 0.952 1_554 S
H389 C379 0.948 . S
C390 C356 1.395 . S
C390 C360 1.391 . S
C391 C353 1.389 . S
C391 C373 1.392 . S
C392 C363 1.392 . S
C392 C365 1.389 . S
C393 C368 1.395 . S
C393 C370 1.391 . S
H394 C354 0.951 . S
H395 C355 0.950 . S
H396 C361 0.949 . S
H397 C362 0.950 . S
H398 C366 0.951 . S
H399 C367 0.950 . S
H400 C371 0.949 . S
H401 C372 0.950 . S
H402 C376 0.950 . S
H403 C378 0.950 . S
H404 C381 0.950 . S
H405 C383 0.950 . S
C406 C407 1.363 . S
C406 C412 1.379 . S
C406 N414 1.356 . S
C407 C406 1.363 . S
C407 C413 1.363 . S
C408 C409 1.363 . S
C408 C413 1.379 . S
C408 N415 1.356 . S
C409 C408 1.363 . S
C409 C412 1.363 . S
N410 C412 1.356 . S
N410 H422 0.984 . S
N410 H423 0.985 . S
N411 C413 1.356 . S
N411 H416 0.984 . S
N411 H417 0.985 . S
C412 C406 1.379 . S
C412 C409 1.363 . S
C412 N410 1.356 . S
C413 C407 1.363 . S
C413 C408 1.379 . S
C413 N411 1.356 . S
N414 C406 1.356 . S
N414 H420 0.984 . S
N414 H421 0.984 . S
N415 C408 1.356 . S
N415 H418 0.984 . S
N415 H419 0.985 . S
H416 N411 0.984 . S
H417 N411 0.985 . S
H418 N415 0.984 . S
H419 N415 0.985 . S
H420 N414 0.984 . S
H421 N414 0.984 . S
H422 N410 0.984 . S
H423 N410 0.985 . S
C424 C425 1.363 . S
C424 C430 1.379 . S
C424 N432 1.356 . S
C425 C424 1.363 . S
C425 C431 1.363 . S
C426 C427 1.363 . S
C426 C431 1.379 . S
C426 N433 1.356 . S
C427 C426 1.363 . S
C427 C430 1.363 . S
N428 C430 1.356 . S
N428 H440 0.984 . S
N428 H441 0.985 . S
N429 C431 1.356 . S
N429 H434 0.984 . S
N429 H435 0.985 . S
C430 C424 1.379 . S
C430 C427 1.363 . S
C430 N428 1.356 . S
C431 C425 1.363 . S
C431 C426 1.379 . S
C431 N429 1.356 . S
N432 C424 1.356 . S
N432 H438 0.984 . S
N432 H439 0.984 . S
N433 C426 1.356 . S
N433 H436 0.984 . S
N433 H437 0.985 . S
H434 N429 0.984 . S
H435 N429 0.985 . S
H436 N433 0.984 . S
H437 N433 0.985 . S
H438 N432 0.984 . S
H439 N432 0.984 . S
H440 N428 0.984 . S
H441 N428 0.985 . S
C442 C443 1.363 . S
C442 C448 1.379 . S
C442 N450 1.356 . S
C443 C442 1.363 . S
C443 C449 1.363 . S
C444 C445 1.363 . S
C444 C449 1.379 . S
C444 N451 1.356 . S
C445 C444 1.363 . S
C445 C448 1.363 . S
N446 C448 1.356 . S
N446 H458 0.984 . S
N446 H459 0.985 . S
N447 C449 1.356 . S
N447 H452 0.984 . S
N447 H453 0.985 . S
C448 C442 1.379 . S
C448 C445 1.363 . S
C448 N446 1.356 . S
C449 C443 1.363 . S
C449 C444 1.379 . S
C449 N447 1.356 . S
N450 C442 1.356 . S
N450 H456 0.984 . S
N450 H457 0.984 . S
N451 C444 1.356 . S
N451 H454 0.984 . S
N451 H455 0.985 . S
H452 N447 0.984 . S
H453 N447 0.985 . S
H454 N451 0.984 . S
H455 N451 0.985 . S
H456 N450 0.984 . S
H457 N450 0.984 . S
H458 N446 0.984 . S
H459 N446 0.985 . S
C460 C461 1.363 . S
C460 C466 1.379 . S
C460 N468 1.356 . S
C461 C460 1.363 . S
C461 C467 1.363 . S
C462 C463 1.363 . S
C462 C467 1.379 . S
C462 N469 1.356 . S
C463 C462 1.363 . S
C463 C466 1.363 . S
N464 C466 1.356 . S
N464 H476 0.984 . S
N464 H477 0.985 . S
N465 C467 1.356 . S
N465 H470 0.984 . S
N465 H471 0.985 . S
C466 C460 1.379 . S
C466 C463 1.363 . S
C466 N464 1.356 . S
C467 C461 1.363 . S
C467 C462 1.379 . S
C467 N465 1.356 . S
N468 C460 1.356 . S
N468 H474 0.984 . S
N468 H475 0.984 . S
N469 C462 1.356 . S
N469 H472 0.984 . S
N469 H473 0.985 . S
H470 N465 0.984 . S
H471 N465 0.985 . S
H472 N469 0.984 . S
H473 N469 0.985 . S
H474 N468 0.984 . S
H475 N468 0.984 . S
H476 N464 0.984 . S
H477 N464 0.985 . S
C478 C479 1.363 . S
C478 C484 1.379 . S
C478 N486 1.356 . S
C479 C478 1.363 . S
C479 C485 1.363 . S
C480 C481 1.363 . S
C480 C485 1.379 . S
C480 N487 1.356 . S
C481 C480 1.363 . S
C481 C484 1.363 . S
N482 C484 1.356 . S
N482 H494 0.984 . S
N482 H495 0.985 . S
N483 C485 1.356 . S
N483 H488 0.984 . S
N483 H489 0.985 . S
C484 C478 1.379 . S
C484 C481 1.363 . S
C484 N482 1.356 . S
C485 C479 1.363 . S
C485 C480 1.379 . S
C485 N483 1.356 . S
N486 C478 1.356 . S
N486 H492 0.984 . S
N486 H493 0.984 . S
N487 C480 1.356 . S
N487 H490 0.984 . S
N487 H491 0.985 . S
H488 N483 0.984 . S
H489 N483 0.985 . S
H490 N487 0.984 . S
H491 N487 0.985 . S
H492 N486 0.984 . S
H493 N486 0.984 . S
H494 N482 0.984 . S
H495 N482 0.985 . S
C496 C497 1.363 . S
C496 C502 1.379 . S
C496 N504 1.356 . S
C497 C496 1.363 . S
C497 C503 1.363 . S
C498 C499 1.363 . S
C498 C503 1.379 . S
C498 N505 1.356 . S
C499 C498 1.363 . S
C499 C502 1.363 . S
N500 C502 1.356 . S
N500 H512 0.984 . S
N500 H513 0.985 . S
N501 C503 1.356 . S
N501 H506 0.984 . S
N501 H507 0.985 . S
C502 C496 1.379 . S
C502 C499 1.363 . S
C502 N500 1.356 . S
C503 C497 1.363 . S
C503 C498 1.379 . S
C503 N501 1.356 . S
N504 C496 1.356 . S
N504 H510 0.984 . S
N504 H511 0.984 . S
N505 C498 1.356 . S
N505 H508 0.984 . S
N505 H509 0.985 . S
H506 N501 0.984 . S
H507 N501 0.985 . S
H508 N505 0.984 . S
H509 N505 0.985 . S
H510 N504 0.984 . S
H511 N504 0.984 . S
H512 N500 0.984 . S
H513 N500 0.985 . S
C514 C515 1.363 . S
C514 C520 1.379 . S
C514 N522 1.356 . S
C515 C514 1.363 . S
C515 C521 1.363 . S
C516 C517 1.363 . S
C516 C521 1.379 . S
C516 N523 1.356 . S
C517 C516 1.363 . S
C517 C520 1.363 . S
N518 C520 1.356 . S
N518 H530 0.984 . S
N518 H531 0.985 . S
N519 C521 1.356 . S
N519 H524 0.984 . S
N519 H525 0.985 . S
C520 C514 1.379 . S
C520 C517 1.363 . S
C520 N518 1.356 . S
C521 C515 1.363 . S
C521 C516 1.379 . S
C521 N519 1.356 . S
N522 C514 1.356 . S
N522 H528 0.984 . S
N522 H529 0.984 . S
N523 C516 1.356 . S
N523 H526 0.984 . S
N523 H527 0.985 . S
H524 N519 0.984 . S
H525 N519 0.985 . S
H526 N523 0.984 . S
H527 N523 0.985 . S
H528 N522 0.984 . S
H529 N522 0.984 . S
H530 N518 0.984 . S
H531 N518 0.985 . S
C532 C533 1.363 . S
C532 C538 1.379 . S
C532 N540 1.356 . S
C533 C532 1.363 . S
C533 C539 1.363 . S
C534 C535 1.363 . S
C534 C539 1.379 . S
C534 N541 1.356 . S
C535 C534 1.363 . S
C535 C538 1.363 . S
N536 C538 1.356 . S
N536 H548 0.984 . S
N536 H549 0.985 . S
N537 C539 1.356 . S
N537 H542 0.984 . S
N537 H543 0.985 . S
C538 C532 1.379 . S
C538 C535 1.363 . S
C538 N536 1.356 . S
C539 C533 1.363 . S
C539 C534 1.379 . S
C539 N537 1.356 . S
N540 C532 1.356 . S
N540 H546 0.984 . S
N540 H547 0.984 . S
N541 C534 1.356 . S
N541 H544 0.984 . S
N541 H545 0.985 . S
H542 N537 0.984 . S
H543 N537 0.985 . S
H544 N541 0.984 . S
H545 N541 0.985 . S
H546 N540 0.984 . S
H547 N540 0.984 . S
H548 N536 0.984 . S
H549 N536 0.985 . S
C550 C551 1.363 . S
C550 C556 1.379 1_565 S
C550 N558 1.356 . S
C551 C550 1.363 . S
C551 C557 1.363 1_565 S
C552 C553 1.363 . S
C552 C557 1.379 . S
C552 N559 1.356 . S
C553 C552 1.363 . S
C553 C556 1.363 . S
N554 C556 1.356 . S
N554 H566 0.984 1_545 S
N554 H567 0.985 . S
N555 C557 1.356 . S
N555 H560 0.984 1_545 S
N555 H561 0.985 . S
C556 C550 1.379 1_545 S
C556 C553 1.363 . S
C556 N554 1.356 . S
C557 C551 1.363 1_545 S
C557 C552 1.379 . S
C557 N555 1.356 . S
N558 C550 1.356 . S
N558 H564 0.984 . S
N558 H565 0.984 . S
N559 C552 1.356 . S
N559 H562 0.984 . S
N559 H563 0.985 . S
H560 N555 0.984 1_565 S
H561 N555 0.985 . S
H562 N559 0.984 . S
H563 N559 0.985 . S
H564 N558 0.984 . S
H565 N558 0.984 . S
H566 N554 0.984 1_565 S
H567 N554 0.985 . S
C568 C569 1.363 . S
C568 C574 1.379 . S
C568 N576 1.356 . S
C569 C568 1.363 . S
C569 C575 1.363 . S
C570 C571 1.363 . S
C570 C575 1.379 . S
C570 N577 1.356 . S
C571 C570 1.363 . S
C571 C574 1.363 . S
N572 C574 1.356 . S
N572 H584 0.984 . S
N572 H585 0.985 . S
N573 C575 1.356 . S
N573 H578 0.984 . S
N573 H579 0.985 . S
C574 C568 1.379 . S
C574 C571 1.363 . S
C574 N572 1.356 . S
C575 C569 1.363 . S
C575 C570 1.379 . S
C575 N573 1.356 . S
N576 C568 1.356 . S
N576 H582 0.984 . S
N576 H583 0.984 . S
N577 C570 1.356 . S
N577 H580 0.984 . S
N577 H581 0.985 . S
H578 N573 0.984 . S
H579 N573 0.985 . S
H580 N577 0.984 . S
H581 N577 0.985 . S
H582 N576 0.984 . S
H583 N576 0.984 . S
H584 N572 0.984 . S
H585 N572 0.985 . S
C586 C587 1.363 . S
C586 C592 1.379 . S
C586 N594 1.356 . S
C587 C586 1.363 . S
C587 C593 1.363 . S
C588 C589 1.363 . S
C588 C593 1.379 . S
C588 N595 1.356 . S
C589 C588 1.363 . S
C589 C592 1.363 . S
N590 C592 1.356 . S
N590 H602 0.984 . S
N590 H603 0.985 . S
N591 C593 1.356 . S
N591 H596 0.984 . S
N591 H597 0.985 . S
C592 C586 1.379 . S
C592 C589 1.363 . S
C592 N590 1.356 . S
C593 C587 1.363 . S
C593 C588 1.379 . S
C593 N591 1.356 . S
N594 C586 1.356 . S
N594 H600 0.984 . S
N594 H601 0.984 . S
N595 C588 1.356 . S
N595 H598 0.984 . S
N595 H599 0.985 . S
H596 N591 0.984 . S
H597 N591 0.985 . S
H598 N595 0.984 . S
H599 N595 0.985 . S
H600 N594 0.984 . S
H601 N594 0.984 . S
H602 N590 0.984 . S
H603 N590 0.985 . S
C604 C605 1.363 . S
C604 C610 1.379 . S
C604 N612 1.356 . S
C605 C604 1.363 . S
C605 C611 1.363 . S
C606 C607 1.363 . S
C606 C611 1.379 . S
C606 N613 1.356 . S
C607 C606 1.363 . S
C607 C610 1.363 . S
N608 C610 1.356 . S
N608 H620 0.984 . S
N608 H621 0.985 . S
N609 C611 1.356 . S
N609 H614 0.984 . S
N609 H615 0.985 . S
C610 C604 1.379 . S
C610 C607 1.363 . S
C610 N608 1.356 . S
C611 C605 1.363 . S
C611 C606 1.379 . S
C611 N609 1.356 . S
N612 C604 1.356 . S
N612 H618 0.984 . S
N612 H619 0.984 . S
N613 C606 1.356 . S
N613 H616 0.984 . S
N613 H617 0.985 . S
H614 N609 0.984 . S
H615 N609 0.985 . S
H616 N613 0.984 . S
H617 N613 0.985 . S
H618 N612 0.984 . S
H619 N612 0.984 . S
H620 N608 0.984 . S
H621 N608 0.985 . S
C622 C623 1.363 . S
C622 C628 1.379 . S
C622 N630 1.356 . S
C623 C622 1.363 . S
C623 C629 1.363 . S
C624 C625 1.363 . S
C624 C629 1.379 . S
C624 N631 1.356 . S
C625 C624 1.363 . S
C625 C628 1.363 . S
N626 C628 1.356 . S
N626 H638 0.984 . S
N626 H639 0.985 . S
N627 C629 1.356 . S
N627 H632 0.984 . S
N627 H633 0.985 . S
C628 C622 1.379 . S
C628 C625 1.363 . S
C628 N626 1.356 . S
C629 C623 1.363 . S
C629 C624 1.379 . S
C629 N627 1.356 . S
N630 C622 1.356 . S
N630 H636 0.984 . S
N630 H637 0.984 . S
N631 C624 1.356 . S
N631 H634 0.984 . S
N631 H635 0.985 . S
H632 N627 0.984 . S
H633 N627 0.985 . S
H634 N631 0.984 . S
H635 N631 0.985 . S
H636 N630 0.984 . S
H637 N630 0.984 . S
H638 N626 0.984 . S
H639 N626 0.985 . S
C640 C641 1.363 . S
C640 C646 1.379 . S
C640 N648 1.356 . S
C641 C640 1.363 . S
C641 C647 1.363 . S
C642 C643 1.363 . S
C642 C647 1.379 . S
C642 N649 1.356 . S
C643 C642 1.363 . S
C643 C646 1.363 . S
N644 C646 1.356 . S
N644 H656 0.984 1_655 S
N644 H657 0.985 1_655 S
N645 C647 1.356 . S
N645 H650 0.984 . S
N645 H651 0.985 . S
C646 C640 1.379 . S
C646 C643 1.363 . S
C646 N644 1.356 . S
C647 C641 1.363 . S
C647 C642 1.379 . S
C647 N645 1.356 . S
N648 C640 1.356 . S
N648 H654 0.984 . S
N648 H655 0.984 . S
N649 C642 1.356 . S
N649 H652 0.984 . S
N649 H653 0.985 . S
H650 N645 0.984 . S
H651 N645 0.985 . S
H652 N649 0.984 . S
H653 N649 0.985 . S
H654 N648 0.984 . S
H655 N648 0.984 . S
H656 N644 0.984 1_455 S
H657 N644 0.985 1_455 S
C658 C659 1.363 . S
C658 C664 1.379 . S
C658 N666 1.356 . S
C659 C658 1.363 . S
C659 C665 1.363 . S
C660 C661 1.363 . S
C660 C665 1.379 . S
C660 N667 1.356 . S
C661 C660 1.363 . S
C661 C664 1.363 . S
N662 C664 1.356 . S
N662 H674 0.984 . S
N662 H675 0.985 . S
N663 C665 1.356 . S
N663 H668 0.984 . S
N663 H669 0.985 . S
C664 C658 1.379 . S
C664 C661 1.363 . S
C664 N662 1.356 . S
C665 C659 1.363 . S
C665 C660 1.379 . S
C665 N663 1.356 . S
N666 C658 1.356 . S
N666 H672 0.984 . S
N666 H673 0.984 . S
N667 C660 1.356 . S
N667 H670 0.984 . S
N667 H671 0.985 . S
H668 N663 0.984 . S
H669 N663 0.985 . S
H670 N667 0.984 . S
H671 N667 0.985 . S
H672 N666 0.984 . S
H673 N666 0.984 . S
H674 N662 0.984 . S
H675 N662 0.985 . S
C676 C677 1.363 . S
C676 C682 1.379 . S
C676 N684 1.356 . S
C677 C676 1.363 . S
C677 C683 1.363 . S
C678 C679 1.363 . S
C678 C683 1.379 . S
C678 N685 1.356 . S
C679 C678 1.363 . S
C679 C682 1.363 . S
N680 C682 1.356 . S
N680 H692 0.984 . S
N680 H693 0.985 . S
N681 C683 1.356 . S
N681 H686 0.984 . S
N681 H687 0.985 . S
C682 C676 1.379 . S
C682 C679 1.363 . S
C682 N680 1.356 . S
C683 C677 1.363 . S
C683 C678 1.379 . S
C683 N681 1.356 . S
N684 C676 1.356 . S
N684 H690 0.984 . S
N684 H691 0.984 . S
N685 C678 1.356 . S
N685 H688 0.984 . S
N685 H689 0.985 . S
H686 N681 0.984 . S
H687 N681 0.985 . S
H688 N685 0.984 . S
H689 N685 0.985 . S
H690 N684 0.984 . S
H691 N684 0.984 . S
H692 N680 0.984 . S
H693 N680 0.985 . S
C694 C695 1.363 . S
C694 C700 1.379 . S
C694 N702 1.356 . S
C695 C694 1.363 . S
C695 C701 1.363 . S
C696 C697 1.363 . S
C696 C701 1.379 . S
C696 N703 1.356 . S
C697 C696 1.363 . S
C697 C700 1.363 . S
N698 C700 1.356 . S
N698 H710 0.984 . S
N698 H711 0.985 . S
N699 C701 1.356 . S
N699 H704 0.984 . S
N699 H705 0.985 . S
C700 C694 1.379 . S
C700 C697 1.363 . S
C700 N698 1.356 . S
C701 C695 1.363 . S
C701 C696 1.379 . S
C701 N699 1.356 . S
N702 C694 1.356 . S
N702 H708 0.984 . S
N702 H709 0.984 . S
N703 C696 1.356 . S
N703 H706 0.984 . S
N703 H707 0.985 . S
H704 N699 0.984 . S
H705 N699 0.985 . S
H706 N703 0.984 . S
H707 N703 0.985 . S
H708 N702 0.984 . S
H709 N702 0.984 . S
H710 N698 0.984 . S
H711 N698 0.985 . S
C712 C713 1.363 . S
C712 C718 1.379 . S
C712 N720 1.356 . S
C713 C712 1.363 . S
C713 C719 1.363 . S
C714 C715 1.363 . S
C714 C719 1.379 . S
C714 N721 1.356 . S
C715 C714 1.363 . S
C715 C718 1.363 . S
N716 C718 1.356 . S
N716 H728 0.984 . S
N716 H729 0.985 . S
N717 C719 1.356 . S
N717 H722 0.984 . S
N717 H723 0.985 . S
C718 C712 1.379 . S
C718 C715 1.363 . S
C718 N716 1.356 . S
C719 C713 1.363 . S
C719 C714 1.379 . S
C719 N717 1.356 . S
N720 C712 1.356 . S
N720 H726 0.984 . S
N720 H727 0.984 . S
N721 C714 1.356 . S
N721 H724 0.984 . S
N721 H725 0.985 . S
H722 N717 0.984 . S
H723 N717 0.985 . S
H724 N721 0.984 . S
H725 N721 0.985 . S
H726 N720 0.984 . S
H727 N720 0.984 . S
H728 N716 0.984 . S
H729 N716 0.985 . S
C730 C731 1.363 . S
C730 C736 1.379 . S
C730 N738 1.356 . S
C731 C730 1.363 . S
C731 C737 1.363 . S
C732 C733 1.363 . S
C732 C737 1.379 . S
C732 N739 1.356 . S
C733 C732 1.363 . S
C733 C736 1.363 . S
N734 C736 1.356 . S
N734 H746 0.984 . S
N734 H747 0.985 . S
N735 C737 1.356 . S
N735 H740 0.984 . S
N735 H741 0.985 . S
C736 C730 1.379 . S
C736 C733 1.363 . S
C736 N734 1.356 . S
C737 C731 1.363 . S
C737 C732 1.379 . S
C737 N735 1.356 . S
N738 C730 1.356 . S
N738 H744 0.984 . S
N738 H745 0.984 . S
N739 C732 1.356 . S
N739 H742 0.984 . S
N739 H743 0.985 . S
H740 N735 0.984 . S
H741 N735 0.985 . S
H742 N739 0.984 . S
H743 N739 0.985 . S
H744 N738 0.984 . S
H745 N738 0.984 . S
H746 N734 0.984 . S
H747 N734 0.985 . S
C748 C749 1.363 . S
C748 C754 1.379 . S
C748 N756 1.356 . S
C749 C748 1.363 . S
C749 C755 1.363 . S
C750 C751 1.363 . S
C750 C755 1.379 . S
C750 N757 1.356 . S
C751 C750 1.363 . S
C751 C754 1.363 . S
N752 C754 1.356 . S
N752 H764 0.984 . S
N752 H765 0.985 . S
N753 C755 1.356 . S
N753 H758 0.984 . S
N753 H759 0.985 . S
C754 C748 1.379 . S
C754 C751 1.363 . S
C754 N752 1.356 . S
C755 C749 1.363 . S
C755 C750 1.379 . S
C755 N753 1.356 . S
N756 C748 1.356 . S
N756 H762 0.984 . S
N756 H763 0.984 . S
N757 C750 1.356 . S
N757 H760 0.984 . S
N757 H761 0.985 . S
H758 N753 0.984 . S
H759 N753 0.985 . S
H760 N757 0.984 . S
H761 N757 0.985 . S
H762 N756 0.984 . S
H763 N756 0.984 . S
H764 N752 0.984 . S
H765 N752 0.985 . S
C766 C767 1.363 . S
C766 C772 1.379 . S
C766 N774 1.356 . S
C767 C766 1.363 . S
C767 C773 1.363 . S
C768 C769 1.363 . S
C768 C773 1.379 . S
C768 N775 1.356 . S
C769 C768 1.363 . S
C769 C772 1.363 . S
N770 C772 1.356 . S
N770 H782 0.984 . S
N770 H783 0.985 . S
N771 C773 1.356 . S
N771 H776 0.984 . S
N771 H777 0.985 . S
C772 C766 1.379 . S
C772 C769 1.363 . S
C772 N770 1.356 . S
C773 C767 1.363 . S
C773 C768 1.379 . S
C773 N771 1.356 . S
N774 C766 1.356 . S
N774 H780 0.984 . S
N774 H781 0.984 . S
N775 C768 1.356 . S
N775 H778 0.984 . S
N775 H779 0.985 . S
H776 N771 0.984 . S
H777 N771 0.985 . S
H778 N775 0.984 . S
H779 N775 0.985 . S
H780 N774 0.984 . S
H781 N774 0.984 . S
H782 N770 0.984 . S
H783 N770 0.985 . S
C784 C785 1.363 . S
C784 C790 1.379 . S
C784 N792 1.356 . S
C785 C784 1.363 . S
C785 C791 1.363 . S
C786 C787 1.363 . S
C786 C791 1.379 . S
C786 N793 1.356 . S
C787 C786 1.363 . S
C787 C790 1.363 . S
N788 C790 1.356 . S
N788 H800 0.984 . S
N788 H801 0.985 . S
N789 C791 1.356 . S
N789 H794 0.984 . S
N789 H795 0.985 . S
C790 C784 1.379 . S
C790 C787 1.363 . S
C790 N788 1.356 . S
C791 C785 1.363 . S
C791 C786 1.379 . S
C791 N789 1.356 . S
N792 C784 1.356 . S
N792 H798 0.984 . S
N792 H799 0.984 . S
N793 C786 1.356 . S
N793 H796 0.984 . S
N793 H797 0.985 . S
H794 N789 0.984 . S
H795 N789 0.985 . S
H796 N793 0.984 . S
H797 N793 0.985 . S
H798 N792 0.984 . S
H799 N792 0.984 . S
H800 N788 0.984 . S
H801 N788 0.985 . S
C802 C803 1.363 . S
C802 C808 1.379 . S
C802 N810 1.356 . S
C803 C802 1.363 . S
C803 C809 1.363 . S
C804 C805 1.363 1_565 S
C804 C809 1.379 . S
C804 N811 1.356 1_565 S
C805 C804 1.363 1_545 S
C805 C808 1.363 1_545 S
N806 C808 1.356 1_545 S
N806 H818 0.984 . S
N806 H819 0.985 . S
N807 C809 1.356 . S
N807 H812 0.984 . S
N807 H813 0.985 . S
C808 C802 1.379 . S
C808 C805 1.363 1_565 S
C808 N806 1.356 1_565 S
C809 C803 1.363 . S
C809 C804 1.379 . S
C809 N807 1.356 . S
N810 C802 1.356 . S
N810 H816 0.984 . S
N810 H817 0.984 . S
N811 C804 1.356 1_545 S
N811 H814 0.984 . S
N811 H815 0.985 1_545 S
H812 N807 0.984 . S
H813 N807 0.985 . S
H814 N811 0.984 . S
H815 N811 0.985 1_565 S
H816 N810 0.984 . S
H817 N810 0.984 . S
H818 N806 0.984 . S
H819 N806 0.985 . S
C820 C821 1.363 . S
C820 C826 1.379 . S
C820 N828 1.356 . S
C821 C820 1.363 . S
C821 C827 1.363 . S
C822 C823 1.363 . S
C822 C827 1.379 . S
C822 N829 1.356 . S
C823 C822 1.363 . S
C823 C826 1.363 . S
N824 C826 1.356 . S
N824 H836 0.984 . S
N824 H837 0.985 . S
N825 C827 1.356 . S
N825 H830 0.984 . S
N825 H831 0.985 . S
C826 C820 1.379 . S
C826 C823 1.363 . S
C826 N824 1.356 . S
C827 C821 1.363 . S
C827 C822 1.379 . S
C827 N825 1.356 . S
N828 C820 1.356 . S
N828 H834 0.984 . S
N828 H835 0.984 . S
N829 C822 1.356 . S
N829 H832 0.984 . S
N829 H833 0.985 . S
H830 N825 0.984 . S
H831 N825 0.985 . S
H832 N829 0.984 . S
H833 N829 0.985 . S
H834 N828 0.984 . S
H835 N828 0.984 . S
H836 N824 0.984 . S
H837 N824 0.985 . S
C409 C110 1.544 . S
C407 C5 1.408 . S
C427 C179 1.495 . S
C425 C16 1.250 . S
C445 C117 1.672 . S
C443 C30 1.674 . S
C463 C180 1.615 . S
C461 C40 1.553 . S
C481 C233 1.489 . S
C479 C8 1.492 . S
C499 C269 1.514 . S
C497 C18 1.439 . S
C515 C29 1.719 . S
C517 C329 1.732 . S
C535 C392 1.540 . S
C533 C38 1.275 . S
C553 C232 1.468 . S
C551 C19 1.451 . S
C569 C27 1.504 . S
C571 C276 1.622 . S
C589 C322 1.607 . S
C587 C41 1.572 . S
C607 C391 1.546 . S
C605 C7 1.502 . S
C623 C52 1.534 . S
C625 C170 1.568 . S
C643 C127 1.600 . S
C641 C62 1.562 . S
C659 C74 1.424 . S
C661 C163 1.431 . S
C677 C82 1.230 . S
C679 C126 1.413 . S
C697 C338 1.785 . S
C695 C51 1.663 . S
C715 C382 1.587 . S
C713 C60 1.311 . S
C733 C216 1.552 . S
C731 C71 1.260 . S
C749 C84 1.426 . S
C751 C285 1.493 . S
C769 C339 1.635 . S
C767 C63 1.631 . S
C787 C375 1.516 . S
C785 C73 1.455 . S
C805 C223 1.548 . S
C803 C85 1.580 . S
C821 C49 1.329 . S
C823 C286 1.659 . S
