# Generated by pormake.
# Topology myd, (4,6)-cn, num edge types: 1
# Building blocks:
#     Node 0, Type 0, BuildingBlock: KOZSID_clean_sbu_0, # of connection points: 4
#     Node 1, Type 0, BuildingBlock: KOZSID_clean_sbu_0, # of connection points: 4
#     Node 2, Type 0, BuildingBlock: KOZSID_clean_sbu_0, # of connection points: 4
#     Node 3, Type 0, BuildingBlock: KOZSID_clean_sbu_0, # of connection points: 4
#     Node 4, Type 0, BuildingBlock: KOZSID_clean_sbu_0, # of connection points: 4
#     Node 5, Type 0, BuildingBlock: KOZSID_clean_sbu_0, # of connection points: 4
#     Node 6, Type 0, BuildingBlock: KOZSID_clean_sbu_0, # of connection points: 4
#     Node 7, Type 0, BuildingBlock: KOZSID_clean_sbu_0, # of connection points: 4
#     Node 8, Type 0, BuildingBlock: KOZSID_clean_sbu_0, # of connection points: 4
#     Node 9, Type 0, BuildingBlock: KOZSID_clean_sbu_0, # of connection points: 4
#     Node 10, Type 0, BuildingBlock: KOZSID_clean_sbu_0, # of connection points: 4
#     Node 11, Type 0, BuildingBlock: KOZSID_clean_sbu_0, # of connection points: 4
#     Node 12, Type 1, BuildingBlock: CIFDUS_clean_sbu_1, # of connection points: 6
#     Node 13, Type 1, BuildingBlock: CIFDUS_clean_sbu_1, # of connection points: 6
#     Node 14, Type 1, BuildingBlock: CIFDUS_clean_sbu_1, # of connection points: 6
#     Node 15, Type 1, BuildingBlock: CIFDUS_clean_sbu_1, # of connection points: 6
#     Node 16, Type 1, BuildingBlock: CIFDUS_clean_sbu_1, # of connection points: 6
#     Node 17, Type 1, BuildingBlock: CIFDUS_clean_sbu_1, # of connection points: 6
#     Node 18, Type 1, BuildingBlock: CIFDUS_clean_sbu_1, # of connection points: 6
#     Node 19, Type 1, BuildingBlock: CIFDUS_clean_sbu_1, # of connection points: 6
#     Edge 20, Type (0, 1), BuildingBlock: XUDNAN_clean_linker_2, # of connection points: 2
#     Edge 21, Type (0, 1), BuildingBlock: XUDNAN_clean_linker_2, # of connection points: 2
#     Edge 22, Type (0, 1), BuildingBlock: XUDNAN_clean_linker_2, # of connection points: 2
#     Edge 23, Type (0, 1), BuildingBlock: XUDNAN_clean_linker_2, # of connection points: 2
#     Edge 24, Type (0, 1), BuildingBlock: XUDNAN_clean_linker_2, # of connection points: 2
#     Edge 25, Type (0, 1), BuildingBlock: XUDNAN_clean_linker_2, # of connection points: 2
#     Edge 26, Type (0, 1), BuildingBlock: XUDNAN_clean_linker_2, # of connection points: 2
#     Edge 27, Type (0, 1), BuildingBlock: XUDNAN_clean_linker_2, # of connection points: 2
#     Edge 28, Type (0, 1), BuildingBlock: XUDNAN_clean_linker_2, # of connection points: 2
#     Edge 29, Type (0, 1), BuildingBlock: XUDNAN_clean_linker_2, # of connection points: 2
#     Edge 30, Type (0, 1), BuildingBlock: XUDNAN_clean_linker_2, # of connection points: 2
#     Edge 31, Type (0, 1), BuildingBlock: XUDNAN_clean_linker_2, # of connection points: 2
#     Edge 32, Type (0, 1), BuildingBlock: XUDNAN_clean_linker_2, # of connection points: 2
#     Edge 33, Type (0, 1), BuildingBlock: XUDNAN_clean_linker_2, # of connection points: 2
#     Edge 34, Type (0, 1), BuildingBlock: XUDNAN_clean_linker_2, # of connection points: 2
#     Edge 35, Type (0, 1), BuildingBlock: XUDNAN_clean_linker_2, # of connection points: 2
#     Edge 36, Type (0, 1), BuildingBlock: XUDNAN_clean_linker_2, # of connection points: 2
#     Edge 37, Type (0, 1), BuildingBlock: XUDNAN_clean_linker_2, # of connection points: 2
#     Edge 38, Type (0, 1), BuildingBlock: XUDNAN_clean_linker_2, # of connection points: 2
#     Edge 39, Type (0, 1), BuildingBlock: XUDNAN_clean_linker_2, # of connection points: 2
#     Edge 40, Type (0, 1), BuildingBlock: XUDNAN_clean_linker_2, # of connection points: 2
#     Edge 41, Type (0, 1), BuildingBlock: XUDNAN_clean_linker_2, # of connection points: 2
#     Edge 42, Type (0, 1), BuildingBlock: XUDNAN_clean_linker_2, # of connection points: 2
#     Edge 43, Type (0, 1), BuildingBlock: XUDNAN_clean_linker_2, # of connection points: 2
#     Edge 44, Type (0, 1), BuildingBlock: XUDNAN_clean_linker_2, # of connection points: 2
#     Edge 45, Type (0, 1), BuildingBlock: XUDNAN_clean_linker_2, # of connection points: 2
#     Edge 46, Type (0, 1), BuildingBlock: XUDNAN_clean_linker_2, # of connection points: 2
#     Edge 47, Type (0, 1), BuildingBlock: XUDNAN_clean_linker_2, # of connection points: 2
#     Edge 48, Type (0, 1), BuildingBlock: XUDNAN_clean_linker_2, # of connection points: 2
#     Edge 49, Type (0, 1), BuildingBlock: XUDNAN_clean_linker_2, # of connection points: 2
#     Edge 50, Type (0, 1), BuildingBlock: XUDNAN_clean_linker_2, # of connection points: 2
#     Edge 51, Type (0, 1), BuildingBlock: XUDNAN_clean_linker_2, # of connection points: 2
#     Edge 52, Type (0, 1), BuildingBlock: XUDNAN_clean_linker_2, # of connection points: 2
#     Edge 53, Type (0, 1), BuildingBlock: XUDNAN_clean_linker_2, # of connection points: 2
#     Edge 54, Type (0, 1), BuildingBlock: XUDNAN_clean_linker_2, # of connection points: 2
#     Edge 55, Type (0, 1), BuildingBlock: XUDNAN_clean_linker_2, # of connection points: 2
#     Edge 56, Type (0, 1), BuildingBlock: XUDNAN_clean_linker_2, # of connection points: 2
#     Edge 57, Type (0, 1), BuildingBlock: XUDNAN_clean_linker_2, # of connection points: 2
#     Edge 58, Type (0, 1), BuildingBlock: XUDNAN_clean_linker_2, # of connection points: 2
#     Edge 59, Type (0, 1), BuildingBlock: XUDNAN_clean_linker_2, # of connection points: 2
#     Edge 60, Type (0, 1), BuildingBlock: XUDNAN_clean_linker_2, # of connection points: 2
#     Edge 61, Type (0, 1), BuildingBlock: XUDNAN_clean_linker_2, # of connection points: 2
#     Edge 62, Type (0, 1), BuildingBlock: XUDNAN_clean_linker_2, # of connection points: 2
#     Edge 63, Type (0, 1), BuildingBlock: XUDNAN_clean_linker_2, # of connection points: 2
#     Edge 64, Type (0, 1), BuildingBlock: XUDNAN_clean_linker_2, # of connection points: 2
#     Edge 65, Type (0, 1), BuildingBlock: XUDNAN_clean_linker_2, # of connection points: 2
#     Edge 66, Type (0, 1), BuildingBlock: XUDNAN_clean_linker_2, # of connection points: 2
#     Edge 67, Type (0, 1), BuildingBlock: XUDNAN_clean_linker_2, # of connection points: 2
# Relax obj value: 0.182
# Max RMSD: 0.189
# Mean RMSD: 0.136
data_MOF--net-myd--node1-KOZSID_clean_sbu_0--node2-CIFDUS_clean_sbu_1--edge1-XUDNAN_clean_linker_2
_symmetry_space_group_name_H-M    P1
_symmetry_Int_Tables_number       1
_symmetry_cell_setting            triclinic
loop_
_symmetry_equiv_pos_as_xyz
'x, y, z'
_cell_length_a     50.195651
_cell_length_b     50.717885
_cell_length_c     49.871752
_cell_angle_alpha  92.236799
_cell_angle_beta   91.997197
_cell_angle_gamma 93.96056
loop_
_atom_site_label
_atom_site_type_symbol
_atom_site_fract_x
_atom_site_fract_y
_atom_site_fract_z
_atom_type_partial_charge
C0 C 0.99798 0.30809 0.33541 0.0
C1 C 0.97209 0.31236 0.34243 0.0
C2 C 0.95587 0.29266 0.32968 0.0
C3 C 0.97265 0.27732 0.3158 0.0
N4 N 0.99874 0.28551 0.31974 0.0
Co5 Co 0.02961 0.2701 0.30161 0.0
N6 N 0.00544 0.24833 0.27538 0.0
C7 C 0.97848 0.24789 0.27382 0.0
C8 C 0.96724 0.23371 0.25186 0.0
C9 C 0.98828 0.22421 0.23885 0.0
C10 C 0.01126 0.23256 0.2541 0.0
N11 N 0.0606 0.25449 0.28394 0.0
C12 C 0.06118 0.23531 0.26412 0.0
C13 C 0.08711 0.22828 0.26038 0.0
C14 C 0.10335 0.24365 0.27815 0.0
C15 C 0.08654 0.25886 0.29202 0.0
N16 N 0.0534 0.29366 0.32702 0.0
C17 C 0.08035 0.29412 0.3291 0.0
C18 C 0.09189 0.31555 0.34379 0.0
C19 C 0.07122 0.33015 0.35083 0.0
C20 C 0.04788 0.31656 0.34052 0.0
N21 N 0.029 0.23938 0.3265 0.0
C22 C 0.03222 0.18709 0.34553 0.0
C23 C 0.05387 0.20613 0.34892 0.0
C24 C 0.0518 0.23197 0.33949 0.0
C25 C 0.0083 0.19574 0.33502 0.0
C26 C 0.00697 0.22172 0.32641 0.0
N27 N 0.03041 0.29914 0.27604 0.0
C28 C 0.05483 0.32709 0.24571 0.0
C29 C 0.03096 0.33429 0.23386 0.0
C30 C 0.00693 0.32503 0.24444 0.0
C31 C 0.00708 0.30771 0.26551 0.0
C32 C 0.05412 0.30975 0.26692 0.0
H33 H 0.98805 0.30077 0.27235 0.0
H34 H 0.07291 0.30445 0.2751 0.0
H35 H 0.06923 0.24526 0.34203 0.0
H36 H 0.98803 0.22656 0.31858 0.0
C37 C 0.96436 0.2606 0.29366 0.0
C38 C 0.02102 0.32679 0.34279 0.0
C39 C 0.03758 0.22276 0.24914 0.0
C40 C 0.09439 0.27742 0.31269 0.0
H41 H 0.96544 0.32883 0.35425 0.0
H42 H 0.93424 0.29124 0.32857 0.0
H43 H 0.94625 0.23046 0.2461 0.0
H44 H 0.98676 0.21185 0.22061 0.0
H45 H 0.0938 0.21326 0.24674 0.0
H46 H 0.12482 0.24341 0.28096 0.0
H47 H 0.11301 0.32116 0.34693 0.0
H48 H 0.07353 0.34942 0.361 0.0
H49 H 0.07273 0.20078 0.35759 0.0
H50 H 0.99061 0.18221 0.33284 0.0
H51 H 0.07387 0.33399 0.23799 0.0
H52 H 0.98803 0.33022 0.23568 0.0
C53 C 0.9843 0.72153 0.12868 0.0
C54 C 0.95797 0.7146 0.12021 0.0
C55 C 0.94264 0.73215 0.1326 0.0
C56 C 0.9603 0.74856 0.14804 0.0
N57 N 0.98611 0.74291 0.14597 0.0
Co58 Co 0.01796 0.76032 0.16672 0.0
N59 N 0.99472 0.78349 0.18778 0.0
C60 C 0.96779 0.78384 0.18557 0.0
C61 C 0.95754 0.80307 0.20132 0.0
C62 C 0.9792 0.81604 0.21425 0.0
C63 C 1.00153 0.80378 0.20566 0.0
N64 N 0.04982 0.7779 0.18737 0.0
C65 C 0.05136 0.79855 0.20562 0.0
C66 C 0.07753 0.80549 0.21436 0.0
C67 C 0.09318 0.7889 0.20082 0.0
C68 C 0.07574 0.77282 0.18469 0.0
N69 N 0.04108 0.73692 0.14565 0.0
C70 C 0.06806 0.73691 0.14733 0.0
C71 C 0.0781 0.71774 0.13123 0.0
C72 C 0.05622 0.70433 0.11893 0.0
C73 C 0.03402 0.71612 0.12836 0.0
N74 N 0.02197 0.78812 0.13977 0.0
C75 C 0.03116 0.83533 0.11242 0.0
C76 C 0.05171 0.81872 0.11715 0.0
C77 C 0.04664 0.79532 0.1304 0.0
C78 C 0.00542 0.82681 0.1197 0.0
C79 C 1.00123 0.80309 0.13291 0.0
N80 N 0.01434 0.73288 0.19406 0.0
C81 C 0.03456 0.70098 0.22174 0.0
C82 C 0.01019 0.69392 0.23313 0.0
C83 C 0.98773 0.70656 0.22418 0.0
C84 C 0.9902 0.72571 0.20468 0.0
C85 C 0.03621 0.7204 0.20272 0.0
H86 H 0.97241 0.73457 0.19859 0.0
H87 H 0.0555 0.72494 0.19533 0.0
H88 H 0.06335 0.784 0.13371 0.0
H89 H 0.98123 0.79766 0.13808 0.0
C90 C 0.95289 0.76743 0.16679 0.0
C91 C 0.00665 0.70627 0.12109 0.0
C92 C 0.02872 0.81254 0.21476 0.0
C93 C 0.08318 0.7538 0.16582 0.0
H94 H 0.95034 0.69801 0.10725 0.0
H95 H 0.92106 0.73213 0.13153 0.0
H96 H 0.93688 0.80772 0.20252 0.0
H97 H 0.97861 0.83303 0.22798 0.0
H98 H 0.08458 0.82127 0.22863 0.0
H99 H 0.11476 0.789 0.20208 0.0
H100 H 0.09879 0.71342 0.12938 0.0
H101 H 0.0565 0.68737 0.10511 0.0
H102 H 0.07199 0.82417 0.11169 0.0
H103 H 0.98862 0.8385 0.11552 0.0
H104 H 0.0525 0.6915 0.22732 0.0
H105 H 0.96835 0.70213 0.23245 0.0
C106 C 0.3506 0.987 0.28117 0.0
C107 C 0.36002 0.96223 0.28463 0.0
C108 C 0.35211 0.94715 0.26208 0.0
C109 C 0.33862 0.96358 0.24608 0.0
N110 N 0.33831 0.98847 0.25663 0.0
Co111 Co 0.31902 0.01808 0.24141 0.0
N112 N 0.29889 0.99368 0.21408 0.0
C113 C 0.3024 0.9677 0.20953 0.0
C114 C 0.28704 0.95624 0.18844 0.0
C115 C 0.27268 0.97601 0.17906 0.0
C116 C 0.2798 0.99849 0.19532 0.0
N117 N 0.29981 0.04786 0.22623 0.0
C118 C 0.27965 0.04757 0.20725 0.0
C119 C 0.27129 0.07285 0.20397 0.0
C120 C 0.28722 0.08962 0.22074 0.0
C121 C 0.30415 0.0738 0.23363 0.0
N122 N 0.33855 0.04184 0.26996 0.0
C123 C 0.33792 0.06845 0.27261 0.0
C124 C 0.34846 0.07878 0.29679 0.0
C125 C 0.35533 0.05752 0.31083 0.0
C126 C 0.34909 0.03518 0.29421 0.0
N127 N 0.34765 0.02525 0.21478 0.0
C128 C 0.37364 0.03963 0.16688 0.0
C129 C 0.36966 0.0583 0.18761 0.0
C130 C 0.35777 0.05062 0.21132 0.0
C131 C 0.3669 0.01305 0.17231 0.0
C132 C 0.35418 0.00641 0.19608 0.0
N133 N 0.29045 0.01171 0.26693 0.0
C134 C 0.26136 0.02949 0.29942 0.0
C135 C 0.25213 1.00414 0.30601 0.0
C136 C 0.26209 0.98245 0.29232 0.0
C137 C 0.28117 0.98667 0.27283 0.0
C138 C 0.28024 0.03278 0.27999 0.0
H139 H 0.28841 0.96963 0.26279 0.0
H140 H 0.28638 0.05266 0.27597 0.0
H141 H 0.35622 0.06593 0.22612 0.0
H142 H 0.3494 0.98591 0.1985 0.0
C143 C 0.32117 0.95489 0.22467 0.0
C144 C 0.3516 0.00777 0.30257 0.0
C145 C 0.268 0.02389 0.19197 0.0
C146 C 0.32187 0.08214 0.25512 0.0
H147 H 0.37011 0.95533 0.30228 0.0
H148 H 0.35393 0.92613 0.25883 0.0
H149 H 0.28667 0.93604 0.18051 0.0
H150 H 0.25882 0.97402 0.16189 0.0
H151 H 0.25507 0.0787 0.1912 0.0
H152 H 0.2859 0.11072 0.22392 0.0
H153 H 0.34861 0.09907 0.3044 0.0
H154 H 0.36237 0.05862 0.33155 0.0
H155 H 0.3747 0.07916 0.18567 0.0
H156 H 0.37098 0.99717 0.15828 0.0
H157 H 0.25363 0.04687 0.30879 0.0
H158 H 0.25532 0.96239 0.29668 0.0
C159 C 0.64198 0.47544 0.21685 0.0
C160 C 0.62888 0.45078 0.21081 0.0
C161 C 0.64005 0.43347 0.22739 0.0
C162 C 0.65895 0.44853 0.24279 0.0
N163 N 0.66023 0.47451 0.23738 0.0
Co164 Co 0.68424 0.50356 0.25574 0.0
N165 N 0.70331 0.47754 0.27715 0.0
C166 C 0.69943 0.45088 0.27523 0.0
C167 C 0.71657 0.43822 0.29147 0.0
C168 C 0.73256 0.45797 0.30431 0.0
C169 C 0.72399 0.48163 0.2953 0.0
N170 N 0.70671 0.53268 0.27533 0.0
C171 C 0.7244 0.53145 0.29612 0.0
C172 C 0.73277 0.55642 0.30694 0.0
C173 C 0.72031 0.57416 0.2919 0.0
C174 C 0.70495 0.55896 0.27313 0.0
N175 N 0.66636 0.52929 0.23306 0.0
C176 C 0.6723 0.55572 0.23307 0.0
C177 C 0.6616 0.56761 0.21145 0.0
C178 C 0.64817 0.5476 0.19654 0.0
C179 C 0.6508 0.52455 0.21038 0.0
N180 N 0.65776 0.50685 0.28458 0.0
C181 C 0.6297 0.51187 0.33282 0.0
C182 C 0.63544 0.53381 0.31718 0.0
C183 C 0.64906 0.5308 0.29306 0.0
C184 C 0.63717 0.48737 0.32296 0.0
C185 C 0.65054 0.48529 0.29905 0.0
N186 N 0.71137 0.5003 0.22746 0.0
C187 C 0.74907 0.51803 0.20257 0.0
C188 C 0.75077 0.49381 0.18822 0.0
C189 C 0.7315 0.47347 0.19355 0.0
C190 C 0.71287 0.47682 0.21329 0.0
C191 C 0.72921 0.52092 0.22168 0.0
H192 H 0.69994 0.45982 0.21669 0.0
H193 H 0.72883 0.53995 0.23175 0.0
H194 H 0.65281 0.54813 0.28182 0.0
H195 H 0.65559 0.46597 0.29324 0.0
C196 C 0.67832 0.43844 0.25951 0.0
C197 C 0.63793 0.49871 0.20135 0.0
C198 C 0.73631 0.50749 0.30399 0.0
C199 C 0.68959 0.56861 0.2525 0.0
H200 H 0.61358 0.44558 0.19533 0.0
H201 H 0.63582 0.41225 0.22729 0.0
H202 H 0.7172 0.41715 0.29389 0.0
H203 H 0.74861 0.45512 0.31869 0.0
H204 H 0.74712 0.56125 0.32342 0.0
H205 H 0.72251 0.59552 0.2941 0.0
H206 H 0.66424 0.5882 0.2065 0.0
H207 H 0.63818 0.54985 0.1773 0.0
H208 H 0.62945 0.55314 0.32344 0.0
H209 H 0.63346 0.46963 0.33405 0.0
H210 H 0.76315 0.53468 0.19952 0.0
H211 H 0.73044 0.45459 0.18258 0.0
C212 C 0.30603 0.36655 0.98998 0.0
C213 C 0.31106 0.37495 0.96438 0.0
C214 C 0.28998 0.36503 0.94817 0.0
C215 C 0.27334 0.35135 0.9648 0.0
N216 N 0.28203 0.35263 0.99078 0.0
Co217 Co 0.26581 0.33328 0.02113 0.0
N218 N 0.23773 0.31421 0.99643 0.0
C219 C 0.23361 0.31807 0.96993 0.0
C220 C 0.21443 0.30078 0.9577 0.0
C221 C 0.20551 0.28512 0.97755 0.0
C222 C 0.21956 0.29405 1.0011 0.0
N223 N 0.25052 0.31327 0.05135 0.0
C224 C 0.22956 0.29501 0.05129 0.0
C225 C 0.22366 0.288 0.07719 0.0
C226 C 0.24223 0.30158 0.09406 0.0
C227 C 0.25817 0.31624 0.07761 0.0
N228 N 0.29327 0.35338 0.04573 0.0
C229 C 0.29505 0.35279 0.07279 0.0
C230 C 0.31733 0.3667 0.084 0.0
C231 C 0.33102 0.3761 0.06281 0.0
C232 C 0.31612 0.36754 0.03973 0.0
N233 N 0.23969 0.36103 0.02734 0.0
C234 C 0.19006 0.38397 0.03543 0.0
C235 C 0.2065 0.37699 0.05704 0.0
C236 C 0.2312 0.36656 0.05263 0.0
C237 C 0.20106 0.38221 0.0099 0.0
C238 C 0.22565 0.37101 0.0064 0.0
N239 N 0.29097 0.30484 0.01488 0.0
C240 C 0.33013 0.28109 0.0268 0.0
C241 C 0.32736 0.26585 1.00263 0.0
C242 C 0.30487 0.26937 0.98607 0.0
C243 C 0.28802 0.28924 0.99183 0.0
C244 C 0.31144 0.29998 0.03278 0.0
H245 H 0.27296 0.29171 0.97678 0.0
H246 H 0.31419 0.31069 0.05175 0.0
H247 H 0.24247 0.36204 0.07008 0.0
H248 H 0.23245 0.36991 0.98642 0.0
C249 C 0.25092 0.33506 0.95631 0.0
C250 C 0.32542 0.37073 0.0125 0.0
C251 C 0.21569 0.28258 0.02725 0.0
C252 C 0.27881 0.33474 0.08636 0.0
H253 H 0.32865 0.38618 0.95794 0.0
H254 H 0.28772 0.36648 0.92663 0.0
H255 H 0.20864 0.29882 0.93656 0.0
H256 H 0.19092 0.26855 0.9744 0.0
H257 H 0.20768 0.27432 0.08321 0.0
H258 H 0.24362 0.30121 0.11575 0.0
H259 H 0.32399 0.36797 0.10493 0.0
H260 H 0.3505 0.38664 0.06435 0.0
H261 H 0.20031 0.37836 0.07752 0.0
H262 H 0.19079 0.38897 0.99233 0.0
H263 H 0.3468 0.27896 0.04072 0.0
H264 H 0.30047 0.2573 0.96786 0.0
C265 C 0.20215 0.65874 0.48501 0.0
C266 C 0.19599 0.6495 0.45881 0.0
C267 C 0.21557 0.66016 0.44339 0.0
C268 C 0.23241 0.67521 0.46103 0.0
N269 N 0.22522 0.67425 0.48688 0.0
Co270 Co 0.24222 0.69532 0.51861 0.0
N271 N 0.26909 0.71328 0.49554 0.0
C272 C 0.27329 0.70729 0.46943 0.0
C273 C 0.29493 0.7212 0.45961 0.0
C274 C 0.30527 0.73692 0.48075 0.0
C275 C 0.28909 0.73179 0.50226 0.0
N276 N 0.25797 0.71777 0.54994 0.0
C277 C 0.27732 0.73784 0.55085 0.0
C278 C 0.28189 0.74876 0.57665 0.0
C279 C 0.26477 0.73501 0.59267 0.0
C280 C 0.2507 0.71668 0.57572 0.0
N281 N 0.21638 0.67589 0.54175 0.0
C282 C 0.21607 0.67743 0.56882 0.0
C283 C 0.19551 0.66207 0.57899 0.0
C284 C 0.18173 0.65035 0.55704 0.0
C285 C 0.19474 0.65928 0.5347 0.0
N286 N 0.26875 0.6683 0.5251 0.0
C287 C 0.31626 0.64066 0.52952 0.0
C288 C 0.30546 0.65296 0.55209 0.0
C289 C 0.28188 0.66634 0.54949 0.0
C290 C 0.30045 0.64011 0.5056 0.0
C291 C 0.27715 0.65342 0.50402 0.0
N292 N 0.21626 0.72249 0.51188 0.0
C293 C 0.17787 0.74616 0.52458 0.0
C294 C 0.17581 0.75664 0.49907 0.0
C295 C 0.1953 0.75084 0.48078 0.0
C296 C 0.21509 0.73394 0.48748 0.0
C297 C 0.19822 0.7293 0.5306 0.0
H298 H 0.22889 0.72984 0.47229 0.0
H299 H 0.19875 0.72148 0.55027 0.0
H300 H 0.27519 0.67559 0.56739 0.0
H301 H 0.26688 0.65196 0.48498 0.0
C302 C 0.25534 0.69013 0.45414 0.0
C303 C 0.18478 0.65339 0.50718 0.0
C304 C 0.29234 0.74649 0.52794 0.0
C305 C 0.23191 0.69707 0.58346 0.0
H306 H 0.1788 0.63681 0.45159 0.0
H307 H 0.2171 0.65762 0.42186 0.0
H308 H 0.302 0.72042 0.43936 0.0
H309 H 0.32244 0.75101 0.48025 0.0
H310 H 0.29645 0.76464 0.5832 0.0
H311 H 0.26309 0.73773 0.61417 0.0
H312 H 0.19013 0.66089 0.59976 0.0
H313 H 0.16356 0.6376 0.55742 0.0
H314 H 0.31521 0.65323 0.57174 0.0
H315 H 0.30565 0.63022 0.48726 0.0
H316 H 0.16334 0.75018 0.53949 0.0
H317 H 0.19504 0.75899 0.46102 0.0
C318 C 0.78644 0.84804 0.4782 0.0
C319 C 0.79107 0.8515 0.45125 0.0
C320 C 0.77043 0.83798 0.437 0.0
C321 C 0.7545 0.8269 0.45591 0.0
N322 N 0.76312 0.8333 0.48149 0.0
Co323 Co 0.7481 0.8184 0.51507 0.0
N324 N 0.72187 0.79332 0.49396 0.0
C325 C 0.71764 0.79207 0.46696 0.0
C326 C 0.6993 0.77221 0.45798 0.0
C327 C 0.6912 0.7601 0.48052 0.0
C328 C 0.70487 0.77355 0.50223 0.0
N329 N 0.73416 0.80317 0.5486 0.0
C330 C 0.71522 0.7833 0.5519 0.0
C331 C 0.71026 0.78033 0.5789 0.0
C332 C 0.7271 0.79849 0.59308 0.0
C333 C 0.74117 0.81167 0.57406 0.0
N334 N 0.77431 0.84377 0.53578 0.0
C335 C 0.7757 0.84856 0.56263 0.0
C336 C 0.79718 0.86534 0.57128 0.0
C337 C 0.81063 0.87115 0.54865 0.0
C338 C 0.79658 0.85745 0.52745 0.0
N339 N 0.71939 0.84476 0.51627 0.0
C340 C 0.66949 0.86992 0.51605 0.0
C341 C 0.68457 0.86712 0.54001 0.0
C342 C 0.70915 0.85461 0.53967 0.0
C343 C 0.68105 0.86067 0.49248 0.0
C344 C 0.70582 0.84969 0.49298 0.0
N345 N 0.77541 0.79149 0.51389 0.0
C346 C 0.8113 0.76833 0.53434 0.0
C347 C 0.81299 0.75169 0.5112 0.0
C348 C 0.79518 0.7558 0.48968 0.0
C349 C 0.77734 0.77573 0.49123 0.0
C350 C 0.79233 0.78766 0.53538 0.0
H351 H 0.76506 0.77785 0.47372 0.0
H352 H 0.79156 0.79941 0.5537 0.0
H353 H 0.71925 0.85291 0.55866 0.0
H354 H 0.71296 0.84442 0.47396 0.0
C355 C 0.73338 0.80781 0.45036 0.0
C356 C 0.80574 0.85711 0.49991 0.0
C357 C 0.70155 0.76664 0.53022 0.0
C358 C 0.76013 0.83288 0.57932 0.0
H359 H 0.80819 0.86161 0.44262 0.0
H360 H 0.76823 0.83515 0.41539 0.0
H361 H 0.69329 0.76653 0.43739 0.0
H362 H 0.67724 0.74292 0.48058 0.0
H363 H 0.69582 0.76656 0.58749 0.0
H364 H 0.72863 0.80194 0.61466 0.0
H365 H 0.80341 0.8711 0.5918 0.0
H366 H 0.82923 0.88319 0.54791 0.0
H367 H 0.67749 0.87423 0.55903 0.0
H368 H 0.67099 0.86088 0.47303 0.0
H369 H 0.82453 0.76675 0.55168 0.0
H370 H 0.79434 0.7435 0.47145 0.0
C371 C 0.50379 0.81944 0.84632 0.0
C372 C 0.4787 0.82423 0.85536 0.0
C373 C 0.46208 0.80268 0.84735 0.0
C374 C 0.47787 0.78595 0.83391 0.0
N375 N 0.50381 0.79508 0.83367 0.0
Co376 Co 0.53271 0.77917 0.81267 0.0
N377 N 0.50667 0.75287 0.79318 0.0
C378 C 0.48013 0.74963 0.79708 0.0
C379 C 0.46691 0.73118 0.77975 0.0
C380 C 0.48622 0.72171 0.76419 0.0
C381 C 0.51038 0.73458 0.7733 0.0
N382 N 0.56169 0.76398 0.7913 0.0
C383 C 0.56066 0.74337 0.77285 0.0
C384 C 0.586 0.73847 0.76444 0.0
C385 C 0.60355 0.75658 0.77792 0.0
C386 C 0.5881 0.77142 0.79388 0.0
N387 N 0.5583 0.80617 0.83207 0.0
C388 C 0.58521 0.80774 0.83088 0.0
C389 C 0.59728 0.83004 0.84385 0.0
C390 C 0.57683 0.84398 0.85302 0.0
C391 C 0.5533 0.82939 0.84514 0.0
N392 N 0.53854 0.75211 0.84046 0.0
C393 C 0.54573 0.70261 0.86335 0.0
C394 C 0.56759 0.71909 0.85637 0.0
C395 C 0.56362 0.74391 0.84591 0.0
C396 C 0.52051 0.7126 0.86157 0.0
C397 C 0.5174 0.73726 0.85031 0.0
N398 N 0.52704 0.80484 0.78468 0.0
C399 C 0.54438 0.83766 0.7548 0.0
C400 C 0.51847 0.84307 0.74696 0.0
C401 C 0.49698 0.82876 0.75766 0.0
C402 C 0.50168 0.80967 0.77619 0.0
C403 C 0.54821 0.81864 0.77381 0.0
H404 H 0.48451 0.79926 0.78366 0.0
H405 H 0.56839 0.81561 0.77972 0.0
H406 H 0.58117 0.75561 0.84147 0.0
H407 H 0.49756 0.74332 0.84885 0.0
C408 C 0.46802 0.76503 0.81642 0.0
C409 C 0.52667 0.8392 0.84889 0.0
C410 C 0.53635 0.72724 0.76377 0.0
C411 C 0.59778 0.79146 0.81262 0.0
H412 H 0.47272 0.84207 0.86539 0.0
H413 H 0.44061 0.80054 0.84904 0.0
H414 H 0.44573 0.72539 0.77846 0.0
H415 H 0.48288 0.70665 0.74823 0.0
H416 H 0.59141 0.72307 0.75048 0.0
H417 H 0.62509 0.75828 0.77674 0.0
H418 H 0.6183 0.83655 0.84453 0.0
H419 H 0.57895 0.86339 0.863 0.0
H420 H 0.58767 0.71271 0.85862 0.0
H421 H 0.50306 0.70093 0.86773 0.0
H422 H 0.56149 0.84843 0.74675 0.0
H423 H 0.4766 0.83224 0.75164 0.0
C424 C 0.55534 0.30986 0.64753 0.0
C425 C 0.58098 0.31668 0.63927 0.0
C426 C 0.59676 0.29745 0.64758 0.0
C427 C 0.58017 0.28015 0.66076 0.0
N428 N 0.55472 0.28706 0.66102 0.0
Co429 Co 0.52494 0.26863 0.67997 0.0
N430 N 0.55009 0.24845 0.70195 0.0
C431 C 0.5766 0.24769 0.69858 0.0
C432 C 0.58888 0.23173 0.71601 0.0
C433 C 0.56898 0.22177 0.73152 0.0
C434 C 0.54556 0.23229 0.72267 0.0
N435 N 0.49497 0.2495 0.69828 0.0
C436 C 0.49523 0.2328 0.71905 0.0
C437 C 0.46949 0.2237 0.72496 0.0
C438 C 0.45256 0.23458 0.70703 0.0
C439 C 0.46877 0.24975 0.6912 0.0
N440 N 0.50012 0.29059 0.65961 0.0
C441 C 0.47319 0.28714 0.65806 0.0
C442 C 0.46141 0.30657 0.64445 0.0
C443 C 0.48213 0.32352 0.63719 0.0
C444 C 0.50546 0.3135 0.64691 0.0
N445 N 0.52145 0.23974 0.65119 0.0
C446 C 0.5056 0.19354 0.6194 0.0
C447 C 0.49396 0.21739 0.61519 0.0
C448 C 0.50295 0.24026 0.63028 0.0
C449 C 0.5273 0.19411 0.63776 0.0
C450 C 0.53462 0.217 0.65348 0.0
N451 N 0.52763 0.29661 0.70816 0.0
C452 C 0.50475 0.32612 0.73637 0.0
C453 C 0.52872 0.33523 0.74954 0.0
C454 C 0.55264 0.32597 0.74057 0.0
C455 C 0.55164 0.30666 0.71954 0.0
C456 C 0.50457 0.30654 0.71643 0.0
H457 H 0.57014 0.29951 0.71302 0.0
H458 H 0.48544 0.29922 0.70822 0.0
H459 H 0.49413 0.25791 0.62471 0.0
H460 H 0.5506 0.21513 0.66772 0.0
C461 C 0.58904 0.26174 0.67845 0.0
C462 C 0.53232 0.32586 0.64303 0.0
C463 C 0.51935 0.2249 0.7334 0.0
C464 C 0.4599 0.26724 0.67226 0.0
H465 H 0.58804 0.33426 0.62936 0.0
H466 H 0.61823 0.29736 0.64619 0.0
H467 H 0.60974 0.22756 0.71709 0.0
H468 H 0.57135 0.20778 0.74712 0.0
H469 H 0.4635 0.21068 0.74067 0.0
H470 H 0.43094 0.23239 0.70624 0.0
H471 H 0.44027 0.30876 0.64109 0.0
H472 H 0.48026 0.34135 0.62624 0.0
H473 H 0.47747 0.21853 0.60082 0.0
H474 H 0.53828 0.17674 0.64067 0.0
H475 H 0.48588 0.33322 0.74239 0.0
H476 H 0.57164 0.33274 0.75031 0.0
C477 C 0.84701 0.48506 0.78856 0.0
C478 C 0.85434 0.45977 0.79341 0.0
C479 C 0.84204 0.4434 0.77359 0.0
C480 C 0.82806 0.45953 0.75767 0.0
N481 N 0.83132 0.48532 0.76579 0.0
Co482 Co 0.81364 0.51526 0.74913 0.0
N483 N 0.78866 0.49055 0.72645 0.0
C484 C 0.78671 0.46391 0.7272 0.0
C485 C 0.76478 0.45228 0.7132 0.0
C486 C 0.75243 0.47275 0.70233 0.0
C487 C 0.7683 0.49574 0.70932 0.0
N488 N 0.79718 0.54528 0.73138 0.0
C489 C 0.78205 0.54469 0.70818 0.0
C490 C 0.78324 0.56948 0.69701 0.0
C491 C 0.7977 0.58648 0.71461 0.0
C492 C 0.80581 0.57111 0.73481 0.0
N493 N 0.83722 0.53975 0.77374 0.0
C494 C 0.83822 0.56647 0.77451 0.0
C495 C 0.85192 0.57817 0.79654 0.0
C496 C 0.85952 0.55769 0.81125 0.0
C497 C 0.85039 0.5345 0.79704 0.0
N498 N 0.83982 0.51625 0.71998 0.0
C499 C 0.85841 0.52598 0.66859 0.0
C500 C 0.86392 0.54458 0.68974 0.0
C501 C 0.8549 0.53913 0.71536 0.0
C502 C 0.84674 0.50122 0.67431 0.0
C503 C 0.83829 0.49656 0.70022 0.0
N504 N 0.7871 0.51457 0.77728 0.0
C505 C 0.76135 0.53758 0.80944 0.0
C506 C 0.75359 0.51372 0.82097 0.0
C507 C 0.76178 0.49026 0.80952 0.0
C508 C 0.77831 0.49111 0.78775 0.0
C509 C 0.77805 0.53756 0.78763 0.0
H510 H 0.78422 0.47257 0.7801 0.0
H511 H 0.78394 0.55632 0.77978 0.0
H512 H 0.85928 0.55417 0.73077 0.0
H513 H 0.82934 0.47728 0.7034 0.0
C514 C 0.80643 0.45055 0.74049 0.0
C515 C 0.85406 0.50796 0.80688 0.0
C516 C 0.76577 0.52126 0.69668 0.0
C517 C 0.82399 0.57983 0.75553 0.0
H518 H 0.86612 0.45358 0.81032 0.0
H519 H 0.84137 0.42201 0.77244 0.0
H520 H 0.75862 0.43141 0.71092 0.0
H521 H 0.73422 0.47061 0.69 0.0
H522 H 0.77524 0.57492 0.67777 0.0
H523 H 0.80308 0.60726 0.71211 0.0
H524 H 0.85474 0.59906 0.80202 0.0
H525 H 0.86974 0.55975 0.83075 0.0
H526 H 0.87435 0.56351 0.68634 0.0
H527 H 0.84367 0.4857 0.65873 0.0
H528 H 0.75524 0.55619 0.8177 0.0
H529 H 0.75561 0.47129 0.81745 0.0
C530 C 0.15597 0.03972 0.78974 0.0
C531 C 0.14846 0.06504 0.79573 0.0
C532 C 0.15878 0.08087 0.77652 0.0
C533 C 0.17172 0.0644 0.75972 0.0
N534 N 0.1699 0.03893 0.76678 0.0
Co535 Co 0.1859 0.00874 0.74752 0.0
N536 N 0.2075 0.03301 0.72421 0.0
C537 C 0.20774 0.05972 0.72504 0.0
C538 C 0.22669 0.0716 0.70959 0.0
C539 C 0.23911 0.05127 0.69785 0.0
C540 C 0.22641 0.02789 0.70613 0.0
N541 N 0.20117 0.97849 0.72762 0.0
C542 C 0.21712 0.97818 0.70601 0.0
C543 C 0.21807 0.9526 0.69513 0.0
C544 C 0.20326 0.93628 0.71086 0.0
C545 C 0.19349 0.95266 0.73003 0.0
N546 N 0.16568 0.98472 0.77208 0.0
C547 C 0.165 0.95798 0.77115 0.0
C548 C 0.15402 0.94669 0.79304 0.0
C549 C 0.14771 0.96743 0.80923 0.0
C550 C 0.1545 0.99043 0.79594 0.0
N551 N 0.1557 1.00606 0.7203 0.0
C552 C 0.12542 0.99455 0.67233 0.0
C553 C 0.12418 0.97717 0.69333 0.0
C554 C 0.13896 0.98351 0.71718 0.0
C555 C 0.13912 0.01927 0.67714 0.0
C556 C 0.15363 0.02475 0.70132 0.0
N557 N 0.21575 0.01105 0.77422 0.0
C558 C 0.24117 0.99078 0.80866 0.0
C559 C 0.25351 0.01541 0.81764 0.0
C560 C 0.24708 0.03754 0.80325 0.0
C561 C 0.22786 0.03504 0.78244 0.0
C562 C 0.22335 0.98899 0.78648 0.0
H563 H 0.22283 0.05286 0.77347 0.0
H564 H 0.21541 0.96963 0.77988 0.0
H565 H 0.13712 0.96933 0.73228 0.0
H566 H 0.16388 0.04382 0.70354 0.0
C567 C 0.18993 0.07294 0.74079 0.0
C568 C 0.15004 0.01722 0.8068 0.0
C569 C 0.23177 1.00144 0.69512 0.0
C570 C 0.17729 0.94435 0.75069 0.0
H571 H 0.13741 0.07164 0.81267 0.0
H572 H 0.15829 0.10214 0.77586 0.0
H573 H 0.23115 0.09256 0.70731 0.0
H574 H 0.25561 0.05372 0.68463 0.0
H575 H 0.22811 0.94623 0.67742 0.0
H576 H 0.19973 0.91501 0.70837 0.0
H577 H 0.15216 0.92591 0.79739 0.0
H578 H 0.13974 0.96561 0.82898 0.0
H579 H 0.11252 0.95837 0.69109 0.0
H580 H 0.13997 0.03382 0.66181 0.0
H581 H 0.24477 0.97269 0.81844 0.0
H582 H 0.25655 0.05706 0.80751 0.0
C583 C 0.72166 0.17223 0.98884 0.0
C584 C 0.71705 0.16101 0.96311 0.0
C585 C 0.73484 0.17373 0.94708 0.0
C586 C 0.74955 0.19165 0.96388 0.0
N587 N 0.74257 0.19072 0.98981 0.0
Co588 Co 0.75967 0.21251 0.021 0.0
N589 N 0.78213 0.23428 0.99677 0.0
C590 C 0.78037 0.23371 0.96967 0.0
C591 C 0.79581 0.25354 0.95873 0.0
C592 C 0.80883 0.26694 0.98017 0.0
C593 C 0.80137 0.25371 0.00297 0.0
N594 N 0.77818 0.23332 0.05218 0.0
C595 C 0.80249 0.24705 0.05288 0.0
C596 C 0.81302 0.25044 0.07907 0.0
C597 C 0.79424 0.24 0.0954 0.0
C598 C 0.77384 0.22971 0.07844 0.0
N599 N 0.73574 0.1916 0.04499 0.0
C600 C 0.73473 0.19509 0.07193 0.0
C601 C 0.71325 0.18191 0.08273 0.0
C602 C 0.69926 0.16964 0.06135 0.0
C603 C 0.71343 0.17552 0.03859 0.0
N604 N 0.78822 0.18723 0.02418 0.0
C605 C 0.83757 0.16412 0.03238 0.0
C606 C 0.81892 0.16491 0.05268 0.0
C607 C 0.79449 0.17632 0.04815 0.0
C608 C 0.82978 0.17326 0.00732 0.0
C609 C 0.80512 0.18396 0.00355 0.0
N610 N 0.73159 0.23834 0.01786 0.0
C611 C 0.70028 0.26734 0.03749 0.0
C612 C 0.68983 0.27282 0.01202 0.0
C613 C 0.70147 0.26145 0.98973 0.0
C614 C 0.72173 0.24431 0.99305 0.0
C615 C 0.72114 0.25027 0.03994 0.0
H616 H 0.72879 0.23589 0.97506 0.0
H617 H 0.7283 0.24672 0.05983 0.0
H618 H 0.78138 0.17698 0.06457 0.0
H619 H 0.80081 0.19073 0.98402 0.0
C620 C 0.76631 0.21263 0.95528 0.0
C621 C 0.70454 0.16612 0.01126 0.0
C622 C 0.81598 0.25688 0.02905 0.0
C623 C 0.7531 0.21245 0.08628 0.0
H624 H 0.70168 0.14597 0.95635 0.0
H625 H 0.73583 0.1713 0.92549 0.0
H626 H 0.79822 0.25714 0.93768 0.0
H627 H 0.82338 0.28354 0.97887 0.0
H628 H 0.83273 0.25819 0.086 0.0
H629 H 0.79628 0.23802 0.1169 0.0
H630 H 0.70769 0.18228 0.10351 0.0
H631 H 0.68023 0.15852 0.06259 0.0
H632 H 0.8232 0.15718 0.07217 0.0
H633 H 0.843 0.17338 0.99065 0.0
H634 H 0.69207 0.27569 0.05546 0.0
H635 H 0.69494 0.26559 0.96949 0.0
O636 O 0.05195 0.09078 0.07984 0.0
Mn637 Mn 0.06862 0.07333 0.04455 0.0
O638 O 0.07941 0.08116 0.11149 0.0
Mn639 Mn 0.10025 0.09341 0.08492 0.0
O640 O 0.08327 0.05687 0.00746 0.0
O641 O 0.03006 0.07778 0.0293 0.0
Mn642 Mn 0.02512 0.04758 0.00968 0.0
O643 O 0.05801 0.03572 0.05781 0.0
O644 O 0.04674 0.04826 0.98113 0.0
O645 O 0.08246 0.1101 0.03144 0.0
O646 O 0.09315 0.12618 0.07201 0.0
O647 O 0.99421 0.06198 0.00419 0.0
O648 O 0.02561 0.01773 0.02977 0.0
C649 C 0.13033 0.0719 0.07485 0.0
C650 C 0.05695 0.08842 0.10502 0.0
C651 C 0.07189 0.05006 0.98425 0.0
C652 C 0.00565 0.08084 0.01979 0.0
C653 C 0.04164 0.01637 0.04978 0.0
C654 C 0.09214 0.12916 0.04701 0.0
O655 O 0.10712 0.06733 0.06126 0.0
O656 O 0.1342 0.09148 0.09239 0.0
O657 O 0.97618 0.45894 0.0789 0.0
Mn658 Mn 0.95587 0.46762 0.04319 0.0
O659 O 0.94917 0.42637 0.09103 0.0
Mn660 Mn 0.91967 0.44216 0.07839 0.0
O661 O 0.9375 0.47762 0.00506 0.0
O662 O 0.99345 0.46286 0.02813 0.0
Mn663 Mn 0.99674 0.48898 0.00597 0.0
O664 O 0.96516 0.50769 0.05295 0.0
O665 O 0.97223 0.48224 0.97845 0.0
O666 O 0.94571 0.42672 0.03347 0.0
O667 O 0.90531 0.42164 0.05005 0.0
O668 O 0.02781 0.47384 1.00279 0.0
O669 O 0.99609 0.52134 0.02423 0.0
C670 C 0.90671 0.48025 0.08235 0.0
C671 C 0.97186 0.43822 0.09204 0.0
C672 C 0.94731 0.48163 0.98167 0.0
C673 C 0.01743 0.45807 0.02007 0.0
C674 C 0.98111 0.52566 0.04371 0.0
C675 C 0.92336 0.41291 0.03567 0.0
O676 O 0.91828 0.47219 0.06037 0.0
O677 O 0.91166 0.46718 0.10324 0.0
O678 O 0.0772 0.96675 0.42022 0.0
Mn679 Mn 0.04025 0.94929 0.43102 0.0
O680 O 0.08068 0.93925 0.3865 0.0
Mn681 Mn 0.06544 0.91218 0.40533 0.0
O682 O 1.00292 0.93196 0.44311 0.0
O683 O 0.02722 0.98776 0.42585 0.0
Mn684 Mn 0.00677 0.98908 0.45486 0.0
O685 O 0.05261 0.95849 0.47032 0.0
O686 O 0.97737 0.96497 0.45245 0.0
O687 O 0.02666 0.9381 0.39014 0.0
O688 O 0.03686 0.89647 0.38735 0.0
O689 O 1.00265 0.02026 0.44017 0.0
O690 O 0.0275 0.98947 0.48654 0.0
C691 C 0.07601 0.89731 0.44116 0.0
C692 C 0.08805 0.96075 0.39845 0.0
C693 C 0.98024 0.94044 0.44932 0.0
C694 C 0.01895 0.01184 0.42272 0.0
C695 C 0.04623 0.97406 0.48935 0.0
C696 C 0.02344 0.91463 0.37864 0.0
O697 O 0.05511 0.91196 0.43928 0.0
O698 O 0.09144 0.896 0.42099 0.0
O699 O 0.93135 0.58756 0.45706 0.0
Mn700 Mn 0.95136 0.5563 0.43604 0.0
O701 O 0.93855 0.62075 0.43182 0.0
Mn702 Mn 0.92982 0.59268 0.40879 0.0
O703 O 0.97118 0.52361 0.41648 0.0
O704 O 0.94585 0.53975 0.47349 0.0
Mn705 Mn 0.97449 0.52092 0.47139 0.0
O706 O 0.98748 0.57456 0.44997 0.0
O707 O 0.96883 0.49352 0.44675 0.0
O708 O 0.91588 0.53765 0.42079 0.0
O709 O 0.89715 0.57451 0.41359 0.0
O710 O 0.96261 0.51231 0.50301 0.0
O711 O 0.00617 0.54253 0.47162 0.0
C712 C 0.952 0.58775 0.37683 0.0
C713 C 0.9316 0.61271 0.45401 0.0
C714 C 0.97279 0.4992 0.42292 0.0
C715 C 0.94435 0.5281 0.49668 0.0
C716 C 0.00733 0.56575 0.46267 0.0
C717 C 0.89572 0.54959 0.41317 0.0
O718 O 0.95805 0.5749 0.39879 0.0
O719 O 0.93118 0.60146 0.37552 0.0
O720 O 0.45658 0.94802 0.57861 0.0
Mn721 Mn 0.4347 0.95437 0.54368 0.0
O722 O 0.43691 0.9102 0.58627 0.0
Mn723 Mn 0.40651 0.92347 0.57138 0.0
O724 O 0.41383 0.96338 0.50719 0.0
O725 O 0.47234 0.95138 0.5261 0.0
Mn726 Mn 0.47198 0.98165 0.50883 0.0
O727 O 0.44115 0.99479 0.55547 0.0
O728 O 0.44598 0.98045 0.4818 0.0
O729 O 0.42716 0.91387 0.52851 0.0
O730 O 0.38928 0.90212 0.54649 0.0
O731 O 0.50331 0.97019 0.50018 0.0
O732 O 0.47403 0.01128 0.53097 0.0
C733 C 0.38414 0.95143 0.58743 0.0
C734 C 0.45634 0.92669 0.59075 0.0
C735 C 0.4217 0.9729 0.48485 0.0
C736 C 0.49584 0.95054 0.51469 0.0
C737 C 0.45773 0.0138 0.54941 0.0
C738 C 0.40513 0.8992 0.52813 0.0
O739 O 0.39805 0.95753 0.5657 0.0
O740 O 0.38693 0.92912 0.59841 0.0
O741 O 0.53226 0.58534 0.6029 0.0
Mn742 Mn 0.55024 0.56403 0.57057 0.0
O743 O 0.55216 0.56834 0.6353 0.0
Mn744 Mn 0.57657 0.58033 0.61121 0.0
O745 O 0.56443 0.54564 0.53446 0.0
O746 O 0.51388 0.56842 0.55129 0.0
Mn747 Mn 0.50912 0.53569 0.53546 0.0
O748 O 0.53853 0.52763 0.58718 0.0
O749 O 0.52871 0.54123 0.50588 0.0
O750 O 0.56594 0.59987 0.55688 0.0
O751 O 0.57662 0.61443 0.59833 0.0
O752 O 0.47646 0.54405 0.54565 0.0
O753 O 0.51939 0.50578 0.55189 0.0
C754 C 0.60962 0.5622 0.60456 0.0
C755 C 0.53323 0.5811 0.62795 0.0
C756 C 0.55391 0.54208 0.51025 0.0
C757 C 0.48814 0.5662 0.55491 0.0
C758 C 0.53023 0.50587 0.57503 0.0
C759 C 0.57641 0.61803 0.57328 0.0
O760 O 0.58908 0.55741 0.58723 0.0
O761 O 0.60783 0.57728 0.62588 0.0
O762 O 0.59577 0.49375 0.95443 0.0
Mn763 Mn 0.55933 0.47353 0.96137 0.0
O764 O 0.60724 0.46859 0.92093 0.0
Mn765 Mn 0.58904 0.4397 0.93443 0.0
O766 O 0.52267 0.45266 0.96993 0.0
O767 O 0.54354 0.51019 0.95532 0.0
Mn768 Mn 0.52032 0.50917 0.98151 0.0
O769 O 0.56825 0.48239 1.00233 0.0
O770 O 0.49358 0.48292 0.9774 0.0
O771 O 0.548 0.46493 0.92027 0.0
O772 O 0.56289 0.42564 0.91164 0.0
O773 O 0.5143 0.53965 0.96668 0.0
O774 O 0.53854 0.51119 0.01404 0.0
C775 C 0.59618 0.42072 0.96855 0.0
C776 C 0.61052 0.48973 0.9348 0.0
C777 C 0.49893 0.45902 0.97479 0.0
C778 C 0.53355 0.5333 0.95153 0.0
C779 C 0.55843 0.498 0.01967 0.0
C780 C 0.54705 0.44303 0.90635 0.0
O781 O 0.57664 0.43715 0.96797 0.0
O782 O 0.61209 0.41939 0.94873 0.0
O783 O 0.45309 0.1089 0.95315 0.0
Mn784 Mn 0.47304 0.07613 0.93517 0.0
O785 O 0.46589 0.14036 0.92825 0.0
Mn786 Mn 0.45582 0.11242 0.905 0.0
O787 O 0.4916 0.04112 0.91853 0.0
O788 O 0.46104 0.06075 0.97176 0.0
Mn789 Mn 0.48493 0.03695 0.97205 0.0
O790 O 0.50979 0.09047 0.95308 0.0
O791 O 0.47573 0.01179 0.94562 0.0
O792 O 0.43744 0.05946 0.91884 0.0
O793 O 0.42145 0.09659 0.90767 0.0
O794 O 0.46898 0.03088 1.00272 0.0
O795 O 0.51914 0.05387 0.97426 0.0
C796 C 0.48056 0.10734 0.87535 0.0
C797 C 0.45491 0.13384 0.94928 0.0
C798 C 0.48658 0.01646 0.92392 0.0
C799 C 0.45498 0.04976 0.99456 0.0
C800 C 0.52576 0.07731 0.96721 0.0
C801 C 0.41784 0.07226 0.91168 0.0
O802 O 0.48486 0.09459 0.89808 0.0
O803 O 0.45913 0.11967 0.87152 0.0
H804 H 0.04761 0.16401 0.39317 0.0
H805 H 0.02081 0.14448 0.31087 0.0
H806 H 0.02098 0.09678 0.31961 0.0
H807 H 0.0899 0.10747 0.40216 0.0
H808 H 0.07993 0.10281 0.43612 0.0
H809 H 0.08081 0.1353 0.42261 0.0
H810 H 0.03128 0.13918 0.43404 0.0
H811 H 0.03038 0.10688 0.44779 0.0
H812 H 0.00649 0.11381 0.42162 0.0
H813 H 0.02097 0.04994 0.33865 0.0
H814 H 0.01669 0.01063 0.36695 0.0
H815 H 0.04228 0.0604 0.43682 0.0
C816 C 0.0423 0.14968 0.37687 0.0
C817 C 0.03439 0.15821 0.35119 0.0
C818 C 0.02697 0.13861 0.33067 0.0
C819 C 0.02713 0.11136 0.33544 0.0
C820 C 0.03463 0.10353 0.36101 0.0
C821 C 0.04194 0.12221 0.38144 0.0
C822 C 0.04686 0.10867 0.40771 0.0
C823 C 0.07612 0.11388 0.41773 0.0
C824 C 0.0276 0.11766 0.42904 0.0
C825 C 0.04074 0.07964 0.39904 0.0
C826 C 0.03417 0.07691 0.37192 0.0
C827 C 0.02647 0.05193 0.35984 0.0
C828 C 0.02444 0.0295 0.37599 0.0
C829 C 0.02992 0.03206 0.40404 0.0
C830 C 0.03879 0.05751 0.41532 0.0
H831 H 0.99226 0.36928 0.3253 0.0
H832 H 0.03859 0.34399 0.39344 0.0
H833 H 0.03571 0.3876 0.41617 0.0
H834 H 0.01641 0.43981 0.32924 0.0
H835 H 0.98422 0.45203 0.32182 0.0
H836 H 0.99186 0.41986 0.30873 0.0
H837 H 0.95021 0.39849 0.33063 0.0
H838 H 0.9423 0.43059 0.34349 0.0
H839 H 0.94599 0.40408 0.36611 0.0
H840 H 0.03207 0.43457 0.42988 0.0
H841 H 0.01587 0.47757 0.44217 0.0
H842 H 0.96283 0.47227 0.37117 0.0
C843 C 1.00193 0.37307 0.34495 0.0
C844 C 0.0171 0.3534 0.35688 0.0
C845 C 0.02828 0.35893 0.38312 0.0
C846 C 0.02663 0.38373 0.39628 0.0
C847 C 0.0127 0.40293 0.38362 0.0
C848 C 0.99959 0.39773 0.35902 0.0
C849 C 0.98371 0.42144 0.35162 0.0
C850 C 0.99469 0.43402 0.32634 0.0
C851 C 0.95376 0.41315 0.34775 0.0
C852 C 0.98943 0.44031 0.37631 0.0
C853 C 0.00733 0.42938 0.39362 0.0
C854 C 0.0176 0.44305 0.41678 0.0
C855 C 0.00835 0.46778 0.42343 0.0
C856 C 0.98778 0.4787 0.40799 0.0
C857 C 0.97866 0.46492 0.38346 0.0
H858 H 0.01049 0.88283 0.12599 0.0
H859 H 0.06494 0.84704 0.07186 0.0
H860 H 0.07623 0.89055 0.0534 0.0
H861 H 0.98436 0.92656 0.07957 0.0
H862 H 0.98209 0.95354 0.10383 0.0
H863 H 0.97976 0.91997 0.11445 0.0
H864 H 0.01891 0.93144 0.14913 0.0
H865 H 0.02141 0.96507 0.13851 0.0
H866 H 0.05025 0.94581 0.13796 0.0
H867 H 0.08079 0.93703 0.03973 0.0
H868 H 0.07574 0.98366 0.02918 0.0
H869 H 0.01703 0.98972 0.09039 0.0
C870 C 0.02465 0.88411 0.11013 0.0
C871 C 0.03691 0.86145 0.10048 0.0
C872 C 0.05559 0.8641 0.07991 0.0
C873 C 0.06213 0.88874 0.06926 0.0
C874 C 0.04984 0.91062 0.07934 0.0
C875 C 0.03139 0.9086 0.09919 0.0
C876 C 0.0203 0.93514 0.10557 0.0
C877 C 0.98982 0.93371 0.10054 0.0
C878 C 0.02819 0.94493 0.13451 0.0
C879 C 0.03464 0.95211 0.08544 0.0
C880 C 0.05205 0.93761 0.07099 0.0
C881 C 0.06735 0.94863 0.05098 0.0
C882 C 0.06441 0.97505 0.04518 0.0
C883 C 0.04619 0.98999 0.05915 0.0
C884 C 0.03128 0.97858 0.07971 0.0
H885 H 0.01393 0.65627 0.13744 0.0
H886 H 0.98775 0.69979 0.06942 0.0
H887 H 0.9753 0.65768 0.0439 0.0
H888 H 0.04335 0.6053 0.09745 0.0
H889 H 0.034 0.57923 0.11957 0.0
H890 H 0.04 0.61276 0.13275 0.0
H891 H 0.99292 0.61039 0.15254 0.0
H892 H 0.98669 0.57692 0.13918 0.0
H893 H 0.964 0.60163 0.13072 0.0
H894 H 0.96582 0.61205 0.02597 0.0
H895 H 0.96361 0.56422 0.01422 0.0
H896 H 0.99654 0.54905 0.0932 0.0
C897 C 0.00567 0.65673 0.11712 0.0
C898 C 1.00136 0.681 0.1053 0.0
C899 C 0.99088 0.68122 0.07867 0.0
C900 C 0.98368 0.6575 0.06417 0.0
C901 C 0.98755 0.63383 0.07653 0.0
C902 C 0.99867 0.63315 0.10221 0.0
C903 C 1.00189 0.60491 0.11009 0.0
C904 C 0.03157 0.60028 0.11526 0.0
C905 C 0.98538 0.59807 0.13458 0.0
C906 C 0.99061 0.58986 0.08484 0.0
C907 C 0.98236 0.60708 0.06589 0.0
C908 C 0.97211 0.59831 0.0406 0.0
C909 C 0.97087 0.57122 0.03413 0.0
C910 C 0.97965 0.55326 0.05291 0.0
C911 C 0.98926 0.56253 0.07876 0.0
H912 H 0.36988 0.01183 0.11701 0.0
H913 H 0.40318 0.08625 0.15492 0.0
H914 H 0.41835 0.10046 0.11148 0.0
H915 H 0.42649 1.00378 0.0779 0.0
H916 H 0.40748 0.9877 0.0498 0.0
H917 H 0.39528 0.98523 0.08313 0.0
H918 H 0.35094 1.00372 0.06681 0.0
H919 H 0.36339 0.00688 0.03353 0.0
H920 H 0.35173 0.03526 0.05127 0.0
H921 H 0.43298 0.1062 0.06371 0.0
H922 H 0.45305 0.09854 0.01958 0.0
H923 H 0.41441 0.01949 0.01395 0.0
C924 C 0.38037 0.03113 0.11662 0.0
C925 C 0.38435 0.0479 0.14016 0.0
C926 C 0.39843 0.07302 0.13768 0.0
C927 C 0.40743 0.08143 0.11281 0.0
C928 C 0.40285 0.0645 0.09023 0.0
C929 C 0.39019 0.03961 0.09207 0.0
C930 C 0.3909 0.02382 0.06566 0.0
C931 C 0.40594 0.99866 0.06934 0.0
C932 C 0.36255 0.01703 0.05361 0.0
C933 C 0.40634 0.04356 0.04885 0.0
C934 C 0.41244 0.06723 0.06311 0.0
C935 C 0.42805 0.08784 0.05226 0.0
C936 C 0.43905 0.08354 0.02695 0.0
C937 C 0.43471 0.0587 0.01304 0.0
C938 C 0.41725 0.03899 0.02373 0.0
H939 H 0.64003 0.467 0.15511 0.0
H940 H 0.59379 0.52576 0.19392 0.0
H941 H 0.56967 0.53177 0.15102 0.0
H942 H 0.64775 0.49028 0.09339 0.0
H943 H 0.63933 0.46045 0.0731 0.0
H944 H 0.65201 0.45837 0.10709 0.0
H945 H 0.61042 0.4287 0.11882 0.0
H946 H 0.59807 0.42988 0.08452 0.0
H947 H 0.57756 0.43951 0.11167 0.0
H948 H 0.55903 0.53881 0.10423 0.0
H949 H 0.54791 0.53624 0.0562 0.0
H950 H 0.59355 0.46675 0.0467 0.0
C951 C 0.62422 0.48049 0.15462 0.0
C952 C 0.61942 0.49687 0.17736 0.0
C953 C 0.59823 0.51378 0.1764 0.0
C954 C 0.58447 0.51729 0.15221 0.0
C955 C 0.59091 0.50231 0.12972 0.0
C956 C 0.60897 0.48304 0.13088 0.0
C957 C 0.61039 0.46866 0.10362 0.0
C958 C 0.63909 0.46953 0.09373 0.0
C959 C 0.5984 0.43999 0.10472 0.0
C960 C 0.59251 0.48496 0.08662 0.0
C961 C 0.58168 0.50419 0.1024 0.0
C962 C 0.56625 0.52311 0.09173 0.0
C963 C 0.5602 0.52148 0.0643 0.0
C964 C 0.5691 0.50075 0.0477 0.0
C965 C 0.5861 0.48256 0.05891 0.0
H966 H 0.39094 0.02719 0.34042 0.0
H967 H 0.3226 0.97033 0.32996 0.0
H968 H 0.33086 0.95549 0.37617 0.0
H969 H 0.43328 0.993 0.37932 0.0
H970 H 0.44477 0.02046 0.4018 0.0
H971 H 0.43295 0.02643 0.3683 0.0
H972 H 0.3983 0.05715 0.38728 0.0
H973 H 0.41018 0.05142 0.42095 0.0
H974 H 0.37529 0.04488 0.41157 0.0
H975 H 0.34924 0.94559 0.42466 0.0
H976 H 0.37477 0.94296 0.46813 0.0
H977 H 0.4273 0.00966 0.44689 0.0
C978 C 0.37696 0.01241 0.3481 0.0
C979 C 0.35563 1.00051 0.33155 0.0
C980 C 0.33893 0.98002 0.34223 0.0
C981 C 0.34343 0.97149 0.36855 0.0
C982 C 0.3644 0.98404 0.38448 0.0
C983 C 0.3805 1.00444 0.37465 0.0
C984 C 0.40125 0.01534 0.39572 0.0
C985 C 0.42974 0.01368 0.38567 0.0
C986 C 0.39595 0.04389 0.40438 0.0
C987 C 0.3957 0.99677 0.41828 0.0
C988 C 0.37412 0.97902 0.41186 0.0
C989 C 0.36598 0.95969 0.42984 0.0
C990 C 0.38049 0.95835 0.45462 0.0
C991 C 0.40311 0.97602 0.46112 0.0
C992 C 0.4102 0.99571 0.44269 0.0
H993 H 0.6352 0.55146 0.37398 0.0
H994 H 0.59203 0.47625 0.35111 0.0
H995 H 0.57341 0.47452 0.39578 0.0
H996 H 0.64952 0.53816 0.4437 0.0
H997 H 0.64322 0.5707 0.45671 0.0
H998 H 0.65476 0.56635 0.4231 0.0
H999 H 0.61395 0.58901 0.40408 0.0
H1000 H 0.60256 0.59384 0.43766 0.0
H1001 H 0.58075 0.57674 0.41218 0.0
H1002 H 0.56069 0.47891 0.44255 0.0
H1003 H 0.54649 0.49378 0.48701 0.0
H1004 H 0.59341 0.56822 0.48086 0.0
C1005 C 0.62162 0.53478 0.3783 0.0
C1006 C 0.61585 0.51354 0.359 0.0
C1007 C 0.59771 0.49228 0.3656 0.0
C1008 C 0.5869 0.4911 0.39101 0.0
C1009 C 0.59382 0.5116 0.40981 0.0
C1010 C 0.61011 0.53345 0.40374 0.0
C1011 C 0.61267 0.5534 0.4276 0.0
C1012 C 0.64178 0.55738 0.43841 0.0
C1013 C 0.60183 0.57981 0.41992 0.0
C1014 C 0.59504 0.53932 0.44772 0.0
C1015 C 0.58503 0.51494 0.437 0.0
C1016 C 0.56832 0.49797 0.45118 0.0
C1017 C 0.56055 0.50649 0.47654 0.0
C1018 C 0.56914 0.53191 0.48759 0.0
C1019 C 0.58711 0.54842 0.47322 0.0
H1020 H 0.14743 0.38546 0.99767 0.0
H1021 H 0.1675 0.403 0.08247 0.0
H1022 H 0.12182 0.41482 0.08915 0.0
H1023 H 0.11083 0.4425 0.99118 0.0
H1024 H 0.08719 0.4268 0.96651 0.0
H1025 H 0.12049 0.41597 0.96929 0.0
H1026 H 0.10069 0.36818 0.97579 0.0
H1027 H 0.0673 0.3791 0.97367 0.0
H1028 H 0.0782 0.36191 1.0026 0.0
H1029 H 0.07394 0.4289 0.08639 0.0
H1030 H 0.03255 0.44949 0.07235 0.0
H1031 H 0.04429 0.42467 0.98994 0.0
C1032 C 0.14273 0.39184 0.01777 0.0
C1033 C 0.16198 0.39252 0.03947 0.0
C1034 C 0.15375 0.40108 0.06528 0.0
C1035 C 0.12751 0.40811 0.06943 0.0
C1036 C 0.10931 0.40704 0.04764 0.0
C1037 C 0.1168 0.39956 0.02221 0.0
C1038 C 0.09456 0.40305 1.00153 0.0
C1039 C 0.10381 0.42328 0.98093 0.0
C1040 C 0.08461 0.37646 0.98758 0.0
C1041 C 0.07346 0.41371 0.01929 0.0
C1042 C 0.08209 0.41555 0.04593 0.0
C1043 C 0.06681 0.42706 0.06563 0.0
C1044 C 0.04294 0.43825 0.05763 0.0
C1045 C 0.03458 0.43774 0.03025 0.0
C1046 C 0.04962 0.42439 0.01116 0.0
H1047 H 0.15842 0.60495 0.5135 0.0
H1048 H 0.14774 0.68366 0.48605 0.0
H1049 H 0.10092 0.66992 0.47174 0.0
H1050 H 0.11985 0.56968 0.46057 0.0
H1051 H 0.1055 0.54471 0.48157 0.0
H1052 H 0.13783 0.56092 0.49049 0.0
H1053 H 0.12107 0.57498 0.53714 0.0
H1054 H 0.08872 0.5587 0.5284 0.0
H1055 H 0.09155 0.59317 0.53912 0.0
H1056 H 0.05622 0.64725 0.45898 0.0
H1057 H 0.01556 0.61769 0.45004 0.0
H1058 H 0.05497 0.5536 0.48651 0.0
C1059 C 0.14595 0.61929 0.50491 0.0
C1060 C 0.15622 0.6454 0.50114 0.0
C1061 C 0.13983 0.66365 0.4893 0.0
C1062 C 0.11336 0.65601 0.48108 0.0
C1063 C 0.10374 0.63005 0.48491 0.0
C1064 C 0.11942 0.61199 0.49667 0.0
C1065 C 0.10423 0.58524 0.49811 0.0
C1066 C 0.11766 0.56389 0.4817 0.0
C1067 C 0.10121 0.57758 0.52744 0.0
C1068 C 0.07764 0.59107 0.48518 0.0
C1069 C 0.07782 0.617 0.47766 0.0
C1070 C 0.05575 0.62693 0.46491 0.0
C1071 C 0.03276 0.60993 0.45987 0.0
C1072 C 0.03199 0.58329 0.46762 0.0
C1073 C 0.05483 0.57385 0.48041 0.0
H1074 H 0.82572 0.90102 0.47393 0.0
H1075 H 0.85025 0.8318 0.51366 0.0
H1076 H 0.89749 0.844 0.50347 0.0
H1077 H 0.87264 0.89834 0.42032 0.0
H1078 H 0.87846 0.93376 0.41954 0.0
H1079 H 0.84681 0.91942 0.42992 0.0
H1080 H 0.85232 0.94704 0.47486 0.0
H1081 H 0.88382 0.96162 0.46448 0.0
H1082 H 0.88209 0.94507 0.49577 0.0
H1083 H 0.94264 0.86377 0.48727 0.0
H1084 H 0.98111 0.89128 0.47096 0.0
H1085 H 0.92683 0.94799 0.44287 0.0
C1086 C 0.84108 0.88841 0.48035 0.0
C1087 C 0.83432 0.86524 0.49426 0.0
C1088 C 0.855 0.84949 0.50278 0.0
C1089 C 0.88186 0.85625 0.49698 0.0
C1090 C 0.88784 0.87893 0.48268 0.0
C1091 C 0.86798 0.89488 0.4747 0.0
C1092 C 0.87961 0.91839 0.45996 0.0
C1093 C 0.86873 0.91742 0.4307 0.0
C1094 C 0.87414 0.94457 0.47466 0.0
C1095 C 0.90914 0.91357 0.46132 0.0
C1096 C 0.91354 0.89048 0.47408 0.0
C1097 C 0.93932 0.88189 0.47729 0.0
C1098 C 0.96108 0.89754 0.46777 0.0
C1099 C 0.95709 0.92179 0.45556 0.0
C1100 C 0.93063 0.92958 0.45212 0.0
H1101 H 0.35444 0.63825 0.573 0.0
H1102 H 0.34278 0.61591 0.48758 0.0
H1103 H 0.38823 0.60484 0.48627 0.0
H1104 H 0.4251 0.66219 0.57154 0.0
H1105 H 0.43454 0.64698 0.60217 0.0
H1106 H 0.40121 0.65766 0.59742 0.0
H1107 H 0.38099 0.61057 0.60605 0.0
H1108 H 0.41415 0.59996 0.61148 0.0
H1109 H 0.39168 0.58273 0.58663 0.0
H1110 H 0.43643 0.60074 0.49124 0.0
H1111 H 0.4785 0.5832 0.50625 0.0
H1112 H 0.45801 0.59611 0.58929 0.0
C1113 C 0.36101 0.6314 0.55375 0.0
C1114 C 0.34391 0.62998 0.53009 0.0
C1115 C 0.35436 0.61929 0.50606 0.0
C1116 C 0.38084 0.61277 0.50483 0.0
C1117 C 0.39716 0.61611 0.52783 0.0
C1118 C 0.38746 0.62374 0.5522 0.0
C1119 C 0.4086 0.62127 0.57457 0.0
C1120 C 0.41789 0.64865 0.58718 0.0
C1121 C 0.39823 0.60249 0.59593 0.0
C1122 C 0.43095 0.60985 0.55878 0.0
C1123 C 0.42434 0.60903 0.53165 0.0
C1124 C 0.44178 0.6009 0.51246 0.0
C1125 C 0.4659 0.59142 0.52122 0.0
C1126 C 0.47161 0.58835 0.5489 0.0
C1127 C 0.45438 0.59863 0.56805 0.0
H1128 H 0.53898 0.683 0.91328 0.0
H1129 H 0.55984 0.6602 0.83263 0.0
H1130 H 0.56347 0.61389 0.84625 0.0
H1131 H 0.58437 0.64015 0.94734 0.0
H1132 H 0.56144 0.63327 0.9736 0.0
H1133 H 0.5616 0.66438 0.95732 0.0
H1134 H 0.51102 0.65581 0.94503 0.0
H1135 H 0.51068 0.62487 0.96145 0.0
H1136 H 0.49925 0.62558 0.92684 0.0
H1137 H 0.56134 0.56791 0.86964 0.0
H1138 H 0.55319 0.52989 0.89942 0.0
H1139 H 0.53725 0.58516 0.96435 0.0
C1140 C 0.54453 0.66827 0.89859 0.0
C1141 C 0.54913 0.67512 0.87193 0.0
C1142 C 0.55637 0.65532 0.85323 0.0
C1143 C 0.55848 0.62897 0.86082 0.0
C1144 C 0.55378 0.62275 0.88738 0.0
C1145 C 0.54723 0.64209 0.90596 0.0
C1146 C 0.54283 0.63069 0.93313 0.0
C1147 C 0.56381 0.64285 0.95408 0.0
C1148 C 0.51425 0.63445 0.94212 0.0
C1149 C 0.547 0.60183 0.92691 0.0
C1150 C 0.55346 0.59729 0.90055 0.0
C1151 C 0.55662 0.57147 0.89042 0.0
C1152 C 0.55221 0.54993 0.90748 0.0
C1153 C 0.54468 0.55447 0.93427 0.0
C1154 C 0.54303 0.58089 0.94399 0.0
H1155 H 0.51362 0.88746 0.82727 0.0
H1156 H 0.53239 0.85106 0.90218 0.0
H1157 H 0.52836 0.89368 0.9268 0.0
H1158 H 0.54902 0.95314 0.84708 0.0
H1159 H 0.52484 0.97209 0.83037 0.0
H1160 H 0.53068 0.93931 0.81754 0.0
H1161 H 0.48047 0.92522 0.82031 0.0
H1162 H 0.47444 0.95793 0.83296 0.0
H1163 H 0.46424 0.92952 0.85174 0.0
H1164 H 0.52577 0.93963 0.94324 0.0
H1165 H 0.51445 0.98472 0.95366 0.0
H1166 H 0.49044 0.99375 0.87011 0.0
C1167 C 0.51698 0.88866 0.84885 0.0
C1168 C 0.52379 0.86587 0.86286 0.0
C1169 C 0.52766 0.86817 0.89106 0.0
C1170 C 0.52547 0.89238 0.90518 0.0
C1171 C 0.51931 0.9145 0.89096 0.0
C1172 C 0.51467 0.91301 0.8635 0.0
C1173 C 0.50732 0.94012 0.85385 0.0
C1174 C 0.52925 0.95185 0.83614 0.0
C1175 C 0.47997 0.93806 0.83884 0.0
C1176 C 0.50689 0.95642 0.88042 0.0
C1177 C 0.51528 0.94122 0.90113 0.0
C1178 C 0.5187 0.95152 0.92727 0.0
C1179 C 0.51225 0.97748 0.93291 0.0
C1180 C 0.50096 0.99323 0.91301 0.0
C1181 C 0.49897 0.98264 0.88596 0.0
H1182 H 0.51894 0.37505 0.6621 0.0
H1183 H 0.55175 0.33527 0.59354 0.0
H1184 H 0.55919 0.37805 0.57207 0.0
H1185 H 0.4826 0.41946 0.62247 0.0
H1186 H 0.48742 0.44708 0.64643 0.0
H1187 H 0.48697 0.41376 0.65775 0.0
H1188 H 0.53349 0.42434 0.68134 0.0
H1189 H 0.53411 0.45767 0.66992 0.0
H1190 H 0.56094 0.43711 0.66215 0.0
H1191 H 0.56263 0.42409 0.55757 0.0
H1192 H 0.55647 0.4704 0.54749 0.0
H1193 H 0.51876 0.48207 0.62359 0.0
C1194 C 0.52789 0.37552 0.64267 0.0
C1195 C 0.53572 0.35195 0.62989 0.0
C1196 C 0.5465 0.35315 0.60408 0.0
C1197 C 0.55076 0.37737 0.59173 0.0
C1198 C 0.54348 0.40029 0.60507 0.0
C1199 C 0.53181 0.39964 0.62972 0.0
C1200 C 0.52379 0.42705 0.63842 0.0
C1201 C 0.49339 0.42682 0.64144 0.0
C1202 C 0.53899 0.43713 0.66451 0.0
C1203 C 0.53268 0.44313 0.61473 0.0
C1204 C 0.54435 0.42715 0.59601 0.0
C1205 C 0.55356 0.43678 0.57205 0.0
C1206 C 0.55001 0.46316 0.56655 0.0
C1207 C 0.5373 0.47987 0.58477 0.0
C1208 C 0.52898 0.46989 0.60952 0.0
H1209 H 0.50542 0.14275 0.63788 0.0
H1210 H 0.48178 0.18656 0.56866 0.0
H1211 H 0.46156 0.1454 0.54684 0.0
H1212 H 0.52538 0.08687 0.59899 0.0
H1213 H 0.51427 0.06316 0.62294 0.0
H1214 H 0.52497 0.09649 0.63415 0.0
H1215 H 0.47957 0.10081 0.65651 0.0
H1216 H 0.46853 0.06763 0.64486 0.0
H1217 H 0.44897 0.09487 0.63651 0.0
H1218 H 0.44454 0.10019 0.53197 0.0
H1219 H 0.43763 0.0522 0.52174 0.0
H1220 H 0.47507 0.03652 0.59853 0.0
C1221 C 0.49628 0.14383 0.61802 0.0
C1222 C 0.4949 0.1683 0.60533 0.0
C1223 C 0.48247 0.16846 0.57936 0.0
C1224 C 0.47098 0.14509 0.56667 0.0
C1225 C 0.47232 0.12157 0.57998 0.0
C1226 C 0.48512 0.12061 0.6048 0.0
C1227 C 0.48539 0.09236 0.61378 0.0
C1228 C 0.51421 0.08425 0.61767 0.0
C1229 C 0.46967 0.08871 0.63944 0.0
C1230 C 0.47102 0.07758 0.58987 0.0
C1231 C 0.46319 0.095 0.57092 0.0
C1232 C 0.45033 0.08635 0.54671 0.0
C1233 C 0.44626 0.05913 0.5412 0.0
C1234 C 0.45518 0.04091 0.55968 0.0
C1235 C 0.46725 0.05015 0.58457 0.0
H1236 H 0.90771 0.5252 0.64862 0.0
H1237 H 0.82582 0.53842 0.62638 0.0
H1238 H 0.83863 0.54516 0.5792 0.0
H1239 H 0.94082 0.57151 0.6048 0.0
H1240 H 0.96657 0.54956 0.59734 0.0
H1241 H 0.95075 0.54838 0.62917 0.0
H1242 H 0.93792 0.49822 0.62042 0.0
H1243 H 0.95372 0.49926 0.58863 0.0
H1244 H 0.9192 0.48719 0.59007 0.0
H1245 H 0.86181 0.54775 0.5326 0.0
H1246 H 0.89155 0.54328 0.49371 0.0
H1247 H 0.95673 0.52847 0.5492 0.0
C1248 C 0.89264 0.53001 0.63386 0.0
C1249 C 0.86598 0.53168 0.64093 0.0
C1250 C 0.84648 0.53732 0.62113 0.0
C1251 C 0.8536 0.5412 0.59438 0.0
C1252 C 0.88025 0.53919 0.58786 0.0
C1253 C 0.89933 0.53362 0.60723 0.0
C1254 C 0.92608 0.53037 0.59531 0.0
C1255 C 0.9473 0.55121 0.60737 0.0
C1256 C 0.93472 0.50209 0.59881 0.0
C1257 C 0.91939 0.53517 0.56626 0.0
C1258 C 0.89297 0.54027 0.56194 0.0
C1259 C 0.88258 0.54391 0.53593 0.0
C1260 C 0.89955 0.54151 0.51396 0.0
C1261 C 0.92637 0.53532 0.51837 0.0
C1262 C 0.93626 0.53299 0.54497 0.0
H1263 H 0.09821 0.02417 0.63682 0.0
H1264 H 0.12778 0.94647 0.64624 0.0
H1265 H 0.11134 0.93314 0.6002 0.0
H1266 H 0.03861 1.00329 0.59825 0.0
H1267 H 0.04071 0.0311 0.5768 0.0
H1268 H 0.05482 0.03448 0.61055 0.0
H1269 H 0.1007 0.05025 0.59219 0.0
H1270 H 0.08672 0.0468 0.55836 0.0
H1271 H 0.11584 0.02976 0.56749 0.0
H1272 H 0.09312 0.92869 0.5529 0.0
H1273 H 0.07125 0.93227 0.50831 0.0
H1274 H 0.0528 0.01263 0.52974 0.0
C1275 C 0.10125 1.00437 0.6292 0.0
C1276 C 0.11409 0.9863 0.64521 0.0
C1277 C 0.11753 0.96049 0.63454 0.0
C1278 C 0.10852 0.95281 0.60832 0.0
C1279 C 0.09614 0.97118 0.59305 0.0
C1280 C 0.09236 0.99636 0.60309 0.0
C1281 C 0.07832 0.01222 0.58249 0.0
C1282 C 0.05152 0.02076 0.59263 0.0
C1283 C 0.09648 0.03618 0.57468 0.0
C1284 C 0.07428 0.99182 0.5595 0.0
C1285 C 0.08512 0.96844 0.56588 0.0
C1286 C 0.08445 0.94685 0.54771 0.0
C1287 C 0.07207 0.94914 0.52241 0.0
C1288 C 0.06022 0.97271 0.51568 0.0
C1289 C 0.06146 0.99432 0.53448 0.0
H1290 H 0.83999 0.48352 0.85442 0.0
H1291 H 0.90583 0.52504 0.81599 0.0
H1292 H 0.93298 0.52557 0.85805 0.0
H1293 H 0.85172 0.51504 0.92141 0.0
H1294 H 0.84456 0.48547 0.93951 0.0
H1295 H 0.82877 0.48902 0.90692 0.0
H1296 H 0.8469 0.44523 0.88975 0.0
H1297 H 0.86248 0.44137 0.92233 0.0
H1298 H 0.88224 0.44105 0.89282 0.0
H1299 H 0.95073 0.52707 0.90366 0.0
H1300 H 0.96629 0.51782 0.94859 0.0
H1301 H 0.89399 0.46742 0.95948 0.0
C1302 C 0.8602 0.49256 0.85502 0.0
C1303 C 0.87062 0.50508 0.83214 0.0
C1304 C 0.89728 0.51608 0.8334 0.0
C1305 C 0.91278 0.51654 0.85724 0.0
C1306 C 0.90172 0.50516 0.87966 0.0
C1307 C 0.87649 0.49252 0.8788 0.0
C1308 C 0.87089 0.48032 0.90589 0.0
C1309 C 0.84759 0.49322 0.91922 0.0
C1310 C 0.86531 0.45019 0.90249 0.0
C1311 C 0.89724 0.48771 0.92171 0.0
C1312 C 0.9139 0.50301 0.90607 0.0
C1313 C 0.93833 0.51436 0.9158 0.0
C1314 C 0.94695 0.50882 0.94162 0.0
C1315 C 0.93209 0.49085 0.95764 0.0
C1316 C 0.90618 0.48082 0.94784 0.0
H1317 H 0.16419 0.04962 0.85285 0.0
H1318 H 0.10137 0.9942 0.81835 0.0
H1319 H 0.07927 0.99397 0.8616 0.0
H1320 H 0.16667 0.0286 0.92054 0.0
H1321 H 0.16876 0.06115 0.93665 0.0
H1322 H 0.18136 0.05643 0.90352 0.0
H1323 H 0.15102 0.09139 0.88538 0.0
H1324 H 0.13867 0.09657 0.91854 0.0
H1325 H 0.11561 0.08789 0.89056 0.0
H1326 H 0.06743 0.9945 0.90883 0.0
H1327 H 0.05559 0.00687 0.95444 0.0
H1328 H 0.11919 0.06973 0.95896 0.0
C1329 C 0.14571 0.03757 0.85447 0.0
C1330 C 0.13529 0.02069 0.83248 0.0
C1331 C 0.11047 0.00617 0.83513 0.0
C1332 C 0.09774 1.00595 0.85966 0.0
C1333 C 0.10919 0.02153 0.88124 0.0
C1334 C 0.13181 0.03813 0.87872 0.0
C1335 C 0.13771 0.05499 0.90471 0.0
C1336 C 0.16527 0.04999 0.91708 0.0
C1337 C 0.13563 0.08446 0.89949 0.0
C1338 C 0.11528 0.04454 0.92234 0.0
C1339 C 0.09977 0.02469 0.90823 0.0
C1340 C 0.0789 0.01052 0.91984 0.0
C1341 C 0.07247 0.01768 0.94599 0.0
C1342 C 0.08603 0.03961 0.96046 0.0
C1343 C 0.10842 0.05284 0.94869 0.0
H1344 H 0.63059 0.87885 0.55629 0.0
H1345 H 0.64634 0.89296 0.4725 0.0
H1346 H 0.60089 0.90409 0.46493 0.0
H1347 H 0.55985 0.858 0.5485 0.0
H1348 H 0.54763 0.87771 0.57552 0.0
H1349 H 0.58111 0.86677 0.57783 0.0
H1350 H 0.60248 0.91398 0.58481 0.0
H1351 H 0.5694 0.92563 0.58532 0.0
H1352 H 0.59325 0.93916 0.56239 0.0
H1353 H 0.55269 0.9073 0.46326 0.0
H1354 H 0.50977 0.92583 0.4705 0.0
H1355 H 0.52521 0.92656 0.55677 0.0
C1356 C 0.62459 0.88422 0.5363 0.0
C1357 C 0.64233 0.88205 0.51439 0.0
C1358 C 0.63333 0.89109 0.4892 0.0
C1359 C 0.60721 0.89805 0.48459 0.0
C1360 C 0.58996 0.89797 0.50569 0.0
C1361 C 0.5985 0.89319 0.5315 0.0
C1362 C 0.57614 0.89928 0.55078 0.0
C1363 C 0.56561 0.87394 0.56398 0.0
C1364 C 0.58591 0.92081 0.57208 0.0
C1365 C 0.55455 0.90893 0.5315 0.0
C1366 C 0.56275 0.90592 0.50553 0.0
C1367 C 0.54627 0.91059 0.48353 0.0
C1368 C 0.52158 0.92077 0.48793 0.0
C1369 C 0.5138 0.92805 0.51408 0.0
C1370 C 0.53019 0.92108 0.53646 0.0
H1371 H 0.66159 0.17359 0.97656 0.0
H1372 H 0.69077 0.11936 0.03407 0.0
H1373 H 0.64748 0.09319 0.03032 0.0
H1374 H 0.59343 0.17257 0.99211 0.0
H1375 H 0.58019 0.17022 0.95795 0.0
H1376 H 0.61311 0.18572 0.96549 0.0
H1377 H 0.63324 0.15362 0.93141 0.0
H1378 H 0.60029 0.13826 0.92345 0.0
H1379 H 0.62681 0.11846 0.93426 0.0
H1380 H 0.60119 0.07517 0.02351 0.0
H1381 H 0.55599 0.05974 0.0078 0.0
H1382 H 0.55643 0.12134 0.94947 0.0
C1383 C 0.65879 0.15611 0.98822 0.0
C1384 C 0.67911 0.14909 0.00657 0.0
C1385 C 0.67512 0.12565 0.02078 0.0
C1386 C 0.65065 0.11062 0.01868 0.0
C1387 C 0.63077 0.11852 1.00121 0.0
C1388 C 0.63476 0.14009 0.98544 0.0
C1389 C 0.6106 0.1425 0.96652 0.0
C1390 C 0.59862 0.16935 0.9708 0.0
C1391 C 0.61818 0.13794 0.93717 0.0
C1392 C 0.59189 0.1198 0.97537 0.0
C1393 C 0.60422 0.10643 0.99543 0.0
C1394 C 0.59146 0.08508 0.00743 0.0
C1395 C 0.56566 0.07646 0.99824 0.0
C1396 C 0.55259 0.08894 0.97699 0.0
C1397 C 0.56582 0.11127 0.96564 0.0
H1398 H 0.35632 0.41594 0.02807 0.0
H1399 H 0.35857 0.34113 0.98361 0.0
H1400 H 0.40507 0.35355 0.97112 0.0
H1401 H 0.39143 0.45603 0.98586 0.0
H1402 H 0.41004 0.47602 0.01176 0.0
H1403 H 0.37806 0.46015 0.01875 0.0
H1404 H 0.3994 0.43713 0.05887 0.0
H1405 H 0.43152 0.4531 0.05207 0.0
H1406 H 0.42756 0.41761 0.05354 0.0
H1407 H 0.45089 0.37634 0.96096 0.0
H1408 H 0.49058 0.4073 0.95427 0.0
H1409 H 0.45772 0.46551 0.00732 0.0
C1410 C 0.36692 0.40185 0.01642 0.0
C1411 C 0.35414 0.37739 0.0072 0.0
C1412 C 0.36825 0.35987 0.99109 0.0
C1413 C 0.39463 0.36672 0.98399 0.0
C1414 C 0.40677 0.39102 0.99351 0.0
C1415 C 0.3934 0.40812 0.0097 0.0
C1416 C 0.41045 0.43331 0.01684 0.0
C1417 C 0.39667 0.4578 0.00773 0.0
C1418 C 0.41765 0.43541 0.04712 0.0
C1419 C 0.43478 0.4285 1.00075 0.0
C1420 C 0.43273 0.40384 0.98783 0.0
C1421 C 0.45277 0.39562 0.97122 0.0
C1422 C 0.47523 0.41325 0.96751 0.0
C1423 C 0.47709 0.43887 0.98 0.0
C1424 C 0.45676 0.44617 0.99718 0.0
H1425 H 0.86903 0.1402 0.99557 0.0
H1426 H 0.86904 0.16589 0.07969 0.0
H1427 H 0.91488 0.15157 0.08595 0.0
H1428 H 0.90568 0.08456 1.00239 0.0
H1429 H 0.92346 0.08972 0.97204 0.0
H1430 H 0.89074 0.10154 0.97522 0.0
H1431 H 0.90971 0.14884 0.96493 0.0
H1432 H 0.94262 0.13715 0.96207 0.0
H1433 H 0.9373 0.16425 0.98529 0.0
H1434 H 0.9615 0.13117 0.08254 0.0
H1435 H 1.0006 0.10643 0.06966 0.0
H1436 H 0.97058 0.10181 0.98706 0.0
C1437 C 0.87856 0.14353 0.0153 0.0
C1438 C 0.86499 0.15449 0.037 0.0
C1439 C 0.87851 0.15724 0.06262 0.0
C1440 C 0.90482 0.14945 0.06636 0.0
C1441 C 0.9177 0.13939 0.04421 0.0
C1442 C 0.90486 0.13665 0.01918 0.0
C1443 C 0.92245 0.12531 0.99837 0.0
C1444 C 0.90984 0.09871 0.98632 0.0
C1445 C 0.92836 0.14507 0.97637 0.0
C1446 C 0.94721 0.12166 0.01552 0.0
C1447 C 0.94436 0.12966 0.04201 0.0
C1448 C 0.96407 0.12544 0.06172 0.0
C1449 C 0.98649 0.11174 0.05422 0.0
C1450 C 0.98893 0.10272 0.02725 0.0
C1451 C 0.96958 0.10897 0.00774 0.0
H1452 H 0.06938 0.21512 0.20518 0.0
H1453 H 0.00917 0.17523 0.25245 0.0
H1454 H 0.00457 0.13805 0.21875 0.0
H1455 H 0.04867 0.19703 0.14077 0.0
H1456 H 0.08039 0.18838 0.12838 0.0
H1457 H 0.07942 0.21204 0.1561 0.0
H1458 H 0.10916 0.18415 0.18555 0.0
H1459 H 0.11091 0.16075 0.15763 0.0
H1460 H 0.09952 0.14967 0.18942 0.0
H1461 H 1.00339 0.10707 0.17714 0.0
H1462 H 0.01355 0.07978 0.13669 0.0
H1463 H 0.07837 0.13704 0.12032 0.0
C1464 C 0.05577 0.19826 0.20886 0.0
C1465 C 0.0391 0.19845 0.23117 0.0
C1466 C 0.02163 0.17584 0.23515 0.0
C1467 C 0.01888 0.15462 0.21613 0.0
C1468 C 0.03477 0.15552 0.19382 0.0
C1469 C 0.05385 0.17613 0.19083 0.0
C1470 C 0.07025 0.1709 0.16646 0.0
C1471 C 0.0696 0.19344 0.14677 0.0
C1472 C 0.09916 0.16608 0.17528 0.0
C1473 C 0.05561 0.1456 0.15483 0.0
C1474 C 0.03536 0.13683 0.171 0.0
C1475 C 0.01934 0.11363 0.1644 0.0
C1476 C 0.02492 0.09843 0.14125 0.0
C1477 C 0.04615 0.1067 0.125 0.0
C1478 C 0.06137 0.13073 0.13183 0.0
H1479 H 0.02959 0.38768 0.22674 0.0
H1480 H 0.02968 0.31169 0.1841 0.0
H1481 H 0.0237 0.33323 0.1409 0.0
H1482 H 0.97931 0.4125 0.19023 0.0
H1483 H 0.99339 0.44614 0.1895 0.0
H1484 H 1.00285 0.4257 0.21634 0.0
H1485 H 0.05268 0.43457 0.20528 0.0
H1486 H 0.04322 0.45492 0.17813 0.0
H1487 H 0.06321 0.42733 0.17177 0.0
H1488 H 0.01222 0.36126 0.10361 0.0
H1489 H 0.99089 0.39296 0.07511 0.0
H1490 H 0.99699 0.45147 0.14096 0.0
C1491 C 0.02922 0.37588 0.20815 0.0
C1492 C 0.03068 0.34819 0.20843 0.0
C1493 C 0.02922 0.33301 0.18401 0.0
C1494 C 0.02594 0.3451 0.15945 0.0
C1495 C 0.02447 0.37246 0.15967 0.0
C1496 C 0.02606 0.38774 0.18334 0.0
C1497 C 0.02093 0.41628 0.17803 0.0
C1498 C 0.99773 0.42568 0.19448 0.0
C1499 C 0.04653 0.43435 0.18365 0.0
C1500 C 0.01384 0.41411 0.14814 0.0
C1501 C 0.01723 0.38887 0.13782 0.0
C1502 C 0.01017 0.38125 0.11126 0.0
C1503 C 0.99826 0.39945 0.09515 0.0
C1504 C 0.99318 0.42484 0.10566 0.0
C1505 C 1.0018 0.43259 0.13221 0.0
H1506 H 0.01855 0.80628 0.26671 0.0
H1507 H 0.0443 0.86512 0.21087 0.0
H1508 H 0.04002 0.90071 0.24598 0.0
H1509 H 0.96817 0.84098 0.29476 0.0
H1510 H 0.97374 0.83018 0.3284 0.0
H1511 H 0.98204 0.80966 0.30006 0.0
H1512 H 0.03097 0.80879 0.31837 0.0
H1513 H 0.02255 0.82825 0.34739 0.0
H1514 H 0.04992 0.83954 0.32733 0.0
H1515 H 0.03366 0.92933 0.28915 0.0
H1516 H 0.02924 0.9469 0.33579 0.0
H1517 H 0.99954 0.86915 0.35871 0.0
C1518 C 0.02396 0.82664 0.26223 0.0
C1519 C 0.03218 0.83321 0.23657 0.0
C1520 C 0.03849 0.85995 0.23081 0.0
C1521 C 0.03578 0.88018 0.25047 0.0
C1522 C 0.02629 0.87312 0.27538 0.0
C1523 C 0.02069 0.8469 0.28122 0.0
C1524 C 0.01017 0.84415 0.30893 0.0
C1525 C 0.98184 0.83044 0.30795 0.0
C1526 C 0.02954 0.82933 0.32655 0.0
C1527 C 0.01011 0.87295 0.31784 0.0
C1528 C 0.01999 0.8895 0.29859 0.0
C1529 C 0.02526 0.91664 0.30412 0.0
C1530 C 0.02211 0.92666 0.33052 0.0
C1531 C 0.01344 0.9095 0.35068 0.0
C1532 C 0.00534 0.88288 0.34348 0.0
H1533 H 0.96856 0.65721 0.24252 0.0
H1534 H 0.04789 0.6858 0.27288 0.0
H1535 H 0.0452 0.65355 0.30845 0.0
H1536 H 0.94163 0.65223 0.30615 0.0
H1537 H 0.91958 0.6235 0.29693 0.0
H1538 H 0.92969 0.64618 0.27181 0.0
H1539 H 0.94729 0.60741 0.24372 0.0
H1540 H 0.93774 0.58468 0.26917 0.0
H1541 H 0.97176 0.58742 0.25857 0.0
H1542 H 0.03166 0.62199 0.34445 0.0
H1543 H 0.00657 0.59785 0.37897 0.0
H1544 H 0.93699 0.5891 0.32474 0.0
C1545 C 0.9855 0.65665 0.25648 0.0
C1546 C 0.00859 0.67397 0.25444 0.0
C1547 C 0.0302 0.67238 0.27335 0.0
C1548 C 0.02887 0.65409 0.29377 0.0
C1549 C 0.00582 0.63734 0.29517 0.0
C1550 C 0.98446 0.6386 0.27708 0.0
C1551 C 0.96088 0.62054 0.28457 0.0
C1552 C 0.93653 0.63656 0.29022 0.0
C1553 C 0.95403 0.59871 0.2627 0.0
C1554 C 0.97212 0.60928 0.30997 0.0
C1555 C 0.99818 0.61894 0.3157 0.0
C1556 C 0.01148 0.61375 0.33987 0.0
C1557 C 0.99726 0.59966 0.35926 0.0
C1558 C 0.97007 0.59114 0.35429 0.0
C1559 C 0.95802 0.59474 0.32874 0.0
H1560 H 0.26417 0.05614 0.14869 0.0
H1561 H 0.22003 0.99483 0.19043 0.0
H1562 H 0.18411 0.99296 0.15504 0.0
H1563 H 0.2044 0.09003 0.13573 0.0
H1564 H 0.21631 0.103 0.10487 0.0
H1565 H 0.23975 0.09596 0.13126 0.0
H1566 H 0.26304 0.06598 0.09723 0.0
H1567 H 0.23872 0.07206 0.07116 0.0
H1568 H 0.24401 0.03861 0.0799 0.0
H1569 H 0.15245 0.99844 0.11582 0.0
H1570 H 0.12142 0.02026 0.08584 0.0
H1571 H 0.18367 0.08108 0.0723 0.0
C1572 C 0.24687 0.04243 0.15047 0.0
C1573 C 0.24512 0.02524 0.17207 0.0
C1574 C 0.22198 0.00782 0.17378 0.0
C1575 C 0.20163 0.00644 0.15364 0.0
C1576 C 0.20426 0.02321 0.13226 0.0
C1577 C 0.22577 0.04166 0.1312 0.0
C1578 C 0.22148 0.06066 0.10903 0.0
C1579 C 0.2204 0.08908 0.12092 0.0
C1580 C 0.24311 0.05922 0.08809 0.0
C1581 C 0.1944 0.04974 0.09747 0.0
C1582 C 0.18513 0.02767 0.11068 0.0
C1583 C 0.15957 0.01558 0.10518 0.0
C1584 C 0.14218 0.02777 0.08762 0.0
C1585 C 0.15029 0.05215 0.07659 0.0
C1586 C 0.17731 0.06199 0.07985 0.0
H1587 H 0.78186 0.53009 0.15813 0.0
H1588 H 0.77139 0.44633 0.17425 0.0
H1589 H 0.80198 0.43641 0.13911 0.0
H1590 H 0.79501 0.52065 0.08478 0.0
H1591 H 0.82088 0.54711 0.08519 0.0
H1592 H 0.7936 0.54879 0.10772 0.0
H1593 H 0.827 0.55473 0.14859 0.0
H1594 H 0.85426 0.55376 0.12619 0.0
H1595 H 0.85185 0.53105 0.15311 0.0
H1596 H 0.82966 0.43447 0.09875 0.0
H1597 H 0.86977 0.43992 0.07332 0.0
H1598 H 0.8761 0.52414 0.09356 0.0
C1599 C 0.7858 0.50961 0.15434 0.0
C1600 C 0.77219 0.48893 0.16826 0.0
C1601 C 0.77924 0.4626 0.16284 0.0
C1602 C 0.79696 0.45661 0.14281 0.0
C1603 C 0.8087 0.47713 0.12866 0.0
C1604 C 0.80464 0.50321 0.13503 0.0
C1605 C 0.82345 0.52133 0.11928 0.0
C1606 C 0.80729 0.53533 0.09801 0.0
C1607 C 0.84016 0.54138 0.13794 0.0
C1608 C 0.8405 0.50128 0.1056 0.0
C1609 C 0.82948 0.47606 0.10925 0.0
C1610 C 0.83895 0.4541 0.09633 0.0
C1611 C 0.86175 0.45763 0.08123 0.0
C1612 C 0.87703 0.48238 0.08156 0.0
C1613 C 0.86531 0.5049 0.09282 0.0
H1614 H 0.20824 0.96945 0.30183 0.0
H1615 H 0.2473 0.03211 0.35385 0.0
H1616 H 0.20843 0.03022 0.38312 0.0
H1617 H 0.14353 0.98947 0.30387 0.0
H1618 H 0.12774 0.9565 0.3047 0.0
H1619 H 0.15929 0.96181 0.28904 0.0
H1620 H 0.18035 0.92822 0.31997 0.0
H1621 H 0.14866 0.92235 0.33531 0.0
H1622 H 0.17812 0.93242 0.35586 0.0
H1623 H 0.16378 0.02084 0.40671 0.0
H1624 H 0.1196 1.00335 0.42233 0.0
H1625 H 0.11127 0.94981 0.35195 0.0
C1626 C 0.20897 0.98238 0.31968 0.0
C1627 C 0.23075 1.00087 0.32556 0.0
C1628 C 0.23062 0.01786 0.34887 0.0
C1629 C 0.20869 0.01693 0.36562 0.0
C1630 C 0.18714 0.99888 0.35877 0.0
C1631 C 0.18736 0.98178 0.33645 0.0
C1632 C 0.16194 0.9643 0.33306 0.0
C1633 C 0.14727 0.96829 0.30607 0.0
C1634 C 0.16761 0.93511 0.33625 0.0
C1635 C 0.14698 0.97477 0.3564 0.0
C1636 C 0.16173 0.99436 0.37146 0.0
C1637 C 0.15199 1.00558 0.39494 0.0
C1638 C 0.12685 0.99576 0.40356 0.0
C1639 C 0.11194 0.97527 0.38841 0.0
C1640 C 0.12198 0.96552 0.36414 0.0
H1641 H 0.75538 0.49266 0.35285 0.0
H1642 H 0.77888 0.52929 0.27939 0.0
H1643 H 0.82488 0.53797 0.29817 0.0
H1644 H 0.79059 0.53374 0.39845 0.0
H1645 H 0.80161 0.50898 0.42051 0.0
H1646 H 0.77154 0.50238 0.40006 0.0
H1647 H 0.79046 0.46009 0.3796 0.0
H1648 H 0.82082 0.46666 0.39994 0.0
H1649 H 0.82233 0.4625 0.364 0.0
H1650 H 0.86569 0.54647 0.32538 0.0
H1651 H 0.89971 0.5575 0.36125 0.0
H1652 H 0.85103 0.51524 0.41797 0.0
C1653 C 0.77056 0.50171 0.34057 0.0
C1654 C 0.76409 0.50999 0.31466 0.0
C1655 C 0.78389 0.52256 0.29919 0.0
C1656 C 0.80997 0.52738 0.30958 0.0
C1657 C 0.81588 0.51885 0.33515 0.0
C1658 C 0.79691 0.50613 0.35045 0.0
C1659 C 0.80842 0.50057 0.37797 0.0
C1660 C 0.79207 0.51214 0.40056 0.0
C1661 C 0.81063 0.47068 0.38054 0.0
C1662 C 0.83586 0.51474 0.37673 0.0
C1663 C 0.83997 0.52402 0.35134 0.0
C1664 C 0.863 0.53888 0.34516 0.0
C1665 C 0.88212 0.54508 0.36567 0.0
C1666 C 0.87779 0.53703 0.39212 0.0
C1667 C 0.85479 0.52109 0.39773 0.0
H1668 H 0.16342 0.26715 0.01106 0.0
H1669 H 0.23487 0.2392 0.04873 0.0
H1670 H 0.21122 0.19557 0.05363 0.0
H1671 H 0.11331 0.23487 0.04339 0.0
H1672 H 0.09219 0.22411 0.01445 0.0
H1673 H 0.1148 0.25304 0.013 0.0
H1674 H 0.13607 0.23258 0.97117 0.0
H1675 H 0.11347 0.20341 0.97251 0.0
H1676 H 0.14902 0.20042 0.97284 0.0
H1677 H 0.1809 0.15641 0.05524 0.0
H1678 H 0.14349 0.1234 0.05745 0.0
H1679 H 0.0908 0.17472 0.01719 0.0
C1680 C 0.17425 0.25156 0.01961 0.0
C1681 C 0.20107 0.25633 0.02922 0.0
C1682 C 0.21437 0.23583 0.04118 0.0
C1683 C 0.20123 0.21098 0.04377 0.0
C1684 C 0.1752 0.20666 0.03322 0.0
C1685 C 0.16187 0.22612 0.02103 0.0
C1686 C 0.1341 0.21564 0.0109 0.0
C1687 C 0.11233 0.23295 0.0211 0.0
C1688 C 0.13308 0.21287 0.98003 0.0
C1689 C 0.13263 0.18854 0.02278 0.0
C1690 C 0.15721 0.1835 0.03419 0.0
C1691 C 0.16162 0.16002 0.04625 0.0
C1692 C 0.14014 0.14142 0.0475 0.0
C1693 C 0.11422 0.14668 0.03789 0.0
C1694 C 0.11044 0.17023 0.02457 0.0
H1695 H 0.15429 0.79886 0.52599 0.0
H1696 H 0.14615 0.75018 0.4523 0.0
H1697 H 0.11067 0.77714 0.43563 0.0
H1698 H 0.07915 0.81306 0.5251 0.0
H1699 H 0.08671 0.84606 0.5392 0.0
H1700 H 0.10718 0.81971 0.54848 0.0
H1701 H 0.14933 0.84687 0.53371 0.0
H1702 H 0.12907 0.87323 0.52473 0.0
H1703 H 0.15005 0.85898 0.50016 0.0
H1704 H 0.07668 0.80919 0.42632 0.0
H1705 H 0.0577 0.85145 0.41787 0.0
H1706 H 0.09367 0.88493 0.49299 0.0
C1707 C 0.1445 0.79353 0.50667 0.0
C1708 C 0.15293 0.7722 0.49056 0.0
C1709 C 0.14007 0.76629 0.46506 0.0
C1710 C 0.11958 0.7813 0.45555 0.0
C1711 C 0.11183 0.80222 0.47175 0.0
C1712 C 0.1241 0.80868 0.49659 0.0
C1713 C 0.11397 0.8342 0.50827 0.0
C1714 C 0.0957 0.8279 0.53166 0.0
C1715 C 0.137 0.85453 0.51719 0.0
C1716 C 0.09743 0.843 0.48445 0.0
C1717 C 0.09443 0.82285 0.46485 0.0
C1718 C 0.079 0.82513 0.44149 0.0
C1719 C 0.06796 0.84922 0.43706 0.0
C1720 C 0.07426 0.87167 0.45464 0.0
C1721 C 0.0882 0.86817 0.47934 0.0
H1722 H 0.83283 0.72789 0.46524 0.0
H1723 H 0.83868 0.72566 0.55232 0.0
H1724 H 0.8695 0.69005 0.54824 0.0
H1725 H 0.8301 0.65639 0.45496 0.0
H1726 H 0.84761 0.65843 0.4241 0.0
H1727 H 0.82699 0.68446 0.43429 0.0
H1728 H 0.86725 0.71887 0.43123 0.0
H1729 H 0.88799 0.69301 0.42108 0.0
H1730 H 0.8979 0.71444 0.44993 0.0
H1731 H 0.9002 0.65215 0.53348 0.0
H1732 H 0.92697 0.6194 0.50966 0.0
H1733 H 0.89734 0.64627 0.43351 0.0
C1734 C 0.83983 0.7199 0.48374 0.0
C1735 C 0.83257 0.73016 0.5092 0.0
C1736 C 0.84375 0.71895 0.53243 0.0
C1737 C 0.86123 0.6983 0.53035 0.0
C1738 C 0.86728 0.68844 0.50489 0.0
C1739 C 0.85664 0.69894 0.48206 0.0
C1740 C 0.86529 0.68472 0.4569 0.0
C1741 C 0.84106 0.67015 0.44167 0.0
C1742 C 0.88052 0.70391 0.43874 0.0
C1743 C 0.88343 0.6653 0.46897 0.0
C1744 C 0.88421 0.66723 0.49668 0.0
C1745 C 0.89963 0.65063 0.51176 0.0
C1746 C 0.91474 0.63199 0.49814 0.0
C1747 C 0.91461 0.63039 0.46972 0.0
C1748 C 0.89836 0.64717 0.45527 0.0
H1749 H 0.34507 0.75927 0.54221 0.0
H1750 H 0.27279 0.7915 0.51183 0.0
H1751 H 0.2992 0.83143 0.49826 0.0
H1752 H 0.37688 0.82171 0.56991 0.0
H1753 H 0.40985 0.81321 0.56107 0.0
H1754 H 0.38476 0.78755 0.56783 0.0
H1755 H 0.39273 0.76551 0.52127 0.0
H1756 H 0.41675 0.79206 0.51377 0.0
H1757 H 0.38813 0.78386 0.49143 0.0
H1758 H 0.33343 0.86521 0.48402 0.0
H1759 H 0.36992 0.90005 0.48707 0.0
H1760 H 0.41981 0.84865 0.53036 0.0
C1761 C 0.33488 0.77521 0.53349 0.0
C1762 C 0.30701 0.77272 0.52813 0.0
C1763 C 0.29414 0.79348 0.51626 0.0
C1764 C 0.30903 0.81585 0.50802 0.0
C1765 C 0.33671 0.81706 0.51194 0.0
C1766 C 0.34944 0.79793 0.52544 0.0
C1767 C 0.37923 0.80521 0.52879 0.0
C1768 C 0.38819 0.80706 0.55867 0.0
C1769 C 0.39514 0.78547 0.51288 0.0
C1770 C 0.38097 0.83201 0.51617 0.0
C1771 C 0.35642 0.83761 0.50523 0.0
C1772 C 0.35274 0.86113 0.49263 0.0
C1773 C 0.37394 0.88061 0.49375 0.0
C1774 C 0.3976 0.87711 0.5091 0.0
C1775 C 0.40212 0.85167 0.51812 0.0
H1776 H 0.55557 0.71857 0.71265 0.0
H1777 H 0.51932 0.67805 0.77862 0.0
H1778 H 0.51141 0.63736 0.74979 0.0
H1779 H 0.51758 0.69212 0.6588 0.0
H1780 H 0.54409 0.68605 0.63634 0.0
H1781 H 0.54902 0.71167 0.66239 0.0
H1782 H 0.59087 0.69059 0.68108 0.0
H1783 H 0.58659 0.66531 0.65455 0.0
H1784 H 0.58856 0.6562 0.68907 0.0
H1785 H 0.50369 0.60221 0.71273 0.0
H1786 H 0.50487 0.57207 0.67255 0.0
H1787 H 0.54681 0.63461 0.63062 0.0
C1788 C 0.5466 0.70091 0.72116 0.0
C1789 C 0.53747 0.70163 0.74774 0.0
C1790 C 0.52605 0.67804 0.75821 0.0
C1791 C 0.5214 0.65486 0.74195 0.0
C1792 C 0.52925 0.65514 0.71545 0.0
C1793 C 0.54266 0.67716 0.70541 0.0
C1794 C 0.55033 0.67145 0.67662 0.0
C1795 C 0.53958 0.69152 0.65742 0.0
C1796 C 0.58089 0.67086 0.67524 0.0
C1797 C 0.53671 0.64388 0.67129 0.0
C1798 C 0.52522 0.63463 0.69418 0.0
C1799 C 0.51262 0.60924 0.69467 0.0
C1800 C 0.51294 0.59237 0.67162 0.0
C1801 C 0.52516 0.60107 0.64811 0.0
C1802 C 0.53657 0.62748 0.64788 0.0
H1803 H 0.53185 0.84343 0.69459 0.0
H1804 H 0.49244 0.88744 0.75593 0.0
H1805 H 0.47932 0.91931 0.7224 0.0
H1806 H 0.55352 0.90161 0.6541 0.0
H1807 H 0.54668 0.88333 0.62272 0.0
H1808 H 0.55754 0.86655 0.65192 0.0
H1809 H 0.51576 0.83359 0.6473 0.0
H1810 H 0.50498 0.84952 0.61768 0.0
H1811 H 0.48302 0.84614 0.64538 0.0
H1812 H 0.4664 0.94309 0.68199 0.0
H1813 H 0.45009 0.95425 0.63681 0.0
H1814 H 0.49521 0.89314 0.60104 0.0
C1815 C 0.52123 0.86033 0.70096 0.0
C1816 C 0.51351 0.86353 0.72771 0.0
C1817 C 0.49876 0.88512 0.73547 0.0
C1818 C 0.4914 0.90331 0.71664 0.0
C1819 C 0.49892 0.89946 0.69021 0.0
C1820 C 0.51335 0.87841 0.6823 0.0
C1821 C 0.51588 0.87681 0.65213 0.0
C1822 C 0.54515 0.88239 0.64479 0.0
C1823 C 0.50419 0.84993 0.63992 0.0
C1824 C 0.4992 0.89918 0.64416 0.0
C1825 C 0.49052 0.91265 0.66652 0.0
C1826 C 0.47353 0.9331 0.66435 0.0
C1827 C 0.46451 0.93942 0.63867 0.0
C1828 C 0.47204 0.9249 0.61573 0.0
C1829 C 0.48993 0.90492 0.61839 0.0
H1830 H 0.55663 0.38311 0.76404 0.0
H1831 H 0.49768 0.32423 0.79092 0.0
H1832 H 0.4879 0.35381 0.82882 0.0
H1833 H 0.58333 0.4015 0.82959 0.0
H1834 H 0.5897 0.43601 0.82292 0.0
H1835 H 0.58945 0.41149 0.79592 0.0
H1836 H 0.55385 0.4367 0.77047 0.0
H1837 H 0.55311 0.46056 0.79817 0.0
H1838 H 0.52272 0.44235 0.78596 0.0
H1839 H 0.48469 0.38748 0.86375 0.0
H1840 H 0.49878 0.41724 0.9025 0.0
H1841 H 0.56132 0.45426 0.85633 0.0
C1842 C 0.54174 0.37661 0.77801 0.0
C1843 C 0.52721 0.35185 0.7742 0.0
C1844 C 0.50836 0.34355 0.79315 0.0
C1845 C 0.50244 0.36029 0.81452 0.0
C1846 C 0.51582 0.38518 0.81698 0.0
C1847 C 0.5358 0.39306 0.79996 0.0
C1848 C 0.54964 0.41935 0.80976 0.0
C1849 C 0.5798 0.41692 0.81488 0.0
C1850 C 0.54452 0.44102 0.7899 0.0
C1851 C 0.53523 0.42403 0.83563 0.0
C1852 C 0.51487 0.4047 0.83852 0.0
C1853 C 0.5002 0.4031 0.86166 0.0
C1854 C 0.50801 0.42034 0.88344 0.0
C1855 C 0.53056 0.43831 0.88191 0.0
C1856 C 0.54326 0.44139 0.85732 0.0
H1857 H 0.4985 0.17298 0.73771 0.0
H1858 H 0.53779 0.23939 0.78413 0.0
H1859 H 0.54008 0.21188 0.824 0.0
H1860 H 0.45728 0.14849 0.78957 0.0
H1861 H 0.46006 0.11412 0.78016 0.0
H1862 H 0.4634 0.13875 0.7553 0.0
H1863 H 0.50938 0.12209 0.74368 0.0
H1864 H 0.50654 0.09794 0.76922 0.0
H1865 H 0.53512 0.12152 0.76972 0.0
H1866 H 0.53806 0.1769 0.85915 0.0
H1867 H 0.52265 0.14172 0.88894 0.0
H1868 H 0.48241 0.09844 0.821 0.0
C1869 C 0.50736 0.18172 0.75637 0.0
C1870 C 0.51791 0.20843 0.75788 0.0
C1871 C 0.52956 0.21905 0.78258 0.0
C1872 C 0.53118 0.20345 0.80524 0.0
C1873 C 0.52112 0.17705 0.80305 0.0
C1874 C 0.50897 0.16639 0.77936 0.0
C1875 C 0.49825 0.13797 0.78291 0.0
C1876 C 0.46795 0.13465 0.77664 0.0
C1877 C 0.51321 0.11874 0.76533 0.0
C1878 C 0.50507 0.13475 0.81259 0.0
C1879 C 0.51923 0.15717 0.82352 0.0
C1880 C 0.52718 0.15917 0.8507 0.0
C1881 C 0.51888 0.13865 0.86748 0.0
C1882 C 0.50192 0.11674 0.85741 0.0
C1883 C 0.49623 0.11428 0.82924 0.0
H1884 H 0.73224 0.56097 0.6877 0.0
H1885 H 0.75535 0.48719 0.65151 0.0
H1886 H 0.71857 0.48866 0.61727 0.0
H1887 H 0.66966 0.56542 0.67406 0.0
H1888 H 0.67111 0.59819 0.66117 0.0
H1889 H 0.69709 0.58916 0.68372 0.0
H1890 H 0.73244 0.60171 0.64883 0.0
H1891 H 0.70634 0.6107 0.62586 0.0
H1892 H 0.72922 0.5868 0.61537 0.0
H1893 H 0.66871 0.4955 0.5979 0.0
H1894 H 0.62445 0.51249 0.58654 0.0
H1895 H 0.65468 0.59046 0.61641 0.0
C1896 C 0.73107 0.54574 0.67186 0.0
C1897 C 0.74641 0.52356 0.67323 0.0
C1898 C 0.74288 0.50375 0.65215 0.0
C1899 C 0.72244 0.50468 0.63217 0.0
C1900 C 0.708 0.52716 0.63157 0.0
C1901 C 0.71406 0.54824 0.64961 0.0
C1902 C 0.69895 0.57179 0.64277 0.0
C1903 C 0.68327 0.58165 0.66684 0.0
C1904 C 0.71787 0.59406 0.6326 0.0
C1905 C 0.6808 0.55958 0.62024 0.0
C1906 C 0.68546 0.53347 0.61436 0.0
C1907 C 0.66586 0.51637 0.60069 0.0
C1908 C 0.6408 0.52613 0.59408 0.0
C1909 C 0.63637 0.55284 0.60039 0.0
C1910 C 0.65767 0.57002 0.61098 0.0
H1911 H 0.27194 0.96719 0.69366 0.0
H1912 H 0.23705 0.02698 0.64671 0.0
H1913 H 0.27315 0.02394 0.61419 0.0
H1914 H 0.33818 0.97635 0.68559 0.0
H1915 H 0.34411 0.94213 0.67856 0.0
H1916 H 0.31616 0.9503 0.69797 0.0
H1917 H 0.28383 0.92237 0.66461 0.0
H1918 H 0.3118 0.91379 0.64515 0.0
H1919 H 0.28416 0.92882 0.62937 0.0
H1920 H 0.31798 0.01475 0.58764 0.0
H1921 H 0.35852 0.99602 0.5686 0.0
H1922 H 0.35696 0.93932 0.63168 0.0
C1923 C 0.27152 0.97947 0.6764 0.0
C1924 C 0.25209 0.99811 0.67359 0.0
C1925 C 0.25236 0.01336 0.65021 0.0
C1926 C 0.27269 0.01155 0.63137 0.0
C1927 C 0.29184 0.99317 0.63514 0.0
C1928 C 0.29038 0.97663 0.65658 0.0
C1929 C 0.31082 0.95629 0.65488 0.0
C1930 C 0.32836 0.95633 0.68079 0.0
C1931 C 0.29684 0.9287 0.64811 0.0
C1932 C 0.32639 0.96603 0.63136 0.0
C1933 C 0.31507 0.9868 0.61938 0.0
C1934 C 0.32668 0.99824 0.59688 0.0
C1935 C 0.34991 0.98768 0.58627 0.0
C1936 C 0.36143 0.96609 0.59837 0.0
C1937 C 0.34925 0.95578 0.62145 0.0
H1938 H 0.70793 0.53857 0.82952 0.0
H1939 H 0.76249 0.48665 0.86619 0.0
H1940 H 0.73464 0.48418 0.90596 0.0
H1941 H 0.6888 0.57298 0.89327 0.0
H1942 H 0.65454 0.57385 0.88148 0.0
H1943 H 0.68105 0.57547 0.85794 0.0
H1944 H 0.65851 0.53474 0.83067 0.0
H1945 H 0.63177 0.5336 0.85365 0.0
H1946 H 0.65016 0.50474 0.84773 0.0
H1947 H 0.69975 0.48444 0.93963 0.0
H1948 H 0.65587 0.47918 0.96006 0.0
H1949 H 0.6225 0.52864 0.90062 0.0
C1950 C 0.71434 0.52733 0.84631 0.0
C1951 C 0.7375 0.51319 0.84513 0.0
C1952 C 0.74486 0.49779 0.8669 0.0
C1953 C 0.72937 0.49655 0.88968 0.0
C1954 C 0.7067 0.51091 0.89034 0.0
C1955 C 0.69895 0.52564 0.86905 0.0
C1956 C 0.67181 0.5361 0.87314 0.0
C1957 C 0.6742 0.5664 0.87666 0.0
C1958 C 0.6519 0.5267 0.84994 0.0
C1959 C 0.66476 0.52356 0.89925 0.0
C1960 C 0.68574 0.51019 0.90945 0.0
C1961 C 0.68342 0.49537 0.93226 0.0
C1962 C 0.65854 0.49283 0.94401 0.0
C1963 C 0.63626 0.50429 0.93233 0.0
C1964 C 0.63963 0.5208 0.91051 0.0
H1965 H 0.27317 0.06109 0.84689 0.0
H1966 H 0.2812 0.97591 0.84189 0.0
H1967 H 0.31828 0.98166 0.87462 0.0
H1968 H 0.33963 0.07337 0.838 0.0
H1969 H 0.34305 0.10399 0.8578 0.0
H1970 H 0.31145 0.09324 0.84159 0.0
H1971 H 0.28853 0.09575 0.88729 0.0
H1972 H 0.32014 0.1067 0.9037 0.0
H1973 H 0.30121 0.07802 0.91509 0.0
H1974 H 0.35994 0.99645 0.90053 0.0
H1975 H 0.40343 0.01936 0.91467 0.0
H1976 H 0.37212 0.09467 0.89675 0.0
C1977 C 0.28235 0.04332 0.85217 0.0
C1978 C 0.27374 0.01802 0.84067 0.0
C1979 C 0.28645 0.99569 0.84998 0.0
C1980 C 0.3079 0.99867 0.86881 0.0
C1981 C 0.31694 0.02408 0.87791 0.0
C1982 C 0.30465 0.04605 0.86969 0.0
C1983 C 0.32138 0.07133 0.87737 0.0
C1984 C 0.32935 0.08634 0.85221 0.0
C1985 C 0.30694 0.08897 0.89705 0.0
C1986 C 0.34524 0.06004 0.89078 0.0
C1987 C 0.34204 0.0328 0.89151 0.0
C1988 C 0.36254 0.01781 0.90051 0.0
C1989 C 0.3872 0.03097 0.90835 0.0
C1990 C 0.39114 0.05874 0.90666 0.0
C1991 C 0.36964 0.07342 0.89845 0.0
H1992 H 0.64851 0.75018 0.51775 0.0
H1993 H 0.72061 0.72671 0.55804 0.0
H1994 H 0.69631 0.68551 0.57102 0.0
H1995 H 0.60003 0.72463 0.55997 0.0
H1996 H 0.57654 0.71128 0.5339 0.0
H1997 H 0.59943 0.739 0.52744 0.0
H1998 H 0.61673 0.71308 0.4866 0.0
H1999 H 0.59389 0.68516 0.49295 0.0
H2000 H 0.62914 0.68099 0.49113 0.0
H2001 H 0.66481 0.64898 0.58159 0.0
H2002 H 0.62719 0.6172 0.58923 0.0
H2003 H 0.57492 0.66067 0.53889 0.0
C2004 C 0.65923 0.73607 0.52885 0.0
C2005 C 0.68649 0.7415 0.53685 0.0
C2006 C 0.69976 0.72288 0.55179 0.0
C2007 C 0.68618 0.69941 0.55909 0.0
C2008 C 0.65954 0.69445 0.55054 0.0
C2009 C 0.64621 0.71192 0.5354 0.0
C2010 C 0.61769 0.70104 0.52833 0.0
C2011 C 0.59722 0.72013 0.53801 0.0
C2012 C 0.61414 0.6947 0.49795 0.0
C2013 C 0.61649 0.67578 0.5438 0.0
C2014 C 0.64119 0.67234 0.55589 0.0
C2015 C 0.64549 0.65126 0.57198 0.0
C2016 C 0.62393 0.63335 0.57625 0.0
C2017 C 0.5982 0.6365 0.56472 0.0
C2018 C 0.59443 0.65772 0.54776 0.0
H2019 H 0.6786 0.31881 0.04033 0.0
H2020 H 0.64888 0.26538 0.97418 0.0
H2021 H 0.614 0.29527 0.96339 0.0
H2022 H 0.6075 0.3405 0.05553 0.0
H2023 H 0.62073 0.37347 0.06551 0.0
H2024 H 0.64011 0.34552 0.07187 0.0
H2025 H 0.67939 0.36707 0.04621 0.0
H2026 H 0.66031 0.39501 0.04013 0.0
H2027 H 0.67354 0.37698 0.01226 0.0
H2028 H 0.58494 0.33203 0.95684 0.0
H2029 H 0.57019 0.37637 0.94924 0.0
H2030 H 0.62033 0.40833 0.0168 0.0
C2031 C 0.66423 0.31302 0.02413 0.0
C2032 C 0.66677 0.2897 0.00806 0.0
C2033 C 0.64778 0.2832 0.98666 0.0
C2034 C 0.62751 0.29989 0.98058 0.0
C2035 C 0.62583 0.32288 0.99644 0.0
C2036 C 0.64362 0.32952 0.01782 0.0
C2037 C 0.63876 0.35672 0.02987 0.0
C2038 C 0.62605 0.3539 0.05733 0.0
C2039 C 0.66454 0.37502 0.03219 0.0
C2040 C 0.61843 0.3658 0.00948 0.0
C2041 C 0.60972 0.34508 0.99177 0.0
C2042 C 0.59127 0.34826 0.97087 0.0
C2043 C 0.58268 0.37355 0.96693 0.0
C2044 C 0.59366 0.39574 0.98275 0.0
C2045 C 0.61095 0.39163 0.005 0.0
H2046 H 0.36228 0.23382 0.03139 0.0
H2047 H 0.34118 0.25789 0.95098 0.0
H2048 H 0.36686 0.22364 0.9317 0.0
H2049 H 0.43259 0.22403 0.01222 0.0
H2050 H 0.43653 0.19666 0.03367 0.0
H2051 H 0.41459 0.22196 0.04281 0.0
H2052 H 0.37586 0.18611 0.04614 0.0
H2053 H 0.39753 0.16072 0.03653 0.0
H2054 H 0.36677 0.164 0.0176 0.0
H2055 H 0.3882 0.18462 0.91991 0.0
H2056 H 0.41984 0.15092 0.91404 0.0
H2057 H 0.43859 0.15449 1.00002 0.0
C2058 C 0.36321 0.23193 0.00976 0.0
C2059 C 0.34771 0.24759 0.99277 0.0
C2060 C 0.35076 0.24508 0.96462 0.0
C2061 C 0.36565 0.22572 0.95329 0.0
C2062 C 0.37897 0.20958 0.97021 0.0
C2063 C 0.37936 0.21312 0.99777 0.0
C2064 C 0.3986 0.19439 0.01037 0.0
C2065 C 0.42197 0.21021 0.02568 0.0
C2066 C 0.3838 0.17516 0.02876 0.0
C2067 C 0.40816 0.17973 0.98538 0.0
C2068 C 0.39555 0.18866 0.96278 0.0
C2069 C 0.39897 0.17798 0.93727 0.0
C2070 C 0.41705 0.15867 0.93423 0.0
C2071 C 0.43249 0.15044 0.95636 0.0
C2072 C 0.42741 0.16055 0.98264 0.0
H2073 H 0.83514 0.29632 0.06569 0.0
H2074 H 0.85803 0.2516 0.9954 0.0
H2075 H 0.89598 0.28464 0.99038 0.0
H2076 H 0.84947 0.35409 0.0589 0.0
H2077 H 0.86811 0.3649 0.08939 0.0
H2078 H 0.8456 0.33609 0.08923 0.0
H2079 H 0.88324 0.30765 0.10548 0.0
H2080 H 0.90614 0.33673 0.10671 0.0
H2081 H 0.91388 0.30748 0.08771 0.0
H2082 H 0.91831 0.33225 0.98614 0.0
H2083 H 0.93262 0.38031 0.99098 0.0
H2084 H 0.90946 0.38049 0.07377 0.0
C2085 C 0.84928 0.29159 0.05073 0.0
C2086 C 0.84308 0.27146 0.03079 0.0
C2087 C 0.86172 0.26751 0.01047 0.0
C2088 C 0.88361 0.28588 0.00767 0.0
C2089 C 0.88845 0.30606 0.02732 0.0
C2090 C 0.87317 0.30723 0.04984 0.0
C2091 C 0.88296 0.32997 0.06877 0.0
C2092 C 0.86018 0.34727 0.07695 0.0
C2093 C 0.89741 0.31985 0.09363 0.0
C2094 C 0.90267 0.34406 0.05117 0.0
C2095 C 0.90584 0.3302 0.02721 0.0
C2096 C 0.91755 0.34265 0.00543 0.0
C2097 C 0.92559 0.36991 0.00822 0.0
C2098 C 0.92211 0.38388 0.03273 0.0
C2099 C 0.91239 0.37016 0.05478 0.0
loop_
_geom_bond_atom_site_label_1
_geom_bond_atom_site_label_2
_geom_bond_distance
_geom_bond_site_symmetry_2
_ccdc_geom_bond_type
C0 C1 1.462 . S
C0 N4 1.373 1_655 S
C0 C38 1.375 1_655 S
C1 C0 1.462 . S
C1 C2 1.340 . S
C1 H41 0.951 . S
C2 C1 1.340 . S
C2 C3 1.439 . S
C2 H42 0.950 . S
C3 C2 1.439 . S
C3 N4 1.374 1_655 S
C3 C37 1.395 . S
N4 C0 1.373 1_455 S
N4 C3 1.374 1_455 S
N4 Co5 2.008 . S
Co5 N4 2.008 . S
Co5 N6 1.995 . S
Co5 N11 2.008 . S
Co5 N16 1.995 . S
Co5 N21 2.282 . S
Co5 N27 2.282 . S
N6 Co5 1.995 . S
N6 C7 1.376 1_455 S
N6 C10 1.383 . S
C7 N6 1.376 1_655 S
C7 C8 1.446 . S
C7 C37 1.391 . S
C8 C7 1.446 . S
C8 C9 1.339 1_655 S
C8 H43 0.949 . S
C9 C8 1.339 1_455 S
C9 C10 1.439 . S
C9 H44 0.950 . S
C10 N6 1.383 . S
C10 C9 1.439 . S
C10 C39 1.392 . S
N11 Co5 2.008 . S
N11 C12 1.376 . S
N11 C15 1.374 . S
C12 N11 1.376 . S
C12 C13 1.443 . S
C12 C39 1.389 . S
C13 C12 1.443 . S
C13 C14 1.340 . S
C13 H45 0.951 . S
C14 C13 1.340 . S
C14 C15 1.439 . S
C14 H46 0.950 . S
C15 N11 1.374 . S
C15 C14 1.439 . S
C15 C40 1.395 . S
N16 Co5 1.995 . S
N16 C17 1.376 . S
N16 C20 1.383 . S
C17 N16 1.376 . S
C17 C18 1.446 . S
C17 C40 1.391 . S
C18 C17 1.446 . S
C18 C19 1.339 . S
C18 H47 0.949 . S
C19 C18 1.339 . S
C19 C20 1.439 . S
C19 H48 0.950 . S
C20 N16 1.383 . S
C20 C19 1.439 . S
C20 C38 1.392 . S
N21 Co5 2.282 . S
N21 C24 1.332 . S
N21 C26 1.332 . S
C22 C23 1.386 . S
C22 C25 1.388 . S
C23 C22 1.386 . S
C23 C24 1.382 . S
C23 H49 0.950 . S
C24 N21 1.332 . S
C24 C23 1.382 . S
C24 H35 0.952 . S
C25 C22 1.388 . S
C25 C26 1.382 . S
C25 H50 0.950 . S
C26 N21 1.332 . S
C26 C25 1.382 . S
C26 H36 0.948 . S
N27 Co5 2.282 . S
N27 C31 1.332 . S
N27 C32 1.332 . S
C28 C29 1.388 . S
C28 C32 1.382 . S
C28 H51 0.950 . S
C29 C28 1.388 . S
C29 C30 1.386 . S
C30 C29 1.386 . S
C30 C31 1.382 . S
C30 H52 0.950 1_455 S
C31 N27 1.332 . S
C31 C30 1.382 . S
C31 H33 0.952 1_455 S
C32 N27 1.332 . S
C32 C28 1.382 . S
C32 H34 0.948 . S
H33 C31 0.952 1_655 S
H34 C32 0.948 . S
H35 C24 0.952 . S
H36 C26 0.948 . S
C37 C3 1.395 . S
C37 C7 1.391 . S
C38 C0 1.375 1_455 S
C38 C20 1.392 . S
C39 C10 1.392 . S
C39 C12 1.389 . S
C40 C15 1.395 . S
C40 C17 1.391 . S
H41 C1 0.951 . S
H42 C2 0.950 . S
H43 C8 0.949 . S
H44 C9 0.950 . S
H45 C13 0.951 . S
H46 C14 0.950 . S
H47 C18 0.949 . S
H48 C19 0.950 . S
H49 C23 0.950 . S
H50 C25 0.950 . S
H51 C28 0.950 . S
H52 C30 0.950 1_655 S
C53 C54 1.443 . S
C53 N57 1.376 . S
C53 C91 1.389 1_655 S
C54 C53 1.443 . S
C54 C55 1.340 . S
C54 H94 0.951 . S
C55 C54 1.340 . S
C55 C56 1.439 . S
C55 H95 0.950 . S
C56 C55 1.439 . S
C56 N57 1.374 . S
C56 C90 1.395 . S
N57 C53 1.376 . S
N57 C56 1.374 . S
N57 Co58 2.008 1_655 S
Co58 N57 2.008 1_455 S
Co58 N59 1.995 1_455 S
Co58 N64 2.008 . S
Co58 N69 1.995 . S
Co58 N74 2.282 . S
Co58 N80 2.282 . S
N59 Co58 1.995 1_655 S
N59 C60 1.376 . S
N59 C63 1.386 . S
C60 N59 1.376 . S
C60 C61 1.446 . S
C60 C90 1.391 . S
C61 C60 1.446 . S
C61 C62 1.339 . S
C61 H96 0.949 . S
C62 C61 1.339 . S
C62 C63 1.450 . S
C62 H97 0.950 . S
C63 N59 1.386 . S
C63 C62 1.450 . S
C63 C92 1.379 1_655 S
N64 Co58 2.008 . S
N64 C65 1.376 . S
N64 C68 1.374 . S
C65 N64 1.376 . S
C65 C66 1.443 . S
C65 C92 1.389 . S
C66 C65 1.443 . S
C66 C67 1.340 . S
C66 H98 0.951 . S
C67 C66 1.340 . S
C67 C68 1.439 . S
C67 H99 0.950 . S
C68 N64 1.374 . S
C68 C67 1.439 . S
C68 C93 1.395 . S
N69 Co58 1.995 . S
N69 C70 1.376 . S
N69 C73 1.383 . S
C70 N69 1.376 . S
C70 C71 1.446 . S
C70 C93 1.391 . S
C71 C70 1.446 . S
C71 C72 1.339 . S
C71 H100 0.949 . S
C72 C71 1.339 . S
C72 C73 1.439 . S
C72 H101 0.950 . S
C73 N69 1.383 . S
C73 C72 1.439 . S
C73 C91 1.392 . S
N74 Co58 2.282 . S
N74 C77 1.332 . S
N74 C79 1.332 . S
C75 C76 1.386 . S
C75 C78 1.388 . S
C76 C75 1.386 . S
C76 C77 1.382 . S
C76 H102 0.950 . S
C77 N74 1.332 . S
C77 C76 1.382 . S
C77 H88 0.952 . S
C78 C75 1.388 . S
C78 C79 1.382 . S
C78 H103 0.950 1_455 S
C79 N74 1.332 . S
C79 C78 1.382 . S
C79 H89 0.948 1_455 S
N80 Co58 2.282 . S
N80 C84 1.332 1_455 S
N80 C85 1.332 . S
C81 C82 1.388 1_455 S
C81 C85 1.382 . S
C81 H104 0.950 . S
C82 C81 1.388 1_655 S
C82 C83 1.386 . S
C83 C82 1.386 . S
C83 C84 1.382 . S
C83 H105 0.950 . S
C84 N80 1.332 1_655 S
C84 C83 1.382 . S
C84 H86 0.952 . S
C85 N80 1.332 . S
C85 C81 1.382 . S
C85 H87 0.948 . S
H86 C84 0.952 . S
H87 C85 0.948 . S
H88 C77 0.952 . S
H89 C79 0.948 1_655 S
C90 C56 1.395 . S
C90 C60 1.391 . S
C91 C53 1.389 1_455 S
C91 C73 1.392 . S
C92 C63 1.379 1_455 S
C92 C65 1.389 . S
C93 C68 1.395 . S
C93 C70 1.391 . S
H94 C54 0.951 . S
H95 C55 0.950 . S
H96 C61 0.949 . S
H97 C62 0.950 . S
H98 C66 0.951 . S
H99 C67 0.950 . S
H100 C71 0.949 . S
H101 C72 0.950 . S
H102 C76 0.950 . S
H103 C78 0.950 1_655 S
H104 C81 0.950 . S
H105 C83 0.950 . S
C106 C107 1.443 . S
C106 N110 1.376 . S
C106 C144 1.389 . S
C107 C106 1.443 . S
C107 C108 1.340 . S
C107 H147 0.951 . S
C108 C107 1.340 . S
C108 C109 1.439 . S
C108 H148 0.950 . S
C109 C108 1.439 . S
C109 N110 1.374 . S
C109 C143 1.395 . S
N110 C106 1.376 . S
N110 C109 1.374 . S
N110 Co111 2.008 1_565 S
Co111 N110 2.008 1_545 S
Co111 N112 1.995 1_545 S
Co111 N117 2.008 . S
Co111 N122 1.995 . S
Co111 N127 2.282 . S
Co111 N133 2.282 . S
N112 Co111 1.995 1_565 S
N112 C113 1.376 . S
N112 C116 1.384 1_565 S
C113 N112 1.376 . S
C113 C114 1.446 . S
C113 C143 1.391 . S
C114 C113 1.446 . S
C114 C115 1.339 . S
C114 H149 0.949 . S
C115 C114 1.339 . S
C115 C116 1.441 1_565 S
C115 H150 0.950 . S
C116 N112 1.384 1_545 S
C116 C115 1.441 1_545 S
C116 C145 1.389 . S
N117 Co111 2.008 . S
N117 C118 1.376 . S
N117 C121 1.374 . S
C118 N117 1.376 . S
C118 C119 1.443 . S
C118 C145 1.389 . S
C119 C118 1.443 . S
C119 C120 1.340 . S
C119 H151 0.951 . S
C120 C119 1.340 . S
C120 C121 1.439 . S
C120 H152 0.950 . S
C121 N117 1.374 . S
C121 C120 1.439 . S
C121 C146 1.395 . S
N122 Co111 1.995 . S
N122 C123 1.376 . S
N122 C126 1.383 . S
C123 N122 1.376 . S
C123 C124 1.446 . S
C123 C146 1.391 . S
C124 C123 1.446 . S
C124 C125 1.339 . S
C124 H153 0.949 . S
C125 C124 1.339 . S
C125 C126 1.439 . S
C125 H154 0.950 . S
C126 N122 1.383 . S
C126 C125 1.439 . S
C126 C144 1.392 1_545 S
N127 Co111 2.282 . S
N127 C130 1.332 . S
N127 C132 1.332 . S
C128 C129 1.386 . S
C128 C131 1.388 . S
C129 C128 1.386 . S
C129 C130 1.382 . S
C129 H155 0.950 . S
C130 N127 1.332 . S
C130 C129 1.382 . S
C130 H141 0.952 . S
C131 C128 1.388 . S
C131 C132 1.382 . S
C131 H156 0.950 1_545 S
C132 N127 1.332 . S
C132 C131 1.382 . S
C132 H142 0.948 1_545 S
N133 Co111 2.282 . S
N133 C137 1.332 1_545 S
N133 C138 1.332 . S
C134 C135 1.388 1_545 S
C134 C138 1.382 . S
C134 H157 0.950 . S
C135 C134 1.388 1_565 S
C135 C136 1.386 . S
C136 C135 1.386 . S
C136 C137 1.382 . S
C136 H158 0.950 . S
C137 N133 1.332 1_565 S
C137 C136 1.382 . S
C137 H139 0.952 . S
C138 N133 1.332 . S
C138 C134 1.382 . S
C138 H140 0.948 . S
H139 C137 0.952 . S
H140 C138 0.948 . S
H141 C130 0.952 . S
H142 C132 0.948 1_565 S
C143 C109 1.395 . S
C143 C113 1.391 . S
C144 C106 1.389 . S
C144 C126 1.392 1_565 S
C145 C116 1.389 . S
C145 C118 1.389 . S
C146 C121 1.395 . S
C146 C123 1.391 . S
H147 C107 0.951 . S
H148 C108 0.950 . S
H149 C114 0.949 . S
H150 C115 0.950 . S
H151 C119 0.951 . S
H152 C120 0.950 . S
H153 C124 0.949 . S
H154 C125 0.950 . S
H155 C129 0.950 . S
H156 C131 0.950 1_565 S
H157 C134 0.950 . S
H158 C136 0.950 . S
C159 C160 1.443 . S
C159 N163 1.376 . S
C159 C197 1.389 . S
C160 C159 1.443 . S
C160 C161 1.340 . S
C160 H200 0.951 . S
C161 C160 1.340 . S
C161 C162 1.439 . S
C161 H201 0.950 . S
C162 C161 1.439 . S
C162 N163 1.374 . S
C162 C196 1.395 . S
N163 C159 1.376 . S
N163 C162 1.374 . S
N163 Co164 2.008 . S
Co164 N163 2.008 . S
Co164 N165 1.995 . S
Co164 N170 2.008 . S
Co164 N175 1.995 . S
Co164 N180 2.282 . S
Co164 N186 2.282 . S
N165 Co164 1.995 . S
N165 C166 1.376 . S
N165 C169 1.383 . S
C166 N165 1.376 . S
C166 C167 1.446 . S
C166 C196 1.391 . S
C167 C166 1.446 . S
C167 C168 1.339 . S
C167 H202 0.949 . S
C168 C167 1.339 . S
C168 C169 1.439 . S
C168 H203 0.950 . S
C169 N165 1.383 . S
C169 C168 1.439 . S
C169 C198 1.392 . S
N170 Co164 2.008 . S
N170 C171 1.376 . S
N170 C174 1.374 . S
C171 N170 1.376 . S
C171 C172 1.443 . S
C171 C198 1.389 . S
C172 C171 1.443 . S
C172 C173 1.340 . S
C172 H204 0.951 . S
C173 C172 1.340 . S
C173 C174 1.439 . S
C173 H205 0.950 . S
C174 N170 1.374 . S
C174 C173 1.439 . S
C174 C199 1.395 . S
N175 Co164 1.995 . S
N175 C176 1.376 . S
N175 C179 1.383 . S
C176 N175 1.376 . S
C176 C177 1.446 . S
C176 C199 1.391 . S
C177 C176 1.446 . S
C177 C178 1.339 . S
C177 H206 0.949 . S
C178 C177 1.339 . S
C178 C179 1.439 . S
C178 H207 0.950 . S
C179 N175 1.383 . S
C179 C178 1.439 . S
C179 C197 1.392 . S
N180 Co164 2.282 . S
N180 C183 1.332 . S
N180 C185 1.332 . S
C181 C182 1.386 . S
C181 C184 1.388 . S
C182 C181 1.386 . S
C182 C183 1.382 . S
C182 H208 0.950 . S
C183 N180 1.332 . S
C183 C182 1.382 . S
C183 H194 0.952 . S
C184 C181 1.388 . S
C184 C185 1.382 . S
C184 H209 0.950 . S
C185 N180 1.332 . S
C185 C184 1.382 . S
C185 H195 0.948 . S
N186 Co164 2.282 . S
N186 C190 1.332 . S
N186 C191 1.332 . S
C187 C188 1.388 . S
C187 C191 1.382 . S
C187 H210 0.950 . S
C188 C187 1.388 . S
C188 C189 1.386 . S
C189 C188 1.386 . S
C189 C190 1.382 . S
C189 H211 0.950 . S
C190 N186 1.332 . S
C190 C189 1.382 . S
C190 H192 0.952 . S
C191 N186 1.332 . S
C191 C187 1.382 . S
C191 H193 0.948 . S
H192 C190 0.952 . S
H193 C191 0.948 . S
H194 C183 0.952 . S
H195 C185 0.948 . S
C196 C162 1.395 . S
C196 C166 1.391 . S
C197 C159 1.389 . S
C197 C179 1.392 . S
C198 C169 1.392 . S
C198 C171 1.389 . S
C199 C174 1.395 . S
C199 C176 1.391 . S
H200 C160 0.951 . S
H201 C161 0.950 . S
H202 C167 0.949 . S
H203 C168 0.950 . S
H204 C172 0.951 . S
H205 C173 0.950 . S
H206 C177 0.949 . S
H207 C178 0.950 . S
H208 C182 0.950 . S
H209 C184 0.950 . S
H210 C187 0.950 . S
H211 C189 0.950 . S
C212 C213 1.443 . S
C212 N216 1.376 . S
C212 C250 1.389 1_556 S
C213 C212 1.443 . S
C213 C214 1.340 . S
C213 H253 0.951 . S
C214 C213 1.340 . S
C214 C215 1.439 . S
C214 H254 0.950 . S
C215 C214 1.439 . S
C215 N216 1.374 . S
C215 C249 1.395 . S
N216 C212 1.376 . S
N216 C215 1.374 . S
N216 Co217 2.008 1_556 S
Co217 N216 2.008 1_554 S
Co217 N218 1.995 1_554 S
Co217 N223 2.008 . S
Co217 N228 1.995 . S
Co217 N233 2.282 . S
Co217 N239 2.282 . S
N218 Co217 1.995 1_556 S
N218 C219 1.376 . S
N218 C222 1.383 1_556 S
C219 N218 1.376 . S
C219 C220 1.446 . S
C219 C249 1.391 . S
C220 C219 1.446 . S
C220 C221 1.339 . S
C220 H255 0.949 . S
C221 C220 1.339 . S
C221 C222 1.439 1_556 S
C221 H256 0.950 . S
C222 N218 1.383 1_554 S
C222 C221 1.439 1_554 S
C222 C251 1.392 . S
N223 Co217 2.008 . S
N223 C224 1.376 . S
N223 C227 1.374 . S
C224 N223 1.376 . S
C224 C225 1.443 . S
C224 C251 1.389 . S
C225 C224 1.443 . S
C225 C226 1.340 . S
C225 H257 0.951 . S
C226 C225 1.340 . S
C226 C227 1.439 . S
C226 H258 0.950 . S
C227 N223 1.374 . S
C227 C226 1.439 . S
C227 C252 1.395 . S
N228 Co217 1.995 . S
N228 C229 1.376 . S
N228 C232 1.383 . S
C229 N228 1.376 . S
C229 C230 1.446 . S
C229 C252 1.391 . S
C230 C229 1.446 . S
C230 C231 1.339 . S
C230 H259 0.949 . S
C231 C230 1.339 . S
C231 C232 1.439 . S
C231 H260 0.950 . S
C232 N228 1.383 . S
C232 C231 1.439 . S
C232 C250 1.392 . S
N233 Co217 2.282 . S
N233 C236 1.332 . S
N233 C238 1.332 . S
C234 C235 1.386 . S
C234 C237 1.388 . S
C235 C234 1.386 . S
C235 C236 1.382 . S
C235 H261 0.950 . S
C236 N233 1.332 . S
C236 C235 1.382 . S
C236 H247 0.952 . S
C237 C234 1.388 . S
C237 C238 1.382 . S
C237 H262 0.957 . S
C238 N233 1.332 . S
C238 C237 1.382 . S
C238 H248 0.948 1_554 S
N239 Co217 2.282 . S
N239 C243 1.332 1_554 S
N239 C244 1.332 . S
C240 C241 1.388 . S
C240 C244 1.382 . S
C240 H263 0.950 . S
C241 C240 1.388 . S
C241 C242 1.386 1_554 S
C242 C241 1.386 1_556 S
C242 C243 1.382 . S
C242 H264 0.950 . S
C243 N239 1.332 1_556 S
C243 C242 1.382 . S
C243 H245 0.952 . S
C244 N239 1.332 . S
C244 C240 1.382 . S
C244 H246 0.948 . S
H245 C243 0.952 . S
H246 C244 0.948 . S
H247 C236 0.952 . S
H248 C238 0.948 1_556 S
C249 C215 1.395 . S
C249 C219 1.391 . S
C250 C212 1.389 1_554 S
C250 C232 1.392 . S
C251 C222 1.392 . S
C251 C224 1.389 . S
C252 C227 1.395 . S
C252 C229 1.391 . S
H253 C213 0.951 . S
H254 C214 0.950 . S
H255 C220 0.949 . S
H256 C221 0.950 . S
H257 C225 0.951 . S
H258 C226 0.950 . S
H259 C230 0.949 . S
H260 C231 0.950 . S
H261 C235 0.950 . S
H262 C237 0.957 . S
H263 C240 0.950 . S
H264 C242 0.950 . S
C265 C266 1.443 . S
C265 N269 1.376 . S
C265 C303 1.389 . S
C266 C265 1.443 . S
C266 C267 1.340 . S
C266 H306 0.951 . S
C267 C266 1.340 . S
C267 C268 1.439 . S
C267 H307 0.950 . S
C268 C267 1.439 . S
C268 N269 1.374 . S
C268 C302 1.395 . S
N269 C265 1.376 . S
N269 C268 1.374 . S
N269 Co270 2.008 . S
Co270 N269 2.008 . S
Co270 N271 1.995 . S
Co270 N276 2.008 . S
Co270 N281 1.995 . S
Co270 N286 2.282 . S
Co270 N292 2.282 . S
N271 Co270 1.995 . S
N271 C272 1.376 . S
N271 C275 1.383 . S
C272 N271 1.376 . S
C272 C273 1.446 . S
C272 C302 1.391 . S
C273 C272 1.446 . S
C273 C274 1.339 . S
C273 H308 0.949 . S
C274 C273 1.339 . S
C274 C275 1.439 . S
C274 H309 0.950 . S
C275 N271 1.383 . S
C275 C274 1.439 . S
C275 C304 1.392 . S
N276 Co270 2.008 . S
N276 C277 1.376 . S
N276 C280 1.374 . S
C277 N276 1.376 . S
C277 C278 1.443 . S
C277 C304 1.389 . S
C278 C277 1.443 . S
C278 C279 1.340 . S
C278 H310 0.951 . S
C279 C278 1.340 . S
C279 C280 1.439 . S
C279 H311 0.950 . S
C280 N276 1.374 . S
C280 C279 1.439 . S
C280 C305 1.395 . S
N281 Co270 1.995 . S
N281 C282 1.376 . S
N281 C285 1.383 . S
C282 N281 1.376 . S
C282 C283 1.446 . S
C282 C305 1.391 . S
C283 C282 1.446 . S
C283 C284 1.339 . S
C283 H312 0.949 . S
C284 C283 1.339 . S
C284 C285 1.439 . S
C284 H313 0.950 . S
C285 N281 1.383 . S
C285 C284 1.439 . S
C285 C303 1.392 . S
N286 Co270 2.282 . S
N286 C289 1.332 . S
N286 C291 1.332 . S
C287 C288 1.386 . S
C287 C290 1.388 . S
C288 C287 1.386 . S
C288 C289 1.382 . S
C288 H314 0.950 . S
C289 N286 1.332 . S
C289 C288 1.382 . S
C289 H300 0.952 . S
C290 C287 1.388 . S
C290 C291 1.382 . S
C290 H315 0.950 . S
C291 N286 1.332 . S
C291 C290 1.382 . S
C291 H301 0.948 . S
N292 Co270 2.282 . S
N292 C296 1.332 . S
N292 C297 1.332 . S
C293 C294 1.388 . S
C293 C297 1.382 . S
C293 H316 0.950 . S
C294 C293 1.388 . S
C294 C295 1.386 . S
C295 C294 1.386 . S
C295 C296 1.382 . S
C295 H317 0.950 . S
C296 N292 1.332 . S
C296 C295 1.382 . S
C296 H298 0.952 . S
C297 N292 1.332 . S
C297 C293 1.382 . S
C297 H299 0.948 . S
H298 C296 0.952 . S
H299 C297 0.948 . S
H300 C289 0.952 . S
H301 C291 0.948 . S
C302 C268 1.395 . S
C302 C272 1.391 . S
C303 C265 1.389 . S
C303 C285 1.392 . S
C304 C275 1.392 . S
C304 C277 1.389 . S
C305 C280 1.395 . S
C305 C282 1.391 . S
H306 C266 0.951 . S
H307 C267 0.950 . S
H308 C273 0.949 . S
H309 C274 0.950 . S
H310 C278 0.951 . S
H311 C279 0.950 . S
H312 C283 0.949 . S
H313 C284 0.950 . S
H314 C288 0.950 . S
H315 C290 0.950 . S
H316 C293 0.950 . S
H317 C295 0.950 . S
C318 C319 1.443 . S
C318 N322 1.376 . S
C318 C356 1.389 . S
C319 C318 1.443 . S
C319 C320 1.340 . S
C319 H359 0.951 . S
C320 C319 1.340 . S
C320 C321 1.439 . S
C320 H360 0.950 . S
C321 C320 1.439 . S
C321 N322 1.374 . S
C321 C355 1.395 . S
N322 C318 1.376 . S
N322 C321 1.374 . S
N322 Co323 2.008 . S
Co323 N322 2.008 . S
Co323 N324 1.995 . S
Co323 N329 2.008 . S
Co323 N334 1.995 . S
Co323 N339 2.282 . S
Co323 N345 2.282 . S
N324 Co323 1.995 . S
N324 C325 1.376 . S
N324 C328 1.383 . S
C325 N324 1.376 . S
C325 C326 1.446 . S
C325 C355 1.391 . S
C326 C325 1.446 . S
C326 C327 1.339 . S
C326 H361 0.949 . S
C327 C326 1.339 . S
C327 C328 1.439 . S
C327 H362 0.950 . S
C328 N324 1.383 . S
C328 C327 1.439 . S
C328 C357 1.392 . S
N329 Co323 2.008 . S
N329 C330 1.376 . S
N329 C333 1.374 . S
C330 N329 1.376 . S
C330 C331 1.443 . S
C330 C357 1.389 . S
C331 C330 1.443 . S
C331 C332 1.340 . S
C331 H363 0.951 . S
C332 C331 1.340 . S
C332 C333 1.439 . S
C332 H364 0.950 . S
C333 N329 1.374 . S
C333 C332 1.439 . S
C333 C358 1.395 . S
N334 Co323 1.995 . S
N334 C335 1.376 . S
N334 C338 1.383 . S
C335 N334 1.376 . S
C335 C336 1.446 . S
C335 C358 1.391 . S
C336 C335 1.446 . S
C336 C337 1.339 . S
C336 H365 0.949 . S
C337 C336 1.339 . S
C337 C338 1.439 . S
C337 H366 0.950 . S
C338 N334 1.383 . S
C338 C337 1.439 . S
C338 C356 1.392 . S
N339 Co323 2.282 . S
N339 C342 1.332 . S
N339 C344 1.332 . S
C340 C341 1.386 . S
C340 C343 1.388 . S
C341 C340 1.386 . S
C341 C342 1.382 . S
C341 H367 0.950 . S
C342 N339 1.332 . S
C342 C341 1.382 . S
C342 H353 0.952 . S
C343 C340 1.388 . S
C343 C344 1.382 . S
C343 H368 0.950 . S
C344 N339 1.332 . S
C344 C343 1.382 . S
C344 H354 0.948 . S
N345 Co323 2.282 . S
N345 C349 1.332 . S
N345 C350 1.332 . S
C346 C347 1.388 . S
C346 C350 1.382 . S
C346 H369 0.950 . S
C347 C346 1.388 . S
C347 C348 1.386 . S
C348 C347 1.386 . S
C348 C349 1.382 . S
C348 H370 0.950 . S
C349 N345 1.332 . S
C349 C348 1.382 . S
C349 H351 0.952 . S
C350 N345 1.332 . S
C350 C346 1.382 . S
C350 H352 0.948 . S
H351 C349 0.952 . S
H352 C350 0.948 . S
H353 C342 0.952 . S
H354 C344 0.948 . S
C355 C321 1.395 . S
C355 C325 1.391 . S
C356 C318 1.389 . S
C356 C338 1.392 . S
C357 C328 1.392 . S
C357 C330 1.389 . S
C358 C333 1.395 . S
C358 C335 1.391 . S
H359 C319 0.951 . S
H360 C320 0.950 . S
H361 C326 0.949 . S
H362 C327 0.950 . S
H363 C331 0.951 . S
H364 C332 0.950 . S
H365 C336 0.949 . S
H366 C337 0.950 . S
H367 C341 0.950 . S
H368 C343 0.950 . S
H369 C346 0.950 . S
H370 C348 0.950 . S
C371 C372 1.443 . S
C371 N375 1.376 . S
C371 C409 1.389 . S
C372 C371 1.443 . S
C372 C373 1.340 . S
C372 H412 0.951 . S
C373 C372 1.340 . S
C373 C374 1.439 . S
C373 H413 0.950 . S
C374 C373 1.439 . S
C374 N375 1.374 . S
C374 C408 1.395 . S
N375 C371 1.376 . S
N375 C374 1.374 . S
N375 Co376 2.008 . S
Co376 N375 2.008 . S
Co376 N377 1.995 . S
Co376 N382 2.008 . S
Co376 N387 1.995 . S
Co376 N392 2.282 . S
Co376 N398 2.282 . S
N377 Co376 1.995 . S
N377 C378 1.376 . S
N377 C381 1.383 . S
C378 N377 1.376 . S
C378 C379 1.446 . S
C378 C408 1.391 . S
C379 C378 1.446 . S
C379 C380 1.339 . S
C379 H414 0.949 . S
C380 C379 1.339 . S
C380 C381 1.439 . S
C380 H415 0.950 . S
C381 N377 1.383 . S
C381 C380 1.439 . S
C381 C410 1.392 . S
N382 Co376 2.008 . S
N382 C383 1.376 . S
N382 C386 1.374 . S
C383 N382 1.376 . S
C383 C384 1.443 . S
C383 C410 1.389 . S
C384 C383 1.443 . S
C384 C385 1.340 . S
C384 H416 0.951 . S
C385 C384 1.340 . S
C385 C386 1.439 . S
C385 H417 0.950 . S
C386 N382 1.374 . S
C386 C385 1.439 . S
C386 C411 1.395 . S
N387 Co376 1.995 . S
N387 C388 1.376 . S
N387 C391 1.383 . S
C388 N387 1.376 . S
C388 C389 1.446 . S
C388 C411 1.391 . S
C389 C388 1.446 . S
C389 C390 1.339 . S
C389 H418 0.949 . S
C390 C389 1.339 . S
C390 C391 1.439 . S
C390 H419 0.950 . S
C391 N387 1.383 . S
C391 C390 1.439 . S
C391 C409 1.392 . S
N392 Co376 2.282 . S
N392 C395 1.332 . S
N392 C397 1.332 . S
C393 C394 1.386 . S
C393 C396 1.388 . S
C394 C393 1.386 . S
C394 C395 1.382 . S
C394 H420 0.950 . S
C395 N392 1.332 . S
C395 C394 1.382 . S
C395 H406 0.952 . S
C396 C393 1.388 . S
C396 C397 1.382 . S
C396 H421 0.950 . S
C397 N392 1.332 . S
C397 C396 1.382 . S
C397 H407 0.948 . S
N398 Co376 2.282 . S
N398 C402 1.332 . S
N398 C403 1.332 . S
C399 C400 1.388 . S
C399 C403 1.382 . S
C399 H422 0.950 . S
C400 C399 1.388 . S
C400 C401 1.386 . S
C401 C400 1.386 . S
C401 C402 1.382 . S
C401 H423 0.950 . S
C402 N398 1.332 . S
C402 C401 1.382 . S
C402 H404 0.952 . S
C403 N398 1.332 . S
C403 C399 1.382 . S
C403 H405 0.948 . S
H404 C402 0.952 . S
H405 C403 0.948 . S
H406 C395 0.952 . S
H407 C397 0.948 . S
C408 C374 1.395 . S
C408 C378 1.391 . S
C409 C371 1.389 . S
C409 C391 1.392 . S
C410 C381 1.392 . S
C410 C383 1.389 . S
C411 C386 1.395 . S
C411 C388 1.391 . S
H412 C372 0.951 . S
H413 C373 0.950 . S
H414 C379 0.949 . S
H415 C380 0.950 . S
H416 C384 0.951 . S
H417 C385 0.950 . S
H418 C389 0.949 . S
H419 C390 0.950 . S
H420 C394 0.950 . S
H421 C396 0.950 . S
H422 C399 0.950 . S
H423 C401 0.950 . S
C424 C425 1.443 . S
C424 N428 1.376 . S
C424 C462 1.389 . S
C425 C424 1.443 . S
C425 C426 1.340 . S
C425 H465 0.951 . S
C426 C425 1.340 . S
C426 C427 1.439 . S
C426 H466 0.950 . S
C427 C426 1.439 . S
C427 N428 1.374 . S
C427 C461 1.395 . S
N428 C424 1.376 . S
N428 C427 1.374 . S
N428 Co429 2.008 . S
Co429 N428 2.008 . S
Co429 N430 1.995 . S
Co429 N435 2.008 . S
Co429 N440 1.995 . S
Co429 N445 2.282 . S
Co429 N451 2.282 . S
N430 Co429 1.995 . S
N430 C431 1.376 . S
N430 C434 1.383 . S
C431 N430 1.376 . S
C431 C432 1.446 . S
C431 C461 1.391 . S
C432 C431 1.446 . S
C432 C433 1.339 . S
C432 H467 0.949 . S
C433 C432 1.339 . S
C433 C434 1.439 . S
C433 H468 0.950 . S
C434 N430 1.383 . S
C434 C433 1.439 . S
C434 C463 1.392 . S
N435 Co429 2.008 . S
N435 C436 1.376 . S
N435 C439 1.374 . S
C436 N435 1.376 . S
C436 C437 1.443 . S
C436 C463 1.389 . S
C437 C436 1.443 . S
C437 C438 1.340 . S
C437 H469 0.951 . S
C438 C437 1.340 . S
C438 C439 1.439 . S
C438 H470 0.950 . S
C439 N435 1.374 . S
C439 C438 1.439 . S
C439 C464 1.395 . S
N440 Co429 1.995 . S
N440 C441 1.376 . S
N440 C444 1.383 . S
C441 N440 1.376 . S
C441 C442 1.446 . S
C441 C464 1.391 . S
C442 C441 1.446 . S
C442 C443 1.339 . S
C442 H471 0.949 . S
C443 C442 1.339 . S
C443 C444 1.439 . S
C443 H472 0.950 . S
C444 N440 1.383 . S
C444 C443 1.439 . S
C444 C462 1.392 . S
N445 Co429 2.282 . S
N445 C448 1.332 . S
N445 C450 1.332 . S
C446 C447 1.386 . S
C446 C449 1.388 . S
C447 C446 1.386 . S
C447 C448 1.382 . S
C447 H473 0.950 . S
C448 N445 1.332 . S
C448 C447 1.382 . S
C448 H459 0.952 . S
C449 C446 1.388 . S
C449 C450 1.382 . S
C449 H474 0.950 . S
C450 N445 1.332 . S
C450 C449 1.382 . S
C450 H460 0.948 . S
N451 Co429 2.282 . S
N451 C455 1.332 . S
N451 C456 1.332 . S
C452 C453 1.388 . S
C452 C456 1.382 . S
C452 H475 0.950 . S
C453 C452 1.388 . S
C453 C454 1.386 . S
C454 C453 1.386 . S
C454 C455 1.382 . S
C454 H476 0.950 . S
C455 N451 1.332 . S
C455 C454 1.382 . S
C455 H457 0.952 . S
C456 N451 1.332 . S
C456 C452 1.382 . S
C456 H458 0.948 . S
H457 C455 0.952 . S
H458 C456 0.948 . S
H459 C448 0.952 . S
H460 C450 0.948 . S
C461 C427 1.395 . S
C461 C431 1.391 . S
C462 C424 1.389 . S
C462 C444 1.392 . S
C463 C434 1.392 . S
C463 C436 1.389 . S
C464 C439 1.395 . S
C464 C441 1.391 . S
H465 C425 0.951 . S
H466 C426 0.950 . S
H467 C432 0.949 . S
H468 C433 0.950 . S
H469 C437 0.951 . S
H470 C438 0.950 . S
H471 C442 0.949 . S
H472 C443 0.950 . S
H473 C447 0.950 . S
H474 C449 0.950 . S
H475 C452 0.950 . S
H476 C454 0.950 . S
C477 C478 1.443 . S
C477 N481 1.376 . S
C477 C515 1.389 . S
C478 C477 1.443 . S
C478 C479 1.340 . S
C478 H518 0.951 . S
C479 C478 1.340 . S
C479 C480 1.439 . S
C479 H519 0.950 . S
C480 C479 1.439 . S
C480 N481 1.374 . S
C480 C514 1.395 . S
N481 C477 1.376 . S
N481 C480 1.374 . S
N481 Co482 2.008 . S
Co482 N481 2.008 . S
Co482 N483 1.995 . S
Co482 N488 2.008 . S
Co482 N493 1.995 . S
Co482 N498 2.282 . S
Co482 N504 2.282 . S
N483 Co482 1.995 . S
N483 C484 1.376 . S
N483 C487 1.383 . S
C484 N483 1.376 . S
C484 C485 1.446 . S
C484 C514 1.391 . S
C485 C484 1.446 . S
C485 C486 1.339 . S
C485 H520 0.949 . S
C486 C485 1.339 . S
C486 C487 1.439 . S
C486 H521 0.950 . S
C487 N483 1.383 . S
C487 C486 1.439 . S
C487 C516 1.392 . S
N488 Co482 2.008 . S
N488 C489 1.376 . S
N488 C492 1.374 . S
C489 N488 1.376 . S
C489 C490 1.443 . S
C489 C516 1.389 . S
C490 C489 1.443 . S
C490 C491 1.340 . S
C490 H522 0.951 . S
C491 C490 1.340 . S
C491 C492 1.439 . S
C491 H523 0.950 . S
C492 N488 1.374 . S
C492 C491 1.439 . S
C492 C517 1.395 . S
N493 Co482 1.995 . S
N493 C494 1.376 . S
N493 C497 1.383 . S
C494 N493 1.376 . S
C494 C495 1.446 . S
C494 C517 1.391 . S
C495 C494 1.446 . S
C495 C496 1.339 . S
C495 H524 0.949 . S
C496 C495 1.339 . S
C496 C497 1.439 . S
C496 H525 0.950 . S
C497 N493 1.383 . S
C497 C496 1.439 . S
C497 C515 1.392 . S
N498 Co482 2.282 . S
N498 C501 1.332 . S
N498 C503 1.332 . S
C499 C500 1.386 . S
C499 C502 1.388 . S
C500 C499 1.386 . S
C500 C501 1.382 . S
C500 H526 0.950 . S
C501 N498 1.332 . S
C501 C500 1.382 . S
C501 H512 0.952 . S
C502 C499 1.388 . S
C502 C503 1.382 . S
C502 H527 0.950 . S
C503 N498 1.332 . S
C503 C502 1.382 . S
C503 H513 0.948 . S
N504 Co482 2.282 . S
N504 C508 1.332 . S
N504 C509 1.332 . S
C505 C506 1.388 . S
C505 C509 1.382 . S
C505 H528 0.950 . S
C506 C505 1.388 . S
C506 C507 1.386 . S
C507 C506 1.386 . S
C507 C508 1.382 . S
C507 H529 0.950 . S
C508 N504 1.332 . S
C508 C507 1.382 . S
C508 H510 0.952 . S
C509 N504 1.332 . S
C509 C505 1.382 . S
C509 H511 0.948 . S
H510 C508 0.952 . S
H511 C509 0.948 . S
H512 C501 0.952 . S
H513 C503 0.948 . S
C514 C480 1.395 . S
C514 C484 1.391 . S
C515 C477 1.389 . S
C515 C497 1.392 . S
C516 C487 1.392 . S
C516 C489 1.389 . S
C517 C492 1.395 . S
C517 C494 1.391 . S
H518 C478 0.951 . S
H519 C479 0.950 . S
H520 C485 0.949 . S
H521 C486 0.950 . S
H522 C490 0.951 . S
H523 C491 0.950 . S
H524 C495 0.949 . S
H525 C496 0.950 . S
H526 C500 0.950 . S
H527 C502 0.950 . S
H528 C505 0.950 . S
H529 C507 0.950 . S
C530 C531 1.443 . S
C530 N534 1.376 . S
C530 C568 1.389 . S
C531 C530 1.443 . S
C531 C532 1.340 . S
C531 H571 0.951 . S
C532 C531 1.340 . S
C532 C533 1.439 . S
C532 H572 0.950 . S
C533 C532 1.439 . S
C533 N534 1.374 . S
C533 C567 1.395 . S
N534 C530 1.376 . S
N534 C533 1.374 . S
N534 Co535 2.008 . S
Co535 N534 2.008 . S
Co535 N536 1.995 . S
Co535 N541 2.008 1_545 S
Co535 N546 1.995 1_545 S
Co535 N551 2.282 1_545 S
Co535 N557 2.282 . S
N536 Co535 1.995 . S
N536 C537 1.376 . S
N536 C540 1.383 . S
C537 N536 1.376 . S
C537 C538 1.446 . S
C537 C567 1.391 . S
C538 C537 1.446 . S
C538 C539 1.339 . S
C538 H573 0.949 . S
C539 C538 1.339 . S
C539 C540 1.439 . S
C539 H574 0.950 . S
C540 N536 1.383 . S
C540 C539 1.439 . S
C540 C569 1.392 1_545 S
N541 Co535 2.008 1_565 S
N541 C542 1.376 . S
N541 C545 1.374 . S
C542 N541 1.376 . S
C542 C543 1.443 . S
C542 C569 1.389 . S
C543 C542 1.443 . S
C543 C544 1.340 . S
C543 H575 0.951 . S
C544 C543 1.340 . S
C544 C545 1.439 . S
C544 H576 0.950 . S
C545 N541 1.374 . S
C545 C544 1.439 . S
C545 C570 1.395 . S
N546 Co535 1.995 1_565 S
N546 C547 1.376 . S
N546 C550 1.383 . S
C547 N546 1.376 . S
C547 C548 1.446 . S
C547 C570 1.391 . S
C548 C547 1.446 . S
C548 C549 1.339 . S
C548 H577 0.949 . S
C549 C548 1.339 . S
C549 C550 1.439 . S
C549 H578 0.950 . S
C550 N546 1.383 . S
C550 C549 1.439 . S
C550 C568 1.392 1_565 S
N551 Co535 2.282 1_565 S
N551 C554 1.332 . S
N551 C556 1.332 1_565 S
C552 C553 1.386 . S
C552 C555 1.388 1_565 S
C553 C552 1.386 . S
C553 C554 1.382 . S
C553 H579 0.950 . S
C554 N551 1.332 . S
C554 C553 1.382 . S
C554 H565 0.952 . S
C555 C552 1.388 1_545 S
C555 C556 1.382 . S
C555 H580 0.950 . S
C556 N551 1.332 1_545 S
C556 C555 1.382 . S
C556 H566 0.948 . S
N557 Co535 2.282 . S
N557 C561 1.332 . S
N557 C562 1.332 1_545 S
C558 C559 1.388 1_565 S
C558 C562 1.382 . S
C558 H581 0.950 . S
C559 C558 1.388 1_545 S
C559 C560 1.386 . S
C560 C559 1.386 . S
C560 C561 1.382 . S
C560 H582 0.950 . S
C561 N557 1.332 . S
C561 C560 1.382 . S
C561 H563 0.952 . S
C562 N557 1.332 1_565 S
C562 C558 1.382 . S
C562 H564 0.948 . S
H563 C561 0.952 . S
H564 C562 0.948 . S
H565 C554 0.952 . S
H566 C556 0.948 . S
C567 C533 1.395 . S
C567 C537 1.391 . S
C568 C530 1.389 . S
C568 C550 1.392 1_545 S
C569 C540 1.392 1_565 S
C569 C542 1.389 . S
C570 C545 1.395 . S
C570 C547 1.391 . S
H571 C531 0.951 . S
H572 C532 0.950 . S
H573 C538 0.949 . S
H574 C539 0.950 . S
H575 C543 0.951 . S
H576 C544 0.950 . S
H577 C548 0.949 . S
H578 C549 0.950 . S
H579 C553 0.950 . S
H580 C555 0.950 . S
H581 C558 0.950 . S
H582 C560 0.950 . S
C583 C584 1.443 . S
C583 N587 1.376 . S
C583 C621 1.389 1_556 S
C584 C583 1.443 . S
C584 C585 1.340 . S
C584 H624 0.951 . S
C585 C584 1.340 . S
C585 C586 1.439 . S
C585 H625 0.950 . S
C586 C585 1.439 . S
C586 N587 1.374 . S
C586 C620 1.395 . S
N587 C583 1.376 . S
N587 C586 1.374 . S
N587 Co588 2.008 1_556 S
Co588 N587 2.008 1_554 S
Co588 N589 2.019 . S
Co588 N594 2.008 . S
Co588 N599 1.995 . S
Co588 N604 2.282 . S
Co588 N610 2.282 . S
N589 Co588 2.019 . S
N589 C590 1.338 1_554 S
N589 C593 1.394 . S
C590 N589 1.338 1_556 S
C590 C591 1.446 . S
C590 C620 1.391 . S
C591 C590 1.446 . S
C591 C592 1.339 . S
C591 H626 0.949 . S
C592 C591 1.339 . S
C592 C593 1.439 1_556 S
C592 H627 0.950 . S
C593 N589 1.394 . S
C593 C592 1.439 1_554 S
C593 C622 1.392 . S
N594 Co588 2.008 . S
N594 C595 1.376 . S
N594 C598 1.374 . S
C595 N594 1.376 . S
C595 C596 1.443 . S
C595 C622 1.389 . S
C596 C595 1.443 . S
C596 C597 1.340 . S
C596 H628 0.951 . S
C597 C596 1.340 . S
C597 C598 1.439 . S
C597 H629 0.950 . S
C598 N594 1.374 . S
C598 C597 1.439 . S
C598 C623 1.395 . S
N599 Co588 1.995 . S
N599 C600 1.376 . S
N599 C603 1.383 . S
C600 N599 1.376 . S
C600 C601 1.446 . S
C600 C623 1.391 . S
C601 C600 1.446 . S
C601 C602 1.339 . S
C601 H630 0.949 . S
C602 C601 1.339 . S
C602 C603 1.439 . S
C602 H631 0.950 . S
C603 N599 1.383 . S
C603 C602 1.439 . S
C603 C621 1.392 . S
N604 Co588 2.282 . S
N604 C607 1.332 . S
N604 C609 1.332 . S
C605 C606 1.386 . S
C605 C608 1.388 . S
C606 C605 1.386 . S
C606 C607 1.382 . S
C606 H632 0.950 . S
C607 N604 1.332 . S
C607 C606 1.382 . S
C607 H618 0.952 . S
C608 C605 1.388 . S
C608 C609 1.382 . S
C608 H633 0.940 1_554 S
C609 N604 1.332 . S
C609 C608 1.382 . S
C609 H619 0.948 1_554 S
N610 Co588 2.282 . S
N610 C614 1.332 1_554 S
N610 C615 1.332 . S
C611 C612 1.388 . S
C611 C615 1.382 . S
C611 H634 0.950 . S
C612 C611 1.388 . S
C612 C613 1.386 1_554 S
C613 C612 1.386 1_556 S
C613 C614 1.382 . S
C613 H635 0.950 . S
C614 N610 1.332 1_556 S
C614 C613 1.382 . S
C614 H616 0.952 . S
C615 N610 1.332 . S
C615 C611 1.382 . S
C615 H617 0.948 . S
H616 C614 0.952 . S
H617 C615 0.948 . S
H618 C607 0.952 . S
H619 C609 0.948 1_556 S
C620 C586 1.395 . S
C620 C590 1.391 . S
C621 C583 1.389 1_554 S
C621 C603 1.392 . S
C622 C593 1.392 . S
C622 C595 1.389 . S
C623 C598 1.395 . S
C623 C600 1.391 . S
H624 C584 0.951 . S
H625 C585 0.950 . S
H626 C591 0.949 . S
H627 C592 0.950 . S
H628 C596 0.951 . S
H629 C597 0.950 . S
H630 C601 0.949 . S
H631 C602 0.950 . S
H632 C606 0.950 . S
H633 C608 0.940 1_556 S
H634 C611 0.950 . S
H635 C613 0.950 . S
O636 Mn637 2.163 . S
O636 C650 1.244 . S
Mn637 O636 2.163 . S
Mn637 O640 2.160 . S
Mn637 O641 2.221 . S
Mn637 O643 2.163 . S
Mn637 O645 2.160 . S
Mn637 O655 2.221 . S
O638 Mn639 2.087 . S
O638 C650 1.256 . S
Mn639 O638 2.087 . S
Mn639 O646 2.089 . S
Mn639 O655 2.290 . S
Mn639 O656 2.251 . S
O640 Mn637 2.160 . S
O640 C651 1.239 1_554 S
O641 Mn637 2.221 . S
O641 Mn642 2.274 1_554 S
O641 C652 1.278 . S
Mn642 O641 2.274 1_556 S
Mn642 O644 2.105 . S
Mn642 O647 2.235 1_456 S
Mn642 O648 2.049 1_556 S
O643 Mn637 2.163 . S
O643 C653 1.244 . S
O644 Mn642 2.105 . S
O644 C651 1.256 . S
O645 Mn637 2.160 . S
O645 C654 1.239 . S
O646 Mn639 2.089 . S
O646 C654 1.256 . S
O647 Mn642 2.235 1_654 S
O647 C652 1.241 1_655 S
O648 Mn642 2.049 1_554 S
O648 C653 1.256 . S
C649 O655 1.278 . S
C649 O656 1.241 . S
C650 O636 1.244 . S
C650 O638 1.256 . S
C651 O640 1.239 1_556 S
C651 O644 1.256 . S
C652 O641 1.278 . S
C652 O647 1.241 1_455 S
C653 O643 1.244 . S
C653 O648 1.256 . S
C654 O645 1.239 . S
C654 O646 1.256 . S
O655 Mn637 2.221 . S
O655 Mn639 2.290 . S
O655 C649 1.278 . S
O656 Mn639 2.251 . S
O656 C649 1.241 . S
O657 Mn658 2.163 . S
O657 C671 1.244 . S
Mn658 O657 2.163 . S
Mn658 O661 2.160 . S
Mn658 O662 2.221 . S
Mn658 O664 2.163 . S
Mn658 O666 2.160 . S
Mn658 O676 2.221 . S
O659 Mn660 2.087 . S
O659 C671 1.256 . S
Mn660 O659 2.087 . S
Mn660 O667 2.089 . S
Mn660 O676 2.290 . S
Mn660 O677 2.251 . S
O661 Mn658 2.160 . S
O661 C672 1.239 1_554 S
O662 Mn658 2.221 . S
O662 Mn663 2.290 1_554 S
O662 C673 1.278 1_655 S
Mn663 O662 2.290 1_556 S
Mn663 O665 2.089 . S
Mn663 O668 2.251 1_656 S
Mn663 O669 2.087 1_556 S
O664 Mn658 2.163 . S
O664 C674 1.244 . S
O665 Mn663 2.089 . S
O665 C672 1.256 . S
O666 Mn658 2.160 . S
O666 C675 1.239 . S
O667 Mn660 2.089 . S
O667 C675 1.256 . S
O668 Mn663 2.251 1_454 S
O668 C673 1.241 . S
O669 Mn663 2.087 1_554 S
O669 C674 1.256 . S
C670 O676 1.278 . S
C670 O677 1.241 . S
C671 O657 1.244 . S
C671 O659 1.256 . S
C672 O661 1.239 1_556 S
C672 O665 1.256 . S
C673 O662 1.278 1_455 S
C673 O668 1.241 . S
C674 O664 1.244 . S
C674 O669 1.256 . S
C675 O666 1.239 . S
C675 O667 1.256 . S
O676 Mn658 2.221 . S
O676 Mn660 2.290 . S
O676 C670 1.278 . S
O677 Mn660 2.251 . S
O677 C670 1.241 . S
O678 Mn679 2.163 . S
O678 C692 1.244 . S
Mn679 O678 2.163 . S
Mn679 O682 2.136 1_455 S
Mn679 O683 2.221 . S
Mn679 O685 2.163 . S
Mn679 O687 2.160 . S
Mn679 O697 2.221 . S
O680 Mn681 2.087 . S
O680 C692 1.256 . S
Mn681 O680 2.087 . S
Mn681 O688 2.089 . S
Mn681 O697 2.290 . S
Mn681 O698 2.251 . S
O682 Mn679 2.136 1_655 S
O682 C693 1.258 . S
O683 Mn679 2.221 . S
O683 Mn684 2.290 1_455 S
O683 C694 1.278 . S
Mn684 O683 2.290 1_655 S
Mn684 O686 2.089 . S
Mn684 O689 2.251 1_665 S
Mn684 O690 2.087 1_655 S
O685 Mn679 2.163 . S
O685 C695 1.244 . S
O686 Mn684 2.089 . S
O686 C693 1.256 . S
O687 Mn679 2.160 . S
O687 C696 1.239 . S
O688 Mn681 2.089 . S
O688 C696 1.256 . S
O689 Mn684 2.251 1_445 S
O689 C694 1.241 1_545 S
O690 Mn684 2.087 1_455 S
O690 C695 1.256 . S
C691 O697 1.278 . S
C691 O698 1.241 . S
C692 O678 1.244 . S
C692 O680 1.256 . S
C693 O682 1.258 . S
C693 O686 1.256 . S
C694 O683 1.278 . S
C694 O689 1.241 1_565 S
C695 O685 1.244 . S
C695 O690 1.256 . S
C696 O687 1.239 . S
C696 O688 1.256 . S
O697 Mn679 2.221 . S
O697 Mn681 2.290 . S
O697 C691 1.278 . S
O698 Mn681 2.251 . S
O698 C691 1.241 . S
O699 Mn700 2.163 . S
O699 C713 1.244 . S
Mn700 O699 2.163 . S
Mn700 O703 2.160 . S
Mn700 O704 2.221 . S
Mn700 O706 2.163 . S
Mn700 O708 2.160 . S
Mn700 O718 2.221 . S
O701 Mn702 2.087 . S
O701 C713 1.256 . S
Mn702 O701 2.087 . S
Mn702 O709 2.089 . S
Mn702 O718 2.290 . S
Mn702 O719 2.251 . S
O703 Mn700 2.160 . S
O703 C714 1.239 . S
O704 Mn700 2.221 . S
O704 Mn705 2.290 . S
O704 C715 1.278 . S
Mn705 O704 2.290 . S
Mn705 O707 2.089 . S
Mn705 O710 2.251 . S
Mn705 O711 2.087 . S
O706 Mn700 2.163 . S
O706 C716 1.244 . S
O707 Mn705 2.089 . S
O707 C714 1.256 . S
O708 Mn700 2.160 . S
O708 C717 1.239 . S
O709 Mn702 2.089 . S
O709 C717 1.256 . S
O710 Mn705 2.251 . S
O710 C715 1.241 . S
O711 Mn705 2.087 . S
O711 C716 1.256 . S
C712 O718 1.278 . S
C712 O719 1.241 . S
C713 O699 1.244 . S
C713 O701 1.256 . S
C714 O703 1.239 . S
C714 O707 1.256 . S
C715 O704 1.278 . S
C715 O710 1.241 . S
C716 O706 1.244 . S
C716 O711 1.256 . S
C717 O708 1.239 . S
C717 O709 1.256 . S
O718 Mn700 2.221 . S
O718 Mn702 2.290 . S
O718 C712 1.278 . S
O719 Mn702 2.251 . S
O719 C712 1.241 . S
O720 Mn721 2.163 . S
O720 C734 1.244 . S
Mn721 O720 2.163 . S
Mn721 O724 2.160 . S
Mn721 O725 2.221 . S
Mn721 O727 2.163 . S
Mn721 O729 2.160 . S
Mn721 O739 2.221 . S
O722 Mn723 2.087 . S
O722 C734 1.256 . S
Mn723 O722 2.087 . S
Mn723 O730 2.089 . S
Mn723 O739 2.290 . S
Mn723 O740 2.251 . S
O724 Mn721 2.160 . S
O724 C735 1.239 . S
O725 Mn721 2.221 . S
O725 Mn726 2.290 . S
O725 C736 1.278 . S
Mn726 O725 2.290 . S
Mn726 O728 2.089 . S
Mn726 O731 2.251 . S
Mn726 O732 2.087 . S
O727 Mn721 2.163 . S
O727 C737 1.236 1_565 S
O728 Mn726 2.089 . S
O728 C735 1.256 . S
O729 Mn721 2.160 . S
O729 C738 1.239 . S
O730 Mn723 2.089 . S
O730 C738 1.256 . S
O731 Mn726 2.251 . S
O731 C736 1.241 . S
O732 Mn726 2.087 . S
O732 C737 1.255 1_565 S
C733 O739 1.278 . S
C733 O740 1.241 . S
C734 O720 1.244 . S
C734 O722 1.256 . S
C735 O724 1.239 . S
C735 O728 1.256 . S
C736 O725 1.278 . S
C736 O731 1.241 . S
C737 O727 1.236 1_545 S
C737 O732 1.255 1_545 S
C738 O729 1.239 . S
C738 O730 1.256 . S
O739 Mn721 2.221 . S
O739 Mn723 2.290 . S
O739 C733 1.278 . S
O740 Mn723 2.251 . S
O740 C733 1.241 . S
O741 Mn742 2.163 . S
O741 C755 1.244 . S
Mn742 O741 2.163 . S
Mn742 O745 2.160 . S
Mn742 O746 2.221 . S
Mn742 O748 2.163 . S
Mn742 O750 2.160 . S
Mn742 O760 2.221 . S
O743 Mn744 2.087 . S
O743 C755 1.256 . S
Mn744 O743 2.087 . S
Mn744 O751 2.089 . S
Mn744 O760 2.290 . S
Mn744 O761 2.251 . S
O745 Mn742 2.160 . S
O745 C756 1.239 . S
O746 Mn742 2.221 . S
O746 Mn747 2.290 . S
O746 C757 1.278 . S
Mn747 O746 2.290 . S
Mn747 O749 2.089 . S
Mn747 O752 2.251 . S
Mn747 O753 2.087 . S
O748 Mn742 2.163 . S
O748 C758 1.244 . S
O749 Mn747 2.089 . S
O749 C756 1.256 . S
O750 Mn742 2.160 . S
O750 C759 1.239 . S
O751 Mn744 2.089 . S
O751 C759 1.256 . S
O752 Mn747 2.251 . S
O752 C757 1.241 . S
O753 Mn747 2.087 . S
O753 C758 1.256 . S
C754 O760 1.278 . S
C754 O761 1.241 . S
C755 O741 1.244 . S
C755 O743 1.256 . S
C756 O745 1.239 . S
C756 O749 1.256 . S
C757 O746 1.278 . S
C757 O752 1.241 . S
C758 O748 1.244 . S
C758 O753 1.256 . S
C759 O750 1.239 . S
C759 O751 1.256 . S
O760 Mn742 2.221 . S
O760 Mn744 2.290 . S
O760 C754 1.278 . S
O761 Mn744 2.251 . S
O761 C754 1.241 . S
O762 Mn763 2.163 . S
O762 C776 1.244 . S
Mn763 O762 2.163 . S
Mn763 O766 2.160 . S
Mn763 O767 2.221 . S
Mn763 O769 2.163 . S
Mn763 O771 2.160 . S
Mn763 O781 2.221 . S
O764 Mn765 2.087 . S
O764 C776 1.256 . S
Mn765 O764 2.087 . S
Mn765 O772 2.089 . S
Mn765 O781 2.290 . S
Mn765 O782 2.251 . S
O766 Mn763 2.160 . S
O766 C777 1.239 . S
O767 Mn763 2.221 . S
O767 Mn768 2.290 . S
O767 C778 1.278 . S
Mn768 O767 2.290 . S
Mn768 O770 2.087 1_556 S
Mn768 O773 2.251 . S
Mn768 O774 2.087 1_556 S
O769 Mn763 2.163 . S
O769 C779 1.244 1_556 S
O770 Mn768 2.087 1_554 S
O770 C777 1.253 1_554 S
O771 Mn763 2.160 . S
O771 C780 1.239 . S
O772 Mn765 2.089 . S
O772 C780 1.256 . S
O773 Mn768 2.251 . S
O773 C778 1.241 . S
O774 Mn768 2.087 1_554 S
O774 C779 1.256 . S
C775 O781 1.278 . S
C775 O782 1.241 . S
C776 O762 1.244 . S
C776 O764 1.256 . S
C777 O766 1.239 . S
C777 O770 1.253 1_556 S
C778 O767 1.278 . S
C778 O773 1.241 . S
C779 O769 1.244 1_554 S
C779 O774 1.256 . S
C780 O771 1.239 . S
C780 O772 1.256 . S
O781 Mn763 2.221 . S
O781 Mn765 2.290 . S
O781 C775 1.278 . S
O782 Mn765 2.251 . S
O782 C775 1.241 . S
O783 Mn784 2.163 . S
O783 C797 1.244 . S
Mn784 O783 2.163 . S
Mn784 O787 2.160 . S
Mn784 O788 2.221 . S
Mn784 O790 2.163 . S
Mn784 O792 2.160 . S
Mn784 O802 2.221 . S
O785 Mn786 2.087 . S
O785 C797 1.256 . S
Mn786 O785 2.087 . S
Mn786 O793 2.089 . S
Mn786 O802 2.290 . S
Mn786 O803 2.251 . S
O787 Mn784 2.160 . S
O787 C798 1.239 . S
O788 Mn784 2.221 . S
O788 Mn789 2.290 . S
O788 C799 1.278 . S
Mn789 O788 2.290 . S
Mn789 O791 2.089 . S
Mn789 O794 2.251 1_556 S
Mn789 O795 2.087 . S
O790 Mn784 2.163 . S
O790 C800 1.244 . S
O791 Mn789 2.089 . S
O791 C798 1.256 . S
O792 Mn784 2.160 . S
O792 C801 1.239 . S
O793 Mn786 2.089 . S
O793 C801 1.256 . S
O794 Mn789 2.251 1_554 S
O794 C799 1.241 1_554 S
O795 Mn789 2.087 . S
O795 C800 1.256 . S
C796 O802 1.278 . S
C796 O803 1.241 . S
C797 O783 1.244 . S
C797 O785 1.256 . S
C798 O787 1.239 . S
C798 O791 1.256 . S
C799 O788 1.278 . S
C799 O794 1.241 1_556 S
C800 O790 1.244 . S
C800 O795 1.256 . S
C801 O792 1.239 . S
C801 O793 1.256 . S
O802 Mn784 2.221 . S
O802 Mn786 2.290 . S
O802 C796 1.278 . S
O803 Mn786 2.251 . S
O803 C796 1.241 . S
H804 C816 0.930 . S
H805 C818 0.930 . S
H806 C819 0.930 . S
H807 C823 0.959 . S
H808 C823 0.959 . S
H809 C823 0.961 . S
H810 C824 0.960 . S
H811 C824 0.961 . S
H812 C824 0.959 . S
H813 C827 0.929 . S
H814 C828 0.931 . S
H815 C830 0.930 . S
C816 H804 0.930 . S
C816 C817 1.399 . S
C816 C821 1.399 . S
C817 C816 1.399 . S
C817 C818 1.376 . S
C818 H805 0.930 . S
C818 C817 1.376 . S
C818 C819 1.388 . S
C819 H806 0.930 . S
C819 C818 1.388 . S
C819 C820 1.390 . S
C820 C819 1.390 . S
C820 C821 1.394 . S
C820 C826 1.465 . S
C821 C816 1.399 . S
C821 C820 1.394 . S
C821 C822 1.516 . S
C822 C821 1.516 . S
C822 C823 1.502 . S
C822 C824 1.561 . S
C822 C825 1.526 . S
C823 H807 0.959 . S
C823 H808 0.959 . S
C823 H809 0.961 . S
C823 C822 1.502 . S
C824 H810 0.960 . S
C824 H811 0.961 . S
C824 H812 0.959 . S
C824 C822 1.561 . S
C825 C822 1.526 . S
C825 C826 1.396 . S
C825 C830 1.390 . S
C826 C820 1.465 . S
C826 C825 1.396 . S
C826 C827 1.399 . S
C827 H813 0.929 . S
C827 C826 1.399 . S
C827 C828 1.385 . S
C828 H814 0.931 . S
C828 C827 1.385 . S
C828 C829 1.389 . S
C829 C828 1.389 . S
C829 C830 1.387 . S
C830 H815 0.930 . S
C830 C825 1.390 . S
C830 C829 1.387 . S
H831 C843 0.930 1_655 S
H832 C845 0.930 . S
H833 C846 0.930 . S
H834 C850 0.959 1_455 S
H835 C850 0.959 . S
H836 C850 0.961 . S
H837 C851 0.960 . S
H838 C851 0.961 . S
H839 C851 0.959 . S
H840 C854 0.929 . S
H841 C855 0.931 . S
H842 C857 0.930 . S
C843 H831 0.930 1_455 S
C843 C844 1.399 . S
C843 C848 1.399 1_455 S
C844 C843 1.399 . S
C844 C845 1.376 . S
C845 H832 0.930 . S
C845 C844 1.376 . S
C845 C846 1.388 . S
C846 H833 0.930 . S
C846 C845 1.388 . S
C846 C847 1.390 . S
C847 C846 1.390 . S
C847 C848 1.394 1_455 S
C847 C853 1.465 1_455 S
C848 C843 1.399 1_655 S
C848 C847 1.394 1_655 S
C848 C849 1.516 . S
C849 C848 1.516 . S
C849 C850 1.502 . S
C849 C851 1.561 . S
C849 C852 1.526 . S
C850 H834 0.959 1_655 S
C850 H835 0.959 . S
C850 H836 0.961 . S
C850 C849 1.502 . S
C851 H837 0.960 . S
C851 H838 0.961 . S
C851 H839 0.959 . S
C851 C849 1.561 . S
C852 C849 1.526 . S
C852 C853 1.396 . S
C852 C857 1.390 . S
C853 C847 1.465 1_655 S
C853 C852 1.396 . S
C853 C854 1.399 1_655 S
C854 H840 0.929 . S
C854 C853 1.399 1_455 S
C854 C855 1.385 1_455 S
C855 H841 0.931 . S
C855 C854 1.385 1_655 S
C855 C856 1.389 . S
C856 C855 1.389 . S
C856 C857 1.387 . S
C857 H842 0.930 . S
C857 C852 1.390 . S
C857 C856 1.387 . S
H858 C870 0.930 . S
H859 C872 0.930 . S
H860 C873 0.930 . S
H861 C877 0.959 . S
H862 C877 0.959 . S
H863 C877 0.961 . S
H864 C878 0.960 . S
H865 C878 0.961 . S
H866 C878 0.959 . S
H867 C881 0.929 . S
H868 C882 0.931 . S
H869 C884 0.930 . S
C870 H858 0.930 . S
C870 C871 1.399 . S
C870 C875 1.399 . S
C871 C870 1.399 . S
C871 C872 1.376 . S
C872 H859 0.930 . S
C872 C871 1.376 . S
C872 C873 1.388 . S
C873 H860 0.930 . S
C873 C872 1.388 . S
C873 C874 1.390 . S
C874 C873 1.390 . S
C874 C875 1.394 . S
C874 C880 1.465 . S
C875 C870 1.399 . S
C875 C874 1.394 . S
C875 C876 1.516 . S
C876 C875 1.516 . S
C876 C877 1.502 1_455 S
C876 C878 1.561 . S
C876 C879 1.526 . S
C877 H861 0.959 . S
C877 H862 0.959 . S
C877 H863 0.961 . S
C877 C876 1.502 1_655 S
C878 H864 0.960 . S
C878 H865 0.961 . S
C878 H866 0.959 . S
C878 C876 1.561 . S
C879 C876 1.526 . S
C879 C880 1.396 . S
C879 C884 1.390 . S
C880 C874 1.465 . S
C880 C879 1.396 . S
C880 C881 1.399 . S
C881 H867 0.929 . S
C881 C880 1.399 . S
C881 C882 1.385 . S
C882 H868 0.931 . S
C882 C881 1.385 . S
C882 C883 1.389 . S
C883 C882 1.389 . S
C883 C884 1.387 . S
C884 H869 0.930 . S
C884 C879 1.390 . S
C884 C883 1.387 . S
H885 C897 0.930 . S
H886 C899 0.930 . S
H887 C900 0.930 . S
H888 C904 0.959 . S
H889 C904 0.959 . S
H890 C904 0.961 . S
H891 C905 0.960 . S
H892 C905 0.961 . S
H893 C905 0.959 . S
H894 C908 0.929 . S
H895 C909 0.931 . S
H896 C911 0.930 . S
C897 H885 0.930 . S
C897 C898 1.399 1_455 S
C897 C902 1.399 1_455 S
C898 C897 1.399 1_655 S
C898 C899 1.376 . S
C899 H886 0.930 . S
C899 C898 1.376 . S
C899 C900 1.388 . S
C900 H887 0.930 . S
C900 C899 1.388 . S
C900 C901 1.390 . S
C901 C900 1.390 . S
C901 C902 1.394 . S
C901 C907 1.465 . S
C902 C897 1.399 1_655 S
C902 C901 1.394 . S
C902 C903 1.516 1_655 S
C903 C902 1.516 1_455 S
C903 C904 1.504 . S
C903 C905 1.560 1_455 S
C903 C906 1.525 1_455 S
C904 H888 0.959 . S
C904 H889 0.959 . S
C904 H890 0.961 . S
C904 C903 1.504 . S
C905 H891 0.960 . S
C905 H892 0.961 . S
C905 H893 0.959 . S
C905 C903 1.560 1_655 S
C906 C903 1.525 1_655 S
C906 C907 1.396 . S
C906 C911 1.390 . S
C907 C901 1.465 . S
C907 C906 1.396 . S
C907 C908 1.399 . S
C908 H894 0.929 . S
C908 C907 1.399 . S
C908 C909 1.385 . S
C909 H895 0.931 . S
C909 C908 1.385 . S
C909 C910 1.389 . S
C910 C909 1.389 . S
C910 C911 1.387 . S
C911 H896 0.930 . S
C911 C906 1.390 . S
C911 C910 1.387 . S
H912 C924 0.930 . S
H913 C926 0.930 . S
H914 C927 0.930 . S
H915 C931 0.959 . S
H916 C931 0.959 . S
H917 C931 0.961 . S
H918 C932 0.960 . S
H919 C932 0.961 . S
H920 C932 0.959 . S
H921 C935 0.929 . S
H922 C936 0.931 . S
H923 C938 0.930 . S
C924 H912 0.930 . S
C924 C925 1.399 . S
C924 C929 1.399 . S
C925 C924 1.399 . S
C925 C926 1.376 . S
C926 H913 0.930 . S
C926 C925 1.376 . S
C926 C927 1.388 . S
C927 H914 0.930 . S
C927 C926 1.388 . S
C927 C928 1.390 . S
C928 C927 1.390 . S
C928 C929 1.394 . S
C928 C934 1.465 . S
C929 C924 1.399 . S
C929 C928 1.394 . S
C929 C930 1.516 . S
C930 C929 1.516 . S
C930 C931 1.502 1_545 S
C930 C932 1.561 . S
C930 C933 1.526 . S
C931 H915 0.959 . S
C931 H916 0.959 . S
C931 H917 0.961 . S
C931 C930 1.502 1_565 S
C932 H918 0.960 . S
C932 H919 0.961 . S
C932 H920 0.959 . S
C932 C930 1.561 . S
C933 C930 1.526 . S
C933 C934 1.396 . S
C933 C938 1.390 . S
C934 C928 1.465 . S
C934 C933 1.396 . S
C934 C935 1.399 . S
C935 H921 0.929 . S
C935 C934 1.399 . S
C935 C936 1.385 . S
C936 H922 0.931 . S
C936 C935 1.385 . S
C936 C937 1.389 . S
C937 C936 1.389 . S
C937 C938 1.387 . S
C938 H923 0.930 . S
C938 C933 1.390 . S
C938 C937 1.387 . S
H939 C951 0.930 . S
H940 C953 0.930 . S
H941 C954 0.930 . S
H942 C958 0.959 . S
H943 C958 0.959 . S
H944 C958 0.961 . S
H945 C959 0.960 . S
H946 C959 0.961 . S
H947 C959 0.959 . S
H948 C962 0.929 . S
H949 C963 0.931 . S
H950 C965 0.930 . S
C951 H939 0.930 . S
C951 C952 1.399 . S
C951 C956 1.399 . S
C952 C951 1.399 . S
C952 C953 1.376 . S
C953 H940 0.930 . S
C953 C952 1.376 . S
C953 C954 1.388 . S
C954 H941 0.930 . S
C954 C953 1.388 . S
C954 C955 1.390 . S
C955 C954 1.390 . S
C955 C956 1.394 . S
C955 C961 1.465 . S
C956 C951 1.399 . S
C956 C955 1.394 . S
C956 C957 1.516 . S
C957 C956 1.516 . S
C957 C958 1.502 . S
C957 C959 1.561 . S
C957 C960 1.526 . S
C958 H942 0.959 . S
C958 H943 0.959 . S
C958 H944 0.961 . S
C958 C957 1.502 . S
C959 H945 0.960 . S
C959 H946 0.961 . S
C959 H947 0.959 . S
C959 C957 1.561 . S
C960 C957 1.526 . S
C960 C961 1.396 . S
C960 C965 1.390 . S
C961 C955 1.465 . S
C961 C960 1.396 . S
C961 C962 1.399 . S
C962 H948 0.929 . S
C962 C961 1.399 . S
C962 C963 1.385 . S
C963 H949 0.931 . S
C963 C962 1.385 . S
C963 C964 1.389 . S
C964 C963 1.389 . S
C964 C965 1.387 . S
C965 H950 0.930 . S
C965 C960 1.390 . S
C965 C964 1.387 . S
H966 C978 0.930 . S
H967 C980 0.930 . S
H968 C981 0.930 . S
H969 C985 0.959 . S
H970 C985 0.959 . S
H971 C985 0.961 . S
H972 C986 0.960 . S
H973 C986 0.961 . S
H974 C986 0.959 . S
H975 C989 0.929 . S
H976 C990 0.931 . S
H977 C992 0.930 1_545 S
C978 H966 0.930 . S
C978 C979 1.399 1_545 S
C978 C983 1.402 . S
C979 C978 1.399 1_565 S
C979 C980 1.376 . S
C980 H967 0.930 . S
C980 C979 1.376 . S
C980 C981 1.388 . S
C981 H968 0.930 . S
C981 C980 1.388 . S
C981 C982 1.390 . S
C982 C981 1.390 . S
C982 C983 1.386 1_565 S
C982 C988 1.465 . S
C983 C978 1.402 . S
C983 C982 1.386 1_545 S
C983 C984 1.520 . S
C984 C983 1.520 . S
C984 C985 1.502 . S
C984 C986 1.561 . S
C984 C987 1.526 1_545 S
C985 H969 0.959 . S
C985 H970 0.959 . S
C985 H971 0.961 . S
C985 C984 1.502 . S
C986 H972 0.960 . S
C986 H973 0.961 . S
C986 H974 0.959 . S
C986 C984 1.561 . S
C987 C984 1.526 1_565 S
C987 C988 1.396 . S
C987 C992 1.390 . S
C988 C982 1.465 . S
C988 C987 1.396 . S
C988 C989 1.399 . S
C989 H975 0.929 . S
C989 C988 1.399 . S
C989 C990 1.385 . S
C990 H976 0.931 . S
C990 C989 1.385 . S
C990 C991 1.389 . S
C991 C990 1.389 . S
C991 C992 1.387 . S
C992 H977 0.930 1_565 S
C992 C987 1.390 . S
C992 C991 1.387 . S
H993 C1005 0.930 . S
H994 C1007 0.930 . S
H995 C1008 0.930 . S
H996 C1012 0.959 . S
H997 C1012 0.959 . S
H998 C1012 0.961 . S
H999 C1013 0.960 . S
H1000 C1013 0.961 . S
H1001 C1013 0.959 . S
H1002 C1016 0.929 . S
H1003 C1017 0.931 . S
H1004 C1019 0.930 . S
C1005 H993 0.930 . S
C1005 C1006 1.399 . S
C1005 C1010 1.399 . S
C1006 C1005 1.399 . S
C1006 C1007 1.376 . S
C1007 H994 0.930 . S
C1007 C1006 1.376 . S
C1007 C1008 1.388 . S
C1008 H995 0.930 . S
C1008 C1007 1.388 . S
C1008 C1009 1.390 . S
C1009 C1008 1.390 . S
C1009 C1010 1.394 . S
C1009 C1015 1.465 . S
C1010 C1005 1.399 . S
C1010 C1009 1.394 . S
C1010 C1011 1.516 . S
C1011 C1010 1.516 . S
C1011 C1012 1.502 . S
C1011 C1013 1.561 . S
C1011 C1014 1.526 . S
C1012 H996 0.959 . S
C1012 H997 0.959 . S
C1012 H998 0.961 . S
C1012 C1011 1.502 . S
C1013 H999 0.960 . S
C1013 H1000 0.961 . S
C1013 H1001 0.959 . S
C1013 C1011 1.561 . S
C1014 C1011 1.526 . S
C1014 C1015 1.396 . S
C1014 C1019 1.390 . S
C1015 C1009 1.465 . S
C1015 C1014 1.396 . S
C1015 C1016 1.399 . S
C1016 H1002 0.929 . S
C1016 C1015 1.399 . S
C1016 C1017 1.385 . S
C1017 H1003 0.931 . S
C1017 C1016 1.385 . S
C1017 C1018 1.389 . S
C1018 C1017 1.389 . S
C1018 C1019 1.387 . S
C1019 H1004 0.930 . S
C1019 C1014 1.390 . S
C1019 C1018 1.387 . S
H1020 C1032 0.930 . S
H1021 C1034 0.930 . S
H1022 C1035 0.930 . S
H1023 C1039 0.959 . S
H1024 C1039 0.959 . S
H1025 C1039 0.961 . S
H1026 C1040 0.960 . S
H1027 C1040 0.961 . S
H1028 C1040 0.959 1_554 S
H1029 C1043 0.929 . S
H1030 C1044 0.931 . S
H1031 C1046 0.930 1_556 S
C1032 H1020 0.930 . S
C1032 C1033 1.399 . S
C1032 C1037 1.399 . S
C1033 C1032 1.399 . S
C1033 C1034 1.376 . S
C1034 H1021 0.930 . S
C1034 C1033 1.376 . S
C1034 C1035 1.388 . S
C1035 H1022 0.930 . S
C1035 C1034 1.388 . S
C1035 C1036 1.390 . S
C1036 C1035 1.390 . S
C1036 C1037 1.394 . S
C1036 C1042 1.465 . S
C1037 C1032 1.399 . S
C1037 C1036 1.394 . S
C1037 C1038 1.496 1_554 S
C1038 C1037 1.496 1_556 S
C1038 C1039 1.525 . S
C1038 C1040 1.571 . S
C1038 C1041 1.510 1_556 S
C1039 H1023 0.959 . S
C1039 H1024 0.959 . S
C1039 H1025 0.961 . S
C1039 C1038 1.525 . S
C1040 H1026 0.960 . S
C1040 H1027 0.961 . S
C1040 H1028 0.959 1_556 S
C1040 C1038 1.571 . S
C1041 C1038 1.510 1_554 S
C1041 C1042 1.396 . S
C1041 C1046 1.390 . S
C1042 C1036 1.465 . S
C1042 C1041 1.396 . S
C1042 C1043 1.399 . S
C1043 H1029 0.929 . S
C1043 C1042 1.399 . S
C1043 C1044 1.385 . S
C1044 H1030 0.931 . S
C1044 C1043 1.385 . S
C1044 C1045 1.389 . S
C1045 C1044 1.389 . S
C1045 C1046 1.387 . S
C1046 H1031 0.930 1_554 S
C1046 C1041 1.390 . S
C1046 C1045 1.387 . S
H1047 C1059 0.930 . S
H1048 C1061 0.930 . S
H1049 C1062 0.930 . S
H1050 C1066 0.959 . S
H1051 C1066 0.959 . S
H1052 C1066 0.961 . S
H1053 C1067 0.960 . S
H1054 C1067 0.961 . S
H1055 C1067 0.959 . S
H1056 C1070 0.929 . S
H1057 C1071 0.931 . S
H1058 C1073 0.930 . S
C1059 H1047 0.930 . S
C1059 C1060 1.399 . S
C1059 C1064 1.399 . S
C1060 C1059 1.399 . S
C1060 C1061 1.376 . S
C1061 H1048 0.930 . S
C1061 C1060 1.376 . S
C1061 C1062 1.388 . S
C1062 H1049 0.930 . S
C1062 C1061 1.388 . S
C1062 C1063 1.390 . S
C1063 C1062 1.390 . S
C1063 C1064 1.394 . S
C1063 C1069 1.465 . S
C1064 C1059 1.399 . S
C1064 C1063 1.394 . S
C1064 C1065 1.516 . S
C1065 C1064 1.516 . S
C1065 C1066 1.502 . S
C1065 C1067 1.561 . S
C1065 C1068 1.526 . S
C1066 H1050 0.959 . S
C1066 H1051 0.959 . S
C1066 H1052 0.961 . S
C1066 C1065 1.502 . S
C1067 H1053 0.960 . S
C1067 H1054 0.961 . S
C1067 H1055 0.959 . S
C1067 C1065 1.561 . S
C1068 C1065 1.526 . S
C1068 C1069 1.396 . S
C1068 C1073 1.390 . S
C1069 C1063 1.465 . S
C1069 C1068 1.396 . S
C1069 C1070 1.399 . S
C1070 H1056 0.929 . S
C1070 C1069 1.399 . S
C1070 C1071 1.385 . S
C1071 H1057 0.931 . S
C1071 C1070 1.385 . S
C1071 C1072 1.389 . S
C1072 C1071 1.389 . S
C1072 C1073 1.387 . S
C1073 H1058 0.930 . S
C1073 C1068 1.390 . S
C1073 C1072 1.387 . S
H1074 C1086 0.930 . S
H1075 C1088 0.930 . S
H1076 C1089 0.930 . S
H1077 C1093 0.959 . S
H1078 C1093 0.959 . S
H1079 C1093 0.961 . S
H1080 C1094 0.960 . S
H1081 C1094 0.961 . S
H1082 C1094 0.959 . S
H1083 C1097 0.929 . S
H1084 C1098 0.931 . S
H1085 C1100 0.930 . S
C1086 H1074 0.930 . S
C1086 C1087 1.399 . S
C1086 C1091 1.399 . S
C1087 C1086 1.399 . S
C1087 C1088 1.376 . S
C1088 H1075 0.930 . S
C1088 C1087 1.376 . S
C1088 C1089 1.388 . S
C1089 H1076 0.930 . S
C1089 C1088 1.388 . S
C1089 C1090 1.390 . S
C1090 C1089 1.390 . S
C1090 C1091 1.394 . S
C1090 C1096 1.465 . S
C1091 C1086 1.399 . S
C1091 C1090 1.394 . S
C1091 C1092 1.516 . S
C1092 C1091 1.516 . S
C1092 C1093 1.502 . S
C1092 C1094 1.561 . S
C1092 C1095 1.526 . S
C1093 H1077 0.959 . S
C1093 H1078 0.959 . S
C1093 H1079 0.961 . S
C1093 C1092 1.502 . S
C1094 H1080 0.960 . S
C1094 H1081 0.961 . S
C1094 H1082 0.959 . S
C1094 C1092 1.561 . S
C1095 C1092 1.526 . S
C1095 C1096 1.396 . S
C1095 C1100 1.390 . S
C1096 C1090 1.465 . S
C1096 C1095 1.396 . S
C1096 C1097 1.399 . S
C1097 H1083 0.929 . S
C1097 C1096 1.399 . S
C1097 C1098 1.385 . S
C1098 H1084 0.931 . S
C1098 C1097 1.385 . S
C1098 C1099 1.389 . S
C1099 C1098 1.389 . S
C1099 C1100 1.387 . S
C1100 H1085 0.930 . S
C1100 C1095 1.390 . S
C1100 C1099 1.387 . S
H1101 C1113 0.930 . S
H1102 C1115 0.930 . S
H1103 C1116 0.930 . S
H1104 C1120 0.959 . S
H1105 C1120 0.959 . S
H1106 C1120 0.961 . S
H1107 C1121 0.960 . S
H1108 C1121 0.961 . S
H1109 C1121 0.959 . S
H1110 C1124 0.929 . S
H1111 C1125 0.931 . S
H1112 C1127 0.930 . S
C1113 H1101 0.930 . S
C1113 C1114 1.399 . S
C1113 C1118 1.399 . S
C1114 C1113 1.399 . S
C1114 C1115 1.376 . S
C1115 H1102 0.930 . S
C1115 C1114 1.376 . S
C1115 C1116 1.388 . S
C1116 H1103 0.930 . S
C1116 C1115 1.388 . S
C1116 C1117 1.390 . S
C1117 C1116 1.390 . S
C1117 C1118 1.394 . S
C1117 C1123 1.465 . S
C1118 C1113 1.399 . S
C1118 C1117 1.394 . S
C1118 C1119 1.516 . S
C1119 C1118 1.516 . S
C1119 C1120 1.502 . S
C1119 C1121 1.561 . S
C1119 C1122 1.526 . S
C1120 H1104 0.959 . S
C1120 H1105 0.959 . S
C1120 H1106 0.961 . S
C1120 C1119 1.502 . S
C1121 H1107 0.960 . S
C1121 H1108 0.961 . S
C1121 H1109 0.959 . S
C1121 C1119 1.561 . S
C1122 C1119 1.526 . S
C1122 C1123 1.396 . S
C1122 C1127 1.390 . S
C1123 C1117 1.465 . S
C1123 C1122 1.396 . S
C1123 C1124 1.399 . S
C1124 H1110 0.929 . S
C1124 C1123 1.399 . S
C1124 C1125 1.385 . S
C1125 H1111 0.931 . S
C1125 C1124 1.385 . S
C1125 C1126 1.389 . S
C1126 C1125 1.389 . S
C1126 C1127 1.387 . S
C1127 H1112 0.930 . S
C1127 C1122 1.390 . S
C1127 C1126 1.387 . S
H1128 C1140 0.930 . S
H1129 C1142 0.930 . S
H1130 C1143 0.930 . S
H1131 C1147 0.959 . S
H1132 C1147 0.959 . S
H1133 C1147 0.961 . S
H1134 C1148 0.960 . S
H1135 C1148 0.961 . S
H1136 C1148 0.959 . S
H1137 C1151 0.929 . S
H1138 C1152 0.931 . S
H1139 C1154 0.930 . S
C1140 H1128 0.930 . S
C1140 C1141 1.399 . S
C1140 C1145 1.399 . S
C1141 C1140 1.399 . S
C1141 C1142 1.376 . S
C1142 H1129 0.930 . S
C1142 C1141 1.376 . S
C1142 C1143 1.388 . S
C1143 H1130 0.930 . S
C1143 C1142 1.388 . S
C1143 C1144 1.390 . S
C1144 C1143 1.390 . S
C1144 C1145 1.394 . S
C1144 C1150 1.465 . S
C1145 C1140 1.399 . S
C1145 C1144 1.394 . S
C1145 C1146 1.516 . S
C1146 C1145 1.516 . S
C1146 C1147 1.502 . S
C1146 C1148 1.561 . S
C1146 C1149 1.526 . S
C1147 H1131 0.959 . S
C1147 H1132 0.959 . S
C1147 H1133 0.961 . S
C1147 C1146 1.502 . S
C1148 H1134 0.960 . S
C1148 H1135 0.961 . S
C1148 H1136 0.959 . S
C1148 C1146 1.561 . S
C1149 C1146 1.526 . S
C1149 C1150 1.396 . S
C1149 C1154 1.390 . S
C1150 C1144 1.465 . S
C1150 C1149 1.396 . S
C1150 C1151 1.399 . S
C1151 H1137 0.929 . S
C1151 C1150 1.399 . S
C1151 C1152 1.385 . S
C1152 H1138 0.931 . S
C1152 C1151 1.385 . S
C1152 C1153 1.389 . S
C1153 C1152 1.389 . S
C1153 C1154 1.387 . S
C1154 H1139 0.930 . S
C1154 C1149 1.390 . S
C1154 C1153 1.387 . S
H1155 C1167 0.930 . S
H1156 C1169 0.930 . S
H1157 C1170 0.930 . S
H1158 C1174 0.959 . S
H1159 C1174 0.959 . S
H1160 C1174 0.961 . S
H1161 C1175 0.960 . S
H1162 C1175 0.961 . S
H1163 C1175 0.959 . S
H1164 C1178 0.929 . S
H1165 C1179 0.931 . S
H1166 C1181 0.930 . S
C1167 H1155 0.930 . S
C1167 C1168 1.399 . S
C1167 C1172 1.399 . S
C1168 C1167 1.399 . S
C1168 C1169 1.376 . S
C1169 H1156 0.930 . S
C1169 C1168 1.376 . S
C1169 C1170 1.388 . S
C1170 H1157 0.930 . S
C1170 C1169 1.388 . S
C1170 C1171 1.390 . S
C1171 C1170 1.390 . S
C1171 C1172 1.394 . S
C1171 C1177 1.465 . S
C1172 C1167 1.399 . S
C1172 C1171 1.394 . S
C1172 C1173 1.516 . S
C1173 C1172 1.516 . S
C1173 C1174 1.502 . S
C1173 C1175 1.561 . S
C1173 C1176 1.526 . S
C1174 H1158 0.959 . S
C1174 H1159 0.959 . S
C1174 H1160 0.961 . S
C1174 C1173 1.502 . S
C1175 H1161 0.960 . S
C1175 H1162 0.961 . S
C1175 H1163 0.959 . S
C1175 C1173 1.561 . S
C1176 C1173 1.526 . S
C1176 C1177 1.396 . S
C1176 C1181 1.390 . S
C1177 C1171 1.465 . S
C1177 C1176 1.396 . S
C1177 C1178 1.399 . S
C1178 H1164 0.929 . S
C1178 C1177 1.399 . S
C1178 C1179 1.385 . S
C1179 H1165 0.931 . S
C1179 C1178 1.385 . S
C1179 C1180 1.389 . S
C1180 C1179 1.389 . S
C1180 C1181 1.387 . S
C1181 H1166 0.930 . S
C1181 C1176 1.390 . S
C1181 C1180 1.387 . S
H1182 C1194 0.930 . S
H1183 C1196 0.930 . S
H1184 C1197 0.930 . S
H1185 C1201 0.959 . S
H1186 C1201 0.959 . S
H1187 C1201 0.961 . S
H1188 C1202 0.960 . S
H1189 C1202 0.961 . S
H1190 C1202 0.959 . S
H1191 C1205 0.929 . S
H1192 C1206 0.931 . S
H1193 C1208 0.930 . S
C1194 H1182 0.930 . S
C1194 C1195 1.399 . S
C1194 C1199 1.399 . S
C1195 C1194 1.399 . S
C1195 C1196 1.376 . S
C1196 H1183 0.930 . S
C1196 C1195 1.376 . S
C1196 C1197 1.388 . S
C1197 H1184 0.930 . S
C1197 C1196 1.388 . S
C1197 C1198 1.390 . S
C1198 C1197 1.390 . S
C1198 C1199 1.394 . S
C1198 C1204 1.465 . S
C1199 C1194 1.399 . S
C1199 C1198 1.394 . S
C1199 C1200 1.516 . S
C1200 C1199 1.516 . S
C1200 C1201 1.502 . S
C1200 C1202 1.561 . S
C1200 C1203 1.526 . S
C1201 H1185 0.959 . S
C1201 H1186 0.959 . S
C1201 H1187 0.961 . S
C1201 C1200 1.502 . S
C1202 H1188 0.960 . S
C1202 H1189 0.961 . S
C1202 H1190 0.959 . S
C1202 C1200 1.561 . S
C1203 C1200 1.526 . S
C1203 C1204 1.396 . S
C1203 C1208 1.390 . S
C1204 C1198 1.465 . S
C1204 C1203 1.396 . S
C1204 C1205 1.399 . S
C1205 H1191 0.929 . S
C1205 C1204 1.399 . S
C1205 C1206 1.385 . S
C1206 H1192 0.931 . S
C1206 C1205 1.385 . S
C1206 C1207 1.389 . S
C1207 C1206 1.389 . S
C1207 C1208 1.387 . S
C1208 H1193 0.930 . S
C1208 C1203 1.390 . S
C1208 C1207 1.387 . S
H1209 C1221 0.930 . S
H1210 C1223 0.930 . S
H1211 C1224 0.930 . S
H1212 C1228 0.959 . S
H1213 C1228 0.959 . S
H1214 C1228 0.961 . S
H1215 C1229 0.960 . S
H1216 C1229 0.961 . S
H1217 C1229 0.959 . S
H1218 C1232 0.929 . S
H1219 C1233 0.931 . S
H1220 C1235 0.930 . S
C1221 H1209 0.930 . S
C1221 C1222 1.399 . S
C1221 C1226 1.399 . S
C1222 C1221 1.399 . S
C1222 C1223 1.376 . S
C1223 H1210 0.930 . S
C1223 C1222 1.376 . S
C1223 C1224 1.388 . S
C1224 H1211 0.930 . S
C1224 C1223 1.388 . S
C1224 C1225 1.390 . S
C1225 C1224 1.390 . S
C1225 C1226 1.394 . S
C1225 C1231 1.465 . S
C1226 C1221 1.399 . S
C1226 C1225 1.394 . S
C1226 C1227 1.516 . S
C1227 C1226 1.516 . S
C1227 C1228 1.502 . S
C1227 C1229 1.561 . S
C1227 C1230 1.526 . S
C1228 H1212 0.959 . S
C1228 H1213 0.959 . S
C1228 H1214 0.961 . S
C1228 C1227 1.502 . S
C1229 H1215 0.960 . S
C1229 H1216 0.961 . S
C1229 H1217 0.959 . S
C1229 C1227 1.561 . S
C1230 C1227 1.526 . S
C1230 C1231 1.396 . S
C1230 C1235 1.390 . S
C1231 C1225 1.465 . S
C1231 C1230 1.396 . S
C1231 C1232 1.399 . S
C1232 H1218 0.929 . S
C1232 C1231 1.399 . S
C1232 C1233 1.385 . S
C1233 H1219 0.931 . S
C1233 C1232 1.385 . S
C1233 C1234 1.389 . S
C1234 C1233 1.389 . S
C1234 C1235 1.387 . S
C1235 H1220 0.930 . S
C1235 C1230 1.390 . S
C1235 C1234 1.387 . S
H1236 C1248 0.930 . S
H1237 C1250 0.930 . S
H1238 C1251 0.930 . S
H1239 C1255 0.959 . S
H1240 C1255 0.959 . S
H1241 C1255 0.961 . S
H1242 C1256 0.960 . S
H1243 C1256 0.961 . S
H1244 C1256 0.959 . S
H1245 C1259 0.929 . S
H1246 C1260 0.931 . S
H1247 C1262 0.930 . S
C1248 H1236 0.930 . S
C1248 C1249 1.399 . S
C1248 C1253 1.399 . S
C1249 C1248 1.399 . S
C1249 C1250 1.376 . S
C1250 H1237 0.930 . S
C1250 C1249 1.376 . S
C1250 C1251 1.388 . S
C1251 H1238 0.930 . S
C1251 C1250 1.388 . S
C1251 C1252 1.390 . S
C1252 C1251 1.390 . S
C1252 C1253 1.394 . S
C1252 C1258 1.465 . S
C1253 C1248 1.399 . S
C1253 C1252 1.394 . S
C1253 C1254 1.516 . S
C1254 C1253 1.516 . S
C1254 C1255 1.502 . S
C1254 C1256 1.561 . S
C1254 C1257 1.526 . S
C1255 H1239 0.959 . S
C1255 H1240 0.959 . S
C1255 H1241 0.961 . S
C1255 C1254 1.502 . S
C1256 H1242 0.960 . S
C1256 H1243 0.961 . S
C1256 H1244 0.959 . S
C1256 C1254 1.561 . S
C1257 C1254 1.526 . S
C1257 C1258 1.396 . S
C1257 C1262 1.390 . S
C1258 C1252 1.465 . S
C1258 C1257 1.396 . S
C1258 C1259 1.399 . S
C1259 H1245 0.929 . S
C1259 C1258 1.399 . S
C1259 C1260 1.385 . S
C1260 H1246 0.931 . S
C1260 C1259 1.385 . S
C1260 C1261 1.389 . S
C1261 C1260 1.389 . S
C1261 C1262 1.387 . S
C1262 H1247 0.930 . S
C1262 C1257 1.390 . S
C1262 C1261 1.387 . S
H1263 C1275 0.930 1_545 S
H1264 C1277 0.930 . S
H1265 C1278 0.930 . S
H1266 C1282 0.959 1_565 S
H1267 C1282 0.959 . S
H1268 C1282 0.961 . S
H1269 C1283 0.960 . S
H1270 C1283 0.961 . S
H1271 C1283 0.959 . S
H1272 C1286 0.929 . S
H1273 C1287 0.931 . S
H1274 C1289 0.961 . S
C1275 H1263 0.930 1_565 S
C1275 C1276 1.399 . S
C1275 C1280 1.399 . S
C1276 C1275 1.399 . S
C1276 C1277 1.376 . S
C1277 H1264 0.930 . S
C1277 C1276 1.376 . S
C1277 C1278 1.388 . S
C1278 H1265 0.930 . S
C1278 C1277 1.388 . S
C1278 C1279 1.390 . S
C1279 C1278 1.390 . S
C1279 C1280 1.394 . S
C1279 C1285 1.465 . S
C1280 C1275 1.399 . S
C1280 C1279 1.394 . S
C1280 C1281 1.502 1_565 S
C1281 C1280 1.502 1_545 S
C1281 C1282 1.513 . S
C1281 C1283 1.577 . S
C1281 C1284 1.511 1_545 S
C1282 H1266 0.959 1_545 S
C1282 H1267 0.959 . S
C1282 H1268 0.961 . S
C1282 C1281 1.513 . S
C1283 H1269 0.960 . S
C1283 H1270 0.961 . S
C1283 H1271 0.959 . S
C1283 C1281 1.577 . S
C1284 C1281 1.511 1_565 S
C1284 C1285 1.396 . S
C1284 C1289 1.390 . S
C1285 C1279 1.465 . S
C1285 C1284 1.396 . S
C1285 C1286 1.399 . S
C1286 H1272 0.929 . S
C1286 C1285 1.399 . S
C1286 C1287 1.385 . S
C1287 H1273 0.931 . S
C1287 C1286 1.385 . S
C1287 C1288 1.389 . S
C1288 C1287 1.389 . S
C1288 C1289 1.387 . S
C1289 H1274 0.961 . S
C1289 C1284 1.390 . S
C1289 C1288 1.387 . S
H1290 C1302 0.930 . S
H1291 C1304 0.930 . S
H1292 C1305 0.930 . S
H1293 C1309 0.959 . S
H1294 C1309 0.959 . S
H1295 C1309 0.961 . S
H1296 C1310 0.960 . S
H1297 C1310 0.961 . S
H1298 C1310 0.959 . S
H1299 C1313 0.929 . S
H1300 C1314 0.931 . S
H1301 C1316 0.930 . S
C1302 H1290 0.930 . S
C1302 C1303 1.399 . S
C1302 C1307 1.399 . S
C1303 C1302 1.399 . S
C1303 C1304 1.376 . S
C1304 H1291 0.930 . S
C1304 C1303 1.376 . S
C1304 C1305 1.388 . S
C1305 H1292 0.930 . S
C1305 C1304 1.388 . S
C1305 C1306 1.390 . S
C1306 C1305 1.390 . S
C1306 C1307 1.394 . S
C1306 C1312 1.465 . S
C1307 C1302 1.399 . S
C1307 C1306 1.394 . S
C1307 C1308 1.516 . S
C1308 C1307 1.516 . S
C1308 C1309 1.502 . S
C1308 C1310 1.561 . S
C1308 C1311 1.526 . S
C1309 H1293 0.959 . S
C1309 H1294 0.959 . S
C1309 H1295 0.961 . S
C1309 C1308 1.502 . S
C1310 H1296 0.960 . S
C1310 H1297 0.961 . S
C1310 H1298 0.959 . S
C1310 C1308 1.561 . S
C1311 C1308 1.526 . S
C1311 C1312 1.396 . S
C1311 C1316 1.390 . S
C1312 C1306 1.465 . S
C1312 C1311 1.396 . S
C1312 C1313 1.399 . S
C1313 H1299 0.929 . S
C1313 C1312 1.399 . S
C1313 C1314 1.385 . S
C1314 H1300 0.931 . S
C1314 C1313 1.385 . S
C1314 C1315 1.389 . S
C1315 C1314 1.389 . S
C1315 C1316 1.387 . S
C1316 H1301 0.930 . S
C1316 C1311 1.390 . S
C1316 C1315 1.387 . S
H1317 C1329 0.930 . S
H1318 C1331 0.930 1_565 S
H1319 C1332 0.930 1_565 S
H1320 C1336 0.959 . S
H1321 C1336 0.959 . S
H1322 C1336 0.961 . S
H1323 C1337 0.960 . S
H1324 C1337 0.961 . S
H1325 C1337 0.959 . S
H1326 C1340 0.929 1_565 S
H1327 C1341 0.931 . S
H1328 C1343 0.930 . S
C1329 H1317 0.930 . S
C1329 C1330 1.399 . S
C1329 C1334 1.399 . S
C1330 C1329 1.399 . S
C1330 C1331 1.376 . S
C1331 H1318 0.930 1_545 S
C1331 C1330 1.376 . S
C1331 C1332 1.388 . S
C1332 H1319 0.930 1_545 S
C1332 C1331 1.388 . S
C1332 C1333 1.390 . S
C1333 C1332 1.390 . S
C1333 C1334 1.394 . S
C1333 C1339 1.465 . S
C1334 C1329 1.399 . S
C1334 C1333 1.394 . S
C1334 C1335 1.516 . S
C1335 C1334 1.516 . S
C1335 C1336 1.502 . S
C1335 C1337 1.561 . S
C1335 C1338 1.526 . S
C1336 H1320 0.959 . S
C1336 H1321 0.959 . S
C1336 H1322 0.961 . S
C1336 C1335 1.502 . S
C1337 H1323 0.960 . S
C1337 H1324 0.961 . S
C1337 H1325 0.959 . S
C1337 C1335 1.561 . S
C1338 C1335 1.526 . S
C1338 C1339 1.396 . S
C1338 C1343 1.390 . S
C1339 C1333 1.465 . S
C1339 C1338 1.396 . S
C1339 C1340 1.399 . S
C1340 H1326 0.929 1_545 S
C1340 C1339 1.399 . S
C1340 C1341 1.385 . S
C1341 H1327 0.931 . S
C1341 C1340 1.385 . S
C1341 C1342 1.389 . S
C1342 C1341 1.389 . S
C1342 C1343 1.387 . S
C1343 H1328 0.930 . S
C1343 C1338 1.390 . S
C1343 C1342 1.387 . S
H1344 C1356 0.930 . S
H1345 C1358 0.930 . S
H1346 C1359 0.930 . S
H1347 C1363 0.959 . S
H1348 C1363 0.959 . S
H1349 C1363 0.961 . S
H1350 C1364 0.960 . S
H1351 C1364 0.961 . S
H1352 C1364 0.959 . S
H1353 C1367 0.929 . S
H1354 C1368 0.931 . S
H1355 C1370 0.930 . S
C1356 H1344 0.930 . S
C1356 C1357 1.399 . S
C1356 C1361 1.399 . S
C1357 C1356 1.399 . S
C1357 C1358 1.376 . S
C1358 H1345 0.930 . S
C1358 C1357 1.376 . S
C1358 C1359 1.388 . S
C1359 H1346 0.930 . S
C1359 C1358 1.388 . S
C1359 C1360 1.390 . S
C1360 C1359 1.390 . S
C1360 C1361 1.394 . S
C1360 C1366 1.465 . S
C1361 C1356 1.399 . S
C1361 C1360 1.394 . S
C1361 C1362 1.516 . S
C1362 C1361 1.516 . S
C1362 C1363 1.502 . S
C1362 C1364 1.561 . S
C1362 C1365 1.526 . S
C1363 H1347 0.959 . S
C1363 H1348 0.959 . S
C1363 H1349 0.961 . S
C1363 C1362 1.502 . S
C1364 H1350 0.960 . S
C1364 H1351 0.961 . S
C1364 H1352 0.959 . S
C1364 C1362 1.561 . S
C1365 C1362 1.526 . S
C1365 C1366 1.396 . S
C1365 C1370 1.390 . S
C1366 C1360 1.465 . S
C1366 C1365 1.396 . S
C1366 C1367 1.399 . S
C1367 H1353 0.929 . S
C1367 C1366 1.399 . S
C1367 C1368 1.385 . S
C1368 H1354 0.931 . S
C1368 C1367 1.385 . S
C1368 C1369 1.389 . S
C1369 C1368 1.389 . S
C1369 C1370 1.387 . S
C1370 H1355 0.930 . S
C1370 C1365 1.390 . S
C1370 C1369 1.387 . S
H1371 C1383 0.930 . S
H1372 C1385 0.930 . S
H1373 C1386 0.930 . S
H1374 C1390 0.959 . S
H1375 C1390 0.959 . S
H1376 C1390 0.961 . S
H1377 C1391 0.960 . S
H1378 C1391 0.961 . S
H1379 C1391 0.959 . S
H1380 C1394 0.961 . S
H1381 C1395 0.931 . S
H1382 C1397 0.930 . S
C1383 H1371 0.930 . S
C1383 C1384 1.399 1_556 S
C1383 C1388 1.399 . S
C1384 C1383 1.399 1_554 S
C1384 C1385 1.376 . S
C1385 H1372 0.930 . S
C1385 C1384 1.376 . S
C1385 C1386 1.388 . S
C1386 H1373 0.930 . S
C1386 C1385 1.388 . S
C1386 C1387 1.390 1_554 S
C1387 C1386 1.390 1_556 S
C1387 C1388 1.394 . S
C1387 C1393 1.465 . S
C1388 C1383 1.399 . S
C1388 C1387 1.394 . S
C1388 C1389 1.516 . S
C1389 C1388 1.516 . S
C1389 C1390 1.502 . S
C1389 C1391 1.561 . S
C1389 C1392 1.526 . S
C1390 H1374 0.959 . S
C1390 H1375 0.959 . S
C1390 H1376 0.961 . S
C1390 C1389 1.502 . S
C1391 H1377 0.960 . S
C1391 H1378 0.961 . S
C1391 H1379 0.959 . S
C1391 C1389 1.561 . S
C1392 C1389 1.526 . S
C1392 C1393 1.396 . S
C1392 C1397 1.390 . S
C1393 C1387 1.465 . S
C1393 C1392 1.396 . S
C1393 C1394 1.381 1_556 S
C1394 H1380 0.961 . S
C1394 C1393 1.381 1_554 S
C1394 C1395 1.371 1_554 S
C1395 H1381 0.931 . S
C1395 C1394 1.371 1_556 S
C1395 C1396 1.389 . S
C1396 C1395 1.389 . S
C1396 C1397 1.387 . S
C1397 H1382 0.930 . S
C1397 C1392 1.390 . S
C1397 C1396 1.387 . S
H1398 C1410 0.930 . S
H1399 C1412 0.930 . S
H1400 C1413 0.930 . S
H1401 C1417 0.959 . S
H1402 C1417 0.959 . S
H1403 C1417 0.961 . S
H1404 C1418 0.960 . S
H1405 C1418 0.961 . S
H1406 C1418 0.959 . S
H1407 C1421 0.929 . S
H1408 C1422 0.931 . S
H1409 C1424 0.930 . S
C1410 H1398 0.930 . S
C1410 C1411 1.399 . S
C1410 C1415 1.399 . S
C1411 C1410 1.399 . S
C1411 C1412 1.376 1_554 S
C1412 H1399 0.930 . S
C1412 C1411 1.376 1_556 S
C1412 C1413 1.388 . S
C1413 H1400 0.930 . S
C1413 C1412 1.388 . S
C1413 C1414 1.390 . S
C1414 C1413 1.390 . S
C1414 C1415 1.394 1_556 S
C1414 C1420 1.465 . S
C1415 C1410 1.399 . S
C1415 C1414 1.394 1_554 S
C1415 C1416 1.516 . S
C1416 C1415 1.516 . S
C1416 C1417 1.502 . S
C1416 C1418 1.561 . S
C1416 C1419 1.526 . S
C1417 H1401 0.959 . S
C1417 H1402 0.959 . S
C1417 H1403 0.961 . S
C1417 C1416 1.502 . S
C1418 H1404 0.960 . S
C1418 H1405 0.961 . S
C1418 H1406 0.959 . S
C1418 C1416 1.561 . S
C1419 C1416 1.526 . S
C1419 C1420 1.396 1_554 S
C1419 C1424 1.390 . S
C1420 C1414 1.465 . S
C1420 C1419 1.396 1_556 S
C1420 C1421 1.399 . S
C1421 H1407 0.929 . S
C1421 C1420 1.399 . S
C1421 C1422 1.385 . S
C1422 H1408 0.931 . S
C1422 C1421 1.385 . S
C1422 C1423 1.389 . S
C1423 C1422 1.389 . S
C1423 C1424 1.387 1_556 S
C1424 H1409 0.930 . S
C1424 C1419 1.390 . S
C1424 C1423 1.387 1_554 S
H1425 C1437 0.930 . S
H1426 C1439 0.930 . S
H1427 C1440 0.930 . S
H1428 C1444 0.959 . S
H1429 C1444 0.959 . S
H1430 C1444 0.961 . S
H1431 C1445 0.960 . S
H1432 C1445 0.961 . S
H1433 C1445 0.959 . S
H1434 C1448 0.929 . S
H1435 C1449 0.931 1_455 S
H1436 C1451 0.930 1_556 S
C1437 H1425 0.930 . S
C1437 C1438 1.399 . S
C1437 C1442 1.399 . S
C1438 C1437 1.399 . S
C1438 C1439 1.376 . S
C1439 H1426 0.930 . S
C1439 C1438 1.376 . S
C1439 C1440 1.388 . S
C1440 H1427 0.930 . S
C1440 C1439 1.388 . S
C1440 C1441 1.390 . S
C1441 C1440 1.390 . S
C1441 C1442 1.394 . S
C1441 C1447 1.465 . S
C1442 C1437 1.399 . S
C1442 C1441 1.394 . S
C1442 C1443 1.521 . S
C1443 C1442 1.521 . S
C1443 C1444 1.498 1_554 S
C1443 C1445 1.556 1_554 S
C1443 C1446 1.530 . S
C1444 H1428 0.959 . S
C1444 H1429 0.959 . S
C1444 H1430 0.961 . S
C1444 C1443 1.498 1_556 S
C1445 H1431 0.960 . S
C1445 H1432 0.961 . S
C1445 H1433 0.959 . S
C1445 C1443 1.556 1_556 S
C1446 C1443 1.530 . S
C1446 C1447 1.396 . S
C1446 C1451 1.390 . S
C1447 C1441 1.465 . S
C1447 C1446 1.396 . S
C1447 C1448 1.399 . S
C1448 H1434 0.929 . S
C1448 C1447 1.399 . S
C1448 C1449 1.385 . S
C1449 H1435 0.931 1_655 S
C1449 C1448 1.385 . S
C1449 C1450 1.389 . S
C1450 C1449 1.389 . S
C1450 C1451 1.387 . S
C1451 H1436 0.930 1_554 S
C1451 C1446 1.390 . S
C1451 C1450 1.387 . S
H1452 C1464 0.930 . S
H1453 C1466 0.930 . S
H1454 C1467 0.930 . S
H1455 C1471 0.959 . S
H1456 C1471 0.959 . S
H1457 C1471 0.961 . S
H1458 C1472 0.960 . S
H1459 C1472 0.961 . S
H1460 C1472 0.959 . S
H1461 C1475 0.929 . S
H1462 C1476 0.931 . S
H1463 C1478 0.930 . S
C1464 H1452 0.930 . S
C1464 C1465 1.399 . S
C1464 C1469 1.399 . S
C1465 C1464 1.399 . S
C1465 C1466 1.376 . S
C1466 H1453 0.930 . S
C1466 C1465 1.376 . S
C1466 C1467 1.388 . S
C1467 H1454 0.930 . S
C1467 C1466 1.388 . S
C1467 C1468 1.390 . S
C1468 C1467 1.390 . S
C1468 C1469 1.394 . S
C1468 C1474 1.465 . S
C1469 C1464 1.399 . S
C1469 C1468 1.394 . S
C1469 C1470 1.516 . S
C1470 C1469 1.516 . S
C1470 C1471 1.502 . S
C1470 C1472 1.561 . S
C1470 C1473 1.526 . S
C1471 H1455 0.959 . S
C1471 H1456 0.959 . S
C1471 H1457 0.961 . S
C1471 C1470 1.502 . S
C1472 H1458 0.960 . S
C1472 H1459 0.961 . S
C1472 H1460 0.959 . S
C1472 C1470 1.561 . S
C1473 C1470 1.526 . S
C1473 C1474 1.396 . S
C1473 C1478 1.390 . S
C1474 C1468 1.465 . S
C1474 C1473 1.396 . S
C1474 C1475 1.399 . S
C1475 H1461 0.929 . S
C1475 C1474 1.399 . S
C1475 C1476 1.385 . S
C1476 H1462 0.931 . S
C1476 C1475 1.385 . S
C1476 C1477 1.389 . S
C1477 C1476 1.389 . S
C1477 C1478 1.387 . S
C1478 H1463 0.930 . S
C1478 C1473 1.390 . S
C1478 C1477 1.387 . S
H1479 C1491 0.930 . S
H1480 C1493 0.930 . S
H1481 C1494 0.930 . S
H1482 C1498 0.959 . S
H1483 C1498 0.959 . S
H1484 C1498 0.961 1_455 S
H1485 C1499 0.960 . S
H1486 C1499 0.961 . S
H1487 C1499 0.959 . S
H1488 C1502 0.929 . S
H1489 C1503 0.931 . S
H1490 C1505 0.930 . S
C1491 H1479 0.930 . S
C1491 C1492 1.399 . S
C1491 C1496 1.399 . S
C1492 C1491 1.399 . S
C1492 C1493 1.376 . S
C1493 H1480 0.930 . S
C1493 C1492 1.376 . S
C1493 C1494 1.388 1_455 S
C1494 H1481 0.930 . S
C1494 C1493 1.388 1_655 S
C1494 C1495 1.390 . S
C1495 C1494 1.390 . S
C1495 C1496 1.394 1_655 S
C1495 C1501 1.465 . S
C1496 C1491 1.399 . S
C1496 C1495 1.394 1_455 S
C1496 C1497 1.516 . S
C1497 C1496 1.516 . S
C1497 C1498 1.502 1_455 S
C1497 C1499 1.561 . S
C1497 C1500 1.526 1_455 S
C1498 H1482 0.959 . S
C1498 H1483 0.959 . S
C1498 H1484 0.961 1_655 S
C1498 C1497 1.502 1_655 S
C1499 H1485 0.960 . S
C1499 H1486 0.961 . S
C1499 H1487 0.959 . S
C1499 C1497 1.561 . S
C1500 C1497 1.526 1_655 S
C1500 C1501 1.396 . S
C1500 C1505 1.390 . S
C1501 C1495 1.465 . S
C1501 C1500 1.396 . S
C1501 C1502 1.399 . S
C1502 H1488 0.929 . S
C1502 C1501 1.399 . S
C1502 C1503 1.385 . S
C1503 H1489 0.931 . S
C1503 C1502 1.385 . S
C1503 C1504 1.389 . S
C1504 C1503 1.389 . S
C1504 C1505 1.387 . S
C1505 H1490 0.930 . S
C1505 C1500 1.390 . S
C1505 C1504 1.387 . S
H1506 C1518 0.930 . S
H1507 C1520 0.930 . S
H1508 C1521 0.930 . S
H1509 C1525 0.959 . S
H1510 C1525 0.959 . S
H1511 C1525 0.961 . S
H1512 C1526 0.960 . S
H1513 C1526 0.961 . S
H1514 C1526 0.959 . S
H1515 C1529 0.929 . S
H1516 C1530 0.931 . S
H1517 C1532 0.930 . S
C1518 H1506 0.930 . S
C1518 C1519 1.399 . S
C1518 C1523 1.399 . S
C1519 C1518 1.399 . S
C1519 C1520 1.376 . S
C1520 H1507 0.930 . S
C1520 C1519 1.376 . S
C1520 C1521 1.388 . S
C1521 H1508 0.930 . S
C1521 C1520 1.388 . S
C1521 C1522 1.390 . S
C1522 C1521 1.390 . S
C1522 C1523 1.394 . S
C1522 C1528 1.465 . S
C1523 C1518 1.399 . S
C1523 C1522 1.394 . S
C1523 C1524 1.516 . S
C1524 C1523 1.516 . S
C1524 C1525 1.502 1_455 S
C1524 C1526 1.561 . S
C1524 C1527 1.526 . S
C1525 H1509 0.959 . S
C1525 H1510 0.959 . S
C1525 H1511 0.961 . S
C1525 C1524 1.502 1_655 S
C1526 H1512 0.960 . S
C1526 H1513 0.961 . S
C1526 H1514 0.959 . S
C1526 C1524 1.561 . S
C1527 C1524 1.526 . S
C1527 C1528 1.396 . S
C1527 C1532 1.390 . S
C1528 C1522 1.465 . S
C1528 C1527 1.396 . S
C1528 C1529 1.399 . S
C1529 H1515 0.929 . S
C1529 C1528 1.399 . S
C1529 C1530 1.385 . S
C1530 H1516 0.931 . S
C1530 C1529 1.385 . S
C1530 C1531 1.389 . S
C1531 C1530 1.389 . S
C1531 C1532 1.387 . S
C1532 H1517 0.930 . S
C1532 C1527 1.390 . S
C1532 C1531 1.387 . S
H1533 C1545 0.930 . S
H1534 C1547 0.930 . S
H1535 C1548 0.930 . S
H1536 C1552 0.959 . S
H1537 C1552 0.959 . S
H1538 C1552 0.961 . S
H1539 C1553 0.960 . S
H1540 C1553 0.961 . S
H1541 C1553 0.959 . S
H1542 C1556 0.929 . S
H1543 C1557 0.931 . S
H1544 C1559 0.930 . S
C1545 H1533 0.930 . S
C1545 C1546 1.399 . S
C1545 C1550 1.399 . S
C1546 C1545 1.399 . S
C1546 C1547 1.376 1_655 S
C1547 H1534 0.930 . S
C1547 C1546 1.376 1_455 S
C1547 C1548 1.388 . S
C1548 H1535 0.930 . S
C1548 C1547 1.388 . S
C1548 C1549 1.390 1_455 S
C1549 C1548 1.390 1_655 S
C1549 C1550 1.394 . S
C1549 C1555 1.465 . S
C1550 C1545 1.399 . S
C1550 C1549 1.394 . S
C1550 C1551 1.516 . S
C1551 C1550 1.516 . S
C1551 C1552 1.502 . S
C1551 C1553 1.561 . S
C1551 C1554 1.526 . S
C1552 H1536 0.959 . S
C1552 H1537 0.959 . S
C1552 H1538 0.961 . S
C1552 C1551 1.502 . S
C1553 H1539 0.960 . S
C1553 H1540 0.961 . S
C1553 H1541 0.959 . S
C1553 C1551 1.561 . S
C1554 C1551 1.526 . S
C1554 C1555 1.396 . S
C1554 C1559 1.390 . S
C1555 C1549 1.465 . S
C1555 C1554 1.396 . S
C1555 C1556 1.399 1_655 S
C1556 H1542 0.929 . S
C1556 C1555 1.399 1_455 S
C1556 C1557 1.385 . S
C1557 H1543 0.931 . S
C1557 C1556 1.385 . S
C1557 C1558 1.389 1_455 S
C1558 C1557 1.389 1_655 S
C1558 C1559 1.387 . S
C1559 H1544 0.930 . S
C1559 C1554 1.390 . S
C1559 C1558 1.387 . S
H1560 C1572 0.930 . S
H1561 C1574 0.930 1_565 S
H1562 C1575 0.930 1_565 S
H1563 C1579 0.959 . S
H1564 C1579 0.959 . S
H1565 C1579 0.961 . S
H1566 C1580 0.960 . S
H1567 C1580 0.961 . S
H1568 C1580 0.959 . S
H1569 C1583 0.929 1_565 S
H1570 C1584 0.931 . S
H1571 C1586 0.930 . S
C1572 H1560 0.930 . S
C1572 C1573 1.399 . S
C1572 C1577 1.399 . S
C1573 C1572 1.399 . S
C1573 C1574 1.376 . S
C1574 H1561 0.930 1_545 S
C1574 C1573 1.376 . S
C1574 C1575 1.388 . S
C1575 H1562 0.930 1_545 S
C1575 C1574 1.388 . S
C1575 C1576 1.390 . S
C1576 C1575 1.390 . S
C1576 C1577 1.394 . S
C1576 C1582 1.465 . S
C1577 C1572 1.399 . S
C1577 C1576 1.394 . S
C1577 C1578 1.516 . S
C1578 C1577 1.516 . S
C1578 C1579 1.502 . S
C1578 C1580 1.561 . S
C1578 C1581 1.526 . S
C1579 H1563 0.959 . S
C1579 H1564 0.959 . S
C1579 H1565 0.961 . S
C1579 C1578 1.502 . S
C1580 H1566 0.960 . S
C1580 H1567 0.961 . S
C1580 H1568 0.959 . S
C1580 C1578 1.561 . S
C1581 C1578 1.526 . S
C1581 C1582 1.396 . S
C1581 C1586 1.390 . S
C1582 C1576 1.465 . S
C1582 C1581 1.396 . S
C1582 C1583 1.399 . S
C1583 H1569 0.929 1_545 S
C1583 C1582 1.399 . S
C1583 C1584 1.385 . S
C1584 H1570 0.931 . S
C1584 C1583 1.385 . S
C1584 C1585 1.389 . S
C1585 C1584 1.389 . S
C1585 C1586 1.387 . S
C1586 H1571 0.930 . S
C1586 C1581 1.390 . S
C1586 C1585 1.387 . S
H1587 C1599 0.930 . S
H1588 C1601 0.930 . S
H1589 C1602 0.930 . S
H1590 C1606 0.959 . S
H1591 C1606 0.959 . S
H1592 C1606 0.961 . S
H1593 C1607 0.960 . S
H1594 C1607 0.961 . S
H1595 C1607 0.959 . S
H1596 C1610 0.929 . S
H1597 C1611 0.931 . S
H1598 C1613 0.930 . S
C1599 H1587 0.930 . S
C1599 C1600 1.399 . S
C1599 C1604 1.399 . S
C1600 C1599 1.399 . S
C1600 C1601 1.376 . S
C1601 H1588 0.930 . S
C1601 C1600 1.376 . S
C1601 C1602 1.388 . S
C1602 H1589 0.930 . S
C1602 C1601 1.388 . S
C1602 C1603 1.390 . S
C1603 C1602 1.390 . S
C1603 C1604 1.394 . S
C1603 C1609 1.465 . S
C1604 C1599 1.399 . S
C1604 C1603 1.394 . S
C1604 C1605 1.516 . S
C1605 C1604 1.516 . S
C1605 C1606 1.502 . S
C1605 C1607 1.561 . S
C1605 C1608 1.526 . S
C1606 H1590 0.959 . S
C1606 H1591 0.959 . S
C1606 H1592 0.961 . S
C1606 C1605 1.502 . S
C1607 H1593 0.960 . S
C1607 H1594 0.961 . S
C1607 H1595 0.959 . S
C1607 C1605 1.561 . S
C1608 C1605 1.526 . S
C1608 C1609 1.396 . S
C1608 C1613 1.390 . S
C1609 C1603 1.465 . S
C1609 C1608 1.396 . S
C1609 C1610 1.399 . S
C1610 H1596 0.929 . S
C1610 C1609 1.399 . S
C1610 C1611 1.385 . S
C1611 H1597 0.931 . S
C1611 C1610 1.385 . S
C1611 C1612 1.389 . S
C1612 C1611 1.389 . S
C1612 C1613 1.387 . S
C1613 H1598 0.930 . S
C1613 C1608 1.390 . S
C1613 C1612 1.387 . S
H1614 C1626 0.930 . S
H1615 C1628 0.930 . S
H1616 C1629 0.930 . S
H1617 C1633 0.959 . S
H1618 C1633 0.959 . S
H1619 C1633 0.961 . S
H1620 C1634 0.960 . S
H1621 C1634 0.961 . S
H1622 C1634 0.959 . S
H1623 C1637 0.929 1_545 S
H1624 C1638 0.931 . S
H1625 C1640 0.930 . S
C1626 H1614 0.930 . S
C1626 C1627 1.399 . S
C1626 C1631 1.399 . S
C1627 C1626 1.399 . S
C1627 C1628 1.376 1_565 S
C1628 H1615 0.930 . S
C1628 C1627 1.376 1_545 S
C1628 C1629 1.388 . S
C1629 H1616 0.930 . S
C1629 C1628 1.388 . S
C1629 C1630 1.390 1_545 S
C1630 C1629 1.390 1_565 S
C1630 C1631 1.394 . S
C1630 C1636 1.465 . S
C1631 C1626 1.399 . S
C1631 C1630 1.394 . S
C1631 C1632 1.516 . S
C1632 C1631 1.516 . S
C1632 C1633 1.502 . S
C1632 C1634 1.561 . S
C1632 C1635 1.526 . S
C1633 H1617 0.959 . S
C1633 H1618 0.959 . S
C1633 H1619 0.961 . S
C1633 C1632 1.502 . S
C1634 H1620 0.960 . S
C1634 H1621 0.961 . S
C1634 H1622 0.959 . S
C1634 C1632 1.561 . S
C1635 C1632 1.526 . S
C1635 C1636 1.396 . S
C1635 C1640 1.390 . S
C1636 C1630 1.465 . S
C1636 C1635 1.396 . S
C1636 C1637 1.399 . S
C1637 H1623 0.929 1_565 S
C1637 C1636 1.399 . S
C1637 C1638 1.385 . S
C1638 H1624 0.931 . S
C1638 C1637 1.385 . S
C1638 C1639 1.389 . S
C1639 C1638 1.389 . S
C1639 C1640 1.387 . S
C1640 H1625 0.930 . S
C1640 C1635 1.390 . S
C1640 C1639 1.387 . S
H1641 C1653 0.930 . S
H1642 C1655 0.930 . S
H1643 C1656 0.930 . S
H1644 C1660 0.959 . S
H1645 C1660 0.959 . S
H1646 C1660 0.961 . S
H1647 C1661 0.960 . S
H1648 C1661 0.961 . S
H1649 C1661 0.959 . S
H1650 C1664 0.929 . S
H1651 C1665 0.931 . S
H1652 C1667 0.930 . S
C1653 H1641 0.930 . S
C1653 C1654 1.399 . S
C1653 C1658 1.399 . S
C1654 C1653 1.399 . S
C1654 C1655 1.376 . S
C1655 H1642 0.930 . S
C1655 C1654 1.376 . S
C1655 C1656 1.388 . S
C1656 H1643 0.930 . S
C1656 C1655 1.388 . S
C1656 C1657 1.390 . S
C1657 C1656 1.390 . S
C1657 C1658 1.394 . S
C1657 C1663 1.465 . S
C1658 C1653 1.399 . S
C1658 C1657 1.394 . S
C1658 C1659 1.516 . S
C1659 C1658 1.516 . S
C1659 C1660 1.502 . S
C1659 C1661 1.561 . S
C1659 C1662 1.526 . S
C1660 H1644 0.959 . S
C1660 H1645 0.959 . S
C1660 H1646 0.961 . S
C1660 C1659 1.502 . S
C1661 H1647 0.960 . S
C1661 H1648 0.961 . S
C1661 H1649 0.959 . S
C1661 C1659 1.561 . S
C1662 C1659 1.526 . S
C1662 C1663 1.396 . S
C1662 C1667 1.390 . S
C1663 C1657 1.465 . S
C1663 C1662 1.396 . S
C1663 C1664 1.399 . S
C1664 H1650 0.929 . S
C1664 C1663 1.399 . S
C1664 C1665 1.385 . S
C1665 H1651 0.931 . S
C1665 C1664 1.385 . S
C1665 C1666 1.389 . S
C1666 C1665 1.389 . S
C1666 C1667 1.387 . S
C1667 H1652 0.930 . S
C1667 C1662 1.390 . S
C1667 C1666 1.387 . S
H1668 C1680 0.931 1_556 S
H1669 C1682 0.930 . S
H1670 C1683 0.930 . S
H1671 C1687 0.959 1_554 S
H1672 C1687 0.959 . S
H1673 C1687 0.961 . S
H1674 C1688 0.960 . S
H1675 C1688 0.961 . S
H1676 C1688 0.959 . S
H1677 C1691 0.929 . S
H1678 C1692 0.931 . S
H1679 C1694 0.930 1_556 S
C1680 H1668 0.931 1_554 S
C1680 C1681 1.399 . S
C1680 C1685 1.399 . S
C1681 C1680 1.399 . S
C1681 C1682 1.376 . S
C1682 H1669 0.930 . S
C1682 C1681 1.376 . S
C1682 C1683 1.388 . S
C1683 H1670 0.930 . S
C1683 C1682 1.388 . S
C1683 C1684 1.390 . S
C1684 C1683 1.390 . S
C1684 C1685 1.394 . S
C1684 C1690 1.465 . S
C1685 C1680 1.399 . S
C1685 C1684 1.394 . S
C1685 C1686 1.517 . S
C1686 C1685 1.517 . S
C1686 C1687 1.501 1_554 S
C1686 C1688 1.560 1_554 S
C1686 C1689 1.527 . S
C1687 H1671 0.959 1_556 S
C1687 H1672 0.959 . S
C1687 H1673 0.961 . S
C1687 C1686 1.501 1_556 S
C1688 H1674 0.960 . S
C1688 H1675 0.961 . S
C1688 H1676 0.959 . S
C1688 C1686 1.560 1_556 S
C1689 C1686 1.527 . S
C1689 C1690 1.396 . S
C1689 C1694 1.390 . S
C1690 C1684 1.465 . S
C1690 C1689 1.396 . S
C1690 C1691 1.399 . S
C1691 H1677 0.929 . S
C1691 C1690 1.399 . S
C1691 C1692 1.385 . S
C1692 H1678 0.931 . S
C1692 C1691 1.385 . S
C1692 C1693 1.389 . S
C1693 C1692 1.389 . S
C1693 C1694 1.387 . S
C1694 H1679 0.930 1_554 S
C1694 C1689 1.390 . S
C1694 C1693 1.387 . S
H1695 C1707 0.930 . S
H1696 C1709 0.930 . S
H1697 C1710 0.930 . S
H1698 C1714 0.959 . S
H1699 C1714 0.959 . S
H1700 C1714 0.961 . S
H1701 C1715 0.960 . S
H1702 C1715 0.961 . S
H1703 C1715 0.959 . S
H1704 C1718 0.929 . S
H1705 C1719 0.931 . S
H1706 C1721 0.930 . S
C1707 H1695 0.930 . S
C1707 C1708 1.399 . S
C1707 C1712 1.399 . S
C1708 C1707 1.399 . S
C1708 C1709 1.376 . S
C1709 H1696 0.930 . S
C1709 C1708 1.376 . S
C1709 C1710 1.388 . S
C1710 H1697 0.930 . S
C1710 C1709 1.388 . S
C1710 C1711 1.390 . S
C1711 C1710 1.390 . S
C1711 C1712 1.394 . S
C1711 C1717 1.465 . S
C1712 C1707 1.399 . S
C1712 C1711 1.394 . S
C1712 C1713 1.516 . S
C1713 C1712 1.516 . S
C1713 C1714 1.502 . S
C1713 C1715 1.561 . S
C1713 C1716 1.526 . S
C1714 H1698 0.959 . S
C1714 H1699 0.959 . S
C1714 H1700 0.961 . S
C1714 C1713 1.502 . S
C1715 H1701 0.960 . S
C1715 H1702 0.961 . S
C1715 H1703 0.959 . S
C1715 C1713 1.561 . S
C1716 C1713 1.526 . S
C1716 C1717 1.396 . S
C1716 C1721 1.390 . S
C1717 C1711 1.465 . S
C1717 C1716 1.396 . S
C1717 C1718 1.399 . S
C1718 H1704 0.929 . S
C1718 C1717 1.399 . S
C1718 C1719 1.385 . S
C1719 H1705 0.931 . S
C1719 C1718 1.385 . S
C1719 C1720 1.389 . S
C1720 C1719 1.389 . S
C1720 C1721 1.387 . S
C1721 H1706 0.930 . S
C1721 C1716 1.390 . S
C1721 C1720 1.387 . S
H1722 C1734 0.930 . S
H1723 C1736 0.930 . S
H1724 C1737 0.930 . S
H1725 C1741 0.959 . S
H1726 C1741 0.959 . S
H1727 C1741 0.961 . S
H1728 C1742 0.960 . S
H1729 C1742 0.961 . S
H1730 C1742 0.959 . S
H1731 C1745 0.929 . S
H1732 C1746 0.931 . S
H1733 C1748 0.930 . S
C1734 H1722 0.930 . S
C1734 C1735 1.399 . S
C1734 C1739 1.399 . S
C1735 C1734 1.399 . S
C1735 C1736 1.376 . S
C1736 H1723 0.930 . S
C1736 C1735 1.376 . S
C1736 C1737 1.388 . S
C1737 H1724 0.930 . S
C1737 C1736 1.388 . S
C1737 C1738 1.390 . S
C1738 C1737 1.390 . S
C1738 C1739 1.394 . S
C1738 C1744 1.465 . S
C1739 C1734 1.399 . S
C1739 C1738 1.394 . S
C1739 C1740 1.516 . S
C1740 C1739 1.516 . S
C1740 C1741 1.502 . S
C1740 C1742 1.561 . S
C1740 C1743 1.526 . S
C1741 H1725 0.959 . S
C1741 H1726 0.959 . S
C1741 H1727 0.961 . S
C1741 C1740 1.502 . S
C1742 H1728 0.960 . S
C1742 H1729 0.961 . S
C1742 H1730 0.959 . S
C1742 C1740 1.561 . S
C1743 C1740 1.526 . S
C1743 C1744 1.396 . S
C1743 C1748 1.390 . S
C1744 C1738 1.465 . S
C1744 C1743 1.396 . S
C1744 C1745 1.399 . S
C1745 H1731 0.929 . S
C1745 C1744 1.399 . S
C1745 C1746 1.385 . S
C1746 H1732 0.931 . S
C1746 C1745 1.385 . S
C1746 C1747 1.389 . S
C1747 C1746 1.389 . S
C1747 C1748 1.387 . S
C1748 H1733 0.930 . S
C1748 C1743 1.390 . S
C1748 C1747 1.387 . S
H1749 C1761 0.930 . S
H1750 C1763 0.930 . S
H1751 C1764 0.930 . S
H1752 C1768 0.959 . S
H1753 C1768 0.959 . S
H1754 C1768 0.961 . S
H1755 C1769 0.960 . S
H1756 C1769 0.961 . S
H1757 C1769 0.959 . S
H1758 C1772 0.929 . S
H1759 C1773 0.931 . S
H1760 C1775 0.930 . S
C1761 H1749 0.930 . S
C1761 C1762 1.399 . S
C1761 C1766 1.399 . S
C1762 C1761 1.399 . S
C1762 C1763 1.376 . S
C1763 H1750 0.930 . S
C1763 C1762 1.376 . S
C1763 C1764 1.388 . S
C1764 H1751 0.930 . S
C1764 C1763 1.388 . S
C1764 C1765 1.390 . S
C1765 C1764 1.390 . S
C1765 C1766 1.394 . S
C1765 C1771 1.465 . S
C1766 C1761 1.399 . S
C1766 C1765 1.394 . S
C1766 C1767 1.516 . S
C1767 C1766 1.516 . S
C1767 C1768 1.502 . S
C1767 C1769 1.561 . S
C1767 C1770 1.526 . S
C1768 H1752 0.959 . S
C1768 H1753 0.959 . S
C1768 H1754 0.961 . S
C1768 C1767 1.502 . S
C1769 H1755 0.960 . S
C1769 H1756 0.961 . S
C1769 H1757 0.959 . S
C1769 C1767 1.561 . S
C1770 C1767 1.526 . S
C1770 C1771 1.396 . S
C1770 C1775 1.390 . S
C1771 C1765 1.465 . S
C1771 C1770 1.396 . S
C1771 C1772 1.399 . S
C1772 H1758 0.929 . S
C1772 C1771 1.399 . S
C1772 C1773 1.385 . S
C1773 H1759 0.931 . S
C1773 C1772 1.385 . S
C1773 C1774 1.389 . S
C1774 C1773 1.389 . S
C1774 C1775 1.387 . S
C1775 H1760 0.930 . S
C1775 C1770 1.390 . S
C1775 C1774 1.387 . S
H1776 C1788 0.930 . S
H1777 C1790 0.930 . S
H1778 C1791 0.930 . S
H1779 C1795 0.959 . S
H1780 C1795 0.959 . S
H1781 C1795 0.961 . S
H1782 C1796 0.960 . S
H1783 C1796 0.961 . S
H1784 C1796 0.959 . S
H1785 C1799 0.929 . S
H1786 C1800 0.931 . S
H1787 C1802 0.930 . S
C1788 H1776 0.930 . S
C1788 C1789 1.399 . S
C1788 C1793 1.399 . S
C1789 C1788 1.399 . S
C1789 C1790 1.376 . S
C1790 H1777 0.930 . S
C1790 C1789 1.376 . S
C1790 C1791 1.388 . S
C1791 H1778 0.930 . S
C1791 C1790 1.388 . S
C1791 C1792 1.390 . S
C1792 C1791 1.390 . S
C1792 C1793 1.394 . S
C1792 C1798 1.465 . S
C1793 C1788 1.399 . S
C1793 C1792 1.394 . S
C1793 C1794 1.516 . S
C1794 C1793 1.516 . S
C1794 C1795 1.502 . S
C1794 C1796 1.561 . S
C1794 C1797 1.526 . S
C1795 H1779 0.959 . S
C1795 H1780 0.959 . S
C1795 H1781 0.961 . S
C1795 C1794 1.502 . S
C1796 H1782 0.960 . S
C1796 H1783 0.961 . S
C1796 H1784 0.959 . S
C1796 C1794 1.561 . S
C1797 C1794 1.526 . S
C1797 C1798 1.396 . S
C1797 C1802 1.390 . S
C1798 C1792 1.465 . S
C1798 C1797 1.396 . S
C1798 C1799 1.399 . S
C1799 H1785 0.929 . S
C1799 C1798 1.399 . S
C1799 C1800 1.385 . S
C1800 H1786 0.931 . S
C1800 C1799 1.385 . S
C1800 C1801 1.389 . S
C1801 C1800 1.389 . S
C1801 C1802 1.387 . S
C1802 H1787 0.930 . S
C1802 C1797 1.390 . S
C1802 C1801 1.387 . S
H1803 C1815 0.930 . S
H1804 C1817 0.930 . S
H1805 C1818 0.930 . S
H1806 C1822 0.959 . S
H1807 C1822 0.959 . S
H1808 C1822 0.961 . S
H1809 C1823 0.960 . S
H1810 C1823 0.961 . S
H1811 C1823 0.959 . S
H1812 C1826 0.929 . S
H1813 C1827 0.931 . S
H1814 C1829 0.930 . S
C1815 H1803 0.930 . S
C1815 C1816 1.399 . S
C1815 C1820 1.399 . S
C1816 C1815 1.399 . S
C1816 C1817 1.376 . S
C1817 H1804 0.930 . S
C1817 C1816 1.376 . S
C1817 C1818 1.388 . S
C1818 H1805 0.930 . S
C1818 C1817 1.388 . S
C1818 C1819 1.390 . S
C1819 C1818 1.390 . S
C1819 C1820 1.394 . S
C1819 C1825 1.465 . S
C1820 C1815 1.399 . S
C1820 C1819 1.394 . S
C1820 C1821 1.516 . S
C1821 C1820 1.516 . S
C1821 C1822 1.502 . S
C1821 C1823 1.561 . S
C1821 C1824 1.526 . S
C1822 H1806 0.959 . S
C1822 H1807 0.959 . S
C1822 H1808 0.961 . S
C1822 C1821 1.502 . S
C1823 H1809 0.960 . S
C1823 H1810 0.961 . S
C1823 H1811 0.959 . S
C1823 C1821 1.561 . S
C1824 C1821 1.526 . S
C1824 C1825 1.396 . S
C1824 C1829 1.390 . S
C1825 C1819 1.465 . S
C1825 C1824 1.396 . S
C1825 C1826 1.399 . S
C1826 H1812 0.929 . S
C1826 C1825 1.399 . S
C1826 C1827 1.385 . S
C1827 H1813 0.931 . S
C1827 C1826 1.385 . S
C1827 C1828 1.389 . S
C1828 C1827 1.389 . S
C1828 C1829 1.387 . S
C1829 H1814 0.930 . S
C1829 C1824 1.390 . S
C1829 C1828 1.387 . S
H1830 C1842 0.930 . S
H1831 C1844 0.930 . S
H1832 C1845 0.930 . S
H1833 C1849 0.959 . S
H1834 C1849 0.959 . S
H1835 C1849 0.961 . S
H1836 C1850 0.960 . S
H1837 C1850 0.961 . S
H1838 C1850 0.959 . S
H1839 C1853 0.929 . S
H1840 C1854 0.931 . S
H1841 C1856 0.930 . S
C1842 H1830 0.930 . S
C1842 C1843 1.399 . S
C1842 C1847 1.399 . S
C1843 C1842 1.399 . S
C1843 C1844 1.376 . S
C1844 H1831 0.930 . S
C1844 C1843 1.376 . S
C1844 C1845 1.388 . S
C1845 H1832 0.930 . S
C1845 C1844 1.388 . S
C1845 C1846 1.390 . S
C1846 C1845 1.390 . S
C1846 C1847 1.394 . S
C1846 C1852 1.465 . S
C1847 C1842 1.399 . S
C1847 C1846 1.394 . S
C1847 C1848 1.516 . S
C1848 C1847 1.516 . S
C1848 C1849 1.502 . S
C1848 C1850 1.561 . S
C1848 C1851 1.526 . S
C1849 H1833 0.959 . S
C1849 H1834 0.959 . S
C1849 H1835 0.961 . S
C1849 C1848 1.502 . S
C1850 H1836 0.960 . S
C1850 H1837 0.961 . S
C1850 H1838 0.959 . S
C1850 C1848 1.561 . S
C1851 C1848 1.526 . S
C1851 C1852 1.396 . S
C1851 C1856 1.390 . S
C1852 C1846 1.465 . S
C1852 C1851 1.396 . S
C1852 C1853 1.399 . S
C1853 H1839 0.929 . S
C1853 C1852 1.399 . S
C1853 C1854 1.385 . S
C1854 H1840 0.931 . S
C1854 C1853 1.385 . S
C1854 C1855 1.389 . S
C1855 C1854 1.389 . S
C1855 C1856 1.387 . S
C1856 H1841 0.930 . S
C1856 C1851 1.390 . S
C1856 C1855 1.387 . S
H1857 C1869 0.930 . S
H1858 C1871 0.930 . S
H1859 C1872 0.930 . S
H1860 C1876 0.959 . S
H1861 C1876 0.959 . S
H1862 C1876 0.961 . S
H1863 C1877 0.960 . S
H1864 C1877 0.961 . S
H1865 C1877 0.959 . S
H1866 C1880 0.929 . S
H1867 C1881 0.931 . S
H1868 C1883 0.930 . S
C1869 H1857 0.930 . S
C1869 C1870 1.399 . S
C1869 C1874 1.399 . S
C1870 C1869 1.399 . S
C1870 C1871 1.376 . S
C1871 H1858 0.930 . S
C1871 C1870 1.376 . S
C1871 C1872 1.388 . S
C1872 H1859 0.930 . S
C1872 C1871 1.388 . S
C1872 C1873 1.390 . S
C1873 C1872 1.390 . S
C1873 C1874 1.394 . S
C1873 C1879 1.465 . S
C1874 C1869 1.399 . S
C1874 C1873 1.394 . S
C1874 C1875 1.516 . S
C1875 C1874 1.516 . S
C1875 C1876 1.502 . S
C1875 C1877 1.561 . S
C1875 C1878 1.526 . S
C1876 H1860 0.959 . S
C1876 H1861 0.959 . S
C1876 H1862 0.961 . S
C1876 C1875 1.502 . S
C1877 H1863 0.960 . S
C1877 H1864 0.961 . S
C1877 H1865 0.959 . S
C1877 C1875 1.561 . S
C1878 C1875 1.526 . S
C1878 C1879 1.396 . S
C1878 C1883 1.390 . S
C1879 C1873 1.465 . S
C1879 C1878 1.396 . S
C1879 C1880 1.399 . S
C1880 H1866 0.929 . S
C1880 C1879 1.399 . S
C1880 C1881 1.385 . S
C1881 H1867 0.931 . S
C1881 C1880 1.385 . S
C1881 C1882 1.389 . S
C1882 C1881 1.389 . S
C1882 C1883 1.387 . S
C1883 H1868 0.930 . S
C1883 C1878 1.390 . S
C1883 C1882 1.387 . S
H1884 C1896 0.930 . S
H1885 C1898 0.930 . S
H1886 C1899 0.930 . S
H1887 C1903 0.959 . S
H1888 C1903 0.959 . S
H1889 C1903 0.961 . S
H1890 C1904 0.960 . S
H1891 C1904 0.961 . S
H1892 C1904 0.959 . S
H1893 C1907 0.929 . S
H1894 C1908 0.931 . S
H1895 C1910 0.930 . S
C1896 H1884 0.930 . S
C1896 C1897 1.399 . S
C1896 C1901 1.399 . S
C1897 C1896 1.399 . S
C1897 C1898 1.376 . S
C1898 H1885 0.930 . S
C1898 C1897 1.376 . S
C1898 C1899 1.388 . S
C1899 H1886 0.930 . S
C1899 C1898 1.388 . S
C1899 C1900 1.390 . S
C1900 C1899 1.390 . S
C1900 C1901 1.394 . S
C1900 C1906 1.465 . S
C1901 C1896 1.399 . S
C1901 C1900 1.394 . S
C1901 C1902 1.516 . S
C1902 C1901 1.516 . S
C1902 C1903 1.502 . S
C1902 C1904 1.561 . S
C1902 C1905 1.526 . S
C1903 H1887 0.959 . S
C1903 H1888 0.959 . S
C1903 H1889 0.961 . S
C1903 C1902 1.502 . S
C1904 H1890 0.960 . S
C1904 H1891 0.961 . S
C1904 H1892 0.959 . S
C1904 C1902 1.561 . S
C1905 C1902 1.526 . S
C1905 C1906 1.396 . S
C1905 C1910 1.390 . S
C1906 C1900 1.465 . S
C1906 C1905 1.396 . S
C1906 C1907 1.399 . S
C1907 H1893 0.929 . S
C1907 C1906 1.399 . S
C1907 C1908 1.385 . S
C1908 H1894 0.931 . S
C1908 C1907 1.385 . S
C1908 C1909 1.389 . S
C1909 C1908 1.389 . S
C1909 C1910 1.387 . S
C1910 H1895 0.930 . S
C1910 C1905 1.390 . S
C1910 C1909 1.387 . S
H1911 C1923 0.930 . S
H1912 C1925 0.930 . S
H1913 C1926 0.930 . S
H1914 C1930 0.959 . S
H1915 C1930 0.959 . S
H1916 C1930 0.961 . S
H1917 C1931 0.960 . S
H1918 C1931 0.961 . S
H1919 C1931 0.959 . S
H1920 C1934 0.929 . S
H1921 C1935 0.929 1_545 S
H1922 C1937 0.930 . S
C1923 H1911 0.930 . S
C1923 C1924 1.399 . S
C1923 C1928 1.399 . S
C1924 C1923 1.399 . S
C1924 C1925 1.376 1_565 S
C1925 H1912 0.930 . S
C1925 C1924 1.376 1_545 S
C1925 C1926 1.388 . S
C1926 H1913 0.930 . S
C1926 C1925 1.388 . S
C1926 C1927 1.390 1_545 S
C1927 C1926 1.390 1_565 S
C1927 C1928 1.394 . S
C1927 C1933 1.465 . S
C1928 C1923 1.399 . S
C1928 C1927 1.394 . S
C1928 C1929 1.516 . S
C1929 C1928 1.516 . S
C1929 C1930 1.502 . S
C1929 C1931 1.561 . S
C1929 C1932 1.526 . S
C1930 H1914 0.959 . S
C1930 H1915 0.959 . S
C1930 H1916 0.961 . S
C1930 C1929 1.502 . S
C1931 H1917 0.960 . S
C1931 H1918 0.961 . S
C1931 H1919 0.959 . S
C1931 C1929 1.561 . S
C1932 C1929 1.526 . S
C1932 C1933 1.396 . S
C1932 C1937 1.390 . S
C1933 C1927 1.465 . S
C1933 C1932 1.396 . S
C1933 C1934 1.399 1_565 S
C1934 H1920 0.929 . S
C1934 C1933 1.399 1_545 S
C1934 C1935 1.384 1_545 S
C1935 H1921 0.929 1_565 S
C1935 C1934 1.384 1_565 S
C1935 C1936 1.392 . S
C1936 C1935 1.392 . S
C1936 C1937 1.387 . S
C1937 H1922 0.930 . S
C1937 C1932 1.390 . S
C1937 C1936 1.387 . S
H1938 C1950 0.930 . S
H1939 C1952 0.930 . S
H1940 C1953 0.930 . S
H1941 C1957 0.959 . S
H1942 C1957 0.959 . S
H1943 C1957 0.961 . S
H1944 C1958 0.960 . S
H1945 C1958 0.961 . S
H1946 C1958 0.959 . S
H1947 C1961 0.929 . S
H1948 C1962 0.931 . S
H1949 C1964 0.930 . S
C1950 H1938 0.930 . S
C1950 C1951 1.399 . S
C1950 C1955 1.399 . S
C1951 C1950 1.399 . S
C1951 C1952 1.376 . S
C1952 H1939 0.930 . S
C1952 C1951 1.376 . S
C1952 C1953 1.388 . S
C1953 H1940 0.930 . S
C1953 C1952 1.388 . S
C1953 C1954 1.390 . S
C1954 C1953 1.390 . S
C1954 C1955 1.394 . S
C1954 C1960 1.465 . S
C1955 C1950 1.399 . S
C1955 C1954 1.394 . S
C1955 C1956 1.516 . S
C1956 C1955 1.516 . S
C1956 C1957 1.502 . S
C1956 C1958 1.561 . S
C1956 C1959 1.526 . S
C1957 H1941 0.959 . S
C1957 H1942 0.959 . S
C1957 H1943 0.961 . S
C1957 C1956 1.502 . S
C1958 H1944 0.960 . S
C1958 H1945 0.961 . S
C1958 H1946 0.959 . S
C1958 C1956 1.561 . S
C1959 C1956 1.526 . S
C1959 C1960 1.396 . S
C1959 C1964 1.390 . S
C1960 C1954 1.465 . S
C1960 C1959 1.396 . S
C1960 C1961 1.399 . S
C1961 H1947 0.929 . S
C1961 C1960 1.399 . S
C1961 C1962 1.385 . S
C1962 H1948 0.931 . S
C1962 C1961 1.385 . S
C1962 C1963 1.389 . S
C1963 C1962 1.389 . S
C1963 C1964 1.387 . S
C1964 H1949 0.930 . S
C1964 C1959 1.390 . S
C1964 C1963 1.387 . S
H1965 C1977 0.930 . S
H1966 C1979 0.910 1_565 S
H1967 C1980 0.933 . S
H1968 C1984 0.959 . S
H1969 C1984 0.959 . S
H1970 C1984 0.961 . S
H1971 C1985 0.960 . S
H1972 C1985 0.961 . S
H1973 C1985 0.959 . S
H1974 C1988 0.929 1_565 S
H1975 C1989 0.931 . S
H1976 C1991 0.930 . S
C1977 H1965 0.930 . S
C1977 C1978 1.399 . S
C1977 C1982 1.399 . S
C1978 C1977 1.399 . S
C1978 C1979 1.399 . S
C1979 H1966 0.910 1_545 S
C1979 C1978 1.399 . S
C1979 C1980 1.385 1_545 S
C1980 H1967 0.933 . S
C1980 C1979 1.385 1_565 S
C1980 C1981 1.387 1_565 S
C1981 C1980 1.387 1_545 S
C1981 C1982 1.394 . S
C1981 C1987 1.465 . S
C1982 C1977 1.399 . S
C1982 C1981 1.394 . S
C1982 C1983 1.516 . S
C1983 C1982 1.516 . S
C1983 C1984 1.502 . S
C1983 C1985 1.561 . S
C1983 C1986 1.526 . S
C1984 H1968 0.959 . S
C1984 H1969 0.959 . S
C1984 H1970 0.961 . S
C1984 C1983 1.502 . S
C1985 H1971 0.960 . S
C1985 H1972 0.961 . S
C1985 H1973 0.959 . S
C1985 C1983 1.561 . S
C1986 C1983 1.526 . S
C1986 C1987 1.396 . S
C1986 C1991 1.390 . S
C1987 C1981 1.465 . S
C1987 C1986 1.396 . S
C1987 C1988 1.399 . S
C1988 H1974 0.929 1_545 S
C1988 C1987 1.399 . S
C1988 C1989 1.385 . S
C1989 H1975 0.931 . S
C1989 C1988 1.385 . S
C1989 C1990 1.389 . S
C1990 C1989 1.389 . S
C1990 C1991 1.387 . S
C1991 H1976 0.930 . S
C1991 C1986 1.390 . S
C1991 C1990 1.387 . S
H1992 C2004 0.930 . S
H1993 C2006 0.930 . S
H1994 C2007 0.930 . S
H1995 C2011 0.959 . S
H1996 C2011 0.959 . S
H1997 C2011 0.961 . S
H1998 C2012 0.960 . S
H1999 C2012 0.961 . S
H2000 C2012 0.959 . S
H2001 C2015 0.929 . S
H2002 C2016 0.931 . S
H2003 C2018 0.930 . S
C2004 H1992 0.930 . S
C2004 C2005 1.399 . S
C2004 C2009 1.399 . S
C2005 C2004 1.399 . S
C2005 C2006 1.376 . S
C2006 H1993 0.930 . S
C2006 C2005 1.376 . S
C2006 C2007 1.388 . S
C2007 H1994 0.930 . S
C2007 C2006 1.388 . S
C2007 C2008 1.390 . S
C2008 C2007 1.390 . S
C2008 C2009 1.394 . S
C2008 C2014 1.465 . S
C2009 C2004 1.399 . S
C2009 C2008 1.394 . S
C2009 C2010 1.516 . S
C2010 C2009 1.516 . S
C2010 C2011 1.502 . S
C2010 C2012 1.561 . S
C2010 C2013 1.526 . S
C2011 H1995 0.959 . S
C2011 H1996 0.959 . S
C2011 H1997 0.961 . S
C2011 C2010 1.502 . S
C2012 H1998 0.960 . S
C2012 H1999 0.961 . S
C2012 H2000 0.959 . S
C2012 C2010 1.561 . S
C2013 C2010 1.526 . S
C2013 C2014 1.396 . S
C2013 C2018 1.390 . S
C2014 C2008 1.465 . S
C2014 C2013 1.396 . S
C2014 C2015 1.399 . S
C2015 H2001 0.929 . S
C2015 C2014 1.399 . S
C2015 C2016 1.385 . S
C2016 H2002 0.931 . S
C2016 C2015 1.385 . S
C2016 C2017 1.389 . S
C2017 C2016 1.389 . S
C2017 C2018 1.387 . S
C2018 H2003 0.930 . S
C2018 C2013 1.390 . S
C2018 C2017 1.387 . S
H2019 C2031 0.930 . S
H2020 C2033 0.930 . S
H2021 C2034 0.930 . S
H2022 C2038 0.959 . S
H2023 C2038 0.959 . S
H2024 C2038 0.961 . S
H2025 C2039 0.960 . S
H2026 C2039 0.961 . S
H2027 C2039 0.959 . S
H2028 C2042 0.929 . S
H2029 C2043 0.931 . S
H2030 C2045 0.930 . S
C2031 H2019 0.930 . S
C2031 C2032 1.399 . S
C2031 C2036 1.399 . S
C2032 C2031 1.399 . S
C2032 C2033 1.376 1_554 S
C2033 H2020 0.930 . S
C2033 C2032 1.376 1_556 S
C2033 C2034 1.388 . S
C2034 H2021 0.930 . S
C2034 C2033 1.388 . S
C2034 C2035 1.390 . S
C2035 C2034 1.390 . S
C2035 C2036 1.394 1_556 S
C2035 C2041 1.465 . S
C2036 C2031 1.399 . S
C2036 C2035 1.394 1_554 S
C2036 C2037 1.516 . S
C2037 C2036 1.516 . S
C2037 C2038 1.502 . S
C2037 C2039 1.561 . S
C2037 C2040 1.526 . S
C2038 H2022 0.959 . S
C2038 H2023 0.959 . S
C2038 H2024 0.961 . S
C2038 C2037 1.502 . S
C2039 H2025 0.960 . S
C2039 H2026 0.961 . S
C2039 H2027 0.959 . S
C2039 C2037 1.561 . S
C2040 C2037 1.526 . S
C2040 C2041 1.396 1_554 S
C2040 C2045 1.390 . S
C2041 C2035 1.465 . S
C2041 C2040 1.396 1_556 S
C2041 C2042 1.399 . S
C2042 H2028 0.929 . S
C2042 C2041 1.399 . S
C2042 C2043 1.385 . S
C2043 H2029 0.931 . S
C2043 C2042 1.385 . S
C2043 C2044 1.389 . S
C2044 C2043 1.389 . S
C2044 C2045 1.387 1_556 S
C2045 H2030 0.930 . S
C2045 C2040 1.390 . S
C2045 C2044 1.387 1_554 S
H2046 C2058 0.930 . S
H2047 C2060 0.930 . S
H2048 C2061 0.930 . S
H2049 C2065 0.959 . S
H2050 C2065 0.959 . S
H2051 C2065 0.961 . S
H2052 C2066 0.960 . S
H2053 C2066 0.961 . S
H2054 C2066 0.959 . S
H2055 C2069 0.929 . S
H2056 C2070 0.931 . S
H2057 C2072 0.930 . S
C2058 H2046 0.930 . S
C2058 C2059 1.399 1_554 S
C2058 C2063 1.399 1_554 S
C2059 C2058 1.399 1_556 S
C2059 C2060 1.376 . S
C2060 H2047 0.930 . S
C2060 C2059 1.376 . S
C2060 C2061 1.388 . S
C2061 H2048 0.930 . S
C2061 C2060 1.388 . S
C2061 C2062 1.390 . S
C2062 C2061 1.390 . S
C2062 C2063 1.394 . S
C2062 C2068 1.465 . S
C2063 C2058 1.399 1_556 S
C2063 C2062 1.394 . S
C2063 C2064 1.516 1_556 S
C2064 C2063 1.516 1_554 S
C2064 C2065 1.502 . S
C2064 C2066 1.561 . S
C2064 C2067 1.526 1_554 S
C2065 H2049 0.959 . S
C2065 H2050 0.959 . S
C2065 H2051 0.961 . S
C2065 C2064 1.502 . S
C2066 H2052 0.960 . S
C2066 H2053 0.961 . S
C2066 H2054 0.959 . S
C2066 C2064 1.561 . S
C2067 C2064 1.526 1_556 S
C2067 C2068 1.396 . S
C2067 C2072 1.390 . S
C2068 C2062 1.465 . S
C2068 C2067 1.396 . S
C2068 C2069 1.399 . S
C2069 H2055 0.929 . S
C2069 C2068 1.399 . S
C2069 C2070 1.385 . S
C2070 H2056 0.931 . S
C2070 C2069 1.385 . S
C2070 C2071 1.389 . S
C2071 C2070 1.389 . S
C2071 C2072 1.387 . S
C2072 H2057 0.930 . S
C2072 C2067 1.390 . S
C2072 C2071 1.387 . S
H2073 C2085 0.930 . S
H2074 C2087 0.930 1_556 S
H2075 C2088 0.930 1_556 S
H2076 C2092 0.959 . S
H2077 C2092 0.959 . S
H2078 C2092 0.961 . S
H2079 C2093 0.960 . S
H2080 C2093 0.961 . S
H2081 C2093 0.959 . S
H2082 C2096 0.929 . S
H2083 C2097 0.931 . S
H2084 C2099 0.930 . S
C2085 H2073 0.930 . S
C2085 C2086 1.399 . S
C2085 C2090 1.399 . S
C2086 C2085 1.399 . S
C2086 C2087 1.376 . S
C2087 H2074 0.930 1_554 S
C2087 C2086 1.376 . S
C2087 C2088 1.388 . S
C2088 H2075 0.930 1_554 S
C2088 C2087 1.388 . S
C2088 C2089 1.390 . S
C2089 C2088 1.390 . S
C2089 C2090 1.394 . S
C2089 C2095 1.465 . S
C2090 C2085 1.399 . S
C2090 C2089 1.394 . S
C2090 C2091 1.516 . S
C2091 C2090 1.516 . S
C2091 C2092 1.502 . S
C2091 C2093 1.561 . S
C2091 C2094 1.526 . S
C2092 H2076 0.959 . S
C2092 H2077 0.959 . S
C2092 H2078 0.961 . S
C2092 C2091 1.502 . S
C2093 H2079 0.960 . S
C2093 H2080 0.961 . S
C2093 H2081 0.959 . S
C2093 C2091 1.561 . S
C2094 C2091 1.526 . S
C2094 C2095 1.396 . S
C2094 C2099 1.390 . S
C2095 C2089 1.465 . S
C2095 C2094 1.396 . S
C2095 C2096 1.399 1_554 S
C2096 H2082 0.929 . S
C2096 C2095 1.399 1_556 S
C2096 C2097 1.385 . S
C2097 H2083 0.931 . S
C2097 C2096 1.385 . S
C2097 C2098 1.389 1_556 S
C2098 C2097 1.389 1_554 S
C2098 C2099 1.387 . S
C2099 H2084 0.930 . S
C2099 C2094 1.390 . S
C2099 C2098 1.387 . S
C817 C22 1.961 . S
C829 C694 1.841 1_545 S
C856 C714 1.917 . S
C844 C38 1.996 . S
C883 C653 1.663 1_565 S
C871 C75 1.671 . S
C898 C91 1.644 1_655 S
C910 C674 1.631 . S
C925 C128 1.639 . S
C937 C799 1.479 1_554 S
C952 C197 1.498 . S
C964 C779 1.495 . S
C991 C735 1.896 . S
C979 C144 1.949 . S
C1006 C181 1.566 . S
C1018 C756 1.499 . S
C1045 C673 1.589 . S
C1033 C234 1.727 . S
C1072 C716 1.628 1_455 S
C1060 C303 1.610 . S
C1087 C356 1.832 . S
C1099 C693 1.823 . S
C1114 C287 1.690 . S
C1126 C757 1.456 . S
C1153 C778 1.798 . S
C1141 C393 1.881 . S
C1180 C798 1.912 1_565 S
C1168 C409 2.020 . S
C1195 C462 1.803 . S
C1207 C758 1.785 . S
C1234 C737 1.569 . S
C1222 C446 1.583 . S
C1249 C499 1.560 . S
C1261 C715 1.476 . S
C1276 C552 1.470 . S
C1288 C695 1.507 . S
C1315 C672 1.749 . S
C1303 C515 1.836 . S
C1330 C568 1.764 . S
C1342 C651 1.682 . S
C1369 C736 1.594 . S
C1357 C340 1.779 . S
C1396 C800 1.539 . S
C1384 C621 1.598 . S
C1411 C250 1.727 . S
C1423 C777 1.713 . S
C1438 C605 1.634 . S
C1450 C652 1.503 1_655 S
C1477 C650 1.269 . S
C1465 C39 1.286 . S
C1492 C29 1.001 . S
C1504 C671 1.034 . S
C1531 C696 1.318 . S
C1519 C92 1.452 . S
C1558 C712 1.407 . S
C1546 C82 1.627 . S
C1573 C145 1.214 . S
C1585 C649 1.073 . S
C1600 C188 1.551 . S
C1612 C670 1.141 . S
C1639 C692 1.072 . S
C1627 C135 1.103 . S
C1654 C198 1.120 . S
C1666 C717 1.026 . S
C1681 C251 1.055 . S
C1693 C654 0.921 . S
C1720 C691 1.221 . S
C1708 C294 1.541 . S
C1735 C347 1.487 . S
C1747 C713 1.466 . S
C1762 C304 1.195 . S
C1774 C738 1.127 . S
C1801 C755 1.267 . S
C1789 C410 1.325 . S
C1816 C400 1.108 . S
C1828 C734 1.063 . S
C1843 C453 1.102 . S
C1855 C780 1.102 . S
C1870 C463 1.960 . S
C1882 C796 1.605 . S
C1897 C516 1.229 . S
C1909 C754 1.098 . S
C1936 C733 1.575 . S
C1924 C569 1.910 . S
C1951 C506 1.005 . S
C1963 C776 0.884 . S
C1990 C801 1.043 . S
C1978 C559 1.020 . S
C2017 C759 0.906 . S
C2005 C357 1.020 . S
C2044 C775 1.173 . S
C2032 C612 1.535 . S
C2071 C797 1.359 . S
C2059 C241 1.393 1_556 S
C2086 C622 1.163 . S
C2098 C675 1.152 . S
