# Generated by pormake.
# Topology ftw, (4,12)-cn, num edge types: 1
# Building blocks:
#     Node 0, Type 0, BuildingBlock: ESEHIV_clean_sbu_0, # of connection points: 4
#     Node 1, Type 0, BuildingBlock: ESEHIV_clean_sbu_0, # of connection points: 4
#     Node 2, Type 0, BuildingBlock: ESEHIV_clean_sbu_0, # of connection points: 4
#     Node 3, Type 1, BuildingBlock: QEWDON_clean_sbu_0, # of connection points: 12
#     Edge 4, Type (0, 1), BuildingBlock: UVAHIK_clean_linker_0, # of connection points: 2
#     Edge 5, Type (0, 1), BuildingBlock: UVAHIK_clean_linker_0, # of connection points: 2
#     Edge 6, Type (0, 1), BuildingBlock: UVAHIK_clean_linker_0, # of connection points: 2
#     Edge 7, Type (0, 1), BuildingBlock: UVAHIK_clean_linker_0, # of connection points: 2
#     Edge 8, Type (0, 1), BuildingBlock: UVAHIK_clean_linker_0, # of connection points: 2
#     Edge 9, Type (0, 1), BuildingBlock: UVAHIK_clean_linker_0, # of connection points: 2
#     Edge 10, Type (0, 1), BuildingBlock: UVAHIK_clean_linker_0, # of connection points: 2
#     Edge 11, Type (0, 1), BuildingBlock: UVAHIK_clean_linker_0, # of connection points: 2
#     Edge 12, Type (0, 1), BuildingBlock: UVAHIK_clean_linker_0, # of connection points: 2
#     Edge 13, Type (0, 1), BuildingBlock: UVAHIK_clean_linker_0, # of connection points: 2
#     Edge 14, Type (0, 1), BuildingBlock: UVAHIK_clean_linker_0, # of connection points: 2
#     Edge 15, Type (0, 1), BuildingBlock: UVAHIK_clean_linker_0, # of connection points: 2
# Relax obj value: 0.056
# Max RMSD: 0.169
# Mean RMSD: 0.145
data_MOF--net-ftw--node1-ESEHIV_clean_sbu_0--node2-QEWDON_clean_sbu_0--edge1-UVAHIK_clean_linker_0
_symmetry_space_group_name_H-M    P1
_symmetry_Int_Tables_number       1
_symmetry_cell_setting            triclinic
loop_
_symmetry_equiv_pos_as_xyz
'x, y, z'
_cell_length_a     31.731241
_cell_length_b     31.023424
_cell_length_c     30.599814
_cell_angle_alpha  87.605147
_cell_angle_beta   87.12021
_cell_angle_gamma 92.457949
loop_
_atom_site_label
_atom_site_type_symbol
_atom_site_fract_x
_atom_site_fract_y
_atom_site_fract_z
_atom_type_partial_charge
Cu0 Cu 0.97121 0.49296 0.54004 0.0
N1 N 0.94703 0.45726 0.49934 0.0
N2 N 0.94484 0.41078 0.4456 0.0
C3 C 0.96763 0.42694 0.47763 0.0
C4 C 0.9085 0.4318 0.44695 0.0
C5 C 0.9099 0.46045 0.48025 0.0
O6 O 0.01278 0.46077 0.57116 0.0
C7 C 0.96505 0.56941 0.49307 0.0
O8 O 0.92534 0.55972 0.50507 0.0
H9 H 0.99959 0.41841 0.4838 0.0
H10 H 0.88624 0.48318 0.48868 0.0
N11 N 0.9327 0.51025 0.5833 0.0
N12 N 0.91017 0.54583 0.64142 0.0
C13 C 0.94346 0.53727 0.61451 0.0
C14 C 0.89104 0.50104 0.59063 0.0
C15 C 0.87696 0.52321 0.62645 0.0
C16 C 1.00035 0.42274 0.58482 0.0
O17 O 0.96233 0.40818 0.57622 0.0
H18 H 0.97514 0.55108 0.61674 0.0
H19 H 0.87224 0.47992 0.57131 0.0
O20 O 0.99319 0.54457 0.50643 0.0
H21 H 0.88314 0.4273 0.42497 0.0
H22 H 0.84497 0.52241 0.64059 0.0
Cu23 Cu 0.51652 0.9679 0.50325 0.0
N24 N 0.5466 0.92792 0.53572 0.0
N25 N 0.58748 0.90168 0.58733 0.0
C26 C 0.56573 0.93565 0.57317 0.0
C27 C 0.58101 0.87107 0.55799 0.0
C28 C 0.55577 0.88726 0.52638 0.0
O29 O 0.5566 0.00414 0.46561 0.0
C30 C 0.45864 0.02929 0.53906 0.0
O31 O 0.45523 0.04489 0.49888 0.0
H32 H 0.56505 0.96636 0.58866 0.0
H33 H 0.54542 0.87051 0.49835 0.0
N34 N 0.4815 0.93928 0.46505 0.0
N35 N 0.42917 0.92523 0.4203 0.0
C36 C 0.44144 0.94722 0.45522 0.0
C37 C 0.49496 0.91165 0.43522 0.0
C38 C 0.46288 0.90267 0.40798 0.0
C39 C 0.59421 0.01415 0.47545 0.0
O40 O 0.60564 0.00529 0.51534 0.0
H41 H 0.42242 0.97001 0.47213 0.0
H42 H 0.52694 0.90116 0.43148 0.0
O43 O 0.4833 -0.00125 0.54608 0.0
H44 H 0.59372 0.83926 0.55905 0.0
H45 H 0.46543 0.88347 0.37932 0.0
Cu46 Cu 0.51454 0.5099 0.03065 0.0
N47 N 0.49773 0.55377 0.99264 0.0
N48 N 0.46813 0.61365 0.96834 0.0
C49 C 0.47192 0.58558 1.00268 0.0
C50 C 0.49258 0.5989 0.93535 0.0
C51 C 0.51103 0.56213 0.95055 0.0
O52 O 0.46597 0.48168 0.06231 0.0
C53 C 0.57139 0.51678 0.10063 0.0
O54 O 0.5601 0.47646 0.11193 0.0
H55 H 0.45628 0.58818 0.03453 0.0
H56 H 0.53328 0.54335 0.93242 0.0
N57 N 0.53941 0.46753 0.99795 0.0
N58 N 0.57636 0.41032 0.98102 0.0
C59 C 0.57023 0.44164 1.00973 0.0
C60 C 0.52559 0.45215 0.96053 0.0
C61 C 0.54849 0.41704 0.94982 0.0
C62 C 0.44058 0.4979 0.08988 0.0
O63 O 0.44712 0.53784 0.10136 0.0
H64 H 0.58709 0.44503 0.03928 0.0
H65 H 0.49935 0.46443 0.94332 0.0
O66 O 0.55474 0.53558 0.0685 0.0
H67 H 0.49763 0.61414 0.90294 0.0
H68 H 0.54346 0.39676 0.92246 0.0
Zn69 Zn 0.11435 0.13383 0.97158 0.0
Zn70 Zn 0.08527 0.10438 0.07244 0.0
O71 O 0.092 0.08304 1.01163 0.0
H72 H 0.08697 0.05367 1.0032 0.0
C73 C 0.01822 0.13393 0.94061 0.0
O74 O 0.01296 0.15011 0.97941 0.0
Zn75 Zn 0.93943 0.89224 0.11042 0.0
Zn76 Zn 0.91893 0.861 1.01369 0.0
O77 O 0.92693 0.91387 0.04979 0.0
H78 H 0.92503 0.94351 0.03934 0.0
Zn79 Zn 0.96279 0.06299 0.98223 0.0
O80 O 0.98583 0.0399 0.03853 0.0
Zn81 Zn 0.94132 0.04582 0.08684 0.0
H82 H 0.01369 0.02916 0.04158 0.0
Zn83 Zn 0.05682 0.92651 0.97844 0.0
O84 O 0.03473 0.94389 0.0381 0.0
H85 H 0.00631 0.95221 0.04517 0.0
Zn86 Zn 0.08341 0.94616 0.07741 0.0
C87 C 1.00007 0.85403 0.95711 0.0
O88 O 0.00509 0.84327 0.99845 0.0
O89 O 0.12596 0.18902 1.00568 0.0
O90 O 0.10384 0.16794 0.07388 0.0
O91 O 0.9065 0.80621 0.05324 0.0
O92 O 0.91903 0.82874 0.11979 0.0
O93 O 0.90259 0.08404 0.99124 0.0
O94 O 0.88927 0.07327 0.06315 0.0
C95 C 0.12076 0.02922 0.11342 0.0
O96 O 0.1195 0.91184 0.97786 0.0
O97 O 0.13591 0.92361 0.04643 0.0
O98 O 0.88633 0.86597 0.95605 0.0
C99 C 0.11967 0.19684 0.04608 0.0
O100 O 0.15145 0.12228 0.91472 0.0
C101 C 0.90735 0.96877 0.14656 0.0
O102 O 1.00168 0.09677 0.93425 0.0
C103 C 0.90732 0.79915 0.09454 0.0
O104 O 0.01806 0.88884 0.9407 0.0
C105 C 1.00202 0.101 0.12717 0.0
O106 O 0.12243 0.07028 0.11116 0.0
O107 O 0.09423 0.00904 0.09095 0.0
C108 C 0.87829 0.08644 0.02542 0.0
O109 O 0.90774 0.92812 0.15357 0.0
O110 O 0.92789 0.98556 0.11284 0.0
C111 C 0.03173 0.89186 0.14083 0.0
O112 O 0.9647 0.08436 0.13228 0.0
O113 O 0.02469 0.09192 0.09371 0.0
C114 C 0.14592 0.91178 1.0079 0.0
O115 O 0.06897 0.90746 0.13135 0.0
O116 O 1.00241 0.90292 0.11633 0.0
C117 C 0.8562 0.89154 0.95345 0.0
O118 O 0.84688 0.91515 0.98697 0.0
C119 C 0.18653 0.14308 0.90603 0.0
O120 O 0.19903 0.17229 0.93305 0.0
C121 C 0.98074 0.34413 0.42831 0.0
C122 C 0.95816 0.37982 0.41462 0.0
C123 C 0.99361 0.31389 0.3983 0.0
C124 C 0.02268 0.29823 0.28451 0.0
H125 H 0.97612 0.18114 0.30394 0.0
C126 C 0.02198 0.17537 0.1477 0.0
C127 C 0.01687 0.13123 0.15932 0.0
C128 C 0.02397 0.20576 0.18018 0.0
C129 C 0.9906 0.21323 0.29827 0.0
H130 H 0.9324 0.41267 0.35887 0.0
H131 H 0.95597 0.36024 0.30596 0.0
H132 H 0.96191 0.23427 0.35816 0.0
H133 H 0.01321 0.08357 0.21305 0.0
H134 H 0.02017 0.13597 0.2697 0.0
H135 H 0.05235 0.27739 0.22523 0.0
C136 C 0.96316 0.35552 0.34002 0.0
C137 C 0.98195 0.2438 0.32936 0.0
C138 C 0.94939 0.38519 0.37023 0.0
C139 C 0.01728 0.11758 0.20348 0.0
C140 C 0.02048 0.14779 0.2359 0.0
C141 C 0.03227 0.26738 0.2538 0.0
C142 C 0.98508 0.31945 0.35388 0.0
C143 C 0.99724 0.28668 0.32238 0.0
C144 C 0.02155 0.19245 0.22494 0.0
C145 C 0.01569 0.22451 0.25978 0.0
H146 H 0.98773 0.3393 0.4624 0.0
H147 H 0.01037 0.28623 0.4097 0.0
H148 H 0.0351 0.33116 0.27868 0.0
H149 H 0.02096 0.18655 0.11375 0.0
H150 H 0.02447 0.23961 0.17001 0.0
C151 C 0.66983 0.02708 0.44885 0.0
C152 C 0.62673 0.02827 0.44052 0.0
C153 C 0.70082 0.03394 0.41486 0.0
C154 C 0.71394 0.0283 0.29378 0.0
H155 H 0.8286 0.06705 0.31508 0.0
C156 C 0.85066 0.02047 0.16216 0.0
C157 C 0.88249 -0.00559 0.17719 0.0
C158 C 0.82077 0.03651 0.19195 0.0
C159 C 0.79663 0.05652 0.30855 0.0
H160 H 0.58256 0.0404 0.39013 0.0
H161 H 0.63662 0.05411 0.33103 0.0
H162 H 0.77242 0.07451 0.37135 0.0
H163 H 0.9096 0.96645 0.23473 0.0
H164 H 0.8586 -0.00424 0.28678 0.0
H165 H 0.73853 0.01027 0.23092 0.0
C166 C 0.64656 0.0464 0.36366 0.0
C167 C 0.76439 0.06039 0.34093 0.0
C168 C 0.61547 0.03892 0.39767 0.0
C169 C 0.88559 0.9869 0.22243 0.0
C170 C 0.85642 0.00368 0.25218 0.0
C171 C 0.74607 0.02515 0.26114 0.0
C172 C 0.68971 0.04284 0.37152 0.0
C173 C 0.72277 0.04499 0.33464 0.0
C174 C 0.82285 0.02741 0.23723 0.0
C175 C 0.78796 0.03804 0.26867 0.0
H176 H 0.67976 0.01878 0.48138 0.0
H177 H 0.73343 0.03016 0.42248 0.0
H178 H 0.68264 0.01548 0.2876 0.0
H179 H 0.84704 0.02582 0.1274 0.0
H180 H 0.79517 0.05467 0.17955 0.0
C181 C 0.94242 0.63212 0.44775 0.0
C182 C 0.97516 0.6064 0.46146 0.0
C183 C 0.95006 0.66481 0.41531 0.0
C184 C 0.0246 0.69885 0.3226 0.0
H185 H 0.96391 0.80473 0.32588 0.0
C186 C 0.05916 0.8405 0.19625 0.0
C187 C 0.02445 0.86054 0.17866 0.0
C188 C 0.05347 0.81042 0.23144 0.0
C189 C 0.98075 0.77514 0.32431 0.0
H190 H 0.04205 0.59587 0.45261 0.0
H191 H 0.05573 0.65385 0.39619 0.0
H192 H 0.95575 0.75225 0.38767 0.0
H193 H 0.95662 0.86561 0.18543 0.0
H194 H 0.94646 0.81245 0.24693 0.0
H195 H 0.04983 0.72204 0.25933 0.0
C196 C 0.02386 0.64804 0.41018 0.0
C197 C 0.97616 0.74504 0.35974 0.0
C198 C 0.01615 0.61505 0.44275 0.0
C199 C 0.98385 0.8502 0.19763 0.0
C200 C 0.97814 0.82012 0.23317 0.0
C201 C 0.0294 0.7291 0.28731 0.0
C202 C 0.99074 0.673 0.39571 0.0
C203 C 0.99778 0.70633 0.35923 0.0
C204 C 0.01294 0.79973 0.25027 0.0
C205 C 0.00738 0.76749 0.28767 0.0
H206 H 0.91039 0.62643 0.46135 0.0
H207 H 0.92362 0.68276 0.40466 0.0
H208 H 0.04114 0.66912 0.32063 0.0
H209 H 0.09096 0.84778 0.1826 0.0
H210 H 0.08098 0.79582 0.24423 0.0
C211 C 0.36842 0.96757 0.39814 0.0
C212 C 0.39135 0.92983 0.39623 0.0
C213 C 0.33509 0.97411 0.37062 0.0
C214 C 0.26405 0.91969 0.2936 0.0
H215 H 0.26294 0.03512 0.24031 0.0
C216 C 0.13697 0.97684 0.17432 0.0
C217 C 0.15093 0.00699 0.14065 0.0
C218 C 0.16483 0.96308 0.20576 0.0
C219 C 0.26298 0.00255 0.2545 0.0
H220 H 0.39485 0.86803 0.36588 0.0
H221 H 0.33783 0.87993 0.31722 0.0
H222 H 0.31211 0.01992 0.29647 0.0
H223 H 0.20495 0.04487 0.11199 0.0
H224 H 0.2538 0.01995 0.16549 0.0
H225 H 0.21557 0.90226 0.25026 0.0
C226 C 0.34537 0.90448 0.34009 0.0
C227 C 0.29079 0.99399 0.2874 0.0
C228 C 0.37855 0.89788 0.3677 0.0
C229 C 0.19349 0.02148 0.13761 0.0
C230 C 0.2213 0.00756 0.1686 0.0
C231 C 0.23615 0.92829 0.26049 0.0
C232 C 0.32384 0.94315 0.34037 0.0
C233 C 0.29201 0.9524 0.30725 0.0
C234 C 0.20707 0.9794 0.20401 0.0
C235 C 0.23566 0.96975 0.24011 0.0
H236 H 0.37719 0.99297 0.41954 0.0
H237 H 0.3187 0.00393 0.37244 0.0
H238 H 0.26376 0.88737 0.30844 0.0
H239 H 0.10399 0.96631 0.17814 0.0
H240 H 0.15269 0.94159 0.2327 0.0
C241 C 0.87513 0.59703 0.69005 0.0
C242 C 0.91068 0.57385 0.67788 0.0
C243 C 0.87685 0.62609 0.72388 0.0
C244 C 0.93822 0.65438 0.81948 0.0
H245 H 0.89682 0.76905 0.80004 0.0
C246 C 0.96066 0.78377 0.94628 0.0
C247 C 0.97745 0.82393 0.92897 0.0
C248 C 0.94378 0.75328 0.91881 0.0
C249 C 0.90846 0.73713 0.80599 0.0
H250 H 0.97528 0.56181 0.69286 0.0
H251 H 0.97846 0.61245 0.75122 0.0
H252 H 0.88512 0.71428 0.7462 0.0
H253 H 0.98707 0.86461 0.86959 0.0
H254 H 0.95816 0.81133 0.82169 0.0
H255 H 0.96315 0.67747 0.87816 0.0
C256 C 0.94917 0.60824 0.73486 0.0
C257 C 0.90139 0.70563 0.77536 0.0
C258 C 0.94753 0.57954 0.701 0.0
C259 C 0.97474 0.83385 0.88397 0.0
C260 C 0.95784 0.80336 0.8565 0.0
C261 C 0.94519 0.68576 0.85007 0.0
C262 C 0.91401 0.63215 0.74654 0.0
C263 C 0.91705 0.66417 0.78129 0.0
C264 C 0.94324 0.76225 0.8734 0.0
C265 C 0.93118 0.72779 0.8433 0.0
H266 H 0.84637 0.59354 0.6727 0.0
H267 H 0.84913 0.64382 0.73228 0.0
H268 H 0.95019 0.62259 0.82535 0.0
H269 H 0.96174 0.77526 0.98088 0.0
H270 H 0.93205 0.72224 0.93302 0.0
C271 C 0.40041 0.07443 0.56873 0.0
C272 C 0.43198 0.04486 0.57604 0.0
C273 C 0.37397 0.0871 0.60356 0.0
C274 C 0.36593 0.091 0.72487 0.0
H275 H 0.24606 0.09942 0.70895 0.0
C276 C 0.25323 0.15564 0.85869 0.0
C277 C 0.21362 0.13388 0.86673 0.0
C278 C 0.27944 0.14637 0.82245 0.0
C279 C 0.27942 0.09698 0.71403 0.0
H280 H 0.46071 0.00592 0.62605 0.0
H281 H 0.41475 0.02783 0.68638 0.0
H282 H 0.2929 0.08045 0.64761 0.0
H283 H 0.17035 0.08559 0.84239 0.0
H284 H 0.21622 0.06921 0.77929 0.0
H285 H 0.35244 0.1066 0.79145 0.0
C286 C 0.41056 0.04158 0.65386 0.0
C287 C 0.30638 0.08661 0.67869 0.0
C288 C 0.43684 0.02883 0.61911 0.0
C289 C 0.20065 0.10297 0.83724 0.0
C290 C 0.22687 0.09376 0.80087 0.0
C291 C 0.33903 0.10149 0.76012 0.0
C292 C 0.37859 0.07069 0.64657 0.0
C293 C 0.34998 0.08324 0.68371 0.0
C294 C 0.26676 0.11514 0.79317 0.0
C295 C 0.29538 0.10449 0.75526 0.0
H296 H 0.39574 0.08742 0.53602 0.0
H297 H 0.35002 0.10995 0.59681 0.0
H298 H 0.39936 0.08913 0.72987 0.0
H299 H 0.26423 0.17977 0.88056 0.0
H300 H 0.30963 0.16395 0.81724 0.0
C301 C 0.0394 0.4108 0.6529 0.0
C302 C 0.02549 0.39567 0.61328 0.0
C303 C 0.05231 0.38163 0.68534 0.0
C304 C 0.03095 0.26664 0.71859 0.0
H305 H 0.10725 0.29069 0.81044 0.0
C306 C 0.04156 0.14418 0.86125 0.0
C307 C 0.03684 0.16124 0.90295 0.0
C308 C 0.05177 0.17133 0.82431 0.0
C309 C 0.08586 0.28354 0.78495 0.0
H310 H 0.01765 0.33944 0.57455 0.0
H311 H 0.04251 0.289 0.62964 0.0
H312 H 0.10515 0.34155 0.74718 0.0
H313 H 0.04298 0.21976 0.93898 0.0
H314 H 0.06004 0.26724 0.87438 0.0
H315 H 0.01082 0.20946 0.75636 0.0
C316 C 0.04192 0.32286 0.63682 0.0
C317 C 0.08459 0.31271 0.74875 0.0
C318 C 0.02819 0.35177 0.60498 0.0
C319 C 0.04592 0.2056 0.90727 0.0
C320 C 0.05597 0.23284 0.87022 0.0
C321 C 0.03239 0.23758 0.75441 0.0
C322 C 0.05194 0.33697 0.67833 0.0
C323 C 0.05676 0.30479 0.71525 0.0
C324 C 0.05734 0.21623 0.82812 0.0
C325 C 0.05949 0.24576 0.78832 0.0
H326 H 0.03698 0.44451 0.66019 0.0
H327 H 0.05963 0.39376 0.71687 0.0
H328 H 0.00816 0.25983 0.69433 0.0
H329 H 0.03552 0.11005 0.85681 0.0
H330 H 0.05362 0.15734 0.79246 0.0
C331 C 0.6081 0.92661 0.65955 0.0
C332 C 0.61438 0.89976 0.62409 0.0
C333 C 0.63496 0.92567 0.69447 0.0
C334 C 0.71265 0.85818 0.74857 0.0
H335 H 0.74774 0.96594 0.79853 0.0
C336 C 0.83897 0.86689 0.87881 0.0
C337 C 0.83079 0.89356 0.91405 0.0
C338 C 0.81383 0.86795 0.84246 0.0
C339 C 0.73795 0.9355 0.78525 0.0
H340 H 0.65437 0.85105 0.59774 0.0
H341 H 0.701 0.84938 0.65847 0.0
H342 H 0.70089 0.96677 0.73781 0.0
H343 H 0.79 0.94258 0.93835 0.0
H344 H 0.74617 0.94416 0.87536 0.0
H345 H 0.74963 0.82692 0.79614 0.0
C346 C 0.6749 0.87075 0.6596 0.0
C347 C 0.71101 0.93597 0.75044 0.0
C348 C 0.64805 0.87169 0.6247 0.0
C349 C 0.79728 0.92165 0.9118 0.0
C350 C 0.77224 0.92274 0.87549 0.0
C351 C 0.73961 0.85771 0.78341 0.0
C352 C 0.66883 0.89785 0.69487 0.0
C353 C 0.69784 0.89731 0.73175 0.0
C354 C 0.78002 0.89578 0.84043 0.0
C355 C 0.75246 0.89635 0.80235 0.0
H356 H 0.58218 0.94816 0.66059 0.0
H357 H 0.62888 0.94647 0.72142 0.0
H358 H 0.70274 0.82774 0.73539 0.0
H359 H 0.86462 0.84494 0.8794 0.0
H360 H 0.82107 0.84713 0.81581 0.0
C361 C 0.36406 0.49375 0.11541 0.0
C362 C 0.40135 0.47289 0.10442 0.0
C363 C 0.32559 0.4699 0.12209 0.0
C364 C 0.27838 0.35898 0.14148 0.0
H365 H 0.19287 0.39616 0.06372 0.0
C366 C 0.15338 0.2709 0.03189 0.0
C367 C 0.13589 0.23862 0.06186 0.0
C368 C 0.17592 0.30668 0.0465 0.0
C369 C 0.21618 0.3856 0.08603 0.0
H370 H 0.42823 0.41073 0.09465 0.0
H371 H 0.36158 0.36926 0.10698 0.0
H372 H 0.25383 0.44443 0.07526 0.0
H373 H 0.12517 0.22069 0.13103 0.0
H374 H 0.16484 0.28318 0.15642 0.0
H375 H 0.24222 0.29924 0.15025 0.0
C376 C 0.3618 0.4039 0.11029 0.0
C377 C 0.2509 0.41336 0.09293 0.0
C378 C 0.39996 0.42768 0.10293 0.0
C379 C 0.13863 0.24469 0.10698 0.0
C380 C 0.16146 0.28041 0.12158 0.0
C381 C 0.24357 0.33137 0.13483 0.0
C382 C 0.32402 0.4248 0.11875 0.0
C383 C 0.28317 0.39962 0.11934 0.0
C384 C 0.18161 0.31097 0.0914 0.0
C385 C 0.21295 0.34373 0.10568 0.0
H386 H 0.36421 0.5286 0.11657 0.0
H387 H 0.29693 0.48679 0.12869 0.0
H388 H 0.30262 0.34772 0.16231 0.0
H389 H 0.15158 0.26749 0.99694 0.0
H390 H 0.19125 0.32947 0.02235 0.0
C391 C 0.43377 0.67267 1.00622 0.0
C392 C 0.44322 0.65142 0.96748 0.0
C393 C 0.40771 0.70778 1.00599 0.0
C394 C 0.32258 0.75301 0.94472 0.0
H395 H 0.33966 0.85071 0.01794 0.0
C396 C 0.20019 0.88294 0.95598 0.0
C397 C 0.1878 0.89386 0.99873 0.0
C398 C 0.23675 0.86042 0.94808 0.0
C399 C 0.33443 0.82357 0.99742 0.0
H400 H 0.43356 0.65123 0.89786 0.0
H401 H 0.38836 0.71293 0.89732 0.0
H402 H 0.39403 0.79757 1.01126 0.0
H403 H 0.20561 0.89197 0.06632 0.0
H404 H 0.26903 0.85204 0.05262 0.0
H405 H 0.2626 0.77804 0.93183 0.0
C406 C 0.40085 0.70207 0.92799 0.0
C407 C 0.36554 0.79317 0.99359 0.0
C408 C 0.42702 0.66695 0.92821 0.0
C409 C 0.21415 0.88396 0.03301 0.0
C410 C 0.25067 0.86123 0.02511 0.0
C411 C 0.29153 0.78332 0.94856 0.0
C412 C 0.39045 0.7225 0.967 0.0
C413 C 0.35962 0.75717 0.96775 0.0
C414 C 0.26169 0.84812 0.98275 0.0
C415 C 0.29677 0.8186 0.97548 0.0
H416 H 0.44631 0.66204 0.03689 0.0
H417 H 0.40002 0.72251 0.03669 0.0
H418 H 0.31671 0.72531 0.92512 0.0
H419 H 0.18094 0.89055 0.92869 0.0
H420 H 0.24486 0.8516 0.91493 0.0
C421 C 0.6156 0.35953 0.02642 0.0
C422 C 0.6038 0.37467 0.98502 0.0
C423 C 0.64143 0.32439 0.03036 0.0
C424 C 0.71981 0.26461 0.9679 0.0
H425 H 0.69819 0.17674 0.06124 0.0
C426 C 0.82378 0.11916 0.97985 0.0
C427 C 0.8385 0.10913 0.02146 0.0
C428 C 0.79045 0.14657 0.97515 0.0
C429 C 0.70474 0.20115 0.03516 0.0
H430 H 0.61018 0.36484 0.91533 0.0
H431 H 0.65492 0.30321 0.92221 0.0
H432 H 0.64986 0.23551 0.05335 0.0
H433 H 0.82785 0.11773 0.0911 0.0
H434 H 0.77003 0.16626 0.08281 0.0
H435 H 0.77498 0.23102 0.9501 0.0
C436 C 0.64436 0.31873 0.95161 0.0
C437 C 0.67712 0.23481 0.03067 0.0
C438 C 0.61845 0.35382 0.94768 0.0
C439 C 0.81734 0.12491 0.05856 0.0
C440 C 0.78409 0.15265 0.05381 0.0
C441 C 0.74739 0.23109 0.97241 0.0
C442 C 0.65615 0.30364 0.99299 0.0
C443 C 0.68451 0.26703 0.9971 0.0
C444 C 0.77121 0.16486 1.01191 0.0
C445 C 0.74032 0.19904 1.00618 0.0
H446 H 0.60443 0.37438 0.05593 0.0
H447 H 0.65033 0.31383 0.06266 0.0
H448 H 0.72679 0.28931 0.94217 0.0
H449 H 0.83896 0.10702 0.95063 0.0
H450 H 0.78055 0.15445 0.94252 0.0
C451 C 0.63775 0.51587 0.14201 0.0
C452 C 0.60679 0.5392 0.12127 0.0
C453 C 0.67439 0.53721 0.15548 0.0
C454 C 0.72208 0.64578 0.17515 0.0
H455 H 0.82535 0.60129 0.1253 0.0
C456 C 0.87964 0.72356 0.08608 0.0
C457 C 0.8882 0.75771 0.11355 0.0
C458 C 0.85265 0.6887 0.10078 0.0
C459 C 0.7969 0.6139 0.13994 0.0
H460 H 0.58858 0.60325 0.10092 0.0
H461 H 0.65191 0.64031 0.12462 0.0
H462 H 0.75975 0.55699 0.1271 0.0
H463 H 0.87864 0.77981 0.17951 0.0
H464 H 0.83132 0.71874 0.2052 0.0
H465 H 0.75836 0.70379 0.18519 0.0
C466 C 0.64815 0.60565 0.13056 0.0
C467 C 0.75938 0.58838 0.14131 0.0
C468 C 0.61196 0.58437 0.11663 0.0
C469 C 0.87241 0.7542 0.1574 0.0
C470 C 0.8451 0.71935 0.17205 0.0
C471 C 0.75956 0.67122 0.1739 0.0
C472 C 0.68029 0.58227 0.14911 0.0
C473 C 0.72122 0.60484 0.15716 0.0
C474 C 0.83347 0.68721 0.14328 0.0
C475 C 0.79702 0.65631 0.15451 0.0
H476 H 0.63466 0.481 0.14591 0.0
H477 H 0.69857 0.5184 0.16984 0.0
H478 H 0.69325 0.65909 0.18809 0.0
H479 H 0.89167 0.72502 0.05225 0.0
H480 H 0.8443 0.66471 0.07761 0.0
loop_
_geom_bond_atom_site_label_1
_geom_bond_atom_site_label_2
_geom_bond_distance
_geom_bond_site_symmetry_2
_ccdc_geom_bond_type
Cu0 N1 1.999 . S
Cu0 O6 1.974 . S
Cu0 N11 1.985 . S
Cu0 O20 1.959 . S
N1 Cu0 1.999 . S
N1 C3 1.263 . S
N1 C5 1.389 . S
N2 C3 1.358 . S
N2 C4 1.400 . S
C3 N1 1.263 . S
C3 N2 1.358 . S
C3 H9 0.930 1_455 S
C4 N2 1.400 . S
C4 C5 1.351 . S
C4 H21 0.930 . S
C5 N1 1.389 . S
C5 C4 1.351 . S
C5 H10 0.930 . S
O6 Cu0 1.974 . S
O6 C16 1.282 1_455 S
C7 O8 1.261 . S
C7 O20 1.251 1_655 S
O8 C7 1.261 . S
H9 C3 0.930 1_655 S
H10 C5 0.930 . S
N11 Cu0 1.985 . S
N11 C13 1.335 . S
N11 C14 1.390 1_455 S
N12 C13 1.345 . S
N12 C15 1.336 1_455 S
C13 N11 1.335 . S
C13 N12 1.345 . S
C13 H18 0.930 . S
C14 N11 1.390 1_655 S
C14 C15 1.346 . S
C14 H19 0.930 . S
C15 N12 1.336 1_655 S
C15 C14 1.346 . S
C15 H22 0.929 . S
C16 O6 1.282 1_655 S
C16 O17 1.216 . S
O17 C16 1.216 . S
H18 C13 0.930 . S
H19 C14 0.930 . S
O20 Cu0 1.959 . S
O20 C7 1.251 1_455 S
H21 C4 0.930 . S
H22 C15 0.929 . S
Cu23 N24 1.999 . S
Cu23 O29 1.974 . S
Cu23 N34 1.985 . S
Cu23 O43 1.959 . S
N24 Cu23 1.999 . S
N24 C26 1.263 . S
N24 C28 1.389 . S
N25 C26 1.358 . S
N25 C27 1.400 . S
C26 N24 1.263 . S
C26 N25 1.358 . S
C26 H32 0.930 1_565 S
C27 N25 1.400 . S
C27 C28 1.351 . S
C27 H44 0.930 . S
C28 N24 1.389 . S
C28 C27 1.351 . S
C28 H33 0.930 . S
O29 Cu23 1.974 . S
O29 C39 1.282 1_565 S
C30 O31 1.261 . S
C30 O43 1.251 1_545 S
O31 C30 1.261 . S
H32 C26 0.930 1_545 S
H33 C28 0.930 . S
N34 Cu23 1.985 . S
N34 C36 1.335 . S
N34 C37 1.390 1_565 S
N35 C36 1.345 . S
N35 C38 1.336 1_565 S
C36 N34 1.335 . S
C36 N35 1.345 . S
C36 H41 0.930 . S
C37 N34 1.390 1_545 S
C37 C38 1.346 . S
C37 H42 0.930 . S
C38 N35 1.336 1_545 S
C38 C37 1.346 . S
C38 H45 0.929 . S
C39 O29 1.282 1_545 S
C39 O40 1.216 . S
O40 C39 1.216 . S
H41 C36 0.930 . S
H42 C37 0.930 . S
O43 Cu23 1.959 . S
O43 C30 1.251 1_565 S
H44 C27 0.930 . S
H45 C38 0.929 . S
Cu46 N47 1.999 1_554 S
Cu46 O52 1.974 . S
Cu46 N57 1.985 . S
Cu46 O66 1.959 . S
N47 Cu46 1.999 1_556 S
N47 C49 1.263 1_556 S
N47 C51 1.389 . S
N48 C49 1.358 . S
N48 C50 1.400 1_554 S
C49 N47 1.263 1_554 S
C49 N48 1.358 . S
C49 H55 0.930 . S
C50 N48 1.400 1_556 S
C50 C51 1.351 . S
C50 H67 0.930 . S
C51 N47 1.389 . S
C51 C50 1.351 . S
C51 H56 0.930 . S
O52 Cu46 1.974 . S
O52 C62 1.282 . S
C53 O54 1.261 . S
C53 O66 1.258 . S
O54 C53 1.261 . S
H55 C49 0.930 . S
H56 C51 0.930 . S
N57 Cu46 1.985 . S
N57 C59 1.335 . S
N57 C60 1.390 . S
N58 C59 1.345 . S
N58 C61 1.336 . S
C59 N57 1.335 . S
C59 N58 1.345 . S
C59 H64 0.930 1_554 S
C60 N57 1.390 . S
C60 C61 1.346 . S
C60 H65 0.930 . S
C61 N58 1.336 . S
C61 C60 1.346 . S
C61 H68 0.929 . S
C62 O52 1.282 . S
C62 O63 1.216 . S
O63 C62 1.216 . S
H64 C59 0.930 1_556 S
H65 C60 0.930 . S
O66 Cu46 1.959 . S
O66 C53 1.258 . S
H67 C50 0.930 . S
H68 C61 0.929 . S
Zn69 O71 1.933 1_556 S
Zn69 O89 1.985 . S
Zn69 O100 1.955 . S
Zn70 O71 1.911 . S
Zn70 O90 1.970 . S
Zn70 O106 1.945 . S
Zn70 O113 1.981 . S
O71 Zn69 1.933 1_554 S
O71 Zn70 1.911 . S
O71 H72 0.841 . S
H72 O71 0.841 . S
C73 O74 1.246 . S
C73 O102 1.276 1_455 S
O74 C73 1.246 . S
Zn75 O77 1.911 . S
Zn75 O92 1.970 . S
Zn75 O109 1.945 . S
Zn75 O116 1.981 . S
Zn76 O77 1.933 1_556 S
Zn76 O91 1.985 . S
Zn76 O98 1.955 . S
O77 Zn75 1.911 . S
O77 Zn76 1.933 1_554 S
O77 H78 0.841 . S
H78 O77 0.841 . S
Zn79 O80 1.933 1_556 S
Zn79 O93 1.985 . S
Zn79 O102 1.955 . S
O80 Zn79 1.933 1_554 S
O80 Zn81 1.911 . S
O80 H82 0.841 . S
Zn81 O80 1.911 . S
Zn81 O94 1.970 . S
Zn81 O110 1.981 . S
Zn81 O112 1.945 . S
H82 O80 0.841 . S
Zn83 O84 1.933 1_556 S
Zn83 O96 1.985 . S
Zn83 O104 1.955 . S
O84 Zn83 1.933 1_554 S
O84 H85 0.841 . S
O84 Zn86 1.911 . S
H85 O84 0.841 . S
Zn86 O84 1.911 . S
Zn86 O97 1.970 . S
Zn86 O107 1.981 . S
Zn86 O115 1.945 . S
C87 O88 1.246 . S
C87 O104 1.276 1_655 S
O88 C87 1.246 . S
O89 Zn69 1.985 . S
O89 C99 1.245 1_556 S
O90 Zn70 1.970 . S
O90 C99 1.263 . S
O91 Zn76 1.985 . S
O91 C103 1.245 1_556 S
O92 Zn75 1.970 . S
O92 C103 1.263 . S
O93 Zn79 1.985 . S
O93 C108 1.245 1_556 S
O94 Zn81 1.970 . S
O94 C108 1.263 . S
C95 O106 1.262 . S
C95 O107 1.245 1_545 S
O96 Zn83 1.985 . S
O96 C114 1.245 1_556 S
O97 Zn86 1.970 . S
O97 C114 1.263 . S
O98 Zn76 1.955 . S
O98 C117 1.276 1_565 S
C99 O89 1.245 1_554 S
C99 O90 1.263 . S
O100 Zn69 1.955 . S
O100 C119 1.276 . S
C101 O109 1.262 . S
C101 O110 1.245 1_565 S
O102 C73 1.276 1_655 S
O102 Zn79 1.955 . S
C103 O91 1.245 1_554 S
C103 O92 1.263 . S
O104 Zn83 1.955 . S
O104 C87 1.276 1_455 S
C105 O112 1.262 1_455 S
C105 O113 1.245 . S
O106 Zn70 1.945 . S
O106 C95 1.262 . S
O107 Zn86 1.981 . S
O107 C95 1.245 1_565 S
C108 O93 1.245 1_554 S
C108 O94 1.263 . S
O109 Zn75 1.945 . S
O109 C101 1.262 . S
O110 Zn81 1.981 . S
O110 C101 1.245 1_545 S
C111 O115 1.262 1_655 S
C111 O116 1.245 . S
O112 Zn81 1.945 . S
O112 C105 1.262 1_655 S
O113 Zn70 1.981 . S
O113 C105 1.245 . S
C114 O96 1.245 1_554 S
C114 O97 1.263 . S
O115 Zn86 1.945 . S
O115 C111 1.262 1_455 S
O116 Zn75 1.981 . S
O116 C111 1.245 . S
C117 O98 1.276 1_545 S
C117 O118 1.246 . S
O118 C117 1.246 . S
C119 O100 1.276 . S
C119 O120 1.246 1_545 S
O120 C119 1.246 1_565 S
C121 C122 1.349 1_655 S
C121 C123 1.327 . S
C121 H146 0.950 . S
C122 C121 1.349 1_455 S
C122 C138 1.349 . S
C123 C121 1.327 . S
C123 C142 1.429 1_655 S
C123 H147 0.950 . S
C124 C141 1.574 . S
C124 C143 1.368 . S
C124 H148 0.949 . S
H125 C129 0.949 . S
C126 C127 1.349 . S
C126 C128 1.327 . S
C126 H149 0.950 . S
C127 C126 1.349 . S
C127 C139 1.349 1_455 S
C128 C126 1.327 . S
C128 C144 1.429 . S
C128 H150 0.950 . S
C129 H125 0.949 . S
C129 C137 1.574 . S
C129 C145 1.368 1_655 S
H130 C138 0.950 . S
H131 C136 0.950 . S
H132 C137 0.949 . S
H133 C139 0.950 . S
H134 C140 0.950 . S
H135 C141 0.949 . S
C136 H131 0.950 . S
C136 C138 1.327 . S
C136 C142 1.429 . S
C137 C129 1.574 . S
C137 H132 0.949 . S
C137 C143 1.368 1_655 S
C138 C122 1.349 . S
C138 H130 0.950 . S
C138 C136 1.327 . S
C139 C127 1.349 1_655 S
C139 H133 0.950 . S
C139 C140 1.327 . S
C140 H134 0.950 . S
C140 C139 1.327 . S
C140 C144 1.429 1_655 S
C141 C124 1.574 . S
C141 H135 0.949 . S
C141 C145 1.368 . S
C142 C123 1.429 1_455 S
C142 C136 1.429 . S
C142 C143 1.523 . S
C143 C124 1.368 . S
C143 C137 1.368 1_455 S
C143 C142 1.523 . S
C144 C128 1.429 . S
C144 C140 1.429 1_455 S
C144 C145 1.523 . S
C145 C129 1.368 1_455 S
C145 C141 1.368 . S
C145 C144 1.523 . S
H146 C121 0.950 . S
H147 C123 0.950 . S
H148 C124 0.949 . S
H149 C126 0.950 . S
H150 C128 0.950 . S
C151 C152 1.349 . S
C151 C153 1.327 . S
C151 H176 0.950 . S
C152 C151 1.349 . S
C152 C168 1.349 1_545 S
C153 C151 1.327 . S
C153 C172 1.429 . S
C153 H177 0.950 . S
C154 C171 1.574 . S
C154 C173 1.368 1_565 S
C154 H178 0.949 . S
H155 C159 0.949 . S
C156 C157 1.349 1_565 S
C156 C158 1.327 . S
C156 H179 0.950 . S
C157 C156 1.349 1_545 S
C157 C169 1.349 . S
C158 C156 1.327 . S
C158 C174 1.429 1_565 S
C158 H180 0.950 . S
C159 H155 0.949 . S
C159 C167 1.574 . S
C159 C175 1.368 . S
H160 C168 0.950 . S
H161 C166 0.950 . S
H162 C167 0.949 . S
H163 C169 0.950 . S
H164 C170 0.950 . S
H165 C171 0.949 . S
C166 H161 0.950 . S
C166 C168 1.327 . S
C166 C172 1.429 1_565 S
C167 C159 1.574 . S
C167 H162 0.949 . S
C167 C173 1.368 . S
C168 C152 1.349 1_565 S
C168 H160 0.950 . S
C168 C166 1.327 . S
C169 C157 1.349 . S
C169 H163 0.950 . S
C169 C170 1.327 . S
C170 H164 0.950 . S
C170 C169 1.327 . S
C170 C174 1.429 . S
C171 C154 1.574 . S
C171 H165 0.949 . S
C171 C175 1.368 1_565 S
C172 C153 1.429 . S
C172 C166 1.429 1_545 S
C172 C173 1.523 . S
C173 C154 1.368 1_545 S
C173 C167 1.368 . S
C173 C172 1.523 . S
C174 C158 1.429 1_545 S
C174 C170 1.429 . S
C174 C175 1.523 . S
C175 C159 1.368 . S
C175 C171 1.368 1_545 S
C175 C174 1.523 . S
H176 C151 0.950 . S
H177 C153 0.950 . S
H178 C154 0.949 . S
H179 C156 0.950 . S
H180 C158 0.950 . S
C181 C182 1.349 . S
C181 C183 1.327 . S
C181 H206 0.950 . S
C182 C181 1.349 . S
C182 C198 1.349 1_655 S
C183 C181 1.327 . S
C183 C202 1.429 . S
C183 H207 0.950 . S
C184 C201 1.574 . S
C184 C203 1.368 1_455 S
C184 H208 0.949 . S
H185 C189 0.949 . S
C186 C187 1.349 1_455 S
C186 C188 1.327 . S
C186 H209 0.950 . S
C187 C186 1.349 1_655 S
C187 C199 1.349 . S
C188 C186 1.327 . S
C188 C204 1.429 1_455 S
C188 H210 0.950 . S
C189 H185 0.949 . S
C189 C197 1.574 . S
C189 C205 1.368 . S
H190 C198 0.950 . S
H191 C196 0.950 . S
H192 C197 0.949 . S
H193 C199 0.950 . S
H194 C200 0.950 . S
H195 C201 0.949 . S
C196 H191 0.950 . S
C196 C198 1.327 . S
C196 C202 1.429 1_455 S
C197 C189 1.574 . S
C197 H192 0.949 . S
C197 C203 1.368 . S
C198 C182 1.349 1_455 S
C198 H190 0.950 . S
C198 C196 1.327 . S
C199 C187 1.349 . S
C199 H193 0.950 . S
C199 C200 1.327 . S
C200 H194 0.950 . S
C200 C199 1.327 . S
C200 C204 1.429 . S
C201 C184 1.574 . S
C201 H195 0.949 . S
C201 C205 1.368 1_455 S
C202 C183 1.429 . S
C202 C196 1.429 1_655 S
C202 C203 1.523 . S
C203 C184 1.368 1_655 S
C203 C197 1.368 . S
C203 C202 1.523 . S
C204 C188 1.429 1_655 S
C204 C200 1.429 . S
C204 C205 1.523 . S
C205 C189 1.368 . S
C205 C201 1.368 1_655 S
C205 C204 1.523 . S
H206 C181 0.950 . S
H207 C183 0.950 . S
H208 C184 0.949 . S
H209 C186 0.950 . S
H210 C188 0.950 . S
C211 C212 1.349 1_545 S
C211 C213 1.327 . S
C211 H236 0.950 . S
C212 C211 1.349 1_565 S
C212 C228 1.349 . S
C213 C211 1.327 . S
C213 C232 1.429 1_545 S
C213 H237 0.950 . S
C214 C231 1.574 . S
C214 C233 1.368 . S
C214 H238 0.949 . S
H215 C219 0.949 . S
C216 C217 1.349 . S
C216 C218 1.327 . S
C216 H239 0.950 . S
C217 C216 1.349 . S
C217 C229 1.349 1_565 S
C218 C216 1.327 . S
C218 C234 1.429 . S
C218 H240 0.950 . S
C219 H215 0.949 . S
C219 C227 1.574 . S
C219 C235 1.368 1_545 S
H220 C228 0.950 . S
H221 C226 0.950 . S
H222 C227 0.949 . S
H223 C229 0.950 . S
H224 C230 0.950 . S
H225 C231 0.949 . S
C226 H221 0.950 . S
C226 C228 1.327 . S
C226 C232 1.429 . S
C227 C219 1.574 . S
C227 H222 0.949 . S
C227 C233 1.368 1_545 S
C228 C212 1.349 . S
C228 H220 0.950 . S
C228 C226 1.327 . S
C229 C217 1.349 1_545 S
C229 H223 0.950 . S
C229 C230 1.327 . S
C230 H224 0.950 . S
C230 C229 1.327 . S
C230 C234 1.429 1_545 S
C231 C214 1.574 . S
C231 H225 0.949 . S
C231 C235 1.368 . S
C232 C213 1.429 1_565 S
C232 C226 1.429 . S
C232 C233 1.523 . S
C233 C214 1.368 . S
C233 C227 1.368 1_565 S
C233 C232 1.523 . S
C234 C218 1.429 . S
C234 C230 1.429 1_565 S
C234 C235 1.523 . S
C235 C219 1.368 1_565 S
C235 C231 1.368 . S
C235 C234 1.523 . S
H236 C211 0.950 . S
H237 C213 0.950 . S
H238 C214 0.949 . S
H239 C216 0.950 . S
H240 C218 0.950 . S
C241 C242 1.349 1_655 S
C241 C243 1.327 . S
C241 H266 0.950 . S
C242 C241 1.349 1_455 S
C242 C258 1.349 . S
C243 C241 1.327 . S
C243 C262 1.429 1_655 S
C243 H267 0.950 . S
C244 C261 1.574 . S
C244 C263 1.368 . S
C244 H268 0.949 . S
H245 C249 0.949 . S
C246 C247 1.349 1_455 S
C246 C248 1.327 . S
C246 H269 0.950 . S
C247 C246 1.349 1_655 S
C247 C259 1.349 . S
C248 C246 1.327 . S
C248 C264 1.429 1_455 S
C248 H270 0.950 . S
C249 H245 0.949 . S
C249 C257 1.574 . S
C249 C265 1.368 . S
H250 C258 0.950 . S
H251 C256 0.950 . S
H252 C257 0.949 . S
H253 C259 0.950 . S
H254 C260 0.950 . S
H255 C261 0.949 . S
C256 H251 0.950 . S
C256 C258 1.327 . S
C256 C262 1.429 . S
C257 C249 1.574 . S
C257 H252 0.949 . S
C257 C263 1.368 1_655 S
C258 C242 1.349 . S
C258 H250 0.950 . S
C258 C256 1.327 . S
C259 C247 1.349 . S
C259 H253 0.950 . S
C259 C260 1.327 . S
C260 H254 0.950 . S
C260 C259 1.327 . S
C260 C264 1.429 . S
C261 C244 1.574 . S
C261 H255 0.949 . S
C261 C265 1.368 1_455 S
C262 C243 1.429 1_455 S
C262 C256 1.429 . S
C262 C263 1.523 . S
C263 C244 1.368 . S
C263 C257 1.368 1_455 S
C263 C262 1.523 . S
C264 C248 1.429 1_655 S
C264 C260 1.429 . S
C264 C265 1.523 . S
C265 C249 1.368 . S
C265 C261 1.368 1_655 S
C265 C264 1.523 . S
H266 C241 0.950 . S
H267 C243 0.950 . S
H268 C244 0.949 . S
H269 C246 0.950 . S
H270 C248 0.950 . S
C271 C272 1.349 . S
C271 C273 1.327 . S
C271 H296 0.950 . S
C272 C271 1.349 . S
C272 C288 1.349 1_545 S
C273 C271 1.327 . S
C273 C292 1.429 . S
C273 H297 0.950 . S
C274 C291 1.574 . S
C274 C293 1.368 1_565 S
C274 H298 0.949 . S
H275 C279 0.949 . S
C276 C277 1.349 . S
C276 C278 1.327 . S
C276 H299 0.950 . S
C277 C276 1.349 . S
C277 C289 1.349 1_565 S
C278 C276 1.327 . S
C278 C294 1.429 . S
C278 H300 0.950 . S
C279 H275 0.949 . S
C279 C287 1.574 . S
C279 C295 1.369 . S
H280 C288 0.950 . S
H281 C286 0.950 . S
H282 C287 0.949 . S
H283 C289 0.950 . S
H284 C290 0.950 . S
H285 C291 0.949 . S
C286 H281 0.950 . S
C286 C288 1.327 . S
C286 C292 1.429 1_565 S
C287 C279 1.574 . S
C287 H282 0.949 . S
C287 C293 1.368 . S
C288 C272 1.349 1_565 S
C288 H280 0.950 . S
C288 C286 1.327 . S
C289 C277 1.349 1_545 S
C289 H283 0.950 . S
C289 C290 1.327 . S
C290 H284 0.950 . S
C290 C289 1.327 . S
C290 C294 1.429 1_545 S
C291 C274 1.574 . S
C291 H285 0.949 . S
C291 C295 1.368 1_565 S
C292 C273 1.429 . S
C292 C286 1.429 1_545 S
C292 C293 1.523 . S
C293 C274 1.368 1_545 S
C293 C287 1.368 . S
C293 C292 1.523 . S
C294 C278 1.429 . S
C294 C290 1.429 1_565 S
C294 C295 1.523 1_565 S
C295 C279 1.369 . S
C295 C291 1.368 1_545 S
C295 C294 1.523 1_545 S
H296 C271 0.950 . S
H297 C273 0.950 . S
H298 C274 0.949 . S
H299 C276 0.950 . S
H300 C278 0.950 . S
C301 C302 1.349 1_455 S
C301 C303 1.327 . S
C301 H326 0.950 . S
C302 C301 1.349 1_655 S
C302 C318 1.349 . S
C303 C301 1.327 . S
C303 C322 1.429 1_455 S
C303 H327 0.950 . S
C304 C321 1.574 . S
C304 C323 1.368 1_655 S
C304 H328 0.949 . S
H305 C309 0.949 . S
C306 C307 1.349 1_655 S
C306 C308 1.327 . S
C306 H329 0.950 . S
C307 C306 1.349 1_455 S
C307 C319 1.349 . S
C308 C306 1.327 . S
C308 C324 1.429 1_655 S
C308 H330 0.950 . S
C309 H305 0.949 . S
C309 C317 1.574 . S
C309 C325 1.368 . S
H310 C318 0.950 . S
H311 C316 0.950 . S
H312 C317 0.949 . S
H313 C319 0.950 . S
H314 C320 0.950 . S
H315 C321 0.949 . S
C316 H311 0.950 . S
C316 C318 1.327 . S
C316 C322 1.429 . S
C317 C309 1.574 . S
C317 H312 0.949 . S
C317 C323 1.368 . S
C318 C302 1.349 . S
C318 H310 0.950 . S
C318 C316 1.327 . S
C319 C307 1.349 . S
C319 H313 0.950 . S
C319 C320 1.327 . S
C320 H314 0.950 . S
C320 C319 1.327 . S
C320 C324 1.429 . S
C321 C304 1.574 . S
C321 H315 0.949 . S
C321 C325 1.368 1_655 S
C322 C303 1.429 1_655 S
C322 C316 1.429 . S
C322 C323 1.523 1_655 S
C323 C304 1.368 1_455 S
C323 C317 1.368 . S
C323 C322 1.523 1_455 S
C324 C308 1.429 1_455 S
C324 C320 1.429 . S
C324 C325 1.523 . S
C325 C309 1.368 . S
C325 C321 1.368 1_455 S
C325 C324 1.523 . S
H326 C301 0.950 . S
H327 C303 0.950 . S
H328 C304 0.949 . S
H329 C306 0.950 . S
H330 C308 0.950 . S
C331 C332 1.349 1_545 S
C331 C333 1.327 . S
C331 H356 0.950 . S
C332 C331 1.349 1_565 S
C332 C348 1.349 . S
C333 C331 1.327 . S
C333 C352 1.429 1_545 S
C333 H357 0.950 . S
C334 C351 1.574 . S
C334 C353 1.367 1_565 S
C334 H358 0.949 . S
H335 C339 0.949 . S
C336 C337 1.349 1_565 S
C336 C338 1.327 . S
C336 H359 0.950 . S
C337 C336 1.349 1_545 S
C337 C349 1.349 . S
C338 C336 1.327 . S
C338 C354 1.429 1_565 S
C338 H360 0.950 . S
C339 H335 0.949 . S
C339 C347 1.574 . S
C339 C355 1.368 . S
H340 C348 0.950 . S
H341 C346 0.950 . S
H342 C347 0.949 . S
H343 C349 0.950 . S
H344 C350 0.950 . S
H345 C351 0.949 . S
C346 H341 0.950 . S
C346 C348 1.327 . S
C346 C352 1.429 . S
C347 C339 1.574 . S
C347 H342 0.949 . S
C347 C353 1.370 . S
C348 C332 1.349 . S
C348 H340 0.950 . S
C348 C346 1.327 . S
C349 C337 1.349 . S
C349 H343 0.950 . S
C349 C350 1.327 . S
C350 H344 0.950 . S
C350 C349 1.327 . S
C350 C354 1.429 . S
C351 C334 1.574 . S
C351 H345 0.949 . S
C351 C355 1.368 1_565 S
C352 C333 1.429 1_565 S
C352 C346 1.429 . S
C352 C353 1.523 1_565 S
C353 C334 1.367 1_545 S
C353 C347 1.370 . S
C353 C352 1.523 1_545 S
C354 C338 1.429 1_545 S
C354 C350 1.429 . S
C354 C355 1.523 . S
C355 C339 1.368 . S
C355 C351 1.368 1_545 S
C355 C354 1.523 . S
H356 C331 0.950 . S
H357 C333 0.950 . S
H358 C334 0.949 . S
H359 C336 0.950 . S
H360 C338 0.950 . S
C361 C362 1.349 . S
C361 C363 1.327 . S
C361 H386 0.950 . S
C362 C361 1.349 . S
C362 C378 1.349 . S
C363 C361 1.327 . S
C363 C382 1.429 . S
C363 H387 0.950 . S
C364 C381 1.574 . S
C364 C383 1.368 1_556 S
C364 H388 0.949 . S
H365 C369 0.949 . S
C366 C367 1.349 1_556 S
C366 C368 1.327 . S
C366 H389 0.950 . S
C367 C366 1.349 1_554 S
C367 C379 1.349 . S
C368 C366 1.327 . S
C368 C384 1.429 1_556 S
C368 H390 0.950 . S
C369 H365 0.949 . S
C369 C377 1.574 . S
C369 C385 1.368 . S
H370 C378 0.950 1_556 S
H371 C376 0.950 1_556 S
H372 C377 0.949 . S
H373 C379 0.950 . S
H374 C380 0.950 . S
H375 C381 0.949 . S
C376 H371 0.950 1_554 S
C376 C378 1.327 . S
C376 C382 1.429 . S
C377 C369 1.574 . S
C377 H372 0.949 . S
C377 C383 1.368 . S
C378 C362 1.349 . S
C378 H370 0.950 1_554 S
C378 C376 1.327 . S
C379 C367 1.349 . S
C379 H373 0.950 . S
C379 C380 1.327 . S
C380 H374 0.950 . S
C380 C379 1.327 . S
C380 C384 1.429 . S
C381 C364 1.574 . S
C381 H375 0.949 . S
C381 C385 1.368 1_556 S
C382 C363 1.429 . S
C382 C376 1.429 . S
C382 C383 1.523 . S
C383 C364 1.368 1_554 S
C383 C377 1.368 . S
C383 C382 1.523 . S
C384 C368 1.429 1_554 S
C384 C380 1.429 . S
C384 C385 1.523 . S
C385 C369 1.368 . S
C385 C381 1.368 1_554 S
C385 C384 1.523 . S
H386 C361 0.950 . S
H387 C363 0.950 . S
H388 C364 0.949 . S
H389 C366 0.950 . S
H390 C368 0.950 . S
C391 C392 1.349 . S
C391 C393 1.327 . S
C391 H416 0.950 . S
C392 C391 1.349 . S
C392 C408 1.349 1_554 S
C393 C391 1.327 . S
C393 C412 1.429 . S
C393 H417 0.950 . S
C394 C411 1.574 . S
C394 C413 1.368 1_556 S
C394 H418 0.949 . S
H395 C399 0.949 . S
C396 C397 1.349 1_556 S
C396 C398 1.327 . S
C396 H419 0.950 . S
C397 C396 1.349 1_554 S
C397 C409 1.349 . S
C398 C396 1.327 . S
C398 C414 1.429 1_556 S
C398 H420 0.950 . S
C399 H395 0.949 . S
C399 C407 1.574 . S
C399 C415 1.368 . S
H400 C408 0.950 . S
H401 C406 0.950 . S
H402 C407 0.949 . S
H403 C409 0.950 . S
H404 C410 0.950 . S
H405 C411 0.949 . S
C406 H401 0.950 . S
C406 C408 1.327 . S
C406 C412 1.429 1_556 S
C407 C399 1.574 . S
C407 H402 0.949 . S
C407 C413 1.368 . S
C408 C392 1.349 1_556 S
C408 H400 0.950 . S
C408 C406 1.327 . S
C409 C397 1.349 . S
C409 H403 0.950 . S
C409 C410 1.327 . S
C410 H404 0.950 . S
C410 C409 1.327 . S
C410 C414 1.429 . S
C411 C394 1.574 . S
C411 H405 0.949 . S
C411 C415 1.368 1_556 S
C412 C393 1.429 . S
C412 C406 1.429 1_554 S
C412 C413 1.523 . S
C413 C394 1.368 1_554 S
C413 C407 1.368 . S
C413 C412 1.523 . S
C414 C398 1.429 1_554 S
C414 C410 1.429 . S
C414 C415 1.523 . S
C415 C399 1.368 . S
C415 C411 1.368 1_554 S
C415 C414 1.523 . S
H416 C391 0.950 . S
H417 C393 0.950 . S
H418 C394 0.949 . S
H419 C396 0.950 . S
H420 C398 0.950 . S
C421 C422 1.349 . S
C421 C423 1.327 . S
C421 H446 0.950 . S
C422 C421 1.349 . S
C422 C438 1.349 1_554 S
C423 C421 1.327 . S
C423 C442 1.429 . S
C423 H447 0.950 . S
C424 C441 1.574 . S
C424 C443 1.368 1_556 S
C424 H448 0.949 . S
H425 C429 0.949 . S
C426 C427 1.349 1_556 S
C426 C428 1.327 . S
C426 H449 0.950 . S
C427 C426 1.349 1_554 S
C427 C439 1.349 . S
C428 C426 1.327 . S
C428 C444 1.429 1_556 S
C428 H450 0.950 . S
C429 H425 0.949 . S
C429 C437 1.574 . S
C429 C445 1.368 . S
H430 C438 0.950 . S
H431 C436 0.950 . S
H432 C437 0.949 . S
H433 C439 0.950 . S
H434 C440 0.950 . S
H435 C441 0.949 . S
C436 H431 0.950 . S
C436 C438 1.327 . S
C436 C442 1.429 1_556 S
C437 C429 1.574 . S
C437 H432 0.949 . S
C437 C443 1.368 . S
C438 C422 1.349 1_556 S
C438 H430 0.950 . S
C438 C436 1.327 . S
C439 C427 1.349 . S
C439 H433 0.950 . S
C439 C440 1.327 . S
C440 H434 0.950 . S
C440 C439 1.327 . S
C440 C444 1.429 . S
C441 C424 1.574 . S
C441 H435 0.949 . S
C441 C445 1.368 1_556 S
C442 C423 1.429 . S
C442 C436 1.429 1_554 S
C442 C443 1.523 . S
C443 C424 1.368 1_554 S
C443 C437 1.368 . S
C443 C442 1.523 . S
C444 C428 1.429 1_554 S
C444 C440 1.429 . S
C444 C445 1.523 . S
C445 C429 1.368 . S
C445 C441 1.368 1_554 S
C445 C444 1.523 . S
H446 C421 0.950 . S
H447 C423 0.950 . S
H448 C424 0.949 . S
H449 C426 0.950 . S
H450 C428 0.950 . S
C451 C452 1.349 . S
C451 C453 1.327 . S
C451 H476 0.950 . S
C452 C451 1.349 . S
C452 C468 1.349 . S
C453 C451 1.327 . S
C453 C472 1.429 . S
C453 H477 0.950 . S
C454 C471 1.574 . S
C454 C473 1.368 1_556 S
C454 H478 0.949 . S
H455 C459 0.949 . S
C456 C457 1.349 1_556 S
C456 C458 1.327 . S
C456 H479 0.950 . S
C457 C456 1.349 1_554 S
C457 C469 1.349 . S
C458 C456 1.327 . S
C458 C474 1.429 1_556 S
C458 H480 0.950 . S
C459 H455 0.949 . S
C459 C467 1.574 . S
C459 C475 1.368 . S
H460 C468 0.950 1_556 S
H461 C466 0.950 1_556 S
H462 C467 0.949 . S
H463 C469 0.950 . S
H464 C470 0.950 . S
H465 C471 0.949 . S
C466 H461 0.950 1_554 S
C466 C468 1.327 . S
C466 C472 1.429 . S
C467 C459 1.574 . S
C467 H462 0.949 . S
C467 C473 1.368 . S
C468 C452 1.349 . S
C468 H460 0.950 1_554 S
C468 C466 1.327 . S
C469 C457 1.349 . S
C469 H463 0.950 . S
C469 C470 1.327 . S
C470 H464 0.950 . S
C470 C469 1.327 . S
C470 C474 1.429 . S
C471 C454 1.574 . S
C471 H465 0.949 . S
C471 C475 1.368 1_556 S
C472 C453 1.429 . S
C472 C466 1.429 . S
C472 C473 1.523 . S
C473 C454 1.368 1_554 S
C473 C467 1.368 . S
C473 C472 1.523 . S
C474 C458 1.429 1_554 S
C474 C470 1.429 . S
C474 C475 1.523 . S
C475 C459 1.368 . S
C475 C471 1.368 1_554 S
C475 C474 1.523 . S
H476 C451 0.950 . S
H477 C453 0.950 . S
H478 C454 0.949 . S
H479 C456 0.950 . S
H480 C458 0.950 . S
C127 C105 1.323 . S
C122 N2 1.332 . S
C157 C101 1.730 1_545 S
C152 C39 1.795 . S
C187 C111 1.543 . S
C182 C7 1.618 . S
C217 C95 1.522 1_565 S
C212 N35 1.539 . S
C242 N12 1.429 . S
C247 C87 1.406 . S
C277 C119 1.877 1_565 S
C272 C30 1.985 . S
C302 C16 1.728 . S
C307 C73 1.627 . S
C332 N25 1.716 . S
C337 C117 1.655 . S
C362 C62 1.275 . S
C367 C99 1.252 . S
C392 N48 1.043 . S
C397 C114 1.058 . S
C427 C108 1.031 . S
C422 N58 1.011 . S
C457 C103 1.291 . S
C452 C53 1.319 . S
