# Generated by pormake.
# Topology gar, (4,6)-cn, num edge types: 1
# Building blocks:
#     Node 0, Type 0, BuildingBlock: CEKHIL_clean_sbu_0, # of connection points: 4
#     Node 1, Type 0, BuildingBlock: CEKHIL_clean_sbu_0, # of connection points: 4
#     Node 2, Type 0, BuildingBlock: CEKHIL_clean_sbu_0, # of connection points: 4
#     Node 3, Type 0, BuildingBlock: CEKHIL_clean_sbu_0, # of connection points: 4
#     Node 4, Type 0, BuildingBlock: CEKHIL_clean_sbu_0, # of connection points: 4
#     Node 5, Type 0, BuildingBlock: CEKHIL_clean_sbu_0, # of connection points: 4
#     Node 6, Type 0, BuildingBlock: CEKHIL_clean_sbu_0, # of connection points: 4
#     Node 7, Type 0, BuildingBlock: CEKHIL_clean_sbu_0, # of connection points: 4
#     Node 8, Type 0, BuildingBlock: CEKHIL_clean_sbu_0, # of connection points: 4
#     Node 9, Type 0, BuildingBlock: CEKHIL_clean_sbu_0, # of connection points: 4
#     Node 10, Type 0, BuildingBlock: CEKHIL_clean_sbu_0, # of connection points: 4
#     Node 11, Type 0, BuildingBlock: CEKHIL_clean_sbu_0, # of connection points: 4
#     Node 12, Type 0, BuildingBlock: CEKHIL_clean_sbu_0, # of connection points: 4
#     Node 13, Type 0, BuildingBlock: CEKHIL_clean_sbu_0, # of connection points: 4
#     Node 14, Type 0, BuildingBlock: CEKHIL_clean_sbu_0, # of connection points: 4
#     Node 15, Type 0, BuildingBlock: CEKHIL_clean_sbu_0, # of connection points: 4
#     Node 16, Type 0, BuildingBlock: CEKHIL_clean_sbu_0, # of connection points: 4
#     Node 17, Type 0, BuildingBlock: CEKHIL_clean_sbu_0, # of connection points: 4
#     Node 18, Type 0, BuildingBlock: CEKHIL_clean_sbu_0, # of connection points: 4
#     Node 19, Type 0, BuildingBlock: CEKHIL_clean_sbu_0, # of connection points: 4
#     Node 20, Type 0, BuildingBlock: CEKHIL_clean_sbu_0, # of connection points: 4
#     Node 21, Type 0, BuildingBlock: CEKHIL_clean_sbu_0, # of connection points: 4
#     Node 22, Type 0, BuildingBlock: CEKHIL_clean_sbu_0, # of connection points: 4
#     Node 23, Type 0, BuildingBlock: CEKHIL_clean_sbu_0, # of connection points: 4
#     Node 24, Type 1, BuildingBlock: KUMJIN_clean_sbu_1, # of connection points: 6
#     Node 25, Type 1, BuildingBlock: KUMJIN_clean_sbu_1, # of connection points: 6
#     Node 26, Type 1, BuildingBlock: KUMJIN_clean_sbu_1, # of connection points: 6
#     Node 27, Type 1, BuildingBlock: KUMJIN_clean_sbu_1, # of connection points: 6
#     Node 28, Type 1, BuildingBlock: KUMJIN_clean_sbu_1, # of connection points: 6
#     Node 29, Type 1, BuildingBlock: KUMJIN_clean_sbu_1, # of connection points: 6
#     Node 30, Type 1, BuildingBlock: KUMJIN_clean_sbu_1, # of connection points: 6
#     Node 31, Type 1, BuildingBlock: KUMJIN_clean_sbu_1, # of connection points: 6
#     Node 32, Type 1, BuildingBlock: KUMJIN_clean_sbu_1, # of connection points: 6
#     Node 33, Type 1, BuildingBlock: KUMJIN_clean_sbu_1, # of connection points: 6
#     Node 34, Type 1, BuildingBlock: KUMJIN_clean_sbu_1, # of connection points: 6
#     Node 35, Type 1, BuildingBlock: KUMJIN_clean_sbu_1, # of connection points: 6
#     Node 36, Type 1, BuildingBlock: KUMJIN_clean_sbu_1, # of connection points: 6
#     Node 37, Type 1, BuildingBlock: KUMJIN_clean_sbu_1, # of connection points: 6
#     Node 38, Type 1, BuildingBlock: KUMJIN_clean_sbu_1, # of connection points: 6
#     Node 39, Type 1, BuildingBlock: KUMJIN_clean_sbu_1, # of connection points: 6
#     Edge 40, Type (0, 1), BuildingBlock: XIVTED_clean_linker_0, # of connection points: 2
#     Edge 41, Type (0, 1), BuildingBlock: XIVTED_clean_linker_0, # of connection points: 2
#     Edge 42, Type (0, 1), BuildingBlock: XIVTED_clean_linker_0, # of connection points: 2
#     Edge 43, Type (0, 1), BuildingBlock: XIVTED_clean_linker_0, # of connection points: 2
#     Edge 44, Type (0, 1), BuildingBlock: XIVTED_clean_linker_0, # of connection points: 2
#     Edge 45, Type (0, 1), BuildingBlock: XIVTED_clean_linker_0, # of connection points: 2
#     Edge 46, Type (0, 1), BuildingBlock: XIVTED_clean_linker_0, # of connection points: 2
#     Edge 47, Type (0, 1), BuildingBlock: XIVTED_clean_linker_0, # of connection points: 2
#     Edge 48, Type (0, 1), BuildingBlock: XIVTED_clean_linker_0, # of connection points: 2
#     Edge 49, Type (0, 1), BuildingBlock: XIVTED_clean_linker_0, # of connection points: 2
#     Edge 50, Type (0, 1), BuildingBlock: XIVTED_clean_linker_0, # of connection points: 2
#     Edge 51, Type (0, 1), BuildingBlock: XIVTED_clean_linker_0, # of connection points: 2
#     Edge 52, Type (0, 1), BuildingBlock: XIVTED_clean_linker_0, # of connection points: 2
#     Edge 53, Type (0, 1), BuildingBlock: XIVTED_clean_linker_0, # of connection points: 2
#     Edge 54, Type (0, 1), BuildingBlock: XIVTED_clean_linker_0, # of connection points: 2
#     Edge 55, Type (0, 1), BuildingBlock: XIVTED_clean_linker_0, # of connection points: 2
#     Edge 56, Type (0, 1), BuildingBlock: XIVTED_clean_linker_0, # of connection points: 2
#     Edge 57, Type (0, 1), BuildingBlock: XIVTED_clean_linker_0, # of connection points: 2
#     Edge 58, Type (0, 1), BuildingBlock: XIVTED_clean_linker_0, # of connection points: 2
#     Edge 59, Type (0, 1), BuildingBlock: XIVTED_clean_linker_0, # of connection points: 2
#     Edge 60, Type (0, 1), BuildingBlock: XIVTED_clean_linker_0, # of connection points: 2
#     Edge 61, Type (0, 1), BuildingBlock: XIVTED_clean_linker_0, # of connection points: 2
#     Edge 62, Type (0, 1), BuildingBlock: XIVTED_clean_linker_0, # of connection points: 2
#     Edge 63, Type (0, 1), BuildingBlock: XIVTED_clean_linker_0, # of connection points: 2
#     Edge 64, Type (0, 1), BuildingBlock: XIVTED_clean_linker_0, # of connection points: 2
#     Edge 65, Type (0, 1), BuildingBlock: XIVTED_clean_linker_0, # of connection points: 2
#     Edge 66, Type (0, 1), BuildingBlock: XIVTED_clean_linker_0, # of connection points: 2
#     Edge 67, Type (0, 1), BuildingBlock: XIVTED_clean_linker_0, # of connection points: 2
#     Edge 68, Type (0, 1), BuildingBlock: XIVTED_clean_linker_0, # of connection points: 2
#     Edge 69, Type (0, 1), BuildingBlock: XIVTED_clean_linker_0, # of connection points: 2
#     Edge 70, Type (0, 1), BuildingBlock: XIVTED_clean_linker_0, # of connection points: 2
#     Edge 71, Type (0, 1), BuildingBlock: XIVTED_clean_linker_0, # of connection points: 2
#     Edge 72, Type (0, 1), BuildingBlock: XIVTED_clean_linker_0, # of connection points: 2
#     Edge 73, Type (0, 1), BuildingBlock: XIVTED_clean_linker_0, # of connection points: 2
#     Edge 74, Type (0, 1), BuildingBlock: XIVTED_clean_linker_0, # of connection points: 2
#     Edge 75, Type (0, 1), BuildingBlock: XIVTED_clean_linker_0, # of connection points: 2
#     Edge 76, Type (0, 1), BuildingBlock: XIVTED_clean_linker_0, # of connection points: 2
#     Edge 77, Type (0, 1), BuildingBlock: XIVTED_clean_linker_0, # of connection points: 2
#     Edge 78, Type (0, 1), BuildingBlock: XIVTED_clean_linker_0, # of connection points: 2
#     Edge 79, Type (0, 1), BuildingBlock: XIVTED_clean_linker_0, # of connection points: 2
#     Edge 80, Type (0, 1), BuildingBlock: XIVTED_clean_linker_0, # of connection points: 2
#     Edge 81, Type (0, 1), BuildingBlock: XIVTED_clean_linker_0, # of connection points: 2
#     Edge 82, Type (0, 1), BuildingBlock: XIVTED_clean_linker_0, # of connection points: 2
#     Edge 83, Type (0, 1), BuildingBlock: XIVTED_clean_linker_0, # of connection points: 2
#     Edge 84, Type (0, 1), BuildingBlock: XIVTED_clean_linker_0, # of connection points: 2
#     Edge 85, Type (0, 1), BuildingBlock: XIVTED_clean_linker_0, # of connection points: 2
#     Edge 86, Type (0, 1), BuildingBlock: XIVTED_clean_linker_0, # of connection points: 2
#     Edge 87, Type (0, 1), BuildingBlock: XIVTED_clean_linker_0, # of connection points: 2
#     Edge 88, Type (0, 1), BuildingBlock: XIVTED_clean_linker_0, # of connection points: 2
#     Edge 89, Type (0, 1), BuildingBlock: XIVTED_clean_linker_0, # of connection points: 2
#     Edge 90, Type (0, 1), BuildingBlock: XIVTED_clean_linker_0, # of connection points: 2
#     Edge 91, Type (0, 1), BuildingBlock: XIVTED_clean_linker_0, # of connection points: 2
#     Edge 92, Type (0, 1), BuildingBlock: XIVTED_clean_linker_0, # of connection points: 2
#     Edge 93, Type (0, 1), BuildingBlock: XIVTED_clean_linker_0, # of connection points: 2
#     Edge 94, Type (0, 1), BuildingBlock: XIVTED_clean_linker_0, # of connection points: 2
#     Edge 95, Type (0, 1), BuildingBlock: XIVTED_clean_linker_0, # of connection points: 2
#     Edge 96, Type (0, 1), BuildingBlock: XIVTED_clean_linker_0, # of connection points: 2
#     Edge 97, Type (0, 1), BuildingBlock: XIVTED_clean_linker_0, # of connection points: 2
#     Edge 98, Type (0, 1), BuildingBlock: XIVTED_clean_linker_0, # of connection points: 2
#     Edge 99, Type (0, 1), BuildingBlock: XIVTED_clean_linker_0, # of connection points: 2
#     Edge 100, Type (0, 1), BuildingBlock: XIVTED_clean_linker_0, # of connection points: 2
#     Edge 101, Type (0, 1), BuildingBlock: XIVTED_clean_linker_0, # of connection points: 2
#     Edge 102, Type (0, 1), BuildingBlock: XIVTED_clean_linker_0, # of connection points: 2
#     Edge 103, Type (0, 1), BuildingBlock: XIVTED_clean_linker_0, # of connection points: 2
#     Edge 104, Type (0, 1), BuildingBlock: XIVTED_clean_linker_0, # of connection points: 2
#     Edge 105, Type (0, 1), BuildingBlock: XIVTED_clean_linker_0, # of connection points: 2
#     Edge 106, Type (0, 1), BuildingBlock: XIVTED_clean_linker_0, # of connection points: 2
#     Edge 107, Type (0, 1), BuildingBlock: XIVTED_clean_linker_0, # of connection points: 2
#     Edge 108, Type (0, 1), BuildingBlock: XIVTED_clean_linker_0, # of connection points: 2
#     Edge 109, Type (0, 1), BuildingBlock: XIVTED_clean_linker_0, # of connection points: 2
#     Edge 110, Type (0, 1), BuildingBlock: XIVTED_clean_linker_0, # of connection points: 2
#     Edge 111, Type (0, 1), BuildingBlock: XIVTED_clean_linker_0, # of connection points: 2
#     Edge 112, Type (0, 1), BuildingBlock: XIVTED_clean_linker_0, # of connection points: 2
#     Edge 113, Type (0, 1), BuildingBlock: XIVTED_clean_linker_0, # of connection points: 2
#     Edge 114, Type (0, 1), BuildingBlock: XIVTED_clean_linker_0, # of connection points: 2
#     Edge 115, Type (0, 1), BuildingBlock: XIVTED_clean_linker_0, # of connection points: 2
#     Edge 116, Type (0, 1), BuildingBlock: XIVTED_clean_linker_0, # of connection points: 2
#     Edge 117, Type (0, 1), BuildingBlock: XIVTED_clean_linker_0, # of connection points: 2
#     Edge 118, Type (0, 1), BuildingBlock: XIVTED_clean_linker_0, # of connection points: 2
#     Edge 119, Type (0, 1), BuildingBlock: XIVTED_clean_linker_0, # of connection points: 2
#     Edge 120, Type (0, 1), BuildingBlock: XIVTED_clean_linker_0, # of connection points: 2
#     Edge 121, Type (0, 1), BuildingBlock: XIVTED_clean_linker_0, # of connection points: 2
#     Edge 122, Type (0, 1), BuildingBlock: XIVTED_clean_linker_0, # of connection points: 2
#     Edge 123, Type (0, 1), BuildingBlock: XIVTED_clean_linker_0, # of connection points: 2
#     Edge 124, Type (0, 1), BuildingBlock: XIVTED_clean_linker_0, # of connection points: 2
#     Edge 125, Type (0, 1), BuildingBlock: XIVTED_clean_linker_0, # of connection points: 2
#     Edge 126, Type (0, 1), BuildingBlock: XIVTED_clean_linker_0, # of connection points: 2
#     Edge 127, Type (0, 1), BuildingBlock: XIVTED_clean_linker_0, # of connection points: 2
#     Edge 128, Type (0, 1), BuildingBlock: XIVTED_clean_linker_0, # of connection points: 2
#     Edge 129, Type (0, 1), BuildingBlock: XIVTED_clean_linker_0, # of connection points: 2
#     Edge 130, Type (0, 1), BuildingBlock: XIVTED_clean_linker_0, # of connection points: 2
#     Edge 131, Type (0, 1), BuildingBlock: XIVTED_clean_linker_0, # of connection points: 2
#     Edge 132, Type (0, 1), BuildingBlock: XIVTED_clean_linker_0, # of connection points: 2
#     Edge 133, Type (0, 1), BuildingBlock: XIVTED_clean_linker_0, # of connection points: 2
#     Edge 134, Type (0, 1), BuildingBlock: XIVTED_clean_linker_0, # of connection points: 2
#     Edge 135, Type (0, 1), BuildingBlock: XIVTED_clean_linker_0, # of connection points: 2
# Relax obj value: 0.067
# Max RMSD: 0.179
# Mean RMSD: 0.109
data_MOF--net-gar--node1-CEKHIL_clean_sbu_0--node2-KUMJIN_clean_sbu_1--edge1-XIVTED_clean_linker_0
_symmetry_space_group_name_H-M    P1
_symmetry_Int_Tables_number       1
_symmetry_cell_setting            triclinic
loop_
_symmetry_equiv_pos_as_xyz
'x, y, z'
_cell_length_a     60.697438
_cell_length_b     60.092446
_cell_length_c     55.535273
_cell_angle_alpha  96.205722
_cell_angle_beta   96.329362
_cell_angle_gamma 101.03771
loop_
_atom_site_label
_atom_site_type_symbol
_atom_site_fract_x
_atom_site_fract_y
_atom_site_fract_z
_atom_type_partial_charge
Co0 Co 0.06231 0.32572 0.3655 0.0
O1 O 0.09569 0.32841 0.37218 0.0
O2 O 0.07693 0.31654 0.33614 0.0
C3 C 0.06131 0.36061 0.38785 0.0
O4 O 0.02739 0.32103 0.35117 0.0
Co5 Co 0.03209 0.32561 0.40767 0.0
O6 O 1.00733 0.32776 0.38218 0.0
C7 C 0.05048 0.28475 0.39308 0.0
C8 C 0.09662 0.32076 0.34966 0.0
C9 C 1.0084 0.32339 0.35943 0.0
O10 O 0.05742 0.2931 0.37409 0.0
O11 O 0.04181 0.29576 0.40931 0.0
O12 O 0.06604 0.35963 0.36548 0.0
O13 O 0.05887 0.34127 0.39609 0.0
Co14 Co 0.02192 0.76038 0.70108 0.0
O15 O 0.98889 0.7594 0.69312 0.0
O16 O 1.00355 0.75445 0.72884 0.0
C17 C 0.03124 0.7937 0.68457 0.0
O18 O 0.05636 0.76173 0.71632 0.0
Co19 Co 0.05434 0.76229 0.66079 0.0
O20 O 0.07959 0.76995 0.68784 0.0
C21 C 0.02478 0.71796 0.66598 0.0
C22 C 0.98542 0.75696 0.7153 0.0
C23 C 0.07672 0.76659 0.7096 0.0
O24 O 0.01838 0.72635 0.6862 0.0
O25 O 0.03702 0.7301 0.65293 0.0
O26 O 0.02659 0.79422 0.70685 0.0
O27 O 0.02974 0.7736 0.67326 0.0
Co28 Co 0.56046 0.82491 0.86437 0.0
O29 O 0.59401 0.82872 0.87025 0.0
O30 O 0.57451 0.81485 0.83496 0.0
C31 C 0.55938 0.8602 0.88581 0.0
O32 O 0.52512 0.81895 0.85069 0.0
Co33 Co 0.53149 0.82563 0.90748 0.0
O34 O 0.50509 0.82316 0.88227 0.0
C35 C 0.55365 0.78689 0.89605 0.0
C36 C 0.5945 0.82012 0.84794 0.0
C37 C 0.5059 0.81935 0.85939 0.0
O38 O 0.55705 0.79299 0.87489 0.0
O39 O 0.54624 0.79912 0.91237 0.0
O40 O 0.56329 0.85866 0.86312 0.0
O41 O 0.5575 0.84119 0.8946 0.0
Co42 Co 0.52376 0.2607 0.20079 0.0
O43 O 0.49038 0.25874 0.19383 0.0
O44 O 0.50586 0.25414 0.22909 0.0
C45 C 0.53039 0.29489 0.18499 0.0
O46 O 0.55904 0.26295 0.21432 0.0
Co47 Co 0.55298 0.26546 0.15806 0.0
O48 O 0.57938 0.27202 0.18378 0.0
C49 C 0.52787 0.21925 0.16446 0.0
C50 C 0.48734 0.25636 0.21605 0.0
C51 C 0.57858 0.26789 0.20573 0.0
O52 O 0.5213 0.22682 0.185 0.0
O53 O 0.53812 0.23251 0.15085 0.0
O54 O 0.52757 0.29455 0.20773 0.0
O55 O 0.52899 0.27517 0.17295 0.0
Co56 Co 0.06769 0.80511 0.11749 0.0
O57 O 0.03488 0.8017 0.11104 0.0
O58 O 0.05366 0.79752 0.14597 0.0
C59 C 0.07371 0.84127 0.10206 0.0
O60 O 0.10037 0.8076 0.13489 0.0
Co61 Co 0.09764 0.80457 0.08362 0.0
O62 O 0.12504 0.81021 0.10843 0.0
C63 C 0.07317 0.75905 0.08854 0.0
C64 C 0.03444 0.79793 0.13356 0.0
C65 C 0.12092 0.80943 0.13022 0.0
O66 O 0.06462 0.77011 0.10536 0.0
O67 O 0.08674 0.77023 0.07601 0.0
O68 O 0.07105 0.83869 0.12442 0.0
O69 O 0.07333 0.82192 0.08848 0.0
Co70 Co 0.51505 0.77938 0.44462 0.0
O71 O 0.54809 0.78601 0.45014 0.0
O72 O 0.52727 0.76935 0.41556 0.0
C73 C 0.51203 0.81646 0.46081 0.0
O74 O 0.48143 0.77129 0.42828 0.0
Co75 Co 0.48519 0.77598 0.48009 0.0
O76 O 0.46143 0.78328 0.45607 0.0
C77 C 0.50669 0.73669 0.47358 0.0
C78 C 0.5473 0.77735 0.4275 0.0
C79 C 0.46324 0.77753 0.43385 0.0
O80 O 0.51512 0.74727 0.45644 0.0
O81 O 0.49365 0.74565 0.48648 0.0
O82 O 0.51542 0.81093 0.43856 0.0
O83 O 0.51111 0.79956 0.47403 0.0
Co84 Co 0.56858 0.30566 0.61888 0.0
O85 O 0.53574 0.30228 0.6129 0.0
O86 O 0.55489 0.29843 0.64768 0.0
C87 C 0.57438 0.34174 0.60306 0.0
O88 O 0.60146 0.30855 0.63611 0.0
Co89 Co 0.59707 0.30377 0.58455 0.0
O90 O 0.62392 0.3033 0.60832 0.0
C91 C 0.5726 0.25892 0.58972 0.0
C92 C 0.53554 0.29876 0.63552 0.0
C93 C 0.62094 0.30588 0.63057 0.0
O94 O 0.56523 0.27035 0.60728 0.0
O95 O 0.58537 0.26981 0.5763 0.0
O96 O 0.57203 0.33928 0.6255 0.0
O97 O 0.5737 0.32232 0.58949 0.0
Co98 Co 0.01612 0.27957 0.94602 0.0
O99 O 0.04914 0.28671 0.95185 0.0
O100 O 0.02877 0.26945 0.91726 0.0
C101 C 0.01249 0.31647 0.96175 0.0
O102 O 0.98255 0.27094 0.92949 0.0
Co103 Co 0.98581 0.27612 0.98117 0.0
O104 O 0.96238 0.2834 0.95686 0.0
C105 C 1.00737 0.23686 0.97479 0.0
C106 C 0.04867 0.27782 0.92935 0.0
C107 C 0.96434 0.27733 0.93476 0.0
O108 O 0.01651 0.24776 0.95824 0.0
O109 O 0.99371 0.24551 0.98707 0.0
O110 O 0.0161 0.31089 0.93959 0.0
O111 O 1.01169 0.29973 0.97516 0.0
Co112 Co 0.39261 0.02702 0.3258 0.0
O113 O 0.3969 0.0593 0.33175 0.0
O114 O 0.36712 0.03529 0.30909 0.0
C115 C 0.40267 0.02205 0.36379 0.0
O116 O 0.38243 0.99328 0.31671 0.0
Co117 Co 0.4342 1.0041 0.33497 0.0
O118 O 0.41029 0.97591 0.32988 0.0
C119 C 0.42823 0.02763 0.29173 0.0
C120 C 0.37751 0.056 0.31808 0.0
C121 C 0.39004 0.97542 0.32054 0.0
O122 O 0.40822 0.02927 0.29597 0.0
O123 O 0.44205 0.02009 0.30629 0.0
O124 O 0.38215 0.02459 0.3575 0.0
O125 O 0.41665 0.02503 0.34801 0.0
Co126 Co 0.2764 0.18137 0.51276 0.0
O127 O 0.30921 0.18672 0.51594 0.0
O128 O 0.28651 0.15498 0.52249 0.0
C129 C 0.2727 0.19571 0.47618 0.0
O130 O 0.24288 0.16679 0.51025 0.0
Co131 Co 0.24737 0.21658 0.51072 0.0
O132 O 0.22008 0.19164 0.50733 0.0
C133 C 0.27217 0.21289 0.5584 0.0
C134 C 0.30687 0.16605 0.52168 0.0
C135 C 0.22304 0.17138 0.50834 0.0
O136 O 0.27758 0.19446 0.54873 0.0
O137 O 0.26182 0.22516 0.54559 0.0
O138 O 0.27493 0.17472 0.4771 0.0
O139 O 0.27319 0.20765 0.49713 0.0
Co140 Co 0.14613 0.05279 0.80135 0.0
O141 O 0.14052 0.01965 0.79806 0.0
O142 O 0.17196 0.04238 0.79145 0.0
C143 C 0.13286 0.05634 0.83836 0.0
O144 O 0.16071 0.0865 0.80357 0.0
Co145 Co 0.11204 0.08314 0.80508 0.0
O146 O 0.13744 0.1102 0.81129 0.0
C147 C 0.11488 0.05851 0.75657 0.0
C148 C 0.16114 0.02187 0.7928 0.0
C149 C 0.15691 0.10669 0.80797 0.0
O150 O 0.13271 0.05201 0.76578 0.0
O151 O 0.10343 0.06954 0.76975 0.0
O152 O 0.15341 0.05371 0.83674 0.0
O153 O 0.12067 0.05654 0.81772 0.0
Co154 Co 0.30184 0.93871 0.99066 0.0
O155 O 0.27009 0.935 0.98821 0.0
O156 O 0.29526 0.9674 0.00217 0.0
C157 C 0.30098 0.92088 0.95387 0.0
O158 O 0.33544 0.9487 0.99489 0.0
Co159 Co 0.32478 0.89637 0.98566 0.0
O160 O 0.35282 0.91945 0.98652 0.0
C161 C 0.30932 0.91219 0.03235 0.0
C162 C 0.27427 0.95664 0.99638 0.0
C163 C 0.35309 0.94059 0.9922 0.0
O164 O 0.30319 0.92952 0.02421 0.0
O165 O 0.31689 0.89699 0.01963 0.0
O166 O 0.30054 0.94249 0.95639 0.0
O167 O 0.3009 0.91066 0.97307 0.0
Co168 Co 0.30664 0.39513 0.04018 0.0
O169 O 0.27396 0.38887 0.03676 0.0
O170 O 0.29643 0.42208 0.05219 0.0
C171 C 0.3086 0.37859 0.00169 0.0
O172 O 0.34033 0.40994 0.04549 0.0
Co173 Co 0.33563 0.35925 0.0372 0.0
O174 O 0.36084 0.38453 0.03355 0.0
C175 C 0.31442 0.36728 0.0821 0.0
C176 C 0.27601 0.41014 0.0459 0.0
C177 C 0.359 0.40493 0.04015 0.0
O178 O 0.30768 0.38453 0.07398 0.0
O179 O 0.32472 0.35445 0.06949 0.0
O180 O 0.30579 0.3995 0.00563 0.0
O181 O 0.30917 0.36788 0.02068 0.0
Co182 Co 0.78091 0.13435 0.05852 0.0
O183 O 0.8125 0.1453 0.06646 0.0
O184 O 0.79402 0.11069 0.07134 0.0
C185 C 0.78005 0.14715 0.02251 0.0
O186 O 0.74827 0.11787 0.05158 0.0
Co187 Co 0.74978 0.16907 0.04846 0.0
O188 O 0.72866 0.14076 0.03272 0.0
C189 C 0.77355 0.16746 0.09767 0.0
C190 C 0.81317 0.12528 0.07264 0.0
C191 C 0.73064 0.12136 0.03884 0.0
O192 O 0.77664 0.14728 0.09162 0.0
O193 O 0.76516 0.17943 0.08273 0.0
O194 O 0.78454 0.12706 0.02423 0.0
O195 O 0.77695 0.15869 0.04228 0.0
Co196 Co 0.1911 0.54427 0.25433 0.0
O197 O 0.18155 0.51235 0.24452 0.0
O198 O 0.21682 0.53234 0.24654 0.0
C199 C 0.17266 0.54443 0.28663 0.0
O200 O 0.20676 0.57724 0.26407 0.0
Co201 Co 0.15617 0.57611 0.2577 0.0
O202 O 0.18204 0.59756 0.27759 0.0
C203 C 0.16998 0.56031 0.21017 0.0
C204 C 0.20263 0.5127 0.24218 0.0
C205 C 0.20207 0.59547 0.27465 0.0
O206 O 0.18433 0.5499 0.22008 0.0
O207 O 0.1568 0.57045 0.22172 0.0
O208 O 0.19256 0.53929 0.28846 0.0
O209 O 0.16426 0.54795 0.26538 0.0
Co210 Co 0.80726 0.89561 0.53974 0.0
O211 O 0.77464 0.89084 0.53734 0.0
O212 O 0.79867 0.92338 0.55198 0.0
C213 C 0.80758 0.87865 0.50095 0.0
O214 O 0.84115 0.90933 0.54384 0.0
Co215 Co 0.83465 0.85852 0.53557 0.0
O216 O 0.8612 0.88302 0.53379 0.0
C217 C 0.81338 0.86613 0.58048 0.0
C218 C 0.77788 0.91238 0.54603 0.0
C219 C 0.85986 0.90374 0.53949 0.0
O220 O 0.80857 0.88475 0.57362 0.0
O221 O 0.82227 0.85271 0.56685 0.0
O222 O 0.80576 0.89986 0.50511 0.0
O223 O 0.80827 0.86796 0.51995 0.0
Co224 Co 0.93611 0.02285 0.27417 0.0
O225 O 0.94354 0.05585 0.27675 0.0
O226 O 0.91 0.03407 0.26208 0.0
C227 C 0.9524 0.02075 0.3126 0.0
O228 O 0.92 0.98921 0.27023 0.0
Co229 Co 0.97007 0.99187 0.27656 0.0
O230 O 0.94437 0.96636 0.2778 0.0
C231 C 0.96285 0.01321 0.23176 0.0
C232 C 0.92247 0.05444 0.26794 0.0
C233 C 0.92429 0.96952 0.27338 0.0
O234 O 0.94613 0.02056 0.24008 0.0
O235 O 0.97527 1.0024 0.24419 0.0
O236 O 0.93228 0.02513 0.30878 0.0
O237 O 0.96284 0.0192 0.29354 0.0
Co238 Co 0.2814 0.63472 0.56311 0.0
O239 O 0.31308 0.63959 0.57146 0.0
O240 O 0.28876 0.60635 0.56988 0.0
C241 C 0.28327 0.65313 0.53042 0.0
O242 O 0.24787 0.62369 0.55479 0.0
Co243 Co 0.25811 0.67681 0.56238 0.0
O244 O 0.2305 0.65328 0.55057 0.0
C245 C 0.27476 0.66162 0.60871 0.0
C246 C 0.30954 0.61788 0.5731 0.0
C247 C 0.23027 0.632 0.54993 0.0
O248 O 0.27835 0.6431 0.59785 0.0
O249 O 0.26873 0.6777 0.59794 0.0
O250 O 0.28455 0.63173 0.52846 0.0
O251 O 0.28216 0.66283 0.552 0.0
Co252 Co 0.43671 0.52241 0.77365 0.0
O253 O 0.4442 0.55534 0.77756 0.0
O254 O 0.41076 0.5339 0.76149 0.0
C255 C 0.45248 0.51969 0.81208 0.0
O256 O 0.42068 0.48873 0.76857 0.0
Co257 Co 0.47096 0.49169 0.77576 0.0
O258 O 0.44521 0.46634 0.77722 0.0
C259 C 0.46391 0.5138 0.73153 0.0
C260 C 0.42328 0.55409 0.76844 0.0
C261 C 0.42508 0.46917 0.77218 0.0
O262 O 0.44726 0.5211 0.73997 0.0
O263 O 0.47619 0.50256 0.74351 0.0
O264 O 0.43223 0.52373 0.80792 0.0
O265 O 0.46322 0.51849 0.7932 0.0
Co266 Co 0.69319 0.04659 0.75532 0.0
O267 O 0.68906 0.01462 0.74613 0.0
O268 O 0.72077 0.04019 0.7454 0.0
C269 C 0.67859 0.04396 0.79022 0.0
O270 O 0.70333 0.08076 0.76394 0.0
Co271 Co 0.65069 0.06813 0.76151 0.0
O272 O 0.67362 0.09632 0.77249 0.0
C273 C 0.66504 0.05836 0.71273 0.0
C274 C 0.71011 0.01893 0.74255 0.0
C275 C 0.69453 0.09782 0.77057 0.0
O276 O 0.68187 0.05041 0.72141 0.0
O277 O 0.6506 0.06517 0.72534 0.0
O278 O 0.69966 0.04303 0.78957 0.0
O279 O 0.66664 0.04461 0.76972 0.0
Co280 Co 0.77548 0.6802 0.01299 0.0
O281 O 0.80828 0.68586 0.01676 0.0
O282 O 0.78575 0.65385 0.02262 0.0
C283 C 0.77244 0.69447 0.97622 0.0
O284 O 0.7419 0.66541 0.0101 0.0
Co285 Co 0.746 0.7153 0.00958 0.0
O286 O 0.71903 0.69032 0.00743 0.0
C287 C 0.76869 0.71066 0.05831 0.0
C288 C 0.80611 0.66496 0.02183 0.0
C289 C 0.7221 0.67012 0.00851 0.0
O290 O 0.77594 0.69325 0.04883 0.0
O291 O 0.75793 0.72245 0.04526 0.0
O292 O 0.77487 0.67359 0.97744 0.0
O293 O 0.77217 0.7063 0.99707 0.0
Co294 Co 0.89209 0.52732 0.81899 0.0
O295 O 0.89479 0.55922 0.8255 0.0
O296 O 0.86422 0.53413 0.80613 0.0
C297 C 0.90607 0.52321 0.85594 0.0
O298 O 0.88374 0.49357 0.81016 0.0
Co299 Co 0.93576 0.50688 0.82359 0.0
O300 O 0.91328 0.47804 0.82274 0.0
C301 C 0.92347 0.52937 0.78085 0.0
C302 C 0.87389 0.55504 0.81529 0.0
C303 C 0.8926 0.47653 0.81434 0.0
O304 O 0.90405 0.53037 0.78729 0.0
O305 O 0.93911 0.52264 0.79376 0.0
O306 O 0.88489 0.52418 0.85168 0.0
O307 O 0.91843 0.52692 0.83874 0.0
Co308 Co 0.80118 0.43912 0.49148 0.0
O309 O 0.76941 0.43373 0.48676 0.0
O310 O 0.79245 0.46743 0.50076 0.0
C311 C 0.80319 0.42052 0.45575 0.0
O312 O 0.83476 0.44993 0.49774 0.0
Co313 Co 0.82439 0.39709 0.49165 0.0
O314 O 0.85045 0.42026 0.4859 0.0
C315 C 0.80561 0.41426 0.53529 0.0
C316 C 0.77198 0.4553 0.49439 0.0
C317 C 0.85172 0.44147 0.49258 0.0
O318 O 0.80096 0.43142 0.52553 0.0
O319 O 0.81356 0.39824 0.52445 0.0
O320 O 0.80182 0.44188 0.45719 0.0
O321 O 0.80186 0.41087 0.47531 0.0
Co322 Co 0.64701 0.55347 0.30321 0.0
O323 O 0.64141 0.52045 0.29955 0.0
O324 O 0.67304 0.54343 0.29353 0.0
C325 C 0.63331 0.5568 0.33971 0.0
O326 O 0.66144 0.58722 0.30619 0.0
Co327 Co 0.61215 0.5831 0.30576 0.0
O328 O 0.637 0.61043 0.30956 0.0
C329 C 0.61783 0.56081 0.25745 0.0
C330 C 0.66205 0.52286 0.2943 0.0
C331 C 0.65697 0.60726 0.30843 0.0
O332 O 0.63428 0.55282 0.26755 0.0
O333 O 0.60628 0.57249 0.26967 0.0
O334 O 0.65391 0.55418 0.33842 0.0
O335 O 0.6212 0.55687 0.31897 0.0
Eu336 Eu 0.07361 0.05351 0.05167 0.0
C337 C 0.99665 0.97557 0.98989 0.0
N338 N 1.00902 0.99567 0.98516 0.0
C339 C 1.00926 0.97929 0.94385 0.0
C340 C 0.99034 0.95642 0.97164 0.0
C341 C 0.01495 0.99788 0.96238 0.0
C342 C 0.99699 0.95845 0.94851 0.0
C343 C 0.97607 0.9539 0.01791 0.0
C344 C 0.98949 0.9743 0.0128 0.0
C345 C 0.97008 0.93478 0.99985 0.0
C346 C 0.97715 0.93605 0.97679 0.0
Eu347 Eu 0.01471 0.02652 0.017 0.0
N348 N 0.99524 0.99313 0.02993 0.0
C349 C 0.96858 0.95349 0.04084 0.0
C350 C 0.98683 0.99321 0.05168 0.0
C351 C 0.97384 0.97331 0.05773 0.0
H352 H 0.0232 0.01415 0.95795 0.0
H353 H 0.9674 0.97344 0.07515 0.0
H354 H 0.06254 0.06548 0.11007 0.0
H355 H 0.11457 0.10931 0.99141 0.0
H356 H 0.98925 0.00877 0.06396 0.0
H357 H 0.95819 0.93816 0.04543 0.0
H358 H 0.09321 0.07356 0.00192 0.0
H359 H 0.01394 0.98119 0.92582 0.0
H360 H 0.95968 0.91902 0.00342 0.0
H361 H 0.97209 0.92124 0.96293 0.0
H362 H 0.07206 0.09811 0.14253 0.0
H363 H 0.99234 0.94417 0.93398 0.0
H364 H 0.12594 0.14337 0.02268 0.0
N365 N 0.07705 0.08414 0.08312 0.0
C366 C 0.08955 0.10429 0.07857 0.0
C367 C 0.07678 0.10016 0.12454 0.0
C368 C 0.09608 0.12319 0.0971 0.0
C369 C 0.07088 0.08177 0.10579 0.0
C370 C 0.08943 0.12094 0.1202 0.0
N371 N 0.08995 0.08759 0.03772 0.0
C372 C 0.09669 0.0885 0.01518 0.0
C373 C 0.10956 0.12659 0.05055 0.0
C374 C 0.09636 0.10597 0.05545 0.0
C375 C 0.11586 0.12782 0.02715 0.0
C376 C 0.10935 0.1087 0.00938 0.0
H377 H 0.09428 0.13503 0.13492 0.0
H378 H 0.11471 0.1582 0.10633 0.0
H379 H 0.12634 0.1612 0.06563 0.0
O380 O 0.10761 0.05051 0.04523 0.0
O381 O 0.05201 0.08037 0.04106 0.0
O382 O 0.02734 0.06254 0.00714 0.0
O383 O 0.10023 0.05748 0.08225 0.0
O384 O 0.07297 0.03466 0.01336 0.0
O385 O 0.04037 0.04088 0.99326 0.0
O386 O 0.98417 0.03794 0.02557 0.0
O387 O 0.03354 0.99825 0.02957 0.0
O388 O 0.06453 0.01553 0.05804 0.0
O389 O 0.98693 0.02421 0.98788 0.0
O390 O 0.01706 0.04466 0.05597 0.0
O391 O 0.0491 0.03668 0.07513 0.0
C392 C 0.03778 0.08146 0.02145 0.0
C393 C 0.12905 0.03716 0.07644 0.0
C394 C 0.15705 0.01511 0.06767 0.0
C395 C 0.15752 1.00812 0.09092 0.0
C396 C 0.12953 0.0304 0.09997 0.0
C397 C 0.14377 0.01588 0.10711 0.0
C398 C 0.14299 0.02954 0.06051 0.0
C399 C 0.06087 0.03713 0.99307 0.0
C400 C 0.11522 0.05306 0.0685 0.0
C401 C 0.1094 0.1436 0.09223 0.0
C402 C 0.11608 0.1453 0.06906 0.0
C403 C 0.05045 0.99684 0.04638 0.0
C404 C 0.95223 0.03637 0.99462 0.0
C405 C 0.92035 0.05291 0.00334 0.0
C406 C 0.91116 0.04804 0.97862 0.0
C407 C 0.94293 0.03111 0.96987 0.0
C408 C 0.94064 0.04687 0.01134 0.0
C409 C 0.92236 0.03688 0.96195 0.0
C410 C 0.02844 0.03977 0.07549 0.0
C411 C 0.9748 0.03285 0.0028 0.0
H412 H 0.16873 0.99708 0.09659 0.0
H413 H 0.11914 0.03644 0.11285 0.0
H414 H 0.14427 0.01081 0.12524 0.0
H415 H 0.14314 0.03498 0.04248 0.0
H416 H 0.89543 0.05287 0.9723 0.0
H417 H 0.95173 0.02303 0.9566 0.0
H418 H 0.94779 0.05125 0.03046 0.0
H419 H 0.9153 0.03306 0.94285 0.0
Eu420 Eu 0.27073 0.788 0.31414 0.0
C421 C 0.32343 0.74848 0.222 0.0
N422 N 0.33244 0.76542 0.24058 0.0
C423 C 0.366 0.75017 0.24662 0.0
C424 C 0.3352 0.73118 0.21538 0.0
C425 C 0.35348 0.76668 0.25281 0.0
C426 C 0.35675 0.7322 0.22797 0.0
C427 C 0.29257 0.73124 0.19005 0.0
C428 C 0.30243 0.74859 0.20958 0.0
C429 C 0.30382 0.71348 0.18392 0.0
C430 C 0.32514 0.7135 0.19649 0.0
Eu431 Eu 0.30951 0.79089 0.25258 0.0
N432 N 0.29203 0.76603 0.21606 0.0
C433 C 0.27193 0.73251 0.17694 0.0
C434 C 0.27288 0.76828 0.20185 0.0
C435 C 0.2623 0.75138 0.18255 0.0
H436 H 0.36054 0.78033 0.26752 0.0
H437 H 0.24684 0.75307 0.17183 0.0
H438 H 0.21889 0.79758 0.29792 0.0
H439 H 0.33509 0.83123 0.39128 0.0
H440 H 0.26569 0.78315 0.20472 0.0
H441 H 0.26375 0.71948 0.16191 0.0
H442 H 0.31773 0.80084 0.35817 0.0
H443 H 0.38268 0.75118 0.2564 0.0
H444 H 0.29638 0.6999 0.16917 0.0
H445 H 0.3338 0.6999 0.19132 0.0
H446 H 0.19584 0.82577 0.30895 0.0
H447 H 0.36639 0.7193 0.22335 0.0
H448 H 0.3149 0.86178 0.40341 0.0
N449 N 0.24665 0.81286 0.32516 0.0
C450 C 0.25483 0.82941 0.34452 0.0
C451 C 0.21246 0.82707 0.31901 0.0
C452 C 0.24229 0.84603 0.35128 0.0
C453 C 0.22563 0.81121 0.3127 0.0
C454 C 0.22089 0.84468 0.33823 0.0
N455 N 0.28827 0.8145 0.34941 0.0
C456 C 0.30879 0.81425 0.36223 0.0
C457 C 0.28554 0.84794 0.3764 0.0
C458 C 0.27622 0.8303 0.35699 0.0
C459 C 0.30713 0.84846 0.3885 0.0
C460 C 0.31864 0.83135 0.3816 0.0
H461 H 0.21074 0.85711 0.34287 0.0
H462 H 0.24228 0.87665 0.37578 0.0
H463 H 0.28015 0.87836 0.39771 0.0
O464 O 0.27162 0.76327 0.33945 0.0
O465 O 0.2834 0.82483 0.30993 0.0
O466 O 0.2958 0.80354 0.28392 0.0
O467 O 0.23922 0.76741 0.32209 0.0
O468 O 0.30711 0.78016 0.31963 0.0
O469 O 0.33049 0.7936 0.29051 0.0
O470 O 0.31027 0.82092 0.23418 0.0
O471 O 0.30276 0.7565 0.26481 0.0
O472 O 0.27186 0.76446 0.27965 0.0
O473 O 0.34176 0.81319 0.24942 0.0
O474 O 0.2729 0.79707 0.24568 0.0
O475 O 0.24968 0.78784 0.27636 0.0
C476 C 0.29519 0.82415 0.29241 0.0
C477 C 0.24105 0.75508 0.3613 0.0
C478 C 0.24426 0.74012 0.39992 0.0
C479 C 0.22662 0.75036 0.40691 0.0
C480 C 0.2233 0.76527 0.36818 0.0
C481 C 0.21605 0.76273 0.39094 0.0
C482 C 0.2512 0.74227 0.3771 0.0
C483 C 0.32725 0.78607 0.31185 0.0
C484 C 0.2497 0.75735 0.33801 0.0
C485 C 0.2516 0.86363 0.37051 0.0
C486 C 0.27317 0.86461 0.38299 0.0
C487 C 0.28627 0.75092 0.27753 0.0
C488 C 0.34123 0.83007 0.21285 0.0
C489 C 0.33573 0.84172 0.1726 0.0
C490 C 0.35695 0.83729 0.16827 0.0
C491 C 0.36258 0.82595 0.20858 0.0
C492 C 0.32808 0.8383 0.19489 0.0
C493 C 0.37036 0.82958 0.18631 0.0
C494 C 0.25297 0.79398 0.25433 0.0
C495 C 0.33224 0.82585 0.2357 0.0
H496 H 0.22098 0.74863 0.42458 0.0
H497 H 0.21516 0.77518 0.35614 0.0
H498 H 0.20233 0.77049 0.39628 0.0
H499 H 0.26495 0.73439 0.37186 0.0
H500 H 0.36333 0.84031 0.1512 0.0
H501 H 0.37319 0.81988 0.22234 0.0
H502 H 0.31171 0.84189 0.19808 0.0
H503 H 0.38684 0.82648 0.18306 0.0
Eu504 Eu 0.50887 0.03202 0.54819 0.0
C505 C 0.5897 0.08498 0.49556 0.0
N506 N 0.57583 0.06403 0.48818 0.0
C507 C 0.57193 0.07233 0.44677 0.0
C508 C 0.5945 0.10062 0.47867 0.0
C509 C 0.56803 0.05715 0.46391 0.0
C510 C 0.58493 0.09425 0.45421 0.0
C511 C 0.61601 0.11137 0.52717 0.0
C512 C 0.60043 0.09045 0.51973 0.0
C513 C 0.62008 0.12711 0.5105 0.0
C514 C 0.60934 0.12179 0.48638 0.0
Eu515 Eu 0.57159 0.04057 0.5197 0.0
N516 N 0.59615 0.07513 0.53585 0.0
C517 C 0.62751 0.11562 0.55104 0.0
C518 C 0.60875 0.07829 0.55826 0.0
C519 C 0.62415 0.09881 0.56651 0.0
H520 H 0.55926 0.03982 0.45729 0.0
H521 H 0.6338 0.10141 0.58454 0.0
H522 H 0.52045 0.03369 0.61067 0.0
H523 H 0.44819 0.96981 0.48293 0.0
H524 H 0.6075 0.0647 0.56933 0.0
H525 H 0.63966 0.13144 0.55737 0.0
H526 H 0.47442 1.00667 0.49773 0.0
H527 H 0.56532 0.06691 0.42769 0.0
H528 H 0.63192 0.14329 0.51595 0.0
H529 H 0.61311 0.13396 0.47361 0.0
H530 H 0.51378 1.00719 0.64083 0.0
H531 H 0.58823 0.10581 0.44075 0.0
H532 H 0.44145 0.94057 0.51089 0.0
N533 N 0.50412 0.00907 0.58006 0.0
C534 C 0.49027 0.98809 0.57287 0.0
C535 C 0.50741 1.00149 0.62174 0.0
C536 C 0.48514 0.97279 0.59003 0.0
C537 C 0.51164 0.01632 0.60432 0.0
C538 C 0.49437 0.97954 0.61454 0.0
N539 N 0.48448 0.99725 0.5322 0.0
C540 C 0.47253 0.99353 0.50938 0.0
C541 C 0.46443 0.96124 0.54126 0.0
C542 C 0.4799 0.98224 0.54858 0.0
C543 C 0.45346 0.9565 0.51716 0.0
C544 C 0.45729 0.97288 0.50126 0.0
H545 H 0.49081 0.96825 0.6282 0.0
H546 H 0.46629 0.93967 0.59546 0.0
H547 H 0.44822 0.92961 0.55288 0.0
O548 O 0.48228 0.04825 0.53192 0.0
O549 O 0.51836 0.99861 0.52923 0.0
O550 O 0.55091 1.00342 0.50906 0.0
O551 O 0.48101 0.03739 0.56766 0.0
O552 O 0.5236 0.04685 0.51675 0.0
O553 O 0.54199 0.02937 0.49062 0.0
O554 O 0.59867 0.02481 0.53588 0.0
O555 O 0.56183 0.07383 0.53864 0.0
O556 O 0.52952 0.06918 0.55917 0.0
O557 O 0.5991 0.03516 0.49979 0.0
O558 O 0.55654 0.02551 0.55074 0.0
O559 O 0.53856 0.04292 0.57728 0.0
C560 C 0.53281 0.99033 0.51584 0.0
C561 C 0.46556 0.06928 0.56116 0.0
C562 C 0.43749 0.09314 0.56212 0.0
C563 C 0.44913 0.10527 0.58435 0.0
C564 C 0.4774 0.08205 0.58308 0.0
C565 C 0.46911 0.09989 0.59461 0.0
C566 C 0.4458 0.07519 0.55042 0.0
C567 C 0.52332 0.03515 0.49562 0.0
C568 C 0.47202 0.04813 0.55134 0.0
C569 C 0.47033 0.95157 0.58248 0.0
C570 C 0.45999 0.94585 0.55823 0.0
C571 C 0.54746 0.08223 0.55207 0.0
C572 C 0.61694 1.0048 0.5071 0.0
C573 C 0.64548 0.9815 0.50981 0.0
C574 C 0.63649 0.9699 0.48648 0.0
C575 C 0.60781 0.99268 0.4839 0.0
C576 C 0.63578 0.99905 0.52011 0.0
C577 C 0.6177 0.97546 0.47362 0.0
C578 C 0.55709 0.03703 0.57198 0.0
C579 C 0.60882 0.02519 0.51636 0.0
H580 H 0.44274 0.11899 0.5937 0.0
H581 H 0.49264 0.07774 0.59172 0.0
H582 H 0.478 0.10932 0.61176 0.0
H583 H 0.43644 0.06529 0.53367 0.0
H584 H 0.64411 0.95658 0.4782 0.0
H585 H 0.59342 0.99693 0.47339 0.0
H586 H 0.64308 1.0084 0.5379 0.0
H587 H 0.61093 0.96655 0.45555 0.0
Eu588 Eu 0.32238 0.27577 0.78632 0.0
C589 C 0.24113 0.30907 0.73244 0.0
N590 N 0.25555 0.31951 0.75276 0.0
C591 C 0.25912 0.35554 0.73726 0.0
C592 C 0.23582 0.32153 0.71324 0.0
C593 C 0.26388 0.34254 0.75582 0.0
C594 C 0.24522 0.34496 0.71577 0.0
C595 C 0.2169 0.27455 0.70969 0.0
C596 C 0.23165 0.28577 0.73071 0.0
C597 C 0.21183 0.28692 0.69047 0.0
C598 C 0.22125 0.31031 0.69225 0.0
Eu599 Eu 0.26235 0.29577 0.78265 0.0
N600 N 0.23726 0.274 0.74933 0.0
C601 C 0.20768 0.25119 0.70859 0.0
C602 C 0.22778 0.25146 0.74872 0.0
C603 C 0.21301 0.23965 0.72827 0.0
H604 H 0.27389 0.35112 0.77269 0.0
H605 H 0.20563 0.2217 0.72776 0.0
H606 H 0.31001 0.22118 0.79995 0.0
H607 H 0.38668 0.34776 0.83355 0.0
H608 H 0.23123 0.24265 0.76411 0.0
H609 H 0.19625 0.24198 0.69276 0.0
H610 H 0.35862 0.32599 0.79921 0.0
H611 H 0.266 0.37376 0.73964 0.0
H612 H 0.20057 0.27855 0.67416 0.0
H613 H 0.21706 0.31961 0.6773 0.0
H614 H 0.31703 0.20049 0.83477 0.0
H615 H 0.24155 0.35512 0.70143 0.0
H616 H 0.39392 0.33039 0.87132 0.0
N617 N 0.32812 0.25362 0.81841 0.0
C618 C 0.34279 0.26465 0.83834 0.0
C619 C 0.32404 0.21863 0.8362 0.0
C620 C 0.3479 0.25316 0.85844 0.0
C621 C 0.31965 0.23064 0.81663 0.0
C622 C 0.33794 0.23 0.85735 0.0
N623 N 0.34933 0.29751 0.81811 0.0
C624 C 0.3615 0.31859 0.81583 0.0
C625 C 0.36994 0.29868 0.85794 0.0
C626 C 0.35388 0.28711 0.83809 0.0
C627 C 0.38149 0.32092 0.85642 0.0
C628 C 0.37745 0.33081 0.83513 0.0
H629 H 0.34153 0.22055 0.87236 0.0
H630 H 0.36738 0.25631 0.89423 0.0
H631 H 0.38653 0.2962 0.89386 0.0
O632 O 0.34711 0.28431 0.75993 0.0
O633 O 0.31656 0.30118 0.81778 0.0
O634 O 0.27911 0.28811 0.81853 0.0
O635 O 0.34631 0.2545 0.77929 0.0
O636 O 0.31712 0.30633 0.76751 0.0
O637 O 0.29407 0.32427 0.7895 0.0
O638 O 0.22766 0.28899 0.79241 0.0
O639 O 0.27614 0.28572 0.7467 0.0
O640 O 0.29537 0.25762 0.75536 0.0
O641 O 0.24975 0.32292 0.80282 0.0
O642 O 0.26266 0.26259 0.79843 0.0
O643 O 0.29073 0.24699 0.78188 0.0
C644 C 0.29885 0.29939 0.82955 0.0
C645 C 0.37403 0.25893 0.75142 0.0
C646 C 0.40475 0.26428 0.72615 0.0
C647 C 0.40792 0.24215 0.72897 0.0
C648 C 0.37773 0.2368 0.75381 0.0
C649 C 0.39454 0.22856 0.74273 0.0
C650 C 0.38776 0.27285 0.7375 0.0
C651 C 0.31178 0.32507 0.77755 0.0
C652 C 0.3557 0.26648 0.76365 0.0
C653 C 0.36337 0.26485 0.8786 0.0
C654 C 0.37432 0.28756 0.87837 0.0
C655 C 0.28477 0.26793 0.7395 0.0
C656 C 0.21196 0.31823 0.81499 0.0
C657 C 0.17978 0.31333 0.83836 0.0
C658 C 0.17864 0.33629 0.83711 0.0
C659 C 0.21042 0.34113 0.8142 0.0
C660 C 0.19636 0.30412 0.82695 0.0
C661 C 0.19378 0.35002 0.82504 0.0
C662 C 0.27207 0.2452 0.79236 0.0
C663 C 0.23008 0.30974 0.8034 0.0
H664 H 0.42098 0.23539 0.72057 0.0
H665 H 0.36753 0.22565 0.76427 0.0
H666 H 0.39719 0.21153 0.74481 0.0
H667 H 0.38527 0.28997 0.73548 0.0
H668 H 0.16596 0.34364 0.84559 0.0
H669 H 0.22206 0.35219 0.80501 0.0
H670 H 0.19743 0.28642 0.82787 0.0
H671 H 0.19269 0.36769 0.82419 0.0
Eu672 Eu 0.05139 1.0047 0.52719 0.0
C673 C 0.01913 0.08727 0.58332 0.0
N674 N 1.0093 0.07364 0.56221 0.0
C675 C 0.97355 0.06748 0.57774 0.0
C676 C 1.00665 0.09075 0.60289 0.0
C677 C 0.98656 0.06473 0.55878 0.0
C678 C 0.98371 0.08024 0.60004 0.0
C679 C 0.05213 0.11326 0.60639 0.0
C680 C 0.04161 0.09839 0.58509 0.0
C681 C 0.03996 0.11617 0.62619 0.0
C682 C 0.01728 0.10491 0.62445 0.0
Eu683 Eu 0.03376 0.06758 0.53263 0.0
N684 N 0.05305 0.095 0.56579 0.0
C685 C 0.07446 0.12506 0.60699 0.0
C686 C 0.07432 0.10747 0.56574 0.0
C687 C 0.08547 0.12242 0.5864 0.0
H688 H 0.9782 0.05567 0.54138 0.0
H689 H 0.10247 0.13204 0.58636 0.0
H690 H 0.10727 0.01105 0.51928 0.0
H691 H 0.98005 0.9425 0.47587 0.0
H692 H 0.08259 0.10629 0.5496 0.0
H693 H 0.08312 0.13668 0.62297 0.0
H694 H 1.00072 0.97025 0.51108 0.0
H695 H 0.95564 0.05992 0.57506 0.0
H696 H 0.04782 0.12738 0.64276 0.0
H697 H 1.00799 0.10763 0.63972 0.0
H698 H 0.12948 1.00292 0.48625 0.0
H699 H 0.97355 0.08243 0.61465 0.0
H700 H 0.99898 0.93485 0.43949 0.0
N701 N 0.07528 0.99693 0.49768 0.0
C702 C 0.06453 0.98355 0.47671 0.0
C703 C 0.11121 0.99772 0.48316 0.0
C704 C 0.07684 0.97753 0.45774 0.0
C705 C 0.09843 1.00276 0.50169 0.0
C706 C 0.10034 0.98542 0.46092 0.0
N707 N 0.03013 0.97915 0.49398 0.0
C708 C 1.00878 0.96725 0.49505 0.0
C709 C 0.0305 0.95819 0.45464 0.0
C710 C 0.0415 0.97403 0.47503 0.0
C711 C 1.00797 0.94717 0.45478 0.0
C712 C 0.9972 0.95145 0.47526 0.0
H713 H 0.11036 0.98116 0.44677 0.0
H714 H 0.07476 0.95827 0.42195 0.0
H715 H 0.03425 0.94129 0.4193 0.0
O716 O 0.04121 0.9827 0.55507 0.0
O717 O 0.02695 0.01216 0.49626 0.0
O718 O 0.04207 0.04966 0.49762 0.0
O719 O 0.06519 0.9744 0.53157 0.0
O720 O 0.02255 0.01307 0.54664 0.0
O721 O 1.00479 0.0361 0.52489 0.0
O722 O 0.04254 0.10068 0.5191 0.0
O723 O 0.04541 0.05359 0.56801 0.0
O724 O 0.07078 0.03039 0.55905 0.0
O725 O 1.00827 0.08056 0.51027 0.0
O726 O 0.06965 0.06904 0.52467 0.0
O727 O 0.08165 0.03457 0.52842 0.0
C728 C 0.02937 0.03079 0.48573 0.0
C729 C 0.06605 0.95883 0.56874 0.0
C730 C 0.06661 0.92832 0.59433 0.0
C731 C 0.0902 0.93549 0.59986 0.0
C732 C 0.0896 0.96605 0.57497 0.0
C733 C 0.10157 0.95435 0.59041 0.0
C734 C 0.05449 0.94011 0.5788 0.0
C735 C 1.00393 0.01776 0.53607 0.0
C736 C 0.05399 0.96844 0.54924 0.0
C737 C 0.06557 0.96291 0.43674 0.0
C738 C 0.04249 0.9532 0.43523 0.0
C739 C 0.06216 0.04329 0.57472 0.0
C740 C 0.01457 0.11949 0.50134 0.0
C741 C 0.01677 0.15158 0.47743 0.0
C742 C 0.9968 0.15604 0.48568 0.0
C743 C 0.9948 0.12444 0.50955 0.0
C744 C 0.0258 0.13339 0.48558 0.0
C745 C 0.98605 0.14271 0.50179 0.0
C746 C 0.08512 0.05641 0.52504 0.0
C747 C 0.02262 0.09876 0.50689 0.0
H748 H 0.09984 0.92639 0.61149 0.0
H749 H 0.09883 0.98025 0.56727 0.0
H750 H 0.11978 0.95968 0.59473 0.0
H751 H 0.03636 0.93418 0.57377 0.0
H752 H 0.9895 0.16992 0.47963 0.0
H753 H 0.98593 0.11395 0.52157 0.0
H754 H 0.04095 0.12949 0.47891 0.0
H755 H 0.97066 0.14636 0.50797 0.0
Eu756 Eu 0.29478 0.8193 0.76225 0.0
C757 C 0.24497 0.73827 0.8216 0.0
N758 N 0.26599 0.75211 0.82743 0.0
C759 C 0.2597 0.75857 0.86933 0.0
C760 C 0.23028 0.73488 0.83949 0.0
C761 C 0.27394 0.76101 0.85125 0.0
C762 C 0.23766 0.74581 0.86335 0.0
C763 C 0.21801 0.7097 0.79264 0.0
C764 C 0.23865 0.72582 0.79822 0.0
C765 C 0.20303 0.70728 0.81013 0.0
C766 C 0.2091 0.71988 0.83342 0.0
Eu767 Eu 0.28712 0.7547 0.79401 0.0
N768 N 0.25323 0.7284 0.78135 0.0
C769 C 0.21343 0.6958 0.76997 0.0
C770 C 0.24987 0.71362 0.76026 0.0
C771 C 0.22967 0.69745 0.75391 0.0
H772 H 0.29134 0.7697 0.85677 0.0
H773 H 0.22679 0.68607 0.73687 0.0
H774 H 0.29693 0.81162 0.70009 0.0
H775 H 0.3485 0.88481 0.83068 0.0
H776 H 0.26303 0.71409 0.74872 0.0
H777 H 0.19781 0.68314 0.76509 0.0
H778 H 0.31356 0.85704 0.81276 0.0
H779 H 0.26592 0.76614 0.88801 0.0
H780 H 0.18699 0.69516 0.80606 0.0
H781 H 0.1976 0.71725 0.84693 0.0
H782 H 0.3251 0.82075 0.67243 0.0
H783 H 0.22684 0.74363 0.87755 0.0
H784 H 0.38004 0.893 0.80616 0.0
N785 N 0.31927 0.82768 0.73247 0.0
C786 C 0.33915 0.84257 0.74128 0.0
C787 C 0.32946 0.82659 0.69182 0.0
C788 C 0.35552 0.84887 0.72569 0.0
C789 C 0.31368 0.82099 0.70781 0.0
C790 C 0.35067 0.84015 0.70087 0.0
N791 N 0.32631 0.84756 0.78011 0.0
C792 C 0.32775 0.85946 0.80271 0.0
C793 C 0.3626 0.86931 0.7746 0.0
C794 C 0.34265 0.85292 0.76555 0.0
C795 C 0.36497 0.88032 0.79858 0.0
C796 C 0.34728 0.87566 0.81254 0.0
H797 H 0.36278 0.84465 0.68835 0.0
H798 H 0.3886 0.86918 0.72335 0.0
H799 H 0.39486 0.88693 0.76614 0.0
O800 O 0.28175 0.85019 0.77457 0.0
O801 O 0.32838 0.81022 0.78091 0.0
O802 O 0.32413 0.77587 0.79939 0.0
O803 O 0.27754 0.83573 0.73581 0.0
O804 O 0.28194 0.80448 0.79505 0.0
O805 O 0.29893 0.78554 0.82166 0.0
O806 O 0.30526 0.73063 0.77617 0.0
O807 O 0.25392 0.761 0.77205 0.0
O808 O 0.25821 0.79864 0.76185 0.0
O809 O 0.29421 0.72592 0.81132 0.0
O810 O 0.29364 0.77595 0.76536 0.0
O811 O 0.28993 0.79019 0.73194 0.0
C812 C 0.33674 0.7948 0.79315 0.0
C813 C 0.26201 0.86914 0.74402 0.0
C814 C 0.24138 0.89942 0.75202 0.0
C815 C 0.23733 0.90045 0.72685 0.0
C816 C 0.25783 0.87052 0.71883 0.0
C817 C 0.24556 0.88608 0.71036 0.0
C818 C 0.2538 0.8838 0.76074 0.0
C819 C 0.29467 0.8048 0.81565 0.0
C820 C 0.27385 0.85148 0.75199 0.0
C821 C 0.3758 0.86439 0.73504 0.0
C822 C 0.37934 0.87457 0.7594 0.0
C823 C 0.24552 0.77844 0.76428 0.0
C824 C 0.32702 0.71327 0.80404 0.0
C825 C 0.35112 0.68545 0.80564 0.0
C826 C 0.36345 0.69797 0.82738 0.0
C827 C 0.33969 0.72579 0.82564 0.0
C828 C 0.33305 0.69331 0.79376 0.0
C829 C 0.35789 0.71818 0.83716 0.0
C830 C 0.29129 0.7722 0.74191 0.0
C831 C 0.30557 0.71886 0.79455 0.0
H832 H 0.22779 0.91249 0.71999 0.0
H833 H 0.2639 0.85943 0.70553 0.0
H834 H 0.24237 0.88693 0.69096 0.0
H835 H 0.25677 0.88292 0.78019 0.0
H836 H 0.37733 0.692 0.83685 0.0
H837 H 0.33491 0.74092 0.83414 0.0
H838 H 0.32301 0.68328 0.77743 0.0
H839 H 0.36733 0.72764 0.85404 0.0
Eu840 Eu 0.54052 0.05621 0.99984 0.0
C841 C 0.5844 1.00276 0.09184 0.0
N842 N 0.56784 0.9944 0.07264 0.0
C843 C 0.58153 0.95961 0.06696 0.0
C844 C 0.60066 0.98995 0.09884 0.0
C845 C 0.56585 0.97293 0.06059 0.0
C846 C 0.59912 0.96821 0.08602 0.0
C847 C 0.60265 0.03365 0.12394 0.0
C848 C 0.58531 0.02434 0.10439 0.0
C849 C 0.61894 0.02098 0.13078 0.0
C850 C 0.61793 0.9992 0.11829 0.0
Eu851 Eu 0.54252 0.01838 0.06291 0.0
N852 N 0.56984 0.03664 0.0967 0.0
C853 C 0.60325 0.05553 0.1359 0.0
C854 C 0.56985 0.05762 0.10901 0.0
C855 C 0.58666 0.06745 0.12853 0.0
H856 H 0.55195 0.96582 0.0463 0.0
H857 H 0.58674 0.08422 0.13794 0.0
H858 H 0.53014 0.10718 0.01933 0.0
H859 H 0.50414 1.00026 0.9144 0.0
H860 H 0.55695 0.06692 0.10414 0.0
H861 H 0.61633 0.06327 0.15096 0.0
H862 H 0.53408 0.01771 0.94851 0.0
H863 H 0.57998 0.94266 0.05723 0.0
H864 H 0.63243 0.0279 0.14569 0.0
H865 H 0.63063 0.98963 0.12382 0.0
H866 H 0.50063 0.12964 0.01161 0.0
H867 H 0.61129 0.95785 0.09086 0.0
H868 H 0.46953 0.01613 0.90802 0.0
N869 N 0.51443 0.07972 0.9917 0.0
C870 C 0.49721 0.07152 0.97331 0.0
C871 C 0.49936 0.11322 1.00083 0.0
C872 C 0.47984 0.08358 0.96839 0.0
C873 C 0.51602 0.10044 0.00519 0.0
C874 C 0.48102 0.10463 0.98254 0.0
N875 N 0.51534 0.04115 0.96338 0.0
C876 C 0.51856 0.02399 0.94678 0.0
C877 C 0.48037 0.04268 0.93898 0.0
C878 C 0.49749 0.05137 0.95889 0.0
C879 C 0.48237 0.02344 0.92344 0.0
C880 C 0.50185 0.0144 0.92702 0.0
H881 H 0.4681 0.11453 0.97924 0.0
H882 H 0.44849 0.08333 0.94542 0.0
H883 H 0.44891 0.04742 0.91967 0.0
O884 O 0.56749 0.05621 0.97735 0.0
O885 O 0.50722 0.04785 0.01374 0.0
O886 O 0.5181 0.01798 0.02892 0.0
O887 O 0.56299 0.08827 0.99593 0.0
O888 O 0.54316 0.0181 0.99132 0.0
O889 O 0.54332 0.99693 0.02519 0.0
O890 O 0.51929 0.02064 0.08961 0.0
O891 O 0.57769 0.03636 0.05998 0.0
O892 O 0.55586 0.04201 0.0296 0.0
O893 O 0.5248 0.987 0.075 0.0
O894 O 0.5323 0.05383 0.06702 0.0
O895 O 0.54654 0.0774 0.03838 0.0
C896 C 0.50342 0.03124 0.02703 0.0
C897 C 0.57491 0.08792 0.95672 0.0
C898 C 0.59047 0.08767 0.91849 0.0
C899 C 0.57804 0.10382 0.91142 0.0
C900 C 0.56209 0.10382 0.9495 0.0
C901 C 0.56378 0.11179 0.9269 0.0
C902 C 0.58894 0.07981 0.94105 0.0
C903 C 0.54412 0.99898 0.00141 0.0
C904 C 0.57319 0.0784 0.97971 0.0
C905 C 0.46215 0.07445 0.94932 0.0
C906 C 0.46236 0.05398 0.9347 0.0
C907 C 0.57628 0.04555 0.04041 0.0
C908 C 0.49916 0.98805 0.10562 0.0
C909 C 0.47565 0.99236 0.13765 0.0
C910 C 0.46874 0.96847 0.13552 0.0
C911 C 0.49241 0.96419 0.10373 0.0
C912 C 0.49081 1.00204 0.12267 0.0
C913 C 0.4772 0.95447 0.11866 0.0
C914 C 0.53769 0.07412 0.05906 0.0
C915 C 0.51484 0.99861 0.08999 0.0
H916 H 0.57927 0.11009 0.89395 0.0
H917 H 0.55075 0.10997 0.96115 0.0
H918 H 0.554 0.12409 0.92135 0.0
H919 H 0.59869 0.06735 0.9464 0.0
H920 H 0.45729 0.96067 0.14732 0.0
H921 H 0.49882 0.9531 0.09075 0.0
H922 H 0.49611 0.02051 0.12445 0.0
H923 H 0.47207 0.93606 0.11729 0.0
Eu924 Eu 0.27823 0.2587 0.26409 0.0
C925 C 0.35629 0.33211 0.32599 0.0
N926 N 0.33608 0.32044 0.33098 0.0
C927 C 0.35183 0.32111 0.37265 0.0
C928 C 0.37503 0.33891 0.34449 0.0
C929 C 0.33358 0.31505 0.35394 0.0
C930 C 0.3726 0.33317 0.36796 0.0
C931 C 0.37878 0.35055 0.29721 0.0
C932 C 0.35815 0.33797 0.30248 0.0
C933 C 0.39731 0.35741 0.31571 0.0
C934 C 0.39544 0.35165 0.33925 0.0
Eu935 Eu 0.30571 0.31721 0.29967 0.0
N936 N 0.33974 0.33182 0.28494 0.0
C937 C 0.38007 0.35642 0.27361 0.0
C938 C 0.34073 0.33833 0.26226 0.0
C939 C 0.36094 0.35025 0.25607 0.0
H940 H 0.31729 0.30726 0.35839 0.0
H941 H 0.36154 0.35533 0.238 0.0
H942 H 0.26566 0.27012 0.20608 0.0
H943 H 0.22706 0.20472 0.31822 0.0
H944 H 0.32587 0.3355 0.24925 0.0
H945 H 0.39559 0.36614 0.26891 0.0
H946 H 0.26171 0.2286 0.30823 0.0
H947 H 0.34969 0.31705 0.39088 0.0
H948 H 0.41316 0.36737 0.31204 0.0
H949 H 0.40988 0.35728 0.35335 0.0
H950 H 0.23295 0.26218 0.1741 0.0
H951 H 0.38657 0.33826 0.38267 0.0
H952 H 0.19174 0.19727 0.28914 0.0
N953 N 0.24745 0.25456 0.23267 0.0
C954 C 0.22764 0.24147 0.23685 0.0
C955 C 0.23111 0.25661 0.1918 0.0
C956 C 0.20865 0.23577 0.21857 0.0
C957 C 0.24956 0.26163 0.21031 0.0
C958 C 0.21053 0.24376 0.19598 0.0
N959 N 0.24548 0.23743 0.27591 0.0
C960 C 0.24605 0.22692 0.29643 0.0
C961 C 0.20669 0.21812 0.2633 0.0
C962 C 0.22665 0.23264 0.259 0.0
C963 C 0.20671 0.20857 0.28521 0.0
C964 C 0.22657 0.21281 0.30173 0.0
H965 H 0.19638 0.23957 0.18143 0.0
H966 H 0.17395 0.21707 0.20914 0.0
H967 H 0.17222 0.20171 0.24829 0.0
O968 O 0.29023 0.2276 0.2703 0.0
O969 O 0.25046 0.27758 0.27698 0.0
O970 O 0.26802 0.30854 0.3057 0.0
O971 O 0.27489 0.23185 0.23367 0.0
O972 O 0.29442 0.25967 0.30364 0.0
O973 O 0.28871 0.29285 0.3237 0.0
O974 O 0.30546 0.35212 0.29316 0.0
O975 O 0.33124 0.29347 0.29063 0.0
O976 O 0.31407 0.27236 0.25453 0.0
O977 O 0.30928 0.34416 0.33024 0.0
O978 O 0.2869 0.31792 0.26151 0.0
O979 O 0.29318 0.28514 0.24172 0.0
C980 C 0.24939 0.29451 0.29402 0.0
C981 C 0.28698 0.19651 0.23757 0.0
C982 C 0.30536 0.16488 0.24218 0.0
C983 C 0.29668 0.15527 0.21804 0.0
C984 C 0.27807 0.18692 0.21344 0.0
C985 C 0.28287 0.16624 0.20377 0.0
C986 C 0.30027 0.18525 0.25196 0.0
C987 C 0.28992 0.27131 0.32329 0.0
C988 C 0.28396 0.21894 0.24738 0.0
C989 C 0.18864 0.22167 0.22303 0.0
C990 C 0.18765 0.21291 0.24533 0.0
C991 C 0.33278 0.28114 0.26977 0.0
C992 C 0.29314 0.37592 0.32342 0.0
C993 C 0.26987 0.40259 0.31227 0.0
C994 C 0.26788 0.40851 0.33694 0.0
C995 C 0.29141 0.38208 0.34819 0.0
C996 C 0.28247 0.38643 0.30557 0.0
C997 C 0.27876 0.3983 0.35487 0.0
C998 C 0.28873 0.30547 0.24115 0.0
C999 C 0.30735 0.35988 0.31632 0.0
H1000 H 0.30057 0.13936 0.21033 0.0
H1001 H 0.26772 0.19552 0.20199 0.0
H1002 H 0.27615 0.15888 0.18514 0.0
H1003 H 0.30752 0.19277 0.27048 0.0
H1004 H 0.2583 0.42126 0.34229 0.0
H1005 H 0.3 0.37455 0.36236 0.0
H1006 H 0.28394 0.3822 0.2864 0.0
H1007 H 0.27754 0.4031 0.37395 0.0
Eu1008 Eu 0.55354 0.50651 0.0291 0.0
C1009 C 0.51986 0.5901 0.08299 0.0
N1010 N 0.50971 0.5741 0.06376 0.0
C1011 C 0.47457 0.56979 0.08041 0.0
C1012 C 0.5077 0.59624 0.10201 0.0
C1013 C 0.48722 0.56441 0.06187 0.0
C1014 C 0.48488 0.58564 0.10067 0.0
C1015 C 0.55329 0.61767 0.10293 0.0
C1016 C 0.54249 0.60054 0.08359 0.0
C1017 C 0.54128 0.62362 0.12201 0.0
C1018 C 0.51859 0.61287 0.12161 0.0
Eu1019 Eu 0.53288 0.5664 0.03372 0.0
N1020 N 0.55405 0.59371 0.06546 0.0
C1021 C 0.57597 0.62806 0.10263 0.0
C1022 C 0.57575 0.60442 0.06447 0.0
C1023 C 0.58718 0.62152 0.0832 0.0
H1024 H 0.47876 0.5529 0.04586 0.0
H1025 H 0.60453 0.62983 0.0825 0.0
H1026 H 0.60725 0.51828 0.01629 0.0
H1027 H 0.47833 0.4492 0.9777 0.0
H1028 H 0.58399 0.60024 0.04892 0.0
H1029 H 0.58489 0.64125 0.11716 0.0
H1030 H 0.5003 0.4762 0.01246 0.0
H1031 H 0.45679 0.56192 0.07891 0.0
H1032 H 0.54938 0.63654 0.13717 0.0
H1033 H 0.50953 0.61771 0.13644 0.0
H1034 H 0.62872 0.50778 0.9832 0.0
H1035 H 0.47497 0.58986 0.11494 0.0
H1036 H 0.49732 0.43706 0.94283 0.0
N1037 N 0.57583 0.49793 0.99863 0.0
C1038 C 0.56493 0.48254 0.9792 0.0
C1039 C 0.61077 0.50068 0.98178 0.0
C1040 C 0.57667 0.4758 0.96005 0.0
C1041 C 0.59847 0.50682 1.00037 0.0
C1042 C 0.59983 0.48514 0.96151 0.0
N1043 N 0.53072 0.48104 0.9966 0.0
C1044 C 0.50844 0.47193 0.99694 0.0
C1045 C 0.5301 0.45785 0.95821 0.0
C1046 C 0.54182 0.47372 0.97824 0.0
C1047 C 0.50692 0.44928 0.95789 0.0
C1048 C 0.4961 0.45621 0.97745 0.0
H1049 H 0.60945 0.48039 0.94716 0.0
H1050 H 0.57377 0.45466 0.92521 0.0
H1051 H 0.53306 0.43893 0.92363 0.0
O1052 O 0.5431 0.47725 0.04966 0.0
O1053 O 0.54377 0.51991 0.99274 0.0
O1054 O 0.5164 0.5395 0.00213 0.0
O1055 O 0.57715 0.48531 0.03921 0.0
O1056 O 0.52215 0.50936 0.04749 0.0
O1057 O 0.50539 0.53418 0.02679 0.0
O1058 O 0.54256 0.59396 0.01071 0.0
O1059 O 0.54556 0.55531 0.07041 0.0
O1060 O 0.5701 0.53118 0.06246 0.0
O1061 O 0.50935 0.58758 0.02337 0.0
O1062 O 0.56494 0.56392 0.01662 0.0
O1063 O 0.58162 0.53841 0.03663 0.0
C1064 C 0.52698 0.52989 0.98592 0.0
C1065 C 0.56986 0.45253 0.06103 0.0
C1066 C 0.56502 0.42229 0.08742 0.0
C1067 C 0.58547 0.41684 0.08176 0.0
C1068 C 0.59026 0.44651 0.05572 0.0
C1069 C 0.59793 0.42882 0.06599 0.0
C1070 C 0.55703 0.44016 0.07691 0.0
C1071 C 0.50406 0.51667 0.03925 0.0
C1072 C 0.56301 0.47199 0.05001 0.0
C1073 C 0.565 0.46004 0.94007 0.0
C1074 C 0.54181 0.45108 0.93917 0.0
C1075 C 0.56072 0.54347 0.07772 0.0
C1076 C 0.51579 0.61862 0.99896 0.0
C1077 C 0.52157 0.64962 0.97357 0.0
C1078 C 0.49976 0.65317 0.97637 0.0
C1079 C 0.49404 0.62276 0.00139 0.0
C1080 C 0.52977 0.63236 0.98508 0.0
C1081 C 0.48617 0.63989 0.99024 0.0
C1082 C 0.58291 0.55664 0.02529 0.0
C1083 C 0.52299 0.59988 0.01115 0.0
H1084 H 0.59177 0.4031 0.08953 0.0
H1085 H 0.60042 0.45551 0.04355 0.0
H1086 H 0.61365 0.4244 0.06171 0.0
H1087 H 0.54125 0.44448 0.08122 0.0
H1088 H 0.49327 0.66645 0.96789 0.0
H1089 H 0.48293 0.61271 0.01198 0.0
H1090 H 0.54662 0.62956 0.98305 0.0
H1091 H 0.46942 0.64287 0.99233 0.0
Eu1092 Eu 0.79757 0.32167 0.26763 0.0
C1093 C 0.74616 0.235 0.32177 0.0
N1094 N 0.76662 0.2491 0.3301 0.0
C1095 C 0.75846 0.24896 0.37145 0.0
C1096 C 0.73065 0.22832 0.33814 0.0
C1097 C 0.77339 0.25492 0.35471 0.0
C1098 C 0.73685 0.23596 0.36311 0.0
C1099 C 0.72042 0.21047 0.2884 0.0
C1100 C 0.74111 0.22591 0.29706 0.0
C1101 C 0.70469 0.20468 0.30455 0.0
C1102 C 0.70979 0.21355 0.32932 0.0
Eu1103 Eu 0.78997 0.25756 0.29938 0.0
N1104 N 0.7566 0.23158 0.28161 0.0
C1105 C 0.71636 0.20079 0.26383 0.0
C1106 C 0.75327 0.22116 0.25809 0.0
C1107 C 0.73299 0.20594 0.24869 0.0
H1108 H 0.79047 0.2639 0.36172 0.0
H1109 H 0.73035 0.19796 0.22989 0.0
H1110 H 0.79457 0.30628 0.20513 0.0
H1111 H 0.85535 0.39227 0.32474 0.0
H1112 H 0.76636 0.22417 0.24675 0.0
H1113 H 0.70071 0.18882 0.25654 0.0
H1114 H 0.82008 0.36286 0.31291 0.0
H1115 H 0.76378 0.25407 0.39084 0.0
H1116 H 0.68871 0.19291 0.29817 0.0
H1117 H 0.69769 0.2084 0.34165 0.0
H1118 H 0.82053 0.31025 0.17442 0.0
H1119 H 0.72541 0.23114 0.3762 0.0
H1120 H 0.88479 0.39599 0.29708 0.0
N1121 N 0.81925 0.32461 0.23471 0.0
C1122 C 0.83997 0.33898 0.24079 0.0
C1123 C 0.82634 0.31807 0.1931 0.0
C1124 C 0.85491 0.34267 0.22317 0.0
C1125 C 0.81181 0.31541 0.21088 0.0
C1126 C 0.84811 0.33141 0.19936 0.0
N1127 N 0.83082 0.34879 0.28068 0.0
C1128 C 0.83342 0.36376 0.30154 0.0
C1129 C 0.8658 0.36851 0.26975 0.0
C1130 C 0.84565 0.3517 0.26408 0.0
C1131 C 0.86959 0.38277 0.29217 0.0
C1132 C 0.85308 0.38069 0.30791 0.0
H1133 H 0.85915 0.33378 0.18537 0.0
H1134 H 0.88737 0.36117 0.21613 0.0
H1135 H 0.89675 0.3839 0.25673 0.0
O1136 O 0.77803 0.34499 0.28461 0.0
O1137 O 0.83036 0.31615 0.29061 0.0
O1138 O 0.82679 0.27884 0.30184 0.0
O1139 O 0.79107 0.35054 0.25041 0.0
O1140 O 0.79097 0.30066 0.2964 0.0
O1141 O 0.79518 0.28645 0.32984 0.0
O1142 O 0.80083 0.22565 0.28553 0.0
O1143 O 0.7565 0.26774 0.28159 0.0
O1144 O 0.76073 0.30019 0.26001 0.0
O1145 O 0.80681 0.23963 0.32449 0.0
O1146 O 0.80461 0.27177 0.26724 0.0
O1147 O 0.78738 0.29047 0.24045 0.0
C1148 C 0.83906 0.29931 0.29942 0.0
C1149 C 0.75841 0.36406 0.25625 0.0
C1150 C 0.73521 0.3926 0.25632 0.0
C1151 C 0.72483 0.3832 0.23265 0.0
C1152 C 0.74752 0.35433 0.23272 0.0
C1153 C 0.73089 0.36401 0.22096 0.0
C1154 C 0.75198 0.38306 0.26815 0.0
C1155 C 0.79396 0.30448 0.31987 0.0
C1156 C 0.77894 0.35725 0.26656 0.0
C1157 C 0.87569 0.3583 0.22943 0.0
C1158 C 0.88106 0.37126 0.25257 0.0
C1159 C 0.74815 0.28229 0.26803 0.0
C1160 C 0.81923 0.20466 0.3152 0.0
C1161 C 0.84187 0.17591 0.3081 0.0
C1162 C 0.84196 0.17197 0.33255 0.0
C1163 C 0.81936 0.20026 0.33959 0.0
C1164 C 0.83029 0.19215 0.29924 0.0
C1165 C 0.83063 0.184 0.34814 0.0
C1166 C 0.79268 0.27148 0.24619 0.0
C1167 C 0.80908 0.22363 0.30778 0.0
H1168 H 0.71213 0.39081 0.22324 0.0
H1169 H 0.7525 0.33983 0.22305 0.0
H1170 H 0.72299 0.35688 0.20261 0.0
H1171 H 0.76057 0.39092 0.2861 0.0
H1172 H 0.85082 0.15948 0.33956 0.0
H1173 H 0.81096 0.20964 0.35224 0.0
H1174 H 0.83055 0.19552 0.28047 0.0
H1175 H 0.83078 0.18088 0.36699 0.0
Eu1176 Eu 0.03469 0.55642 0.49873 0.0
C1177 C 0.08517 0.50592 0.58795 0.0
N1178 N 0.06763 0.49593 0.57058 0.0
C1179 C 0.08472 0.46357 0.56273 0.0
C1180 C 0.10371 0.4954 0.593 0.0
C1181 C 0.06683 0.47482 0.55832 0.0
C1182 C 0.10343 0.47406 0.5799 0.0
C1183 C 0.10067 0.53593 0.62144 0.0
C1184 C 0.08367 0.52587 0.60181 0.0
C1185 C 0.12 0.52647 0.62557 0.0
C1186 C 0.12147 0.50616 0.6114 0.0
Eu1187 Eu 0.04009 0.51742 0.5607 0.0
N1188 N 0.06446 0.53405 0.59761 0.0
C1189 C 0.09712 0.55437 0.63711 0.0
C1190 C 0.05977 0.55007 0.61462 0.0
C1191 C 0.07627 0.561 0.63412 0.0
H1192 H 0.05244 0.46667 0.54499 0.0
H1193 H 0.0728 0.57436 0.64696 0.0
H1194 H 0.02531 0.60863 0.51831 0.0
H1195 H 0.996 0.49963 0.4148 0.0
H1196 H 0.04337 0.55467 0.61325 0.0
H1197 H 0.10979 0.56267 0.65235 0.0
H1198 H 0.02631 0.51666 0.44861 0.0
H1199 H 0.08411 0.44689 0.55282 0.0
H1200 H 0.13341 0.53415 0.64032 0.0
H1201 H 0.13604 0.49853 0.61535 0.0
H1202 H 0.99624 0.63139 0.51062 0.0
H1203 H 0.11728 0.46532 0.58331 0.0
H1204 H 0.96251 0.51715 0.40787 0.0
N1205 N 1.0088 0.58059 0.49155 0.0
C1206 C 0.99168 0.57274 0.47286 0.0
C1207 C 0.99457 0.61478 0.50008 0.0
C1208 C 0.97471 0.58527 0.46775 0.0
C1209 C 1.01088 0.60166 0.50461 0.0
C1210 C 0.97622 0.60641 0.48182 0.0
N1211 N 1.00872 0.54134 0.463 0.0
C1212 C 1.01116 0.52351 0.44682 0.0
C1213 C 0.97429 0.54404 0.43839 0.0
C1214 C 0.99155 0.55246 0.45823 0.0
C1215 C 0.97549 0.52425 0.42322 0.0
C1216 C 0.99429 0.51424 0.42714 0.0
H1217 H 0.9636 0.61664 0.47837 0.0
H1218 H 0.94375 0.58583 0.44451 0.0
H1219 H 0.94328 0.54961 0.41894 0.0
O1220 O 0.05944 0.55656 0.47333 0.0
O1221 O 0.99999 0.5395 0.50408 0.0
O1222 O 0.02404 0.53123 0.53102 0.0
O1223 O 0.05135 0.58892 0.48855 0.0
O1224 O 0.03978 0.51881 0.49054 0.0
O1225 O 0.0376 0.49605 0.52299 0.0
O1226 O 1.00951 0.51555 0.57779 0.0
O1227 O 0.07073 0.52435 0.54177 0.0
O1228 O 0.0613 0.55647 0.53062 0.0
O1229 O 0.02005 0.48436 0.56593 0.0
O1230 O 0.03792 0.55545 0.57052 0.0
O1231 O 0.03412 0.57635 0.5369 0.0
C1232 C 1.00302 0.52912 0.52264 0.0
C1233 C 0.07859 0.5911 0.45986 0.0
C1234 C 0.09927 0.59044 0.42532 0.0
C1235 C 0.10488 0.6144 0.42865 0.0
C1236 C 0.08434 0.6151 0.46348 0.0
C1237 C 0.09761 0.6267 0.44793 0.0
C1238 C 0.08643 0.57883 0.44101 0.0
C1239 C 0.03932 0.49904 0.49972 0.0
C1240 C 0.06274 0.57872 0.47398 0.0
C1241 C 0.95706 0.57655 0.44853 0.0
C1242 C 0.95679 0.55592 0.43396 0.0
C1243 C 0.07531 0.54243 0.5307 0.0
C1244 C 1.00288 0.48643 0.60219 0.0
C1245 C 0.98808 0.4933 0.64038 0.0
C1246 C 0.99893 0.47697 0.64996 0.0
C1247 C 0.01365 0.46993 0.61174 0.0
C1248 C 0.98971 0.4977 0.61649 0.0
C1249 C 1.01149 0.46513 0.63553 0.0
C1250 C 0.03516 0.57426 0.56071 0.0
C1251 C 1.00638 0.49361 0.57829 0.0
H1252 H 0.11478 0.62348 0.41632 0.0
H1253 H 0.07827 0.62487 0.47796 0.0
H1254 H 0.10192 0.6452 0.45055 0.0
H1255 H 0.08172 0.56029 0.43775 0.0
H1256 H 0.99772 0.47348 0.66856 0.0
H1257 H 0.024 0.46104 0.60108 0.0
H1258 H 0.98142 0.51059 0.60939 0.0
H1259 H 0.01987 0.45252 0.64293 0.0
Eu1260 Eu 0.82321 0.77623 0.28657 0.0
C1261 C 0.74185 0.81169 0.23269 0.0
N1262 N 0.75691 0.82096 0.25294 0.0
C1263 C 0.76338 0.85721 0.23773 0.0
C1264 C 0.73775 0.82474 0.21365 0.0
C1265 C 0.76676 0.8437 0.2562 0.0
C1266 C 0.74907 0.84763 0.2162 0.0
C1267 C 0.71407 0.77929 0.2106 0.0
C1268 C 0.73012 0.78917 0.23116 0.0
C1269 C 0.71039 0.7921 0.19139 0.0
C1270 C 0.72222 0.81474 0.1929 0.0
Eu1271 Eu 0.76203 0.79604 0.28237 0.0
N1272 N 0.73437 0.77693 0.24973 0.0
C1273 C 0.7021 0.75684 0.21002 0.0
C1274 C 0.7219 0.75553 0.24986 0.0
C1275 C 0.70582 0.74503 0.22989 0.0
H1276 H 0.77694 0.85174 0.27316 0.0
H1277 H 0.69613 0.72793 0.22998 0.0
H1278 H 0.81347 0.72143 0.30032 0.0
H1279 H 0.88568 0.84996 0.33341 0.0
H1280 H 0.72383 0.74678 0.26563 0.0
H1281 H 0.68962 0.74867 0.19457 0.0
H1282 H 0.85827 0.82724 0.29906 0.0
H1283 H 0.77159 0.87511 0.24025 0.0
H1284 H 0.69826 0.78473 0.17539 0.0
H1285 H 0.71898 0.82448 0.17805 0.0
H1286 H 0.82166 0.70122 0.3352 0.0
H1287 H 0.74639 0.8582 0.20198 0.0
H1288 H 0.89356 0.83314 0.3714 0.0
N1289 N 0.83017 0.75442 0.31875 0.0
C1290 C 0.84455 0.76595 0.33867 0.0
C1291 C 0.82784 0.71951 0.33662 0.0
C1292 C 0.85028 0.75477 0.35883 0.0
C1293 C 0.82277 0.73124 0.31701 0.0
C1294 C 0.84133 0.73138 0.35778 0.0
N1295 N 0.84979 0.79879 0.31822 0.0
C1296 C 0.86135 0.82009 0.3158 0.0
C1297 C 0.87057 0.80078 0.35816 0.0
C1298 C 0.85482 0.78867 0.3383 0.0
C1299 C 0.88137 0.82326 0.35651 0.0
C1300 C 0.87697 0.83284 0.3351 0.0
H1301 H 0.84544 0.72216 0.37283 0.0
H1302 H 0.86984 0.7587 0.39467 0.0
H1303 H 0.88744 0.79902 0.39417 0.0
O1304 O 0.84876 0.78511 0.26105 0.0
O1305 O 0.81665 0.80096 0.31795 0.0
O1306 O 0.77915 0.7872 0.3176 0.0
O1307 O 0.84656 0.75448 0.27916 0.0
O1308 O 0.817 0.80615 0.26709 0.0
O1309 O 0.79435 0.82369 0.28995 0.0
O1310 O 0.72831 0.78978 0.29457 0.0
O1311 O 0.77472 0.78476 0.24612 0.0
O1312 O 0.79643 0.75842 0.25529 0.0
O1313 O 0.75057 0.82363 0.30335 0.0
O1314 O 0.75993 0.76037 0.29243 0.0
O1315 O 0.79257 0.74688 0.28456 0.0
C1316 C 0.79855 0.799 0.32908 0.0
C1317 C 0.87551 0.75941 0.25281 0.0
C1318 C 0.90561 0.76393 0.22673 0.0
C1319 C 0.91027 0.74283 0.23189 0.0
C1320 C 0.88071 0.73832 0.25757 0.0
C1321 C 0.89794 0.73018 0.24724 0.0
C1322 C 0.88822 0.77243 0.23735 0.0
C1323 C 0.81173 0.82474 0.27752 0.0
C1324 C 0.85677 0.76687 0.26437 0.0
C1325 C 0.86539 0.767 0.37899 0.0
C1326 C 0.87547 0.78996 0.37868 0.0
C1327 C 0.78511 0.76809 0.23933 0.0
C1328 C 0.71371 0.81928 0.31805 0.0
C1329 C 0.68075 0.81372 0.34024 0.0
C1330 C 0.68125 0.83727 0.34187 0.0
C1331 C 0.71379 0.84277 0.32014 0.0
C1332 C 0.69695 0.80459 0.32807 0.0
C1333 C 0.69761 0.85164 0.33186 0.0
C1334 C 0.77164 0.74414 0.29005 0.0
C1335 C 0.73111 0.81067 0.30518 0.0
H1336 H 0.92367 0.73616 0.22409 0.0
H1337 H 0.87142 0.7279 0.26936 0.0
H1338 H 0.90175 0.71396 0.25115 0.0
H1339 H 0.88458 0.78875 0.2335 0.0
H1340 H 0.66888 0.84457 0.351 0.0
H1341 H 0.7263 0.85433 0.31247 0.0
H1342 H 0.69667 0.78641 0.3267 0.0
H1343 H 0.69776 0.86977 0.33321 0.0
Eu1344 Eu 0.77093 0.28661 0.81447 0.0
C1345 C 0.82583 0.24567 0.72355 0.0
N1346 N 0.83361 0.26172 0.74342 0.0
C1347 C 0.86628 0.24543 0.7517 0.0
C1348 C 0.83752 0.2281 0.71773 0.0
C1349 C 0.85386 0.26224 0.75707 0.0
C1350 C 0.85791 0.22808 0.73219 0.0
C1351 C 0.79744 0.23038 0.68835 0.0
C1352 C 0.80608 0.24685 0.70896 0.0
C1353 C 0.80852 0.21229 0.68312 0.0
C1354 C 0.82856 0.21122 0.69769 0.0
Eu1355 Eu 0.80995 0.28762 0.75258 0.0
N1356 N 0.79546 0.26427 0.71483 0.0
C1357 C 0.77814 0.23279 0.67342 0.0
C1358 C 0.77807 0.26795 0.69901 0.0
C1359 C 0.76875 0.25198 0.67845 0.0
H1360 H 0.86067 0.27567 0.77203 0.0
H1361 H 0.75441 0.25455 0.66644 0.0
H1362 H 0.72018 0.29834 0.80081 0.0
H1363 H 0.83435 0.32395 0.89498 0.0
H1364 H 0.77129 0.28319 0.70206 0.0
H1365 H 0.77086 0.22041 0.65752 0.0
H1366 H 0.81394 0.2932 0.86341 0.0
H1367 H 0.88227 0.24583 0.76266 0.0
H1368 H 0.80195 0.1993 0.66756 0.0
H1369 H 0.83714 0.1974 0.69317 0.0
H1370 H 0.69975 0.32925 0.81066 0.0
H1371 H 0.86749 0.21496 0.72823 0.0
H1372 H 0.81988 0.35943 0.90288 0.0
N1373 N 0.74929 0.31351 0.82632 0.0
C1374 C 0.75925 0.33106 0.84387 0.0
C1375 C 0.71652 0.33003 0.8201 0.0
C1376 C 0.74846 0.34933 0.84979 0.0
C1377 C 0.72809 0.31252 0.81463 0.0
C1378 C 0.72685 0.34868 0.83757 0.0
N1379 N 0.78925 0.31186 0.85062 0.0
C1380 C 0.8078 0.30888 0.86539 0.0
C1381 C 0.79077 0.34812 0.87504 0.0
C1382 C 0.78005 0.33038 0.85623 0.0
C1383 C 0.81102 0.34613 0.88842 0.0
C1384 C 0.81927 0.32617 0.88395 0.0
H1385 H 0.71793 0.36232 0.84165 0.0
H1386 H 0.7516 0.38184 0.87234 0.0
H1387 H 0.78879 0.38085 0.89443 0.0
O1388 O 0.76929 0.25688 0.83368 0.0
O1389 O 0.77647 0.31938 0.79862 0.0
O1390 O 0.80807 0.311 0.78651 0.0
O1391 O 0.7383 0.26494 0.81755 0.0
O1392 O 0.80784 0.28122 0.8221 0.0
O1393 O 0.83064 0.28846 0.79059 0.0
O1394 O 0.80982 0.31668 0.73248 0.0
O1395 O 0.79527 0.25106 0.75618 0.0
O1396 O 0.78496 0.2726 0.78387 0.0
O1397 O 0.84139 0.30613 0.74268 0.0
O1398 O 0.77207 0.29063 0.74506 0.0
O1399 O 0.74939 0.28457 0.77699 0.0
C1400 C 0.79402 0.32491 0.78734 0.0
C1401 C 0.7388 0.2509 0.85573 0.0
C1402 C 0.74233 0.23645 0.89468 0.0
C1403 C 0.72844 0.25072 0.90359 0.0
C1404 C 0.72481 0.26515 0.86464 0.0
C1405 C 0.7195 0.26483 0.88846 0.0
C1406 C 0.74713 0.23631 0.87069 0.0
C1407 C 0.82757 0.28373 0.8131 0.0
C1408 C 0.74735 0.25279 0.83227 0.0
C1409 C 0.75947 0.36749 0.86775 0.0
C1410 C 0.78065 0.36694 0.88028 0.0
C1411 C 0.78434 0.25196 0.77449 0.0
C1412 C 0.83681 0.32126 0.70539 0.0
C1413 C 0.83239 0.33922 0.6688 0.0
C1414 C 0.84567 0.32559 0.65755 0.0
C1415 C 0.85013 0.30752 0.69414 0.0
C1416 C 0.82813 0.33717 0.69265 0.0
C1417 C 0.85462 0.30984 0.6703 0.0
C1418 C 0.75234 0.28825 0.75414 0.0
C1419 C 0.83125 0.3192 0.7301 0.0
H1420 H 0.72453 0.25091 0.92217 0.0
H1421 H 0.71843 0.27685 0.8535 0.0
H1422 H 0.70881 0.27585 0.89537 0.0
H1423 H 0.75836 0.22568 0.86407 0.0
H1424 H 0.84913 0.32722 0.63902 0.0
H1425 H 0.85697 0.29501 0.70363 0.0
H1426 H 0.81775 0.34777 0.70117 0.0
H1427 H 0.86494 0.29936 0.66166 0.0
Eu1428 Eu 0.7751 0.75732 0.76396 0.0
C1429 C 0.85487 0.83156 0.8251 0.0
N1430 N 0.83474 0.81972 0.83007 0.0
C1431 C 0.85047 0.82087 0.87187 0.0
C1432 C 0.87352 0.83878 0.84369 0.0
C1433 C 0.8323 0.81446 0.85309 0.0
C1434 C 0.87113 0.83317 0.8672 0.0
C1435 C 0.87719 0.85019 0.79632 0.0
C1436 C 0.8567 0.83727 0.80155 0.0
C1437 C 0.89561 0.8575 0.81491 0.0
C1438 C 0.89378 0.85184 0.83849 0.0
Eu1439 Eu 0.80429 0.81604 0.79857 0.0
N1440 N 0.83837 0.83071 0.78396 0.0
C1441 C 0.87844 0.85593 0.77269 0.0
C1442 C 0.83936 0.83693 0.76115 0.0
C1443 C 0.85944 0.84921 0.75502 0.0
H1444 H 0.81608 0.80662 0.85758 0.0
H1445 H 0.86003 0.85411 0.73687 0.0
H1446 H 0.7644 0.76547 0.70444 0.0
H1447 H 0.71894 0.71627 0.82344 0.0
H1448 H 0.82459 0.8335 0.74793 0.0
H1449 H 0.89384 0.86592 0.76802 0.0
H1450 H 0.7544 0.73792 0.81319 0.0
H1451 H 0.84832 0.81693 0.89014 0.0
H1452 H 0.91133 0.86774 0.81127 0.0
H1453 H 0.90812 0.8578 0.85265 0.0
H1454 H 0.73271 0.75512 0.67124 0.0
H1455 H 0.88502 0.83856 0.88197 0.0
H1456 H 0.68548 0.70444 0.79179 0.0
N1457 N 0.74516 0.75242 0.73152 0.0
C1458 C 0.72496 0.74025 0.73594 0.0
C1459 C 0.7302 0.75115 0.68942 0.0
C1460 C 0.70661 0.73301 0.71701 0.0
C1461 C 0.74806 0.7576 0.70856 0.0
C1462 C 0.7094 0.7388 0.69364 0.0
N1463 N 0.74087 0.74085 0.77714 0.0
C1464 C 0.73974 0.73419 0.79975 0.0
C1465 C 0.70237 0.72078 0.76398 0.0
C1466 C 0.72285 0.73408 0.75922 0.0
C1467 C 0.7009 0.71468 0.78746 0.0
C1468 C 0.71969 0.72142 0.80541 0.0
H1469 H 0.69575 0.73341 0.67862 0.0
H1470 H 0.67212 0.71382 0.70734 0.0
H1471 H 0.66839 0.70322 0.74842 0.0
O1472 O 0.78217 0.72478 0.77259 0.0
O1473 O 0.74851 0.7778 0.77679 0.0
O1474 O 0.76696 0.80812 0.80577 0.0
O1475 O 0.77015 0.72859 0.73532 0.0
O1476 O 0.79374 0.75833 0.80235 0.0
O1477 O 0.78812 0.79129 0.8227 0.0
O1478 O 0.80302 0.85065 0.79151 0.0
O1479 O 0.8295 0.79249 0.78879 0.0
O1480 O 0.81136 0.76903 0.75406 0.0
O1481 O 0.80856 0.84338 0.82878 0.0
O1482 O 0.78577 0.81619 0.76011 0.0
O1483 O 0.7904 0.78254 0.7403 0.0
C1484 C 0.74801 0.79471 0.79409 0.0
C1485 C 0.79352 0.70217 0.74084 0.0
C1486 C 0.81575 0.67397 0.74812 0.0
C1487 C 0.82149 0.67345 0.72438 0.0
C1488 C 0.79913 0.70187 0.71688 0.0
C1489 C 0.81317 0.68752 0.70876 0.0
C1490 C 0.80195 0.68822 0.7563 0.0
C1491 C 0.79068 0.77013 0.82261 0.0
C1492 C 0.77763 0.71537 0.7498 0.0
C1493 C 0.68627 0.7197 0.72174 0.0
C1494 C 0.68416 0.71363 0.74513 0.0
C1495 C 0.83037 0.77911 0.76843 0.0
C1496 C 0.79151 0.87449 0.82248 0.0
C1497 C 0.76612 0.89961 0.81235 0.0
C1498 C 0.76807 0.90821 0.83725 0.0
C1499 C 0.79344 0.8832 0.84729 0.0
C1500 C 0.77759 0.88253 0.80514 0.0
C1501 C 0.78158 0.89988 0.85463 0.0
C1502 C 0.78736 0.80345 0.73982 0.0
C1503 C 0.80568 0.85872 0.81466 0.0
H1504 H 0.83194 0.66195 0.71791 0.0
H1505 H 0.79248 0.71237 0.70439 0.0
H1506 H 0.81729 0.68704 0.69027 0.0
H1507 H 0.79729 0.68793 0.77462 0.0
H1508 H 0.75982 0.92191 0.84318 0.0
H1509 H 0.80447 0.87745 0.86092 0.0
H1510 H 0.77615 0.87607 0.78591 0.0
H1511 H 0.78334 0.90679 0.87373 0.0
Eu1512 Eu 0.57412 0.55404 0.55222 0.0
C1513 C 0.49774 0.47559 0.49047 0.0
N1514 N 0.51054 0.49549 0.48581 0.0
C1515 C 0.51142 0.47869 0.4448 0.0
C1516 C 0.49156 0.45632 0.47236 0.0
C1517 C 0.51697 0.49741 0.46318 0.0
C1518 C 0.49877 0.45803 0.44943 0.0
C1519 C 0.47592 0.45456 0.51805 0.0
C1520 C 0.4899 0.4747 0.5131 0.0
C1521 C 0.47012 0.43529 0.50016 0.0
C1522 C 0.47788 0.43618 0.47739 0.0
Eu1523 Eu 0.5157 0.52668 0.51716 0.0
N1524 N 0.4954 0.4937 0.53002 0.0
C1525 C 0.46761 0.45459 0.54059 0.0
C1526 C 0.48621 0.49423 0.55131 0.0
C1527 C 0.47263 0.47459 0.55721 0.0
H1528 H 0.52543 0.51356 0.45873 0.0
H1529 H 0.46555 0.47507 0.57427 0.0
H1530 H 0.56299 0.56625 0.61048 0.0
H1531 H 0.61352 0.6099 0.49096 0.0
H1532 H 0.48846 0.50999 0.56328 0.0
H1533 H 0.45676 0.43948 0.54503 0.0
H1534 H 0.59302 0.57402 0.50196 0.0
H1535 H 0.51648 0.48038 0.42689 0.0
H1536 H 0.45931 0.41973 0.50361 0.0
H1537 H 0.47291 0.42128 0.46364 0.0
H1538 H 0.57245 0.59907 0.64275 0.0
H1539 H 0.49421 0.44366 0.435 0.0
H1540 H 0.62461 0.64418 0.52195 0.0
N1541 N 0.57725 0.58483 0.58335 0.0
C1542 C 0.5895 0.605 0.57857 0.0
C1543 C 0.57704 0.60105 0.6247 0.0
C1544 C 0.59597 0.62402 0.59695 0.0
C1545 C 0.57118 0.58255 0.60608 0.0
C1546 C 0.58951 0.62184 0.62015 0.0
N1547 N 0.58979 0.5881 0.53774 0.0
C1548 C 0.59629 0.58901 0.5151 0.0
C1549 C 0.60886 0.62734 0.55015 0.0
C1550 C 0.59607 0.60662 0.55533 0.0
C1551 C 0.61484 0.62856 0.52662 0.0
C1552 C 0.60849 0.6093 0.50902 0.0
H1553 H 0.59434 0.63602 0.63478 0.0
H1554 H 0.61426 0.65917 0.60584 0.0
H1555 H 0.62535 0.66212 0.56491 0.0
O1556 O 0.60847 0.55205 0.54621 0.0
O1557 O 0.55189 0.58053 0.54187 0.0
O1558 O 0.52823 0.56281 0.50731 0.0
O1559 O 0.60054 0.55829 0.58306 0.0
O1560 O 0.57388 0.53494 0.51417 0.0
O1561 O 0.54146 0.54129 0.49398 0.0
O1562 O 0.485 0.53808 0.5246 0.0
O1563 O 0.53436 0.49847 0.52998 0.0
O1564 O 0.56535 0.51592 0.55839 0.0
O1565 O 0.48858 0.52398 0.48723 0.0
O1566 O 0.51773 0.5447 0.5561 0.0
O1567 O 0.54977 0.53699 0.5757 0.0
C1568 C 0.53817 0.58175 0.52189 0.0
C1569 C 0.6301 0.53901 0.57769 0.0
C1570 C 0.65624 0.51475 0.56843 0.0
C1571 C 0.65905 0.51068 0.59285 0.0
C1572 C 0.63312 0.53523 0.60229 0.0
C1573 C 0.64751 0.52101 0.60977 0.0
C1574 C 0.64181 0.52878 0.56093 0.0
C1575 C 0.56176 0.53716 0.49382 0.0
C1576 C 0.61588 0.55452 0.56953 0.0
C1577 C 0.60899 0.64449 0.59184 0.0
C1578 C 0.61535 0.64616 0.56853 0.0
C1579 C 0.55127 0.49717 0.54682 0.0
C1580 C 0.45375 0.53608 0.49292 0.0
C1581 C 0.42242 0.55371 0.50045 0.0
C1582 C 0.41292 0.54744 0.47588 0.0
C1583 C 0.44427 0.52947 0.46835 0.0
C1584 C 0.44257 0.54781 0.50895 0.0
C1585 C 0.42378 0.5351 0.45991 0.0
C1586 C 0.529 0.53983 0.5757 0.0
C1587 C 0.47611 0.53269 0.50168 0.0
H1588 H 0.67053 0.50001 0.59887 0.0
H1589 H 0.62454 0.54338 0.61575 0.0
H1590 H 0.64993 0.51821 0.62872 0.0
H1591 H 0.63992 0.53184 0.54198 0.0
H1592 H 0.39716 0.55202 0.46917 0.0
H1593 H 0.45285 0.52039 0.45564 0.0
H1594 H 0.44994 0.55326 0.52789 0.0
H1595 H 0.4165 0.53019 0.44095 0.0
Eu1596 Eu 1.0094 0.53297 0.04944 0.0
C1597 C 0.09022 0.58227 0.99525 0.0
N1598 N 0.0746 0.56237 0.98831 0.0
C1599 C 0.06934 0.5716 0.94735 0.0
C1600 C 0.09529 0.59795 0.97847 0.0
C1601 C 0.06493 0.55647 0.96446 0.0
C1602 C 0.08436 0.59253 0.95443 0.0
C1603 C 0.1185 0.60698 0.0263 0.0
C1604 C 0.10194 0.58674 0.01896 0.0
C1605 C 0.123 0.62281 0.00977 0.0
C1606 C 0.11148 0.61829 0.98594 0.0
Eu1607 Eu 0.06989 0.53832 0.0192 0.0
N1608 N 0.09723 0.57131 0.03486 0.0
C1609 C 0.13031 0.61059 0.04999 0.0
C1610 C 0.10979 0.57394 0.05721 0.0
C1611 C 0.12614 0.59383 0.0654 0.0
H1612 H 0.05426 0.53989 0.9581 0.0
H1613 H 0.1358 0.596 0.08339 0.0
H1614 H 0.0245 0.53225 0.11087 0.0
H1615 H 0.94682 0.47329 0.98376 0.0
H1616 H 0.10776 0.56041 0.06833 0.0
H1617 H 0.14312 0.62594 0.0563 0.0
H1618 H 0.97481 0.50908 0.9986 0.0
H1619 H 0.06144 0.56691 0.92856 0.0
H1620 H 0.13562 0.63847 0.01512 0.0
H1621 H 0.11547 0.63052 0.97328 0.0
H1622 H 0.01687 0.50555 0.14064 0.0
H1623 H 0.08788 0.6041 0.94102 0.0
H1624 H 0.93843 0.44421 0.01162 0.0
N1625 N 1.00501 0.50926 0.08053 0.0
C1626 C 0.98972 0.48911 0.07342 0.0
C1627 C 1.00942 0.50059 0.12174 0.0
C1628 C 0.98423 0.47373 0.09037 0.0
C1629 C 0.01412 0.51552 0.10452 0.0
C1630 C 0.99459 0.47955 0.11462 0.0
N1631 N 0.98396 0.49904 0.03302 0.0
C1632 C 0.97213 0.49591 0.0102 0.0
C1633 C 0.96228 0.46375 0.04195 0.0
C1634 C 0.97866 0.48409 0.04932 0.0
C1635 C 0.95115 0.45963 0.01792 0.0
C1636 C 0.95592 0.47592 0.00206 0.0
H1637 H 0.99076 0.46818 0.12815 0.0
H1638 H 0.96378 0.44136 0.09571 0.0
H1639 H 0.94468 0.43265 0.05345 0.0
O1640 O 0.98112 0.54841 0.03544 0.0
O1641 O 0.0177 0.49842 0.0323 0.0
O1642 O 0.04798 0.50207 0.0093 0.0
O1643 O 0.98414 0.53926 0.07217 0.0
O1644 O 0.02015 0.5476 0.01615 0.0
O1645 O 0.03895 0.52759 0.99221 0.0
O1646 O 0.09919 0.52325 0.0323 0.0
O1647 O 0.06157 0.57303 0.03609 0.0
O1648 O 0.03088 0.56979 0.05889 0.0
O1649 O 0.09008 0.52627 0.99354 0.0
O1650 O 0.05782 0.52385 0.05202 0.0
O1651 O 0.04023 0.54422 0.07686 0.0
C1652 C 0.03082 0.48948 0.0178 0.0
C1653 C 0.96366 0.56806 0.06571 0.0
C1654 C 0.93487 0.59102 0.06202 0.0
C1655 C 0.94139 0.60062 0.08652 0.0
C1656 C 0.97027 0.5782 0.09018 0.0
C1657 C 0.95906 0.59426 0.10049 0.0
C1658 C 0.94591 0.57465 0.0516 0.0
C1659 C 0.02068 0.53485 0.9959 0.0
C1660 C 0.97271 0.54834 0.05611 0.0
C1661 C 0.96816 0.45331 0.08288 0.0
C1662 C 0.95723 0.44835 0.05879 0.0
C1663 C 0.0482 0.58224 0.05023 0.0
C1664 C 0.12192 0.5089 0.00182 0.0
C1665 C 0.15202 0.48798 0.00902 0.0
C1666 C 0.15432 0.48623 0.98408 0.0
C1667 C 0.12463 0.50704 0.97685 0.0
C1668 C 0.13587 0.49943 0.01805 0.0
C1669 C 0.14072 0.4958 0.96811 0.0
C1670 C 0.0582 0.53655 0.07254 0.0
C1671 C 0.1035 0.51948 0.0098 0.0
H1672 H 0.93264 0.61293 0.09486 0.0
H1673 H 0.98364 0.57322 0.10165 0.0
H1674 H 0.96387 0.60156 0.11947 0.0
H1675 H 0.94034 0.56669 0.03289 0.0
H1676 H 0.16671 0.47742 0.97697 0.0
H1677 H 0.11411 0.51405 0.96385 0.0
H1678 H 0.13393 0.50051 0.03729 0.0
H1679 H 0.14254 0.49436 0.94887 0.0
H1680 H 0.04916 0.22368 0.98288 0.0
H1681 H 1.00033 0.0908 0.99398 0.0
H1682 H 0.97782 0.19676 0.98002 0.0
H1683 H 0.06498 0.1259 0.03279 0.0
H1684 H 0.99329 0.12755 0.98258 0.0
H1685 H 0.05692 0.18705 0.99468 0.0
C1686 C 0.03505 0.21005 0.98434 0.0
C1687 C 0.01268 0.21372 0.9802 0.0
C1688 C 1.00912 0.12728 0.99351 0.0
C1689 C 0.02159 0.17085 0.99351 0.0
C1690 C 0.01325 0.1061 1.00007 0.0
C1691 C 0.03348 0.10462 0.01454 0.0
C1692 C 0.02554 0.14767 1.00064 0.0
C1693 C 0.04923 0.12562 0.02168 0.0
C1694 C 0.03954 0.18905 0.9913 0.0
C1695 C 0.99533 0.1951 0.98291 0.0
N1696 N 0.04511 0.1459 0.01452 0.0
N1697 N 1.00008 0.17472 0.98899 0.0
H1698 H 0.16658 0.82617 0.13153 0.0
H1699 H 0.20704 0.77689 0.25496 0.0
H1700 H 0.11917 0.79131 0.17423 0.0
H1701 H 0.25221 0.81821 0.21484 0.0
H1702 H 0.17475 0.78148 0.22629 0.0
H1703 H 0.19778 0.82311 0.16211 0.0
C1704 C 0.16265 0.81792 0.14738 0.0
C1705 C 0.13999 0.80908 0.1501 0.0
C1706 C 0.19173 0.78956 0.22377 0.0
C1707 C 0.17619 0.80508 0.18552 0.0
C1708 C 0.21027 0.78702 0.24026 0.0
C1709 C 0.23269 0.79699 0.23745 0.0
C1710 C 0.1954 0.80224 0.20412 0.0
C1711 C 0.23547 0.80981 0.21776 0.0
C1712 C 0.18059 0.81614 0.16493 0.0
C1713 C 0.13624 0.79861 0.17129 0.0
N1714 N 0.21725 0.81193 0.20199 0.0
N1715 N 0.15405 0.79676 0.18796 0.0
H1716 H 0.50487 0.83754 0.50671 0.0
H1717 H 0.54681 0.96694 0.47648 0.0
H1718 H 0.52473 0.85416 0.43764 0.0
H1719 H 0.5104 0.95381 0.53744 0.0
H1720 H 0.5415 0.92557 0.46444 0.0
H1721 H 0.50906 0.87901 0.5205 0.0
C1722 C 0.5101 0.84972 0.49439 0.0
C1723 C 0.51432 0.84178 0.47076 0.0
C1724 C 0.53447 0.93161 0.48039 0.0
C1725 C 0.51949 0.88996 0.48674 0.0
C1726 C 0.53753 0.95547 0.48736 0.0
C1727 C 0.52873 0.96446 0.5079 0.0
C1728 C 0.52279 0.91591 0.49414 0.0
C1729 C 0.51703 0.94812 0.52112 0.0
C1730 C 0.51247 0.87355 0.50231 0.0
C1731 C 0.52113 0.85892 0.45592 0.0
N1732 N 0.51453 0.92494 0.51417 0.0
N1733 N 0.52356 0.88174 0.4641 0.0
H1734 H 0.49114 0.28538 0.61431 0.0
H1735 H 0.4424 0.29728 0.74276 0.0
H1736 H 0.53269 0.30791 0.68404 0.0
H1737 H 0.40303 0.25926 0.67677 0.0
H1738 H 0.47388 0.30895 0.71956 0.0
H1739 H 0.45722 0.28193 0.63523 0.0
C1740 C 0.4931 0.28971 0.63399 0.0
C1741 C 0.51473 0.29668 0.6475 0.0
C1742 C 0.45817 0.29851 0.71 0.0
C1743 C 0.47612 0.29331 0.67146 0.0
C1744 C 0.4401 0.2922 0.72318 0.0
C1745 C 0.42005 0.27762 0.71152 0.0
C1746 C 0.45615 0.29007 0.68504 0.0
C1747 C 0.41813 0.27085 0.68626 0.0
C1748 C 0.47377 0.28778 0.64591 0.0
C1749 C 0.51633 0.30213 0.67295 0.0
N1750 N 0.43602 0.27693 0.67389 0.0
N1751 N 0.49732 0.30036 0.68408 0.0
H1752 H 0.04906 0.79618 0.64204 0.0
H1753 H 0.04117 0.9265 0.63204 0.0
H1754 H 0.0234 0.83712 0.69676 0.0
H1755 H 0.068 0.88408 0.58 0.0
H1756 H 0.03071 0.89341 0.65408 0.0
H1757 H 0.05364 0.82785 0.61809 0.0
C1758 C 0.04452 0.81195 0.64914 0.0
C1759 C 0.03601 0.81403 0.67159 0.0
C1760 C 0.03856 0.89125 0.63763 0.0
C1761 C 0.04092 0.85058 0.64383 0.0
C1762 C 0.0443 0.91004 0.62496 0.0
C1763 C 0.05543 0.90787 0.60428 0.0
C1764 C 0.04412 0.87028 0.6295 0.0
C1765 C 0.05942 0.88636 0.59591 0.0
C1766 C 0.04703 0.83006 0.63533 0.0
C1767 C 0.03033 0.8349 0.67972 0.0
N1768 N 0.05394 0.86847 0.60864 0.0
N1769 N 0.03286 0.85239 0.66582 0.0
H1770 H 0.47053 0.78603 0.86495 0.0
H1771 H 0.37252 0.8251 0.77817 0.0
H1772 H 0.48689 0.83961 0.82042 0.0
H1773 H 0.36066 0.77354 0.82594 0.0
H1774 H 0.41358 0.83054 0.79126 0.0
H1775 H 0.43067 0.78036 0.84818 0.0
C1776 C 0.46588 0.79628 0.85108 0.0
C1777 C 0.48266 0.813 0.84389 0.0
C1778 C 0.402 0.81801 0.79888 0.0
C1779 C 0.43568 0.80703 0.82471 0.0
C1780 C 0.3783 0.81503 0.79156 0.0
C1781 C 0.36242 0.79891 0.80097 0.0
C1782 C 0.41037 0.80467 0.81578 0.0
C1783 C 0.3717 0.78608 0.81785 0.0
C1784 C 0.44283 0.79317 0.84163 0.0
C1785 C 0.47497 0.82608 0.82623 0.0
N1786 N 0.39464 0.78922 0.82455 0.0
N1787 N 0.45222 0.82292 0.81743 0.0
H1788 H 0.56424 0.20175 0.15649 0.0
H1789 H 0.50642 0.07647 0.09137 0.0
H1790 H 0.49167 0.18106 0.15044 0.0
H1791 H 0.56172 0.11887 0.06483 0.0
H1792 H 0.50235 0.10984 0.11929 0.0
H1793 H 0.56555 0.16663 0.13072 0.0
C1794 C 0.54855 0.18938 0.15053 0.0
C1795 C 0.52783 0.19449 0.15626 0.0
C1796 C 0.51528 0.11184 0.10727 0.0
C1797 C 0.52931 0.15365 0.12595 0.0
C1798 C 0.51771 0.09277 0.09132 0.0
C1799 C 0.53446 0.09468 0.07548 0.0
C1800 C 0.53014 0.13302 0.10811 0.0
C1801 C 0.54849 0.1164 0.07644 0.0
C1802 C 0.54934 0.16942 0.13541 0.0
C1803 C 0.5081 0.17782 0.14719 0.0
N1804 N 0.54622 0.13447 0.09258 0.0
N1805 N 0.50932 0.15816 0.13256 0.0
H1806 H 0.14002 0.33024 0.37521 0.0
H1807 H 0.20525 0.277 0.26954 0.0
H1808 H 0.10517 0.30157 0.30361 0.0
H1809 H 0.23966 0.31897 0.33578 0.0
H1810 H 0.16869 0.28301 0.28193 0.0
H1811 H 0.1757 0.3236 0.36178 0.0
C1812 C 0.13969 0.32259 0.35657 0.0
C1813 C 0.11896 0.3167 0.34071 0.0
C1814 C 0.1842 0.29093 0.29381 0.0
C1815 C 0.16097 0.30863 0.32484 0.0
C1816 C 0.20531 0.28745 0.28672 0.0
C1817 C 0.22619 0.29756 0.30136 0.0
C1818 C 0.18339 0.30438 0.31612 0.0
C1819 C 0.22446 0.31087 0.3235 0.0
C1820 C 0.16035 0.31876 0.34885 0.0
C1821 C 0.12036 0.30662 0.31675 0.0
N1822 N 0.20382 0.31371 0.33007 0.0
N1823 N 0.14068 0.30291 0.30971 0.0
H1824 H 0.96059 0.05078 0.20708 0.0
H1825 H 0.03233 1.00735 0.10513 0.0
H1826 H 0.9791 0.98485 0.2 0.0
H1827 H 1.00014 0.0646 0.09719 0.0
H1828 H 0.01434 1.00082 0.14166 0.0
H1829 H 0.9757 0.05803 0.16845 0.0
C1830 C 0.96739 0.03767 0.1972 0.0
C1831 C 0.96864 0.01717 0.20689 0.0
C1832 C 1.01118 0.0149 0.13208 0.0
C1833 C 0.98611 0.02542 0.1629 0.0
C1834 C 0.02161 0.01872 0.11127 0.0
C1835 C 0.01775 0.03655 0.09811 0.0
C1836 C 0.99708 0.02932 0.14037 0.0
C1837 C 1.00342 0.05055 0.10675 0.0
C1838 C 0.97613 0.04187 0.17524 0.0
C1839 C 0.97798 1.00098 0.19345 0.0
N1840 N 0.99374 0.04678 0.12746 0.0
N1841 N 0.98637 1.00548 0.17238 0.0
H1842 H 0.29167 0.69896 0.53235 0.0
H1843 H 0.24853 0.69571 0.39219 0.0
H1844 H 0.27566 0.63662 0.48161 0.0
H1845 H 0.2671 0.75665 0.44474 0.0
H1846 H 0.26494 0.67432 0.42228 0.0
H1847 H 0.28944 0.72087 0.49841 0.0
C1848 C 0.28774 0.6899 0.51394 0.0
C1849 C 0.28338 0.66602 0.50965 0.0
C1850 C 0.26571 0.69243 0.42709 0.0
C1851 C 0.28053 0.69094 0.47066 0.0
C1852 C 0.2563 0.70453 0.41005 0.0
C1853 C 0.25589 0.72761 0.41661 0.0
C1854 C 0.27475 0.70371 0.45058 0.0
C1855 C 0.26648 0.73863 0.43951 0.0
C1856 C 0.28659 0.70242 0.49453 0.0
C1857 C 0.27882 0.65508 0.48553 0.0
N1858 N 0.27531 0.72649 0.45582 0.0
N1859 N 0.27711 0.66768 0.46679 0.0
H1860 H 0.65935 0.09406 0.68912 0.0
H1861 H 0.58665 0.00906 0.57738 0.0
H1862 H 0.66007 0.02211 0.67783 0.0
H1863 H 0.57193 0.07309 0.60734 0.0
H1864 H 0.62176 0.01689 0.60589 0.0
H1865 H 0.63795 0.09045 0.6485 0.0
C1866 C 0.65562 0.07769 0.6776 0.0
C1867 C 0.66073 0.05821 0.6866 0.0
C1868 C 0.61098 0.02932 0.60594 0.0
C1869 C 0.63584 0.05378 0.64128 0.0
C1870 C 0.59101 0.02484 0.5899 0.0
C1871 C 0.57685 0.04068 0.59008 0.0
C1872 C 0.61658 0.04974 0.62207 0.0
C1873 C 0.58258 0.06054 0.60689 0.0
C1874 C 0.64334 0.07559 0.65465 0.0
C1875 C 0.65602 0.03739 0.67128 0.0
N1876 N 0.60221 0.0646 0.62225 0.0
N1877 N 0.6431 0.0355 0.64939 0.0
H1878 H 0.33062 0.39513 0.96468 0.0
H1879 H 0.26857 0.29181 0.86246 0.0
H1880 H 0.28609 0.33568 0.98166 0.0
H1881 H 0.33347 0.33292 0.85541 0.0
H1882 H 0.27165 0.31075 0.90439 0.0
H1883 H 0.32925 0.37558 0.92298 0.0
C1884 C 0.32054 0.37798 0.95959 0.0
C1885 C 0.30856 0.36694 0.97665 0.0
C1886 C 0.28529 0.31553 0.89372 0.0
C1887 C 0.30639 0.34473 0.92888 0.0
C1888 C 0.28353 0.30476 0.86971 0.0
C1889 C 0.30088 0.31059 0.8553 0.0
C1890 C 0.30435 0.33264 0.90346 0.0
C1891 C 0.3198 0.32764 0.86583 0.0
C1892 C 0.31981 0.36682 0.93586 0.0
C1893 C 0.29579 0.3447 0.96915 0.0
N1894 N 0.32095 0.33816 0.88914 0.0
N1895 N 0.29481 0.33446 0.9458 0.0
H1896 H 0.95956 0.98531 0.33745 0.0
H1897 H 0.02834 0.0663 0.45801 0.0
H1898 H 0.97157 0.05881 0.34469 0.0
H1899 H 1.0041 0.99371 0.45488 0.0
H1900 H 1.00995 0.06405 0.41586 0.0
H1901 H 0.97839 0.98788 0.37956 0.0
C1902 C 0.9663 1.00197 0.34793 0.0
C1903 C 0.96412 0.02187 0.33769 0.0
C1904 C 1.00882 0.04856 0.42438 0.0
C1905 C 0.98576 0.02509 0.3858 0.0
C1906 C 0.01937 0.04983 0.44848 0.0
C1907 C 0.01821 0.03004 0.4601 0.0
C1908 C 0.99715 0.02731 0.41157 0.0
C1909 C 1.006 0.00929 0.44673 0.0
C1910 C 0.97699 1.00348 0.37197 0.0
C1911 C 0.97297 0.04308 0.35202 0.0
N1912 N 0.99614 1.00844 0.4233 0.0
N1913 N 0.98346 0.04415 0.37527 0.0
H1914 H 0.24323 0.65593 0.63905 0.0
H1915 H 0.32418 0.74865 0.73817 0.0
H1916 H 0.31481 0.67734 0.63683 0.0
H1917 H 0.25412 0.74743 0.71324 0.0
H1918 H 0.3211 0.7118 0.7128 0.0
H1919 H 0.24804 0.6768 0.68028 0.0
C1920 C 0.26008 0.6642 0.64784 0.0
C1921 C 0.27866 0.6654 0.63499 0.0
C1922 C 0.30629 0.71932 0.71348 0.0
C1923 C 0.28408 0.68957 0.68085 0.0
C1924 C 0.30805 0.74017 0.7277 0.0
C1925 C 0.28912 0.75016 0.72804 0.0
C1926 C 0.28552 0.7089 0.69952 0.0
C1927 C 0.26883 0.73966 0.71355 0.0
C1928 C 0.2628 0.67615 0.67112 0.0
C1929 C 0.3002 0.67629 0.64656 0.0
N1930 N 0.2675 0.71935 0.69981 0.0
N1931 N 0.30232 0.68861 0.66886 0.0
H1932 H 0.68745 0.08407 0.81976 0.0
H1933 H 0.584 0.04582 0.89177 0.0
H1934 H 0.64976 0.01462 0.81142 0.0
H1935 H 0.63114 0.11045 0.91035 0.0
H1936 H 0.60899 0.03295 0.86379 0.0
H1937 H 0.66825 0.09345 0.85475 0.0
C1938 C 0.67546 0.07073 0.8258 0.0
C1939 C 0.66997 0.04864 0.8131 0.0
C1940 C 0.61401 0.04984 0.8742 0.0
C1941 C 0.64804 0.059 0.85265 0.0
C1942 C 0.59974 0.05716 0.88994 0.0
C1943 C 0.60555 0.07931 0.90263 0.0
C1944 C 0.63406 0.06489 0.87139 0.0
C1945 C 0.62606 0.09344 0.90023 0.0
C1946 C 0.66452 0.07601 0.84568 0.0
C1947 C 0.65421 0.03186 0.82103 0.0
N1948 N 0.63959 0.08604 0.88468 0.0
N1949 N 0.64359 0.03742 0.84036 0.0
H1950 H 0.28279 0.37895 0.11165 0.0
H1951 H 0.31138 0.29224 0.20451 0.0
H1952 H 0.33684 0.34171 0.10948 0.0
H1953 H 0.27184 0.34211 0.2247 0.0
H1954 H 0.31699 0.30865 0.16724 0.0
H1955 H 0.27537 0.36504 0.15095 0.0
C1956 C 0.29324 0.36812 0.11947 0.0
C1957 C 0.31037 0.36135 0.10697 0.0
C1958 C 0.30702 0.31613 0.17966 0.0
C1959 C 0.30185 0.34533 0.1517 0.0
C1960 C 0.30364 0.3066 0.20104 0.0
C1961 C 0.29103 0.31572 0.21793 0.0
C1962 C 0.29761 0.33498 0.17456 0.0
C1963 C 0.28175 0.33458 0.21226 0.0
C1964 C 0.28894 0.36015 0.14185 0.0
C1965 C 0.32324 0.34719 0.11803 0.0
N1966 N 0.28512 0.34355 0.19096 0.0
N1967 N 0.31865 0.33966 0.13947 0.0
H1968 H 0.27667 1.00165 0.01225 0.0
H1969 H 0.15209 0.97387 0.04092 0.0
H1970 H 0.22965 0.9378 0.98577 0.0
H1971 H 0.19406 0.04159 0.05547 0.0
H1972 H 0.17809 0.96226 0.01379 0.0
H1973 H 0.24488 0.01904 0.02129 0.0
C1974 C 0.25962 0.99142 0.0081 0.0
C1975 C 0.25565 0.96819 0.99904 0.0
C1976 C 0.18155 0.97975 0.02268 0.0
C1977 C 0.21957 0.9877 0.00919 0.0
C1978 C 0.16692 0.98616 0.03829 0.0
C1979 C 0.1718 1.00825 0.05084 0.0
C1980 C 0.20123 0.99556 0.02022 0.0
C1981 C 0.19046 0.02414 0.04646 0.0
C1982 C 0.24151 1.00134 0.01306 0.0
C1983 C 0.23339 0.95569 0.99337 0.0
N1984 N 0.20489 0.01733 0.03176 0.0
N1985 N 0.21612 0.96554 0.99896 0.0
H1986 H 0.69448 0.67004 0.04359 0.0
H1987 H 0.59953 0.56572 0.98303 0.0
H1988 H 0.70606 0.62873 0.9797 0.0
H1989 H 0.61685 0.57804 0.06131 0.0
H1990 H 0.63537 0.59149 0.97897 0.0
H1991 H 0.66238 0.63981 0.04847 0.0
C1992 C 0.69007 0.65466 0.03047 0.0
C1993 C 0.7026 0.65195 0.01099 0.0
C1994 C 0.63138 0.58835 0.99699 0.0
C1995 C 0.66592 0.61753 0.01631 0.0
C1996 C 0.61102 0.57375 0.9993 0.0
C1997 C 0.60539 0.56988 0.02251 0.0
C1998 C 0.64569 0.59979 0.01808 0.0
C1999 C 0.62075 0.58056 0.0431 0.0
C2000 C 0.67196 0.63738 0.03339 0.0
C2001 C 0.6966 0.6315 0.99478 0.0
N2002 N 0.64 0.59547 0.04045 0.0
N2003 N 0.67839 0.61518 0.99753 0.0
H2004 H 0.64964 0.47998 0.30722 0.0
H2005 H 0.75319 0.43692 0.25344 0.0
H2006 H 0.70069 0.52222 0.27426 0.0
H2007 H 0.70196 0.39356 0.28475 0.0
H2008 H 0.73691 0.46988 0.26613 0.0
H2009 H 0.67051 0.44898 0.30308 0.0
C2010 C 0.6651 0.48261 0.29891 0.0
C2011 C 0.67337 0.5035 0.2908 0.0
C2012 C 0.7294 0.45325 0.27058 0.0
C2013 C 0.69734 0.46848 0.2863 0.0
C2014 C 0.73877 0.43458 0.26349 0.0
C2015 C 0.72867 0.41281 0.26809 0.0
C2016 C 0.70969 0.44986 0.28203 0.0
C2017 C 0.71002 0.41027 0.28096 0.0
C2018 C 0.6771 0.46505 0.29676 0.0
C2019 C 0.6937 0.5063 0.28064 0.0
N2020 N 0.7009 0.42861 0.28729 0.0
N2021 N 0.70494 0.48893 0.27856 0.0
H2022 H 0.86423 0.48028 0.52517 0.0
H2023 H 0.99366 0.48341 0.5142 0.0
H2024 H 0.88997 0.43516 0.47437 0.0
H2025 H 0.97009 0.5418 0.54574 0.0
H2026 H 0.95567 0.46037 0.5111 0.0
H2027 H 0.90305 0.49982 0.54087 0.0
C2028 C 0.87805 0.47476 0.51706 0.0
C2029 C 0.87413 0.45598 0.49866 0.0
C2030 C 0.95893 0.47805 0.51942 0.0
C2031 C 0.91799 0.4776 0.51693 0.0
C2032 C 0.98064 0.49099 0.5216 0.0
C2033 C 0.98454 0.51422 0.53029 0.0
C2034 C 0.94136 0.48879 0.52554 0.0
C2035 C 0.96726 0.52374 0.539 0.0
C2036 C 0.90008 0.48566 0.52627 0.0
C2037 C 0.89245 0.44936 0.48884 0.0
N2038 N 0.94602 0.51098 0.53597 0.0
N2039 N 0.91372 0.46016 0.49822 0.0
H2040 H 0.36825 0.09159 0.34666 0.0
H2041 H 0.34391 0.15315 0.23053 0.0
H2042 H 0.36938 0.06361 0.27203 0.0
H2043 H 0.30149 0.15392 0.28797 0.0
H2044 H 0.36709 0.13169 0.25387 0.0
H2045 H 0.35511 0.12473 0.33177 0.0
C2046 C 0.36575 0.09264 0.32722 0.0
C2047 C 0.36928 0.07517 0.31027 0.0
C2048 C 0.35288 0.13692 0.26144 0.0
C2049 C 0.35592 0.11252 0.2937 0.0
C2050 C 0.33963 0.14881 0.24811 0.0
C2051 C 0.32049 0.15425 0.2571 0.0
C2052 C 0.34664 0.13043 0.28359 0.0
C2053 C 0.31594 0.14933 0.28037 0.0
C2054 C 0.35854 0.11137 0.31887 0.0
C2055 C 0.36628 0.07681 0.28538 0.0
N2056 N 0.32877 0.13713 0.2928 0.0
N2057 N 0.3598 0.09536 0.27775 0.0
H2058 H 0.3132 0.14041 0.55774 0.0
H2059 H 0.42902 0.11122 0.51986 0.0
H2060 H 0.34362 0.16623 0.49708 0.0
H2061 H 0.39851 0.08937 0.58209 0.0
H2062 H 0.39628 0.12826 0.50817 0.0
H2063 H 0.34353 0.11962 0.56508 0.0
C2064 C 0.32639 0.14167 0.546 0.0
C2065 C 0.32617 0.15512 0.52699 0.0
C2066 C 0.39662 0.11946 0.52418 0.0
C2067 C 0.36063 0.13095 0.53474 0.0
C2068 C 0.41514 0.10961 0.53068 0.0
C2069 C 0.41632 0.09915 0.552 0.0
C2070 C 0.37933 0.11866 0.53917 0.0
C2071 C 0.39816 0.09751 0.56562 0.0
C2072 C 0.34364 0.12974 0.55008 0.0
C2073 C 0.34355 0.1563 0.51222 0.0
N2074 N 0.38048 0.10732 0.55906 0.0
N2075 N 0.36011 0.14423 0.51634 0.0
H2076 H 0.70138 0.61492 0.32906 0.0
H2077 H 0.74219 0.71655 0.25403 0.0
H2078 H 0.65458 0.64346 0.28363 0.0
H2079 H 0.77242 0.71937 0.32847 0.0
H2080 H 0.71453 0.68232 0.25885 0.0
H2081 H 0.73211 0.64675 0.32399 0.0
C2082 C 0.69758 0.62797 0.31818 0.0
C2083 C 0.67538 0.6269 0.30712 0.0
C2084 C 0.72743 0.69025 0.274 0.0
C2085 C 0.71036 0.66243 0.30046 0.0
C2086 C 0.74314 0.7097 0.27128 0.0
C2087 C 0.75914 0.72088 0.29106 0.0
C2088 C 0.72827 0.68156 0.29645 0.0
C2089 C 0.76019 0.71113 0.31286 0.0
C2090 C 0.71506 0.64598 0.31527 0.0
C2091 C 0.67137 0.64397 0.29289 0.0
N2092 N 0.74486 0.69192 0.31504 0.0
N2093 N 0.68873 0.66091 0.28975 0.0
H2094 H 0.86453 0.45864 0.77305 0.0
H2095 H 0.8159 0.34677 0.8298 0.0
H2096 H 0.88573 0.44601 0.84615 0.0
H2097 H 0.7963 0.35591 0.75512 0.0
H2098 H 0.83737 0.38579 0.83767 0.0
H2099 H 0.83626 0.42289 0.76697 0.0
C2100 C 0.86323 0.44806 0.78767 0.0
C2101 C 0.87755 0.45449 0.80983 0.0
C2102 C 0.82818 0.37951 0.81962 0.0
C2103 C 0.84525 0.41463 0.8035 0.0
C2104 C 0.81577 0.35741 0.81527 0.0
C2105 C 0.80435 0.34873 0.79198 0.0
C2106 C 0.82951 0.39262 0.80026 0.0
C2107 C 0.80503 0.36245 0.77332 0.0
C2108 C 0.84708 0.42793 0.78432 0.0
C2109 C 0.87529 0.44093 0.82856 0.0
N2110 N 0.81774 0.38393 0.77781 0.0
N2111 N 0.85929 0.42148 0.82497 0.0
H2112 H 0.0845 0.88513 0.12704 0.0
H2113 H 0.02995 0.95217 0.02376 0.0
H2114 H 0.05634 0.85037 0.05527 0.0
H2115 H 0.0778 0.98656 0.08581 0.0
H2116 H 0.03567 0.91504 0.03582 0.0
H2117 H 0.07892 0.92149 0.11346 0.0
C2118 C 0.07723 0.88499 0.10831 0.0
C2119 C 0.07128 0.86407 0.09243 0.0
C2120 C 0.04498 0.93067 0.04681 0.0
C2121 C 0.06403 0.90683 0.07649 0.0
C2122 C 0.04165 0.95214 0.03993 0.0
C2123 C 0.05341 0.97322 0.05351 0.0
C2124 C 0.05999 0.92966 0.06789 0.0
C2125 C 0.06828 0.97126 0.07439 0.0
C2126 C 0.07398 0.90602 0.10051 0.0
C2127 C 0.06165 0.8657 0.06835 0.0
N2128 N 0.07095 0.95028 0.08083 0.0
N2129 N 0.05821 0.88636 0.06133 0.0
H2130 H 0.94143 0.24292 0.89799 0.0
H2131 H 0.85791 0.31945 0.84088 0.0
H2132 H 0.94317 0.31269 0.92708 0.0
H2133 H 0.84434 0.2461 0.82455 0.0
H2134 H 0.89148 0.31788 0.86942 0.0
H2135 H 0.90842 0.24412 0.86817 0.0
C2136 C 0.93507 0.25857 0.89794 0.0
C2137 C 0.94516 0.27773 0.9152 0.0
C2138 C 0.88123 0.30208 0.85963 0.0
C2139 C 0.90738 0.27937 0.88074 0.0
C2140 C 0.86206 0.303 0.84326 0.0
C2141 C 0.84824 0.28288 0.83027 0.0
C2142 C 0.88698 0.28087 0.86302 0.0
C2143 C 0.85448 0.26203 0.83417 0.0
C2144 C 0.91611 0.25922 0.88096 0.0
C2145 C 0.93591 0.29745 0.91431 0.0
N2146 N 0.87332 0.26157 0.85004 0.0
N2147 N 0.91781 0.2978 0.89742 0.0
H2148 H 0.58047 0.23143 0.54986 0.0
H2149 H 0.53354 0.10743 0.59085 0.0
H2150 H 0.55288 0.22521 0.61763 0.0
H2151 H 0.56915 0.11737 0.52877 0.0
H2152 H 0.53873 0.14934 0.60059 0.0
H2153 H 0.57457 0.18984 0.54169 0.0
C2154 C 0.5731 0.22146 0.56318 0.0
C2155 C 0.56729 0.23258 0.58464 0.0
C2156 C 0.5456 0.14241 0.58494 0.0
C2157 C 0.5604 0.18343 0.57507 0.0
C2158 C 0.54264 0.11827 0.57929 0.0
C2159 C 0.55131 0.10826 0.5591 0.0
C2160 C 0.55708 0.15719 0.57016 0.0
C2161 C 0.56274 0.12377 0.54494 0.0
C2162 C 0.56976 0.19739 0.5584 0.0
C2163 C 0.55765 0.21792 0.60078 0.0
N2164 N 0.56517 0.14704 0.55063 0.0
N2165 N 0.55459 0.1944 0.59571 0.0
H2166 H 0.59203 0.78876 0.4481 0.0
H2167 H 0.63883 0.79055 0.31897 0.0
H2168 H 0.54957 0.76732 0.37874 0.0
H2169 H 0.68196 0.80726 0.38804 0.0
H2170 H 0.60644 0.77754 0.34042 0.0
H2171 H 0.62553 0.79198 0.42668 0.0
C2172 C 0.58975 0.78458 0.4284 0.0
C2173 C 0.56793 0.77783 0.41522 0.0
C2174 C 0.62306 0.78352 0.3509 0.0
C2175 C 0.60622 0.78165 0.39049 0.0
C2176 C 0.64158 0.79066 0.33859 0.0
C2177 C 0.66309 0.79963 0.35176 0.0
C2178 C 0.62604 0.78568 0.37662 0.0
C2179 C 0.66566 0.80012 0.37724 0.0
C2180 C 0.60889 0.78639 0.41615 0.0
C2181 C 0.56603 0.77256 0.38969 0.0
N2182 N 0.64735 0.79351 0.38887 0.0
N2183 N 0.58486 0.77478 0.37819 0.0
H2184 H 0.01722 0.24759 0.37713 0.0
H2185 H 0.0582 0.18114 0.48367 0.0
H2186 H 0.08321 0.2687 0.41948 0.0
H2187 H 0.99855 0.15481 0.43138 0.0
H2188 H 0.07053 0.21057 0.45764 0.0
H2189 H 0.01255 0.21103 0.39348 0.0
C2190 C 0.03114 0.24404 0.38907 0.0
C2191 C 0.05086 0.26085 0.39649 0.0
C2192 C 0.05499 0.19804 0.45157 0.0
C2193 C 0.04533 0.21944 0.41626 0.0
C2194 C 0.04804 0.1812 0.46638 0.0
C2195 C 0.02721 0.16576 0.45973 0.0
C2196 C 0.04093 0.1994 0.43007 0.0
C2197 C 0.01458 0.16661 0.43725 0.0
C2198 C 0.0284 0.22327 0.39866 0.0
C2199 C 0.06798 0.25589 0.41292 0.0
N2200 N 0.02147 0.1833 0.42342 0.0
N2201 N 0.06473 0.23575 0.42251 0.0
H2202 H 0.59847 0.27945 0.25639 0.0
H2203 H 0.72452 0.27658 0.22176 0.0
H2204 H 0.61362 0.25483 0.18554 0.0
H2205 H 0.7128 0.27881 0.29687 0.0
H2206 H 0.68361 0.27164 0.20931 0.0
H2207 H 0.6389 0.28191 0.27299 0.0
C2208 C 0.60992 0.27424 0.24432 0.0
C2209 C 0.60198 0.267 0.21921 0.0
C2210 C 0.68979 0.27322 0.22859 0.0
C2211 C 0.64899 0.27032 0.2382 0.0
C2212 C 0.71337 0.27605 0.23572 0.0
C2213 C 0.72252 0.27802 0.26045 0.0
C2214 C 0.6746 0.27294 0.24618 0.0
C2215 C 0.70675 0.27715 0.27755 0.0
C2216 C 0.63322 0.27581 0.25383 0.0
C2217 C 0.61837 0.26083 0.20485 0.0
N2218 N 0.68383 0.27495 0.2702 0.0
N2219 N 0.64054 0.26282 0.21432 0.0
H2220 H 0.57641 0.87251 0.93376 0.0
H2221 H 0.51843 0.98085 0.95693 0.0
H2222 H 0.53921 0.89676 0.87499 0.0
H2223 H 0.57247 0.96843 0.00725 0.0
H2224 H 0.52318 0.9489 0.92785 0.0
H2225 H 0.57287 0.90579 0.96156 0.0
C2226 C 0.56755 0.88493 0.92662 0.0
C2227 C 0.55832 0.88179 0.90179 0.0
C2228 C 0.53415 0.95322 0.94515 0.0
C2229 C 0.55357 0.92009 0.93412 0.0
C2230 C 0.53164 0.97176 0.96172 0.0
C2231 C 0.54555 0.97806 0.98441 0.0
C2232 C 0.55045 0.94029 0.95132 0.0
C2233 C 0.56134 0.9644 0.99007 0.0
C2234 C 0.56552 0.90399 0.9426 0.0
C2235 C 0.54694 0.89855 0.8938 0.0
N2236 N 0.56335 0.94631 0.97375 0.0
N2237 N 0.54469 0.91676 0.90991 0.0
H2238 H 0.97313 0.7602 0.76307 0.0
H2239 H 0.84135 0.76571 0.72234 0.0
H2240 H 0.9448 0.75972 0.68844 0.0
H2241 H 0.87307 0.78535 0.7968 0.0
H2242 H 0.87806 0.76053 0.71026 0.0
H2243 H 0.93669 0.76597 0.7762 0.0
C2244 C 0.95933 0.76106 0.74931 0.0
C2245 C 0.96257 0.75913 0.72436 0.0
C2246 C 0.87712 0.76587 0.72931 0.0
C2247 C 0.91986 0.76594 0.73962 0.0
C2248 C 0.85591 0.76881 0.73632 0.0
C2249 C 0.85347 0.77591 0.76085 0.0
C2250 C 0.89666 0.76949 0.74681 0.0
C2251 C 0.87361 0.77982 0.77771 0.0
C2252 C 0.93836 0.76452 0.75692 0.0
C2253 C 0.94358 0.7608 0.70781 0.0
N2254 N 0.89395 0.77639 0.77051 0.0
N2255 N 0.92345 0.76392 0.71561 0.0
H2256 H 0.09369 0.06884 0.84989 0.0
H2257 H 0.09914 0.02249 0.98085 0.0
H2258 H 0.14848 0.03942 0.87959 0.0
H2259 H 0.04672 0.05573 0.95254 0.0
H2260 H 0.11683 0.02727 0.94351 0.0
H2261 H 0.07603 0.06369 0.88711 0.0
C2262 C 0.10206 0.06137 0.86427 0.0
C2263 C 0.12269 0.05471 0.86158 0.0
C2264 C 0.10144 0.03351 0.94546 0.0
C2265 C 0.1023 0.04831 0.9043 0.0
C2266 C 0.0913 0.03072 0.96679 0.0
C2267 C 0.07133 0.03861 0.96994 0.0
C2268 C 0.0917 0.04446 0.92709 0.0
C2269 C 0.06197 0.04914 0.95096 0.0
C2270 C 0.09193 0.05836 0.88554 0.0
C2271 C 0.13271 0.04508 0.88091 0.0
N2272 N 0.07222 0.0518 0.93052 0.0
N2273 N 0.1224 0.04207 0.9013 0.0
H2274 H 0.76956 0.38976 0.55133 0.0
H2275 H 0.84721 0.38514 0.67385 0.0
H2276 H 0.83454 0.43431 0.57563 0.0
H2277 H 0.79551 0.32991 0.63458 0.0
H2278 H 0.83366 0.41147 0.64754 0.0
H2279 H 0.76959 0.37728 0.59186 0.0
C2280 C 0.78339 0.3975 0.56561 0.0
C2281 C 0.80215 0.41276 0.56051 0.0
C2282 C 0.82497 0.3937 0.6451 0.0
C2283 C 0.80273 0.39827 0.60608 0.0
C2284 C 0.83276 0.37878 0.65988 0.0
C2285 C 0.82272 0.35551 0.65558 0.0
C2286 C 0.80706 0.38506 0.62617 0.0
C2287 C 0.80387 0.34779 0.63782 0.0
C2288 C 0.78348 0.39038 0.5886 0.0
C2289 C 0.81984 0.42238 0.5792 0.0
N2290 N 0.79678 0.36254 0.62345 0.0
N2291 N 0.81997 0.41457 0.6012 0.0
H2292 H 0.40627 0.05116 0.40493 0.0
H2293 H 0.51067 1.00124 0.45753 0.0
H2294 H 0.4199 0.98635 0.3764 0.0
H2295 H 0.49289 0.06239 0.49114 0.0
H2296 H 0.47591 0.99433 0.42864 0.0
H2297 H 0.43474 0.05315 0.44022 0.0
C2298 C 0.4145 0.03683 0.40683 0.0
C2299 C 0.411 0.01857 0.38811 0.0
C2300 C 0.47948 0.00912 0.44253 0.0
C2301 C 0.4439 0.02104 0.42724 0.0
C2302 C 0.49939 0.01318 0.45869 0.0
C2303 C 0.50404 0.03201 0.47689 0.0
C2304 C 0.46453 0.02422 0.44461 0.0
C2305 C 0.48928 0.04722 0.47777 0.0
C2306 C 0.431 0.03811 0.42664 0.0
C2307 C 0.42236 1.00068 0.39066 0.0
N2308 N 0.47003 0.04294 0.46184 0.0
N2309 N 0.43871 1.00253 0.40975 0.0
H2310 H 0.74356 0.73529 0.08348 0.0
H2311 H 0.80822 0.73766 0.21784 0.0
H2312 H 0.79989 0.70176 0.09542 0.0
H2313 H 0.75942 0.77877 0.19964 0.0
H2314 H 0.80512 0.72285 0.17437 0.0
H2315 H 0.74813 0.74875 0.12676 0.0
C2316 C 0.75706 0.73078 0.09518 0.0
C2317 C 0.77152 0.7175 0.08544 0.0
C2318 C 0.79495 0.73497 0.17995 0.0
C2319 C 0.77689 0.73317 0.13597 0.0
C2320 C 0.79663 0.74344 0.20484 0.0
C2321 C 0.78359 0.7592 0.21277 0.0
C2322 C 0.77995 0.74208 0.16272 0.0
C2323 C 0.76935 0.76631 0.19479 0.0
C2324 C 0.75964 0.73855 0.12009 0.0
C2325 C 0.78834 0.71195 0.10196 0.0
N2326 N 0.76781 0.75761 0.17083 0.0
N2327 N 0.79063 0.71989 0.12641 0.0
H2328 H 0.07431 0.06257 0.73285 0.0
H2329 H 0.10038 0.03073 0.59622 0.0
H2330 H 0.13736 0.04418 0.71832 0.0
H2331 H 0.04348 0.05954 0.61433 0.0
H2332 H 0.11348 0.03295 0.64003 0.0
H2333 H 0.06204 0.05835 0.68921 0.0
C2334 C 0.08567 0.05761 0.72051 0.0
C2335 C 0.10709 0.05397 0.72957 0.0
C2336 C 0.09819 0.03887 0.63439 0.0
C2337 C 0.09288 0.04911 0.67877 0.0
C2338 C 0.09065 0.03762 0.60933 0.0
C2339 C 0.07081 0.04516 0.60134 0.0
C2340 C 0.08573 0.04751 0.65176 0.0
C2341 C 0.05899 0.05381 0.61936 0.0
C2342 C 0.07858 0.05522 0.69542 0.0
C2343 C 0.12074 0.04723 0.71234 0.0
N2344 N 0.06657 0.05468 0.64355 0.0
N2345 N 0.11346 0.04512 0.68779 0.0
H2346 H 0.82776 0.43195 0.41913 0.0
H2347 H 0.76197 0.32845 0.32574 0.0
H2348 H 0.77816 0.37881 0.44074 0.0
H2349 H 0.83248 0.32847 0.34704 0.0
H2350 H 0.76524 0.36216 0.35607 0.0
H2351 H 0.82699 0.40715 0.38031 0.0
C2352 C 0.81663 0.41522 0.41547 0.0
C2353 C 0.80308 0.40703 0.4327 0.0
C2354 C 0.78016 0.35531 0.35319 0.0
C2355 C 0.80156 0.37991 0.38929 0.0
C2356 C 0.77833 0.3363 0.33612 0.0
C2357 C 0.79718 0.32655 0.33386 0.0
C2358 C 0.80097 0.36431 0.36763 0.0
C2359 C 0.81782 0.33613 0.34833 0.0
C2360 C 0.81622 0.40132 0.39364 0.0
C2361 C 0.78894 0.3854 0.42773 0.0
N2362 N 0.81924 0.35476 0.3649 0.0
N2363 N 0.7884 0.37249 0.40621 0.0
H2364 H 0.40075 0.02934 0.24971 0.0
H2365 H 0.50231 0.02482 0.17209 0.0
H2366 H 0.47099 0.03739 0.27975 0.0
H2367 H 0.43251 0.99334 0.14614 0.0
H2368 H 0.49038 0.0439 0.20812 0.0
H2369 H 0.41214 0.03045 0.20888 0.0
C2370 C 0.4186 0.03189 0.2478 0.0
C2371 C 0.43497 0.03274 0.26801 0.0
C2372 C 0.47764 0.03324 0.19424 0.0
C2373 C 0.44794 0.03412 0.22166 0.0
C2374 C 0.48441 0.0224 0.17376 0.0
C2375 C 0.46831 1.00709 0.15669 0.0
C2376 C 0.45469 0.02865 0.19749 0.0
C2377 C 0.44537 1.00457 0.15941 0.0
C2378 C 0.42504 0.03251 0.22454 0.0
C2379 C 0.45782 0.03618 0.26456 0.0
N2380 N 0.43921 0.015 0.17974 0.0
N2381 N 0.46362 0.03642 0.24173 0.0
H2382 H 0.76856 0.73811 0.96899 0.0
H2383 H 0.79917 0.72797 0.83132 0.0
H2384 H 0.78067 0.67599 0.93114 0.0
H2385 H 0.7782 0.78663 0.86632 0.0
H2386 H 0.79447 0.70937 0.86816 0.0
H2387 H 0.77366 0.75659 0.93221 0.0
C2388 C 0.77213 0.72826 0.95289 0.0
C2389 C 0.77402 0.70534 0.95326 0.0
C2390 C 0.791 0.72636 0.86783 0.0
C2391 C 0.78019 0.72665 0.91082 0.0
C2392 C 0.79376 0.73707 0.84678 0.0
C2393 C 0.78925 0.75907 0.84557 0.0
C2394 C 0.78371 0.73766 0.88808 0.0
C2395 C 0.78214 0.76981 0.86631 0.0
C2396 C 0.7751 0.73888 0.93185 0.0
C2397 C 0.77887 0.69361 0.93177 0.0
N2398 N 0.77963 0.75906 0.88657 0.0
N2399 N 0.78184 0.70437 0.91154 0.0
H2400 H 0.8538 0.15014 0.06639 0.0
H2401 H 0.90075 0.03704 0.04133 0.0
H2402 H 0.82194 0.0846 0.08474 0.0
H2403 H 0.91679 0.09709 0.00546 0.0
H2404 H 0.88077 0.05791 0.06928 0.0
H2405 H 0.88638 0.13455 0.05741 0.0
C2406 C 0.85399 0.13266 0.06944 0.0
C2407 C 0.83495 0.11834 0.07568 0.0
C2408 C 0.88896 0.06657 0.05552 0.0
C2409 C 0.87209 0.10054 0.06531 0.0
C2410 C 0.9001 0.05469 0.03958 0.0
C2411 C 0.90951 0.06537 0.02085 0.0
C2412 C 0.88766 0.08921 0.05267 0.0
C2413 C 0.90897 0.08828 0.01935 0.0
C2414 C 0.8726 0.12378 0.06417 0.0
C2415 C 0.83617 0.09597 0.07947 0.0
N2416 N 0.89795 0.09947 0.03499 0.0
N2417 N 0.85435 0.08752 0.07369 0.0
H2418 H 0.3901 0.42352 0.07995 0.0
H2419 H 0.46517 0.51141 0.00747 0.0
H2420 H 0.37316 0.42824 0.00357 0.0
H2421 H 0.49167 0.48991 0.07442 0.0
H2422 H 0.4288 0.48575 0.00846 0.0
H2423 H 0.4248 0.45277 0.08105 0.0
C2424 C 0.39371 0.43086 0.06348 0.0
C2425 C 0.37903 0.42349 0.04159 0.0
C2426 C 0.44249 0.48682 0.02307 0.0
C2427 C 0.41838 0.4568 0.04265 0.0
C2428 C 0.4632 0.50159 0.02262 0.0
C2429 C 0.48142 0.50285 0.04097 0.0
C2430 C 0.43983 0.47349 0.04224 0.0
C2431 C 0.47805 0.48942 0.05992 0.0
C2432 C 0.41347 0.44745 0.06407 0.0
C2433 C 0.38423 0.4335 0.02073 0.0
N2434 N 0.45763 0.47534 0.06011 0.0
N2435 N 0.40351 0.44964 0.02175 0.0
H2436 H 0.4011 0.57258 0.73237 0.0
H2437 H 0.35046 0.64839 0.82925 0.0
H2438 H 0.42079 0.57963 0.81022 0.0
H2439 H 0.36462 0.67335 0.7615 0.0
H2440 H 0.36668 0.61518 0.81764 0.0
H2441 H 0.38018 0.60379 0.73867 0.0
C2442 C 0.40115 0.5809 0.75068 0.0
C2443 C 0.41286 0.57406 0.77083 0.0
C2444 C 0.36607 0.62784 0.80523 0.0
C2445 C 0.3884 0.6083 0.77815 0.0
C2446 C 0.35677 0.64664 0.81177 0.0
C2447 C 0.35671 0.66363 0.79645 0.0
C2448 C 0.37534 0.6261 0.78325 0.0
C2449 C 0.3646 0.66053 0.77378 0.0
C2450 C 0.38922 0.59848 0.75425 0.0
C2451 C 0.41229 0.58488 0.79426 0.0
N2452 N 0.37394 0.64214 0.76789 0.0
N2453 N 0.40001 0.60131 0.79732 0.0
H2454 H 0.2158 0.59218 0.51898 0.0
H2455 H 0.09696 0.57052 0.56995 0.0
H2456 H 0.19663 0.63623 0.57609 0.0
H2457 H 0.10668 0.53686 0.5005 0.0
H2458 H 0.13687 0.589 0.577 0.0
H2459 H 0.17855 0.56632 0.51586 0.0
C2460 C 0.20363 0.5963 0.53073 0.0
C2461 C 0.20854 0.61647 0.5472 0.0
C2462 C 0.13037 0.5776 0.56019 0.0
C2463 C 0.16709 0.58719 0.54447 0.0
C2464 C 0.10772 0.56723 0.55618 0.0
C2465 C 0.09898 0.55285 0.53443 0.0
C2466 C 0.14411 0.57366 0.54212 0.0
C2467 C 0.11319 0.54833 0.51725 0.0
C2468 C 0.18263 0.58163 0.52907 0.0
C2469 C 0.19288 0.62113 0.56259 0.0
N2470 N 0.1353 0.55902 0.52133 0.0
N2471 N 0.17275 0.60655 0.56083 0.0
H2472 H 0.73324 0.01428 0.78385 0.0
H2473 H 0.7804 0.91224 0.76989 0.0
H2474 H 0.7117 0.98218 0.7095 0.0
H2475 H 0.72501 0.91129 0.81267 0.0
H2476 H 0.76478 0.93808 0.74485 0.0
H2477 H 0.74281 0.97875 0.7947 0.0
C2478 C 0.73167 1.00002 0.76958 0.0
C2479 C 0.72248 1.00103 0.74566 0.0
C2480 C 0.75566 0.93135 0.75908 0.0
C2481 C 0.73274 0.96075 0.75795 0.0
C2482 C 0.76451 0.91675 0.77344 0.0
C2483 C 0.75417 0.91019 0.79374 0.0
C2484 C 0.73675 0.93943 0.76549 0.0
C2485 C 0.73377 0.9166 0.79764 0.0
C2486 C 0.73663 0.97978 0.77586 0.0
C2487 C 0.71941 0.98187 0.72796 0.0
N2488 N 0.72601 0.93151 0.78403 0.0
N2489 N 0.72473 0.96218 0.73444 0.0
H2490 H 0.77973 0.95777 0.54453 0.0
H2491 H 0.64534 0.94471 0.53373 0.0
H2492 H 0.73321 0.89452 0.54788 0.0
H2493 H 0.68984 1.00279 0.51401 0.0
H2494 H 0.67834 0.92923 0.54761 0.0
H2495 H 0.74786 0.9772 0.54094 0.0
C2496 C 0.76282 0.94807 0.545 0.0
C2497 C 0.75902 0.92452 0.54655 0.0
C2498 C 0.68095 0.94553 0.5406 0.0
C2499 C 0.72258 0.94663 0.54254 0.0
C2500 C 0.66218 0.95439 0.5329 0.0
C2501 C 0.66511 0.97495 0.52288 0.0
C2502 C 0.70272 0.95727 0.538 0.0
C2503 C 0.68709 0.98692 0.52186 0.0
C2504 C 0.74465 0.95915 0.54283 0.0
C2505 C 0.7368 0.91268 0.54665 0.0
N2506 N 0.70515 0.97777 0.52911 0.0
N2507 N 0.71938 0.92388 0.54464 0.0
H2508 H 0.38298 0.46771 0.78676 0.0
H2509 H 0.34464 0.33241 0.748 0.0
H2510 H 0.42445 0.42504 0.75452 0.0
H2511 H 0.31212 0.36848 0.80054 0.0
H2512 H 0.37035 0.36798 0.74511 0.0
H2513 H 0.35348 0.43329 0.78712 0.0
C2514 C 0.38573 0.45115 0.77946 0.0
C2515 C 0.40621 0.44915 0.77066 0.0
C2516 C 0.35757 0.36822 0.75723 0.0
C2517 C 0.37264 0.40998 0.77082 0.0
C2518 C 0.34276 0.34785 0.75888 0.0
C2519 C 0.32618 0.34733 0.77467 0.0
C2520 C 0.35587 0.38849 0.77131 0.0
C2521 C 0.32462 0.36806 0.78811 0.0
C2522 C 0.36899 0.43156 0.77983 0.0
C2523 C 0.40902 0.42733 0.76165 0.0
N2524 N 0.33935 0.38785 0.78619 0.0
N2525 N 0.39244 0.40867 0.76189 0.0
H2526 H 0.20731 0.63057 0.31132 0.0
H2527 H 0.27695 0.71694 0.23985 0.0
H2528 H 0.23577 0.60741 0.2476 0.0
H2529 H 0.28006 0.73022 0.31799 0.0
H2530 H 0.26093 0.67665 0.24149 0.0
H2531 H 0.23268 0.66791 0.31405 0.0
C2532 C 0.2193 0.63327 0.2983 0.0
C2533 C 0.21973 0.61609 0.27937 0.0
C2534 C 0.26521 0.68842 0.25831 0.0
C2535 C 0.24806 0.65839 0.28195 0.0
C2536 C 0.27422 0.71127 0.25735 0.0
C2537 C 0.27872 0.7268 0.27879 0.0
C2538 C 0.26057 0.68143 0.28084 0.0
C2539 C 0.27531 0.71894 0.30106 0.0
C2540 C 0.23371 0.65444 0.29985 0.0
C2541 C 0.23527 0.62026 0.26269 0.0
N2542 N 0.26602 0.6967 0.30155 0.0
N2543 N 0.24863 0.64125 0.26409 0.0
H2544 H 0.47832 0.69363 0.46564 0.0
H2545 H 0.56184 0.62668 0.53973 0.0
H2546 H 0.5469 0.72619 0.49477 0.0
H2547 H 0.50466 0.59109 0.48804 0.0
H2548 H 0.55556 0.66316 0.52696 0.0
H2549 H 0.48609 0.65689 0.47667 0.0
C2550 C 0.49511 0.69314 0.4742 0.0
C2551 C 0.51197 0.71344 0.4788 0.0
C2552 C 0.54435 0.64741 0.51832 0.0
C2553 C 0.52098 0.67065 0.49254 0.0
C2554 C 0.54804 0.62627 0.52561 0.0
C2555 C 0.53416 0.60505 0.51488 0.0
C2556 C 0.52604 0.64802 0.50048 0.0
C2557 C 0.51616 0.60656 0.49693 0.0
C2558 C 0.49956 0.67198 0.4806 0.0
C2559 C 0.53331 0.71124 0.49038 0.0
N2560 N 0.51259 0.62731 0.49061 0.0
N2561 N 0.53706 0.6906 0.49694 0.0
H2562 H 0.62826 0.32229 0.68052 0.0
H2563 H 0.73467 0.26261 0.70976 0.0
H2564 H 0.65684 0.28489 0.62551 0.0
H2565 H 0.72218 0.31708 0.75989 0.0
H2566 H 0.70329 0.26759 0.68047 0.0
H2567 H 0.65933 0.31804 0.71132 0.0
C2568 C 0.641 0.31322 0.67483 0.0
C2569 C 0.63986 0.30419 0.65008 0.0
C2570 C 0.70739 0.2786 0.6978 0.0
C2571 C 0.67539 0.29874 0.68562 0.0
C2572 C 0.7256 0.27592 0.71447 0.0
C2573 C 0.73175 0.28991 0.73709 0.0
C2574 C 0.69464 0.29521 0.70373 0.0
C2575 C 0.71822 0.30594 0.74266 0.0
C2576 C 0.65879 0.3108 0.69248 0.0
C2577 C 0.65698 0.29249 0.64412 0.0
N2578 N 0.70044 0.30819 0.72617 0.0
N2579 N 0.67373 0.29001 0.6616 0.0
H2580 H 0.02278 0.35364 0.93739 0.0
H2581 H 1.01024 0.45369 0.04162 0.0
H2582 H 1.00654 0.33799 0.00808 0.0
H2583 H 0.04185 0.4654 0.97715 0.0
H2584 H 1.00537 0.41203 0.02958 0.0
H2585 H 0.02644 0.39419 0.95129 0.0
C2586 C 0.01988 0.35857 0.95592 0.0
C2587 C 0.01428 0.34174 0.97138 0.0
C2588 C 0.01329 0.4237 0.018 0.0
C2589 C 0.01842 0.38957 0.98776 0.0
C2590 C 0.01589 0.44766 0.02477 0.0
C2591 C 0.02634 0.46359 0.01037 0.0
C2592 C 0.02088 0.41518 0.99637 0.0
C2593 C 0.03371 0.4542 0.98901 0.0
C2594 C 0.02206 0.38205 0.96392 0.0
C2595 C 1.01086 0.34997 0.99528 0.0
N2596 N 0.03074 0.431 0.98274 0.0
N2597 N 0.01288 0.37308 0.00263 0.0
H2598 H 0.99092 0.7777 0.1134 0.0
H2599 H 0.94029 0.80104 0.23925 0.0
H2600 H 0.03059 0.81376 0.18027 0.0
H2601 H 0.90442 0.75296 0.17788 0.0
H2602 H 0.97091 0.81248 0.21483 0.0
H2603 H 0.95688 0.77377 0.13416 0.0
C2604 C 0.99238 0.78495 0.13237 0.0
C2605 C 0.01354 0.79584 0.14525 0.0
C2606 C 0.9561 0.79981 0.20649 0.0
C2607 C 0.97478 0.79195 0.16893 0.0
C2608 C 0.93849 0.79359 0.22031 0.0
C2609 C 0.91975 0.77629 0.21039 0.0
C2610 C 0.95493 0.78855 0.18266 0.0
C2611 C 0.91849 0.76662 0.18599 0.0
C2612 C 0.973 0.78274 0.14421 0.0
C2613 C 0.0146 0.80491 0.16982 0.0
N2614 N 0.93594 0.77269 0.17304 0.0
N2615 N 0.99551 0.80281 0.18084 0.0
H2616 H 0.51828 0.29605 0.13692 0.0
H2617 H 0.57252 0.42734 0.13716 0.0
H2618 H 0.54645 0.34058 0.20385 0.0
H2619 H 0.5317 0.38424 0.0749 0.0
H2620 H 0.56111 0.39749 0.16291 0.0
H2621 H 0.52167 0.32904 0.1148 0.0
C2622 C 0.52528 0.31286 0.147 0.0
C2623 C 0.5323 0.31553 0.17228 0.0
C2624 C 0.55413 0.39479 0.14378 0.0
C2625 C 0.53636 0.3537 0.14682 0.0
C2626 C 0.56042 0.41192 0.12916 0.0
C2627 C 0.55265 0.40836 0.10401 0.0
C2628 C 0.54035 0.37377 0.13301 0.0
C2629 C 0.53765 0.38781 0.09431 0.0
C2630 C 0.52706 0.33176 0.13433 0.0
C2631 C 0.54089 0.33777 0.18437 0.0
N2632 N 0.53224 0.3712 0.10873 0.0
N2633 N 0.54296 0.35601 0.17146 0.0
H2634 H 0.98125 0.28365 0.33334 0.0
H2635 H 0.87093 0.34021 0.31028 0.0
H2636 H 0.98253 0.3553 0.35173 0.0
H2637 H 0.86648 0.26751 0.30515 0.0
H2638 H 0.91216 0.34618 0.32064 0.0
H2639 H 0.94053 0.27761 0.31772 0.0
C2640 C 0.97328 0.2983 0.33323 0.0
C2641 C 0.98589 0.32022 0.34322 0.0
C2642 C 0.90225 0.32887 0.31721 0.0
C2643 C 0.93845 0.31323 0.32606 0.0
C2644 C 0.8785 0.32544 0.31109 0.0
C2645 C 0.86469 0.30332 0.30659 0.0
C2646 C 0.91286 0.31005 0.31883 0.0
C2647 C 0.87604 0.28496 0.30853 0.0
C2648 C 0.9498 0.29476 0.32468 0.0
C2649 C 0.97393 0.33822 0.3436 0.0
N2650 N 0.89918 0.28871 0.31437 0.0
N2651 N 0.95121 0.33437 0.33526 0.0
H2652 H 0.99508 0.69694 0.62622 0.0
H2653 H 0.06073 0.59372 0.60498 0.0
H2654 H 0.04555 0.684 0.68059 0.0
H2655 H 1.00435 0.6021 0.55514 0.0
H2656 H 0.05502 0.62581 0.63328 0.0
H2657 H 0.99704 0.66148 0.60098 0.0
C2658 C 1.00575 0.68601 0.63346 0.0
C2659 C 0.01935 0.69308 0.65623 0.0
C2660 C 0.04378 0.62059 0.61623 0.0
C2661 C 0.02283 0.65272 0.62644 0.0
C2662 C 0.04689 0.602 0.60013 0.0
C2663 C 0.03274 0.59469 0.57773 0.0
C2664 C 0.02646 0.63235 0.60993 0.0
C2665 C 0.01583 0.60709 0.57202 0.0
C2666 C 1.00723 0.66593 0.61874 0.0
C2667 C 0.03397 0.67882 0.66376 0.0
N2668 N 0.01318 0.62516 0.58789 0.0
N2669 N 0.03546 0.65954 0.64892 0.0
H2670 H 0.60141 0.79106 0.80739 0.0
H2671 H 0.73917 0.82763 0.82909 0.0
H2672 H 0.63909 0.83977 0.86727 0.0
H2673 H 0.70344 0.77072 0.77649 0.0
H2674 H 0.70278 0.83344 0.84132 0.0
H2675 H 0.63758 0.78444 0.79435 0.0
C2676 C 0.61717 0.80059 0.81776 0.0
C2677 C 0.61667 0.81619 0.8386 0.0
C2678 C 0.70278 0.81957 0.82714 0.0
C2679 C 0.65904 0.80866 0.82335 0.0
C2680 C 0.7238 0.8162 0.82002 0.0
C2681 C 0.72506 0.79847 0.80158 0.0
C2682 C 0.68214 0.80527 0.8159 0.0
C2683 C 0.70391 0.78455 0.7908 0.0
C2684 C 0.63801 0.79668 0.81028 0.0
C2685 C 0.63814 0.82759 0.85115 0.0
N2686 N 0.68368 0.78822 0.798 0.0
N2687 N 0.65804 0.82375 0.84336 0.0
H2688 H 0.46756 0.48237 0.6942 0.0
H2689 H 0.51019 0.57085 0.60246 0.0
H2690 H 0.47381 0.55492 0.71317 0.0
H2691 H 0.52397 0.50305 0.60042 0.0
H2692 H 0.4926 0.56546 0.64005 0.0
H2693 H 0.48225 0.48929 0.65579 0.0
C2694 C 0.47186 0.49978 0.69011 0.0
C2695 C 0.46943 0.51807 0.70683 0.0
C2696 C 0.49932 0.55173 0.63125 0.0
C2697 C 0.48692 0.52627 0.66307 0.0
C2698 C 0.50926 0.55477 0.60982 0.0
C2699 C 0.51831 0.53727 0.5983 0.0
C2700 C 0.49785 0.53077 0.64072 0.0
C2701 C 0.51718 0.51695 0.60878 0.0
C2702 C 0.4804 0.50376 0.66827 0.0
C2703 C 0.47518 0.54032 0.7006 0.0
N2704 N 0.50691 0.51416 0.62915 0.0
N2705 N 0.48384 0.54385 0.67928 0.0
H2706 H 0.80076 0.19001 0.02026 0.0
H2707 H 0.74046 0.19064 0.88611 0.0
H2708 H 0.76171 0.1291 0.97556 0.0
H2709 H 0.76828 0.2505 0.93856 0.0
H2710 H 0.7561 0.16701 0.91422 0.0
H2711 H 0.79772 0.2112 0.98563 0.0
C2712 C 0.7918 0.18109 0.00288 0.0
C2713 C 0.78121 0.15803 1.00051 0.0
C2714 C 0.75895 0.18533 0.91941 0.0
C2715 C 0.77714 0.18212 0.96116 0.0
C2716 C 0.75002 0.19873 0.90352 0.0
C2717 C 0.75264 0.22229 0.91057 0.0
C2718 C 0.77071 0.19578 0.94222 0.0
C2719 C 0.76539 0.23223 0.93293 0.0
C2720 C 0.79005 0.19314 0.98317 0.0
C2721 C 0.77002 0.14697 0.97781 0.0
N2722 N 0.77384 0.21886 0.9481 0.0
N2723 N 0.76786 0.15932 0.95891 0.0
H2724 H 0.16197 0.52084 0.17945 0.0
H2725 H 0.07297 0.57255 0.10779 0.0
H2726 H 0.16674 0.59358 0.18197 0.0
H2727 H 0.08671 0.50761 0.07914 0.0
H2728 H 0.10827 0.57977 0.13571 0.0
H2729 H 0.13762 0.51489 0.1403 0.0
C2730 C 0.15888 0.5356 0.17101 0.0
C2731 C 0.16568 0.55767 0.1838 0.0
C2732 C 0.10365 0.56403 0.12313 0.0
C2733 C 0.13776 0.5511 0.14013 0.0
C2734 C 0.08336 0.55976 0.1077 0.0
C2735 C 0.07733 0.53962 0.09133 0.0
C2736 C 0.11748 0.54776 0.12241 0.0
C2737 C 0.09119 0.52348 0.09151 0.0
C2738 C 0.14483 0.53221 0.14888 0.0
C2739 C 0.16126 0.57631 0.17257 0.0
N2740 N 0.11074 0.52785 0.10702 0.0
N2741 N 0.14695 0.57258 0.15149 0.0
H2742 H 0.78421 0.83577 0.48195 0.0
H2743 H 0.8326 0.83323 0.35406 0.0
H2744 H 0.82807 0.89454 0.46267 0.0
H2745 H 0.76776 0.79251 0.36195 0.0
H2746 H 0.83493 0.85266 0.39566 0.0
H2747 H 0.78143 0.81659 0.43999 0.0
C2748 C 0.79344 0.84453 0.46892 0.0
C2749 C 0.80646 0.86674 0.4758 0.0
C2750 C 0.82018 0.83949 0.38827 0.0
C2751 C 0.80367 0.84473 0.42784 0.0
C2752 C 0.8189 0.82824 0.36454 0.0
C2753 C 0.80003 0.81101 0.35441 0.0
C2754 C 0.80262 0.83333 0.40229 0.0
C2755 C 0.78266 0.8056 0.36892 0.0
C2756 C 0.79173 0.83364 0.44495 0.0
C2757 C 0.81781 0.87744 0.45808 0.0
N2758 N 0.78446 0.81657 0.39213 0.0
N2759 N 0.81638 0.86625 0.43503 0.0
H2760 H 0.44269 0.54167 0.85379 0.0
H2761 H 0.53796 0.5054 0.94498 0.0
H2762 H 0.4884 0.50055 0.82804 0.0
H2763 H 0.49512 0.55161 0.9664 0.0
H2764 H 0.52024 0.50231 0.90243 0.0
H2765 H 0.46187 0.5446 0.89531 0.0
C2766 C 0.45664 0.53301 0.85693 0.0
C2767 C 0.46383 0.52068 0.83742 0.0
C2768 C 0.51479 0.51314 0.9165 0.0
C2769 C 0.486 0.52388 0.88527 0.0
C2770 C 0.52482 0.5148 0.94087 0.0
C2771 C 0.51774 0.52835 0.95959 0.0
C2772 C 0.49772 0.52534 0.91073 0.0
C2773 C 0.50096 0.54059 0.95284 0.0
C2774 C 0.46771 0.53479 0.8807 0.0
C2775 C 0.48232 0.51021 0.84258 0.0
N2776 N 0.49159 0.53875 0.92915 0.0
N2777 N 0.49269 0.51191 0.86603 0.0
H2778 H 0.76971 0.14972 0.14085 0.0
H2779 H 0.76419 0.2623 0.20408 0.0
H2780 H 0.79712 0.21024 0.10977 0.0
H2781 H 0.81863 0.23908 0.24449 0.0
H2782 H 0.76347 0.23232 0.17045 0.0
H2783 H 0.77816 0.17257 0.18178 0.0
C2784 C 0.77802 0.16758 0.14281 0.0
C2785 C 0.78204 0.17859 0.12227 0.0
C2786 C 0.77529 0.23374 0.18695 0.0
C2787 C 0.79192 0.20385 0.16777 0.0
C2788 C 0.77587 0.25081 0.20586 0.0
C2789 C 0.7916 0.25308 0.22673 0.0
C2790 C 0.7905 0.21906 0.18912 0.0
C2791 C 0.80626 0.23768 0.2285 0.0
C2792 C 0.78293 0.18039 0.16592 0.0
C2793 C 0.79308 0.20153 0.12532 0.0
N2794 N 0.80551 0.22116 0.20961 0.0
N2795 N 0.79724 0.21364 0.14775 0.0
H2796 H 0.17861 0.52813 0.3306 0.0
H2797 H 0.08279 0.5885 0.37802 0.0
H2798 H 0.13855 0.56694 0.28949 0.0
H2799 H 0.12928 0.5623 0.42629 0.0
H2800 H 0.0969 0.57057 0.34301 0.0
H2801 H 0.15594 0.53251 0.36426 0.0
C2802 C 0.16516 0.53761 0.32876 0.0
C2803 C 0.16041 0.5473 0.30745 0.0
C2804 C 0.104 0.56861 0.36123 0.0
C2805 C 0.13464 0.55205 0.3451 0.0
C2806 C 0.096 0.57887 0.38105 0.0
C2807 C 0.10571 0.57745 0.40462 0.0
C2808 C 0.12218 0.55748 0.36527 0.0
C2809 C 0.12207 0.56418 0.40808 0.0
C2810 C 0.15217 0.5399 0.34774 0.0
C2811 C 0.14275 0.55916 0.30558 0.0
N2812 N 0.13029 0.55501 0.38845 0.0
N2813 N 0.13059 0.56129 0.32424 0.0
H2814 H 0.79224 0.88642 0.61716 0.0
H2815 H 0.80308 0.78572 0.69941 0.0
H2816 H 0.82364 0.82905 0.59981 0.0
H2817 H 0.77725 0.84432 0.72657 0.0
H2818 H 0.80814 0.80165 0.6618 0.0
H2819 H 0.78463 0.8721 0.65625 0.0
C2820 C 0.7976 0.87096 0.62146 0.0
C2821 C 0.80866 0.85903 0.60488 0.0
C2822 C 0.80126 0.81116 0.6758 0.0
C2823 C 0.79985 0.84252 0.64948 0.0
C2824 C 0.79818 0.80191 0.69743 0.0
C2825 C 0.7894 0.81346 0.71633 0.0
C2826 C 0.79576 0.83242 0.67261 0.0
C2827 C 0.78393 0.83469 0.7125 0.0
C2828 C 0.79321 0.86279 0.64378 0.0
C2829 C 0.81507 0.83902 0.61163 0.0
N2830 N 0.78718 0.84351 0.69109 0.0
N2831 N 0.81057 0.83154 0.63311 0.0
H2832 H 0.76909 0.50027 0.50027 0.0
H2833 H 0.65787 0.47027 0.55682 0.0
H2834 H 0.72964 0.43142 0.49402 0.0
H2835 H 0.68286 0.53809 0.53961 0.0
H2836 H 0.68195 0.4553 0.5295 0.0
H2837 H 0.73573 0.51492 0.50996 0.0
C2838 C 0.75334 0.48835 0.50067 0.0
C2839 C 0.75204 0.46476 0.497 0.0
C2840 C 0.68189 0.47342 0.53133 0.0
C2841 C 0.71438 0.48104 0.50798 0.0
C2842 C 0.66841 0.48188 0.54709 0.0
C2843 C 0.66907 0.50533 0.55071 0.0
C2844 C 0.69634 0.48871 0.5197 0.0
C2845 C 0.68236 0.51987 0.5374 0.0
C2846 C 0.73432 0.49662 0.50594 0.0
C2847 C 0.73132 0.44981 0.4971 0.0
N2848 N 0.69592 0.51135 0.52272 0.0
N2849 N 0.71332 0.45823 0.50301 0.0
H2850 H 0.21657 0.12563 0.49072 0.0
H2851 H 0.11195 0.08714 0.5606 0.0
H2852 H 0.18507 0.17453 0.5294 0.0
H2853 H 0.11087 0.05443 0.48745 0.0
H2854 H 0.14595 0.11488 0.55578 0.0
H2855 H 0.1843 0.095 0.49492 0.0
C2856 C 0.20284 0.12993 0.49997 0.0
C2857 C 0.20332 0.15274 0.50942 0.0
C2858 C 0.13844 0.10145 0.5409 0.0
C2859 C 0.16705 0.1178 0.51503 0.0
C2860 C 0.11907 0.0857 0.54361 0.0
C2861 C 0.10842 0.06887 0.52422 0.0
C2862 C 0.1477 0.09991 0.51889 0.0
C2863 C 0.11868 0.0672 0.50283 0.0
C2864 C 0.18452 0.11248 0.50233 0.0
C2865 C 0.18521 0.1573 0.52147 0.0
N2866 N 0.13784 0.0826 0.50068 0.0
N2867 N 0.16799 0.13998 0.52418 0.0
H2868 H 0.14479 0.97651 0.79663 0.0
H2869 H 0.26192 0.94261 0.77069 0.0
H2870 H 0.20454 0.02357 0.78433 0.0
H2871 H 0.20024 0.89264 0.76807 0.0
H2872 H 0.24272 0.97257 0.78551 0.0
H2873 H 0.16597 0.94551 0.79392 0.0
C2874 C 0.16228 0.98029 0.79327 0.0
C2875 C 0.17284 1.00256 0.79038 0.0
C2876 C 0.23347 0.95499 0.7823 0.0
C2877 C 0.19715 0.96753 0.78784 0.0
C2878 C 0.24454 0.93793 0.77421 0.0
C2879 C 0.23258 0.91532 0.76845 0.0
C2880 C 0.21022 0.94933 0.7843 0.0
C2881 C 0.20995 0.90998 0.77264 0.0
C2882 C 0.17437 0.96268 0.79191 0.0
C2883 C 0.19561 1.00663 0.78644 0.0
N2884 N 0.19932 0.92697 0.78002 0.0
N2885 N 0.20695 0.9893 0.78524 0.0
H2886 H 0.36512 0.98449 0.98338 0.0
H2887 H 0.48813 0.99392 0.04829 0.0
H2888 H 0.38839 0.93232 0.02086 0.0
H2889 H 0.46642 0.0497 0.01613 0.0
H2890 H 0.44921 0.97567 0.04805 0.0
H2891 H 0.40002 0.01165 1.00118 0.0
C2892 C 0.37777 0.97883 0.99521 0.0
C2893 C 0.37459 0.95616 1.00012 0.0
C2894 C 0.45283 0.99214 0.04149 0.0
C2895 C 0.41351 0.98694 0.02127 0.0
C2896 C 0.47518 1.0028 0.04211 0.0
C2897 C 0.48048 0.02321 0.03216 0.0
C2898 C 0.43583 1.00145 0.02962 0.0
C2899 C 0.46295 0.03365 0.02357 0.0
C2900 C 0.39738 0.99432 0.00566 0.0
C2901 C 0.39085 0.9495 0.01596 0.0
N2902 N 0.44122 0.02223 0.02178 0.0
N2903 N 0.40972 0.96488 0.02598 0.0
H2904 H 0.82949 0.55195 0.79863 0.0
H2905 H 0.85515 0.67988 0.77802 0.0
H2906 H 0.891 0.60001 0.83016 0.0
H2907 H 0.79017 0.63459 0.75609 0.0
H2908 H 0.86577 0.6532 0.80527 0.0
H2909 H 0.81142 0.58384 0.79148 0.0
C2910 C 0.83905 0.56924 0.80428 0.0
C2911 C 0.86188 0.57356 0.81409 0.0
C2912 C 0.84909 0.64915 0.7947 0.0
C2913 C 0.84162 0.60982 0.80598 0.0
C2914 C 0.8433 0.66413 0.77897 0.0
C2915 C 0.8224 0.65844 0.76424 0.0
C2916 C 0.83382 0.62845 0.79517 0.0
C2917 C 0.80687 0.63872 0.76662 0.0
C2918 C 0.82874 0.58742 0.80041 0.0
C2919 C 0.87348 0.59609 0.82184 0.0
N2920 N 0.81307 0.62408 0.78156 0.0
N2921 N 0.86331 0.61351 0.81712 0.0
H2922 H 0.85011 0.68074 0.01464 0.0
H2923 H 0.8907 0.5692 0.05396 0.0
H2924 H 0.80591 0.62274 0.03537 0.0
H2925 H 0.93635 0.62941 0.04042 0.0
H2926 H 0.85852 0.58609 0.04038 0.0
H2927 H 0.88134 0.66032 0.01856 0.0
C2928 C 0.84702 0.6638 0.02016 0.0
C2929 C 0.82548 0.65353 0.02497 0.0
C2930 C 0.87556 0.59546 0.0399 0.0
C2931 C 0.86092 0.63 0.02917 0.0
C2932 C 0.89383 0.5857 0.04739 0.0
C2933 C 0.91597 0.59804 0.04813 0.0
C2934 C 0.87963 0.61771 0.03336 0.0
C2935 C 0.91939 0.61947 0.03992 0.0
C2936 C 0.86478 0.65209 0.02222 0.0
C2937 C 0.8223 0.63138 0.03166 0.0
N2938 N 0.90137 0.62879 0.03308 0.0
N2939 N 0.83983 0.62041 0.03365 0.0
H2940 H 0.18537 0.13444 0.84549 0.0
H2941 H 0.25698 0.20826 0.7573 0.0
H2942 H 0.17063 0.12238 0.76699 0.0
H2943 H 0.25703 0.23124 0.83351 0.0
H2944 H 0.22986 0.17312 0.76109 0.0
H2945 H 0.21632 0.16656 0.84211 0.0
C2946 C 0.1886 0.13876 0.82759 0.0
C2947 C 0.17532 0.1262 0.8065 0.0
C2948 C 0.23612 0.18566 0.77709 0.0
C2949 C 0.21062 0.16252 0.80239 0.0
C2950 C 0.25176 0.20552 0.77497 0.0
C2951 C 0.25927 0.22242 0.7952 0.0
C2952 C 0.2284 0.18256 0.79972 0.0
C2953 C 0.2516 0.21849 0.81755 0.0
C2954 C 0.20624 0.15697 0.82562 0.0
C2955 C 0.18043 0.13195 0.78365 0.0
N2956 N 0.23662 0.19895 0.81924 0.0
N2957 N 0.19762 0.14977 0.78217 0.0
H2958 H 0.35174 0.9655 0.28714 0.0
H2959 H 0.34052 0.83408 0.29697 0.0
H2960 H 0.39378 0.93533 0.33679 0.0
H2961 H 0.2811 0.86081 0.27663 0.0
H2962 H 0.36393 0.87123 0.29747 0.0
H2963 H 0.32826 0.92735 0.27276 0.0
C2964 C 0.35596 0.95088 0.29504 0.0
C2965 C 0.37489 0.95331 0.31286 0.0
C2966 C 0.34582 0.8689 0.29222 0.0
C2967 C 0.3487 0.9104 0.2963 0.0
C2968 C 0.33246 0.84751 0.29142 0.0
C2969 C 0.30901 0.84442 0.28614 0.0
C2970 C 0.33548 0.8874 0.28871 0.0
C2971 C 0.2993 0.86284 0.28056 0.0
C2972 C 0.34269 0.9293 0.28673 0.0
C2973 C 0.37966 0.93406 0.32262 0.0
N2974 N 0.31267 0.88395 0.28236 0.0
N2975 N 0.36663 0.91333 0.31412 0.0
H2976 H 0.58461 0.38558 0.62807 0.0
H2977 H 0.53095 0.45251 0.52411 0.0
H2978 H 0.5573 0.35078 0.55609 0.0
H2979 H 0.57828 0.48693 0.58656 0.0
H2980 H 0.53657 0.41538 0.53628 0.0
H2981 H 0.57901 0.42188 0.61435 0.0
C2982 C 0.57751 0.38541 0.60927 0.0
C2983 C 0.57181 0.3645 0.59338 0.0
C2984 C 0.5458 0.43102 0.54734 0.0
C2985 C 0.56457 0.40721 0.57727 0.0
C2986 C 0.54253 0.45249 0.54039 0.0
C2987 C 0.55419 0.47358 0.55404 0.0
C2988 C 0.56061 0.43002 0.56857 0.0
C2989 C 0.56887 0.47162 0.57508 0.0
C2990 C 0.57426 0.40641 0.60139 0.0
C2991 C 0.5624 0.3661 0.5692 0.0
N2992 N 0.57146 0.45065 0.58159 0.0
N2993 N 0.55897 0.38673 0.56209 0.0
H2994 H 0.43988 0.74333 0.3971 0.0
H2995 H 0.36187 0.82116 0.33412 0.0
H2996 H 0.44247 0.81326 0.42628 0.0
H2997 H 0.33981 0.74814 0.32872 0.0
H2998 H 0.39503 0.81903 0.36302 0.0
H2999 H 0.40705 0.74498 0.36722 0.0
C3000 C 0.43372 0.7591 0.3971 0.0
C3001 C 0.444 0.77816 0.41442 0.0
C3002 C 0.38304 0.80343 0.35544 0.0
C3003 C 0.40653 0.78034 0.37976 0.0
C3004 C 0.36412 0.80463 0.33881 0.0
C3005 C 0.34797 0.78479 0.32884 0.0
C3006 C 0.38637 0.78213 0.36185 0.0
C3007 C 0.35176 0.76387 0.33592 0.0
C3008 C 0.41487 0.76 0.38009 0.0
C3009 C 0.43505 0.79807 0.41348 0.0
N3010 N 0.37056 0.76306 0.35171 0.0
N3011 N 0.41713 0.79871 0.39646 0.0
H3012 H 0.04928 0.72571 0.11368 0.0
H3013 H 0.07238 0.61642 0.0273 0.0
H3014 H 0.0858 0.73124 0.05162 0.0
H3015 H 0.03299 0.60884 0.08688 0.0
H3016 H 0.078 0.65812 0.03676 0.0
H3017 H 0.0434 0.68357 0.10503 0.0
C3018 C 0.05599 0.71827 0.09817 0.0
C3019 C 0.06813 0.73271 0.08347 0.0
C3020 C 0.06823 0.64744 0.04796 0.0
C3021 C 0.06142 0.68355 0.07336 0.0
C3022 C 0.0652 0.62334 0.04268 0.0
C3023 C 0.0525 0.60842 0.05646 0.0
C3024 C 0.05853 0.65742 0.06733 0.0
C3025 C 0.04304 0.61919 0.07564 0.0
C3026 C 0.05265 0.694 0.09324 0.0
C3027 C 0.07639 0.72136 0.06371 0.0
N3028 N 0.04626 0.64266 0.08045 0.0
N3029 N 0.07294 0.69791 0.05937 0.0
H3030 H 0.09295 0.2956 0.9492 0.0
H3031 H 0.14055 0.28244 0.8205 0.0
H3032 H 0.05194 0.26166 0.8821 0.0
H3033 H 0.18131 0.31607 0.88763 0.0
H3034 H 0.10922 0.26979 0.84365 0.0
H3035 H 0.12652 0.29909 0.92799 0.0
C3036 C 0.09101 0.28867 0.93008 0.0
C3037 C 0.06953 0.27841 0.91743 0.0
C3038 C 0.12517 0.27949 0.85343 0.0
C3039 C 0.10797 0.28244 0.89289 0.0
C3040 C 0.14313 0.28644 0.84023 0.0
C3041 C 0.16357 0.30006 0.85226 0.0
C3042 C 0.12766 0.28642 0.87881 0.0
C3043 C 0.16586 0.30536 0.87776 0.0
C3044 C 0.11021 0.29067 0.91794 0.0
C3045 C 0.06812 0.26977 0.89262 0.0
N3046 N 0.14809 0.29875 0.89014 0.0
N3047 N 0.08699 0.27213 0.88116 0.0
H3048 H 0.57759 0.77966 0.9373 0.0
H3049 H 0.51488 0.64922 0.92435 0.0
H3050 H 0.53693 0.74371 0.87101 0.0
H3051 H 0.55675 0.68576 0.9896 0.0
H3052 H 0.52838 0.68102 0.90195 0.0
H3053 H 0.57588 0.7435 0.95392 0.0
C3054 C 0.56884 0.76396 0.92596 0.0
C3055 C 0.55754 0.76463 0.90268 0.0
C3056 C 0.53513 0.68189 0.92099 0.0
C3057 C 0.55483 0.72305 0.92193 0.0
C3058 C 0.52762 0.66362 0.93369 0.0
C3059 C 0.53499 0.66477 0.95874 0.0
C3060 C 0.5499 0.70164 0.93352 0.0
C3061 C 0.55099 0.68404 0.9702 0.0
C3062 C 0.56772 0.74331 0.93553 0.0
C3063 C 0.54616 0.74388 0.88888 0.0
N3064 N 0.55766 0.70185 0.9576 0.0
N3065 N 0.54477 0.72395 0.89888 0.0
H3066 H 0.0976 0.73061 0.71726 0.0
H3067 H 0.22065 0.81246 0.7633 0.0
H3068 H 0.10789 0.80355 0.73513 0.0
H3069 H 0.21088 0.73905 0.75214 0.0
H3070 H 0.17963 0.80912 0.7543 0.0
H3071 H 0.13794 0.73273 0.73166 0.0
C3072 C 0.10803 0.747 0.72528 0.0
C3073 C 0.09861 0.76678 0.72593 0.0
C3074 C 0.18632 0.79365 0.75383 0.0
C3075 C 0.14599 0.76959 0.74144 0.0
C3076 C 0.20999 0.79552 0.7589 0.0
C3077 C 0.21982 0.77599 0.75858 0.0
C3078 C 0.17167 0.77201 0.74799 0.0
C3079 C 0.2045 0.75465 0.75294 0.0
C3080 C 0.13134 0.74826 0.73313 0.0
C3081 C 0.1138 0.78766 0.7351 0.0
N3082 N 0.1815 0.75326 0.74778 0.0
N3083 N 0.1364 0.78849 0.74231 0.0
H3084 H 0.07403 0.37209 0.43696 0.0
H3085 H 0.01457 0.47966 0.45477 0.0
H3086 H 0.04246 0.39736 0.37518 0.0
H3087 H 0.06944 0.47056 0.50624 0.0
H3088 H 0.02085 0.44767 0.42668 0.0
H3089 H 0.06891 0.40545 0.46369 0.0
C3090 C 0.06605 0.38471 0.42894 0.0
C3091 C 0.05892 0.38188 0.40359 0.0
C3092 C 0.03166 0.45277 0.44403 0.0
C3093 C 0.05233 0.42024 0.43459 0.0
C3094 C 0.0283 0.47138 0.46 0.0
C3095 C 0.04195 0.47857 0.48275 0.0
C3096 C 0.04845 0.44061 0.45097 0.0
C3097 C 0.05841 0.46578 0.48904 0.0
C3098 C 0.06313 0.40382 0.4443 0.0
C3099 C 0.04857 0.39889 0.39447 0.0
N3100 N 0.06113 0.44755 0.47339 0.0
N3101 N 0.04538 0.41712 0.40992 0.0
H3102 H 0.47573 0.26113 0.26429 0.0
H3103 H 0.34384 0.26723 0.22393 0.0
H3104 H 0.4462 0.25808 0.18962 0.0
H3105 H 0.37569 0.28731 0.29829 0.0
H3106 H 0.38027 0.26123 0.21195 0.0
H3107 H 0.43953 0.26756 0.27769 0.0
C3108 C 0.46172 0.26152 0.25058 0.0
C3109 C 0.4646 0.25868 0.22552 0.0
C3110 C 0.37946 0.26688 0.23095 0.0
C3111 C 0.42213 0.26634 0.24112 0.0
C3112 C 0.35838 0.27033 0.23793 0.0
C3113 C 0.35599 0.27779 0.2624 0.0
C3114 C 0.39902 0.2704 0.2484 0.0
C3115 C 0.37615 0.28155 0.27924 0.0
C3116 C 0.44088 0.26539 0.25834 0.0
C3117 C 0.44532 0.25985 0.20907 0.0
N3118 N 0.3964 0.27769 0.27205 0.0
N3119 N 0.42536 0.26341 0.21703 0.0
H3120 H 0.5933 0.56777 0.35036 0.0
H3121 H 0.6003 0.523 0.4819 0.0
H3122 H 0.64955 0.54098 0.3812 0.0
H3123 H 0.54701 0.55501 0.45315 0.0
H3124 H 0.61779 0.52777 0.44445 0.0
H3125 H 0.57557 0.56226 0.38745 0.0
C3126 C 0.60196 0.56082 0.36498 0.0
C3127 C 0.62301 0.55499 0.3627 0.0
C3128 C 0.60224 0.53371 0.44635 0.0
C3129 C 0.60264 0.54822 0.40516 0.0
C3130 C 0.59223 0.53093 0.46771 0.0
C3131 C 0.57211 0.53851 0.47073 0.0
C3132 C 0.59216 0.5443 0.42788 0.0
C3133 C 0.56241 0.54868 0.45164 0.0
C3134 C 0.59181 0.55761 0.38615 0.0
C3135 C 0.63344 0.54598 0.38224 0.0
N3136 N 0.57253 0.55132 0.43117 0.0
N3137 N 0.62312 0.54278 0.40254 0.0
H3138 H 0.27283 0.90876 0.05755 0.0
H3139 H 0.32286 0.82496 0.12471 0.0
H3140 H 0.34418 0.90817 0.06409 0.0
H3141 H 0.31789 0.87985 0.17944 0.0
H3142 H 0.30808 0.8457 0.09309 0.0
H3143 H 0.27068 0.89133 0.09587 0.0
C3144 C 0.2881 0.9058 0.06761 0.0
C3145 C 0.30865 0.90945 0.0579 0.0
C3146 C 0.30944 0.85269 0.11216 0.0
C3147 C 0.30625 0.88986 0.1004 0.0
C3148 C 0.31808 0.84108 0.13003 0.0
C3149 C 0.32216 0.85118 0.15438 0.0
C3150 C 0.30535 0.87454 0.11883 0.0
C3151 C 0.3153 0.87185 0.16063 0.0
C3152 C 0.28681 0.89582 0.08914 0.0
C3153 C 0.32804 0.90531 0.07111 0.0
N3154 N 0.30791 0.8834 0.14275 0.0
N3155 N 0.32629 0.89527 0.09157 0.0
H3156 H 0.92227 0.48743 0.87036 0.0
H3157 H 0.9957 0.5664 0.98684 0.0
H3158 H 0.91481 0.55593 0.89419 0.0
H3159 H 1.00719 0.50027 0.95898 0.0
H3160 H 0.96403 0.56191 0.95455 0.0
H3161 H 0.94997 0.48964 0.90635 0.0
C3162 C 0.92613 0.50266 0.88365 0.0
C3163 C 0.91655 0.52151 0.87986 0.0
C3164 C 0.97338 0.54832 0.95555 0.0
C3165 C 0.94839 0.52462 0.9199 0.0
C3166 C 0.99142 0.55094 0.97382 0.0
C3167 C 1.00356 0.53351 0.9754 0.0
C3168 C 0.96747 0.52802 0.93917 0.0
C3169 C 0.99801 0.51401 0.95805 0.0
C3170 C 0.94201 0.50406 0.90394 0.0
C3171 C 0.92185 0.54102 0.89708 0.0
N3172 N 0.98006 0.51164 0.94063 0.0
N3173 N 0.93783 0.54226 0.91639 0.0
H3174 H 0.28462 0.18897 0.59649 0.0
H3175 H 0.27068 0.28821 0.70002 0.0
H3176 H 0.27027 0.25436 0.58247 0.0
H3177 H 0.29535 0.22849 0.71791 0.0
H3178 H 0.2691 0.27465 0.65668 0.0
H3179 H 0.28826 0.20192 0.64076 0.0
C3180 C 0.28242 0.20604 0.6026 0.0
C3181 C 0.27688 0.22044 0.58548 0.0
C3182 C 0.27487 0.26444 0.67003 0.0
C3183 C 0.28079 0.23529 0.63616 0.0
C3184 C 0.27564 0.27217 0.6949 0.0
C3185 C 0.28308 0.25952 0.71284 0.0
C3186 C 0.28151 0.24378 0.66275 0.0
C3187 C 0.28951 0.23889 0.70482 0.0
C3188 C 0.28441 0.21341 0.6279 0.0
C3189 C 0.27424 0.24241 0.59471 0.0
N3190 N 0.28854 0.23167 0.68047 0.0
N3191 N 0.27608 0.24901 0.61917 0.0
H3192 H 0.61281 0.59381 0.22921 0.0
H3193 H 0.5707 0.50948 0.10332 0.0
H3194 H 0.61005 0.52128 0.22439 0.0
H3195 H 0.57129 0.58152 0.11214 0.0
H3196 H 0.58618 0.51287 0.14671 0.0
H3197 H 0.59979 0.58939 0.18547 0.0
C3198 C 0.6095 0.57691 0.21882 0.0
C3199 C 0.61241 0.5579 0.23043 0.0
C3200 C 0.58286 0.52796 0.13916 0.0
C3201 C 0.59693 0.55251 0.18015 0.0
C3202 C 0.57401 0.52605 0.11441 0.0
C3203 C 0.56931 0.5453 0.10415 0.0
C3204 C 0.58742 0.54939 0.1537 0.0
C3205 C 0.57394 0.56625 0.11933 0.0
C3206 C 0.60199 0.57436 0.19383 0.0
C3207 C 0.60813 0.53641 0.21608 0.0
N3208 N 0.58278 0.56777 0.1432 0.0
N3209 N 0.60037 0.53424 0.19169 0.0
H3210 H 0.26859 0.88459 0.93692 0.0
H3211 H 0.33151 0.82435 0.8485 0.0
H3212 H 0.32938 0.92632 0.91947 0.0
H3213 H 0.26181 0.82692 0.82556 0.0
H3214 H 0.33381 0.85724 0.88011 0.0
H3215 H 0.26784 0.8575 0.90063 0.0
C3216 C 0.28145 0.88817 0.92498 0.0
C3217 C 0.29885 0.90753 0.93044 0.0
C3218 C 0.31821 0.85058 0.86785 0.0
C3219 C 0.2985 0.87684 0.89015 0.0
C3220 C 0.3168 0.83184 0.85033 0.0
C3221 C 0.29651 0.82344 0.83473 0.0
C3222 C 0.29892 0.85981 0.86999 0.0
C3223 C 0.27777 0.83338 0.83725 0.0
C3224 C 0.28106 0.87284 0.90456 0.0
C3225 C 0.31556 0.91157 0.91515 0.0
N3226 N 0.27931 0.851 0.85494 0.0
N3227 N 0.31523 0.89593 0.89554 0.0
H3228 H 0.89829 0.50734 0.73895 0.0
H3229 H 1.00619 0.52833 0.67592 0.0
H3230 H 0.95737 0.55955 0.76731 0.0
H3231 H 0.94256 0.48844 0.63877 0.0
H3232 H 0.98601 0.54659 0.7054 0.0
H3233 H 0.91055 0.50637 0.69845 0.0
C3234 C 0.91338 0.51926 0.73629 0.0
C3235 C 0.92713 0.53337 0.75616 0.0
C3236 C 0.9763 0.53418 0.69057 0.0
C3237 C 0.94135 0.53224 0.71047 0.0
C3238 C 0.98787 0.52372 0.67395 0.0
C3239 C 0.97587 0.50654 0.65569 0.0
C3240 C 0.95272 0.52683 0.68916 0.0
C3241 C 0.95222 0.50131 0.65319 0.0
C3242 C 0.92041 0.5187 0.71326 0.0
C3243 C 0.94663 0.54826 0.75224 0.0
N3244 N 0.94133 0.51106 0.6702 0.0
N3245 N 0.95339 0.54709 0.72981 0.0
H3246 H 0.24773 0.18204 0.43068 0.0
H3247 H 0.32369 0.26283 0.356 0.0
H3248 H 0.3024 0.23425 0.46995 0.0
H3249 H 0.25131 0.25607 0.34303 0.0
H3250 H 0.31948 0.24513 0.39381 0.0
H3251 H 0.2516 0.2011 0.39363 0.0
C3252 C 0.26057 0.19744 0.43147 0.0
C3253 C 0.27462 0.20671 0.45346 0.0
C3254 C 0.30454 0.24735 0.38252 0.0
C3255 C 0.27965 0.22805 0.41107 0.0
C3256 C 0.30692 0.25739 0.36097 0.0
C3257 C 0.28779 0.26058 0.34616 0.0
C3258 C 0.28282 0.23966 0.38882 0.0
C3259 C 0.26646 0.25356 0.35371 0.0
C3260 C 0.26272 0.20831 0.4104 0.0
C3261 C 0.29105 0.22669 0.45344 0.0
N3262 N 0.26449 0.24304 0.3742 0.0
N3263 N 0.29334 0.23651 0.43255 0.0
H3264 H 0.34045 0.60375 0.60487 0.0
H3265 H 0.41257 0.59496 0.49573 0.0
H3266 H 0.31969 0.6088 0.52916 0.0
H3267 H 0.40974 0.54304 0.54389 0.0
H3268 H 0.39001 0.61466 0.52126 0.0
H3269 H 0.37529 0.59205 0.59305 0.0
C3270 C 0.34314 0.60192 0.58586 0.0
C3271 C 0.32744 0.60653 0.5677 0.0
C3272 C 0.39482 0.5992 0.52647 0.0
C3273 C 0.36675 0.59544 0.55482 0.0
C3274 C 0.40729 0.58793 0.51183 0.0
C3275 C 0.41181 0.56705 0.51734 0.0
C3276 C 0.38654 0.58907 0.54616 0.0
C3277 C 0.40568 0.55885 0.53887 0.0
C3278 C 0.36291 0.59575 0.57928 0.0
C3279 C 0.33143 0.60482 0.54343 0.0
N3280 N 0.39263 0.56964 0.55236 0.0
N3281 N 0.35088 0.59959 0.53768 0.0
H3282 H 0.86255 0.94945 0.53522 0.0
H3283 H 0.99719 0.98114 0.56136 0.0
H3284 H 0.90414 0.89977 0.54658 0.0
H3285 H 0.96042 0.01943 0.51584 0.0
H3286 H 0.96198 0.95467 0.56326 0.0
H3287 H 0.89706 0.97865 0.53518 0.0
C3288 C 0.8789 0.9447 0.53787 0.0
C3289 C 0.88044 0.92204 0.54077 0.0
C3290 C 0.96156 0.96893 0.55296 0.0
C3291 C 0.91981 0.95538 0.54098 0.0
C3292 C 0.98171 0.98417 0.55186 0.0
C3293 C 0.98194 1.00261 0.53826 0.0
C3294 C 0.94119 0.97223 0.54083 0.0
C3295 C 0.96112 1.00553 0.52657 0.0
C3296 C 0.89852 0.96134 0.53769 0.0
C3297 C 0.90208 0.91691 0.54408 0.0
N3298 N 0.94153 0.99051 0.52816 0.0
N3299 N 0.92085 0.93343 0.54421 0.0
H3300 H 0.94244 0.09904 0.28478 0.0
H3301 H 0.82452 0.13947 0.27335 0.0
H3302 H 0.87934 0.05619 0.2494 0.0
H3303 H 0.88734 0.18165 0.30975 0.0
H3304 H 0.84548 0.11124 0.25756 0.0
H3305 H 0.92379 0.13165 0.28793 0.0
C3306 C 0.92477 0.09658 0.27728 0.0
C3307 C 0.9124 0.07487 0.26693 0.0
C3308 C 0.85479 0.12693 0.26846 0.0
C3309 C 0.89089 0.11204 0.27059 0.0
C3310 C 0.84284 0.1431 0.27719 0.0
C3311 C 0.85436 0.1628 0.29264 0.0
C3312 C 0.87833 0.13055 0.27546 0.0
C3313 C 0.87799 0.16664 0.29769 0.0
C3314 C 0.9141 0.11519 0.27912 0.0
C3315 C 0.88951 0.07263 0.25763 0.0
N3316 N 0.8892 0.1505 0.28939 0.0
N3317 N 0.87943 0.09093 0.2599 0.0
H3318 H 0.7044 0.10225 0.99629 0.0
H3319 H 0.59943 0.08473 0.06568 0.0
H3320 H 0.70995 0.10325 0.0745 0.0
H3321 H 0.59782 0.0366 0.00175 0.0
H3322 H 0.63925 0.10057 0.06337 0.0
H3323 H 0.66433 0.08306 0.9929 0.0
C3324 C 0.69726 0.0977 0.01256 0.0
C3325 C 0.71007 0.10405 0.03565 0.0
C3326 C 0.62995 0.08693 0.0495 0.0
C3327 C 0.66497 0.08382 0.03208 0.0
C3328 C 0.60732 0.0783 0.05053 0.0
C3329 C 0.59567 0.05991 0.03351 0.0
C3330 C 0.64064 0.07695 0.03133 0.0
C3331 C 0.60641 0.05136 0.01462 0.0
C3332 C 0.67459 0.08705 0.01065 0.0
C3333 C 0.70042 0.09829 0.05641 0.0
N3334 N 0.62863 0.05996 0.01402 0.0
N3335 N 0.6781 0.08892 0.0542 0.0
H3336 H 0.17813 0.47009 0.24269 0.0
H3337 H 0.29061 0.42784 0.28042 0.0
H3338 H 0.24504 0.50678 0.23521 0.0
H3339 H 0.22518 0.40134 0.30101 0.0
H3340 H 0.27267 0.44902 0.25132 0.0
H3341 H 0.19367 0.43682 0.25017 0.0
C3342 C 0.196 0.47089 0.24178 0.0
C3343 C 0.21052 0.4913 0.23899 0.0
C3344 C 0.2622 0.43822 0.26186 0.0
C3345 C 0.22834 0.45351 0.24785 0.0
C3346 C 0.2724 0.42632 0.27846 0.0
C3347 C 0.25922 0.41356 0.29334 0.0
C3348 C 0.23878 0.43707 0.26026 0.0
C3349 C 0.23579 0.41164 0.29017 0.0
C3350 C 0.20487 0.4519 0.24615 0.0
C3351 C 0.23344 0.49141 0.23785 0.0
N3352 N 0.22627 0.42355 0.27408 0.0
N3353 N 0.24182 0.47285 0.24286 0.0
H3354 H 0.23118 0.38968 0.03445 0.0
H3355 H 0.19171 0.50863 0.03672 0.0
H3356 H 0.27573 0.45504 0.06002 0.0
H3357 H 0.14665 0.44322 0.01472 0.0
H3358 H 0.22145 0.48916 0.05168 0.0
H3359 H 0.19893 0.4086 0.03256 0.0
C3360 C 0.23414 0.40797 0.03997 0.0
C3361 C 0.25616 0.42082 0.04727 0.0
C3362 C 0.20488 0.47904 0.04423 0.0
C3363 C 0.21939 0.44263 0.04505 0.0
C3364 C 0.18789 0.49018 0.036 0.0
C3365 C 0.16683 0.4774 0.02484 0.0
C3366 C 0.2007 0.45499 0.04093 0.0
C3367 C 0.16271 0.45355 0.02355 0.0
C3368 C 0.21573 0.41877 0.03891 0.0
C3369 C 0.25903 0.44447 0.05423 0.0
N3370 N 0.17962 0.44305 0.0312 0.0
N3371 N 0.24088 0.45464 0.0527 0.0
H3372 H 0.89102 0.96428 0.30283 0.0
H3373 H 0.83904 0.83467 0.24273 0.0
H3374 H 0.91495 0.92997 0.24188 0.0
H3375 H 0.81731 0.86573 0.30727 0.0
H3376 H 0.86458 0.87073 0.24037 0.0
H3377 H 0.86183 0.92973 0.3032 0.0
C3378 C 0.88982 0.94955 0.28929 0.0
C3379 C 0.90532 0.94982 0.2723 0.0
C3380 C 0.85421 0.86978 0.25503 0.0
C3381 C 0.87207 0.91043 0.27246 0.0
C3382 C 0.83958 0.84915 0.25639 0.0
C3383 C 0.82601 0.84717 0.27524 0.0
C3384 C 0.85552 0.88868 0.27276 0.0
C3385 C 0.82736 0.86657 0.29232 0.0
C3386 C 0.87327 0.92984 0.28956 0.0
C3387 C 0.90337 0.93031 0.25534 0.0
N3388 N 0.84197 0.88649 0.29078 0.0
N3389 N 0.88704 0.91144 0.25582 0.0
H3390 H 0.73768 0.11241 0.79439 0.0
H3391 H 0.73921 0.23975 0.7654 0.0
H3392 H 0.68325 0.1344 0.75292 0.0
H3393 H 0.79886 0.21865 0.79655 0.0
H3394 H 0.71687 0.202 0.76728 0.0
H3395 H 0.75977 0.15192 0.80017 0.0
C3396 C 0.7305 0.12562 0.78656 0.0
C3397 C 0.70861 0.12062 0.77372 0.0
C3398 C 0.73475 0.20566 0.77421 0.0
C3399 C 0.73331 0.16505 0.78001 0.0
C3400 C 0.74734 0.22727 0.77346 0.0
C3401 C 0.77056 0.23197 0.7812 0.0
C3402 C 0.74568 0.18877 0.78248 0.0
C3403 C 0.78078 0.21528 0.79065 0.0
C3404 C 0.74296 0.14801 0.78989 0.0
C3405 C 0.69989 0.13792 0.76358 0.0
N3406 N 0.76822 0.19412 0.79091 0.0
N3407 N 0.71231 0.15942 0.76694 0.0
loop_
_geom_bond_atom_site_label_1
_geom_bond_atom_site_label_2
_geom_bond_distance
_geom_bond_site_symmetry_2
_ccdc_geom_bond_type
Co0 O1 2.216 . S
Co0 O2 2.091 . S
Co0 O4 2.004 . S
Co0 O10 2.021 . S
Co0 O12 2.137 . S
Co0 O13 2.244 . S
O1 Co0 2.216 . S
O1 C8 1.247 . S
O2 Co0 2.091 . S
O2 C8 1.261 . S
C3 O12 1.247 . S
C3 O13 1.272 . S
O4 Co0 2.004 . S
O4 C9 1.259 1_455 S
Co5 O6 2.061 1_455 S
Co5 O11 2.052 . S
Co5 O13 2.135 . S
O6 Co5 2.061 1_655 S
O6 C9 1.235 . S
C7 O10 1.238 . S
C7 O11 1.241 . S
C8 O1 1.247 . S
C8 O2 1.261 . S
C9 O4 1.259 1_655 S
C9 O6 1.235 . S
O10 Co0 2.021 . S
O10 C7 1.238 . S
O11 Co5 2.052 . S
O11 C7 1.241 . S
O12 Co0 2.137 . S
O12 C3 1.247 . S
O13 Co0 2.244 . S
O13 C3 1.272 . S
O13 Co5 2.135 . S
Co14 O15 2.216 1_455 S
Co14 O16 2.091 1_455 S
Co14 O18 2.004 . S
Co14 O24 2.021 . S
Co14 O26 2.137 . S
Co14 O27 2.244 . S
O15 Co14 2.216 1_655 S
O15 C22 1.247 . S
O16 Co14 2.091 1_655 S
O16 C22 1.261 . S
C17 O26 1.247 . S
C17 O27 1.272 . S
O18 Co14 2.004 . S
O18 C23 1.259 . S
Co19 O20 2.061 . S
Co19 O25 2.052 . S
Co19 O27 2.135 . S
O20 Co19 2.061 . S
O20 C23 1.235 . S
C21 O24 1.238 . S
C21 O25 1.241 . S
C22 O15 1.247 . S
C22 O16 1.261 . S
C23 O18 1.259 . S
C23 O20 1.235 . S
O24 Co14 2.021 . S
O24 C21 1.238 . S
O25 Co19 2.052 . S
O25 C21 1.241 . S
O26 Co14 2.137 . S
O26 C17 1.247 . S
O27 Co14 2.244 . S
O27 C17 1.272 . S
O27 Co19 2.135 . S
Co28 O29 2.216 . S
Co28 O30 2.091 . S
Co28 O32 2.004 . S
Co28 O38 2.021 . S
Co28 O40 2.137 . S
Co28 O41 2.244 . S
O29 Co28 2.216 . S
O29 C36 1.247 . S
O30 Co28 2.091 . S
O30 C36 1.261 . S
C31 O40 1.247 . S
C31 O41 1.272 . S
O32 Co28 2.004 . S
O32 C37 1.259 . S
Co33 O34 2.061 . S
Co33 O39 2.052 . S
Co33 O41 2.135 . S
O34 Co33 2.061 . S
O34 C37 1.235 . S
C35 O38 1.238 . S
C35 O39 1.241 . S
C36 O29 1.247 . S
C36 O30 1.261 . S
C37 O32 1.259 . S
C37 O34 1.235 . S
O38 Co28 2.021 . S
O38 C35 1.238 . S
O39 Co33 2.052 . S
O39 C35 1.241 . S
O40 Co28 2.137 . S
O40 C31 1.247 . S
O41 Co28 2.244 . S
O41 C31 1.272 . S
O41 Co33 2.135 . S
Co42 O43 2.216 . S
Co42 O44 2.091 . S
Co42 O46 2.004 . S
Co42 O52 2.021 . S
Co42 O54 2.137 . S
Co42 O55 2.244 . S
O43 Co42 2.216 . S
O43 C50 1.247 . S
O44 Co42 2.091 . S
O44 C50 1.261 . S
C45 O54 1.247 . S
C45 O55 1.272 . S
O46 Co42 2.004 . S
O46 C51 1.259 . S
Co47 O48 2.061 . S
Co47 O53 2.052 . S
Co47 O55 2.135 . S
O48 Co47 2.061 . S
O48 C51 1.235 . S
C49 O52 1.238 . S
C49 O53 1.241 . S
C50 O43 1.247 . S
C50 O44 1.261 . S
C51 O46 1.259 . S
C51 O48 1.235 . S
O52 Co42 2.021 . S
O52 C49 1.238 . S
O53 Co47 2.052 . S
O53 C49 1.241 . S
O54 Co42 2.137 . S
O54 C45 1.247 . S
O55 Co42 2.244 . S
O55 C45 1.272 . S
O55 Co47 2.135 . S
Co56 O57 2.216 . S
Co56 O58 2.091 . S
Co56 O60 2.004 . S
Co56 O66 2.021 . S
Co56 O68 2.137 . S
Co56 O69 2.244 . S
O57 Co56 2.216 . S
O57 C64 1.247 . S
O58 Co56 2.091 . S
O58 C64 1.261 . S
C59 O68 1.247 . S
C59 O69 1.272 . S
O60 Co56 2.004 . S
O60 C65 1.259 . S
Co61 O62 2.061 . S
Co61 O67 2.052 . S
Co61 O69 2.135 . S
O62 Co61 2.061 . S
O62 C65 1.235 . S
C63 O66 1.238 . S
C63 O67 1.241 . S
C64 O57 1.247 . S
C64 O58 1.261 . S
C65 O60 1.259 . S
C65 O62 1.235 . S
O66 Co56 2.021 . S
O66 C63 1.238 . S
O67 Co61 2.052 . S
O67 C63 1.241 . S
O68 Co56 2.137 . S
O68 C59 1.247 . S
O69 Co56 2.244 . S
O69 C59 1.272 . S
O69 Co61 2.135 . S
Co70 O71 2.216 . S
Co70 O72 2.091 . S
Co70 O74 2.004 . S
Co70 O80 2.021 . S
Co70 O82 2.137 . S
Co70 O83 2.244 . S
O71 Co70 2.216 . S
O71 C78 1.247 . S
O72 Co70 2.091 . S
O72 C78 1.261 . S
C73 O82 1.247 . S
C73 O83 1.272 . S
O74 Co70 2.004 . S
O74 C79 1.259 . S
Co75 O76 2.061 . S
Co75 O81 2.052 . S
Co75 O83 2.135 . S
O76 Co75 2.061 . S
O76 C79 1.235 . S
C77 O80 1.238 . S
C77 O81 1.241 . S
C78 O71 1.247 . S
C78 O72 1.261 . S
C79 O74 1.259 . S
C79 O76 1.235 . S
O80 Co70 2.021 . S
O80 C77 1.238 . S
O81 Co75 2.052 . S
O81 C77 1.241 . S
O82 Co70 2.137 . S
O82 C73 1.247 . S
O83 Co70 2.244 . S
O83 C73 1.272 . S
O83 Co75 2.135 . S
Co84 O85 2.216 . S
Co84 O86 2.091 . S
Co84 O88 2.004 . S
Co84 O94 2.021 . S
Co84 O96 2.137 . S
Co84 O97 2.244 . S
O85 Co84 2.216 . S
O85 C92 1.247 . S
O86 Co84 2.091 . S
O86 C92 1.261 . S
C87 O96 1.247 . S
C87 O97 1.272 . S
O88 Co84 2.004 . S
O88 C93 1.259 . S
Co89 O90 2.061 . S
Co89 O95 2.052 . S
Co89 O97 2.135 . S
O90 Co89 2.061 . S
O90 C93 1.235 . S
C91 O94 1.238 . S
C91 O95 1.241 . S
C92 O85 1.247 . S
C92 O86 1.261 . S
C93 O88 1.259 . S
C93 O90 1.235 . S
O94 Co84 2.021 . S
O94 C91 1.238 . S
O95 Co89 2.052 . S
O95 C91 1.241 . S
O96 Co84 2.137 . S
O96 C87 1.247 . S
O97 Co84 2.244 . S
O97 C87 1.272 . S
O97 Co89 2.135 . S
Co98 O99 2.216 . S
Co98 O100 2.091 . S
Co98 O102 2.004 1_455 S
Co98 O108 2.021 1_455 S
Co98 O110 2.137 . S
Co98 O111 2.244 1_455 S
O99 Co98 2.216 . S
O99 C106 1.247 . S
O100 Co98 2.091 . S
O100 C106 1.261 . S
C101 O110 1.247 . S
C101 O111 1.272 1_455 S
O102 Co98 2.004 1_655 S
O102 C107 1.259 . S
Co103 O104 2.061 . S
Co103 O109 2.052 . S
Co103 O111 2.135 . S
O104 Co103 2.061 . S
O104 C107 1.235 . S
C105 O108 1.238 . S
C105 O109 1.241 . S
C106 O99 1.247 . S
C106 O100 1.261 . S
C107 O102 1.259 . S
C107 O104 1.235 . S
O108 Co98 2.021 1_655 S
O108 C105 1.238 . S
O109 Co103 2.052 . S
O109 C105 1.241 . S
O110 Co98 2.137 . S
O110 C101 1.247 . S
O111 Co98 2.244 1_655 S
O111 C101 1.272 1_655 S
O111 Co103 2.135 . S
Co112 O113 2.216 . S
Co112 O114 2.091 . S
Co112 O116 2.004 1_545 S
Co112 O122 2.021 . S
Co112 O124 2.137 . S
Co112 O125 2.244 . S
O113 Co112 2.216 . S
O113 C120 1.247 . S
O114 Co112 2.091 . S
O114 C120 1.261 . S
C115 O124 1.247 . S
C115 O125 1.272 . S
O116 Co112 2.004 1_565 S
O116 C121 1.259 . S
Co117 O118 2.061 . S
Co117 O123 2.052 . S
Co117 O125 2.135 1_565 S
O118 Co117 2.061 . S
O118 C121 1.235 . S
C119 O122 1.238 . S
C119 O123 1.241 1_545 S
C120 O113 1.247 . S
C120 O114 1.261 . S
C121 O116 1.259 . S
C121 O118 1.235 . S
O122 Co112 2.021 . S
O122 C119 1.238 . S
O123 Co117 2.052 . S
O123 C119 1.241 1_565 S
O124 Co112 2.137 . S
O124 C115 1.247 . S
O125 Co112 2.244 . S
O125 C115 1.272 . S
O125 Co117 2.135 1_545 S
Co126 O127 2.216 . S
Co126 O128 2.091 . S
Co126 O130 2.004 . S
Co126 O136 2.021 . S
Co126 O138 2.137 . S
Co126 O139 2.244 . S
O127 Co126 2.216 . S
O127 C134 1.247 . S
O128 Co126 2.091 . S
O128 C134 1.261 . S
C129 O138 1.247 . S
C129 O139 1.272 . S
O130 Co126 2.004 . S
O130 C135 1.259 . S
Co131 O132 2.061 . S
Co131 O137 2.052 . S
Co131 O139 2.135 . S
O132 Co131 2.061 . S
O132 C135 1.235 . S
C133 O136 1.238 . S
C133 O137 1.241 . S
C134 O127 1.247 . S
C134 O128 1.261 . S
C135 O130 1.259 . S
C135 O132 1.235 . S
O136 Co126 2.021 . S
O136 C133 1.238 . S
O137 Co131 2.052 . S
O137 C133 1.241 . S
O138 Co126 2.137 . S
O138 C129 1.247 . S
O139 Co126 2.244 . S
O139 C129 1.272 . S
O139 Co131 2.135 . S
Co140 O141 2.216 . S
Co140 O142 2.091 . S
Co140 O144 2.004 . S
Co140 O150 2.021 . S
Co140 O152 2.137 . S
Co140 O153 2.244 . S
O141 Co140 2.216 . S
O141 C148 1.247 . S
O142 Co140 2.091 . S
O142 C148 1.261 . S
C143 O152 1.247 . S
C143 O153 1.272 . S
O144 Co140 2.004 . S
O144 C149 1.259 . S
Co145 O146 2.061 . S
Co145 O151 2.052 . S
Co145 O153 2.135 . S
O146 Co145 2.061 . S
O146 C149 1.235 . S
C147 O150 1.238 . S
C147 O151 1.241 . S
C148 O141 1.247 . S
C148 O142 1.261 . S
C149 O144 1.259 . S
C149 O146 1.235 . S
O150 Co140 2.021 . S
O150 C147 1.238 . S
O151 Co145 2.052 . S
O151 C147 1.241 . S
O152 Co140 2.137 . S
O152 C143 1.247 . S
O153 Co140 2.244 . S
O153 C143 1.272 . S
O153 Co145 2.135 . S
Co154 O155 2.216 . S
Co154 O156 2.091 1_556 S
Co154 O158 2.002 . S
Co154 O164 2.021 1_556 S
Co154 O166 2.137 . S
Co154 O167 2.244 . S
O155 Co154 2.216 . S
O155 C162 1.247 . S
O156 Co154 2.091 1_554 S
O156 C162 1.261 1_554 S
C157 O166 1.247 . S
C157 O167 1.272 . S
O158 Co154 2.002 . S
O158 C163 1.256 1_556 S
Co159 O160 2.061 1_556 S
Co159 O165 2.052 1_556 S
Co159 O167 2.135 . S
O160 Co159 2.061 1_554 S
O160 C163 1.235 . S
C161 O164 1.238 . S
C161 O165 1.241 . S
C162 O155 1.247 . S
C162 O156 1.261 1_556 S
C163 O158 1.256 1_554 S
C163 O160 1.235 . S
O164 Co154 2.021 1_554 S
O164 C161 1.238 . S
O165 Co159 2.052 1_554 S
O165 C161 1.241 . S
O166 Co154 2.137 . S
O166 C157 1.247 . S
O167 Co154 2.244 . S
O167 C157 1.272 . S
O167 Co159 2.135 . S
Co168 O169 2.216 . S
Co168 O170 2.091 . S
Co168 O172 2.004 . S
Co168 O178 2.021 . S
Co168 O180 2.137 . S
Co168 O181 2.244 . S
O169 Co168 2.216 . S
O169 C176 1.247 . S
O170 Co168 2.091 . S
O170 C176 1.261 . S
C171 O180 1.247 . S
C171 O181 1.272 . S
O172 Co168 2.004 . S
O172 C177 1.259 . S
Co173 O174 2.061 . S
Co173 O179 2.052 . S
Co173 O181 2.135 . S
O174 Co173 2.061 . S
O174 C177 1.235 . S
C175 O178 1.238 . S
C175 O179 1.241 . S
C176 O169 1.247 . S
C176 O170 1.261 . S
C177 O172 1.259 . S
C177 O174 1.235 . S
O178 Co168 2.021 . S
O178 C175 1.238 . S
O179 Co173 2.052 . S
O179 C175 1.241 . S
O180 Co168 2.137 . S
O180 C171 1.247 . S
O181 Co168 2.244 . S
O181 C171 1.272 . S
O181 Co173 2.135 . S
Co182 O183 2.216 . S
Co182 O184 2.091 . S
Co182 O186 2.004 . S
Co182 O192 2.021 . S
Co182 O194 2.137 . S
Co182 O195 2.244 . S
O183 Co182 2.216 . S
O183 C190 1.247 . S
O184 Co182 2.091 . S
O184 C190 1.261 . S
C185 O194 1.247 . S
C185 O195 1.272 . S
O186 Co182 2.004 . S
O186 C191 1.259 . S
Co187 O188 2.061 . S
Co187 O193 2.052 . S
Co187 O195 2.135 . S
O188 Co187 2.061 . S
O188 C191 1.235 . S
C189 O192 1.238 . S
C189 O193 1.241 . S
C190 O183 1.247 . S
C190 O184 1.261 . S
C191 O186 1.259 . S
C191 O188 1.235 . S
O192 Co182 2.021 . S
O192 C189 1.238 . S
O193 Co187 2.052 . S
O193 C189 1.241 . S
O194 Co182 2.137 . S
O194 C185 1.247 . S
O195 Co182 2.244 . S
O195 C185 1.272 . S
O195 Co187 2.135 . S
Co196 O197 2.216 . S
Co196 O198 2.091 . S
Co196 O200 2.004 . S
Co196 O206 2.021 . S
Co196 O208 2.137 . S
Co196 O209 2.244 . S
O197 Co196 2.216 . S
O197 C204 1.247 . S
O198 Co196 2.091 . S
O198 C204 1.261 . S
C199 O208 1.247 . S
C199 O209 1.272 . S
O200 Co196 2.004 . S
O200 C205 1.259 . S
Co201 O202 2.061 . S
Co201 O207 2.052 . S
Co201 O209 2.135 . S
O202 Co201 2.061 . S
O202 C205 1.235 . S
C203 O206 1.238 . S
C203 O207 1.241 . S
C204 O197 1.247 . S
C204 O198 1.261 . S
C205 O200 1.259 . S
C205 O202 1.235 . S
O206 Co196 2.021 . S
O206 C203 1.238 . S
O207 Co201 2.052 . S
O207 C203 1.241 . S
O208 Co196 2.137 . S
O208 C199 1.247 . S
O209 Co196 2.244 . S
O209 C199 1.272 . S
O209 Co201 2.135 . S
Co210 O211 2.216 . S
Co210 O212 2.091 . S
Co210 O214 2.004 . S
Co210 O220 2.021 . S
Co210 O222 2.137 . S
Co210 O223 2.244 . S
O211 Co210 2.216 . S
O211 C218 1.247 . S
O212 Co210 2.091 . S
O212 C218 1.261 . S
C213 O222 1.247 . S
C213 O223 1.272 . S
O214 Co210 2.004 . S
O214 C219 1.259 . S
Co215 O216 2.061 . S
Co215 O221 2.052 . S
Co215 O223 2.135 . S
O216 Co215 2.061 . S
O216 C219 1.235 . S
C217 O220 1.238 . S
C217 O221 1.241 . S
C218 O211 1.247 . S
C218 O212 1.261 . S
C219 O214 1.259 . S
C219 O216 1.235 . S
O220 Co210 2.021 . S
O220 C217 1.238 . S
O221 Co215 2.052 . S
O221 C217 1.241 . S
O222 Co210 2.137 . S
O222 C213 1.247 . S
O223 Co210 2.244 . S
O223 C213 1.272 . S
O223 Co215 2.135 . S
Co224 O225 2.216 . S
Co224 O226 2.091 . S
Co224 O228 2.004 1_545 S
Co224 O234 2.021 . S
Co224 O236 2.137 . S
Co224 O237 2.244 . S
O225 Co224 2.216 . S
O225 C232 1.247 . S
O226 Co224 2.091 . S
O226 C232 1.261 . S
C227 O236 1.247 . S
C227 O237 1.272 . S
O228 Co224 2.004 1_565 S
O228 C233 1.259 . S
Co229 O230 2.061 . S
Co229 O235 2.052 1_565 S
Co229 O237 2.135 1_565 S
O230 Co229 2.061 . S
O230 C233 1.235 . S
C231 O234 1.238 . S
C231 O235 1.241 . S
C232 O225 1.247 . S
C232 O226 1.261 . S
C233 O228 1.259 . S
C233 O230 1.235 . S
O234 Co224 2.021 . S
O234 C231 1.238 . S
O235 Co229 2.052 1_545 S
O235 C231 1.241 . S
O236 Co224 2.137 . S
O236 C227 1.247 . S
O237 Co224 2.244 . S
O237 C227 1.272 . S
O237 Co229 2.135 1_545 S
Co238 O239 2.216 . S
Co238 O240 2.091 . S
Co238 O242 2.004 . S
Co238 O248 2.021 . S
Co238 O250 2.137 . S
Co238 O251 2.244 . S
O239 Co238 2.216 . S
O239 C246 1.247 . S
O240 Co238 2.091 . S
O240 C246 1.261 . S
C241 O250 1.247 . S
C241 O251 1.272 . S
O242 Co238 2.004 . S
O242 C247 1.259 . S
Co243 O244 2.061 . S
Co243 O249 2.052 . S
Co243 O251 2.135 . S
O244 Co243 2.061 . S
O244 C247 1.235 . S
C245 O248 1.238 . S
C245 O249 1.241 . S
C246 O239 1.247 . S
C246 O240 1.261 . S
C247 O242 1.259 . S
C247 O244 1.235 . S
O248 Co238 2.021 . S
O248 C245 1.238 . S
O249 Co243 2.052 . S
O249 C245 1.241 . S
O250 Co238 2.137 . S
O250 C241 1.247 . S
O251 Co238 2.244 . S
O251 C241 1.272 . S
O251 Co243 2.135 . S
Co252 O253 2.216 . S
Co252 O254 2.091 . S
Co252 O256 2.004 . S
Co252 O262 2.021 . S
Co252 O264 2.137 . S
Co252 O265 2.244 . S
O253 Co252 2.216 . S
O253 C260 1.247 . S
O254 Co252 2.091 . S
O254 C260 1.261 . S
C255 O264 1.247 . S
C255 O265 1.272 . S
O256 Co252 2.004 . S
O256 C261 1.259 . S
Co257 O258 2.061 . S
Co257 O263 2.052 . S
Co257 O265 2.135 . S
O258 Co257 2.061 . S
O258 C261 1.235 . S
C259 O262 1.238 . S
C259 O263 1.241 . S
C260 O253 1.247 . S
C260 O254 1.261 . S
C261 O256 1.259 . S
C261 O258 1.235 . S
O262 Co252 2.021 . S
O262 C259 1.238 . S
O263 Co257 2.052 . S
O263 C259 1.241 . S
O264 Co252 2.137 . S
O264 C255 1.247 . S
O265 Co252 2.244 . S
O265 C255 1.272 . S
O265 Co257 2.135 . S
Co266 O267 2.216 . S
Co266 O268 2.091 . S
Co266 O270 2.004 . S
Co266 O276 2.021 . S
Co266 O278 2.137 . S
Co266 O279 2.244 . S
O267 Co266 2.216 . S
O267 C274 1.247 . S
O268 Co266 2.091 . S
O268 C274 1.261 . S
C269 O278 1.247 . S
C269 O279 1.272 . S
O270 Co266 2.004 . S
O270 C275 1.259 . S
Co271 O272 2.061 . S
Co271 O277 2.052 . S
Co271 O279 2.135 . S
O272 Co271 2.061 . S
O272 C275 1.235 . S
C273 O276 1.238 . S
C273 O277 1.241 . S
C274 O267 1.247 . S
C274 O268 1.261 . S
C275 O270 1.259 . S
C275 O272 1.235 . S
O276 Co266 2.021 . S
O276 C273 1.238 . S
O277 Co271 2.052 . S
O277 C273 1.241 . S
O278 Co266 2.137 . S
O278 C269 1.247 . S
O279 Co266 2.244 . S
O279 C269 1.272 . S
O279 Co271 2.135 . S
Co280 O281 2.216 . S
Co280 O282 2.091 . S
Co280 O284 2.004 . S
Co280 O290 2.021 . S
Co280 O292 2.137 1_554 S
Co280 O293 2.244 1_554 S
O281 Co280 2.216 . S
O281 C288 1.247 . S
O282 Co280 2.091 . S
O282 C288 1.261 . S
C283 O292 1.247 . S
C283 O293 1.272 . S
O284 Co280 2.004 . S
O284 C289 1.259 . S
Co285 O286 2.061 . S
Co285 O291 2.052 . S
Co285 O293 2.135 1_554 S
O286 Co285 2.061 . S
O286 C289 1.235 . S
C287 O290 1.238 . S
C287 O291 1.241 . S
C288 O281 1.247 . S
C288 O282 1.261 . S
C289 O284 1.259 . S
C289 O286 1.235 . S
O290 Co280 2.021 . S
O290 C287 1.238 . S
O291 Co285 2.052 . S
O291 C287 1.241 . S
O292 Co280 2.137 1_556 S
O292 C283 1.247 . S
O293 Co280 2.244 1_556 S
O293 C283 1.272 . S
O293 Co285 2.135 1_556 S
Co294 O295 2.216 . S
Co294 O296 2.091 . S
Co294 O298 2.004 . S
Co294 O304 2.021 . S
Co294 O306 2.137 . S
Co294 O307 2.244 . S
O295 Co294 2.216 . S
O295 C302 1.247 . S
O296 Co294 2.091 . S
O296 C302 1.261 . S
C297 O306 1.247 . S
C297 O307 1.272 . S
O298 Co294 2.004 . S
O298 C303 1.259 . S
Co299 O300 2.061 . S
Co299 O305 2.052 . S
Co299 O307 2.135 . S
O300 Co299 2.061 . S
O300 C303 1.235 . S
C301 O304 1.238 . S
C301 O305 1.241 . S
C302 O295 1.247 . S
C302 O296 1.261 . S
C303 O298 1.259 . S
C303 O300 1.235 . S
O304 Co294 2.021 . S
O304 C301 1.238 . S
O305 Co299 2.052 . S
O305 C301 1.241 . S
O306 Co294 2.137 . S
O306 C297 1.247 . S
O307 Co294 2.244 . S
O307 C297 1.272 . S
O307 Co299 2.135 . S
Co308 O309 2.216 . S
Co308 O310 2.091 . S
Co308 O312 2.004 . S
Co308 O318 2.021 . S
Co308 O320 2.137 . S
Co308 O321 2.244 . S
O309 Co308 2.216 . S
O309 C316 1.247 . S
O310 Co308 2.091 . S
O310 C316 1.261 . S
C311 O320 1.247 . S
C311 O321 1.272 . S
O312 Co308 2.004 . S
O312 C317 1.259 . S
Co313 O314 2.061 . S
Co313 O319 2.052 . S
Co313 O321 2.135 . S
O314 Co313 2.061 . S
O314 C317 1.235 . S
C315 O318 1.238 . S
C315 O319 1.241 . S
C316 O309 1.247 . S
C316 O310 1.261 . S
C317 O312 1.259 . S
C317 O314 1.235 . S
O318 Co308 2.021 . S
O318 C315 1.238 . S
O319 Co313 2.052 . S
O319 C315 1.241 . S
O320 Co308 2.137 . S
O320 C311 1.247 . S
O321 Co308 2.244 . S
O321 C311 1.272 . S
O321 Co313 2.135 . S
Co322 O323 2.216 . S
Co322 O324 2.091 . S
Co322 O326 2.004 . S
Co322 O332 2.021 . S
Co322 O334 2.137 . S
Co322 O335 2.244 . S
O323 Co322 2.216 . S
O323 C330 1.247 . S
O324 Co322 2.091 . S
O324 C330 1.261 . S
C325 O334 1.247 . S
C325 O335 1.272 . S
O326 Co322 2.004 . S
O326 C331 1.259 . S
Co327 O328 2.061 . S
Co327 O333 2.052 . S
Co327 O335 2.135 . S
O328 Co327 2.061 . S
O328 C331 1.235 . S
C329 O332 1.238 . S
C329 O333 1.241 . S
C330 O323 1.247 . S
C330 O324 1.261 . S
C331 O326 1.259 . S
C331 O328 1.235 . S
O332 Co322 2.021 . S
O332 C329 1.238 . S
O333 Co327 2.052 . S
O333 C329 1.241 . S
O334 Co322 2.137 . S
O334 C325 1.247 . S
O335 Co322 2.244 . S
O335 C325 1.272 . S
O335 Co327 2.135 . S
Eu336 N365 2.600 . S
Eu336 N371 2.562 . S
Eu336 O380 2.462 . S
Eu336 O381 2.373 . S
Eu336 O383 2.432 . S
Eu336 O384 2.291 . S
Eu336 O388 2.335 . S
Eu336 O391 2.372 . S
Eu336 C400 2.787 . S
C337 N338 1.365 . S
C337 C340 1.405 . S
C337 C344 1.448 1_556 S
N338 C337 1.365 . S
N338 C341 1.319 . S
N338 Eu347 2.600 1_566 S
C339 C341 1.397 . S
C339 C342 1.367 . S
C339 H359 0.931 . S
C340 C337 1.405 . S
C340 C342 1.403 . S
C340 C346 1.439 . S
C341 N338 1.319 . S
C341 C339 1.397 . S
C341 H352 0.909 1_565 S
C342 C339 1.367 . S
C342 C340 1.403 . S
C342 H363 0.929 . S
C343 C344 1.430 . S
C343 C345 1.387 1_554 S
C343 C349 1.404 . S
C344 C337 1.448 1_554 S
C344 C343 1.430 . S
C344 N348 1.351 . S
C345 C343 1.387 1_556 S
C345 C346 1.374 . S
C345 H360 0.931 1_556 S
C346 C340 1.439 . S
C346 C345 1.374 . S
C346 H361 0.931 . S
Eu347 N338 2.600 1_544 S
Eu347 N348 2.562 1_545 S
Eu347 O382 2.335 1_655 S
Eu347 O385 2.372 1_654 S
Eu347 O386 2.462 . S
Eu347 O387 2.373 1_645 S
Eu347 O389 2.432 1_554 S
Eu347 O390 2.291 1_655 S
Eu347 C411 2.787 . S
N348 C344 1.351 . S
N348 Eu347 2.562 1_565 S
N348 C350 1.325 . S
C349 C343 1.404 . S
C349 C351 1.366 . S
C349 H357 0.930 . S
C350 N348 1.325 . S
C350 C351 1.416 . S
C350 H356 0.929 . S
C351 C349 1.366 . S
C351 C350 1.416 . S
C351 H353 0.930 . S
H352 C341 0.909 1_545 S
H353 C351 0.930 . S
H354 C369 0.930 . S
H355 C376 0.930 1_556 S
H356 C350 0.929 . S
H357 C349 0.930 . S
H358 C372 0.929 . S
H359 C339 0.931 . S
H360 C345 0.931 1_554 S
H361 C346 0.931 . S
H362 C367 0.931 . S
H363 C342 0.929 . S
H364 C375 0.930 . S
N365 Eu336 2.600 . S
N365 C366 1.365 . S
N365 C369 1.319 . S
C366 N365 1.365 . S
C366 C368 1.405 . S
C366 C374 1.448 . S
C367 H362 0.931 . S
C367 C369 1.397 . S
C367 C370 1.367 . S
C368 C366 1.405 . S
C368 C370 1.403 . S
C368 C401 1.439 . S
C369 H354 0.930 . S
C369 N365 1.319 . S
C369 C367 1.397 . S
C370 C367 1.367 . S
C370 C368 1.403 . S
C370 H377 0.929 . S
N371 Eu336 2.562 . S
N371 C372 1.325 . S
N371 C374 1.351 . S
C372 H358 0.929 . S
C372 N371 1.325 . S
C372 C376 1.416 . S
C373 C374 1.430 . S
C373 C375 1.404 . S
C373 C402 1.387 . S
C374 C366 1.448 . S
C374 N371 1.351 . S
C374 C373 1.430 . S
C375 H364 0.930 . S
C375 C373 1.404 . S
C375 C376 1.366 . S
C376 H355 0.930 1_554 S
C376 C372 1.416 . S
C376 C375 1.366 . S
H377 C370 0.929 . S
H378 C401 0.931 . S
H379 C402 0.931 . S
O380 Eu336 2.462 . S
O380 C400 1.252 . S
O381 Eu336 2.373 . S
O381 C392 1.249 . S
O382 Eu347 2.335 1_455 S
O382 C392 1.264 . S
O383 Eu336 2.432 . S
O383 C400 1.268 . S
O384 Eu336 2.291 . S
O384 C399 1.255 1_554 S
O385 Eu347 2.372 1_456 S
O385 C399 1.257 . S
O386 Eu347 2.462 . S
O386 C411 1.252 . S
O387 Eu347 2.373 1_465 S
O387 C403 1.249 . S
O388 Eu336 2.335 . S
O388 C403 1.264 1_545 S
O389 Eu347 2.432 1_556 S
O389 C411 1.268 1_556 S
O390 Eu347 2.291 1_455 S
O390 C410 1.255 . S
O391 Eu336 2.372 . S
O391 C410 1.257 . S
C392 O381 1.249 . S
C392 O382 1.264 . S
C393 C396 1.382 . S
C393 C398 1.390 . S
C393 C400 1.506 . S
C394 C395 1.398 . S
C394 C398 1.392 . S
C395 C394 1.398 . S
C395 C397 1.372 . S
C395 H412 0.931 . S
C396 C393 1.382 . S
C396 C397 1.390 . S
C396 H413 0.931 . S
C397 C395 1.372 . S
C397 C396 1.390 . S
C397 H414 0.929 . S
C398 C393 1.390 . S
C398 C394 1.392 . S
C398 H415 0.930 . S
C399 O384 1.255 1_556 S
C399 O385 1.257 . S
C400 Eu336 2.787 . S
C400 O380 1.252 . S
C400 O383 1.268 . S
C400 C393 1.506 . S
C401 C368 1.439 . S
C401 H378 0.931 . S
C401 C402 1.374 . S
C402 C373 1.387 . S
C402 H379 0.931 . S
C402 C401 1.374 . S
C403 O387 1.249 . S
C403 O388 1.264 1_565 S
C404 C407 1.382 1_554 S
C404 C408 1.390 . S
C404 C411 1.506 . S
C405 C406 1.398 1_554 S
C405 C408 1.392 . S
C406 C405 1.398 1_556 S
C406 C409 1.372 . S
C406 H416 0.931 . S
C407 C404 1.382 1_556 S
C407 C409 1.390 . S
C407 H417 0.931 . S
C408 C404 1.390 . S
C408 C405 1.392 . S
C408 H418 0.930 . S
C409 C406 1.372 . S
C409 C407 1.390 . S
C409 H419 0.929 . S
C410 O390 1.255 . S
C410 O391 1.257 . S
C411 Eu347 2.787 . S
C411 O386 1.252 . S
C411 O389 1.268 1_554 S
C411 C404 1.506 . S
H412 C395 0.931 . S
H413 C396 0.931 . S
H414 C397 0.929 . S
H415 C398 0.930 . S
H416 C406 0.931 . S
H417 C407 0.931 . S
H418 C408 0.930 . S
H419 C409 0.929 . S
Eu420 N449 2.600 . S
Eu420 N455 2.562 . S
Eu420 O464 2.462 . S
Eu420 O465 2.373 . S
Eu420 O467 2.432 . S
Eu420 O468 2.291 . S
Eu420 O472 2.335 . S
Eu420 O475 2.372 . S
Eu420 C484 2.787 . S
C421 N422 1.365 . S
C421 C424 1.405 . S
C421 C428 1.448 . S
N422 C421 1.365 . S
N422 C425 1.319 . S
N422 Eu431 2.600 . S
C423 C425 1.397 . S
C423 C426 1.367 . S
C423 H443 0.931 . S
C424 C421 1.405 . S
C424 C426 1.403 . S
C424 C430 1.439 . S
C425 N422 1.319 . S
C425 C423 1.397 . S
C425 H436 0.930 . S
C426 C423 1.367 . S
C426 C424 1.403 . S
C426 H447 0.929 . S
C427 C428 1.430 . S
C427 C429 1.387 . S
C427 C433 1.404 . S
C428 C421 1.448 . S
C428 C427 1.430 . S
C428 N432 1.351 . S
C429 C427 1.387 . S
C429 C430 1.374 . S
C429 H444 0.931 . S
C430 C424 1.439 . S
C430 C429 1.374 . S
C430 H445 0.931 . S
Eu431 N422 2.600 . S
Eu431 N432 2.562 . S
Eu431 O466 2.335 . S
Eu431 O469 2.372 . S
Eu431 O470 2.462 . S
Eu431 O471 2.373 . S
Eu431 O473 2.432 . S
Eu431 O474 2.291 . S
Eu431 C495 2.787 . S
N432 C428 1.351 . S
N432 Eu431 2.562 . S
N432 C434 1.325 . S
C433 C427 1.404 . S
C433 C435 1.366 . S
C433 H441 0.930 . S
C434 N432 1.325 . S
C434 C435 1.416 . S
C434 H440 0.929 . S
C435 C433 1.366 . S
C435 C434 1.416 . S
C435 H437 0.930 . S
H436 C425 0.930 . S
H437 C435 0.930 . S
H438 C453 0.930 . S
H439 C460 0.930 . S
H440 C434 0.929 . S
H441 C433 0.930 . S
H442 C456 0.929 . S
H443 C423 0.931 . S
H444 C429 0.931 . S
H445 C430 0.931 . S
H446 C451 0.931 . S
H447 C426 0.929 . S
H448 C459 0.930 . S
N449 Eu420 2.600 . S
N449 C450 1.365 . S
N449 C453 1.319 . S
C450 N449 1.365 . S
C450 C452 1.405 . S
C450 C458 1.448 . S
C451 H446 0.931 . S
C451 C453 1.397 . S
C451 C454 1.367 . S
C452 C450 1.405 . S
C452 C454 1.403 . S
C452 C485 1.439 . S
C453 H438 0.930 . S
C453 N449 1.319 . S
C453 C451 1.397 . S
C454 C451 1.367 . S
C454 C452 1.403 . S
C454 H461 0.929 . S
N455 Eu420 2.562 . S
N455 C456 1.325 . S
N455 C458 1.351 . S
C456 H442 0.929 . S
C456 N455 1.325 . S
C456 C460 1.416 . S
C457 C458 1.430 . S
C457 C459 1.404 . S
C457 C486 1.387 . S
C458 C450 1.448 . S
C458 N455 1.351 . S
C458 C457 1.430 . S
C459 H448 0.930 . S
C459 C457 1.404 . S
C459 C460 1.366 . S
C460 H439 0.930 . S
C460 C456 1.416 . S
C460 C459 1.366 . S
H461 C454 0.929 . S
H462 C485 0.931 . S
H463 C486 0.931 . S
O464 Eu420 2.462 . S
O464 C484 1.252 . S
O465 Eu420 2.373 . S
O465 C476 1.249 . S
O466 Eu431 2.335 . S
O466 C476 1.264 . S
O467 Eu420 2.432 . S
O467 C484 1.268 . S
O468 Eu420 2.291 . S
O468 C483 1.255 . S
O469 Eu431 2.372 . S
O469 C483 1.257 . S
O470 Eu431 2.462 . S
O470 C495 1.252 . S
O471 Eu431 2.373 . S
O471 C487 1.249 . S
O472 Eu420 2.335 . S
O472 C487 1.264 . S
O473 Eu431 2.432 . S
O473 C495 1.268 . S
O474 Eu431 2.291 . S
O474 C494 1.255 . S
O475 Eu420 2.372 . S
O475 C494 1.257 . S
C476 O465 1.249 . S
C476 O466 1.264 . S
C477 C480 1.382 . S
C477 C482 1.390 . S
C477 C484 1.506 . S
C478 C479 1.398 . S
C478 C482 1.392 . S
C479 C478 1.398 . S
C479 C481 1.372 . S
C479 H496 0.931 . S
C480 C477 1.382 . S
C480 C481 1.390 . S
C480 H497 0.931 . S
C481 C479 1.372 . S
C481 C480 1.390 . S
C481 H498 0.929 . S
C482 C477 1.390 . S
C482 C478 1.392 . S
C482 H499 0.930 . S
C483 O468 1.255 . S
C483 O469 1.257 . S
C484 Eu420 2.787 . S
C484 O464 1.252 . S
C484 O467 1.268 . S
C484 C477 1.506 . S
C485 C452 1.439 . S
C485 H462 0.931 . S
C485 C486 1.374 . S
C486 C457 1.387 . S
C486 H463 0.931 . S
C486 C485 1.374 . S
C487 O471 1.249 . S
C487 O472 1.264 . S
C488 C491 1.382 . S
C488 C492 1.390 . S
C488 C495 1.506 . S
C489 C490 1.398 . S
C489 C492 1.392 . S
C490 C489 1.398 . S
C490 C493 1.372 . S
C490 H500 0.931 . S
C491 C488 1.382 . S
C491 C493 1.390 . S
C491 H501 0.931 . S
C492 C488 1.390 . S
C492 C489 1.392 . S
C492 H502 0.930 . S
C493 C490 1.372 . S
C493 C491 1.390 . S
C493 H503 0.929 . S
C494 O474 1.255 . S
C494 O475 1.257 . S
C495 Eu431 2.787 . S
C495 O470 1.252 . S
C495 O473 1.268 . S
C495 C488 1.506 . S
H496 C479 0.931 . S
H497 C480 0.931 . S
H498 C481 0.929 . S
H499 C482 0.930 . S
H500 C490 0.931 . S
H501 C491 0.931 . S
H502 C492 0.930 . S
H503 C493 0.929 . S
Eu504 N533 2.590 1_545 S
Eu504 N539 2.562 1_545 S
Eu504 O548 2.462 . S
Eu504 O549 2.373 1_545 S
Eu504 O551 2.432 . S
Eu504 O552 2.291 . S
Eu504 O556 2.335 . S
Eu504 O559 2.372 . S
Eu504 C568 2.787 . S
C505 N506 1.365 . S
C505 C508 1.405 . S
C505 C512 1.448 . S
N506 C505 1.365 . S
N506 C509 1.319 . S
N506 Eu515 2.600 . S
C507 C509 1.397 . S
C507 C510 1.367 . S
C507 H527 0.931 . S
C508 C505 1.405 . S
C508 C510 1.403 . S
C508 C514 1.439 . S
C509 N506 1.319 . S
C509 C507 1.397 . S
C509 H520 0.930 . S
C510 C507 1.367 . S
C510 C508 1.403 . S
C510 H531 0.929 . S
C511 C512 1.430 . S
C511 C513 1.387 . S
C511 C517 1.404 . S
C512 C505 1.448 . S
C512 C511 1.430 . S
C512 N516 1.351 . S
C513 C511 1.387 . S
C513 C514 1.374 . S
C513 H528 0.931 . S
C514 C508 1.439 . S
C514 C513 1.374 . S
C514 H529 0.931 . S
Eu515 N506 2.600 . S
Eu515 N516 2.562 . S
Eu515 O550 2.335 1_545 S
Eu515 O553 2.372 . S
Eu515 O554 2.462 . S
Eu515 O555 2.373 . S
Eu515 O557 2.432 . S
Eu515 O558 2.291 . S
Eu515 C579 2.787 . S
N516 C512 1.351 . S
N516 Eu515 2.562 . S
N516 C518 1.325 . S
C517 C511 1.404 . S
C517 C519 1.366 . S
C517 H525 0.930 . S
C518 N516 1.325 . S
C518 C519 1.416 . S
C518 H524 0.929 . S
C519 C517 1.366 . S
C519 C518 1.416 . S
C519 H521 0.930 . S
H520 C509 0.930 . S
H521 C519 0.930 . S
H522 C537 0.930 . S
H523 C544 0.930 . S
H524 C518 0.929 . S
H525 C517 0.930 . S
H526 C540 0.929 . S
H527 C507 0.931 . S
H528 C513 0.931 . S
H529 C514 0.931 . S
H530 C535 0.931 . S
H531 C510 0.929 . S
H532 C543 0.930 . S
N533 Eu504 2.590 1_565 S
N533 C534 1.377 . S
N533 C537 1.319 1_565 S
C534 N533 1.377 . S
C534 C536 1.405 . S
C534 C542 1.448 . S
C535 H530 0.931 . S
C535 C537 1.397 1_565 S
C535 C538 1.367 . S
C536 C534 1.405 . S
C536 C538 1.403 . S
C536 C569 1.439 . S
C537 H522 0.930 . S
C537 N533 1.319 1_545 S
C537 C535 1.397 1_545 S
C538 C535 1.367 . S
C538 C536 1.403 . S
C538 H545 0.929 . S
N539 Eu504 2.562 1_565 S
N539 C540 1.325 . S
N539 C542 1.351 . S
C540 H526 0.929 . S
C540 N539 1.325 . S
C540 C544 1.416 . S
C541 C542 1.430 . S
C541 C543 1.404 . S
C541 C570 1.387 . S
C542 C534 1.448 . S
C542 N539 1.351 . S
C542 C541 1.430 . S
C543 H532 0.930 . S
C543 C541 1.404 . S
C543 C544 1.366 . S
C544 H523 0.930 . S
C544 C540 1.416 . S
C544 C543 1.366 . S
H545 C538 0.929 . S
H546 C569 0.931 . S
H547 C570 0.931 . S
O548 Eu504 2.462 . S
O548 C568 1.252 . S
O549 Eu504 2.373 1_565 S
O549 C560 1.249 . S
O550 Eu515 2.335 1_565 S
O550 C560 1.264 . S
O551 Eu504 2.432 . S
O551 C568 1.268 . S
O552 Eu504 2.291 . S
O552 C567 1.255 . S
O553 Eu515 2.372 . S
O553 C567 1.257 . S
O554 Eu515 2.462 . S
O554 C579 1.252 . S
O555 Eu515 2.373 . S
O555 C571 1.249 . S
O556 Eu504 2.335 . S
O556 C571 1.264 . S
O557 Eu515 2.432 . S
O557 C579 1.268 . S
O558 Eu515 2.291 . S
O558 C578 1.255 . S
O559 Eu504 2.372 . S
O559 C578 1.257 . S
C560 O549 1.249 . S
C560 O550 1.264 . S
C561 C564 1.382 . S
C561 C566 1.390 . S
C561 C568 1.506 . S
C562 C563 1.398 . S
C562 C566 1.392 . S
C563 C562 1.398 . S
C563 C565 1.372 . S
C563 H580 0.931 . S
C564 C561 1.382 . S
C564 C565 1.390 . S
C564 H581 0.931 . S
C565 C563 1.372 . S
C565 C564 1.390 . S
C565 H582 0.929 . S
C566 C561 1.390 . S
C566 C562 1.392 . S
C566 H583 0.930 . S
C567 O552 1.255 . S
C567 O553 1.257 . S
C568 Eu504 2.787 . S
C568 O548 1.252 . S
C568 O551 1.268 . S
C568 C561 1.506 . S
C569 C536 1.439 . S
C569 H546 0.931 . S
C569 C570 1.374 . S
C570 C541 1.387 . S
C570 H547 0.931 . S
C570 C569 1.374 . S
C571 O555 1.249 . S
C571 O556 1.264 . S
C572 C575 1.382 . S
C572 C576 1.390 . S
C572 C579 1.506 1_565 S
C573 C574 1.398 . S
C573 C576 1.392 . S
C574 C573 1.398 . S
C574 C577 1.372 . S
C574 H584 0.931 . S
C575 C572 1.382 . S
C575 C577 1.390 . S
C575 H585 0.931 . S
C576 C572 1.390 . S
C576 C573 1.392 . S
C576 H586 0.930 . S
C577 C574 1.372 . S
C577 C575 1.390 . S
C577 H587 0.929 . S
C578 O558 1.255 . S
C578 O559 1.257 . S
C579 Eu515 2.787 . S
C579 O554 1.252 . S
C579 O557 1.268 . S
C579 C572 1.506 1_545 S
H580 C563 0.931 . S
H581 C564 0.931 . S
H582 C565 0.929 . S
H583 C566 0.930 . S
H584 C574 0.931 . S
H585 C575 0.931 . S
H586 C576 0.930 . S
H587 C577 0.929 . S
Eu588 N617 2.600 . S
Eu588 N623 2.562 . S
Eu588 O632 2.462 . S
Eu588 O633 2.373 . S
Eu588 O635 2.432 . S
Eu588 O636 2.291 . S
Eu588 O640 2.335 . S
Eu588 O643 2.372 . S
Eu588 C652 2.787 . S
C589 N590 1.365 . S
C589 C592 1.405 . S
C589 C596 1.448 . S
N590 C589 1.365 . S
N590 C593 1.319 . S
N590 Eu599 2.600 . S
C591 C593 1.397 . S
C591 C594 1.367 . S
C591 H611 0.931 . S
C592 C589 1.405 . S
C592 C594 1.403 . S
C592 C598 1.439 . S
C593 N590 1.319 . S
C593 C591 1.397 . S
C593 H604 0.930 . S
C594 C591 1.367 . S
C594 C592 1.403 . S
C594 H615 0.929 . S
C595 C596 1.430 . S
C595 C597 1.387 . S
C595 C601 1.404 . S
C596 C589 1.448 . S
C596 C595 1.430 . S
C596 N600 1.351 . S
C597 C595 1.387 . S
C597 C598 1.374 . S
C597 H612 0.931 . S
C598 C592 1.439 . S
C598 C597 1.374 . S
C598 H613 0.931 . S
Eu599 N590 2.600 . S
Eu599 N600 2.562 . S
Eu599 O634 2.335 . S
Eu599 O637 2.372 . S
Eu599 O638 2.462 . S
Eu599 O639 2.373 . S
Eu599 O641 2.432 . S
Eu599 O642 2.291 . S
Eu599 C663 2.787 . S
N600 C596 1.351 . S
N600 Eu599 2.562 . S
N600 C602 1.325 . S
C601 C595 1.404 . S
C601 C603 1.366 . S
C601 H609 0.930 . S
C602 N600 1.325 . S
C602 C603 1.416 . S
C602 H608 0.929 . S
C603 C601 1.366 . S
C603 C602 1.416 . S
C603 H605 0.930 . S
H604 C593 0.930 . S
H605 C603 0.930 . S
H606 C621 0.930 . S
H607 C628 0.930 . S
H608 C602 0.929 . S
H609 C601 0.930 . S
H610 C624 0.929 . S
H611 C591 0.931 . S
H612 C597 0.931 . S
H613 C598 0.931 . S
H614 C619 0.931 . S
H615 C594 0.929 . S
H616 C627 0.930 . S
N617 Eu588 2.600 . S
N617 C618 1.365 . S
N617 C621 1.319 . S
C618 N617 1.365 . S
C618 C620 1.405 . S
C618 C626 1.448 . S
C619 H614 0.931 . S
C619 C621 1.397 . S
C619 C622 1.367 . S
C620 C618 1.405 . S
C620 C622 1.403 . S
C620 C653 1.439 . S
C621 H606 0.930 . S
C621 N617 1.319 . S
C621 C619 1.397 . S
C622 C619 1.367 . S
C622 C620 1.403 . S
C622 H629 0.929 . S
N623 Eu588 2.562 . S
N623 C624 1.325 . S
N623 C626 1.351 . S
C624 H610 0.929 . S
C624 N623 1.325 . S
C624 C628 1.416 . S
C625 C626 1.430 . S
C625 C627 1.404 . S
C625 C654 1.387 . S
C626 C618 1.448 . S
C626 N623 1.351 . S
C626 C625 1.430 . S
C627 H616 0.930 . S
C627 C625 1.404 . S
C627 C628 1.366 . S
C628 H607 0.930 . S
C628 C624 1.416 . S
C628 C627 1.366 . S
H629 C622 0.929 . S
H630 C653 0.931 . S
H631 C654 0.931 . S
O632 Eu588 2.462 . S
O632 C652 1.252 . S
O633 Eu588 2.373 . S
O633 C644 1.249 . S
O634 Eu599 2.335 . S
O634 C644 1.264 . S
O635 Eu588 2.432 . S
O635 C652 1.268 . S
O636 Eu588 2.291 . S
O636 C651 1.255 . S
O637 Eu599 2.372 . S
O637 C651 1.257 . S
O638 Eu599 2.462 . S
O638 C663 1.252 . S
O639 Eu599 2.373 . S
O639 C655 1.249 . S
O640 Eu588 2.335 . S
O640 C655 1.264 . S
O641 Eu599 2.432 . S
O641 C663 1.268 . S
O642 Eu599 2.291 . S
O642 C662 1.255 . S
O643 Eu588 2.372 . S
O643 C662 1.257 . S
C644 O633 1.249 . S
C644 O634 1.264 . S
C645 C648 1.382 . S
C645 C650 1.390 . S
C645 C652 1.506 . S
C646 C647 1.398 . S
C646 C650 1.392 . S
C647 C646 1.398 . S
C647 C649 1.372 . S
C647 H664 0.931 . S
C648 C645 1.382 . S
C648 C649 1.390 . S
C648 H665 0.931 . S
C649 C647 1.372 . S
C649 C648 1.390 . S
C649 H666 0.929 . S
C650 C645 1.390 . S
C650 C646 1.392 . S
C650 H667 0.930 . S
C651 O636 1.255 . S
C651 O637 1.257 . S
C652 Eu588 2.787 . S
C652 O632 1.252 . S
C652 O635 1.268 . S
C652 C645 1.506 . S
C653 C620 1.439 . S
C653 H630 0.931 . S
C653 C654 1.374 . S
C654 C625 1.387 . S
C654 H631 0.931 . S
C654 C653 1.374 . S
C655 O639 1.249 . S
C655 O640 1.264 . S
C656 C659 1.382 . S
C656 C660 1.390 . S
C656 C663 1.506 . S
C657 C658 1.398 . S
C657 C660 1.392 . S
C658 C657 1.398 . S
C658 C661 1.372 . S
C658 H668 0.931 . S
C659 C656 1.382 . S
C659 C661 1.390 . S
C659 H669 0.931 . S
C660 C656 1.390 . S
C660 C657 1.392 . S
C660 H670 0.930 . S
C661 C658 1.372 . S
C661 C659 1.390 . S
C661 H671 0.929 . S
C662 O642 1.255 . S
C662 O643 1.257 . S
C663 Eu599 2.787 . S
C663 O638 1.252 . S
C663 O641 1.268 . S
C663 C656 1.506 . S
H664 C647 0.931 . S
H665 C648 0.931 . S
H666 C649 0.929 . S
H667 C650 0.930 . S
H668 C658 0.931 . S
H669 C659 0.931 . S
H670 C660 0.930 . S
H671 C661 0.929 . S
Eu672 N701 2.600 . S
Eu672 N707 2.562 . S
Eu672 O716 2.462 . S
Eu672 O717 2.373 1_565 S
Eu672 O719 2.432 . S
Eu672 O720 2.291 1_565 S
Eu672 O724 2.335 1_565 S
Eu672 O727 2.372 1_565 S
Eu672 C736 2.787 . S
C673 N674 1.365 1_455 S
C673 C676 1.405 1_455 S
C673 C680 1.448 . S
N674 C673 1.365 1_655 S
N674 C677 1.319 . S
N674 Eu683 2.600 1_655 S
C675 C677 1.397 . S
C675 C678 1.367 . S
C675 H695 0.931 . S
C676 C673 1.405 1_655 S
C676 C678 1.403 . S
C676 C682 1.439 1_655 S
C677 N674 1.319 . S
C677 C675 1.397 . S
C677 H688 0.930 . S
C678 C675 1.367 . S
C678 C676 1.403 . S
C678 H699 0.929 . S
C679 C680 1.430 . S
C679 C681 1.387 . S
C679 C685 1.404 . S
C680 C673 1.448 . S
C680 C679 1.430 . S
C680 N684 1.351 . S
C681 C679 1.387 . S
C681 C682 1.374 . S
C681 H696 0.931 . S
C682 C676 1.439 1_455 S
C682 C681 1.374 . S
C682 H697 0.916 1_455 S
Eu683 N674 2.600 1_455 S
Eu683 N684 2.562 . S
Eu683 O718 2.335 . S
Eu683 O721 2.372 1_455 S
Eu683 O722 2.462 . S
Eu683 O723 2.373 . S
Eu683 O725 2.432 1_455 S
Eu683 O726 2.291 . S
Eu683 C747 2.787 . S
N684 C680 1.351 . S
N684 Eu683 2.562 . S
N684 C686 1.325 . S
C685 C679 1.404 . S
C685 C687 1.366 . S
C685 H693 0.930 . S
C686 N684 1.325 . S
C686 C687 1.416 . S
C686 H692 0.929 . S
C687 C685 1.366 . S
C687 C686 1.416 . S
C687 H689 0.930 . S
H688 C677 0.930 . S
H689 C687 0.930 . S
H690 C705 0.930 1_545 S
H691 C712 0.930 . S
H692 C686 0.929 . S
H693 C685 0.930 . S
H694 C708 0.922 1_655 S
H695 C675 0.931 . S
H696 C681 0.931 . S
H697 C682 0.916 1_655 S
H698 C703 0.931 . S
H699 C678 0.929 . S
H700 C711 0.930 . S
N701 Eu672 2.600 . S
N701 C702 1.365 . S
N701 C705 1.319 . S
C702 N701 1.365 . S
C702 C704 1.405 . S
C702 C710 1.448 . S
C703 H698 0.931 . S
C703 C705 1.397 . S
C703 C706 1.367 . S
C704 C702 1.405 . S
C704 C706 1.403 . S
C704 C737 1.439 . S
C705 H690 0.930 1_565 S
C705 N701 1.319 . S
C705 C703 1.397 . S
C706 C703 1.367 . S
C706 C704 1.403 . S
C706 H713 0.929 . S
N707 Eu672 2.562 . S
N707 C708 1.336 . S
N707 C710 1.351 . S
C708 H694 0.922 1_455 S
C708 N707 1.336 . S
C708 C712 1.412 1_455 S
C709 C710 1.430 . S
C709 C711 1.404 1_455 S
C709 C738 1.387 . S
C710 C702 1.448 . S
C710 N707 1.351 . S
C710 C709 1.430 . S
C711 H700 0.930 . S
C711 C709 1.404 1_655 S
C711 C712 1.366 . S
C712 H691 0.930 . S
C712 C708 1.412 1_655 S
C712 C711 1.366 . S
H713 C706 0.929 . S
H714 C737 0.931 . S
H715 C738 0.931 . S
O716 Eu672 2.462 . S
O716 C736 1.252 . S
O717 Eu672 2.373 1_545 S
O717 C728 1.249 . S
O718 Eu683 2.335 . S
O718 C728 1.264 . S
O719 Eu672 2.432 . S
O719 C736 1.268 . S
O720 Eu672 2.291 1_545 S
O720 C735 1.255 1_455 S
O721 Eu683 2.372 1_655 S
O721 C735 1.257 . S
O722 Eu683 2.462 . S
O722 C747 1.252 . S
O723 Eu683 2.373 . S
O723 C739 1.249 . S
O724 Eu672 2.335 1_545 S
O724 C739 1.264 . S
O725 Eu683 2.432 1_655 S
O725 C747 1.268 1_655 S
O726 Eu683 2.291 . S
O726 C746 1.255 . S
O727 Eu672 2.372 1_545 S
O727 C746 1.257 . S
C728 O717 1.249 . S
C728 O718 1.264 . S
C729 C732 1.382 . S
C729 C734 1.390 . S
C729 C736 1.506 . S
C730 C731 1.398 . S
C730 C734 1.392 . S
C731 C730 1.398 . S
C731 C733 1.372 . S
C731 H748 0.931 . S
C732 C729 1.382 . S
C732 C733 1.390 . S
C732 H749 0.931 . S
C733 C731 1.372 . S
C733 C732 1.390 . S
C733 H750 0.929 . S
C734 C729 1.390 . S
C734 C730 1.392 . S
C734 H751 0.930 . S
C735 O720 1.255 1_655 S
C735 O721 1.257 . S
C736 Eu672 2.787 . S
C736 O716 1.252 . S
C736 O719 1.268 . S
C736 C729 1.506 . S
C737 C704 1.439 . S
C737 H714 0.931 . S
C737 C738 1.374 . S
C738 C709 1.387 . S
C738 H715 0.931 . S
C738 C737 1.374 . S
C739 O723 1.249 . S
C739 O724 1.264 . S
C740 C743 1.382 1_455 S
C740 C744 1.390 . S
C740 C747 1.506 . S
C741 C742 1.383 1_455 S
C741 C744 1.392 . S
C742 C741 1.383 1_655 S
C742 C745 1.383 . S
C742 H752 0.936 . S
C743 C740 1.382 1_655 S
C743 C745 1.390 . S
C743 H753 0.931 . S
C744 C740 1.390 . S
C744 C741 1.392 . S
C744 H754 0.930 . S
C745 C742 1.383 . S
C745 C743 1.390 . S
C745 H755 0.929 . S
C746 O726 1.255 . S
C746 O727 1.257 . S
C747 Eu683 2.787 . S
C747 O722 1.252 . S
C747 O725 1.268 1_455 S
C747 C740 1.506 . S
H748 C731 0.931 . S
H749 C732 0.931 . S
H750 C733 0.929 . S
H751 C734 0.930 . S
H752 C742 0.936 . S
H753 C743 0.931 . S
H754 C744 0.930 . S
H755 C745 0.929 . S
Eu756 N785 2.600 . S
Eu756 N791 2.562 . S
Eu756 O800 2.462 . S
Eu756 O801 2.373 . S
Eu756 O803 2.432 . S
Eu756 O804 2.291 . S
Eu756 O808 2.335 . S
Eu756 O811 2.372 . S
Eu756 C820 2.787 . S
C757 N758 1.365 . S
C757 C760 1.405 . S
C757 C764 1.448 . S
N758 C757 1.365 . S
N758 C761 1.319 . S
N758 Eu767 2.600 . S
C759 C761 1.397 . S
C759 C762 1.367 . S
C759 H779 0.931 . S
C760 C757 1.405 . S
C760 C762 1.403 . S
C760 C766 1.439 . S
C761 N758 1.319 . S
C761 C759 1.397 . S
C761 H772 0.930 . S
C762 C759 1.367 . S
C762 C760 1.403 . S
C762 H783 0.929 . S
C763 C764 1.430 . S
C763 C765 1.387 . S
C763 C769 1.404 . S
C764 C757 1.448 . S
C764 C763 1.430 . S
C764 N768 1.351 . S
C765 C763 1.387 . S
C765 C766 1.374 . S
C765 H780 0.931 . S
C766 C760 1.439 . S
C766 C765 1.374 . S
C766 H781 0.931 . S
Eu767 N758 2.600 . S
Eu767 N768 2.562 . S
Eu767 O802 2.335 . S
Eu767 O805 2.372 . S
Eu767 O806 2.462 . S
Eu767 O807 2.373 . S
Eu767 O809 2.432 . S
Eu767 O810 2.291 . S
Eu767 C831 2.787 . S
N768 C764 1.351 . S
N768 Eu767 2.562 . S
N768 C770 1.325 . S
C769 C763 1.404 . S
C769 C771 1.366 . S
C769 H777 0.930 . S
C770 N768 1.325 . S
C770 C771 1.416 . S
C770 H776 0.929 . S
C771 C769 1.366 . S
C771 C770 1.416 . S
C771 H773 0.930 . S
H772 C761 0.930 . S
H773 C771 0.930 . S
H774 C789 0.930 . S
H775 C796 0.930 . S
H776 C770 0.929 . S
H777 C769 0.930 . S
H778 C792 0.929 . S
H779 C759 0.931 . S
H780 C765 0.931 . S
H781 C766 0.931 . S
H782 C787 0.931 . S
H783 C762 0.929 . S
H784 C795 0.930 . S
N785 Eu756 2.600 . S
N785 C786 1.365 . S
N785 C789 1.319 . S
C786 N785 1.365 . S
C786 C788 1.405 . S
C786 C794 1.448 . S
C787 H782 0.931 . S
C787 C789 1.397 . S
C787 C790 1.367 . S
C788 C786 1.405 . S
C788 C790 1.403 . S
C788 C821 1.439 . S
C789 H774 0.930 . S
C789 N785 1.319 . S
C789 C787 1.397 . S
C790 C787 1.367 . S
C790 C788 1.403 . S
C790 H797 0.929 . S
N791 Eu756 2.562 . S
N791 C792 1.325 . S
N791 C794 1.351 . S
C792 H778 0.929 . S
C792 N791 1.325 . S
C792 C796 1.416 . S
C793 C794 1.430 . S
C793 C795 1.404 . S
C793 C822 1.387 . S
C794 C786 1.448 . S
C794 N791 1.351 . S
C794 C793 1.430 . S
C795 H784 0.930 . S
C795 C793 1.404 . S
C795 C796 1.366 . S
C796 H775 0.930 . S
C796 C792 1.416 . S
C796 C795 1.366 . S
H797 C790 0.929 . S
H798 C821 0.931 . S
H799 C822 0.931 . S
O800 Eu756 2.462 . S
O800 C820 1.252 . S
O801 Eu756 2.373 . S
O801 C812 1.249 . S
O802 Eu767 2.335 . S
O802 C812 1.264 . S
O803 Eu756 2.432 . S
O803 C820 1.268 . S
O804 Eu756 2.291 . S
O804 C819 1.255 . S
O805 Eu767 2.372 . S
O805 C819 1.257 . S
O806 Eu767 2.462 . S
O806 C831 1.252 . S
O807 Eu767 2.373 . S
O807 C823 1.249 . S
O808 Eu756 2.335 . S
O808 C823 1.264 . S
O809 Eu767 2.432 . S
O809 C831 1.268 . S
O810 Eu767 2.291 . S
O810 C830 1.255 . S
O811 Eu756 2.372 . S
O811 C830 1.257 . S
C812 O801 1.249 . S
C812 O802 1.264 . S
C813 C816 1.382 . S
C813 C818 1.390 . S
C813 C820 1.506 . S
C814 C815 1.398 . S
C814 C818 1.392 . S
C815 C814 1.398 . S
C815 C817 1.372 . S
C815 H832 0.931 . S
C816 C813 1.382 . S
C816 C817 1.390 . S
C816 H833 0.931 . S
C817 C815 1.372 . S
C817 C816 1.390 . S
C817 H834 0.929 . S
C818 C813 1.390 . S
C818 C814 1.392 . S
C818 H835 0.930 . S
C819 O804 1.255 . S
C819 O805 1.257 . S
C820 Eu756 2.787 . S
C820 O800 1.252 . S
C820 O803 1.268 . S
C820 C813 1.506 . S
C821 C788 1.439 . S
C821 H798 0.931 . S
C821 C822 1.374 . S
C822 C793 1.387 . S
C822 H799 0.931 . S
C822 C821 1.374 . S
C823 O807 1.249 . S
C823 O808 1.264 . S
C824 C827 1.382 . S
C824 C828 1.390 . S
C824 C831 1.506 . S
C825 C826 1.398 . S
C825 C828 1.392 . S
C826 C825 1.398 . S
C826 C829 1.372 . S
C826 H836 0.931 . S
C827 C824 1.382 . S
C827 C829 1.390 . S
C827 H837 0.931 . S
C828 C824 1.390 . S
C828 C825 1.392 . S
C828 H838 0.930 . S
C829 C826 1.372 . S
C829 C827 1.390 . S
C829 H839 0.929 . S
C830 O810 1.255 . S
C830 O811 1.257 . S
C831 Eu767 2.787 . S
C831 O806 1.252 . S
C831 O809 1.268 . S
C831 C824 1.506 . S
H832 C815 0.931 . S
H833 C816 0.931 . S
H834 C817 0.929 . S
H835 C818 0.930 . S
H836 C826 0.931 . S
H837 C827 0.931 . S
H838 C828 0.930 . S
H839 C829 0.929 . S
Eu840 N869 2.600 . S
Eu840 N875 2.562 . S
Eu840 O884 2.462 . S
Eu840 O885 2.373 1_556 S
Eu840 O887 2.432 . S
Eu840 O888 2.289 1_556 S
Eu840 O892 2.335 1_556 S
Eu840 O895 2.372 1_556 S
Eu840 C904 2.787 . S
C841 N842 1.374 . S
C841 C844 1.439 . S
C841 C848 1.404 1_565 S
N842 C841 1.374 . S
N842 C845 1.319 . S
N842 Eu851 2.600 1_565 S
C843 C845 1.397 . S
C843 C846 1.367 . S
C843 H863 0.931 . S
C844 C841 1.439 . S
C844 C846 1.403 . S
C844 C850 1.439 . S
C845 N842 1.319 . S
C845 C843 1.397 . S
C845 H856 0.930 . S
C846 C843 1.367 . S
C846 C844 1.403 . S
C846 H867 0.929 . S
C847 C848 1.430 . S
C847 C849 1.387 . S
C847 C853 1.404 . S
C848 C841 1.404 1_545 S
C848 C847 1.430 . S
C848 N852 1.351 . S
C849 C847 1.387 . S
C849 C850 1.374 1_545 S
C849 H864 0.931 . S
C850 C844 1.439 . S
C850 C849 1.374 1_565 S
C850 H865 0.931 . S
Eu851 N842 2.600 1_545 S
Eu851 N852 2.562 . S
Eu851 O886 2.335 . S
Eu851 O889 2.372 1_545 S
Eu851 O890 2.462 . S
Eu851 O891 2.373 . S
Eu851 O893 2.432 1_545 S
Eu851 O894 2.291 . S
Eu851 C915 2.787 . S
N852 C848 1.351 . S
N852 Eu851 2.562 . S
N852 C854 1.325 . S
C853 C847 1.404 . S
C853 C855 1.366 . S
C853 H861 0.930 . S
C854 N852 1.325 . S
C854 C855 1.416 . S
C854 H860 0.929 . S
C855 C853 1.366 . S
C855 C854 1.416 . S
C855 H857 0.930 . S
H856 C845 0.930 . S
H857 C855 0.930 . S
H858 C873 0.930 1_554 S
H859 C880 0.930 . S
H860 C854 0.929 . S
H861 C853 0.930 . S
H862 C876 0.929 . S
H863 C843 0.931 . S
H864 C849 0.931 . S
H865 C850 0.931 . S
H866 C871 0.931 . S
H867 C846 0.929 . S
H868 C879 0.940 . S
N869 Eu840 2.600 . S
N869 C870 1.365 . S
N869 C873 1.319 . S
C870 N869 1.365 . S
C870 C872 1.405 . S
C870 C878 1.448 . S
C871 H866 0.931 . S
C871 C873 1.397 . S
C871 C874 1.367 . S
C872 C870 1.405 . S
C872 C874 1.403 . S
C872 C905 1.439 . S
C873 H858 0.930 1_556 S
C873 N869 1.319 . S
C873 C871 1.397 . S
C874 C871 1.367 . S
C874 C872 1.403 . S
C874 H881 0.929 . S
N875 Eu840 2.562 . S
N875 C876 1.325 . S
N875 C878 1.351 . S
C876 H862 0.929 . S
C876 N875 1.325 . S
C876 C880 1.416 1_545 S
C877 C878 1.430 . S
C877 C879 1.404 . S
C877 C906 1.387 . S
C878 C870 1.448 . S
C878 N875 1.351 . S
C878 C877 1.430 . S
C879 H868 0.940 . S
C879 C877 1.404 . S
C879 C880 1.366 1_545 S
C880 H859 0.930 . S
C880 C876 1.416 1_565 S
C880 C879 1.366 1_565 S
H881 C874 0.929 . S
H882 C905 0.931 . S
H883 C906 0.931 . S
O884 Eu840 2.462 . S
O884 C904 1.252 . S
O885 Eu840 2.373 1_554 S
O885 C896 1.249 . S
O886 Eu851 2.335 . S
O886 C896 1.264 . S
O887 Eu840 2.432 . S
O887 C904 1.268 . S
O888 Eu840 2.289 1_554 S
O888 C903 1.260 1_545 S
O889 Eu851 2.372 1_565 S
O889 C903 1.257 . S
O890 Eu851 2.462 . S
O890 C915 1.252 . S
O891 Eu851 2.373 . S
O891 C907 1.249 . S
O892 Eu840 2.335 1_554 S
O892 C907 1.264 . S
O893 Eu851 2.432 1_565 S
O893 C915 1.268 1_565 S
O894 Eu851 2.291 . S
O894 C914 1.255 . S
O895 Eu840 2.372 1_554 S
O895 C914 1.257 . S
C896 O885 1.249 . S
C896 O886 1.264 . S
C897 C900 1.382 . S
C897 C902 1.390 . S
C897 C904 1.506 . S
C898 C899 1.398 . S
C898 C902 1.392 . S
C899 C898 1.398 . S
C899 C901 1.372 . S
C899 H916 0.931 . S
C900 C897 1.382 . S
C900 C901 1.390 . S
C900 H917 0.931 . S
C901 C899 1.372 . S
C901 C900 1.390 . S
C901 H918 0.929 . S
C902 C897 1.390 . S
C902 C898 1.392 . S
C902 H919 0.930 . S
C903 O888 1.260 1_565 S
C903 O889 1.257 . S
C904 Eu840 2.787 . S
C904 O884 1.252 . S
C904 O887 1.268 . S
C904 C897 1.506 . S
C905 C872 1.439 . S
C905 H882 0.931 . S
C905 C906 1.374 . S
C906 C877 1.387 . S
C906 H883 0.931 . S
C906 C905 1.374 . S
C907 O891 1.249 . S
C907 O892 1.264 . S
C908 C911 1.382 . S
C908 C912 1.390 1_565 S
C908 C915 1.506 1_565 S
C909 C910 1.398 1_545 S
C909 C912 1.392 . S
C910 C909 1.398 1_565 S
C910 C913 1.372 . S
C910 H920 0.931 . S
C911 C908 1.382 . S
C911 C913 1.390 . S
C911 H921 0.931 . S
C912 C908 1.390 1_545 S
C912 C909 1.392 . S
C912 H922 0.930 . S
C913 C910 1.372 . S
C913 C911 1.390 . S
C913 H923 0.929 . S
C914 O894 1.255 . S
C914 O895 1.257 . S
C915 Eu851 2.787 . S
C915 O890 1.252 . S
C915 O893 1.268 1_545 S
C915 C908 1.506 1_545 S
H916 C899 0.931 . S
H917 C900 0.931 . S
H918 C901 0.929 . S
H919 C902 0.930 . S
H920 C910 0.931 . S
H921 C911 0.931 . S
H922 C912 0.930 . S
H923 C913 0.929 . S
Eu924 N953 2.600 . S
Eu924 N959 2.562 . S
Eu924 O968 2.462 . S
Eu924 O969 2.373 . S
Eu924 O971 2.432 . S
Eu924 O972 2.291 . S
Eu924 O976 2.335 . S
Eu924 O979 2.372 . S
Eu924 C988 2.787 . S
C925 N926 1.365 . S
C925 C928 1.405 . S
C925 C932 1.448 . S
N926 C925 1.365 . S
N926 C929 1.319 . S
N926 Eu935 2.600 . S
C927 C929 1.397 . S
C927 C930 1.367 . S
C927 H947 0.931 . S
C928 C925 1.405 . S
C928 C930 1.403 . S
C928 C934 1.439 . S
C929 N926 1.319 . S
C929 C927 1.397 . S
C929 H940 0.930 . S
C930 C927 1.367 . S
C930 C928 1.403 . S
C930 H951 0.929 . S
C931 C932 1.430 . S
C931 C933 1.387 . S
C931 C937 1.404 . S
C932 C925 1.448 . S
C932 C931 1.430 . S
C932 N936 1.351 . S
C933 C931 1.387 . S
C933 C934 1.374 . S
C933 H948 0.931 . S
C934 C928 1.439 . S
C934 C933 1.374 . S
C934 H949 0.931 . S
Eu935 N926 2.600 . S
Eu935 N936 2.562 . S
Eu935 O970 2.335 . S
Eu935 O973 2.372 . S
Eu935 O974 2.462 . S
Eu935 O975 2.373 . S
Eu935 O977 2.432 . S
Eu935 O978 2.291 . S
Eu935 C999 2.787 . S
N936 C932 1.351 . S
N936 Eu935 2.562 . S
N936 C938 1.325 . S
C937 C931 1.404 . S
C937 C939 1.366 . S
C937 H945 0.930 . S
C938 N936 1.325 . S
C938 C939 1.416 . S
C938 H944 0.929 . S
C939 C937 1.366 . S
C939 C938 1.416 . S
C939 H941 0.930 . S
H940 C929 0.930 . S
H941 C939 0.930 . S
H942 C957 0.930 . S
H943 C964 0.930 . S
H944 C938 0.929 . S
H945 C937 0.930 . S
H946 C960 0.929 . S
H947 C927 0.931 . S
H948 C933 0.931 . S
H949 C934 0.931 . S
H950 C955 0.931 . S
H951 C930 0.929 . S
H952 C963 0.930 . S
N953 Eu924 2.600 . S
N953 C954 1.365 . S
N953 C957 1.319 . S
C954 N953 1.365 . S
C954 C956 1.405 . S
C954 C962 1.448 . S
C955 H950 0.931 . S
C955 C957 1.397 . S
C955 C958 1.367 . S
C956 C954 1.405 . S
C956 C958 1.403 . S
C956 C989 1.439 . S
C957 H942 0.930 . S
C957 N953 1.319 . S
C957 C955 1.397 . S
C958 C955 1.367 . S
C958 C956 1.403 . S
C958 H965 0.929 . S
N959 Eu924 2.562 . S
N959 C960 1.325 . S
N959 C962 1.351 . S
C960 H946 0.929 . S
C960 N959 1.325 . S
C960 C964 1.416 . S
C961 C962 1.430 . S
C961 C963 1.404 . S
C961 C990 1.387 . S
C962 C954 1.448 . S
C962 N959 1.351 . S
C962 C961 1.430 . S
C963 H952 0.930 . S
C963 C961 1.404 . S
C963 C964 1.366 . S
C964 H943 0.930 . S
C964 C960 1.416 . S
C964 C963 1.366 . S
H965 C958 0.929 . S
H966 C989 0.931 . S
H967 C990 0.931 . S
O968 Eu924 2.462 . S
O968 C988 1.252 . S
O969 Eu924 2.373 . S
O969 C980 1.249 . S
O970 Eu935 2.335 . S
O970 C980 1.264 . S
O971 Eu924 2.432 . S
O971 C988 1.268 . S
O972 Eu924 2.291 . S
O972 C987 1.255 . S
O973 Eu935 2.372 . S
O973 C987 1.257 . S
O974 Eu935 2.462 . S
O974 C999 1.252 . S
O975 Eu935 2.373 . S
O975 C991 1.249 . S
O976 Eu924 2.335 . S
O976 C991 1.264 . S
O977 Eu935 2.432 . S
O977 C999 1.268 . S
O978 Eu935 2.291 . S
O978 C998 1.255 . S
O979 Eu924 2.372 . S
O979 C998 1.257 . S
C980 O969 1.249 . S
C980 O970 1.264 . S
C981 C984 1.382 . S
C981 C986 1.390 . S
C981 C988 1.506 . S
C982 C983 1.398 . S
C982 C986 1.392 . S
C983 C982 1.398 . S
C983 C985 1.372 . S
C983 H1000 0.931 . S
C984 C981 1.382 . S
C984 C985 1.390 . S
C984 H1001 0.931 . S
C985 C983 1.372 . S
C985 C984 1.390 . S
C985 H1002 0.929 . S
C986 C981 1.390 . S
C986 C982 1.392 . S
C986 H1003 0.930 . S
C987 O972 1.255 . S
C987 O973 1.257 . S
C988 Eu924 2.787 . S
C988 O968 1.252 . S
C988 O971 1.268 . S
C988 C981 1.506 . S
C989 C956 1.439 . S
C989 H966 0.931 . S
C989 C990 1.374 . S
C990 C961 1.387 . S
C990 H967 0.931 . S
C990 C989 1.374 . S
C991 O975 1.249 . S
C991 O976 1.264 . S
C992 C995 1.382 . S
C992 C996 1.390 . S
C992 C999 1.506 . S
C993 C994 1.398 . S
C993 C996 1.392 . S
C994 C993 1.398 . S
C994 C997 1.372 . S
C994 H1004 0.931 . S
C995 C992 1.382 . S
C995 C997 1.390 . S
C995 H1005 0.931 . S
C996 C992 1.390 . S
C996 C993 1.392 . S
C996 H1006 0.930 . S
C997 C994 1.372 . S
C997 C995 1.390 . S
C997 H1007 0.929 . S
C998 O978 1.255 . S
C998 O979 1.257 . S
C999 Eu935 2.787 . S
C999 O974 1.252 . S
C999 O977 1.268 . S
C999 C992 1.506 . S
H1000 C983 0.931 . S
H1001 C984 0.931 . S
H1002 C985 0.929 . S
H1003 C986 0.930 . S
H1004 C994 0.931 . S
H1005 C995 0.931 . S
H1006 C996 0.930 . S
H1007 C997 0.929 . S
Eu1008 N1037 2.600 1_554 S
Eu1008 N1043 2.562 1_554 S
Eu1008 O1052 2.462 . S
Eu1008 O1053 2.373 1_554 S
Eu1008 O1055 2.432 . S
Eu1008 O1056 2.291 . S
Eu1008 O1060 2.335 . S
Eu1008 O1063 2.372 . S
Eu1008 C1072 2.787 . S
C1009 N1010 1.365 . S
C1009 C1012 1.405 . S
C1009 C1016 1.448 . S
N1010 C1009 1.365 . S
N1010 C1013 1.319 . S
N1010 Eu1019 2.600 . S
C1011 C1013 1.397 . S
C1011 C1014 1.367 . S
C1011 H1031 0.931 . S
C1012 C1009 1.405 . S
C1012 C1014 1.403 . S
C1012 C1018 1.439 . S
C1013 N1010 1.319 . S
C1013 C1011 1.397 . S
C1013 H1024 0.930 . S
C1014 C1011 1.367 . S
C1014 C1012 1.403 . S
C1014 H1035 0.929 . S
C1015 C1016 1.430 . S
C1015 C1017 1.387 . S
C1015 C1021 1.404 . S
C1016 C1009 1.448 . S
C1016 C1015 1.430 . S
C1016 N1020 1.351 . S
C1017 C1015 1.387 . S
C1017 C1018 1.374 . S
C1017 H1032 0.931 . S
C1018 C1012 1.439 . S
C1018 C1017 1.374 . S
C1018 H1033 0.931 . S
Eu1019 N1010 2.600 . S
Eu1019 N1020 2.562 . S
Eu1019 O1054 2.335 1_554 S
Eu1019 O1057 2.372 . S
Eu1019 O1058 2.462 . S
Eu1019 O1059 2.373 . S
Eu1019 O1061 2.432 . S
Eu1019 O1062 2.291 . S
Eu1019 C1083 2.787 . S
N1020 C1016 1.351 . S
N1020 Eu1019 2.562 . S
N1020 C1022 1.325 . S
C1021 C1015 1.404 . S
C1021 C1023 1.366 . S
C1021 H1029 0.930 . S
C1022 N1020 1.325 . S
C1022 C1023 1.416 . S
C1022 H1028 0.929 . S
C1023 C1021 1.366 . S
C1023 C1022 1.416 . S
C1023 H1025 0.930 . S
H1024 C1013 0.930 . S
H1025 C1023 0.930 . S
H1026 C1041 0.930 1_554 S
H1027 C1048 0.930 . S
H1028 C1022 0.929 . S
H1029 C1021 0.930 . S
H1030 C1044 0.929 1_554 S
H1031 C1011 0.931 . S
H1032 C1017 0.931 . S
H1033 C1018 0.931 . S
H1034 C1039 0.931 . S
H1035 C1014 0.929 . S
H1036 C1047 0.930 . S
N1037 Eu1008 2.600 1_556 S
N1037 C1038 1.365 . S
N1037 C1041 1.319 . S
C1038 N1037 1.365 . S
C1038 C1040 1.405 . S
C1038 C1046 1.448 . S
C1039 H1034 0.931 . S
C1039 C1041 1.397 . S
C1039 C1042 1.367 . S
C1040 C1038 1.405 . S
C1040 C1042 1.403 . S
C1040 C1073 1.439 . S
C1041 H1026 0.930 1_556 S
C1041 N1037 1.319 . S
C1041 C1039 1.397 . S
C1042 C1039 1.367 . S
C1042 C1040 1.403 . S
C1042 H1049 0.929 . S
N1043 Eu1008 2.562 1_556 S
N1043 C1044 1.325 . S
N1043 C1046 1.351 . S
C1044 H1030 0.929 1_556 S
C1044 N1043 1.325 . S
C1044 C1048 1.416 . S
C1045 C1046 1.430 . S
C1045 C1047 1.404 . S
C1045 C1074 1.387 . S
C1046 C1038 1.448 . S
C1046 N1043 1.351 . S
C1046 C1045 1.430 . S
C1047 H1036 0.930 . S
C1047 C1045 1.404 . S
C1047 C1048 1.366 . S
C1048 H1027 0.930 . S
C1048 C1044 1.416 . S
C1048 C1047 1.366 . S
H1049 C1042 0.929 . S
H1050 C1073 0.931 . S
H1051 C1074 0.931 . S
O1052 Eu1008 2.462 . S
O1052 C1072 1.252 . S
O1053 Eu1008 2.373 1_556 S
O1053 C1064 1.249 . S
O1054 Eu1019 2.335 1_556 S
O1054 C1064 1.264 . S
O1055 Eu1008 2.432 . S
O1055 C1072 1.268 . S
O1056 Eu1008 2.291 . S
O1056 C1071 1.255 . S
O1057 Eu1019 2.372 . S
O1057 C1071 1.257 . S
O1058 Eu1019 2.462 . S
O1058 C1083 1.252 . S
O1059 Eu1019 2.373 . S
O1059 C1075 1.249 . S
O1060 Eu1008 2.335 . S
O1060 C1075 1.264 . S
O1061 Eu1019 2.432 . S
O1061 C1083 1.268 . S
O1062 Eu1019 2.291 . S
O1062 C1082 1.255 . S
O1063 Eu1008 2.372 . S
O1063 C1082 1.257 . S
C1064 O1053 1.249 . S
C1064 O1054 1.264 . S
C1065 C1068 1.382 . S
C1065 C1070 1.390 . S
C1065 C1072 1.506 . S
C1066 C1067 1.398 . S
C1066 C1070 1.392 . S
C1067 C1066 1.398 . S
C1067 C1069 1.372 . S
C1067 H1084 0.931 . S
C1068 C1065 1.382 . S
C1068 C1069 1.390 . S
C1068 H1085 0.931 . S
C1069 C1067 1.372 . S
C1069 C1068 1.390 . S
C1069 H1086 0.929 . S
C1070 C1065 1.390 . S
C1070 C1066 1.392 . S
C1070 H1087 0.930 . S
C1071 O1056 1.255 . S
C1071 O1057 1.257 . S
C1072 Eu1008 2.787 . S
C1072 O1052 1.252 . S
C1072 O1055 1.268 . S
C1072 C1065 1.506 . S
C1073 C1040 1.439 . S
C1073 H1050 0.931 . S
C1073 C1074 1.374 . S
C1074 C1045 1.387 . S
C1074 H1051 0.931 . S
C1074 C1073 1.374 . S
C1075 O1059 1.249 . S
C1075 O1060 1.264 . S
C1076 C1079 1.382 . S
C1076 C1080 1.390 . S
C1076 C1083 1.506 1_556 S
C1077 C1078 1.398 . S
C1077 C1080 1.392 . S
C1078 C1077 1.398 . S
C1078 C1081 1.372 . S
C1078 H1088 0.931 . S
C1079 C1076 1.382 . S
C1079 C1081 1.390 . S
C1079 H1089 0.919 1_556 S
C1080 C1076 1.390 . S
C1080 C1077 1.392 . S
C1080 H1090 0.930 . S
C1081 C1078 1.372 . S
C1081 C1079 1.390 . S
C1081 H1091 0.929 . S
C1082 O1062 1.255 . S
C1082 O1063 1.257 . S
C1083 Eu1019 2.787 . S
C1083 O1058 1.252 . S
C1083 O1061 1.268 . S
C1083 C1076 1.506 1_554 S
H1084 C1067 0.931 . S
H1085 C1068 0.931 . S
H1086 C1069 0.929 . S
H1087 C1070 0.930 . S
H1088 C1078 0.931 . S
H1089 C1079 0.919 1_554 S
H1090 C1080 0.930 . S
H1091 C1081 0.929 . S
Eu1092 N1121 2.600 . S
Eu1092 N1127 2.562 . S
Eu1092 O1136 2.462 . S
Eu1092 O1137 2.373 . S
Eu1092 O1139 2.432 . S
Eu1092 O1140 2.291 . S
Eu1092 O1144 2.335 . S
Eu1092 O1147 2.372 . S
Eu1092 C1156 2.787 . S
C1093 N1094 1.365 . S
C1093 C1096 1.405 . S
C1093 C1100 1.448 . S
N1094 C1093 1.365 . S
N1094 C1097 1.319 . S
N1094 Eu1103 2.600 . S
C1095 C1097 1.397 . S
C1095 C1098 1.367 . S
C1095 H1115 0.931 . S
C1096 C1093 1.405 . S
C1096 C1098 1.403 . S
C1096 C1102 1.439 . S
C1097 N1094 1.319 . S
C1097 C1095 1.397 . S
C1097 H1108 0.930 . S
C1098 C1095 1.367 . S
C1098 C1096 1.403 . S
C1098 H1119 0.929 . S
C1099 C1100 1.430 . S
C1099 C1101 1.387 . S
C1099 C1105 1.404 . S
C1100 C1093 1.448 . S
C1100 C1099 1.430 . S
C1100 N1104 1.351 . S
C1101 C1099 1.387 . S
C1101 C1102 1.374 . S
C1101 H1116 0.931 . S
C1102 C1096 1.439 . S
C1102 C1101 1.374 . S
C1102 H1117 0.931 . S
Eu1103 N1094 2.600 . S
Eu1103 N1104 2.562 . S
Eu1103 O1138 2.335 . S
Eu1103 O1141 2.372 . S
Eu1103 O1142 2.462 . S
Eu1103 O1143 2.373 . S
Eu1103 O1145 2.432 . S
Eu1103 O1146 2.291 . S
Eu1103 C1167 2.787 . S
N1104 C1100 1.351 . S
N1104 Eu1103 2.562 . S
N1104 C1106 1.325 . S
C1105 C1099 1.404 . S
C1105 C1107 1.366 . S
C1105 H1113 0.930 . S
C1106 N1104 1.325 . S
C1106 C1107 1.416 . S
C1106 H1112 0.929 . S
C1107 C1105 1.366 . S
C1107 C1106 1.416 . S
C1107 H1109 0.930 . S
H1108 C1097 0.930 . S
H1109 C1107 0.930 . S
H1110 C1125 0.930 . S
H1111 C1132 0.930 . S
H1112 C1106 0.929 . S
H1113 C1105 0.930 . S
H1114 C1128 0.929 . S
H1115 C1095 0.931 . S
H1116 C1101 0.931 . S
H1117 C1102 0.931 . S
H1118 C1123 0.931 . S
H1119 C1098 0.929 . S
H1120 C1131 0.930 . S
N1121 Eu1092 2.600 . S
N1121 C1122 1.365 . S
N1121 C1125 1.319 . S
C1122 N1121 1.365 . S
C1122 C1124 1.405 . S
C1122 C1130 1.448 . S
C1123 H1118 0.931 . S
C1123 C1125 1.397 . S
C1123 C1126 1.367 . S
C1124 C1122 1.405 . S
C1124 C1126 1.403 . S
C1124 C1157 1.439 . S
C1125 H1110 0.930 . S
C1125 N1121 1.319 . S
C1125 C1123 1.397 . S
C1126 C1123 1.367 . S
C1126 C1124 1.403 . S
C1126 H1133 0.929 . S
N1127 Eu1092 2.562 . S
N1127 C1128 1.325 . S
N1127 C1130 1.351 . S
C1128 H1114 0.929 . S
C1128 N1127 1.325 . S
C1128 C1132 1.416 . S
C1129 C1130 1.430 . S
C1129 C1131 1.404 . S
C1129 C1158 1.387 . S
C1130 C1122 1.448 . S
C1130 N1127 1.351 . S
C1130 C1129 1.430 . S
C1131 H1120 0.930 . S
C1131 C1129 1.404 . S
C1131 C1132 1.366 . S
C1132 H1111 0.930 . S
C1132 C1128 1.416 . S
C1132 C1131 1.366 . S
H1133 C1126 0.929 . S
H1134 C1157 0.931 . S
H1135 C1158 0.931 . S
O1136 Eu1092 2.462 . S
O1136 C1156 1.252 . S
O1137 Eu1092 2.373 . S
O1137 C1148 1.249 . S
O1138 Eu1103 2.335 . S
O1138 C1148 1.264 . S
O1139 Eu1092 2.432 . S
O1139 C1156 1.268 . S
O1140 Eu1092 2.291 . S
O1140 C1155 1.255 . S
O1141 Eu1103 2.372 . S
O1141 C1155 1.257 . S
O1142 Eu1103 2.462 . S
O1142 C1167 1.252 . S
O1143 Eu1103 2.373 . S
O1143 C1159 1.249 . S
O1144 Eu1092 2.335 . S
O1144 C1159 1.264 . S
O1145 Eu1103 2.432 . S
O1145 C1167 1.268 . S
O1146 Eu1103 2.291 . S
O1146 C1166 1.255 . S
O1147 Eu1092 2.372 . S
O1147 C1166 1.257 . S
C1148 O1137 1.249 . S
C1148 O1138 1.264 . S
C1149 C1152 1.382 . S
C1149 C1154 1.390 . S
C1149 C1156 1.506 . S
C1150 C1151 1.398 . S
C1150 C1154 1.392 . S
C1151 C1150 1.398 . S
C1151 C1153 1.372 . S
C1151 H1168 0.931 . S
C1152 C1149 1.382 . S
C1152 C1153 1.390 . S
C1152 H1169 0.931 . S
C1153 C1151 1.372 . S
C1153 C1152 1.390 . S
C1153 H1170 0.929 . S
C1154 C1149 1.390 . S
C1154 C1150 1.392 . S
C1154 H1171 0.930 . S
C1155 O1140 1.255 . S
C1155 O1141 1.257 . S
C1156 Eu1092 2.787 . S
C1156 O1136 1.252 . S
C1156 O1139 1.268 . S
C1156 C1149 1.506 . S
C1157 C1124 1.439 . S
C1157 H1134 0.931 . S
C1157 C1158 1.374 . S
C1158 C1129 1.387 . S
C1158 H1135 0.931 . S
C1158 C1157 1.374 . S
C1159 O1143 1.249 . S
C1159 O1144 1.264 . S
C1160 C1163 1.382 . S
C1160 C1164 1.390 . S
C1160 C1167 1.506 . S
C1161 C1162 1.398 . S
C1161 C1164 1.392 . S
C1162 C1161 1.398 . S
C1162 C1165 1.372 . S
C1162 H1172 0.931 . S
C1163 C1160 1.382 . S
C1163 C1165 1.390 . S
C1163 H1173 0.931 . S
C1164 C1160 1.390 . S
C1164 C1161 1.392 . S
C1164 H1174 0.930 . S
C1165 C1162 1.372 . S
C1165 C1163 1.390 . S
C1165 H1175 0.929 . S
C1166 O1146 1.255 . S
C1166 O1147 1.257 . S
C1167 Eu1103 2.787 . S
C1167 O1142 1.252 . S
C1167 O1145 1.268 . S
C1167 C1160 1.506 . S
H1168 C1151 0.931 . S
H1169 C1152 0.931 . S
H1170 C1153 0.929 . S
H1171 C1154 0.930 . S
H1172 C1162 0.931 . S
H1173 C1163 0.931 . S
H1174 C1164 0.930 . S
H1175 C1165 0.929 . S
Eu1176 N1205 2.600 1_455 S
Eu1176 N1211 2.562 1_455 S
Eu1176 O1220 2.462 . S
Eu1176 O1221 2.373 1_455 S
Eu1176 O1223 2.432 . S
Eu1176 O1224 2.291 . S
Eu1176 O1228 2.335 . S
Eu1176 O1231 2.372 . S
Eu1176 C1240 2.787 . S
C1177 N1178 1.365 . S
C1177 C1180 1.405 . S
C1177 C1184 1.448 . S
N1178 C1177 1.365 . S
N1178 C1181 1.319 . S
N1178 Eu1187 2.600 . S
C1179 C1181 1.397 . S
C1179 C1182 1.367 . S
C1179 H1199 0.931 . S
C1180 C1177 1.405 . S
C1180 C1182 1.403 . S
C1180 C1186 1.439 . S
C1181 N1178 1.319 . S
C1181 C1179 1.397 . S
C1181 H1192 0.930 . S
C1182 C1179 1.367 . S
C1182 C1180 1.403 . S
C1182 H1203 0.929 . S
C1183 C1184 1.430 . S
C1183 C1185 1.387 . S
C1183 C1189 1.404 . S
C1184 C1177 1.448 . S
C1184 C1183 1.430 . S
C1184 N1188 1.351 . S
C1185 C1183 1.387 . S
C1185 C1186 1.374 . S
C1185 H1200 0.931 . S
C1186 C1180 1.439 . S
C1186 C1185 1.374 . S
C1186 H1201 0.931 . S
Eu1187 N1178 2.600 . S
Eu1187 N1188 2.562 . S
Eu1187 O1222 2.335 1_455 S
Eu1187 O1225 2.372 . S
Eu1187 O1226 2.462 . S
Eu1187 O1227 2.373 . S
Eu1187 O1229 2.432 . S
Eu1187 O1230 2.291 . S
Eu1187 C1251 2.787 . S
N1188 C1184 1.351 . S
N1188 Eu1187 2.562 . S
N1188 C1190 1.325 . S
C1189 C1183 1.404 . S
C1189 C1191 1.366 . S
C1189 H1197 0.930 . S
C1190 N1188 1.325 . S
C1190 C1191 1.416 . S
C1190 H1196 0.929 . S
C1191 C1189 1.366 . S
C1191 C1190 1.416 . S
C1191 H1193 0.930 . S
H1192 C1181 0.930 . S
H1193 C1191 0.930 . S
H1194 C1209 0.907 1_455 S
H1195 C1216 0.930 . S
H1196 C1190 0.929 . S
H1197 C1189 0.930 . S
H1198 C1212 0.929 1_455 S
H1199 C1179 0.931 . S
H1200 C1185 0.931 . S
H1201 C1186 0.931 . S
H1202 C1207 0.931 . S
H1203 C1182 0.929 . S
H1204 C1215 0.930 . S
N1205 Eu1176 2.600 1_655 S
N1205 C1206 1.365 . S
N1205 C1209 1.313 . S
C1206 N1205 1.365 . S
C1206 C1208 1.405 . S
C1206 C1214 1.448 . S
C1207 H1202 0.931 . S
C1207 C1209 1.425 . S
C1207 C1210 1.367 . S
C1208 C1206 1.405 . S
C1208 C1210 1.403 . S
C1208 C1241 1.439 . S
C1209 H1194 0.907 1_655 S
C1209 N1205 1.313 . S
C1209 C1207 1.425 . S
C1210 C1207 1.367 . S
C1210 C1208 1.403 . S
C1210 H1217 0.929 . S
N1211 Eu1176 2.562 1_655 S
N1211 C1212 1.325 . S
N1211 C1214 1.351 . S
C1212 H1198 0.929 1_655 S
C1212 N1211 1.325 . S
C1212 C1216 1.416 . S
C1213 C1214 1.430 . S
C1213 C1215 1.404 . S
C1213 C1242 1.387 . S
C1214 C1206 1.448 . S
C1214 N1211 1.351 . S
C1214 C1213 1.430 . S
C1215 H1204 0.930 . S
C1215 C1213 1.404 . S
C1215 C1216 1.366 . S
C1216 H1195 0.930 . S
C1216 C1212 1.416 . S
C1216 C1215 1.366 . S
H1217 C1210 0.929 . S
H1218 C1241 0.931 . S
H1219 C1242 0.931 . S
O1220 Eu1176 2.462 . S
O1220 C1240 1.252 . S
O1221 Eu1176 2.373 1_655 S
O1221 C1232 1.249 . S
O1222 Eu1187 2.335 1_655 S
O1222 C1232 1.264 . S
O1223 Eu1176 2.432 . S
O1223 C1240 1.268 . S
O1224 Eu1176 2.291 . S
O1224 C1239 1.255 . S
O1225 Eu1187 2.372 . S
O1225 C1239 1.257 . S
O1226 Eu1187 2.462 . S
O1226 C1251 1.252 . S
O1227 Eu1187 2.373 . S
O1227 C1243 1.249 . S
O1228 Eu1176 2.335 . S
O1228 C1243 1.264 . S
O1229 Eu1187 2.432 . S
O1229 C1251 1.268 . S
O1230 Eu1187 2.291 . S
O1230 C1250 1.255 . S
O1231 Eu1176 2.372 . S
O1231 C1250 1.257 . S
C1232 O1221 1.249 . S
C1232 O1222 1.264 . S
C1233 C1236 1.382 . S
C1233 C1238 1.390 . S
C1233 C1240 1.506 . S
C1234 C1235 1.398 . S
C1234 C1238 1.392 . S
C1235 C1234 1.398 . S
C1235 C1237 1.372 . S
C1235 H1252 0.931 . S
C1236 C1233 1.382 . S
C1236 C1237 1.390 . S
C1236 H1253 0.931 . S
C1237 C1235 1.372 . S
C1237 C1236 1.390 . S
C1237 H1254 0.929 . S
C1238 C1233 1.390 . S
C1238 C1234 1.392 . S
C1238 H1255 0.930 . S
C1239 O1224 1.255 . S
C1239 O1225 1.257 . S
C1240 Eu1176 2.787 . S
C1240 O1220 1.252 . S
C1240 O1223 1.268 . S
C1240 C1233 1.506 . S
C1241 C1208 1.439 . S
C1241 H1218 0.931 . S
C1241 C1242 1.374 . S
C1242 C1213 1.387 . S
C1242 H1219 0.931 . S
C1242 C1241 1.374 . S
C1243 O1227 1.249 . S
C1243 O1228 1.264 . S
C1244 C1247 1.382 . S
C1244 C1248 1.390 . S
C1244 C1251 1.506 1_655 S
C1245 C1246 1.398 . S
C1245 C1248 1.392 . S
C1246 C1245 1.398 . S
C1246 C1249 1.372 . S
C1246 H1256 0.931 . S
C1247 C1244 1.382 . S
C1247 C1249 1.390 . S
C1247 H1257 0.931 . S
C1248 C1244 1.390 . S
C1248 C1245 1.392 . S
C1248 H1258 0.930 . S
C1249 C1246 1.372 . S
C1249 C1247 1.390 . S
C1249 H1259 0.929 . S
C1250 O1230 1.255 . S
C1250 O1231 1.257 . S
C1251 Eu1187 2.787 . S
C1251 O1226 1.252 . S
C1251 O1229 1.268 . S
C1251 C1244 1.506 1_455 S
H1252 C1235 0.931 . S
H1253 C1236 0.931 . S
H1254 C1237 0.929 . S
H1255 C1238 0.930 . S
H1256 C1246 0.931 . S
H1257 C1247 0.931 . S
H1258 C1248 0.930 . S
H1259 C1249 0.929 . S
Eu1260 N1289 2.600 . S
Eu1260 N1295 2.562 . S
Eu1260 O1304 2.462 . S
Eu1260 O1305 2.373 . S
Eu1260 O1307 2.432 . S
Eu1260 O1308 2.291 . S
Eu1260 O1312 2.335 . S
Eu1260 O1315 2.372 . S
Eu1260 C1324 2.787 . S
C1261 N1262 1.365 . S
C1261 C1264 1.405 . S
C1261 C1268 1.448 . S
N1262 C1261 1.365 . S
N1262 C1265 1.319 . S
N1262 Eu1271 2.600 . S
C1263 C1265 1.397 . S
C1263 C1266 1.367 . S
C1263 H1283 0.931 . S
C1264 C1261 1.405 . S
C1264 C1266 1.403 . S
C1264 C1270 1.439 . S
C1265 N1262 1.319 . S
C1265 C1263 1.397 . S
C1265 H1276 0.930 . S
C1266 C1263 1.367 . S
C1266 C1264 1.403 . S
C1266 H1287 0.929 . S
C1267 C1268 1.430 . S
C1267 C1269 1.387 . S
C1267 C1273 1.404 . S
C1268 C1261 1.448 . S
C1268 C1267 1.430 . S
C1268 N1272 1.351 . S
C1269 C1267 1.387 . S
C1269 C1270 1.374 . S
C1269 H1284 0.931 . S
C1270 C1264 1.439 . S
C1270 C1269 1.374 . S
C1270 H1285 0.931 . S
Eu1271 N1262 2.600 . S
Eu1271 N1272 2.562 . S
Eu1271 O1306 2.335 . S
Eu1271 O1309 2.372 . S
Eu1271 O1310 2.462 . S
Eu1271 O1311 2.373 . S
Eu1271 O1313 2.432 . S
Eu1271 O1314 2.291 . S
Eu1271 C1335 2.787 . S
N1272 C1268 1.351 . S
N1272 Eu1271 2.562 . S
N1272 C1274 1.325 . S
C1273 C1267 1.404 . S
C1273 C1275 1.366 . S
C1273 H1281 0.930 . S
C1274 N1272 1.325 . S
C1274 C1275 1.416 . S
C1274 H1280 0.929 . S
C1275 C1273 1.366 . S
C1275 C1274 1.416 . S
C1275 H1277 0.930 . S
H1276 C1265 0.930 . S
H1277 C1275 0.930 . S
H1278 C1293 0.930 . S
H1279 C1300 0.930 . S
H1280 C1274 0.929 . S
H1281 C1273 0.930 . S
H1282 C1296 0.929 . S
H1283 C1263 0.931 . S
H1284 C1269 0.931 . S
H1285 C1270 0.931 . S
H1286 C1291 0.931 . S
H1287 C1266 0.929 . S
H1288 C1299 0.930 . S
N1289 Eu1260 2.600 . S
N1289 C1290 1.365 . S
N1289 C1293 1.319 . S
C1290 N1289 1.365 . S
C1290 C1292 1.405 . S
C1290 C1298 1.448 . S
C1291 H1286 0.931 . S
C1291 C1293 1.397 . S
C1291 C1294 1.367 . S
C1292 C1290 1.405 . S
C1292 C1294 1.403 . S
C1292 C1325 1.439 . S
C1293 H1278 0.930 . S
C1293 N1289 1.319 . S
C1293 C1291 1.397 . S
C1294 C1291 1.367 . S
C1294 C1292 1.403 . S
C1294 H1301 0.929 . S
N1295 Eu1260 2.562 . S
N1295 C1296 1.325 . S
N1295 C1298 1.351 . S
C1296 H1282 0.929 . S
C1296 N1295 1.325 . S
C1296 C1300 1.416 . S
C1297 C1298 1.430 . S
C1297 C1299 1.404 . S
C1297 C1326 1.387 . S
C1298 C1290 1.448 . S
C1298 N1295 1.351 . S
C1298 C1297 1.430 . S
C1299 H1288 0.930 . S
C1299 C1297 1.404 . S
C1299 C1300 1.366 . S
C1300 H1279 0.930 . S
C1300 C1296 1.416 . S
C1300 C1299 1.366 . S
H1301 C1294 0.929 . S
H1302 C1325 0.931 . S
H1303 C1326 0.931 . S
O1304 Eu1260 2.462 . S
O1304 C1324 1.252 . S
O1305 Eu1260 2.373 . S
O1305 C1316 1.249 . S
O1306 Eu1271 2.335 . S
O1306 C1316 1.264 . S
O1307 Eu1260 2.432 . S
O1307 C1324 1.268 . S
O1308 Eu1260 2.291 . S
O1308 C1323 1.255 . S
O1309 Eu1271 2.372 . S
O1309 C1323 1.257 . S
O1310 Eu1271 2.462 . S
O1310 C1335 1.252 . S
O1311 Eu1271 2.373 . S
O1311 C1327 1.249 . S
O1312 Eu1260 2.335 . S
O1312 C1327 1.264 . S
O1313 Eu1271 2.432 . S
O1313 C1335 1.268 . S
O1314 Eu1271 2.291 . S
O1314 C1334 1.255 . S
O1315 Eu1260 2.372 . S
O1315 C1334 1.257 . S
C1316 O1305 1.249 . S
C1316 O1306 1.264 . S
C1317 C1320 1.382 . S
C1317 C1322 1.390 . S
C1317 C1324 1.506 . S
C1318 C1319 1.398 . S
C1318 C1322 1.392 . S
C1319 C1318 1.398 . S
C1319 C1321 1.372 . S
C1319 H1336 0.931 . S
C1320 C1317 1.382 . S
C1320 C1321 1.390 . S
C1320 H1337 0.931 . S
C1321 C1319 1.372 . S
C1321 C1320 1.390 . S
C1321 H1338 0.929 . S
C1322 C1317 1.390 . S
C1322 C1318 1.392 . S
C1322 H1339 0.930 . S
C1323 O1308 1.255 . S
C1323 O1309 1.257 . S
C1324 Eu1260 2.787 . S
C1324 O1304 1.252 . S
C1324 O1307 1.268 . S
C1324 C1317 1.506 . S
C1325 C1292 1.439 . S
C1325 H1302 0.931 . S
C1325 C1326 1.374 . S
C1326 C1297 1.387 . S
C1326 H1303 0.931 . S
C1326 C1325 1.374 . S
C1327 O1311 1.249 . S
C1327 O1312 1.264 . S
C1328 C1331 1.382 . S
C1328 C1332 1.390 . S
C1328 C1335 1.506 . S
C1329 C1330 1.398 . S
C1329 C1332 1.392 . S
C1330 C1329 1.398 . S
C1330 C1333 1.372 . S
C1330 H1340 0.931 . S
C1331 C1328 1.382 . S
C1331 C1333 1.390 . S
C1331 H1341 0.931 . S
C1332 C1328 1.390 . S
C1332 C1329 1.392 . S
C1332 H1342 0.930 . S
C1333 C1330 1.372 . S
C1333 C1331 1.390 . S
C1333 H1343 0.929 . S
C1334 O1314 1.255 . S
C1334 O1315 1.257 . S
C1335 Eu1271 2.787 . S
C1335 O1310 1.252 . S
C1335 O1313 1.268 . S
C1335 C1328 1.506 . S
H1336 C1319 0.931 . S
H1337 C1320 0.931 . S
H1338 C1321 0.929 . S
H1339 C1322 0.930 . S
H1340 C1330 0.931 . S
H1341 C1331 0.931 . S
H1342 C1332 0.930 . S
H1343 C1333 0.929 . S
Eu1344 N1373 2.600 . S
Eu1344 N1379 2.562 . S
Eu1344 O1388 2.462 . S
Eu1344 O1389 2.373 . S
Eu1344 O1391 2.432 . S
Eu1344 O1392 2.291 . S
Eu1344 O1396 2.335 . S
Eu1344 O1399 2.372 . S
Eu1344 C1408 2.787 . S
C1345 N1346 1.365 . S
C1345 C1348 1.405 . S
C1345 C1352 1.448 . S
N1346 C1345 1.365 . S
N1346 C1349 1.319 . S
N1346 Eu1355 2.600 . S
C1347 C1349 1.397 . S
C1347 C1350 1.367 . S
C1347 H1367 0.931 . S
C1348 C1345 1.405 . S
C1348 C1350 1.403 . S
C1348 C1354 1.439 . S
C1349 N1346 1.319 . S
C1349 C1347 1.397 . S
C1349 H1360 0.930 . S
C1350 C1347 1.367 . S
C1350 C1348 1.403 . S
C1350 H1371 0.929 . S
C1351 C1352 1.430 . S
C1351 C1353 1.387 . S
C1351 C1357 1.404 . S
C1352 C1345 1.448 . S
C1352 C1351 1.430 . S
C1352 N1356 1.351 . S
C1353 C1351 1.387 . S
C1353 C1354 1.374 . S
C1353 H1368 0.931 . S
C1354 C1348 1.439 . S
C1354 C1353 1.374 . S
C1354 H1369 0.931 . S
Eu1355 N1346 2.600 . S
Eu1355 N1356 2.562 . S
Eu1355 O1390 2.335 . S
Eu1355 O1393 2.372 . S
Eu1355 O1394 2.462 . S
Eu1355 O1395 2.373 . S
Eu1355 O1397 2.432 . S
Eu1355 O1398 2.291 . S
Eu1355 C1419 2.787 . S
N1356 C1352 1.351 . S
N1356 Eu1355 2.562 . S
N1356 C1358 1.325 . S
C1357 C1351 1.404 . S
C1357 C1359 1.366 . S
C1357 H1365 0.930 . S
C1358 N1356 1.325 . S
C1358 C1359 1.416 . S
C1358 H1364 0.929 . S
C1359 C1357 1.366 . S
C1359 C1358 1.416 . S
C1359 H1361 0.930 . S
H1360 C1349 0.930 . S
H1361 C1359 0.930 . S
H1362 C1377 0.930 . S
H1363 C1384 0.930 . S
H1364 C1358 0.929 . S
H1365 C1357 0.930 . S
H1366 C1380 0.929 . S
H1367 C1347 0.931 . S
H1368 C1353 0.931 . S
H1369 C1354 0.931 . S
H1370 C1375 0.931 . S
H1371 C1350 0.929 . S
H1372 C1383 0.930 . S
N1373 Eu1344 2.600 . S
N1373 C1374 1.365 . S
N1373 C1377 1.319 . S
C1374 N1373 1.365 . S
C1374 C1376 1.405 . S
C1374 C1382 1.448 . S
C1375 H1370 0.931 . S
C1375 C1377 1.397 . S
C1375 C1378 1.367 . S
C1376 C1374 1.405 . S
C1376 C1378 1.403 . S
C1376 C1409 1.439 . S
C1377 H1362 0.930 . S
C1377 N1373 1.319 . S
C1377 C1375 1.397 . S
C1378 C1375 1.367 . S
C1378 C1376 1.403 . S
C1378 H1385 0.929 . S
N1379 Eu1344 2.562 . S
N1379 C1380 1.325 . S
N1379 C1382 1.351 . S
C1380 H1366 0.929 . S
C1380 N1379 1.325 . S
C1380 C1384 1.416 . S
C1381 C1382 1.430 . S
C1381 C1383 1.404 . S
C1381 C1410 1.387 . S
C1382 C1374 1.448 . S
C1382 N1379 1.351 . S
C1382 C1381 1.430 . S
C1383 H1372 0.930 . S
C1383 C1381 1.404 . S
C1383 C1384 1.366 . S
C1384 H1363 0.930 . S
C1384 C1380 1.416 . S
C1384 C1383 1.366 . S
H1385 C1378 0.929 . S
H1386 C1409 0.931 . S
H1387 C1410 0.931 . S
O1388 Eu1344 2.462 . S
O1388 C1408 1.252 . S
O1389 Eu1344 2.373 . S
O1389 C1400 1.249 . S
O1390 Eu1355 2.335 . S
O1390 C1400 1.264 . S
O1391 Eu1344 2.432 . S
O1391 C1408 1.268 . S
O1392 Eu1344 2.291 . S
O1392 C1407 1.255 . S
O1393 Eu1355 2.372 . S
O1393 C1407 1.257 . S
O1394 Eu1355 2.462 . S
O1394 C1419 1.252 . S
O1395 Eu1355 2.373 . S
O1395 C1411 1.249 . S
O1396 Eu1344 2.335 . S
O1396 C1411 1.264 . S
O1397 Eu1355 2.432 . S
O1397 C1419 1.268 . S
O1398 Eu1355 2.291 . S
O1398 C1418 1.255 . S
O1399 Eu1344 2.372 . S
O1399 C1418 1.257 . S
C1400 O1389 1.249 . S
C1400 O1390 1.264 . S
C1401 C1404 1.382 . S
C1401 C1406 1.390 . S
C1401 C1408 1.506 . S
C1402 C1403 1.398 . S
C1402 C1406 1.392 . S
C1403 C1402 1.398 . S
C1403 C1405 1.372 . S
C1403 H1420 0.931 . S
C1404 C1401 1.382 . S
C1404 C1405 1.390 . S
C1404 H1421 0.931 . S
C1405 C1403 1.372 . S
C1405 C1404 1.390 . S
C1405 H1422 0.929 . S
C1406 C1401 1.390 . S
C1406 C1402 1.392 . S
C1406 H1423 0.930 . S
C1407 O1392 1.255 . S
C1407 O1393 1.257 . S
C1408 Eu1344 2.787 . S
C1408 O1388 1.252 . S
C1408 O1391 1.268 . S
C1408 C1401 1.506 . S
C1409 C1376 1.439 . S
C1409 H1386 0.931 . S
C1409 C1410 1.374 . S
C1410 C1381 1.387 . S
C1410 H1387 0.931 . S
C1410 C1409 1.374 . S
C1411 O1395 1.249 . S
C1411 O1396 1.264 . S
C1412 C1415 1.382 . S
C1412 C1416 1.390 . S
C1412 C1419 1.506 . S
C1413 C1414 1.398 . S
C1413 C1416 1.392 . S
C1414 C1413 1.398 . S
C1414 C1417 1.372 . S
C1414 H1424 0.931 . S
C1415 C1412 1.382 . S
C1415 C1417 1.390 . S
C1415 H1425 0.931 . S
C1416 C1412 1.390 . S
C1416 C1413 1.392 . S
C1416 H1426 0.930 . S
C1417 C1414 1.372 . S
C1417 C1415 1.390 . S
C1417 H1427 0.929 . S
C1418 O1398 1.255 . S
C1418 O1399 1.257 . S
C1419 Eu1355 2.787 . S
C1419 O1394 1.252 . S
C1419 O1397 1.268 . S
C1419 C1412 1.506 . S
H1420 C1403 0.931 . S
H1421 C1404 0.931 . S
H1422 C1405 0.929 . S
H1423 C1406 0.930 . S
H1424 C1414 0.931 . S
H1425 C1415 0.931 . S
H1426 C1416 0.930 . S
H1427 C1417 0.929 . S
Eu1428 N1457 2.600 . S
Eu1428 N1463 2.562 . S
Eu1428 O1472 2.462 . S
Eu1428 O1473 2.373 . S
Eu1428 O1475 2.432 . S
Eu1428 O1476 2.291 . S
Eu1428 O1480 2.335 . S
Eu1428 O1483 2.372 . S
Eu1428 C1492 2.787 . S
C1429 N1430 1.365 . S
C1429 C1432 1.405 . S
C1429 C1436 1.448 . S
N1430 C1429 1.365 . S
N1430 C1433 1.319 . S
N1430 Eu1439 2.600 . S
C1431 C1433 1.397 . S
C1431 C1434 1.367 . S
C1431 H1451 0.931 . S
C1432 C1429 1.405 . S
C1432 C1434 1.403 . S
C1432 C1438 1.439 . S
C1433 N1430 1.319 . S
C1433 C1431 1.397 . S
C1433 H1444 0.930 . S
C1434 C1431 1.367 . S
C1434 C1432 1.403 . S
C1434 H1455 0.929 . S
C1435 C1436 1.430 . S
C1435 C1437 1.387 . S
C1435 C1441 1.404 . S
C1436 C1429 1.448 . S
C1436 C1435 1.430 . S
C1436 N1440 1.351 . S
C1437 C1435 1.387 . S
C1437 C1438 1.374 . S
C1437 H1452 0.931 . S
C1438 C1432 1.439 . S
C1438 C1437 1.374 . S
C1438 H1453 0.931 . S
Eu1439 N1430 2.600 . S
Eu1439 N1440 2.562 . S
Eu1439 O1474 2.335 . S
Eu1439 O1477 2.372 . S
Eu1439 O1478 2.462 . S
Eu1439 O1479 2.373 . S
Eu1439 O1481 2.432 . S
Eu1439 O1482 2.291 . S
Eu1439 C1503 2.787 . S
N1440 C1436 1.351 . S
N1440 Eu1439 2.562 . S
N1440 C1442 1.325 . S
C1441 C1435 1.404 . S
C1441 C1443 1.366 . S
C1441 H1449 0.930 . S
C1442 N1440 1.325 . S
C1442 C1443 1.416 . S
C1442 H1448 0.929 . S
C1443 C1441 1.366 . S
C1443 C1442 1.416 . S
C1443 H1445 0.930 . S
H1444 C1433 0.930 . S
H1445 C1443 0.930 . S
H1446 C1461 0.930 . S
H1447 C1468 0.930 . S
H1448 C1442 0.929 . S
H1449 C1441 0.930 . S
H1450 C1464 0.929 . S
H1451 C1431 0.931 . S
H1452 C1437 0.931 . S
H1453 C1438 0.931 . S
H1454 C1459 0.931 . S
H1455 C1434 0.929 . S
H1456 C1467 0.930 . S
N1457 Eu1428 2.600 . S
N1457 C1458 1.365 . S
N1457 C1461 1.319 . S
C1458 N1457 1.365 . S
C1458 C1460 1.405 . S
C1458 C1466 1.448 . S
C1459 H1454 0.931 . S
C1459 C1461 1.397 . S
C1459 C1462 1.367 . S
C1460 C1458 1.405 . S
C1460 C1462 1.403 . S
C1460 C1493 1.439 . S
C1461 H1446 0.930 . S
C1461 N1457 1.319 . S
C1461 C1459 1.397 . S
C1462 C1459 1.367 . S
C1462 C1460 1.403 . S
C1462 H1469 0.929 . S
N1463 Eu1428 2.562 . S
N1463 C1464 1.325 . S
N1463 C1466 1.351 . S
C1464 H1450 0.929 . S
C1464 N1463 1.325 . S
C1464 C1468 1.416 . S
C1465 C1466 1.430 . S
C1465 C1467 1.404 . S
C1465 C1494 1.387 . S
C1466 C1458 1.448 . S
C1466 N1463 1.351 . S
C1466 C1465 1.430 . S
C1467 H1456 0.930 . S
C1467 C1465 1.404 . S
C1467 C1468 1.366 . S
C1468 H1447 0.930 . S
C1468 C1464 1.416 . S
C1468 C1467 1.366 . S
H1469 C1462 0.929 . S
H1470 C1493 0.931 . S
H1471 C1494 0.931 . S
O1472 Eu1428 2.462 . S
O1472 C1492 1.252 . S
O1473 Eu1428 2.373 . S
O1473 C1484 1.249 . S
O1474 Eu1439 2.335 . S
O1474 C1484 1.264 . S
O1475 Eu1428 2.432 . S
O1475 C1492 1.268 . S
O1476 Eu1428 2.291 . S
O1476 C1491 1.255 . S
O1477 Eu1439 2.372 . S
O1477 C1491 1.257 . S
O1478 Eu1439 2.462 . S
O1478 C1503 1.252 . S
O1479 Eu1439 2.373 . S
O1479 C1495 1.249 . S
O1480 Eu1428 2.335 . S
O1480 C1495 1.264 . S
O1481 Eu1439 2.432 . S
O1481 C1503 1.268 . S
O1482 Eu1439 2.291 . S
O1482 C1502 1.255 . S
O1483 Eu1428 2.372 . S
O1483 C1502 1.257 . S
C1484 O1473 1.249 . S
C1484 O1474 1.264 . S
C1485 C1488 1.382 . S
C1485 C1490 1.390 . S
C1485 C1492 1.506 . S
C1486 C1487 1.398 . S
C1486 C1490 1.392 . S
C1487 C1486 1.398 . S
C1487 C1489 1.372 . S
C1487 H1504 0.931 . S
C1488 C1485 1.382 . S
C1488 C1489 1.390 . S
C1488 H1505 0.931 . S
C1489 C1487 1.372 . S
C1489 C1488 1.390 . S
C1489 H1506 0.929 . S
C1490 C1485 1.390 . S
C1490 C1486 1.392 . S
C1490 H1507 0.930 . S
C1491 O1476 1.255 . S
C1491 O1477 1.257 . S
C1492 Eu1428 2.787 . S
C1492 O1472 1.252 . S
C1492 O1475 1.268 . S
C1492 C1485 1.506 . S
C1493 C1460 1.439 . S
C1493 H1470 0.931 . S
C1493 C1494 1.374 . S
C1494 C1465 1.387 . S
C1494 H1471 0.931 . S
C1494 C1493 1.374 . S
C1495 O1479 1.249 . S
C1495 O1480 1.264 . S
C1496 C1499 1.382 . S
C1496 C1500 1.390 . S
C1496 C1503 1.506 . S
C1497 C1498 1.398 . S
C1497 C1500 1.392 . S
C1498 C1497 1.398 . S
C1498 C1501 1.372 . S
C1498 H1508 0.931 . S
C1499 C1496 1.382 . S
C1499 C1501 1.390 . S
C1499 H1509 0.931 . S
C1500 C1496 1.390 . S
C1500 C1497 1.392 . S
C1500 H1510 0.930 . S
C1501 C1498 1.372 . S
C1501 C1499 1.390 . S
C1501 H1511 0.929 . S
C1502 O1482 1.255 . S
C1502 O1483 1.257 . S
C1503 Eu1439 2.787 . S
C1503 O1478 1.252 . S
C1503 O1481 1.268 . S
C1503 C1496 1.506 . S
H1504 C1487 0.931 . S
H1505 C1488 0.931 . S
H1506 C1489 0.929 . S
H1507 C1490 0.930 . S
H1508 C1498 0.931 . S
H1509 C1499 0.931 . S
H1510 C1500 0.930 . S
H1511 C1501 0.929 . S
Eu1512 N1541 2.600 . S
Eu1512 N1547 2.562 . S
Eu1512 O1556 2.462 . S
Eu1512 O1557 2.373 . S
Eu1512 O1559 2.432 . S
Eu1512 O1560 2.291 . S
Eu1512 O1564 2.335 . S
Eu1512 O1567 2.372 . S
Eu1512 C1576 2.787 . S
C1513 N1514 1.365 . S
C1513 C1516 1.405 . S
C1513 C1520 1.448 . S
N1514 C1513 1.365 . S
N1514 C1517 1.319 . S
N1514 Eu1523 2.600 . S
C1515 C1517 1.397 . S
C1515 C1518 1.367 . S
C1515 H1535 0.931 . S
C1516 C1513 1.405 . S
C1516 C1518 1.403 . S
C1516 C1522 1.439 . S
C1517 N1514 1.319 . S
C1517 C1515 1.397 . S
C1517 H1528 0.930 . S
C1518 C1515 1.367 . S
C1518 C1516 1.403 . S
C1518 H1539 0.929 . S
C1519 C1520 1.430 . S
C1519 C1521 1.387 . S
C1519 C1525 1.404 . S
C1520 C1513 1.448 . S
C1520 C1519 1.430 . S
C1520 N1524 1.351 . S
C1521 C1519 1.387 . S
C1521 C1522 1.374 . S
C1521 H1536 0.931 . S
C1522 C1516 1.439 . S
C1522 C1521 1.374 . S
C1522 H1537 0.931 . S
Eu1523 N1514 2.600 . S
Eu1523 N1524 2.562 . S
Eu1523 O1558 2.335 . S
Eu1523 O1561 2.372 . S
Eu1523 O1562 2.462 . S
Eu1523 O1563 2.373 . S
Eu1523 O1565 2.432 . S
Eu1523 O1566 2.291 . S
Eu1523 C1587 2.787 . S
N1524 C1520 1.351 . S
N1524 Eu1523 2.562 . S
N1524 C1526 1.325 . S
C1525 C1519 1.404 . S
C1525 C1527 1.366 . S
C1525 H1533 0.930 . S
C1526 N1524 1.325 . S
C1526 C1527 1.416 . S
C1526 H1532 0.929 . S
C1527 C1525 1.366 . S
C1527 C1526 1.416 . S
C1527 H1529 0.930 . S
H1528 C1517 0.930 . S
H1529 C1527 0.930 . S
H1530 C1545 0.930 . S
H1531 C1552 0.930 . S
H1532 C1526 0.929 . S
H1533 C1525 0.930 . S
H1534 C1548 0.929 . S
H1535 C1515 0.931 . S
H1536 C1521 0.931 . S
H1537 C1522 0.931 . S
H1538 C1543 0.931 . S
H1539 C1518 0.929 . S
H1540 C1551 0.930 . S
N1541 Eu1512 2.600 . S
N1541 C1542 1.365 . S
N1541 C1545 1.319 . S
C1542 N1541 1.365 . S
C1542 C1544 1.405 . S
C1542 C1550 1.448 . S
C1543 H1538 0.931 . S
C1543 C1545 1.397 . S
C1543 C1546 1.367 . S
C1544 C1542 1.405 . S
C1544 C1546 1.403 . S
C1544 C1577 1.439 . S
C1545 H1530 0.930 . S
C1545 N1541 1.319 . S
C1545 C1543 1.397 . S
C1546 C1543 1.367 . S
C1546 C1544 1.403 . S
C1546 H1553 0.929 . S
N1547 Eu1512 2.562 . S
N1547 C1548 1.325 . S
N1547 C1550 1.351 . S
C1548 H1534 0.929 . S
C1548 N1547 1.325 . S
C1548 C1552 1.416 . S
C1549 C1550 1.430 . S
C1549 C1551 1.404 . S
C1549 C1578 1.387 . S
C1550 C1542 1.448 . S
C1550 N1547 1.351 . S
C1550 C1549 1.430 . S
C1551 H1540 0.930 . S
C1551 C1549 1.404 . S
C1551 C1552 1.366 . S
C1552 H1531 0.930 . S
C1552 C1548 1.416 . S
C1552 C1551 1.366 . S
H1553 C1546 0.929 . S
H1554 C1577 0.931 . S
H1555 C1578 0.931 . S
O1556 Eu1512 2.462 . S
O1556 C1576 1.252 . S
O1557 Eu1512 2.373 . S
O1557 C1568 1.249 . S
O1558 Eu1523 2.335 . S
O1558 C1568 1.264 . S
O1559 Eu1512 2.432 . S
O1559 C1576 1.268 . S
O1560 Eu1512 2.291 . S
O1560 C1575 1.255 . S
O1561 Eu1523 2.372 . S
O1561 C1575 1.257 . S
O1562 Eu1523 2.462 . S
O1562 C1587 1.252 . S
O1563 Eu1523 2.373 . S
O1563 C1579 1.249 . S
O1564 Eu1512 2.335 . S
O1564 C1579 1.264 . S
O1565 Eu1523 2.432 . S
O1565 C1587 1.268 . S
O1566 Eu1523 2.291 . S
O1566 C1586 1.255 . S
O1567 Eu1512 2.372 . S
O1567 C1586 1.257 . S
C1568 O1557 1.249 . S
C1568 O1558 1.264 . S
C1569 C1572 1.382 . S
C1569 C1574 1.390 . S
C1569 C1576 1.506 . S
C1570 C1571 1.398 . S
C1570 C1574 1.392 . S
C1571 C1570 1.398 . S
C1571 C1573 1.372 . S
C1571 H1588 0.931 . S
C1572 C1569 1.382 . S
C1572 C1573 1.390 . S
C1572 H1589 0.931 . S
C1573 C1571 1.372 . S
C1573 C1572 1.390 . S
C1573 H1590 0.929 . S
C1574 C1569 1.390 . S
C1574 C1570 1.392 . S
C1574 H1591 0.930 . S
C1575 O1560 1.255 . S
C1575 O1561 1.257 . S
C1576 Eu1512 2.787 . S
C1576 O1556 1.252 . S
C1576 O1559 1.268 . S
C1576 C1569 1.506 . S
C1577 C1544 1.439 . S
C1577 H1554 0.931 . S
C1577 C1578 1.374 . S
C1578 C1549 1.387 . S
C1578 H1555 0.931 . S
C1578 C1577 1.374 . S
C1579 O1563 1.249 . S
C1579 O1564 1.264 . S
C1580 C1583 1.382 . S
C1580 C1584 1.390 . S
C1580 C1587 1.506 . S
C1581 C1582 1.398 . S
C1581 C1584 1.392 . S
C1582 C1581 1.398 . S
C1582 C1585 1.372 . S
C1582 H1592 0.931 . S
C1583 C1580 1.382 . S
C1583 C1585 1.390 . S
C1583 H1593 0.931 . S
C1584 C1580 1.390 . S
C1584 C1581 1.392 . S
C1584 H1594 0.930 . S
C1585 C1582 1.372 . S
C1585 C1583 1.390 . S
C1585 H1595 0.929 . S
C1586 O1566 1.255 . S
C1586 O1567 1.257 . S
C1587 Eu1523 2.787 . S
C1587 O1562 1.252 . S
C1587 O1565 1.268 . S
C1587 C1580 1.506 . S
H1588 C1571 0.931 . S
H1589 C1572 0.931 . S
H1590 C1573 0.929 . S
H1591 C1574 0.930 . S
H1592 C1582 0.931 . S
H1593 C1583 0.931 . S
H1594 C1584 0.930 . S
H1595 C1585 0.929 . S
Eu1596 N1625 2.610 . S
Eu1596 N1631 2.587 . S
Eu1596 O1640 2.496 . S
Eu1596 O1641 2.351 1_655 S
Eu1596 O1643 2.459 . S
Eu1596 O1644 2.278 1_655 S
Eu1596 O1648 2.324 1_655 S
Eu1596 O1651 2.343 1_655 S
Eu1596 C1660 2.822 . S
C1597 N1598 1.365 . S
C1597 C1600 1.405 . S
C1597 C1604 1.448 1_556 S
N1598 C1597 1.365 . S
N1598 C1601 1.319 . S
N1598 Eu1607 2.600 1_556 S
C1599 C1601 1.397 . S
C1599 C1602 1.367 . S
C1599 H1619 0.931 . S
C1600 C1597 1.405 . S
C1600 C1602 1.403 . S
C1600 C1606 1.439 . S
C1601 N1598 1.319 . S
C1601 C1599 1.397 . S
C1601 H1612 0.930 . S
C1602 C1599 1.367 . S
C1602 C1600 1.403 . S
C1602 H1623 0.929 . S
C1603 C1604 1.430 . S
C1603 C1605 1.387 . S
C1603 C1609 1.404 . S
C1604 C1597 1.448 1_554 S
C1604 C1603 1.430 . S
C1604 N1608 1.351 . S
C1605 C1603 1.387 . S
C1605 C1606 1.374 1_554 S
C1605 H1620 0.931 . S
C1606 C1600 1.439 . S
C1606 C1605 1.374 1_556 S
C1606 H1621 0.931 . S
Eu1607 N1598 2.600 1_554 S
Eu1607 N1608 2.562 . S
Eu1607 O1642 2.335 . S
Eu1607 O1645 2.372 1_554 S
Eu1607 O1646 2.462 . S
Eu1607 O1647 2.373 . S
Eu1607 O1649 2.432 1_554 S
Eu1607 O1650 2.291 . S
Eu1607 C1671 2.787 . S
N1608 C1604 1.351 . S
N1608 Eu1607 2.562 . S
N1608 C1610 1.325 . S
C1609 C1603 1.404 . S
C1609 C1611 1.366 . S
C1609 H1617 0.930 . S
C1610 N1608 1.325 . S
C1610 C1611 1.416 . S
C1610 H1616 0.929 . S
C1611 C1609 1.366 . S
C1611 C1610 1.416 . S
C1611 H1613 0.930 . S
H1612 C1601 0.930 . S
H1613 C1611 0.930 . S
H1614 C1629 0.930 1_455 S
H1615 C1636 0.930 1_556 S
H1616 C1610 0.929 . S
H1617 C1609 0.930 . S
H1618 C1632 0.929 . S
H1619 C1599 0.931 . S
H1620 C1605 0.931 . S
H1621 C1606 0.931 . S
H1622 C1627 0.931 1_455 S
H1623 C1602 0.929 . S
H1624 C1635 0.930 . S
N1625 Eu1596 2.610 . S
N1625 C1626 1.365 . S
N1625 C1629 1.319 . S
C1626 N1625 1.365 . S
C1626 C1628 1.405 . S
C1626 C1634 1.448 . S
C1627 H1622 0.931 1_655 S
C1627 C1629 1.397 . S
C1627 C1630 1.367 . S
C1628 C1626 1.405 . S
C1628 C1630 1.403 . S
C1628 C1661 1.439 . S
C1629 H1614 0.930 1_655 S
C1629 N1625 1.319 . S
C1629 C1627 1.397 . S
C1630 C1627 1.367 . S
C1630 C1628 1.403 . S
C1630 H1637 0.929 . S
N1631 Eu1596 2.587 . S
N1631 C1632 1.325 . S
N1631 C1634 1.351 . S
C1632 H1618 0.929 . S
C1632 N1631 1.325 . S
C1632 C1636 1.416 . S
C1633 C1634 1.430 . S
C1633 C1635 1.404 . S
C1633 C1662 1.387 . S
C1634 C1626 1.448 . S
C1634 N1631 1.351 . S
C1634 C1633 1.430 . S
C1635 H1624 0.930 . S
C1635 C1633 1.404 . S
C1635 C1636 1.366 . S
C1636 H1615 0.930 1_554 S
C1636 C1632 1.416 . S
C1636 C1635 1.366 . S
H1637 C1630 0.929 . S
H1638 C1661 0.931 . S
H1639 C1662 0.931 . S
O1640 Eu1596 2.496 . S
O1640 C1660 1.252 . S
O1641 Eu1596 2.351 1_455 S
O1641 C1652 1.249 . S
O1642 Eu1607 2.335 . S
O1642 C1652 1.264 . S
O1643 Eu1596 2.459 . S
O1643 C1660 1.268 . S
O1644 Eu1596 2.278 1_455 S
O1644 C1659 1.272 1_554 S
O1645 Eu1607 2.372 1_556 S
O1645 C1659 1.257 . S
O1646 Eu1607 2.462 . S
O1646 C1671 1.252 . S
O1647 Eu1607 2.373 . S
O1647 C1663 1.249 . S
O1648 Eu1596 2.324 1_455 S
O1648 C1663 1.264 . S
O1649 Eu1607 2.432 1_556 S
O1649 C1671 1.268 1_556 S
O1650 Eu1607 2.291 . S
O1650 C1670 1.255 . S
O1651 Eu1596 2.343 1_455 S
O1651 C1670 1.257 . S
C1652 O1641 1.249 . S
C1652 O1642 1.264 . S
C1653 C1656 1.382 . S
C1653 C1658 1.390 . S
C1653 C1660 1.506 . S
C1654 C1655 1.398 . S
C1654 C1658 1.392 . S
C1655 C1654 1.398 . S
C1655 C1657 1.372 . S
C1655 H1672 0.931 . S
C1656 C1653 1.382 . S
C1656 C1657 1.390 . S
C1656 H1673 0.931 . S
C1657 C1655 1.372 . S
C1657 C1656 1.390 . S
C1657 H1674 0.929 . S
C1658 C1653 1.390 . S
C1658 C1654 1.392 . S
C1658 H1675 0.930 . S
C1659 O1644 1.272 1_556 S
C1659 O1645 1.257 . S
C1660 Eu1596 2.822 . S
C1660 O1640 1.252 . S
C1660 O1643 1.268 . S
C1660 C1653 1.506 . S
C1661 C1628 1.439 . S
C1661 H1638 0.931 . S
C1661 C1662 1.374 . S
C1662 C1633 1.387 . S
C1662 H1639 0.931 . S
C1662 C1661 1.374 . S
C1663 O1647 1.249 . S
C1663 O1648 1.264 . S
C1664 C1667 1.382 1_554 S
C1664 C1668 1.390 . S
C1664 C1671 1.506 . S
C1665 C1666 1.398 1_554 S
C1665 C1668 1.392 . S
C1666 C1665 1.398 1_556 S
C1666 C1669 1.372 . S
C1666 H1676 0.931 . S
C1667 C1664 1.382 1_556 S
C1667 C1669 1.390 . S
C1667 H1677 0.931 . S
C1668 C1664 1.390 . S
C1668 C1665 1.392 . S
C1668 H1678 0.930 . S
C1669 C1666 1.372 . S
C1669 C1667 1.390 . S
C1669 H1679 0.929 . S
C1670 O1650 1.255 . S
C1670 O1651 1.257 . S
C1671 Eu1607 2.787 . S
C1671 O1646 1.252 . S
C1671 O1649 1.268 1_554 S
C1671 C1664 1.506 . S
H1672 C1655 0.931 . S
H1673 C1656 0.931 . S
H1674 C1657 0.929 . S
H1675 C1658 0.930 . S
H1676 C1666 0.931 . S
H1677 C1667 0.931 . S
H1678 C1668 0.930 . S
H1679 C1669 0.929 . S
H1680 C1686 0.930 . S
H1681 C1690 0.930 1_655 S
H1682 C1695 0.929 . S
H1683 C1693 0.929 . S
H1684 C1688 0.942 . S
H1685 C1694 0.919 1_554 S
C1686 H1680 0.930 . S
C1686 C1687 1.367 . S
C1686 C1694 1.388 . S
C1687 C1686 1.367 . S
C1687 C1695 1.433 1_455 S
C1688 H1684 0.942 . S
C1688 C1690 1.364 1_656 S
C1688 C1692 1.351 1_656 S
C1689 C1692 1.463 1_556 S
C1689 C1694 1.350 . S
C1689 N1697 1.427 1_455 S
C1690 H1681 0.930 1_455 S
C1690 C1688 1.364 1_454 S
C1690 C1691 1.367 . S
C1691 C1690 1.367 . S
C1691 C1693 1.433 . S
C1692 C1688 1.351 1_454 S
C1692 C1689 1.463 1_554 S
C1692 N1696 1.427 . S
C1693 H1683 0.929 . S
C1693 C1691 1.433 . S
C1693 N1696 1.384 . S
C1694 H1685 0.919 1_556 S
C1694 C1686 1.388 . S
C1694 C1689 1.350 . S
C1695 H1682 0.929 . S
C1695 C1687 1.433 1_655 S
C1695 N1697 1.384 . S
N1696 C1692 1.427 . S
N1696 C1693 1.384 . S
N1697 C1689 1.427 1_655 S
N1697 C1695 1.384 . S
H1698 C1704 0.930 . S
H1699 C1708 0.930 . S
H1700 C1713 0.929 . S
H1701 C1711 0.929 . S
H1702 C1706 0.929 . S
H1703 C1712 0.929 . S
C1704 H1698 0.930 . S
C1704 C1705 1.367 . S
C1704 C1712 1.378 . S
C1705 C1704 1.367 . S
C1705 C1713 1.433 . S
C1706 H1702 0.929 . S
C1706 C1708 1.378 . S
C1706 C1710 1.350 . S
C1707 C1710 1.463 . S
C1707 C1712 1.350 . S
C1707 N1715 1.427 . S
C1708 H1699 0.930 . S
C1708 C1706 1.378 . S
C1708 C1709 1.367 . S
C1709 C1708 1.367 . S
C1709 C1711 1.433 . S
C1710 C1706 1.350 . S
C1710 C1707 1.463 . S
C1710 N1714 1.427 . S
C1711 H1701 0.929 . S
C1711 C1709 1.433 . S
C1711 N1714 1.384 . S
C1712 H1703 0.929 . S
C1712 C1704 1.378 . S
C1712 C1707 1.350 . S
C1713 H1700 0.929 . S
C1713 C1705 1.433 . S
C1713 N1715 1.384 . S
N1714 C1710 1.427 . S
N1714 C1711 1.384 . S
N1715 C1707 1.427 . S
N1715 C1713 1.384 . S
H1716 C1722 0.930 . S
H1717 C1726 0.930 . S
H1718 C1731 0.929 . S
H1719 C1729 0.929 . S
H1720 C1724 0.929 . S
H1721 C1730 0.929 . S
C1722 H1716 0.930 . S
C1722 C1723 1.367 . S
C1722 C1730 1.378 . S
C1723 C1722 1.367 . S
C1723 C1731 1.433 . S
C1724 H1720 0.929 . S
C1724 C1726 1.378 . S
C1724 C1728 1.350 . S
C1725 C1728 1.463 . S
C1725 C1730 1.350 . S
C1725 N1733 1.427 . S
C1726 H1717 0.930 . S
C1726 C1724 1.378 . S
C1726 C1727 1.367 . S
C1727 C1726 1.367 . S
C1727 C1729 1.433 . S
C1728 C1724 1.350 . S
C1728 C1725 1.463 . S
C1728 N1732 1.427 . S
C1729 H1719 0.929 . S
C1729 C1727 1.433 . S
C1729 N1732 1.384 . S
C1730 H1721 0.929 . S
C1730 C1722 1.378 . S
C1730 C1725 1.350 . S
C1731 H1718 0.929 . S
C1731 C1723 1.433 . S
C1731 N1733 1.384 . S
N1732 C1728 1.427 . S
N1732 C1729 1.384 . S
N1733 C1725 1.427 . S
N1733 C1731 1.384 . S
H1734 C1740 0.930 . S
H1735 C1744 0.930 . S
H1736 C1749 0.929 . S
H1737 C1747 0.929 . S
H1738 C1742 0.929 . S
H1739 C1748 0.929 . S
C1740 H1734 0.930 . S
C1740 C1741 1.367 . S
C1740 C1748 1.378 . S
C1741 C1740 1.367 . S
C1741 C1749 1.433 . S
C1742 H1738 0.929 . S
C1742 C1744 1.378 . S
C1742 C1746 1.350 . S
C1743 C1746 1.463 . S
C1743 C1748 1.350 . S
C1743 N1751 1.427 . S
C1744 H1735 0.930 . S
C1744 C1742 1.378 . S
C1744 C1745 1.367 . S
C1745 C1744 1.367 . S
C1745 C1747 1.433 . S
C1746 C1742 1.350 . S
C1746 C1743 1.463 . S
C1746 N1750 1.427 . S
C1747 H1737 0.929 . S
C1747 C1745 1.433 . S
C1747 N1750 1.384 . S
C1748 H1739 0.929 . S
C1748 C1740 1.378 . S
C1748 C1743 1.350 . S
C1749 H1736 0.929 . S
C1749 C1741 1.433 . S
C1749 N1751 1.384 . S
N1750 C1746 1.427 . S
N1750 C1747 1.384 . S
N1751 C1743 1.427 . S
N1751 C1749 1.384 . S
H1752 C1758 0.930 . S
H1753 C1762 0.930 . S
H1754 C1767 0.937 . S
H1755 C1765 0.929 . S
H1756 C1760 0.929 . S
H1757 C1766 0.929 . S
C1758 H1752 0.930 . S
C1758 C1759 1.367 . S
C1758 C1766 1.378 . S
C1759 C1758 1.367 . S
C1759 C1767 1.433 . S
C1760 H1756 0.929 . S
C1760 C1762 1.378 . S
C1760 C1764 1.350 . S
C1761 C1764 1.463 . S
C1761 C1766 1.350 . S
C1761 N1769 1.427 . S
C1762 H1753 0.930 . S
C1762 C1760 1.378 . S
C1762 C1763 1.367 . S
C1763 C1762 1.367 . S
C1763 C1765 1.433 . S
C1764 C1760 1.350 . S
C1764 C1761 1.463 . S
C1764 N1768 1.427 . S
C1765 H1755 0.929 . S
C1765 C1763 1.433 . S
C1765 N1768 1.384 . S
C1766 H1757 0.929 . S
C1766 C1758 1.378 . S
C1766 C1761 1.350 . S
C1767 H1754 0.937 . S
C1767 C1759 1.433 . S
C1767 N1769 1.384 . S
N1768 C1764 1.427 . S
N1768 C1765 1.384 . S
N1769 C1761 1.427 . S
N1769 C1767 1.384 . S
H1770 C1776 0.930 . S
H1771 C1780 0.930 . S
H1772 C1785 0.929 . S
H1773 C1783 0.929 . S
H1774 C1778 0.929 . S
H1775 C1784 0.929 . S
C1776 H1770 0.930 . S
C1776 C1777 1.367 . S
C1776 C1784 1.378 . S
C1777 C1776 1.367 . S
C1777 C1785 1.433 . S
C1778 H1774 0.929 . S
C1778 C1780 1.378 . S
C1778 C1782 1.350 . S
C1779 C1782 1.463 . S
C1779 C1784 1.350 . S
C1779 N1787 1.427 . S
C1780 H1771 0.930 . S
C1780 C1778 1.378 . S
C1780 C1781 1.367 . S
C1781 C1780 1.367 . S
C1781 C1783 1.433 . S
C1782 C1778 1.350 . S
C1782 C1779 1.463 . S
C1782 N1786 1.427 . S
C1783 H1773 0.929 . S
C1783 C1781 1.433 . S
C1783 N1786 1.384 . S
C1784 H1775 0.929 . S
C1784 C1776 1.378 . S
C1784 C1779 1.350 . S
C1785 H1772 0.929 . S
C1785 C1777 1.433 . S
C1785 N1787 1.384 . S
N1786 C1782 1.427 . S
N1786 C1783 1.384 . S
N1787 C1779 1.427 . S
N1787 C1785 1.384 . S
H1788 C1794 0.930 . S
H1789 C1798 0.930 . S
H1790 C1803 0.929 . S
H1791 C1801 0.929 . S
H1792 C1796 0.929 . S
H1793 C1802 0.929 . S
C1794 H1788 0.930 . S
C1794 C1795 1.367 . S
C1794 C1802 1.378 . S
C1795 C1794 1.367 . S
C1795 C1803 1.433 . S
C1796 H1792 0.929 . S
C1796 C1798 1.378 . S
C1796 C1800 1.350 . S
C1797 C1800 1.463 . S
C1797 C1802 1.350 . S
C1797 N1805 1.427 . S
C1798 H1789 0.930 . S
C1798 C1796 1.378 . S
C1798 C1799 1.367 . S
C1799 C1798 1.367 . S
C1799 C1801 1.433 . S
C1800 C1796 1.350 . S
C1800 C1797 1.463 . S
C1800 N1804 1.427 . S
C1801 H1791 0.929 . S
C1801 C1799 1.433 . S
C1801 N1804 1.384 . S
C1802 H1793 0.929 . S
C1802 C1794 1.378 . S
C1802 C1797 1.350 . S
C1803 H1790 0.929 . S
C1803 C1795 1.433 . S
C1803 N1805 1.384 . S
N1804 C1800 1.427 . S
N1804 C1801 1.384 . S
N1805 C1797 1.427 . S
N1805 C1803 1.384 . S
H1806 C1812 0.930 . S
H1807 C1816 0.930 . S
H1808 C1821 0.929 . S
H1809 C1819 0.929 . S
H1810 C1814 0.929 . S
H1811 C1820 0.929 . S
C1812 H1806 0.930 . S
C1812 C1813 1.367 . S
C1812 C1820 1.378 . S
C1813 C1812 1.367 . S
C1813 C1821 1.433 . S
C1814 H1810 0.929 . S
C1814 C1816 1.378 . S
C1814 C1818 1.350 . S
C1815 C1818 1.463 . S
C1815 C1820 1.350 . S
C1815 N1823 1.427 . S
C1816 H1807 0.930 . S
C1816 C1814 1.378 . S
C1816 C1817 1.367 . S
C1817 C1816 1.367 . S
C1817 C1819 1.433 . S
C1818 C1814 1.350 . S
C1818 C1815 1.463 . S
C1818 N1822 1.427 . S
C1819 H1809 0.929 . S
C1819 C1817 1.433 . S
C1819 N1822 1.384 . S
C1820 H1811 0.929 . S
C1820 C1812 1.378 . S
C1820 C1815 1.350 . S
C1821 H1808 0.929 . S
C1821 C1813 1.433 . S
C1821 N1823 1.384 . S
N1822 C1818 1.427 . S
N1822 C1819 1.384 . S
N1823 C1815 1.427 . S
N1823 C1821 1.384 . S
H1824 C1830 0.930 . S
H1825 C1834 0.942 . S
H1826 C1839 0.929 . S
H1827 C1837 0.929 . S
H1828 C1832 0.929 1_565 S
H1829 C1838 0.929 . S
C1830 H1824 0.930 . S
C1830 C1831 1.367 . S
C1830 C1838 1.378 . S
C1831 C1830 1.367 . S
C1831 C1839 1.433 1_545 S
C1832 H1828 0.929 1_545 S
C1832 C1834 1.378 . S
C1832 C1836 1.350 . S
C1833 C1836 1.463 . S
C1833 C1838 1.350 . S
C1833 N1841 1.462 . S
C1834 H1825 0.942 . S
C1834 C1832 1.378 . S
C1834 C1835 1.367 1_655 S
C1835 C1834 1.367 1_455 S
C1835 C1837 1.433 . S
C1836 C1832 1.350 . S
C1836 C1833 1.463 . S
C1836 N1840 1.427 . S
C1837 H1827 0.929 . S
C1837 C1835 1.433 . S
C1837 N1840 1.384 1_455 S
C1838 H1829 0.929 . S
C1838 C1830 1.378 . S
C1838 C1833 1.350 . S
C1839 H1826 0.929 . S
C1839 C1831 1.433 1_565 S
C1839 N1841 1.378 1_565 S
N1840 C1836 1.427 . S
N1840 C1837 1.384 1_655 S
N1841 C1833 1.462 . S
N1841 C1839 1.378 1_545 S
H1842 C1848 0.930 . S
H1843 C1852 0.930 . S
H1844 C1857 0.929 . S
H1845 C1855 0.929 . S
H1846 C1850 0.929 . S
H1847 C1856 0.929 . S
C1848 H1842 0.930 . S
C1848 C1849 1.367 . S
C1848 C1856 1.378 . S
C1849 C1848 1.367 . S
C1849 C1857 1.433 . S
C1850 H1846 0.929 . S
C1850 C1852 1.378 . S
C1850 C1854 1.350 . S
C1851 C1854 1.463 . S
C1851 C1856 1.350 . S
C1851 N1859 1.427 . S
C1852 H1843 0.930 . S
C1852 C1850 1.378 . S
C1852 C1853 1.367 . S
C1853 C1852 1.367 . S
C1853 C1855 1.433 . S
C1854 C1850 1.350 . S
C1854 C1851 1.463 . S
C1854 N1858 1.427 . S
C1855 H1845 0.929 . S
C1855 C1853 1.433 . S
C1855 N1858 1.384 . S
C1856 H1847 0.929 . S
C1856 C1848 1.378 . S
C1856 C1851 1.350 . S
C1857 H1844 0.929 . S
C1857 C1849 1.433 . S
C1857 N1859 1.384 . S
N1858 C1854 1.427 . S
N1858 C1855 1.384 . S
N1859 C1851 1.427 . S
N1859 C1857 1.384 . S
H1860 C1866 0.930 . S
H1861 C1870 0.930 1_565 S
H1862 C1875 0.929 . S
H1863 C1873 0.929 . S
H1864 C1868 0.929 . S
H1865 C1874 0.929 . S
C1866 H1860 0.930 . S
C1866 C1867 1.367 . S
C1866 C1874 1.378 . S
C1867 C1866 1.367 . S
C1867 C1875 1.433 . S
C1868 H1864 0.929 . S
C1868 C1870 1.378 . S
C1868 C1872 1.350 . S
C1869 C1872 1.463 . S
C1869 C1874 1.350 . S
C1869 N1877 1.427 . S
C1870 H1861 0.930 1_545 S
C1870 C1868 1.378 . S
C1870 C1871 1.367 . S
C1871 C1870 1.367 . S
C1871 C1873 1.433 . S
C1872 C1868 1.350 . S
C1872 C1869 1.463 . S
C1872 N1876 1.427 . S
C1873 H1863 0.929 . S
C1873 C1871 1.433 . S
C1873 N1876 1.384 . S
C1874 H1865 0.929 . S
C1874 C1866 1.378 . S
C1874 C1869 1.350 . S
C1875 H1862 0.929 . S
C1875 C1867 1.433 . S
C1875 N1877 1.384 . S
N1876 C1872 1.427 . S
N1876 C1873 1.384 . S
N1877 C1869 1.427 . S
N1877 C1875 1.384 . S
H1878 C1884 0.930 . S
H1879 C1888 0.930 . S
H1880 C1893 0.929 . S
H1881 C1891 0.929 . S
H1882 C1886 0.929 . S
H1883 C1892 0.929 . S
C1884 H1878 0.930 . S
C1884 C1885 1.367 . S
C1884 C1892 1.378 . S
C1885 C1884 1.367 . S
C1885 C1893 1.433 . S
C1886 H1882 0.929 . S
C1886 C1888 1.378 . S
C1886 C1890 1.350 . S
C1887 C1890 1.463 . S
C1887 C1892 1.350 . S
C1887 N1895 1.427 . S
C1888 H1879 0.930 . S
C1888 C1886 1.378 . S
C1888 C1889 1.367 . S
C1889 C1888 1.367 . S
C1889 C1891 1.433 . S
C1890 C1886 1.350 . S
C1890 C1887 1.463 . S
C1890 N1894 1.427 . S
C1891 H1881 0.929 . S
C1891 C1889 1.433 . S
C1891 N1894 1.384 . S
C1892 H1883 0.929 . S
C1892 C1884 1.378 . S
C1892 C1887 1.350 . S
C1893 H1880 0.929 . S
C1893 C1885 1.433 . S
C1893 N1895 1.384 . S
N1894 C1890 1.427 . S
N1894 C1891 1.384 . S
N1895 C1887 1.427 . S
N1895 C1893 1.384 . S
H1896 C1902 0.930 . S
H1897 C1906 0.930 . S
H1898 C1911 0.929 . S
H1899 C1909 0.929 1_565 S
H1900 C1904 0.929 . S
H1901 C1910 0.965 . S
C1902 H1896 0.930 . S
C1902 C1903 1.367 1_565 S
C1902 C1910 1.372 . S
C1903 C1902 1.367 1_545 S
C1903 C1911 1.433 . S
C1904 H1900 0.929 . S
C1904 C1906 1.378 1_655 S
C1904 C1908 1.350 . S
C1905 C1908 1.463 . S
C1905 C1910 1.319 1_545 S
C1905 N1913 1.427 . S
C1906 H1897 0.930 . S
C1906 C1904 1.378 1_455 S
C1906 C1907 1.367 . S
C1907 C1906 1.367 . S
C1907 C1909 1.433 1_455 S
C1908 C1904 1.350 . S
C1908 C1905 1.463 . S
C1908 N1912 1.427 . S
C1909 H1899 0.929 1_545 S
C1909 C1907 1.433 1_655 S
C1909 N1912 1.384 . S
C1910 H1901 0.965 . S
C1910 C1902 1.372 . S
C1910 C1905 1.319 1_565 S
C1911 H1898 0.929 . S
C1911 C1903 1.433 . S
C1911 N1913 1.384 . S
N1912 C1908 1.427 . S
N1912 C1909 1.384 . S
N1913 C1905 1.427 . S
N1913 C1911 1.384 . S
H1914 C1920 0.930 . S
H1915 C1924 0.930 . S
H1916 C1929 0.929 . S
H1917 C1927 0.929 . S
H1918 C1922 0.929 . S
H1919 C1928 0.929 . S
C1920 H1914 0.930 . S
C1920 C1921 1.367 . S
C1920 C1928 1.378 . S
C1921 C1920 1.367 . S
C1921 C1929 1.433 . S
C1922 H1918 0.929 . S
C1922 C1924 1.378 . S
C1922 C1926 1.350 . S
C1923 C1926 1.463 . S
C1923 C1928 1.350 . S
C1923 N1931 1.427 . S
C1924 H1915 0.930 . S
C1924 C1922 1.378 . S
C1924 C1925 1.367 . S
C1925 C1924 1.367 . S
C1925 C1927 1.433 . S
C1926 C1922 1.350 . S
C1926 C1923 1.463 . S
C1926 N1930 1.427 . S
C1927 H1917 0.929 . S
C1927 C1925 1.433 . S
C1927 N1930 1.384 . S
C1928 H1919 0.929 . S
C1928 C1920 1.378 . S
C1928 C1923 1.350 . S
C1929 H1916 0.929 . S
C1929 C1921 1.433 . S
C1929 N1931 1.384 . S
N1930 C1926 1.427 . S
N1930 C1927 1.384 . S
N1931 C1923 1.427 . S
N1931 C1929 1.384 . S
H1932 C1938 0.930 . S
H1933 C1942 0.930 . S
H1934 C1947 0.929 . S
H1935 C1945 0.929 . S
H1936 C1940 0.929 . S
H1937 C1946 0.929 . S
C1938 H1932 0.930 . S
C1938 C1939 1.367 . S
C1938 C1946 1.378 . S
C1939 C1938 1.367 . S
C1939 C1947 1.433 . S
C1940 H1936 0.929 . S
C1940 C1942 1.378 . S
C1940 C1944 1.350 . S
C1941 C1944 1.463 . S
C1941 C1946 1.350 . S
C1941 N1949 1.427 . S
C1942 H1933 0.930 . S
C1942 C1940 1.378 . S
C1942 C1943 1.367 . S
C1943 C1942 1.367 . S
C1943 C1945 1.433 . S
C1944 C1940 1.350 . S
C1944 C1941 1.463 . S
C1944 N1948 1.427 . S
C1945 H1935 0.929 . S
C1945 C1943 1.433 . S
C1945 N1948 1.384 . S
C1946 H1937 0.929 . S
C1946 C1938 1.378 . S
C1946 C1941 1.350 . S
C1947 H1934 0.929 . S
C1947 C1939 1.433 . S
C1947 N1949 1.384 . S
N1948 C1944 1.427 . S
N1948 C1945 1.384 . S
N1949 C1941 1.427 . S
N1949 C1947 1.384 . S
H1950 C1956 0.930 . S
H1951 C1960 0.930 . S
H1952 C1965 0.929 . S
H1953 C1963 0.929 . S
H1954 C1958 0.929 . S
H1955 C1964 0.929 . S
C1956 H1950 0.930 . S
C1956 C1957 1.367 . S
C1956 C1964 1.378 . S
C1957 C1956 1.367 . S
C1957 C1965 1.433 . S
C1958 H1954 0.929 . S
C1958 C1960 1.378 . S
C1958 C1962 1.350 . S
C1959 C1962 1.463 . S
C1959 C1964 1.350 . S
C1959 N1967 1.427 . S
C1960 H1951 0.930 . S
C1960 C1958 1.378 . S
C1960 C1961 1.367 . S
C1961 C1960 1.367 . S
C1961 C1963 1.433 . S
C1962 C1958 1.350 . S
C1962 C1959 1.463 . S
C1962 N1966 1.427 . S
C1963 H1953 0.929 . S
C1963 C1961 1.433 . S
C1963 N1966 1.384 . S
C1964 H1955 0.929 . S
C1964 C1956 1.378 . S
C1964 C1959 1.350 . S
C1965 H1952 0.929 . S
C1965 C1957 1.433 . S
C1965 N1967 1.384 . S
N1966 C1962 1.427 . S
N1966 C1963 1.384 . S
N1967 C1959 1.427 . S
N1967 C1965 1.384 . S
H1968 C1974 0.930 . S
H1969 C1978 0.930 . S
H1970 C1983 0.939 . S
H1971 C1981 0.929 . S
H1972 C1976 0.929 . S
H1973 C1982 0.957 . S
C1974 H1968 0.930 . S
C1974 C1975 1.367 . S
C1974 C1982 1.378 . S
C1975 C1974 1.367 . S
C1975 C1983 1.438 1_554 S
C1976 H1972 0.929 . S
C1976 C1978 1.378 . S
C1976 C1980 1.350 . S
C1977 C1980 1.463 . S
C1977 C1982 1.350 . S
C1977 N1985 1.427 . S
C1978 H1969 0.930 . S
C1978 C1976 1.378 . S
C1978 C1979 1.372 . S
C1979 C1978 1.372 . S
C1979 C1981 1.431 1_565 S
C1980 C1976 1.350 . S
C1980 C1977 1.463 . S
C1980 N1984 1.427 1_565 S
C1981 H1971 0.929 . S
C1981 C1979 1.431 1_545 S
C1981 N1984 1.384 . S
C1982 H1973 0.957 . S
C1982 C1974 1.378 . S
C1982 C1977 1.350 . S
C1983 H1970 0.939 . S
C1983 C1975 1.438 1_556 S
C1983 N1985 1.371 1_556 S
N1984 C1980 1.427 1_545 S
N1984 C1981 1.384 . S
N1985 C1977 1.427 . S
N1985 C1983 1.371 1_554 S
H1986 C1992 0.930 . S
H1987 C1996 0.930 . S
H1988 C2001 0.929 . S
H1989 C1999 0.929 . S
H1990 C1994 0.929 . S
H1991 C2000 0.929 . S
C1992 H1986 0.930 . S
C1992 C1993 1.367 . S
C1992 C2000 1.378 . S
C1993 C1992 1.367 . S
C1993 C2001 1.433 1_554 S
C1994 H1990 0.929 . S
C1994 C1996 1.378 . S
C1994 C1998 1.350 1_556 S
C1995 C1998 1.463 . S
C1995 C2000 1.350 . S
C1995 N2003 1.427 1_554 S
C1996 H1987 0.930 . S
C1996 C1994 1.378 . S
C1996 C1997 1.367 1_556 S
C1997 C1996 1.367 1_554 S
C1997 C1999 1.433 . S
C1998 C1994 1.350 1_554 S
C1998 C1995 1.463 . S
C1998 N2002 1.427 . S
C1999 H1989 0.929 . S
C1999 C1997 1.433 . S
C1999 N2002 1.384 . S
C2000 H1991 0.929 . S
C2000 C1992 1.378 . S
C2000 C1995 1.350 . S
C2001 H1988 0.929 . S
C2001 C1993 1.433 1_556 S
C2001 N2003 1.384 . S
N2002 C1998 1.427 . S
N2002 C1999 1.384 . S
N2003 C1995 1.427 1_556 S
N2003 C2001 1.384 . S
H2004 C2010 0.930 . S
H2005 C2014 0.930 . S
H2006 C2019 0.929 . S
H2007 C2017 0.929 . S
H2008 C2012 0.929 . S
H2009 C2018 0.929 . S
C2010 H2004 0.930 . S
C2010 C2011 1.367 . S
C2010 C2018 1.378 . S
C2011 C2010 1.367 . S
C2011 C2019 1.433 . S
C2012 H2008 0.929 . S
C2012 C2014 1.378 . S
C2012 C2016 1.350 . S
C2013 C2016 1.463 . S
C2013 C2018 1.350 . S
C2013 N2021 1.427 . S
C2014 H2005 0.930 . S
C2014 C2012 1.378 . S
C2014 C2015 1.367 . S
C2015 C2014 1.367 . S
C2015 C2017 1.433 . S
C2016 C2012 1.350 . S
C2016 C2013 1.463 . S
C2016 N2020 1.427 . S
C2017 H2007 0.929 . S
C2017 C2015 1.433 . S
C2017 N2020 1.384 . S
C2018 H2009 0.929 . S
C2018 C2010 1.378 . S
C2018 C2013 1.350 . S
C2019 H2006 0.929 . S
C2019 C2011 1.433 . S
C2019 N2021 1.384 . S
N2020 C2016 1.427 . S
N2020 C2017 1.384 . S
N2021 C2013 1.427 . S
N2021 C2019 1.384 . S
H2022 C2028 0.930 . S
H2023 C2032 0.930 . S
H2024 C2037 0.929 . S
H2025 C2035 0.929 . S
H2026 C2030 0.929 . S
H2027 C2036 0.929 . S
C2028 H2022 0.930 . S
C2028 C2029 1.367 . S
C2028 C2036 1.378 . S
C2029 C2028 1.367 . S
C2029 C2037 1.433 . S
C2030 H2026 0.929 . S
C2030 C2032 1.378 . S
C2030 C2034 1.350 . S
C2031 C2034 1.463 . S
C2031 C2036 1.350 . S
C2031 N2039 1.427 . S
C2032 H2023 0.930 . S
C2032 C2030 1.378 . S
C2032 C2033 1.367 . S
C2033 C2032 1.367 . S
C2033 C2035 1.433 . S
C2034 C2030 1.350 . S
C2034 C2031 1.463 . S
C2034 N2038 1.427 . S
C2035 H2025 0.929 . S
C2035 C2033 1.433 . S
C2035 N2038 1.384 . S
C2036 H2027 0.929 . S
C2036 C2028 1.378 . S
C2036 C2031 1.350 . S
C2037 H2024 0.929 . S
C2037 C2029 1.433 . S
C2037 N2039 1.384 . S
N2038 C2034 1.427 . S
N2038 C2035 1.384 . S
N2039 C2031 1.427 . S
N2039 C2037 1.384 . S
H2040 C2046 0.930 . S
H2041 C2050 0.930 . S
H2042 C2055 0.929 . S
H2043 C2053 0.929 . S
H2044 C2048 0.929 . S
H2045 C2054 0.929 . S
C2046 H2040 0.930 . S
C2046 C2047 1.367 . S
C2046 C2054 1.378 . S
C2047 C2046 1.367 . S
C2047 C2055 1.433 . S
C2048 H2044 0.929 . S
C2048 C2050 1.378 . S
C2048 C2052 1.350 . S
C2049 C2052 1.463 . S
C2049 C2054 1.350 . S
C2049 N2057 1.427 . S
C2050 H2041 0.930 . S
C2050 C2048 1.378 . S
C2050 C2051 1.367 . S
C2051 C2050 1.367 . S
C2051 C2053 1.433 . S
C2052 C2048 1.350 . S
C2052 C2049 1.463 . S
C2052 N2056 1.427 . S
C2053 H2043 0.929 . S
C2053 C2051 1.433 . S
C2053 N2056 1.384 . S
C2054 H2045 0.929 . S
C2054 C2046 1.378 . S
C2054 C2049 1.350 . S
C2055 H2042 0.929 . S
C2055 C2047 1.433 . S
C2055 N2057 1.384 . S
N2056 C2052 1.427 . S
N2056 C2053 1.384 . S
N2057 C2049 1.427 . S
N2057 C2055 1.384 . S
H2058 C2064 0.930 . S
H2059 C2068 0.930 . S
H2060 C2073 0.929 . S
H2061 C2071 0.929 . S
H2062 C2066 0.929 . S
H2063 C2072 0.929 . S
C2064 H2058 0.930 . S
C2064 C2065 1.367 . S
C2064 C2072 1.378 . S
C2065 C2064 1.367 . S
C2065 C2073 1.433 . S
C2066 H2062 0.929 . S
C2066 C2068 1.378 . S
C2066 C2070 1.350 . S
C2067 C2070 1.463 . S
C2067 C2072 1.350 . S
C2067 N2075 1.427 . S
C2068 H2059 0.930 . S
C2068 C2066 1.378 . S
C2068 C2069 1.367 . S
C2069 C2068 1.367 . S
C2069 C2071 1.433 . S
C2070 C2066 1.350 . S
C2070 C2067 1.463 . S
C2070 N2074 1.427 . S
C2071 H2061 0.929 . S
C2071 C2069 1.433 . S
C2071 N2074 1.384 . S
C2072 H2063 0.929 . S
C2072 C2064 1.378 . S
C2072 C2067 1.350 . S
C2073 H2060 0.929 . S
C2073 C2065 1.433 . S
C2073 N2075 1.384 . S
N2074 C2070 1.427 . S
N2074 C2071 1.384 . S
N2075 C2067 1.427 . S
N2075 C2073 1.384 . S
H2076 C2082 0.930 . S
H2077 C2086 0.930 . S
H2078 C2091 0.929 . S
H2079 C2089 0.929 . S
H2080 C2084 0.929 . S
H2081 C2090 0.929 . S
C2082 H2076 0.930 . S
C2082 C2083 1.367 . S
C2082 C2090 1.378 . S
C2083 C2082 1.367 . S
C2083 C2091 1.433 . S
C2084 H2080 0.929 . S
C2084 C2086 1.378 . S
C2084 C2088 1.350 . S
C2085 C2088 1.463 . S
C2085 C2090 1.350 . S
C2085 N2093 1.427 . S
C2086 H2077 0.930 . S
C2086 C2084 1.378 . S
C2086 C2087 1.367 . S
C2087 C2086 1.367 . S
C2087 C2089 1.433 . S
C2088 C2084 1.350 . S
C2088 C2085 1.463 . S
C2088 N2092 1.427 . S
C2089 H2079 0.929 . S
C2089 C2087 1.433 . S
C2089 N2092 1.384 . S
C2090 H2081 0.929 . S
C2090 C2082 1.378 . S
C2090 C2085 1.350 . S
C2091 H2078 0.929 . S
C2091 C2083 1.433 . S
C2091 N2093 1.384 . S
N2092 C2088 1.427 . S
N2092 C2089 1.384 . S
N2093 C2085 1.427 . S
N2093 C2091 1.384 . S
H2094 C2100 0.930 . S
H2095 C2104 0.930 . S
H2096 C2109 0.929 . S
H2097 C2107 0.929 . S
H2098 C2102 0.929 . S
H2099 C2108 0.929 . S
C2100 H2094 0.930 . S
C2100 C2101 1.367 . S
C2100 C2108 1.378 . S
C2101 C2100 1.367 . S
C2101 C2109 1.433 . S
C2102 H2098 0.929 . S
C2102 C2104 1.378 . S
C2102 C2106 1.350 . S
C2103 C2106 1.463 . S
C2103 C2108 1.350 . S
C2103 N2111 1.427 . S
C2104 H2095 0.930 . S
C2104 C2102 1.378 . S
C2104 C2105 1.367 . S
C2105 C2104 1.367 . S
C2105 C2107 1.433 . S
C2106 C2102 1.350 . S
C2106 C2103 1.463 . S
C2106 N2110 1.427 . S
C2107 H2097 0.929 . S
C2107 C2105 1.433 . S
C2107 N2110 1.384 . S
C2108 H2099 0.929 . S
C2108 C2100 1.378 . S
C2108 C2103 1.350 . S
C2109 H2096 0.929 . S
C2109 C2101 1.433 . S
C2109 N2111 1.384 . S
N2110 C2106 1.427 . S
N2110 C2107 1.384 . S
N2111 C2103 1.427 . S
N2111 C2109 1.384 . S
H2112 C2118 0.930 . S
H2113 C2122 0.930 . S
H2114 C2127 0.929 . S
H2115 C2125 0.929 . S
H2116 C2120 0.929 . S
H2117 C2126 0.929 . S
C2118 H2112 0.930 . S
C2118 C2119 1.367 . S
C2118 C2126 1.378 . S
C2119 C2118 1.367 . S
C2119 C2127 1.433 . S
C2120 H2116 0.929 . S
C2120 C2122 1.378 . S
C2120 C2124 1.350 . S
C2121 C2124 1.463 . S
C2121 C2126 1.350 . S
C2121 N2129 1.427 . S
C2122 H2113 0.930 . S
C2122 C2120 1.378 . S
C2122 C2123 1.367 . S
C2123 C2122 1.367 . S
C2123 C2125 1.433 . S
C2124 C2120 1.350 . S
C2124 C2121 1.463 . S
C2124 N2128 1.427 . S
C2125 H2115 0.929 . S
C2125 C2123 1.433 . S
C2125 N2128 1.384 . S
C2126 H2117 0.929 . S
C2126 C2118 1.378 . S
C2126 C2121 1.350 . S
C2127 H2114 0.929 . S
C2127 C2119 1.433 . S
C2127 N2129 1.384 . S
N2128 C2124 1.427 . S
N2128 C2125 1.384 . S
N2129 C2121 1.427 . S
N2129 C2127 1.384 . S
H2130 C2136 0.930 . S
H2131 C2140 0.930 . S
H2132 C2145 0.929 . S
H2133 C2143 0.929 . S
H2134 C2138 0.929 . S
H2135 C2144 0.929 . S
C2136 H2130 0.930 . S
C2136 C2137 1.367 . S
C2136 C2144 1.378 . S
C2137 C2136 1.367 . S
C2137 C2145 1.433 . S
C2138 H2134 0.929 . S
C2138 C2140 1.378 . S
C2138 C2142 1.350 . S
C2139 C2142 1.463 . S
C2139 C2144 1.350 . S
C2139 N2147 1.427 . S
C2140 H2131 0.930 . S
C2140 C2138 1.378 . S
C2140 C2141 1.367 . S
C2141 C2140 1.367 . S
C2141 C2143 1.433 . S
C2142 C2138 1.350 . S
C2142 C2139 1.463 . S
C2142 N2146 1.427 . S
C2143 H2133 0.929 . S
C2143 C2141 1.433 . S
C2143 N2146 1.384 . S
C2144 H2135 0.929 . S
C2144 C2136 1.378 . S
C2144 C2139 1.350 . S
C2145 H2132 0.929 . S
C2145 C2137 1.433 . S
C2145 N2147 1.384 . S
N2146 C2142 1.427 . S
N2146 C2143 1.384 . S
N2147 C2139 1.427 . S
N2147 C2145 1.384 . S
H2148 C2154 0.930 . S
H2149 C2158 0.930 . S
H2150 C2163 0.929 . S
H2151 C2161 0.929 . S
H2152 C2156 0.929 . S
H2153 C2162 0.929 . S
C2154 H2148 0.930 . S
C2154 C2155 1.367 . S
C2154 C2162 1.378 . S
C2155 C2154 1.367 . S
C2155 C2163 1.433 . S
C2156 H2152 0.929 . S
C2156 C2158 1.378 . S
C2156 C2160 1.350 . S
C2157 C2160 1.463 . S
C2157 C2162 1.350 . S
C2157 N2165 1.427 . S
C2158 H2149 0.930 . S
C2158 C2156 1.378 . S
C2158 C2159 1.367 . S
C2159 C2158 1.367 . S
C2159 C2161 1.433 . S
C2160 C2156 1.350 . S
C2160 C2157 1.463 . S
C2160 N2164 1.427 . S
C2161 H2151 0.929 . S
C2161 C2159 1.433 . S
C2161 N2164 1.384 . S
C2162 H2153 0.929 . S
C2162 C2154 1.378 . S
C2162 C2157 1.350 . S
C2163 H2150 0.929 . S
C2163 C2155 1.433 . S
C2163 N2165 1.384 . S
N2164 C2160 1.427 . S
N2164 C2161 1.384 . S
N2165 C2157 1.427 . S
N2165 C2163 1.384 . S
H2166 C2172 0.930 . S
H2167 C2176 0.930 . S
H2168 C2181 0.929 . S
H2169 C2179 0.929 . S
H2170 C2174 0.929 . S
H2171 C2180 0.929 . S
C2172 H2166 0.930 . S
C2172 C2173 1.367 . S
C2172 C2180 1.378 . S
C2173 C2172 1.367 . S
C2173 C2181 1.433 . S
C2174 H2170 0.929 . S
C2174 C2176 1.378 . S
C2174 C2178 1.350 . S
C2175 C2178 1.463 . S
C2175 C2180 1.350 . S
C2175 N2183 1.427 . S
C2176 H2167 0.930 . S
C2176 C2174 1.378 . S
C2176 C2177 1.367 . S
C2177 C2176 1.367 . S
C2177 C2179 1.433 . S
C2178 C2174 1.350 . S
C2178 C2175 1.463 . S
C2178 N2182 1.427 . S
C2179 H2169 0.929 . S
C2179 C2177 1.433 . S
C2179 N2182 1.384 . S
C2180 H2171 0.929 . S
C2180 C2172 1.378 . S
C2180 C2175 1.350 . S
C2181 H2168 0.929 . S
C2181 C2173 1.433 . S
C2181 N2183 1.384 . S
N2182 C2178 1.427 . S
N2182 C2179 1.384 . S
N2183 C2175 1.427 . S
N2183 C2181 1.384 . S
H2184 C2190 0.930 . S
H2185 C2194 0.930 . S
H2186 C2199 0.929 . S
H2187 C2197 0.929 1_655 S
H2188 C2192 0.929 . S
H2189 C2198 0.959 . S
C2190 H2184 0.930 . S
C2190 C2191 1.367 . S
C2190 C2198 1.378 . S
C2191 C2190 1.367 . S
C2191 C2199 1.433 . S
C2192 H2188 0.929 . S
C2192 C2194 1.378 . S
C2192 C2196 1.350 . S
C2193 C2196 1.463 . S
C2193 C2198 1.350 . S
C2193 N2201 1.427 . S
C2194 H2185 0.930 . S
C2194 C2192 1.378 . S
C2194 C2195 1.367 . S
C2195 C2194 1.367 . S
C2195 C2197 1.433 . S
C2196 C2192 1.350 . S
C2196 C2193 1.463 . S
C2196 N2200 1.427 . S
C2197 H2187 0.929 1_455 S
C2197 C2195 1.433 . S
C2197 N2200 1.384 . S
C2198 H2189 0.959 . S
C2198 C2190 1.378 . S
C2198 C2193 1.350 . S
C2199 H2186 0.929 . S
C2199 C2191 1.433 . S
C2199 N2201 1.384 . S
N2200 C2196 1.427 . S
N2200 C2197 1.384 . S
N2201 C2193 1.427 . S
N2201 C2199 1.384 . S
H2202 C2208 0.930 . S
H2203 C2212 0.930 . S
H2204 C2217 0.929 . S
H2205 C2215 0.929 . S
H2206 C2210 0.929 . S
H2207 C2216 0.929 . S
C2208 H2202 0.930 . S
C2208 C2209 1.367 . S
C2208 C2216 1.378 . S
C2209 C2208 1.367 . S
C2209 C2217 1.433 . S
C2210 H2206 0.929 . S
C2210 C2212 1.378 . S
C2210 C2214 1.350 . S
C2211 C2214 1.463 . S
C2211 C2216 1.350 . S
C2211 N2219 1.427 . S
C2212 H2203 0.930 . S
C2212 C2210 1.378 . S
C2212 C2213 1.367 . S
C2213 C2212 1.367 . S
C2213 C2215 1.433 . S
C2214 C2210 1.350 . S
C2214 C2211 1.463 . S
C2214 N2218 1.427 . S
C2215 H2205 0.929 . S
C2215 C2213 1.433 . S
C2215 N2218 1.384 . S
C2216 H2207 0.929 . S
C2216 C2208 1.378 . S
C2216 C2211 1.350 . S
C2217 H2204 0.929 . S
C2217 C2209 1.433 . S
C2217 N2219 1.384 . S
N2218 C2214 1.427 . S
N2218 C2215 1.384 . S
N2219 C2211 1.427 . S
N2219 C2217 1.384 . S
H2220 C2226 0.930 . S
H2221 C2230 0.930 . S
H2222 C2235 0.929 . S
H2223 C2233 0.929 1_554 S
H2224 C2228 0.929 . S
H2225 C2234 0.929 . S
C2226 H2220 0.930 . S
C2226 C2227 1.367 . S
C2226 C2234 1.378 . S
C2227 C2226 1.367 . S
C2227 C2235 1.433 . S
C2228 H2224 0.929 . S
C2228 C2230 1.378 . S
C2228 C2232 1.350 . S
C2229 C2232 1.463 . S
C2229 C2234 1.350 . S
C2229 N2237 1.427 . S
C2230 H2221 0.930 . S
C2230 C2228 1.378 . S
C2230 C2231 1.367 . S
C2231 C2230 1.367 . S
C2231 C2233 1.433 . S
C2232 C2228 1.350 . S
C2232 C2229 1.463 . S
C2232 N2236 1.427 . S
C2233 H2223 0.929 1_556 S
C2233 C2231 1.433 . S
C2233 N2236 1.384 . S
C2234 H2225 0.929 . S
C2234 C2226 1.378 . S
C2234 C2229 1.350 . S
C2235 H2222 0.929 . S
C2235 C2227 1.433 . S
C2235 N2237 1.384 . S
N2236 C2232 1.427 . S
N2236 C2233 1.384 . S
N2237 C2229 1.427 . S
N2237 C2235 1.384 . S
H2238 C2244 0.930 . S
H2239 C2248 0.930 . S
H2240 C2253 0.929 . S
H2241 C2251 0.929 . S
H2242 C2246 0.929 . S
H2243 C2252 0.929 . S
C2244 H2238 0.930 . S
C2244 C2245 1.367 . S
C2244 C2252 1.378 . S
C2245 C2244 1.367 . S
C2245 C2253 1.433 . S
C2246 H2242 0.929 . S
C2246 C2248 1.378 . S
C2246 C2250 1.350 . S
C2247 C2250 1.463 . S
C2247 C2252 1.350 . S
C2247 N2255 1.427 . S
C2248 H2239 0.930 . S
C2248 C2246 1.378 . S
C2248 C2249 1.367 . S
C2249 C2248 1.367 . S
C2249 C2251 1.433 . S
C2250 C2246 1.350 . S
C2250 C2247 1.463 . S
C2250 N2254 1.427 . S
C2251 H2241 0.929 . S
C2251 C2249 1.433 . S
C2251 N2254 1.384 . S
C2252 H2243 0.929 . S
C2252 C2244 1.378 . S
C2252 C2247 1.350 . S
C2253 H2240 0.929 . S
C2253 C2245 1.433 . S
C2253 N2255 1.384 . S
N2254 C2250 1.427 . S
N2254 C2251 1.384 . S
N2255 C2247 1.427 . S
N2255 C2253 1.384 . S
H2256 C2262 0.930 . S
H2257 C2266 0.932 . S
H2258 C2271 0.929 . S
H2259 C2269 0.929 . S
H2260 C2264 0.929 . S
H2261 C2270 0.929 . S
C2262 H2256 0.930 . S
C2262 C2263 1.367 . S
C2262 C2270 1.378 . S
C2263 C2262 1.367 . S
C2263 C2271 1.433 . S
C2264 H2260 0.929 . S
C2264 C2266 1.378 . S
C2264 C2268 1.350 . S
C2265 C2268 1.463 . S
C2265 C2270 1.350 . S
C2265 N2273 1.427 . S
C2266 H2257 0.932 . S
C2266 C2264 1.378 . S
C2266 C2267 1.367 . S
C2267 C2266 1.367 . S
C2267 C2269 1.433 . S
C2268 C2264 1.350 . S
C2268 C2265 1.463 . S
C2268 N2272 1.427 . S
C2269 H2259 0.929 . S
C2269 C2267 1.433 . S
C2269 N2272 1.384 . S
C2270 H2261 0.929 . S
C2270 C2262 1.378 . S
C2270 C2265 1.350 . S
C2271 H2258 0.929 . S
C2271 C2263 1.433 . S
C2271 N2273 1.384 . S
N2272 C2268 1.427 . S
N2272 C2269 1.384 . S
N2273 C2265 1.427 . S
N2273 C2271 1.384 . S
H2274 C2280 0.930 . S
H2275 C2284 0.930 . S
H2276 C2289 0.929 . S
H2277 C2287 0.929 . S
H2278 C2282 0.929 . S
H2279 C2288 0.929 . S
C2280 H2274 0.930 . S
C2280 C2281 1.367 . S
C2280 C2288 1.378 . S
C2281 C2280 1.367 . S
C2281 C2289 1.433 . S
C2282 H2278 0.929 . S
C2282 C2284 1.378 . S
C2282 C2286 1.350 . S
C2283 C2286 1.463 . S
C2283 C2288 1.350 . S
C2283 N2291 1.427 . S
C2284 H2275 0.930 . S
C2284 C2282 1.378 . S
C2284 C2285 1.367 . S
C2285 C2284 1.367 . S
C2285 C2287 1.433 . S
C2286 C2282 1.350 . S
C2286 C2283 1.463 . S
C2286 N2290 1.427 . S
C2287 H2277 0.929 . S
C2287 C2285 1.433 . S
C2287 N2290 1.384 . S
C2288 H2279 0.929 . S
C2288 C2280 1.378 . S
C2288 C2283 1.350 . S
C2289 H2276 0.929 . S
C2289 C2281 1.433 . S
C2289 N2291 1.384 . S
N2290 C2286 1.427 . S
N2290 C2287 1.384 . S
N2291 C2283 1.427 . S
N2291 C2289 1.384 . S
H2292 C2298 0.930 . S
H2293 C2302 0.930 1_565 S
H2294 C2307 0.929 . S
H2295 C2305 0.929 . S
H2296 C2300 0.929 1_565 S
H2297 C2306 0.929 . S
C2298 H2292 0.930 . S
C2298 C2299 1.367 . S
C2298 C2306 1.378 . S
C2299 C2298 1.367 . S
C2299 C2307 1.433 1_545 S
C2300 H2296 0.929 1_545 S
C2300 C2302 1.378 . S
C2300 C2304 1.350 . S
C2301 C2304 1.463 . S
C2301 C2306 1.350 . S
C2301 N2309 1.427 1_545 S
C2302 H2293 0.930 1_545 S
C2302 C2300 1.378 . S
C2302 C2303 1.367 . S
C2303 C2302 1.367 . S
C2303 C2305 1.433 . S
C2304 C2300 1.350 . S
C2304 C2301 1.463 . S
C2304 N2308 1.427 . S
C2305 H2295 0.929 . S
C2305 C2303 1.433 . S
C2305 N2308 1.384 . S
C2306 H2297 0.929 . S
C2306 C2298 1.378 . S
C2306 C2301 1.350 . S
C2307 H2294 0.929 . S
C2307 C2299 1.433 1_565 S
C2307 N2309 1.384 . S
N2308 C2304 1.427 . S
N2308 C2305 1.384 . S
N2309 C2301 1.427 1_565 S
N2309 C2307 1.384 . S
H2310 C2316 0.930 . S
H2311 C2320 0.930 . S
H2312 C2325 0.929 . S
H2313 C2323 0.929 . S
H2314 C2318 0.929 . S
H2315 C2324 0.929 . S
C2316 H2310 0.930 . S
C2316 C2317 1.367 . S
C2316 C2324 1.378 . S
C2317 C2316 1.367 . S
C2317 C2325 1.433 . S
C2318 H2314 0.929 . S
C2318 C2320 1.378 . S
C2318 C2322 1.350 . S
C2319 C2322 1.463 . S
C2319 C2324 1.350 . S
C2319 N2327 1.427 . S
C2320 H2311 0.930 . S
C2320 C2318 1.378 . S
C2320 C2321 1.367 . S
C2321 C2320 1.367 . S
C2321 C2323 1.433 . S
C2322 C2318 1.350 . S
C2322 C2319 1.463 . S
C2322 N2326 1.427 . S
C2323 H2313 0.929 . S
C2323 C2321 1.433 . S
C2323 N2326 1.384 . S
C2324 H2315 0.929 . S
C2324 C2316 1.378 . S
C2324 C2319 1.350 . S
C2325 H2312 0.929 . S
C2325 C2317 1.433 . S
C2325 N2327 1.384 . S
N2326 C2322 1.427 . S
N2326 C2323 1.384 . S
N2327 C2319 1.427 . S
N2327 C2325 1.384 . S
H2328 C2334 0.930 . S
H2329 C2338 0.930 . S
H2330 C2343 0.929 . S
H2331 C2341 0.929 . S
H2332 C2336 0.929 . S
H2333 C2342 0.929 . S
C2334 H2328 0.930 . S
C2334 C2335 1.367 . S
C2334 C2342 1.378 . S
C2335 C2334 1.367 . S
C2335 C2343 1.433 . S
C2336 H2332 0.929 . S
C2336 C2338 1.378 . S
C2336 C2340 1.350 . S
C2337 C2340 1.463 . S
C2337 C2342 1.350 . S
C2337 N2345 1.427 . S
C2338 H2329 0.930 . S
C2338 C2336 1.378 . S
C2338 C2339 1.367 . S
C2339 C2338 1.367 . S
C2339 C2341 1.433 . S
C2340 C2336 1.350 . S
C2340 C2337 1.463 . S
C2340 N2344 1.427 . S
C2341 H2331 0.929 . S
C2341 C2339 1.433 . S
C2341 N2344 1.384 . S
C2342 H2333 0.929 . S
C2342 C2334 1.378 . S
C2342 C2337 1.350 . S
C2343 H2330 0.929 . S
C2343 C2335 1.433 . S
C2343 N2345 1.384 . S
N2344 C2340 1.427 . S
N2344 C2341 1.384 . S
N2345 C2337 1.427 . S
N2345 C2343 1.384 . S
H2346 C2352 0.930 . S
H2347 C2356 0.930 . S
H2348 C2361 0.929 . S
H2349 C2359 0.929 . S
H2350 C2354 0.929 . S
H2351 C2360 0.929 . S
C2352 H2346 0.930 . S
C2352 C2353 1.367 . S
C2352 C2360 1.378 . S
C2353 C2352 1.367 . S
C2353 C2361 1.433 . S
C2354 H2350 0.929 . S
C2354 C2356 1.378 . S
C2354 C2358 1.350 . S
C2355 C2358 1.463 . S
C2355 C2360 1.350 . S
C2355 N2363 1.427 . S
C2356 H2347 0.930 . S
C2356 C2354 1.378 . S
C2356 C2357 1.367 . S
C2357 C2356 1.367 . S
C2357 C2359 1.433 . S
C2358 C2354 1.350 . S
C2358 C2355 1.463 . S
C2358 N2362 1.427 . S
C2359 H2349 0.929 . S
C2359 C2357 1.433 . S
C2359 N2362 1.384 . S
C2360 H2351 0.929 . S
C2360 C2352 1.378 . S
C2360 C2355 1.350 . S
C2361 H2348 0.929 . S
C2361 C2353 1.433 . S
C2361 N2363 1.384 . S
N2362 C2358 1.427 . S
N2362 C2359 1.384 . S
N2363 C2355 1.427 . S
N2363 C2361 1.384 . S
H2364 C2370 0.930 . S
H2365 C2374 0.930 . S
H2366 C2379 0.929 1_565 S
H2367 C2377 0.929 . S
H2368 C2372 0.929 . S
H2369 C2378 0.929 . S
C2370 H2364 0.930 . S
C2370 C2371 1.367 . S
C2370 C2378 1.378 . S
C2371 C2370 1.367 . S
C2371 C2379 1.433 . S
C2372 H2368 0.929 . S
C2372 C2374 1.378 . S
C2372 C2376 1.350 . S
C2373 C2376 1.463 . S
C2373 C2378 1.350 . S
C2373 N2381 1.427 . S
C2374 H2365 0.930 . S
C2374 C2372 1.378 . S
C2374 C2375 1.367 . S
C2375 C2374 1.367 . S
C2375 C2377 1.433 . S
C2376 C2372 1.350 . S
C2376 C2373 1.463 . S
C2376 N2380 1.427 . S
C2377 H2367 0.929 . S
C2377 C2375 1.433 . S
C2377 N2380 1.384 . S
C2378 H2369 0.929 . S
C2378 C2370 1.378 . S
C2378 C2373 1.350 . S
C2379 H2366 0.929 1_545 S
C2379 C2371 1.433 . S
C2379 N2381 1.384 . S
N2380 C2376 1.427 . S
N2380 C2377 1.384 . S
N2381 C2373 1.427 . S
N2381 C2379 1.384 . S
H2382 C2388 0.930 . S
H2383 C2392 0.930 . S
H2384 C2397 0.929 . S
H2385 C2395 0.929 . S
H2386 C2390 0.929 . S
H2387 C2396 0.929 . S
C2388 H2382 0.930 . S
C2388 C2389 1.367 . S
C2388 C2396 1.378 . S
C2389 C2388 1.367 . S
C2389 C2397 1.433 . S
C2390 H2386 0.929 . S
C2390 C2392 1.378 . S
C2390 C2394 1.350 . S
C2391 C2394 1.463 . S
C2391 C2396 1.350 . S
C2391 N2399 1.427 . S
C2392 H2383 0.930 . S
C2392 C2390 1.378 . S
C2392 C2393 1.367 . S
C2393 C2392 1.367 . S
C2393 C2395 1.433 . S
C2394 C2390 1.350 . S
C2394 C2391 1.463 . S
C2394 N2398 1.427 . S
C2395 H2385 0.929 . S
C2395 C2393 1.433 . S
C2395 N2398 1.384 . S
C2396 H2387 0.929 . S
C2396 C2388 1.378 . S
C2396 C2391 1.350 . S
C2397 H2384 0.929 . S
C2397 C2389 1.433 . S
C2397 N2399 1.384 . S
N2398 C2394 1.427 . S
N2398 C2395 1.384 . S
N2399 C2391 1.427 . S
N2399 C2397 1.384 . S
H2400 C2406 0.930 . S
H2401 C2410 0.930 . S
H2402 C2415 0.929 . S
H2403 C2413 0.929 . S
H2404 C2408 0.929 . S
H2405 C2414 0.929 . S
C2406 H2400 0.930 . S
C2406 C2407 1.367 . S
C2406 C2414 1.378 . S
C2407 C2406 1.367 . S
C2407 C2415 1.433 . S
C2408 H2404 0.929 . S
C2408 C2410 1.378 . S
C2408 C2412 1.350 . S
C2409 C2412 1.463 . S
C2409 C2414 1.350 . S
C2409 N2417 1.427 . S
C2410 H2401 0.930 . S
C2410 C2408 1.378 . S
C2410 C2411 1.367 . S
C2411 C2410 1.367 . S
C2411 C2413 1.433 . S
C2412 C2408 1.350 . S
C2412 C2409 1.463 . S
C2412 N2416 1.427 . S
C2413 H2403 0.929 . S
C2413 C2411 1.433 . S
C2413 N2416 1.384 . S
C2414 H2405 0.929 . S
C2414 C2406 1.378 . S
C2414 C2409 1.350 . S
C2415 H2402 0.929 . S
C2415 C2407 1.433 . S
C2415 N2417 1.384 . S
N2416 C2412 1.427 . S
N2416 C2413 1.384 . S
N2417 C2409 1.427 . S
N2417 C2415 1.384 . S
H2418 C2424 0.930 . S
H2419 C2428 0.930 . S
H2420 C2433 0.929 . S
H2421 C2431 0.929 . S
H2422 C2426 0.929 . S
H2423 C2432 0.929 . S
C2424 H2418 0.930 . S
C2424 C2425 1.367 . S
C2424 C2432 1.378 . S
C2425 C2424 1.367 . S
C2425 C2433 1.433 . S
C2426 H2422 0.929 . S
C2426 C2428 1.378 . S
C2426 C2430 1.350 . S
C2427 C2430 1.463 . S
C2427 C2432 1.350 . S
C2427 N2435 1.427 . S
C2428 H2419 0.930 . S
C2428 C2426 1.378 . S
C2428 C2429 1.367 . S
C2429 C2428 1.367 . S
C2429 C2431 1.433 . S
C2430 C2426 1.350 . S
C2430 C2427 1.463 . S
C2430 N2434 1.427 . S
C2431 H2421 0.929 . S
C2431 C2429 1.433 . S
C2431 N2434 1.384 . S
C2432 H2423 0.929 . S
C2432 C2424 1.378 . S
C2432 C2427 1.350 . S
C2433 H2420 0.929 . S
C2433 C2425 1.433 . S
C2433 N2435 1.384 . S
N2434 C2430 1.427 . S
N2434 C2431 1.384 . S
N2435 C2427 1.427 . S
N2435 C2433 1.384 . S
H2436 C2442 0.930 . S
H2437 C2446 0.930 . S
H2438 C2451 0.929 . S
H2439 C2449 0.929 . S
H2440 C2444 0.929 . S
H2441 C2450 0.929 . S
C2442 H2436 0.930 . S
C2442 C2443 1.367 . S
C2442 C2450 1.378 . S
C2443 C2442 1.367 . S
C2443 C2451 1.433 . S
C2444 H2440 0.929 . S
C2444 C2446 1.378 . S
C2444 C2448 1.350 . S
C2445 C2448 1.463 . S
C2445 C2450 1.350 . S
C2445 N2453 1.427 . S
C2446 H2437 0.930 . S
C2446 C2444 1.378 . S
C2446 C2447 1.367 . S
C2447 C2446 1.367 . S
C2447 C2449 1.433 . S
C2448 C2444 1.350 . S
C2448 C2445 1.463 . S
C2448 N2452 1.427 . S
C2449 H2439 0.929 . S
C2449 C2447 1.433 . S
C2449 N2452 1.384 . S
C2450 H2441 0.929 . S
C2450 C2442 1.378 . S
C2450 C2445 1.350 . S
C2451 H2438 0.929 . S
C2451 C2443 1.433 . S
C2451 N2453 1.384 . S
N2452 C2448 1.427 . S
N2452 C2449 1.384 . S
N2453 C2445 1.427 . S
N2453 C2451 1.384 . S
H2454 C2460 0.930 . S
H2455 C2464 0.930 . S
H2456 C2469 0.929 . S
H2457 C2467 0.929 . S
H2458 C2462 0.929 . S
H2459 C2468 0.929 . S
C2460 H2454 0.930 . S
C2460 C2461 1.367 . S
C2460 C2468 1.378 . S
C2461 C2460 1.367 . S
C2461 C2469 1.433 . S
C2462 H2458 0.929 . S
C2462 C2464 1.378 . S
C2462 C2466 1.350 . S
C2463 C2466 1.463 . S
C2463 C2468 1.350 . S
C2463 N2471 1.427 . S
C2464 H2455 0.930 . S
C2464 C2462 1.378 . S
C2464 C2465 1.367 . S
C2465 C2464 1.367 . S
C2465 C2467 1.433 . S
C2466 C2462 1.350 . S
C2466 C2463 1.463 . S
C2466 N2470 1.427 . S
C2467 H2457 0.929 . S
C2467 C2465 1.433 . S
C2467 N2470 1.384 . S
C2468 H2459 0.929 . S
C2468 C2460 1.378 . S
C2468 C2463 1.350 . S
C2469 H2456 0.929 . S
C2469 C2461 1.433 . S
C2469 N2471 1.384 . S
N2470 C2466 1.427 . S
N2470 C2467 1.384 . S
N2471 C2463 1.427 . S
N2471 C2469 1.384 . S
H2472 C2478 0.930 1_545 S
H2473 C2482 0.930 . S
H2474 C2487 0.929 . S
H2475 C2485 0.929 . S
H2476 C2480 0.929 . S
H2477 C2486 0.929 . S
C2478 H2472 0.930 1_565 S
C2478 C2479 1.381 . S
C2478 C2486 1.378 . S
C2479 C2478 1.381 . S
C2479 C2487 1.462 . S
C2480 H2476 0.929 . S
C2480 C2482 1.378 . S
C2480 C2484 1.350 . S
C2481 C2484 1.463 . S
C2481 C2486 1.350 . S
C2481 N2489 1.427 . S
C2482 H2473 0.930 . S
C2482 C2480 1.378 . S
C2482 C2483 1.367 . S
C2483 C2482 1.367 . S
C2483 C2485 1.433 . S
C2484 C2480 1.350 . S
C2484 C2481 1.463 . S
C2484 N2488 1.427 . S
C2485 H2475 0.929 . S
C2485 C2483 1.433 . S
C2485 N2488 1.384 . S
C2486 H2477 0.929 . S
C2486 C2478 1.378 . S
C2486 C2481 1.350 . S
C2487 H2474 0.929 . S
C2487 C2479 1.462 . S
C2487 N2489 1.384 . S
N2488 C2484 1.427 . S
N2488 C2485 1.384 . S
N2489 C2481 1.427 . S
N2489 C2487 1.384 . S
H2490 C2496 0.930 . S
H2491 C2500 0.930 . S
H2492 C2505 0.929 . S
H2493 C2503 0.929 . S
H2494 C2498 0.929 . S
H2495 C2504 0.929 . S
C2496 H2490 0.930 . S
C2496 C2497 1.367 . S
C2496 C2504 1.378 . S
C2497 C2496 1.367 . S
C2497 C2505 1.433 . S
C2498 H2494 0.929 . S
C2498 C2500 1.378 . S
C2498 C2502 1.350 . S
C2499 C2502 1.463 . S
C2499 C2504 1.350 . S
C2499 N2507 1.427 . S
C2500 H2491 0.930 . S
C2500 C2498 1.378 . S
C2500 C2501 1.367 . S
C2501 C2500 1.367 . S
C2501 C2503 1.433 . S
C2502 C2498 1.350 . S
C2502 C2499 1.463 . S
C2502 N2506 1.427 . S
C2503 H2493 0.929 . S
C2503 C2501 1.433 . S
C2503 N2506 1.384 . S
C2504 H2495 0.929 . S
C2504 C2496 1.378 . S
C2504 C2499 1.350 . S
C2505 H2492 0.929 . S
C2505 C2497 1.433 . S
C2505 N2507 1.384 . S
N2506 C2502 1.427 . S
N2506 C2503 1.384 . S
N2507 C2499 1.427 . S
N2507 C2505 1.384 . S
H2508 C2514 0.930 . S
H2509 C2518 0.930 . S
H2510 C2523 0.929 . S
H2511 C2521 0.929 . S
H2512 C2516 0.929 . S
H2513 C2522 0.929 . S
C2514 H2508 0.930 . S
C2514 C2515 1.367 . S
C2514 C2522 1.378 . S
C2515 C2514 1.367 . S
C2515 C2523 1.433 . S
C2516 H2512 0.929 . S
C2516 C2518 1.378 . S
C2516 C2520 1.350 . S
C2517 C2520 1.463 . S
C2517 C2522 1.350 . S
C2517 N2525 1.427 . S
C2518 H2509 0.930 . S
C2518 C2516 1.378 . S
C2518 C2519 1.367 . S
C2519 C2518 1.367 . S
C2519 C2521 1.433 . S
C2520 C2516 1.350 . S
C2520 C2517 1.463 . S
C2520 N2524 1.427 . S
C2521 H2511 0.929 . S
C2521 C2519 1.433 . S
C2521 N2524 1.384 . S
C2522 H2513 0.929 . S
C2522 C2514 1.378 . S
C2522 C2517 1.350 . S
C2523 H2510 0.929 . S
C2523 C2515 1.433 . S
C2523 N2525 1.384 . S
N2524 C2520 1.427 . S
N2524 C2521 1.384 . S
N2525 C2517 1.427 . S
N2525 C2523 1.384 . S
H2526 C2532 0.930 . S
H2527 C2536 0.930 . S
H2528 C2541 0.929 . S
H2529 C2539 0.929 . S
H2530 C2534 0.929 . S
H2531 C2540 0.929 . S
C2532 H2526 0.930 . S
C2532 C2533 1.367 . S
C2532 C2540 1.378 . S
C2533 C2532 1.367 . S
C2533 C2541 1.433 . S
C2534 H2530 0.929 . S
C2534 C2536 1.378 . S
C2534 C2538 1.350 . S
C2535 C2538 1.463 . S
C2535 C2540 1.350 . S
C2535 N2543 1.427 . S
C2536 H2527 0.930 . S
C2536 C2534 1.378 . S
C2536 C2537 1.367 . S
C2537 C2536 1.367 . S
C2537 C2539 1.433 . S
C2538 C2534 1.350 . S
C2538 C2535 1.463 . S
C2538 N2542 1.427 . S
C2539 H2529 0.929 . S
C2539 C2537 1.433 . S
C2539 N2542 1.384 . S
C2540 H2531 0.929 . S
C2540 C2532 1.378 . S
C2540 C2535 1.350 . S
C2541 H2528 0.929 . S
C2541 C2533 1.433 . S
C2541 N2543 1.384 . S
N2542 C2538 1.427 . S
N2542 C2539 1.384 . S
N2543 C2535 1.427 . S
N2543 C2541 1.384 . S
H2544 C2550 0.930 . S
H2545 C2554 0.930 . S
H2546 C2559 0.929 . S
H2547 C2557 0.929 . S
H2548 C2552 0.929 . S
H2549 C2558 0.929 . S
C2550 H2544 0.930 . S
C2550 C2551 1.367 . S
C2550 C2558 1.378 . S
C2551 C2550 1.367 . S
C2551 C2559 1.433 . S
C2552 H2548 0.929 . S
C2552 C2554 1.378 . S
C2552 C2556 1.350 . S
C2553 C2556 1.463 . S
C2553 C2558 1.350 . S
C2553 N2561 1.427 . S
C2554 H2545 0.930 . S
C2554 C2552 1.378 . S
C2554 C2555 1.367 . S
C2555 C2554 1.367 . S
C2555 C2557 1.433 . S
C2556 C2552 1.350 . S
C2556 C2553 1.463 . S
C2556 N2560 1.427 . S
C2557 H2547 0.929 . S
C2557 C2555 1.433 . S
C2557 N2560 1.384 . S
C2558 H2549 0.929 . S
C2558 C2550 1.378 . S
C2558 C2553 1.350 . S
C2559 H2546 0.929 . S
C2559 C2551 1.433 . S
C2559 N2561 1.384 . S
N2560 C2556 1.427 . S
N2560 C2557 1.384 . S
N2561 C2553 1.427 . S
N2561 C2559 1.384 . S
H2562 C2568 0.930 . S
H2563 C2572 0.930 . S
H2564 C2577 0.929 . S
H2565 C2575 0.929 . S
H2566 C2570 0.929 . S
H2567 C2576 0.929 . S
C2568 H2562 0.930 . S
C2568 C2569 1.367 . S
C2568 C2576 1.378 . S
C2569 C2568 1.367 . S
C2569 C2577 1.433 . S
C2570 H2566 0.929 . S
C2570 C2572 1.378 . S
C2570 C2574 1.350 . S
C2571 C2574 1.463 . S
C2571 C2576 1.350 . S
C2571 N2579 1.427 . S
C2572 H2563 0.930 . S
C2572 C2570 1.378 . S
C2572 C2573 1.367 . S
C2573 C2572 1.367 . S
C2573 C2575 1.433 . S
C2574 C2570 1.350 . S
C2574 C2571 1.463 . S
C2574 N2578 1.427 . S
C2575 H2565 0.929 . S
C2575 C2573 1.433 . S
C2575 N2578 1.384 . S
C2576 H2567 0.929 . S
C2576 C2568 1.378 . S
C2576 C2571 1.350 . S
C2577 H2564 0.929 . S
C2577 C2569 1.433 . S
C2577 N2579 1.384 . S
N2578 C2574 1.427 . S
N2578 C2575 1.384 . S
N2579 C2571 1.427 . S
N2579 C2577 1.384 . S
H2580 C2586 0.930 . S
H2581 C2590 0.930 . S
H2582 C2595 0.929 . S
H2583 C2593 0.929 . S
H2584 C2588 0.929 . S
H2585 C2594 0.929 . S
C2586 H2580 0.930 . S
C2586 C2587 1.367 . S
C2586 C2594 1.378 . S
C2587 C2586 1.367 . S
C2587 C2595 1.433 1_556 S
C2588 H2584 0.929 . S
C2588 C2590 1.378 . S
C2588 C2592 1.350 . S
C2589 C2592 1.463 1_556 S
C2589 C2594 1.350 . S
C2589 N2597 1.427 1_556 S
C2590 H2581 0.930 . S
C2590 C2588 1.378 . S
C2590 C2591 1.367 . S
C2591 C2590 1.367 . S
C2591 C2593 1.433 1_554 S
C2592 C2588 1.350 . S
C2592 C2589 1.463 1_554 S
C2592 N2596 1.427 1_554 S
C2593 H2583 0.929 . S
C2593 C2591 1.433 1_556 S
C2593 N2596 1.384 . S
C2594 H2585 0.929 . S
C2594 C2586 1.378 . S
C2594 C2589 1.350 . S
C2595 H2582 0.929 . S
C2595 C2587 1.433 1_554 S
C2595 N2597 1.384 . S
N2596 C2592 1.427 1_556 S
N2596 C2593 1.384 . S
N2597 C2589 1.427 1_554 S
N2597 C2595 1.384 . S
H2598 C2604 0.930 . S
H2599 C2608 0.930 . S
H2600 C2613 0.929 1_455 S
H2601 C2611 0.929 . S
H2602 C2606 0.929 . S
H2603 C2612 0.929 . S
C2604 H2598 0.930 . S
C2604 C2605 1.367 . S
C2604 C2612 1.378 . S
C2605 C2604 1.367 . S
C2605 C2613 1.433 . S
C2606 H2602 0.929 . S
C2606 C2608 1.378 . S
C2606 C2610 1.350 . S
C2607 C2610 1.463 . S
C2607 C2612 1.350 . S
C2607 N2615 1.427 . S
C2608 H2599 0.930 . S
C2608 C2606 1.378 . S
C2608 C2609 1.367 . S
C2609 C2608 1.367 . S
C2609 C2611 1.433 . S
C2610 C2606 1.350 . S
C2610 C2607 1.463 . S
C2610 N2614 1.427 . S
C2611 H2601 0.929 . S
C2611 C2609 1.433 . S
C2611 N2614 1.384 . S
C2612 H2603 0.929 . S
C2612 C2604 1.378 . S
C2612 C2607 1.350 . S
C2613 H2600 0.929 1_655 S
C2613 C2605 1.433 . S
C2613 N2615 1.384 . S
N2614 C2610 1.427 . S
N2614 C2611 1.384 . S
N2615 C2607 1.427 . S
N2615 C2613 1.384 . S
H2616 C2622 0.930 . S
H2617 C2626 0.930 . S
H2618 C2631 0.929 . S
H2619 C2629 0.929 . S
H2620 C2624 0.929 . S
H2621 C2630 0.929 . S
C2622 H2616 0.930 . S
C2622 C2623 1.367 . S
C2622 C2630 1.378 . S
C2623 C2622 1.367 . S
C2623 C2631 1.433 . S
C2624 H2620 0.929 . S
C2624 C2626 1.378 . S
C2624 C2628 1.350 . S
C2625 C2628 1.463 . S
C2625 C2630 1.350 . S
C2625 N2633 1.427 . S
C2626 H2617 0.930 . S
C2626 C2624 1.378 . S
C2626 C2627 1.367 . S
C2627 C2626 1.367 . S
C2627 C2629 1.433 . S
C2628 C2624 1.350 . S
C2628 C2625 1.463 . S
C2628 N2632 1.427 . S
C2629 H2619 0.929 . S
C2629 C2627 1.433 . S
C2629 N2632 1.384 . S
C2630 H2621 0.929 . S
C2630 C2622 1.378 . S
C2630 C2625 1.350 . S
C2631 H2618 0.929 . S
C2631 C2623 1.433 . S
C2631 N2633 1.384 . S
N2632 C2628 1.427 . S
N2632 C2629 1.384 . S
N2633 C2625 1.427 . S
N2633 C2631 1.384 . S
H2634 C2640 0.930 . S
H2635 C2644 0.930 . S
H2636 C2649 0.929 . S
H2637 C2647 0.929 . S
H2638 C2642 0.929 . S
H2639 C2648 0.929 . S
C2640 H2634 0.930 . S
C2640 C2641 1.367 . S
C2640 C2648 1.378 . S
C2641 C2640 1.367 . S
C2641 C2649 1.433 . S
C2642 H2638 0.929 . S
C2642 C2644 1.378 . S
C2642 C2646 1.350 . S
C2643 C2646 1.463 . S
C2643 C2648 1.350 . S
C2643 N2651 1.427 . S
C2644 H2635 0.930 . S
C2644 C2642 1.378 . S
C2644 C2645 1.367 . S
C2645 C2644 1.367 . S
C2645 C2647 1.433 . S
C2646 C2642 1.350 . S
C2646 C2643 1.463 . S
C2646 N2650 1.427 . S
C2647 H2637 0.929 . S
C2647 C2645 1.433 . S
C2647 N2650 1.384 . S
C2648 H2639 0.929 . S
C2648 C2640 1.378 . S
C2648 C2643 1.350 . S
C2649 H2636 0.929 . S
C2649 C2641 1.433 . S
C2649 N2651 1.384 . S
N2650 C2646 1.427 . S
N2650 C2647 1.384 . S
N2651 C2643 1.427 . S
N2651 C2649 1.384 . S
H2652 C2658 0.930 1_655 S
H2653 C2662 0.930 . S
H2654 C2667 0.929 . S
H2655 C2665 0.929 . S
H2656 C2660 0.929 . S
H2657 C2666 0.929 1_655 S
C2658 H2652 0.930 1_455 S
C2658 C2659 1.367 . S
C2658 C2666 1.378 . S
C2659 C2658 1.367 . S
C2659 C2667 1.433 . S
C2660 H2656 0.929 . S
C2660 C2662 1.378 . S
C2660 C2664 1.350 . S
C2661 C2664 1.463 . S
C2661 C2666 1.350 . S
C2661 N2669 1.427 . S
C2662 H2653 0.930 . S
C2662 C2660 1.378 . S
C2662 C2663 1.367 . S
C2663 C2662 1.367 . S
C2663 C2665 1.433 . S
C2664 C2660 1.350 . S
C2664 C2661 1.463 . S
C2664 N2668 1.427 . S
C2665 H2655 0.929 . S
C2665 C2663 1.433 . S
C2665 N2668 1.384 . S
C2666 H2657 0.929 1_455 S
C2666 C2658 1.378 . S
C2666 C2661 1.350 . S
C2667 H2654 0.929 . S
C2667 C2659 1.433 . S
C2667 N2669 1.384 . S
N2668 C2664 1.427 . S
N2668 C2665 1.384 . S
N2669 C2661 1.427 . S
N2669 C2667 1.384 . S
H2670 C2676 0.930 . S
H2671 C2680 0.930 . S
H2672 C2685 0.929 . S
H2673 C2683 0.929 . S
H2674 C2678 0.929 . S
H2675 C2684 0.929 . S
C2676 H2670 0.930 . S
C2676 C2677 1.367 . S
C2676 C2684 1.378 . S
C2677 C2676 1.367 . S
C2677 C2685 1.433 . S
C2678 H2674 0.929 . S
C2678 C2680 1.378 . S
C2678 C2682 1.350 . S
C2679 C2682 1.463 . S
C2679 C2684 1.350 . S
C2679 N2687 1.427 . S
C2680 H2671 0.930 . S
C2680 C2678 1.378 . S
C2680 C2681 1.367 . S
C2681 C2680 1.367 . S
C2681 C2683 1.433 . S
C2682 C2678 1.350 . S
C2682 C2679 1.463 . S
C2682 N2686 1.427 . S
C2683 H2673 0.929 . S
C2683 C2681 1.433 . S
C2683 N2686 1.384 . S
C2684 H2675 0.929 . S
C2684 C2676 1.378 . S
C2684 C2679 1.350 . S
C2685 H2672 0.929 . S
C2685 C2677 1.433 . S
C2685 N2687 1.384 . S
N2686 C2682 1.427 . S
N2686 C2683 1.384 . S
N2687 C2679 1.427 . S
N2687 C2685 1.384 . S
H2688 C2694 0.930 . S
H2689 C2698 0.930 . S
H2690 C2703 0.929 . S
H2691 C2701 0.929 . S
H2692 C2696 0.929 . S
H2693 C2702 0.929 . S
C2694 H2688 0.930 . S
C2694 C2695 1.367 . S
C2694 C2702 1.378 . S
C2695 C2694 1.367 . S
C2695 C2703 1.433 . S
C2696 H2692 0.929 . S
C2696 C2698 1.378 . S
C2696 C2700 1.350 . S
C2697 C2700 1.463 . S
C2697 C2702 1.350 . S
C2697 N2705 1.427 . S
C2698 H2689 0.930 . S
C2698 C2696 1.378 . S
C2698 C2699 1.367 . S
C2699 C2698 1.367 . S
C2699 C2701 1.433 . S
C2700 C2696 1.350 . S
C2700 C2697 1.463 . S
C2700 N2704 1.427 . S
C2701 H2691 0.929 . S
C2701 C2699 1.433 . S
C2701 N2704 1.384 . S
C2702 H2693 0.929 . S
C2702 C2694 1.378 . S
C2702 C2697 1.350 . S
C2703 H2690 0.929 . S
C2703 C2695 1.433 . S
C2703 N2705 1.384 . S
N2704 C2700 1.427 . S
N2704 C2701 1.384 . S
N2705 C2697 1.427 . S
N2705 C2703 1.384 . S
H2706 C2712 0.930 . S
H2707 C2716 0.930 . S
H2708 C2721 0.929 . S
H2709 C2719 0.929 . S
H2710 C2714 0.929 . S
H2711 C2720 0.929 . S
C2712 H2706 0.930 . S
C2712 C2713 1.367 . S
C2712 C2720 1.378 1_554 S
C2713 C2712 1.367 . S
C2713 C2721 1.433 1_554 S
C2714 H2710 0.929 . S
C2714 C2716 1.378 . S
C2714 C2718 1.350 . S
C2715 C2718 1.463 . S
C2715 C2720 1.350 . S
C2715 N2723 1.427 . S
C2716 H2707 0.930 . S
C2716 C2714 1.378 . S
C2716 C2717 1.367 . S
C2717 C2716 1.367 . S
C2717 C2719 1.433 . S
C2718 C2714 1.350 . S
C2718 C2715 1.463 . S
C2718 N2722 1.427 . S
C2719 H2709 0.929 . S
C2719 C2717 1.433 . S
C2719 N2722 1.384 . S
C2720 H2711 0.929 . S
C2720 C2712 1.378 1_556 S
C2720 C2715 1.350 . S
C2721 H2708 0.929 . S
C2721 C2713 1.433 1_556 S
C2721 N2723 1.384 . S
N2722 C2718 1.427 . S
N2722 C2719 1.384 . S
N2723 C2715 1.427 . S
N2723 C2721 1.384 . S
H2724 C2730 0.930 . S
H2725 C2734 0.930 . S
H2726 C2739 0.929 . S
H2727 C2737 0.929 . S
H2728 C2732 0.929 . S
H2729 C2738 0.929 . S
C2730 H2724 0.930 . S
C2730 C2731 1.367 . S
C2730 C2738 1.378 . S
C2731 C2730 1.367 . S
C2731 C2739 1.433 . S
C2732 H2728 0.929 . S
C2732 C2734 1.378 . S
C2732 C2736 1.350 . S
C2733 C2736 1.463 . S
C2733 C2738 1.350 . S
C2733 N2741 1.427 . S
C2734 H2725 0.930 . S
C2734 C2732 1.378 . S
C2734 C2735 1.367 . S
C2735 C2734 1.367 . S
C2735 C2737 1.433 . S
C2736 C2732 1.350 . S
C2736 C2733 1.463 . S
C2736 N2740 1.427 . S
C2737 H2727 0.929 . S
C2737 C2735 1.433 . S
C2737 N2740 1.384 . S
C2738 H2729 0.929 . S
C2738 C2730 1.378 . S
C2738 C2733 1.350 . S
C2739 H2726 0.929 . S
C2739 C2731 1.433 . S
C2739 N2741 1.384 . S
N2740 C2736 1.427 . S
N2740 C2737 1.384 . S
N2741 C2733 1.427 . S
N2741 C2739 1.384 . S
H2742 C2748 0.930 . S
H2743 C2752 0.930 . S
H2744 C2757 0.929 . S
H2745 C2755 0.929 . S
H2746 C2750 0.929 . S
H2747 C2756 0.929 . S
C2748 H2742 0.930 . S
C2748 C2749 1.367 . S
C2748 C2756 1.378 . S
C2749 C2748 1.367 . S
C2749 C2757 1.433 . S
C2750 H2746 0.929 . S
C2750 C2752 1.378 . S
C2750 C2754 1.350 . S
C2751 C2754 1.463 . S
C2751 C2756 1.350 . S
C2751 N2759 1.427 . S
C2752 H2743 0.930 . S
C2752 C2750 1.378 . S
C2752 C2753 1.367 . S
C2753 C2752 1.367 . S
C2753 C2755 1.433 . S
C2754 C2750 1.350 . S
C2754 C2751 1.463 . S
C2754 N2758 1.427 . S
C2755 H2745 0.929 . S
C2755 C2753 1.433 . S
C2755 N2758 1.384 . S
C2756 H2747 0.929 . S
C2756 C2748 1.378 . S
C2756 C2751 1.350 . S
C2757 H2744 0.929 . S
C2757 C2749 1.433 . S
C2757 N2759 1.384 . S
N2758 C2754 1.427 . S
N2758 C2755 1.384 . S
N2759 C2751 1.427 . S
N2759 C2757 1.384 . S
H2760 C2766 0.930 . S
H2761 C2770 0.930 . S
H2762 C2775 0.929 . S
H2763 C2773 0.929 . S
H2764 C2768 0.929 . S
H2765 C2774 0.929 . S
C2766 H2760 0.930 . S
C2766 C2767 1.367 . S
C2766 C2774 1.378 . S
C2767 C2766 1.367 . S
C2767 C2775 1.433 . S
C2768 H2764 0.929 . S
C2768 C2770 1.378 . S
C2768 C2772 1.350 . S
C2769 C2772 1.463 . S
C2769 C2774 1.350 . S
C2769 N2777 1.427 . S
C2770 H2761 0.930 . S
C2770 C2768 1.378 . S
C2770 C2771 1.367 . S
C2771 C2770 1.367 . S
C2771 C2773 1.433 . S
C2772 C2768 1.350 . S
C2772 C2769 1.463 . S
C2772 N2776 1.427 . S
C2773 H2763 0.929 . S
C2773 C2771 1.433 . S
C2773 N2776 1.384 . S
C2774 H2765 0.929 . S
C2774 C2766 1.378 . S
C2774 C2769 1.350 . S
C2775 H2762 0.929 . S
C2775 C2767 1.433 . S
C2775 N2777 1.384 . S
N2776 C2772 1.427 . S
N2776 C2773 1.384 . S
N2777 C2769 1.427 . S
N2777 C2775 1.384 . S
H2778 C2784 0.930 . S
H2779 C2788 0.930 . S
H2780 C2793 0.929 . S
H2781 C2791 0.929 . S
H2782 C2786 0.929 . S
H2783 C2792 0.929 . S
C2784 H2778 0.930 . S
C2784 C2785 1.367 . S
C2784 C2792 1.378 . S
C2785 C2784 1.367 . S
C2785 C2793 1.433 . S
C2786 H2782 0.929 . S
C2786 C2788 1.378 . S
C2786 C2790 1.350 . S
C2787 C2790 1.463 . S
C2787 C2792 1.350 . S
C2787 N2795 1.427 . S
C2788 H2779 0.930 . S
C2788 C2786 1.378 . S
C2788 C2789 1.367 . S
C2789 C2788 1.367 . S
C2789 C2791 1.433 . S
C2790 C2786 1.350 . S
C2790 C2787 1.463 . S
C2790 N2794 1.427 . S
C2791 H2781 0.929 . S
C2791 C2789 1.433 . S
C2791 N2794 1.384 . S
C2792 H2783 0.929 . S
C2792 C2784 1.378 . S
C2792 C2787 1.350 . S
C2793 H2780 0.929 . S
C2793 C2785 1.433 . S
C2793 N2795 1.384 . S
N2794 C2790 1.427 . S
N2794 C2791 1.384 . S
N2795 C2787 1.427 . S
N2795 C2793 1.384 . S
H2796 C2802 0.930 . S
H2797 C2806 0.930 . S
H2798 C2811 0.929 . S
H2799 C2809 0.929 . S
H2800 C2804 0.929 . S
H2801 C2810 0.929 . S
C2802 H2796 0.930 . S
C2802 C2803 1.367 . S
C2802 C2810 1.378 . S
C2803 C2802 1.367 . S
C2803 C2811 1.433 . S
C2804 H2800 0.929 . S
C2804 C2806 1.378 . S
C2804 C2808 1.350 . S
C2805 C2808 1.463 . S
C2805 C2810 1.350 . S
C2805 N2813 1.427 . S
C2806 H2797 0.930 . S
C2806 C2804 1.378 . S
C2806 C2807 1.367 . S
C2807 C2806 1.367 . S
C2807 C2809 1.433 . S
C2808 C2804 1.350 . S
C2808 C2805 1.463 . S
C2808 N2812 1.427 . S
C2809 H2799 0.929 . S
C2809 C2807 1.433 . S
C2809 N2812 1.384 . S
C2810 H2801 0.929 . S
C2810 C2802 1.378 . S
C2810 C2805 1.350 . S
C2811 H2798 0.929 . S
C2811 C2803 1.433 . S
C2811 N2813 1.384 . S
N2812 C2808 1.427 . S
N2812 C2809 1.384 . S
N2813 C2805 1.427 . S
N2813 C2811 1.384 . S
H2814 C2820 0.930 . S
H2815 C2824 0.930 . S
H2816 C2829 0.929 . S
H2817 C2827 0.929 . S
H2818 C2822 0.929 . S
H2819 C2828 0.929 . S
C2820 H2814 0.930 . S
C2820 C2821 1.367 . S
C2820 C2828 1.378 . S
C2821 C2820 1.367 . S
C2821 C2829 1.433 . S
C2822 H2818 0.929 . S
C2822 C2824 1.378 . S
C2822 C2826 1.350 . S
C2823 C2826 1.463 . S
C2823 C2828 1.350 . S
C2823 N2831 1.427 . S
C2824 H2815 0.930 . S
C2824 C2822 1.378 . S
C2824 C2825 1.367 . S
C2825 C2824 1.367 . S
C2825 C2827 1.433 . S
C2826 C2822 1.350 . S
C2826 C2823 1.463 . S
C2826 N2830 1.427 . S
C2827 H2817 0.929 . S
C2827 C2825 1.433 . S
C2827 N2830 1.384 . S
C2828 H2819 0.929 . S
C2828 C2820 1.378 . S
C2828 C2823 1.350 . S
C2829 H2816 0.929 . S
C2829 C2821 1.433 . S
C2829 N2831 1.384 . S
N2830 C2826 1.427 . S
N2830 C2827 1.384 . S
N2831 C2823 1.427 . S
N2831 C2829 1.384 . S
H2832 C2838 0.930 . S
H2833 C2842 0.930 . S
H2834 C2847 0.929 . S
H2835 C2845 0.929 . S
H2836 C2840 0.929 . S
H2837 C2846 0.929 . S
C2838 H2832 0.930 . S
C2838 C2839 1.367 . S
C2838 C2846 1.378 . S
C2839 C2838 1.367 . S
C2839 C2847 1.433 . S
C2840 H2836 0.929 . S
C2840 C2842 1.378 . S
C2840 C2844 1.350 . S
C2841 C2844 1.463 . S
C2841 C2846 1.350 . S
C2841 N2849 1.427 . S
C2842 H2833 0.930 . S
C2842 C2840 1.378 . S
C2842 C2843 1.367 . S
C2843 C2842 1.367 . S
C2843 C2845 1.433 . S
C2844 C2840 1.350 . S
C2844 C2841 1.463 . S
C2844 N2848 1.427 . S
C2845 H2835 0.929 . S
C2845 C2843 1.433 . S
C2845 N2848 1.384 . S
C2846 H2837 0.929 . S
C2846 C2838 1.378 . S
C2846 C2841 1.350 . S
C2847 H2834 0.929 . S
C2847 C2839 1.433 . S
C2847 N2849 1.384 . S
N2848 C2844 1.427 . S
N2848 C2845 1.384 . S
N2849 C2841 1.427 . S
N2849 C2847 1.384 . S
H2850 C2856 0.930 . S
H2851 C2860 0.930 . S
H2852 C2865 0.929 . S
H2853 C2863 0.929 . S
H2854 C2858 0.929 . S
H2855 C2864 0.929 . S
C2856 H2850 0.930 . S
C2856 C2857 1.367 . S
C2856 C2864 1.378 . S
C2857 C2856 1.367 . S
C2857 C2865 1.433 . S
C2858 H2854 0.929 . S
C2858 C2860 1.378 . S
C2858 C2862 1.350 . S
C2859 C2862 1.463 . S
C2859 C2864 1.350 . S
C2859 N2867 1.427 . S
C2860 H2851 0.930 . S
C2860 C2858 1.378 . S
C2860 C2861 1.367 . S
C2861 C2860 1.367 . S
C2861 C2863 1.433 . S
C2862 C2858 1.350 . S
C2862 C2859 1.463 . S
C2862 N2866 1.427 . S
C2863 H2853 0.929 . S
C2863 C2861 1.433 . S
C2863 N2866 1.384 . S
C2864 H2855 0.929 . S
C2864 C2856 1.378 . S
C2864 C2859 1.350 . S
C2865 H2852 0.929 . S
C2865 C2857 1.433 . S
C2865 N2867 1.384 . S
N2866 C2862 1.427 . S
N2866 C2863 1.384 . S
N2867 C2859 1.427 . S
N2867 C2865 1.384 . S
H2868 C2874 0.930 . S
H2869 C2878 0.930 . S
H2870 C2883 0.929 1_545 S
H2871 C2881 0.929 . S
H2872 C2876 0.929 . S
H2873 C2882 0.929 . S
C2874 H2868 0.930 . S
C2874 C2875 1.367 . S
C2874 C2882 1.378 . S
C2875 C2874 1.367 . S
C2875 C2883 1.433 . S
C2876 H2872 0.929 . S
C2876 C2878 1.378 . S
C2876 C2880 1.350 . S
C2877 C2880 1.463 . S
C2877 C2882 1.350 . S
C2877 N2885 1.427 . S
C2878 H2869 0.930 . S
C2878 C2876 1.378 . S
C2878 C2879 1.367 . S
C2879 C2878 1.367 . S
C2879 C2881 1.433 . S
C2880 C2876 1.350 . S
C2880 C2877 1.463 . S
C2880 N2884 1.427 . S
C2881 H2871 0.929 . S
C2881 C2879 1.433 . S
C2881 N2884 1.384 . S
C2882 H2873 0.929 . S
C2882 C2874 1.378 . S
C2882 C2877 1.350 . S
C2883 H2870 0.929 1_565 S
C2883 C2875 1.433 . S
C2883 N2885 1.384 . S
N2884 C2880 1.427 . S
N2884 C2881 1.384 . S
N2885 C2877 1.427 . S
N2885 C2883 1.384 . S
H2886 C2892 0.930 . S
H2887 C2896 0.930 . S
H2888 C2901 0.929 . S
H2889 C2899 0.929 1_556 S
H2890 C2894 0.929 . S
H2891 C2900 0.929 . S
C2892 H2886 0.930 . S
C2892 C2893 1.367 1_556 S
C2892 C2900 1.378 . S
C2893 C2892 1.367 1_554 S
C2893 C2901 1.433 . S
C2894 H2890 0.929 . S
C2894 C2896 1.378 . S
C2894 C2898 1.350 . S
C2895 C2898 1.463 . S
C2895 C2900 1.350 1_554 S
C2895 N2903 1.427 . S
C2896 H2887 0.930 . S
C2896 C2894 1.378 . S
C2896 C2897 1.367 1_565 S
C2897 C2896 1.367 1_545 S
C2897 C2899 1.433 . S
C2898 C2894 1.350 . S
C2898 C2895 1.463 . S
C2898 N2902 1.432 1_565 S
C2899 H2889 0.929 1_554 S
C2899 C2897 1.433 . S
C2899 N2902 1.383 . S
C2900 H2891 0.929 . S
C2900 C2892 1.378 . S
C2900 C2895 1.350 1_556 S
C2901 H2888 0.929 . S
C2901 C2893 1.433 . S
C2901 N2903 1.384 . S
N2902 C2898 1.432 1_545 S
N2902 C2899 1.383 . S
N2903 C2895 1.427 . S
N2903 C2901 1.384 . S
H2904 C2910 0.930 . S
H2905 C2914 0.930 . S
H2906 C2919 0.929 . S
H2907 C2917 0.929 . S
H2908 C2912 0.929 . S
H2909 C2918 0.929 . S
C2910 H2904 0.930 . S
C2910 C2911 1.367 . S
C2910 C2918 1.378 . S
C2911 C2910 1.367 . S
C2911 C2919 1.433 . S
C2912 H2908 0.929 . S
C2912 C2914 1.378 . S
C2912 C2916 1.350 . S
C2913 C2916 1.463 . S
C2913 C2918 1.350 . S
C2913 N2921 1.427 . S
C2914 H2905 0.930 . S
C2914 C2912 1.378 . S
C2914 C2915 1.367 . S
C2915 C2914 1.367 . S
C2915 C2917 1.433 . S
C2916 C2912 1.350 . S
C2916 C2913 1.463 . S
C2916 N2920 1.427 . S
C2917 H2907 0.929 . S
C2917 C2915 1.433 . S
C2917 N2920 1.384 . S
C2918 H2909 0.929 . S
C2918 C2910 1.378 . S
C2918 C2913 1.350 . S
C2919 H2906 0.929 . S
C2919 C2911 1.433 . S
C2919 N2921 1.384 . S
N2920 C2916 1.427 . S
N2920 C2917 1.384 . S
N2921 C2913 1.427 . S
N2921 C2919 1.384 . S
H2922 C2928 0.930 . S
H2923 C2932 0.930 . S
H2924 C2937 0.929 . S
H2925 C2935 0.929 . S
H2926 C2930 0.929 . S
H2927 C2936 0.929 . S
C2928 H2922 0.930 . S
C2928 C2929 1.367 . S
C2928 C2936 1.378 . S
C2929 C2928 1.367 . S
C2929 C2937 1.433 . S
C2930 H2926 0.929 . S
C2930 C2932 1.378 . S
C2930 C2934 1.350 . S
C2931 C2934 1.463 . S
C2931 C2936 1.350 . S
C2931 N2939 1.427 . S
C2932 H2923 0.930 . S
C2932 C2930 1.378 . S
C2932 C2933 1.367 . S
C2933 C2932 1.367 . S
C2933 C2935 1.433 . S
C2934 C2930 1.350 . S
C2934 C2931 1.463 . S
C2934 N2938 1.427 . S
C2935 H2925 0.929 . S
C2935 C2933 1.433 . S
C2935 N2938 1.384 . S
C2936 H2927 0.929 . S
C2936 C2928 1.378 . S
C2936 C2931 1.350 . S
C2937 H2924 0.929 . S
C2937 C2929 1.433 . S
C2937 N2939 1.384 . S
N2938 C2934 1.427 . S
N2938 C2935 1.384 . S
N2939 C2931 1.427 . S
N2939 C2937 1.384 . S
H2940 C2946 0.930 . S
H2941 C2950 0.930 . S
H2942 C2955 0.929 . S
H2943 C2953 0.929 . S
H2944 C2948 0.929 . S
H2945 C2954 0.929 . S
C2946 H2940 0.930 . S
C2946 C2947 1.367 . S
C2946 C2954 1.378 . S
C2947 C2946 1.367 . S
C2947 C2955 1.433 . S
C2948 H2944 0.929 . S
C2948 C2950 1.378 . S
C2948 C2952 1.350 . S
C2949 C2952 1.463 . S
C2949 C2954 1.350 . S
C2949 N2957 1.427 . S
C2950 H2941 0.930 . S
C2950 C2948 1.378 . S
C2950 C2951 1.367 . S
C2951 C2950 1.367 . S
C2951 C2953 1.433 . S
C2952 C2948 1.350 . S
C2952 C2949 1.463 . S
C2952 N2956 1.427 . S
C2953 H2943 0.929 . S
C2953 C2951 1.433 . S
C2953 N2956 1.384 . S
C2954 H2945 0.929 . S
C2954 C2946 1.378 . S
C2954 C2949 1.350 . S
C2955 H2942 0.929 . S
C2955 C2947 1.433 . S
C2955 N2957 1.384 . S
N2956 C2952 1.427 . S
N2956 C2953 1.384 . S
N2957 C2949 1.427 . S
N2957 C2955 1.384 . S
H2958 C2964 0.930 . S
H2959 C2968 0.930 . S
H2960 C2973 0.929 . S
H2961 C2971 0.929 . S
H2962 C2966 0.929 . S
H2963 C2972 0.929 . S
C2964 H2958 0.930 . S
C2964 C2965 1.367 . S
C2964 C2972 1.378 . S
C2965 C2964 1.367 . S
C2965 C2973 1.433 . S
C2966 H2962 0.929 . S
C2966 C2968 1.378 . S
C2966 C2970 1.350 . S
C2967 C2970 1.463 . S
C2967 C2972 1.350 . S
C2967 N2975 1.427 . S
C2968 H2959 0.930 . S
C2968 C2966 1.378 . S
C2968 C2969 1.367 . S
C2969 C2968 1.367 . S
C2969 C2971 1.433 . S
C2970 C2966 1.350 . S
C2970 C2967 1.463 . S
C2970 N2974 1.427 . S
C2971 H2961 0.929 . S
C2971 C2969 1.433 . S
C2971 N2974 1.384 . S
C2972 H2963 0.929 . S
C2972 C2964 1.378 . S
C2972 C2967 1.350 . S
C2973 H2960 0.929 . S
C2973 C2965 1.433 . S
C2973 N2975 1.384 . S
N2974 C2970 1.427 . S
N2974 C2971 1.384 . S
N2975 C2967 1.427 . S
N2975 C2973 1.384 . S
H2976 C2982 0.930 . S
H2977 C2986 0.930 . S
H2978 C2991 0.929 . S
H2979 C2989 0.929 . S
H2980 C2984 0.929 . S
H2981 C2990 0.929 . S
C2982 H2976 0.930 . S
C2982 C2983 1.367 . S
C2982 C2990 1.378 . S
C2983 C2982 1.367 . S
C2983 C2991 1.433 . S
C2984 H2980 0.929 . S
C2984 C2986 1.378 . S
C2984 C2988 1.350 . S
C2985 C2988 1.463 . S
C2985 C2990 1.350 . S
C2985 N2993 1.427 . S
C2986 H2977 0.930 . S
C2986 C2984 1.378 . S
C2986 C2987 1.367 . S
C2987 C2986 1.367 . S
C2987 C2989 1.433 . S
C2988 C2984 1.350 . S
C2988 C2985 1.463 . S
C2988 N2992 1.427 . S
C2989 H2979 0.929 . S
C2989 C2987 1.433 . S
C2989 N2992 1.384 . S
C2990 H2981 0.929 . S
C2990 C2982 1.378 . S
C2990 C2985 1.350 . S
C2991 H2978 0.929 . S
C2991 C2983 1.433 . S
C2991 N2993 1.384 . S
N2992 C2988 1.427 . S
N2992 C2989 1.384 . S
N2993 C2985 1.427 . S
N2993 C2991 1.384 . S
H2994 C3000 0.930 . S
H2995 C3004 0.930 . S
H2996 C3009 0.929 . S
H2997 C3007 0.929 . S
H2998 C3002 0.929 . S
H2999 C3008 0.929 . S
C3000 H2994 0.930 . S
C3000 C3001 1.367 . S
C3000 C3008 1.378 . S
C3001 C3000 1.367 . S
C3001 C3009 1.433 . S
C3002 H2998 0.929 . S
C3002 C3004 1.378 . S
C3002 C3006 1.350 . S
C3003 C3006 1.463 . S
C3003 C3008 1.350 . S
C3003 N3011 1.427 . S
C3004 H2995 0.930 . S
C3004 C3002 1.378 . S
C3004 C3005 1.367 . S
C3005 C3004 1.367 . S
C3005 C3007 1.433 . S
C3006 C3002 1.350 . S
C3006 C3003 1.463 . S
C3006 N3010 1.427 . S
C3007 H2997 0.929 . S
C3007 C3005 1.433 . S
C3007 N3010 1.384 . S
C3008 H2999 0.929 . S
C3008 C3000 1.378 . S
C3008 C3003 1.350 . S
C3009 H2996 0.929 . S
C3009 C3001 1.433 . S
C3009 N3011 1.384 . S
N3010 C3006 1.427 . S
N3010 C3007 1.384 . S
N3011 C3003 1.427 . S
N3011 C3009 1.384 . S
H3012 C3018 0.930 . S
H3013 C3022 0.930 . S
H3014 C3027 0.929 . S
H3015 C3025 0.929 . S
H3016 C3020 0.929 . S
H3017 C3026 0.929 . S
C3018 H3012 0.930 . S
C3018 C3019 1.367 . S
C3018 C3026 1.378 . S
C3019 C3018 1.367 . S
C3019 C3027 1.433 . S
C3020 H3016 0.929 . S
C3020 C3022 1.378 . S
C3020 C3024 1.350 . S
C3021 C3024 1.463 . S
C3021 C3026 1.350 . S
C3021 N3029 1.427 . S
C3022 H3013 0.930 . S
C3022 C3020 1.378 . S
C3022 C3023 1.367 . S
C3023 C3022 1.367 . S
C3023 C3025 1.433 . S
C3024 C3020 1.350 . S
C3024 C3021 1.463 . S
C3024 N3028 1.427 . S
C3025 H3015 0.929 . S
C3025 C3023 1.433 . S
C3025 N3028 1.384 . S
C3026 H3017 0.929 . S
C3026 C3018 1.378 . S
C3026 C3021 1.350 . S
C3027 H3014 0.929 . S
C3027 C3019 1.433 . S
C3027 N3029 1.384 . S
N3028 C3024 1.427 . S
N3028 C3025 1.384 . S
N3029 C3021 1.427 . S
N3029 C3027 1.384 . S
H3030 C3036 0.930 . S
H3031 C3040 0.930 . S
H3032 C3045 0.929 . S
H3033 C3043 0.929 . S
H3034 C3038 0.929 . S
H3035 C3044 0.929 . S
C3036 H3030 0.930 . S
C3036 C3037 1.367 . S
C3036 C3044 1.378 . S
C3037 C3036 1.367 . S
C3037 C3045 1.433 . S
C3038 H3034 0.929 . S
C3038 C3040 1.378 . S
C3038 C3042 1.350 . S
C3039 C3042 1.463 . S
C3039 C3044 1.350 . S
C3039 N3047 1.427 . S
C3040 H3031 0.930 . S
C3040 C3038 1.378 . S
C3040 C3041 1.367 . S
C3041 C3040 1.367 . S
C3041 C3043 1.433 . S
C3042 C3038 1.350 . S
C3042 C3039 1.463 . S
C3042 N3046 1.427 . S
C3043 H3033 0.929 . S
C3043 C3041 1.433 . S
C3043 N3046 1.384 . S
C3044 H3035 0.929 . S
C3044 C3036 1.378 . S
C3044 C3039 1.350 . S
C3045 H3032 0.929 . S
C3045 C3037 1.433 . S
C3045 N3047 1.384 . S
N3046 C3042 1.427 . S
N3046 C3043 1.384 . S
N3047 C3039 1.427 . S
N3047 C3045 1.384 . S
H3048 C3054 0.930 . S
H3049 C3058 0.930 . S
H3050 C3063 0.929 . S
H3051 C3061 0.929 . S
H3052 C3056 0.929 . S
H3053 C3062 0.929 . S
C3054 H3048 0.930 . S
C3054 C3055 1.367 . S
C3054 C3062 1.378 . S
C3055 C3054 1.367 . S
C3055 C3063 1.433 . S
C3056 H3052 0.929 . S
C3056 C3058 1.378 . S
C3056 C3060 1.350 . S
C3057 C3060 1.463 . S
C3057 C3062 1.350 . S
C3057 N3065 1.427 . S
C3058 H3049 0.930 . S
C3058 C3056 1.378 . S
C3058 C3059 1.367 . S
C3059 C3058 1.367 . S
C3059 C3061 1.433 . S
C3060 C3056 1.350 . S
C3060 C3057 1.463 . S
C3060 N3064 1.427 . S
C3061 H3051 0.929 . S
C3061 C3059 1.433 . S
C3061 N3064 1.384 . S
C3062 H3053 0.929 . S
C3062 C3054 1.378 . S
C3062 C3057 1.350 . S
C3063 H3050 0.929 . S
C3063 C3055 1.433 . S
C3063 N3065 1.384 . S
N3064 C3060 1.427 . S
N3064 C3061 1.384 . S
N3065 C3057 1.427 . S
N3065 C3063 1.384 . S
H3066 C3072 0.930 . S
H3067 C3076 0.930 . S
H3068 C3081 0.929 . S
H3069 C3079 0.929 . S
H3070 C3074 0.929 . S
H3071 C3080 0.929 . S
C3072 H3066 0.930 . S
C3072 C3073 1.367 . S
C3072 C3080 1.378 . S
C3073 C3072 1.367 . S
C3073 C3081 1.433 . S
C3074 H3070 0.929 . S
C3074 C3076 1.378 . S
C3074 C3078 1.350 . S
C3075 C3078 1.463 . S
C3075 C3080 1.350 . S
C3075 N3083 1.427 . S
C3076 H3067 0.930 . S
C3076 C3074 1.378 . S
C3076 C3077 1.367 . S
C3077 C3076 1.367 . S
C3077 C3079 1.433 . S
C3078 C3074 1.350 . S
C3078 C3075 1.463 . S
C3078 N3082 1.427 . S
C3079 H3069 0.929 . S
C3079 C3077 1.433 . S
C3079 N3082 1.384 . S
C3080 H3071 0.929 . S
C3080 C3072 1.378 . S
C3080 C3075 1.350 . S
C3081 H3068 0.929 . S
C3081 C3073 1.433 . S
C3081 N3083 1.384 . S
N3082 C3078 1.427 . S
N3082 C3079 1.384 . S
N3083 C3075 1.427 . S
N3083 C3081 1.384 . S
H3084 C3090 0.930 . S
H3085 C3094 0.930 . S
H3086 C3099 0.929 . S
H3087 C3097 0.929 . S
H3088 C3092 0.929 . S
H3089 C3098 0.929 . S
C3090 H3084 0.930 . S
C3090 C3091 1.367 . S
C3090 C3098 1.378 . S
C3091 C3090 1.367 . S
C3091 C3099 1.433 . S
C3092 H3088 0.929 . S
C3092 C3094 1.378 . S
C3092 C3096 1.350 . S
C3093 C3096 1.463 . S
C3093 C3098 1.350 . S
C3093 N3101 1.427 . S
C3094 H3085 0.930 . S
C3094 C3092 1.378 . S
C3094 C3095 1.367 . S
C3095 C3094 1.367 . S
C3095 C3097 1.433 . S
C3096 C3092 1.350 . S
C3096 C3093 1.463 . S
C3096 N3100 1.427 . S
C3097 H3087 0.929 . S
C3097 C3095 1.433 . S
C3097 N3100 1.384 . S
C3098 H3089 0.929 . S
C3098 C3090 1.378 . S
C3098 C3093 1.350 . S
C3099 H3086 0.929 . S
C3099 C3091 1.433 . S
C3099 N3101 1.384 . S
N3100 C3096 1.427 . S
N3100 C3097 1.384 . S
N3101 C3093 1.427 . S
N3101 C3099 1.384 . S
H3102 C3108 0.930 . S
H3103 C3112 0.930 . S
H3104 C3117 0.929 . S
H3105 C3115 0.929 . S
H3106 C3110 0.929 . S
H3107 C3116 0.929 . S
C3108 H3102 0.930 . S
C3108 C3109 1.367 . S
C3108 C3116 1.378 . S
C3109 C3108 1.367 . S
C3109 C3117 1.433 . S
C3110 H3106 0.929 . S
C3110 C3112 1.378 . S
C3110 C3114 1.350 . S
C3111 C3114 1.463 . S
C3111 C3116 1.350 . S
C3111 N3119 1.427 . S
C3112 H3103 0.930 . S
C3112 C3110 1.378 . S
C3112 C3113 1.367 . S
C3113 C3112 1.367 . S
C3113 C3115 1.433 . S
C3114 C3110 1.350 . S
C3114 C3111 1.463 . S
C3114 N3118 1.427 . S
C3115 H3105 0.929 . S
C3115 C3113 1.433 . S
C3115 N3118 1.384 . S
C3116 H3107 0.929 . S
C3116 C3108 1.378 . S
C3116 C3111 1.350 . S
C3117 H3104 0.929 . S
C3117 C3109 1.433 . S
C3117 N3119 1.384 . S
N3118 C3114 1.427 . S
N3118 C3115 1.384 . S
N3119 C3111 1.427 . S
N3119 C3117 1.384 . S
H3120 C3126 0.930 . S
H3121 C3130 0.930 . S
H3122 C3135 0.929 . S
H3123 C3133 0.929 . S
H3124 C3128 0.929 . S
H3125 C3134 0.929 . S
C3126 H3120 0.930 . S
C3126 C3127 1.367 . S
C3126 C3134 1.378 . S
C3127 C3126 1.367 . S
C3127 C3135 1.433 . S
C3128 H3124 0.929 . S
C3128 C3130 1.378 . S
C3128 C3132 1.350 . S
C3129 C3132 1.463 . S
C3129 C3134 1.350 . S
C3129 N3137 1.427 . S
C3130 H3121 0.930 . S
C3130 C3128 1.378 . S
C3130 C3131 1.367 . S
C3131 C3130 1.367 . S
C3131 C3133 1.433 . S
C3132 C3128 1.350 . S
C3132 C3129 1.463 . S
C3132 N3136 1.427 . S
C3133 H3123 0.929 . S
C3133 C3131 1.433 . S
C3133 N3136 1.384 . S
C3134 H3125 0.929 . S
C3134 C3126 1.378 . S
C3134 C3129 1.350 . S
C3135 H3122 0.929 . S
C3135 C3127 1.433 . S
C3135 N3137 1.384 . S
N3136 C3132 1.427 . S
N3136 C3133 1.384 . S
N3137 C3129 1.427 . S
N3137 C3135 1.384 . S
H3138 C3144 0.930 . S
H3139 C3148 0.930 . S
H3140 C3153 0.929 . S
H3141 C3151 0.929 . S
H3142 C3146 0.929 . S
H3143 C3152 0.929 . S
C3144 H3138 0.930 . S
C3144 C3145 1.367 . S
C3144 C3152 1.378 . S
C3145 C3144 1.367 . S
C3145 C3153 1.433 . S
C3146 H3142 0.929 . S
C3146 C3148 1.378 . S
C3146 C3150 1.350 . S
C3147 C3150 1.463 . S
C3147 C3152 1.350 . S
C3147 N3155 1.427 . S
C3148 H3139 0.930 . S
C3148 C3146 1.378 . S
C3148 C3149 1.367 . S
C3149 C3148 1.367 . S
C3149 C3151 1.433 . S
C3150 C3146 1.350 . S
C3150 C3147 1.463 . S
C3150 N3154 1.427 . S
C3151 H3141 0.929 . S
C3151 C3149 1.433 . S
C3151 N3154 1.384 . S
C3152 H3143 0.929 . S
C3152 C3144 1.378 . S
C3152 C3147 1.350 . S
C3153 H3140 0.929 . S
C3153 C3145 1.433 . S
C3153 N3155 1.384 . S
N3154 C3150 1.427 . S
N3154 C3151 1.384 . S
N3155 C3147 1.427 . S
N3155 C3153 1.384 . S
H3156 C3162 0.930 . S
H3157 C3166 0.930 . S
H3158 C3171 0.929 . S
H3159 C3169 0.929 . S
H3160 C3164 0.929 . S
H3161 C3170 0.929 . S
C3162 H3156 0.930 . S
C3162 C3163 1.367 . S
C3162 C3170 1.378 . S
C3163 C3162 1.367 . S
C3163 C3171 1.433 . S
C3164 H3160 0.929 . S
C3164 C3166 1.378 . S
C3164 C3168 1.350 . S
C3165 C3168 1.463 . S
C3165 C3170 1.350 . S
C3165 N3173 1.427 . S
C3166 H3157 0.930 . S
C3166 C3164 1.378 . S
C3166 C3167 1.367 . S
C3167 C3166 1.367 . S
C3167 C3169 1.433 . S
C3168 C3164 1.350 . S
C3168 C3165 1.463 . S
C3168 N3172 1.427 . S
C3169 H3159 0.929 . S
C3169 C3167 1.433 . S
C3169 N3172 1.384 . S
C3170 H3161 0.929 . S
C3170 C3162 1.378 . S
C3170 C3165 1.350 . S
C3171 H3158 0.929 . S
C3171 C3163 1.433 . S
C3171 N3173 1.384 . S
N3172 C3168 1.427 . S
N3172 C3169 1.384 . S
N3173 C3165 1.427 . S
N3173 C3171 1.384 . S
H3174 C3180 0.930 . S
H3175 C3184 0.930 . S
H3176 C3189 0.929 . S
H3177 C3187 0.929 . S
H3178 C3182 0.929 . S
H3179 C3188 0.929 . S
C3180 H3174 0.930 . S
C3180 C3181 1.367 . S
C3180 C3188 1.378 . S
C3181 C3180 1.367 . S
C3181 C3189 1.433 . S
C3182 H3178 0.929 . S
C3182 C3184 1.378 . S
C3182 C3186 1.350 . S
C3183 C3186 1.463 . S
C3183 C3188 1.350 . S
C3183 N3191 1.427 . S
C3184 H3175 0.930 . S
C3184 C3182 1.378 . S
C3184 C3185 1.367 . S
C3185 C3184 1.367 . S
C3185 C3187 1.433 . S
C3186 C3182 1.350 . S
C3186 C3183 1.463 . S
C3186 N3190 1.427 . S
C3187 H3177 0.929 . S
C3187 C3185 1.433 . S
C3187 N3190 1.384 . S
C3188 H3179 0.929 . S
C3188 C3180 1.378 . S
C3188 C3183 1.350 . S
C3189 H3176 0.929 . S
C3189 C3181 1.433 . S
C3189 N3191 1.384 . S
N3190 C3186 1.427 . S
N3190 C3187 1.384 . S
N3191 C3183 1.427 . S
N3191 C3189 1.384 . S
H3192 C3198 0.930 . S
H3193 C3202 0.930 . S
H3194 C3207 0.929 . S
H3195 C3205 0.929 . S
H3196 C3200 0.929 . S
H3197 C3206 0.929 . S
C3198 H3192 0.930 . S
C3198 C3199 1.367 . S
C3198 C3206 1.378 . S
C3199 C3198 1.367 . S
C3199 C3207 1.433 . S
C3200 H3196 0.929 . S
C3200 C3202 1.378 . S
C3200 C3204 1.350 . S
C3201 C3204 1.463 . S
C3201 C3206 1.350 . S
C3201 N3209 1.427 . S
C3202 H3193 0.930 . S
C3202 C3200 1.378 . S
C3202 C3203 1.367 . S
C3203 C3202 1.367 . S
C3203 C3205 1.433 . S
C3204 C3200 1.350 . S
C3204 C3201 1.463 . S
C3204 N3208 1.427 . S
C3205 H3195 0.929 . S
C3205 C3203 1.433 . S
C3205 N3208 1.384 . S
C3206 H3197 0.929 . S
C3206 C3198 1.378 . S
C3206 C3201 1.350 . S
C3207 H3194 0.929 . S
C3207 C3199 1.433 . S
C3207 N3209 1.384 . S
N3208 C3204 1.427 . S
N3208 C3205 1.384 . S
N3209 C3201 1.427 . S
N3209 C3207 1.384 . S
H3210 C3216 0.930 . S
H3211 C3220 0.930 . S
H3212 C3225 0.929 . S
H3213 C3223 0.929 . S
H3214 C3218 0.929 . S
H3215 C3224 0.929 . S
C3216 H3210 0.930 . S
C3216 C3217 1.367 . S
C3216 C3224 1.378 . S
C3217 C3216 1.367 . S
C3217 C3225 1.433 . S
C3218 H3214 0.929 . S
C3218 C3220 1.378 . S
C3218 C3222 1.350 . S
C3219 C3222 1.463 . S
C3219 C3224 1.350 . S
C3219 N3227 1.427 . S
C3220 H3211 0.930 . S
C3220 C3218 1.378 . S
C3220 C3221 1.367 . S
C3221 C3220 1.367 . S
C3221 C3223 1.433 . S
C3222 C3218 1.350 . S
C3222 C3219 1.463 . S
C3222 N3226 1.427 . S
C3223 H3213 0.929 . S
C3223 C3221 1.433 . S
C3223 N3226 1.384 . S
C3224 H3215 0.929 . S
C3224 C3216 1.378 . S
C3224 C3219 1.350 . S
C3225 H3212 0.929 . S
C3225 C3217 1.433 . S
C3225 N3227 1.384 . S
N3226 C3222 1.427 . S
N3226 C3223 1.384 . S
N3227 C3219 1.427 . S
N3227 C3225 1.384 . S
H3228 C3234 0.930 . S
H3229 C3238 0.930 . S
H3230 C3243 0.929 . S
H3231 C3241 0.929 . S
H3232 C3236 0.929 . S
H3233 C3242 0.929 . S
C3234 H3228 0.930 . S
C3234 C3235 1.367 . S
C3234 C3242 1.378 . S
C3235 C3234 1.367 . S
C3235 C3243 1.433 . S
C3236 H3232 0.929 . S
C3236 C3238 1.378 . S
C3236 C3240 1.350 . S
C3237 C3240 1.463 . S
C3237 C3242 1.350 . S
C3237 N3245 1.427 . S
C3238 H3229 0.930 . S
C3238 C3236 1.378 . S
C3238 C3239 1.367 . S
C3239 C3238 1.367 . S
C3239 C3241 1.433 . S
C3240 C3236 1.350 . S
C3240 C3237 1.463 . S
C3240 N3244 1.427 . S
C3241 H3231 0.929 . S
C3241 C3239 1.433 . S
C3241 N3244 1.384 . S
C3242 H3233 0.929 . S
C3242 C3234 1.378 . S
C3242 C3237 1.350 . S
C3243 H3230 0.929 . S
C3243 C3235 1.433 . S
C3243 N3245 1.384 . S
N3244 C3240 1.427 . S
N3244 C3241 1.384 . S
N3245 C3237 1.427 . S
N3245 C3243 1.384 . S
H3246 C3252 0.930 . S
H3247 C3256 0.930 . S
H3248 C3261 0.929 . S
H3249 C3259 0.929 . S
H3250 C3254 0.929 . S
H3251 C3260 0.929 . S
C3252 H3246 0.930 . S
C3252 C3253 1.367 . S
C3252 C3260 1.378 . S
C3253 C3252 1.367 . S
C3253 C3261 1.433 . S
C3254 H3250 0.929 . S
C3254 C3256 1.378 . S
C3254 C3258 1.350 . S
C3255 C3258 1.463 . S
C3255 C3260 1.350 . S
C3255 N3263 1.427 . S
C3256 H3247 0.930 . S
C3256 C3254 1.378 . S
C3256 C3257 1.367 . S
C3257 C3256 1.367 . S
C3257 C3259 1.433 . S
C3258 C3254 1.350 . S
C3258 C3255 1.463 . S
C3258 N3262 1.427 . S
C3259 H3249 0.929 . S
C3259 C3257 1.433 . S
C3259 N3262 1.384 . S
C3260 H3251 0.929 . S
C3260 C3252 1.378 . S
C3260 C3255 1.350 . S
C3261 H3248 0.929 . S
C3261 C3253 1.433 . S
C3261 N3263 1.384 . S
N3262 C3258 1.427 . S
N3262 C3259 1.384 . S
N3263 C3255 1.427 . S
N3263 C3261 1.384 . S
H3264 C3270 0.930 . S
H3265 C3274 0.930 . S
H3266 C3279 0.929 . S
H3267 C3277 0.929 . S
H3268 C3272 0.929 . S
H3269 C3278 0.929 . S
C3270 H3264 0.930 . S
C3270 C3271 1.367 . S
C3270 C3278 1.378 . S
C3271 C3270 1.367 . S
C3271 C3279 1.433 . S
C3272 H3268 0.929 . S
C3272 C3274 1.378 . S
C3272 C3276 1.350 . S
C3273 C3276 1.463 . S
C3273 C3278 1.350 . S
C3273 N3281 1.427 . S
C3274 H3265 0.930 . S
C3274 C3272 1.378 . S
C3274 C3275 1.367 . S
C3275 C3274 1.367 . S
C3275 C3277 1.433 . S
C3276 C3272 1.350 . S
C3276 C3273 1.463 . S
C3276 N3280 1.427 . S
C3277 H3267 0.929 . S
C3277 C3275 1.433 . S
C3277 N3280 1.384 . S
C3278 H3269 0.929 . S
C3278 C3270 1.378 . S
C3278 C3273 1.350 . S
C3279 H3266 0.929 . S
C3279 C3271 1.433 . S
C3279 N3281 1.384 . S
N3280 C3276 1.427 . S
N3280 C3277 1.384 . S
N3281 C3273 1.427 . S
N3281 C3279 1.384 . S
H3282 C3288 0.930 . S
H3283 C3292 0.930 . S
H3284 C3297 0.929 . S
H3285 C3295 0.958 . S
H3286 C3290 0.929 . S
H3287 C3296 0.929 . S
C3288 H3282 0.930 . S
C3288 C3289 1.367 . S
C3288 C3296 1.378 . S
C3289 C3288 1.367 . S
C3289 C3297 1.433 . S
C3290 H3286 0.929 . S
C3290 C3292 1.378 . S
C3290 C3294 1.350 . S
C3291 C3294 1.463 . S
C3291 C3296 1.350 . S
C3291 N3299 1.427 . S
C3292 H3283 0.930 . S
C3292 C3290 1.378 . S
C3292 C3293 1.367 . S
C3293 C3292 1.367 . S
C3293 C3295 1.416 1_565 S
C3294 C3290 1.350 . S
C3294 C3291 1.463 . S
C3294 N3298 1.427 . S
C3295 H3285 0.958 . S
C3295 C3293 1.416 1_545 S
C3295 N3298 1.371 1_545 S
C3296 H3287 0.929 . S
C3296 C3288 1.378 . S
C3296 C3291 1.350 . S
C3297 H3284 0.929 . S
C3297 C3289 1.433 . S
C3297 N3299 1.384 . S
N3298 C3294 1.427 . S
N3298 C3295 1.371 1_565 S
N3299 C3291 1.427 . S
N3299 C3297 1.384 . S
H3300 C3306 0.930 . S
H3301 C3310 0.930 . S
H3302 C3315 0.929 . S
H3303 C3313 0.929 . S
H3304 C3308 0.929 . S
H3305 C3314 0.929 . S
C3306 H3300 0.930 . S
C3306 C3307 1.367 . S
C3306 C3314 1.378 . S
C3307 C3306 1.367 . S
C3307 C3315 1.433 . S
C3308 H3304 0.929 . S
C3308 C3310 1.378 . S
C3308 C3312 1.350 . S
C3309 C3312 1.463 . S
C3309 C3314 1.350 . S
C3309 N3317 1.427 . S
C3310 H3301 0.930 . S
C3310 C3308 1.378 . S
C3310 C3311 1.367 . S
C3311 C3310 1.367 . S
C3311 C3313 1.433 . S
C3312 C3308 1.350 . S
C3312 C3309 1.463 . S
C3312 N3316 1.427 . S
C3313 H3303 0.929 . S
C3313 C3311 1.433 . S
C3313 N3316 1.384 . S
C3314 H3305 0.929 . S
C3314 C3306 1.378 . S
C3314 C3309 1.350 . S
C3315 H3302 0.929 . S
C3315 C3307 1.433 . S
C3315 N3317 1.384 . S
N3316 C3312 1.427 . S
N3316 C3313 1.384 . S
N3317 C3309 1.427 . S
N3317 C3315 1.384 . S
H3318 C3324 0.930 . S
H3319 C3328 0.930 . S
H3320 C3333 0.929 . S
H3321 C3331 0.929 . S
H3322 C3326 0.929 . S
H3323 C3332 0.929 . S
C3324 H3318 0.930 . S
C3324 C3325 1.367 . S
C3324 C3332 1.378 . S
C3325 C3324 1.367 . S
C3325 C3333 1.433 . S
C3326 H3322 0.929 . S
C3326 C3328 1.378 . S
C3326 C3330 1.350 . S
C3327 C3330 1.463 . S
C3327 C3332 1.350 . S
C3327 N3335 1.427 . S
C3328 H3319 0.930 . S
C3328 C3326 1.378 . S
C3328 C3329 1.367 . S
C3329 C3328 1.367 . S
C3329 C3331 1.433 . S
C3330 C3326 1.350 . S
C3330 C3327 1.463 . S
C3330 N3334 1.427 . S
C3331 H3321 0.929 . S
C3331 C3329 1.433 . S
C3331 N3334 1.384 . S
C3332 H3323 0.929 . S
C3332 C3324 1.378 . S
C3332 C3327 1.350 . S
C3333 H3320 0.929 . S
C3333 C3325 1.433 . S
C3333 N3335 1.384 . S
N3334 C3330 1.427 . S
N3334 C3331 1.384 . S
N3335 C3327 1.427 . S
N3335 C3333 1.384 . S
H3336 C3342 0.930 . S
H3337 C3346 0.930 . S
H3338 C3351 0.929 . S
H3339 C3349 0.929 . S
H3340 C3344 0.929 . S
H3341 C3350 0.929 . S
C3342 H3336 0.930 . S
C3342 C3343 1.367 . S
C3342 C3350 1.378 . S
C3343 C3342 1.367 . S
C3343 C3351 1.433 . S
C3344 H3340 0.929 . S
C3344 C3346 1.378 . S
C3344 C3348 1.350 . S
C3345 C3348 1.463 . S
C3345 C3350 1.350 . S
C3345 N3353 1.427 . S
C3346 H3337 0.930 . S
C3346 C3344 1.378 . S
C3346 C3347 1.367 . S
C3347 C3346 1.367 . S
C3347 C3349 1.433 . S
C3348 C3344 1.350 . S
C3348 C3345 1.463 . S
C3348 N3352 1.427 . S
C3349 H3339 0.929 . S
C3349 C3347 1.433 . S
C3349 N3352 1.384 . S
C3350 H3341 0.929 . S
C3350 C3342 1.378 . S
C3350 C3345 1.350 . S
C3351 H3338 0.929 . S
C3351 C3343 1.433 . S
C3351 N3353 1.384 . S
N3352 C3348 1.427 . S
N3352 C3349 1.384 . S
N3353 C3345 1.427 . S
N3353 C3351 1.384 . S
H3354 C3360 0.930 . S
H3355 C3364 0.930 . S
H3356 C3369 0.929 . S
H3357 C3367 0.929 . S
H3358 C3362 0.929 . S
H3359 C3368 0.929 . S
C3360 H3354 0.930 . S
C3360 C3361 1.367 . S
C3360 C3368 1.378 . S
C3361 C3360 1.367 . S
C3361 C3369 1.433 . S
C3362 H3358 0.929 . S
C3362 C3364 1.378 . S
C3362 C3366 1.350 . S
C3363 C3366 1.463 . S
C3363 C3368 1.350 . S
C3363 N3371 1.427 . S
C3364 H3355 0.930 . S
C3364 C3362 1.378 . S
C3364 C3365 1.367 . S
C3365 C3364 1.367 . S
C3365 C3367 1.433 . S
C3366 C3362 1.350 . S
C3366 C3363 1.463 . S
C3366 N3370 1.427 . S
C3367 H3357 0.929 . S
C3367 C3365 1.433 . S
C3367 N3370 1.384 . S
C3368 H3359 0.929 . S
C3368 C3360 1.378 . S
C3368 C3363 1.350 . S
C3369 H3356 0.929 . S
C3369 C3361 1.433 . S
C3369 N3371 1.384 . S
N3370 C3366 1.427 . S
N3370 C3367 1.384 . S
N3371 C3363 1.427 . S
N3371 C3369 1.384 . S
H3372 C3378 0.930 . S
H3373 C3382 0.930 . S
H3374 C3387 0.929 . S
H3375 C3385 0.929 . S
H3376 C3380 0.929 . S
H3377 C3386 0.929 . S
C3378 H3372 0.930 . S
C3378 C3379 1.367 . S
C3378 C3386 1.378 . S
C3379 C3378 1.367 . S
C3379 C3387 1.433 . S
C3380 H3376 0.929 . S
C3380 C3382 1.378 . S
C3380 C3384 1.350 . S
C3381 C3384 1.463 . S
C3381 C3386 1.350 . S
C3381 N3389 1.427 . S
C3382 H3373 0.930 . S
C3382 C3380 1.378 . S
C3382 C3383 1.367 . S
C3383 C3382 1.367 . S
C3383 C3385 1.433 . S
C3384 C3380 1.350 . S
C3384 C3381 1.463 . S
C3384 N3388 1.427 . S
C3385 H3375 0.929 . S
C3385 C3383 1.433 . S
C3385 N3388 1.384 . S
C3386 H3377 0.929 . S
C3386 C3378 1.378 . S
C3386 C3381 1.350 . S
C3387 H3374 0.929 . S
C3387 C3379 1.433 . S
C3387 N3389 1.384 . S
N3388 C3384 1.427 . S
N3388 C3385 1.384 . S
N3389 C3381 1.427 . S
N3389 C3387 1.384 . S
H3390 C3396 0.930 . S
H3391 C3400 0.930 . S
H3392 C3405 0.929 . S
H3393 C3403 0.929 . S
H3394 C3398 0.929 . S
H3395 C3404 0.929 . S
C3396 H3390 0.930 . S
C3396 C3397 1.367 . S
C3396 C3404 1.378 . S
C3397 C3396 1.367 . S
C3397 C3405 1.433 . S
C3398 H3394 0.929 . S
C3398 C3400 1.378 . S
C3398 C3402 1.350 . S
C3399 C3402 1.463 . S
C3399 C3404 1.350 . S
C3399 N3407 1.427 . S
C3400 H3391 0.930 . S
C3400 C3398 1.378 . S
C3400 C3401 1.367 . S
C3401 C3400 1.367 . S
C3401 C3403 1.433 . S
C3402 C3398 1.350 . S
C3402 C3399 1.463 . S
C3402 N3406 1.427 . S
C3403 H3393 0.929 . S
C3403 C3401 1.433 . S
C3403 N3406 1.384 . S
C3404 H3395 0.929 . S
C3404 C3396 1.378 . S
C3404 C3399 1.350 . S
C3405 H3392 0.929 . S
C3405 C3397 1.433 . S
C3405 N3407 1.384 . S
N3406 C3402 1.427 . S
N3406 C3403 1.384 . S
N3407 C3399 1.427 . S
N3407 C3405 1.384 . S
C1687 C105 2.164 1_455 S
C1691 C392 2.161 . S
C1705 C65 1.908 . S
C1709 C494 1.891 . S
C1723 C73 1.882 . S
C1727 C560 1.897 . S
C1745 C646 1.409 . S
C1741 C92 1.496 . S
C1759 C17 1.552 . S
C1763 C730 1.447 . S
C1781 C812 1.863 . S
C1777 C37 1.821 . S
C1799 C914 1.910 . S
C1795 C49 1.809 . S
C1813 C8 2.095 . S
C1817 C980 2.095 . S
C1835 C410 1.686 . S
C1831 C231 1.714 . S
C1849 C241 0.957 . S
C1853 C478 0.911 . S
C1871 C578 1.167 . S
C1867 C273 1.120 . S
C1889 C644 1.637 . S
C1885 C171 1.637 1_556 S
C1903 C227 1.624 . S
C1907 C728 1.624 . S
C1925 C830 1.175 . S
C1921 C245 1.133 . S
C1943 C898 0.928 . S
C1939 C269 0.958 . S
C1961 C998 1.676 . S
C1957 C175 1.707 . S
C1979 C394 1.006 1_565 S
C1975 C162 1.029 1_554 S
C1993 C289 1.701 . S
C1997 C1082 1.689 . S
C2015 C1150 1.327 . S
C2011 C330 1.396 . S
C2033 C1232 0.844 . S
C2029 C317 0.844 . S
C2047 C120 1.004 . S
C2051 C982 0.963 . S
C2065 C134 1.403 . S
C2069 C562 1.352 . S
C2083 C331 1.667 . S
C2087 C1334 1.648 . S
C2105 C1400 0.781 . S
C2101 C303 0.780 . S
C2123 C403 2.188 . S
C2119 C59 2.158 . S
C2141 C1407 1.936 . S
C2137 C107 1.945 . S
C2155 C91 1.926 . S
C2159 C571 1.948 . S
C2173 C78 1.524 . S
C2177 C1329 1.423 . S
C2195 C741 1.478 . S
C2191 C7 1.534 . S
C2209 C51 1.868 . S
C2213 C1159 1.906 . S
C2231 C903 1.947 1_556 S
C2227 C31 1.959 . S
C2249 C1495 2.123 . S
C2245 C22 2.106 . S
C2267 C399 1.733 . S
C2263 C143 1.767 . S
C2285 C1413 0.926 . S
C2281 C315 0.975 . S
C2299 C115 1.204 . S
C2303 C567 1.185 . S
C2317 C287 1.644 . S
C2321 C1327 1.681 . S
C2335 C147 1.636 . S
C2339 C739 1.673 . S
C2357 C1155 1.204 . S
C2353 C311 1.216 . S
C2371 C119 0.978 . S
C2375 C909 0.931 . S
C2389 C283 1.756 . S
C2393 C1491 1.720 . S
C2407 C190 1.026 . S
C2411 C405 1.020 . S
C2425 C177 1.734 . S
C2429 C1071 1.717 . S
C2443 C260 1.398 . S
C2447 C825 1.328 . S
C2461 C247 0.882 . S
C2465 C1243 0.888 . S
C2483 C1497 0.989 . S
C2479 C274 0.943 1_565 S
C2497 C218 1.405 . S
C2501 C573 1.353 . S
C2519 C651 1.689 . S
C2515 C261 1.694 . S
C2537 C487 0.823 . S
C2533 C205 0.815 . S
C2551 C77 2.165 . S
C2555 C1568 2.164 . S
C2573 C1418 1.893 . S
C2569 C93 1.908 . S
C2587 C101 1.875 . S
C2591 C1652 1.897 . S
C2605 C64 1.495 1_655 S
C2609 C1318 1.411 . S
C2623 C45 1.551 . S
C2627 C1066 1.432 . S
C2645 C1148 1.864 . S
C2641 C9 1.826 . S
C2663 C1250 1.906 . S
C2659 C21 1.815 . S
C2681 C1484 2.092 . S
C2677 C36 2.093 . S
C2699 C1586 1.695 . S
C2695 C259 1.713 . S
C2713 C185 0.957 . S
C2717 C1402 0.902 . S
C2735 C1670 1.155 . S
C2731 C203 1.128 . S
C2753 C1316 1.640 . S
C2749 C213 1.639 . S
C2771 C1064 1.627 . S
C2767 C255 1.624 . S
C2785 C189 1.142 . S
C2789 C1166 1.167 . S
C2807 C1234 0.898 . S
C2803 C199 0.956 . S
C2821 C217 1.708 . S
C2825 C1502 1.677 . S
C2843 C1570 1.000 . S
C2839 C316 1.034 . S
C2857 C135 1.705 . S
C2861 C746 1.686 . S
C2879 C814 1.332 . S
C2875 C148 1.397 1_565 S
C2897 C896 0.841 . S
C2893 C163 0.844 . S
C2915 C1486 0.978 . S
C2911 C302 0.994 . S
C2929 C288 1.408 . S
C2933 C1654 1.339 . S
C2951 C662 1.647 . S
C2947 C149 1.667 . S
C2969 C476 0.781 . S
C2965 C121 0.783 . S
C2983 C87 2.158 . S
C2987 C1579 2.188 . S
C3005 C483 1.936 . S
C3001 C79 1.945 . S
C3019 C63 1.928 . S
C3023 C1663 1.947 . S
C3037 C106 1.523 . S
C3041 C657 1.429 . S
C3055 C35 1.536 . S
C3059 C1077 1.463 . S
C3077 C823 1.904 . S
C3073 C23 1.861 . S
C3091 C3 1.959 . S
C3095 C1239 1.947 . S
C3109 C50 2.106 . S
C3113 C991 2.123 . S
C3131 C1575 1.732 . S
C3127 C325 1.767 . S
C3145 C161 0.982 . S
C3149 C489 0.924 . S
C3167 C1659 1.197 1_655 S
C3163 C297 1.205 . S
C3181 C133 1.652 . S
C3185 C655 1.682 . S
C3199 C329 1.636 . S
C3203 C1075 1.671 . S
C3221 C819 1.197 . S
C3217 C157 1.215 . S
C3235 C301 0.969 . S
C3239 C1245 0.949 . S
C3257 C987 1.719 . S
C3253 C129 1.756 . S
C3275 C1581 0.998 . S
C3271 C246 1.038 . S
C3293 C735 1.723 1_565 S
C3289 C219 1.732 . S
C3307 C232 1.396 . S
C3311 C1161 1.344 . S
C3329 C907 0.888 . S
C3325 C191 0.879 . S
C3343 C204 0.993 . S
C3347 C993 0.987 . S
C3361 C176 1.413 . S
C3365 C1665 1.351 . S
C3383 C1323 1.688 . S
C3379 C233 1.692 . S
C3401 C1411 0.823 . S
C3397 C275 0.822 . S
