# Generated by pormake.
# Topology ssb, (4,4)-cn, num edge types: 1
# Building blocks:
#     Node 0, Type 0, BuildingBlock: NAWXER_clean_sbu_0, # of connection points: 4
#     Node 1, Type 0, BuildingBlock: NAWXER_clean_sbu_0, # of connection points: 4
#     Node 2, Type 0, BuildingBlock: NAWXER_clean_sbu_0, # of connection points: 4
#     Node 3, Type 0, BuildingBlock: NAWXER_clean_sbu_0, # of connection points: 4
#     Node 4, Type 0, BuildingBlock: NAWXER_clean_sbu_0, # of connection points: 4
#     Node 5, Type 0, BuildingBlock: NAWXER_clean_sbu_0, # of connection points: 4
#     Node 6, Type 0, BuildingBlock: NAWXER_clean_sbu_0, # of connection points: 4
#     Node 7, Type 0, BuildingBlock: NAWXER_clean_sbu_0, # of connection points: 4
#     Node 8, Type 1, BuildingBlock: KOZSID_clean_sbu_0, # of connection points: 4
#     Node 9, Type 1, BuildingBlock: KOZSID_clean_sbu_0, # of connection points: 4
#     Node 10, Type 1, BuildingBlock: KOZSID_clean_sbu_0, # of connection points: 4
#     Node 11, Type 1, BuildingBlock: KOZSID_clean_sbu_0, # of connection points: 4
#     Node 12, Type 1, BuildingBlock: KOZSID_clean_sbu_0, # of connection points: 4
#     Node 13, Type 1, BuildingBlock: KOZSID_clean_sbu_0, # of connection points: 4
#     Node 14, Type 1, BuildingBlock: KOZSID_clean_sbu_0, # of connection points: 4
#     Node 15, Type 1, BuildingBlock: KOZSID_clean_sbu_0, # of connection points: 4
#     Edge 16, Type (0, 1), BuildingBlock: OJICUG_clean_linker_0, # of connection points: 2
#     Edge 17, Type (0, 1), BuildingBlock: OJICUG_clean_linker_0, # of connection points: 2
#     Edge 18, Type (0, 1), BuildingBlock: OJICUG_clean_linker_0, # of connection points: 2
#     Edge 19, Type (0, 1), BuildingBlock: OJICUG_clean_linker_0, # of connection points: 2
#     Edge 20, Type (0, 1), BuildingBlock: OJICUG_clean_linker_0, # of connection points: 2
#     Edge 21, Type (0, 1), BuildingBlock: OJICUG_clean_linker_0, # of connection points: 2
#     Edge 22, Type (0, 1), BuildingBlock: OJICUG_clean_linker_0, # of connection points: 2
#     Edge 23, Type (0, 1), BuildingBlock: OJICUG_clean_linker_0, # of connection points: 2
#     Edge 24, Type (0, 1), BuildingBlock: OJICUG_clean_linker_0, # of connection points: 2
#     Edge 25, Type (0, 1), BuildingBlock: OJICUG_clean_linker_0, # of connection points: 2
#     Edge 26, Type (0, 1), BuildingBlock: OJICUG_clean_linker_0, # of connection points: 2
#     Edge 27, Type (0, 1), BuildingBlock: OJICUG_clean_linker_0, # of connection points: 2
#     Edge 28, Type (0, 1), BuildingBlock: OJICUG_clean_linker_0, # of connection points: 2
#     Edge 29, Type (0, 1), BuildingBlock: OJICUG_clean_linker_0, # of connection points: 2
#     Edge 30, Type (0, 1), BuildingBlock: OJICUG_clean_linker_0, # of connection points: 2
#     Edge 31, Type (0, 1), BuildingBlock: OJICUG_clean_linker_0, # of connection points: 2
#     Edge 32, Type (0, 1), BuildingBlock: OJICUG_clean_linker_0, # of connection points: 2
#     Edge 33, Type (0, 1), BuildingBlock: OJICUG_clean_linker_0, # of connection points: 2
#     Edge 34, Type (0, 1), BuildingBlock: OJICUG_clean_linker_0, # of connection points: 2
#     Edge 35, Type (0, 1), BuildingBlock: OJICUG_clean_linker_0, # of connection points: 2
#     Edge 36, Type (0, 1), BuildingBlock: OJICUG_clean_linker_0, # of connection points: 2
#     Edge 37, Type (0, 1), BuildingBlock: OJICUG_clean_linker_0, # of connection points: 2
#     Edge 38, Type (0, 1), BuildingBlock: OJICUG_clean_linker_0, # of connection points: 2
#     Edge 39, Type (0, 1), BuildingBlock: OJICUG_clean_linker_0, # of connection points: 2
#     Edge 40, Type (0, 1), BuildingBlock: OJICUG_clean_linker_0, # of connection points: 2
#     Edge 41, Type (0, 1), BuildingBlock: OJICUG_clean_linker_0, # of connection points: 2
#     Edge 42, Type (0, 1), BuildingBlock: OJICUG_clean_linker_0, # of connection points: 2
#     Edge 43, Type (0, 1), BuildingBlock: OJICUG_clean_linker_0, # of connection points: 2
#     Edge 44, Type (0, 1), BuildingBlock: OJICUG_clean_linker_0, # of connection points: 2
#     Edge 45, Type (0, 1), BuildingBlock: OJICUG_clean_linker_0, # of connection points: 2
#     Edge 46, Type (0, 1), BuildingBlock: OJICUG_clean_linker_0, # of connection points: 2
#     Edge 47, Type (0, 1), BuildingBlock: OJICUG_clean_linker_0, # of connection points: 2
# Relax obj value: 0.008
# Max RMSD: 0.037
# Mean RMSD: 0.022
data_MOF--net-ssb--node1-NAWXER_clean_sbu_0--node2-KOZSID_clean_sbu_0--edge1-OJICUG_clean_linker_0
_symmetry_space_group_name_H-M    P1
_symmetry_Int_Tables_number       1
_symmetry_cell_setting            triclinic
loop_
_symmetry_equiv_pos_as_xyz
'x, y, z'
_cell_length_a     39.817593
_cell_length_b     39.717214
_cell_length_c     29.026257
_cell_angle_alpha  93.154203
_cell_angle_beta   96.245487
_cell_angle_gamma 90.086807
loop_
_atom_site_label
_atom_site_type_symbol
_atom_site_fract_x
_atom_site_fract_y
_atom_site_fract_z
_atom_type_partial_charge
C0 C 0.23204 0.26962 0.35491 0.0
C1 C 0.33925 0.2498 0.28257 0.0
O2 O 0.22982 0.25096 0.31731 0.0
Zn3 Zn 0.25986 0.23092 0.26649 0.0
O4 O 0.26057 0.28298 0.37015 0.0
Zn5 Zn 0.2876 0.26229 0.32206 0.0
O6 O 0.2708 0.28944 0.2619 0.0
O7 O 0.24232 0.2556 0.20933 0.0
O8 O 0.33718 0.26795 0.31985 0.0
O9 O 0.31254 0.23532 0.26205 0.0
O10 O 0.25575 0.18153 0.27853 0.0
O11 O 0.28375 0.20994 0.33765 0.0
C12 C 0.25457 0.28495 0.2214 0.0
C13 C 0.2711 0.18187 0.31965 0.0
C14 C 0.72437 0.26326 0.20846 0.0
C15 C 0.83669 0.2753 0.30254 0.0
O16 O 0.72424 0.27707 0.24931 0.0
Zn17 Zn 0.75771 0.29188 0.30863 0.0
O18 O 0.75243 0.25374 0.1949 0.0
Zn19 Zn 0.78247 0.26756 0.25216 0.0
O20 O 0.76801 0.23502 0.30213 0.0
O21 O 0.74294 0.26397 0.35573 0.0
O22 O 0.83221 0.26181 0.26133 0.0
O23 O 0.81114 0.28669 0.32157 0.0
O24 O 0.75284 0.3409 0.31119 0.0
O25 O 0.77983 0.32068 0.25306 0.0
C26 C 0.75386 0.23605 0.33974 0.0
C27 C 0.76862 0.34577 0.27623 0.0
C28 C 0.77015 0.72133 0.20256 0.0
C29 C 0.75708 0.8305 0.302 0.0
O30 O 0.75606 0.71941 0.24 0.0
Zn31 Zn 0.74106 0.75032 0.29722 0.0
O32 O 0.78067 0.75027 0.19267 0.0
Zn33 Zn 0.76637 0.77857 0.24757 0.0
O34 O 0.799 0.76007 0.30253 0.0
O35 O 0.77084 0.73287 0.35036 0.0
O36 O 0.77094 0.82893 0.26417 0.0
O37 O 0.74548 0.80314 0.31575 0.0
O38 O 0.69099 0.74497 0.28378 0.0
O39 O 0.7137 0.77324 0.23167 0.0
C40 C 0.79892 0.74378 0.33932 0.0
C41 C 0.68759 0.76032 0.24602 0.0
C42 C 0.24864 0.67863 0.2297 0.0
C43 C 0.26633 0.78717 0.3146 0.0
O44 O 0.23583 0.70368 0.20818 0.0
Zn45 Zn 0.23175 0.75689 0.21662 0.0
O46 O 0.26523 0.68341 0.26962 0.0
Zn47 Zn 0.26059 0.73186 0.27311 0.0
O48 O 0.20789 0.73546 0.27766 0.0
O49 O 0.18217 0.76204 0.21914 0.0
O50 O 0.27893 0.75933 0.32743 0.0
O51 O 0.24945 0.78854 0.27469 0.0
O52 O 0.25793 0.77188 0.1667 0.0
O53 O 0.28973 0.74544 0.21992 0.0
C54 C 0.18076 0.74693 0.25662 0.0
C55 C 0.28663 0.76003 0.18146 0.0
C56 C 0.32905 0.76311 0.78886 0.0
C57 C 0.2145 0.74811 0.702 0.0
O58 O 0.30494 0.77917 0.80559 0.0
Zn59 Zn 0.25258 0.78763 0.7929 0.0
O60 O 0.32294 0.74603 0.7503 0.0
Zn61 Zn 0.27343 0.75472 0.7408 0.0
O62 O 0.27208 0.80672 0.72357 0.0
O63 O 0.25118 0.83719 0.77882 0.0
O64 O 0.24158 0.73524 0.68919 0.0
O65 O 0.21622 0.76709 0.73935 0.0
O66 O 0.23935 0.76493 0.84909 0.0
O67 O 0.25781 0.7284 0.79809 0.0
C68 C 0.26318 0.83568 0.73963 0.0
C69 C 0.24617 0.73441 0.83716 0.0
C70 C 0.29303 0.24828 0.69672 0.0
C71 C 0.26776 0.34817 0.79159 0.0
O72 O 0.27865 0.24259 0.73282 0.0
Zn73 Zn 0.25864 0.26817 0.78887 0.0
O74 O 0.2991 0.27835 0.68664 0.0
Zn75 Zn 0.28121 0.29978 0.7409 0.0
O76 O 0.31563 0.28262 0.79646 0.0
O77 O 0.28832 0.25183 0.84152 0.0
O78 O 0.28184 0.34857 0.75426 0.0
O79 O 0.2587 0.32008 0.80603 0.0
O80 O 0.20989 0.25782 0.77524 0.0
O81 O 0.22891 0.28946 0.72356 0.0
C82 C 0.31589 0.26492 0.83212 0.0
C83 C 0.20449 0.27357 0.73805 0.0
C84 C 0.75146 0.19748 0.74321 0.0
C85 C 0.76875 0.30746 0.84402 0.0
O86 O 0.73929 0.22448 0.72598 0.0
Zn87 Zn 0.73568 0.27755 0.74305 0.0
O88 O 0.7662 0.19964 0.78471 0.0
Zn89 Zn 0.76244 0.25002 0.79863 0.0
O90 O 0.70993 0.25563 0.80362 0.0
O91 O 0.68644 0.28375 0.74514 0.0
O92 O 0.77967 0.27871 0.85653 0.0
O93 O 0.75319 0.30907 0.8032 0.0
O94 O 0.7628 0.29485 0.69572 0.0
O95 O 0.79323 0.26711 0.74892 0.0
C96 C 0.68381 0.26885 0.78244 0.0
C97 C 0.79131 0.28308 0.71158 0.0
C98 C 0.83136 0.74752 0.74669 0.0
C99 C 0.73186 0.76255 0.83576 0.0
O100 O 0.80291 0.73734 0.7256 0.0
Zn101 Zn 0.7505 0.73493 0.73562 0.0
O102 O 0.83246 0.76096 0.78781 0.0
Zn103 Zn 0.78374 0.75665 0.79429 0.0
O104 O 0.7781 0.70381 0.79126 0.0
O105 O 0.74225 0.68616 0.73121 0.0
O106 O 0.76241 0.7696 0.85114 0.0
O107 O 0.7251 0.7504 0.79401 0.0
O108 O 0.73145 0.76462 0.68853 0.0
O109 O 0.76412 0.79121 0.74551 0.0
C110 C 0.76235 0.67977 0.76682 0.0
C111 C 0.7453 0.79179 0.70688 0.0
C112 C 0.05933 0.30711 0.61279 0.0
C113 C 0.0675 0.33739 0.63759 0.0
C114 C 0.04632 0.36118 0.61809 0.0
C115 C 0.0264 0.3441 0.58273 0.0
N116 N 0.03369 0.31108 0.57881 0.0
Co117 Co 0.01141 0.27728 0.53221 0.0
N118 N 0.99192 0.3129 0.49182 0.0
C119 C 0.99054 0.34605 0.50429 0.0
C120 C 0.97569 0.36489 0.46957 0.0
C121 C 0.96641 0.34219 0.43322 0.0
C122 C 0.97584 0.31054 0.44797 0.0
N123 N 0.98909 0.24312 0.48568 0.0
C124 C 0.97291 0.24662 0.44248 0.0
C125 C 0.96001 0.21582 0.42318 0.0
C126 C 0.96765 0.19255 0.45558 0.0
C127 C 0.98474 0.21019 0.49276 0.0
N128 N 0.03087 0.24177 0.57287 0.0
C129 C 0.02115 0.20923 0.57068 0.0
C130 C 0.04002 0.19039 0.60208 0.0
C131 C 0.06312 0.21245 0.6256 0.0
C132 C 0.0568 0.24369 0.60736 0.0
N133 N 0.97055 0.27867 0.56542 0.0
C134 C 0.91224 0.28313 0.6132 0.0
C135 C 0.90976 0.28154 0.56453 0.0
C136 C 0.93897 0.27938 0.54156 0.0
C137 C 0.94487 0.28233 0.63724 0.0
C138 C 0.97344 0.27988 0.6129 0.0
N139 N 0.05235 0.27637 0.49944 0.0
C140 C 0.0952 0.24543 0.46242 0.0
C141 C 0.11217 0.27543 0.45518 0.0
C142 C 0.09845 0.30588 0.47088 0.0
C143 C 0.06857 0.30582 0.49246 0.0
C144 C 0.0656 0.24643 0.48469 0.0
H145 H 0.0587 0.32976 0.50356 0.0
H146 H 0.05355 0.2229 0.49013 0.0
H147 H 0.93579 0.27825 0.50435 0.0
H148 H 0.99794 0.27921 0.63269 0.0
C149 C 1.00578 0.35887 0.54744 0.0
C150 C 0.07512 0.27482 0.62394 0.0
C151 C 0.96406 0.27899 0.42208 0.0
C152 C 0.99918 0.1962 0.53327 0.0
H153 H 0.08682 0.34178 0.66655 0.0
H154 H 0.04657 0.38798 0.62719 0.0
H155 H 0.97203 0.39191 0.47053 0.0
H156 H 0.95287 0.34801 0.40027 0.0
H157 H 0.94534 0.21076 0.38995 0.0
H158 H 0.96136 0.16593 0.45242 0.0
H159 H 0.03846 0.16347 0.60569 0.0
H160 H 0.08259 0.20597 0.6525 0.0
H161 H 0.88537 0.28139 0.544 0.0
H162 H 0.94856 0.28392 0.67479 0.0
H163 H 0.10489 0.2212 0.45135 0.0
H164 H 0.1103 0.32973 0.46566 0.0
C165 C 0.71666 0.06026 0.59322 0.0
C166 C 0.68508 0.06964 0.60523 0.0
C167 C 0.66175 0.05228 0.57488 0.0
C168 C 0.68019 0.03304 0.54622 0.0
N169 N 0.71399 0.03673 0.55677 0.0
Co170 Co 0.74963 0.01354 0.52253 0.0
N171 N 0.71537 0.99065 0.47467 0.0
C172 C 0.68148 0.99453 0.47214 0.0
C173 C 0.66409 0.97544 0.43651 0.0
C174 C 0.68822 0.95801 0.41524 0.0
C175 C 0.71917 0.96721 0.43932 0.0
N176 N 0.78538 0.98992 0.48876 0.0
C177 C 0.78288 0.96623 0.45251 0.0
C178 C 0.81453 0.95506 0.44286 0.0
C179 C 0.8377 0.97202 0.47371 0.0
C180 C 0.81911 0.99239 0.50071 0.0
N181 N 0.78403 0.03686 0.56993 0.0
C182 C 0.81796 0.03405 0.57117 0.0
C183 C 0.83562 0.05444 0.60498 0.0
C184 C 0.81164 0.07179 0.62644 0.0
C185 C 0.78044 0.06079 0.60473 0.0
N186 N 0.74788 0.97424 0.56162 0.0
C187 C 0.74525 0.91514 0.61036 0.0
C188 C 0.77598 0.93162 0.60776 0.0
C189 C 0.77672 0.96092 0.58332 0.0
C190 C 0.71587 0.92914 0.58927 0.0
C191 C 0.71771 0.95859 0.5657 0.0
N192 N 0.75094 0.05287 0.48348 0.0
C193 C 0.78221 0.0961 0.45061 0.0
C194 C 0.75235 0.11306 0.43696 0.0
C195 C 0.72182 0.09884 0.44546 0.0
C196 C 0.72167 0.06882 0.46807 0.0
C197 C 0.78094 0.06624 0.47373 0.0
H198 H 0.69751 0.05933 0.47309 0.0
H199 H 0.80452 0.05468 0.48393 0.0
H200 H 0.80091 0.9721 0.58199 0.0
H201 H 0.69431 0.96793 0.55079 0.0
C202 C 0.6667 0.01383 0.50645 0.0
C203 C 0.7483 0.07506 0.61709 0.0
C204 C 0.75129 0.95236 0.42758 0.0
C205 C 0.83252 0.01315 0.53867 0.0
H206 H 0.67946 0.08769 0.63259 0.0
H207 H 0.63453 0.05427 0.57301 0.0
H208 H 0.63699 0.97362 0.42788 0.0
H209 H 0.68353 0.94004 0.38582 0.0
H210 H 0.82043 0.93601 0.41696 0.0
H211 H 0.86488 0.96919 0.47686 0.0
H212 H 0.86276 0.05711 0.61228 0.0
H213 H 0.8168 0.09102 0.65415 0.0
H214 H 0.79945 0.92162 0.62373 0.0
H215 H 0.69143 0.9176 0.59129 0.0
H216 H 0.8065 0.10617 0.44433 0.0
H217 H 0.69801 0.11065 0.43432 0.0
C218 C 0.07001 0.77095 0.57388 0.0
C219 C 0.08617 0.80182 0.58508 0.0
C220 C 0.06936 0.82487 0.55797 0.0
C221 C 0.04398 0.80696 0.53168 0.0
N222 N 0.04332 0.77411 0.54097 0.0
Co223 Co 0.01187 0.73946 0.50778 0.0
N224 N 0.98107 0.77423 0.48028 0.0
C225 C 0.98867 0.80706 0.47784 0.0
C226 C 0.96222 0.82528 0.45789 0.0
C227 C 0.93637 0.80246 0.44683 0.0
C228 C 0.94858 0.7714 0.46047 0.0
N229 N 0.98057 0.70494 0.47417 0.0
C230 C 0.94824 0.70786 0.45451 0.0
C231 C 0.93588 0.67716 0.43437 0.0
C232 C 0.96134 0.6543 0.44173 0.0
C233 C 0.98775 0.67221 0.46577 0.0
N234 N 0.0425 0.70433 0.53526 0.0
C235 C 0.04213 0.67141 0.52123 0.0
C236 C 0.06616 0.65295 0.54599 0.0
C237 C 0.08327 0.67571 0.57711 0.0
C238 C 0.06886 0.70699 0.56925 0.0
N239 N 0.98574 0.73944 0.56147 0.0
C240 C 0.94233 0.73988 0.63189 0.0
C241 C 0.95306 0.70945 0.61146 0.0
C242 C 0.97477 0.70978 0.57661 0.0
C243 C 0.95519 0.77003 0.61765 0.0
C244 C 0.97673 0.76926 0.58252 0.0
N245 N 0.03805 0.73982 0.45387 0.0
C246 C 0.09212 0.73906 0.42376 0.0
C247 C 0.0767 0.74101 0.37835 0.0
C248 C 0.04138 0.74279 0.37137 0.0
C249 C 0.02248 0.74182 0.40958 0.0
C250 C 0.07256 0.73872 0.46072 0.0
H251 H 0.9953 0.74257 0.40321 0.0
H252 H 0.08568 0.73754 0.4949 0.0
H253 H 0.98191 0.68598 0.56103 0.0
H254 H 0.98521 0.79295 0.57141 0.0
C255 C 0.01857 0.8206 0.50129 0.0
C256 C 0.08347 0.73884 0.59086 0.0
C257 C 0.9294 0.73954 0.45118 0.0
C258 C 0.01692 0.65823 0.48785 0.0
H259 H 0.10847 0.80703 0.60923 0.0
H260 H 0.0749 0.85154 0.55764 0.0
H261 H 0.96136 0.85218 0.45358 0.0
H262 H 0.91141 0.80807 0.43052 0.0
H263 H 0.91109 0.67185 0.41618 0.0
H264 H 0.9602 0.62753 0.43232 0.0
H265 H 0.07051 0.6261 0.54224 0.0
H266 H 0.10453 0.67004 0.60189 0.0
H267 H 0.94428 0.68545 0.62174 0.0
H268 H 0.9475 0.79419 0.63202 0.0
H269 H 0.11938 0.73792 0.43079 0.0
H270 H 0.02847 0.74414 0.3367 0.0
C271 C 0.305 0.96286 0.60678 0.0
C272 C 0.33597 0.95101 0.62563 0.0
C273 C 0.36015 0.96589 0.60337 0.0
C274 C 0.34277 0.98603 0.57226 0.0
N275 N 0.30895 0.98555 0.57392 0.0
Co276 Co 0.27456 0.00932 0.53115 0.0
N277 N 0.30984 0.02936 0.49586 0.0
C278 C 0.34364 0.02619 0.5057 0.0
C279 C 0.362 0.04447 0.47835 0.0
C280 C 0.33861 0.06093 0.44996 0.0
C281 C 0.30708 0.05187 0.46162 0.0
N282 N 0.23988 0.03151 0.48692 0.0
C283 C 0.2433 0.05264 0.45211 0.0
C284 C 0.21202 0.06283 0.43186 0.0
C285 C 0.18818 0.04794 0.45452 0.0
C286 C 0.20602 0.02958 0.48737 0.0
N287 N 0.23929 0.9906 0.5678 0.0
C288 C 0.2058 0.99673 0.56102 0.0
C289 C 0.18725 0.98004 0.5898 0.0
C290 C 0.21014 0.96184 0.61641 0.0
C291 C 0.24165 0.96852 0.60253 0.0
N292 N 0.27824 0.05093 0.57241 0.0
C293 C 0.28902 0.11746 0.60923 0.0
C294 C 0.25673 0.1063 0.59091 0.0
C295 C 0.25182 0.07294 0.57345 0.0
C296 C 0.31503 0.09398 0.61246 0.0
C297 C 0.30899 0.06103 0.59471 0.0
N298 N 0.27163 0.96815 0.4895 0.0
C299 C 0.23957 0.92188 0.44893 0.0
C300 C 0.26917 0.90717 0.43571 0.0
C301 C 0.2998 0.92366 0.44903 0.0
C302 C 0.30041 0.95404 0.47526 0.0
C303 C 0.24137 0.9522 0.47586 0.0
H304 H 0.32454 0.96552 0.48364 0.0
H305 H 0.21811 0.96219 0.48546 0.0
H306 H 0.22669 0.0658 0.55989 0.0
H307 H 0.33005 0.04467 0.59814 0.0
C308 C 0.35727 1.00575 0.54086 0.0
C309 C 0.27265 0.95165 0.62145 0.0
C310 C 0.2754 0.06578 0.43937 0.0
C311 C 0.19208 0.01416 0.52304 0.0
H312 H 0.3406 0.93321 0.65249 0.0
H313 H 0.38717 0.96213 0.60885 0.0
H314 H 0.38922 0.04598 0.47931 0.0
H315 H 0.34414 0.07799 0.42392 0.0
H316 H 0.20677 0.08032 0.40479 0.0
H317 H 0.16111 0.05148 0.44925 0.0
H318 H 0.16006 0.97973 0.58975 0.0
H319 H 0.20398 0.94465 0.64189 0.0
H320 H 0.23536 0.12319 0.58995 0.0
H321 H 0.34031 0.10113 0.62744 0.0
H322 H 0.21521 0.90988 0.43893 0.0
H323 H 0.3232 0.9135 0.43847 0.0
C324 C 0.55117 0.79519 0.10047 0.0
C325 C 0.55988 0.82634 0.12256 0.0
C326 C 0.54542 0.85015 0.09472 0.0
C327 C 0.52862 0.8323 0.05741 0.0
N328 N 0.53097 0.79848 0.06008 0.0
Co329 Co 0.51138 0.76337 0.0123 0.0
N330 N 0.49112 0.79837 0.97042 0.0
C331 C 0.49338 0.83223 0.9783 0.0
C332 C 0.47591 0.84988 0.94427 0.0
C333 C 0.46095 0.82586 0.91323 0.0
C334 C 0.4701 0.79483 0.93029 0.0
N335 N 0.49235 0.72821 0.96402 0.0
C336 C 0.47136 0.73127 0.92426 0.0
C337 C 0.46336 0.70004 0.90186 0.0
C338 C 0.47962 0.6765 0.9284 0.0
C339 C 0.49647 0.6945 0.96548 0.0
N340 N 0.53085 0.72825 0.05479 0.0
C341 C 0.52808 0.69443 0.04691 0.0
C342 C 0.5447 0.67652 0.08127 0.0
C343 C 0.55931 0.70026 0.11291 0.0
C344 C 0.55067 0.7315 0.09604 0.0
N345 N 0.46843 0.76269 0.04216 0.0
C346 C 0.40669 0.76195 0.08266 0.0
C347 C 0.42221 0.73197 0.06892 0.0
C348 C 0.45262 0.7329 0.0487 0.0
C349 C 0.42259 0.79229 0.07539 0.0
C350 C 0.45324 0.79209 0.05566 0.0
N351 N 0.55443 0.76433 0.98226 0.0
C352 C 0.60351 0.73624 0.95531 0.0
C353 C 0.61542 0.76636 0.94011 0.0
C354 C 0.59651 0.79542 0.94673 0.0
C355 C 0.56674 0.79397 0.96823 0.0
C356 C 0.57302 0.7357 0.97558 0.0
H357 H 0.55421 0.81729 0.97303 0.0
H358 H 0.56498 0.71174 0.98531 0.0
H359 H 0.46288 0.70919 0.03852 0.0
H360 H 0.46421 0.81609 0.05183 0.0
C361 C 0.51109 0.84654 0.01894 0.0
C362 C 0.56396 0.76337 0.11856 0.0
C363 C 0.45663 0.76286 0.90828 0.0
C364 C 0.51265 0.68034 1.00477 0.0
H365 H 0.5756 0.83129 0.15508 0.0
H366 H 0.54741 0.87726 0.10059 0.0
H367 H 0.47362 0.87696 0.94281 0.0
H368 H 0.44447 0.83057 0.8821 0.0
H369 H 0.44664 0.69457 0.87044 0.0
H370 H 0.47799 0.64936 0.92253 0.0
H371 H 0.54707 0.64941 0.08227 0.0
H372 H 0.57543 0.69494 0.14403 0.0
H373 H 0.41081 0.70776 0.07344 0.0
H374 H 0.41191 0.81619 0.08596 0.0
H375 H 0.61717 0.71298 0.95041 0.0
H376 H 0.60482 0.81937 0.93561 0.0
C377 C 0.21193 0.53697 0.10254 0.0
C378 C 0.18014 0.54232 0.11677 0.0
C379 C 0.15741 0.52935 0.08167 0.0
C380 C 0.17661 0.51692 0.04823 0.0
N381 N 0.21023 0.52084 0.06004 0.0
Co382 Co 0.24734 0.50673 0.02209 0.0
N383 N 0.21407 0.48834 0.96994 0.0
C384 C 0.17999 0.48798 0.96842 0.0
C385 C 0.1639 0.47397 0.92771 0.0
C386 C 0.18924 0.46451 0.90178 0.0
C387 C 0.21938 0.47331 0.92839 0.0
N388 N 0.28452 0.49312 0.98376 0.0
C389 C 0.28303 0.47795 0.94062 0.0
C390 C 0.31497 0.47366 0.92625 0.0
C391 C 0.33745 0.48659 0.96154 0.0
C392 C 0.31807 0.49792 0.99529 0.0
N393 N 0.28071 0.52447 0.07457 0.0
C394 C 0.31478 0.52371 0.07667 0.0
C395 C 0.331 0.53702 0.11764 0.0
C396 C 0.30576 0.5472 0.14324 0.0
C397 C 0.2755 0.53943 0.11618 0.0
N398 N 0.24872 0.46128 0.0507 0.0
C399 C 0.25019 0.40071 0.10066 0.0
C400 C 0.27993 0.41776 0.0932 0.0
C401 C 0.27868 0.44727 0.06804 0.0
C402 C 0.2198 0.41403 0.08052 0.0
C403 C 0.21962 0.44391 0.05618 0.0
N404 N 0.24572 0.55233 0.99375 0.0
C405 C 0.27346 0.60345 0.97281 0.0
C406 C 0.24368 0.61479 0.94824 0.0
C407 C 0.21482 0.59457 0.94825 0.0
C408 C 0.21621 0.56428 0.97157 0.0
C409 C 0.27403 0.57239 0.99462 0.0
H410 H 0.19295 0.55084 0.97084 0.0
H411 H 0.29781 0.5649 0.01155 0.0
H412 H 0.30235 0.4586 0.0635 0.0
H413 H 0.19545 0.45279 0.04277 0.0
C414 C 0.16388 0.50166 1.00545 0.0
C415 C 0.24271 0.54991 0.12928 0.0
C416 C 0.25231 0.46518 0.91343 0.0
C417 C 0.33077 0.51176 0.03877 0.0
H418 H 0.17416 0.55488 0.14889 0.0
H419 H 0.13014 0.52936 0.08043 0.0
H420 H 0.13699 0.47095 0.91808 0.0
H421 H 0.18605 0.45217 0.86738 0.0
H422 H 0.32152 0.46191 0.89397 0.0
H423 H 0.36472 0.48713 0.96278 0.0
H424 H 0.35794 0.53972 0.12731 0.0
H425 H 0.30942 0.5597 0.17744 0.0
H426 H 0.30433 0.40837 0.10676 0.0
H427 H 0.19593 0.40213 0.0848 0.0
H428 H 0.29661 0.61797 0.97398 0.0
H429 H 0.19097 0.60222 0.93041 0.0
C430 C 0.45546 0.28769 0.9736 0.0
C431 C 0.43857 0.3181 0.96857 0.0
C432 C 0.45408 0.34067 1.00145 0.0
C433 C 0.47943 0.32293 0.02477 0.0
N434 N 0.48128 0.29068 1.00825 0.0
Co435 Co 0.51307 0.25628 0.03475 0.0
N436 N 0.54252 0.29123 0.07071 0.0
C437 C 0.53401 0.32348 0.07998 0.0
C438 C 0.55971 0.34205 0.10461 0.0
C439 C 0.58603 0.32008 0.11154 0.0
C440 C 0.5748 0.28911 0.09094 0.0
N441 N 0.54469 0.22202 0.06189 0.0
C442 C 0.57662 0.22563 0.0834 0.0
C443 C 0.5894 0.19487 0.09738 0.0
C444 C 0.56463 0.17126 0.08411 0.0
C445 C 0.53816 0.18882 0.06293 0.0
N446 N 0.48386 0.22105 0.99864 0.0
C447 C 0.48473 0.18777 1.00548 0.0
C448 C 0.46154 0.16937 0.97589 0.0
C449 C 0.44453 0.19251 0.94914 0.0
C450 C 0.45817 0.22391 0.96425 0.0
N451 N 0.54014 0.25941 0.98211 0.0
C452 C 0.58081 0.26453 0.90857 0.0
C453 C 0.5727 0.23304 0.9246 0.0
C454 C 0.55229 0.23104 0.96093 0.0
C455 C 0.5673 0.29329 0.93001 0.0
C456 C 0.54742 0.29022 0.9666 0.0
N457 N 0.48569 0.25342 0.08737 0.0
C458 C 0.43074 0.24909 0.11454 0.0
C459 C 0.44497 0.25037 0.16085 0.0
C460 C 0.48023 0.25358 0.16979 0.0
C461 C 0.50016 0.25468 0.13255 0.0
C462 C 0.45127 0.25086 0.07872 0.0
H463 H 0.52724 0.25655 0.14035 0.0
H464 H 0.43892 0.25025 0.04392 0.0
H465 H 0.54678 0.20646 0.9723 0.0
H466 H 0.53816 0.31297 0.98258 0.0
C467 C 0.50402 0.33651 0.05877 0.0
C468 C 0.44351 0.25588 0.94884 0.0
C469 C 0.5946 0.25788 0.09414 0.0
C470 C 0.50968 0.17445 0.03682 0.0
H471 H 0.41668 0.32325 0.94458 0.0
H472 H 0.44779 0.36694 1.00734 0.0
H473 H 0.55979 0.36869 0.11474 0.0
H474 H 0.61062 0.32619 0.12979 0.0
H475 H 0.61402 0.19001 0.11538 0.0
H476 H 0.56627 0.14433 0.0878 0.0
H477 H 0.45771 0.14232 0.97363 0.0
H478 H 0.42385 0.18697 0.92239 0.0
H479 H 0.58268 0.20994 0.91014 0.0
H480 H 0.57198 0.31824 0.91878 0.0
H481 H 0.40362 0.24701 0.10589 0.0
H482 H 0.49233 0.25451 0.2051 0.0
C483 C 0.7406 0.57788 0.06734 0.0
C484 C 0.70928 0.59123 0.07449 0.0
C485 C 0.68554 0.56812 0.05559 0.0
C486 C 0.7035 0.54198 0.03784 0.0
N487 N 0.73732 0.5471 0.04368 0.0
Co488 Co 0.77225 0.51419 0.02398 0.0
N489 N 0.73727 0.48022 0.99565 0.0
C490 C 0.70342 0.48436 0.99288 0.0
C491 C 0.68539 0.45767 0.97058 0.0
C492 C 0.70909 0.43524 0.95774 0.0
C493 C 0.74046 0.44953 0.97283 0.0
N494 N 0.80729 0.48059 1.00646 0.0
C495 C 0.80424 0.4493 0.98428 0.0
C496 C 0.83566 0.43516 0.97983 0.0
C497 C 0.85925 0.45799 0.99984 0.0
C498 C 0.84111 0.48479 0.01535 0.0
N499 N 0.80726 0.54885 0.05024 0.0
C500 C 0.841 0.54578 0.04953 0.0
C501 C 0.85915 0.57315 0.06954 0.0
C502 C 0.83564 0.59518 0.08391 0.0
C503 C 0.80426 0.58005 0.07175 0.0
N504 N 0.77318 0.49414 0.08517 0.0
C505 C 0.775 0.46011 0.16801 0.0
C506 C 0.80418 0.47492 0.15496 0.0
C507 C 0.80274 0.4916 0.11366 0.0
C508 C 0.74457 0.46468 0.14041 0.0
C509 C 0.74421 0.48179 0.09971 0.0
N510 N 0.77107 0.53418 0.96266 0.0
C511 C 0.79943 0.5518 0.8984 0.0
C512 C 0.76987 0.56669 0.87851 0.0
C513 C 0.7405 0.56306 0.90014 0.0
C514 C 0.7416 0.5466 0.94145 0.0
C515 C 0.79955 0.53613 0.94033 0.0
H516 H 0.71836 0.54511 0.95606 0.0
H517 H 0.82318 0.52644 0.95441 0.0
H518 H 0.826 0.50147 0.10497 0.0
H519 H 0.72029 0.48373 0.07996 0.0
C520 C 0.6894 0.51299 0.01349 0.0
C521 C 0.77257 0.59581 0.08324 0.0
C522 C 0.77242 0.43258 0.96489 0.0
C523 C 0.855 0.51555 0.03404 0.0
H524 H 0.70407 0.61534 0.09137 0.0
H525 H 0.65838 0.57028 0.05455 0.0
H526 H 0.6582 0.45474 0.96468 0.0
H527 H 0.70383 0.41099 0.93949 0.0
H528 H 0.84112 0.41117 0.96289 0.0
H529 H 0.88645 0.45576 1.00154 0.0
H530 H 0.88634 0.57628 0.07441 0.0
H531 H 0.84116 0.61935 0.1022 0.0
H532 H 0.82832 0.4727 0.17565 0.0
H533 H 0.72124 0.45352 0.14857 0.0
H534 H 0.82276 0.55312 0.88258 0.0
H535 H 0.71693 0.57432 0.88677 0.0
C536 C 0.2005 0.29437 0.42074 0.0
C537 C 0.20152 0.27277 0.38081 0.0
H538 H 0.17158 0.31233 0.47554 0.0
C539 C 0.17283 0.25255 0.36578 0.0
H540 H 0.22205 0.31021 0.43348 0.0
C541 C 0.14428 0.25348 0.38995 0.0
C542 C 0.14312 0.27489 0.42987 0.0
H543 H 0.17242 0.23548 0.33532 0.0
H544 H 0.12284 0.23756 0.37693 0.0
C545 C 0.17152 0.29561 0.44478 0.0
C546 C 0.77216 0.17698 0.35207 0.0
C547 C 0.75272 0.20483 0.36501 0.0
H548 H 0.78736 0.12642 0.3648 0.0
C549 C 0.73335 0.20244 0.40234 0.0
H550 H 0.78759 0.17799 0.32366 0.0
C551 C 0.73321 0.17259 0.42587 0.0
C552 C 0.7528 0.1449 0.41285 0.0
H553 H 0.71824 0.22348 0.41318 0.0
H554 H 0.71805 0.17126 0.45453 0.0
C555 C 0.77233 0.14747 0.37586 0.0
C556 C 0.86206 0.74706 0.34942 0.0
C557 C 0.83189 0.73976 0.36837 0.0
H558 H 0.91595 0.75261 0.36062 0.0
C559 C 0.83414 0.7312 0.41506 0.0
H560 H 0.8616 0.75347 0.31356 0.0
C561 C 0.86575 0.73098 0.44224 0.0
C562 C 0.89551 0.73936 0.42319 0.0
H563 H 0.81151 0.72551 0.43082 0.0
H564 H 0.86694 0.72472 0.47822 0.0
C565 C 0.89333 0.74673 0.37634 0.0
C566 C 0.24553 0.84421 0.33584 0.0
C567 C 0.26791 0.8176 0.3462 0.0
H568 H 0.22825 0.89311 0.35636 0.0
C569 C 0.29033 0.82025 0.38704 0.0
H570 H 0.22766 0.84287 0.30485 0.0
C571 C 0.29064 0.84933 0.41657 0.0
C572 C 0.26814 0.8758 0.40599 0.0
H573 H 0.30769 0.80007 0.39595 0.0
H574 H 0.30829 0.8511 0.44777 0.0
C575 C 0.24552 0.87289 0.36554 0.0
C576 C 0.15125 0.75338 0.69301 0.0
C577 C 0.18095 0.74301 0.67397 0.0
H578 H 0.09743 0.75989 0.68187 0.0
C579 C 0.17804 0.72986 0.6277 0.0
H580 H 0.15237 0.76362 0.72851 0.0
C581 C 0.14638 0.728 0.60095 0.0
C582 C 0.11692 0.7388 0.62006 0.0
H583 H 0.20029 0.72189 0.61177 0.0
H584 H 0.14494 0.71867 0.56501 0.0
C585 C 0.11969 0.75125 0.66643 0.0
C586 C 0.31813 0.19232 0.6893 0.0
C587 C 0.30069 0.21877 0.66755 0.0
H588 H 0.32756 0.13952 0.68844 0.0
C589 C 0.28257 0.21269 0.62373 0.0
H590 H 0.3316 0.19648 0.72368 0.0
C591 C 0.27984 0.17982 0.60356 0.0
C592 C 0.29526 0.15283 0.62707 0.0
H593 H 0.26825 0.23267 0.60701 0.0
H594 H 0.26454 0.17532 0.57058 0.0
C595 C 0.31553 0.15968 0.66925 0.0
C596 C 0.8519 0.2687 0.70401 0.0
C597 C 0.8222 0.28513 0.68665 0.0
H598 H 0.90245 0.25438 0.69464 0.0
C599 C 0.82247 0.30162 0.64501 0.0
H600 H 0.85284 0.25542 0.73572 0.0
C601 C 0.85161 0.30139 0.62139 0.0
C602 C 0.8812 0.28452 0.63865 0.0
H603 H 0.80015 0.3145 0.63051 0.0
H604 H 0.85091 0.31461 0.58968 0.0
C605 C 0.88073 0.26827 0.68042 0.0
C606 C 0.76125 0.85217 0.7029 0.0
C607 C 0.74273 0.82377 0.68295 0.0
H608 H 0.77654 0.90305 0.6956 0.0
C609 C 0.72401 0.82601 0.63935 0.0
H610 H 0.77594 0.85147 0.7365 0.0
C611 C 0.7244 0.85588 0.6159 0.0
C612 C 0.74376 0.88383 0.63549 0.0
H613 H 0.7096 0.80459 0.62302 0.0
H614 H 0.71026 0.85685 0.58195 0.0
C615 C 0.76187 0.88174 0.67938 0.0
C616 C 0.89045 0.7648 0.732 0.0
C617 C 0.86185 0.74383 0.72137 0.0
H618 H 0.93841 0.78016 0.71209 0.0
C619 C 0.86116 0.72036 0.68313 0.0
H620 H 0.89172 0.78323 0.76107 0.0
C621 C 0.88771 0.7185 0.65538 0.0
C622 C 0.91579 0.74022 0.66469 0.0
H623 H 0.83962 0.7037 0.67392 0.0
H624 H 0.88553 0.70081 0.62542 0.0
C625 C 0.91704 0.76319 0.70371 0.0
C626 C 0.25725 0.899 0.72597 0.0
C627 C 0.26637 0.86618 0.71099 0.0
H628 H 0.25242 0.95146 0.71031 0.0
C629 C 0.27832 0.86233 0.66686 0.0
H630 H 0.24802 0.90332 0.75951 0.0
C631 C 0.28064 0.88985 0.63864 0.0
C632 C 0.27114 0.92247 0.65324 0.0
H633 H 0.28569 0.83773 0.65361 0.0
H634 H 0.28953 0.88551 0.60486 0.0
C635 C 0.25972 0.92668 0.69763 0.0
C636 C 0.14148 0.26161 0.72664 0.0
C637 C 0.17088 0.27352 0.7099 0.0
H638 H 0.08778 0.25346 0.71297 0.0
C639 C 0.16817 0.28597 0.66507 0.0
H640 H 0.14258 0.25216 0.76106 0.0
C641 C 0.13711 0.28626 0.63759 0.0
C642 C 0.10791 0.27413 0.65407 0.0
H643 H 0.19018 0.29538 0.65084 0.0
H644 H 0.13591 0.2958 0.60318 0.0
C645 C 0.1102 0.26223 0.69911 0.0
C646 C 0.73519 0.16543 0.66593 0.0
C647 C 0.74943 0.16512 0.71273 0.0
H648 H 0.72387 0.13807 0.59994 0.0
C649 C 0.76235 0.13419 0.72833 0.0
H650 H 0.72493 0.18848 0.65208 0.0
C651 C 0.7614 0.10491 0.69797 0.0
C652 C 0.74784 0.10569 0.65096 0.0
H653 H 0.77349 0.13263 0.76387 0.0
H654 H 0.77169 0.08166 0.71112 0.0
C655 C 0.73447 0.13638 0.63572 0.0
C656 C 0.90026 0.26553 0.31364 0.0
C657 C 0.87041 0.27755 0.33056 0.0
H658 H 0.95372 0.257 0.3292 0.0
C659 C 0.87244 0.29149 0.37649 0.0
H660 H 0.89966 0.2547 0.27851 0.0
C661 C 0.9029 0.29258 0.40508 0.0
C662 C 0.93258 0.28008 0.38878 0.0
H663 H 0.85022 0.30114 0.39106 0.0
H664 H 0.90307 0.30275 0.44049 0.0
C665 C 0.93114 0.26691 0.34254 0.0
C666 C 0.76831 0.89384 0.32142 0.0
C667 C 0.75474 0.86271 0.33205 0.0
H668 H 0.77763 0.94636 0.3425 0.0
C669 C 0.7392 0.86207 0.37358 0.0
H670 H 0.78045 0.89565 0.29003 0.0
C671 C 0.73773 0.891 0.40359 0.0
C672 C 0.75172 0.92187 0.39347 0.0
H673 H 0.72832 0.83889 0.38347 0.0
H674 H 0.72602 0.88908 0.43534 0.0
C675 C 0.76674 0.92297 0.35162 0.0
C676 C 0.12398 0.76756 0.27853 0.0
C677 C 0.14912 0.74267 0.27864 0.0
H678 H 0.08076 0.78656 0.31037 0.0
C679 C 0.14678 0.71515 0.30666 0.0
H680 H 0.12525 0.78916 0.25758 0.0
C681 C 0.12177 0.71377 0.33659 0.0
C682 C 0.09821 0.73979 0.33939 0.0
H683 H 0.16549 0.69535 0.30725 0.0
H684 H 0.12184 0.69301 0.35933 0.0
C685 C 0.09862 0.7661 0.30878 0.0
C686 C 0.2605 0.11924 0.33147 0.0
C687 C 0.27342 0.15115 0.34861 0.0
H688 H 0.25144 0.06743 0.34592 0.0
C689 C 0.28802 0.154 0.39534 0.0
H690 H 0.2491 0.11574 0.29592 0.0
C691 C 0.28909 0.12642 0.42399 0.0
C692 C 0.27575 0.09475 0.40716 0.0
H693 H 0.29827 0.17792 0.41032 0.0
H694 H 0.29992 0.13002 0.45982 0.0
C695 C 0.26181 0.09147 0.36023 0.0
C696 C 0.70637 0.75682 0.91096 0.0
C697 C 0.7036 0.76697 0.86504 0.0
H698 H 0.6803 0.74778 0.97047 0.0
C699 C 0.67206 0.77797 0.84497 0.0
H700 H 0.73022 0.74775 0.92706 0.0
C701 C 0.64386 0.77861 0.86993 0.0
C702 C 0.6462 0.7673 0.91515 0.0
H703 H 0.66909 0.78573 0.80956 0.0
H704 H 0.61988 0.78697 0.8533 0.0
C705 C 0.67779 0.75653 0.93557 0.0
C706 C 0.25415 0.707 0.91529 0.0
C707 C 0.24236 0.70531 0.86758 0.0
H708 H 0.26474 0.67995 0.97779 0.0
C709 C 0.2304 0.67384 0.84742 0.0
H710 H 0.26414 0.73054 0.93192 0.0
C711 C 0.23008 0.6451 0.87382 0.0
C712 C 0.2428 0.64638 0.92111 0.0
H713 H 0.22148 0.67133 0.81077 0.0
H714 H 0.22075 0.62146 0.85672 0.0
C715 C 0.25482 0.67786 0.94149 0.0
C716 C 0.34995 0.24631 0.905 0.0
C717 C 0.34853 0.26057 0.86154 0.0
H718 H 0.38125 0.23388 0.96684 0.0
C719 C 0.3789 0.27184 0.84643 0.0
H720 H 0.32714 0.23751 0.91782 0.0
C721 C 0.40972 0.26945 0.87421 0.0
C722 C 0.411 0.25576 0.91778 0.0
H723 H 0.37892 0.28289 0.81315 0.0
H724 H 0.43255 0.27883 0.862 0.0
C725 C 0.38088 0.24412 0.93296 0.0
C726 C 0.78402 0.33936 0.92318 0.0
C727 C 0.77163 0.33922 0.87573 0.0
H728 H 0.79378 0.36848 0.98845 0.0
C729 C 0.76002 0.37021 0.8584 0.0
H730 H 0.79298 0.31623 0.93817 0.0
C731 C 0.76048 0.39998 0.88712 0.0
C732 C 0.77251 0.40013 0.93446 0.0
H733 H 0.75019 0.37157 0.82227 0.0
H734 H 0.75126 0.42308 0.87222 0.0
C735 C 0.7844 0.36936 0.9521 0.0
C736 C 0.68971 0.25199 0.13011 0.0
C737 C 0.69156 0.25974 0.17827 0.0
H738 H 0.65739 0.24556 0.06549 0.0
C739 C 0.66119 0.26582 0.1981 0.0
H740 H 0.7125 0.24714 0.11368 0.0
C741 C 0.63006 0.2649 0.17074 0.0
C742 C 0.62827 0.25824 0.12264 0.0
H743 H 0.66138 0.27156 0.23504 0.0
H744 H 0.60724 0.26974 0.18716 0.0
C745 C 0.65827 0.25124 0.10253 0.0
C746 C 0.78364 0.68957 0.12709 0.0
C747 C 0.77237 0.68958 0.17154 0.0
H748 H 0.79235 0.66044 0.06441 0.0
C749 C 0.76164 0.65834 0.18627 0.0
H750 H 0.79195 0.71287 0.11413 0.0
C751 C 0.76192 0.62844 0.15789 0.0
C752 C 0.77288 0.62841 0.11348 0.0
H753 H 0.75272 0.65685 0.22004 0.0
H754 H 0.75342 0.60516 0.17074 0.0
C755 C 0.78383 0.65944 0.09849 0.0
C756 C 0.31896 0.78306 0.1189 0.0
C757 C 0.31653 0.76088 0.15458 0.0
H758 H 0.34944 0.80108 0.06835 0.0
C759 C 0.34363 0.73888 0.1654 0.0
H760 H 0.29861 0.80031 0.10962 0.0
C761 C 0.37233 0.73902 0.14162 0.0
C762 C 0.37518 0.76146 0.1065 0.0
H763 H 0.34273 0.72125 0.19243 0.0
H764 H 0.39269 0.72192 0.15149 0.0
C765 C 0.34814 0.78357 0.09543 0.0
C766 C 0.23025 0.31426 0.14815 0.0
C767 C 0.25258 0.31395 0.18935 0.0
H768 H 0.21162 0.34141 0.08828 0.0
C769 C 0.27403 0.34229 0.20033 0.0
H770 H 0.21335 0.29309 0.13821 0.0
C771 C 0.27339 0.36971 0.17153 0.0
C772 C 0.25094 0.37038 0.13058 0.0
H773 H 0.29176 0.34333 0.23145 0.0
H774 H 0.29025 0.39083 0.18198 0.0
C775 C 0.22921 0.34216 0.11951 0.0
C776 C 0.37281 0.22128 0.22409 0.0
C777 C 0.37074 0.2471 0.25889 0.0
H778 H 0.39787 0.20198 0.16674 0.0
C779 C 0.39639 0.27194 0.26526 0.0
H780 H 0.35383 0.20148 0.21833 0.0
C781 C 0.42207 0.27207 0.23529 0.0
C782 C 0.42238 0.24749 0.19841 0.0
H783 H 0.39551 0.29228 0.29151 0.0
H784 H 0.44042 0.29246 0.23924 0.0
C785 C 0.3981 0.22153 0.19433 0.0
C786 C 0.74833 0.40407 0.25963 0.0
C787 C 0.77363 0.37956 0.25962 0.0
H788 H 0.72915 0.44975 0.23096 0.0
C789 C 0.80203 0.38515 0.23625 0.0
H790 H 0.72621 0.40028 0.27746 0.0
C791 C 0.80366 0.41299 0.20956 0.0
C792 C 0.77687 0.43596 0.20555 0.0
H793 H 0.82208 0.36673 0.23612 0.0
H794 H 0.82472 0.41483 0.18914 0.0
C795 C 0.74991 0.43212 0.23263 0.0
C796 C 0.65472 0.77547 0.17164 0.0
C797 C 0.65483 0.76211 0.21573 0.0
H798 H 0.62634 0.78587 0.107 0.0
C799 C 0.62412 0.75001 0.22853 0.0
H800 H 0.6777 0.78504 0.16015 0.0
C801 C 0.59428 0.75098 0.19765 0.0
C802 C 0.59476 0.76358 0.15325 0.0
H803 H 0.62318 0.73964 0.2621 0.0
H804 H 0.57092 0.74148 0.20813 0.0
C805 C 0.62523 0.77605 0.14091 0.0
C806 C 0.25361 0.61555 0.22941 0.0
C807 C 0.24493 0.64488 0.20606 0.0
H808 H 0.2587 0.56164 0.22317 0.0
C809 C 0.23314 0.64212 0.15851 0.0
H810 H 0.26248 0.61696 0.26609 0.0
C811 C 0.23138 0.61095 0.13433 0.0
C812 C 0.24101 0.58187 0.15723 0.0
H813 H 0.2262 0.6642 0.1394 0.0
H814 H 0.22349 0.60963 0.09732 0.0
C815 C 0.25136 0.58407 0.20509 0.0
C816 C 0.39209 0.75072 0.80036 0.0
C817 C 0.36254 0.76313 0.81758 0.0
H818 H 0.44545 0.74156 0.81527 0.0
C819 C 0.36463 0.77542 0.86436 0.0
H820 H 0.39146 0.74115 0.76462 0.0
C821 C 0.39504 0.77506 0.89318 0.0
C822 C 0.42449 0.76268 0.87621 0.0
H823 H 0.34251 0.78501 0.87925 0.0
H824 H 0.39554 0.78436 0.92907 0.0
C825 C 0.4229 0.75082 0.82935 0.0
C826 C 0.27025 0.41135 0.80678 0.0
C827 C 0.26258 0.37909 0.8205 0.0
H828 H 0.27244 0.46456 0.82569 0.0
C829 C 0.25031 0.37594 0.86379 0.0
H830 H 0.27961 0.41454 0.77361 0.0
C831 C 0.24661 0.40411 0.89318 0.0
C832 C 0.25479 0.43612 0.87995 0.0
H833 H 0.24409 0.35155 0.87565 0.0
H834 H 0.23785 0.40086 0.92675 0.0
C835 C 0.26617 0.43982 0.83635 0.0
C836 C 0.63063 0.24323 0.80468 0.0
C837 C 0.65294 0.2708 0.80667 0.0
H838 H 0.58971 0.22001 0.83371 0.0
C839 C 0.65013 0.2971 0.84032 0.0
H840 H 0.63288 0.22219 0.77987 0.0
C841 C 0.62622 0.29551 0.87224 0.0
C842 C 0.60426 0.2675 0.87147 0.0
H843 H 0.66783 0.31808 0.84367 0.0
H844 H 0.62627 0.31559 0.899 0.0
C845 C 0.60633 0.24177 0.8363 0.0
C846 C 0.79686 0.63847 0.81114 0.0
C847 C 0.76676 0.64559 0.78367 0.0
H848 H 0.82139 0.60847 0.8628 0.0
C849 C 0.73976 0.62258 0.78043 0.0
H850 H 0.81827 0.65563 0.81379 0.0
C851 C 0.74168 0.59481 0.80838 0.0
C852 C 0.77056 0.58988 0.83999 0.0
H853 H 0.71633 0.62746 0.7593 0.0
H854 H 0.71982 0.57842 0.80721 0.0
C855 C 0.79874 0.61108 0.83908 0.0
loop_
_geom_bond_atom_site_label_1
_geom_bond_atom_site_label_2
_geom_bond_distance
_geom_bond_site_symmetry_2
_ccdc_geom_bond_type
C0 O2 1.247 . S
C0 O4 1.258 . S
C1 O8 1.247 . S
C1 O9 1.258 . S
O2 C0 1.247 . S
O2 Zn3 2.028 . S
Zn3 O2 2.028 . S
Zn3 O7 2.035 . S
Zn3 O9 2.035 . S
Zn3 O10 2.028 . S
O4 C0 1.258 . S
O4 Zn5 2.035 . S
Zn5 O4 2.035 . S
Zn5 O6 2.028 . S
Zn5 O8 2.028 . S
Zn5 O11 2.035 . S
O6 Zn5 2.028 . S
O6 C12 1.247 . S
O7 Zn3 2.035 . S
O7 C12 1.258 . S
O8 C1 1.247 . S
O8 Zn5 2.028 . S
O9 C1 1.258 . S
O9 Zn3 2.035 . S
O10 Zn3 2.028 . S
O10 C13 1.247 . S
O11 Zn5 2.035 . S
O11 C13 1.258 . S
C12 O6 1.247 . S
C12 O7 1.258 . S
C13 O10 1.247 . S
C13 O11 1.258 . S
C14 O16 1.247 . S
C14 O18 1.258 . S
C15 O22 1.247 . S
C15 O23 1.258 . S
O16 C14 1.247 . S
O16 Zn17 2.028 . S
Zn17 O16 2.028 . S
Zn17 O21 2.035 . S
Zn17 O23 2.035 . S
Zn17 O24 2.028 . S
O18 C14 1.258 . S
O18 Zn19 2.035 . S
Zn19 O18 2.035 . S
Zn19 O20 2.028 . S
Zn19 O22 2.028 . S
Zn19 O25 2.035 . S
O20 Zn19 2.028 . S
O20 C26 1.247 . S
O21 Zn17 2.035 . S
O21 C26 1.258 . S
O22 C15 1.247 . S
O22 Zn19 2.028 . S
O23 C15 1.258 . S
O23 Zn17 2.035 . S
O24 Zn17 2.028 . S
O24 C27 1.247 . S
O25 Zn19 2.035 . S
O25 C27 1.258 . S
C26 O20 1.247 . S
C26 O21 1.258 . S
C27 O24 1.247 . S
C27 O25 1.258 . S
C28 O30 1.247 . S
C28 O32 1.258 . S
C29 O36 1.247 . S
C29 O37 1.258 . S
O30 C28 1.247 . S
O30 Zn31 2.028 . S
Zn31 O30 2.028 . S
Zn31 O35 2.035 . S
Zn31 O37 2.035 . S
Zn31 O38 2.028 . S
O32 C28 1.258 . S
O32 Zn33 2.035 . S
Zn33 O32 2.035 . S
Zn33 O34 2.028 . S
Zn33 O36 2.028 . S
Zn33 O39 2.035 . S
O34 Zn33 2.028 . S
O34 C40 1.247 . S
O35 Zn31 2.035 . S
O35 C40 1.258 . S
O36 C29 1.247 . S
O36 Zn33 2.028 . S
O37 C29 1.258 . S
O37 Zn31 2.035 . S
O38 Zn31 2.028 . S
O38 C41 1.247 . S
O39 Zn33 2.035 . S
O39 C41 1.258 . S
C40 O34 1.247 . S
C40 O35 1.258 . S
C41 O38 1.247 . S
C41 O39 1.258 . S
C42 O44 1.247 . S
C42 O46 1.258 . S
C43 O50 1.247 . S
C43 O51 1.258 . S
O44 C42 1.247 . S
O44 Zn45 2.028 . S
Zn45 O44 2.028 . S
Zn45 O49 2.035 . S
Zn45 O51 2.035 . S
Zn45 O52 2.028 . S
O46 C42 1.258 . S
O46 Zn47 2.035 . S
Zn47 O46 2.035 . S
Zn47 O48 2.028 . S
Zn47 O50 2.028 . S
Zn47 O53 2.035 . S
O48 Zn47 2.028 . S
O48 C54 1.247 . S
O49 Zn45 2.035 . S
O49 C54 1.258 . S
O50 C43 1.247 . S
O50 Zn47 2.028 . S
O51 C43 1.258 . S
O51 Zn45 2.035 . S
O52 Zn45 2.028 . S
O52 C55 1.247 . S
O53 Zn47 2.035 . S
O53 C55 1.258 . S
C54 O48 1.247 . S
C54 O49 1.258 . S
C55 O52 1.247 . S
C55 O53 1.258 . S
C56 O58 1.247 . S
C56 O60 1.258 . S
C57 O64 1.247 . S
C57 O65 1.258 . S
O58 C56 1.247 . S
O58 Zn59 2.028 . S
Zn59 O58 2.028 . S
Zn59 O63 2.035 . S
Zn59 O65 2.035 . S
Zn59 O66 2.028 . S
O60 C56 1.258 . S
O60 Zn61 2.035 . S
Zn61 O60 2.035 . S
Zn61 O62 2.028 . S
Zn61 O64 2.028 . S
Zn61 O67 2.035 . S
O62 Zn61 2.028 . S
O62 C68 1.247 . S
O63 Zn59 2.035 . S
O63 C68 1.258 . S
O64 C57 1.247 . S
O64 Zn61 2.028 . S
O65 C57 1.258 . S
O65 Zn59 2.035 . S
O66 Zn59 2.028 . S
O66 C69 1.247 . S
O67 Zn61 2.035 . S
O67 C69 1.258 . S
C68 O62 1.247 . S
C68 O63 1.258 . S
C69 O66 1.247 . S
C69 O67 1.258 . S
C70 O72 1.247 . S
C70 O74 1.258 . S
C71 O78 1.247 . S
C71 O79 1.258 . S
O72 C70 1.247 . S
O72 Zn73 2.028 . S
Zn73 O72 2.028 . S
Zn73 O77 2.035 . S
Zn73 O79 2.035 . S
Zn73 O80 2.028 . S
O74 C70 1.258 . S
O74 Zn75 2.035 . S
Zn75 O74 2.035 . S
Zn75 O76 2.028 . S
Zn75 O78 2.028 . S
Zn75 O81 2.035 . S
O76 Zn75 2.028 . S
O76 C82 1.247 . S
O77 Zn73 2.035 . S
O77 C82 1.258 . S
O78 C71 1.247 . S
O78 Zn75 2.028 . S
O79 C71 1.258 . S
O79 Zn73 2.035 . S
O80 Zn73 2.028 . S
O80 C83 1.247 . S
O81 Zn75 2.035 . S
O81 C83 1.258 . S
C82 O76 1.247 . S
C82 O77 1.258 . S
C83 O80 1.247 . S
C83 O81 1.258 . S
C84 O86 1.247 . S
C84 O88 1.258 . S
C85 O92 1.247 . S
C85 O93 1.258 . S
O86 C84 1.247 . S
O86 Zn87 2.028 . S
Zn87 O86 2.028 . S
Zn87 O91 2.035 . S
Zn87 O93 2.035 . S
Zn87 O94 2.028 . S
O88 C84 1.258 . S
O88 Zn89 2.035 . S
Zn89 O88 2.035 . S
Zn89 O90 2.028 . S
Zn89 O92 2.028 . S
Zn89 O95 2.035 . S
O90 Zn89 2.028 . S
O90 C96 1.247 . S
O91 Zn87 2.035 . S
O91 C96 1.258 . S
O92 C85 1.247 . S
O92 Zn89 2.028 . S
O93 C85 1.258 . S
O93 Zn87 2.035 . S
O94 Zn87 2.028 . S
O94 C97 1.247 . S
O95 Zn89 2.035 . S
O95 C97 1.258 . S
C96 O90 1.247 . S
C96 O91 1.258 . S
C97 O94 1.247 . S
C97 O95 1.258 . S
C98 O100 1.247 . S
C98 O102 1.258 . S
C99 O106 1.247 . S
C99 O107 1.258 . S
O100 C98 1.247 . S
O100 Zn101 2.028 . S
Zn101 O100 2.028 . S
Zn101 O105 2.035 . S
Zn101 O107 2.035 . S
Zn101 O108 2.028 . S
O102 C98 1.258 . S
O102 Zn103 2.035 . S
Zn103 O102 2.035 . S
Zn103 O104 2.028 . S
Zn103 O106 2.028 . S
Zn103 O109 2.035 . S
O104 Zn103 2.028 . S
O104 C110 1.247 . S
O105 Zn101 2.035 . S
O105 C110 1.258 . S
O106 C99 1.247 . S
O106 Zn103 2.028 . S
O107 C99 1.258 . S
O107 Zn101 2.035 . S
O108 Zn101 2.028 . S
O108 C111 1.247 . S
O109 Zn103 2.035 . S
O109 C111 1.258 . S
C110 O104 1.247 . S
C110 O105 1.258 . S
C111 O108 1.247 . S
C111 O109 1.258 . S
C112 C113 1.443 . S
C112 N116 1.376 . S
C112 C150 1.389 . S
C113 C112 1.443 . S
C113 C114 1.340 . S
C113 H153 0.951 . S
C114 C113 1.340 . S
C114 C115 1.439 . S
C114 H154 0.950 . S
C115 C114 1.439 . S
C115 N116 1.374 . S
C115 C149 1.395 . S
N116 C112 1.376 . S
N116 C115 1.374 . S
N116 Co117 2.008 . S
Co117 N116 2.008 . S
Co117 N118 1.995 1_455 S
Co117 N123 2.008 1_455 S
Co117 N128 1.995 . S
Co117 N133 2.282 1_455 S
Co117 N139 2.282 . S
N118 Co117 1.995 1_655 S
N118 C119 1.376 . S
N118 C122 1.383 . S
C119 N118 1.376 . S
C119 C120 1.446 . S
C119 C149 1.391 1_655 S
C120 C119 1.446 . S
C120 C121 1.339 . S
C120 H155 0.949 . S
C121 C120 1.339 . S
C121 C122 1.439 . S
C121 H156 0.950 . S
C122 N118 1.383 . S
C122 C121 1.439 . S
C122 C151 1.392 . S
N123 Co117 2.008 1_655 S
N123 C124 1.376 . S
N123 C127 1.374 . S
C124 N123 1.376 . S
C124 C125 1.443 . S
C124 C151 1.389 . S
C125 C124 1.443 . S
C125 C126 1.340 . S
C125 H157 0.951 . S
C126 C125 1.340 . S
C126 C127 1.439 . S
C126 H158 0.950 . S
C127 N123 1.374 . S
C127 C126 1.439 . S
C127 C152 1.378 1_655 S
N128 Co117 1.995 . S
N128 C129 1.376 . S
N128 C132 1.383 . S
C129 N128 1.376 . S
C129 C130 1.446 . S
C129 C152 1.410 . S
C130 C129 1.446 . S
C130 C131 1.339 . S
C130 H159 0.949 . S
C131 C130 1.339 . S
C131 C132 1.439 . S
C131 H160 0.950 . S
C132 N128 1.383 . S
C132 C131 1.439 . S
C132 C150 1.392 . S
N133 Co117 2.282 1_655 S
N133 C136 1.332 . S
N133 C138 1.332 . S
C134 C135 1.386 . S
C134 C137 1.388 . S
C135 C134 1.386 . S
C135 C136 1.382 . S
C135 H161 0.950 . S
C136 N133 1.332 . S
C136 C135 1.382 . S
C136 H147 0.952 . S
C137 C134 1.388 . S
C137 C138 1.382 . S
C137 H162 0.950 . S
C138 N133 1.332 . S
C138 C137 1.382 . S
C138 H148 0.948 . S
N139 Co117 2.282 . S
N139 C143 1.332 . S
N139 C144 1.332 . S
C140 C141 1.388 . S
C140 C144 1.382 . S
C140 H163 0.950 . S
C141 C140 1.388 . S
C141 C142 1.386 . S
C142 C141 1.386 . S
C142 C143 1.382 . S
C142 H164 0.950 . S
C143 N139 1.332 . S
C143 C142 1.382 . S
C143 H145 0.952 . S
C144 N139 1.332 . S
C144 C140 1.382 . S
C144 H146 0.948 . S
H145 C143 0.952 . S
H146 C144 0.948 . S
H147 C136 0.952 . S
H148 C138 0.948 . S
C149 C115 1.395 . S
C149 C119 1.391 1_455 S
C150 C112 1.389 . S
C150 C132 1.392 . S
C151 C122 1.392 . S
C151 C124 1.389 . S
C152 C127 1.378 1_455 S
C152 C129 1.410 . S
H153 C113 0.951 . S
H154 C114 0.950 . S
H155 C120 0.949 . S
H156 C121 0.950 . S
H157 C125 0.951 . S
H158 C126 0.950 . S
H159 C130 0.949 . S
H160 C131 0.950 . S
H161 C135 0.950 . S
H162 C137 0.950 . S
H163 C140 0.950 . S
H164 C142 0.950 . S
C165 C166 1.443 . S
C165 N169 1.376 . S
C165 C203 1.389 . S
C166 C165 1.443 . S
C166 C167 1.340 . S
C166 H206 0.951 . S
C167 C166 1.340 . S
C167 C168 1.439 . S
C167 H207 0.950 . S
C168 C167 1.439 . S
C168 N169 1.374 . S
C168 C202 1.395 . S
N169 C165 1.376 . S
N169 C168 1.374 . S
N169 Co170 2.008 . S
Co170 N169 2.008 . S
Co170 N171 1.995 1_545 S
Co170 N176 2.008 1_545 S
Co170 N181 1.995 . S
Co170 N186 2.282 1_545 S
Co170 N192 2.282 . S
N171 Co170 1.995 1_565 S
N171 C172 1.376 . S
N171 C175 1.383 . S
C172 N171 1.376 . S
C172 C173 1.446 . S
C172 C202 1.391 1_565 S
C173 C172 1.446 . S
C173 C174 1.339 . S
C173 H208 0.949 . S
C174 C173 1.339 . S
C174 C175 1.439 . S
C174 H209 0.950 . S
C175 N171 1.383 . S
C175 C174 1.439 . S
C175 C204 1.392 . S
N176 Co170 2.008 1_565 S
N176 C177 1.376 . S
N176 C180 1.374 . S
C177 N176 1.376 . S
C177 C178 1.443 . S
C177 C204 1.389 . S
C178 C177 1.443 . S
C178 C179 1.340 . S
C178 H210 0.951 . S
C179 C178 1.340 . S
C179 C180 1.439 . S
C179 H211 0.950 . S
C180 N176 1.374 . S
C180 C179 1.439 . S
C180 C205 1.395 . S
N181 Co170 1.995 . S
N181 C182 1.376 . S
N181 C185 1.383 . S
C182 N181 1.376 . S
C182 C183 1.446 . S
C182 C205 1.391 1_545 S
C183 C182 1.446 . S
C183 C184 1.339 . S
C183 H212 0.949 . S
C184 C183 1.339 . S
C184 C185 1.439 . S
C184 H213 0.950 . S
C185 N181 1.383 . S
C185 C184 1.439 . S
C185 C203 1.392 . S
N186 Co170 2.282 1_565 S
N186 C189 1.332 . S
N186 C191 1.332 . S
C187 C188 1.386 . S
C187 C190 1.388 . S
C188 C187 1.386 . S
C188 C189 1.382 . S
C188 H214 0.950 . S
C189 N186 1.332 . S
C189 C188 1.382 . S
C189 H200 0.952 . S
C190 C187 1.388 . S
C190 C191 1.382 . S
C190 H215 0.950 . S
C191 N186 1.332 . S
C191 C190 1.382 . S
C191 H201 0.948 . S
N192 Co170 2.282 . S
N192 C196 1.332 . S
N192 C197 1.332 . S
C193 C194 1.388 . S
C193 C197 1.382 . S
C193 H216 0.950 . S
C194 C193 1.388 . S
C194 C195 1.386 . S
C195 C194 1.386 . S
C195 C196 1.382 . S
C195 H217 0.950 . S
C196 N192 1.332 . S
C196 C195 1.382 . S
C196 H198 0.952 . S
C197 N192 1.332 . S
C197 C193 1.382 . S
C197 H199 0.948 . S
H198 C196 0.952 . S
H199 C197 0.948 . S
H200 C189 0.952 . S
H201 C191 0.948 . S
C202 C168 1.395 . S
C202 C172 1.391 1_545 S
C203 C165 1.389 . S
C203 C185 1.392 . S
C204 C175 1.392 . S
C204 C177 1.389 . S
C205 C180 1.395 . S
C205 C182 1.391 1_565 S
H206 C166 0.951 . S
H207 C167 0.950 . S
H208 C173 0.949 . S
H209 C174 0.950 . S
H210 C178 0.951 . S
H211 C179 0.950 . S
H212 C183 0.949 . S
H213 C184 0.950 . S
H214 C188 0.950 . S
H215 C190 0.950 . S
H216 C193 0.950 . S
H217 C195 0.950 . S
C218 C219 1.443 . S
C218 N222 1.376 . S
C218 C256 1.389 . S
C219 C218 1.443 . S
C219 C220 1.340 . S
C219 H259 0.951 . S
C220 C219 1.340 . S
C220 C221 1.439 . S
C220 H260 0.950 . S
C221 C220 1.439 . S
C221 N222 1.374 . S
C221 C255 1.395 . S
N222 C218 1.376 . S
N222 C221 1.374 . S
N222 Co223 2.008 . S
Co223 N222 2.008 . S
Co223 N224 1.995 1_455 S
Co223 N229 2.008 1_455 S
Co223 N234 1.995 . S
Co223 N239 2.282 1_455 S
Co223 N245 2.282 . S
N224 Co223 1.995 1_655 S
N224 C225 1.376 . S
N224 C228 1.383 . S
C225 N224 1.376 . S
C225 C226 1.446 . S
C225 C255 1.391 1_655 S
C226 C225 1.446 . S
C226 C227 1.339 . S
C226 H261 0.949 . S
C227 C226 1.339 . S
C227 C228 1.439 . S
C227 H262 0.950 . S
C228 N224 1.383 . S
C228 C227 1.439 . S
C228 C257 1.392 . S
N229 Co223 2.008 1_655 S
N229 C230 1.376 . S
N229 C233 1.374 . S
C230 N229 1.376 . S
C230 C231 1.443 . S
C230 C257 1.389 . S
C231 C230 1.443 . S
C231 C232 1.340 . S
C231 H263 0.951 . S
C232 C231 1.340 . S
C232 C233 1.439 . S
C232 H264 0.950 . S
C233 N229 1.374 . S
C233 C232 1.439 . S
C233 C258 1.395 . S
N234 Co223 1.995 . S
N234 C235 1.376 . S
N234 C238 1.383 . S
C235 N234 1.376 . S
C235 C236 1.446 . S
C235 C258 1.391 1_455 S
C236 C235 1.446 . S
C236 C237 1.339 . S
C236 H265 0.949 . S
C237 C236 1.339 . S
C237 C238 1.439 . S
C237 H266 0.950 . S
C238 N234 1.383 . S
C238 C237 1.439 . S
C238 C256 1.392 . S
N239 Co223 2.282 1_655 S
N239 C242 1.332 . S
N239 C244 1.332 . S
C240 C241 1.386 . S
C240 C243 1.388 . S
C241 C240 1.386 . S
C241 C242 1.382 . S
C241 H267 0.950 . S
C242 N239 1.332 . S
C242 C241 1.382 . S
C242 H253 0.952 . S
C243 C240 1.388 . S
C243 C244 1.382 . S
C243 H268 0.950 . S
C244 N239 1.332 . S
C244 C243 1.382 . S
C244 H254 0.948 . S
N245 Co223 2.282 . S
N245 C249 1.332 . S
N245 C250 1.332 . S
C246 C247 1.388 . S
C246 C250 1.382 . S
C246 H269 0.950 . S
C247 C246 1.388 . S
C247 C248 1.386 . S
C248 C247 1.386 . S
C248 C249 1.382 . S
C248 H270 0.950 . S
C249 N245 1.332 . S
C249 C248 1.382 . S
C249 H251 0.952 . S
C250 N245 1.332 . S
C250 C246 1.382 . S
C250 H252 0.948 . S
H251 C249 0.952 . S
H252 C250 0.948 . S
H253 C242 0.952 . S
H254 C244 0.948 . S
C255 C221 1.395 . S
C255 C225 1.391 1_455 S
C256 C218 1.389 . S
C256 C238 1.392 . S
C257 C228 1.392 . S
C257 C230 1.389 . S
C258 C233 1.395 . S
C258 C235 1.391 1_655 S
H259 C219 0.951 . S
H260 C220 0.950 . S
H261 C226 0.949 . S
H262 C227 0.950 . S
H263 C231 0.951 . S
H264 C232 0.950 . S
H265 C236 0.949 . S
H266 C237 0.950 . S
H267 C241 0.950 . S
H268 C243 0.950 . S
H269 C246 0.950 . S
H270 C248 0.950 . S
C271 C272 1.443 . S
C271 N275 1.376 . S
C271 C309 1.389 . S
C272 C271 1.443 . S
C272 C273 1.340 . S
C272 H312 0.951 . S
C273 C272 1.340 . S
C273 C274 1.439 . S
C273 H313 0.950 . S
C274 C273 1.439 . S
C274 N275 1.374 . S
C274 C308 1.395 . S
N275 C271 1.376 . S
N275 C274 1.374 . S
N275 Co276 2.008 1_565 S
Co276 N275 2.008 1_545 S
Co276 N277 1.995 . S
Co276 N282 2.008 . S
Co276 N287 1.995 1_545 S
Co276 N292 2.282 . S
Co276 N298 2.282 1_545 S
N277 Co276 1.995 . S
N277 C278 1.376 . S
N277 C281 1.383 . S
C278 N277 1.376 . S
C278 C279 1.446 . S
C278 C308 1.391 1_545 S
C279 C278 1.446 . S
C279 C280 1.339 . S
C279 H314 0.949 . S
C280 C279 1.339 . S
C280 C281 1.439 . S
C280 H315 0.950 . S
C281 N277 1.383 . S
C281 C280 1.439 . S
C281 C310 1.392 . S
N282 Co276 2.008 . S
N282 C283 1.376 . S
N282 C286 1.374 . S
C283 N282 1.376 . S
C283 C284 1.443 . S
C283 C310 1.389 . S
C284 C283 1.443 . S
C284 C285 1.340 . S
C284 H316 0.951 . S
C285 C284 1.340 . S
C285 C286 1.439 . S
C285 H317 0.950 . S
C286 N282 1.374 . S
C286 C285 1.439 . S
C286 C311 1.395 . S
N287 Co276 1.995 1_565 S
N287 C288 1.376 . S
N287 C291 1.383 . S
C288 N287 1.376 . S
C288 C289 1.446 . S
C288 C311 1.391 1_565 S
C289 C288 1.446 . S
C289 C290 1.339 . S
C289 H318 0.949 . S
C290 C289 1.339 . S
C290 C291 1.439 . S
C290 H319 0.950 . S
C291 N287 1.383 . S
C291 C290 1.439 . S
C291 C309 1.392 . S
N292 Co276 2.282 . S
N292 C295 1.332 . S
N292 C297 1.332 . S
C293 C294 1.386 . S
C293 C296 1.388 . S
C294 C293 1.386 . S
C294 C295 1.382 . S
C294 H320 0.950 . S
C295 N292 1.332 . S
C295 C294 1.382 . S
C295 H306 0.952 . S
C296 C293 1.388 . S
C296 C297 1.382 . S
C296 H321 0.950 . S
C297 N292 1.332 . S
C297 C296 1.382 . S
C297 H307 0.948 . S
N298 Co276 2.282 1_565 S
N298 C302 1.332 . S
N298 C303 1.332 . S
C299 C300 1.388 . S
C299 C303 1.382 . S
C299 H322 0.950 . S
C300 C299 1.388 . S
C300 C301 1.386 . S
C301 C300 1.386 . S
C301 C302 1.382 . S
C301 H323 0.950 . S
C302 N298 1.332 . S
C302 C301 1.382 . S
C302 H304 0.952 . S
C303 N298 1.332 . S
C303 C299 1.382 . S
C303 H305 0.948 . S
H304 C302 0.952 . S
H305 C303 0.948 . S
H306 C295 0.952 . S
H307 C297 0.948 . S
C308 C274 1.395 . S
C308 C278 1.391 1_565 S
C309 C271 1.389 . S
C309 C291 1.392 . S
C310 C281 1.392 . S
C310 C283 1.389 . S
C311 C286 1.395 . S
C311 C288 1.391 1_545 S
H312 C272 0.951 . S
H313 C273 0.950 . S
H314 C279 0.949 . S
H315 C280 0.950 . S
H316 C284 0.951 . S
H317 C285 0.950 . S
H318 C289 0.949 . S
H319 C290 0.950 . S
H320 C294 0.950 . S
H321 C296 0.950 . S
H322 C299 0.950 . S
H323 C301 0.950 . S
C324 C325 1.443 . S
C324 N328 1.376 . S
C324 C362 1.389 . S
C325 C324 1.443 . S
C325 C326 1.340 . S
C325 H365 0.951 . S
C326 C325 1.340 . S
C326 C327 1.439 . S
C326 H366 0.950 . S
C327 C326 1.439 . S
C327 N328 1.374 . S
C327 C361 1.395 . S
N328 C324 1.376 . S
N328 C327 1.374 . S
N328 Co329 2.009 . S
Co329 N328 2.009 . S
Co329 N330 1.994 1_554 S
Co329 N335 2.008 1_554 S
Co329 N340 1.995 . S
Co329 N345 2.283 . S
Co329 N351 2.282 1_554 S
N330 Co329 1.994 1_556 S
N330 C331 1.376 . S
N330 C334 1.383 . S
C331 N330 1.376 . S
C331 C332 1.446 . S
C331 C361 1.391 1_556 S
C332 C331 1.446 . S
C332 C333 1.339 . S
C332 H367 0.949 . S
C333 C332 1.339 . S
C333 C334 1.439 . S
C333 H368 0.950 . S
C334 N330 1.383 . S
C334 C333 1.439 . S
C334 C363 1.392 . S
N335 Co329 2.008 1_556 S
N335 C336 1.376 . S
N335 C339 1.374 . S
C336 N335 1.376 . S
C336 C337 1.443 . S
C336 C363 1.389 . S
C337 C336 1.443 . S
C337 C338 1.340 . S
C337 H369 0.951 . S
C338 C337 1.340 . S
C338 C339 1.439 . S
C338 H370 0.950 . S
C339 N335 1.374 . S
C339 C338 1.439 . S
C339 C364 1.395 . S
N340 Co329 1.995 . S
N340 C341 1.376 . S
N340 C344 1.383 . S
C341 N340 1.376 . S
C341 C342 1.446 . S
C341 C364 1.391 1_554 S
C342 C341 1.446 . S
C342 C343 1.339 . S
C342 H371 0.949 . S
C343 C342 1.339 . S
C343 C344 1.439 . S
C343 H372 0.950 . S
C344 N340 1.383 . S
C344 C343 1.439 . S
C344 C362 1.392 . S
N345 Co329 2.283 . S
N345 C348 1.332 . S
N345 C350 1.332 . S
C346 C347 1.386 . S
C346 C349 1.388 . S
C347 C346 1.386 . S
C347 C348 1.382 . S
C347 H373 0.950 . S
C348 N345 1.332 . S
C348 C347 1.382 . S
C348 H359 0.952 . S
C349 C346 1.388 . S
C349 C350 1.382 . S
C349 H374 0.950 . S
C350 N345 1.332 . S
C350 C349 1.382 . S
C350 H360 0.948 . S
N351 Co329 2.282 1_556 S
N351 C355 1.332 . S
N351 C356 1.332 . S
C352 C353 1.388 . S
C352 C356 1.382 . S
C352 H375 0.950 . S
C353 C352 1.388 . S
C353 C354 1.386 . S
C354 C353 1.386 . S
C354 C355 1.382 . S
C354 H376 0.950 . S
C355 N351 1.332 . S
C355 C354 1.382 . S
C355 H357 0.952 . S
C356 N351 1.332 . S
C356 C352 1.382 . S
C356 H358 0.948 . S
H357 C355 0.952 . S
H358 C356 0.948 . S
H359 C348 0.952 . S
H360 C350 0.948 . S
C361 C327 1.395 . S
C361 C331 1.391 1_554 S
C362 C324 1.389 . S
C362 C344 1.392 . S
C363 C334 1.392 . S
C363 C336 1.389 . S
C364 C339 1.395 . S
C364 C341 1.391 1_556 S
H365 C325 0.951 . S
H366 C326 0.950 . S
H367 C332 0.949 . S
H368 C333 0.950 . S
H369 C337 0.951 . S
H370 C338 0.950 . S
H371 C342 0.949 . S
H372 C343 0.950 . S
H373 C347 0.950 . S
H374 C349 0.950 . S
H375 C352 0.950 . S
H376 C354 0.950 . S
C377 C378 1.443 . S
C377 N381 1.376 . S
C377 C415 1.389 . S
C378 C377 1.443 . S
C378 C379 1.340 . S
C378 H418 0.951 . S
C379 C378 1.340 . S
C379 C380 1.439 . S
C379 H419 0.950 . S
C380 C379 1.439 . S
C380 N381 1.374 . S
C380 C414 1.395 1_554 S
N381 C377 1.376 . S
N381 C380 1.374 . S
N381 Co382 2.008 . S
Co382 N381 2.008 . S
Co382 N383 1.995 1_554 S
Co382 N388 2.008 1_554 S
Co382 N393 1.995 . S
Co382 N398 2.282 . S
Co382 N404 2.282 1_554 S
N383 Co382 1.995 1_556 S
N383 C384 1.376 . S
N383 C387 1.383 . S
C384 N383 1.376 . S
C384 C385 1.446 . S
C384 C414 1.391 . S
C385 C384 1.446 . S
C385 C386 1.339 . S
C385 H420 0.949 . S
C386 C385 1.339 . S
C386 C387 1.439 . S
C386 H421 0.950 . S
C387 N383 1.383 . S
C387 C386 1.439 . S
C387 C416 1.392 . S
N388 Co382 2.008 1_556 S
N388 C389 1.376 . S
N388 C392 1.374 1_556 S
C389 N388 1.376 . S
C389 C390 1.443 . S
C389 C416 1.389 . S
C390 C389 1.443 . S
C390 C391 1.340 . S
C390 H422 0.951 . S
C391 C390 1.340 . S
C391 C392 1.439 1_556 S
C391 H423 0.950 . S
C392 N388 1.374 1_554 S
C392 C391 1.439 1_554 S
C392 C417 1.395 . S
N393 Co382 1.995 . S
N393 C394 1.376 . S
N393 C397 1.383 . S
C394 N393 1.376 . S
C394 C395 1.446 . S
C394 C417 1.391 . S
C395 C394 1.446 . S
C395 C396 1.339 . S
C395 H424 0.949 . S
C396 C395 1.339 . S
C396 C397 1.439 . S
C396 H425 0.950 . S
C397 N393 1.383 . S
C397 C396 1.439 . S
C397 C415 1.392 . S
N398 Co382 2.282 . S
N398 C401 1.332 . S
N398 C403 1.332 . S
C399 C400 1.386 . S
C399 C402 1.388 . S
C400 C399 1.386 . S
C400 C401 1.382 . S
C400 H426 0.950 . S
C401 N398 1.332 . S
C401 C400 1.382 . S
C401 H412 0.952 . S
C402 C399 1.388 . S
C402 C403 1.382 . S
C402 H427 0.950 . S
C403 N398 1.332 . S
C403 C402 1.382 . S
C403 H413 0.948 . S
N404 Co382 2.282 1_556 S
N404 C408 1.332 . S
N404 C409 1.332 . S
C405 C406 1.388 . S
C405 C409 1.382 . S
C405 H428 0.950 . S
C406 C405 1.388 . S
C406 C407 1.386 . S
C407 C406 1.386 . S
C407 C408 1.382 . S
C407 H429 0.950 . S
C408 N404 1.332 . S
C408 C407 1.382 . S
C408 H410 0.952 . S
C409 N404 1.332 . S
C409 C405 1.382 . S
C409 H411 0.948 . S
H410 C408 0.952 . S
H411 C409 0.948 . S
H412 C401 0.952 . S
H413 C403 0.948 . S
C414 C380 1.395 1_556 S
C414 C384 1.391 . S
C415 C377 1.389 . S
C415 C397 1.392 . S
C416 C387 1.392 . S
C416 C389 1.389 . S
C417 C392 1.395 . S
C417 C394 1.391 . S
H418 C378 0.951 . S
H419 C379 0.950 . S
H420 C385 0.949 . S
H421 C386 0.950 . S
H422 C390 0.951 . S
H423 C391 0.950 . S
H424 C395 0.949 . S
H425 C396 0.950 . S
H426 C400 0.950 . S
H427 C402 0.950 . S
H428 C405 0.950 . S
H429 C407 0.950 . S
C430 C431 1.443 . S
C430 N434 1.376 1_556 S
C430 C468 1.389 . S
C431 C430 1.443 . S
C431 C432 1.340 . S
C431 H471 0.951 . S
C432 C431 1.340 . S
C432 C433 1.439 1_556 S
C432 H472 0.950 . S
C433 C432 1.439 1_554 S
C433 N434 1.374 . S
C433 C467 1.395 . S
N434 C430 1.376 1_554 S
N434 C433 1.374 . S
N434 Co435 2.008 . S
Co435 N434 2.008 . S
Co435 N436 1.995 . S
Co435 N441 2.008 . S
Co435 N446 1.995 1_554 S
Co435 N451 2.282 1_554 S
Co435 N457 2.282 . S
N436 Co435 1.995 . S
N436 C437 1.376 . S
N436 C440 1.383 . S
C437 N436 1.376 . S
C437 C438 1.446 . S
C437 C467 1.391 . S
C438 C437 1.446 . S
C438 C439 1.339 . S
C438 H473 0.949 . S
C439 C438 1.339 . S
C439 C440 1.439 . S
C439 H474 0.950 . S
C440 N436 1.383 . S
C440 C439 1.439 . S
C440 C469 1.392 . S
N441 Co435 2.008 . S
N441 C442 1.376 . S
N441 C445 1.374 . S
C442 N441 1.376 . S
C442 C443 1.443 . S
C442 C469 1.389 . S
C443 C442 1.443 . S
C443 C444 1.340 . S
C443 H475 0.951 . S
C444 C443 1.340 . S
C444 C445 1.439 . S
C444 H476 0.950 . S
C445 N441 1.374 . S
C445 C444 1.439 . S
C445 C470 1.395 . S
N446 Co435 1.995 1_556 S
N446 C447 1.376 . S
N446 C450 1.383 . S
C447 N446 1.376 . S
C447 C448 1.446 . S
C447 C470 1.391 1_556 S
C448 C447 1.446 . S
C448 C449 1.339 . S
C448 H477 0.949 . S
C449 C448 1.339 . S
C449 C450 1.439 . S
C449 H478 0.950 . S
C450 N446 1.383 . S
C450 C449 1.439 . S
C450 C468 1.392 . S
N451 Co435 2.282 1_556 S
N451 C454 1.332 . S
N451 C456 1.332 . S
C452 C453 1.386 . S
C452 C455 1.388 . S
C453 C452 1.386 . S
C453 C454 1.382 . S
C453 H479 0.950 . S
C454 N451 1.332 . S
C454 C453 1.382 . S
C454 H465 0.952 . S
C455 C452 1.388 . S
C455 C456 1.382 . S
C455 H480 0.950 . S
C456 N451 1.332 . S
C456 C455 1.382 . S
C456 H466 0.948 . S
N457 Co435 2.282 . S
N457 C461 1.332 . S
N457 C462 1.332 . S
C458 C459 1.388 . S
C458 C462 1.382 . S
C458 H481 0.950 . S
C459 C458 1.388 . S
C459 C460 1.386 . S
C460 C459 1.386 . S
C460 C461 1.382 . S
C460 H482 0.950 . S
C461 N457 1.332 . S
C461 C460 1.382 . S
C461 H463 0.952 . S
C462 N457 1.332 . S
C462 C458 1.382 . S
C462 H464 0.948 . S
H463 C461 0.952 . S
H464 C462 0.948 . S
H465 C454 0.952 . S
H466 C456 0.948 . S
C467 C433 1.395 . S
C467 C437 1.391 . S
C468 C430 1.389 . S
C468 C450 1.392 . S
C469 C440 1.392 . S
C469 C442 1.389 . S
C470 C445 1.395 . S
C470 C447 1.391 1_554 S
H471 C431 0.951 . S
H472 C432 0.950 . S
H473 C438 0.949 . S
H474 C439 0.950 . S
H475 C443 0.951 . S
H476 C444 0.950 . S
H477 C448 0.949 . S
H478 C449 0.950 . S
H479 C453 0.950 . S
H480 C455 0.950 . S
H481 C458 0.950 . S
H482 C460 0.950 . S
C483 C484 1.443 . S
C483 N487 1.376 . S
C483 C521 1.389 . S
C484 C483 1.443 . S
C484 C485 1.340 . S
C484 H524 0.951 . S
C485 C484 1.340 . S
C485 C486 1.439 . S
C485 H525 0.950 . S
C486 C485 1.439 . S
C486 N487 1.374 . S
C486 C520 1.395 1_554 S
N487 C483 1.376 . S
N487 C486 1.374 . S
N487 Co488 2.008 . S
Co488 N487 2.008 . S
Co488 N489 1.995 1_554 S
Co488 N494 2.008 1_554 S
Co488 N499 1.995 . S
Co488 N504 2.282 . S
Co488 N510 2.282 1_554 S
N489 Co488 1.995 1_556 S
N489 C490 1.376 . S
N489 C493 1.383 . S
C490 N489 1.376 . S
C490 C491 1.446 . S
C490 C520 1.391 . S
C491 C490 1.446 . S
C491 C492 1.339 . S
C491 H526 0.949 . S
C492 C491 1.339 . S
C492 C493 1.439 . S
C492 H527 0.950 . S
C493 N489 1.383 . S
C493 C492 1.439 . S
C493 C522 1.392 . S
N494 Co488 2.008 1_556 S
N494 C495 1.376 . S
N494 C498 1.374 1_556 S
C495 N494 1.376 . S
C495 C496 1.443 . S
C495 C522 1.389 . S
C496 C495 1.443 . S
C496 C497 1.340 . S
C496 H528 0.951 . S
C497 C496 1.340 . S
C497 C498 1.439 1_556 S
C497 H529 0.950 . S
C498 N494 1.374 1_554 S
C498 C497 1.439 1_554 S
C498 C523 1.395 . S
N499 Co488 1.995 . S
N499 C500 1.376 . S
N499 C503 1.383 . S
C500 N499 1.376 . S
C500 C501 1.446 . S
C500 C523 1.391 . S
C501 C500 1.446 . S
C501 C502 1.339 . S
C501 H530 0.949 . S
C502 C501 1.339 . S
C502 C503 1.439 . S
C502 H531 0.950 . S
C503 N499 1.383 . S
C503 C502 1.439 . S
C503 C521 1.392 . S
N504 Co488 2.282 . S
N504 C507 1.332 . S
N504 C509 1.332 . S
C505 C506 1.386 . S
C505 C508 1.388 . S
C506 C505 1.386 . S
C506 C507 1.382 . S
C506 H532 0.950 . S
C507 N504 1.332 . S
C507 C506 1.382 . S
C507 H518 0.952 . S
C508 C505 1.388 . S
C508 C509 1.382 . S
C508 H533 0.950 . S
C509 N504 1.332 . S
C509 C508 1.382 . S
C509 H519 0.948 . S
N510 Co488 2.282 1_556 S
N510 C514 1.332 . S
N510 C515 1.332 . S
C511 C512 1.388 . S
C511 C515 1.382 . S
C511 H534 0.950 . S
C512 C511 1.388 . S
C512 C513 1.386 . S
C513 C512 1.386 . S
C513 C514 1.382 . S
C513 H535 0.950 . S
C514 N510 1.332 . S
C514 C513 1.382 . S
C514 H516 0.952 . S
C515 N510 1.332 . S
C515 C511 1.382 . S
C515 H517 0.948 . S
H516 C514 0.952 . S
H517 C515 0.948 . S
H518 C507 0.952 . S
H519 C509 0.948 . S
C520 C486 1.395 1_556 S
C520 C490 1.391 . S
C521 C483 1.389 . S
C521 C503 1.392 . S
C522 C493 1.392 . S
C522 C495 1.389 . S
C523 C498 1.395 . S
C523 C500 1.391 . S
H524 C484 0.951 . S
H525 C485 0.950 . S
H526 C491 0.949 . S
H527 C492 0.950 . S
H528 C496 0.951 . S
H529 C497 0.950 . S
H530 C501 0.949 . S
H531 C502 0.950 . S
H532 C506 0.950 . S
H533 C508 0.950 . S
H534 C511 0.950 . S
H535 C513 0.950 . S
C536 C537 1.387 . S
C536 H540 0.950 . S
C536 C545 1.390 . S
C537 C536 1.387 . S
C537 C539 1.387 . S
H538 C545 0.950 . S
C539 C537 1.387 . S
C539 C541 1.390 . S
C539 H543 0.950 . S
H540 C536 0.950 . S
C541 C539 1.390 . S
C541 C542 1.387 . S
C541 H544 0.950 . S
C542 C541 1.387 . S
C542 C545 1.387 . S
H543 C539 0.950 . S
H544 C541 0.950 . S
C545 C536 1.390 . S
C545 H538 0.950 . S
C545 C542 1.387 . S
C546 C547 1.387 . S
C546 H550 0.950 . S
C546 C555 1.390 . S
C547 C546 1.387 . S
C547 C549 1.387 . S
H548 C555 0.950 . S
C549 C547 1.387 . S
C549 C551 1.390 . S
C549 H553 0.950 . S
H550 C546 0.950 . S
C551 C549 1.390 . S
C551 C552 1.387 . S
C551 H554 0.950 . S
C552 C551 1.387 . S
C552 C555 1.387 . S
H553 C549 0.950 . S
H554 C551 0.950 . S
C555 C546 1.390 . S
C555 H548 0.950 . S
C555 C552 1.387 . S
C556 C557 1.387 . S
C556 H560 0.950 . S
C556 C565 1.390 . S
C557 C556 1.387 . S
C557 C559 1.387 . S
H558 C565 0.950 . S
C559 C557 1.387 . S
C559 C561 1.390 . S
C559 H563 0.950 . S
H560 C556 0.950 . S
C561 C559 1.390 . S
C561 C562 1.387 . S
C561 H564 0.950 . S
C562 C561 1.387 . S
C562 C565 1.387 . S
H563 C559 0.950 . S
H564 C561 0.950 . S
C565 C556 1.390 . S
C565 H558 0.950 . S
C565 C562 1.387 . S
C566 C567 1.387 . S
C566 H570 0.950 . S
C566 C575 1.390 . S
C567 C566 1.387 . S
C567 C569 1.387 . S
H568 C575 0.950 . S
C569 C567 1.387 . S
C569 C571 1.390 . S
C569 H573 0.950 . S
H570 C566 0.950 . S
C571 C569 1.390 . S
C571 C572 1.387 . S
C571 H574 0.950 . S
C572 C571 1.387 . S
C572 C575 1.387 . S
H573 C569 0.950 . S
H574 C571 0.950 . S
C575 C566 1.390 . S
C575 H568 0.950 . S
C575 C572 1.387 . S
C576 C577 1.387 . S
C576 H580 0.950 . S
C576 C585 1.390 . S
C577 C576 1.387 . S
C577 C579 1.387 . S
H578 C585 0.950 . S
C579 C577 1.387 . S
C579 C581 1.390 . S
C579 H583 0.950 . S
H580 C576 0.950 . S
C581 C579 1.390 . S
C581 C582 1.387 . S
C581 H584 0.950 . S
C582 C581 1.387 . S
C582 C585 1.387 . S
H583 C579 0.950 . S
H584 C581 0.950 . S
C585 C576 1.390 . S
C585 H578 0.950 . S
C585 C582 1.387 . S
C586 C587 1.387 . S
C586 H590 0.950 . S
C586 C595 1.390 . S
C587 C586 1.387 . S
C587 C589 1.387 . S
H588 C595 0.950 . S
C589 C587 1.387 . S
C589 C591 1.390 . S
C589 H593 0.950 . S
H590 C586 0.950 . S
C591 C589 1.390 . S
C591 C592 1.387 . S
C591 H594 0.950 . S
C592 C591 1.387 . S
C592 C595 1.387 . S
H593 C589 0.950 . S
H594 C591 0.950 . S
C595 C586 1.390 . S
C595 H588 0.950 . S
C595 C592 1.387 . S
C596 C597 1.387 . S
C596 H600 0.950 . S
C596 C605 1.390 . S
C597 C596 1.387 . S
C597 C599 1.387 . S
H598 C605 0.950 . S
C599 C597 1.387 . S
C599 C601 1.390 . S
C599 H603 0.950 . S
H600 C596 0.950 . S
C601 C599 1.390 . S
C601 C602 1.387 . S
C601 H604 0.950 . S
C602 C601 1.387 . S
C602 C605 1.387 . S
H603 C599 0.950 . S
H604 C601 0.950 . S
C605 C596 1.390 . S
C605 H598 0.950 . S
C605 C602 1.387 . S
C606 C607 1.387 . S
C606 H610 0.950 . S
C606 C615 1.390 . S
C607 C606 1.387 . S
C607 C609 1.387 . S
H608 C615 0.950 . S
C609 C607 1.387 . S
C609 C611 1.390 . S
C609 H613 0.950 . S
H610 C606 0.950 . S
C611 C609 1.390 . S
C611 C612 1.387 . S
C611 H614 0.950 . S
C612 C611 1.387 . S
C612 C615 1.387 . S
H613 C609 0.950 . S
H614 C611 0.950 . S
C615 C606 1.390 . S
C615 H608 0.950 . S
C615 C612 1.387 . S
C616 C617 1.387 . S
C616 H620 0.950 . S
C616 C625 1.390 . S
C617 C616 1.387 . S
C617 C619 1.387 . S
H618 C625 0.950 . S
C619 C617 1.387 . S
C619 C621 1.390 . S
C619 H623 0.950 . S
H620 C616 0.950 . S
C621 C619 1.390 . S
C621 C622 1.387 . S
C621 H624 0.950 . S
C622 C621 1.387 . S
C622 C625 1.387 . S
H623 C619 0.950 . S
H624 C621 0.950 . S
C625 C616 1.390 . S
C625 H618 0.950 . S
C625 C622 1.387 . S
C626 C627 1.387 . S
C626 H630 0.950 . S
C626 C635 1.390 . S
C627 C626 1.387 . S
C627 C629 1.387 . S
H628 C635 0.950 . S
C629 C627 1.387 . S
C629 C631 1.390 . S
C629 H633 0.950 . S
H630 C626 0.950 . S
C631 C629 1.390 . S
C631 C632 1.387 . S
C631 H634 0.950 . S
C632 C631 1.387 . S
C632 C635 1.387 . S
H633 C629 0.950 . S
H634 C631 0.950 . S
C635 C626 1.390 . S
C635 H628 0.950 . S
C635 C632 1.387 . S
C636 C637 1.387 . S
C636 H640 0.950 . S
C636 C645 1.390 . S
C637 C636 1.387 . S
C637 C639 1.387 . S
H638 C645 0.950 . S
C639 C637 1.387 . S
C639 C641 1.390 . S
C639 H643 0.950 . S
H640 C636 0.950 . S
C641 C639 1.390 . S
C641 C642 1.387 . S
C641 H644 0.950 . S
C642 C641 1.387 . S
C642 C645 1.387 . S
H643 C639 0.950 . S
H644 C641 0.950 . S
C645 C636 1.390 . S
C645 H638 0.950 . S
C645 C642 1.387 . S
C646 C647 1.387 . S
C646 H650 0.950 . S
C646 C655 1.390 . S
C647 C646 1.387 . S
C647 C649 1.387 . S
H648 C655 0.950 . S
C649 C647 1.387 . S
C649 C651 1.390 . S
C649 H653 0.950 . S
H650 C646 0.950 . S
C651 C649 1.390 . S
C651 C652 1.387 . S
C651 H654 0.950 . S
C652 C651 1.387 . S
C652 C655 1.387 . S
H653 C649 0.950 . S
H654 C651 0.950 . S
C655 C646 1.390 . S
C655 H648 0.950 . S
C655 C652 1.387 . S
C656 C657 1.387 . S
C656 H660 0.950 . S
C656 C665 1.390 . S
C657 C656 1.387 . S
C657 C659 1.387 . S
H658 C665 0.950 . S
C659 C657 1.387 . S
C659 C661 1.390 . S
C659 H663 0.950 . S
H660 C656 0.950 . S
C661 C659 1.390 . S
C661 C662 1.387 . S
C661 H664 0.950 . S
C662 C661 1.387 . S
C662 C665 1.387 . S
H663 C659 0.950 . S
H664 C661 0.950 . S
C665 C656 1.390 . S
C665 H658 0.950 . S
C665 C662 1.387 . S
C666 C667 1.387 . S
C666 H670 0.950 . S
C666 C675 1.390 . S
C667 C666 1.387 . S
C667 C669 1.387 . S
H668 C675 0.950 . S
C669 C667 1.387 . S
C669 C671 1.390 . S
C669 H673 0.950 . S
H670 C666 0.950 . S
C671 C669 1.390 . S
C671 C672 1.387 . S
C671 H674 0.950 . S
C672 C671 1.387 . S
C672 C675 1.387 . S
H673 C669 0.950 . S
H674 C671 0.950 . S
C675 C666 1.390 . S
C675 H668 0.950 . S
C675 C672 1.387 . S
C676 C677 1.387 . S
C676 H680 0.950 . S
C676 C685 1.390 . S
C677 C676 1.387 . S
C677 C679 1.387 . S
H678 C685 0.950 . S
C679 C677 1.387 . S
C679 C681 1.390 . S
C679 H683 0.950 . S
H680 C676 0.950 . S
C681 C679 1.390 . S
C681 C682 1.387 . S
C681 H684 0.950 . S
C682 C681 1.387 . S
C682 C685 1.387 . S
H683 C679 0.950 . S
H684 C681 0.950 . S
C685 C676 1.390 . S
C685 H678 0.950 . S
C685 C682 1.387 . S
C686 C687 1.387 . S
C686 H690 0.950 . S
C686 C695 1.390 . S
C687 C686 1.387 . S
C687 C689 1.387 . S
H688 C695 0.950 . S
C689 C687 1.387 . S
C689 C691 1.390 . S
C689 H693 0.950 . S
H690 C686 0.950 . S
C691 C689 1.390 . S
C691 C692 1.387 . S
C691 H694 0.950 . S
C692 C691 1.387 . S
C692 C695 1.387 . S
H693 C689 0.950 . S
H694 C691 0.950 . S
C695 C686 1.390 . S
C695 H688 0.950 . S
C695 C692 1.387 . S
C696 C697 1.387 . S
C696 H700 0.950 . S
C696 C705 1.390 . S
C697 C696 1.387 . S
C697 C699 1.387 . S
H698 C705 0.950 . S
C699 C697 1.387 . S
C699 C701 1.390 . S
C699 H703 0.950 . S
H700 C696 0.950 . S
C701 C699 1.390 . S
C701 C702 1.387 . S
C701 H704 0.950 . S
C702 C701 1.387 . S
C702 C705 1.387 . S
H703 C699 0.950 . S
H704 C701 0.950 . S
C705 C696 1.390 . S
C705 H698 0.950 . S
C705 C702 1.387 . S
C706 C707 1.387 . S
C706 H710 0.950 . S
C706 C715 1.390 . S
C707 C706 1.387 . S
C707 C709 1.387 . S
H708 C715 0.950 . S
C709 C707 1.387 . S
C709 C711 1.390 . S
C709 H713 0.950 . S
H710 C706 0.950 . S
C711 C709 1.390 . S
C711 C712 1.387 . S
C711 H714 0.950 . S
C712 C711 1.387 . S
C712 C715 1.387 . S
H713 C709 0.950 . S
H714 C711 0.950 . S
C715 C706 1.390 . S
C715 H708 0.950 . S
C715 C712 1.387 . S
C716 C717 1.387 . S
C716 H720 0.950 . S
C716 C725 1.390 . S
C717 C716 1.387 . S
C717 C719 1.387 . S
H718 C725 0.950 . S
C719 C717 1.387 . S
C719 C721 1.390 . S
C719 H723 0.950 . S
H720 C716 0.950 . S
C721 C719 1.390 . S
C721 C722 1.387 . S
C721 H724 0.950 . S
C722 C721 1.387 . S
C722 C725 1.387 . S
H723 C719 0.950 . S
H724 C721 0.950 . S
C725 C716 1.390 . S
C725 H718 0.950 . S
C725 C722 1.387 . S
C726 C727 1.387 . S
C726 H730 0.950 . S
C726 C735 1.390 . S
C727 C726 1.387 . S
C727 C729 1.387 . S
H728 C735 0.950 . S
C729 C727 1.387 . S
C729 C731 1.390 . S
C729 H733 0.950 . S
H730 C726 0.950 . S
C731 C729 1.390 . S
C731 C732 1.387 . S
C731 H734 0.950 . S
C732 C731 1.387 . S
C732 C735 1.387 . S
H733 C729 0.950 . S
H734 C731 0.950 . S
C735 C726 1.390 . S
C735 H728 0.950 . S
C735 C732 1.387 . S
C736 C737 1.387 . S
C736 H740 0.950 . S
C736 C745 1.390 . S
C737 C736 1.387 . S
C737 C739 1.387 . S
H738 C745 0.950 . S
C739 C737 1.387 . S
C739 C741 1.390 . S
C739 H743 0.950 . S
H740 C736 0.950 . S
C741 C739 1.390 . S
C741 C742 1.387 . S
C741 H744 0.950 . S
C742 C741 1.387 . S
C742 C745 1.387 . S
H743 C739 0.950 . S
H744 C741 0.950 . S
C745 C736 1.390 . S
C745 H738 0.950 . S
C745 C742 1.387 . S
C746 C747 1.387 . S
C746 H750 0.950 . S
C746 C755 1.390 . S
C747 C746 1.387 . S
C747 C749 1.387 . S
H748 C755 0.950 . S
C749 C747 1.387 . S
C749 C751 1.390 . S
C749 H753 0.950 . S
H750 C746 0.950 . S
C751 C749 1.390 . S
C751 C752 1.387 . S
C751 H754 0.950 . S
C752 C751 1.387 . S
C752 C755 1.387 . S
H753 C749 0.950 . S
H754 C751 0.950 . S
C755 C746 1.390 . S
C755 H748 0.950 . S
C755 C752 1.387 . S
C756 C757 1.387 . S
C756 H760 0.950 . S
C756 C765 1.390 . S
C757 C756 1.387 . S
C757 C759 1.387 . S
H758 C765 0.950 . S
C759 C757 1.387 . S
C759 C761 1.390 . S
C759 H763 0.950 . S
H760 C756 0.950 . S
C761 C759 1.390 . S
C761 C762 1.387 . S
C761 H764 0.950 . S
C762 C761 1.387 . S
C762 C765 1.387 . S
H763 C759 0.950 . S
H764 C761 0.950 . S
C765 C756 1.390 . S
C765 H758 0.950 . S
C765 C762 1.387 . S
C766 C767 1.387 . S
C766 H770 0.950 . S
C766 C775 1.390 . S
C767 C766 1.387 . S
C767 C769 1.387 . S
H768 C775 0.950 . S
C769 C767 1.387 . S
C769 C771 1.390 . S
C769 H773 0.950 . S
H770 C766 0.950 . S
C771 C769 1.390 . S
C771 C772 1.387 . S
C771 H774 0.950 . S
C772 C771 1.387 . S
C772 C775 1.387 . S
H773 C769 0.950 . S
H774 C771 0.950 . S
C775 C766 1.390 . S
C775 H768 0.950 . S
C775 C772 1.387 . S
C776 C777 1.387 . S
C776 H780 0.950 . S
C776 C785 1.390 . S
C777 C776 1.387 . S
C777 C779 1.387 . S
H778 C785 0.950 . S
C779 C777 1.387 . S
C779 C781 1.390 . S
C779 H783 0.950 . S
H780 C776 0.950 . S
C781 C779 1.390 . S
C781 C782 1.387 . S
C781 H784 0.950 . S
C782 C781 1.387 . S
C782 C785 1.387 . S
H783 C779 0.950 . S
H784 C781 0.950 . S
C785 C776 1.390 . S
C785 H778 0.950 . S
C785 C782 1.387 . S
C786 C787 1.387 . S
C786 H790 0.950 . S
C786 C795 1.390 . S
C787 C786 1.387 . S
C787 C789 1.387 . S
H788 C795 0.950 . S
C789 C787 1.387 . S
C789 C791 1.390 . S
C789 H793 0.950 . S
H790 C786 0.950 . S
C791 C789 1.390 . S
C791 C792 1.387 . S
C791 H794 0.950 . S
C792 C791 1.387 . S
C792 C795 1.387 . S
H793 C789 0.950 . S
H794 C791 0.950 . S
C795 C786 1.390 . S
C795 H788 0.950 . S
C795 C792 1.387 . S
C796 C797 1.387 . S
C796 H800 0.950 . S
C796 C805 1.390 . S
C797 C796 1.387 . S
C797 C799 1.387 . S
H798 C805 0.950 . S
C799 C797 1.387 . S
C799 C801 1.390 . S
C799 H803 0.950 . S
H800 C796 0.950 . S
C801 C799 1.390 . S
C801 C802 1.387 . S
C801 H804 0.950 . S
C802 C801 1.387 . S
C802 C805 1.387 . S
H803 C799 0.950 . S
H804 C801 0.950 . S
C805 C796 1.390 . S
C805 H798 0.950 . S
C805 C802 1.387 . S
C806 C807 1.387 . S
C806 H810 0.950 . S
C806 C815 1.390 . S
C807 C806 1.387 . S
C807 C809 1.387 . S
H808 C815 0.950 . S
C809 C807 1.387 . S
C809 C811 1.390 . S
C809 H813 0.950 . S
H810 C806 0.950 . S
C811 C809 1.390 . S
C811 C812 1.387 . S
C811 H814 0.950 . S
C812 C811 1.387 . S
C812 C815 1.387 . S
H813 C809 0.950 . S
H814 C811 0.950 . S
C815 C806 1.390 . S
C815 H808 0.950 . S
C815 C812 1.387 . S
C816 C817 1.387 . S
C816 H820 0.950 . S
C816 C825 1.390 . S
C817 C816 1.387 . S
C817 C819 1.387 . S
H818 C825 0.950 . S
C819 C817 1.387 . S
C819 C821 1.390 . S
C819 H823 0.950 . S
H820 C816 0.950 . S
C821 C819 1.390 . S
C821 C822 1.387 . S
C821 H824 0.950 . S
C822 C821 1.387 . S
C822 C825 1.387 . S
H823 C819 0.950 . S
H824 C821 0.950 . S
C825 C816 1.390 . S
C825 H818 0.950 . S
C825 C822 1.387 . S
C826 C827 1.387 . S
C826 H830 0.950 . S
C826 C835 1.390 . S
C827 C826 1.387 . S
C827 C829 1.387 . S
H828 C835 0.950 . S
C829 C827 1.387 . S
C829 C831 1.390 . S
C829 H833 0.950 . S
H830 C826 0.950 . S
C831 C829 1.390 . S
C831 C832 1.387 . S
C831 H834 0.950 . S
C832 C831 1.387 . S
C832 C835 1.387 . S
H833 C829 0.950 . S
H834 C831 0.950 . S
C835 C826 1.390 . S
C835 H828 0.950 . S
C835 C832 1.387 . S
C836 C837 1.387 . S
C836 H840 0.950 . S
C836 C845 1.390 . S
C837 C836 1.387 . S
C837 C839 1.387 . S
H838 C845 0.950 . S
C839 C837 1.387 . S
C839 C841 1.390 . S
C839 H843 0.950 . S
H840 C836 0.950 . S
C841 C839 1.390 . S
C841 C842 1.387 . S
C841 H844 0.950 . S
C842 C841 1.387 . S
C842 C845 1.387 . S
H843 C839 0.950 . S
H844 C841 0.950 . S
C845 C836 1.390 . S
C845 H838 0.950 . S
C845 C842 1.387 . S
C846 C847 1.387 . S
C846 H850 0.950 . S
C846 C855 1.390 . S
C847 C846 1.387 . S
C847 C849 1.387 . S
H848 C855 0.950 . S
C849 C847 1.387 . S
C849 C851 1.390 . S
C849 H853 0.950 . S
H850 C846 0.950 . S
C851 C849 1.390 . S
C851 C852 1.387 . S
C851 H854 0.950 . S
C852 C851 1.387 . S
C852 C855 1.387 . S
H853 C849 0.950 . S
H854 C851 0.950 . S
C855 C846 1.390 . S
C855 H848 0.950 . S
C855 C852 1.387 . S
C542 C141 1.527 . S
C537 C0 1.537 . S
C552 C194 1.352 . S
C547 C26 1.355 . S
C562 C257 1.614 . S
C557 C40 1.616 . S
C572 C300 1.296 . S
C567 C43 1.303 . S
C577 C57 1.615 . S
C582 C256 1.607 . S
C592 C293 1.386 . S
C587 C70 1.388 . S
C602 C134 1.530 . S
C597 C97 1.536 . S
C612 C187 1.264 . S
C607 C111 1.267 . S
C622 C240 1.477 . S
C617 C98 1.481 . S
C632 C309 1.844 . S
C627 C68 1.845 . S
C642 C150 1.584 . S
C637 C83 1.585 . S
C652 C203 1.754 . S
C647 C84 1.758 . S
C662 C151 1.564 . S
C657 C15 1.568 . S
C672 C204 1.844 . S
C667 C29 1.852 . S
C682 C247 1.494 . S
C677 C54 1.497 . S
C692 C310 1.741 . S
C687 C13 1.750 . S
C702 C353 1.484 . S
C697 C99 1.496 . S
C707 C69 1.710 . S
C712 C406 1.704 . S
C717 C82 1.663 . S
C722 C468 1.658 . S
C727 C85 1.709 . S
C732 C522 1.707 . S
C737 C14 1.573 . S
C742 C469 1.568 . S
C747 C28 1.802 . S
C752 C521 1.800 . S
C757 C55 1.576 . S
C762 C346 1.573 . S
C772 C399 1.627 . S
C767 C12 1.631 . S
C782 C459 1.451 . S
C777 C1 1.454 . S
C787 C27 1.409 . S
C792 C505 1.401 . S
C797 C41 1.621 . S
C802 C362 1.621 . S
C807 C42 1.348 . S
C812 C415 1.345 . S
C822 C363 1.529 . S
C817 C56 1.533 . S
C832 C416 1.451 . S
C827 C71 1.454 . S
C837 C96 1.528 . S
C842 C452 1.524 . S
C852 C512 1.315 . S
C847 C110 1.320 . S
