# Generated by pormake.
# Topology apo, (3,6)-cn, num edge types: 1
# Building blocks:
#     Node 0, Type 0, BuildingBlock: OLANEW_clean_sbu_2, # of connection points: 3
#     Node 1, Type 0, BuildingBlock: OLANEW_clean_sbu_2, # of connection points: 3
#     Node 2, Type 0, BuildingBlock: OLANEW_clean_sbu_2, # of connection points: 3
#     Node 3, Type 0, BuildingBlock: OLANEW_clean_sbu_2, # of connection points: 3
#     Node 4, Type 0, BuildingBlock: OLANEW_clean_sbu_2, # of connection points: 3
#     Node 5, Type 0, BuildingBlock: OLANEW_clean_sbu_2, # of connection points: 3
#     Node 6, Type 0, BuildingBlock: OLANEW_clean_sbu_2, # of connection points: 3
#     Node 7, Type 0, BuildingBlock: OLANEW_clean_sbu_2, # of connection points: 3
#     Node 8, Type 1, BuildingBlock: KUMJIN_clean_sbu_1, # of connection points: 6
#     Node 9, Type 1, BuildingBlock: KUMJIN_clean_sbu_1, # of connection points: 6
#     Node 10, Type 1, BuildingBlock: KUMJIN_clean_sbu_1, # of connection points: 6
#     Node 11, Type 1, BuildingBlock: KUMJIN_clean_sbu_1, # of connection points: 6
#     Edge 12, Type (0, 1), BuildingBlock: XUDNAN_clean_linker_2, # of connection points: 2
#     Edge 13, Type (0, 1), BuildingBlock: XUDNAN_clean_linker_2, # of connection points: 2
#     Edge 14, Type (0, 1), BuildingBlock: XUDNAN_clean_linker_2, # of connection points: 2
#     Edge 15, Type (0, 1), BuildingBlock: XUDNAN_clean_linker_2, # of connection points: 2
#     Edge 16, Type (0, 1), BuildingBlock: XUDNAN_clean_linker_2, # of connection points: 2
#     Edge 17, Type (0, 1), BuildingBlock: XUDNAN_clean_linker_2, # of connection points: 2
#     Edge 18, Type (0, 1), BuildingBlock: XUDNAN_clean_linker_2, # of connection points: 2
#     Edge 19, Type (0, 1), BuildingBlock: XUDNAN_clean_linker_2, # of connection points: 2
#     Edge 20, Type (0, 1), BuildingBlock: XUDNAN_clean_linker_2, # of connection points: 2
#     Edge 21, Type (0, 1), BuildingBlock: XUDNAN_clean_linker_2, # of connection points: 2
#     Edge 22, Type (0, 1), BuildingBlock: XUDNAN_clean_linker_2, # of connection points: 2
#     Edge 23, Type (0, 1), BuildingBlock: XUDNAN_clean_linker_2, # of connection points: 2
#     Edge 24, Type (0, 1), BuildingBlock: XUDNAN_clean_linker_2, # of connection points: 2
#     Edge 25, Type (0, 1), BuildingBlock: XUDNAN_clean_linker_2, # of connection points: 2
#     Edge 26, Type (0, 1), BuildingBlock: XUDNAN_clean_linker_2, # of connection points: 2
#     Edge 27, Type (0, 1), BuildingBlock: XUDNAN_clean_linker_2, # of connection points: 2
#     Edge 28, Type (0, 1), BuildingBlock: XUDNAN_clean_linker_2, # of connection points: 2
#     Edge 29, Type (0, 1), BuildingBlock: XUDNAN_clean_linker_2, # of connection points: 2
#     Edge 30, Type (0, 1), BuildingBlock: XUDNAN_clean_linker_2, # of connection points: 2
#     Edge 31, Type (0, 1), BuildingBlock: XUDNAN_clean_linker_2, # of connection points: 2
#     Edge 32, Type (0, 1), BuildingBlock: XUDNAN_clean_linker_2, # of connection points: 2
#     Edge 33, Type (0, 1), BuildingBlock: XUDNAN_clean_linker_2, # of connection points: 2
#     Edge 34, Type (0, 1), BuildingBlock: XUDNAN_clean_linker_2, # of connection points: 2
#     Edge 35, Type (0, 1), BuildingBlock: XUDNAN_clean_linker_2, # of connection points: 2
# Relax obj value: 0.030
# Max RMSD: 0.224
# Mean RMSD: 0.134
data_MOF--net-apo--node1-OLANEW_clean_sbu_2--node2-KUMJIN_clean_sbu_1--edge1-XUDNAN_clean_linker_2
_symmetry_space_group_name_H-M    P1
_symmetry_Int_Tables_number       1
_symmetry_cell_setting            triclinic
loop_
_symmetry_equiv_pos_as_xyz
'x, y, z'
_cell_length_a     28.652019
_cell_length_b     44.763557
_cell_length_c     56.076579
_cell_angle_alpha  88.688872
_cell_angle_beta   89.962141
_cell_angle_gamma 89.931154
loop_
_atom_site_label
_atom_site_type_symbol
_atom_site_fract_x
_atom_site_fract_y
_atom_site_fract_z
_atom_type_partial_charge
O0 O 0.29396 0.39003 0.35305 0.0
Cd1 Cd 0.24895 0.34941 0.37132 0.0
O2 O 0.32517 0.39287 0.38843 0.0
Cd3 Cd 0.37096 0.40901 0.41646 0.0
O4 O 0.40592 0.41852 0.44998 0.0
C5 C 0.38348 0.41358 0.46922 0.0
O6 O 0.34062 0.4033 0.46801 0.0
C7 C 0.32189 0.40285 0.36708 0.0
C8 C 0.22907 0.30363 0.34029 0.0
O9 O 0.20117 0.32583 0.34239 0.0
O10 O 0.26668 0.30335 0.35267 0.0
O11 O 0.20369 0.19667 0.95661 0.0
Cd12 Cd 0.1979 0.22921 0.9207 0.0
O13 O 0.20988 0.16096 0.93096 0.0
Cd14 Cd 0.21421 0.11604 0.91628 0.0
O15 O 0.20684 0.07599 0.895 0.0
C16 C 0.17233 0.07532 0.8808 0.0
O17 O 0.14353 0.09819 0.87997 0.0
C18 C 0.205 0.16887 0.9525 0.0
C19 C 0.27705 0.24677 0.89481 0.0
O20 O 0.25757 0.26451 0.90944 0.0
O21 O 0.26059 0.22027 0.89325 0.0
O22 O 0.82196 0.11394 0.63968 0.0
Cd23 Cd 0.78406 0.15639 0.61905 0.0
O24 O 0.83688 0.09506 0.60452 0.0
Cd25 Cd 0.82135 0.13304 0.58071 0.0
O26 O 0.83584 0.14655 0.54368 0.0
C27 C 0.85003 0.12504 0.53113 0.0
O28 O 0.85351 0.09835 0.54123 0.0
C29 C 0.83683 0.09255 0.62716 0.0
C30 C 0.75213 0.20366 0.6465 0.0
O31 O 0.72852 0.17945 0.64518 0.0
O32 O 0.79145 0.20509 0.63561 0.0
O33 O 0.69267 0.32138 0.06503 0.0
Cd34 Cd 0.69266 0.3197 0.10852 0.0
O35 O 0.71732 0.36789 0.06274 0.0
Cd36 Cd 0.72035 0.37568 0.10094 0.0
O37 O 0.7146 0.41022 0.12754 0.0
C38 C 0.68691 0.40902 0.14524 0.0
O39 O 0.66212 0.38473 0.14917 0.0
C40 C 0.70438 0.34422 0.05256 0.0
C41 C 0.77122 0.29131 0.12755 0.0
O42 O 0.7359 0.27624 0.12068 0.0
O43 O 0.76959 0.31985 0.12524 0.0
O44 O 0.72636 0.61062 0.63848 0.0
Cd45 Cd 0.76757 0.6457 0.61185 0.0
O46 O 0.71408 0.57547 0.61225 0.0
Cd47 Cd 0.74214 0.59771 0.5803 0.0
O48 O 0.75125 0.5933 0.54182 0.0
C49 C 0.7248 0.60633 0.52663 0.0
O50 O 0.69283 0.62503 0.53405 0.0
C51 C 0.71064 0.58498 0.63337 0.0
C52 C 0.79735 0.6956 0.63697 0.0
O53 O 0.75711 0.69496 0.62703 0.0
O54 O 0.82384 0.67271 0.63491 0.0
O55 O 0.81208 0.87866 0.14238 0.0
Cd56 Cd 0.77297 0.84223 0.11718 0.0
O57 O 0.80638 0.91449 0.11502 0.0
Cd58 Cd 0.78234 0.88548 0.08695 0.0
O59 O 0.7889 0.8738 0.04961 0.0
C60 C 0.79767 0.89597 0.03579 0.0
O61 O 0.80018 0.92271 0.0449 0.0
C62 C 0.81827 0.9058 0.13587 0.0
C63 C 0.70847 0.8063 0.14189 0.0
O64 O 0.75093 0.79788 0.13936 0.0
O65 O 0.69663 0.83179 0.13291 0.0
O66 O 0.22296 0.8937 0.3586 0.0
Cd67 Cd 0.23095 0.85021 0.38543 0.0
O68 O 0.18062 0.92102 0.38253 0.0
Cd69 Cd 0.18619 0.89006 0.41292 0.0
O70 O 0.18093 0.87112 0.44897 0.0
C71 C 0.19225 0.88773 0.46611 0.0
O72 O 0.20776 0.91481 0.46126 0.0
C73 C 0.19987 0.91738 0.36239 0.0
C74 C 0.26927 0.80485 0.35846 0.0
O75 O 0.22587 0.81147 0.35703 0.0
O76 O 0.29467 0.81889 0.37328 0.0
O77 O 0.27548 0.59936 0.86213 0.0
Cd78 Cd 0.22494 0.62938 0.88763 0.0
O79 O 0.28867 0.56508 0.8901 0.0
Cd80 Cd 0.26135 0.59245 0.91856 0.0
O81 O 0.27575 0.61808 0.9503 0.0
C82 C 0.2708 0.60628 0.97097 0.0
O83 O 0.25349 0.57917 0.97301 0.0
C84 C 0.2931 0.57433 0.86862 0.0
C85 C 0.1919 0.68262 0.86647 0.0
O86 O 0.22777 0.68247 0.88013 0.0
O87 O 0.17211 0.65758 0.86243 0.0
Eu88 Eu 0.07399 0.10932 0.19906 0.0
C89 C 0.88335 0.09468 0.23487 0.0
N90 N 0.9094 0.11971 0.23758 0.0
C91 C 0.84796 0.14948 0.22025 0.0
C92 C 0.83979 0.09586 0.22319 0.0
C93 C 0.89079 0.1471 0.23208 0.0
C94 C 0.82293 0.12366 0.21514 0.0
C95 C 0.87084 0.04232 0.24492 0.0
C96 C 0.89841 0.06832 0.24565 0.0
C97 C 0.82902 0.04283 0.23187 0.0
C98 C 0.81352 0.06956 0.22099 0.0
Eu99 Eu 0.98367 0.11303 0.25583 0.0
N100 N 0.93936 0.06847 0.25779 0.0
C101 C 0.8856 0.01689 0.25786 0.0
C102 C 0.9527 0.04436 0.27156 0.0
C103 C 0.92626 0.0181 0.2716 0.0
H104 H 0.90885 0.16727 0.23684 0.0
H105 H 0.93744 0.99876 0.28203 0.0
H106 H 0.1766 0.08619 0.22055 0.0
H107 H 0.03866 0.21047 0.14509 0.0
H108 H 0.9845 0.04531 0.2819 0.0
H109 H 0.86535 0.99647 0.2578 0.0
H110 H 0.0273 0.15801 0.15839 0.0
H111 H 0.83406 0.17126 0.21539 0.0
H112 H 0.80771 0.02294 0.2307 0.0
H113 H 0.78035 0.06991 0.21172 0.0
H114 H 0.25375 0.10761 0.23065 0.0
H115 H 0.78959 0.12558 0.20613 0.0
H116 H 0.10633 0.23906 0.15975 0.0
N117 N 0.14924 0.12755 0.20756 0.0
C118 C 0.1579 0.15655 0.20166 0.0
C119 C 0.22699 0.12166 0.22265 0.0
C120 C 0.20099 0.16981 0.20723 0.0
C121 C 0.18352 0.10959 0.2169 0.0
C122 C 0.23547 0.15205 0.21822 0.0
N123 N 0.08483 0.15803 0.18235 0.0
C124 C 0.05594 0.17064 0.16558 0.0
C125 C 0.13317 0.20209 0.18125 0.0
C126 C 0.12432 0.17243 0.18895 0.0
C127 C 0.1009 0.21627 0.16605 0.0
C128 C 0.06269 0.2002 0.15772 0.0
H129 H 0.26909 0.16138 0.22277 0.0
H130 H 0.24132 0.21073 0.20544 0.0
H131 H 0.18192 0.23903 0.18261 0.0
O132 O 0.09906 0.10673 0.16209 0.0
O133 O 0.09876 0.12648 0.23476 0.0
O134 O 0.03525 0.15084 0.25001 0.0
O135 O 0.09688 0.06655 0.18491 0.0
O136 O 0.00193 0.13018 0.19464 0.0
O137 O 0.99064 0.15298 0.23043 0.0
O138 O 0.99695 0.11002 0.2944 0.0
O139 O 0.99332 0.07196 0.23347 0.0
O140 O 0.00079 0.09101 0.19573 0.0
O141 O 0.93862 0.13552 0.28116 0.0
O142 O 0.05115 0.08792 0.2642 0.0
O143 O 0.08533 0.07335 0.22809 0.0
C144 C 0.08052 0.14781 0.24743 0.0
C145 C 0.12612 0.06037 0.14445 0.0
C146 C 0.14985 0.05568 0.10273 0.0
C147 C 0.16204 0.0257 0.10758 0.0
C148 C 0.13838 0.03034 0.14873 0.0
C149 C 0.15635 0.01321 0.1304 0.0
C150 C 0.13222 0.07303 0.1214 0.0
C151 C 0.98699 0.15276 0.2071 0.0
C152 C 0.10724 0.07822 0.16411 0.0
C153 C 0.20871 0.19997 0.201 0.0
C154 C 0.17482 0.2161 0.18805 0.0
C155 C 0.98642 0.06994 0.21051 0.0
C156 C 0.92896 0.11122 0.31838 0.0
C157 C 0.90284 0.10699 0.35978 0.0
C158 C 0.86962 0.08569 0.353 0.0
C159 C 0.89457 0.09059 0.31199 0.0
C160 C 0.93271 0.11964 0.34231 0.0
C161 C 0.8655 0.07766 0.32924 0.0
C162 C 0.07986 0.07113 0.25159 0.0
C163 C 0.95958 0.12482 0.30001 0.0
H164 H 0.17631 0.01191 0.09372 0.0
H165 H 0.13425 0.02007 0.16628 0.0
H166 H 0.16589 0.99012 0.1339 0.0
H167 H 0.12237 0.09608 0.11785 0.0
H168 H 0.84585 0.07586 0.366 0.0
H169 H 0.8895 0.08481 0.29363 0.0
H170 H 0.95861 0.13599 0.3473 0.0
H171 H 0.83917 0.06172 0.32412 0.0
Eu172 Eu 0.47007 0.38744 0.72977 0.0
C173 C 0.66928 0.41268 0.75823 0.0
N174 N 0.64647 0.38639 0.7619 0.0
C175 C 0.71058 0.35998 0.74459 0.0
C176 C 0.71253 0.41382 0.74624 0.0
C177 C 0.66797 0.36006 0.75678 0.0
C178 C 0.73241 0.38705 0.73874 0.0
C179 C 0.67544 0.46545 0.76657 0.0
C180 C 0.65121 0.43812 0.76829 0.0
C181 C 0.71696 0.46715 0.75328 0.0
C182 C 0.73546 0.44137 0.7431 0.0
Eu183 Eu 0.57219 0.38901 0.78062 0.0
N184 N 0.61068 0.43578 0.78073 0.0
C185 C 0.65783 0.48996 0.77881 0.0
C186 C 0.59477 0.45901 0.7939 0.0
C187 C 0.6178 0.48656 0.7929 0.0
H188 H 0.65213 0.33898 0.76192 0.0
H189 H 0.60451 0.50518 0.80284 0.0
H190 H 0.37143 0.40545 0.75739 0.0
H191 H 0.50966 0.28482 0.68202 0.0
H192 H 0.56357 0.45637 0.80459 0.0
H193 H 0.67547 0.51135 0.77797 0.0
H194 H 0.51565 0.33842 0.69048 0.0
H195 H 0.72664 0.33904 0.73983 0.0
H196 H 0.73575 0.48806 0.7514 0.0
H197 H 0.76836 0.44277 0.7336 0.0
H198 H 0.30125 0.38024 0.77422 0.0
H199 H 0.76557 0.38693 0.72944 0.0
H200 H 0.44969 0.25374 0.70238 0.0
N201 N 0.40062 0.36535 0.74439 0.0
C202 C 0.39495 0.33571 0.74095 0.0
C203 C 0.32744 0.36744 0.76499 0.0
C204 C 0.35597 0.32035 0.75039 0.0
C205 C 0.36686 0.38166 0.75537 0.0
C206 C 0.32228 0.33657 0.76278 0.0
N207 N 0.4631 0.33719 0.71738 0.0
C208 C 0.49063 0.32492 0.70027 0.0
C209 C 0.4218 0.29053 0.72239 0.0
C210 C 0.42759 0.32107 0.72727 0.0
C211 C 0.45286 0.27715 0.70658 0.0
C212 C 0.48679 0.29461 0.69508 0.0
H213 H 0.29174 0.32561 0.77025 0.0
H214 H 0.322 0.27726 0.75403 0.0
H215 H 0.3796 0.25112 0.72941 0.0
O216 O 0.44314 0.38985 0.69315 0.0
O217 O 0.45687 0.37075 0.76779 0.0
O218 O 0.52614 0.34844 0.77666 0.0
O219 O 0.42831 0.42532 0.71729 0.0
O220 O 0.54338 0.37266 0.72025 0.0
O221 O 0.56859 0.35003 0.75507 0.0
O222 O 0.56271 0.39062 0.81947 0.0
O223 O 0.55907 0.42958 0.7564 0.0
O224 O 0.53918 0.40962 0.72066 0.0
O225 O 0.62148 0.36732 0.80493 0.0
O226 O 0.50379 0.41224 0.79098 0.0
O227 O 0.46711 0.42606 0.75505 0.0
C228 C 0.48089 0.35004 0.77916 0.0
C229 C 0.44566 0.43934 0.67742 0.0
C230 C 0.46143 0.45376 0.63592 0.0
C231 C 0.48223 0.48025 0.64365 0.0
C232 C 0.46735 0.46582 0.68473 0.0
C233 C 0.4853 0.48613 0.66791 0.0
C234 C 0.4427 0.43351 0.65295 0.0
C235 C 0.56909 0.35274 0.73168 0.0
C236 C 0.42823 0.41713 0.69521 0.0
C237 C 0.35141 0.28957 0.74669 0.0
C238 C 0.38428 0.27468 0.73271 0.0
C239 C 0.55746 0.43111 0.73307 0.0
C240 C 0.63332 0.39015 0.84154 0.0
C241 C 0.66768 0.38954 0.88139 0.0
C242 C 0.69853 0.41235 0.87388 0.0
C243 C 0.66477 0.41264 0.83441 0.0
C244 C 0.6347 0.37878 0.86504 0.0
C245 C 0.69683 0.42386 0.85058 0.0
C246 C 0.47511 0.42934 0.77804 0.0
C247 C 0.60167 0.37672 0.82416 0.0
H248 H 0.49603 0.4965 0.63091 0.0
H249 H 0.47084 0.47084 0.70345 0.0
H250 H 0.50191 0.50643 0.6737 0.0
H251 H 0.42692 0.41287 0.64724 0.0
H252 H 0.72487 0.42081 0.8858 0.0
H253 H 0.66544 0.42103 0.81625 0.0
H254 H 0.61043 0.36134 0.87045 0.0
H255 H 0.72114 0.44109 0.84488 0.0
Eu256 Eu 0.05819 0.87593 0.72919 0.0
C257 C 0.846 0.88705 0.7606 0.0
N258 N 0.87779 0.90935 0.75774 0.0
C259 C 0.82011 0.94095 0.73926 0.0
C260 C 0.79979 0.8908 0.75242 0.0
C261 C 0.86552 0.93618 0.7476 0.0
C262 C 0.7871 0.91814 0.74161 0.0
C263 C 0.82803 0.83635 0.77385 0.0
C264 C 0.86011 0.86008 0.77116 0.0
C265 C 0.78196 0.84005 0.76575 0.0
C266 C 0.76789 0.86718 0.75508 0.0
Eu267 Eu 0.95302 0.89972 0.77285 0.0
N268 N 0.90531 0.85687 0.77838 0.0
C269 C 0.84314 0.80959 0.78467 0.0
C270 C 0.9195 0.83128 0.78993 0.0
C271 C 0.88894 0.80716 0.79292 0.0
H272 H 0.89044 0.95417 0.74657 0.0
H273 H 0.90061 0.78682 0.80188 0.0
H274 H 0.12985 0.83418 0.76302 0.0
H275 H 0.09064 0.98351 0.68299 0.0
H276 H 0.95384 0.82937 0.79743 0.0
H277 H 0.81956 0.79086 0.78707 0.0
H278 H 0.04856 0.93696 0.69153 0.0
H279 H 0.81051 0.96229 0.73121 0.0
H280 H 0.75692 0.82203 0.76766 0.0
H281 H 0.73225 0.86964 0.74888 0.0
H282 H 0.20858 0.83776 0.78087 0.0
H283 H 0.75193 0.92188 0.73512 0.0
H284 H 0.16658 0.99282 0.70229 0.0
N285 N 0.13273 0.8774 0.74676 0.0
C286 C 0.15876 0.90224 0.74192 0.0
C287 C 0.19488 0.85609 0.77007 0.0
C288 C 0.20387 0.90516 0.7516 0.0
C289 C 0.15026 0.8542 0.76016 0.0
C290 C 0.22172 0.88173 0.76588 0.0
N291 N 0.09592 0.92156 0.71845 0.0
C292 C 0.07962 0.94144 0.70158 0.0
C293 C 0.16605 0.95095 0.7224 0.0
C294 C 0.13959 0.92505 0.72769 0.0
C295 C 0.14733 0.97265 0.70682 0.0
C296 C 0.10432 0.96759 0.69603 0.0
H297 H 0.25625 0.88315 0.77363 0.0
H298 H 0.26425 0.93398 0.7542 0.0
H299 H 0.23137 0.97392 0.7285 0.0
O300 O 0.06552 0.87005 0.69076 0.0
O301 O 0.07623 0.89888 0.7639 0.0
O302 O 0.01441 0.93038 0.76666 0.0
O303 O 0.10087 0.83983 0.71519 0.0
O304 O 0.99845 0.90376 0.71347 0.0
O305 O 0.97461 0.93346 0.74429 0.0
O306 O 0.94662 0.89925 0.81182 0.0
O307 O 0.93297 0.87471 0.73959 0.0
O308 O 0.99622 0.84442 0.7325 0.0
O309 O 0.9221 0.93733 0.79107 0.0
O310 O 0.01063 0.86984 0.78849 0.0
O311 O 0.03568 0.8415 0.75696 0.0
C312 C 0.05715 0.92305 0.77232 0.0
C313 C 0.13918 0.85249 0.67887 0.0
C314 C 0.17647 0.85697 0.63984 0.0
C315 C 0.21905 0.86338 0.65101 0.0
C316 C 0.18228 0.8584 0.68974 0.0
C317 C 0.2219 0.86389 0.67584 0.0
C318 C 0.13663 0.85149 0.65391 0.0
C319 C 0.97705 0.92767 0.72143 0.0
C320 C 0.09621 0.84873 0.69308 0.0
C321 C 0.2296 0.93128 0.74685 0.0
C322 C 0.21077 0.95408 0.73229 0.0
C323 C 0.95183 0.85118 0.72984 0.0
C324 C 0.87855 0.92375 0.8255 0.0
C325 C 0.83689 0.91449 0.8628 0.0
C326 C 0.79554 0.9249 0.85213 0.0
C327 C 0.83661 0.93391 0.815 0.0
C328 C 0.8783 0.9138 0.84944 0.0
C329 C 0.79542 0.93435 0.82827 0.0
C330 C 0.03274 0.84653 0.77991 0.0
C331 C 0.92273 0.92405 0.81193 0.0
H332 H 0.25024 0.86758 0.64053 0.0
H333 H 0.18548 0.8589 0.70892 0.0
H334 H 0.2549 0.86859 0.68434 0.0
H335 H 0.1034 0.8471 0.64542 0.0
H336 H 0.76339 0.92566 0.86229 0.0
H337 H 0.83552 0.94178 0.79663 0.0
H338 H 0.91037 0.90609 0.85782 0.0
H339 H 0.76339 0.94229 0.82007 0.0
Eu340 Eu 0.44286 0.6044 0.22583 0.0
C341 C 0.62931 0.65587 0.26766 0.0
N342 N 0.61432 0.62788 0.26284 0.0
C343 C 0.68747 0.61678 0.24422 0.0
C344 C 0.67384 0.66572 0.26022 0.0
C345 C 0.64297 0.6081 0.25182 0.0
C346 C 0.70297 0.64573 0.2484 0.0
C347 C 0.61566 0.70332 0.28648 0.0
C348 C 0.60066 0.67431 0.28082 0.0
C349 C 0.65908 0.71371 0.27815 0.0
C350 C 0.68827 0.69486 0.26524 0.0
Eu351 Eu 0.54001 0.6143 0.27769 0.0
N352 N 0.55956 0.66328 0.28934 0.0
C353 C 0.58742 0.72061 0.30115 0.0
C354 C 0.53403 0.67913 0.30525 0.0
C355 C 0.54679 0.70826 0.3109 0.0
H356 H 0.63181 0.58547 0.24918 0.0
H357 H 0.52584 0.72089 0.32319 0.0
H358 H 0.3527 0.64386 0.24974 0.0
H359 H 0.44834 0.4883 0.19933 0.0
H360 H 0.50462 0.66909 0.31423 0.0
H361 H 0.59767 0.74301 0.30587 0.0
H362 H 0.47769 0.5399 0.20306 0.0
H363 H 0.70995 0.60104 0.23538 0.0
H364 H 0.67103 0.73597 0.28222 0.0
H365 H 0.72224 0.70288 0.25952 0.0
H366 H 0.27614 0.63385 0.2676 0.0
H367 H 0.73765 0.65233 0.24266 0.0
H368 H 0.371 0.47459 0.21587 0.0
N369 N 0.3677 0.59824 0.24301 0.0
C370 C 0.34977 0.57009 0.2421 0.0
C371 C 0.29678 0.61562 0.26084 0.0
C372 C 0.30482 0.56361 0.25116 0.0
C373 C 0.34104 0.62112 0.25123 0.0
C374 C 0.27879 0.58669 0.26107 0.0
N375 N 0.41894 0.55444 0.22278 0.0
C376 C 0.44455 0.53382 0.21092 0.0
C377 C 0.35717 0.51879 0.22919 0.0
C378 C 0.37564 0.54778 0.23129 0.0
C379 C 0.38399 0.49713 0.21781 0.0
C380 C 0.42777 0.50473 0.20855 0.0
H381 H 0.24419 0.58259 0.26823 0.0
H382 H 0.25228 0.52927 0.25637 0.0
H383 H 0.29785 0.49018 0.23692 0.0
O384 O 0.4561 0.60482 0.18736 0.0
O385 O 0.45366 0.56812 0.25448 0.0
O386 O 0.46672 0.59905 0.28495 0.0
O387 O 0.3877 0.61597 0.20055 0.0
O388 O 0.51594 0.58882 0.21753 0.0
O389 O 0.54538 0.5734 0.25432 0.0
O390 O 0.56879 0.61506 0.31388 0.0
O391 O 0.55477 0.63338 0.24047 0.0
O392 O 0.48212 0.64821 0.22779 0.0
O393 O 0.56251 0.57319 0.29593 0.0
O394 O 0.47029 0.63811 0.28449 0.0
O395 O 0.43531 0.64663 0.2474 0.0
C396 C 0.45295 0.57322 0.27737 0.0
C397 C 0.41282 0.64133 0.16594 0.0
C398 C 0.39512 0.6635 0.12676 0.0
C399 C 0.40396 0.69196 0.136 0.0
C400 C 0.42162 0.66986 0.17472 0.0
C401 C 0.41744 0.69501 0.15975 0.0
C402 C 0.40013 0.63818 0.14199 0.0
C403 C 0.54358 0.57207 0.2309 0.0
C404 C 0.41472 0.61495 0.18196 0.0
C405 C 0.2867 0.5346 0.24948 0.0
C406 C 0.31261 0.51235 0.23835 0.0
C407 C 0.52749 0.6521 0.22873 0.0
C408 C 0.62568 0.57826 0.32272 0.0
C409 C 0.68214 0.57207 0.35517 0.0
C410 C 0.71566 0.56294 0.33846 0.0
C411 C 0.65939 0.5683 0.30655 0.0
C412 C 0.63714 0.57999 0.34702 0.0
C413 C 0.7042 0.56097 0.31438 0.0
C414 C 0.44154 0.65311 0.27008 0.0
C415 C 0.57845 0.58667 0.31457 0.0
H416 H 0.3996 0.71201 0.12507 0.0
H417 H 0.43096 0.6727 0.19322 0.0
H418 H 0.42396 0.71699 0.16667 0.0
H419 H 0.39413 0.61597 0.13536 0.0
H420 H 0.75089 0.55736 0.34395 0.0
H421 H 0.65111 0.56595 0.28791 0.0
H422 H 0.61066 0.58691 0.35956 0.0
H423 H 0.73012 0.55361 0.30174 0.0
H424 H 0.15235 0.97048 0.36439 0.0
H425 H 0.23024 0.91459 0.31609 0.0
H426 H 0.21216 0.94973 0.2828 0.0
H427 H 0.06085 0.98829 0.32551 0.0
H428 H 0.05429 0.02633 0.33485 0.0
H429 H 0.07704 0.99843 0.35533 0.0
H430 H 0.15111 0.03054 0.36165 0.0
H431 H 0.12837 0.05866 0.34127 0.0
H432 H 0.18515 0.04264 0.33617 0.0
H433 H 0.18056 0.98886 0.25428 0.0
H434 H 0.13881 0.02938 0.23275 0.0
H435 H 0.08156 0.05946 0.29988 0.0
C436 C 0.16627 0.96582 0.34691 0.0
C437 C 0.19281 0.93978 0.34289 0.0
C438 C 0.21002 0.93445 0.31966 0.0
C439 C 0.19995 0.95428 0.30063 0.0
C440 C 0.17295 0.97943 0.30515 0.0
C441 C 0.15663 0.98537 0.32775 0.0
C442 C 0.12658 0.01321 0.32767 0.0
C443 C 0.07675 0.00612 0.33635 0.0
C444 C 0.14916 0.03771 0.34257 0.0
C445 C 0.12738 0.02148 0.30137 0.0
C446 C 0.15471 0.00193 0.28872 0.0
C447 C 0.15946 0.0045 0.26404 0.0
C448 C 0.1355 0.0276 0.25197 0.0
C449 C 0.10689 0.04774 0.26458 0.0
C450 C 0.10324 0.04462 0.28965 0.0
H451 H 0.33197 0.51863 0.87609 0.0
H452 H 0.31594 0.58958 0.82252 0.0
H453 H 0.36353 0.56074 0.79451 0.0
H454 H 0.45084 0.49963 0.86226 0.0
H455 H 0.4427 0.46 0.86694 0.0
H456 H 0.40735 0.48605 0.88307 0.0
H457 H 0.3323 0.46117 0.8671 0.0
H458 H 0.36746 0.43493 0.8511 0.0
H459 H 0.32477 0.45747 0.83539 0.0
H460 H 0.41176 0.52471 0.7723 0.0
H461 H 0.45585 0.48242 0.75631 0.0
H462 H 0.44201 0.43436 0.82406 0.0
C463 C 0.3384 0.52812 0.85846 0.0
C464 C 0.32021 0.55645 0.85152 0.0
C465 C 0.32938 0.56796 0.82826 0.0
C466 C 0.3565 0.55179 0.81224 0.0
C467 C 0.37417 0.52413 0.81972 0.0
C468 C 0.36535 0.51224 0.8422 0.0
C469 C 0.38797 0.48172 0.84552 0.0
C470 C 0.42438 0.48188 0.86564 0.0
C471 C 0.35091 0.45739 0.85004 0.0
C472 C 0.41096 0.47839 0.82138 0.0
C473 C 0.40244 0.50318 0.80684 0.0
C474 C 0.4187 0.5052 0.7835 0.0
C475 C 0.44361 0.48103 0.77459 0.0
C476 C 0.45222 0.45517 0.78897 0.0
C477 C 0.43634 0.45403 0.81281 0.0
H478 H 0.68985 0.5253 0.63145 0.0
H479 H 0.67845 0.60213 0.67702 0.0
H480 H 0.63625 0.57117 0.70701 0.0
H481 H 0.57987 0.49535 0.6429 0.0
H482 H 0.59618 0.45641 0.64428 0.0
H483 H 0.62918 0.48254 0.62611 0.0
H484 H 0.70616 0.4701 0.64762 0.0
H485 H 0.67577 0.44189 0.66497 0.0
H486 H 0.70848 0.47042 0.67975 0.0
H487 H 0.59389 0.53235 0.7315 0.0
H488 H 0.55766 0.48747 0.74992 0.0
H489 H 0.59767 0.43567 0.68877 0.0
C490 C 0.67862 0.53564 0.64776 0.0
C491 C 0.68726 0.5662 0.65185 0.0
C492 C 0.67228 0.57877 0.67351 0.0
C493 C 0.6482 0.56139 0.69062 0.0
C494 C 0.63981 0.53145 0.68587 0.0
C495 C 0.65506 0.51856 0.66512 0.0
C496 C 0.6419 0.4858 0.6645 0.0
C497 C 0.60986 0.47963 0.64319 0.0
C498 C 0.68569 0.46588 0.66419 0.0
C499 C 0.61611 0.48241 0.68796 0.0
C500 C 0.61551 0.509 0.70004 0.0
C501 C 0.59441 0.51139 0.72228 0.0
C502 C 0.5742 0.48577 0.73265 0.0
C503 C 0.57556 0.45815 0.72088 0.0
C504 C 0.59605 0.45659 0.69808 0.0
H505 H 0.82894 0.96635 0.12913 0.0
H506 H 0.86298 0.89291 0.17806 0.0
H507 H 0.91006 0.92719 0.20211 0.0
H508 H 0.93855 0.00156 0.12919 0.0
H509 H 0.91614 0.03921 0.1286 0.0
H510 H 0.88252 0.00959 0.11588 0.0
H511 H 0.81238 0.02241 0.14308 0.0
H512 H 0.8456 0.05233 0.15569 0.0
H513 H 0.82076 0.02372 0.1749 0.0
H514 H 0.95756 0.9682 0.21911 0.0
H515 H 0.99711 0.01465 0.23035 0.0
H516 H 0.93103 0.06211 0.17109 0.0
C517 C 0.84583 0.95751 0.14506 0.0
C518 C 0.84237 0.92687 0.15168 0.0
C519 C 0.86499 0.91626 0.17266 0.0
C520 C 0.89194 0.93554 0.18639 0.0
C521 C 0.89552 0.96539 0.17901 0.0
C522 C 0.87256 0.97647 0.15906 0.0
C523 C 0.88252 0.00948 0.15497 0.0
C524 C 0.90635 0.01528 0.13072 0.0
C525 C 0.83764 0.02808 0.1573 0.0
C526 C 0.91564 0.01504 0.17541 0.0
C527 C 0.92251 0.98927 0.18906 0.0
C528 C 0.95206 0.98856 0.20871 0.0
C529 C 0.97433 0.01504 0.21494 0.0
C530 C 0.96672 0.04191 0.20167 0.0
C531 C 0.93761 0.0418 0.18142 0.0
H532 H 0.86623 0.08221 0.67366 0.0
H533 H 0.84733 0.03915 0.60571 0.0
H534 H 0.87962 0.99245 0.62274 0.0
H535 H 0.97554 0.04785 0.68769 0.0
H536 H 0.96409 0.04346 0.71918 0.0
H537 H 0.9368 0.0734 0.7023 0.0
H538 H 0.85537 0.05495 0.71638 0.0
H539 H 0.88244 0.02494 0.73331 0.0
H540 H 0.83853 0.0168 0.71142 0.0
H541 H 0.9155 0.95083 0.64629 0.0
H542 H 0.95302 0.91645 0.67545 0.0
H543 H 0.95197 0.98632 0.72792 0.0
C544 C 0.86843 0.06285 0.66249 0.0
C545 C 0.8542 0.06438 0.63834 0.0
C546 C 0.85815 0.03862 0.62422 0.0
C547 C 0.87635 0.01191 0.63373 0.0
C548 C 0.89069 0.01123 0.65741 0.0
C549 C 0.887 0.03592 0.67167 0.0
C550 C 0.90664 0.02923 0.69634 0.0
C551 C 0.94824 0.04971 0.70168 0.0
C552 C 0.86846 0.03163 0.71549 0.0
C553 C 0.92218 0.99711 0.69354 0.0
C554 C 0.91231 0.98715 0.67098 0.0
C555 C 0.92336 0.95831 0.66405 0.0
C556 C 0.94485 0.939 0.68071 0.0
C557 C 0.95518 0.94863 0.70399 0.0
C558 C 0.94401 0.97819 0.71034 0.0
H559 H 0.63018 0.41523 0.18449 0.0
H560 H 0.72283 0.46474 0.1367 0.0
H561 H 0.70072 0.51152 0.15597 0.0
H562 H 0.53956 0.46712 0.18465 0.0
H563 H 0.52496 0.4621 0.21575 0.0
H564 H 0.55144 0.43201 0.19986 0.0
H565 H 0.61787 0.4291 0.23128 0.0
H566 H 0.59127 0.45927 0.24716 0.0
H567 H 0.65115 0.46217 0.23752 0.0
H568 H 0.66016 0.55331 0.17575 0.0
H569 H 0.60917 0.58734 0.19827 0.0
H570 H 0.54723 0.51139 0.23555 0.0
C571 C 0.64657 0.43582 0.17842 0.0
C572 C 0.67816 0.43627 0.15903 0.0
C573 C 0.6986 0.46374 0.15153 0.0
C574 C 0.68628 0.49049 0.16236 0.0
C575 C 0.65407 0.48939 0.18094 0.0
C576 C 0.63505 0.46276 0.18924 0.0
C577 C 0.5997 0.46805 0.20884 0.0
C578 C 0.55105 0.45665 0.20184 0.0
C579 C 0.61599 0.4538 0.23261 0.0
C580 C 0.60076 0.50185 0.20965 0.0
C581 C 0.63231 0.51368 0.19333 0.0
C582 C 0.63624 0.54436 0.18903 0.0
C583 C 0.60713 0.56346 0.20174 0.0
C584 C 0.57537 0.55177 0.21879 0.0
C585 C 0.57243 0.52068 0.22303 0.0
H586 H 0.35451 0.41467 0.32209 0.0
H587 H 0.34618 0.45159 0.39279 0.0
H588 H 0.38439 0.49772 0.37793 0.0
H589 H 0.4684 0.44945 0.30574 0.0
H590 H 0.45108 0.45586 0.27516 0.0
H591 H 0.42793 0.42436 0.2919 0.0
H592 H 0.34258 0.44241 0.2834 0.0
H593 H 0.36762 0.47213 0.2657 0.0
H594 H 0.32744 0.48066 0.28941 0.0
H595 H 0.41686 0.54118 0.35486 0.0
H596 H 0.44301 0.57912 0.32536 0.0
H597 H 0.42994 0.51448 0.26913 0.0
C598 C 0.36153 0.4323 0.3345 0.0
C599 C 0.34838 0.42934 0.35872 0.0
C600 C 0.35749 0.45295 0.3744 0.0
C601 C 0.37877 0.47936 0.36604 0.0
C602 C 0.39091 0.4817 0.34201 0.0
C603 C 0.38306 0.45872 0.32648 0.0
C604 C 0.39761 0.46747 0.30129 0.0
C605 C 0.4387 0.44813 0.29305 0.0
C606 C 0.35624 0.4656 0.28397 0.0
C607 C 0.41272 0.49949 0.30486 0.0
C608 C 0.40925 0.50702 0.32856 0.0
C609 C 0.42012 0.5355 0.33628 0.0
C610 C 0.43485 0.55691 0.31933 0.0
C611 C 0.43833 0.54986 0.29488 0.0
C612 C 0.42738 0.52064 0.28764 0.0
H613 H 0.09976 0.06686 0.85005 0.0
H614 H 0.22691 0.02513 0.87663 0.0
H615 H 0.21287 0.98196 0.85082 0.0
H616 H 0.03213 0.00032 0.84757 0.0
H617 H 0.00181 0.0116 0.82069 0.0
H618 H 0.02285 0.03942 0.84069 0.0
H619 H 0.06924 0.06475 0.80603 0.0
H620 H 0.04832 0.03696 0.78593 0.0
H621 H 0.11016 0.04294 0.78925 0.0
H622 H 0.18345 0.9427 0.82245 0.0
H623 H 0.14046 0.91061 0.79468 0.0
H624 H 0.03346 0.97885 0.78689 0.0
C625 C 0.12483 0.04873 0.85043 0.0
C626 C 0.16448 0.0494 0.86536 0.0
C627 C 0.19627 0.02511 0.86534 0.0
C628 C 0.18864 0.00053 0.85071 0.0
C629 C 0.1491 0.00061 0.83622 0.0
C630 C 0.11774 0.0241 0.83602 0.0
C631 C 0.07746 0.01859 0.81926 0.0
C632 C 0.03082 0.01741 0.83287 0.0
C633 C 0.07626 0.04221 0.79891 0.0
C634 C 0.09081 0.98823 0.81017 0.0
C635 C 0.13232 0.97821 0.82003 0.0
C636 C 0.15107 0.95044 0.81451 0.0
C637 C 0.12655 0.93243 0.79863 0.0
C638 C 0.08385 0.94232 0.78843 0.0
C639 C 0.06605 0.97064 0.79431 0.0
H640 H 0.22115 0.17562 0.00046 0.0
H641 H 0.16689 0.113 0.94951 0.0
H642 H 0.14978 0.07714 0.98211 0.0
H643 H 0.27219 0.12066 0.04204 0.0
H644 H 0.25502 0.14079 0.06811 0.0
H645 H 0.26672 0.16079 0.04051 0.0
H646 H 0.18457 0.1849 0.04222 0.0
H647 H 0.17248 0.16476 0.06971 0.0
H648 H 0.13382 0.16124 0.04459 0.0
H649 H 0.13528 0.04874 0.02008 0.0
H650 H 0.12498 0.02931 0.06123 0.0
H651 H 0.18563 0.11055 0.08844 0.0
C652 C 0.20636 0.15416 0.99615 0.0
C653 C 0.19733 0.14667 0.97219 0.0
C654 C 0.17679 0.11867 0.96741 0.0
C655 C 0.16607 0.09829 0.98593 0.0
C656 C 0.17551 0.10631 0.00927 0.0
C657 C 0.19514 0.13355 0.01451 0.0
C658 C 0.19997 0.13697 0.04128 0.0
C659 C 0.25154 0.13997 0.0484 0.0
C660 C 0.17098 0.16354 0.04995 0.0
C661 C 0.17971 0.10746 0.0502 0.0
C662 C 0.16598 0.09013 0.03138 0.0
C663 C 0.14615 0.06201 0.03497 0.0
C664 C 0.1406 0.05113 0.05842 0.0
C665 C 0.15473 0.0683 0.07807 0.0
C666 C 0.17421 0.09697 0.07381 0.0
H667 H 0.34235 0.40897 0.51328 0.0
H668 H 0.47305 0.43174 0.4781 0.0
H669 H 0.50821 0.44248 0.51718 0.0
H670 H 0.3465 0.46589 0.55633 0.0
H671 H 0.32136 0.44314 0.57995 0.0
H672 H 0.30721 0.4359 0.54935 0.0
H673 H 0.33477 0.38104 0.55518 0.0
H674 H 0.34906 0.38813 0.58581 0.0
H675 H 0.39285 0.37353 0.56613 0.0
H676 H 0.52829 0.45231 0.5599 0.0
H677 H 0.53167 0.46091 0.60322 0.0
H678 H 0.38762 0.43218 0.61034 0.0
C679 C 0.37847 0.41602 0.51377 0.0
C680 C 0.40497 0.41949 0.49262 0.0
C681 C 0.45205 0.42894 0.49406 0.0
C682 C 0.47236 0.43503 0.51618 0.0
C683 C 0.44516 0.43153 0.53665 0.0
C684 C 0.39925 0.42223 0.53565 0.0
C685 C 0.37718 0.42111 0.5602 0.0
C686 C 0.33561 0.44281 0.56153 0.0
C687 C 0.36262 0.38904 0.56724 0.0
C688 C 0.41773 0.43149 0.57516 0.0
C689 C 0.45667 0.43727 0.56125 0.0
C690 C 0.49805 0.44781 0.57098 0.0
C691 C 0.49954 0.45279 0.59555 0.0
C692 C 0.45987 0.44728 0.61011 0.0
C693 C 0.41864 0.43625 0.59972 0.0
H694 H 0.71162 0.39206 0.02161 0.0
H695 H 0.68704 0.29634 0.02406 0.0
H696 H 0.67577 0.29722 0.98032 0.0
H697 H 0.62529 0.40976 0.97837 0.0
H698 H 0.659 0.43887 0.96384 0.0
H699 H 0.66779 0.43036 0.99504 0.0
H700 H 0.75593 0.42157 0.98736 0.0
H701 H 0.74746 0.43022 0.95614 0.0
H702 H 0.77367 0.39518 0.96529 0.0
H703 H 0.66573 0.30901 0.93628 0.0
H704 H 0.65818 0.3306 0.89556 0.0
H705 H 0.68552 0.41888 0.9229 0.0
C706 C 0.70441 0.37117 0.01298 0.0
C707 C 0.70041 0.34409 0.02626 0.0
C708 C 0.69036 0.31734 0.01425 0.0
C709 C 0.68391 0.31762 0.98942 0.0
C710 C 0.68746 0.34482 0.97695 0.0
C711 C 0.69752 0.37108 0.98834 0.0
C712 C 0.698 0.39752 0.97105 0.0
C713 C 0.66027 0.42047 0.97746 0.0
C714 C 0.74666 0.41196 0.9699 0.0
C715 C 0.68642 0.38207 0.94812 0.0
C716 C 0.68068 0.35168 0.95182 0.0
C717 C 0.66999 0.33281 0.93319 0.0
C718 C 0.66534 0.34534 0.91015 0.0
C719 C 0.67108 0.37649 0.90595 0.0
C720 C 0.68149 0.39496 0.92535 0.0
H721 H 0.8698 0.08185 0.49913 0.0
H722 H 0.85746 0.17799 0.50536 0.0
H723 H 0.87715 0.18438 0.46252 0.0
H724 H 0.96599 0.08183 0.45659 0.0
H725 H 0.94273 0.05064 0.44069 0.0
H726 H 0.93129 0.05401 0.47212 0.0
H727 H 0.84227 0.05143 0.46411 0.0
H728 H 0.85343 0.04789 0.43273 0.0
H729 H 0.81621 0.07744 0.443 0.0
H730 H 0.89523 0.17966 0.41824 0.0
H731 H 0.90409 0.16415 0.37633 0.0
H732 H 0.90322 0.07122 0.39986 0.0
C733 C 0.87169 0.10432 0.49162 0.0
C734 C 0.8623 0.12945 0.50563 0.0
C735 C 0.86458 0.15841 0.49497 0.0
C736 C 0.87596 0.16225 0.47069 0.0
C737 C 0.88492 0.1369 0.45738 0.0
C738 C 0.88267 0.10851 0.46751 0.0
C739 C 0.89091 0.08476 0.44922 0.0
C740 C 0.93538 0.06676 0.45501 0.0
C741 C 0.84816 0.06418 0.44714 0.0
C742 C 0.89724 0.10414 0.42704 0.0
C743 C 0.89441 0.13418 0.43208 0.0
C744 C 0.89782 0.15621 0.41415 0.0
C745 C 0.90311 0.14723 0.39044 0.0
C746 C 0.90435 0.11652 0.38492 0.0
C747 C 0.9023 0.09485 0.40358 0.0
H748 H 0.80424 0.93971 0.00131 0.0
H749 H 0.80988 0.84344 0.01208 0.0
H750 H 0.82497 0.8376 0.96896 0.0
H751 H 0.7438 0.93946 0.94626 0.0
H752 H 0.77492 0.97108 0.93372 0.0
H753 H 0.76723 0.96746 0.96551 0.0
H754 H 0.8568 0.97096 0.97139 0.0
H755 H 0.86479 0.97448 0.93958 0.0
H756 H 0.89455 0.9453 0.95625 0.0
H757 H 0.83934 0.84264 0.92435 0.0
H758 H 0.84572 0.85809 0.88162 0.0
H759 H 0.82713 0.95057 0.9006 0.0
C760 C 0.80886 0.91737 0.99468 0.0
C761 C 0.80603 0.89202 0.01005 0.0
C762 C 0.81187 0.86318 0.00059 0.0
C763 C 0.82066 0.85965 0.97617 0.0
C764 C 0.82331 0.88519 0.96152 0.0
C765 C 0.81726 0.91347 0.97043 0.0
C766 C 0.81977 0.93727 0.95091 0.0
C767 C 0.77368 0.95484 0.94899 0.0
C768 C 0.86146 0.95823 0.95477 0.0
C769 C 0.82736 0.91798 0.9295 0.0
C770 C 0.83013 0.88802 0.93596 0.0
C771 C 0.8372 0.86602 0.9191 0.0
C772 C 0.84088 0.87491 0.89499 0.0
C773 C 0.83677 0.90538 0.88815 0.0
C774 C 0.83028 0.92712 0.90558 0.0
H775 H 0.68019 0.63338 0.48838 0.0
H776 H 0.77337 0.56007 0.50748 0.0
H777 H 0.7724 0.54361 0.46585 0.0
H778 H 0.61004 0.59416 0.44719 0.0
H779 H 0.60394 0.62516 0.42634 0.0
H780 H 0.61269 0.63196 0.45755 0.0
H781 H 0.68507 0.66451 0.44742 0.0
H782 H 0.67631 0.65802 0.41616 0.0
H783 H 0.73163 0.64911 0.42987 0.0
H784 H 0.75813 0.53336 0.42293 0.0
H785 H 0.7359 0.53192 0.38058 0.0
H786 H 0.65504 0.61328 0.38848 0.0
C787 C 0.70068 0.61401 0.48377 0.0
C788 C 0.72684 0.59801 0.50123 0.0
C789 C 0.75322 0.57279 0.49444 0.0
C790 C 0.75278 0.56317 0.47084 0.0
C791 C 0.72617 0.57918 0.45416 0.0
C792 C 0.70102 0.60425 0.4602 0.0
C793 C 0.67552 0.61744 0.43872 0.0
C794 C 0.6224 0.61715 0.4427 0.0
C795 C 0.6932 0.64915 0.43269 0.0
C796 C 0.68981 0.59561 0.41978 0.0
C797 C 0.71892 0.57369 0.42912 0.0
C798 C 0.7359 0.55064 0.41531 0.0
C799 C 0.72326 0.55014 0.3912 0.0
C800 C 0.69417 0.57269 0.381 0.0
C801 C 0.67711 0.59561 0.39566 0.0
H802 H 0.26122 0.58917 0.01803 0.0
H803 H 0.32324 0.65734 0.97171 0.0
H804 H 0.36052 0.67994 0.00658 0.0
H805 H 0.23847 0.63801 0.06822 0.0
H806 H 0.25198 0.60924 0.09016 0.0
H807 H 0.2285 0.59931 0.06163 0.0
H808 H 0.29919 0.56429 0.05499 0.0
H809 H 0.32315 0.57436 0.08337 0.0
H810 H 0.35751 0.57919 0.05662 0.0
H811 H 0.39623 0.6926 0.04593 0.0
H812 H 0.42281 0.69699 0.08745 0.0
H813 H 0.33335 0.62257 0.10852 0.0
C814 C 0.28218 0.60906 0.01524 0.0
C815 C 0.28935 0.62144 0.99212 0.0
C816 C 0.31709 0.64748 0.98925 0.0
C817 C 0.33855 0.66045 0.00894 0.0
C818 C 0.33152 0.64732 0.0314 0.0
C819 C 0.30351 0.62245 0.03471 0.0
C820 C 0.30206 0.61255 0.06071 0.0
C821 C 0.25229 0.61494 0.07077 0.0
C822 C 0.32165 0.58071 0.06411 0.0
C823 C 0.33417 0.63548 0.07143 0.0
C824 C 0.35094 0.65524 0.05422 0.0
C825 C 0.38269 0.67759 0.05965 0.0
C826 C 0.39737 0.68 0.08338 0.0
C827 C 0.37998 0.66035 0.1015 0.0
C828 C 0.34786 0.63783 0.09524 0.0
H829 H 0.21718 0.91696 0.50655 0.0
H830 H 0.15371 0.835 0.48231 0.0
H831 H 0.14184 0.81841 0.52419 0.0
H832 H 0.2785 0.88434 0.55647 0.0
H833 H 0.26886 0.91583 0.57533 0.0
H834 H 0.27187 0.92131 0.54346 0.0
H835 H 0.19061 0.9468 0.54374 0.0
H836 H 0.18728 0.94133 0.57561 0.0
H837 H 0.14164 0.92722 0.55686 0.0
H838 H 0.13523 0.81135 0.56878 0.0
H839 H 0.13841 0.81318 0.61285 0.0
H840 H 0.20791 0.89909 0.60765 0.0
C841 C 0.20085 0.89549 0.51 0.0
C842 C 0.18632 0.87729 0.49114 0.0
C843 C 0.16517 0.84932 0.49647 0.0
C844 C 0.15817 0.83973 0.52019 0.0
C845 C 0.17267 0.85832 0.53835 0.0
C846 C 0.1938 0.88553 0.53353 0.0
C847 C 0.20656 0.90118 0.55626 0.0
C848 C 0.2596 0.90593 0.55797 0.0
C849 C 0.17992 0.93089 0.55823 0.0
C850 C 0.18967 0.8784 0.57463 0.0
C851 C 0.16978 0.85397 0.56396 0.0
C852 C 0.15087 0.83031 0.57734 0.0
C853 C 0.15266 0.83158 0.60229 0.0
C854 C 0.17362 0.85618 0.61352 0.0
C855 C 0.19221 0.87986 0.59946 0.0
H856 H 0.14986 0.29656 0.31364 0.0
H857 H 0.2814 0.25369 0.33212 0.0
H858 H 0.25943 0.21018 0.30832 0.0
H859 H 0.08039 0.23252 0.31814 0.0
H860 H 0.04312 0.24217 0.29324 0.0
H861 H 0.07084 0.27118 0.30979 0.0
H862 H 0.10811 0.29257 0.27085 0.0
H863 H 0.08017 0.26368 0.25416 0.0
H864 H 0.14254 0.26842 0.25246 0.0
H865 H 0.22096 0.16999 0.28495 0.0
H866 H 0.1685 0.13604 0.26358 0.0
H867 H 0.06246 0.2052 0.26013 0.0
C868 C 0.17437 0.27823 0.31242 0.0
C869 C 0.2174 0.27854 0.3247 0.0
C870 C 0.24829 0.25397 0.32281 0.0
C871 C 0.23618 0.22919 0.3093 0.0
C872 C 0.19318 0.22941 0.29772 0.0
C873 C 0.16284 0.25334 0.29903 0.0
C874 C 0.11782 0.24738 0.28585 0.0
C875 C 0.07556 0.24836 0.30277 0.0
C876 C 0.11183 0.26932 0.26457 0.0
C877 C 0.12704 0.21602 0.27755 0.0
C878 C 0.17094 0.2062 0.2843 0.0
C879 C 0.18677 0.17759 0.27928 0.0
C880 C 0.15689 0.15854 0.26703 0.0
C881 C 0.11183 0.1682 0.25997 0.0
C882 C 0.09681 0.1973 0.26532 0.0
H883 H 0.29235 0.30361 0.87786 0.0
H884 H 0.34623 0.21319 0.87504 0.0
H885 H 0.40641 0.23014 0.84605 0.0
H886 H 0.30318 0.3191 0.81596 0.0
H887 H 0.31891 0.35781 0.81912 0.0
H888 H 0.2833 0.3394 0.84143 0.0
H889 H 0.34247 0.35353 0.87418 0.0
H890 H 0.37807 0.37225 0.85197 0.0
H891 H 0.403 0.34335 0.87092 0.0
H892 H 0.4607 0.25721 0.81728 0.0
H893 H 0.50137 0.29155 0.78889 0.0
H894 H 0.40703 0.36297 0.80789 0.0
C895 C 0.31742 0.28751 0.87149 0.0
C896 C 0.31522 0.25718 0.87894 0.0
C897 C 0.34766 0.23657 0.86968 0.0
C898 C 0.38192 0.246 0.85324 0.0
C899 C 0.38273 0.27601 0.84599 0.0
C900 C 0.35109 0.29641 0.85468 0.0
C901 C 0.35725 0.32688 0.84276 0.0
C902 C 0.31304 0.33634 0.82899 0.0
C903 C 0.37103 0.35039 0.86105 0.0
C904 C 0.39722 0.32043 0.82597 0.0
C905 C 0.41194 0.29109 0.82836 0.0
C906 C 0.44933 0.28018 0.81519 0.0
C907 C 0.47227 0.29979 0.7992 0.0
C908 C 0.45707 0.32971 0.79622 0.0
C909 C 0.41896 0.34006 0.80969 0.0
H910 H 0.68741 0.20452 0.68277 0.0
H911 H 0.77323 0.26212 0.63755 0.0
H912 H 0.73655 0.3065 0.65503 0.0
H913 H 0.58429 0.24803 0.68084 0.0
H914 H 0.56877 0.24184 0.71171 0.0
H915 H 0.60235 0.21422 0.69632 0.0
H916 H 0.66725 0.21667 0.72837 0.0
H917 H 0.63359 0.24397 0.7441 0.0
H918 H 0.69274 0.25226 0.73524 0.0
H919 H 0.68466 0.34424 0.674 0.0
H920 H 0.62858 0.37342 0.69769 0.0
H921 H 0.58228 0.29215 0.73387 0.0
C922 C 0.69876 0.2265 0.67676 0.0
C923 C 0.73306 0.22993 0.65875 0.0
C924 C 0.74721 0.259 0.6514 0.0
C925 C 0.72644 0.28434 0.66114 0.0
C926 C 0.69227 0.28022 0.67859 0.0
C927 C 0.67918 0.25208 0.68673 0.0
C928 C 0.64205 0.254 0.70595 0.0
C929 C 0.59669 0.23861 0.69824 0.0
C930 C 0.66 0.24095 0.72983 0.0
C931 C 0.63577 0.28756 0.707 0.0
C932 C 0.66462 0.30222 0.69079 0.0
C933 C 0.6626 0.33308 0.68709 0.0
C934 C 0.63055 0.34941 0.70046 0.0
C935 C 0.60201 0.33493 0.71774 0.0
C936 C 0.60472 0.30367 0.72112 0.0
H937 H 0.79562 0.23226 0.12502 0.0
H938 H 0.83799 0.31619 0.1556 0.0
H939 H 0.90179 0.29017 0.17721 0.0
H940 H 0.81308 0.18726 0.17471 0.0
H941 H 0.83723 0.15534 0.15999 0.0
H942 H 0.79774 0.18008 0.14426 0.0
H943 H 0.85758 0.19023 0.11079 0.0
H944 H 0.89729 0.16445 0.12537 0.0
H945 H 0.91579 0.20208 0.11823 0.0
H946 H 0.95449 0.2543 0.19903 0.0
H947 H 0.99677 0.21132 0.21729 0.0
H948 H 0.92392 0.15121 0.17063 0.0
C949 C 0.81876 0.24522 0.136 0.0
C950 C 0.81183 0.27622 0.13872 0.0
C951 C 0.84281 0.29245 0.1532 0.0
C952 C 0.87911 0.27787 0.16555 0.0
C953 C 0.88448 0.24719 0.16282 0.0
C954 C 0.8557 0.23112 0.14808 0.0
C955 C 0.86817 0.19821 0.14879 0.0
C956 C 0.82662 0.17909 0.15747 0.0
C957 C 0.88576 0.18816 0.12434 0.0
C958 C 0.9073 0.19812 0.16691 0.0
C959 C 0.91622 0.22663 0.17474 0.0
C960 C 0.94847 0.23197 0.19273 0.0
C961 C 0.9721 0.2075 0.20304 0.0
C962 C 0.96378 0.17824 0.19507 0.0
C963 C 0.9315 0.17354 0.17659 0.0
H964 H 0.88197 0.70465 0.65889 0.0
H965 H 0.74703 0.74614 0.6458 0.0
H966 H 0.77171 0.78998 0.66847 0.0
H967 H 0.89676 0.73057 0.71893 0.0
H968 H 0.95861 0.73678 0.7157 0.0
H969 H 0.93031 0.70843 0.69862 0.0
H970 H 0.96191 0.73299 0.65954 0.0
H971 H 0.99026 0.76141 0.67652 0.0
H972 H 0.9499 0.77189 0.65314 0.0
H973 H 0.81102 0.82951 0.6921 0.0
H974 H 0.86257 0.86233 0.71477 0.0
H975 H 0.972 0.79517 0.71312 0.0
C976 C 0.85757 0.72293 0.6608 0.0
C977 C 0.8125 0.72192 0.65054 0.0
C978 C 0.78171 0.74637 0.65345 0.0
C979 C 0.79538 0.77137 0.66633 0.0
C980 C 0.83998 0.77165 0.67619 0.0
C981 C 0.87067 0.74812 0.67359 0.0
C982 C 0.91679 0.75423 0.6858 0.0
C983 C 0.92614 0.73113 0.70596 0.0
C984 C 0.95709 0.75519 0.66766 0.0
C985 C 0.90723 0.78489 0.69563 0.0
C986 C 0.86267 0.79446 0.68992 0.0
C987 C 0.84589 0.82216 0.6968 0.0
C988 C 0.87543 0.84059 0.70984 0.0
C989 C 0.92123 0.83124 0.71605 0.0
C990 C 0.9372 0.80298 0.70875 0.0
H991 H 0.7201 0.74849 0.15824 0.0
H992 H 0.61903 0.82078 0.15453 0.0
H993 H 0.562 0.7891 0.17634 0.0
H994 H 0.63598 0.68854 0.15019 0.0
H995 H 0.66604 0.66313 0.17031 0.0
H996 H 0.69835 0.69125 0.1538 0.0
H997 H 0.73196 0.71185 0.19323 0.0
H998 H 0.70076 0.68292 0.20909 0.0
H999 H 0.6923 0.7215 0.21682 0.0
H1000 H 0.5159 0.74956 0.1983 0.0
H1001 H 0.4842 0.70522 0.21962 0.0
H1002 H 0.61584 0.65891 0.21007 0.0
C1003 C 0.68597 0.75768 0.16199 0.0
C1004 C 0.6741 0.78718 0.15474 0.0
C1005 C 0.62895 0.79826 0.1599 0.0
C1006 C 0.59629 0.78044 0.17227 0.0
C1007 C 0.60922 0.75152 0.17925 0.0
C1008 C 0.65286 0.74015 0.1742 0.0
C1009 C 0.65803 0.7084 0.18377 0.0
C1010 C 0.66501 0.68655 0.16329 0.0
C1011 C 0.69813 0.70607 0.20185 0.0
C1012 C 0.61089 0.70391 0.1956 0.0
C1013 C 0.58303 0.72894 0.19243 0.0
C1014 C 0.53742 0.72989 0.20096 0.0
C1015 C 0.51969 0.70456 0.21298 0.0
C1016 C 0.54761 0.67871 0.21654 0.0
C1017 C 0.59393 0.67852 0.20787 0.0
H1018 H 0.33017 0.75892 0.36875 0.0
H1019 H 0.25493 0.80326 0.31094 0.0
H1020 H 0.29274 0.77012 0.28201 0.0
H1021 H 0.43719 0.74439 0.33772 0.0
H1022 H 0.44544 0.70754 0.35065 0.0
H1023 H 0.41422 0.73545 0.36696 0.0
H1024 H 0.34297 0.7 0.37107 0.0
H1025 H 0.37428 0.67192 0.355 0.0
H1026 H 0.31782 0.68439 0.34466 0.0
H1027 H 0.34294 0.73527 0.25933 0.0
H1028 H 0.39286 0.69516 0.24431 0.0
H1029 H 0.42596 0.66761 0.31718 0.0
C1030 C 0.32179 0.7615 0.34998 0.0
C1031 C 0.29009 0.78365 0.34188 0.0
C1032 C 0.27915 0.7863 0.31735 0.0
C1033 C 0.30061 0.76774 0.30083 0.0
C1034 C 0.33197 0.74621 0.30928 0.0
C1035 C 0.34173 0.74244 0.3333 0.0
C1036 C 0.37455 0.71626 0.33764 0.0
C1037 C 0.42057 0.72654 0.34891 0.0
C1038 C 0.35098 0.69168 0.353 0.0
C1039 C 0.38211 0.70627 0.31229 0.0
C1040 C 0.35796 0.72429 0.29623 0.0
C1041 C 0.36138 0.72064 0.27174 0.0
C1042 C 0.38984 0.69771 0.26341 0.0
C1043 C 0.41355 0.67809 0.27952 0.0
C1044 C 0.40927 0.68247 0.30432 0.0
H1045 H 0.13401 0.69014 0.82778 0.0
H1046 H 0.20694 0.7391 0.88228 0.0
H1047 H 0.17244 0.78626 0.86669 0.0
H1048 H 0.14973 0.74619 0.7808 0.0
H1049 H 0.09339 0.7396 0.76765 0.0
H1050 H 0.12326 0.70973 0.78339 0.0
H1051 H 0.05106 0.70209 0.81077 0.0
H1052 H 0.0212 0.73212 0.79521 0.0
H1053 H 0.02862 0.73323 0.82709 0.0
H1054 H 0.1268 0.82779 0.84635 0.0
H1055 H 0.08018 0.86136 0.81993 0.0
H1056 H 0.0415 0.7859 0.77709 0.0
C1057 C 0.14274 0.7108 0.83642 0.0
C1058 C 0.17294 0.71096 0.85634 0.0
C1059 C 0.18393 0.73847 0.86698 0.0
C1060 C 0.16435 0.76535 0.85832 0.0
C1061 C 0.13437 0.76439 0.83879 0.0
C1062 C 0.12418 0.73789 0.82773 0.0
C1063 C 0.09214 0.74314 0.80654 0.0
C1064 C 0.11607 0.73413 0.78322 0.0
C1065 C 0.0455 0.72666 0.81013 0.0
C1066 C 0.08566 0.77667 0.80752 0.0
C1067 C 0.10982 0.78846 0.82644 0.0
C1068 C 0.10797 0.81882 0.8314 0.0
C1069 C 0.08119 0.83766 0.81646 0.0
C1070 C 0.05736 0.8261 0.7966 0.0
C1071 C 0.05963 0.79524 0.79213 0.0
loop_
_geom_bond_atom_site_label_1
_geom_bond_atom_site_label_2
_geom_bond_distance
_geom_bond_site_symmetry_2
_ccdc_geom_bond_type
O0 Cd1 2.300 . S
O0 C7 1.275 . S
Cd1 O0 2.300 . S
Cd1 O9 2.381 . S
Cd1 O10 2.378 . S
O2 Cd3 2.385 . S
O2 C7 1.255 . S
Cd3 O2 2.385 . S
Cd3 O4 2.317 . S
O4 Cd3 2.317 . S
O4 C5 1.232 . S
C5 O4 1.232 . S
C5 O6 1.218 . S
O6 C5 1.218 . S
C7 O0 1.275 . S
C7 O2 1.255 . S
C8 O9 1.258 . S
C8 O10 1.256 . S
O9 Cd1 2.381 . S
O9 C8 1.258 . S
O10 Cd1 2.378 . S
O10 C8 1.256 . S
O11 Cd12 2.300 . S
O11 C18 1.275 . S
Cd12 O11 2.300 . S
Cd12 O20 2.381 . S
Cd12 O21 2.378 . S
O13 Cd14 2.385 . S
O13 C18 1.255 . S
Cd14 O13 2.385 . S
Cd14 O15 2.317 . S
O15 Cd14 2.317 . S
O15 C16 1.232 . S
C16 O15 1.232 . S
C16 O17 1.218 . S
O17 C16 1.218 . S
C18 O11 1.275 . S
C18 O13 1.255 . S
C19 O20 1.258 . S
C19 O21 1.256 . S
O20 Cd12 2.381 . S
O20 C19 1.258 . S
O21 Cd12 2.378 . S
O21 C19 1.256 . S
O22 Cd23 2.300 . S
O22 C29 1.275 . S
Cd23 O22 2.300 . S
Cd23 O31 2.381 . S
Cd23 O32 2.378 . S
O24 Cd25 2.385 . S
O24 C29 1.255 . S
Cd25 O24 2.385 . S
Cd25 O26 2.317 . S
O26 Cd25 2.317 . S
O26 C27 1.232 . S
C27 O26 1.232 . S
C27 O28 1.218 . S
O28 C27 1.218 . S
C29 O22 1.275 . S
C29 O24 1.255 . S
C30 O31 1.258 . S
C30 O32 1.256 . S
O31 Cd23 2.381 . S
O31 C30 1.258 . S
O32 Cd23 2.378 . S
O32 C30 1.256 . S
O33 Cd34 2.300 . S
O33 C40 1.275 . S
Cd34 O33 2.300 . S
Cd34 O42 2.381 . S
Cd34 O43 2.378 . S
O35 Cd36 2.385 . S
O35 C40 1.255 . S
Cd36 O35 2.385 . S
Cd36 O37 2.317 . S
O37 Cd36 2.317 . S
O37 C38 1.232 . S
C38 O37 1.232 . S
C38 O39 1.218 . S
O39 C38 1.218 . S
C40 O33 1.275 . S
C40 O35 1.255 . S
C41 O42 1.258 . S
C41 O43 1.256 . S
O42 Cd34 2.381 . S
O42 C41 1.258 . S
O43 Cd34 2.378 . S
O43 C41 1.256 . S
O44 Cd45 2.300 . S
O44 C51 1.275 . S
Cd45 O44 2.300 . S
Cd45 O53 2.381 . S
Cd45 O54 2.378 . S
O46 Cd47 2.385 . S
O46 C51 1.255 . S
Cd47 O46 2.385 . S
Cd47 O48 2.317 . S
O48 Cd47 2.317 . S
O48 C49 1.232 . S
C49 O48 1.232 . S
C49 O50 1.218 . S
O50 C49 1.218 . S
C51 O44 1.275 . S
C51 O46 1.255 . S
C52 O53 1.258 . S
C52 O54 1.256 . S
O53 Cd45 2.381 . S
O53 C52 1.258 . S
O54 Cd45 2.378 . S
O54 C52 1.256 . S
O55 Cd56 2.300 . S
O55 C62 1.275 . S
Cd56 O55 2.300 . S
Cd56 O64 2.381 . S
Cd56 O65 2.378 . S
O57 Cd58 2.385 . S
O57 C62 1.255 . S
Cd58 O57 2.385 . S
Cd58 O59 2.317 . S
O59 Cd58 2.317 . S
O59 C60 1.232 . S
C60 O59 1.232 . S
C60 O61 1.218 . S
O61 C60 1.218 . S
C62 O55 1.275 . S
C62 O57 1.255 . S
C63 O64 1.258 . S
C63 O65 1.256 . S
O64 Cd56 2.381 . S
O64 C63 1.258 . S
O65 Cd56 2.378 . S
O65 C63 1.256 . S
O66 Cd67 2.300 . S
O66 C73 1.275 . S
Cd67 O66 2.300 . S
Cd67 O75 2.381 . S
Cd67 O76 2.378 . S
O68 Cd69 2.385 . S
O68 C73 1.255 . S
Cd69 O68 2.385 . S
Cd69 O70 2.317 . S
O70 Cd69 2.317 . S
O70 C71 1.232 . S
C71 O70 1.232 . S
C71 O72 1.218 . S
O72 C71 1.218 . S
C73 O66 1.275 . S
C73 O68 1.255 . S
C74 O75 1.258 . S
C74 O76 1.256 . S
O75 Cd67 2.381 . S
O75 C74 1.258 . S
O76 Cd67 2.378 . S
O76 C74 1.256 . S
O77 Cd78 2.300 . S
O77 C84 1.275 . S
Cd78 O77 2.300 . S
Cd78 O86 2.381 . S
Cd78 O87 2.378 . S
O79 Cd80 2.385 . S
O79 C84 1.255 . S
Cd80 O79 2.385 . S
Cd80 O81 2.317 . S
O81 Cd80 2.317 . S
O81 C82 1.232 . S
C82 O81 1.232 . S
C82 O83 1.218 . S
O83 C82 1.218 . S
C84 O77 1.275 . S
C84 O79 1.255 . S
C85 O86 1.258 . S
C85 O87 1.256 . S
O86 Cd78 2.381 . S
O86 C85 1.258 . S
O87 Cd78 2.378 . S
O87 C85 1.256 . S
Eu88 N117 2.600 . S
Eu88 N123 2.562 . S
Eu88 O132 2.462 . S
Eu88 O133 2.373 . S
Eu88 O135 2.432 . S
Eu88 O136 2.291 . S
Eu88 O140 2.335 . S
Eu88 O143 2.372 . S
Eu88 C152 2.787 . S
C89 N90 1.365 . S
C89 C92 1.405 . S
C89 C96 1.448 . S
N90 C89 1.365 . S
N90 C93 1.319 . S
N90 Eu99 2.600 . S
C91 C93 1.397 . S
C91 C94 1.367 . S
C91 H111 0.931 . S
C92 C89 1.405 . S
C92 C94 1.403 . S
C92 C98 1.439 . S
C93 N90 1.319 . S
C93 C91 1.397 . S
C93 H104 0.930 . S
C94 C91 1.367 . S
C94 C92 1.403 . S
C94 H115 0.929 . S
C95 C96 1.430 . S
C95 C97 1.387 . S
C95 C101 1.404 . S
C96 C89 1.448 . S
C96 C95 1.430 . S
C96 N100 1.351 . S
C97 C95 1.387 . S
C97 C98 1.374 . S
C97 H112 0.931 . S
C98 C92 1.439 . S
C98 C97 1.374 . S
C98 H113 0.931 . S
Eu99 N90 2.600 . S
Eu99 N100 2.562 . S
Eu99 O134 2.335 1_655 S
Eu99 O137 2.372 . S
Eu99 O138 2.462 . S
Eu99 O139 2.373 . S
Eu99 O141 2.432 . S
Eu99 O142 2.291 1_655 S
Eu99 C163 2.787 . S
N100 C96 1.351 . S
N100 Eu99 2.562 . S
N100 C102 1.325 . S
C101 C95 1.404 . S
C101 C103 1.366 . S
C101 H109 0.930 1_545 S
C102 N100 1.325 . S
C102 C103 1.416 . S
C102 H108 0.929 . S
C103 C101 1.366 . S
C103 C102 1.416 . S
C103 H105 0.930 1_545 S
H104 C93 0.930 . S
H105 C103 0.930 1_565 S
H106 C121 0.930 . S
H107 C128 0.930 . S
H108 C102 0.929 . S
H109 C101 0.930 1_565 S
H110 C124 0.929 . S
H111 C91 0.931 . S
H112 C97 0.931 . S
H113 C98 0.931 . S
H114 C119 0.931 . S
H115 C94 0.929 . S
H116 C127 0.930 . S
N117 Eu88 2.600 . S
N117 C118 1.365 . S
N117 C121 1.319 . S
C118 N117 1.365 . S
C118 C120 1.405 . S
C118 C126 1.448 . S
C119 H114 0.931 . S
C119 C121 1.397 . S
C119 C122 1.367 . S
C120 C118 1.405 . S
C120 C122 1.403 . S
C120 C153 1.439 . S
C121 H106 0.930 . S
C121 N117 1.319 . S
C121 C119 1.397 . S
C122 C119 1.367 . S
C122 C120 1.403 . S
C122 H129 0.929 . S
N123 Eu88 2.562 . S
N123 C124 1.325 . S
N123 C126 1.351 . S
C124 H110 0.929 . S
C124 N123 1.325 . S
C124 C128 1.416 . S
C125 C126 1.430 . S
C125 C127 1.404 . S
C125 C154 1.387 . S
C126 C118 1.448 . S
C126 N123 1.351 . S
C126 C125 1.430 . S
C127 H116 0.930 . S
C127 C125 1.404 . S
C127 C128 1.366 . S
C128 H107 0.930 . S
C128 C124 1.416 . S
C128 C127 1.366 . S
H129 C122 0.929 . S
H130 C153 0.931 . S
H131 C154 0.931 . S
O132 Eu88 2.462 . S
O132 C152 1.252 . S
O133 Eu88 2.373 . S
O133 C144 1.249 . S
O134 Eu99 2.335 1_455 S
O134 C144 1.264 . S
O135 Eu88 2.432 . S
O135 C152 1.268 . S
O136 Eu88 2.291 . S
O136 C151 1.255 1_455 S
O137 Eu99 2.372 . S
O137 C151 1.257 . S
O138 Eu99 2.462 . S
O138 C163 1.252 . S
O139 Eu99 2.373 . S
O139 C155 1.249 . S
O140 Eu88 2.335 . S
O140 C155 1.264 1_455 S
O141 Eu99 2.432 . S
O141 C163 1.268 . S
O142 Eu99 2.291 1_455 S
O142 C162 1.255 . S
O143 Eu88 2.372 . S
O143 C162 1.257 . S
C144 O133 1.249 . S
C144 O134 1.264 . S
C145 C148 1.382 . S
C145 C150 1.390 . S
C145 C152 1.506 . S
C146 C147 1.398 . S
C146 C150 1.392 . S
C147 C146 1.398 . S
C147 C149 1.372 . S
C147 H164 0.931 . S
C148 C145 1.382 . S
C148 C149 1.390 . S
C148 H165 0.931 . S
C149 C147 1.372 . S
C149 C148 1.390 . S
C149 H166 0.929 . S
C150 C145 1.390 . S
C150 C146 1.392 . S
C150 H167 0.930 . S
C151 O136 1.255 1_655 S
C151 O137 1.257 . S
C152 Eu88 2.787 . S
C152 O132 1.252 . S
C152 O135 1.268 . S
C152 C145 1.506 . S
C153 C120 1.439 . S
C153 H130 0.931 . S
C153 C154 1.374 . S
C154 C125 1.387 . S
C154 H131 0.931 . S
C154 C153 1.374 . S
C155 O139 1.249 . S
C155 O140 1.264 1_655 S
C156 C159 1.382 . S
C156 C160 1.390 . S
C156 C163 1.506 . S
C157 C158 1.398 . S
C157 C160 1.392 . S
C158 C157 1.398 . S
C158 C161 1.372 . S
C158 H168 0.931 . S
C159 C156 1.382 . S
C159 C161 1.390 . S
C159 H169 0.931 . S
C160 C156 1.390 . S
C160 C157 1.392 . S
C160 H170 0.930 . S
C161 C158 1.372 . S
C161 C159 1.390 . S
C161 H171 0.929 . S
C162 O142 1.255 . S
C162 O143 1.257 . S
C163 Eu99 2.787 . S
C163 O138 1.252 . S
C163 O141 1.268 . S
C163 C156 1.506 . S
H164 C147 0.931 . S
H165 C148 0.931 . S
H166 C149 0.929 . S
H167 C150 0.930 . S
H168 C158 0.931 . S
H169 C159 0.931 . S
H170 C160 0.930 . S
H171 C161 0.929 . S
Eu172 N201 2.600 . S
Eu172 N207 2.562 . S
Eu172 O216 2.462 . S
Eu172 O217 2.373 . S
Eu172 O219 2.432 . S
Eu172 O220 2.291 . S
Eu172 O224 2.335 . S
Eu172 O227 2.372 . S
Eu172 C236 2.787 . S
C173 N174 1.365 . S
C173 C176 1.405 . S
C173 C180 1.448 . S
N174 C173 1.365 . S
N174 C177 1.319 . S
N174 Eu183 2.600 . S
C175 C177 1.397 . S
C175 C178 1.367 . S
C175 H195 0.931 . S
C176 C173 1.405 . S
C176 C178 1.403 . S
C176 C182 1.439 . S
C177 N174 1.319 . S
C177 C175 1.397 . S
C177 H188 0.930 . S
C178 C175 1.367 . S
C178 C176 1.403 . S
C178 H199 0.929 . S
C179 C180 1.430 . S
C179 C181 1.387 . S
C179 C185 1.404 . S
C180 C173 1.448 . S
C180 C179 1.430 . S
C180 N184 1.351 . S
C181 C179 1.387 . S
C181 C182 1.374 . S
C181 H196 0.931 . S
C182 C176 1.439 . S
C182 C181 1.374 . S
C182 H197 0.931 . S
Eu183 N174 2.600 . S
Eu183 N184 2.562 . S
Eu183 O218 2.335 . S
Eu183 O221 2.372 . S
Eu183 O222 2.462 . S
Eu183 O223 2.373 . S
Eu183 O225 2.432 . S
Eu183 O226 2.291 . S
Eu183 C247 2.787 . S
N184 C180 1.351 . S
N184 Eu183 2.562 . S
N184 C186 1.325 . S
C185 C179 1.404 . S
C185 C187 1.366 . S
C185 H193 0.930 . S
C186 N184 1.325 . S
C186 C187 1.416 . S
C186 H192 0.929 . S
C187 C185 1.366 . S
C187 C186 1.416 . S
C187 H189 0.930 . S
H188 C177 0.930 . S
H189 C187 0.930 . S
H190 C205 0.930 . S
H191 C212 0.930 . S
H192 C186 0.929 . S
H193 C185 0.930 . S
H194 C208 0.929 . S
H195 C175 0.931 . S
H196 C181 0.931 . S
H197 C182 0.931 . S
H198 C203 0.931 . S
H199 C178 0.929 . S
H200 C211 0.930 . S
N201 Eu172 2.600 . S
N201 C202 1.365 . S
N201 C205 1.319 . S
C202 N201 1.365 . S
C202 C204 1.405 . S
C202 C210 1.448 . S
C203 H198 0.931 . S
C203 C205 1.397 . S
C203 C206 1.367 . S
C204 C202 1.405 . S
C204 C206 1.403 . S
C204 C237 1.439 . S
C205 H190 0.930 . S
C205 N201 1.319 . S
C205 C203 1.397 . S
C206 C203 1.367 . S
C206 C204 1.403 . S
C206 H213 0.929 . S
N207 Eu172 2.562 . S
N207 C208 1.325 . S
N207 C210 1.351 . S
C208 H194 0.929 . S
C208 N207 1.325 . S
C208 C212 1.416 . S
C209 C210 1.430 . S
C209 C211 1.404 . S
C209 C238 1.387 . S
C210 C202 1.448 . S
C210 N207 1.351 . S
C210 C209 1.430 . S
C211 H200 0.930 . S
C211 C209 1.404 . S
C211 C212 1.366 . S
C212 H191 0.930 . S
C212 C208 1.416 . S
C212 C211 1.366 . S
H213 C206 0.929 . S
H214 C237 0.931 . S
H215 C238 0.931 . S
O216 Eu172 2.462 . S
O216 C236 1.252 . S
O217 Eu172 2.373 . S
O217 C228 1.249 . S
O218 Eu183 2.335 . S
O218 C228 1.264 . S
O219 Eu172 2.432 . S
O219 C236 1.268 . S
O220 Eu172 2.291 . S
O220 C235 1.255 . S
O221 Eu183 2.372 . S
O221 C235 1.257 . S
O222 Eu183 2.462 . S
O222 C247 1.252 . S
O223 Eu183 2.373 . S
O223 C239 1.249 . S
O224 Eu172 2.335 . S
O224 C239 1.264 . S
O225 Eu183 2.432 . S
O225 C247 1.268 . S
O226 Eu183 2.291 . S
O226 C246 1.255 . S
O227 Eu172 2.372 . S
O227 C246 1.257 . S
C228 O217 1.249 . S
C228 O218 1.264 . S
C229 C232 1.382 . S
C229 C234 1.390 . S
C229 C236 1.506 . S
C230 C231 1.398 . S
C230 C234 1.392 . S
C231 C230 1.398 . S
C231 C233 1.372 . S
C231 H248 0.931 . S
C232 C229 1.382 . S
C232 C233 1.390 . S
C232 H249 0.931 . S
C233 C231 1.372 . S
C233 C232 1.390 . S
C233 H250 0.929 . S
C234 C229 1.390 . S
C234 C230 1.392 . S
C234 H251 0.930 . S
C235 O220 1.255 . S
C235 O221 1.257 . S
C236 Eu172 2.787 . S
C236 O216 1.252 . S
C236 O219 1.268 . S
C236 C229 1.506 . S
C237 C204 1.439 . S
C237 H214 0.931 . S
C237 C238 1.374 . S
C238 C209 1.387 . S
C238 H215 0.931 . S
C238 C237 1.374 . S
C239 O223 1.249 . S
C239 O224 1.264 . S
C240 C243 1.382 . S
C240 C244 1.390 . S
C240 C247 1.506 . S
C241 C242 1.398 . S
C241 C244 1.392 . S
C242 C241 1.398 . S
C242 C245 1.372 . S
C242 H252 0.931 . S
C243 C240 1.382 . S
C243 C245 1.390 . S
C243 H253 0.931 . S
C244 C240 1.390 . S
C244 C241 1.392 . S
C244 H254 0.930 . S
C245 C242 1.372 . S
C245 C243 1.390 . S
C245 H255 0.929 . S
C246 O226 1.255 . S
C246 O227 1.257 . S
C247 Eu183 2.787 . S
C247 O222 1.252 . S
C247 O225 1.268 . S
C247 C240 1.506 . S
H248 C231 0.931 . S
H249 C232 0.931 . S
H250 C233 0.929 . S
H251 C234 0.930 . S
H252 C242 0.931 . S
H253 C243 0.931 . S
H254 C244 0.930 . S
H255 C245 0.929 . S
Eu256 N285 2.600 . S
Eu256 N291 2.562 . S
Eu256 O300 2.462 . S
Eu256 O301 2.373 . S
Eu256 O303 2.432 . S
Eu256 O304 2.291 . S
Eu256 O308 2.348 . S
Eu256 O311 2.372 . S
Eu256 C320 2.787 . S
C257 N258 1.365 . S
C257 C260 1.405 . S
C257 C264 1.448 . S
N258 C257 1.365 . S
N258 C261 1.319 . S
N258 Eu267 2.600 . S
C259 C261 1.397 . S
C259 C262 1.367 . S
C259 H279 0.931 . S
C260 C257 1.405 . S
C260 C262 1.403 . S
C260 C266 1.439 . S
C261 N258 1.319 . S
C261 C259 1.397 . S
C261 H272 0.930 . S
C262 C259 1.367 . S
C262 C260 1.403 . S
C262 H283 0.929 . S
C263 C264 1.430 . S
C263 C265 1.387 . S
C263 C269 1.404 . S
C264 C257 1.448 . S
C264 C263 1.430 . S
C264 N268 1.351 . S
C265 C263 1.387 . S
C265 C266 1.374 . S
C265 H280 0.931 . S
C266 C260 1.439 . S
C266 C265 1.374 . S
C266 H281 0.931 . S
Eu267 N258 2.600 . S
Eu267 N268 2.562 . S
Eu267 O302 2.335 1_655 S
Eu267 O305 2.372 . S
Eu267 O306 2.462 . S
Eu267 O307 2.373 . S
Eu267 O309 2.432 . S
Eu267 O310 2.291 1_655 S
Eu267 C331 2.787 . S
N268 C264 1.351 . S
N268 Eu267 2.562 . S
N268 C270 1.325 . S
C269 C263 1.404 . S
C269 C271 1.366 . S
C269 H277 0.930 . S
C270 N268 1.325 . S
C270 C271 1.416 . S
C270 H276 0.929 . S
C271 C269 1.366 . S
C271 C270 1.416 . S
C271 H273 0.930 . S
H272 C261 0.930 . S
H273 C271 0.930 . S
H274 C289 0.930 . S
H275 C296 0.930 1_545 S
H276 C270 0.929 . S
H277 C269 0.930 . S
H278 C292 0.929 . S
H279 C259 0.931 . S
H280 C265 0.931 . S
H281 C266 0.931 . S
H282 C287 0.931 . S
H283 C262 0.929 . S
H284 C295 0.930 1_545 S
N285 Eu256 2.600 . S
N285 C286 1.365 . S
N285 C289 1.319 . S
C286 N285 1.365 . S
C286 C288 1.405 . S
C286 C294 1.448 . S
C287 H282 0.931 . S
C287 C289 1.397 . S
C287 C290 1.367 . S
C288 C286 1.405 . S
C288 C290 1.403 . S
C288 C321 1.439 . S
C289 H274 0.930 . S
C289 N285 1.319 . S
C289 C287 1.397 . S
C290 C287 1.367 . S
C290 C288 1.403 . S
C290 H297 0.929 . S
N291 Eu256 2.562 . S
N291 C292 1.325 . S
N291 C294 1.351 . S
C292 H278 0.929 . S
C292 N291 1.325 . S
C292 C296 1.416 . S
C293 C294 1.430 . S
C293 C295 1.404 . S
C293 C322 1.387 . S
C294 C286 1.448 . S
C294 N291 1.351 . S
C294 C293 1.430 . S
C295 H284 0.930 1_565 S
C295 C293 1.404 . S
C295 C296 1.366 . S
C296 H275 0.930 1_565 S
C296 C292 1.416 . S
C296 C295 1.366 . S
H297 C290 0.929 . S
H298 C321 0.931 . S
H299 C322 0.931 . S
O300 Eu256 2.462 . S
O300 C320 1.252 . S
O301 Eu256 2.373 . S
O301 C312 1.249 . S
O302 Eu267 2.335 1_455 S
O302 C312 1.264 . S
O303 Eu256 2.432 . S
O303 C320 1.268 . S
O304 Eu256 2.291 . S
O304 C319 1.255 1_455 S
O305 Eu267 2.372 . S
O305 C319 1.257 . S
O306 Eu267 2.462 . S
O306 C331 1.252 . S
O307 Eu267 2.373 . S
O307 C323 1.249 . S
O308 Eu256 2.348 . S
O308 C323 1.248 1_455 S
O309 Eu267 2.432 . S
O309 C331 1.268 . S
O310 Eu267 2.291 1_455 S
O310 C330 1.255 . S
O311 Eu256 2.372 . S
O311 C330 1.257 . S
C312 O301 1.249 . S
C312 O302 1.264 . S
C313 C316 1.382 . S
C313 C318 1.390 . S
C313 C320 1.506 . S
C314 C315 1.398 . S
C314 C318 1.392 . S
C315 C314 1.398 . S
C315 C317 1.372 . S
C315 H332 0.931 . S
C316 C313 1.382 . S
C316 C317 1.390 . S
C316 H333 0.931 . S
C317 C315 1.372 . S
C317 C316 1.390 . S
C317 H334 0.929 . S
C318 C313 1.390 . S
C318 C314 1.392 . S
C318 H335 0.930 . S
C319 O304 1.255 1_655 S
C319 O305 1.257 . S
C320 Eu256 2.787 . S
C320 O300 1.252 . S
C320 O303 1.268 . S
C320 C313 1.506 . S
C321 C288 1.439 . S
C321 H298 0.931 . S
C321 C322 1.374 . S
C322 C293 1.387 . S
C322 H299 0.931 . S
C322 C321 1.374 . S
C323 O307 1.249 . S
C323 O308 1.248 1_655 S
C324 C327 1.382 . S
C324 C328 1.390 . S
C324 C331 1.506 . S
C325 C326 1.398 . S
C325 C328 1.392 . S
C326 C325 1.398 . S
C326 C329 1.372 . S
C326 H336 0.931 . S
C327 C324 1.382 . S
C327 C329 1.390 . S
C327 H337 0.931 . S
C328 C324 1.390 . S
C328 C325 1.392 . S
C328 H338 0.930 . S
C329 C326 1.372 . S
C329 C327 1.390 . S
C329 H339 0.929 . S
C330 O310 1.255 . S
C330 O311 1.257 . S
C331 Eu267 2.787 . S
C331 O306 1.252 . S
C331 O309 1.268 . S
C331 C324 1.506 . S
H332 C315 0.931 . S
H333 C316 0.931 . S
H334 C317 0.929 . S
H335 C318 0.930 . S
H336 C326 0.931 . S
H337 C327 0.931 . S
H338 C328 0.930 . S
H339 C329 0.929 . S
Eu340 N369 2.600 . S
Eu340 N375 2.562 . S
Eu340 O384 2.462 . S
Eu340 O385 2.373 . S
Eu340 O387 2.432 . S
Eu340 O388 2.291 . S
Eu340 O392 2.335 . S
Eu340 O395 2.372 . S
Eu340 C404 2.787 . S
C341 N342 1.365 . S
C341 C344 1.405 . S
C341 C348 1.448 . S
N342 C341 1.365 . S
N342 C345 1.319 . S
N342 Eu351 2.600 . S
C343 C345 1.397 . S
C343 C346 1.367 . S
C343 H363 0.931 . S
C344 C341 1.405 . S
C344 C346 1.403 . S
C344 C350 1.439 . S
C345 N342 1.319 . S
C345 C343 1.397 . S
C345 H356 0.930 . S
C346 C343 1.367 . S
C346 C344 1.403 . S
C346 H367 0.929 . S
C347 C348 1.430 . S
C347 C349 1.387 . S
C347 C353 1.404 . S
C348 C341 1.448 . S
C348 C347 1.430 . S
C348 N352 1.351 . S
C349 C347 1.387 . S
C349 C350 1.374 . S
C349 H364 0.931 . S
C350 C344 1.439 . S
C350 C349 1.374 . S
C350 H365 0.931 . S
Eu351 N342 2.600 . S
Eu351 N352 2.562 . S
Eu351 O386 2.335 . S
Eu351 O389 2.372 . S
Eu351 O390 2.462 . S
Eu351 O391 2.373 . S
Eu351 O393 2.432 . S
Eu351 O394 2.291 . S
Eu351 C415 2.787 . S
N352 C348 1.351 . S
N352 Eu351 2.562 . S
N352 C354 1.325 . S
C353 C347 1.404 . S
C353 C355 1.366 . S
C353 H361 0.930 . S
C354 N352 1.325 . S
C354 C355 1.416 . S
C354 H360 0.929 . S
C355 C353 1.366 . S
C355 C354 1.416 . S
C355 H357 0.930 . S
H356 C345 0.930 . S
H357 C355 0.930 . S
H358 C373 0.930 . S
H359 C380 0.930 . S
H360 C354 0.929 . S
H361 C353 0.930 . S
H362 C376 0.929 . S
H363 C343 0.931 . S
H364 C349 0.931 . S
H365 C350 0.931 . S
H366 C371 0.931 . S
H367 C346 0.929 . S
H368 C379 0.930 . S
N369 Eu340 2.600 . S
N369 C370 1.365 . S
N369 C373 1.319 . S
C370 N369 1.365 . S
C370 C372 1.405 . S
C370 C378 1.448 . S
C371 H366 0.931 . S
C371 C373 1.397 . S
C371 C374 1.367 . S
C372 C370 1.405 . S
C372 C374 1.403 . S
C372 C405 1.439 . S
C373 H358 0.930 . S
C373 N369 1.319 . S
C373 C371 1.397 . S
C374 C371 1.367 . S
C374 C372 1.403 . S
C374 H381 0.929 . S
N375 Eu340 2.562 . S
N375 C376 1.325 . S
N375 C378 1.351 . S
C376 H362 0.929 . S
C376 N375 1.325 . S
C376 C380 1.416 . S
C377 C378 1.430 . S
C377 C379 1.404 . S
C377 C406 1.387 . S
C378 C370 1.448 . S
C378 N375 1.351 . S
C378 C377 1.430 . S
C379 H368 0.930 . S
C379 C377 1.404 . S
C379 C380 1.366 . S
C380 H359 0.930 . S
C380 C376 1.416 . S
C380 C379 1.366 . S
H381 C374 0.929 . S
H382 C405 0.931 . S
H383 C406 0.931 . S
O384 Eu340 2.462 . S
O384 C404 1.252 . S
O385 Eu340 2.373 . S
O385 C396 1.249 . S
O386 Eu351 2.335 . S
O386 C396 1.264 . S
O387 Eu340 2.432 . S
O387 C404 1.268 . S
O388 Eu340 2.291 . S
O388 C403 1.255 . S
O389 Eu351 2.372 . S
O389 C403 1.257 . S
O390 Eu351 2.462 . S
O390 C415 1.252 . S
O391 Eu351 2.373 . S
O391 C407 1.249 . S
O392 Eu340 2.335 . S
O392 C407 1.264 . S
O393 Eu351 2.432 . S
O393 C415 1.268 . S
O394 Eu351 2.291 . S
O394 C414 1.255 . S
O395 Eu340 2.372 . S
O395 C414 1.257 . S
C396 O385 1.249 . S
C396 O386 1.264 . S
C397 C400 1.382 . S
C397 C402 1.390 . S
C397 C404 1.506 . S
C398 C399 1.398 . S
C398 C402 1.392 . S
C399 C398 1.398 . S
C399 C401 1.372 . S
C399 H416 0.931 . S
C400 C397 1.382 . S
C400 C401 1.390 . S
C400 H417 0.931 . S
C401 C399 1.372 . S
C401 C400 1.390 . S
C401 H418 0.929 . S
C402 C397 1.390 . S
C402 C398 1.392 . S
C402 H419 0.930 . S
C403 O388 1.255 . S
C403 O389 1.257 . S
C404 Eu340 2.787 . S
C404 O384 1.252 . S
C404 O387 1.268 . S
C404 C397 1.506 . S
C405 C372 1.439 . S
C405 H382 0.931 . S
C405 C406 1.374 . S
C406 C377 1.387 . S
C406 H383 0.931 . S
C406 C405 1.374 . S
C407 O391 1.249 . S
C407 O392 1.264 . S
C408 C411 1.382 . S
C408 C412 1.390 . S
C408 C415 1.506 . S
C409 C410 1.398 . S
C409 C412 1.392 . S
C410 C409 1.398 . S
C410 C413 1.372 . S
C410 H420 0.931 . S
C411 C408 1.382 . S
C411 C413 1.390 . S
C411 H421 0.931 . S
C412 C408 1.390 . S
C412 C409 1.392 . S
C412 H422 0.930 . S
C413 C410 1.372 . S
C413 C411 1.390 . S
C413 H423 0.929 . S
C414 O394 1.255 . S
C414 O395 1.257 . S
C415 Eu351 2.787 . S
C415 O390 1.252 . S
C415 O393 1.268 . S
C415 C408 1.506 . S
H416 C399 0.931 . S
H417 C400 0.931 . S
H418 C401 0.929 . S
H419 C402 0.930 . S
H420 C410 0.931 . S
H421 C411 0.931 . S
H422 C412 0.930 . S
H423 C413 0.929 . S
H424 C436 0.930 . S
H425 C438 0.930 . S
H426 C439 0.930 . S
H427 C443 0.959 . S
H428 C443 0.959 1_545 S
H429 C443 0.961 . S
H430 C444 0.960 . S
H431 C444 0.961 . S
H432 C444 0.959 . S
H433 C447 0.929 . S
H434 C448 0.931 . S
H435 C450 0.930 . S
C436 H424 0.930 . S
C436 C437 1.399 . S
C436 C441 1.399 . S
C437 C436 1.399 . S
C437 C438 1.376 . S
C438 H425 0.930 . S
C438 C437 1.376 . S
C438 C439 1.388 . S
C439 H426 0.930 . S
C439 C438 1.388 . S
C439 C440 1.390 . S
C440 C439 1.390 . S
C440 C441 1.394 . S
C440 C446 1.465 . S
C441 C436 1.399 . S
C441 C440 1.394 . S
C441 C442 1.516 . S
C442 C441 1.516 . S
C442 C443 1.502 . S
C442 C444 1.561 1_565 S
C442 C445 1.526 1_565 S
C443 H427 0.959 . S
C443 H428 0.959 1_565 S
C443 H429 0.961 . S
C443 C442 1.502 . S
C444 H430 0.960 . S
C444 H431 0.961 . S
C444 H432 0.959 . S
C444 C442 1.561 1_545 S
C445 C442 1.526 1_545 S
C445 C446 1.396 1_545 S
C445 C450 1.390 . S
C446 C440 1.465 . S
C446 C445 1.396 1_565 S
C446 C447 1.399 . S
C447 H433 0.929 . S
C447 C446 1.399 . S
C447 C448 1.385 1_565 S
C448 H434 0.931 . S
C448 C447 1.385 1_545 S
C448 C449 1.389 . S
C449 C448 1.389 . S
C449 C450 1.387 . S
C450 H435 0.930 . S
C450 C445 1.390 . S
C450 C449 1.387 . S
H451 C463 0.930 . S
H452 C465 0.930 . S
H453 C466 0.930 . S
H454 C470 0.959 . S
H455 C470 0.959 . S
H456 C470 0.961 . S
H457 C471 0.960 . S
H458 C471 0.961 . S
H459 C471 0.959 . S
H460 C474 0.929 . S
H461 C475 0.931 . S
H462 C477 0.930 . S
C463 H451 0.930 . S
C463 C464 1.399 . S
C463 C468 1.399 . S
C464 C463 1.399 . S
C464 C465 1.376 . S
C465 H452 0.930 . S
C465 C464 1.376 . S
C465 C466 1.388 . S
C466 H453 0.930 . S
C466 C465 1.388 . S
C466 C467 1.390 . S
C467 C466 1.390 . S
C467 C468 1.394 . S
C467 C473 1.465 . S
C468 C463 1.399 . S
C468 C467 1.394 . S
C468 C469 1.516 . S
C469 C468 1.516 . S
C469 C470 1.502 . S
C469 C471 1.561 . S
C469 C472 1.526 . S
C470 H454 0.959 . S
C470 H455 0.959 . S
C470 H456 0.961 . S
C470 C469 1.502 . S
C471 H457 0.960 . S
C471 H458 0.961 . S
C471 H459 0.959 . S
C471 C469 1.561 . S
C472 C469 1.526 . S
C472 C473 1.396 . S
C472 C477 1.390 . S
C473 C467 1.465 . S
C473 C472 1.396 . S
C473 C474 1.399 . S
C474 H460 0.929 . S
C474 C473 1.399 . S
C474 C475 1.385 . S
C475 H461 0.931 . S
C475 C474 1.385 . S
C475 C476 1.389 . S
C476 C475 1.389 . S
C476 C477 1.387 . S
C477 H462 0.930 . S
C477 C472 1.390 . S
C477 C476 1.387 . S
H478 C490 0.930 . S
H479 C492 0.930 . S
H480 C493 0.930 . S
H481 C497 0.959 . S
H482 C497 0.959 . S
H483 C497 0.961 . S
H484 C498 0.960 . S
H485 C498 0.961 . S
H486 C498 0.959 . S
H487 C501 0.929 . S
H488 C502 0.931 . S
H489 C504 0.930 . S
C490 H478 0.930 . S
C490 C491 1.399 . S
C490 C495 1.399 . S
C491 C490 1.399 . S
C491 C492 1.376 . S
C492 H479 0.930 . S
C492 C491 1.376 . S
C492 C493 1.388 . S
C493 H480 0.930 . S
C493 C492 1.388 . S
C493 C494 1.390 . S
C494 C493 1.390 . S
C494 C495 1.394 . S
C494 C500 1.465 . S
C495 C490 1.399 . S
C495 C494 1.394 . S
C495 C496 1.516 . S
C496 C495 1.516 . S
C496 C497 1.502 . S
C496 C498 1.561 . S
C496 C499 1.526 . S
C497 H481 0.959 . S
C497 H482 0.959 . S
C497 H483 0.961 . S
C497 C496 1.502 . S
C498 H484 0.960 . S
C498 H485 0.961 . S
C498 H486 0.959 . S
C498 C496 1.561 . S
C499 C496 1.526 . S
C499 C500 1.396 . S
C499 C504 1.390 . S
C500 C494 1.465 . S
C500 C499 1.396 . S
C500 C501 1.399 . S
C501 H487 0.929 . S
C501 C500 1.399 . S
C501 C502 1.385 . S
C502 H488 0.931 . S
C502 C501 1.385 . S
C502 C503 1.389 . S
C503 C502 1.389 . S
C503 C504 1.387 . S
C504 H489 0.930 . S
C504 C499 1.390 . S
C504 C503 1.387 . S
H505 C517 0.930 . S
H506 C519 0.930 . S
H507 C520 0.930 . S
H508 C524 0.959 . S
H509 C524 0.959 . S
H510 C524 0.961 . S
H511 C525 0.960 . S
H512 C525 0.961 . S
H513 C525 0.959 . S
H514 C528 0.929 . S
H515 C529 0.931 . S
H516 C531 0.930 . S
C517 H505 0.930 . S
C517 C518 1.399 . S
C517 C522 1.399 . S
C518 C517 1.399 . S
C518 C519 1.376 . S
C519 H506 0.930 . S
C519 C518 1.376 . S
C519 C520 1.388 . S
C520 H507 0.930 . S
C520 C519 1.388 . S
C520 C521 1.390 . S
C521 C520 1.390 . S
C521 C522 1.394 . S
C521 C527 1.465 . S
C522 C517 1.399 . S
C522 C521 1.394 . S
C522 C523 1.516 . S
C523 C522 1.516 . S
C523 C524 1.502 . S
C523 C525 1.561 1_565 S
C523 C526 1.526 1_565 S
C524 H508 0.959 . S
C524 H509 0.959 . S
C524 H510 0.961 . S
C524 C523 1.502 . S
C525 H511 0.960 . S
C525 H512 0.961 . S
C525 H513 0.959 . S
C525 C523 1.561 1_545 S
C526 C523 1.526 1_545 S
C526 C527 1.396 1_545 S
C526 C531 1.390 . S
C527 C521 1.465 . S
C527 C526 1.396 1_565 S
C527 C528 1.399 1_565 S
C528 H514 0.929 . S
C528 C527 1.399 1_545 S
C528 C529 1.385 . S
C529 H515 0.931 . S
C529 C528 1.385 . S
C529 C530 1.389 . S
C530 C529 1.389 . S
C530 C531 1.387 . S
C531 H516 0.930 . S
C531 C526 1.390 . S
C531 C530 1.387 . S
H532 C544 0.930 . S
H533 C546 0.930 . S
H534 C547 0.930 . S
H535 C551 0.959 . S
H536 C551 0.959 . S
H537 C551 0.961 . S
H538 C552 0.960 . S
H539 C552 0.961 . S
H540 C552 0.959 . S
H541 C555 0.929 . S
H542 C556 0.931 . S
H543 C558 0.929 . S
C544 H532 0.930 . S
C544 C545 1.399 . S
C544 C549 1.399 . S
C545 C544 1.399 . S
C545 C546 1.376 . S
C546 H533 0.930 . S
C546 C545 1.376 . S
C546 C547 1.388 . S
C547 H534 0.930 . S
C547 C546 1.388 . S
C547 C548 1.390 . S
C548 C547 1.390 . S
C548 C549 1.394 . S
C548 C554 1.465 1_545 S
C549 C544 1.399 . S
C549 C548 1.394 . S
C549 C550 1.516 . S
C550 C549 1.516 . S
C550 C551 1.502 . S
C550 C552 1.561 . S
C550 C553 1.526 . S
C551 H535 0.959 . S
C551 H536 0.959 . S
C551 H537 0.961 . S
C551 C550 1.502 . S
C552 H538 0.960 . S
C552 H539 0.961 . S
C552 H540 0.959 . S
C552 C550 1.561 . S
C553 C550 1.526 . S
C553 C554 1.396 1_545 S
C553 C558 1.390 1_545 S
C554 C548 1.465 1_565 S
C554 C553 1.396 1_565 S
C554 C555 1.399 . S
C555 H541 0.929 . S
C555 C554 1.399 . S
C555 C556 1.385 . S
C556 H542 0.931 . S
C556 C555 1.385 . S
C556 C557 1.389 . S
C557 C556 1.389 . S
C557 C558 1.387 . S
C558 H543 0.929 . S
C558 C553 1.390 1_565 S
C558 C557 1.387 . S
H559 C571 0.930 . S
H560 C573 0.930 . S
H561 C574 0.930 . S
H562 C578 0.959 . S
H563 C578 0.959 . S
H564 C578 0.961 . S
H565 C579 0.960 . S
H566 C579 0.961 . S
H567 C579 0.959 . S
H568 C582 0.929 . S
H569 C583 0.931 . S
H570 C585 0.930 . S
C571 H559 0.930 . S
C571 C572 1.399 . S
C571 C576 1.399 . S
C572 C571 1.399 . S
C572 C573 1.376 . S
C573 H560 0.930 . S
C573 C572 1.376 . S
C573 C574 1.388 . S
C574 H561 0.930 . S
C574 C573 1.388 . S
C574 C575 1.390 . S
C575 C574 1.390 . S
C575 C576 1.394 . S
C575 C581 1.465 . S
C576 C571 1.399 . S
C576 C575 1.394 . S
C576 C577 1.516 . S
C577 C576 1.516 . S
C577 C578 1.502 . S
C577 C579 1.561 . S
C577 C580 1.526 . S
C578 H562 0.959 . S
C578 H563 0.959 . S
C578 H564 0.961 . S
C578 C577 1.502 . S
C579 H565 0.960 . S
C579 H566 0.961 . S
C579 H567 0.959 . S
C579 C577 1.561 . S
C580 C577 1.526 . S
C580 C581 1.396 . S
C580 C585 1.390 . S
C581 C575 1.465 . S
C581 C580 1.396 . S
C581 C582 1.399 . S
C582 H568 0.929 . S
C582 C581 1.399 . S
C582 C583 1.385 . S
C583 H569 0.931 . S
C583 C582 1.385 . S
C583 C584 1.389 . S
C584 C583 1.389 . S
C584 C585 1.387 . S
C585 H570 0.930 . S
C585 C580 1.390 . S
C585 C584 1.387 . S
H586 C598 0.930 . S
H587 C600 0.930 . S
H588 C601 0.930 . S
H589 C605 0.959 . S
H590 C605 0.959 . S
H591 C605 0.961 . S
H592 C606 0.960 . S
H593 C606 0.961 . S
H594 C606 0.959 . S
H595 C609 0.929 . S
H596 C610 0.931 . S
H597 C612 0.930 . S
C598 H586 0.930 . S
C598 C599 1.399 . S
C598 C603 1.399 . S
C599 C598 1.399 . S
C599 C600 1.376 . S
C600 H587 0.930 . S
C600 C599 1.376 . S
C600 C601 1.388 . S
C601 H588 0.930 . S
C601 C600 1.388 . S
C601 C602 1.390 . S
C602 C601 1.390 . S
C602 C603 1.394 . S
C602 C608 1.465 . S
C603 C598 1.399 . S
C603 C602 1.394 . S
C603 C604 1.516 . S
C604 C603 1.516 . S
C604 C605 1.502 . S
C604 C606 1.561 . S
C604 C607 1.526 . S
C605 H589 0.959 . S
C605 H590 0.959 . S
C605 H591 0.961 . S
C605 C604 1.502 . S
C606 H592 0.960 . S
C606 H593 0.961 . S
C606 H594 0.959 . S
C606 C604 1.561 . S
C607 C604 1.526 . S
C607 C608 1.396 . S
C607 C612 1.390 . S
C608 C602 1.465 . S
C608 C607 1.396 . S
C608 C609 1.399 . S
C609 H595 0.929 . S
C609 C608 1.399 . S
C609 C610 1.385 . S
C610 H596 0.931 . S
C610 C609 1.385 . S
C610 C611 1.389 . S
C611 C610 1.389 . S
C611 C612 1.387 . S
C612 H597 0.930 . S
C612 C607 1.390 . S
C612 C611 1.387 . S
H613 C625 0.930 . S
H614 C627 0.930 . S
H615 C628 0.930 . S
H616 C632 0.959 . S
H617 C632 0.959 . S
H618 C632 0.961 . S
H619 C633 0.960 . S
H620 C633 0.961 . S
H621 C633 0.959 . S
H622 C636 0.929 . S
H623 C637 0.931 . S
H624 C639 0.928 . S
C625 H613 0.930 . S
C625 C626 1.399 . S
C625 C630 1.399 . S
C626 C625 1.399 . S
C626 C627 1.376 . S
C627 H614 0.930 . S
C627 C626 1.376 . S
C627 C628 1.388 1_545 S
C628 H615 0.930 . S
C628 C627 1.388 1_565 S
C628 C629 1.390 1_565 S
C629 C628 1.390 1_545 S
C629 C630 1.394 . S
C629 C635 1.465 1_545 S
C630 C625 1.399 . S
C630 C629 1.394 . S
C630 C631 1.516 . S
C631 C630 1.516 . S
C631 C632 1.502 . S
C631 C633 1.561 . S
C631 C634 1.537 . S
C632 H616 0.959 . S
C632 H617 0.959 . S
C632 H618 0.961 . S
C632 C631 1.502 . S
C633 H619 0.960 . S
C633 H620 0.961 . S
C633 H621 0.959 . S
C633 C631 1.561 . S
C634 C631 1.537 . S
C634 C635 1.390 1_545 S
C634 C639 1.385 1_545 S
C635 C629 1.465 1_565 S
C635 C634 1.390 1_565 S
C635 C636 1.399 . S
C636 H622 0.929 . S
C636 C635 1.399 . S
C636 C637 1.385 . S
C637 H623 0.931 . S
C637 C636 1.385 . S
C637 C638 1.389 . S
C638 C637 1.389 . S
C638 C639 1.387 . S
C639 H624 0.928 . S
C639 C634 1.385 1_565 S
C639 C638 1.387 . S
H640 C652 0.930 . S
H641 C654 0.930 . S
H642 C655 0.930 . S
H643 C659 0.959 . S
H644 C659 0.959 . S
H645 C659 0.961 . S
H646 C660 0.960 . S
H647 C660 0.961 . S
H648 C660 0.959 . S
H649 C663 0.929 . S
H650 C664 0.931 . S
H651 C666 0.930 . S
C652 H640 0.930 . S
C652 C653 1.399 . S
C652 C657 1.399 1_556 S
C653 C652 1.399 . S
C653 C654 1.376 . S
C654 H641 0.930 . S
C654 C653 1.376 . S
C654 C655 1.388 . S
C655 H642 0.930 . S
C655 C654 1.388 . S
C655 C656 1.390 1_556 S
C656 C655 1.390 1_554 S
C656 C657 1.394 . S
C656 C662 1.465 . S
C657 C652 1.399 1_554 S
C657 C656 1.394 . S
C657 C658 1.516 . S
C658 C657 1.516 . S
C658 C659 1.502 . S
C658 C660 1.561 . S
C658 C661 1.526 . S
C659 H643 0.959 . S
C659 H644 0.959 . S
C659 H645 0.961 . S
C659 C658 1.502 . S
C660 H646 0.960 . S
C660 H647 0.961 . S
C660 H648 0.959 . S
C660 C658 1.561 . S
C661 C658 1.526 . S
C661 C662 1.396 . S
C661 C666 1.390 . S
C662 C656 1.465 . S
C662 C661 1.396 . S
C662 C663 1.399 . S
C663 H649 0.929 . S
C663 C662 1.399 . S
C663 C664 1.385 . S
C664 H650 0.931 . S
C664 C663 1.385 . S
C664 C665 1.389 . S
C665 C664 1.389 . S
C665 C666 1.387 . S
C666 H651 0.930 . S
C666 C661 1.390 . S
C666 C665 1.387 . S
H667 C679 0.930 . S
H668 C681 0.930 . S
H669 C682 0.930 . S
H670 C686 0.959 . S
H671 C686 0.959 . S
H672 C686 0.961 . S
H673 C687 0.960 . S
H674 C687 0.961 . S
H675 C687 0.959 . S
H676 C690 0.929 . S
H677 C691 0.931 . S
H678 C693 0.930 . S
C679 H667 0.930 . S
C679 C680 1.399 . S
C679 C684 1.399 . S
C680 C679 1.399 . S
C680 C681 1.376 . S
C681 H668 0.930 . S
C681 C680 1.376 . S
C681 C682 1.388 . S
C682 H669 0.930 . S
C682 C681 1.388 . S
C682 C683 1.390 . S
C683 C682 1.390 . S
C683 C684 1.394 . S
C683 C689 1.465 . S
C684 C679 1.399 . S
C684 C683 1.394 . S
C684 C685 1.516 . S
C685 C684 1.516 . S
C685 C686 1.502 . S
C685 C687 1.561 . S
C685 C688 1.526 . S
C686 H670 0.959 . S
C686 H671 0.959 . S
C686 H672 0.961 . S
C686 C685 1.502 . S
C687 H673 0.960 . S
C687 H674 0.961 . S
C687 H675 0.959 . S
C687 C685 1.561 . S
C688 C685 1.526 . S
C688 C689 1.396 . S
C688 C693 1.390 . S
C689 C683 1.465 . S
C689 C688 1.396 . S
C689 C690 1.399 . S
C690 H676 0.929 . S
C690 C689 1.399 . S
C690 C691 1.385 . S
C691 H677 0.931 . S
C691 C690 1.385 . S
C691 C692 1.389 . S
C692 C691 1.389 . S
C692 C693 1.387 . S
C693 H678 0.930 . S
C693 C688 1.390 . S
C693 C692 1.387 . S
H694 C706 0.930 . S
H695 C708 0.930 . S
H696 C709 0.930 . S
H697 C713 0.959 . S
H698 C713 0.959 . S
H699 C713 0.961 1_554 S
H700 C714 0.960 . S
H701 C714 0.961 . S
H702 C714 0.959 . S
H703 C717 0.929 . S
H704 C718 0.931 . S
H705 C720 0.930 . S
C706 H694 0.930 . S
C706 C707 1.399 . S
C706 C711 1.399 1_554 S
C707 C706 1.399 . S
C707 C708 1.376 . S
C708 H695 0.930 . S
C708 C707 1.376 . S
C708 C709 1.388 1_554 S
C709 H696 0.930 . S
C709 C708 1.388 1_556 S
C709 C710 1.390 . S
C710 C709 1.390 . S
C710 C711 1.394 . S
C710 C716 1.465 . S
C711 C706 1.399 1_556 S
C711 C710 1.394 . S
C711 C712 1.516 . S
C712 C711 1.516 . S
C712 C713 1.502 . S
C712 C714 1.561 . S
C712 C715 1.526 . S
C713 H697 0.959 . S
C713 H698 0.959 . S
C713 H699 0.961 1_556 S
C713 C712 1.502 . S
C714 H700 0.960 . S
C714 H701 0.961 . S
C714 H702 0.959 . S
C714 C712 1.561 . S
C715 C712 1.526 . S
C715 C716 1.396 . S
C715 C720 1.390 . S
C716 C710 1.465 . S
C716 C715 1.396 . S
C716 C717 1.399 . S
C717 H703 0.929 . S
C717 C716 1.399 . S
C717 C718 1.385 . S
C718 H704 0.931 . S
C718 C717 1.385 . S
C718 C719 1.389 . S
C719 C718 1.389 . S
C719 C720 1.387 . S
C720 H705 0.930 . S
C720 C715 1.390 . S
C720 C719 1.387 . S
H721 C733 0.930 . S
H722 C735 0.930 . S
H723 C736 0.930 . S
H724 C740 0.959 . S
H725 C740 0.959 . S
H726 C740 0.961 . S
H727 C741 0.960 . S
H728 C741 0.961 . S
H729 C741 0.959 . S
H730 C744 0.929 . S
H731 C745 0.931 . S
H732 C747 0.930 . S
C733 H721 0.930 . S
C733 C734 1.399 . S
C733 C738 1.399 . S
C734 C733 1.399 . S
C734 C735 1.376 . S
C735 H722 0.930 . S
C735 C734 1.376 . S
C735 C736 1.388 . S
C736 H723 0.930 . S
C736 C735 1.388 . S
C736 C737 1.390 . S
C737 C736 1.390 . S
C737 C738 1.394 . S
C737 C743 1.465 . S
C738 C733 1.399 . S
C738 C737 1.394 . S
C738 C739 1.516 . S
C739 C738 1.516 . S
C739 C740 1.502 . S
C739 C741 1.561 . S
C739 C742 1.526 . S
C740 H724 0.959 . S
C740 H725 0.959 . S
C740 H726 0.961 . S
C740 C739 1.502 . S
C741 H727 0.960 . S
C741 H728 0.961 . S
C741 H729 0.959 . S
C741 C739 1.561 . S
C742 C739 1.526 . S
C742 C743 1.396 . S
C742 C747 1.390 . S
C743 C737 1.465 . S
C743 C742 1.396 . S
C743 C744 1.399 . S
C744 H730 0.929 . S
C744 C743 1.399 . S
C744 C745 1.385 . S
C745 H731 0.931 . S
C745 C744 1.385 . S
C745 C746 1.389 . S
C746 C745 1.389 . S
C746 C747 1.387 . S
C747 H732 0.930 . S
C747 C742 1.390 . S
C747 C746 1.387 . S
H748 C760 0.930 . S
H749 C762 0.930 . S
H750 C763 0.930 . S
H751 C767 0.959 . S
H752 C767 0.959 . S
H753 C767 0.961 . S
H754 C768 0.960 . S
H755 C768 0.961 . S
H756 C768 0.959 . S
H757 C771 0.929 . S
H758 C772 0.931 . S
H759 C774 0.930 . S
C760 H748 0.930 . S
C760 C761 1.399 . S
C760 C765 1.399 1_554 S
C761 C760 1.399 . S
C761 C762 1.376 . S
C762 H749 0.930 . S
C762 C761 1.376 . S
C762 C763 1.388 1_554 S
C763 H750 0.930 . S
C763 C762 1.388 1_556 S
C763 C764 1.390 . S
C764 C763 1.390 . S
C764 C765 1.394 . S
C764 C770 1.465 . S
C765 C760 1.399 1_556 S
C765 C764 1.394 . S
C765 C766 1.516 . S
C766 C765 1.516 . S
C766 C767 1.502 . S
C766 C768 1.561 . S
C766 C769 1.526 . S
C767 H751 0.959 . S
C767 H752 0.959 . S
C767 H753 0.961 . S
C767 C766 1.502 . S
C768 H754 0.960 . S
C768 H755 0.961 . S
C768 H756 0.959 . S
C768 C766 1.561 . S
C769 C766 1.526 . S
C769 C770 1.396 . S
C769 C774 1.390 . S
C770 C764 1.465 . S
C770 C769 1.396 . S
C770 C771 1.399 . S
C771 H757 0.929 . S
C771 C770 1.399 . S
C771 C772 1.385 . S
C772 H758 0.931 . S
C772 C771 1.385 . S
C772 C773 1.389 . S
C773 C772 1.389 . S
C773 C774 1.387 . S
C774 H759 0.930 . S
C774 C769 1.390 . S
C774 C773 1.387 . S
H775 C787 0.930 . S
H776 C789 0.930 . S
H777 C790 0.930 . S
H778 C794 0.959 . S
H779 C794 0.959 . S
H780 C794 0.961 . S
H781 C795 0.960 . S
H782 C795 0.961 . S
H783 C795 0.959 . S
H784 C798 0.929 . S
H785 C799 0.931 . S
H786 C801 0.930 . S
C787 H775 0.930 . S
C787 C788 1.399 . S
C787 C792 1.399 . S
C788 C787 1.399 . S
C788 C789 1.376 . S
C789 H776 0.930 . S
C789 C788 1.376 . S
C789 C790 1.388 . S
C790 H777 0.930 . S
C790 C789 1.388 . S
C790 C791 1.390 . S
C791 C790 1.390 . S
C791 C792 1.394 . S
C791 C797 1.465 . S
C792 C787 1.399 . S
C792 C791 1.394 . S
C792 C793 1.516 . S
C793 C792 1.516 . S
C793 C794 1.502 . S
C793 C795 1.561 . S
C793 C796 1.526 . S
C794 H778 0.959 . S
C794 H779 0.959 . S
C794 H780 0.961 . S
C794 C793 1.502 . S
C795 H781 0.960 . S
C795 H782 0.961 . S
C795 H783 0.959 . S
C795 C793 1.561 . S
C796 C793 1.526 . S
C796 C797 1.396 . S
C796 C801 1.390 . S
C797 C791 1.465 . S
C797 C796 1.396 . S
C797 C798 1.399 . S
C798 H784 0.929 . S
C798 C797 1.399 . S
C798 C799 1.385 . S
C799 H785 0.931 . S
C799 C798 1.385 . S
C799 C800 1.389 . S
C800 C799 1.389 . S
C800 C801 1.387 . S
C801 H786 0.930 . S
C801 C796 1.390 . S
C801 C800 1.387 . S
H802 C814 0.930 . S
H803 C816 0.930 . S
H804 C817 0.938 . S
H805 C821 0.959 . S
H806 C821 0.959 . S
H807 C821 0.961 . S
H808 C822 0.960 . S
H809 C822 0.961 . S
H810 C822 0.959 . S
H811 C825 0.929 . S
H812 C826 0.931 . S
H813 C828 0.930 . S
C814 H802 0.930 . S
C814 C815 1.399 . S
C814 C819 1.399 1_556 S
C815 C814 1.399 . S
C815 C816 1.376 . S
C816 H803 0.930 . S
C816 C815 1.376 . S
C816 C817 1.351 1_556 S
C817 H804 0.938 . S
C817 C816 1.351 1_554 S
C817 C818 1.420 . S
C818 C817 1.420 . S
C818 C819 1.394 . S
C818 C824 1.465 . S
C819 C814 1.399 1_554 S
C819 C818 1.394 . S
C819 C820 1.516 . S
C820 C819 1.516 . S
C820 C821 1.502 . S
C820 C822 1.561 . S
C820 C823 1.526 . S
C821 H805 0.959 . S
C821 H806 0.959 . S
C821 H807 0.961 . S
C821 C820 1.502 . S
C822 H808 0.960 . S
C822 H809 0.961 . S
C822 H810 0.959 . S
C822 C820 1.561 . S
C823 C820 1.526 . S
C823 C824 1.396 . S
C823 C828 1.390 . S
C824 C818 1.465 . S
C824 C823 1.396 . S
C824 C825 1.399 . S
C825 H811 0.929 . S
C825 C824 1.399 . S
C825 C826 1.385 . S
C826 H812 0.931 . S
C826 C825 1.385 . S
C826 C827 1.389 . S
C827 C826 1.389 . S
C827 C828 1.387 . S
C828 H813 0.930 . S
C828 C823 1.390 . S
C828 C827 1.387 . S
H829 C841 0.930 . S
H830 C843 0.930 . S
H831 C844 0.930 . S
H832 C848 0.959 . S
H833 C848 0.959 . S
H834 C848 0.961 . S
H835 C849 0.960 . S
H836 C849 0.961 . S
H837 C849 0.959 . S
H838 C852 0.929 . S
H839 C853 0.931 . S
H840 C855 0.930 . S
C841 H829 0.930 . S
C841 C842 1.399 . S
C841 C846 1.399 . S
C842 C841 1.399 . S
C842 C843 1.376 . S
C843 H830 0.930 . S
C843 C842 1.376 . S
C843 C844 1.388 . S
C844 H831 0.930 . S
C844 C843 1.388 . S
C844 C845 1.390 . S
C845 C844 1.390 . S
C845 C846 1.394 . S
C845 C851 1.465 . S
C846 C841 1.399 . S
C846 C845 1.394 . S
C846 C847 1.516 . S
C847 C846 1.516 . S
C847 C848 1.502 . S
C847 C849 1.561 . S
C847 C850 1.526 . S
C848 H832 0.959 . S
C848 H833 0.959 . S
C848 H834 0.961 . S
C848 C847 1.502 . S
C849 H835 0.960 . S
C849 H836 0.961 . S
C849 H837 0.959 . S
C849 C847 1.561 . S
C850 C847 1.526 . S
C850 C851 1.396 . S
C850 C855 1.390 . S
C851 C845 1.465 . S
C851 C850 1.396 . S
C851 C852 1.399 . S
C852 H838 0.929 . S
C852 C851 1.399 . S
C852 C853 1.385 . S
C853 H839 0.931 . S
C853 C852 1.385 . S
C853 C854 1.389 . S
C854 C853 1.389 . S
C854 C855 1.387 . S
C855 H840 0.930 . S
C855 C850 1.390 . S
C855 C854 1.387 . S
H856 C868 0.930 . S
H857 C870 0.930 . S
H858 C871 0.930 . S
H859 C875 0.959 . S
H860 C875 0.959 . S
H861 C875 0.961 . S
H862 C876 0.960 . S
H863 C876 0.961 . S
H864 C876 0.959 . S
H865 C879 0.929 . S
H866 C880 0.931 . S
H867 C882 0.930 . S
C868 H856 0.930 . S
C868 C869 1.399 . S
C868 C873 1.399 . S
C869 C868 1.399 . S
C869 C870 1.376 . S
C870 H857 0.930 . S
C870 C869 1.376 . S
C870 C871 1.388 . S
C871 H858 0.930 . S
C871 C870 1.388 . S
C871 C872 1.390 . S
C872 C871 1.390 . S
C872 C873 1.394 . S
C872 C878 1.465 . S
C873 C868 1.399 . S
C873 C872 1.394 . S
C873 C874 1.516 . S
C874 C873 1.516 . S
C874 C875 1.502 . S
C874 C876 1.561 . S
C874 C877 1.526 . S
C875 H859 0.959 . S
C875 H860 0.959 . S
C875 H861 0.961 . S
C875 C874 1.502 . S
C876 H862 0.960 . S
C876 H863 0.961 . S
C876 H864 0.959 . S
C876 C874 1.561 . S
C877 C874 1.526 . S
C877 C878 1.396 . S
C877 C882 1.390 . S
C878 C872 1.465 . S
C878 C877 1.396 . S
C878 C879 1.399 . S
C879 H865 0.929 . S
C879 C878 1.399 . S
C879 C880 1.385 . S
C880 H866 0.931 . S
C880 C879 1.385 . S
C880 C881 1.389 . S
C881 C880 1.389 . S
C881 C882 1.387 . S
C882 H867 0.930 . S
C882 C877 1.390 . S
C882 C881 1.387 . S
H883 C895 0.930 . S
H884 C897 0.930 . S
H885 C898 0.930 . S
H886 C902 0.959 . S
H887 C902 0.959 . S
H888 C902 0.961 . S
H889 C903 0.960 . S
H890 C903 0.961 . S
H891 C903 0.959 . S
H892 C906 0.929 . S
H893 C907 0.931 . S
H894 C909 0.930 . S
C895 H883 0.930 . S
C895 C896 1.399 . S
C895 C900 1.399 . S
C896 C895 1.399 . S
C896 C897 1.376 . S
C897 H884 0.930 . S
C897 C896 1.376 . S
C897 C898 1.388 . S
C898 H885 0.930 . S
C898 C897 1.388 . S
C898 C899 1.390 . S
C899 C898 1.390 . S
C899 C900 1.394 . S
C899 C905 1.465 . S
C900 C895 1.399 . S
C900 C899 1.394 . S
C900 C901 1.516 . S
C901 C900 1.516 . S
C901 C902 1.502 . S
C901 C903 1.561 . S
C901 C904 1.526 . S
C902 H886 0.959 . S
C902 H887 0.959 . S
C902 H888 0.961 . S
C902 C901 1.502 . S
C903 H889 0.960 . S
C903 H890 0.961 . S
C903 H891 0.959 . S
C903 C901 1.561 . S
C904 C901 1.526 . S
C904 C905 1.396 . S
C904 C909 1.390 . S
C905 C899 1.465 . S
C905 C904 1.396 . S
C905 C906 1.399 . S
C906 H892 0.929 . S
C906 C905 1.399 . S
C906 C907 1.385 . S
C907 H893 0.931 . S
C907 C906 1.385 . S
C907 C908 1.389 . S
C908 C907 1.389 . S
C908 C909 1.387 . S
C909 H894 0.930 . S
C909 C904 1.390 . S
C909 C908 1.387 . S
H910 C922 0.930 . S
H911 C924 0.930 . S
H912 C925 0.930 . S
H913 C929 0.959 . S
H914 C929 0.959 . S
H915 C929 0.961 . S
H916 C930 0.960 . S
H917 C930 0.961 . S
H918 C930 0.959 . S
H919 C933 0.929 . S
H920 C934 0.931 . S
H921 C936 0.930 . S
C922 H910 0.930 . S
C922 C923 1.399 . S
C922 C927 1.399 . S
C923 C922 1.399 . S
C923 C924 1.376 . S
C924 H911 0.930 . S
C924 C923 1.376 . S
C924 C925 1.388 . S
C925 H912 0.930 . S
C925 C924 1.388 . S
C925 C926 1.390 . S
C926 C925 1.390 . S
C926 C927 1.394 . S
C926 C932 1.465 . S
C927 C922 1.399 . S
C927 C926 1.394 . S
C927 C928 1.516 . S
C928 C927 1.516 . S
C928 C929 1.502 . S
C928 C930 1.561 . S
C928 C931 1.526 . S
C929 H913 0.959 . S
C929 H914 0.959 . S
C929 H915 0.961 . S
C929 C928 1.502 . S
C930 H916 0.960 . S
C930 H917 0.961 . S
C930 H918 0.959 . S
C930 C928 1.561 . S
C931 C928 1.526 . S
C931 C932 1.396 . S
C931 C936 1.390 . S
C932 C926 1.465 . S
C932 C931 1.396 . S
C932 C933 1.399 . S
C933 H919 0.929 . S
C933 C932 1.399 . S
C933 C934 1.385 . S
C934 H920 0.931 . S
C934 C933 1.385 . S
C934 C935 1.389 . S
C935 C934 1.389 . S
C935 C936 1.387 . S
C936 H921 0.930 . S
C936 C931 1.390 . S
C936 C935 1.387 . S
H937 C949 0.930 . S
H938 C951 0.930 . S
H939 C952 0.930 . S
H940 C956 0.959 . S
H941 C956 0.959 . S
H942 C956 0.961 . S
H943 C957 0.960 . S
H944 C957 0.961 . S
H945 C957 0.959 . S
H946 C960 0.929 . S
H947 C961 0.931 1_455 S
H948 C963 0.930 . S
C949 H937 0.930 . S
C949 C950 1.399 . S
C949 C954 1.399 . S
C950 C949 1.399 . S
C950 C951 1.376 . S
C951 H938 0.930 . S
C951 C950 1.376 . S
C951 C952 1.388 . S
C952 H939 0.930 . S
C952 C951 1.388 . S
C952 C953 1.390 . S
C953 C952 1.390 . S
C953 C954 1.394 . S
C953 C959 1.465 . S
C954 C949 1.399 . S
C954 C953 1.394 . S
C954 C955 1.516 . S
C955 C954 1.516 . S
C955 C956 1.502 . S
C955 C957 1.561 . S
C955 C958 1.526 . S
C956 H940 0.959 . S
C956 H941 0.959 . S
C956 H942 0.961 . S
C956 C955 1.502 . S
C957 H943 0.960 . S
C957 H944 0.961 . S
C957 H945 0.959 . S
C957 C955 1.561 . S
C958 C955 1.526 . S
C958 C959 1.396 . S
C958 C963 1.390 . S
C959 C953 1.465 . S
C959 C958 1.396 . S
C959 C960 1.399 . S
C960 H946 0.929 . S
C960 C959 1.399 . S
C960 C961 1.385 . S
C961 H947 0.931 1_655 S
C961 C960 1.385 . S
C961 C962 1.389 . S
C962 C961 1.389 . S
C962 C963 1.387 . S
C963 H948 0.930 . S
C963 C958 1.390 . S
C963 C962 1.387 . S
H964 C976 0.930 . S
H965 C978 0.930 . S
H966 C979 0.930 . S
H967 C983 0.959 . S
H968 C983 0.959 1_455 S
H969 C983 0.961 . S
H970 C984 0.960 . S
H971 C984 0.961 . S
H972 C984 0.959 . S
H973 C987 0.929 . S
H974 C988 0.931 . S
H975 C990 0.930 . S
C976 H964 0.930 . S
C976 C977 1.399 . S
C976 C981 1.399 . S
C977 C976 1.399 . S
C977 C978 1.376 . S
C978 H965 0.930 . S
C978 C977 1.376 . S
C978 C979 1.388 . S
C979 H966 0.930 . S
C979 C978 1.388 . S
C979 C980 1.390 . S
C980 C979 1.390 . S
C980 C981 1.394 . S
C980 C986 1.465 . S
C981 C976 1.399 . S
C981 C980 1.394 . S
C981 C982 1.516 . S
C982 C981 1.516 . S
C982 C983 1.502 . S
C982 C984 1.561 . S
C982 C985 1.526 . S
C983 H967 0.959 . S
C983 H968 0.959 1_655 S
C983 H969 0.961 . S
C983 C982 1.502 . S
C984 H970 0.960 . S
C984 H971 0.961 . S
C984 H972 0.959 . S
C984 C982 1.561 . S
C985 C982 1.526 . S
C985 C986 1.396 . S
C985 C990 1.390 . S
C986 C980 1.465 . S
C986 C985 1.396 . S
C986 C987 1.399 . S
C987 H973 0.929 . S
C987 C986 1.399 . S
C987 C988 1.385 . S
C988 H974 0.931 . S
C988 C987 1.385 . S
C988 C989 1.389 . S
C989 C988 1.389 . S
C989 C990 1.387 . S
C990 H975 0.930 . S
C990 C985 1.390 . S
C990 C989 1.387 . S
H991 C1003 0.930 . S
H992 C1005 0.930 . S
H993 C1006 0.930 . S
H994 C1010 0.959 . S
H995 C1010 0.959 . S
H996 C1010 0.961 . S
H997 C1011 0.960 . S
H998 C1011 0.961 . S
H999 C1011 0.959 . S
H1000 C1014 0.929 . S
H1001 C1015 0.931 . S
H1002 C1017 0.930 . S
C1003 H991 0.930 . S
C1003 C1004 1.399 . S
C1003 C1008 1.399 . S
C1004 C1003 1.399 . S
C1004 C1005 1.376 . S
C1005 H992 0.930 . S
C1005 C1004 1.376 . S
C1005 C1006 1.388 . S
C1006 H993 0.930 . S
C1006 C1005 1.388 . S
C1006 C1007 1.390 . S
C1007 C1006 1.390 . S
C1007 C1008 1.394 . S
C1007 C1013 1.465 . S
C1008 C1003 1.399 . S
C1008 C1007 1.394 . S
C1008 C1009 1.516 . S
C1009 C1008 1.516 . S
C1009 C1010 1.502 . S
C1009 C1011 1.561 . S
C1009 C1012 1.526 . S
C1010 H994 0.959 . S
C1010 H995 0.959 . S
C1010 H996 0.961 . S
C1010 C1009 1.502 . S
C1011 H997 0.960 . S
C1011 H998 0.961 . S
C1011 H999 0.959 . S
C1011 C1009 1.561 . S
C1012 C1009 1.526 . S
C1012 C1013 1.396 . S
C1012 C1017 1.390 . S
C1013 C1007 1.465 . S
C1013 C1012 1.396 . S
C1013 C1014 1.399 . S
C1014 H1000 0.929 . S
C1014 C1013 1.399 . S
C1014 C1015 1.385 . S
C1015 H1001 0.931 . S
C1015 C1014 1.385 . S
C1015 C1016 1.389 . S
C1016 C1015 1.389 . S
C1016 C1017 1.387 . S
C1017 H1002 0.930 . S
C1017 C1012 1.390 . S
C1017 C1016 1.387 . S
H1018 C1030 0.930 . S
H1019 C1032 0.930 . S
H1020 C1033 0.930 . S
H1021 C1037 0.959 . S
H1022 C1037 0.959 . S
H1023 C1037 0.961 . S
H1024 C1038 0.960 . S
H1025 C1038 0.961 . S
H1026 C1038 0.959 . S
H1027 C1041 0.929 . S
H1028 C1042 0.931 . S
H1029 C1044 0.930 . S
C1030 H1018 0.930 . S
C1030 C1031 1.399 . S
C1030 C1035 1.399 . S
C1031 C1030 1.399 . S
C1031 C1032 1.376 . S
C1032 H1019 0.930 . S
C1032 C1031 1.376 . S
C1032 C1033 1.388 . S
C1033 H1020 0.930 . S
C1033 C1032 1.388 . S
C1033 C1034 1.390 . S
C1034 C1033 1.390 . S
C1034 C1035 1.394 . S
C1034 C1040 1.465 . S
C1035 C1030 1.399 . S
C1035 C1034 1.394 . S
C1035 C1036 1.516 . S
C1036 C1035 1.516 . S
C1036 C1037 1.502 . S
C1036 C1038 1.561 . S
C1036 C1039 1.526 . S
C1037 H1021 0.959 . S
C1037 H1022 0.959 . S
C1037 H1023 0.961 . S
C1037 C1036 1.502 . S
C1038 H1024 0.960 . S
C1038 H1025 0.961 . S
C1038 H1026 0.959 . S
C1038 C1036 1.561 . S
C1039 C1036 1.526 . S
C1039 C1040 1.396 . S
C1039 C1044 1.390 . S
C1040 C1034 1.465 . S
C1040 C1039 1.396 . S
C1040 C1041 1.399 . S
C1041 H1027 0.929 . S
C1041 C1040 1.399 . S
C1041 C1042 1.385 . S
C1042 H1028 0.931 . S
C1042 C1041 1.385 . S
C1042 C1043 1.389 . S
C1043 C1042 1.389 . S
C1043 C1044 1.387 . S
C1044 H1029 0.930 . S
C1044 C1039 1.390 . S
C1044 C1043 1.387 . S
H1045 C1057 0.930 . S
H1046 C1059 0.930 . S
H1047 C1060 0.930 . S
H1048 C1064 0.959 . S
H1049 C1064 0.968 . S
H1050 C1064 0.961 . S
H1051 C1065 0.960 . S
H1052 C1065 0.961 . S
H1053 C1065 0.959 . S
H1054 C1068 0.929 . S
H1055 C1069 0.931 . S
H1056 C1071 0.930 . S
C1057 H1045 0.930 . S
C1057 C1058 1.399 . S
C1057 C1062 1.399 . S
C1058 C1057 1.399 . S
C1058 C1059 1.376 . S
C1059 H1046 0.930 . S
C1059 C1058 1.376 . S
C1059 C1060 1.388 . S
C1060 H1047 0.930 . S
C1060 C1059 1.388 . S
C1060 C1061 1.390 . S
C1061 C1060 1.390 . S
C1061 C1062 1.394 . S
C1061 C1067 1.465 . S
C1062 C1057 1.399 . S
C1062 C1061 1.394 . S
C1062 C1063 1.516 . S
C1063 C1062 1.516 . S
C1063 C1064 1.502 . S
C1063 C1065 1.561 . S
C1063 C1066 1.526 . S
C1064 H1048 0.959 . S
C1064 H1049 0.968 . S
C1064 H1050 0.961 . S
C1064 C1063 1.502 . S
C1065 H1051 0.960 . S
C1065 H1052 0.961 . S
C1065 H1053 0.959 . S
C1065 C1063 1.561 . S
C1066 C1063 1.526 . S
C1066 C1067 1.396 . S
C1066 C1071 1.390 . S
C1067 C1061 1.465 . S
C1067 C1066 1.396 . S
C1067 C1068 1.399 . S
C1068 H1054 0.929 . S
C1068 C1067 1.399 . S
C1068 C1069 1.385 . S
C1069 H1055 0.931 . S
C1069 C1068 1.385 . S
C1069 C1070 1.389 . S
C1070 C1069 1.389 . S
C1070 C1071 1.387 . S
C1071 H1056 0.930 . S
C1071 C1066 1.390 . S
C1071 C1070 1.387 . S
C437 C73 1.570 . S
C449 C162 1.624 . S
C476 C246 1.732 . S
C464 C84 1.718 . S
C503 C239 1.648 . S
C491 C51 1.563 . S
C518 C62 1.701 . S
C530 C155 1.752 . S
C557 C319 1.659 . S
C545 C29 1.623 . S
C584 C403 1.578 . S
C572 C38 1.447 . S
C599 C7 1.611 . S
C611 C396 1.635 . S
C626 C16 1.426 . S
C638 C312 1.563 . S
C665 C146 1.489 . S
C653 C18 1.668 . S
C692 C230 1.562 . S
C680 C5 1.360 . S
C719 C241 1.391 . S
C707 C40 1.636 . S
C746 C157 1.409 . S
C734 C27 1.479 . S
C773 C325 1.386 . S
C761 C60 1.410 . S
C788 C49 1.295 . S
C800 C409 1.310 . S
C827 C398 1.316 . S
C815 C82 1.414 . S
C842 C71 1.425 . S
C854 C314 1.334 . S
C881 C144 1.643 . S
C869 C8 1.612 . S
C908 C228 1.563 . S
C896 C19 1.539 . S
C923 C30 1.610 . S
C935 C235 1.637 . S
C962 C151 1.518 . S
C950 C41 1.530 . S
C989 C323 1.413 . S
C977 C52 1.424 . S
C1004 C63 1.542 . S
C1016 C407 1.544 . S
C1031 C74 1.412 . S
C1043 C414 1.358 . S
C1058 C85 1.542 . S
C1070 C330 1.492 . S
