# Generated by pormake.
# Topology ocu, (6,8)-cn, num edge types: 1
# Building blocks:
#     Node 0, Type 0, BuildingBlock: VOLQOD_clean_sbu_1, # of connection points: 6
#     Node 1, Type 0, BuildingBlock: VOLQOD_clean_sbu_1, # of connection points: 6
#     Node 2, Type 0, BuildingBlock: VOLQOD_clean_sbu_1, # of connection points: 6
#     Node 3, Type 0, BuildingBlock: VOLQOD_clean_sbu_1, # of connection points: 6
#     Node 4, Type 0, BuildingBlock: VOLQOD_clean_sbu_1, # of connection points: 6
#     Node 5, Type 0, BuildingBlock: VOLQOD_clean_sbu_1, # of connection points: 6
#     Node 6, Type 0, BuildingBlock: VOLQOD_clean_sbu_1, # of connection points: 6
#     Node 7, Type 0, BuildingBlock: VOLQOD_clean_sbu_1, # of connection points: 6
#     Node 8, Type 1, BuildingBlock: AJUNOK_clean_sbu_0, # of connection points: 8
#     Node 9, Type 1, BuildingBlock: AJUNOK_clean_sbu_0, # of connection points: 8
#     Node 10, Type 1, BuildingBlock: AJUNOK_clean_sbu_0, # of connection points: 8
#     Node 11, Type 1, BuildingBlock: AJUNOK_clean_sbu_0, # of connection points: 8
#     Node 12, Type 1, BuildingBlock: AJUNOK_clean_sbu_0, # of connection points: 8
#     Node 13, Type 1, BuildingBlock: AJUNOK_clean_sbu_0, # of connection points: 8
#     Edge 14, Type (0, 1), BuildingBlock: EZIPEK_clean_linker_0, # of connection points: 2
#     Edge 15, Type (0, 1), BuildingBlock: EZIPEK_clean_linker_0, # of connection points: 2
#     Edge 16, Type (0, 1), BuildingBlock: EZIPEK_clean_linker_0, # of connection points: 2
#     Edge 17, Type (0, 1), BuildingBlock: EZIPEK_clean_linker_0, # of connection points: 2
#     Edge 18, Type (0, 1), BuildingBlock: EZIPEK_clean_linker_0, # of connection points: 2
#     Edge 19, Type (0, 1), BuildingBlock: EZIPEK_clean_linker_0, # of connection points: 2
#     Edge 20, Type (0, 1), BuildingBlock: EZIPEK_clean_linker_0, # of connection points: 2
#     Edge 21, Type (0, 1), BuildingBlock: EZIPEK_clean_linker_0, # of connection points: 2
#     Edge 22, Type (0, 1), BuildingBlock: EZIPEK_clean_linker_0, # of connection points: 2
#     Edge 23, Type (0, 1), BuildingBlock: EZIPEK_clean_linker_0, # of connection points: 2
#     Edge 24, Type (0, 1), BuildingBlock: EZIPEK_clean_linker_0, # of connection points: 2
#     Edge 25, Type (0, 1), BuildingBlock: EZIPEK_clean_linker_0, # of connection points: 2
#     Edge 26, Type (0, 1), BuildingBlock: EZIPEK_clean_linker_0, # of connection points: 2
#     Edge 27, Type (0, 1), BuildingBlock: EZIPEK_clean_linker_0, # of connection points: 2
#     Edge 28, Type (0, 1), BuildingBlock: EZIPEK_clean_linker_0, # of connection points: 2
#     Edge 29, Type (0, 1), BuildingBlock: EZIPEK_clean_linker_0, # of connection points: 2
#     Edge 30, Type (0, 1), BuildingBlock: EZIPEK_clean_linker_0, # of connection points: 2
#     Edge 31, Type (0, 1), BuildingBlock: EZIPEK_clean_linker_0, # of connection points: 2
#     Edge 32, Type (0, 1), BuildingBlock: EZIPEK_clean_linker_0, # of connection points: 2
#     Edge 33, Type (0, 1), BuildingBlock: EZIPEK_clean_linker_0, # of connection points: 2
#     Edge 34, Type (0, 1), BuildingBlock: EZIPEK_clean_linker_0, # of connection points: 2
#     Edge 35, Type (0, 1), BuildingBlock: EZIPEK_clean_linker_0, # of connection points: 2
#     Edge 36, Type (0, 1), BuildingBlock: EZIPEK_clean_linker_0, # of connection points: 2
#     Edge 37, Type (0, 1), BuildingBlock: EZIPEK_clean_linker_0, # of connection points: 2
#     Edge 38, Type (0, 1), BuildingBlock: EZIPEK_clean_linker_0, # of connection points: 2
#     Edge 39, Type (0, 1), BuildingBlock: EZIPEK_clean_linker_0, # of connection points: 2
#     Edge 40, Type (0, 1), BuildingBlock: EZIPEK_clean_linker_0, # of connection points: 2
#     Edge 41, Type (0, 1), BuildingBlock: EZIPEK_clean_linker_0, # of connection points: 2
#     Edge 42, Type (0, 1), BuildingBlock: EZIPEK_clean_linker_0, # of connection points: 2
#     Edge 43, Type (0, 1), BuildingBlock: EZIPEK_clean_linker_0, # of connection points: 2
#     Edge 44, Type (0, 1), BuildingBlock: EZIPEK_clean_linker_0, # of connection points: 2
#     Edge 45, Type (0, 1), BuildingBlock: EZIPEK_clean_linker_0, # of connection points: 2
#     Edge 46, Type (0, 1), BuildingBlock: EZIPEK_clean_linker_0, # of connection points: 2
#     Edge 47, Type (0, 1), BuildingBlock: EZIPEK_clean_linker_0, # of connection points: 2
#     Edge 48, Type (0, 1), BuildingBlock: EZIPEK_clean_linker_0, # of connection points: 2
#     Edge 49, Type (0, 1), BuildingBlock: EZIPEK_clean_linker_0, # of connection points: 2
#     Edge 50, Type (0, 1), BuildingBlock: EZIPEK_clean_linker_0, # of connection points: 2
#     Edge 51, Type (0, 1), BuildingBlock: EZIPEK_clean_linker_0, # of connection points: 2
#     Edge 52, Type (0, 1), BuildingBlock: EZIPEK_clean_linker_0, # of connection points: 2
#     Edge 53, Type (0, 1), BuildingBlock: EZIPEK_clean_linker_0, # of connection points: 2
#     Edge 54, Type (0, 1), BuildingBlock: EZIPEK_clean_linker_0, # of connection points: 2
#     Edge 55, Type (0, 1), BuildingBlock: EZIPEK_clean_linker_0, # of connection points: 2
#     Edge 56, Type (0, 1), BuildingBlock: EZIPEK_clean_linker_0, # of connection points: 2
#     Edge 57, Type (0, 1), BuildingBlock: EZIPEK_clean_linker_0, # of connection points: 2
#     Edge 58, Type (0, 1), BuildingBlock: EZIPEK_clean_linker_0, # of connection points: 2
#     Edge 59, Type (0, 1), BuildingBlock: EZIPEK_clean_linker_0, # of connection points: 2
#     Edge 60, Type (0, 1), BuildingBlock: EZIPEK_clean_linker_0, # of connection points: 2
#     Edge 61, Type (0, 1), BuildingBlock: EZIPEK_clean_linker_0, # of connection points: 2
# Relax obj value: 0.270
# Max RMSD: 0.372
# Mean RMSD: 0.266
data_MOF--net-ocu--node1-VOLQOD_clean_sbu_1--node2-AJUNOK_clean_sbu_0--edge1-EZIPEK_clean_linker_0
_symmetry_space_group_name_H-M    P1
_symmetry_Int_Tables_number       1
_symmetry_cell_setting            triclinic
loop_
_symmetry_equiv_pos_as_xyz
'x, y, z'
_cell_length_a     32.819245
_cell_length_b     32.74909
_cell_length_c     27.495452
_cell_angle_alpha  97.853169
_cell_angle_beta   98.620513
_cell_angle_gamma 103.59636
loop_
_atom_site_label
_atom_site_type_symbol
_atom_site_fract_x
_atom_site_fract_y
_atom_site_fract_z
_atom_type_partial_charge
O0 O 0.32911 0.31832 0.29671 0.0
Zn1 Zn 0.28178 0.27379 0.31243 0.0
O2 O 0.24221 0.24286 0.24968 0.0
Zn3 Zn 0.18874 0.25738 0.24798 0.0
Zn4 Zn 0.26216 0.25872 0.19115 0.0
Zn5 Zn 0.23455 0.18182 0.24475 0.0
O6 O 0.14411 0.20845 0.2567 0.0
O7 O 0.17698 0.15633 0.26107 0.0
O8 O 0.25296 0.30706 0.35785 0.0
O9 O 0.19278 0.30305 0.30575 0.0
O10 O 0.16958 0.27786 0.18616 0.0
O11 O 0.22054 0.27579 0.14199 0.0
O12 O 0.28247 0.21288 0.15704 0.0
O13 O 0.30941 0.23401 0.34819 0.0
O14 O 0.2502 0.15368 0.18141 0.0
O15 O 0.27782 0.17186 0.29783 0.0
C16 C 0.33534 0.32806 0.25476 0.0
C17 C 0.145 0.17154 0.26528 0.0
C18 C 0.18514 0.2834 0.14729 0.0
C19 C 0.2181 0.3176 0.34756 0.0
C20 C 0.27431 0.17274 0.15454 0.0
C21 C 0.30505 0.19407 0.33557 0.0
O22 O 0.31167 0.30805 0.21357 0.0
O23 O 0.73714 0.19454 0.17065 0.0
Zn24 Zn 0.77334 0.23193 0.23491 0.0
O25 O 0.73736 0.25922 0.27009 0.0
Zn26 Zn 0.74204 0.3164 0.25898 0.0
Zn27 Zn 0.68043 0.22638 0.24445 0.0
Zn28 Zn 0.75085 0.25992 0.34006 0.0
O29 O 0.76393 0.35917 0.32323 0.0
O30 O 0.78244 0.31807 0.37538 0.0
O31 O 0.81828 0.27642 0.21595 0.0
O32 O 0.78701 0.32991 0.21838 0.0
O33 O 0.68829 0.32269 0.21838 0.0
O34 O 0.64982 0.25529 0.19771 0.0
O35 O 0.64879 0.21593 0.29947 0.0
O36 O 0.80113 0.19756 0.27897 0.0
O37 O 0.69843 0.24225 0.36769 0.0
O38 O 0.78629 0.21927 0.35326 0.0
C39 C 0.70043 0.16949 0.16769 0.0
C40 C 0.7823 0.35495 0.36582 0.0
C41 C 0.6558 0.29416 0.19315 0.0
C42 C 0.81627 0.31306 0.20691 0.0
C43 C 0.65986 0.22464 0.34687 0.0
C44 C 0.8035 0.19669 0.32555 0.0
O45 O 0.68002 0.17167 0.20335 0.0
O46 O 0.68303 0.67705 0.26478 0.0
Zn47 Zn 0.7352 0.72346 0.30088 0.0
O48 O 0.7675 0.74592 0.2514 0.0
Zn49 Zn 0.81993 0.72977 0.25541 0.0
Zn50 Zn 0.73739 0.72848 0.18334 0.0
Zn51 Zn 0.7792 0.80633 0.26479 0.0
O52 O 0.86943 0.7804 0.27409 0.0
O53 O 0.83904 0.83252 0.26069 0.0
O54 O 0.77195 0.698 0.35004 0.0
O55 O 0.82635 0.69733 0.31047 0.0
O56 O 0.82204 0.69365 0.19319 0.0
O57 O 0.76677 0.69755 0.13817 0.0
O58 O 0.71679 0.77358 0.15256 0.0
O59 O 0.71488 0.77164 0.33628 0.0
O60 O 0.74195 0.82754 0.21512 0.0
O61 O 0.76786 0.82655 0.33309 0.0
C62 C 0.66876 0.66705 0.21785 0.0
C63 C 0.87158 0.81975 0.27556 0.0
C64 C 0.79969 0.68428 0.14941 0.0
C65 C 0.80702 0.68839 0.34586 0.0
C66 C 0.72067 0.81225 0.1712 0.0
C67 C 0.73392 0.81133 0.34874 0.0
O68 O 0.68704 0.68543 0.18633 0.0
O69 O 0.32182 0.74764 0.33963 0.0
Zn70 Zn 0.27626 0.71803 0.27966 0.0
O71 O 0.24044 0.75446 0.25738 0.0
Zn72 Zn 0.18453 0.73446 0.27128 0.0
Zn73 Zn 0.26372 0.81146 0.29169 0.0
Zn74 Zn 0.23653 0.7543 0.18643 0.0
O75 O 0.146 0.70306 0.20646 0.0
O76 O 0.17767 0.73013 0.14777 0.0
O77 O 0.24046 0.66558 0.29761 0.0
O78 O 0.18381 0.68868 0.31068 0.0
O79 O 0.16519 0.78011 0.31207 0.0
O80 O 0.22133 0.83571 0.32165 0.0
O81 O 0.29036 0.84889 0.24783 0.0
O82 O 0.30398 0.6979 0.22494 0.0
O83 O 0.26245 0.8116 0.17204 0.0
O84 O 0.26865 0.71452 0.1582 0.0
C85 C 0.32974 0.7859 0.36234 0.0
C86 C 0.14738 0.70464 0.16068 0.0
C87 C 0.1843 0.8192 0.32939 0.0
C88 C 0.20537 0.6613 0.31309 0.0
C89 C 0.2856 0.84546 0.20061 0.0
C90 C 0.29499 0.69581 0.17792 0.0
O91 O 0.30929 0.81162 0.34691 0.0
O92 O 0.24714 0.67086 0.67121 0.0
Zn93 Zn 0.27611 0.72139 0.72784 0.0
O94 O 0.23384 0.74408 0.75552 0.0
Zn95 Zn 0.23837 0.8022 0.75035 0.0
Zn96 Zn 0.17883 0.71452 0.7223 0.0
Zn97 Zn 0.23793 0.73999 0.82382 0.0
O98 O 0.27134 0.84098 0.81498 0.0
O99 O 0.27701 0.79266 0.86317 0.0
O100 O 0.31447 0.76796 0.70176 0.0
O101 O 0.27656 0.81613 0.70306 0.0
O102 O 0.1828 0.81209 0.71818 0.0
O103 O 0.15732 0.74656 0.67353 0.0
O104 O 0.13858 0.70692 0.76966 0.0
O105 O 0.3095 0.70064 0.78266 0.0
O106 O 0.18137 0.73037 0.84346 0.0
O107 O 0.26732 0.69544 0.83943 0.0
C108 C 0.20835 0.64886 0.66227 0.0
C109 C 0.28737 0.83055 0.85517 0.0
C110 C 0.15765 0.78567 0.68136 0.0
C111 C 0.30754 0.8027 0.69095 0.0
C112 C 0.14404 0.71645 0.81703 0.0
C113 C 0.29964 0.68861 0.82259 0.0
O114 O 0.18017 0.66021 0.68395 0.0
O115 O 0.197 0.1911 0.78591 0.0
Zn116 Zn 0.24415 0.24547 0.81076 0.0
O117 O 0.26934 0.26421 0.75482 0.0
Zn118 Zn 0.32828 0.25965 0.75976 0.0
Zn119 Zn 0.23688 0.23481 0.69078 0.0
Zn120 Zn 0.27024 0.32253 0.75674 0.0
O121 O 0.37041 0.3176 0.78074 0.0
O122 O 0.32577 0.34652 0.74067 0.0
O123 O 0.28667 0.22547 0.85754 0.0
O124 O 0.3384 0.22531 0.81318 0.0
O125 O 0.33667 0.22786 0.6968 0.0
O126 O 0.27244 0.21049 0.64786 0.0
O127 O 0.20157 0.26818 0.65474 0.0
O128 O 0.22199 0.29374 0.84447 0.0
O129 O 0.22274 0.33033 0.70678 0.0
O130 O 0.26502 0.34925 0.82428 0.0
C131 C 0.18437 0.17041 0.7414 0.0
C132 C 0.35697 0.35038 0.77564 0.0
C133 C 0.3113 0.20941 0.65595 0.0
C134 C 0.32089 0.21566 0.84987 0.0
C135 C 0.19849 0.30591 0.66814 0.0
C136 C 0.23676 0.33413 0.84855 0.0
O137 O 0.19771 0.18474 0.70443 0.0
O138 O 0.82581 0.24448 0.84127 0.0
Zn139 Zn 0.77901 0.21429 0.78262 0.0
O140 O 0.7491 0.25292 0.7558 0.0
Zn141 Zn 0.69011 0.23824 0.75789 0.0
Zn142 Zn 0.774 0.30997 0.78763 0.0
Zn143 Zn 0.75262 0.24994 0.68769 0.0
O144 O 0.65455 0.20374 0.69213 0.0
O145 O 0.70471 0.20472 0.64594 0.0
O146 O 0.73895 0.16933 0.80738 0.0
O147 O 0.68318 0.19761 0.80325 0.0
O148 O 0.67075 0.28755 0.78989 0.0
O149 O 0.73401 0.33273 0.82378 0.0
O150 O 0.79035 0.34659 0.73777 0.0
O151 O 0.80778 0.19056 0.73064 0.0
O152 O 0.75226 0.30537 0.66761 0.0
O153 O 0.80537 0.2333 0.67523 0.0
C154 C 0.84021 0.28438 0.85693 0.0
C155 C 0.66695 0.19045 0.65257 0.0
C156 C 0.69367 0.32151 0.81899 0.0
C157 C 0.70271 0.17092 0.81742 0.0
C158 C 0.77534 0.34132 0.69123 0.0
C159 C 0.82102 0.20554 0.69373 0.0
O160 O 0.82407 0.3115 0.83756 0.0
O161 O 0.83334 0.82948 0.78668 0.0
Zn162 Zn 0.78713 0.78497 0.8064 0.0
O163 O 0.74718 0.75364 0.74552 0.0
Zn164 Zn 0.69013 0.75702 0.74633 0.0
Zn165 Zn 0.76509 0.76469 0.68439 0.0
Zn166 Zn 0.745 0.69546 0.74038 0.0
O167 O 0.65269 0.7037 0.7618 0.0
O168 O 0.70167 0.66778 0.77449 0.0
O169 O 0.75545 0.81535 0.85286 0.0
O170 O 0.69145 0.80115 0.80357 0.0
O171 O 0.66724 0.77577 0.68427 0.0
O172 O 0.71964 0.78249 0.6403 0.0
O173 O 0.78128 0.71354 0.64947 0.0
O174 O 0.81552 0.74356 0.83968 0.0
O175 O 0.73193 0.66465 0.67012 0.0
O176 O 0.79932 0.68873 0.77629 0.0
C177 C 0.84005 0.83581 0.74344 0.0
C178 C 0.66513 0.67303 0.7775 0.0
C179 C 0.68277 0.78596 0.64651 0.0
C180 C 0.71752 0.81983 0.84376 0.0
C181 C 0.76123 0.67453 0.64556 0.0
C182 C 0.82028 0.70791 0.81925 0.0
O183 O 0.81659 0.81317 0.7032 0.0
Cd184 Cd 0.97063 0.97536 0.5592 0.0
Cd185 Cd 0.032 0.04514 0.47779 0.0
C186 C 0.03751 0.92961 0.59665 0.0
N187 N 0.01376 0.92724 0.55093 0.0
C188 C 0.03553 0.8656 0.51848 0.0
C189 C 0.05896 0.86716 0.56578 0.0
C190 C 0.06079 0.90012 0.60478 0.0
C191 C 0.01323 0.89647 0.51169 0.0
H192 H 0.03669 0.95322 0.62773 0.0
H193 H -0.00533 0.89418 0.4755 0.0
C194 C 0.95955 0.94969 0.44189 0.0
C195 C 0.93592 0.04331 0.43116 0.0
C196 C 0.90468 0.06187 0.41145 0.0
C197 C 0.90735 0.10447 0.43008 0.0
C198 C 0.94016 0.12693 0.47028 0.0
C199 C 0.97132 0.10729 0.48825 0.0
N200 N 0.96862 0.06608 0.46871 0.0
H201 H 0.93648 0.01269 0.41203 0.0
H202 H -0.00083 0.12572 0.51541 0.0
C203 C 0.08862 -0.00153 0.41969 0.0
N204 N 0.07806 0.003 0.46562 0.0
C205 C 0.11349 0.95089 0.48896 0.0
C206 C 0.12161 0.94338 0.44038 0.0
C207 C 0.11048 0.96861 0.40615 0.0
C208 C 0.09108 0.98101 0.50075 0.0
H209 H 0.07811 0.01633 0.39258 0.0
H210 H 0.08224 0.98534 0.53695 0.0
C211 C 0.066 0.05681 0.60227 0.0
C212 C 0.9322 0.93946 0.63417 0.0
N213 N 0.93768 0.03079 0.55905 0.0
C214 C 0.96048 0.07052 0.58272 0.0
C215 C 0.94003 0.10193 0.5948 0.0
C216 C 0.89558 0.09212 0.58328 0.0
C217 C 0.87246 0.05186 0.55604 0.0
C218 C 0.8945 0.02122 0.54425 0.0
C219 C 0.05441 0.09016 0.40076 0.0
O220 O 0.93689 0.95907 0.4728 0.0
O221 O -0.00126 0.96889 0.44866 0.0
O222 O 0.06824 0.07516 0.56449 0.0
O223 O 0.03664 0.02383 0.60111 0.0
O224 O 0.91843 0.92281 0.58836 0.0
O225 O 0.96246 0.97307 0.64442 0.0
O226 O 0.07884 0.09848 0.44337 0.0
O227 O 0.01935 0.06252 0.3952 0.0
H228 H -0.00559 0.0779 0.59381 0.0
H229 H 0.877 0.989 0.52659 0.0
H230 H 0.03343 0.84017 0.4878 0.0
H231 H 0.07842 0.90173 0.64193 0.0
H232 H 0.88061 0.04424 0.37933 0.0
H233 H 0.94352 0.16027 0.48468 0.0
H234 H 0.12244 0.93252 0.51657 0.0
H235 H 0.11653 0.96353 0.3684 0.0
H236 H 0.95855 0.13273 0.61619 0.0
H237 H 0.8379 0.04333 0.54753 0.0
Cd238 Cd 0.48614 0.9845 0.09315 0.0
Cd239 Cd 0.52353 0.0186 0.95119 0.0
C240 C 0.57404 0.95768 0.10644 0.0
N241 N 0.5315 0.93907 0.09266 0.0
C242 C 0.54419 0.86958 0.08745 0.0
C243 C 0.58829 0.8886 0.10123 0.0
C244 C 0.60301 0.93311 0.10843 0.0
C245 C 0.51614 0.89576 0.08206 0.0
H246 H 0.58598 -0.00837 0.11704 0.0
H247 H 0.48212 0.88163 0.07146 0.0
C248 C 0.44764 0.939 0.95561 0.0
C249 C 0.45103 0.05157 0.8858 0.0
C250 C 0.42295 0.07707 0.87718 0.0
C251 C 0.4144 0.10236 0.91799 0.0
C252 C 0.43299 0.10043 0.96655 0.0
C253 C 0.46083 0.07467 0.97333 0.0
N254 N 0.46953 0.05134 0.93336 0.0
H255 H 0.45922 0.03317 0.85471 0.0
H256 H 0.47672 0.07423 0.01036 0.0
C257 C 0.56073 0.95095 0.8863 0.0
N258 N 0.55277 0.96103 0.93301 0.0
C259 C 0.59543 0.91729 0.96483 0.0
C260 C 0.6076 0.91014 0.91834 0.0
C261 C 0.58844 0.92548 0.87814 0.0
C262 C 0.56692 0.94237 0.97095 0.0
H263 H 0.54734 0.96427 0.85581 0.0
H264 H 0.55809 0.94927 0.00665 0.0
C265 C 0.55911 0.05282 0.0779 0.0
C266 C 0.43092 0.94747 0.15225 0.0
N267 N 0.45028 0.03701 0.08582 0.0
C268 C 0.46356 0.07375 0.11966 0.0
C269 C 0.43845 0.1025 0.12197 0.0
C270 C 0.39892 0.09446 0.08853 0.0
C271 C 0.38527 0.05436 0.05609 0.0
C272 C 0.41167 0.02655 0.05479 0.0
C273 C 0.58398 0.07356 0.91386 0.0
O274 O 0.46068 0.9544 0.00206 0.0
O275 O 0.46384 0.95921 0.92395 0.0
O276 O 0.53436 0.02959 0.03926 0.0
O277 O 0.54927 0.0466 0.11956 0.0
O278 O 0.42074 0.9482 0.10649 0.0
O279 O 0.46937 0.96492 0.17382 0.0
O280 O 0.55782 0.04048 0.88726 0.0
O281 O 0.58054 0.08278 0.95918 0.0
H282 H 0.49254 0.07972 0.14703 0.0
H283 H 0.40043 -0.00439 0.03067 0.0
H284 H 0.53169 0.83528 0.08238 0.0
H285 H 0.63679 0.94891 0.11956 0.0
H286 H 0.40905 0.07809 0.8392 0.0
H287 H 0.42741 0.12003 -0.00138 0.0
H288 H 0.6091 0.9051 0.99629 0.0
H289 H 0.5964 0.91943 0.84145 0.0
H290 H 0.4497 0.12907 0.15256 0.0
H291 H 0.35371 0.04272 0.03345 0.0
Cd292 Cd 0.97235 0.46698 0.04466 0.0
Cd293 Cd 0.01358 0.50971 0.91113 0.0
C294 C 0.04742 0.43449 0.10026 0.0
N295 N 0.02405 0.43051 0.05392 0.0
C296 C 0.05349 0.37499 0.0214 0.0
C297 C 0.07765 0.37814 0.06883 0.0
C298 C 0.07468 0.40834 0.10865 0.0
C299 C 0.02666 0.40166 0.01488 0.0
H300 H 0.04404 0.45723 0.13085 0.0
H301 H 0.00717 0.39854 0.9791 0.0
C302 C 0.95669 0.42738 0.91382 0.0
C303 C 0.92735 0.52448 0.85502 0.0
C304 C 0.90397 0.55424 0.8465 0.0
C305 C 0.90312 0.58534 0.8866 0.0
C306 C 0.92218 0.58349 0.93498 0.0
C307 C 0.94365 0.55221 0.9419 0.0
N308 N 0.94796 0.52534 0.902 0.0
H309 H 0.93285 0.50402 0.82368 0.0
H310 H 0.96168 0.55305 0.97802 0.0
C311 C 0.07063 0.44976 0.88018 0.0
N312 N 0.06969 0.47732 0.92129 0.0
C313 C 0.13273 0.46434 0.96567 0.0
C314 C 0.13403 0.43563 0.92356 0.0
C315 C 0.10235 0.42812 0.8807 0.0
C316 C 0.09984 0.48503 0.96372 0.0
H317 H 0.04664 0.44473 0.84682 0.0
H318 H 0.09918 0.50789 0.99553 0.0
C319 C 0.04509 0.54663 0.04835 0.0
C320 C 0.92339 0.41513 0.09803 0.0
N321 N 0.93114 0.51631 0.04732 0.0
C322 C 0.94653 0.55789 0.07047 0.0
C323 C 0.91906 0.58428 0.07382 0.0
C324 C 0.87549 0.5674 0.05413 0.0
C325 C 0.86048 0.52506 0.02942 0.0
C326 C 0.88898 0.49974 0.02752 0.0
C327 C 0.04428 0.57972 0.86701 0.0
O328 O 0.96909 0.45481 0.95403 0.0
O329 O 0.9672 0.43894 0.87428 0.0
O330 O 0.03019 0.52891 0.003 0.0
O331 O 0.03066 0.52798 0.08201 0.0
O332 O 0.91403 0.40885 0.05055 0.0
O333 O 0.9554 0.44549 0.11983 0.0
O334 O 0.02549 0.58089 0.90342 0.0
O335 O 0.04971 0.5441 0.84838 0.0
H336 H 0.97963 0.5706 0.08784 0.0
H337 H 0.87695 0.46621 0.01323 0.0
H338 H 0.0548 0.35167 0.99009 0.0
H339 H 0.09308 0.41141 0.14574 0.0
H340 H 0.88925 0.55489 0.80873 0.0
H341 H 0.9231 0.60768 0.96645 0.0
H342 H 0.15744 0.4716 -0.0012 0.0
H343 H 0.103 0.40664 0.84731 0.0
H344 H 0.93117 0.61671 0.09432 0.0
H345 H 0.82667 0.51092 0.01563 0.0
Cd346 Cd 0.45474 0.47255 0.0732 0.0
Cd347 Cd 0.52461 0.52423 0.9556 0.0
C348 C 0.52346 0.43054 0.11271 0.0
N349 N 0.49947 0.42791 0.06713 0.0
C350 C 0.5256 0.37022 0.03261 0.0
C351 C 0.55002 0.37236 0.07987 0.0
C352 C 0.54934 0.40329 0.11981 0.0
C353 C 0.49997 0.39868 0.02704 0.0
H354 H 0.52119 0.45284 0.14432 0.0
H355 H 0.47959 0.39651 0.99153 0.0
C356 C 0.43264 0.46234 0.93747 0.0
C357 C 0.46235 0.56601 0.89537 0.0
C358 C 0.43371 0.58973 0.88293 0.0
C359 C 0.42129 0.61401 0.92107 0.0
C360 C 0.43889 0.6152 0.97109 0.0
C361 C 0.46704 0.59025 0.98183 0.0
N362 N 0.47768 0.56601 0.94404 0.0
H363 H 0.4715 0.54649 0.86624 0.0
H364 H 0.48025 0.59016 0.02005 0.0
C365 C 0.53693 0.43234 0.92462 0.0
N366 N 0.554 0.46792 0.96013 0.0
C367 C 0.62016 0.4496 0.97654 0.0
C368 C 0.60466 0.41536 0.9363 0.0
C369 C 0.56194 0.40516 0.91225 0.0
C370 C 0.59392 0.47606 0.98777 0.0
H371 H 0.50552 0.42727 0.90246 0.0
H372 H 0.60678 0.50536 0.01474 0.0
C373 C 0.54189 0.53938 0.09064 0.0
C374 C 0.41412 0.43568 0.14378 0.0
N375 N 0.42106 0.5257 0.06253 0.0
C376 C 0.43867 0.56441 0.0924 0.0
C377 C 0.41541 0.59464 0.09592 0.0
C378 C 0.37326 0.5841 0.06993 0.0
C379 C 0.35678 0.54532 0.03637 0.0
C380 C 0.38165 0.51617 0.03318 0.0
C381 C 0.57779 0.56568 0.89768 0.0
O382 O 0.44439 0.46828 0.98435 0.0
O383 O 0.45892 0.47811 0.91145 0.0
O384 O 0.53003 0.52965 0.04377 0.0
O385 O 0.51772 0.5225 0.11794 0.0
O386 O 0.40123 0.41905 0.09764 0.0
O387 O 0.44317 0.47033 0.1554 0.0
O388 O 0.57694 0.58377 0.94144 0.0
O389 O 0.5571 0.52691 0.88355 0.0
H390 H 0.46968 0.571 0.11595 0.0
H391 H 0.36828 0.48475 0.01053 0.0
H392 H 0.52523 0.34611 0.00129 0.0
H393 H 0.56762 0.40531 0.15673 0.0
H394 H 0.42078 0.5886 0.84397 0.0
H395 H 0.43089 0.63481 0.00124 0.0
H396 H 0.65318 0.45806 0.99552 0.0
H397 H 0.54935 0.37875 0.88115 0.0
H398 H 0.42856 0.62416 0.12262 0.0
H399 H 0.32395 0.53619 0.01666 0.0
Cd400 Cd 0.97292 0.48683 0.58086 0.0
Cd401 Cd 0.03356 0.51719 0.45209 0.0
C402 C 0.02462 0.42714 0.63236 0.0
N403 N 0.01207 0.4357 0.58625 0.0
C404 C 0.05187 0.39103 0.5501 0.0
C405 C 0.06739 0.38402 0.59765 0.0
C406 C 0.05266 0.40133 0.63898 0.0
C407 C 0.02416 0.41735 0.5453 0.0
H408 H 0.01455 0.44207 0.66438 0.0
H409 H 0.01319 0.42402 0.5091 0.0
C410 C 0.94556 0.45975 0.44418 0.0
C411 C 0.9802 0.57625 0.39844 0.0
C412 C 0.9493 0.59898 0.39043 0.0
C413 C 0.9306 0.61256 0.43025 0.0
C414 C 0.94512 0.605 0.47791 0.0
C415 C 0.97553 0.58156 0.48404 0.0
N416 N -0.00868 0.56644 0.44426 0.0
H417 H -0.00669 0.56411 0.36741 0.0
H418 H 0.98559 0.57433 0.52029 0.0
C419 C 0.05637 0.42856 0.42896 0.0
N420 N 0.06939 0.46532 0.46321 0.0
C421 C 0.13794 0.453 0.48681 0.0
C422 C 0.12635 0.41687 0.44897 0.0
C423 C 0.08457 0.40351 0.42136 0.0
C424 C 0.10876 0.47727 0.49297 0.0
H425 H 0.02552 0.42075 0.40456 0.0
H426 H 0.11907 0.50777 0.51766 0.0
C427 C 0.06066 0.54351 0.58476 0.0
C428 C 0.90918 0.44368 0.62489 0.0
N429 N 0.93344 0.53631 0.57266 0.0
C430 C 0.94026 0.57184 0.60782 0.0
C431 C 0.90853 0.59364 0.60966 0.0
C432 C 0.86977 0.5783 0.57525 0.0
C433 C 0.8646 0.54307 0.53776 0.0
C434 C 0.89702 0.52225 0.53742 0.0
C435 C 0.09394 0.54993 0.39762 0.0
O436 O 0.96545 0.47384 0.48901 0.0
O437 O 0.96676 0.46635 0.40983 0.0
O438 O 0.03837 0.52826 0.54157 0.0
O439 O 0.04194 0.53808 0.62148 0.0
O440 O 0.90839 0.4377 0.57824 0.0
O441 O 0.94194 0.46951 0.65317 0.0
O442 O 0.09341 0.56995 0.44043 0.0
O443 O 0.06568 0.51514 0.38036 0.0
H444 H 0.96883 0.58134 0.63645 0.0
H445 H 0.89168 0.49287 0.51155 0.0
H446 H 0.06208 0.37741 0.51743 0.0
H447 H 0.06396 0.39619 0.67616 0.0
H448 H 0.93903 0.60461 0.35319 0.0
H449 H 0.9321 0.61588 0.50965 0.0
H450 H 0.17026 0.46436 0.50801 0.0
H451 H 0.07504 0.37592 0.39156 0.0
H452 H 0.91297 0.62044 0.63954 0.0
H453 H 0.83471 0.53005 0.51144 0.0
Cd454 Cd 0.46495 0.97044 0.54421 0.0
Cd455 Cd 0.52121 0.00359 0.41227 0.0
C456 C 0.54046 0.93909 0.6052 0.0
N457 N 0.51621 0.93326 0.55892 0.0
C458 C 0.54642 0.87756 0.52854 0.0
C459 C 0.57193 0.88295 0.57565 0.0
C460 C 0.56879 0.91403 0.61449 0.0
C461 C 0.51834 0.90291 0.52123 0.0
H462 H 0.53736 0.96277 0.63497 0.0
H463 H 0.49775 0.89783 0.48576 0.0
C464 C 0.4531 0.92698 0.41498 0.0
C465 C 0.44349 0.03279 0.34927 0.0
C466 C 0.41654 0.05998 0.3439 0.0
C467 C 0.40733 0.08183 0.38679 0.0
C468 C 0.42334 0.07411 0.43367 0.0
C469 C 0.44904 0.04612 0.43712 0.0
N470 N 0.46017 0.02771 0.39572 0.0
H471 H 0.45359 0.01843 0.31692 0.0
H472 H 0.46287 0.04161 0.47325 0.0
C473 C 0.56807 0.93458 0.36964 0.0
N474 N 0.5654 0.95792 0.41327 0.0
C475 C 0.619 0.932 0.45884 0.0
C476 C 0.62296 0.9083 0.41428 0.0
C477 C 0.59667 0.90913 0.36937 0.0
C478 C 0.5896 0.9567 0.45749 0.0
H479 H 0.5486 0.93647 0.33504 0.0
H480 H 0.58698 0.97595 0.49139 0.0
C481 C 0.5443 0.0405 0.54772 0.0
C482 C 0.41252 0.91647 0.59125 0.0
N483 N 0.42863 0.02486 0.54828 0.0
C484 C 0.44731 0.06386 0.57749 0.0
C485 C 0.42416 0.0942 0.58358 0.0
C486 C 0.38142 0.08434 0.55963 0.0
C487 C 0.3632 0.04483 0.52809 0.0
C488 C 0.3874 0.01512 0.52366 0.0
C489 C 0.57115 0.07571 0.38881 0.0
O490 O 0.46523 0.95542 0.45425 0.0
O491 O 0.46799 0.93568 0.37654 0.0
O492 O 0.52851 0.02016 0.50354 0.0
O493 O 0.52701 0.0274 0.58277 0.0
O494 O 0.40527 0.91249 0.54397 0.0
O495 O 0.44337 0.94667 0.61622 0.0
O496 O 0.56963 0.06998 0.43313 0.0
O497 O 0.55206 0.0448 0.35306 0.0
H498 H 0.47947 0.07113 0.5982 0.0
H499 H 0.37255 0.98364 0.50252 0.0
H500 H 0.54739 0.85332 0.49812 0.0
H501 H 0.588 0.91872 0.65145 0.0
H502 H 0.40481 0.0656 0.30711 0.0
H503 H 0.41792 0.09093 0.46751 0.0
H504 H 0.63975 0.93283 0.49359 0.0
H505 H 0.59966 0.89171 0.3342 0.0
H506 H 0.43868 0.12416 0.60913 0.0
H507 H 0.32988 0.03599 0.51015 0.0
C508 C 0.08894 0.10958 0.27804 0.0
C509 C 0.11429 0.15193 0.29464 0.0
C510 C 0.08411 0.15611 0.37051 0.0
C511 C 0.067 0.11153 0.35953 0.0
N512 N 0.05195 0.04453 0.30153 0.0
N513 N 0.14125 0.21382 0.36146 0.0
C514 C 0.06819 0.08782 0.31246 0.0
C515 C 0.11282 0.17518 0.34179 0.0
N516 N 0.08461 0.09043 0.22951 0.0
N517 N 0.07319 0.18008 0.40873 0.0
H518 H 0.16584 0.22799 0.34441 0.0
H519 H 0.14354 0.2296 0.39773 0.0
H520 H 0.05122 0.16668 0.42972 0.0
H521 H 0.0821 0.21337 0.41558 0.0
H522 H 0.0632 0.06102 0.21381 0.0
H523 H 0.09964 0.10593 0.20372 0.0
H524 H 0.05735 0.02537 0.27096 0.0
H525 H 0.0348 0.02708 0.32403 0.0
C526 C 0.80945 0.13515 0.36845 0.0
C527 C 0.82952 0.17124 0.34939 0.0
C528 C 0.89948 0.15975 0.37743 0.0
C529 C 0.88009 0.12711 0.40219 0.0
N530 N 0.81692 0.08538 0.42482 0.0
N531 N 0.89369 0.22246 0.34253 0.0
C532 C 0.83505 0.11507 0.39853 0.0
C533 C 0.87455 0.18481 0.35569 0.0
N534 N 0.76603 0.11954 0.35669 0.0
N535 N 0.94125 0.16553 0.37251 0.0
H536 H 0.87663 0.24176 0.326 0.0
H537 H 0.92647 0.23638 0.35191 0.0
H538 H 0.9604 0.14663 0.38578 0.0
H539 H 0.95566 0.18604 0.35059 0.0
H540 H 0.7497 0.0908 0.365 0.0
H541 H 0.74643 0.13363 0.33478 0.0
H542 H 0.7849 0.07857 0.42794 0.0
H543 H 0.83454 0.06973 0.44696 0.0
C544 C 0.88914 0.84585 0.36613 0.0
C545 C 0.90047 0.84824 0.31852 0.0
C546 C 0.95032 0.91756 0.3511 0.0
C547 C 0.94097 0.91401 0.39967 0.0
N548 N 0.90953 0.86876 0.45492 0.0
N549 N 0.94657 0.88103 0.26689 0.0
C550 C 0.91299 0.87634 0.40773 0.0
C551 C 0.93299 0.88226 0.31154 0.0
N552 N 0.85374 0.81611 0.37145 0.0
N553 N 0.97271 0.95545 0.34156 0.0
H554 H 0.93347 0.85551 0.23718 0.0
H555 H 0.97314 0.90305 0.26101 0.0
H556 H 0.98407 0.98314 0.36823 0.0
H557 H 0.97615 0.96077 0.30575 0.0
H558 H 0.84035 0.81814 0.40346 0.0
H559 H 0.83512 0.7916 0.34302 0.0
H560 H 0.89347 0.83931 0.46189 0.0
H561 H 0.926 0.88961 0.48763 0.0
C562 C 0.12217 0.84595 0.35279 0.0
C563 C 0.16576 0.84556 0.36371 0.0
C564 C 0.1796 0.90614 0.43247 0.0
C565 C 0.13607 0.90582 0.42181 0.0
N566 N 0.06373 0.86698 0.38448 0.0
N567 N 0.23107 0.86471 0.42582 0.0
C568 C 0.10657 0.87252 0.38643 0.0
C569 C 0.19304 0.87236 0.40738 0.0
N570 N 0.09641 0.82388 0.30881 0.0
N571 N 0.20833 0.93931 0.46489 0.0
H572 H 0.24067 0.8383 0.41076 0.0
H573 H 0.25052 0.8815 0.4595 0.0
H574 H 0.19935 0.96416 0.48479 0.0
H575 H 0.24125 0.94349 0.46934 0.0
H576 H 0.06564 0.8268 0.29743 0.0
H577 H 0.10692 0.80615 0.28122 0.0
H578 H 0.04081 0.84088 0.3623 0.0
H579 H 0.05149 0.88612 0.40893 0.0
C580 C 0.08508 0.78696 0.63978 0.0
C581 C 0.13015 0.80051 0.64442 0.0
C582 C 0.122 0.83817 0.57435 0.0
C583 C 0.07882 0.83297 0.57781 0.0
N584 N 0.01613 0.79686 0.60496 0.0
N585 N 0.19218 0.83608 0.61413 0.0
C586 C 0.0592 0.80471 0.60711 0.0
C587 C 0.14888 0.82499 0.61078 0.0
N588 N 0.0674 0.75803 0.66725 0.0
N589 N 0.13658 0.85479 0.53544 0.0
H590 H 0.21283 0.82505 0.63854 0.0
H591 H 0.20789 0.85783 0.59441 0.0
H592 H 0.11577 0.86111 0.50661 0.0
H593 H 0.16731 0.85731 0.52848 0.0
H594 H 0.03482 0.74416 0.66274 0.0
H595 H 0.08556 0.74611 0.69349 0.0
H596 H -0.00037 0.78005 0.62858 0.0
H597 H -0.00326 0.80799 0.57901 0.0
C598 C 0.11259 0.12102 0.73193 0.0
C599 C 0.15616 0.12695 0.73001 0.0
C600 C 0.14021 0.077 0.65213 0.0
C601 C 0.09632 0.07521 0.6497 0.0
N602 N 0.03993 0.08056 0.69659 0.0
N603 N 0.21024 0.0954 0.70529 0.0
C604 C 0.08202 0.09181 0.69295 0.0
C605 C 0.16911 0.09832 0.69649 0.0
N606 N 0.10074 0.14538 0.76882 0.0
N607 N 0.15464 0.06083 0.61156 0.0
H608 H 0.23162 0.11271 0.73759 0.0
H609 H 0.22147 0.07343 0.68346 0.0
H610 H 0.13445 0.0455 0.57794 0.0
H611 H 0.18693 0.06542 0.61022 0.0
H612 H 0.06939 0.14679 0.76896 0.0
H613 H 0.12309 0.16505 0.79893 0.0
H614 H 0.02883 0.08929 0.72898 0.0
H615 H 0.01639 0.05909 0.6694 0.0
C616 C 0.86727 0.1552 0.69117 0.0
C617 C 0.85013 0.18511 0.66814 0.0
C618 C 0.864 0.15485 0.58766 0.0
C619 C 0.8747 0.12119 0.6097 0.0
N620 N 0.8807 0.08558 0.68076 0.0
N621 N 0.8538 0.22615 0.60158 0.0
C622 C 0.87466 0.12031 0.66103 0.0
C623 C 0.85445 0.18879 0.61813 0.0
N624 N 0.87958 0.16214 0.74197 0.0
N625 N 0.86206 0.15367 0.53755 0.0
H626 H 0.8544 0.25388 0.62562 0.0
H627 H 0.85924 0.23176 0.56645 0.0
H628 H 0.86878 0.12889 0.51488 0.0
H629 H 0.85041 0.17482 0.51788 0.0
H630 H 0.89548 0.14312 0.7607 0.0
H631 H 0.87921 0.19038 0.76449 0.0
H632 H 0.87658 0.08156 0.71682 0.0
H633 H 0.88567 0.05889 0.65955 0.0
C634 C 0.87177 0.91103 0.73699 0.0
C635 C 0.87652 0.86928 0.73742 0.0
C636 C 0.92557 0.87791 0.67915 0.0
C637 C 0.91724 0.91791 0.67419 0.0
N638 N 0.89306 0.97819 0.70772 0.0
N639 N 0.91826 0.81919 0.72531 0.0
C640 C 0.89429 0.93667 0.70681 0.0
C641 C 0.90747 0.85515 0.71428 0.0
N642 N 0.84342 0.92461 0.76262 0.0
N643 N 0.94926 0.861 0.64898 0.0
H644 H 0.90482 0.80255 0.75134 0.0
H645 H 0.9428 0.80828 0.71262 0.0
H646 H 0.96487 0.87755 0.62441 0.0
H647 H 0.95184 0.82977 0.64653 0.0
H648 H 0.83427 0.95263 0.75954 0.0
H649 H 0.82813 0.90673 0.78646 0.0
H650 H 0.87991 -0.00521 0.73355 0.0
H651 H 0.90774 -0.00282 0.68451 0.0
C652 C 0.29478 0.12718 0.0852 0.0
C653 C 0.3051 0.15238 0.1338 0.0
C654 C 0.38043 0.15878 0.13363 0.0
C655 C 0.36966 0.12404 0.09352 0.0
N656 N 0.32266 0.1011 0.01348 0.0
N657 N 0.35905 0.18973 0.20659 0.0
C658 C 0.32815 0.11498 0.06365 0.0
C659 C 0.34832 0.16733 0.15877 0.0
N660 N 0.25348 0.11483 0.0601 0.0
N661 N 0.41934 0.18757 0.14246 0.0
H662 H 0.33645 0.19589 0.22753 0.0
H663 H 0.39038 0.19852 0.22655 0.0
H664 H 0.44111 0.18552 0.11869 0.0
H665 H 0.42723 0.21563 0.16891 0.0
H666 H 0.24332 0.09341 0.02634 0.0
H667 H 0.22889 0.12405 0.07499 0.0
H668 H 0.29434 0.0973 0.98844 0.0
H669 H 0.3486 0.09877 0.99649 0.0
C670 C 0.86572 0.38154 0.20074 0.0
C671 C 0.84818 0.33731 0.18202 0.0
C672 C 0.88749 0.34321 0.1135 0.0
C673 C 0.89809 0.38828 0.12716 0.0
N674 N 0.88882 0.45066 0.17815 0.0
N675 N 0.83631 0.27728 0.11448 0.0
C676 C 0.88508 0.4077 0.16939 0.0
C677 C 0.85756 0.3182 0.13687 0.0
N678 N 0.86454 0.39845 0.24865 0.0
N679 N 0.90674 0.32416 0.07941 0.0
H680 H 0.81243 0.25809 0.12852 0.0
H681 H 0.83934 0.26389 0.07899 0.0
H682 H 0.93028 0.34128 0.06291 0.0
H683 H 0.9027 0.29124 0.07176 0.0
H684 H 0.88005 0.43001 0.26505 0.0
H685 H 0.85233 0.37977 0.27365 0.0
H686 H 0.87606 0.46531 0.20611 0.0
H687 H 0.90014 0.47088 0.15419 0.0
C688 C 0.6689 0.82108 0.09667 0.0
C689 C 0.69349 0.83698 0.14585 0.0
C690 C 0.64444 0.87877 0.1654 0.0
C691 C 0.61977 0.86458 0.11662 0.0
N692 N 0.60894 0.82365 0.03379 0.0
N693 N 0.71669 0.90035 0.20962 0.0
C694 C 0.63199 0.83588 0.08142 0.0
C695 C 0.68505 0.87168 0.17527 0.0
N696 N 0.68271 0.79441 0.06403 0.0
N697 N 0.62932 0.89953 0.20242 0.0
H698 H 0.74865 0.89991 0.21264 0.0
H699 H 0.71187 0.9281 0.22874 0.0
H700 H 0.59851 0.90378 0.19714 0.0
H701 H 0.64594 0.90818 0.23932 0.0
H702 H 0.66542 0.77849 0.02904 0.0
H703 H 0.71332 0.78991 0.07138 0.0
H704 H 0.61587 0.80311 0.00587 0.0
H705 H 0.58223 0.83424 0.0218 0.0
C706 C 0.14106 0.62913 0.12507 0.0
C707 C 0.12518 0.66581 0.1239 0.0
C708 C 0.06913 0.62632 0.05362 0.0
C709 C 0.07842 0.58766 0.0637 0.0
N710 N 0.12521 0.55213 0.10731 0.0
N711 N 0.07684 0.70143 0.08424 0.0
C712 C 0.11544 0.58912 0.09838 0.0
C713 C 0.0904 0.66527 0.08673 0.0
N714 N 0.18114 0.6327 0.15057 0.0
N715 N 0.04018 0.62581 0.01254 0.0
H716 H 0.09261 0.73058 0.10747 0.0
H717 H 0.04882 0.70208 0.06126 0.0
H718 H 0.02439 0.59769 0.98847 0.0
H719 H 0.03528 0.65311 -0.0002 0.0
H720 H 0.19606 0.60798 0.14714 0.0
H721 H 0.20054 0.66114 0.17234 0.0
H722 H 0.14815 0.55091 0.13733 0.0
H723 H 0.10888 0.5223 0.08597 0.0
C724 C 0.36582 0.85383 0.8612 0.0
C725 C 0.3294 0.85639 0.88273 0.0
C726 C 0.37648 0.8919 0.96177 0.0
C727 C 0.41103 0.90059 0.9364 0.0
N728 N 0.4422 0.87941 0.86639 0.0
N729 N 0.29982 0.87569 0.95501 0.0
C730 C 0.40678 0.87811 0.88731 0.0
C731 C 0.3346 0.87481 0.93358 0.0
N732 N 0.36145 0.8263 0.81742 0.0
N733 N 0.38421 0.89521 0.01227 0.0
H734 H 0.2686 0.86298 0.9352 0.0
H735 H 0.30224 0.89189 0.99114 0.0
H736 H 0.4151 0.89894 0.03146 0.0
H737 H 0.36028 0.88658 0.03277 0.0
H738 H 0.38697 0.81993 0.80224 0.0
H739 H 0.33213 0.80684 0.79783 0.0
H740 H 0.44117 0.8695 0.8285 0.0
H741 H 0.47302 0.89089 0.88765 0.0
C742 C 0.20038 0.35511 0.91961 0.0
C743 C 0.21729 0.36452 0.87647 0.0
C744 C 0.1974 0.43221 0.88732 0.0
C745 C 0.17076 0.41708 0.92006 0.0
N746 N 0.1459 0.36324 0.96783 0.0
N747 N 0.22044 0.4095 0.81227 0.0
C748 C 0.17233 0.37845 0.93699 0.0
C749 C 0.21369 0.40289 0.85879 0.0
N750 N 0.21159 0.32486 0.94446 0.0
N751 N 0.20433 0.47366 0.88072 0.0
H752 H 0.22426 0.38616 0.78501 0.0
H753 H 0.21522 0.436 0.79771 0.0
H754 H 0.19178 0.49551 0.90099 0.0
H755 H 0.22609 0.48691 0.85946 0.0
H756 H 0.2022 0.31911 0.97801 0.0
H757 H 0.23426 0.30924 0.93477 0.0
H758 H 0.1421 0.33284 0.97686 0.0
H759 H 0.12635 0.38074 0.98213 0.0
C760 C 0.63937 0.11411 0.81424 0.0
C761 C 0.67918 0.13897 0.84185 0.0
C762 C 0.65942 0.11757 0.91828 0.0
C763 C 0.6168 0.09926 0.89153 0.0
N764 N 0.56468 0.0932 0.81656 0.0
N765 N 0.72604 0.16989 0.92125 0.0
C766 C 0.60625 0.10103 0.84006 0.0
C767 C 0.68914 0.14229 0.89431 0.0
N768 N 0.63289 0.10457 0.76329 0.0
N769 N 0.67231 0.10999 0.96504 0.0
H770 H 0.74917 0.18734 0.90445 0.0
H771 H 0.73225 0.17731 0.96018 0.0
H772 H 0.65292 0.0894 0.98282 0.0
H773 H 0.70392 0.1204 0.98393 0.0
H774 H 0.60494 0.08385 0.74173 0.0
H775 H 0.65728 0.11393 0.74351 0.0
H776 H 0.5561 0.09709 0.77973 0.0
H777 H 0.53921 0.08856 0.83557 0.0
C778 C 0.88847 0.69118 0.85438 0.0
C779 C 0.84353 0.68297 0.84844 0.0
C780 C 0.83837 0.61295 0.87267 0.0
C781 C 0.88319 0.62044 0.87747 0.0
N782 N 0.95233 0.66871 0.88218 0.0
N783 N 0.77708 0.64244 0.86421 0.0
C784 C 0.90879 0.66045 0.87167 0.0
C785 C 0.81899 0.64581 0.86168 0.0
N786 N 0.9112 0.72727 0.84117 0.0
N787 N 0.81424 0.57398 0.87734 0.0
H788 H 0.76236 0.66641 0.85669 0.0
H789 H 0.75812 0.61824 0.8781 0.0
H790 H 0.82747 0.54981 0.88802 0.0
H791 H 0.78105 0.56465 0.86831 0.0
H792 H 0.94344 0.73336 0.83927 0.0
H793 H 0.89709 0.75078 0.8301 0.0
H794 H 0.97294 0.69841 0.88317 0.0
H795 H 0.96817 0.64632 0.89297 0.0
C796 C 0.17945 0.34819 0.11186 0.0
C797 C 0.16322 0.30395 0.11113 0.0
C798 C 0.09174 0.30642 0.07413 0.0
C799 C 0.10745 0.35116 0.07696 0.0
N800 N 0.16738 0.41207 0.08384 0.0
N801 N 0.10923 0.23868 0.07763 0.0
C802 C 0.15183 0.37115 0.09081 0.0
C803 C 0.12107 0.28229 0.08701 0.0
N804 N 0.2202 0.36885 0.13587 0.0
N805 N 0.04882 0.28758 0.0629 0.0
H806 H 0.13076 0.22077 0.08702 0.0
H807 H 0.07991 0.22063 0.05647 0.0
H808 H 0.02602 0.3043 0.05473 0.0
H809 H 0.03549 0.25596 0.06542 0.0
H810 H 0.2318 0.40196 0.14373 0.0
H811 H 0.24203 0.35303 0.15034 0.0
H812 H 0.19982 0.42688 0.08856 0.0
H813 H 0.14784 0.42985 0.06858 0.0
C814 C 0.06798 0.67963 0.81091 0.0
C815 C 0.10798 0.70029 0.84166 0.0
C816 C 0.10145 0.64591 0.89282 0.0
C817 C 0.06622 0.62041 0.85611 0.0
N818 N 0.00935 0.61509 0.78682 0.0
N819 N 0.14533 0.71769 0.92655 0.0
C820 C 0.04685 0.63812 0.81732 0.0
C821 C 0.11856 0.68843 0.88808 0.0
N822 N 0.0516 0.70005 0.77578 0.0
N823 N 0.11952 0.62905 0.93079 0.0
H824 H 0.15652 0.74952 0.92284 0.0
H825 H 0.15228 0.71154 0.96265 0.0
H826 H 0.10858 0.59735 0.93499 0.0
H827 H 0.14751 0.6456 0.95581 0.0
H828 H 0.02255 0.68759 0.75118 0.0
H829 H 0.06718 0.73134 0.77376 0.0
H830 H -0.0063 0.62589 0.75743 0.0
H831 H -0.00615 0.58435 0.79076 0.0
C832 C 0.31985 0.14344 0.87049 0.0
C833 C 0.33901 0.1881 0.88033 0.0
C834 C 0.40623 0.17702 0.92027 0.0
C835 C 0.38746 0.13222 0.90961 0.0
N836 N 0.32403 0.07361 0.88751 0.0
N837 N 0.39462 0.24784 0.9275 0.0
C838 C 0.34336 0.11569 0.88897 0.0
C839 C 0.3803 0.20497 0.90983 0.0
N840 N 0.28024 0.12739 0.84106 0.0
N841 N 0.44925 0.19281 0.9371 0.0
H842 H 0.37573 0.26862 0.92033 0.0
H843 H 0.42288 0.26194 0.95317 0.0
H844 H 0.46989 0.17354 0.9438 0.0
H845 H 0.46519 0.22485 0.94045 0.0
H846 H 0.26699 0.095 0.82699 0.0
H847 H 0.26132 0.14673 0.82849 0.0
H848 H 0.29118 0.06052 0.87728 0.0
H849 H 0.34044 0.05258 0.90115 0.0
C850 C 0.91737 0.30635 0.88307 0.0
C851 C 0.87739 0.30176 0.89745 0.0
C852 C 0.89372 0.37622 0.93217 0.0
C853 C 0.93215 0.38323 0.91333 0.0
N854 N 0.98682 0.35341 0.88401 0.0
N855 N 0.83926 0.32476 0.95855 0.0
C856 C 0.94638 0.34764 0.89336 0.0
C857 C 0.87141 0.33398 0.93251 0.0
N858 N 0.92538 0.27206 0.85586 0.0
N859 N 0.8752 0.40869 0.94244 0.0
H860 H 0.82093 0.29338 0.95522 0.0
H861 H 0.83387 0.34744 0.98567 0.0
H862 H 0.88813 0.43951 0.93661 0.0
H863 H 0.8447 0.4036 0.951 0.0
H864 H 0.95182 0.27369 0.83879 0.0
H865 H 0.90424 0.24176 0.85 0.0
H866 H -0.00017 0.32844 0.87261 0.0
H867 H 0.0086 0.38329 0.8918 0.0
C868 C 0.70954 0.89023 0.88346 0.0
C869 C 0.7007 0.84545 0.8805 0.0
C870 C 0.63364 0.84377 0.90963 0.0
C871 C 0.64175 0.88844 0.91163 0.0
N872 N 0.69207 0.95592 0.91408 0.0
N873 N 0.66339 0.78264 0.90699 0.0
C874 C 0.68148 0.91231 0.90328 0.0
C875 C 0.66583 0.8234 0.89956 0.0
N876 N 0.74313 0.91107 0.86457 0.0
N877 N 0.5943 0.82034 0.91363 0.0
H878 H 0.68758 0.76797 0.90078 0.0
H879 H 0.64037 0.76565 0.92421 0.0
H880 H 0.56955 0.83398 0.92045 0.0
H881 H 0.58528 0.78708 0.90677 0.0
H882 H 0.74823 0.94276 0.85979 0.0
H883 H 0.765 0.89581 0.85158 0.0
H884 H 0.72191 0.97503 0.91256 0.0
H885 H 0.67219 0.9729 0.9289 0.0
C886 C 0.80498 0.61047 0.13231 0.0
C887 C 0.80719 0.64965 0.11531 0.0
C888 C 0.83811 0.62499 0.0455 0.0
C889 C 0.84528 0.59107 0.0696 0.0
N890 N 0.83706 0.55177 0.13756 0.0
N891 N 0.82356 0.69466 0.05473 0.0
C892 C 0.8284 0.58326 0.11296 0.0
C893 C 0.82236 0.65687 0.07096 0.0
N894 N 0.78077 0.59971 0.1673 0.0
N895 N 0.84602 0.62618 -0.00159 0.0
H896 H 0.81128 0.71813 0.07225 0.0
H897 H 0.83854 0.70357 0.02556 0.0
H898 H 0.85488 0.6013 0.97858 0.0
H899 H 0.83917 0.64874 0.97745 0.0
H900 H 0.77519 0.5699 0.17807 0.0
H901 H 0.7626 0.61905 0.18158 0.0
H902 H 0.82998 0.54848 0.17274 0.0
H903 H 0.85405 0.53066 0.12476 0.0
C904 C 0.33954 0.85959 0.14711 0.0
C905 C 0.31628 0.87645 0.18046 0.0
C906 C 0.37315 0.94338 0.20157 0.0
C907 C 0.39872 0.92255 0.17539 0.0
N908 N 0.41009 0.8576 0.13437 0.0
N909 N 0.30835 0.93641 0.23607 0.0
C910 C 0.38321 0.87928 0.15257 0.0
C911 C 0.33238 0.9192 0.2068 0.0
N912 N 0.31987 0.82662 0.1085 0.0
N913 N 0.38728 0.98622 0.21962 0.0
H914 H 0.27674 0.92063 0.23608 0.0
H915 H 0.31974 0.96556 0.26051 0.0
H916 H 0.41793 0.00384 0.21826 0.0
H917 H 0.36837 0.00441 0.23416 0.0
H918 H 0.33601 0.8153 0.08188 0.0
H919 H 0.28678 0.81556 0.09834 0.0
H920 H 0.40049 0.82498 0.11973 0.0
H921 H 0.44282 0.87157 0.13927 0.0
C922 C 0.67589 0.1019 0.10603 0.0
C923 C 0.67547 0.14477 0.11941 0.0
C924 C 0.60012 0.12865 0.08267 0.0
C925 C 0.59887 0.08472 0.07601 0.0
N926 N 0.63727 0.03192 0.05902 0.0
N927 N 0.64502 0.20144 0.09948 0.0
C928 C 0.63757 0.07212 0.07989 0.0
C929 C 0.64019 0.15893 0.09938 0.0
N930 N 0.71189 0.08955 0.12132 0.0
N931 N 0.56316 0.14117 0.07663 0.0
H932 H 0.6748 0.22339 0.1121 0.0
H933 H 0.62102 0.21394 0.08315 0.0
H934 H 0.53347 0.11932 0.06419 0.0
H935 H 0.56196 0.1727 0.0862 0.0
H936 H 0.71302 0.05777 0.1175 0.0
H937 H 0.74038 0.11179 0.13928 0.0
H938 H 0.66473 0.02138 0.05784 0.0
H939 H 0.60933 0.01097 0.03827 0.0
C940 C 0.65893 0.6491 0.85796 0.0
C941 C 0.64038 0.64671 0.80735 0.0
C942 C 0.57977 0.58986 0.81458 0.0
C943 C 0.60057 0.58977 0.86405 0.0
N944 N 0.66541 0.61053 0.92618 0.0
N945 N 0.58738 0.61046 0.73433 0.0
C946 C 0.64179 0.61685 0.88384 0.0
C947 C 0.60197 0.61584 0.78463 0.0
N948 N 0.69237 0.68279 0.88172 0.0
N949 N 0.5384 0.56694 0.79669 0.0
H950 H 0.6024 0.62972 0.71152 0.0
H951 H 0.56238 0.58494 0.71464 0.0
H952 H 0.52051 0.54659 0.81596 0.0
H953 H 0.52047 0.57049 0.76367 0.0
H954 H 0.70415 0.68815 0.92005 0.0
H955 H 0.70592 0.70738 0.86398 0.0
H956 H 0.69731 0.62703 0.93942 0.0
H957 H 0.65472 0.58543 0.94467 0.0
C958 C 0.37106 0.69762 0.8749 0.0
C959 C 0.32949 0.67126 0.85372 0.0
C960 C 0.34554 0.61369 0.89427 0.0
C961 C 0.389 0.63702 0.90712 0.0
N962 N 0.44436 0.70072 0.90929 0.0
N963 N 0.27726 0.60322 0.84011 0.0
C964 C 0.40212 0.67911 0.89782 0.0
C965 C 0.31648 0.6291 0.86299 0.0
N966 N 0.38036 0.74049 0.87436 0.0
N967 N 0.33219 0.57715 0.91262 0.0
H968 H 0.25515 0.61339 0.81658 0.0
H969 H 0.26796 0.57073 0.84125 0.0
H970 H 0.35278 0.56656 0.93761 0.0
H971 H 0.30028 0.56037 0.90793 0.0
H972 H 0.40889 0.76197 0.89316 0.0
H973 H 0.35782 0.75528 0.8592 0.0
H974 H 0.45651 0.72944 0.89784 0.0
H975 H 0.46771 0.6887 0.9281 0.0
C976 C 0.36356 0.42423 0.82241 0.0
C977 C 0.35981 0.38014 0.82238 0.0
C978 C 0.37807 0.39359 0.9136 0.0
C979 C 0.39005 0.43721 0.91154 0.0
N980 N 0.37138 0.49316 0.87378 0.0
N981 N 0.33843 0.32365 0.86912 0.0
C982 C 0.3735 0.45188 0.8691 0.0
C983 C 0.35913 0.36474 0.86847 0.0
N984 N 0.36119 0.44014 0.77899 0.0
N985 N 0.3871 0.37979 0.95756 0.0
H986 H 0.32143 0.30274 0.83667 0.0
H987 H 0.33246 0.31288 0.90195 0.0
H988 H 0.39812 0.40095 0.99153 0.0
H989 H 0.38408 0.34775 0.95988 0.0
H990 H 0.36775 0.47273 0.77819 0.0
H991 H 0.35534 0.42113 0.7438 0.0
H992 H 0.35741 0.50583 0.84484 0.0
H993 H 0.38062 0.51296 0.90881 0.0
C994 C 0.65709 0.32953 0.89145 0.0
C995 C 0.67371 0.34684 0.85173 0.0
C996 C 0.65595 0.4138 0.87822 0.0
C997 C 0.63381 0.39416 0.91317 0.0
N998 N 0.61143 0.33349 0.95259 0.0
N999 N 0.68809 0.40406 0.80499 0.0
C1000 C 0.63415 0.35214 0.91997 0.0
C1001 C 0.67348 0.38887 0.84488 0.0
N1002 N 0.66442 0.29217 0.90281 0.0
N1003 N 0.6598 0.45609 0.87656 0.0
H1004 H 0.7011 0.3866 0.77971 0.0
H1005 H 0.68462 0.43261 0.79455 0.0
H1006 H 0.6456 0.47512 0.89841 0.0
H1007 H 0.67966 0.47341 0.85618 0.0
H1008 H 0.65711 0.28027 0.93457 0.0
H1009 H 0.68119 0.27467 0.88275 0.0
H1010 H 0.60624 0.30132 0.95515 0.0
H1011 H 0.5956 0.34983 0.97539 0.0
C1012 C 0.5818 0.29293 0.14973 0.0
C1013 C 0.6269 0.30599 0.15401 0.0
C1014 C 0.61959 0.35357 0.09409 0.0
C1015 C 0.57484 0.34147 0.09092 0.0
N1016 N 0.5126 0.29022 0.10147 0.0
N1017 N 0.68624 0.33493 0.11533 0.0
C1018 C 0.55575 0.30733 0.11338 0.0
C1019 C 0.64504 0.33176 0.12115 0.0
N1020 N 0.56392 0.26996 0.18268 0.0
N1021 N 0.63794 0.38761 0.07402 0.0
H1022 H 0.70524 0.31771 0.13287 0.0
H1023 H 0.69978 0.35072 0.08886 0.0
H1024 H 0.61984 0.4039 0.05352 0.0
H1025 H 0.67079 0.40102 0.08024 0.0
H1026 H 0.53154 0.26345 0.18411 0.0
H1027 H 0.58166 0.26059 0.21177 0.0
H1028 H 0.49705 0.26295 0.11353 0.0
H1029 H 0.49304 0.30097 0.07533 0.0
C1030 C 0.60044 0.64309 0.16192 0.0
C1031 C 0.63103 0.63215 0.19606 0.0
C1032 C 0.60956 0.55875 0.15055 0.0
C1033 C 0.58116 0.5712 0.11509 0.0
N1034 N 0.56205 0.62712 0.07671 0.0
N1035 N 0.66546 0.58018 0.22482 0.0
C1036 C 0.5803 0.61405 0.11761 0.0
C1037 C 0.6355 0.58984 0.19137 0.0
N1038 N 0.59211 0.68203 0.17148 0.0
N1039 N 0.61157 0.5172 0.14414 0.0
H1040 H 0.68293 0.6019 0.25661 0.0
H1041 H 0.67322 0.55105 0.22145 0.0
H1042 H 0.59601 0.49569 0.11132 0.0
H1043 H 0.62842 0.50413 0.17026 0.0
H1044 H 0.56804 0.69074 0.14929 0.0
H1045 H 0.60681 0.70372 0.20447 0.0
H1046 H 0.56265 0.6589 0.07539 0.0
H1047 H 0.552 0.60677 0.04214 0.0
C1048 C 0.3051 0.62303 0.15493 0.0
C1049 C 0.31049 0.66543 0.14549 0.0
C1050 C 0.34276 0.64718 0.07367 0.0
C1051 C 0.34458 0.60815 0.08914 0.0
N1052 N 0.33061 0.55955 0.14711 0.0
N1053 N 0.33851 0.71956 0.09873 0.0
C1054 C 0.32621 0.59599 0.13017 0.0
C1055 C 0.32993 0.67795 0.10516 0.0
N1056 N 0.27892 0.60803 0.18647 0.0
N1057 N 0.35313 0.65452 0.02887 0.0
H1058 H 0.33131 0.74349 0.12237 0.0
H1059 H 0.35632 0.73111 0.07285 0.0
H1060 H 0.36089 0.63132 0.00485 0.0
H1061 H 0.34933 0.68103 0.01341 0.0
H1062 H 0.27048 0.57607 0.19027 0.0
H1063 H 0.26177 0.62609 0.20492 0.0
H1064 H 0.32321 0.55246 0.18107 0.0
H1065 H 0.34434 0.53761 0.12913 0.0
C1066 C 0.40179 0.35288 0.22711 0.0
C1067 C 0.37018 0.36393 0.25145 0.0
C1068 C 0.37756 0.42932 0.21678 0.0
C1069 C 0.40111 0.4127 0.18328 0.0
N1070 N 0.43953 0.36095 0.15847 0.0
N1071 N 0.33259 0.41458 0.27845 0.0
C1072 C 0.4151 0.37548 0.18954 0.0
C1073 C 0.36064 0.40365 0.25034 0.0
N1074 N 0.41694 0.31928 0.2387 0.0
N1075 N 0.37036 0.46864 0.21526 0.0
H1076 H 0.32147 0.39639 0.30444 0.0
H1077 H 0.31988 0.44061 0.27569 0.0
H1078 H 0.38019 0.48714 0.18905 0.0
H1079 H 0.35646 0.48401 0.24132 0.0
H1080 H 0.44185 0.31025 0.22461 0.0
H1081 H 0.40635 0.30263 0.26621 0.0
H1082 H 0.44743 0.33197 0.15823 0.0
H1083 H 0.45049 0.37694 0.13081 0.0
C1084 C 0.78891 0.6448 0.57279 0.0
C1085 C 0.77778 0.64073 0.62008 0.0
C1086 C 0.81261 0.58252 0.62395 0.0
C1087 C 0.83265 0.59463 0.58428 0.0
N1088 N 0.83802 0.6347 0.5175 0.0
N1089 N 0.78053 0.60471 0.69233 0.0
C1090 C 0.8197 0.62452 0.55704 0.0
C1091 C 0.78903 0.60864 0.64572 0.0
N1092 N 0.76971 0.66776 0.54307 0.0
N1093 N 0.816 0.54583 0.64067 0.0
H1094 H 0.76203 0.6209 0.71063 0.0
H1095 H 0.79434 0.58652 0.71482 0.0
H1096 H 0.83274 0.52575 0.62478 0.0
H1097 H 0.79827 0.53298 0.66598 0.0
H1098 H 0.77375 0.66907 0.50641 0.0
H1099 H 0.74626 0.68196 0.5536 0.0
H1100 H 0.83343 0.65965 0.49947 0.0
H1101 H 0.85965 0.61923 0.50459 0.0
C1102 C 0.3512 0.81417 0.62373 0.0
C1103 C 0.33744 0.83071 0.66704 0.0
C1104 C 0.36872 0.90347 0.6562 0.0
C1105 C 0.38639 0.88689 0.61659 0.0
N1106 N 0.40365 0.82678 0.57068 0.0
N1107 N 0.3443 0.89125 0.73236 0.0
C1108 C 0.38045 0.84229 0.60263 0.0
C1109 C 0.34962 0.87543 0.68576 0.0
N1110 N 0.33484 0.77243 0.60105 0.0
N1111 N 0.3685 0.94557 0.66446 0.0
H1112 H 0.3319 0.872 0.75657 0.0
H1113 H 0.35664 0.92326 0.74909 0.0
H1114 H 0.38055 0.96704 0.64211 0.0
H1115 H 0.35214 0.958 0.69004 0.0
H1116 H 0.34101 0.76031 0.56664 0.0
H1117 H 0.31171 0.75095 0.61364 0.0
H1118 H 0.40328 0.79461 0.56328 0.0
H1119 H 0.42653 0.84638 0.55558 0.0
C1120 C 0.17653 0.36176 0.62477 0.0
C1121 C 0.16483 0.32168 0.64015 0.0
C1122 C 0.08923 0.31762 0.61145 0.0
C1123 C 0.10089 0.36073 0.60525 0.0
N1124 N 0.15537 0.42456 0.60509 0.0
N1125 N 0.10935 0.26245 0.6521 0.0
C1126 C 0.14453 0.38294 0.61125 0.0
C1127 C 0.121 0.29936 0.6337 0.0
N1128 N 0.21814 0.37898 0.62194 0.0
N1129 N 0.04774 0.29424 0.59612 0.0
H1130 H 0.13107 0.24832 0.67027 0.0
H1131 H 0.07785 0.24759 0.65327 0.0
H1132 H 0.0238 0.30704 0.58008 0.0
H1133 H 0.03795 0.26139 0.59478 0.0
H1134 H 0.2282 0.40619 0.60672 0.0
H1135 H 0.2421 0.36359 0.63031 0.0
H1136 H 0.18634 0.44425 0.61519 0.0
H1137 H 0.13287 0.44009 0.59179 0.0
C1138 C 0.60387 0.15616 0.58406 0.0
C1139 C 0.63945 0.15253 0.6176 0.0
C1140 C 0.61871 0.07474 0.59172 0.0
C1141 C 0.5817 0.07809 0.56031 0.0
N1142 N 0.54404 0.12116 0.51668 0.0
N1143 N 0.68605 0.11029 0.64743 0.0
C1144 C 0.57611 0.11867 0.55301 0.0
C1145 C 0.64882 0.11241 0.61907 0.0
N1146 N 0.59602 0.1953 0.58323 0.0
N1147 N 0.6236 0.0352 0.59743 0.0
H1148 H 0.70743 0.13648 0.67138 0.0
H1149 H 0.69716 0.08298 0.64561 0.0
H1150 H 0.60332 0.00714 0.57575 0.0
H1151 H 0.64641 0.02976 0.6246 0.0
H1152 H 0.5682 0.19995 0.56385 0.0
H1153 H 0.61678 0.22351 0.60412 0.0
H1154 H 0.54 0.14949 0.50616 0.0
H1155 H 0.52367 0.09414 0.49356 0.0
C1156 C 0.82772 0.43026 0.38137 0.0
C1157 C 0.81285 0.39258 0.39989 0.0
C1158 C 0.88115 0.40453 0.45555 0.0
C1159 C 0.89891 0.43851 0.43161 0.0
N1160 N 0.88803 0.48548 0.37264 0.0
N1161 N 0.81656 0.36012 0.47272 0.0
C1162 C 0.87171 0.45231 0.39518 0.0
C1163 C 0.83669 0.38545 0.44343 0.0
N1164 N 0.79914 0.44584 0.35296 0.0
N1165 N 0.90687 0.38712 0.48545 0.0
H1166 H 0.78347 0.34732 0.4648 0.0
H1167 H 0.83186 0.35631 0.50714 0.0
H1168 H 0.93992 0.39811 0.49294 0.0
H1169 H 0.89552 0.35911 0.49876 0.0
H1170 H 0.80701 0.47408 0.33909 0.0
H1171 H 0.76629 0.43249 0.34804 0.0
H1172 H 0.87182 0.49267 0.34074 0.0
H1173 H 0.91832 0.50575 0.38539 0.0
C1174 C 0.71492 0.88261 0.36509 0.0
C1175 C 0.71326 0.84091 0.37651 0.0
C1176 C 0.65705 0.84748 0.42465 0.0
C1177 C 0.65888 0.88829 0.41216 0.0
N1178 N 0.70136 0.95117 0.3906 0.0
N1179 N 0.69429 0.79237 0.43328 0.0
C1180 C 0.69237 0.90814 0.38987 0.0
C1181 C 0.68801 0.82607 0.41162 0.0
N1182 N 0.73387 0.89685 0.32737 0.0
N1183 N 0.62517 0.8287 0.44736 0.0
H1184 H 0.71856 0.77784 0.42692 0.0
H1185 H 0.67897 0.78231 0.46177 0.0
H1186 H 0.60292 0.8443 0.45835 0.0
H1187 H 0.61959 0.79714 0.45278 0.0
H1188 H 0.73262 0.92583 0.31648 0.0
H1189 H 0.74597 0.87861 0.30224 0.0
H1190 H 0.72821 0.96804 0.379 0.0
H1191 H 0.68471 0.9705 0.40814 0.0
C1192 C 0.19848 0.61057 0.37314 0.0
C1193 C 0.18424 0.62091 0.32649 0.0
C1194 C 0.11289 0.57494 0.32022 0.0
C1195 C 0.12599 0.56727 0.36893 0.0
N1196 N 0.18295 0.56525 0.4344 0.0
N1197 N 0.13464 0.60252 0.24831 0.0
C1198 C 0.16959 0.58081 0.39289 0.0
C1199 C 0.14374 0.59889 0.29737 0.0
N1200 N 0.23838 0.63117 0.39966 0.0
N1201 N 0.07073 0.56302 0.29761 0.0
H1202 H 0.15704 0.62089 0.23162 0.0
H1203 H 0.10715 0.58447 0.22344 0.0
H1204 H 0.04626 0.54614 0.31281 0.0
H1205 H 0.05916 0.57264 0.2649 0.0
H1206 H 0.24896 0.62883 0.43655 0.0
H1207 H 0.26053 0.65211 0.38507 0.0
H1208 H 0.21483 0.57136 0.45145 0.0
H1209 H 0.16231 0.54289 0.44909 0.0
C1210 C 0.37827 0.18323 0.36036 0.0
C1211 C 0.33399 0.17226 0.36206 0.0
C1212 C 0.33891 0.10391 0.38594 0.0
C1213 C 0.38279 0.11434 0.38288 0.0
N1214 N 0.44697 0.16824 0.38269 0.0
N1215 N 0.27549 0.12919 0.3907 0.0
C1216 C 0.4034 0.15555 0.3753 0.0
C1217 C 0.31547 0.13481 0.37969 0.0
N1218 N 0.39581 0.21832 0.3413 0.0
N1219 N 0.31936 0.06402 0.39301 0.0
H1220 H 0.2581 0.15188 0.38709 0.0
H1221 H 0.26141 0.10449 0.40785 0.0
H1222 H 0.33572 0.04085 0.39876 0.0
H1223 H 0.28651 0.0529 0.39016 0.0
H1224 H 0.42649 0.22475 0.33336 0.0
H1225 H 0.379 0.23978 0.33012 0.0
H1226 H 0.46408 0.19936 0.38266 0.0
H1227 H 0.46625 0.14862 0.39352 0.0
C1228 C 0.6748 0.85285 0.61626 0.0
C1229 C 0.65908 0.80817 0.61382 0.0
C1230 C 0.5867 0.81157 0.58163 0.0
C1231 C 0.60218 0.85633 0.58442 0.0
N1232 N 0.66189 0.91753 0.59143 0.0
N1233 N 0.60419 0.74347 0.58032 0.0
C1234 C 0.64663 0.87623 0.59719 0.0
C1235 C 0.61634 0.78705 0.59138 0.0
N1236 N 0.71554 0.87365 0.64024 0.0
N1237 N 0.54379 0.79293 0.57341 0.0
H1238 H 0.62581 0.72512 0.58718 0.0
H1239 H 0.57431 0.72604 0.56001 0.0
H1240 H 0.52079 0.80991 0.56824 0.0
H1241 H 0.53097 0.76126 0.5762 0.0
H1242 H 0.7266 0.90678 0.64927 0.0
H1243 H 0.73785 0.85814 0.65405 0.0
H1244 H 0.69425 0.9321 0.59468 0.0
H1245 H 0.64212 0.93624 0.57921 0.0
C1246 C 0.58738 0.18529 0.35247 0.0
C1247 C 0.63031 0.20283 0.37638 0.0
C1248 C 0.63265 0.13927 0.41049 0.0
C1249 C 0.59169 0.11856 0.38115 0.0
N1250 N 0.52595 0.12368 0.33155 0.0
N1251 N 0.68087 0.20739 0.45082 0.0
C1252 C 0.5674 0.14222 0.35455 0.0
C1253 C 0.64842 0.18352 0.41355 0.0
N1254 N 0.56719 0.21005 0.32679 0.0
N1255 N 0.65744 0.11642 0.43304 0.0
H1256 H 0.69088 0.24056 0.4544 0.0
H1257 H 0.69372 0.19499 0.48075 0.0
H1258 H 0.64808 0.08322 0.42903 0.0
H1259 H 0.68899 0.13006 0.45119 0.0
H1260 H 0.53625 0.19995 0.30614 0.0
H1261 H 0.58229 0.24208 0.32755 0.0
H1262 H 0.50622 0.13928 0.31259 0.0
H1263 H 0.51045 0.09222 0.33181 0.0
C1264 C 0.8654 0.69439 0.4168 0.0
C1265 C 0.82865 0.66824 0.38335 0.0
C1266 C 0.85288 0.6052 0.39837 0.0
C1267 C 0.89398 0.63199 0.4208 0.0
N1268 N 0.93912 0.70265 0.45527 0.0
N1269 N 0.78552 0.59828 0.34353 0.0
C1270 C 0.90005 0.67685 0.43198 0.0
C1271 C 0.82141 0.62335 0.37525 0.0
N1272 N 0.86676 0.73593 0.43361 0.0
N1273 N 0.84363 0.56279 0.4008 0.0
H1274 H 0.76119 0.61081 0.32788 0.0
H1275 H 0.78093 0.56569 0.33131 0.0
H1276 H 0.86555 0.54936 0.41995 0.0
H1277 H 0.81297 0.54256 0.38953 0.0
H1278 H 0.89124 0.75644 0.46078 0.0
H1279 H 0.84062 0.74816 0.42388 0.0
H1280 H 0.94667 0.73583 0.46002 0.0
H1281 H 0.96484 0.69067 0.46762 0.0
C1282 C 0.36257 0.8392 0.43545 0.0
C1283 C 0.36735 0.80472 0.40258 0.0
C1284 C 0.43844 0.84653 0.39876 0.0
C1285 C 0.42577 0.88408 0.41534 0.0
N1286 N 0.37071 0.91461 0.4418 0.0
N1287 N 0.41511 0.76998 0.36653 0.0
C1288 C 0.38698 0.88024 0.43322 0.0
C1289 C 0.4077 0.80628 0.38989 0.0
N1290 N 0.32998 0.83308 0.46126 0.0
N1291 N 0.47932 0.84939 0.39203 0.0
H1292 H 0.3938 0.74016 0.36354 0.0
H1293 H 0.44169 0.76943 0.35026 0.0
H1294 H 0.50259 0.87834 0.39954 0.0
H1295 H 0.49118 0.82301 0.38346 0.0
H1296 H 0.32537 0.85741 0.48684 0.0
H1297 H 0.31035 0.80251 0.45945 0.0
H1298 H 0.34042 0.912 0.45043 0.0
H1299 H 0.38546 0.9445 0.43477 0.0
C1300 C 0.20165 0.38772 0.36713 0.0
C1301 C 0.20676 0.34945 0.38296 0.0
C1302 C 0.16717 0.36089 0.45012 0.0
C1303 C 0.15921 0.39725 0.43183 0.0
N1304 N 0.17605 0.45135 0.38122 0.0
N1305 N 0.20523 0.30559 0.4466 0.0
C1306 C 0.17915 0.41281 0.39318 0.0
C1307 C 0.1934 0.33822 0.42718 0.0
N1308 N 0.2171 0.39896 0.32594 0.0
N1309 N 0.14776 0.34693 0.48763 0.0
H1310 H 0.22353 0.28776 0.42997 0.0
H1311 H 0.19982 0.29813 0.48107 0.0
H1312 H 0.12923 0.36358 0.50565 0.0
H1313 H 0.14817 0.31816 0.49944 0.0
H1314 H 0.21005 0.42317 0.30808 0.0
H1315 H 0.23653 0.38299 0.30851 0.0
H1316 H 0.1928 0.46656 0.35665 0.0
H1317 H 0.15862 0.46991 0.39842 0.0
C1318 C 0.33407 0.17943 0.57879 0.0
C1319 C 0.32297 0.17493 0.62587 0.0
C1320 C 0.33697 0.10446 0.61946 0.0
C1321 C 0.35449 0.11184 0.5764 0.0
N1322 N 0.36701 0.1534 0.51182 0.0
N1323 N 0.31222 0.13369 0.69166 0.0
C1324 C 0.35174 0.1483 0.55469 0.0
C1325 C 0.32342 0.13731 0.64607 0.0
N1326 N 0.32773 0.21337 0.55755 0.0
N1327 N 0.33316 0.06586 0.6347 0.0
H1328 H 0.29894 0.15536 0.71099 0.0
H1329 H 0.31777 0.11024 0.71185 0.0
H1330 H 0.34379 0.04121 0.61701 0.0
H1331 H 0.31633 0.05664 0.66231 0.0
H1332 H 0.33178 0.21704 0.52146 0.0
H1333 H 0.31573 0.23701 0.57528 0.0
H1334 H 0.37049 0.18101 0.49638 0.0
H1335 H 0.37682 0.12945 0.49178 0.0
C1336 C 0.81411 0.35593 0.62356 0.0
C1337 C 0.79614 0.3725 0.66277 0.0
C1338 C 0.85061 0.44045 0.67531 0.0
C1339 C 0.87307 0.41962 0.64371 0.0
N1340 N 0.88101 0.35377 0.59936 0.0
N1341 N 0.79123 0.43226 0.72027 0.0
C1342 C 0.85622 0.37617 0.62124 0.0
C1343 C 0.81248 0.41571 0.6867 0.0
N1344 N 0.79129 0.32099 0.58889 0.0
N1345 N 0.86531 0.48324 0.6938 0.0
H1346 H 0.76164 0.41488 0.72549 0.0
H1347 H 0.8025 0.46226 0.74287 0.0
H1348 H 0.8925 0.50252 0.68548 0.0
H1349 H 0.84974 0.50048 0.71578 0.0
H1350 H 0.80354 0.30811 0.55929 0.0
H1351 H 0.75843 0.30898 0.58557 0.0
H1352 H 0.87058 0.32105 0.5856 0.0
H1353 H 0.91338 0.36688 0.60014 0.0
C1354 C 0.16708 0.61981 0.58014 0.0
C1355 C 0.19217 0.61176 0.6219 0.0
C1356 C 0.13656 0.54857 0.62404 0.0
C1357 C 0.10721 0.56409 0.59239 0.0
N1358 N 0.09523 0.61544 0.53984 0.0
N1359 N 0.20987 0.56085 0.66898 0.0
C1360 C 0.1228 0.59912 0.5687 0.0
C1361 C 0.17992 0.57274 0.63808 0.0
N1362 N 0.18535 0.65025 0.5551 0.0
N1363 N 0.12255 0.51182 0.64168 0.0
H1364 H 0.24133 0.57981 0.67886 0.0
H1365 H 0.20465 0.53235 0.68263 0.0
H1366 H 0.09195 0.49195 0.62898 0.0
H1367 H 0.14108 0.50034 0.66787 0.0
H1368 H 0.16978 0.65642 0.52209 0.0
H1369 H 0.21771 0.66637 0.56585 0.0
H1370 H 0.10472 0.64349 0.52593 0.0
H1371 H 0.06233 0.60273 0.53272 0.0
loop_
_geom_bond_atom_site_label_1
_geom_bond_atom_site_label_2
_geom_bond_distance
_geom_bond_site_symmetry_2
_ccdc_geom_bond_type
O0 Zn1 1.953 . S
O0 C16 1.225 . S
Zn1 O0 1.953 . S
Zn1 O2 1.949 . S
Zn1 O8 1.919 . S
Zn1 O13 1.924 . S
O2 Zn1 1.949 . S
O2 Zn3 1.923 . S
O2 Zn4 1.950 . S
O2 Zn5 1.945 . S
Zn3 O2 1.923 . S
Zn3 O6 1.933 . S
Zn3 O9 1.941 . S
Zn3 O10 1.965 . S
Zn4 O2 1.950 . S
Zn4 O11 1.938 . S
Zn4 O12 1.906 . S
Zn4 O22 1.953 . S
Zn5 O2 1.945 . S
Zn5 O7 1.932 . S
Zn5 O14 1.977 . S
Zn5 O15 1.910 . S
O6 Zn3 1.933 . S
O6 C17 1.226 . S
O7 Zn5 1.932 . S
O7 C17 1.307 . S
O8 Zn1 1.919 . S
O8 C19 1.253 . S
O9 Zn3 1.941 . S
O9 C19 1.283 . S
O10 Zn3 1.965 . S
O10 C18 1.303 . S
O11 Zn4 1.938 . S
O11 C18 1.247 . S
O12 Zn4 1.906 . S
O12 C20 1.304 . S
O13 Zn1 1.924 . S
O13 C21 1.311 . S
O14 Zn5 1.977 . S
O14 C20 1.272 . S
O15 Zn5 1.910 . S
O15 C21 1.231 . S
C16 O0 1.225 . S
C16 O22 1.298 . S
C17 O6 1.226 . S
C17 O7 1.307 . S
C18 O10 1.303 . S
C18 O11 1.247 . S
C19 O8 1.253 . S
C19 O9 1.283 . S
C20 O12 1.304 . S
C20 O14 1.272 . S
C21 O13 1.311 . S
C21 O15 1.231 . S
O22 Zn4 1.953 . S
O22 C16 1.298 . S
O23 Zn24 1.953 . S
O23 C39 1.225 . S
Zn24 O23 1.953 . S
Zn24 O25 1.949 . S
Zn24 O31 1.919 . S
Zn24 O36 1.924 . S
O25 Zn24 1.949 . S
O25 Zn26 1.923 . S
O25 Zn27 1.950 . S
O25 Zn28 1.945 . S
Zn26 O25 1.923 . S
Zn26 O29 1.933 . S
Zn26 O32 1.941 . S
Zn26 O33 1.965 . S
Zn27 O25 1.950 . S
Zn27 O34 1.938 . S
Zn27 O35 1.906 . S
Zn27 O45 1.953 . S
Zn28 O25 1.945 . S
Zn28 O30 1.932 . S
Zn28 O37 1.977 . S
Zn28 O38 1.910 . S
O29 Zn26 1.933 . S
O29 C40 1.226 . S
O30 Zn28 1.932 . S
O30 C40 1.307 . S
O31 Zn24 1.919 . S
O31 C42 1.253 . S
O32 Zn26 1.941 . S
O32 C42 1.283 . S
O33 Zn26 1.965 . S
O33 C41 1.303 . S
O34 Zn27 1.938 . S
O34 C41 1.247 . S
O35 Zn27 1.906 . S
O35 C43 1.304 . S
O36 Zn24 1.924 . S
O36 C44 1.311 . S
O37 Zn28 1.977 . S
O37 C43 1.272 . S
O38 Zn28 1.910 . S
O38 C44 1.231 . S
C39 O23 1.225 . S
C39 O45 1.298 . S
C40 O29 1.226 . S
C40 O30 1.307 . S
C41 O33 1.303 . S
C41 O34 1.247 . S
C42 O31 1.253 . S
C42 O32 1.283 . S
C43 O35 1.304 . S
C43 O37 1.272 . S
C44 O36 1.311 . S
C44 O38 1.231 . S
O45 Zn27 1.953 . S
O45 C39 1.298 . S
O46 Zn47 1.953 . S
O46 C62 1.225 . S
Zn47 O46 1.953 . S
Zn47 O48 1.949 . S
Zn47 O54 1.919 . S
Zn47 O59 1.924 . S
O48 Zn47 1.949 . S
O48 Zn49 1.923 . S
O48 Zn50 1.950 . S
O48 Zn51 1.945 . S
Zn49 O48 1.923 . S
Zn49 O52 1.933 . S
Zn49 O55 1.941 . S
Zn49 O56 1.965 . S
Zn50 O48 1.950 . S
Zn50 O57 1.938 . S
Zn50 O58 1.906 . S
Zn50 O68 1.953 . S
Zn51 O48 1.945 . S
Zn51 O53 1.932 . S
Zn51 O60 1.977 . S
Zn51 O61 1.910 . S
O52 Zn49 1.933 . S
O52 C63 1.226 . S
O53 Zn51 1.932 . S
O53 C63 1.307 . S
O54 Zn47 1.919 . S
O54 C65 1.253 . S
O55 Zn49 1.941 . S
O55 C65 1.283 . S
O56 Zn49 1.965 . S
O56 C64 1.303 . S
O57 Zn50 1.938 . S
O57 C64 1.247 . S
O58 Zn50 1.906 . S
O58 C66 1.304 . S
O59 Zn47 1.924 . S
O59 C67 1.311 . S
O60 Zn51 1.977 . S
O60 C66 1.272 . S
O61 Zn51 1.910 . S
O61 C67 1.231 . S
C62 O46 1.225 . S
C62 O68 1.298 . S
C63 O52 1.226 . S
C63 O53 1.307 . S
C64 O56 1.303 . S
C64 O57 1.247 . S
C65 O54 1.253 . S
C65 O55 1.283 . S
C66 O58 1.304 . S
C66 O60 1.272 . S
C67 O59 1.311 . S
C67 O61 1.231 . S
O68 Zn50 1.953 . S
O68 C62 1.298 . S
O69 Zn70 1.953 . S
O69 C85 1.225 . S
Zn70 O69 1.953 . S
Zn70 O71 1.949 . S
Zn70 O77 1.919 . S
Zn70 O82 1.924 . S
O71 Zn70 1.949 . S
O71 Zn72 1.923 . S
O71 Zn73 1.950 . S
O71 Zn74 1.945 . S
Zn72 O71 1.923 . S
Zn72 O75 1.933 . S
Zn72 O78 1.941 . S
Zn72 O79 1.965 . S
Zn73 O71 1.950 . S
Zn73 O80 1.938 . S
Zn73 O81 1.906 . S
Zn73 O91 1.953 . S
Zn74 O71 1.945 . S
Zn74 O76 1.932 . S
Zn74 O83 1.977 . S
Zn74 O84 1.910 . S
O75 Zn72 1.933 . S
O75 C86 1.226 . S
O76 Zn74 1.932 . S
O76 C86 1.307 . S
O77 Zn70 1.919 . S
O77 C88 1.253 . S
O78 Zn72 1.941 . S
O78 C88 1.283 . S
O79 Zn72 1.965 . S
O79 C87 1.303 . S
O80 Zn73 1.938 . S
O80 C87 1.247 . S
O81 Zn73 1.906 . S
O81 C89 1.304 . S
O82 Zn70 1.924 . S
O82 C90 1.311 . S
O83 Zn74 1.977 . S
O83 C89 1.272 . S
O84 Zn74 1.910 . S
O84 C90 1.231 . S
C85 O69 1.225 . S
C85 O91 1.298 . S
C86 O75 1.226 . S
C86 O76 1.307 . S
C87 O79 1.303 . S
C87 O80 1.247 . S
C88 O77 1.253 . S
C88 O78 1.283 . S
C89 O81 1.304 . S
C89 O83 1.272 . S
C90 O82 1.311 . S
C90 O84 1.231 . S
O91 Zn73 1.953 . S
O91 C85 1.298 . S
O92 Zn93 1.953 . S
O92 C108 1.225 . S
Zn93 O92 1.953 . S
Zn93 O94 1.949 . S
Zn93 O100 1.919 . S
Zn93 O105 1.924 . S
O94 Zn93 1.949 . S
O94 Zn95 1.923 . S
O94 Zn96 1.950 . S
O94 Zn97 1.945 . S
Zn95 O94 1.923 . S
Zn95 O98 1.933 . S
Zn95 O101 1.941 . S
Zn95 O102 1.965 . S
Zn96 O94 1.950 . S
Zn96 O103 1.938 . S
Zn96 O104 1.906 . S
Zn96 O114 1.953 . S
Zn97 O94 1.945 . S
Zn97 O99 1.932 . S
Zn97 O106 1.977 . S
Zn97 O107 1.910 . S
O98 Zn95 1.933 . S
O98 C109 1.226 . S
O99 Zn97 1.932 . S
O99 C109 1.307 . S
O100 Zn93 1.919 . S
O100 C111 1.253 . S
O101 Zn95 1.941 . S
O101 C111 1.283 . S
O102 Zn95 1.965 . S
O102 C110 1.303 . S
O103 Zn96 1.938 . S
O103 C110 1.247 . S
O104 Zn96 1.906 . S
O104 C112 1.304 . S
O105 Zn93 1.924 . S
O105 C113 1.311 . S
O106 Zn97 1.977 . S
O106 C112 1.272 . S
O107 Zn97 1.910 . S
O107 C113 1.231 . S
C108 O92 1.225 . S
C108 O114 1.298 . S
C109 O98 1.226 . S
C109 O99 1.307 . S
C110 O102 1.303 . S
C110 O103 1.247 . S
C111 O100 1.253 . S
C111 O101 1.283 . S
C112 O104 1.304 . S
C112 O106 1.272 . S
C113 O105 1.311 . S
C113 O107 1.231 . S
O114 Zn96 1.953 . S
O114 C108 1.298 . S
O115 Zn116 1.953 . S
O115 C131 1.225 . S
Zn116 O115 1.953 . S
Zn116 O117 1.949 . S
Zn116 O123 1.919 . S
Zn116 O128 1.924 . S
O117 Zn116 1.949 . S
O117 Zn118 1.923 . S
O117 Zn119 1.950 . S
O117 Zn120 1.945 . S
Zn118 O117 1.923 . S
Zn118 O121 1.933 . S
Zn118 O124 1.941 . S
Zn118 O125 1.965 . S
Zn119 O117 1.950 . S
Zn119 O126 1.938 . S
Zn119 O127 1.906 . S
Zn119 O137 1.953 . S
Zn120 O117 1.945 . S
Zn120 O122 1.932 . S
Zn120 O129 1.977 . S
Zn120 O130 1.910 . S
O121 Zn118 1.933 . S
O121 C132 1.226 . S
O122 Zn120 1.932 . S
O122 C132 1.307 . S
O123 Zn116 1.919 . S
O123 C134 1.253 . S
O124 Zn118 1.941 . S
O124 C134 1.283 . S
O125 Zn118 1.965 . S
O125 C133 1.303 . S
O126 Zn119 1.938 . S
O126 C133 1.247 . S
O127 Zn119 1.906 . S
O127 C135 1.304 . S
O128 Zn116 1.924 . S
O128 C136 1.311 . S
O129 Zn120 1.977 . S
O129 C135 1.272 . S
O130 Zn120 1.910 . S
O130 C136 1.231 . S
C131 O115 1.225 . S
C131 O137 1.298 . S
C132 O121 1.226 . S
C132 O122 1.307 . S
C133 O125 1.303 . S
C133 O126 1.247 . S
C134 O123 1.253 . S
C134 O124 1.283 . S
C135 O127 1.304 . S
C135 O129 1.272 . S
C136 O128 1.311 . S
C136 O130 1.231 . S
O137 Zn119 1.953 . S
O137 C131 1.298 . S
O138 Zn139 1.953 . S
O138 C154 1.225 . S
Zn139 O138 1.953 . S
Zn139 O140 1.949 . S
Zn139 O146 1.919 . S
Zn139 O151 1.924 . S
O140 Zn139 1.949 . S
O140 Zn141 1.923 . S
O140 Zn142 1.950 . S
O140 Zn143 1.945 . S
Zn141 O140 1.923 . S
Zn141 O144 1.933 . S
Zn141 O147 1.941 . S
Zn141 O148 1.965 . S
Zn142 O140 1.950 . S
Zn142 O149 1.938 . S
Zn142 O150 1.906 . S
Zn142 O160 1.953 . S
Zn143 O140 1.945 . S
Zn143 O145 1.932 . S
Zn143 O152 1.977 . S
Zn143 O153 1.910 . S
O144 Zn141 1.933 . S
O144 C155 1.226 . S
O145 Zn143 1.932 . S
O145 C155 1.307 . S
O146 Zn139 1.919 . S
O146 C157 1.253 . S
O147 Zn141 1.941 . S
O147 C157 1.283 . S
O148 Zn141 1.965 . S
O148 C156 1.303 . S
O149 Zn142 1.938 . S
O149 C156 1.247 . S
O150 Zn142 1.906 . S
O150 C158 1.304 . S
O151 Zn139 1.924 . S
O151 C159 1.311 . S
O152 Zn143 1.977 . S
O152 C158 1.272 . S
O153 Zn143 1.910 . S
O153 C159 1.231 . S
C154 O138 1.225 . S
C154 O160 1.298 . S
C155 O144 1.226 . S
C155 O145 1.307 . S
C156 O148 1.303 . S
C156 O149 1.247 . S
C157 O146 1.253 . S
C157 O147 1.283 . S
C158 O150 1.304 . S
C158 O152 1.272 . S
C159 O151 1.311 . S
C159 O153 1.231 . S
O160 Zn142 1.953 . S
O160 C154 1.298 . S
O161 Zn162 1.953 . S
O161 C177 1.225 . S
Zn162 O161 1.953 . S
Zn162 O163 1.949 . S
Zn162 O169 1.919 . S
Zn162 O174 1.924 . S
O163 Zn162 1.949 . S
O163 Zn164 1.923 . S
O163 Zn165 1.950 . S
O163 Zn166 1.945 . S
Zn164 O163 1.923 . S
Zn164 O167 1.933 . S
Zn164 O170 1.941 . S
Zn164 O171 1.965 . S
Zn165 O163 1.950 . S
Zn165 O172 1.938 . S
Zn165 O173 1.906 . S
Zn165 O183 1.953 . S
Zn166 O163 1.945 . S
Zn166 O168 1.932 . S
Zn166 O175 1.977 . S
Zn166 O176 1.910 . S
O167 Zn164 1.933 . S
O167 C178 1.226 . S
O168 Zn166 1.932 . S
O168 C178 1.307 . S
O169 Zn162 1.919 . S
O169 C180 1.253 . S
O170 Zn164 1.941 . S
O170 C180 1.283 . S
O171 Zn164 1.965 . S
O171 C179 1.303 . S
O172 Zn165 1.938 . S
O172 C179 1.247 . S
O173 Zn165 1.906 . S
O173 C181 1.304 . S
O174 Zn162 1.924 . S
O174 C182 1.311 . S
O175 Zn166 1.977 . S
O175 C181 1.272 . S
O176 Zn166 1.910 . S
O176 C182 1.231 . S
C177 O161 1.225 . S
C177 O183 1.298 . S
C178 O167 1.226 . S
C178 O168 1.307 . S
C179 O171 1.303 . S
C179 O172 1.247 . S
C180 O169 1.253 . S
C180 O170 1.283 . S
C181 O173 1.304 . S
C181 O175 1.272 . S
C182 O174 1.311 . S
C182 O176 1.231 . S
O183 Zn165 1.953 . S
O183 C177 1.298 . S
Cd184 N187 2.334 1_655 S
Cd184 N213 2.304 1_565 S
Cd184 O220 2.268 . S
Cd184 O223 2.273 1_665 S
Cd184 O224 2.417 . S
Cd184 O225 2.330 . S
Cd185 N200 2.304 1_455 S
Cd185 N204 2.334 1_545 S
Cd185 O221 2.273 1_445 S
Cd185 O222 2.268 . S
Cd185 O226 2.417 . S
Cd185 O227 2.330 . S
C186 N187 1.332 . S
C186 C190 1.381 . S
C186 H192 0.931 . S
N187 Cd184 2.334 1_455 S
N187 C186 1.332 . S
N187 C191 1.328 . S
C188 C189 1.396 . S
C188 C191 1.378 . S
C188 H230 0.931 . S
C189 C188 1.396 . S
C189 C190 1.382 . S
C190 C186 1.381 . S
C190 C189 1.382 . S
C190 H231 0.930 . S
C191 N187 1.328 . S
C191 C188 1.378 . S
C191 H193 0.930 . S
H192 C186 0.931 . S
H193 C191 0.930 . S
C194 O220 1.238 . S
C194 O221 1.253 . S
C195 C196 1.379 . S
C195 N200 1.337 . S
C195 H201 0.929 . S
C196 C195 1.379 . S
C196 C197 1.380 . S
C196 H232 0.929 . S
C197 C196 1.380 . S
C197 C198 1.399 . S
C198 C197 1.399 . S
C198 C199 1.376 . S
C198 H233 0.931 . S
C199 C198 1.376 . S
C199 N200 1.338 . S
C199 H202 0.930 1_655 S
N200 Cd185 2.304 1_655 S
N200 C195 1.337 . S
N200 C199 1.338 . S
H201 C195 0.929 . S
H202 C199 0.930 1_455 S
C203 N204 1.332 . S
C203 C207 1.381 . S
C203 H209 0.931 . S
N204 Cd185 2.334 1_565 S
N204 C203 1.332 . S
N204 C208 1.328 . S
C205 C206 1.396 . S
C205 C208 1.378 . S
C205 H234 0.931 . S
C206 C205 1.396 . S
C206 C207 1.382 . S
C207 C203 1.381 . S
C207 C206 1.382 . S
C207 H235 0.930 . S
C208 N204 1.328 . S
C208 C205 1.378 . S
C208 H210 0.930 1_565 S
H209 C203 0.931 . S
H210 C208 0.930 1_545 S
C211 O222 1.238 . S
C211 O223 1.253 . S
C212 O224 1.239 . S
C212 O225 1.230 . S
N213 Cd184 2.304 1_545 S
N213 C214 1.337 . S
N213 C218 1.338 . S
C214 N213 1.337 . S
C214 C215 1.379 . S
C214 H228 0.929 . S
C215 C214 1.379 . S
C215 C216 1.380 . S
C215 H236 0.929 . S
C216 C215 1.380 . S
C216 C217 1.399 . S
C217 C216 1.399 . S
C217 C218 1.376 . S
C217 H237 0.931 . S
C218 N213 1.338 . S
C218 C217 1.376 . S
C218 H229 0.939 . S
C219 O226 1.239 . S
C219 O227 1.230 . S
O220 Cd184 2.268 . S
O220 C194 1.238 . S
O221 Cd185 2.273 1_665 S
O221 C194 1.253 . S
O222 Cd185 2.268 . S
O222 C211 1.238 . S
O223 Cd184 2.273 1_445 S
O223 C211 1.253 . S
O224 Cd184 2.417 . S
O224 C212 1.239 . S
O225 Cd184 2.330 . S
O225 C212 1.230 . S
O226 Cd185 2.417 . S
O226 C219 1.239 . S
O227 Cd185 2.330 . S
O227 C219 1.230 . S
H228 C214 0.929 . S
H229 C218 0.939 . S
H230 C188 0.931 . S
H231 C190 0.930 . S
H232 C196 0.929 . S
H233 C198 0.931 . S
H234 C205 0.931 . S
H235 C207 0.930 . S
H236 C215 0.929 . S
H237 C217 0.931 . S
Cd238 N241 2.334 . S
Cd238 N267 2.304 1_565 S
Cd238 O274 2.268 1_554 S
Cd238 O277 2.273 1_565 S
Cd238 O278 2.417 . S
Cd238 O279 2.330 . S
Cd239 N254 2.304 . S
Cd239 N258 2.334 1_545 S
Cd239 O275 2.273 1_545 S
Cd239 O276 2.268 1_556 S
Cd239 O280 2.417 . S
Cd239 O281 2.330 . S
C240 N241 1.332 . S
C240 C244 1.381 . S
C240 H246 0.931 . S
N241 Cd238 2.334 . S
N241 C240 1.332 . S
N241 C245 1.328 . S
C242 C243 1.396 . S
C242 C245 1.378 . S
C242 H284 0.931 . S
C243 C242 1.396 . S
C243 C244 1.382 . S
C244 C240 1.381 . S
C244 C243 1.382 . S
C244 H285 0.930 . S
C245 N241 1.328 . S
C245 C242 1.378 . S
C245 H247 0.930 . S
H246 C240 0.931 . S
H247 C245 0.930 . S
C248 O274 1.238 . S
C248 O275 1.253 . S
C249 C250 1.379 . S
C249 N254 1.337 . S
C249 H255 0.929 . S
C250 C249 1.379 . S
C250 C251 1.380 . S
C250 H286 0.929 . S
C251 C250 1.380 . S
C251 C252 1.399 . S
C252 C251 1.399 . S
C252 C253 1.376 . S
C252 H287 0.931 1_556 S
C253 C252 1.376 . S
C253 N254 1.338 . S
C253 H256 0.930 1_556 S
N254 Cd239 2.304 . S
N254 C249 1.337 . S
N254 C253 1.338 . S
H255 C249 0.929 . S
H256 C253 0.930 1_554 S
C257 N258 1.332 . S
C257 C261 1.381 . S
C257 H263 0.931 . S
N258 Cd239 2.334 1_565 S
N258 C257 1.332 . S
N258 C262 1.328 . S
C259 C260 1.396 . S
C259 C262 1.378 . S
C259 H288 0.931 1_556 S
C260 C259 1.396 . S
C260 C261 1.382 . S
C261 C257 1.381 . S
C261 C260 1.382 . S
C261 H289 0.930 . S
C262 N258 1.328 . S
C262 C259 1.378 . S
C262 H264 0.930 1_566 S
H263 C257 0.931 . S
H264 C262 0.930 1_544 S
C265 O276 1.238 . S
C265 O277 1.253 . S
C266 O278 1.239 . S
C266 O279 1.230 . S
N267 Cd238 2.304 1_545 S
N267 C268 1.337 . S
N267 C272 1.338 . S
C268 N267 1.337 . S
C268 C269 1.379 . S
C268 H282 0.929 . S
C269 C268 1.379 . S
C269 C270 1.380 . S
C269 H290 0.929 . S
C270 C269 1.380 . S
C270 C271 1.399 . S
C271 C270 1.399 . S
C271 C272 1.376 . S
C271 H291 0.924 1_554 S
C272 N267 1.338 . S
C272 C271 1.376 . S
C272 H283 0.935 1_545 S
C273 O280 1.239 . S
C273 O281 1.230 . S
O274 Cd238 2.268 1_556 S
O274 C248 1.238 . S
O275 Cd239 2.273 1_565 S
O275 C248 1.253 . S
O276 Cd239 2.268 1_554 S
O276 C265 1.238 . S
O277 Cd238 2.273 1_545 S
O277 C265 1.253 . S
O278 Cd238 2.417 . S
O278 C266 1.239 . S
O279 Cd238 2.330 . S
O279 C266 1.230 . S
O280 Cd239 2.417 . S
O280 C273 1.239 . S
O281 Cd239 2.330 . S
O281 C273 1.230 . S
H282 C268 0.929 . S
H283 C272 0.935 1_565 S
H284 C242 0.931 . S
H285 C244 0.930 . S
H286 C250 0.929 . S
H287 C252 0.931 1_554 S
H288 C259 0.931 1_554 S
H289 C261 0.930 . S
H290 C269 0.929 . S
H291 C271 0.924 1_556 S
Cd292 N295 2.334 1_655 S
Cd292 N321 2.304 . S
Cd292 O328 2.268 1_554 S
Cd292 O331 2.273 1_655 S
Cd292 O332 2.417 . S
Cd292 O333 2.330 . S
Cd293 N308 2.304 1_455 S
Cd293 N312 2.334 . S
Cd293 O329 2.273 1_455 S
Cd293 O330 2.268 1_556 S
Cd293 O334 2.417 . S
Cd293 O335 2.330 . S
C294 N295 1.332 . S
C294 C298 1.381 . S
C294 H300 0.931 . S
N295 Cd292 2.334 1_455 S
N295 C294 1.332 . S
N295 C299 1.328 . S
C296 C297 1.396 . S
C296 C299 1.378 . S
C296 H338 0.931 1_554 S
C297 C296 1.396 . S
C297 C298 1.382 . S
C298 C294 1.381 . S
C298 C297 1.382 . S
C298 H339 0.930 . S
C299 N295 1.328 . S
C299 C296 1.378 . S
C299 H301 0.930 1_554 S
H300 C294 0.931 . S
H301 C299 0.930 1_556 S
C302 O328 1.238 . S
C302 O329 1.253 . S
C303 C304 1.379 . S
C303 N308 1.337 . S
C303 H309 0.929 . S
C304 C303 1.379 . S
C304 C305 1.380 . S
C304 H340 0.929 . S
C305 C304 1.380 . S
C305 C306 1.399 . S
C306 C305 1.399 . S
C306 C307 1.376 . S
C306 H341 0.931 1_556 S
C307 C306 1.376 . S
C307 N308 1.338 . S
C307 H310 0.930 1_656 S
N308 Cd293 2.304 1_655 S
N308 C303 1.337 . S
N308 C307 1.338 . S
H309 C303 0.929 . S
H310 C307 0.930 1_454 S
C311 N312 1.332 . S
C311 C315 1.381 . S
C311 H317 0.931 . S
N312 Cd293 2.334 . S
N312 C311 1.332 . S
N312 C316 1.328 . S
C313 C314 1.396 . S
C313 C316 1.378 . S
C313 H342 0.931 1_556 S
C314 C313 1.396 . S
C314 C315 1.382 . S
C315 C311 1.381 . S
C315 C314 1.382 . S
C315 H343 0.930 . S
C316 N312 1.328 . S
C316 C313 1.378 . S
C316 H318 0.930 1_556 S
H317 C311 0.931 . S
H318 C316 0.930 1_554 S
C319 O330 1.238 . S
C319 O331 1.253 . S
C320 O332 1.239 . S
C320 O333 1.230 . S
N321 Cd292 2.304 . S
N321 C322 1.337 . S
N321 C326 1.338 . S
C322 N321 1.337 . S
C322 C323 1.379 . S
C322 H336 0.929 . S
C323 C322 1.379 . S
C323 C324 1.380 . S
C323 H344 0.929 . S
C324 C323 1.380 . S
C324 C325 1.399 . S
C325 C324 1.399 . S
C325 C326 1.376 . S
C325 H345 0.931 1_554 S
C326 N321 1.338 . S
C326 C325 1.376 . S
C326 H337 0.930 1_554 S
C327 O334 1.239 . S
C327 O335 1.230 . S
O328 Cd292 2.268 1_556 S
O328 C302 1.238 . S
O329 Cd293 2.273 1_655 S
O329 C302 1.253 . S
O330 Cd293 2.268 1_554 S
O330 C319 1.238 . S
O331 Cd292 2.273 1_455 S
O331 C319 1.253 . S
O332 Cd292 2.417 . S
O332 C320 1.239 . S
O333 Cd292 2.330 . S
O333 C320 1.230 . S
O334 Cd293 2.417 . S
O334 C327 1.239 . S
O335 Cd293 2.330 . S
O335 C327 1.230 . S
H336 C322 0.929 . S
H337 C326 0.930 1_556 S
H338 C296 0.931 1_556 S
H339 C298 0.930 . S
H340 C304 0.929 . S
H341 C306 0.931 1_554 S
H342 C313 0.931 1_554 S
H343 C315 0.930 . S
H344 C323 0.929 . S
H345 C325 0.931 1_556 S
Cd346 N349 2.334 . S
Cd346 N375 2.304 . S
Cd346 O382 2.268 1_554 S
Cd346 O385 2.273 . S
Cd346 O386 2.417 . S
Cd346 O387 2.330 . S
Cd347 N362 2.304 . S
Cd347 N366 2.334 . S
Cd347 O383 2.273 . S
Cd347 O384 2.268 1_556 S
Cd347 O388 2.417 . S
Cd347 O389 2.330 . S
C348 N349 1.332 . S
C348 C352 1.381 . S
C348 H354 0.931 . S
N349 Cd346 2.334 . S
N349 C348 1.332 . S
N349 C353 1.328 . S
C350 C351 1.396 . S
C350 C353 1.378 . S
C350 H392 0.938 . S
C351 C350 1.396 . S
C351 C352 1.382 . S
C352 C348 1.381 . S
C352 C351 1.382 . S
C352 H393 0.930 . S
C353 N349 1.328 . S
C353 C350 1.378 . S
C353 H355 0.930 . S
H354 C348 0.931 . S
H355 C353 0.930 . S
C356 O382 1.238 . S
C356 O383 1.253 . S
C357 C358 1.379 . S
C357 N362 1.337 . S
C357 H363 0.929 . S
C358 C357 1.379 . S
C358 C359 1.380 . S
C358 H394 0.929 . S
C359 C358 1.380 . S
C359 C360 1.399 . S
C360 C359 1.399 . S
C360 C361 1.376 . S
C360 H395 0.931 1_556 S
C361 C360 1.376 . S
C361 N362 1.338 . S
C361 H364 0.930 1_556 S
N362 Cd347 2.304 . S
N362 C357 1.337 . S
N362 C361 1.338 . S
H363 C357 0.929 . S
H364 C361 0.930 1_554 S
C365 N366 1.332 . S
C365 C369 1.381 . S
C365 H371 0.931 . S
N366 Cd347 2.334 . S
N366 C365 1.332 . S
N366 C370 1.328 . S
C367 C368 1.396 . S
C367 C370 1.378 . S
C367 H396 0.931 1_556 S
C368 C367 1.396 . S
C368 C369 1.382 . S
C369 C365 1.381 . S
C369 C368 1.382 . S
C369 H397 0.930 . S
C370 N366 1.328 . S
C370 C367 1.378 . S
C370 H372 0.930 1_556 S
H371 C365 0.931 . S
H372 C370 0.930 1_554 S
C373 O384 1.238 . S
C373 O385 1.253 . S
C374 O386 1.239 . S
C374 O387 1.230 . S
N375 Cd346 2.304 . S
N375 C376 1.337 . S
N375 C380 1.338 . S
C376 N375 1.337 . S
C376 C377 1.379 . S
C376 H390 0.929 . S
C377 C376 1.379 . S
C377 C378 1.380 . S
C377 H398 0.929 . S
C378 C377 1.380 . S
C378 C379 1.399 . S
C379 C378 1.399 . S
C379 C380 1.376 . S
C379 H399 0.931 1_554 S
C380 N375 1.338 . S
C380 C379 1.376 . S
C380 H391 0.915 1_554 S
C381 O388 1.239 . S
C381 O389 1.230 . S
O382 Cd346 2.268 1_556 S
O382 C356 1.238 . S
O383 Cd347 2.273 . S
O383 C356 1.253 . S
O384 Cd347 2.268 1_554 S
O384 C373 1.238 . S
O385 Cd346 2.273 . S
O385 C373 1.253 . S
O386 Cd346 2.417 . S
O386 C374 1.239 . S
O387 Cd346 2.330 . S
O387 C374 1.230 . S
O388 Cd347 2.417 . S
O388 C381 1.239 . S
O389 Cd347 2.330 . S
O389 C381 1.230 . S
H390 C376 0.929 . S
H391 C380 0.915 1_556 S
H392 C350 0.938 . S
H393 C352 0.930 . S
H394 C358 0.929 . S
H395 C360 0.931 1_554 S
H396 C367 0.931 1_554 S
H397 C369 0.930 . S
H398 C377 0.929 . S
H399 C379 0.931 1_556 S
Cd400 N403 2.334 1_655 S
Cd400 N429 2.304 . S
Cd400 O436 2.268 . S
Cd400 O439 2.273 1_655 S
Cd400 O440 2.417 . S
Cd400 O441 2.330 . S
Cd401 N416 2.304 1_455 S
Cd401 N420 2.334 . S
Cd401 O437 2.273 1_455 S
Cd401 O438 2.268 . S
Cd401 O442 2.417 . S
Cd401 O443 2.330 . S
C402 N403 1.332 . S
C402 C406 1.381 . S
C402 H408 0.931 . S
N403 Cd400 2.334 1_455 S
N403 C402 1.332 . S
N403 C407 1.328 . S
C404 C405 1.396 . S
C404 C407 1.378 . S
C404 H446 0.931 . S
C405 C404 1.396 . S
C405 C406 1.382 . S
C406 C402 1.381 . S
C406 C405 1.382 . S
C406 H447 0.930 . S
C407 N403 1.328 . S
C407 C404 1.378 . S
C407 H409 0.930 . S
H408 C402 0.931 . S
H409 C407 0.930 . S
C410 O436 1.238 . S
C410 O437 1.253 . S
C411 C412 1.379 . S
C411 N416 1.337 . S
C411 H417 0.929 . S
C412 C411 1.379 . S
C412 C413 1.380 . S
C412 H448 0.929 . S
C413 C412 1.380 . S
C413 C414 1.399 . S
C414 C413 1.399 . S
C414 C415 1.376 . S
C414 H449 0.931 . S
C415 C414 1.376 . S
C415 N416 1.338 . S
C415 H418 0.930 1_655 S
N416 Cd401 2.304 1_655 S
N416 C411 1.337 . S
N416 C415 1.338 . S
H417 C411 0.929 . S
H418 C415 0.930 1_455 S
C419 N420 1.332 . S
C419 C423 1.381 . S
C419 H425 0.931 . S
N420 Cd401 2.334 . S
N420 C419 1.332 . S
N420 C424 1.328 . S
C421 C422 1.396 . S
C421 C424 1.378 . S
C421 H450 0.931 . S
C422 C421 1.396 . S
C422 C423 1.382 . S
C423 C419 1.381 . S
C423 C422 1.382 . S
C423 H451 0.930 . S
C424 N420 1.328 . S
C424 C421 1.378 . S
C424 H426 0.930 . S
H425 C419 0.931 . S
H426 C424 0.930 . S
C427 O438 1.238 . S
C427 O439 1.253 . S
C428 O440 1.239 . S
C428 O441 1.230 . S
N429 Cd400 2.304 . S
N429 C430 1.337 . S
N429 C434 1.338 . S
C430 N429 1.337 . S
C430 C431 1.379 . S
C430 H444 0.929 . S
C431 C430 1.379 . S
C431 C432 1.380 . S
C431 H452 0.929 . S
C432 C431 1.380 . S
C432 C433 1.399 . S
C433 C432 1.399 . S
C433 C434 1.376 . S
C433 H453 0.931 . S
C434 N429 1.338 . S
C434 C433 1.376 . S
C434 H445 0.930 . S
C435 O442 1.239 . S
C435 O443 1.230 . S
O436 Cd400 2.268 . S
O436 C410 1.238 . S
O437 Cd401 2.273 1_655 S
O437 C410 1.253 . S
O438 Cd401 2.268 . S
O438 C427 1.238 . S
O439 Cd400 2.273 1_455 S
O439 C427 1.253 . S
O440 Cd400 2.417 . S
O440 C428 1.239 . S
O441 Cd400 2.330 . S
O441 C428 1.230 . S
O442 Cd401 2.417 . S
O442 C435 1.239 . S
O443 Cd401 2.330 . S
O443 C435 1.230 . S
H444 C430 0.929 . S
H445 C434 0.930 . S
H446 C404 0.931 . S
H447 C406 0.930 . S
H448 C412 0.929 . S
H449 C414 0.931 . S
H450 C421 0.931 . S
H451 C423 0.930 . S
H452 C431 0.929 . S
H453 C433 0.931 . S
Cd454 N457 2.334 . S
Cd454 N483 2.304 1_565 S
Cd454 O490 2.268 . S
Cd454 O493 2.273 1_565 S
Cd454 O494 2.417 . S
Cd454 O495 2.330 . S
Cd455 N470 2.304 . S
Cd455 N474 2.334 1_545 S
Cd455 O491 2.273 1_545 S
Cd455 O492 2.268 . S
Cd455 O496 2.417 . S
Cd455 O497 2.330 . S
C456 N457 1.332 . S
C456 C460 1.381 . S
C456 H462 0.931 . S
N457 Cd454 2.334 . S
N457 C456 1.332 . S
N457 C461 1.328 . S
C458 C459 1.396 . S
C458 C461 1.378 . S
C458 H500 0.931 . S
C459 C458 1.396 . S
C459 C460 1.382 . S
C460 C456 1.381 . S
C460 C459 1.382 . S
C460 H501 0.930 . S
C461 N457 1.328 . S
C461 C458 1.378 . S
C461 H463 0.930 . S
H462 C456 0.931 . S
H463 C461 0.930 . S
C464 O490 1.238 . S
C464 O491 1.253 . S
C465 C466 1.379 . S
C465 N470 1.337 . S
C465 H471 0.929 . S
C466 C465 1.379 . S
C466 C467 1.380 . S
C466 H502 0.929 . S
C467 C466 1.380 . S
C467 C468 1.399 . S
C468 C467 1.399 . S
C468 C469 1.376 . S
C468 H503 0.931 . S
C469 C468 1.376 . S
C469 N470 1.338 . S
C469 H472 0.930 . S
N470 Cd455 2.304 . S
N470 C465 1.337 . S
N470 C469 1.338 . S
H471 C465 0.929 . S
H472 C469 0.930 . S
C473 N474 1.332 . S
C473 C477 1.381 . S
C473 H479 0.931 . S
N474 Cd455 2.334 1_565 S
N474 C473 1.332 . S
N474 C478 1.328 . S
C475 C476 1.396 . S
C475 C478 1.378 . S
C475 H504 0.931 . S
C476 C475 1.396 . S
C476 C477 1.382 . S
C477 C473 1.381 . S
C477 C476 1.382 . S
C477 H505 0.930 . S
C478 N474 1.328 . S
C478 C475 1.378 . S
C478 H480 0.930 1_565 S
H479 C473 0.931 . S
H480 C478 0.930 1_545 S
C481 O492 1.238 . S
C481 O493 1.253 . S
C482 O494 1.239 . S
C482 O495 1.230 . S
N483 Cd454 2.304 1_545 S
N483 C484 1.337 . S
N483 C488 1.338 . S
C484 N483 1.337 . S
C484 C485 1.379 . S
C484 H498 0.929 . S
C485 C484 1.379 . S
C485 C486 1.380 . S
C485 H506 0.929 . S
C486 C485 1.380 . S
C486 C487 1.399 . S
C487 C486 1.399 . S
C487 C488 1.376 . S
C487 H507 0.931 . S
C488 N483 1.338 . S
C488 C487 1.376 . S
C488 H499 0.930 . S
C489 O496 1.239 . S
C489 O497 1.230 . S
O490 Cd454 2.268 . S
O490 C464 1.238 . S
O491 Cd455 2.273 1_565 S
O491 C464 1.253 . S
O492 Cd455 2.268 . S
O492 C481 1.238 . S
O493 Cd454 2.273 1_545 S
O493 C481 1.253 . S
O494 Cd454 2.417 . S
O494 C482 1.239 . S
O495 Cd454 2.330 . S
O495 C482 1.230 . S
O496 Cd455 2.417 . S
O496 C489 1.239 . S
O497 Cd455 2.330 . S
O497 C489 1.230 . S
H498 C484 0.929 . S
H499 C488 0.930 . S
H500 C458 0.931 . S
H501 C460 0.930 . S
H502 C466 0.929 . S
H503 C468 0.931 . S
H504 C475 0.931 . S
H505 C477 0.930 . S
H506 C485 0.929 . S
H507 C487 0.931 . S
C508 C509 1.363 . S
C508 C514 1.379 . S
C508 N516 1.356 . S
C509 C508 1.363 . S
C509 C515 1.363 . S
C510 C511 1.363 . S
C510 C515 1.379 . S
C510 N517 1.356 . S
C511 C510 1.363 . S
C511 C514 1.363 . S
N512 C514 1.356 . S
N512 H524 0.984 . S
N512 H525 0.985 . S
N513 C515 1.356 . S
N513 H518 0.984 . S
N513 H519 0.985 . S
C514 C508 1.379 . S
C514 C511 1.363 . S
C514 N512 1.356 . S
C515 C509 1.363 . S
C515 C510 1.379 . S
C515 N513 1.356 . S
N516 C508 1.356 . S
N516 H522 0.984 . S
N516 H523 0.984 . S
N517 C510 1.356 . S
N517 H520 0.984 . S
N517 H521 0.985 . S
H518 N513 0.984 . S
H519 N513 0.985 . S
H520 N517 0.984 . S
H521 N517 0.985 . S
H522 N516 0.984 . S
H523 N516 0.984 . S
H524 N512 0.984 . S
H525 N512 0.985 . S
C526 C527 1.363 . S
C526 C532 1.379 . S
C526 N534 1.356 . S
C527 C526 1.363 . S
C527 C533 1.363 . S
C528 C529 1.363 . S
C528 C533 1.379 . S
C528 N535 1.356 . S
C529 C528 1.363 . S
C529 C532 1.363 . S
N530 C532 1.356 . S
N530 H542 0.984 . S
N530 H543 0.985 . S
N531 C533 1.356 . S
N531 H536 0.984 . S
N531 H537 0.985 . S
C532 C526 1.379 . S
C532 C529 1.363 . S
C532 N530 1.356 . S
C533 C527 1.363 . S
C533 C528 1.379 . S
C533 N531 1.356 . S
N534 C526 1.356 . S
N534 H540 0.984 . S
N534 H541 0.984 . S
N535 C528 1.356 . S
N535 H538 0.984 . S
N535 H539 0.985 . S
H536 N531 0.984 . S
H537 N531 0.985 . S
H538 N535 0.984 . S
H539 N535 0.985 . S
H540 N534 0.984 . S
H541 N534 0.984 . S
H542 N530 0.984 . S
H543 N530 0.985 . S
C544 C545 1.363 . S
C544 C550 1.379 . S
C544 N552 1.356 . S
C545 C544 1.363 . S
C545 C551 1.363 . S
C546 C547 1.363 . S
C546 C551 1.379 . S
C546 N553 1.356 . S
C547 C546 1.363 . S
C547 C550 1.363 . S
N548 C550 1.356 . S
N548 H560 0.984 . S
N548 H561 0.985 . S
N549 C551 1.356 . S
N549 H554 0.984 . S
N549 H555 0.985 . S
C550 C544 1.379 . S
C550 C547 1.363 . S
C550 N548 1.356 . S
C551 C545 1.363 . S
C551 C546 1.379 . S
C551 N549 1.356 . S
N552 C544 1.356 . S
N552 H558 0.984 . S
N552 H559 0.984 . S
N553 C546 1.356 . S
N553 H556 0.984 . S
N553 H557 0.985 . S
H554 N549 0.984 . S
H555 N549 0.985 . S
H556 N553 0.984 . S
H557 N553 0.985 . S
H558 N552 0.984 . S
H559 N552 0.984 . S
H560 N548 0.984 . S
H561 N548 0.985 . S
C562 C563 1.363 . S
C562 C568 1.379 . S
C562 N570 1.356 . S
C563 C562 1.363 . S
C563 C569 1.363 . S
C564 C565 1.363 . S
C564 C569 1.379 . S
C564 N571 1.356 . S
C565 C564 1.363 . S
C565 C568 1.363 . S
N566 C568 1.356 . S
N566 H578 0.984 . S
N566 H579 0.985 . S
N567 C569 1.356 . S
N567 H572 0.984 . S
N567 H573 0.985 . S
C568 C562 1.379 . S
C568 C565 1.363 . S
C568 N566 1.356 . S
C569 C563 1.363 . S
C569 C564 1.379 . S
C569 N567 1.356 . S
N570 C562 1.356 . S
N570 H576 0.984 . S
N570 H577 0.984 . S
N571 C564 1.356 . S
N571 H574 0.984 . S
N571 H575 0.985 . S
H572 N567 0.984 . S
H573 N567 0.985 . S
H574 N571 0.984 . S
H575 N571 0.985 . S
H576 N570 0.984 . S
H577 N570 0.984 . S
H578 N566 0.984 . S
H579 N566 0.985 . S
C580 C581 1.363 . S
C580 C586 1.379 . S
C580 N588 1.356 . S
C581 C580 1.363 . S
C581 C587 1.363 . S
C582 C583 1.363 . S
C582 C587 1.379 . S
C582 N589 1.356 . S
C583 C582 1.363 . S
C583 C586 1.363 . S
N584 C586 1.356 . S
N584 H596 0.984 . S
N584 H597 0.985 . S
N585 C587 1.356 . S
N585 H590 0.984 . S
N585 H591 0.985 . S
C586 C580 1.379 . S
C586 C583 1.363 . S
C586 N584 1.356 . S
C587 C581 1.363 . S
C587 C582 1.379 . S
C587 N585 1.356 . S
N588 C580 1.356 . S
N588 H594 0.984 . S
N588 H595 0.984 . S
N589 C582 1.356 . S
N589 H592 0.984 . S
N589 H593 0.985 . S
H590 N585 0.984 . S
H591 N585 0.985 . S
H592 N589 0.984 . S
H593 N589 0.985 . S
H594 N588 0.984 . S
H595 N588 0.984 . S
H596 N584 0.984 . S
H597 N584 0.985 . S
C598 C599 1.363 . S
C598 C604 1.379 . S
C598 N606 1.356 . S
C599 C598 1.363 . S
C599 C605 1.363 . S
C600 C601 1.363 . S
C600 C605 1.379 . S
C600 N607 1.356 . S
C601 C600 1.363 . S
C601 C604 1.363 . S
N602 C604 1.356 . S
N602 H614 0.984 . S
N602 H615 0.985 . S
N603 C605 1.356 . S
N603 H608 0.984 . S
N603 H609 0.985 . S
C604 C598 1.379 . S
C604 C601 1.363 . S
C604 N602 1.356 . S
C605 C599 1.363 . S
C605 C600 1.379 . S
C605 N603 1.356 . S
N606 C598 1.356 . S
N606 H612 0.984 . S
N606 H613 0.984 . S
N607 C600 1.356 . S
N607 H610 0.984 . S
N607 H611 0.985 . S
H608 N603 0.984 . S
H609 N603 0.985 . S
H610 N607 0.984 . S
H611 N607 0.985 . S
H612 N606 0.984 . S
H613 N606 0.984 . S
H614 N602 0.984 . S
H615 N602 0.985 . S
C616 C617 1.363 . S
C616 C622 1.379 . S
C616 N624 1.356 . S
C617 C616 1.363 . S
C617 C623 1.363 . S
C618 C619 1.363 . S
C618 C623 1.379 . S
C618 N625 1.356 . S
C619 C618 1.363 . S
C619 C622 1.363 . S
N620 C622 1.356 . S
N620 H632 0.984 . S
N620 H633 0.985 . S
N621 C623 1.356 . S
N621 H626 0.984 . S
N621 H627 0.985 . S
C622 C616 1.379 . S
C622 C619 1.363 . S
C622 N620 1.356 . S
C623 C617 1.363 . S
C623 C618 1.379 . S
C623 N621 1.356 . S
N624 C616 1.356 . S
N624 H630 0.984 . S
N624 H631 0.984 . S
N625 C618 1.356 . S
N625 H628 0.984 . S
N625 H629 0.985 . S
H626 N621 0.984 . S
H627 N621 0.985 . S
H628 N625 0.984 . S
H629 N625 0.985 . S
H630 N624 0.984 . S
H631 N624 0.984 . S
H632 N620 0.984 . S
H633 N620 0.985 . S
C634 C635 1.363 . S
C634 C640 1.379 . S
C634 N642 1.356 . S
C635 C634 1.363 . S
C635 C641 1.363 . S
C636 C637 1.363 . S
C636 C641 1.379 . S
C636 N643 1.356 . S
C637 C636 1.363 . S
C637 C640 1.363 . S
N638 C640 1.356 . S
N638 H650 0.984 1_565 S
N638 H651 0.985 . S
N639 C641 1.356 . S
N639 H644 0.984 . S
N639 H645 0.985 . S
C640 C634 1.379 . S
C640 C637 1.363 . S
C640 N638 1.356 . S
C641 C635 1.363 . S
C641 C636 1.379 . S
C641 N639 1.356 . S
N642 C634 1.356 . S
N642 H648 0.984 . S
N642 H649 0.984 . S
N643 C636 1.356 . S
N643 H646 0.984 . S
N643 H647 0.985 . S
H644 N639 0.984 . S
H645 N639 0.985 . S
H646 N643 0.984 . S
H647 N643 0.985 . S
H648 N642 0.984 . S
H649 N642 0.984 . S
H650 N638 0.984 1_545 S
H651 N638 0.985 . S
C652 C653 1.363 . S
C652 C658 1.379 . S
C652 N660 1.356 . S
C653 C652 1.363 . S
C653 C659 1.363 . S
C654 C655 1.363 . S
C654 C659 1.379 . S
C654 N661 1.356 . S
C655 C654 1.363 . S
C655 C658 1.363 . S
N656 C658 1.356 . S
N656 H668 0.984 1_554 S
N656 H669 0.985 . S
N657 C659 1.356 . S
N657 H662 0.984 . S
N657 H663 0.985 . S
C658 C652 1.379 . S
C658 C655 1.363 . S
C658 N656 1.356 . S
C659 C653 1.363 . S
C659 C654 1.379 . S
C659 N657 1.356 . S
N660 C652 1.356 . S
N660 H666 0.984 . S
N660 H667 0.984 . S
N661 C654 1.356 . S
N661 H664 0.984 . S
N661 H665 0.985 . S
H662 N657 0.984 . S
H663 N657 0.985 . S
H664 N661 0.984 . S
H665 N661 0.985 . S
H666 N660 0.984 . S
H667 N660 0.984 . S
H668 N656 0.984 1_556 S
H669 N656 0.985 . S
C670 C671 1.363 . S
C670 C676 1.379 . S
C670 N678 1.356 . S
C671 C670 1.363 . S
C671 C677 1.363 . S
C672 C673 1.363 . S
C672 C677 1.379 . S
C672 N679 1.356 . S
C673 C672 1.363 . S
C673 C676 1.363 . S
N674 C676 1.356 . S
N674 H686 0.984 . S
N674 H687 0.985 . S
N675 C677 1.356 . S
N675 H680 0.984 . S
N675 H681 0.985 . S
C676 C670 1.379 . S
C676 C673 1.363 . S
C676 N674 1.356 . S
C677 C671 1.363 . S
C677 C672 1.379 . S
C677 N675 1.356 . S
N678 C670 1.356 . S
N678 H684 0.984 . S
N678 H685 0.984 . S
N679 C672 1.356 . S
N679 H682 0.984 . S
N679 H683 0.985 . S
H680 N675 0.984 . S
H681 N675 0.985 . S
H682 N679 0.984 . S
H683 N679 0.985 . S
H684 N678 0.984 . S
H685 N678 0.984 . S
H686 N674 0.984 . S
H687 N674 0.985 . S
C688 C689 1.363 . S
C688 C694 1.379 . S
C688 N696 1.356 . S
C689 C688 1.363 . S
C689 C695 1.363 . S
C690 C691 1.363 . S
C690 C695 1.379 . S
C690 N697 1.356 . S
C691 C690 1.363 . S
C691 C694 1.363 . S
N692 C694 1.356 . S
N692 H704 0.984 . S
N692 H705 0.985 . S
N693 C695 1.356 . S
N693 H698 0.984 . S
N693 H699 0.985 . S
C694 C688 1.379 . S
C694 C691 1.363 . S
C694 N692 1.356 . S
C695 C689 1.363 . S
C695 C690 1.379 . S
C695 N693 1.356 . S
N696 C688 1.356 . S
N696 H702 0.984 . S
N696 H703 0.984 . S
N697 C690 1.356 . S
N697 H700 0.984 . S
N697 H701 0.985 . S
H698 N693 0.984 . S
H699 N693 0.985 . S
H700 N697 0.984 . S
H701 N697 0.985 . S
H702 N696 0.984 . S
H703 N696 0.984 . S
H704 N692 0.984 . S
H705 N692 0.985 . S
C706 C707 1.363 . S
C706 C712 1.379 . S
C706 N714 1.356 . S
C707 C706 1.363 . S
C707 C713 1.363 . S
C708 C709 1.363 . S
C708 C713 1.379 . S
C708 N715 1.356 . S
C709 C708 1.363 . S
C709 C712 1.363 . S
N710 C712 1.356 . S
N710 H722 0.984 . S
N710 H723 0.985 . S
N711 C713 1.356 . S
N711 H716 0.984 . S
N711 H717 0.985 . S
C712 C706 1.379 . S
C712 C709 1.363 . S
C712 N710 1.356 . S
C713 C707 1.363 . S
C713 C708 1.379 . S
C713 N711 1.356 . S
N714 C706 1.356 . S
N714 H720 0.984 . S
N714 H721 0.984 . S
N715 C708 1.356 . S
N715 H718 0.984 . S
N715 H719 0.985 1_554 S
H716 N711 0.984 . S
H717 N711 0.985 . S
H718 N715 0.984 . S
H719 N715 0.985 1_556 S
H720 N714 0.984 . S
H721 N714 0.984 . S
H722 N710 0.984 . S
H723 N710 0.985 . S
C724 C725 1.363 . S
C724 C730 1.379 . S
C724 N732 1.356 . S
C725 C724 1.363 . S
C725 C731 1.363 . S
C726 C727 1.363 . S
C726 C731 1.379 . S
C726 N733 1.356 . S
C727 C726 1.363 . S
C727 C730 1.363 . S
N728 C730 1.356 . S
N728 H740 0.984 . S
N728 H741 0.985 . S
N729 C731 1.356 . S
N729 H734 0.984 . S
N729 H735 0.985 . S
C730 C724 1.379 . S
C730 C727 1.363 . S
C730 N728 1.356 . S
C731 C725 1.363 . S
C731 C726 1.379 . S
C731 N729 1.356 . S
N732 C724 1.356 . S
N732 H738 0.984 . S
N732 H739 0.984 . S
N733 C726 1.356 . S
N733 H736 0.984 1_556 S
N733 H737 0.985 1_556 S
H734 N729 0.984 . S
H735 N729 0.985 . S
H736 N733 0.984 1_554 S
H737 N733 0.985 1_554 S
H738 N732 0.984 . S
H739 N732 0.984 . S
H740 N728 0.984 . S
H741 N728 0.985 . S
C742 C743 1.363 . S
C742 C748 1.379 . S
C742 N750 1.356 . S
C743 C742 1.363 . S
C743 C749 1.363 . S
C744 C745 1.363 . S
C744 C749 1.379 . S
C744 N751 1.356 . S
C745 C744 1.363 . S
C745 C748 1.363 . S
N746 C748 1.356 . S
N746 H758 0.984 . S
N746 H759 0.985 . S
N747 C749 1.356 . S
N747 H752 0.984 . S
N747 H753 0.985 . S
C748 C742 1.379 . S
C748 C745 1.363 . S
C748 N746 1.356 . S
C749 C743 1.363 . S
C749 C744 1.379 . S
C749 N747 1.356 . S
N750 C742 1.356 . S
N750 H756 0.984 . S
N750 H757 0.984 . S
N751 C744 1.356 . S
N751 H754 0.984 . S
N751 H755 0.985 . S
H752 N747 0.984 . S
H753 N747 0.985 . S
H754 N751 0.984 . S
H755 N751 0.985 . S
H756 N750 0.984 . S
H757 N750 0.984 . S
H758 N746 0.984 . S
H759 N746 0.985 . S
C760 C761 1.363 . S
C760 C766 1.379 . S
C760 N768 1.356 . S
C761 C760 1.363 . S
C761 C767 1.363 . S
C762 C763 1.363 . S
C762 C767 1.379 . S
C762 N769 1.356 . S
C763 C762 1.363 . S
C763 C766 1.363 . S
N764 C766 1.356 . S
N764 H776 0.984 . S
N764 H777 0.985 . S
N765 C767 1.356 . S
N765 H770 0.984 . S
N765 H771 0.985 . S
C766 C760 1.379 . S
C766 C763 1.363 . S
C766 N764 1.356 . S
C767 C761 1.363 . S
C767 C762 1.379 . S
C767 N765 1.356 . S
N768 C760 1.356 . S
N768 H774 0.984 . S
N768 H775 0.984 . S
N769 C762 1.356 . S
N769 H772 0.984 . S
N769 H773 0.985 . S
H770 N765 0.984 . S
H771 N765 0.985 . S
H772 N769 0.984 . S
H773 N769 0.985 . S
H774 N768 0.984 . S
H775 N768 0.984 . S
H776 N764 0.984 . S
H777 N764 0.985 . S
C778 C779 1.363 . S
C778 C784 1.379 . S
C778 N786 1.356 . S
C779 C778 1.363 . S
C779 C785 1.363 . S
C780 C781 1.363 . S
C780 C785 1.379 . S
C780 N787 1.356 . S
C781 C780 1.363 . S
C781 C784 1.363 . S
N782 C784 1.356 . S
N782 H794 0.973 1_655 S
N782 H795 0.985 . S
N783 C785 1.356 . S
N783 H788 0.984 . S
N783 H789 0.985 . S
C784 C778 1.379 . S
C784 C781 1.363 . S
C784 N782 1.356 . S
C785 C779 1.363 . S
C785 C780 1.379 . S
C785 N783 1.356 . S
N786 C778 1.356 . S
N786 H792 0.984 . S
N786 H793 0.984 . S
N787 C780 1.356 . S
N787 H790 0.984 . S
N787 H791 0.985 . S
H788 N783 0.984 . S
H789 N783 0.985 . S
H790 N787 0.984 . S
H791 N787 0.985 . S
H792 N786 0.984 . S
H793 N786 0.984 . S
H794 N782 0.973 1_455 S
H795 N782 0.985 . S
C796 C797 1.363 . S
C796 C802 1.379 . S
C796 N804 1.356 . S
C797 C796 1.363 . S
C797 C803 1.363 . S
C798 C799 1.363 . S
C798 C803 1.379 . S
C798 N805 1.356 . S
C799 C798 1.363 . S
C799 C802 1.363 . S
N800 C802 1.356 . S
N800 H812 0.984 . S
N800 H813 0.985 . S
N801 C803 1.356 . S
N801 H806 0.984 . S
N801 H807 0.985 . S
C802 C796 1.379 . S
C802 C799 1.363 . S
C802 N800 1.356 . S
C803 C797 1.363 . S
C803 C798 1.379 . S
C803 N801 1.356 . S
N804 C796 1.356 . S
N804 H810 0.984 . S
N804 H811 0.984 . S
N805 C798 1.356 . S
N805 H808 0.984 . S
N805 H809 0.985 1_554 S
H806 N801 0.984 . S
H807 N801 0.985 . S
H808 N805 0.984 . S
H809 N805 0.985 1_556 S
H810 N804 0.984 . S
H811 N804 0.984 . S
H812 N800 0.984 . S
H813 N800 0.985 . S
C814 C815 1.363 . S
C814 C820 1.379 . S
C814 N822 1.356 . S
C815 C814 1.363 . S
C815 C821 1.363 . S
C816 C817 1.363 . S
C816 C821 1.379 . S
C816 N823 1.356 . S
C817 C816 1.363 . S
C817 C820 1.363 . S
N818 C820 1.356 . S
N818 H830 0.984 . S
N818 H831 0.985 . S
N819 C821 1.356 . S
N819 H824 0.984 . S
N819 H825 0.985 . S
C820 C814 1.379 . S
C820 C817 1.363 . S
C820 N818 1.356 . S
C821 C815 1.363 . S
C821 C816 1.379 . S
C821 N819 1.356 . S
N822 C814 1.356 . S
N822 H828 0.984 . S
N822 H829 0.984 . S
N823 C816 1.356 . S
N823 H826 0.984 . S
N823 H827 0.985 . S
H824 N819 0.984 . S
H825 N819 0.985 . S
H826 N823 0.984 . S
H827 N823 0.985 . S
H828 N822 0.984 . S
H829 N822 0.984 . S
H830 N818 0.984 . S
H831 N818 0.985 . S
C832 C833 1.363 . S
C832 C838 1.379 . S
C832 N840 1.356 . S
C833 C832 1.363 . S
C833 C839 1.363 . S
C834 C835 1.363 . S
C834 C839 1.379 . S
C834 N841 1.356 . S
C835 C834 1.363 . S
C835 C838 1.363 . S
N836 C838 1.356 . S
N836 H848 0.984 . S
N836 H849 0.985 . S
N837 C839 1.356 . S
N837 H842 0.984 . S
N837 H843 0.985 . S
C838 C832 1.379 . S
C838 C835 1.363 . S
C838 N836 1.356 . S
C839 C833 1.363 . S
C839 C834 1.379 . S
C839 N837 1.356 . S
N840 C832 1.356 . S
N840 H846 0.984 . S
N840 H847 0.984 . S
N841 C834 1.356 . S
N841 H844 0.984 . S
N841 H845 0.985 . S
H842 N837 0.984 . S
H843 N837 0.985 . S
H844 N841 0.984 . S
H845 N841 0.985 . S
H846 N840 0.984 . S
H847 N840 0.984 . S
H848 N836 0.984 . S
H849 N836 0.985 . S
C850 C851 1.363 . S
C850 C856 1.379 . S
C850 N858 1.356 . S
C851 C850 1.363 . S
C851 C857 1.363 . S
C852 C853 1.363 . S
C852 C857 1.379 . S
C852 N859 1.356 . S
C853 C852 1.363 . S
C853 C856 1.363 . S
N854 C856 1.356 . S
N854 H866 0.984 . S
N854 H867 0.985 . S
N855 C857 1.356 . S
N855 H860 0.984 . S
N855 H861 0.985 . S
C856 C850 1.379 . S
C856 C853 1.363 . S
C856 N854 1.356 . S
C857 C851 1.363 . S
C857 C852 1.379 . S
C857 N855 1.356 . S
N858 C850 1.356 . S
N858 H864 0.984 . S
N858 H865 0.984 . S
N859 C852 1.356 . S
N859 H862 0.984 . S
N859 H863 0.985 1_556 S
H860 N855 0.984 . S
H861 N855 0.985 . S
H862 N859 0.984 . S
H863 N859 0.985 1_554 S
H864 N858 0.984 . S
H865 N858 0.984 . S
H866 N854 0.984 . S
H867 N854 0.985 . S
C868 C869 1.363 . S
C868 C874 1.379 . S
C868 N876 1.356 . S
C869 C868 1.363 . S
C869 C875 1.363 . S
C870 C871 1.363 . S
C870 C875 1.379 . S
C870 N877 1.356 . S
C871 C870 1.363 . S
C871 C874 1.363 . S
N872 C874 1.356 . S
N872 H884 0.984 . S
N872 H885 0.985 . S
N873 C875 1.356 . S
N873 H878 0.984 . S
N873 H879 0.985 . S
C874 C868 1.379 . S
C874 C871 1.363 . S
C874 N872 1.356 . S
C875 C869 1.363 . S
C875 C870 1.379 . S
C875 N873 1.356 . S
N876 C868 1.356 . S
N876 H882 0.984 . S
N876 H883 0.984 . S
N877 C870 1.356 . S
N877 H880 0.984 . S
N877 H881 0.985 . S
H878 N873 0.984 . S
H879 N873 0.985 . S
H880 N877 0.984 . S
H881 N877 0.985 . S
H882 N876 0.984 . S
H883 N876 0.984 . S
H884 N872 0.984 . S
H885 N872 0.985 . S
C886 C887 1.363 . S
C886 C892 1.379 . S
C886 N894 1.356 . S
C887 C886 1.363 . S
C887 C893 1.363 . S
C888 C889 1.363 . S
C888 C893 1.379 . S
C888 N895 1.356 . S
C889 C888 1.363 . S
C889 C892 1.363 . S
N890 C892 1.356 . S
N890 H902 0.984 . S
N890 H903 0.985 . S
N891 C893 1.356 . S
N891 H896 0.984 . S
N891 H897 0.985 . S
C892 C886 1.379 . S
C892 C889 1.363 . S
C892 N890 1.356 . S
C893 C887 1.363 . S
C893 C888 1.379 . S
C893 N891 1.356 . S
N894 C886 1.356 . S
N894 H900 0.984 . S
N894 H901 0.984 . S
N895 C888 1.356 . S
N895 H898 0.984 1_554 S
N895 H899 0.985 1_554 S
H896 N891 0.984 . S
H897 N891 0.985 . S
H898 N895 0.984 1_556 S
H899 N895 0.985 1_556 S
H900 N894 0.984 . S
H901 N894 0.984 . S
H902 N890 0.984 . S
H903 N890 0.985 . S
C904 C905 1.363 . S
C904 C910 1.379 . S
C904 N912 1.356 . S
C905 C904 1.363 . S
C905 C911 1.363 . S
C906 C907 1.363 . S
C906 C911 1.379 . S
C906 N913 1.356 . S
C907 C906 1.363 . S
C907 C910 1.363 . S
N908 C910 1.356 . S
N908 H920 0.984 . S
N908 H921 0.985 . S
N909 C911 1.356 . S
N909 H914 0.984 . S
N909 H915 0.985 . S
C910 C904 1.379 . S
C910 C907 1.363 . S
C910 N908 1.356 . S
C911 C905 1.363 . S
C911 C906 1.379 . S
C911 N909 1.356 . S
N912 C904 1.356 . S
N912 H918 0.984 . S
N912 H919 0.984 . S
N913 C906 1.356 . S
N913 H916 0.984 . S
N913 H917 0.985 . S
H914 N909 0.984 . S
H915 N909 0.985 . S
H916 N913 0.984 . S
H917 N913 0.985 . S
H918 N912 0.984 . S
H919 N912 0.984 . S
H920 N908 0.984 . S
H921 N908 0.985 . S
C922 C923 1.363 . S
C922 C928 1.379 . S
C922 N930 1.356 . S
C923 C922 1.363 . S
C923 C929 1.363 . S
C924 C925 1.363 . S
C924 C929 1.379 . S
C924 N931 1.356 . S
C925 C924 1.363 . S
C925 C928 1.363 . S
N926 C928 1.356 . S
N926 H938 0.984 . S
N926 H939 0.985 . S
N927 C929 1.356 . S
N927 H932 0.984 . S
N927 H933 0.985 . S
C928 C922 1.379 . S
C928 C925 1.363 . S
C928 N926 1.356 . S
C929 C923 1.363 . S
C929 C924 1.379 . S
C929 N927 1.356 . S
N930 C922 1.356 . S
N930 H936 0.984 . S
N930 H937 0.984 . S
N931 C924 1.356 . S
N931 H934 0.984 . S
N931 H935 0.985 . S
H932 N927 0.984 . S
H933 N927 0.985 . S
H934 N931 0.984 . S
H935 N931 0.985 . S
H936 N930 0.984 . S
H937 N930 0.984 . S
H938 N926 0.984 . S
H939 N926 0.985 . S
C940 C941 1.363 . S
C940 C946 1.379 . S
C940 N948 1.356 . S
C941 C940 1.363 . S
C941 C947 1.363 . S
C942 C943 1.363 . S
C942 C947 1.379 . S
C942 N949 1.356 . S
C943 C942 1.363 . S
C943 C946 1.363 . S
N944 C946 1.356 . S
N944 H956 0.984 . S
N944 H957 0.985 . S
N945 C947 1.356 . S
N945 H950 0.984 . S
N945 H951 0.985 . S
C946 C940 1.379 . S
C946 C943 1.363 . S
C946 N944 1.356 . S
C947 C941 1.363 . S
C947 C942 1.379 . S
C947 N945 1.356 . S
N948 C940 1.356 . S
N948 H954 0.984 . S
N948 H955 0.984 . S
N949 C942 1.356 . S
N949 H952 0.984 . S
N949 H953 0.985 . S
H950 N945 0.984 . S
H951 N945 0.985 . S
H952 N949 0.984 . S
H953 N949 0.985 . S
H954 N948 0.984 . S
H955 N948 0.984 . S
H956 N944 0.984 . S
H957 N944 0.985 . S
C958 C959 1.363 . S
C958 C964 1.379 . S
C958 N966 1.356 . S
C959 C958 1.363 . S
C959 C965 1.363 . S
C960 C961 1.363 . S
C960 C965 1.379 . S
C960 N967 1.356 . S
C961 C960 1.363 . S
C961 C964 1.363 . S
N962 C964 1.356 . S
N962 H974 0.984 . S
N962 H975 0.985 . S
N963 C965 1.356 . S
N963 H968 0.984 . S
N963 H969 0.985 . S
C964 C958 1.379 . S
C964 C961 1.363 . S
C964 N962 1.356 . S
C965 C959 1.363 . S
C965 C960 1.379 . S
C965 N963 1.356 . S
N966 C958 1.356 . S
N966 H972 0.984 . S
N966 H973 0.984 . S
N967 C960 1.356 . S
N967 H970 0.984 . S
N967 H971 0.985 . S
H968 N963 0.984 . S
H969 N963 0.985 . S
H970 N967 0.984 . S
H971 N967 0.985 . S
H972 N966 0.984 . S
H973 N966 0.984 . S
H974 N962 0.984 . S
H975 N962 0.985 . S
C976 C977 1.363 . S
C976 C982 1.379 . S
C976 N984 1.356 . S
C977 C976 1.363 . S
C977 C983 1.363 . S
C978 C979 1.363 . S
C978 C983 1.379 . S
C978 N985 1.356 . S
C979 C978 1.363 . S
C979 C982 1.363 . S
N980 C982 1.356 . S
N980 H992 0.984 . S
N980 H993 0.985 . S
N981 C983 1.356 . S
N981 H986 0.984 . S
N981 H987 0.985 . S
C982 C976 1.379 . S
C982 C979 1.363 . S
C982 N980 1.356 . S
C983 C977 1.363 . S
C983 C978 1.379 . S
C983 N981 1.356 . S
N984 C976 1.356 . S
N984 H990 0.984 . S
N984 H991 0.984 . S
N985 C978 1.356 . S
N985 H988 0.984 . S
N985 H989 0.985 . S
H986 N981 0.984 . S
H987 N981 0.985 . S
H988 N985 0.984 . S
H989 N985 0.985 . S
H990 N984 0.984 . S
H991 N984 0.984 . S
H992 N980 0.984 . S
H993 N980 0.985 . S
C994 C995 1.363 . S
C994 C1000 1.379 . S
C994 N1002 1.356 . S
C995 C994 1.363 . S
C995 C1001 1.363 . S
C996 C997 1.363 . S
C996 C1001 1.379 . S
C996 N1003 1.356 . S
C997 C996 1.363 . S
C997 C1000 1.363 . S
N998 C1000 1.356 . S
N998 H1010 0.984 . S
N998 H1011 0.985 . S
N999 C1001 1.356 . S
N999 H1004 0.984 . S
N999 H1005 0.985 . S
C1000 C994 1.379 . S
C1000 C997 1.363 . S
C1000 N998 1.356 . S
C1001 C995 1.363 . S
C1001 C996 1.379 . S
C1001 N999 1.356 . S
N1002 C994 1.356 . S
N1002 H1008 0.984 . S
N1002 H1009 0.984 . S
N1003 C996 1.356 . S
N1003 H1006 0.984 . S
N1003 H1007 0.985 . S
H1004 N999 0.984 . S
H1005 N999 0.985 . S
H1006 N1003 0.984 . S
H1007 N1003 0.985 . S
H1008 N1002 0.984 . S
H1009 N1002 0.984 . S
H1010 N998 0.984 . S
H1011 N998 0.985 . S
C1012 C1013 1.363 . S
C1012 C1018 1.379 . S
C1012 N1020 1.356 . S
C1013 C1012 1.363 . S
C1013 C1019 1.363 . S
C1014 C1015 1.363 . S
C1014 C1019 1.379 . S
C1014 N1021 1.356 . S
C1015 C1014 1.363 . S
C1015 C1018 1.363 . S
N1016 C1018 1.356 . S
N1016 H1028 0.984 . S
N1016 H1029 0.985 . S
N1017 C1019 1.356 . S
N1017 H1022 0.984 . S
N1017 H1023 0.985 . S
C1018 C1012 1.379 . S
C1018 C1015 1.363 . S
C1018 N1016 1.356 . S
C1019 C1013 1.363 . S
C1019 C1014 1.379 . S
C1019 N1017 1.356 . S
N1020 C1012 1.356 . S
N1020 H1026 0.984 . S
N1020 H1027 0.984 . S
N1021 C1014 1.356 . S
N1021 H1024 0.984 . S
N1021 H1025 0.985 . S
H1022 N1017 0.984 . S
H1023 N1017 0.985 . S
H1024 N1021 0.984 . S
H1025 N1021 0.985 . S
H1026 N1020 0.984 . S
H1027 N1020 0.984 . S
H1028 N1016 0.984 . S
H1029 N1016 0.985 . S
C1030 C1031 1.363 . S
C1030 C1036 1.379 . S
C1030 N1038 1.356 . S
C1031 C1030 1.363 . S
C1031 C1037 1.363 . S
C1032 C1033 1.363 . S
C1032 C1037 1.379 . S
C1032 N1039 1.356 . S
C1033 C1032 1.363 . S
C1033 C1036 1.363 . S
N1034 C1036 1.356 . S
N1034 H1046 0.984 . S
N1034 H1047 0.985 . S
N1035 C1037 1.356 . S
N1035 H1040 0.984 . S
N1035 H1041 0.985 . S
C1036 C1030 1.379 . S
C1036 C1033 1.363 . S
C1036 N1034 1.356 . S
C1037 C1031 1.363 . S
C1037 C1032 1.379 . S
C1037 N1035 1.356 . S
N1038 C1030 1.356 . S
N1038 H1044 0.984 . S
N1038 H1045 0.984 . S
N1039 C1032 1.356 . S
N1039 H1042 0.984 . S
N1039 H1043 0.985 . S
H1040 N1035 0.984 . S
H1041 N1035 0.985 . S
H1042 N1039 0.984 . S
H1043 N1039 0.985 . S
H1044 N1038 0.984 . S
H1045 N1038 0.984 . S
H1046 N1034 0.984 . S
H1047 N1034 0.985 . S
C1048 C1049 1.363 . S
C1048 C1054 1.379 . S
C1048 N1056 1.356 . S
C1049 C1048 1.363 . S
C1049 C1055 1.363 . S
C1050 C1051 1.363 . S
C1050 C1055 1.379 . S
C1050 N1057 1.356 . S
C1051 C1050 1.363 . S
C1051 C1054 1.363 . S
N1052 C1054 1.356 . S
N1052 H1064 0.984 . S
N1052 H1065 0.985 . S
N1053 C1055 1.356 . S
N1053 H1058 0.984 . S
N1053 H1059 0.985 . S
C1054 C1048 1.379 . S
C1054 C1051 1.363 . S
C1054 N1052 1.356 . S
C1055 C1049 1.363 . S
C1055 C1050 1.379 . S
C1055 N1053 1.356 . S
N1056 C1048 1.356 . S
N1056 H1062 0.984 . S
N1056 H1063 0.984 . S
N1057 C1050 1.356 . S
N1057 H1060 0.984 . S
N1057 H1061 0.985 . S
H1058 N1053 0.984 . S
H1059 N1053 0.985 . S
H1060 N1057 0.984 . S
H1061 N1057 0.985 . S
H1062 N1056 0.984 . S
H1063 N1056 0.984 . S
H1064 N1052 0.984 . S
H1065 N1052 0.985 . S
C1066 C1067 1.363 . S
C1066 C1072 1.379 . S
C1066 N1074 1.356 . S
C1067 C1066 1.363 . S
C1067 C1073 1.363 . S
C1068 C1069 1.363 . S
C1068 C1073 1.379 . S
C1068 N1075 1.356 . S
C1069 C1068 1.363 . S
C1069 C1072 1.363 . S
N1070 C1072 1.356 . S
N1070 H1082 0.984 . S
N1070 H1083 0.985 . S
N1071 C1073 1.356 . S
N1071 H1076 0.984 . S
N1071 H1077 0.985 . S
C1072 C1066 1.379 . S
C1072 C1069 1.363 . S
C1072 N1070 1.356 . S
C1073 C1067 1.363 . S
C1073 C1068 1.379 . S
C1073 N1071 1.356 . S
N1074 C1066 1.356 . S
N1074 H1080 0.984 . S
N1074 H1081 0.984 . S
N1075 C1068 1.356 . S
N1075 H1078 0.984 . S
N1075 H1079 0.985 . S
H1076 N1071 0.984 . S
H1077 N1071 0.985 . S
H1078 N1075 0.984 . S
H1079 N1075 0.985 . S
H1080 N1074 0.984 . S
H1081 N1074 0.984 . S
H1082 N1070 0.984 . S
H1083 N1070 0.985 . S
C1084 C1085 1.363 . S
C1084 C1090 1.379 . S
C1084 N1092 1.356 . S
C1085 C1084 1.363 . S
C1085 C1091 1.363 . S
C1086 C1087 1.363 . S
C1086 C1091 1.379 . S
C1086 N1093 1.356 . S
C1087 C1086 1.363 . S
C1087 C1090 1.363 . S
N1088 C1090 1.356 . S
N1088 H1100 0.984 . S
N1088 H1101 0.985 . S
N1089 C1091 1.356 . S
N1089 H1094 0.984 . S
N1089 H1095 0.985 . S
C1090 C1084 1.379 . S
C1090 C1087 1.363 . S
C1090 N1088 1.356 . S
C1091 C1085 1.363 . S
C1091 C1086 1.379 . S
C1091 N1089 1.356 . S
N1092 C1084 1.356 . S
N1092 H1098 0.984 . S
N1092 H1099 0.984 . S
N1093 C1086 1.356 . S
N1093 H1096 0.984 . S
N1093 H1097 0.985 . S
H1094 N1089 0.984 . S
H1095 N1089 0.985 . S
H1096 N1093 0.984 . S
H1097 N1093 0.985 . S
H1098 N1092 0.984 . S
H1099 N1092 0.984 . S
H1100 N1088 0.984 . S
H1101 N1088 0.985 . S
C1102 C1103 1.363 . S
C1102 C1108 1.379 . S
C1102 N1110 1.356 . S
C1103 C1102 1.363 . S
C1103 C1109 1.363 . S
C1104 C1105 1.363 . S
C1104 C1109 1.379 . S
C1104 N1111 1.356 . S
C1105 C1104 1.363 . S
C1105 C1108 1.363 . S
N1106 C1108 1.356 . S
N1106 H1118 0.984 . S
N1106 H1119 0.985 . S
N1107 C1109 1.356 . S
N1107 H1112 0.984 . S
N1107 H1113 0.985 . S
C1108 C1102 1.379 . S
C1108 C1105 1.363 . S
C1108 N1106 1.356 . S
C1109 C1103 1.363 . S
C1109 C1104 1.379 . S
C1109 N1107 1.356 . S
N1110 C1102 1.356 . S
N1110 H1116 0.984 . S
N1110 H1117 0.984 . S
N1111 C1104 1.356 . S
N1111 H1114 0.984 . S
N1111 H1115 0.985 . S
H1112 N1107 0.984 . S
H1113 N1107 0.985 . S
H1114 N1111 0.984 . S
H1115 N1111 0.985 . S
H1116 N1110 0.984 . S
H1117 N1110 0.984 . S
H1118 N1106 0.984 . S
H1119 N1106 0.985 . S
C1120 C1121 1.363 . S
C1120 C1126 1.379 . S
C1120 N1128 1.356 . S
C1121 C1120 1.363 . S
C1121 C1127 1.363 . S
C1122 C1123 1.363 . S
C1122 C1127 1.379 . S
C1122 N1129 1.356 . S
C1123 C1122 1.363 . S
C1123 C1126 1.363 . S
N1124 C1126 1.356 . S
N1124 H1136 0.984 . S
N1124 H1137 0.985 . S
N1125 C1127 1.356 . S
N1125 H1130 0.984 . S
N1125 H1131 0.985 . S
C1126 C1120 1.379 . S
C1126 C1123 1.363 . S
C1126 N1124 1.356 . S
C1127 C1121 1.363 . S
C1127 C1122 1.379 . S
C1127 N1125 1.356 . S
N1128 C1120 1.356 . S
N1128 H1134 0.984 . S
N1128 H1135 0.984 . S
N1129 C1122 1.356 . S
N1129 H1132 0.984 . S
N1129 H1133 0.985 . S
H1130 N1125 0.984 . S
H1131 N1125 0.985 . S
H1132 N1129 0.984 . S
H1133 N1129 0.985 . S
H1134 N1128 0.984 . S
H1135 N1128 0.984 . S
H1136 N1124 0.984 . S
H1137 N1124 0.985 . S
C1138 C1139 1.363 . S
C1138 C1144 1.379 . S
C1138 N1146 1.356 . S
C1139 C1138 1.363 . S
C1139 C1145 1.363 . S
C1140 C1141 1.363 . S
C1140 C1145 1.379 . S
C1140 N1147 1.356 . S
C1141 C1140 1.363 . S
C1141 C1144 1.363 . S
N1142 C1144 1.356 . S
N1142 H1154 0.984 . S
N1142 H1155 0.985 . S
N1143 C1145 1.356 . S
N1143 H1148 0.984 . S
N1143 H1149 0.985 . S
C1144 C1138 1.379 . S
C1144 C1141 1.363 . S
C1144 N1142 1.356 . S
C1145 C1139 1.363 . S
C1145 C1140 1.379 . S
C1145 N1143 1.356 . S
N1146 C1138 1.356 . S
N1146 H1152 0.984 . S
N1146 H1153 0.984 . S
N1147 C1140 1.356 . S
N1147 H1150 0.984 . S
N1147 H1151 0.985 . S
H1148 N1143 0.984 . S
H1149 N1143 0.985 . S
H1150 N1147 0.984 . S
H1151 N1147 0.985 . S
H1152 N1146 0.984 . S
H1153 N1146 0.984 . S
H1154 N1142 0.984 . S
H1155 N1142 0.985 . S
C1156 C1157 1.363 . S
C1156 C1162 1.379 . S
C1156 N1164 1.356 . S
C1157 C1156 1.363 . S
C1157 C1163 1.363 . S
C1158 C1159 1.363 . S
C1158 C1163 1.379 . S
C1158 N1165 1.356 . S
C1159 C1158 1.363 . S
C1159 C1162 1.363 . S
N1160 C1162 1.356 . S
N1160 H1172 0.984 . S
N1160 H1173 0.985 . S
N1161 C1163 1.356 . S
N1161 H1166 0.984 . S
N1161 H1167 0.985 . S
C1162 C1156 1.379 . S
C1162 C1159 1.363 . S
C1162 N1160 1.356 . S
C1163 C1157 1.363 . S
C1163 C1158 1.379 . S
C1163 N1161 1.356 . S
N1164 C1156 1.356 . S
N1164 H1170 0.984 . S
N1164 H1171 0.984 . S
N1165 C1158 1.356 . S
N1165 H1168 0.984 . S
N1165 H1169 0.985 . S
H1166 N1161 0.984 . S
H1167 N1161 0.985 . S
H1168 N1165 0.984 . S
H1169 N1165 0.985 . S
H1170 N1164 0.984 . S
H1171 N1164 0.984 . S
H1172 N1160 0.984 . S
H1173 N1160 0.985 . S
C1174 C1175 1.363 . S
C1174 C1180 1.379 . S
C1174 N1182 1.356 . S
C1175 C1174 1.363 . S
C1175 C1181 1.363 . S
C1176 C1177 1.363 . S
C1176 C1181 1.379 . S
C1176 N1183 1.356 . S
C1177 C1176 1.363 . S
C1177 C1180 1.363 . S
N1178 C1180 1.356 . S
N1178 H1190 0.984 . S
N1178 H1191 0.985 . S
N1179 C1181 1.356 . S
N1179 H1184 0.984 . S
N1179 H1185 0.985 . S
C1180 C1174 1.379 . S
C1180 C1177 1.363 . S
C1180 N1178 1.356 . S
C1181 C1175 1.363 . S
C1181 C1176 1.379 . S
C1181 N1179 1.356 . S
N1182 C1174 1.356 . S
N1182 H1188 0.984 . S
N1182 H1189 0.984 . S
N1183 C1176 1.356 . S
N1183 H1186 0.984 . S
N1183 H1187 0.985 . S
H1184 N1179 0.984 . S
H1185 N1179 0.985 . S
H1186 N1183 0.984 . S
H1187 N1183 0.985 . S
H1188 N1182 0.984 . S
H1189 N1182 0.984 . S
H1190 N1178 0.984 . S
H1191 N1178 0.985 . S
C1192 C1193 1.363 . S
C1192 C1198 1.379 . S
C1192 N1200 1.356 . S
C1193 C1192 1.363 . S
C1193 C1199 1.363 . S
C1194 C1195 1.363 . S
C1194 C1199 1.379 . S
C1194 N1201 1.356 . S
C1195 C1194 1.363 . S
C1195 C1198 1.363 . S
N1196 C1198 1.356 . S
N1196 H1208 0.984 . S
N1196 H1209 0.985 . S
N1197 C1199 1.356 . S
N1197 H1202 0.984 . S
N1197 H1203 0.985 . S
C1198 C1192 1.379 . S
C1198 C1195 1.363 . S
C1198 N1196 1.356 . S
C1199 C1193 1.363 . S
C1199 C1194 1.379 . S
C1199 N1197 1.356 . S
N1200 C1192 1.356 . S
N1200 H1206 0.984 . S
N1200 H1207 0.984 . S
N1201 C1194 1.356 . S
N1201 H1204 0.984 . S
N1201 H1205 0.985 . S
H1202 N1197 0.984 . S
H1203 N1197 0.985 . S
H1204 N1201 0.984 . S
H1205 N1201 0.985 . S
H1206 N1200 0.984 . S
H1207 N1200 0.984 . S
H1208 N1196 0.984 . S
H1209 N1196 0.985 . S
C1210 C1211 1.363 . S
C1210 C1216 1.379 . S
C1210 N1218 1.356 . S
C1211 C1210 1.363 . S
C1211 C1217 1.363 . S
C1212 C1213 1.363 . S
C1212 C1217 1.379 . S
C1212 N1219 1.356 . S
C1213 C1212 1.363 . S
C1213 C1216 1.363 . S
N1214 C1216 1.356 . S
N1214 H1226 0.984 . S
N1214 H1227 0.985 . S
N1215 C1217 1.356 . S
N1215 H1220 0.984 . S
N1215 H1221 0.985 . S
C1216 C1210 1.379 . S
C1216 C1213 1.363 . S
C1216 N1214 1.356 . S
C1217 C1211 1.363 . S
C1217 C1212 1.379 . S
C1217 N1215 1.356 . S
N1218 C1210 1.356 . S
N1218 H1224 0.984 . S
N1218 H1225 0.984 . S
N1219 C1212 1.356 . S
N1219 H1222 0.984 . S
N1219 H1223 0.985 . S
H1220 N1215 0.984 . S
H1221 N1215 0.985 . S
H1222 N1219 0.984 . S
H1223 N1219 0.985 . S
H1224 N1218 0.984 . S
H1225 N1218 0.984 . S
H1226 N1214 0.984 . S
H1227 N1214 0.985 . S
C1228 C1229 1.363 . S
C1228 C1234 1.379 . S
C1228 N1236 1.356 . S
C1229 C1228 1.363 . S
C1229 C1235 1.363 . S
C1230 C1231 1.363 . S
C1230 C1235 1.379 . S
C1230 N1237 1.356 . S
C1231 C1230 1.363 . S
C1231 C1234 1.363 . S
N1232 C1234 1.356 . S
N1232 H1244 0.984 . S
N1232 H1245 0.985 . S
N1233 C1235 1.356 . S
N1233 H1238 0.984 . S
N1233 H1239 0.985 . S
C1234 C1228 1.379 . S
C1234 C1231 1.363 . S
C1234 N1232 1.356 . S
C1235 C1229 1.363 . S
C1235 C1230 1.379 . S
C1235 N1233 1.356 . S
N1236 C1228 1.356 . S
N1236 H1242 0.984 . S
N1236 H1243 0.984 . S
N1237 C1230 1.356 . S
N1237 H1240 0.984 . S
N1237 H1241 0.985 . S
H1238 N1233 0.984 . S
H1239 N1233 0.985 . S
H1240 N1237 0.984 . S
H1241 N1237 0.985 . S
H1242 N1236 0.984 . S
H1243 N1236 0.984 . S
H1244 N1232 0.984 . S
H1245 N1232 0.985 . S
C1246 C1247 1.363 . S
C1246 C1252 1.379 . S
C1246 N1254 1.356 . S
C1247 C1246 1.363 . S
C1247 C1253 1.363 . S
C1248 C1249 1.363 . S
C1248 C1253 1.379 . S
C1248 N1255 1.356 . S
C1249 C1248 1.363 . S
C1249 C1252 1.363 . S
N1250 C1252 1.356 . S
N1250 H1262 0.984 . S
N1250 H1263 0.985 . S
N1251 C1253 1.356 . S
N1251 H1256 0.984 . S
N1251 H1257 0.985 . S
C1252 C1246 1.379 . S
C1252 C1249 1.363 . S
C1252 N1250 1.356 . S
C1253 C1247 1.363 . S
C1253 C1248 1.379 . S
C1253 N1251 1.356 . S
N1254 C1246 1.356 . S
N1254 H1260 0.984 . S
N1254 H1261 0.984 . S
N1255 C1248 1.356 . S
N1255 H1258 0.984 . S
N1255 H1259 0.985 . S
H1256 N1251 0.984 . S
H1257 N1251 0.985 . S
H1258 N1255 0.984 . S
H1259 N1255 0.985 . S
H1260 N1254 0.984 . S
H1261 N1254 0.984 . S
H1262 N1250 0.984 . S
H1263 N1250 0.985 . S
C1264 C1265 1.363 . S
C1264 C1270 1.379 . S
C1264 N1272 1.356 . S
C1265 C1264 1.363 . S
C1265 C1271 1.363 . S
C1266 C1267 1.363 . S
C1266 C1271 1.379 . S
C1266 N1273 1.356 . S
C1267 C1266 1.363 . S
C1267 C1270 1.363 . S
N1268 C1270 1.356 . S
N1268 H1280 0.984 . S
N1268 H1281 0.985 . S
N1269 C1271 1.356 . S
N1269 H1274 0.984 . S
N1269 H1275 0.985 . S
C1270 C1264 1.379 . S
C1270 C1267 1.363 . S
C1270 N1268 1.356 . S
C1271 C1265 1.363 . S
C1271 C1266 1.379 . S
C1271 N1269 1.356 . S
N1272 C1264 1.356 . S
N1272 H1278 0.984 . S
N1272 H1279 0.984 . S
N1273 C1266 1.356 . S
N1273 H1276 0.984 . S
N1273 H1277 0.985 . S
H1274 N1269 0.984 . S
H1275 N1269 0.985 . S
H1276 N1273 0.984 . S
H1277 N1273 0.985 . S
H1278 N1272 0.984 . S
H1279 N1272 0.984 . S
H1280 N1268 0.984 . S
H1281 N1268 0.985 . S
C1282 C1283 1.363 . S
C1282 C1288 1.379 . S
C1282 N1290 1.356 . S
C1283 C1282 1.363 . S
C1283 C1289 1.363 . S
C1284 C1285 1.363 . S
C1284 C1289 1.379 . S
C1284 N1291 1.356 . S
C1285 C1284 1.363 . S
C1285 C1288 1.363 . S
N1286 C1288 1.356 . S
N1286 H1298 0.984 . S
N1286 H1299 0.985 . S
N1287 C1289 1.356 . S
N1287 H1292 0.984 . S
N1287 H1293 0.985 . S
C1288 C1282 1.379 . S
C1288 C1285 1.363 . S
C1288 N1286 1.356 . S
C1289 C1283 1.363 . S
C1289 C1284 1.379 . S
C1289 N1287 1.356 . S
N1290 C1282 1.356 . S
N1290 H1296 0.984 . S
N1290 H1297 0.984 . S
N1291 C1284 1.356 . S
N1291 H1294 0.984 . S
N1291 H1295 0.985 . S
H1292 N1287 0.984 . S
H1293 N1287 0.985 . S
H1294 N1291 0.984 . S
H1295 N1291 0.985 . S
H1296 N1290 0.984 . S
H1297 N1290 0.984 . S
H1298 N1286 0.984 . S
H1299 N1286 0.985 . S
C1300 C1301 1.363 . S
C1300 C1306 1.379 . S
C1300 N1308 1.356 . S
C1301 C1300 1.363 . S
C1301 C1307 1.363 . S
C1302 C1303 1.363 . S
C1302 C1307 1.379 . S
C1302 N1309 1.356 . S
C1303 C1302 1.363 . S
C1303 C1306 1.363 . S
N1304 C1306 1.356 . S
N1304 H1316 0.984 . S
N1304 H1317 0.985 . S
N1305 C1307 1.356 . S
N1305 H1310 0.984 . S
N1305 H1311 0.985 . S
C1306 C1300 1.379 . S
C1306 C1303 1.363 . S
C1306 N1304 1.356 . S
C1307 C1301 1.363 . S
C1307 C1302 1.379 . S
C1307 N1305 1.356 . S
N1308 C1300 1.356 . S
N1308 H1314 0.984 . S
N1308 H1315 0.984 . S
N1309 C1302 1.356 . S
N1309 H1312 0.984 . S
N1309 H1313 0.985 . S
H1310 N1305 0.984 . S
H1311 N1305 0.985 . S
H1312 N1309 0.984 . S
H1313 N1309 0.985 . S
H1314 N1308 0.984 . S
H1315 N1308 0.984 . S
H1316 N1304 0.984 . S
H1317 N1304 0.985 . S
C1318 C1319 1.363 . S
C1318 C1324 1.379 . S
C1318 N1326 1.356 . S
C1319 C1318 1.363 . S
C1319 C1325 1.363 . S
C1320 C1321 1.363 . S
C1320 C1325 1.379 . S
C1320 N1327 1.356 . S
C1321 C1320 1.363 . S
C1321 C1324 1.363 . S
N1322 C1324 1.356 . S
N1322 H1334 0.984 . S
N1322 H1335 0.985 . S
N1323 C1325 1.356 . S
N1323 H1328 0.984 . S
N1323 H1329 0.985 . S
C1324 C1318 1.379 . S
C1324 C1321 1.363 . S
C1324 N1322 1.356 . S
C1325 C1319 1.363 . S
C1325 C1320 1.379 . S
C1325 N1323 1.356 . S
N1326 C1318 1.356 . S
N1326 H1332 0.984 . S
N1326 H1333 0.984 . S
N1327 C1320 1.356 . S
N1327 H1330 0.984 . S
N1327 H1331 0.985 . S
H1328 N1323 0.984 . S
H1329 N1323 0.985 . S
H1330 N1327 0.984 . S
H1331 N1327 0.985 . S
H1332 N1326 0.984 . S
H1333 N1326 0.984 . S
H1334 N1322 0.984 . S
H1335 N1322 0.985 . S
C1336 C1337 1.363 . S
C1336 C1342 1.379 . S
C1336 N1344 1.356 . S
C1337 C1336 1.363 . S
C1337 C1343 1.363 . S
C1338 C1339 1.363 . S
C1338 C1343 1.379 . S
C1338 N1345 1.356 . S
C1339 C1338 1.363 . S
C1339 C1342 1.363 . S
N1340 C1342 1.356 . S
N1340 H1352 0.984 . S
N1340 H1353 0.985 . S
N1341 C1343 1.356 . S
N1341 H1346 0.984 . S
N1341 H1347 0.985 . S
C1342 C1336 1.379 . S
C1342 C1339 1.363 . S
C1342 N1340 1.356 . S
C1343 C1337 1.363 . S
C1343 C1338 1.379 . S
C1343 N1341 1.356 . S
N1344 C1336 1.356 . S
N1344 H1350 0.984 . S
N1344 H1351 0.984 . S
N1345 C1338 1.356 . S
N1345 H1348 0.984 . S
N1345 H1349 0.985 . S
H1346 N1341 0.984 . S
H1347 N1341 0.985 . S
H1348 N1345 0.984 . S
H1349 N1345 0.985 . S
H1350 N1344 0.984 . S
H1351 N1344 0.984 . S
H1352 N1340 0.984 . S
H1353 N1340 0.985 . S
C1354 C1355 1.363 . S
C1354 C1360 1.379 . S
C1354 N1362 1.356 . S
C1355 C1354 1.363 . S
C1355 C1361 1.363 . S
C1356 C1357 1.363 . S
C1356 C1361 1.379 . S
C1356 N1363 1.356 . S
C1357 C1356 1.363 . S
C1357 C1360 1.363 . S
N1358 C1360 1.356 . S
N1358 H1370 0.984 . S
N1358 H1371 0.985 . S
N1359 C1361 1.356 . S
N1359 H1364 0.984 . S
N1359 H1365 0.985 . S
C1360 C1354 1.379 . S
C1360 C1357 1.363 . S
C1360 N1358 1.356 . S
C1361 C1355 1.363 . S
C1361 C1356 1.379 . S
C1361 N1359 1.356 . S
N1362 C1354 1.356 . S
N1362 H1368 0.984 . S
N1362 H1369 0.984 . S
N1363 C1356 1.356 . S
N1363 H1366 0.984 . S
N1363 H1367 0.985 . S
H1364 N1359 0.984 . S
H1365 N1359 0.985 . S
H1366 N1363 0.984 . S
H1367 N1363 0.985 . S
H1368 N1362 0.984 . S
H1369 N1362 0.984 . S
H1370 N1358 0.984 . S
H1371 N1358 0.985 . S
C511 C219 1.171 . S
C509 C17 1.166 . S
C529 C197 1.825 . S
C527 C44 1.793 . S
C547 C194 0.940 . S
C545 C63 0.945 . S
C563 C87 1.691 . S
C565 C206 1.539 . S
C581 C110 1.661 . S
C583 C189 1.516 . S
C601 C211 0.955 . S
C599 C131 0.960 . S
C617 C159 1.764 . S
C619 C216 1.798 . S
C635 C177 1.186 . S
C637 C212 1.193 . S
C655 C270 1.683 . S
C653 C20 1.579 . S
C671 C42 1.351 . S
C673 C320 1.341 . S
C691 C243 1.812 . S
C689 C66 1.648 . S
C709 C319 0.982 . S
C707 C86 0.966 . S
C725 C109 0.955 . S
C727 C248 0.971 . S
C745 C314 1.818 . S
C743 C136 1.685 . S
C761 C157 1.344 . S
C763 C273 1.332 . S
C779 C182 1.616 . S
C781 C305 1.693 . S
C797 C18 1.638 . S
C799 C297 1.578 . S
C815 C112 1.341 . S
C817 C327 1.545 . S
C835 C251 1.578 . S
C833 C134 1.604 . S
C853 C302 1.174 . S
C851 C154 1.134 . S
C869 C180 1.592 . S
C871 C260 1.567 . S
C887 C64 1.652 . S
C889 C324 1.591 . S
C907 C266 1.546 . S
C905 C89 1.344 . S
C923 C39 1.140 . S
C925 C265 1.180 . S
C941 C178 1.166 . S
C943 C381 1.171 . S
C959 C113 1.793 . S
C961 C359 1.825 . S
C979 C356 0.940 . S
C977 C132 0.945 . S
C997 C368 1.539 . S
C995 C156 1.691 . S
C1013 C41 1.661 . S
C1015 C351 1.516 . S
C1033 C373 0.955 . S
C1031 C62 0.960 . S
C1049 C90 1.763 . S
C1051 C378 1.798 . S
C1067 C16 1.186 . S
C1069 C374 1.193 . S
C1085 C181 1.579 . S
C1087 C432 1.683 . S
C1105 C482 1.341 . S
C1103 C111 1.351 . S
C1121 C135 1.648 . S
C1123 C405 1.812 . S
C1139 C155 0.966 . S
C1141 C481 0.982 . S
C1159 C410 0.971 . S
C1157 C40 0.955 . S
C1175 C67 1.685 . S
C1177 C476 1.818 . S
C1195 C435 1.332 . S
C1193 C88 1.344 . S
C1213 C467 1.693 . S
C1211 C21 1.616 . S
C1231 C459 1.579 . S
C1229 C179 1.638 . S
C1247 C43 1.341 . S
C1249 C489 1.545 . S
C1265 C65 1.604 . S
C1267 C413 1.578 . S
C1285 C464 1.174 . S
C1283 C85 1.134 . S
C1301 C19 1.592 . S
C1303 C422 1.567 . S
C1319 C133 1.652 . S
C1321 C486 1.590 . S
C1339 C428 1.546 . S
C1337 C158 1.344 . S
C1357 C427 1.180 . S
C1355 C108 1.140 . S
