# Generated by pormake.
# Topology gar, (4,6)-cn, num edge types: 1
# Building blocks:
#     Node 0, Type 0, BuildingBlock: NAHDIM_clean_sbu_0, # of connection points: 4
#     Node 1, Type 0, BuildingBlock: NAHDIM_clean_sbu_0, # of connection points: 4
#     Node 2, Type 0, BuildingBlock: NAHDIM_clean_sbu_0, # of connection points: 4
#     Node 3, Type 0, BuildingBlock: NAHDIM_clean_sbu_0, # of connection points: 4
#     Node 4, Type 0, BuildingBlock: NAHDIM_clean_sbu_0, # of connection points: 4
#     Node 5, Type 0, BuildingBlock: NAHDIM_clean_sbu_0, # of connection points: 4
#     Node 6, Type 0, BuildingBlock: NAHDIM_clean_sbu_0, # of connection points: 4
#     Node 7, Type 0, BuildingBlock: NAHDIM_clean_sbu_0, # of connection points: 4
#     Node 8, Type 0, BuildingBlock: NAHDIM_clean_sbu_0, # of connection points: 4
#     Node 9, Type 0, BuildingBlock: NAHDIM_clean_sbu_0, # of connection points: 4
#     Node 10, Type 0, BuildingBlock: NAHDIM_clean_sbu_0, # of connection points: 4
#     Node 11, Type 0, BuildingBlock: NAHDIM_clean_sbu_0, # of connection points: 4
#     Node 12, Type 0, BuildingBlock: NAHDIM_clean_sbu_0, # of connection points: 4
#     Node 13, Type 0, BuildingBlock: NAHDIM_clean_sbu_0, # of connection points: 4
#     Node 14, Type 0, BuildingBlock: NAHDIM_clean_sbu_0, # of connection points: 4
#     Node 15, Type 0, BuildingBlock: NAHDIM_clean_sbu_0, # of connection points: 4
#     Node 16, Type 0, BuildingBlock: NAHDIM_clean_sbu_0, # of connection points: 4
#     Node 17, Type 0, BuildingBlock: NAHDIM_clean_sbu_0, # of connection points: 4
#     Node 18, Type 0, BuildingBlock: NAHDIM_clean_sbu_0, # of connection points: 4
#     Node 19, Type 0, BuildingBlock: NAHDIM_clean_sbu_0, # of connection points: 4
#     Node 20, Type 0, BuildingBlock: NAHDIM_clean_sbu_0, # of connection points: 4
#     Node 21, Type 0, BuildingBlock: NAHDIM_clean_sbu_0, # of connection points: 4
#     Node 22, Type 0, BuildingBlock: NAHDIM_clean_sbu_0, # of connection points: 4
#     Node 23, Type 0, BuildingBlock: NAHDIM_clean_sbu_0, # of connection points: 4
#     Node 24, Type 1, BuildingBlock: CUKXOW_clean_sbu_0, # of connection points: 6
#     Node 25, Type 1, BuildingBlock: CUKXOW_clean_sbu_0, # of connection points: 6
#     Node 26, Type 1, BuildingBlock: CUKXOW_clean_sbu_0, # of connection points: 6
#     Node 27, Type 1, BuildingBlock: CUKXOW_clean_sbu_0, # of connection points: 6
#     Node 28, Type 1, BuildingBlock: CUKXOW_clean_sbu_0, # of connection points: 6
#     Node 29, Type 1, BuildingBlock: CUKXOW_clean_sbu_0, # of connection points: 6
#     Node 30, Type 1, BuildingBlock: CUKXOW_clean_sbu_0, # of connection points: 6
#     Node 31, Type 1, BuildingBlock: CUKXOW_clean_sbu_0, # of connection points: 6
#     Node 32, Type 1, BuildingBlock: CUKXOW_clean_sbu_0, # of connection points: 6
#     Node 33, Type 1, BuildingBlock: CUKXOW_clean_sbu_0, # of connection points: 6
#     Node 34, Type 1, BuildingBlock: CUKXOW_clean_sbu_0, # of connection points: 6
#     Node 35, Type 1, BuildingBlock: CUKXOW_clean_sbu_0, # of connection points: 6
#     Node 36, Type 1, BuildingBlock: CUKXOW_clean_sbu_0, # of connection points: 6
#     Node 37, Type 1, BuildingBlock: CUKXOW_clean_sbu_0, # of connection points: 6
#     Node 38, Type 1, BuildingBlock: CUKXOW_clean_sbu_0, # of connection points: 6
#     Node 39, Type 1, BuildingBlock: CUKXOW_clean_sbu_0, # of connection points: 6
#     Edge 40, Type (0, 1), BuildingBlock: OJICUG_clean_linker_0, # of connection points: 2
#     Edge 41, Type (0, 1), BuildingBlock: OJICUG_clean_linker_0, # of connection points: 2
#     Edge 42, Type (0, 1), BuildingBlock: OJICUG_clean_linker_0, # of connection points: 2
#     Edge 43, Type (0, 1), BuildingBlock: OJICUG_clean_linker_0, # of connection points: 2
#     Edge 44, Type (0, 1), BuildingBlock: OJICUG_clean_linker_0, # of connection points: 2
#     Edge 45, Type (0, 1), BuildingBlock: OJICUG_clean_linker_0, # of connection points: 2
#     Edge 46, Type (0, 1), BuildingBlock: OJICUG_clean_linker_0, # of connection points: 2
#     Edge 47, Type (0, 1), BuildingBlock: OJICUG_clean_linker_0, # of connection points: 2
#     Edge 48, Type (0, 1), BuildingBlock: OJICUG_clean_linker_0, # of connection points: 2
#     Edge 49, Type (0, 1), BuildingBlock: OJICUG_clean_linker_0, # of connection points: 2
#     Edge 50, Type (0, 1), BuildingBlock: OJICUG_clean_linker_0, # of connection points: 2
#     Edge 51, Type (0, 1), BuildingBlock: OJICUG_clean_linker_0, # of connection points: 2
#     Edge 52, Type (0, 1), BuildingBlock: OJICUG_clean_linker_0, # of connection points: 2
#     Edge 53, Type (0, 1), BuildingBlock: OJICUG_clean_linker_0, # of connection points: 2
#     Edge 54, Type (0, 1), BuildingBlock: OJICUG_clean_linker_0, # of connection points: 2
#     Edge 55, Type (0, 1), BuildingBlock: OJICUG_clean_linker_0, # of connection points: 2
#     Edge 56, Type (0, 1), BuildingBlock: OJICUG_clean_linker_0, # of connection points: 2
#     Edge 57, Type (0, 1), BuildingBlock: OJICUG_clean_linker_0, # of connection points: 2
#     Edge 58, Type (0, 1), BuildingBlock: OJICUG_clean_linker_0, # of connection points: 2
#     Edge 59, Type (0, 1), BuildingBlock: OJICUG_clean_linker_0, # of connection points: 2
#     Edge 60, Type (0, 1), BuildingBlock: OJICUG_clean_linker_0, # of connection points: 2
#     Edge 61, Type (0, 1), BuildingBlock: OJICUG_clean_linker_0, # of connection points: 2
#     Edge 62, Type (0, 1), BuildingBlock: OJICUG_clean_linker_0, # of connection points: 2
#     Edge 63, Type (0, 1), BuildingBlock: OJICUG_clean_linker_0, # of connection points: 2
#     Edge 64, Type (0, 1), BuildingBlock: OJICUG_clean_linker_0, # of connection points: 2
#     Edge 65, Type (0, 1), BuildingBlock: OJICUG_clean_linker_0, # of connection points: 2
#     Edge 66, Type (0, 1), BuildingBlock: OJICUG_clean_linker_0, # of connection points: 2
#     Edge 67, Type (0, 1), BuildingBlock: OJICUG_clean_linker_0, # of connection points: 2
#     Edge 68, Type (0, 1), BuildingBlock: OJICUG_clean_linker_0, # of connection points: 2
#     Edge 69, Type (0, 1), BuildingBlock: OJICUG_clean_linker_0, # of connection points: 2
#     Edge 70, Type (0, 1), BuildingBlock: OJICUG_clean_linker_0, # of connection points: 2
#     Edge 71, Type (0, 1), BuildingBlock: OJICUG_clean_linker_0, # of connection points: 2
#     Edge 72, Type (0, 1), BuildingBlock: OJICUG_clean_linker_0, # of connection points: 2
#     Edge 73, Type (0, 1), BuildingBlock: OJICUG_clean_linker_0, # of connection points: 2
#     Edge 74, Type (0, 1), BuildingBlock: OJICUG_clean_linker_0, # of connection points: 2
#     Edge 75, Type (0, 1), BuildingBlock: OJICUG_clean_linker_0, # of connection points: 2
#     Edge 76, Type (0, 1), BuildingBlock: OJICUG_clean_linker_0, # of connection points: 2
#     Edge 77, Type (0, 1), BuildingBlock: OJICUG_clean_linker_0, # of connection points: 2
#     Edge 78, Type (0, 1), BuildingBlock: OJICUG_clean_linker_0, # of connection points: 2
#     Edge 79, Type (0, 1), BuildingBlock: OJICUG_clean_linker_0, # of connection points: 2
#     Edge 80, Type (0, 1), BuildingBlock: OJICUG_clean_linker_0, # of connection points: 2
#     Edge 81, Type (0, 1), BuildingBlock: OJICUG_clean_linker_0, # of connection points: 2
#     Edge 82, Type (0, 1), BuildingBlock: OJICUG_clean_linker_0, # of connection points: 2
#     Edge 83, Type (0, 1), BuildingBlock: OJICUG_clean_linker_0, # of connection points: 2
#     Edge 84, Type (0, 1), BuildingBlock: OJICUG_clean_linker_0, # of connection points: 2
#     Edge 85, Type (0, 1), BuildingBlock: OJICUG_clean_linker_0, # of connection points: 2
#     Edge 86, Type (0, 1), BuildingBlock: OJICUG_clean_linker_0, # of connection points: 2
#     Edge 87, Type (0, 1), BuildingBlock: OJICUG_clean_linker_0, # of connection points: 2
#     Edge 88, Type (0, 1), BuildingBlock: OJICUG_clean_linker_0, # of connection points: 2
#     Edge 89, Type (0, 1), BuildingBlock: OJICUG_clean_linker_0, # of connection points: 2
#     Edge 90, Type (0, 1), BuildingBlock: OJICUG_clean_linker_0, # of connection points: 2
#     Edge 91, Type (0, 1), BuildingBlock: OJICUG_clean_linker_0, # of connection points: 2
#     Edge 92, Type (0, 1), BuildingBlock: OJICUG_clean_linker_0, # of connection points: 2
#     Edge 93, Type (0, 1), BuildingBlock: OJICUG_clean_linker_0, # of connection points: 2
#     Edge 94, Type (0, 1), BuildingBlock: OJICUG_clean_linker_0, # of connection points: 2
#     Edge 95, Type (0, 1), BuildingBlock: OJICUG_clean_linker_0, # of connection points: 2
#     Edge 96, Type (0, 1), BuildingBlock: OJICUG_clean_linker_0, # of connection points: 2
#     Edge 97, Type (0, 1), BuildingBlock: OJICUG_clean_linker_0, # of connection points: 2
#     Edge 98, Type (0, 1), BuildingBlock: OJICUG_clean_linker_0, # of connection points: 2
#     Edge 99, Type (0, 1), BuildingBlock: OJICUG_clean_linker_0, # of connection points: 2
#     Edge 100, Type (0, 1), BuildingBlock: OJICUG_clean_linker_0, # of connection points: 2
#     Edge 101, Type (0, 1), BuildingBlock: OJICUG_clean_linker_0, # of connection points: 2
#     Edge 102, Type (0, 1), BuildingBlock: OJICUG_clean_linker_0, # of connection points: 2
#     Edge 103, Type (0, 1), BuildingBlock: OJICUG_clean_linker_0, # of connection points: 2
#     Edge 104, Type (0, 1), BuildingBlock: OJICUG_clean_linker_0, # of connection points: 2
#     Edge 105, Type (0, 1), BuildingBlock: OJICUG_clean_linker_0, # of connection points: 2
#     Edge 106, Type (0, 1), BuildingBlock: OJICUG_clean_linker_0, # of connection points: 2
#     Edge 107, Type (0, 1), BuildingBlock: OJICUG_clean_linker_0, # of connection points: 2
#     Edge 108, Type (0, 1), BuildingBlock: OJICUG_clean_linker_0, # of connection points: 2
#     Edge 109, Type (0, 1), BuildingBlock: OJICUG_clean_linker_0, # of connection points: 2
#     Edge 110, Type (0, 1), BuildingBlock: OJICUG_clean_linker_0, # of connection points: 2
#     Edge 111, Type (0, 1), BuildingBlock: OJICUG_clean_linker_0, # of connection points: 2
#     Edge 112, Type (0, 1), BuildingBlock: OJICUG_clean_linker_0, # of connection points: 2
#     Edge 113, Type (0, 1), BuildingBlock: OJICUG_clean_linker_0, # of connection points: 2
#     Edge 114, Type (0, 1), BuildingBlock: OJICUG_clean_linker_0, # of connection points: 2
#     Edge 115, Type (0, 1), BuildingBlock: OJICUG_clean_linker_0, # of connection points: 2
#     Edge 116, Type (0, 1), BuildingBlock: OJICUG_clean_linker_0, # of connection points: 2
#     Edge 117, Type (0, 1), BuildingBlock: OJICUG_clean_linker_0, # of connection points: 2
#     Edge 118, Type (0, 1), BuildingBlock: OJICUG_clean_linker_0, # of connection points: 2
#     Edge 119, Type (0, 1), BuildingBlock: OJICUG_clean_linker_0, # of connection points: 2
#     Edge 120, Type (0, 1), BuildingBlock: OJICUG_clean_linker_0, # of connection points: 2
#     Edge 121, Type (0, 1), BuildingBlock: OJICUG_clean_linker_0, # of connection points: 2
#     Edge 122, Type (0, 1), BuildingBlock: OJICUG_clean_linker_0, # of connection points: 2
#     Edge 123, Type (0, 1), BuildingBlock: OJICUG_clean_linker_0, # of connection points: 2
#     Edge 124, Type (0, 1), BuildingBlock: OJICUG_clean_linker_0, # of connection points: 2
#     Edge 125, Type (0, 1), BuildingBlock: OJICUG_clean_linker_0, # of connection points: 2
#     Edge 126, Type (0, 1), BuildingBlock: OJICUG_clean_linker_0, # of connection points: 2
#     Edge 127, Type (0, 1), BuildingBlock: OJICUG_clean_linker_0, # of connection points: 2
#     Edge 128, Type (0, 1), BuildingBlock: OJICUG_clean_linker_0, # of connection points: 2
#     Edge 129, Type (0, 1), BuildingBlock: OJICUG_clean_linker_0, # of connection points: 2
#     Edge 130, Type (0, 1), BuildingBlock: OJICUG_clean_linker_0, # of connection points: 2
#     Edge 131, Type (0, 1), BuildingBlock: OJICUG_clean_linker_0, # of connection points: 2
#     Edge 132, Type (0, 1), BuildingBlock: OJICUG_clean_linker_0, # of connection points: 2
#     Edge 133, Type (0, 1), BuildingBlock: OJICUG_clean_linker_0, # of connection points: 2
#     Edge 134, Type (0, 1), BuildingBlock: OJICUG_clean_linker_0, # of connection points: 2
#     Edge 135, Type (0, 1), BuildingBlock: OJICUG_clean_linker_0, # of connection points: 2
# Relax obj value: 0.133
# Max RMSD: 0.235
# Mean RMSD: 0.153
data_MOF--net-gar--node1-NAHDIM_clean_sbu_0--node2-CUKXOW_clean_sbu_0--edge1-OJICUG_clean_linker_0
_symmetry_space_group_name_H-M    P1
_symmetry_Int_Tables_number       1
_symmetry_cell_setting            triclinic
loop_
_symmetry_equiv_pos_as_xyz
'x, y, z'
_cell_length_a     41.572929
_cell_length_b     39.37271
_cell_length_c     38.489305
_cell_angle_alpha  94.255511
_cell_angle_beta   95.266166
_cell_angle_gamma 99.02335
loop_
_atom_site_label
_atom_site_type_symbol
_atom_site_fract_x
_atom_site_fract_y
_atom_site_fract_z
_atom_type_partial_charge
C0 C 0.07426 0.27449 0.36953 0.0
O1 O 0.05094 0.29217 0.36075 0.0
O2 O 0.04695 0.23954 0.46861 0.0
Zn3 Zn 0.04889 0.2773 0.43654 0.0
O4 O 0.06307 0.32347 0.46391 0.0
C5 C 0.98889 0.25327 0.39089 0.0
O6 O 1.00017 0.22398 0.3873 0.0
O7 O 0.07896 0.26708 0.40096 0.0
C8 C 0.0476 0.32859 0.49029 0.0
O9 O 0.02624 0.3031 0.49881 0.0
C10 C 0.02071 0.22195 0.47633 0.0
O11 O 0.99224 0.2291 0.46408 0.0
O12 O 1.00508 0.27834 0.41104 0.0
C13 C 0.96269 0.7819 0.66457 0.0
O14 O 0.98059 0.75744 0.66762 0.0
O15 O 0.99712 0.75454 0.57862 0.0
Zn16 Zn 1.00133 0.79896 0.60846 0.0
O17 O 1.00323 0.83809 0.57861 0.0
C18 C 0.05272 0.77791 0.65124 0.0
O19 O 0.03698 0.74697 0.63971 0.0
O20 O 0.96574 0.80109 0.63956 0.0
C21 C 0.02982 0.85843 0.5769 0.0
O22 O 0.0569 0.85318 0.59455 0.0
C23 C 0.97253 0.73053 0.57406 0.0
O24 O 0.94574 0.73472 0.58832 0.0
O25 O 0.04247 0.80434 0.64048 0.0
C26 C 0.56886 0.78343 0.86363 0.0
O27 O 0.54942 0.80649 0.85996 0.0
O28 O 0.54182 0.73888 0.95983 0.0
Zn29 Zn 0.54258 0.77735 0.92905 0.0
O30 O 0.55772 0.82267 0.95707 0.0
C31 C 0.48429 0.75429 0.88239 0.0
O32 O 0.49703 0.726 0.87771 0.0
O33 O 0.57114 0.76901 0.89198 0.0
C34 C 0.54413 0.82755 0.98483 0.0
O35 O 0.52328 0.80216 0.99436 0.0
C36 C 0.51598 0.72071 0.96774 0.0
O37 O 0.48718 0.72742 0.95603 0.0
O38 O 0.49878 0.77876 0.90437 0.0
C39 C 0.472 0.31425 0.16893 0.0
O40 O 0.50158 0.3253 0.18459 0.0
O41 O 0.50356 0.25435 0.08056 0.0
Zn42 Zn 0.50606 0.29925 0.10912 0.0
O43 O 0.50607 0.33664 0.07757 0.0
C44 C 0.55196 0.28322 0.16123 0.0
O45 O 0.52866 0.25651 0.16144 0.0
O46 O 0.46813 0.30113 0.13734 0.0
C47 C 0.53132 0.35842 0.07453 0.0
O48 O 0.55942 0.35579 0.09187 0.0
C49 C 0.47847 0.23124 0.07288 0.0
O50 O 0.45036 0.23624 0.08368 0.0
O51 O 0.54775 0.3062 0.14063 0.0
C52 C 0.93439 0.75799 0.20105 0.0
O53 O 0.92808 0.74813 0.16743 0.0
O54 O 1.00489 0.71778 0.16099 0.0
Zn55 Zn 1.00151 0.766 0.1824 0.0
O56 O 0.99358 0.79723 0.144 0.0
C57 C 0.06031 0.76682 0.22966 0.0
O58 O 0.04376 0.73701 0.2359 0.0
O59 O 0.96422 0.76605 0.21408 0.0
C60 C 0.01737 0.81011 0.12798 0.0
O61 O 0.04626 0.80138 0.13554 0.0
C62 C 0.98941 0.7028 0.13247 0.0
O63 O 0.96781 0.71812 0.11532 0.0
O64 O 0.04659 0.7852 0.20889 0.0
C65 C 0.59704 0.7966 0.34982 0.0
O66 O 0.59897 0.79033 0.38294 0.0
O67 O 0.53174 0.76379 0.39711 0.0
Zn68 Zn 0.53148 0.80377 0.36602 0.0
O69 O 0.53721 0.84869 0.39832 0.0
C70 C 0.46862 0.77359 0.32063 0.0
O71 O 0.47961 0.74405 0.31967 0.0
O72 O 0.57017 0.8038 0.33577 0.0
C73 C 0.5216 0.84833 0.42533 0.0
O74 O 0.50366 0.81934 0.43145 0.0
C75 C 0.50624 0.74647 0.40704 0.0
O76 O 0.47733 0.75357 0.39628 0.0
O77 O 0.48655 0.80035 0.33692 0.0
C78 C 0.42766 0.25593 0.69898 0.0
O79 O 0.42124 0.23929 0.66762 0.0
O80 O 0.49178 0.21922 0.6514 0.0
Zn81 Zn 0.49464 0.2662 0.6791 0.0
O82 O 0.49076 0.30155 0.64389 0.0
C83 C 0.55369 0.25753 0.72378 0.0
O84 O 0.53704 0.22661 0.72581 0.0
O85 O 0.45732 0.26837 0.71014 0.0
C86 C 0.51619 0.32088 0.63635 0.0
O87 O 0.54494 0.31785 0.65189 0.0
C88 C 0.51 0.21886 0.62654 0.0
O89 O 0.52887 0.24764 0.62137 0.0
O90 O 0.54007 0.27892 0.70686 0.0
C91 C 0.09148 0.29381 0.84873 0.0
O92 O 0.09513 0.29008 0.88244 0.0
O93 O 0.02653 0.257 0.89635 0.0
Zn94 Zn 0.02537 0.29763 0.86618 0.0
O95 O 0.03145 0.34232 0.89934 0.0
C96 C 0.96236 0.26731 0.82155 0.0
O97 O 0.97319 0.23771 0.82179 0.0
O98 O 0.06346 0.29824 0.83498 0.0
C99 C 0.02032 0.34132 0.92913 0.0
O100 O 1.00643 0.31152 0.93824 0.0
C101 C 1.00182 0.24031 0.90838 0.0
O102 O 0.97268 0.24823 0.9002 0.0
O103 O 0.98031 0.29435 0.83727 0.0
C104 C 0.36064 0.12416 0.23246 0.0
O105 O 0.35427 0.09751 0.20886 0.0
O106 O 0.43899 0.08223 0.22111 0.0
Zn107 Zn 0.40963 0.0854 0.26115 0.0
O108 O 0.43497 0.09082 0.30982 0.0
C109 C 0.36168 0.02188 0.23556 0.0
O110 O 0.36709 0.02905 0.2036 0.0
O111 O 0.38395 0.1253 0.25666 0.0
C112 C 0.46109 0.07867 0.31755 0.0
O113 O 0.47499 0.06416 0.29235 0.0
C114 C 0.44637 0.05396 0.20835 0.0
O115 O 0.43587 0.02521 0.22205 0.0
O116 O 0.37678 0.04164 0.26154 0.0
C117 C 0.30582 0.0922 0.50451 0.0
O118 O 0.28533 0.09818 0.52738 0.0
O119 O 0.28206 0.16791 0.52524 0.0
Zn120 Zn 0.2798 0.14633 0.47682 0.0
O121 O 0.29232 0.18276 0.44473 0.0
C122 C 0.21247 0.13987 0.47976 0.0
O123 O 0.22236 0.17067 0.4961 0.0
O124 O 0.30786 0.10986 0.47821 0.0
C125 C 0.28456 0.21252 0.45053 0.0
O126 O 0.26948 0.21937 0.47804 0.0
C127 C 0.30209 0.19223 0.54235 0.0
O128 O 0.32789 0.20666 0.52831 0.0
O129 O 0.23293 0.12404 0.46555 0.0
C130 C 0.20502 0.95341 0.78981 0.0
O131 O 0.1883 0.96077 0.76152 0.0
O132 O 0.14367 1.00147 0.77562 0.0
Zn133 Zn 0.17135 0.00454 0.82211 0.0
O134 O 0.13937 0.9946 0.85844 0.0
C135 C 0.21395 0.06422 0.80712 0.0
O136 O 0.21732 0.04202 0.78101 0.0
O137 O 0.20212 0.96909 0.81927 0.0
C138 C 0.12148 0.01745 0.86397 0.0
O139 O 0.1272 0.04639 0.84909 0.0
C140 C 0.1328 0.02767 0.76489 0.0
O141 O 0.14005 0.05741 0.78395 0.0
O142 O 0.1964 0.05365 0.83078 0.0
C143 C 0.16363 0.94375 0.05739 0.0
O144 O 0.16632 0.92823 0.08632 0.0
O145 O 0.22281 0.88014 0.08001 0.0
Zn146 Zn 0.21962 0.90779 0.03567 0.0
O147 O 0.2164 0.8763 0.98917 0.0
C148 C 0.28686 0.94242 0.05992 0.0
O149 O 0.28197 0.92719 0.08865 0.0
O150 O 0.18254 0.93838 0.03386 0.0
C151 C 0.24277 0.86752 0.97944 0.0
O152 O 0.27011 0.8772 1.00016 0.0
C153 C 0.23205 0.85063 0.07876 0.0
O154 O 0.23657 0.83614 0.04817 0.0
O155 O 0.26342 0.93948 0.0356 0.0
C156 C 0.23115 0.4848 0.0266 0.0
O157 O 0.24851 0.47549 1.00179 0.0
O158 O 0.26131 0.40966 0.09827 0.0
Zn159 Zn 0.26823 0.44248 0.06198 0.0
O160 O 0.26454 0.41215 0.01791 0.0
C161 C 0.33723 0.46243 0.08605 0.0
O162 O 0.33356 0.43493 0.10357 0.0
O163 O 0.23517 0.47372 0.05663 0.0
C164 C 0.28021 0.38704 0.01555 0.0
O165 O 0.30047 0.38191 0.04217 0.0
C166 C 0.23766 0.38456 0.0925 0.0
O167 O 0.21509 0.3841 0.06617 0.0
O168 O 0.31266 0.47035 0.06836 0.0
C169 C 0.85327 0.11585 0.02575 0.0
O170 O 0.83107 0.10825 0.04736 0.0
O171 O 0.81115 0.20051 0.05425 0.0
Zn172 Zn 0.81178 0.16925 0.00829 0.0
O173 O 0.80982 0.19907 0.96568 0.0
C174 C 0.75602 0.12632 0.03225 0.0
O175 O 0.77302 0.13541 0.06291 0.0
O176 O 0.85091 0.14112 0.00715 0.0
C177 C 0.78418 0.19576 0.9438 0.0
O178 O 0.75882 0.17267 0.94829 0.0
C179 C 0.82799 0.20081 0.08374 0.0
O180 O 0.85105 0.18154 0.08619 0.0
O181 O 0.76834 0.13605 0.0048 0.0
C182 C 0.1495 0.4215 0.28269 0.0
O183 O 0.1242 0.4154 0.25871 0.0
O184 O 0.09855 0.47736 0.24881 0.0
Zn185 Zn 0.12314 0.48449 0.29838 0.0
O186 O 0.0928 0.48534 0.33783 0.0
C187 C 0.14531 0.55315 0.28183 0.0
O188 O 0.11545 0.54836 0.26587 0.0
O189 O 0.15309 0.44851 0.30388 0.0
C190 C 0.09443 0.51198 0.35937 0.0
O191 O 0.11577 0.53955 0.35589 0.0
C192 C 0.06962 0.48292 0.24023 0.0
O193 O 0.05185 0.4914 0.26501 0.0
O194 O 0.15414 0.52984 0.29986 0.0
C195 C 0.73402 0.99002 0.52858 0.0
O196 O 0.74962 0.98117 0.50202 0.0
O197 O 0.76482 0.91381 0.59735 0.0
Zn198 Zn 0.76942 0.94352 0.55849 0.0
O199 O 0.76012 0.91182 0.51498 0.0
C200 C 0.83916 0.95929 0.5761 0.0
O201 O 0.83476 0.93349 0.59586 0.0
O202 O 0.73882 0.97701 0.55742 0.0
C203 C 0.77371 0.88512 0.51329 0.0
O204 O 0.79337 0.87936 0.54015 0.0
C205 C 0.73929 0.89138 0.59713 0.0
O206 O 0.71401 0.89131 0.57399 0.0
O207 O 0.81466 0.96829 0.55932 0.0
C208 C 0.82796 0.10535 0.27452 0.0
O209 O 0.84135 0.09687 0.3042 0.0
O210 O 0.88635 0.04947 0.20596 0.0
Zn211 Zn 0.8609 0.0524 0.24784 0.0
O212 O 0.89411 0.06497 0.28928 0.0
C213 C 0.82732 0.98152 0.23042 0.0
O214 O 0.83445 0.98741 0.19862 0.0
O215 O 0.83228 0.08913 0.24592 0.0
C216 C 0.91952 0.05082 0.29105 0.0
O217 O 0.92356 0.02865 0.26522 0.0
C218 C 0.90679 0.07484 0.19865 0.0
O219 O 0.90912 0.10498 0.21662 0.0
O220 O 0.83524 0.0057 0.25493 0.0
C221 C 0.35674 0.62029 0.52551 0.0
O222 O 0.34414 0.62284 0.55549 0.0
O223 O 0.31724 0.69638 0.5558 0.0
Zn224 Zn 0.31056 0.66842 0.50714 0.0
O225 O 0.30899 0.7014 0.46731 0.0
C226 C 0.25458 0.62618 0.53254 0.0
O227 O 0.27449 0.63008 0.56161 0.0
O228 O 0.34669 0.63742 0.50097 0.0
C229 C 0.28786 0.69421 0.4404 0.0
O230 O 0.26729 0.66497 0.43788 0.0
C231 C 0.29514 0.71407 0.56326 0.0
O232 O 0.2712 0.71539 0.53887 0.0
O233 O 0.26499 0.63879 0.5053 0.0
C234 C 0.32329 0.60765 0.76639 0.0
O235 O 0.33518 0.5975 0.79596 0.0
O236 O 0.38401 0.55218 0.69928 0.0
Zn237 Zn 0.35692 0.55546 0.74008 0.0
O238 O 0.38871 0.56741 0.78268 0.0
C239 C 0.32458 0.48351 0.72428 0.0
O240 O 0.3341 0.48749 0.693 0.0
O241 O 0.3287 0.59268 0.73754 0.0
C242 C 0.41155 0.54976 0.78673 0.0
O243 O 0.41421 0.52575 0.76204 0.0
C244 C 0.40381 0.57782 0.69135 0.0
O245 O 0.40464 0.60839 0.70792 0.0
O246 O 0.33055 0.50907 0.74742 0.0
C247 C 0.66302 0.92729 0.76794 0.0
O248 O 0.65733 0.94093 0.73834 0.0
O249 O 0.59559 0.97105 0.74152 0.0
Zn250 Zn 0.6216 0.97586 0.79006 0.0
O251 O 0.59198 0.97808 0.83049 0.0
C252 C 0.66596 0.03071 0.76467 0.0
O253 O 0.65766 0.01135 0.73496 0.0
O254 O 0.64911 0.93685 0.79431 0.0
C255 C 0.59329 0.00566 0.85066 0.0
O256 O 0.61368 0.03329 0.84516 0.0
C257 C 0.57166 0.98686 0.73433 0.0
O258 O 0.56084 0.00456 0.7598 0.0
O259 O 0.65373 0.02089 0.79214 0.0
C260 C 0.80238 0.57863 0.0166 0.0
O261 O 0.78247 0.58557 0.03974 0.0
O262 O 0.76356 0.64838 0.02485 0.0
Zn263 Zn 0.77034 0.62464 0.97941 0.0
O264 O 0.78462 0.66008 0.94679 0.0
C265 C 0.70342 0.60862 0.95035 0.0
O266 O 0.70811 0.64048 0.94158 0.0
O267 O 0.80217 0.59308 0.98817 0.0
C268 C 0.776 0.68957 0.95115 0.0
O269 O 0.75785 0.69565 0.97635 0.0
C270 C 0.78564 0.67062 0.0422 0.0
O271 O 0.8143 0.67811 0.03027 0.0
O272 O 0.72766 0.59586 0.96284 0.0
C273 C 0.86886 0.63521 0.74397 0.0
O274 O 0.88939 0.63897 0.72001 0.0
O275 O 0.93192 0.57735 0.72679 0.0
Zn276 Zn 0.90249 0.57688 0.76745 0.0
O277 O 0.92876 0.58324 0.81579 0.0
C278 C 0.85147 0.5165 0.74312 0.0
O279 O 0.84744 0.5316 0.71408 0.0
O280 O 0.87111 0.61218 0.76523 0.0
C281 C 0.95627 0.57359 0.82306 0.0
O282 O 0.9712 0.56122 0.7975 0.0
C283 C 0.93729 0.54942 0.711 0.0
O284 O 0.9239 0.51982 0.72115 0.0
O285 O 0.87343 0.53054 0.76732 0.0
C286 C 0.66253 0.44499 0.55781 0.0
O287 O 0.66462 0.43029 0.5873 0.0
O288 O 0.72199 0.3778 0.57964 0.0
Zn289 Zn 0.7166 0.40526 0.53551 0.0
O290 O 0.71102 0.37339 0.48939 0.0
C291 C 0.78353 0.44027 0.55902 0.0
O292 O 0.77695 0.42906 0.5893 0.0
O293 O 0.68094 0.43777 0.53438 0.0
C294 C 0.73391 0.35621 0.48369 0.0
O295 O 0.75784 0.35721 0.50874 0.0
C296 C 0.70577 0.34889 0.58559 0.0
O297 O 0.68087 0.33447 0.56301 0.0
O298 O 0.76117 0.43479 0.53339 0.0
C299 C 0.70559 0.44896 0.28731 0.0
O300 O 0.69063 0.45605 0.25782 0.0
O301 O 0.64754 0.50115 0.26818 0.0
Zn302 Zn 0.67233 0.50254 0.31627 0.0
O303 O 0.63935 0.49567 0.35276 0.0
C304 C 0.71964 0.55989 0.30309 0.0
O305 O 0.72311 0.53745 0.27724 0.0
O306 O 0.70142 0.46539 0.31591 0.0
C307 C 0.61125 0.50457 0.34714 0.0
O308 O 0.60368 0.51749 0.31763 0.0
C309 C 0.63992 0.52894 0.25753 0.0
O310 O 0.6477 0.55769 0.27825 0.0
O311 O 0.70028 0.55023 0.32555 0.0
Tb312 Tb 0.01854 0.06891 0.02021 0.0
C313 C 0.02584 0.01204 0.96245 0.0
Tb314 Tb 1.00066 0.99258 0.03441 0.0
O315 O 0.07047 0.06308 0.021 0.0
O316 O 0.03975 0.03338 0.05062 0.0
O317 O 0.01665 0.04249 0.96844 0.0
C318 C 1.00516 0.929 0.05243 0.0
O319 O 0.02335 0.98854 0.98547 0.0
C320 C 0.95059 0.02375 0.01602 0.0
C321 C 0.99179 0.05024 0.09231 0.0
O322 O 0.97954 0.93766 0.03555 0.0
O323 O 0.02779 0.95587 0.05861 0.0
O324 O 0.94892 0.99722 0.03438 0.0
O325 O 0.97872 0.02855 0.00513 0.0
O326 O 0.99623 0.01779 0.08548 0.0
O327 O 0.99886 0.07469 0.07078 0.0
C328 C 0.01637 0.13231 0.99975 0.0
O329 O 0.04276 0.11904 0.00593 0.0
O330 O 0.99166 0.11049 0.00678 0.0
C331 C 0.06813 0.03762 0.04069 0.0
Tb332 Tb 0.27474 0.82495 0.27629 0.0
C333 C 0.33189 0.77861 0.27521 0.0
Tb334 Tb 0.25754 0.7433 0.25852 0.0
O335 O 0.29263 0.8187 0.33083 0.0
O336 O 0.25851 0.78037 0.30167 0.0
O337 O 0.32305 0.80964 0.2732 0.0
C338 C 0.23181 0.67723 0.26023 0.0
O339 O 0.3105 0.74922 0.27211 0.0
C340 C 0.26127 0.77816 0.2017 0.0
C341 C 0.20057 0.78854 0.26569 0.0
O342 O 0.25672 0.69349 0.28123 0.0
O343 O 0.22265 0.69784 0.23801 0.0
O344 O 0.25641 0.74465 0.20055 0.0
O345 O 0.26604 0.78826 0.23362 0.0
O346 O 0.21077 0.75844 0.26917 0.0
O347 O 0.22107 0.81817 0.26508 0.0
C348 C 0.29195 0.88992 0.26215 0.0
O349 O 0.27854 0.88074 0.29015 0.0
O350 O 0.29532 0.86268 0.24266 0.0
C351 C 0.27708 0.78712 0.33001 0.0
Tb352 Tb 0.5506 0.04119 0.52181 0.0
C353 C 0.52851 0.00991 0.5915 0.0
Tb354 Tb 0.48036 0.02531 0.53056 0.0
O355 O 0.54914 0.09637 0.52312 0.0
O356 O 0.5187 0.06525 0.55213 0.0
O357 O 0.55083 0.01246 0.56879 0.0
C358 C 0.41674 0.02736 0.53163 0.0
O359 O 0.49889 0.01747 0.58354 0.0
C360 C 0.50568 0.97127 0.50927 0.0
C361 C 0.5027 0.05665 0.46096 0.0
O362 O 0.42954 0.00971 0.50845 0.0
O363 O 0.4398 0.04343 0.55475 0.0
O364 O 0.48203 0.97007 0.52921 0.0
O365 O 0.51218 1.00146 0.50021 0.0
O366 O 0.48045 0.05425 0.48369 0.0
O367 O 0.53216 0.04894 0.46893 0.0
C368 C 0.61373 0.04019 0.51673 0.0
O369 O 0.6021 0.05723 0.54137 0.0
O370 O 0.58983 0.02353 0.49503 0.0
C371 C 0.52552 0.09541 0.54303 0.0
Tb372 Tb 0.27133 0.28959 0.8155 0.0
C373 C 0.27598 0.34557 0.76008 0.0
Tb374 Tb 0.252 0.26614 0.73538 0.0
O375 O 0.32326 0.30214 0.80705 0.0
O376 O 0.29152 0.26484 0.77398 0.0
O377 O 0.27416 0.33959 0.79349 0.0
C378 C 0.26299 0.24809 0.67071 0.0
O379 O 0.27061 0.32068 0.73406 0.0
C380 C 0.20119 0.2813 0.76717 0.0
C381 C 0.24849 0.20991 0.79033 0.0
O382 O 0.27983 0.27391 0.69075 0.0
O383 O 0.23921 0.23291 0.6867 0.0
O384 O 0.19912 0.27128 0.73384 0.0
O385 O 0.2307 0.28297 0.77848 0.0
O386 O 0.25182 0.21681 0.75739 0.0
O387 O 0.25156 0.23446 0.81686 0.0
C388 C 0.26844 0.30978 0.88202 0.0
O389 O 0.28828 0.28984 0.87106 0.0
O390 O 0.2504 0.31794 0.85565 0.0
C391 C 0.3201 0.28192 0.77819 0.0
Tb392 Tb 0.01408 0.04077 0.48814 0.0
C393 C 0.96769 0.0157 0.54344 0.0
Tb394 Tb 0.04368 0.0401 0.56416 0.0
O395 O 1.0016 0.98468 0.48283 0.0
O396 O 0.04231 0.0097 0.51629 0.0
O397 O 0.96968 0.03028 0.51353 0.0
C398 C 0.06419 0.02783 0.62876 0.0
O399 O 0.99382 0.01284 0.5649 0.0
C400 C 0.0321 0.09987 0.54573 0.0
C401 C 0.08987 0.06637 0.50935 0.0
O402 O 0.04645 0.05093 0.6207 0.0
O403 O 0.07029 0.0112 0.60033 0.0
O404 O 0.05564 0.09649 0.5691 0.0
O405 O 0.01523 0.07085 0.53601 0.0
O406 O 0.08828 0.05253 0.53966 0.0
O407 O 0.06386 0.06775 0.48716 0.0
C408 C 0.99362 0.05457 0.42412 0.0
O409 O 0.01168 0.03153 0.43141 0.0
O410 O 0.98702 0.07001 0.45296 0.0
C411 C 0.02495 0.98091 0.50627 0.0
Tb412 Tb 0.30468 0.78693 0.78724 0.0
C413 C 0.25581 0.80205 0.84189 0.0
Tb414 Tb 0.23293 0.78172 0.76068 0.0
O415 O 0.30817 0.84214 0.80245 0.0
O416 O 0.27572 0.81808 0.76003 0.0
O417 O 0.28403 0.79126 0.83725 0.0
C418 C 0.17185 0.78874 0.74051 0.0
O419 O 0.23335 0.80315 0.81522 0.0
C420 C 0.25332 0.72302 0.76863 0.0
C421 C 0.2819 0.76917 0.70526 0.0
O422 O 0.18041 0.7637 0.75732 0.0
O423 O 0.1977 0.81021 0.7356 0.0
O424 O 0.23044 0.7269 0.74477 0.0
O425 O 0.26181 0.75072 0.78814 0.0
O426 O 0.25318 0.77846 0.71044 0.0
O427 O 0.30482 0.76843 0.73165 0.0
C428 C 0.36395 0.774 0.80782 0.0
O429 O 0.33698 0.75224 0.80654 0.0
O430 O 0.35765 0.80302 0.79726 0.0
C431 C 0.2846 0.84594 0.77925 0.0
Tb432 Tb 0.48246 0.01453 0.02358 0.0
C433 C 0.53478 0.96652 0.02963 0.0
Tb434 Tb 0.55503 0.04824 0.03401 0.0
O435 O 0.4885 0.99005 0.97194 0.0
O436 O 0.5177 0.03686 0.99155 0.0
O437 O 0.50435 0.96981 0.03508 0.0
C438 C 0.61923 0.06836 0.0309 0.0
O439 O 0.55733 0.99311 0.02468 0.0
C440 C 0.52347 0.04944 0.09016 0.0
C441 C 0.50255 0.0964 0.02726 0.0
O442 O 0.60599 0.05586 0.05747 0.0
O443 O 0.59627 0.06965 0.00602 0.0
O444 O 0.54781 0.07293 0.08517 0.0
O445 O 0.51995 0.02559 0.06572 0.0
O446 O 0.5333 0.09333 0.02277 0.0
O447 O 0.47981 0.06957 0.03099 0.0
C448 C 0.41985 0.99436 0.03435 0.0
O449 O 0.44507 0.99572 0.05714 0.0
O450 O 0.42983 0.00407 0.00505 0.0
C451 C 0.51349 0.01291 0.967 0.0
Tb452 Tb 0.22755 0.2602 0.25779 0.0
C453 C 0.27712 0.28085 0.3269 0.0
Tb454 Tb 0.29626 0.30072 0.25518 0.0
O455 O 0.23968 0.21389 0.23012 0.0
O456 O 0.27569 0.24889 0.26123 0.0
O457 O 0.24616 0.27607 0.31283 0.0
C458 C 0.35641 0.31984 0.23756 0.0
O459 O 0.30209 0.28716 0.30814 0.0
C460 C 0.25177 0.33792 0.27262 0.0
C461 C 0.24789 0.28181 0.18644 0.0
O462 O 0.3303 0.3304 0.22444 0.0
O463 O 0.3488 0.29919 0.26131 0.0
O464 O 0.28293 0.34756 0.28213 0.0
O465 O 0.24836 0.31137 0.25177 0.0
O466 O 0.2783 0.28261 0.20075 0.0
O467 O 0.22258 0.27522 0.20484 0.0
C468 C 0.16694 0.24465 0.27597 0.0
O469 O 0.17647 0.26746 0.25493 0.0
O470 O 0.19136 0.22937 0.28547 0.0
C471 C 0.27098 0.22237 0.23983 0.0
Tb472 Tb 0.50279 0.53933 0.98737 0.0
C473 C 0.46315 0.52139 0.04991 0.0
Tb474 Tb 0.5407 0.54123 0.05979 0.0
O475 O 0.48798 0.48352 0.98654 0.0
O476 O 0.53264 0.5082 0.01307 0.0
O477 O 0.46217 0.53396 0.01884 0.0
C478 C 0.56813 0.53271 0.12313 0.0
O479 O 0.49093 0.51798 0.06837 0.0
C480 C 0.53012 0.60081 0.03991 0.0
C481 C 0.57962 0.55908 0.99665 0.0
O482 O 0.55363 0.55828 0.11509 0.0
O483 O 0.56703 0.51142 0.09546 0.0
O484 O 0.55596 0.59695 0.05981 0.0
O485 O 0.51105 0.5725 0.03401 0.0
O486 O 0.58076 0.54535 0.02714 0.0
O487 O 0.55189 0.56418 0.97956 0.0
C488 C 0.47891 0.54919 0.92322 0.0
O489 O 0.49682 0.52621 0.93104 0.0
O490 O 0.47403 0.56671 0.95167 0.0
C491 C 0.5137 0.47985 0.00678 0.0
Tb492 Tb 0.80714 0.2839 0.29617 0.0
C493 C 0.75406 0.29697 0.34561 0.0
Tb494 Tb 0.73699 0.278 0.26269 0.0
O495 O 0.80867 0.33893 0.31094 0.0
O496 O 0.78002 0.31472 0.26598 0.0
O497 O 0.78248 0.28591 0.34352 0.0
C498 C 0.67699 0.28625 0.23883 0.0
O499 O 0.73396 0.29925 0.31708 0.0
C500 C 0.75641 0.21942 0.2734 0.0
C501 C 0.79107 0.26369 0.21347 0.0
O502 O 0.68397 0.2627 0.25874 0.0
O503 O 0.70382 0.30538 0.23249 0.0
O504 O 0.73461 0.223 0.24821 0.0
O505 O 0.76387 0.24728 0.29288 0.0
O506 O 0.76125 0.27193 0.21471 0.0
O507 O 0.81187 0.26495 0.24213 0.0
C508 C 0.86605 0.27268 0.32082 0.0
O509 O 0.85962 0.30145 0.30976 0.0
O510 O 0.83939 0.25025 0.31799 0.0
C511 C 0.78704 0.34256 0.28553 0.0
Tb512 Tb 0.981 0.51352 0.53008 0.0
C513 C 0.03453 0.46683 0.5358 0.0
Tb514 Tb 0.0534 0.54893 0.54193 0.0
O515 O 0.98823 0.4904 0.47829 0.0
O516 O 0.01636 0.53739 0.49918 0.0
O517 O 1.00386 0.46926 0.54108 0.0
C518 C 0.11733 0.57111 0.53781 0.0
O519 O 0.05677 0.49406 0.53171 0.0
C520 C 0.02073 0.54835 0.59752 0.0
C521 C 0.99948 0.59553 0.53446 0.0
O522 O 0.10491 0.55763 0.56441 0.0
O523 O 0.0937 0.57224 0.51365 0.0
O524 O 0.04504 0.57231 0.59342 0.0
O525 O 0.01802 0.52501 0.57266 0.0
O526 O 0.03056 0.59334 0.53068 0.0
O527 O 0.97714 0.56823 0.53785 0.0
C528 C 0.91798 0.49194 0.53826 0.0
O529 O 0.94252 0.49377 0.56203 0.0
O530 O 0.9289 0.50198 0.5095 0.0
C531 C 0.01288 0.51401 0.47418 0.0
Tb532 Tb 0.77441 0.78454 0.31582 0.0
C533 C 0.77952 0.84163 0.26092 0.0
Tb534 Tb 0.7548 0.76317 0.2353 0.0
O535 O 0.82816 0.78564 0.31571 0.0
O536 O 0.79633 0.77308 0.27129 0.0
O537 O 0.7773 0.83474 0.29403 0.0
C538 C 0.75772 0.73997 0.16954 0.0
O539 O 0.7746 0.81736 0.23432 0.0
C540 C 0.70808 0.78148 0.27118 0.0
C541 C 0.75719 0.70559 0.28907 0.0
O542 O 0.77752 0.7656 0.1868 0.0
O543 O 0.73547 0.72773 0.18904 0.0
O544 O 0.70844 0.7835 0.23758 0.0
O545 O 0.73116 0.76622 0.28156 0.0
O546 O 0.75967 0.71383 0.25634 0.0
O547 O 0.7581 0.72905 0.31609 0.0
C548 C 0.76737 0.80802 0.38029 0.0
O549 O 0.78549 0.78504 0.37242 0.0
O550 O 0.75337 0.8176 0.35195 0.0
C551 C 0.82609 0.77626 0.28229 0.0
Tb552 Tb 0.76845 0.31424 0.76999 0.0
C553 C 0.82681 0.2716 0.77032 0.0
Tb554 Tb 0.75202 0.23564 0.75679 0.0
O555 O 0.79032 0.31003 0.82355 0.0
O556 O 0.75237 0.27255 0.79949 0.0
O557 O 0.81758 0.302 0.76611 0.0
C558 C 0.73839 0.16775 0.76271 0.0
O559 O 0.80536 0.24256 0.76929 0.0
C560 C 0.74431 0.26978 0.70086 0.0
C561 C 0.69373 0.27719 0.76207 0.0
O562 O 0.74717 0.18171 0.73475 0.0
O563 O 0.73827 0.192 0.78729 0.0
O564 O 0.72779 0.23974 0.70475 0.0
O565 O 0.76653 0.27764 0.72634 0.0
O566 O 0.7041 0.24737 0.76598 0.0
O567 O 0.71431 0.30657 0.76048 0.0
C568 C 0.78157 0.3816 0.76107 0.0
O569 O 0.77568 0.36888 0.79051 0.0
O570 O 0.77918 0.35645 0.73688 0.0
C571 C 0.773 0.28004 0.82617 0.0
Tb572 Tb 0.72935 0.76575 0.76795 0.0
C573 C 0.77916 0.76874 0.83427 0.0
Tb574 Tb 0.80085 0.79451 0.76338 0.0
O575 O 0.74057 0.71292 0.76767 0.0
O576 O 0.76823 0.74991 0.74217 0.0
O577 O 0.74867 0.77139 0.8228 0.0
C578 C 0.86416 0.80001 0.75473 0.0
O579 O 0.8037 0.77426 0.81462 0.0
C580 C 0.76387 0.84091 0.77842 0.0
C581 C 0.7507 0.7943 0.69803 0.0
O582 O 0.84667 0.82433 0.75142 0.0
O583 O 0.84622 0.77316 0.76443 0.0
O584 O 0.79042 0.84733 0.76311 0.0
O585 O 0.76175 0.81092 0.78828 0.0
O586 O 0.78106 0.79052 0.70882 0.0
O587 O 0.72621 0.78716 0.71743 0.0
C588 C 0.66557 0.76013 0.7744 0.0
O589 O 0.68377 0.78673 0.76458 0.0
O590 O 0.68321 0.7362 0.77954 0.0
C591 C 0.76655 0.71982 0.75151 0.0
Tb592 Tb 0.51951 0.57156 0.51518 0.0
C593 C 0.52899 0.51345 0.45878 0.0
Tb594 Tb 0.50195 0.49571 0.53078 0.0
O595 O 0.57141 0.56532 0.51577 0.0
O596 O 0.54076 0.53681 0.54647 0.0
O597 O 0.52245 0.54519 0.46427 0.0
C598 C 0.50702 0.43351 0.55152 0.0
O599 O 0.52463 0.49018 0.48192 0.0
C600 C 0.45148 0.52586 0.51159 0.0
C601 C 0.49127 0.55387 0.58701 0.0
O602 O 0.48183 0.44072 0.5326 0.0
O603 O 0.5289 0.46097 0.55806 0.0
O604 O 0.45002 0.49952 0.5302 0.0
O605 O 0.47975 0.5309 0.50098 0.0
O606 O 0.49665 0.52164 0.58121 0.0
O607 O 0.49787 0.57772 0.56472 0.0
C608 C 0.51532 0.63383 0.49332 0.0
O609 O 0.54122 0.6256 0.51008 0.0
O610 O 0.4921 0.60744 0.48999 0.0
C611 C 0.56914 0.54066 0.53654 0.0
Tb612 Tb 0.0502 0.5341 0.02618 0.0
C613 C 0.02942 0.50521 0.09611 0.0
Tb614 Tb 0.97909 0.51743 0.03515 0.0
O615 O 0.05783 0.57422 0.07018 0.0
O616 O 0.01339 0.56346 0.03875 0.0
O617 O 0.05085 0.50504 0.0726 0.0
C618 C 0.91599 0.51821 0.03976 0.0
O619 O 1.00051 0.5145 0.08848 0.0
C620 C 1.00595 0.46386 0.01496 0.0
C621 C 0.99987 0.55039 0.96556 0.0
O622 O 0.9279 0.50111 0.01532 0.0
O623 O 0.93971 0.53466 0.06195 0.0
O624 O 0.98242 0.46243 0.03501 0.0
O625 O 0.01168 0.49401 0.00576 0.0
O626 O 0.97604 0.54109 0.98546 0.0
O627 O 0.03115 0.54935 0.97572 0.0
C628 C 0.10976 0.53083 0.00817 0.0
O629 O 0.09952 0.5591 0.01828 0.0
O630 O 0.08658 0.50473 0.00836 0.0
C631 C 0.02818 0.58083 0.06594 0.0
C632 C 0.03724 0.20587 0.9433 0.0
C633 C 1.00605 0.21387 0.93328 0.0
H634 H 0.06506 0.17409 0.97274 0.0
C635 C 0.97883 0.19652 0.94758 0.0
H636 H 0.05877 0.2189 0.93299 0.0
C637 C 0.98253 0.17115 0.97053 0.0
C638 C 0.01352 0.16252 0.97974 0.0
H639 H 0.95449 0.20215 0.94069 0.0
H640 H 0.96092 0.1576 0.9803 0.0
C641 C 0.04092 0.18043 0.9663 0.0
C642 C 0.11021 0.75456 0.26487 0.0
C643 C 0.09564 0.77629 0.24313 0.0
H644 H 0.15439 0.74181 0.28943 0.0
C645 C 0.11576 0.80505 0.23236 0.0
H646 H 0.09561 0.73237 0.27399 0.0
C647 C 0.14988 0.81067 0.24155 0.0
C648 C 0.16448 0.78751 0.26146 0.0
H649 H 0.10537 0.82237 0.21564 0.0
H650 H 0.16493 0.83195 0.23144 0.0
C651 C 0.14406 0.76002 0.27379 0.0
C652 C 0.53491 0.913 0.43984 0.0
C653 C 0.52116 0.88013 0.4485 0.0
H654 H 0.54097 0.96789 0.45251 0.0
C655 C 0.50491 0.87775 0.47895 0.0
H656 H 0.54766 0.91574 0.41664 0.0
C657 C 0.50115 0.90741 0.49935 0.0
C658 C 0.51351 0.94025 0.48988 0.0
H659 H 0.49427 0.8529 0.48668 0.0
H660 H 0.48769 0.9046 0.52206 0.0
C661 C 0.53112 0.94283 0.46038 0.0
C662 C 0.36852 0.24331 0.71058 0.0
C663 C 0.40033 0.26189 0.71995 0.0
H664 H 0.31852 0.23434 0.72212 0.0
C665 C 0.4054 0.287 0.74875 0.0
H666 H 0.36369 0.22372 0.68862 0.0
C667 C 0.37926 0.29368 0.76735 0.0
C668 C 0.34752 0.27512 0.75793 0.0
H669 H 0.42949 0.30193 0.7566 0.0
H670 H 0.38394 0.31339 0.78921 0.0
C671 C 0.34252 0.24958 0.72959 0.0
C672 C 0.05698 0.91532 0.56049 0.0
C673 C 0.02963 0.88887 0.55701 0.0
H674 H 0.07694 0.96545 0.54662 0.0
C675 C 1.00145 0.89236 0.53537 0.0
H676 H 0.07904 0.9133 0.57695 0.0
C677 C 1.00034 0.92208 0.51817 0.0
C678 C 0.02726 0.94887 0.52255 0.0
H679 H 0.98004 0.87234 0.53206 0.0
H680 H 0.9781 0.92443 0.50215 0.0
C681 C 0.05574 0.94519 0.54339 0.0
C682 C 0.44892 0.792 0.85447 0.0
C683 C 0.45422 0.75867 0.86133 0.0
H684 H 0.41629 0.82279 0.83113 0.0
C685 C 0.43051 0.73006 0.84833 0.0
H686 H 0.46706 0.81445 0.86388 0.0
C687 C 0.40121 0.73491 0.83003 0.0
C688 C 0.39577 0.76835 0.82383 0.0
H689 H 0.43416 0.70412 0.85327 0.0
H690 H 0.38267 0.71265 0.82119 0.0
C691 C 0.42006 0.79677 0.83553 0.0
C692 C 0.4575 0.16878 0.05414 0.0
C693 C 0.4824 0.19756 0.05568 0.0
H694 H 0.44419 0.11406 0.04353 0.0
C695 C 0.51242 0.1933 0.04328 0.0
H696 H 0.43405 0.17127 0.06328 0.0
C697 C 0.51828 0.1606 0.03189 0.0
C698 C 0.49423 0.13142 0.03269 0.0
H699 H 0.53201 0.21508 0.04368 0.0
H700 H 0.5422 0.1581 0.02401 0.0
C701 C 0.46337 0.13599 0.04277 0.0
C702 C 0.11542 0.23894 0.35086 0.0
C703 C 0.09486 0.26313 0.34321 0.0
H704 H 0.15384 0.21307 0.33463 0.0
C705 C 0.09479 0.2769 0.31058 0.0
H706 H 0.11559 0.22741 0.37556 0.0
C707 C 0.11664 0.26856 0.28711 0.0
C708 C 0.13861 0.24609 0.29581 0.0
H709 H 0.07896 0.29532 0.30381 0.0
H710 H 0.11756 0.28118 0.26306 0.0
C711 C 0.13702 0.23035 0.32726 0.0
C712 C 0.93608 0.03594 0.16379 0.0
C713 C 0.92994 0.06937 0.17263 0.0
H714 H 0.9612 0.00391 0.13267 0.0
C715 C 0.94665 0.09719 0.15707 0.0
H716 H 0.92397 0.01401 0.17572 0.0
C717 C 0.96807 0.09141 0.13199 0.0
C718 C 0.97365 0.05777 0.12261 0.0
H719 H 0.94252 0.12329 0.16358 0.0
H720 H 0.97961 0.11315 0.1194 0.0
C721 C 0.95784 0.03024 0.13936 0.0
C722 C 0.26074 0.71022 0.38401 0.0
C723 C 0.28563 0.71828 0.41222 0.0
H724 H 0.23814 0.72575 0.33668 0.0
C725 C 0.30771 0.74942 0.41305 0.0
H726 H 0.24311 0.68664 0.38239 0.0
C727 C 0.30497 0.77174 0.38637 0.0
C728 C 0.28009 0.76349 0.35825 0.0
H729 H 0.32714 0.75658 0.43427 0.0
H730 H 0.32241 0.79545 0.38773 0.0
C731 C 0.25795 0.73256 0.35753 0.0
C732 C 0.52949 1.00182 0.68945 0.0
C733 C 0.55881 0.98902 0.69729 0.0
H734 H 0.49667 0.01789 0.65007 0.0
C735 C 0.57692 0.98087 0.66956 0.0
H736 H 0.5149 0.00831 0.71012 0.0
C737 C 0.56667 0.98678 0.6351 0.0
C738 C 0.5378 1.0005 0.62741 0.0
H739 H 0.59969 0.97111 0.67463 0.0
H740 H 0.58173 0.98118 0.61457 0.0
C741 C 0.51898 0.00724 0.65494 0.0
C742 C 0.29704 0.34078 0.97636 0.0
C743 C 0.27562 0.36427 0.98286 0.0
H744 H 0.31144 0.30458 0.93876 0.0
C745 C 0.25002 0.36678 0.95723 0.0
H746 H 0.31683 0.33819 0.99582 0.0
C747 C 0.24684 0.34749 0.92504 0.0
C748 C 0.26924 0.32545 0.91781 0.0
H749 H 0.23281 0.38425 0.96168 0.0
H750 H 0.22745 0.35076 0.90536 0.0
C751 C 0.2939 0.3215 0.94389 0.0
C752 C 0.93658 0.07842 0.35186 0.0
C753 C 0.94195 0.05598 0.32359 0.0
H754 H 0.94924 0.09583 0.40617 0.0
C755 C 0.96731 0.03643 0.32772 0.0
H756 H 0.91743 0.09411 0.34935 0.0
C757 C 0.98545 0.03749 0.36019 0.0
C758 C 0.97856 0.05818 0.38894 0.0
H759 H 0.97223 0.01915 0.30634 0.0
H760 H 1.00387 0.02097 0.36314 0.0
C761 C 0.9548 0.07952 0.38434 0.0
C762 C 0.26874 0.74908 0.60622 0.0
C763 C 0.29411 0.73047 0.5994 0.0
H764 H 0.24519 0.77587 0.64426 0.0
C765 C 0.31682 0.72643 0.62766 0.0
H766 H 0.25078 0.7529 0.58527 0.0
C767 C 0.31362 0.73989 0.66191 0.0
C768 C 0.28758 0.75761 0.66873 0.0
H769 H 0.33661 0.7122 0.62349 0.0
H770 H 0.33103 0.73553 0.68316 0.0
C771 C 0.26549 0.76234 0.64026 0.0
C772 C 0.55034 0.97819 0.88727 0.0
C773 C 0.57254 0.00711 0.88031 0.0
H774 H 0.51435 0.95737 0.92011 0.0
C775 C 0.57494 0.03793 0.90221 0.0
H776 H 0.5478 0.95404 0.87106 0.0
C777 C 0.55577 0.03981 0.93021 0.0
C778 C 0.53372 0.01094 0.93719 0.0
H779 H 0.59164 0.06083 0.89774 0.0
H780 H 0.55796 0.06406 0.94615 0.0
C781 C 0.53112 0.98012 0.91535 0.0
C782 C 0.21044 0.33434 0.12104 0.0
C783 C 0.23894 0.3538 0.11147 0.0
H784 H 0.19073 0.29499 0.15236 0.0
C785 C 0.26938 0.34397 0.12048 0.0
H786 H 0.18665 0.34113 0.11364 0.0
C787 C 0.27169 0.31691 0.1413 0.0
C788 C 0.24369 0.29994 0.15455 0.0
H789 H 0.29161 0.35796 0.11234 0.0
H790 H 0.29585 0.31138 0.14934 0.0
C791 C 0.2128 0.30769 0.14278 0.0
C792 C 0.13731 0.98709 0.02349 0.0
C793 C 0.13913 0.96783 0.05284 0.0
H794 H 0.11381 0.02425 0.99688 0.0
C795 C 0.11747 0.97223 0.07836 0.0
H796 H 0.15352 0.98462 1.00331 0.0
C797 C 0.09468 0.99496 0.07461 0.0
C798 C 0.09274 0.01392 0.04519 0.0
H799 H 0.11806 0.95807 0.10142 0.0
H800 H 0.07864 0.99785 0.09489 0.0
C801 C 0.11458 0.00997 0.01986 0.0
C802 C 0.64291 0.60691 0.94612 0.0
C803 C 0.67039 0.59185 0.95612 0.0
H804 H 0.5923 0.6082 0.95134 0.0
C805 C 0.66682 0.56368 0.97669 0.0
H806 H 0.64493 0.62859 0.93024 0.0
C807 C 0.63705 0.55263 0.98937 0.0
C808 C 0.61015 0.569 0.98105 0.0
H809 H 0.68748 0.55135 0.98476 0.0
H810 H 0.63529 0.53173 0.00627 0.0
C811 C 0.61289 0.59538 0.95833 0.0
C812 C 0.72885 0.40195 0.2556 0.0
C813 C 0.72702 0.42216 0.28689 0.0
H814 H 0.74971 0.36125 0.23061 0.0
C815 C 0.74591 0.41652 0.31749 0.0
H816 H 0.7147 0.40562 0.23151 0.0
C817 C 0.76601 0.39113 0.31682 0.0
C818 C 0.76735 0.37067 0.28564 0.0
H819 H 0.74515 0.43164 0.34199 0.0
H820 H 0.77997 0.38704 0.34088 0.0
C821 C 0.74878 0.37644 0.25503 0.0
C822 C 0.82582 0.46502 0.52086 0.0
C823 C 0.81753 0.4558 0.55395 0.0
H824 H 0.86419 0.48371 0.48991 0.0
C825 C 0.84251 0.4597 0.58189 0.0
H826 H 0.80722 0.4623 0.49875 0.0
C827 C 0.87503 0.47176 0.57673 0.0
C828 C 0.88335 0.48028 0.54354 0.0
H829 H 0.83708 0.45289 0.60773 0.0
H830 H 0.89374 0.47409 0.59871 0.0
C831 C 0.85843 0.47719 0.51573 0.0
C832 C 0.30941 0.1455 0.2104 0.0
C833 C 0.33905 0.15086 0.23244 0.0
H834 H 0.26463 0.16389 0.19554 0.0
C835 C 0.34693 0.18112 0.25543 0.0
H836 H 0.30253 0.1225 0.19235 0.0
C837 C 0.32528 0.20498 0.25694 0.0
C838 C 0.29516 0.19889 0.23579 0.0
H839 H 0.36958 0.18613 0.27266 0.0
H840 H 0.33172 0.22768 0.27544 0.0
C841 C 0.28763 0.16917 0.2122 0.0
C842 C 0.34205 0.05172 0.48487 0.0
C843 C 0.3299 0.06964 0.51225 0.0
H844 H 0.37873 0.02269 0.47006 0.0
C845 C 0.34347 0.06889 0.54691 0.0
H846 H 0.33176 0.05188 0.45799 0.0
C847 C 0.3708 0.05296 0.55376 0.0
C848 C 0.3841 0.03677 0.52611 0.0
H849 H 0.33447 0.08268 0.56842 0.0
H850 H 0.38247 0.05477 0.58034 0.0
C851 C 0.36871 0.03488 0.49184 0.0
C852 C 0.74804 0.60827 0.27272 0.0
C853 C 0.73309 0.59701 0.30209 0.0
H854 H 0.76732 0.65116 0.24561 0.0
C855 C 0.72861 0.62185 0.32864 0.0
H856 H 0.75195 0.58993 0.25177 0.0
C857 C 0.73769 0.65717 0.32519 0.0
C858 C 0.75109 0.66838 0.29493 0.0
H859 H 0.7172 0.61406 0.35162 0.0
H860 H 0.733 0.67566 0.3456 0.0
C861 C 0.75675 0.64348 0.2691 0.0
C862 C 0.81521 0.46129 0.71861 0.0
C863 C 0.83103 0.48312 0.74775 0.0
H864 H 0.78708 0.41177 0.70011 0.0
C865 C 0.82785 0.4724 0.78152 0.0
H866 H 0.81717 0.46884 0.69229 0.0
C867 C 0.81002 0.4401 0.78601 0.0
C868 C 0.79556 0.41767 0.7568 0.0
H869 H 0.83951 0.48881 0.80451 0.0
H870 H 0.80876 0.43211 0.81225 0.0
C871 C 0.79792 0.4287 0.72309 0.0
C872 C 0.98257 0.84462 0.09236 0.0
C873 C 0.0137 0.83781 0.10455 0.0
H874 H 0.95535 0.87866 0.06533 0.0
C875 C 0.04166 0.85935 0.09616 0.0
H876 H 0.96057 0.82837 0.09827 0.0
C877 C 0.03862 0.88818 0.07784 0.0
C878 C 0.00759 0.89574 0.06688 0.0
H879 H 0.066 0.85489 0.10507 0.0
H880 H 0.06064 0.90515 0.07311 0.0
C881 C 0.97955 0.87322 0.07338 0.0
C882 C 0.90639 0.23795 0.79448 0.0
C883 C 0.92845 0.2686 0.8056 0.0
H884 H 0.85736 0.21473 0.77461 0.0
C885 C 0.91724 0.30029 0.80265 0.0
H886 H 0.91405 0.21304 0.79632 0.0
C887 C 0.8847 0.30127 0.7898 0.0
C888 C 0.86232 0.27058 0.77982 0.0
H889 H 0.93348 0.32443 0.81084 0.0
H890 H 0.87687 0.32617 0.78878 0.0
C891 C 0.87378 0.23892 0.78196 0.0
C892 C 0.49602 0.15426 0.61178 0.0
C893 C 0.51111 0.18693 0.60392 0.0
H894 H 0.48861 0.09937 0.59848 0.0
C895 C 0.52867 0.18906 0.57439 0.0
H896 H 0.48223 0.15174 0.63426 0.0
C897 C 0.53212 0.15933 0.55396 0.0
C898 C 0.51825 0.12663 0.56256 0.0
H899 H 0.54034 0.21378 0.56726 0.0
H900 H 0.54645 0.16196 0.53187 0.0
C901 C 0.49961 0.12432 0.59128 0.0
C902 C 0.62597 0.80313 0.29484 0.0
C903 C 0.62567 0.794 0.32951 0.0
H904 H 0.65239 0.80676 0.24937 0.0
C905 C 0.65317 0.78165 0.34488 0.0
H906 H 0.60531 0.81276 0.28215 0.0
C907 C 0.6799 0.77798 0.32607 0.0
C908 C 0.68018 0.78695 0.29145 0.0
H909 H 0.65394 0.77423 0.37145 0.0
H910 H 0.70018 0.76758 0.33855 0.0
C911 C 0.65298 0.79975 0.27608 0.0
C912 C 0.99562 0.16517 0.49481 0.0
C913 C 0.02255 0.1919 0.4965 0.0
H914 H 0.9777 0.11463 0.50922 0.0
C915 C 0.05206 0.18875 0.51597 0.0
H916 H 0.97263 0.16689 0.47988 0.0
C917 C 0.05483 0.15907 0.53282 0.0
C918 C 0.0283 0.13192 0.53003 0.0
H919 H 0.07318 0.20904 0.5178 0.0
H920 H 0.07801 0.15696 0.54716 0.0
C921 C 0.99856 0.13525 0.51131 0.0
C922 C 0.58752 0.26102 0.20715 0.0
C923 C 0.58311 0.2859 0.1836 0.0
H924 H 0.62092 0.24198 0.24355 0.0
C925 C 0.60919 0.3126 0.18061 0.0
H926 H 0.56781 0.2403 0.21021 0.0
C927 C 0.63956 0.31349 0.19967 0.0
C928 C 0.64422 0.28783 0.2221 0.0
H929 H 0.60646 0.33227 0.16282 0.0
H930 H 0.65959 0.3337 0.19613 0.0
C931 C 0.61785 0.26203 0.22631 0.0
C932 C 0.56827 0.89029 0.99135 0.0
C933 C 0.54674 0.86275 1.00204 0.0
H934 H 0.58168 0.94511 0.99227 0.0
C935 C 0.52488 0.86974 0.02634 0.0
H936 H 0.58559 0.88566 0.97287 0.0
C937 C 0.5225 0.90373 0.03724 0.0
C938 C 0.54224 0.9313 0.02441 0.0
H939 H 0.50816 0.84908 0.03534 0.0
H940 H 0.5041 0.90842 0.05439 0.0
C941 C 0.56615 0.92433 1.0026 0.0
C942 C 0.92771 0.81922 0.69305 0.0
C943 C 0.94014 0.78806 0.69075 0.0
H944 H 0.89454 0.84801 0.7165 0.0
C945 C 0.9308 0.76295 0.7136 0.0
H946 H 0.93498 0.83931 0.67622 0.0
C947 C 0.9077 0.76801 0.73674 0.0
C948 C 0.89394 0.79837 0.73755 0.0
H949 H 0.94029 0.73883 0.71261 0.0
H950 H 0.89939 0.74746 0.75266 0.0
C951 C 0.90493 0.82443 0.71645 0.0
C952 C 0.07065 0.03406 0.88461 0.0
C953 C 0.09415 0.01201 0.88606 0.0
H954 H 0.02975 0.05036 0.90663 0.0
C955 C 0.09156 0.98605 0.90929 0.0
H956 H 0.0715 0.05388 0.86649 0.0
C957 C 0.06729 0.98391 0.93243 0.0
C958 C 0.04523 0.00765 0.93254 0.0
H959 H 0.10916 0.96849 0.91075 0.0
H960 H 0.06721 0.96516 0.95165 0.0
C961 C 0.04644 0.03182 0.90745 0.0
C962 C 0.74698 0.33928 0.63565 0.0
C963 C 0.71573 0.3304 0.61654 0.0
H964 H 0.78123 0.32651 0.67622 0.0
C965 C 0.69431 0.30218 0.62622 0.0
H966 H 0.76434 0.36057 0.62874 0.0
C967 C 0.70375 0.28327 0.65379 0.0
C968 C 0.73504 0.2917 0.6726 0.0
H969 H 0.67008 0.29447 0.61233 0.0
H970 H 0.68641 0.26174 0.66028 0.0
C971 C 0.75662 0.31993 0.66312 0.0
C972 C 0.45389 0.08324 0.38189 0.0
C973 C 0.47335 0.0769 0.35483 0.0
H974 H 0.44774 0.08178 0.4365 0.0
C975 C 0.50361 0.0663 0.36351 0.0
H976 H 0.4304 0.09137 0.37618 0.0
C977 C 0.51369 0.06108 0.39817 0.0
C978 C 0.4936 0.06595 0.425 0.0
H979 H 0.51927 0.06127 0.34339 0.0
H980 H 0.53679 0.05207 0.40367 0.0
C981 C 0.4638 0.07764 0.41652 0.0
C982 C 0.74866 0.67825 0.08861 0.0
C983 C 0.77814 0.68905 0.07433 0.0
H984 H 0.71895 0.68623 0.13013 0.0
C985 C 0.79996 0.71776 0.09072 0.0
H986 H 0.7313 0.6562 0.07647 0.0
C987 C 0.79261 0.73511 0.12113 0.0
C988 C 0.76348 0.72383 0.1357 0.0
H989 H 0.82273 0.72678 0.08018 0.0
H990 H 0.81012 0.75685 0.13366 0.0
C991 C 0.74145 0.69545 0.11917 0.0
C992 C 0.09318 0.05033 0.72415 0.0
C993 C 0.11297 0.0253 0.73087 0.0
H994 H 0.06164 0.07013 0.68658 0.0
C995 C 0.11458 0.99919 0.70442 0.0
H996 H 0.09122 0.07051 0.74419 0.0
C997 C 0.09785 0.99921 0.67119 0.0
C998 C 0.07895 0.02498 0.66431 0.0
H999 H 0.12967 0.97957 0.70901 0.0
H1000 H 0.1003 0.97963 0.65073 0.0
C1001 C 0.07613 0.05001 0.69124 0.0
C1002 C 0.76072 0.31799 0.44435 0.0
C1003 C 0.73602 0.33818 0.44855 0.0
H1004 H 0.78543 0.28909 0.40929 0.0
C1005 C 0.7155 0.34268 0.41859 0.0
H1006 H 0.77695 0.31373 0.46669 0.0
C1007 C 0.72045 0.32839 0.3852 0.0
C1008 C 0.746 0.30923 0.38102 0.0
H1009 H 0.6963 0.35816 0.42075 0.0
H1010 H 0.70492 0.3333 0.36258 0.0
C1011 C 0.76563 0.30379 0.41121 0.0
C1012 C 0.46746 0.0214 0.15895 0.0
C1013 C 0.46598 0.05304 0.17789 0.0
H1014 H 0.48669 0.99547 0.1164 0.0
C1015 C 0.48338 0.08349 0.16736 0.0
H1016 H 0.45428 0.99743 0.16619 0.0
C1017 C 0.50212 0.08224 0.13891 0.0
C1018 C 0.50343 0.05061 0.12002 0.0
H1019 H 0.4828 0.10827 0.18131 0.0
H1020 H 0.51541 0.10609 0.13151 0.0
C1021 C 0.48584 0.02024 0.13025 0.0
C1022 C 0.80452 0.71089 0.90072 0.0
C1023 C 0.78202 0.71476 0.92521 0.0
H1024 H 0.82193 0.72622 0.85268 0.0
C1025 C 0.76291 0.74107 0.92268 0.0
H1026 H 0.8198 0.69105 0.90236 0.0
C1027 C 0.76394 0.7609 0.89421 0.0
C1028 C 0.78458 0.75519 0.86832 0.0
H1029 H 0.74553 0.74484 0.94135 0.0
H1030 H 0.74727 0.77934 0.89142 0.0
C1031 C 0.806 0.73124 0.87256 0.0
C1032 C 0.90022 0.09542 0.99571 0.0
C1033 C 0.87973 0.09405 0.02305 0.0
H1034 H 0.9382 0.07387 0.97125 0.0
C1035 C 0.88364 0.07004 0.04781 0.0
H1036 H 0.89786 0.11338 0.976 0.0
C1037 C 0.90672 0.04786 0.04523 0.0
C1038 C 0.92695 0.04878 0.01785 0.0
H1039 H 0.86863 0.0681 0.06937 0.0
H1040 H 0.90869 0.02984 0.06496 0.0
C1041 C 0.92343 0.07286 0.99302 0.0
C1042 C 0.39844 0.46952 0.09603 0.0
C1043 C 0.3701 0.48091 0.08178 0.0
H1044 H 0.45057 0.47369 0.09715 0.0
C1045 C 0.37322 0.50825 0.06018 0.0
H1046 H 0.3968 0.44858 0.11285 0.0
C1047 C 0.40374 0.52228 0.05101 0.0
C1048 C 0.43185 0.50957 0.06356 0.0
H1049 H 0.35191 0.51793 0.04906 0.0
H1050 H 0.40518 0.54246 0.03327 0.0
C1051 C 0.42918 0.48388 0.08708 0.0
C1052 C 0.30475 0.65754 0.79839 0.0
C1053 C 0.30482 0.63682 0.76699 0.0
H1054 H 0.28823 0.70119 0.82349 0.0
C1055 C 0.28741 0.64451 0.73633 0.0
H1056 H 0.31801 0.65236 0.82246 0.0
C1057 C 0.27026 0.67232 0.73709 0.0
C1058 C 0.27063 0.6932 0.76837 0.0
H1059 H 0.28698 0.62903 0.71177 0.0
H1060 H 0.25718 0.67785 0.71305 0.0
C1061 C 0.28787 0.68556 0.79903 0.0
C1062 C 0.19658 0.6102 0.50365 0.0
C1063 C 0.2197 0.61011 0.53274 0.0
H1064 H 0.14605 0.59802 0.48249 0.0
C1065 C 0.20883 0.59603 0.56301 0.0
H1066 H 0.20402 0.6209 0.47995 0.0
C1067 C 0.17569 0.58298 0.56442 0.0
C1068 C 0.15255 0.58376 0.53567 0.0
H1069 H 0.22587 0.59548 0.58592 0.0
H1070 H 0.16812 0.57269 0.58827 0.0
C1071 C 0.16335 0.59721 0.50513 0.0
C1072 C 0.68946 0.88184 0.79789 0.0
C1073 C 0.68784 0.90392 0.77084 0.0
H1074 H 0.71459 0.84388 0.82124 0.0
C1075 C 0.71097 0.90431 0.74633 0.0
H1076 H 0.67189 0.88078 0.81705 0.0
C1077 C 0.73554 0.88393 0.74918 0.0
C1078 C 0.73731 0.86198 0.77615 0.0
H1079 H 0.71055 0.92097 0.72518 0.0
H1080 H 0.75309 0.88517 0.72996 0.0
C1081 C 0.71381 0.86074 0.80028 0.0
C1082 C 0.6974 0.02795 0.55228 0.0
C1083 C 0.70707 0.00958 0.52348 0.0
H1084 H 0.66011 0.05317 0.57224 0.0
C1085 C 0.68818 0.00625 0.49091 0.0
H1086 H 0.71182 0.031 0.57758 0.0
C1087 C 0.65834 0.01827 0.48804 0.0
C1088 C 0.64762 0.03443 0.51751 0.0
H1089 H 0.6952 0.99212 0.46835 0.0
H1090 H 0.64293 0.01337 0.46333 0.0
C1091 C 0.66797 0.04069 0.54919 0.0
C1092 C 0.30192 0.42109 0.70736 0.0
C1093 C 0.30964 0.44892 0.73333 0.0
H1094 H 0.2851 0.3671 0.69525 0.0
C1095 C 0.30449 0.44288 0.76816 0.0
H1096 H 0.30545 0.42478 0.68028 0.0
C1097 C 0.29285 0.40953 0.77692 0.0
C1098 C 0.28596 0.38153 0.75101 0.0
H1099 H 0.31021 0.46376 0.78886 0.0
H1100 H 0.28986 0.40566 0.80407 0.0
C1101 C 0.29018 0.3879 0.71605 0.0
C1102 C 0.19827 0.59436 0.29812 0.0
C1103 C 0.16877 0.58401 0.27624 0.0
H1104 H 0.24179 0.63247 0.31029 0.0
C1105 C 0.16171 0.60323 0.24807 0.0
H1106 H 0.20437 0.57988 0.31996 0.0
C1107 C 0.18323 0.63252 0.2422 0.0
C1108 C 0.21215 0.64362 0.2646 0.0
H1109 H 0.13945 0.59571 0.23044 0.0
H1110 H 0.17667 0.64703 0.22053 0.0
C1111 C 0.21975 0.6242 0.29248 0.0
C1112 C 0.53961 0.71386 0.44662 0.0
C1113 C 0.50894 0.71914 0.43119 0.0
H1114 H 0.56574 0.68296 0.47922 0.0
C1115 C 0.48056 0.69784 0.4389 0.0
H1116 H 0.56193 0.73 0.44143 0.0
C1117 C 0.4828 0.67109 0.4604 0.0
C1118 C 0.51342 0.66519 0.475 0.0
H1119 H 0.45654 0.70126 0.42768 0.0
H1120 H 0.46051 0.65446 0.46494 0.0
C1121 C 0.54181 0.68717 0.4685 0.0
C1122 C 0.60311 0.2422 0.75736 0.0
C1123 C 0.58895 0.26575 0.7377 0.0
H1124 H 0.64686 0.22781 0.78107 0.0
C1125 C 0.60936 0.29557 0.7295 0.0
H1126 H 0.58824 0.21914 0.76448 0.0
C1127 C 0.64337 0.30065 0.73914 0.0
C1128 C 0.6576 0.27599 0.75715 0.0
H1129 H 0.59927 0.31429 0.71438 0.0
H1130 H 0.65862 0.32292 0.73097 0.0
C1131 C 0.63687 0.24724 0.76693 0.0
C1132 C 0.03217 0.40618 0.94283 0.0
C1133 C 0.02024 0.37315 0.9525 0.0
H1134 H 0.03735 0.46102 0.95532 0.0
C1135 C 1.00631 0.37055 0.98439 0.0
H1136 H 0.04314 0.40913 0.91855 0.0
C1137 C 1.00295 0.4001 0.00527 0.0
C1138 C 0.01357 0.43304 0.99495 0.0
H1139 H 0.99706 0.3456 0.99291 0.0
H1140 H 0.99119 0.39711 0.02909 0.0
C1141 C 0.02893 0.43588 0.96393 0.0
C1142 C 0.91255 0.7781 0.2568 0.0
C1143 C 0.90687 0.76137 0.22268 0.0
H1144 H 0.89142 0.79611 0.30216 0.0
C1145 C 0.87427 0.74872 0.2088 0.0
H1146 H 0.93727 0.78814 0.26837 0.0
C1147 C 0.8481 0.75309 0.22829 0.0
C1148 C 0.85374 0.7707 0.26188 0.0
H1149 H 0.86888 0.73532 0.1828 0.0
H1150 H 0.8235 0.74222 0.21726 0.0
C1151 C 0.88627 0.78272 0.27614 0.0
C1152 C 0.55417 0.41562 0.05516 0.0
C1153 C 0.52795 0.38827 0.05448 0.0
H1154 H 0.57017 0.46623 0.03996 0.0
C1155 C 0.49762 0.39055 0.03614 0.0
H1156 H 0.57784 0.41452 0.06896 0.0
C1157 C 0.49325 0.42014 0.01986 0.0
C1158 C 0.51907 0.44789 0.02173 0.0
H1159 H 0.47697 0.3698 0.03499 0.0
H1160 H 0.46942 0.42163 0.00662 0.0
C1161 C 0.54974 0.44525 0.03884 0.0
C1162 C 0.93374 0.22904 0.35963 0.0
C1163 C 0.95792 0.25765 0.37142 0.0
H1164 H 0.8851 0.21153 0.33452 0.0
C1165 C 0.95215 0.29096 0.36502 0.0
H1166 H 0.93764 0.20312 0.36427 0.0
C1167 C 0.92255 0.29567 0.34754 0.0
C1168 C 0.89801 0.26723 0.33677 0.0
H1169 H 0.97053 0.31344 0.37356 0.0
H1170 H 0.91858 0.32165 0.34325 0.0
C1171 C 0.90378 0.23384 0.34272 0.0
C1172 C 0.953 0.66713 0.55986 0.0
C1173 C 0.97661 0.69645 0.558 0.0
H1174 H 0.94162 0.61203 0.55359 0.0
C1175 C 1.00598 0.69242 0.54396 0.0
H1176 H 0.93009 0.66941 0.5704 0.0
C1177 C 0.01267 0.65962 0.53441 0.0
C1178 C 0.99007 0.63013 0.53859 0.0
H1179 H 0.02456 0.71456 0.54178 0.0
H1180 H 0.03614 0.6574 0.52515 0.0
C1181 C 0.95968 0.63424 0.55022 0.0
C1182 C 0.59782 0.79851 0.8115 0.0
C1183 C 0.58877 0.77476 0.83572 0.0
H1184 H 0.62959 0.81211 0.77219 0.0
C1185 C 0.60071 0.74329 0.83463 0.0
H1186 H 0.58868 0.82281 0.81165 0.0
C1187 C 0.62345 0.73686 0.81162 0.0
C1188 C 0.63493 0.76205 0.78983 0.0
H1189 H 0.59354 0.72424 0.85259 0.0
H1190 H 0.63381 0.71333 0.81284 0.0
C1191 C 0.621 0.79228 0.78879 0.0
C1192 C 0.44322 0.60029 0.64928 0.0
C1193 C 0.42758 0.57257 0.66588 0.0
H1194 H 0.47584 0.61632 0.6113 0.0
C1195 C 0.43538 0.53956 0.65854 0.0
H1196 H 0.4378 0.62608 0.65458 0.0
C1197 C 0.45773 0.53415 0.63462 0.0
C1198 C 0.47247 0.56149 0.61683 0.0
H1199 H 0.42413 0.51775 0.67125 0.0
H1200 H 0.46238 0.50808 0.62913 0.0
C1201 C 0.46521 0.59475 0.62471 0.0
C1202 C 0.75349 0.21218 0.88981 0.0
C1203 C 0.78205 0.21755 0.91366 0.0
H1204 H 0.72805 0.22794 0.84429 0.0
C1205 C 0.80771 0.24395 0.90838 0.0
H1206 H 0.73307 0.19228 0.89293 0.0
C1207 C 0.80476 0.26436 0.88007 0.0
C1208 C 0.77622 0.25869 0.85628 0.0
H1209 H 0.83002 0.24894 0.92615 0.0
H1210 H 0.82494 0.28443 0.87664 0.0
C1211 C 0.75061 0.23248 0.86164 0.0
C1212 C 0.027 0.49343 0.19321 0.0
C1213 C 0.05812 0.4851 0.20273 0.0
H1214 H 0.99351 0.5061 0.15241 0.0
C1215 C 0.07897 0.48142 0.17635 0.0
H1216 H 0.01026 0.49647 0.21273 0.0
C1217 C 0.06939 0.48707 0.14163 0.0
C1218 C 0.03866 0.49648 0.13234 0.0
H1219 H 0.10313 0.47506 0.18265 0.0
H1220 H 0.08641 0.48477 0.12225 0.0
C1221 C 0.01739 0.499 0.1585 0.0
C1222 C 0.74788 0.86862 0.45221 0.0
C1223 C 0.76935 0.86244 0.48052 0.0
H1224 H 0.73023 0.8557 0.39821 0.0
C1225 C 0.78785 0.8357 0.47648 0.0
H1226 H 0.73304 0.8888 0.45464 0.0
C1227 C 0.78618 0.81672 0.44408 0.0
C1228 C 0.76596 0.82424 0.41545 0.0
H1229 H 0.80445 0.83022 0.49793 0.0
H1230 H 0.80156 0.7971 0.44113 0.0
C1231 C 0.7462 0.84965 0.41994 0.0
C1232 C 0.45499 0.53105 0.82633 0.0
C1233 C 0.43184 0.55297 0.82061 0.0
H1234 H 0.48814 0.51288 0.86357 0.0
C1235 C 0.42644 0.57598 0.84842 0.0
H1236 H 0.45984 0.5132 0.8054 0.0
C1237 C 0.44266 0.57574 0.88178 0.0
C1238 C 0.46448 0.55253 0.88771 0.0
H1239 H 0.40886 0.59334 0.84474 0.0
H1240 H 0.43736 0.59287 0.90309 0.0
C1241 C 0.47115 0.53083 0.85962 0.0
C1242 C 0.8398 0.2221 0.14769 0.0
C1243 C 0.81951 0.21973 0.116 0.0
H1244 H 0.84713 0.23784 0.20259 0.0
C1245 C 0.79029 0.23369 0.11623 0.0
H1246 H 0.86246 0.21171 0.1487 0.0
C1247 C 0.78124 0.24869 0.14751 0.0
C1248 C 0.80131 0.25038 0.17936 0.0
H1249 H 0.77391 0.23222 0.0924 0.0
H1250 H 0.75824 0.2584 0.14681 0.0
C1251 C 0.83093 0.23725 0.17877 0.0
C1252 C 0.07438 0.54257 0.41075 0.0
C1253 C 0.07307 0.51224 0.38844 0.0
H1254 H 0.05594 0.56708 0.45463 0.0
C1255 C 0.05145 0.48252 0.39451 0.0
H1256 H 0.09056 0.56604 0.40686 0.0
C1257 C 0.03184 0.48315 0.42231 0.0
C1258 C 0.03342 0.51345 0.44463 0.0
H1259 H 0.04978 0.45873 0.37793 0.0
H1260 H 0.0156 0.4598 0.42649 0.0
C1261 C 0.05472 0.54318 0.43839 0.0
C1262 C 0.7704 0.85153 0.62704 0.0
C1263 C 0.74044 0.86283 0.61925 0.0
H1264 H 0.79677 0.81949 0.65676 0.0
C1265 C 0.7124 0.84706 0.63309 0.0
H1266 H 0.79221 0.86273 0.61588 0.0
C1267 C 0.71501 0.82228 0.65695 0.0
C1268 C 0.74559 0.81269 0.66661 0.0
H1269 H 0.68897 0.85517 0.62694 0.0
H1270 H 0.69352 0.81216 0.66921 0.0
C1271 C 0.77289 0.82642 0.65017 0.0
C1272 C 0.61774 0.47637 0.57771 0.0
C1273 C 0.63901 0.47002 0.55232 0.0
H1274 H 0.57966 0.50377 0.59299 0.0
C1275 C 0.6376 0.48812 0.52209 0.0
H1276 H 0.61809 0.46326 0.60147 0.0
C1277 C 0.61546 0.51152 0.51736 0.0
C1278 C 0.59374 0.5171 0.54241 0.0
H1279 H 0.65359 0.48422 0.502 0.0
H1280 H 0.61491 0.52477 0.49368 0.0
C1281 C 0.59553 0.49956 0.57284 0.0
C1282 C 0.16071 0.09918 0.45982 0.0
C1283 C 0.18093 0.12081 0.48634 0.0
H1284 H 0.11488 0.06512 0.44638 0.0
C1285 C 0.17151 0.12356 0.52037 0.0
H1286 H 0.16781 0.09673 0.43348 0.0
C1287 C 0.14224 0.10478 0.52796 0.0
C1288 C 0.1216 0.08377 0.50139 0.0
H1289 H 0.18706 0.13984 0.54129 0.0
H1290 H 0.13535 0.10737 0.55439 0.0
C1291 C 0.13074 0.0812 0.46719 0.0
C1292 C 0.24721 0.92076 0.81606 0.0
C1293 C 0.2263 0.92664 0.78709 0.0
H1294 H 0.28237 0.89072 0.83608 0.0
C1295 C 0.22563 0.9064 0.75521 0.0
H1296 H 0.24835 0.9359 0.84094 0.0
C1297 C 0.24502 0.88055 0.75251 0.0
C1298 C 0.26558 0.8745 0.78152 0.0
H1299 H 0.20984 0.91022 0.73234 0.0
H1300 H 0.2439 0.86524 0.72772 0.0
C1301 C 0.26682 0.89505 0.81322 0.0
C1302 C 0.32737 0.96919 0.02095 0.0
C1303 C 0.32041 0.95868 0.05402 0.0
H1304 H 0.36438 0.98863 0.9887 0.0
C1305 C 0.34634 0.96149 0.08078 0.0
H1306 H 0.30801 0.96727 0.9997 0.0
C1307 C 0.37852 0.97361 0.07439 0.0
C1308 C 0.38553 0.98314 0.04111 0.0
H1309 H 0.34192 0.95371 0.10657 0.0
H1310 H 0.398 0.97501 0.09544 0.0
C1311 C 0.35964 0.98129 0.01456 0.0
C1312 C 0.81837 0.65039 0.76875 0.0
C1313 C 0.8426 0.65692 0.74571 0.0
H1314 H 0.77533 0.66494 0.78839 0.0
C1315 C 0.84117 0.68411 0.72412 0.0
H1316 H 0.81858 0.62965 0.78571 0.0
C1317 C 0.81627 0.7043 0.72569 0.0
C1318 C 0.79225 0.69779 0.74885 0.0
H1319 H 0.85936 0.68994 0.70607 0.0
H1320 H 0.81588 0.72511 0.70883 0.0
C1321 C 0.79344 0.67049 0.77018 0.0
C1322 C 0.83685 0.53638 0.99774 0.0
C1323 C 0.82716 0.55711 0.02473 0.0
H1324 H 0.87235 0.50628 0.98203 0.0
C1325 C 0.84375 0.56 0.05851 0.0
H1326 H 0.82407 0.53362 0.97159 0.0
C1327 C 0.87178 0.54498 0.06434 0.0
C1328 C 0.88279 0.52629 0.03664 0.0
H1329 H 0.83653 0.57594 0.07965 0.0
H1330 H 0.88583 0.54963 0.08987 0.0
C1331 C 0.86426 0.52061 1.0038 0.0
C1332 C 0.21992 0.12665 0.83122 0.0
C1333 C 0.22583 0.10162 0.80553 0.0
H1334 H 0.22264 0.18072 0.84684 0.0
C1335 C 0.2411 0.11275 0.77636 0.0
H1336 H 0.20816 0.11893 0.85402 0.0
C1337 C 0.24899 0.14784 0.77212 0.0
C1338 C 0.24214 0.17294 0.79707 0.0
H1339 H 0.24616 0.09433 0.75608 0.0
H1340 H 0.26013 0.15524 0.74886 0.0
C1341 C 0.22818 0.16203 0.82713 0.0
C1342 C 0.33075 0.96318 0.21435 0.0
C1343 C 0.34032 0.98955 0.24164 0.0
H1344 H 0.30774 0.91092 0.19969 0.0
C1345 C 0.33079 0.98395 0.27522 0.0
H1346 H 0.33756 0.96667 0.18819 0.0
C1347 C 0.31324 0.95208 0.28167 0.0
C1348 C 0.30539 0.92522 0.25478 0.0
H1349 H 0.33757 0.0039 0.29673 0.0
H1350 H 0.3072 0.94797 0.30799 0.0
C1351 C 0.31367 0.93126 0.22094 0.0
C1352 C 0.48332 0.35101 0.5939 0.0
C1353 C 0.5137 0.34724 0.61126 0.0
H1354 H 0.45735 0.38132 0.56048 0.0
C1355 C 0.54195 0.36985 0.60545 0.0
H1356 H 0.46115 0.33379 0.59764 0.0
C1357 C 0.53971 0.39678 0.58434 0.0
C1358 C 0.50925 0.40155 0.56836 0.0
H1359 H 0.56578 0.3675 0.61809 0.0
H1360 H 0.56178 0.41459 0.58147 0.0
C1361 C 0.48113 0.37798 0.57245 0.0
C1362 C 0.42289 0.8067 0.30491 0.0
C1363 C 0.43431 0.77498 0.30613 0.0
H1364 H 0.38218 0.83281 0.29391 0.0
C1365 C 0.41206 0.74446 0.29502 0.0
H1366 H 0.43925 0.83076 0.31318 0.0
C1367 C 0.37909 0.74558 0.28412 0.0
C1368 C 0.36749 0.77728 0.28369 0.0
H1369 H 0.41989 0.71952 0.29562 0.0
H1370 H 0.36258 0.72148 0.27663 0.0
C1371 C 0.39004 0.80785 0.29372 0.0
C1372 C 0.97859 0.65123 0.08777 0.0
C1373 C 0.99777 0.66988 0.11716 0.0
H1374 H 0.97291 0.60817 0.04883 0.0
C1375 C 0.026 0.65765 0.13067 0.0
H1376 H 0.95663 0.65979 0.07678 0.0
C1377 C 0.03545 0.62829 0.11443 0.0
C1378 C 0.01675 0.61027 0.08455 0.0
H1379 H 0.04135 0.67132 0.15326 0.0
H1380 H 0.05773 0.62 0.12496 0.0
C1381 C 0.98788 0.62163 0.07177 0.0
C1382 C 0.14977 0.28564 0.84363 0.0
C1383 C 0.1196 0.29167 0.82749 0.0
H1384 H 0.19843 0.27651 0.83719 0.0
C1385 C 0.11674 0.29465 0.79114 0.0
H1386 H 0.15295 0.28277 0.87144 0.0
C1387 C 0.14331 0.29158 0.77158 0.0
C1388 C 0.17339 0.2857 0.78793 0.0
H1389 H 0.09392 0.29911 0.77773 0.0
H1390 H 0.1403 0.29378 0.74363 0.0
C1391 C 0.17617 0.28254 0.8241 0.0
C1392 C 0.54919 0.68769 0.00558 0.0
C1393 C 0.51875 0.69105 0.98825 0.0
H1394 H 0.57649 0.65634 0.03578 0.0
C1395 C 0.49161 0.66511 0.9894 0.0
H1396 H 0.57051 0.70738 0.00528 0.0
C1397 C 0.49517 0.63579 0.00672 0.0
C1398 C 0.5258 0.63225 0.0233 0.0
H1399 H 0.46788 0.66702 0.97623 0.0
H1400 H 0.47407 0.61583 0.00695 0.0
C1401 C 0.55264 0.65859 0.02311 0.0
C1402 C 0.08788 0.75445 0.69616 0.0
C1403 C 0.08177 0.78198 0.67679 0.0
H1404 H 0.12116 0.73556 0.73269 0.0
C1405 C 0.10387 0.81324 0.68167 0.0
H1406 H 0.07095 0.73027 0.69325 0.0
C1407 C 0.13265 0.81619 0.70409 0.0
C1408 C 0.13935 0.7881 0.72223 0.0
H1409 H 0.09955 0.83495 0.66719 0.0
H1410 H 0.15015 0.83994 0.70626 0.0
C1411 C 0.11639 0.75759 0.71897 0.0
C1412 C 0.0268 0.37005 0.53132 0.0
C1413 C 0.04901 0.36384 0.50712 0.0
H1414 H 1.00499 0.40771 0.55963 0.0
C1415 C 0.06983 0.39201 0.49652 0.0
H1416 H 0.0106 0.34894 0.54029 0.0
C1417 C 0.06681 0.42581 0.50797 0.0
C1418 C 0.04272 0.43191 0.52992 0.0
H1419 H 0.08733 0.38804 0.47806 0.0
H1420 H 0.08187 0.44705 0.49782 0.0
C1421 C 0.02354 0.40375 0.54242 0.0
C1422 C 0.41503 0.3259 0.16899 0.0
C1423 C 0.44333 0.31826 0.18741 0.0
H1424 H 0.36549 0.33381 0.17115 0.0
C1425 C 0.44386 0.31422 0.22337 0.0
H1426 H 0.41428 0.32951 0.14131 0.0
C1427 C 0.41576 0.31597 0.24028 0.0
C1428 C 0.38728 0.32294 0.22164 0.0
H1429 H 0.46554 0.30839 0.23803 0.0
H1430 H 0.41605 0.31119 0.26766 0.0
C1431 C 0.38734 0.32874 0.18612 0.0
C1432 C 0.56235 0.52263 0.37158 0.0
C1433 C 0.58799 0.50319 0.37417 0.0
H1434 H 0.52341 0.54084 0.39621 0.0
C1435 C 0.59147 0.48379 0.40311 0.0
H1436 H 0.55886 0.53781 0.34961 0.0
C1437 C 0.57042 0.48487 0.4295 0.0
C1438 C 0.54607 0.50598 0.42776 0.0
H1439 H 0.61083 0.46838 0.40571 0.0
H1440 H 0.57446 0.47076 0.45219 0.0
C1441 C 0.54188 0.52428 0.39822 0.0
C1442 C 0.24964 0.80048 0.10779 0.0
C1443 C 0.23964 0.83306 0.11103 0.0
H1444 H 0.26453 0.75826 0.13364 0.0
C1445 C 0.23796 0.84827 0.14501 0.0
H1446 H 0.25134 0.7878 0.08223 0.0
C1447 C 0.24582 0.83111 0.17477 0.0
C1448 C 0.25576 0.79853 0.17121 0.0
H1449 H 0.23034 0.87325 0.1486 0.0
H1450 H 0.24304 0.84283 0.2004 0.0
C1451 C 0.25742 0.78349 0.13735 0.0
C1452 C 0.94898 0.57535 0.88728 0.0
C1453 C 0.96911 0.57189 0.86021 0.0
H1454 H 0.94283 0.5713 0.94153 0.0
C1455 C 1.00064 0.5641 0.86877 0.0
H1456 H 0.92456 0.5813 0.88173 0.0
C1457 C 0.01131 0.55872 0.9033 0.0
C1458 C 0.99051 0.5605 0.92998 0.0
H1459 H 0.01684 0.56132 0.84863 0.0
H1460 H 0.03534 0.55176 0.90875 0.0
C1461 C 0.95945 0.5695 0.92163 0.0
C1462 C 0.31183 0.23626 0.59424 0.0
C1463 C 0.29313 0.20653 0.57583 0.0
H1464 H 0.31655 0.27312 0.63901 0.0
C1465 C 0.2642 0.19112 0.58866 0.0
H1466 H 0.33412 0.24872 0.58491 0.0
C1467 C 0.25404 0.20521 0.61911 0.0
C1468 C 0.27263 0.23488 0.6374 0.0
H1469 H 0.24914 0.16817 0.57509 0.0
H1470 H 0.23177 0.19269 0.62847 0.0
C1471 C 0.30162 0.25035 0.62492 0.0
C1472 C 0.60654 0.55779 0.21555 0.0
C1473 C 0.62093 0.5289 0.22324 0.0
H1474 H 0.57821 0.58123 0.17799 0.0
C1475 C 0.61703 0.50048 0.19793 0.0
H1476 H 0.60891 0.58 0.23453 0.0
C1477 C 0.59951 0.50133 0.16524 0.0
C1478 C 0.58541 0.53042 0.15769 0.0
H1479 H 0.62788 0.47786 0.20319 0.0
H1480 H 0.59717 0.47942 0.14588 0.0
C1481 C 0.58883 0.55845 0.18319 0.0
C1482 C 0.21857 0.84509 0.91751 0.0
C1483 C 0.24386 0.84784 0.945 0.0
H1484 H 0.2024 0.82863 0.86337 0.0
C1485 C 0.27187 0.8333 0.93875 0.0
H1486 H 0.19672 0.85608 0.92134 0.0
C1487 C 0.27507 0.81743 0.90578 0.0
C1488 C 0.25044 0.81573 0.87782 0.0
H1489 H 0.29181 0.83468 0.95928 0.0
H1490 H 0.29738 0.80728 0.90208 0.0
C1491 C 0.22189 0.82935 0.88425 0.0
C1492 C 0.96076 0.51856 0.66215 0.0
C1493 C 0.95848 0.54968 0.68167 0.0
H1494 H 0.98235 0.49374 0.62075 0.0
C1495 C 0.9769 0.58046 0.67302 0.0
H1496 H 0.94699 0.4943 0.66795 0.0
C1497 C 0.99724 0.58001 0.6458 0.0
C1498 C 0.99932 0.54886 0.62636 0.0
H1499 H 0.97583 0.60487 0.68745 0.0
H1500 H 0.01116 0.6041 0.63979 0.0
C1501 C 0.98088 0.51819 0.63488 0.0
C1502 C 0.26223 0.2566 0.41703 0.0
C1503 C 0.28697 0.23662 0.42334 0.0
H1504 H 0.23958 0.28662 0.38074 0.0
C1505 C 0.31159 0.23667 0.40081 0.0
H1506 H 0.24297 0.2569 0.43415 0.0
C1507 C 0.31016 0.25444 0.3709 0.0
C1508 C 0.28356 0.27151 0.36271 0.0
H1509 H 0.33101 0.22161 0.40542 0.0
H1510 H 0.32835 0.25228 0.35277 0.0
C1511 C 0.26027 0.27358 0.38658 0.0
C1512 C 0.38781 0.57475 0.54693 0.0
C1513 C 0.38155 0.59681 0.52087 0.0
H1514 H 0.41395 0.53538 0.56402 0.0
C1515 C 0.39896 0.59558 0.49108 0.0
H1516 H 0.37503 0.57464 0.57022 0.0
C1517 C 0.42199 0.57293 0.48773 0.0
C1518 C 0.42802 0.55098 0.51401 0.0
H1519 H 0.39478 0.61206 0.47038 0.0
H1520 H 0.43458 0.57215 0.46435 0.0
C1521 C 0.4103 0.55207 0.54337 0.0
C1522 C 0.90013 0.96567 0.58742 0.0
C1523 C 0.8723 0.97538 0.56996 0.0
H1524 H 0.95241 0.97091 0.59268 0.0
C1525 C 0.87623 0.99936 0.54477 0.0
H1526 H 0.89781 0.94723 0.60695 0.0
C1527 C 0.90728 0.0126 0.53641 0.0
C1528 C 0.93508 0.00241 0.5533 0.0
H1529 H 0.85527 0.00743 0.53085 0.0
H1530 H 0.90943 0.03072 0.51657 0.0
C1531 C 0.93133 0.97921 0.57925 0.0
C1532 C 0.80821 0.15511 0.30554 0.0
C1533 C 0.809 0.13412 0.27449 0.0
H1534 H 0.79061 0.19863 0.32958 0.0
C1535 C 0.79189 0.14121 0.24338 0.0
H1536 H 0.82118 0.15036 0.32995 0.0
C1537 C 0.77444 0.16874 0.24332 0.0
C1538 C 0.77408 0.18991 0.27423 0.0
H1539 H 0.792 0.12555 0.21905 0.0
H1540 H 0.76169 0.17381 0.21889 0.0
C1541 C 0.79091 0.18282 0.30538 0.0
C1542 C 0.70949 0.09528 0.06055 0.0
C1543 C 0.72164 0.10844 0.03047 0.0
H1544 H 0.66768 0.07213 0.08409 0.0
C1545 C 0.70001 0.10654 0.99977 0.0
H1546 H 0.72545 0.09621 0.0846 0.0
C1547 C 0.66673 0.09294 0.99963 0.0
C1548 C 0.65458 0.08075 0.03006 0.0
H1549 H 0.70855 0.11653 0.97619 0.0
H1550 H 0.65044 0.09252 0.9759 0.0
C1551 C 0.67636 0.08149 0.0603 0.0
C1552 C 0.17099 0.37001 0.258 0.0
C1553 C 0.17512 0.39908 0.28243 0.0
H1554 H 0.19217 0.32883 0.23528 0.0
C1555 C 0.20465 0.40744 0.30469 0.0
H1556 H 0.14874 0.36283 0.2403 0.0
C1557 C 0.22968 0.38748 0.30199 0.0
C1558 C 0.22552 0.35879 0.2771 0.0
H1559 H 0.2087 0.42977 0.32372 0.0
H1560 H 0.2523 0.39463 0.31908 0.0
C1561 C 0.19589 0.35028 0.25528 0.0
C1562 C 0.19582 0.52776 0.04224 0.0
C1563 C 0.2035 0.5026 0.01808 0.0
H1564 H 0.15985 0.55813 0.05668 0.0
C1565 C 0.18241 0.49154 0.98738 0.0
H1566 H 0.2119 0.53655 0.06604 0.0
C1567 C 0.15241 0.50306 0.98257 0.0
C1568 C 0.14395 0.52677 0.00768 0.0
H1569 H 0.1879 0.47196 0.96855 0.0
H1570 H 0.13509 0.49201 0.96032 0.0
C1571 C 0.16635 0.54029 0.03671 0.0
C1572 C 0.80822 0.9388 0.2727 0.0
C1573 C 0.8127 0.94636 0.23813 0.0
H1574 H 0.7942 0.89997 0.30711 0.0
C1575 C 0.80454 0.91955 0.21108 0.0
H1576 H 0.81424 0.95886 0.2942 0.0
C1577 C 0.79304 0.88584 0.21847 0.0
C1578 C 0.78943 0.87799 0.25314 0.0
H1579 H 0.80757 0.92443 0.18416 0.0
H1580 H 0.78757 0.86582 0.19691 0.0
C1581 C 0.79674 0.90499 0.28014 0.0
C1582 C 0.7009 0.07495 0.73471 0.0
C1583 C 0.68766 0.0645 0.76535 0.0
H1584 H 0.72781 0.11579 0.70998 0.0
C1585 C 0.69416 0.08728 0.79596 0.0
H1586 H 0.69658 0.05796 0.71072 0.0
C1587 C 0.71218 0.12036 0.79548 0.0
C1588 C 0.72409 0.13125 0.76443 0.0
H1589 H 0.68449 0.08001 0.82003 0.0
H1590 H 0.71578 0.13783 0.81914 0.0
C1591 C 0.71896 0.10801 0.73428 0.0
loop_
_geom_bond_atom_site_label_1
_geom_bond_atom_site_label_2
_geom_bond_distance
_geom_bond_site_symmetry_2
_ccdc_geom_bond_type
C0 O1 1.160 . S
C0 O7 1.185 . S
O1 C0 1.160 . S
O2 Zn3 1.899 . S
O2 C10 1.284 . S
Zn3 O2 1.899 . S
Zn3 O4 2.032 . S
Zn3 O7 2.086 . S
Zn3 O12 1.977 1_455 S
O4 Zn3 2.032 . S
O4 C8 1.278 . S
C5 O6 1.203 . S
C5 O12 1.267 . S
O6 C5 1.203 . S
O7 C0 1.185 . S
O7 Zn3 2.086 . S
C8 O4 1.278 . S
C8 O9 1.211 1_455 S
O9 C8 1.211 1_655 S
C10 O2 1.284 . S
C10 O11 1.273 . S
O11 C10 1.273 . S
O12 Zn3 1.977 1_655 S
O12 C5 1.267 . S
C13 O14 1.160 . S
C13 O20 1.185 . S
O14 C13 1.160 . S
O15 Zn16 1.899 . S
O15 C23 1.284 . S
Zn16 O15 1.899 . S
Zn16 O17 2.032 . S
Zn16 O20 2.086 . S
Zn16 O25 1.977 1_655 S
O17 Zn16 2.032 . S
O17 C21 1.278 1_655 S
C18 O19 1.203 . S
C18 O25 1.267 . S
O19 C18 1.203 . S
O20 C13 1.185 . S
O20 Zn16 2.086 . S
C21 O17 1.278 1_455 S
C21 O22 1.211 . S
O22 C21 1.211 . S
C23 O15 1.284 . S
C23 O24 1.273 1_655 S
O24 C23 1.273 1_455 S
O25 Zn16 1.977 1_455 S
O25 C18 1.267 . S
C26 O27 1.160 . S
C26 O33 1.185 . S
O27 C26 1.160 . S
O28 Zn29 1.899 . S
O28 C36 1.284 . S
Zn29 O28 1.899 . S
Zn29 O30 2.032 . S
Zn29 O33 2.086 . S
Zn29 O38 1.977 . S
O30 Zn29 2.032 . S
O30 C34 1.278 . S
C31 O32 1.203 . S
C31 O38 1.267 . S
O32 C31 1.203 . S
O33 C26 1.185 . S
O33 Zn29 2.086 . S
C34 O30 1.278 . S
C34 O35 1.211 . S
O35 C34 1.211 . S
C36 O28 1.284 . S
C36 O37 1.273 . S
O37 C36 1.273 . S
O38 Zn29 1.977 . S
O38 C31 1.267 . S
C39 O40 1.160 . S
C39 O46 1.185 . S
O40 C39 1.160 . S
O41 Zn42 1.899 . S
O41 C49 1.284 . S
Zn42 O41 1.899 . S
Zn42 O43 2.032 . S
Zn42 O46 2.086 . S
Zn42 O51 1.977 . S
O43 Zn42 2.032 . S
O43 C47 1.278 . S
C44 O45 1.203 . S
C44 O51 1.267 . S
O45 C44 1.203 . S
O46 C39 1.185 . S
O46 Zn42 2.086 . S
C47 O43 1.278 . S
C47 O48 1.211 . S
O48 C47 1.211 . S
C49 O41 1.284 . S
C49 O50 1.273 . S
O50 C49 1.273 . S
O51 Zn42 1.977 . S
O51 C44 1.267 . S
C52 O53 1.160 . S
C52 O59 1.185 . S
O53 C52 1.160 . S
O54 Zn55 1.902 1_655 S
O54 C62 1.276 1_655 S
Zn55 O54 1.902 1_455 S
Zn55 O56 2.032 1_455 S
Zn55 O59 2.086 1_455 S
Zn55 O64 1.977 . S
O56 Zn55 2.032 1_655 S
O56 C60 1.278 1_655 S
C57 O58 1.203 . S
C57 O64 1.267 . S
O58 C57 1.203 . S
O59 C52 1.185 . S
O59 Zn55 2.086 1_655 S
C60 O56 1.278 1_455 S
C60 O61 1.211 . S
O61 C60 1.211 . S
C62 O54 1.276 1_455 S
C62 O63 1.273 . S
O63 C62 1.273 . S
O64 Zn55 1.977 . S
O64 C57 1.267 . S
C65 O66 1.160 . S
C65 O72 1.185 . S
O66 C65 1.160 . S
O67 Zn68 1.899 . S
O67 C75 1.284 . S
Zn68 O67 1.899 . S
Zn68 O69 2.032 . S
Zn68 O72 2.086 . S
Zn68 O77 1.977 . S
O69 Zn68 2.032 . S
O69 C73 1.278 . S
C70 O71 1.203 . S
C70 O77 1.267 . S
O71 C70 1.203 . S
O72 C65 1.185 . S
O72 Zn68 2.086 . S
C73 O69 1.278 . S
C73 O74 1.211 . S
O74 C73 1.211 . S
C75 O67 1.284 . S
C75 O76 1.273 . S
O76 C75 1.273 . S
O77 Zn68 1.977 . S
O77 C70 1.267 . S
C78 O79 1.160 . S
C78 O85 1.185 . S
O79 C78 1.160 . S
O80 Zn81 1.899 . S
O80 C88 1.284 . S
Zn81 O80 1.899 . S
Zn81 O82 2.032 . S
Zn81 O85 2.086 . S
Zn81 O90 1.977 . S
O82 Zn81 2.032 . S
O82 C86 1.278 . S
C83 O84 1.203 . S
C83 O90 1.267 . S
O84 C83 1.203 . S
O85 C78 1.185 . S
O85 Zn81 2.086 . S
C86 O82 1.278 . S
C86 O87 1.211 . S
O87 C86 1.211 . S
C88 O80 1.284 . S
C88 O89 1.273 . S
O89 C88 1.273 . S
O90 Zn81 1.977 . S
O90 C83 1.267 . S
C91 O92 1.160 . S
C91 O98 1.185 . S
O92 C91 1.160 . S
O93 Zn94 1.899 . S
O93 C101 1.284 . S
Zn94 O93 1.899 . S
Zn94 O95 2.032 . S
Zn94 O98 2.086 . S
Zn94 O103 1.977 1_455 S
O95 Zn94 2.032 . S
O95 C99 1.278 . S
C96 O97 1.203 . S
C96 O103 1.267 . S
O97 C96 1.203 . S
O98 C91 1.185 . S
O98 Zn94 2.086 . S
C99 O95 1.278 . S
C99 O100 1.211 1_455 S
O100 C99 1.211 1_655 S
C101 O93 1.284 . S
C101 O102 1.273 1_455 S
O102 C101 1.273 1_655 S
O103 Zn94 1.977 1_655 S
O103 C96 1.267 . S
C104 O105 1.160 . S
C104 O111 1.185 . S
O105 C104 1.160 . S
O106 Zn107 1.899 . S
O106 C114 1.284 . S
Zn107 O106 1.899 . S
Zn107 O108 2.032 . S
Zn107 O111 2.086 . S
Zn107 O116 1.977 . S
O108 Zn107 2.032 . S
O108 C112 1.278 . S
C109 O110 1.203 . S
C109 O116 1.267 1_565 S
O110 C109 1.203 . S
O111 C104 1.185 . S
O111 Zn107 2.086 . S
C112 O108 1.278 . S
C112 O113 1.211 . S
O113 C112 1.211 . S
C114 O106 1.284 . S
C114 O115 1.273 . S
O115 C114 1.273 . S
O116 Zn107 1.977 . S
O116 C109 1.267 1_545 S
C117 O118 1.160 . S
C117 O124 1.185 . S
O118 C117 1.160 . S
O119 Zn120 1.899 . S
O119 C127 1.284 . S
Zn120 O119 1.899 . S
Zn120 O121 2.032 . S
Zn120 O124 2.086 . S
Zn120 O129 1.977 . S
O121 Zn120 2.032 . S
O121 C125 1.278 . S
C122 O123 1.203 . S
C122 O129 1.267 . S
O123 C122 1.203 . S
O124 C117 1.185 . S
O124 Zn120 2.086 . S
C125 O121 1.278 . S
C125 O126 1.211 . S
O126 C125 1.211 . S
C127 O119 1.284 . S
C127 O128 1.273 . S
O128 C127 1.273 . S
O129 Zn120 1.977 . S
O129 C122 1.267 . S
C130 O131 1.160 . S
C130 O137 1.185 . S
O131 C130 1.160 . S
O132 Zn133 1.899 . S
O132 C140 1.284 . S
Zn133 O132 1.899 . S
Zn133 O134 2.032 . S
Zn133 O137 2.086 . S
Zn133 O142 1.977 1_565 S
O134 Zn133 2.032 . S
O134 C138 1.278 1_565 S
C135 O136 1.203 . S
C135 O142 1.267 . S
O136 C135 1.203 . S
O137 C130 1.185 . S
O137 Zn133 2.086 . S
C138 O134 1.278 1_545 S
C138 O139 1.211 . S
O139 C138 1.211 . S
C140 O132 1.284 . S
C140 O141 1.273 1_565 S
O141 C140 1.273 1_545 S
O142 Zn133 1.977 1_545 S
O142 C135 1.267 . S
C143 O144 1.160 . S
C143 O150 1.185 . S
O144 C143 1.160 . S
O145 Zn146 1.899 . S
O145 C153 1.284 . S
Zn146 O145 1.899 . S
Zn146 O147 2.032 1_554 S
Zn146 O150 2.086 . S
Zn146 O155 1.977 . S
O147 Zn146 2.032 1_556 S
O147 C151 1.278 . S
C148 O149 1.203 . S
C148 O155 1.267 . S
O149 C148 1.203 . S
O150 C143 1.185 . S
O150 Zn146 2.086 . S
C151 O147 1.278 . S
C151 O152 1.211 . S
O152 C151 1.211 . S
C153 O145 1.284 . S
C153 O154 1.273 . S
O154 C153 1.273 . S
O155 Zn146 1.977 . S
O155 C148 1.267 . S
C156 O157 1.160 . S
C156 O163 1.185 . S
O157 C156 1.160 . S
O158 Zn159 1.899 . S
O158 C166 1.284 . S
Zn159 O158 1.899 . S
Zn159 O160 2.014 1_554 S
Zn159 O163 2.086 . S
Zn159 O168 1.977 . S
O160 Zn159 2.014 1_556 S
O160 C164 1.291 . S
C161 O162 1.203 . S
C161 O168 1.267 . S
O162 C161 1.203 . S
O163 C156 1.185 . S
O163 Zn159 2.086 . S
C164 O160 1.291 . S
C164 O165 1.211 . S
O165 C164 1.211 . S
C166 O158 1.284 . S
C166 O167 1.273 . S
O167 C166 1.273 . S
O168 Zn159 1.977 . S
O168 C161 1.267 . S
C169 O170 1.160 . S
C169 O176 1.181 1_554 S
O170 C169 1.160 . S
O171 Zn172 1.899 . S
O171 C179 1.284 . S
Zn172 O171 1.899 . S
Zn172 O173 2.032 1_554 S
Zn172 O176 2.082 1_554 S
Zn172 O181 1.977 1_554 S
O173 Zn172 2.032 1_556 S
O173 C177 1.278 . S
C174 O175 1.203 . S
C174 O181 1.267 1_554 S
O175 C174 1.203 . S
O176 C169 1.181 1_556 S
O176 Zn172 2.082 1_556 S
C177 O173 1.278 . S
C177 O178 1.211 . S
O178 C177 1.211 . S
C179 O171 1.284 . S
C179 O180 1.273 . S
O180 C179 1.273 . S
O181 Zn172 1.977 1_556 S
O181 C174 1.267 1_556 S
C182 O183 1.160 . S
C182 O189 1.185 . S
O183 C182 1.160 . S
O184 Zn185 1.899 . S
O184 C192 1.284 . S
Zn185 O184 1.899 . S
Zn185 O186 2.032 . S
Zn185 O189 2.086 . S
Zn185 O194 1.977 . S
O186 Zn185 2.032 . S
O186 C190 1.278 . S
C187 O188 1.203 . S
C187 O194 1.267 . S
O188 C187 1.203 . S
O189 C182 1.185 . S
O189 Zn185 2.086 . S
C190 O186 1.278 . S
C190 O191 1.211 . S
O191 C190 1.211 . S
C192 O184 1.284 . S
C192 O193 1.273 . S
O193 C192 1.273 . S
O194 Zn185 1.977 . S
O194 C187 1.267 . S
C195 O196 1.160 . S
C195 O202 1.185 . S
O196 C195 1.160 . S
O197 Zn198 1.899 . S
O197 C205 1.284 . S
Zn198 O197 1.899 . S
Zn198 O199 2.032 . S
Zn198 O202 2.086 . S
Zn198 O207 1.977 . S
O199 Zn198 2.032 . S
O199 C203 1.278 . S
C200 O201 1.203 . S
C200 O207 1.267 . S
O201 C200 1.203 . S
O202 C195 1.185 . S
O202 Zn198 2.086 . S
C203 O199 1.278 . S
C203 O204 1.211 . S
O204 C203 1.211 . S
C205 O197 1.284 . S
C205 O206 1.273 . S
O206 C205 1.273 . S
O207 Zn198 1.977 . S
O207 C200 1.267 . S
C208 O209 1.160 . S
C208 O215 1.185 . S
O209 C208 1.160 . S
O210 Zn211 1.899 . S
O210 C218 1.284 . S
Zn211 O210 1.899 . S
Zn211 O212 2.032 . S
Zn211 O215 2.086 . S
Zn211 O220 1.977 . S
O212 Zn211 2.032 . S
O212 C216 1.278 . S
C213 O214 1.203 . S
C213 O220 1.267 1_565 S
O214 C213 1.203 . S
O215 C208 1.185 . S
O215 Zn211 2.086 . S
C216 O212 1.278 . S
C216 O217 1.211 . S
O217 C216 1.211 . S
C218 O210 1.284 . S
C218 O219 1.273 . S
O219 C218 1.273 . S
O220 Zn211 1.977 . S
O220 C213 1.267 1_545 S
C221 O222 1.160 . S
C221 O228 1.185 . S
O222 C221 1.160 . S
O223 Zn224 1.899 . S
O223 C231 1.284 . S
Zn224 O223 1.899 . S
Zn224 O225 2.032 . S
Zn224 O228 2.086 . S
Zn224 O233 1.977 . S
O225 Zn224 2.032 . S
O225 C229 1.278 . S
C226 O227 1.203 . S
C226 O233 1.267 . S
O227 C226 1.203 . S
O228 C221 1.185 . S
O228 Zn224 2.086 . S
C229 O225 1.278 . S
C229 O230 1.211 . S
O230 C229 1.211 . S
C231 O223 1.284 . S
C231 O232 1.273 . S
O232 C231 1.273 . S
O233 Zn224 1.977 . S
O233 C226 1.267 . S
C234 O235 1.160 . S
C234 O241 1.185 . S
O235 C234 1.160 . S
O236 Zn237 1.899 . S
O236 C244 1.284 . S
Zn237 O236 1.899 . S
Zn237 O238 2.032 . S
Zn237 O241 2.086 . S
Zn237 O246 1.977 . S
O238 Zn237 2.032 . S
O238 C242 1.278 . S
C239 O240 1.203 . S
C239 O246 1.267 . S
O240 C239 1.203 . S
O241 C234 1.185 . S
O241 Zn237 2.086 . S
C242 O238 1.278 . S
C242 O243 1.211 . S
O243 C242 1.211 . S
C244 O236 1.284 . S
C244 O245 1.273 . S
O245 C244 1.273 . S
O246 Zn237 1.977 . S
O246 C239 1.267 . S
C247 O248 1.160 . S
C247 O254 1.185 . S
O248 C247 1.160 . S
O249 Zn250 1.899 1_565 S
O249 C257 1.284 1_565 S
Zn250 O249 1.899 1_545 S
Zn250 O251 2.032 1_545 S
Zn250 O254 2.086 1_545 S
Zn250 O259 1.977 . S
O251 Zn250 2.032 1_565 S
O251 C255 1.278 1_565 S
C252 O253 1.203 . S
C252 O259 1.267 . S
O253 C252 1.203 . S
O254 C247 1.185 . S
O254 Zn250 2.086 1_565 S
C255 O251 1.278 1_545 S
C255 O256 1.211 . S
O256 C255 1.211 . S
C257 O249 1.284 1_545 S
C257 O258 1.273 . S
O258 C257 1.273 . S
O259 Zn250 1.977 . S
O259 C252 1.267 . S
C260 O261 1.160 . S
C260 O267 1.185 1_554 S
O261 C260 1.160 . S
O262 Zn263 1.899 . S
O262 C270 1.284 . S
Zn263 O262 1.899 . S
Zn263 O264 2.032 1_554 S
Zn263 O267 2.086 1_554 S
Zn263 O272 1.977 1_554 S
O264 Zn263 2.032 1_556 S
O264 C268 1.278 . S
C265 O266 1.193 1_556 S
C265 O272 1.274 . S
O266 C265 1.193 1_554 S
O267 C260 1.185 1_556 S
O267 Zn263 2.086 1_556 S
C268 O264 1.278 . S
C268 O269 1.211 . S
O269 C268 1.211 . S
C270 O262 1.284 . S
C270 O271 1.273 . S
O271 C270 1.273 . S
O272 Zn263 1.977 1_556 S
O272 C265 1.274 . S
C273 O274 1.160 . S
C273 O280 1.185 . S
O274 C273 1.160 . S
O275 Zn276 1.899 . S
O275 C283 1.284 . S
Zn276 O275 1.899 . S
Zn276 O277 2.032 . S
Zn276 O280 2.086 . S
Zn276 O285 1.977 . S
O277 Zn276 2.032 . S
O277 C281 1.278 . S
C278 O279 1.203 . S
C278 O285 1.267 . S
O279 C278 1.203 . S
O280 C273 1.185 . S
O280 Zn276 2.086 . S
C281 O277 1.278 . S
C281 O282 1.211 . S
O282 C281 1.211 . S
C283 O275 1.284 . S
C283 O284 1.273 . S
O284 C283 1.273 . S
O285 Zn276 1.977 . S
O285 C278 1.267 . S
C286 O287 1.160 . S
C286 O293 1.185 . S
O287 C286 1.160 . S
O288 Zn289 1.899 . S
O288 C296 1.284 . S
Zn289 O288 1.899 . S
Zn289 O290 2.032 . S
Zn289 O293 2.086 . S
Zn289 O298 1.977 . S
O290 Zn289 2.032 . S
O290 C294 1.278 . S
C291 O292 1.203 . S
C291 O298 1.267 . S
O292 C291 1.203 . S
O293 C286 1.185 . S
O293 Zn289 2.086 . S
C294 O290 1.278 . S
C294 O295 1.211 . S
O295 C294 1.211 . S
C296 O288 1.284 . S
C296 O297 1.273 . S
O297 C296 1.273 . S
O298 Zn289 1.977 . S
O298 C291 1.267 . S
C299 O300 1.160 . S
C299 O306 1.185 . S
O300 C299 1.160 . S
O301 Zn302 1.899 . S
O301 C309 1.284 . S
Zn302 O301 1.899 . S
Zn302 O303 2.032 . S
Zn302 O306 2.086 . S
Zn302 O311 1.977 . S
O303 Zn302 2.032 . S
O303 C307 1.278 . S
C304 O305 1.203 . S
C304 O311 1.267 . S
O305 C304 1.203 . S
O306 C299 1.185 . S
O306 Zn302 2.086 . S
C307 O303 1.278 . S
C307 O308 1.211 . S
O308 C307 1.211 . S
C309 O301 1.284 . S
C309 O310 1.273 . S
O310 C309 1.273 . S
O311 Zn302 1.977 . S
O311 C304 1.267 . S
Tb312 O315 2.453 . S
Tb312 O316 2.596 . S
Tb312 O317 2.374 1_554 S
Tb312 O325 2.343 1_455 S
Tb312 O327 2.353 . S
Tb312 O329 2.427 . S
Tb312 O330 2.513 1_554 S
C313 O317 1.251 . S
C313 O319 1.263 1_445 S
Tb314 O316 2.343 1_665 S
Tb314 O319 2.353 1_554 S
Tb314 O322 2.427 . S
Tb314 O323 2.513 . S
Tb314 O324 2.453 1_564 S
Tb314 O325 2.596 1_565 S
Tb314 O326 2.374 1_565 S
O315 Tb312 2.453 . S
O315 C331 1.245 . S
O316 Tb312 2.596 . S
O316 Tb314 2.343 1_445 S
O316 C331 1.259 . S
O317 Tb312 2.374 1_556 S
O317 C313 1.251 . S
C318 O322 1.274 1_455 S
C318 O323 1.236 1_455 S
O319 C313 1.263 1_665 S
O319 Tb314 2.353 1_556 S
C320 O324 1.245 . S
C320 O325 1.259 1_556 S
C321 O326 1.250 . S
C321 O327 1.263 1_655 S
O322 Tb314 2.427 . S
O322 C318 1.274 1_655 S
O323 Tb314 2.513 . S
O323 C318 1.236 1_655 S
O324 Tb314 2.453 1_546 S
O324 C320 1.245 . S
O325 Tb312 2.343 1_655 S
O325 Tb314 2.596 1_545 S
O325 C320 1.259 1_554 S
O326 Tb314 2.374 1_545 S
O326 C321 1.250 . S
O327 Tb312 2.353 . S
O327 C321 1.263 1_455 S
C328 O329 1.275 1_556 S
C328 O330 1.246 . S
O329 Tb312 2.427 . S
O329 C328 1.275 1_554 S
O330 Tb312 2.513 1_556 S
O330 C328 1.246 . S
C331 O315 1.245 . S
C331 O316 1.259 . S
Tb332 O335 2.453 . S
Tb332 O336 2.596 . S
Tb332 O337 2.374 . S
Tb332 O345 2.343 . S
Tb332 O347 2.353 . S
Tb332 O349 2.427 . S
Tb332 O350 2.513 . S
C333 O337 1.251 . S
C333 O339 1.263 . S
Tb334 O336 2.343 . S
Tb334 O339 2.353 . S
Tb334 O342 2.427 . S
Tb334 O343 2.513 . S
Tb334 O344 2.453 . S
Tb334 O345 2.596 . S
Tb334 O346 2.374 . S
O335 Tb332 2.453 . S
O335 C351 1.245 . S
O336 Tb332 2.596 . S
O336 Tb334 2.343 . S
O336 C351 1.259 . S
O337 Tb332 2.374 . S
O337 C333 1.251 . S
C338 O342 1.275 . S
C338 O343 1.246 . S
O339 C333 1.263 . S
O339 Tb334 2.353 . S
C340 O344 1.245 . S
C340 O345 1.259 . S
C341 O346 1.250 . S
C341 O347 1.263 . S
O342 Tb334 2.427 . S
O342 C338 1.275 . S
O343 Tb334 2.513 . S
O343 C338 1.246 . S
O344 Tb334 2.453 . S
O344 C340 1.245 . S
O345 Tb332 2.343 . S
O345 Tb334 2.596 . S
O345 C340 1.259 . S
O346 Tb334 2.374 . S
O346 C341 1.250 . S
O347 Tb332 2.353 . S
O347 C341 1.263 . S
C348 O349 1.275 . S
C348 O350 1.246 . S
O349 Tb332 2.427 . S
O349 C348 1.275 . S
O350 Tb332 2.513 . S
O350 C348 1.246 . S
C351 O335 1.245 . S
C351 O336 1.259 . S
Tb352 O355 2.453 . S
Tb352 O356 2.596 . S
Tb352 O357 2.374 . S
Tb352 O365 2.343 1_545 S
Tb352 O367 2.353 . S
Tb352 O369 2.427 . S
Tb352 O370 2.513 1_545 S
C353 O357 1.251 . S
C353 O359 1.263 . S
Tb354 O356 2.343 . S
Tb354 O359 2.353 . S
Tb354 O362 2.427 . S
Tb354 O363 2.513 . S
Tb354 O364 2.453 1_545 S
Tb354 O365 2.596 1_545 S
Tb354 O366 2.374 . S
O355 Tb352 2.453 . S
O355 C371 1.245 . S
O356 Tb352 2.596 . S
O356 Tb354 2.343 . S
O356 C371 1.259 . S
O357 Tb352 2.374 . S
O357 C353 1.251 . S
C358 O362 1.275 . S
C358 O363 1.246 . S
O359 C353 1.263 . S
O359 Tb354 2.353 . S
C360 O364 1.245 . S
C360 O365 1.259 . S
C361 O366 1.250 . S
C361 O367 1.263 . S
O362 Tb354 2.427 . S
O362 C358 1.275 . S
O363 Tb354 2.513 . S
O363 C358 1.246 . S
O364 Tb354 2.453 1_565 S
O364 C360 1.245 . S
O365 Tb352 2.343 1_565 S
O365 Tb354 2.596 1_565 S
O365 C360 1.259 . S
O366 Tb354 2.374 . S
O366 C361 1.250 . S
O367 Tb352 2.353 . S
O367 C361 1.263 . S
C368 O369 1.275 1_565 S
C368 O370 1.246 . S
O369 Tb352 2.427 . S
O369 C368 1.275 1_545 S
O370 Tb352 2.513 1_565 S
O370 C368 1.246 . S
C371 O355 1.245 . S
C371 O356 1.259 . S
Tb372 O375 2.453 . S
Tb372 O376 2.596 . S
Tb372 O377 2.374 . S
Tb372 O385 2.343 . S
Tb372 O387 2.353 . S
Tb372 O389 2.427 . S
Tb372 O390 2.513 . S
C373 O377 1.251 . S
C373 O379 1.263 . S
Tb374 O376 2.343 . S
Tb374 O379 2.353 . S
Tb374 O382 2.427 . S
Tb374 O383 2.513 . S
Tb374 O384 2.453 . S
Tb374 O385 2.596 . S
Tb374 O386 2.374 . S
O375 Tb372 2.453 . S
O375 C391 1.245 . S
O376 Tb372 2.596 . S
O376 Tb374 2.343 . S
O376 C391 1.259 . S
O377 Tb372 2.374 . S
O377 C373 1.251 . S
C378 O382 1.275 . S
C378 O383 1.246 . S
O379 C373 1.263 . S
O379 Tb374 2.353 . S
C380 O384 1.245 . S
C380 O385 1.259 . S
C381 O386 1.250 . S
C381 O387 1.263 . S
O382 Tb374 2.427 . S
O382 C378 1.275 . S
O383 Tb374 2.513 . S
O383 C378 1.246 . S
O384 Tb374 2.453 . S
O384 C380 1.245 . S
O385 Tb372 2.343 . S
O385 Tb374 2.596 . S
O385 C380 1.259 . S
O386 Tb374 2.374 . S
O386 C381 1.250 . S
O387 Tb372 2.353 . S
O387 C381 1.263 . S
C388 O389 1.275 . S
C388 O390 1.246 . S
O389 Tb372 2.427 . S
O389 C388 1.275 . S
O390 Tb372 2.513 . S
O390 C388 1.246 . S
C391 O375 1.245 . S
C391 O376 1.259 . S
Tb392 O395 2.455 1_545 S
Tb392 O396 2.596 . S
Tb392 O397 2.369 1_455 S
Tb392 O405 2.342 . S
Tb392 O407 2.357 . S
Tb392 O409 2.427 . S
Tb392 O410 2.510 1_455 S
C393 O397 1.257 . S
C393 O399 1.263 . S
Tb394 O396 2.343 . S
Tb394 O399 2.353 1_455 S
Tb394 O402 2.427 . S
Tb394 O403 2.513 . S
Tb394 O404 2.453 . S
Tb394 O405 2.596 . S
Tb394 O406 2.374 . S
O395 Tb392 2.455 1_565 S
O395 C411 1.245 . S
O396 Tb392 2.596 . S
O396 Tb394 2.343 . S
O396 C411 1.259 1_545 S
O397 Tb392 2.369 1_655 S
O397 C393 1.257 . S
C398 O402 1.275 . S
C398 O403 1.246 . S
O399 C393 1.263 . S
O399 Tb394 2.353 1_655 S
C400 O404 1.245 . S
C400 O405 1.259 . S
C401 O406 1.250 . S
C401 O407 1.263 . S
O402 Tb394 2.427 . S
O402 C398 1.275 . S
O403 Tb394 2.513 . S
O403 C398 1.246 . S
O404 Tb394 2.453 . S
O404 C400 1.245 . S
O405 Tb392 2.342 . S
O405 Tb394 2.596 . S
O405 C400 1.259 . S
O406 Tb394 2.374 . S
O406 C401 1.250 . S
O407 Tb392 2.357 . S
O407 C401 1.263 . S
C408 O409 1.275 1_655 S
C408 O410 1.246 . S
O409 Tb392 2.427 . S
O409 C408 1.275 1_455 S
O410 Tb392 2.510 1_655 S
O410 C408 1.246 . S
C411 O395 1.245 . S
C411 O396 1.259 1_565 S
Tb412 O415 2.453 . S
Tb412 O416 2.596 . S
Tb412 O417 2.374 . S
Tb412 O425 2.343 . S
Tb412 O427 2.353 . S
Tb412 O429 2.427 . S
Tb412 O430 2.513 . S
C413 O417 1.251 . S
C413 O419 1.263 . S
Tb414 O416 2.343 . S
Tb414 O419 2.353 . S
Tb414 O422 2.427 . S
Tb414 O423 2.513 . S
Tb414 O424 2.453 . S
Tb414 O425 2.596 . S
Tb414 O426 2.374 . S
O415 Tb412 2.453 . S
O415 C431 1.245 . S
O416 Tb412 2.596 . S
O416 Tb414 2.343 . S
O416 C431 1.259 . S
O417 Tb412 2.374 . S
O417 C413 1.251 . S
C418 O422 1.275 . S
C418 O423 1.246 . S
O419 C413 1.263 . S
O419 Tb414 2.353 . S
C420 O424 1.245 . S
C420 O425 1.259 . S
C421 O426 1.250 . S
C421 O427 1.263 . S
O422 Tb414 2.427 . S
O422 C418 1.275 . S
O423 Tb414 2.513 . S
O423 C418 1.246 . S
O424 Tb414 2.453 . S
O424 C420 1.245 . S
O425 Tb412 2.343 . S
O425 Tb414 2.596 . S
O425 C420 1.259 . S
O426 Tb414 2.374 . S
O426 C421 1.250 . S
O427 Tb412 2.353 . S
O427 C421 1.263 . S
C428 O429 1.275 . S
C428 O430 1.246 . S
O429 Tb412 2.427 . S
O429 C428 1.275 . S
O430 Tb412 2.513 . S
O430 C428 1.246 . S
C431 O415 1.245 . S
C431 O416 1.259 . S
Tb432 O435 2.453 . S
Tb432 O436 2.596 . S
Tb432 O437 2.374 1_545 S
Tb432 O445 2.343 1_556 S
Tb432 O447 2.353 1_556 S
Tb432 O449 2.427 1_556 S
Tb432 O450 2.513 1_546 S
C433 O437 1.251 1_554 S
C433 O439 1.263 . S
Tb434 O436 2.343 1_554 S
Tb434 O439 2.353 1_545 S
Tb434 O442 2.427 . S
Tb434 O443 2.513 . S
Tb434 O444 2.453 . S
Tb434 O445 2.596 . S
Tb434 O446 2.374 . S
O435 Tb432 2.453 . S
O435 C451 1.245 . S
O436 Tb432 2.596 . S
O436 Tb434 2.343 1_556 S
O436 C451 1.259 . S
O437 Tb432 2.374 1_565 S
O437 C433 1.251 1_556 S
C438 O442 1.275 . S
C438 O443 1.246 . S
O439 C433 1.263 . S
O439 Tb434 2.353 1_565 S
C440 O444 1.245 . S
C440 O445 1.259 . S
C441 O446 1.250 . S
C441 O447 1.263 . S
O442 Tb434 2.427 . S
O442 C438 1.275 . S
O443 Tb434 2.513 . S
O443 C438 1.246 . S
O444 Tb434 2.453 . S
O444 C440 1.245 . S
O445 Tb432 2.343 1_554 S
O445 Tb434 2.596 . S
O445 C440 1.259 . S
O446 Tb434 2.374 . S
O446 C441 1.250 . S
O447 Tb432 2.353 1_554 S
O447 C441 1.263 . S
C448 O449 1.275 1_565 S
C448 O450 1.246 . S
O449 Tb432 2.427 1_554 S
O449 C448 1.275 1_545 S
O450 Tb432 2.513 1_564 S
O450 C448 1.246 . S
C451 O435 1.245 . S
C451 O436 1.259 . S
Tb452 O455 2.453 . S
Tb452 O456 2.596 . S
Tb452 O457 2.374 . S
Tb452 O465 2.343 . S
Tb452 O467 2.353 . S
Tb452 O469 2.427 . S
Tb452 O470 2.513 . S
C453 O457 1.251 . S
C453 O459 1.263 . S
Tb454 O456 2.343 . S
Tb454 O459 2.353 . S
Tb454 O462 2.427 . S
Tb454 O463 2.513 . S
Tb454 O464 2.453 . S
Tb454 O465 2.596 . S
Tb454 O466 2.374 . S
O455 Tb452 2.453 . S
O455 C471 1.245 . S
O456 Tb452 2.596 . S
O456 Tb454 2.343 . S
O456 C471 1.259 . S
O457 Tb452 2.374 . S
O457 C453 1.251 . S
C458 O462 1.275 . S
C458 O463 1.246 . S
O459 C453 1.263 . S
O459 Tb454 2.353 . S
C460 O464 1.245 . S
C460 O465 1.259 . S
C461 O466 1.250 . S
C461 O467 1.263 . S
O462 Tb454 2.427 . S
O462 C458 1.275 . S
O463 Tb454 2.513 . S
O463 C458 1.246 . S
O464 Tb454 2.453 . S
O464 C460 1.245 . S
O465 Tb452 2.343 . S
O465 Tb454 2.596 . S
O465 C460 1.259 . S
O466 Tb454 2.374 . S
O466 C461 1.250 . S
O467 Tb452 2.353 . S
O467 C461 1.263 . S
C468 O469 1.275 . S
C468 O470 1.246 . S
O469 Tb452 2.427 . S
O469 C468 1.275 . S
O470 Tb452 2.513 . S
O470 C468 1.246 . S
C471 O455 1.245 . S
C471 O456 1.259 . S
Tb472 O475 2.453 1_556 S
Tb472 O476 2.596 1_556 S
Tb472 O477 2.374 1_556 S
Tb472 O485 2.343 1_556 S
Tb472 O487 2.353 . S
Tb472 O489 2.427 . S
Tb472 O490 2.513 . S
C473 O477 1.251 . S
C473 O479 1.263 . S
Tb474 O476 2.343 . S
Tb474 O479 2.353 . S
Tb474 O482 2.427 . S
Tb474 O483 2.513 . S
Tb474 O484 2.453 . S
Tb474 O485 2.596 . S
Tb474 O486 2.374 . S
O475 Tb472 2.453 1_554 S
O475 C491 1.245 . S
O476 Tb472 2.596 1_554 S
O476 Tb474 2.343 . S
O476 C491 1.259 . S
O477 Tb472 2.374 1_554 S
O477 C473 1.251 . S
C478 O482 1.275 . S
C478 O483 1.246 . S
O479 C473 1.263 . S
O479 Tb474 2.353 . S
C480 O484 1.245 . S
C480 O485 1.259 . S
C481 O486 1.250 . S
C481 O487 1.263 1_554 S
O482 Tb474 2.427 . S
O482 C478 1.275 . S
O483 Tb474 2.513 . S
O483 C478 1.246 . S
O484 Tb474 2.453 . S
O484 C480 1.245 . S
O485 Tb472 2.343 1_554 S
O485 Tb474 2.596 . S
O485 C480 1.259 . S
O486 Tb474 2.374 . S
O486 C481 1.250 . S
O487 Tb472 2.353 . S
O487 C481 1.263 1_556 S
C488 O489 1.275 . S
C488 O490 1.246 . S
O489 Tb472 2.427 . S
O489 C488 1.275 . S
O490 Tb472 2.513 . S
O490 C488 1.246 . S
C491 O475 1.245 . S
C491 O476 1.259 . S
Tb492 O495 2.453 . S
Tb492 O496 2.596 . S
Tb492 O497 2.374 . S
Tb492 O505 2.343 . S
Tb492 O507 2.353 . S
Tb492 O509 2.427 . S
Tb492 O510 2.513 . S
C493 O497 1.251 . S
C493 O499 1.263 . S
Tb494 O496 2.343 . S
Tb494 O499 2.353 . S
Tb494 O502 2.427 . S
Tb494 O503 2.513 . S
Tb494 O504 2.453 . S
Tb494 O505 2.596 . S
Tb494 O506 2.374 . S
O495 Tb492 2.453 . S
O495 C511 1.245 . S
O496 Tb492 2.596 . S
O496 Tb494 2.343 . S
O496 C511 1.259 . S
O497 Tb492 2.374 . S
O497 C493 1.251 . S
C498 O502 1.275 . S
C498 O503 1.246 . S
O499 C493 1.263 . S
O499 Tb494 2.353 . S
C500 O504 1.245 . S
C500 O505 1.259 . S
C501 O506 1.250 . S
C501 O507 1.263 . S
O502 Tb494 2.427 . S
O502 C498 1.275 . S
O503 Tb494 2.513 . S
O503 C498 1.246 . S
O504 Tb494 2.453 . S
O504 C500 1.245 . S
O505 Tb492 2.343 . S
O505 Tb494 2.596 . S
O505 C500 1.259 . S
O506 Tb494 2.374 . S
O506 C501 1.250 . S
O507 Tb492 2.353 . S
O507 C501 1.263 . S
C508 O509 1.275 . S
C508 O510 1.246 . S
O509 Tb492 2.427 . S
O509 C508 1.275 . S
O510 Tb492 2.513 . S
O510 C508 1.246 . S
C511 O495 1.245 . S
C511 O496 1.259 . S
Tb512 O515 2.453 1_655 S
Tb512 O516 2.596 1_655 S
Tb512 O517 2.374 . S
Tb512 O525 2.343 . S
Tb512 O527 2.353 . S
Tb512 O529 2.427 . S
Tb512 O530 2.513 . S
C513 O517 1.251 1_455 S
C513 O519 1.263 . S
Tb514 O516 2.343 . S
Tb514 O519 2.353 . S
Tb514 O522 2.427 . S
Tb514 O523 2.513 . S
Tb514 O524 2.453 . S
Tb514 O525 2.596 1_455 S
Tb514 O526 2.374 . S
O515 Tb512 2.453 1_455 S
O515 C531 1.245 . S
O516 Tb512 2.596 1_455 S
O516 Tb514 2.343 . S
O516 C531 1.259 . S
O517 Tb512 2.374 . S
O517 C513 1.251 1_655 S
C518 O522 1.275 . S
C518 O523 1.246 . S
O519 C513 1.263 . S
O519 Tb514 2.353 . S
C520 O524 1.245 1_655 S
C520 O525 1.259 . S
C521 O526 1.250 . S
C521 O527 1.263 1_455 S
O522 Tb514 2.427 . S
O522 C518 1.275 . S
O523 Tb514 2.513 . S
O523 C518 1.246 . S
O524 Tb514 2.453 . S
O524 C520 1.245 1_455 S
O525 Tb512 2.343 . S
O525 Tb514 2.596 1_655 S
O525 C520 1.259 . S
O526 Tb514 2.374 . S
O526 C521 1.250 . S
O527 Tb512 2.353 . S
O527 C521 1.263 1_655 S
C528 O529 1.275 . S
C528 O530 1.246 . S
O529 Tb512 2.427 . S
O529 C528 1.275 . S
O530 Tb512 2.513 . S
O530 C528 1.246 . S
C531 O515 1.245 . S
C531 O516 1.259 . S
Tb532 O535 2.453 . S
Tb532 O536 2.596 . S
Tb532 O537 2.374 . S
Tb532 O545 2.343 . S
Tb532 O547 2.353 . S
Tb532 O549 2.427 . S
Tb532 O550 2.513 . S
C533 O537 1.251 . S
C533 O539 1.263 . S
Tb534 O536 2.343 . S
Tb534 O539 2.353 . S
Tb534 O542 2.427 . S
Tb534 O543 2.513 . S
Tb534 O544 2.453 . S
Tb534 O545 2.596 . S
Tb534 O546 2.374 . S
O535 Tb532 2.453 . S
O535 C551 1.245 . S
O536 Tb532 2.596 . S
O536 Tb534 2.343 . S
O536 C551 1.259 . S
O537 Tb532 2.374 . S
O537 C533 1.251 . S
C538 O542 1.275 . S
C538 O543 1.246 . S
O539 C533 1.263 . S
O539 Tb534 2.353 . S
C540 O544 1.245 . S
C540 O545 1.259 . S
C541 O546 1.250 . S
C541 O547 1.263 . S
O542 Tb534 2.427 . S
O542 C538 1.275 . S
O543 Tb534 2.513 . S
O543 C538 1.246 . S
O544 Tb534 2.453 . S
O544 C540 1.245 . S
O545 Tb532 2.343 . S
O545 Tb534 2.596 . S
O545 C540 1.259 . S
O546 Tb534 2.374 . S
O546 C541 1.250 . S
O547 Tb532 2.353 . S
O547 C541 1.263 . S
C548 O549 1.275 . S
C548 O550 1.246 . S
O549 Tb532 2.427 . S
O549 C548 1.275 . S
O550 Tb532 2.513 . S
O550 C548 1.246 . S
C551 O535 1.245 . S
C551 O536 1.259 . S
Tb552 O555 2.453 . S
Tb552 O556 2.596 . S
Tb552 O557 2.374 . S
Tb552 O565 2.343 . S
Tb552 O567 2.353 . S
Tb552 O569 2.427 . S
Tb552 O570 2.513 . S
C553 O557 1.251 . S
C553 O559 1.263 . S
Tb554 O556 2.343 . S
Tb554 O559 2.353 . S
Tb554 O562 2.427 . S
Tb554 O563 2.513 . S
Tb554 O564 2.453 . S
Tb554 O565 2.596 . S
Tb554 O566 2.374 . S
O555 Tb552 2.453 . S
O555 C571 1.245 . S
O556 Tb552 2.596 . S
O556 Tb554 2.343 . S
O556 C571 1.259 . S
O557 Tb552 2.374 . S
O557 C553 1.251 . S
C558 O562 1.275 . S
C558 O563 1.246 . S
O559 C553 1.263 . S
O559 Tb554 2.353 . S
C560 O564 1.245 . S
C560 O565 1.259 . S
C561 O566 1.250 . S
C561 O567 1.263 . S
O562 Tb554 2.427 . S
O562 C558 1.275 . S
O563 Tb554 2.513 . S
O563 C558 1.246 . S
O564 Tb554 2.453 . S
O564 C560 1.245 . S
O565 Tb552 2.343 . S
O565 Tb554 2.596 . S
O565 C560 1.259 . S
O566 Tb554 2.374 . S
O566 C561 1.250 . S
O567 Tb552 2.353 . S
O567 C561 1.263 . S
C568 O569 1.275 . S
C568 O570 1.246 . S
O569 Tb552 2.427 . S
O569 C568 1.275 . S
O570 Tb552 2.513 . S
O570 C568 1.246 . S
C571 O555 1.245 . S
C571 O556 1.259 . S
Tb572 O575 2.453 . S
Tb572 O576 2.596 . S
Tb572 O577 2.374 . S
Tb572 O585 2.343 . S
Tb572 O587 2.353 . S
Tb572 O589 2.427 . S
Tb572 O590 2.513 . S
C573 O577 1.251 . S
C573 O579 1.263 . S
Tb574 O576 2.343 . S
Tb574 O579 2.353 . S
Tb574 O582 2.427 . S
Tb574 O583 2.513 . S
Tb574 O584 2.453 . S
Tb574 O585 2.596 . S
Tb574 O586 2.374 . S
O575 Tb572 2.453 . S
O575 C591 1.245 . S
O576 Tb572 2.596 . S
O576 Tb574 2.343 . S
O576 C591 1.259 . S
O577 Tb572 2.374 . S
O577 C573 1.251 . S
C578 O582 1.275 . S
C578 O583 1.246 . S
O579 C573 1.263 . S
O579 Tb574 2.353 . S
C580 O584 1.245 . S
C580 O585 1.259 . S
C581 O586 1.250 . S
C581 O587 1.263 . S
O582 Tb574 2.427 . S
O582 C578 1.275 . S
O583 Tb574 2.513 . S
O583 C578 1.246 . S
O584 Tb574 2.453 . S
O584 C580 1.245 . S
O585 Tb572 2.343 . S
O585 Tb574 2.596 . S
O585 C580 1.259 . S
O586 Tb574 2.374 . S
O586 C581 1.250 . S
O587 Tb572 2.353 . S
O587 C581 1.263 . S
C588 O589 1.275 . S
C588 O590 1.246 . S
O589 Tb572 2.427 . S
O589 C588 1.275 . S
O590 Tb572 2.513 . S
O590 C588 1.246 . S
C591 O575 1.245 . S
C591 O576 1.259 . S
Tb592 O595 2.453 . S
Tb592 O596 2.596 . S
Tb592 O597 2.374 . S
Tb592 O605 2.343 . S
Tb592 O607 2.353 . S
Tb592 O609 2.427 . S
Tb592 O610 2.513 . S
C593 O597 1.251 . S
C593 O599 1.263 . S
Tb594 O596 2.343 . S
Tb594 O599 2.353 . S
Tb594 O602 2.427 . S
Tb594 O603 2.513 . S
Tb594 O604 2.453 . S
Tb594 O605 2.596 . S
Tb594 O606 2.374 . S
O595 Tb592 2.453 . S
O595 C611 1.245 . S
O596 Tb592 2.596 . S
O596 Tb594 2.343 . S
O596 C611 1.259 . S
O597 Tb592 2.374 . S
O597 C593 1.251 . S
C598 O602 1.275 . S
C598 O603 1.246 . S
O599 C593 1.263 . S
O599 Tb594 2.353 . S
C600 O604 1.245 . S
C600 O605 1.259 . S
C601 O606 1.250 . S
C601 O607 1.263 . S
O602 Tb594 2.427 . S
O602 C598 1.275 . S
O603 Tb594 2.513 . S
O603 C598 1.246 . S
O604 Tb594 2.453 . S
O604 C600 1.245 . S
O605 Tb592 2.343 . S
O605 Tb594 2.596 . S
O605 C600 1.259 . S
O606 Tb594 2.374 . S
O606 C601 1.250 . S
O607 Tb592 2.353 . S
O607 C601 1.263 . S
C608 O609 1.275 . S
C608 O610 1.246 . S
O609 Tb592 2.427 . S
O609 C608 1.275 . S
O610 Tb592 2.513 . S
O610 C608 1.246 . S
C611 O595 1.245 . S
C611 O596 1.259 . S
Tb612 O615 2.453 . S
Tb612 O616 2.596 . S
Tb612 O617 2.374 . S
Tb612 O625 2.343 . S
Tb612 O627 2.353 1_554 S
Tb612 O629 2.427 1_554 S
Tb612 O630 2.513 . S
C613 O617 1.251 . S
C613 O619 1.263 1_455 S
Tb614 O616 2.343 1_655 S
Tb614 O619 2.353 . S
Tb614 O622 2.427 . S
Tb614 O623 2.513 . S
Tb614 O624 2.458 . S
Tb614 O625 2.596 1_655 S
Tb614 O626 2.374 1_554 S
O615 Tb612 2.453 . S
O615 C631 1.245 . S
O616 Tb612 2.596 . S
O616 Tb614 2.343 1_455 S
O616 C631 1.259 . S
O617 Tb612 2.374 . S
O617 C613 1.251 . S
C618 O622 1.275 . S
C618 O623 1.246 . S
O619 C613 1.263 1_655 S
O619 Tb614 2.353 . S
C620 O624 1.238 1_456 S
C620 O625 1.259 1_556 S
C621 O626 1.228 1_455 S
C621 O627 1.285 . S
O622 Tb614 2.427 . S
O622 C618 1.275 . S
O623 Tb614 2.513 . S
O623 C618 1.246 . S
O624 Tb614 2.458 . S
O624 C620 1.238 1_654 S
O625 Tb612 2.343 . S
O625 Tb614 2.596 1_455 S
O625 C620 1.259 1_554 S
O626 Tb614 2.374 1_556 S
O626 C621 1.228 1_655 S
O627 Tb612 2.353 1_556 S
O627 C621 1.285 . S
C628 O629 1.275 . S
C628 O630 1.246 1_556 S
O629 Tb612 2.427 1_556 S
O629 C628 1.275 . S
O630 Tb612 2.513 . S
O630 C628 1.246 1_554 S
C631 O615 1.245 . S
C631 O616 1.259 . S
C632 C633 1.387 . S
C632 H636 0.950 . S
C632 C641 1.390 . S
C633 C632 1.387 . S
C633 C635 1.387 1_455 S
H634 C641 0.950 . S
C635 C633 1.387 1_655 S
C635 C637 1.390 . S
C635 H639 0.950 . S
H636 C632 0.950 . S
C637 C635 1.390 . S
C637 C638 1.387 1_655 S
C637 H640 0.950 . S
C638 C637 1.387 1_455 S
C638 C641 1.387 . S
H639 C635 0.950 . S
H640 C637 0.950 . S
C641 C632 1.390 . S
C641 H634 0.950 . S
C641 C638 1.387 . S
C642 C643 1.387 . S
C642 H646 0.950 . S
C642 C651 1.390 . S
C643 C642 1.387 . S
C643 C645 1.387 . S
H644 C651 0.950 . S
C645 C643 1.387 . S
C645 C647 1.390 . S
C645 H649 0.950 . S
H646 C642 0.950 . S
C647 C645 1.390 . S
C647 C648 1.387 . S
C647 H650 0.950 . S
C648 C647 1.387 . S
C648 C651 1.387 . S
H649 C645 0.950 . S
H650 C647 0.950 . S
C651 C642 1.390 . S
C651 H644 0.950 . S
C651 C648 1.387 . S
C652 C653 1.387 . S
C652 H656 0.950 . S
C652 C661 1.390 . S
C653 C652 1.387 . S
C653 C655 1.387 . S
H654 C661 0.950 . S
C655 C653 1.387 . S
C655 C657 1.390 . S
C655 H659 0.950 . S
H656 C652 0.950 . S
C657 C655 1.390 . S
C657 C658 1.387 . S
C657 H660 0.950 . S
C658 C657 1.387 . S
C658 C661 1.387 . S
H659 C655 0.950 . S
H660 C657 0.950 . S
C661 C652 1.390 . S
C661 H654 0.950 . S
C661 C658 1.387 . S
C662 C663 1.387 . S
C662 H666 0.950 . S
C662 C671 1.390 . S
C663 C662 1.387 . S
C663 C665 1.387 . S
H664 C671 0.950 . S
C665 C663 1.387 . S
C665 C667 1.390 . S
C665 H669 0.950 . S
H666 C662 0.950 . S
C667 C665 1.390 . S
C667 C668 1.387 . S
C667 H670 0.950 . S
C668 C667 1.387 . S
C668 C671 1.387 . S
H669 C665 0.950 . S
H670 C667 0.950 . S
C671 C662 1.390 . S
C671 H664 0.950 . S
C671 C668 1.387 . S
C672 C673 1.387 . S
C672 H676 0.950 . S
C672 C681 1.390 . S
C673 C672 1.387 . S
C673 C675 1.387 1_455 S
H674 C681 0.950 . S
C675 C673 1.387 1_655 S
C675 C677 1.390 . S
C675 H679 0.950 . S
H676 C672 0.950 . S
C677 C675 1.390 . S
C677 C678 1.387 1_655 S
C677 H680 0.950 . S
C678 C677 1.387 1_455 S
C678 C681 1.387 . S
H679 C675 0.950 . S
H680 C677 0.950 . S
C681 C672 1.390 . S
C681 H674 0.950 . S
C681 C678 1.387 . S
C682 C683 1.387 . S
C682 H686 0.950 . S
C682 C691 1.390 . S
C683 C682 1.387 . S
C683 C685 1.387 . S
H684 C691 0.950 . S
C685 C683 1.387 . S
C685 C687 1.390 . S
C685 H689 0.950 . S
H686 C682 0.950 . S
C687 C685 1.390 . S
C687 C688 1.387 . S
C687 H690 0.950 . S
C688 C687 1.387 . S
C688 C691 1.387 . S
H689 C685 0.950 . S
H690 C687 0.950 . S
C691 C682 1.390 . S
C691 H684 0.950 . S
C691 C688 1.387 . S
C692 C693 1.387 . S
C692 H696 0.950 . S
C692 C701 1.390 . S
C693 C692 1.387 . S
C693 C695 1.387 . S
H694 C701 0.950 . S
C695 C693 1.387 . S
C695 C697 1.390 . S
C695 H699 0.950 . S
H696 C692 0.950 . S
C697 C695 1.390 . S
C697 C698 1.387 . S
C697 H700 0.950 . S
C698 C697 1.387 . S
C698 C701 1.387 . S
H699 C695 0.950 . S
H700 C697 0.950 . S
C701 C692 1.390 . S
C701 H694 0.950 . S
C701 C698 1.387 . S
C702 C703 1.387 . S
C702 H706 0.950 . S
C702 C711 1.390 . S
C703 C702 1.387 . S
C703 C705 1.387 . S
H704 C711 0.950 . S
C705 C703 1.387 . S
C705 C707 1.390 . S
C705 H709 0.950 . S
H706 C702 0.950 . S
C707 C705 1.390 . S
C707 C708 1.387 . S
C707 H710 0.950 . S
C708 C707 1.387 . S
C708 C711 1.387 . S
H709 C705 0.950 . S
H710 C707 0.950 . S
C711 C702 1.390 . S
C711 H704 0.950 . S
C711 C708 1.387 . S
C712 C713 1.387 . S
C712 H716 0.950 . S
C712 C721 1.390 . S
C713 C712 1.387 . S
C713 C715 1.387 . S
H714 C721 0.950 1_565 S
C715 C713 1.387 . S
C715 C717 1.390 . S
C715 H719 0.950 . S
H716 C712 0.950 . S
C717 C715 1.390 . S
C717 C718 1.387 . S
C717 H720 0.950 . S
C718 C717 1.387 . S
C718 C721 1.387 . S
H719 C715 0.950 . S
H720 C717 0.950 . S
C721 C712 1.390 . S
C721 H714 0.950 1_545 S
C721 C718 1.387 . S
C722 C723 1.387 . S
C722 H726 0.950 . S
C722 C731 1.390 . S
C723 C722 1.387 . S
C723 C725 1.387 . S
H724 C731 0.950 . S
C725 C723 1.387 . S
C725 C727 1.390 . S
C725 H729 0.950 . S
H726 C722 0.950 . S
C727 C725 1.390 . S
C727 C728 1.387 . S
C727 H730 0.950 . S
C728 C727 1.387 . S
C728 C731 1.387 . S
H729 C725 0.950 . S
H730 C727 0.950 . S
C731 C722 1.390 . S
C731 H724 0.950 . S
C731 C728 1.387 . S
C732 C733 1.387 1_565 S
C732 H736 0.950 . S
C732 C741 1.382 1_565 S
C733 C732 1.387 1_545 S
C733 C735 1.387 . S
H734 C741 0.946 1_565 S
C735 C733 1.387 . S
C735 C737 1.390 . S
C735 H739 0.950 . S
H736 C732 0.950 . S
C737 C735 1.390 . S
C737 C738 1.387 . S
C737 H740 0.950 . S
C738 C737 1.387 . S
C738 C741 1.401 . S
H739 C735 0.950 . S
H740 C737 0.950 . S
C741 C732 1.382 1_545 S
C741 H734 0.946 1_545 S
C741 C738 1.401 . S
C742 C743 1.387 . S
C742 H746 0.950 . S
C742 C751 1.390 . S
C743 C742 1.387 . S
C743 C745 1.387 . S
H744 C751 0.950 . S
C745 C743 1.387 . S
C745 C747 1.390 . S
C745 H749 0.950 . S
H746 C742 0.950 . S
C747 C745 1.390 . S
C747 C748 1.387 . S
C747 H750 0.950 . S
C748 C747 1.387 . S
C748 C751 1.387 . S
H749 C745 0.950 . S
H750 C747 0.950 . S
C751 C742 1.390 . S
C751 H744 0.950 . S
C751 C748 1.387 . S
C752 C753 1.387 . S
C752 H756 0.950 . S
C752 C761 1.390 . S
C753 C752 1.387 . S
C753 C755 1.387 . S
H754 C761 0.950 . S
C755 C753 1.387 . S
C755 C757 1.390 . S
C755 H759 0.950 . S
H756 C752 0.950 . S
C757 C755 1.390 . S
C757 C758 1.387 . S
C757 H760 0.950 . S
C758 C757 1.387 . S
C758 C761 1.387 . S
H759 C755 0.950 . S
H760 C757 0.950 . S
C761 C752 1.390 . S
C761 H754 0.950 . S
C761 C758 1.387 . S
C762 C763 1.387 . S
C762 H766 0.950 . S
C762 C771 1.390 . S
C763 C762 1.387 . S
C763 C765 1.387 . S
H764 C771 0.950 . S
C765 C763 1.387 . S
C765 C767 1.390 . S
C765 H769 0.950 . S
H766 C762 0.950 . S
C767 C765 1.390 . S
C767 C768 1.387 . S
C767 H770 0.950 . S
C768 C767 1.387 . S
C768 C771 1.387 . S
H769 C765 0.950 . S
H770 C767 0.950 . S
C771 C762 1.390 . S
C771 H764 0.950 . S
C771 C768 1.387 . S
C772 C773 1.387 1_565 S
C772 H776 0.950 . S
C772 C781 1.390 . S
C773 C772 1.387 1_545 S
C773 C775 1.387 . S
H774 C781 0.950 . S
C775 C773 1.387 . S
C775 C777 1.390 . S
C775 H779 0.950 . S
H776 C772 0.950 . S
C777 C775 1.390 . S
C777 C778 1.387 . S
C777 H780 0.950 . S
C778 C777 1.387 . S
C778 C781 1.387 1_545 S
H779 C775 0.950 . S
H780 C777 0.950 . S
C781 C772 1.390 . S
C781 H774 0.950 . S
C781 C778 1.387 1_565 S
C782 C783 1.387 . S
C782 H786 0.950 . S
C782 C791 1.390 . S
C783 C782 1.387 . S
C783 C785 1.387 . S
H784 C791 0.950 . S
C785 C783 1.387 . S
C785 C787 1.390 . S
C785 H789 0.950 . S
H786 C782 0.950 . S
C787 C785 1.390 . S
C787 C788 1.387 . S
C787 H790 0.950 . S
C788 C787 1.387 . S
C788 C791 1.387 . S
H789 C785 0.950 . S
H790 C787 0.950 . S
C791 C782 1.390 . S
C791 H784 0.950 . S
C791 C788 1.387 . S
C792 C793 1.387 . S
C792 H796 0.950 1_554 S
C792 C801 1.390 . S
C793 C792 1.387 . S
C793 C795 1.387 . S
H794 C801 0.950 1_556 S
C795 C793 1.387 . S
C795 C797 1.390 . S
C795 H799 0.950 . S
H796 C792 0.950 1_556 S
C797 C795 1.390 . S
C797 C798 1.387 . S
C797 H800 0.950 . S
C798 C797 1.387 . S
C798 C801 1.387 . S
H799 C795 0.950 . S
H800 C797 0.950 . S
C801 C792 1.390 . S
C801 H794 0.950 1_554 S
C801 C798 1.387 . S
C802 C803 1.387 . S
C802 H806 0.950 . S
C802 C811 1.390 . S
C803 C802 1.387 . S
C803 C805 1.387 1_556 S
H804 C811 0.950 . S
C805 C803 1.387 1_554 S
C805 C807 1.390 . S
C805 H809 0.950 . S
H806 C802 0.950 . S
C807 C805 1.390 . S
C807 C808 1.387 . S
C807 H810 0.950 . S
C808 C807 1.387 . S
C808 C811 1.387 1_554 S
H809 C805 0.950 . S
H810 C807 0.950 . S
C811 C802 1.390 . S
C811 H804 0.950 . S
C811 C808 1.387 1_556 S
C812 C813 1.387 . S
C812 H816 0.950 . S
C812 C821 1.390 . S
C813 C812 1.387 . S
C813 C815 1.387 . S
H814 C821 0.950 . S
C815 C813 1.387 . S
C815 C817 1.390 . S
C815 H819 0.950 . S
H816 C812 0.950 . S
C817 C815 1.390 . S
C817 C818 1.387 . S
C817 H820 0.950 . S
C818 C817 1.387 . S
C818 C821 1.387 . S
H819 C815 0.950 . S
H820 C817 0.950 . S
C821 C812 1.390 . S
C821 H814 0.950 . S
C821 C818 1.387 . S
C822 C823 1.387 . S
C822 H826 0.950 . S
C822 C831 1.390 . S
C823 C822 1.387 . S
C823 C825 1.387 . S
H824 C831 0.950 . S
C825 C823 1.387 . S
C825 C827 1.390 . S
C825 H829 0.950 . S
H826 C822 0.950 . S
C827 C825 1.390 . S
C827 C828 1.387 . S
C827 H830 0.950 . S
C828 C827 1.387 . S
C828 C831 1.387 . S
H829 C825 0.950 . S
H830 C827 0.950 . S
C831 C822 1.390 . S
C831 H824 0.950 . S
C831 C828 1.387 . S
C832 C833 1.387 . S
C832 H836 0.950 . S
C832 C841 1.390 . S
C833 C832 1.387 . S
C833 C835 1.387 . S
H834 C841 0.950 . S
C835 C833 1.387 . S
C835 C837 1.390 . S
C835 H839 0.950 . S
H836 C832 0.950 . S
C837 C835 1.390 . S
C837 C838 1.387 . S
C837 H840 0.950 . S
C838 C837 1.387 . S
C838 C841 1.387 . S
H839 C835 0.950 . S
H840 C837 0.950 . S
C841 C832 1.390 . S
C841 H834 0.950 . S
C841 C838 1.387 . S
C842 C843 1.387 . S
C842 H846 0.950 . S
C842 C851 1.390 . S
C843 C842 1.387 . S
C843 C845 1.387 . S
H844 C851 0.950 . S
C845 C843 1.387 . S
C845 C847 1.390 . S
C845 H849 0.950 . S
H846 C842 0.950 . S
C847 C845 1.390 . S
C847 C848 1.387 . S
C847 H850 0.950 . S
C848 C847 1.387 . S
C848 C851 1.387 . S
H849 C845 0.950 . S
H850 C847 0.950 . S
C851 C842 1.390 . S
C851 H844 0.950 . S
C851 C848 1.387 . S
C852 C853 1.387 . S
C852 H856 0.950 . S
C852 C861 1.390 . S
C853 C852 1.387 . S
C853 C855 1.387 . S
H854 C861 0.950 . S
C855 C853 1.387 . S
C855 C857 1.390 . S
C855 H859 0.950 . S
H856 C852 0.950 . S
C857 C855 1.390 . S
C857 C858 1.387 . S
C857 H860 0.950 . S
C858 C857 1.387 . S
C858 C861 1.387 . S
H859 C855 0.950 . S
H860 C857 0.950 . S
C861 C852 1.390 . S
C861 H854 0.950 . S
C861 C858 1.387 . S
C862 C863 1.387 . S
C862 H866 0.950 . S
C862 C871 1.390 . S
C863 C862 1.387 . S
C863 C865 1.387 . S
H864 C871 0.950 . S
C865 C863 1.387 . S
C865 C867 1.390 . S
C865 H869 0.950 . S
H866 C862 0.950 . S
C867 C865 1.390 . S
C867 C868 1.387 . S
C867 H870 0.950 . S
C868 C867 1.387 . S
C868 C871 1.387 . S
H869 C865 0.950 . S
H870 C867 0.950 . S
C871 C862 1.390 . S
C871 H864 0.950 . S
C871 C868 1.387 . S
C872 C873 1.387 1_655 S
C872 H876 0.950 . S
C872 C881 1.390 . S
C873 C872 1.387 1_455 S
C873 C875 1.387 . S
H874 C881 0.950 . S
C875 C873 1.387 . S
C875 C877 1.390 . S
C875 H879 0.950 . S
H876 C872 0.950 . S
C877 C875 1.390 . S
C877 C878 1.387 . S
C877 H880 0.950 . S
C878 C877 1.387 . S
C878 C881 1.387 1_455 S
H879 C875 0.950 . S
H880 C877 0.950 . S
C881 C872 1.390 . S
C881 H874 0.950 . S
C881 C878 1.387 1_655 S
C882 C883 1.387 . S
C882 H886 0.950 . S
C882 C891 1.390 . S
C883 C882 1.387 . S
C883 C885 1.387 . S
H884 C891 0.950 . S
C885 C883 1.387 . S
C885 C887 1.390 . S
C885 H889 0.950 . S
H886 C882 0.950 . S
C887 C885 1.390 . S
C887 C888 1.387 . S
C887 H890 0.950 . S
C888 C887 1.387 . S
C888 C891 1.387 . S
H889 C885 0.950 . S
H890 C887 0.950 . S
C891 C882 1.390 . S
C891 H884 0.950 . S
C891 C888 1.387 . S
C892 C893 1.387 . S
C892 H896 0.950 . S
C892 C901 1.390 . S
C893 C892 1.387 . S
C893 C895 1.387 . S
H894 C901 0.950 . S
C895 C893 1.387 . S
C895 C897 1.390 . S
C895 H899 0.950 . S
H896 C892 0.950 . S
C897 C895 1.390 . S
C897 C898 1.387 . S
C897 H900 0.950 . S
C898 C897 1.387 . S
C898 C901 1.387 . S
H899 C895 0.950 . S
H900 C897 0.950 . S
C901 C892 1.390 . S
C901 H894 0.950 . S
C901 C898 1.387 . S
C902 C903 1.387 . S
C902 H906 0.950 . S
C902 C911 1.390 . S
C903 C902 1.387 . S
C903 C905 1.387 . S
H904 C911 0.950 . S
C905 C903 1.387 . S
C905 C907 1.390 . S
C905 H909 0.950 . S
H906 C902 0.950 . S
C907 C905 1.390 . S
C907 C908 1.387 . S
C907 H910 0.950 . S
C908 C907 1.387 . S
C908 C911 1.387 . S
H909 C905 0.950 . S
H910 C907 0.950 . S
C911 C902 1.390 . S
C911 H904 0.950 . S
C911 C908 1.387 . S
C912 C913 1.387 1_655 S
C912 H916 0.950 . S
C912 C921 1.390 . S
C913 C912 1.387 1_455 S
C913 C915 1.387 . S
H914 C921 0.950 . S
C915 C913 1.387 . S
C915 C917 1.390 . S
C915 H919 0.950 . S
H916 C912 0.950 . S
C917 C915 1.390 . S
C917 C918 1.387 . S
C917 H920 0.950 . S
C918 C917 1.387 . S
C918 C921 1.387 1_455 S
H919 C915 0.950 . S
H920 C917 0.950 . S
C921 C912 1.390 . S
C921 H914 0.950 . S
C921 C918 1.387 1_655 S
C922 C923 1.387 . S
C922 H926 0.950 . S
C922 C931 1.390 . S
C923 C922 1.387 . S
C923 C925 1.387 . S
H924 C931 0.950 . S
C925 C923 1.387 . S
C925 C927 1.390 . S
C925 H929 0.950 . S
H926 C922 0.950 . S
C927 C925 1.390 . S
C927 C928 1.387 . S
C927 H930 0.950 . S
C928 C927 1.387 . S
C928 C931 1.387 . S
H929 C925 0.950 . S
H930 C927 0.950 . S
C931 C922 1.390 . S
C931 H924 0.950 . S
C931 C928 1.387 . S
C932 C933 1.387 . S
C932 H936 0.950 . S
C932 C941 1.390 . S
C933 C932 1.387 . S
C933 C935 1.387 . S
H934 C941 0.950 . S
C935 C933 1.387 . S
C935 C937 1.390 . S
C935 H939 0.950 . S
H936 C932 0.950 . S
C937 C935 1.390 . S
C937 C938 1.387 . S
C937 H940 0.950 1_556 S
C938 C937 1.387 . S
C938 C941 1.387 . S
H939 C935 0.950 . S
H940 C937 0.950 1_554 S
C941 C932 1.390 . S
C941 H934 0.950 . S
C941 C938 1.387 . S
C942 C943 1.387 . S
C942 H946 0.950 . S
C942 C951 1.390 . S
C943 C942 1.387 . S
C943 C945 1.387 . S
H944 C951 0.950 . S
C945 C943 1.387 . S
C945 C947 1.390 . S
C945 H949 0.950 . S
H946 C942 0.950 . S
C947 C945 1.390 . S
C947 C948 1.387 . S
C947 H950 0.950 . S
C948 C947 1.387 . S
C948 C951 1.387 . S
H949 C945 0.950 . S
H950 C947 0.950 . S
C951 C942 1.390 . S
C951 H944 0.950 . S
C951 C948 1.387 . S
C952 C953 1.387 1_545 S
C952 H956 0.950 . S
C952 C961 1.390 . S
C953 C952 1.387 1_565 S
C953 C955 1.387 . S
H954 C961 0.950 . S
C955 C953 1.387 . S
C955 C957 1.390 . S
C955 H959 0.950 . S
H956 C952 0.950 . S
C957 C955 1.390 . S
C957 C958 1.387 . S
C957 H960 0.950 . S
C958 C957 1.387 . S
C958 C961 1.387 1_565 S
H959 C955 0.950 . S
H960 C957 0.950 . S
C961 C952 1.390 . S
C961 H954 0.950 . S
C961 C958 1.387 1_545 S
C962 C963 1.387 . S
C962 H966 0.950 . S
C962 C971 1.390 . S
C963 C962 1.387 . S
C963 C965 1.387 . S
H964 C971 0.950 . S
C965 C963 1.387 . S
C965 C967 1.390 . S
C965 H969 0.950 . S
H966 C962 0.950 . S
C967 C965 1.390 . S
C967 C968 1.387 . S
C967 H970 0.950 . S
C968 C967 1.387 . S
C968 C971 1.387 . S
H969 C965 0.950 . S
H970 C967 0.950 . S
C971 C962 1.390 . S
C971 H964 0.950 . S
C971 C968 1.387 . S
C972 C973 1.387 . S
C972 H976 0.950 . S
C972 C981 1.390 . S
C973 C972 1.387 . S
C973 C975 1.387 . S
H974 C981 0.950 . S
C975 C973 1.387 . S
C975 C977 1.390 . S
C975 H979 0.950 . S
H976 C972 0.950 . S
C977 C975 1.390 . S
C977 C978 1.387 . S
C977 H980 0.950 1_545 S
C978 C977 1.387 . S
C978 C981 1.387 . S
H979 C975 0.950 . S
H980 C977 0.950 1_565 S
C981 C972 1.390 . S
C981 H974 0.950 . S
C981 C978 1.387 . S
C982 C983 1.387 . S
C982 H986 0.950 . S
C982 C991 1.390 . S
C983 C982 1.387 . S
C983 C985 1.387 . S
H984 C991 0.950 . S
C985 C983 1.387 . S
C985 C987 1.390 . S
C985 H989 0.950 . S
H986 C982 0.950 . S
C987 C985 1.390 . S
C987 C988 1.387 . S
C987 H990 0.950 . S
C988 C987 1.387 . S
C988 C991 1.387 . S
H989 C985 0.950 . S
H990 C987 0.950 . S
C991 C982 1.390 . S
C991 H984 0.950 . S
C991 C988 1.387 . S
C992 C993 1.387 1_545 S
C992 H996 0.950 . S
C992 C1001 1.390 . S
C993 C992 1.387 1_565 S
C993 C995 1.387 . S
H994 C1001 0.950 . S
C995 C993 1.387 . S
C995 C997 1.390 . S
C995 H999 0.950 . S
H996 C992 0.950 . S
C997 C995 1.390 . S
C997 C998 1.387 1_565 S
C997 H1000 0.950 . S
C998 C997 1.387 1_545 S
C998 C1001 1.387 . S
H999 C995 0.950 . S
H1000 C997 0.950 . S
C1001 C992 1.390 . S
C1001 H994 0.950 . S
C1001 C998 1.387 . S
C1002 C1003 1.387 . S
C1002 H1006 0.950 . S
C1002 C1011 1.390 . S
C1003 C1002 1.387 . S
C1003 C1005 1.387 . S
H1004 C1011 0.950 . S
C1005 C1003 1.387 . S
C1005 C1007 1.390 . S
C1005 H1009 0.950 . S
H1006 C1002 0.950 . S
C1007 C1005 1.390 . S
C1007 C1008 1.387 . S
C1007 H1010 0.950 . S
C1008 C1007 1.387 . S
C1008 C1011 1.387 . S
H1009 C1005 0.950 . S
H1010 C1007 0.950 . S
C1011 C1002 1.390 . S
C1011 H1004 0.950 . S
C1011 C1008 1.387 . S
C1012 C1013 1.387 . S
C1012 H1016 0.954 . S
C1012 C1021 1.390 . S
C1013 C1012 1.387 . S
C1013 C1015 1.387 . S
H1014 C1021 0.950 1_565 S
C1015 C1013 1.387 . S
C1015 C1017 1.390 . S
C1015 H1019 0.950 . S
H1016 C1012 0.954 . S
C1017 C1015 1.390 . S
C1017 C1018 1.387 . S
C1017 H1020 0.950 . S
C1018 C1017 1.387 . S
C1018 C1021 1.387 . S
H1019 C1015 0.950 . S
H1020 C1017 0.950 . S
C1021 C1012 1.390 . S
C1021 H1014 0.950 1_545 S
C1021 C1018 1.387 . S
C1022 C1023 1.387 . S
C1022 H1026 0.950 . S
C1022 C1031 1.390 . S
C1023 C1022 1.387 . S
C1023 C1025 1.387 . S
H1024 C1031 0.950 . S
C1025 C1023 1.387 . S
C1025 C1027 1.390 . S
C1025 H1029 0.950 . S
H1026 C1022 0.950 . S
C1027 C1025 1.390 . S
C1027 C1028 1.387 . S
C1027 H1030 0.950 . S
C1028 C1027 1.387 . S
C1028 C1031 1.387 . S
H1029 C1025 0.950 . S
H1030 C1027 0.950 . S
C1031 C1022 1.390 . S
C1031 H1024 0.950 . S
C1031 C1028 1.387 . S
C1032 C1033 1.387 1_556 S
C1032 H1036 0.950 . S
C1032 C1041 1.390 . S
C1033 C1032 1.387 1_554 S
C1033 C1035 1.387 . S
H1034 C1041 0.950 . S
C1035 C1033 1.387 . S
C1035 C1037 1.390 . S
C1035 H1039 0.950 . S
H1036 C1032 0.950 . S
C1037 C1035 1.390 . S
C1037 C1038 1.387 1_554 S
C1037 H1040 0.950 . S
C1038 C1037 1.387 1_556 S
C1038 C1041 1.387 . S
H1039 C1035 0.950 . S
H1040 C1037 0.950 . S
C1041 C1032 1.390 . S
C1041 H1034 0.950 . S
C1041 C1038 1.387 . S
C1042 C1043 1.387 . S
C1042 H1046 0.950 . S
C1042 C1051 1.390 . S
C1043 C1042 1.387 . S
C1043 C1045 1.387 . S
H1044 C1051 0.950 . S
C1045 C1043 1.387 . S
C1045 C1047 1.390 . S
C1045 H1049 0.950 1_554 S
H1046 C1042 0.950 . S
C1047 C1045 1.390 . S
C1047 C1048 1.387 . S
C1047 H1050 0.950 1_554 S
C1048 C1047 1.387 . S
C1048 C1051 1.387 . S
H1049 C1045 0.950 1_556 S
H1050 C1047 0.950 1_556 S
C1051 C1042 1.390 . S
C1051 H1044 0.950 . S
C1051 C1048 1.387 . S
C1052 C1053 1.387 . S
C1052 H1056 0.950 . S
C1052 C1061 1.390 . S
C1053 C1052 1.387 . S
C1053 C1055 1.387 . S
H1054 C1061 0.950 . S
C1055 C1053 1.387 . S
C1055 C1057 1.390 . S
C1055 H1059 0.950 . S
H1056 C1052 0.950 . S
C1057 C1055 1.390 . S
C1057 C1058 1.387 . S
C1057 H1060 0.950 . S
C1058 C1057 1.387 . S
C1058 C1061 1.387 . S
H1059 C1055 0.950 . S
H1060 C1057 0.950 . S
C1061 C1052 1.390 . S
C1061 H1054 0.950 . S
C1061 C1058 1.387 . S
C1062 C1063 1.387 . S
C1062 H1066 0.950 . S
C1062 C1071 1.390 . S
C1063 C1062 1.387 . S
C1063 C1065 1.387 . S
H1064 C1071 0.950 . S
C1065 C1063 1.387 . S
C1065 C1067 1.390 . S
C1065 H1069 0.950 . S
H1066 C1062 0.950 . S
C1067 C1065 1.390 . S
C1067 C1068 1.387 . S
C1067 H1070 0.950 . S
C1068 C1067 1.387 . S
C1068 C1071 1.387 . S
H1069 C1065 0.950 . S
H1070 C1067 0.950 . S
C1071 C1062 1.390 . S
C1071 H1064 0.950 . S
C1071 C1068 1.387 . S
C1072 C1073 1.387 . S
C1072 H1076 0.950 . S
C1072 C1081 1.390 . S
C1073 C1072 1.387 . S
C1073 C1075 1.387 . S
H1074 C1081 0.950 . S
C1075 C1073 1.387 . S
C1075 C1077 1.390 . S
C1075 H1079 0.950 . S
H1076 C1072 0.950 . S
C1077 C1075 1.390 . S
C1077 C1078 1.387 . S
C1077 H1080 0.950 . S
C1078 C1077 1.387 . S
C1078 C1081 1.387 . S
H1079 C1075 0.950 . S
H1080 C1077 0.950 . S
C1081 C1072 1.390 . S
C1081 H1074 0.950 . S
C1081 C1078 1.387 . S
C1082 C1083 1.387 . S
C1082 H1086 0.950 . S
C1082 C1091 1.390 . S
C1083 C1082 1.387 . S
C1083 C1085 1.387 . S
H1084 C1091 0.950 . S
C1085 C1083 1.387 . S
C1085 C1087 1.390 . S
C1085 H1089 0.950 . S
H1086 C1082 0.950 . S
C1087 C1085 1.390 . S
C1087 C1088 1.387 . S
C1087 H1090 0.950 . S
C1088 C1087 1.387 . S
C1088 C1091 1.387 . S
H1089 C1085 0.950 . S
H1090 C1087 0.950 . S
C1091 C1082 1.390 . S
C1091 H1084 0.950 . S
C1091 C1088 1.387 . S
C1092 C1093 1.387 . S
C1092 H1096 0.950 . S
C1092 C1101 1.390 . S
C1093 C1092 1.387 . S
C1093 C1095 1.387 . S
H1094 C1101 0.950 . S
C1095 C1093 1.387 . S
C1095 C1097 1.390 . S
C1095 H1099 0.950 . S
H1096 C1092 0.950 . S
C1097 C1095 1.390 . S
C1097 C1098 1.387 . S
C1097 H1100 0.950 . S
C1098 C1097 1.387 . S
C1098 C1101 1.387 . S
H1099 C1095 0.950 . S
H1100 C1097 0.950 . S
C1101 C1092 1.390 . S
C1101 H1094 0.950 . S
C1101 C1098 1.387 . S
C1102 C1103 1.387 . S
C1102 H1106 0.950 . S
C1102 C1111 1.390 . S
C1103 C1102 1.387 . S
C1103 C1105 1.387 . S
H1104 C1111 0.950 . S
C1105 C1103 1.387 . S
C1105 C1107 1.390 . S
C1105 H1109 0.950 . S
H1106 C1102 0.950 . S
C1107 C1105 1.390 . S
C1107 C1108 1.387 . S
C1107 H1110 0.950 . S
C1108 C1107 1.387 . S
C1108 C1111 1.387 . S
H1109 C1105 0.950 . S
H1110 C1107 0.950 . S
C1111 C1102 1.390 . S
C1111 H1104 0.950 . S
C1111 C1108 1.387 . S
C1112 C1113 1.387 . S
C1112 H1116 0.950 . S
C1112 C1121 1.390 . S
C1113 C1112 1.387 . S
C1113 C1115 1.387 . S
H1114 C1121 0.950 . S
C1115 C1113 1.387 . S
C1115 C1117 1.390 . S
C1115 H1119 0.950 . S
H1116 C1112 0.950 . S
C1117 C1115 1.390 . S
C1117 C1118 1.387 . S
C1117 H1120 0.950 . S
C1118 C1117 1.387 . S
C1118 C1121 1.387 . S
H1119 C1115 0.950 . S
H1120 C1117 0.950 . S
C1121 C1112 1.390 . S
C1121 H1114 0.950 . S
C1121 C1118 1.387 . S
C1122 C1123 1.387 . S
C1122 H1126 0.950 . S
C1122 C1131 1.390 . S
C1123 C1122 1.387 . S
C1123 C1125 1.387 . S
H1124 C1131 0.950 . S
C1125 C1123 1.387 . S
C1125 C1127 1.390 . S
C1125 H1129 0.950 . S
H1126 C1122 0.950 . S
C1127 C1125 1.390 . S
C1127 C1128 1.387 . S
C1127 H1130 0.950 . S
C1128 C1127 1.387 . S
C1128 C1131 1.387 . S
H1129 C1125 0.950 . S
H1130 C1127 0.950 . S
C1131 C1122 1.390 . S
C1131 H1124 0.950 . S
C1131 C1128 1.387 . S
C1132 C1133 1.387 . S
C1132 H1136 0.950 . S
C1132 C1141 1.390 . S
C1133 C1132 1.387 . S
C1133 C1135 1.387 . S
H1134 C1141 0.950 . S
C1135 C1133 1.387 . S
C1135 C1137 1.390 . S
C1135 H1139 0.950 1_455 S
H1136 C1132 0.950 . S
C1137 C1135 1.390 . S
C1137 C1138 1.387 . S
C1137 H1140 0.950 1_456 S
C1138 C1137 1.387 . S
C1138 C1141 1.387 . S
H1139 C1135 0.950 1_655 S
H1140 C1137 0.950 1_654 S
C1141 C1132 1.390 . S
C1141 H1134 0.950 . S
C1141 C1138 1.387 . S
C1142 C1143 1.387 . S
C1142 H1146 0.950 . S
C1142 C1151 1.390 . S
C1143 C1142 1.387 . S
C1143 C1145 1.387 . S
H1144 C1151 0.950 . S
C1145 C1143 1.387 . S
C1145 C1147 1.390 . S
C1145 H1149 0.950 . S
H1146 C1142 0.950 . S
C1147 C1145 1.390 . S
C1147 C1148 1.387 . S
C1147 H1150 0.950 . S
C1148 C1147 1.387 . S
C1148 C1151 1.387 . S
H1149 C1145 0.950 . S
H1150 C1147 0.950 . S
C1151 C1142 1.390 . S
C1151 H1144 0.950 . S
C1151 C1148 1.387 . S
C1152 C1153 1.387 . S
C1152 H1156 0.950 . S
C1152 C1161 1.390 . S
C1153 C1152 1.387 . S
C1153 C1155 1.387 . S
H1154 C1161 0.950 . S
C1155 C1153 1.387 . S
C1155 C1157 1.390 . S
C1155 H1159 0.950 . S
H1156 C1152 0.950 . S
C1157 C1155 1.390 . S
C1157 C1158 1.387 . S
C1157 H1160 0.950 . S
C1158 C1157 1.387 . S
C1158 C1161 1.387 . S
H1159 C1155 0.950 . S
H1160 C1157 0.950 . S
C1161 C1152 1.390 . S
C1161 H1154 0.950 . S
C1161 C1158 1.387 . S
C1162 C1163 1.387 . S
C1162 H1166 0.950 . S
C1162 C1171 1.390 . S
C1163 C1162 1.387 . S
C1163 C1165 1.387 . S
H1164 C1171 0.950 . S
C1165 C1163 1.387 . S
C1165 C1167 1.390 . S
C1165 H1169 0.950 . S
H1166 C1162 0.950 . S
C1167 C1165 1.390 . S
C1167 C1168 1.387 . S
C1167 H1170 0.950 . S
C1168 C1167 1.387 . S
C1168 C1171 1.387 . S
H1169 C1165 0.950 . S
H1170 C1167 0.950 . S
C1171 C1162 1.390 . S
C1171 H1164 0.950 . S
C1171 C1168 1.387 . S
C1172 C1173 1.387 . S
C1172 H1176 0.950 . S
C1172 C1181 1.390 . S
C1173 C1172 1.387 . S
C1173 C1175 1.387 1_655 S
H1174 C1181 0.950 . S
C1175 C1173 1.387 1_455 S
C1175 C1177 1.390 . S
C1175 H1179 0.950 . S
H1176 C1172 0.950 . S
C1177 C1175 1.390 . S
C1177 C1178 1.372 1_455 S
C1177 H1180 0.950 . S
C1178 C1177 1.372 1_655 S
C1178 C1181 1.412 . S
H1179 C1175 0.950 . S
H1180 C1177 0.950 . S
C1181 C1172 1.390 . S
C1181 H1174 0.950 . S
C1181 C1178 1.412 . S
C1182 C1183 1.387 . S
C1182 H1186 0.950 . S
C1182 C1191 1.390 . S
C1183 C1182 1.387 . S
C1183 C1185 1.387 . S
H1184 C1191 0.950 . S
C1185 C1183 1.387 . S
C1185 C1187 1.390 . S
C1185 H1189 0.950 . S
H1186 C1182 0.950 . S
C1187 C1185 1.390 . S
C1187 C1188 1.387 . S
C1187 H1190 0.950 . S
C1188 C1187 1.387 . S
C1188 C1191 1.387 . S
H1189 C1185 0.950 . S
H1190 C1187 0.950 . S
C1191 C1182 1.390 . S
C1191 H1184 0.950 . S
C1191 C1188 1.387 . S
C1192 C1193 1.387 . S
C1192 H1196 0.950 . S
C1192 C1201 1.390 . S
C1193 C1192 1.387 . S
C1193 C1195 1.387 . S
H1194 C1201 0.950 . S
C1195 C1193 1.387 . S
C1195 C1197 1.390 . S
C1195 H1199 0.950 . S
H1196 C1192 0.950 . S
C1197 C1195 1.390 . S
C1197 C1198 1.387 . S
C1197 H1200 0.950 . S
C1198 C1197 1.387 . S
C1198 C1201 1.387 . S
H1199 C1195 0.950 . S
H1200 C1197 0.950 . S
C1201 C1192 1.390 . S
C1201 H1194 0.950 . S
C1201 C1198 1.387 . S
C1202 C1203 1.387 . S
C1202 H1206 0.950 . S
C1202 C1211 1.390 . S
C1203 C1202 1.387 . S
C1203 C1205 1.387 . S
H1204 C1211 0.950 . S
C1205 C1203 1.387 . S
C1205 C1207 1.390 . S
C1205 H1209 0.950 . S
H1206 C1202 0.950 . S
C1207 C1205 1.390 . S
C1207 C1208 1.387 . S
C1207 H1210 0.950 . S
C1208 C1207 1.387 . S
C1208 C1211 1.387 . S
H1209 C1205 0.950 . S
H1210 C1207 0.950 . S
C1211 C1202 1.390 . S
C1211 H1204 0.950 . S
C1211 C1208 1.387 . S
C1212 C1213 1.387 . S
C1212 H1216 0.950 . S
C1212 C1221 1.390 . S
C1213 C1212 1.387 . S
C1213 C1215 1.387 . S
H1214 C1221 0.950 . S
C1215 C1213 1.387 . S
C1215 C1217 1.390 . S
C1215 H1219 0.950 . S
H1216 C1212 0.950 . S
C1217 C1215 1.390 . S
C1217 C1218 1.387 . S
C1217 H1220 0.950 . S
C1218 C1217 1.387 . S
C1218 C1221 1.387 . S
H1219 C1215 0.950 . S
H1220 C1217 0.950 . S
C1221 C1212 1.390 . S
C1221 H1214 0.950 . S
C1221 C1218 1.387 . S
C1222 C1223 1.387 . S
C1222 H1226 0.950 . S
C1222 C1231 1.390 . S
C1223 C1222 1.387 . S
C1223 C1225 1.387 . S
H1224 C1231 0.950 . S
C1225 C1223 1.387 . S
C1225 C1227 1.390 . S
C1225 H1229 0.950 . S
H1226 C1222 0.950 . S
C1227 C1225 1.390 . S
C1227 C1228 1.387 . S
C1227 H1230 0.950 . S
C1228 C1227 1.387 . S
C1228 C1231 1.387 . S
H1229 C1225 0.950 . S
H1230 C1227 0.950 . S
C1231 C1222 1.390 . S
C1231 H1224 0.950 . S
C1231 C1228 1.387 . S
C1232 C1233 1.387 . S
C1232 H1236 0.950 . S
C1232 C1241 1.390 . S
C1233 C1232 1.387 . S
C1233 C1235 1.387 . S
H1234 C1241 0.950 . S
C1235 C1233 1.387 . S
C1235 C1237 1.390 . S
C1235 H1239 0.950 . S
H1236 C1232 0.950 . S
C1237 C1235 1.390 . S
C1237 C1238 1.387 . S
C1237 H1240 0.950 . S
C1238 C1237 1.387 . S
C1238 C1241 1.387 . S
H1239 C1235 0.950 . S
H1240 C1237 0.950 . S
C1241 C1232 1.390 . S
C1241 H1234 0.950 . S
C1241 C1238 1.387 . S
C1242 C1243 1.387 . S
C1242 H1246 0.950 . S
C1242 C1251 1.390 . S
C1243 C1242 1.387 . S
C1243 C1245 1.387 . S
H1244 C1251 0.950 . S
C1245 C1243 1.387 . S
C1245 C1247 1.390 . S
C1245 H1249 0.950 . S
H1246 C1242 0.950 . S
C1247 C1245 1.390 . S
C1247 C1248 1.387 . S
C1247 H1250 0.950 . S
C1248 C1247 1.387 . S
C1248 C1251 1.387 . S
H1249 C1245 0.950 . S
H1250 C1247 0.950 . S
C1251 C1242 1.390 . S
C1251 H1244 0.950 . S
C1251 C1248 1.387 . S
C1252 C1253 1.387 . S
C1252 H1256 0.950 . S
C1252 C1261 1.390 . S
C1253 C1252 1.387 . S
C1253 C1255 1.387 . S
H1254 C1261 0.950 . S
C1255 C1253 1.387 . S
C1255 C1257 1.390 . S
C1255 H1259 0.950 . S
H1256 C1252 0.950 . S
C1257 C1255 1.390 . S
C1257 C1258 1.387 . S
C1257 H1260 0.950 . S
C1258 C1257 1.387 . S
C1258 C1261 1.387 . S
H1259 C1255 0.950 . S
H1260 C1257 0.950 . S
C1261 C1252 1.390 . S
C1261 H1254 0.950 . S
C1261 C1258 1.387 . S
C1262 C1263 1.387 . S
C1262 H1266 0.950 . S
C1262 C1271 1.390 . S
C1263 C1262 1.387 . S
C1263 C1265 1.387 . S
H1264 C1271 0.950 . S
C1265 C1263 1.387 . S
C1265 C1267 1.390 . S
C1265 H1269 0.950 . S
H1266 C1262 0.950 . S
C1267 C1265 1.390 . S
C1267 C1268 1.387 . S
C1267 H1270 0.950 . S
C1268 C1267 1.387 . S
C1268 C1271 1.387 . S
H1269 C1265 0.950 . S
H1270 C1267 0.950 . S
C1271 C1262 1.390 . S
C1271 H1264 0.950 . S
C1271 C1268 1.387 . S
C1272 C1273 1.387 . S
C1272 H1276 0.950 . S
C1272 C1281 1.390 . S
C1273 C1272 1.387 . S
C1273 C1275 1.387 . S
H1274 C1281 0.950 . S
C1275 C1273 1.387 . S
C1275 C1277 1.390 . S
C1275 H1279 0.950 . S
H1276 C1272 0.950 . S
C1277 C1275 1.390 . S
C1277 C1278 1.387 . S
C1277 H1280 0.950 . S
C1278 C1277 1.387 . S
C1278 C1281 1.387 . S
H1279 C1275 0.950 . S
H1280 C1277 0.950 . S
C1281 C1272 1.390 . S
C1281 H1274 0.950 . S
C1281 C1278 1.387 . S
C1282 C1283 1.387 . S
C1282 H1286 0.950 . S
C1282 C1291 1.390 . S
C1283 C1282 1.387 . S
C1283 C1285 1.387 . S
H1284 C1291 0.950 . S
C1285 C1283 1.387 . S
C1285 C1287 1.390 . S
C1285 H1289 0.950 . S
H1286 C1282 0.950 . S
C1287 C1285 1.390 . S
C1287 C1288 1.387 . S
C1287 H1290 0.950 . S
C1288 C1287 1.387 . S
C1288 C1291 1.387 . S
H1289 C1285 0.950 . S
H1290 C1287 0.950 . S
C1291 C1282 1.390 . S
C1291 H1284 0.950 . S
C1291 C1288 1.387 . S
C1292 C1293 1.387 . S
C1292 H1296 0.950 . S
C1292 C1301 1.390 . S
C1293 C1292 1.387 . S
C1293 C1295 1.387 . S
H1294 C1301 0.950 . S
C1295 C1293 1.387 . S
C1295 C1297 1.390 . S
C1295 H1299 0.950 . S
H1296 C1292 0.950 . S
C1297 C1295 1.390 . S
C1297 C1298 1.387 . S
C1297 H1300 0.950 . S
C1298 C1297 1.387 . S
C1298 C1301 1.387 . S
H1299 C1295 0.950 . S
H1300 C1297 0.950 . S
C1301 C1292 1.390 . S
C1301 H1294 0.950 . S
C1301 C1298 1.387 . S
C1302 C1303 1.387 . S
C1302 H1306 0.950 1_554 S
C1302 C1311 1.390 . S
C1303 C1302 1.387 . S
C1303 C1305 1.387 . S
H1304 C1311 0.950 1_556 S
C1305 C1303 1.387 . S
C1305 C1307 1.390 . S
C1305 H1309 0.950 . S
H1306 C1302 0.950 1_556 S
C1307 C1305 1.390 . S
C1307 C1308 1.387 . S
C1307 H1310 0.950 1_565 S
C1308 C1307 1.387 . S
C1308 C1311 1.387 . S
H1309 C1305 0.950 . S
H1310 C1307 0.950 1_545 S
C1311 C1302 1.390 . S
C1311 H1304 0.950 1_554 S
C1311 C1308 1.387 . S
C1312 C1313 1.387 . S
C1312 H1316 0.950 . S
C1312 C1321 1.390 . S
C1313 C1312 1.387 . S
C1313 C1315 1.387 . S
H1314 C1321 0.950 . S
C1315 C1313 1.387 . S
C1315 C1317 1.390 . S
C1315 H1319 0.950 . S
H1316 C1312 0.950 . S
C1317 C1315 1.390 . S
C1317 C1318 1.387 . S
C1317 H1320 0.950 . S
C1318 C1317 1.387 . S
C1318 C1321 1.387 . S
H1319 C1315 0.950 . S
H1320 C1317 0.950 . S
C1321 C1312 1.390 . S
C1321 H1314 0.950 . S
C1321 C1318 1.387 . S
C1322 C1323 1.387 1_556 S
C1322 H1326 0.950 . S
C1322 C1331 1.390 1_556 S
C1323 C1322 1.387 1_554 S
C1323 C1325 1.387 . S
H1324 C1331 0.950 1_556 S
C1325 C1323 1.387 . S
C1325 C1327 1.390 . S
C1325 H1329 0.950 . S
H1326 C1322 0.950 . S
C1327 C1325 1.390 . S
C1327 C1328 1.387 . S
C1327 H1330 0.950 . S
C1328 C1327 1.387 . S
C1328 C1331 1.387 . S
H1329 C1325 0.950 . S
H1330 C1327 0.950 . S
C1331 C1322 1.390 1_554 S
C1331 H1324 0.950 1_554 S
C1331 C1328 1.387 . S
C1332 C1333 1.387 . S
C1332 H1336 0.950 . S
C1332 C1341 1.390 . S
C1333 C1332 1.387 . S
C1333 C1335 1.387 . S
H1334 C1341 0.950 . S
C1335 C1333 1.387 . S
C1335 C1337 1.390 . S
C1335 H1339 0.950 . S
H1336 C1332 0.950 . S
C1337 C1335 1.390 . S
C1337 C1338 1.387 . S
C1337 H1340 0.950 . S
C1338 C1337 1.387 . S
C1338 C1341 1.387 . S
H1339 C1335 0.950 . S
H1340 C1337 0.950 . S
C1341 C1332 1.390 . S
C1341 H1334 0.950 . S
C1341 C1338 1.387 . S
C1342 C1343 1.387 . S
C1342 H1346 0.950 . S
C1342 C1351 1.390 . S
C1343 C1342 1.387 . S
C1343 C1345 1.387 . S
H1344 C1351 0.950 . S
C1345 C1343 1.387 . S
C1345 C1347 1.390 . S
C1345 H1349 0.950 . S
H1346 C1342 0.950 . S
C1347 C1345 1.390 . S
C1347 C1348 1.387 . S
C1347 H1350 0.950 . S
C1348 C1347 1.387 . S
C1348 C1351 1.387 . S
H1349 C1345 0.950 . S
H1350 C1347 0.950 . S
C1351 C1342 1.390 . S
C1351 H1344 0.950 . S
C1351 C1348 1.387 . S
C1352 C1353 1.387 . S
C1352 H1356 0.950 . S
C1352 C1361 1.390 . S
C1353 C1352 1.387 . S
C1353 C1355 1.387 . S
H1354 C1361 0.950 . S
C1355 C1353 1.387 . S
C1355 C1357 1.390 . S
C1355 H1359 0.950 . S
H1356 C1352 0.950 . S
C1357 C1355 1.390 . S
C1357 C1358 1.387 . S
C1357 H1360 0.950 . S
C1358 C1357 1.387 . S
C1358 C1361 1.387 . S
H1359 C1355 0.950 . S
H1360 C1357 0.950 . S
C1361 C1352 1.390 . S
C1361 H1354 0.950 . S
C1361 C1358 1.387 . S
C1362 C1363 1.387 . S
C1362 H1366 0.950 . S
C1362 C1371 1.390 . S
C1363 C1362 1.387 . S
C1363 C1365 1.387 . S
H1364 C1371 0.950 . S
C1365 C1363 1.387 . S
C1365 C1367 1.390 . S
C1365 H1369 0.950 . S
H1366 C1362 0.950 . S
C1367 C1365 1.390 . S
C1367 C1368 1.387 . S
C1367 H1370 0.950 . S
C1368 C1367 1.387 . S
C1368 C1371 1.387 . S
H1369 C1365 0.950 . S
H1370 C1367 0.950 . S
C1371 C1362 1.390 . S
C1371 H1364 0.950 . S
C1371 C1368 1.387 . S
C1372 C1373 1.387 1_655 S
C1372 H1376 0.950 . S
C1372 C1381 1.390 . S
C1373 C1372 1.387 1_455 S
C1373 C1375 1.387 . S
H1374 C1381 0.950 . S
C1375 C1373 1.387 . S
C1375 C1377 1.390 . S
C1375 H1379 0.950 . S
H1376 C1372 0.950 . S
C1377 C1375 1.390 . S
C1377 C1378 1.387 . S
C1377 H1380 0.950 . S
C1378 C1377 1.387 . S
C1378 C1381 1.387 1_455 S
H1379 C1375 0.950 . S
H1380 C1377 0.950 . S
C1381 C1372 1.390 . S
C1381 H1374 0.950 . S
C1381 C1378 1.387 1_655 S
C1382 C1383 1.387 . S
C1382 H1386 0.950 . S
C1382 C1391 1.390 . S
C1383 C1382 1.387 . S
C1383 C1385 1.387 . S
H1384 C1391 0.950 . S
C1385 C1383 1.387 . S
C1385 C1387 1.390 . S
C1385 H1389 0.950 . S
H1386 C1382 0.950 . S
C1387 C1385 1.390 . S
C1387 C1388 1.387 . S
C1387 H1390 0.950 . S
C1388 C1387 1.387 . S
C1388 C1391 1.387 . S
H1389 C1385 0.950 . S
H1390 C1387 0.950 . S
C1391 C1382 1.390 . S
C1391 H1384 0.950 . S
C1391 C1388 1.387 . S
C1392 C1393 1.387 . S
C1392 H1396 0.950 . S
C1392 C1401 1.390 . S
C1393 C1392 1.387 . S
C1393 C1395 1.387 . S
H1394 C1401 0.950 . S
C1395 C1393 1.387 . S
C1395 C1397 1.390 . S
C1395 H1399 0.950 . S
H1396 C1392 0.950 . S
C1397 C1395 1.390 . S
C1397 C1398 1.387 . S
C1397 H1400 0.950 . S
C1398 C1397 1.387 . S
C1398 C1401 1.387 . S
H1399 C1395 0.950 . S
H1400 C1397 0.950 . S
C1401 C1392 1.390 . S
C1401 H1394 0.950 . S
C1401 C1398 1.387 . S
C1402 C1403 1.387 . S
C1402 H1406 0.950 . S
C1402 C1411 1.390 . S
C1403 C1402 1.387 . S
C1403 C1405 1.387 . S
H1404 C1411 0.950 . S
C1405 C1403 1.387 . S
C1405 C1407 1.390 . S
C1405 H1409 0.950 . S
H1406 C1402 0.950 . S
C1407 C1405 1.390 . S
C1407 C1408 1.387 . S
C1407 H1410 0.950 . S
C1408 C1407 1.387 . S
C1408 C1411 1.387 . S
H1409 C1405 0.950 . S
H1410 C1407 0.950 . S
C1411 C1402 1.390 . S
C1411 H1404 0.950 . S
C1411 C1408 1.387 . S
C1412 C1413 1.387 1_655 S
C1412 H1416 0.950 . S
C1412 C1421 1.390 . S
C1413 C1412 1.387 1_455 S
C1413 C1415 1.387 . S
H1414 C1421 0.950 . S
C1415 C1413 1.387 . S
C1415 C1417 1.390 . S
C1415 H1419 0.950 . S
H1416 C1412 0.950 . S
C1417 C1415 1.390 . S
C1417 C1418 1.387 . S
C1417 H1420 0.950 . S
C1418 C1417 1.387 . S
C1418 C1421 1.387 1_455 S
H1419 C1415 0.950 . S
H1420 C1417 0.950 . S
C1421 C1412 1.390 . S
C1421 H1414 0.950 . S
C1421 C1418 1.387 1_655 S
C1422 C1423 1.387 . S
C1422 H1426 0.950 . S
C1422 C1431 1.390 . S
C1423 C1422 1.387 . S
C1423 C1425 1.387 . S
H1424 C1431 0.950 . S
C1425 C1423 1.387 . S
C1425 C1427 1.390 . S
C1425 H1429 0.950 . S
H1426 C1422 0.950 . S
C1427 C1425 1.390 . S
C1427 C1428 1.387 . S
C1427 H1430 0.950 . S
C1428 C1427 1.387 . S
C1428 C1431 1.387 . S
H1429 C1425 0.950 . S
H1430 C1427 0.950 . S
C1431 C1422 1.390 . S
C1431 H1424 0.950 . S
C1431 C1428 1.387 . S
C1432 C1433 1.387 . S
C1432 H1436 0.950 . S
C1432 C1441 1.390 . S
C1433 C1432 1.387 . S
C1433 C1435 1.387 . S
H1434 C1441 0.950 . S
C1435 C1433 1.387 . S
C1435 C1437 1.390 . S
C1435 H1439 0.950 . S
H1436 C1432 0.950 . S
C1437 C1435 1.390 . S
C1437 C1438 1.387 . S
C1437 H1440 0.950 . S
C1438 C1437 1.387 . S
C1438 C1441 1.387 . S
H1439 C1435 0.950 . S
H1440 C1437 0.950 . S
C1441 C1432 1.390 . S
C1441 H1434 0.950 . S
C1441 C1438 1.387 . S
C1442 C1443 1.387 . S
C1442 H1446 0.950 . S
C1442 C1451 1.390 . S
C1443 C1442 1.387 . S
C1443 C1445 1.387 . S
H1444 C1451 0.950 . S
C1445 C1443 1.387 . S
C1445 C1447 1.390 . S
C1445 H1449 0.950 . S
H1446 C1442 0.950 . S
C1447 C1445 1.390 . S
C1447 C1448 1.387 . S
C1447 H1450 0.950 . S
C1448 C1447 1.387 . S
C1448 C1451 1.387 . S
H1449 C1445 0.950 . S
H1450 C1447 0.950 . S
C1451 C1442 1.390 . S
C1451 H1444 0.950 . S
C1451 C1448 1.387 . S
C1452 C1453 1.387 . S
C1452 H1456 0.950 . S
C1452 C1461 1.390 . S
C1453 C1452 1.387 . S
C1453 C1455 1.387 . S
H1454 C1461 0.950 1_455 S
C1455 C1453 1.387 . S
C1455 C1457 1.390 . S
C1455 H1459 0.950 . S
H1456 C1452 0.950 . S
C1457 C1455 1.390 . S
C1457 C1458 1.387 . S
C1457 H1460 0.950 . S
C1458 C1457 1.387 . S
C1458 C1461 1.387 . S
H1459 C1455 0.950 . S
H1460 C1457 0.950 . S
C1461 C1452 1.390 . S
C1461 H1454 0.950 1_655 S
C1461 C1458 1.387 . S
C1462 C1463 1.387 . S
C1462 H1466 0.950 . S
C1462 C1471 1.390 . S
C1463 C1462 1.387 . S
C1463 C1465 1.387 . S
H1464 C1471 0.950 . S
C1465 C1463 1.387 . S
C1465 C1467 1.390 . S
C1465 H1469 0.950 . S
H1466 C1462 0.950 . S
C1467 C1465 1.390 . S
C1467 C1468 1.387 . S
C1467 H1470 0.950 . S
C1468 C1467 1.387 . S
C1468 C1471 1.387 . S
H1469 C1465 0.950 . S
H1470 C1467 0.950 . S
C1471 C1462 1.390 . S
C1471 H1464 0.950 . S
C1471 C1468 1.387 . S
C1472 C1473 1.387 . S
C1472 H1476 0.950 . S
C1472 C1481 1.390 . S
C1473 C1472 1.387 . S
C1473 C1475 1.387 . S
H1474 C1481 0.950 . S
C1475 C1473 1.387 . S
C1475 C1477 1.390 . S
C1475 H1479 0.950 . S
H1476 C1472 0.950 . S
C1477 C1475 1.390 . S
C1477 C1478 1.387 . S
C1477 H1480 0.950 . S
C1478 C1477 1.387 . S
C1478 C1481 1.387 . S
H1479 C1475 0.950 . S
H1480 C1477 0.950 . S
C1481 C1472 1.390 . S
C1481 H1474 0.950 . S
C1481 C1478 1.387 . S
C1482 C1483 1.387 . S
C1482 H1486 0.950 . S
C1482 C1491 1.390 . S
C1483 C1482 1.387 . S
C1483 C1485 1.387 . S
H1484 C1491 0.950 . S
C1485 C1483 1.387 . S
C1485 C1487 1.390 . S
C1485 H1489 0.950 . S
H1486 C1482 0.950 . S
C1487 C1485 1.390 . S
C1487 C1488 1.387 . S
C1487 H1490 0.950 . S
C1488 C1487 1.387 . S
C1488 C1491 1.387 . S
H1489 C1485 0.950 . S
H1490 C1487 0.950 . S
C1491 C1482 1.390 . S
C1491 H1484 0.950 . S
C1491 C1488 1.387 . S
C1492 C1493 1.387 . S
C1492 H1496 0.950 . S
C1492 C1501 1.390 . S
C1493 C1492 1.387 . S
C1493 C1495 1.387 . S
H1494 C1501 0.950 . S
C1495 C1493 1.387 . S
C1495 C1497 1.390 . S
C1495 H1499 0.950 . S
H1496 C1492 0.950 . S
C1497 C1495 1.390 . S
C1497 C1498 1.387 . S
C1497 H1500 0.950 . S
C1498 C1497 1.387 . S
C1498 C1501 1.387 . S
H1499 C1495 0.950 . S
H1500 C1497 0.950 . S
C1501 C1492 1.390 . S
C1501 H1494 0.950 . S
C1501 C1498 1.387 . S
C1502 C1503 1.387 . S
C1502 H1506 0.950 . S
C1502 C1511 1.390 . S
C1503 C1502 1.387 . S
C1503 C1505 1.387 . S
H1504 C1511 0.950 . S
C1505 C1503 1.387 . S
C1505 C1507 1.390 . S
C1505 H1509 0.950 . S
H1506 C1502 0.950 . S
C1507 C1505 1.390 . S
C1507 C1508 1.387 . S
C1507 H1510 0.950 . S
C1508 C1507 1.387 . S
C1508 C1511 1.387 . S
H1509 C1505 0.950 . S
H1510 C1507 0.950 . S
C1511 C1502 1.390 . S
C1511 H1504 0.950 . S
C1511 C1508 1.387 . S
C1512 C1513 1.387 . S
C1512 H1516 0.950 . S
C1512 C1521 1.390 . S
C1513 C1512 1.387 . S
C1513 C1515 1.387 . S
H1514 C1521 0.950 . S
C1515 C1513 1.387 . S
C1515 C1517 1.390 . S
C1515 H1519 0.950 . S
H1516 C1512 0.950 . S
C1517 C1515 1.390 . S
C1517 C1518 1.387 . S
C1517 H1520 0.950 . S
C1518 C1517 1.387 . S
C1518 C1521 1.387 . S
H1519 C1515 0.950 . S
H1520 C1517 0.950 . S
C1521 C1512 1.390 . S
C1521 H1514 0.950 . S
C1521 C1518 1.387 . S
C1522 C1523 1.387 . S
C1522 H1526 0.950 . S
C1522 C1531 1.390 . S
C1523 C1522 1.387 . S
C1523 C1525 1.387 . S
H1524 C1531 0.950 . S
C1525 C1523 1.387 . S
C1525 C1527 1.390 . S
C1525 H1529 0.950 . S
H1526 C1522 0.950 . S
C1527 C1525 1.390 . S
C1527 C1528 1.387 . S
C1527 H1530 0.950 . S
C1528 C1527 1.387 . S
C1528 C1531 1.387 . S
H1529 C1525 0.950 . S
H1530 C1527 0.950 . S
C1531 C1522 1.390 . S
C1531 H1524 0.950 . S
C1531 C1528 1.387 . S
C1532 C1533 1.387 . S
C1532 H1536 0.950 . S
C1532 C1541 1.390 . S
C1533 C1532 1.387 . S
C1533 C1535 1.387 . S
H1534 C1541 0.950 . S
C1535 C1533 1.387 . S
C1535 C1537 1.390 . S
C1535 H1539 0.950 . S
H1536 C1532 0.950 . S
C1537 C1535 1.390 . S
C1537 C1538 1.387 . S
C1537 H1540 0.950 . S
C1538 C1537 1.387 . S
C1538 C1541 1.387 . S
H1539 C1535 0.950 . S
H1540 C1537 0.950 . S
C1541 C1532 1.390 . S
C1541 H1534 0.950 . S
C1541 C1538 1.387 . S
C1542 C1543 1.387 . S
C1542 H1546 0.950 . S
C1542 C1551 1.390 . S
C1543 C1542 1.387 . S
C1543 C1545 1.387 1_554 S
H1544 C1551 0.950 . S
C1545 C1543 1.387 1_556 S
C1545 C1547 1.390 . S
C1545 H1549 0.950 . S
H1546 C1542 0.950 . S
C1547 C1545 1.390 . S
C1547 C1548 1.387 1_556 S
C1547 H1550 0.950 . S
C1548 C1547 1.387 1_554 S
C1548 C1551 1.387 . S
H1549 C1545 0.950 . S
H1550 C1547 0.950 . S
C1551 C1542 1.390 . S
C1551 H1544 0.950 . S
C1551 C1548 1.387 . S
C1552 C1553 1.387 . S
C1552 H1556 0.950 . S
C1552 C1561 1.390 . S
C1553 C1552 1.387 . S
C1553 C1555 1.387 . S
H1554 C1561 0.950 . S
C1555 C1553 1.387 . S
C1555 C1557 1.390 . S
C1555 H1559 0.950 . S
H1556 C1552 0.950 . S
C1557 C1555 1.390 . S
C1557 C1558 1.387 . S
C1557 H1560 0.950 . S
C1558 C1557 1.387 . S
C1558 C1561 1.387 . S
H1559 C1555 0.950 . S
H1560 C1557 0.950 . S
C1561 C1552 1.390 . S
C1561 H1554 0.950 . S
C1561 C1558 1.387 . S
C1562 C1563 1.387 . S
C1562 H1566 0.950 . S
C1562 C1571 1.390 . S
C1563 C1562 1.387 . S
C1563 C1565 1.387 1_554 S
H1564 C1571 0.950 . S
C1565 C1563 1.387 1_556 S
C1565 C1567 1.390 . S
C1565 H1569 0.950 . S
H1566 C1562 0.950 . S
C1567 C1565 1.390 . S
C1567 C1568 1.387 . S
C1567 H1570 0.950 . S
C1568 C1567 1.387 . S
C1568 C1571 1.387 1_556 S
H1569 C1565 0.950 . S
H1570 C1567 0.950 . S
C1571 C1562 1.390 . S
C1571 H1564 0.950 . S
C1571 C1568 1.387 1_554 S
C1572 C1573 1.387 . S
C1572 H1576 0.950 . S
C1572 C1581 1.390 . S
C1573 C1572 1.387 . S
C1573 C1575 1.387 . S
H1574 C1581 0.950 . S
C1575 C1573 1.387 . S
C1575 C1577 1.390 . S
C1575 H1579 0.950 . S
H1576 C1572 0.950 . S
C1577 C1575 1.390 . S
C1577 C1578 1.387 . S
C1577 H1580 0.950 . S
C1578 C1577 1.387 . S
C1578 C1581 1.387 . S
H1579 C1575 0.950 . S
H1580 C1577 0.950 . S
C1581 C1572 1.390 . S
C1581 H1574 0.950 . S
C1581 C1578 1.387 . S
C1582 C1583 1.387 . S
C1582 H1586 0.950 . S
C1582 C1591 1.390 . S
C1583 C1582 1.387 . S
C1583 C1585 1.387 . S
H1584 C1591 0.950 . S
C1585 C1583 1.387 . S
C1585 C1587 1.390 . S
C1585 H1589 0.950 . S
H1586 C1582 0.950 . S
C1587 C1585 1.390 . S
C1587 C1588 1.387 . S
C1587 H1590 0.950 . S
C1588 C1587 1.387 . S
C1588 C1591 1.387 . S
H1589 C1585 0.950 . S
H1590 C1587 0.950 . S
C1591 C1582 1.390 . S
C1591 H1584 0.950 . S
C1591 C1588 1.387 . S
C633 C101 1.319 . S
C638 C328 1.288 . S
C643 C57 1.404 . S
C648 C341 1.423 . S
C653 C73 1.425 . S
C658 C360 1.470 . S
C668 C391 1.811 . S
C663 C78 1.839 . S
C673 C21 1.700 . S
C678 C411 1.693 . S
C688 C428 1.035 . S
C683 C31 1.030 . S
C698 C441 1.493 . S
C693 C49 1.502 . S
C703 C0 1.099 . S
C708 C468 1.079 . S
C718 C321 1.301 . S
C713 C218 1.310 . S
C723 C229 1.485 . S
C728 C351 1.533 . S
C738 C353 1.697 . S
C733 C257 1.741 . S
C748 C388 1.016 . S
C743 C164 0.973 . S
C753 C216 1.178 . S
C758 C408 1.245 . S
C768 C421 1.752 . S
C763 C231 1.747 . S
C778 C451 1.398 . S
C773 C255 1.363 . S
C788 C461 1.233 . S
C783 C166 1.277 . S
C798 C331 1.599 1_565 S
C793 C143 1.594 . S
C803 C265 1.658 . S
C808 C481 1.709 . S
C818 C511 1.590 . S
C813 C299 1.533 . S
C828 C528 1.299 . S
C823 C291 1.288 . S
C833 C104 1.784 . S
C838 C471 1.781 . S
C843 C117 1.247 . S
C848 C358 1.251 . S
C853 C304 1.693 . S
C858 C541 1.750 . S
C868 C568 1.108 . S
C863 C278 1.151 . S
C878 C318 1.283 . S
C873 C60 1.314 . S
C888 C553 1.378 . S
C883 C96 1.366 . S
C893 C88 1.430 . S
C898 C371 1.420 . S
C903 C65 1.755 . S
C908 C540 1.763 . S
C918 C400 1.637 . S
C913 C10 1.685 . S
C923 C44 0.996 . S
C928 C498 1.003 . S
C938 C433 1.467 1_556 S
C933 C34 1.412 . S
C948 C578 1.079 . S
C943 C13 1.129 . S
C958 C313 1.273 1_565 S
C953 C138 1.267 1_565 S
C968 C560 1.468 . S
C963 C296 1.496 . S
C973 C112 1.610 . S
C978 C361 1.646 . S
C983 C270 0.949 . S
C988 C538 0.943 . S
C993 C140 1.177 . S
C998 C398 1.175 . S
C1008 C493 1.723 . S
C1003 C294 1.626 . S
C1013 C114 1.382 . S
C1018 C440 1.348 . S
C1023 C268 1.233 . S
C1028 C573 1.206 . S
C1033 C169 1.584 . S
C1038 C320 1.574 . S
C1043 C161 1.650 . S
C1048 C473 1.672 . S
C1053 C234 1.581 . S
C1058 C420 1.552 . S
C1063 C226 1.223 . S
C1068 C518 1.242 . S
C1078 C580 1.773 . S
C1073 C247 1.750 . S
C1083 C195 1.323 . S
C1088 C368 1.223 . S
C1098 C373 1.706 . S
C1093 C239 1.683 . S
C1108 C338 1.072 . S
C1103 C187 1.106 . S
C1113 C75 1.319 . S
C1118 C608 1.288 . S
C1128 C561 1.423 . S
C1123 C83 1.404 . S
C1133 C99 1.425 . S
C1138 C620 1.471 . S
C1143 C52 1.839 . S
C1148 C551 1.811 . S
C1153 C47 1.700 . S
C1158 C491 1.693 . S
C1168 C508 1.033 . S
C1163 C5 1.033 . S
C1178 C521 1.482 1_655 S
C1173 C23 1.502 . S
C1188 C588 1.076 . S
C1183 C26 1.099 . S
C1198 C601 1.300 . S
C1193 C244 1.312 . S
C1203 C177 1.483 . S
C1208 C571 1.532 . S
C1218 C613 1.695 . S
C1213 C192 1.741 . S
C1228 C548 1.013 . S
C1223 C203 0.979 . S
C1238 C488 1.247 . S
C1233 C242 1.175 . S
C1243 C179 1.748 . S
C1248 C501 1.752 . S
C1258 C531 1.395 . S
C1253 C190 1.362 . S
C1263 C205 1.276 . S
C1268 C581 1.233 . S
C1278 C611 1.597 . S
C1273 C286 1.593 . S
C1283 C122 1.660 . S
C1288 C401 1.710 . S
C1298 C431 1.590 . S
C1293 C130 1.536 . S
C1308 C448 1.299 . S
C1303 C148 1.288 . S
C1318 C591 1.783 . S
C1313 C273 1.784 . S
C1323 C260 1.247 . S
C1328 C618 1.252 . S
C1338 C381 1.748 . S
C1333 C135 1.688 . S
C1348 C348 1.107 . S
C1343 C109 1.151 . S
C1353 C86 1.313 . S
C1358 C598 1.274 . S
C1368 C333 1.378 . S
C1363 C70 1.363 . S
C1373 C62 1.430 . S
C1378 C631 1.418 . S
C1383 C91 1.754 . S
C1388 C380 1.761 . S
C1393 C36 1.686 . S
C1398 C480 1.634 1_556 S
C1408 C418 1.004 . S
C1403 C18 0.995 . S
C1413 C8 1.410 . S
C1418 C513 1.467 . S
C1423 C39 1.128 . S
C1428 C458 1.079 . S
C1438 C593 1.273 . S
C1433 C307 1.266 . S
C1443 C153 1.498 . S
C1448 C340 1.469 . S
C1458 C621 1.640 1_655 S
C1453 C281 1.609 . S
C1463 C127 0.951 . S
C1468 C378 0.945 . S
C1473 C309 1.177 . S
C1478 C478 1.176 . S
C1488 C413 1.723 . S
C1483 C151 1.629 . S
C1493 C283 1.382 . S
C1498 C520 1.347 . S
C1508 C453 1.201 . S
C1503 C125 1.233 . S
C1518 C600 1.573 . S
C1513 C221 1.583 . S
C1528 C393 1.672 1_565 S
C1523 C200 1.650 . S
C1533 C208 1.581 . S
C1538 C500 1.553 . S
C1548 C438 1.241 . S
C1543 C174 1.226 . S
C1553 C182 1.751 . S
C1558 C460 1.772 . S
C1563 C156 1.324 . S
C1568 C628 1.225 . S
C1578 C533 1.705 . S
C1573 C213 1.681 . S
C1588 C558 1.072 . S
C1583 C252 1.105 . S
