# Generated by pormake.
# Topology gar, (4,6)-cn, num edge types: 1
# Building blocks:
#     Node 0, Type 0, BuildingBlock: QUQFOY_clean_sbu_1, # of connection points: 4
#     Node 1, Type 0, BuildingBlock: QUQFOY_clean_sbu_1, # of connection points: 4
#     Node 2, Type 0, BuildingBlock: QUQFOY_clean_sbu_1, # of connection points: 4
#     Node 3, Type 0, BuildingBlock: QUQFOY_clean_sbu_1, # of connection points: 4
#     Node 4, Type 0, BuildingBlock: QUQFOY_clean_sbu_1, # of connection points: 4
#     Node 5, Type 0, BuildingBlock: QUQFOY_clean_sbu_1, # of connection points: 4
#     Node 6, Type 0, BuildingBlock: QUQFOY_clean_sbu_1, # of connection points: 4
#     Node 7, Type 0, BuildingBlock: QUQFOY_clean_sbu_1, # of connection points: 4
#     Node 8, Type 0, BuildingBlock: QUQFOY_clean_sbu_1, # of connection points: 4
#     Node 9, Type 0, BuildingBlock: QUQFOY_clean_sbu_1, # of connection points: 4
#     Node 10, Type 0, BuildingBlock: QUQFOY_clean_sbu_1, # of connection points: 4
#     Node 11, Type 0, BuildingBlock: QUQFOY_clean_sbu_1, # of connection points: 4
#     Node 12, Type 0, BuildingBlock: QUQFOY_clean_sbu_1, # of connection points: 4
#     Node 13, Type 0, BuildingBlock: QUQFOY_clean_sbu_1, # of connection points: 4
#     Node 14, Type 0, BuildingBlock: QUQFOY_clean_sbu_1, # of connection points: 4
#     Node 15, Type 0, BuildingBlock: QUQFOY_clean_sbu_1, # of connection points: 4
#     Node 16, Type 0, BuildingBlock: QUQFOY_clean_sbu_1, # of connection points: 4
#     Node 17, Type 0, BuildingBlock: QUQFOY_clean_sbu_1, # of connection points: 4
#     Node 18, Type 0, BuildingBlock: QUQFOY_clean_sbu_1, # of connection points: 4
#     Node 19, Type 0, BuildingBlock: QUQFOY_clean_sbu_1, # of connection points: 4
#     Node 20, Type 0, BuildingBlock: QUQFOY_clean_sbu_1, # of connection points: 4
#     Node 21, Type 0, BuildingBlock: QUQFOY_clean_sbu_1, # of connection points: 4
#     Node 22, Type 0, BuildingBlock: QUQFOY_clean_sbu_1, # of connection points: 4
#     Node 23, Type 0, BuildingBlock: QUQFOY_clean_sbu_1, # of connection points: 4
#     Node 24, Type 1, BuildingBlock: BETDIP_clean_sbu_0, # of connection points: 6
#     Node 25, Type 1, BuildingBlock: BETDIP_clean_sbu_0, # of connection points: 6
#     Node 26, Type 1, BuildingBlock: BETDIP_clean_sbu_0, # of connection points: 6
#     Node 27, Type 1, BuildingBlock: BETDIP_clean_sbu_0, # of connection points: 6
#     Node 28, Type 1, BuildingBlock: BETDIP_clean_sbu_0, # of connection points: 6
#     Node 29, Type 1, BuildingBlock: BETDIP_clean_sbu_0, # of connection points: 6
#     Node 30, Type 1, BuildingBlock: BETDIP_clean_sbu_0, # of connection points: 6
#     Node 31, Type 1, BuildingBlock: BETDIP_clean_sbu_0, # of connection points: 6
#     Node 32, Type 1, BuildingBlock: BETDIP_clean_sbu_0, # of connection points: 6
#     Node 33, Type 1, BuildingBlock: BETDIP_clean_sbu_0, # of connection points: 6
#     Node 34, Type 1, BuildingBlock: BETDIP_clean_sbu_0, # of connection points: 6
#     Node 35, Type 1, BuildingBlock: BETDIP_clean_sbu_0, # of connection points: 6
#     Node 36, Type 1, BuildingBlock: BETDIP_clean_sbu_0, # of connection points: 6
#     Node 37, Type 1, BuildingBlock: BETDIP_clean_sbu_0, # of connection points: 6
#     Node 38, Type 1, BuildingBlock: BETDIP_clean_sbu_0, # of connection points: 6
#     Node 39, Type 1, BuildingBlock: BETDIP_clean_sbu_0, # of connection points: 6
#     Edge 40, Type (0, 1), BuildingBlock: CIFDUS_clean_linker_0, # of connection points: 2
#     Edge 41, Type (0, 1), BuildingBlock: CIFDUS_clean_linker_0, # of connection points: 2
#     Edge 42, Type (0, 1), BuildingBlock: CIFDUS_clean_linker_0, # of connection points: 2
#     Edge 43, Type (0, 1), BuildingBlock: CIFDUS_clean_linker_0, # of connection points: 2
#     Edge 44, Type (0, 1), BuildingBlock: CIFDUS_clean_linker_0, # of connection points: 2
#     Edge 45, Type (0, 1), BuildingBlock: CIFDUS_clean_linker_0, # of connection points: 2
#     Edge 46, Type (0, 1), BuildingBlock: CIFDUS_clean_linker_0, # of connection points: 2
#     Edge 47, Type (0, 1), BuildingBlock: CIFDUS_clean_linker_0, # of connection points: 2
#     Edge 48, Type (0, 1), BuildingBlock: CIFDUS_clean_linker_0, # of connection points: 2
#     Edge 49, Type (0, 1), BuildingBlock: CIFDUS_clean_linker_0, # of connection points: 2
#     Edge 50, Type (0, 1), BuildingBlock: CIFDUS_clean_linker_0, # of connection points: 2
#     Edge 51, Type (0, 1), BuildingBlock: CIFDUS_clean_linker_0, # of connection points: 2
#     Edge 52, Type (0, 1), BuildingBlock: CIFDUS_clean_linker_0, # of connection points: 2
#     Edge 53, Type (0, 1), BuildingBlock: CIFDUS_clean_linker_0, # of connection points: 2
#     Edge 54, Type (0, 1), BuildingBlock: CIFDUS_clean_linker_0, # of connection points: 2
#     Edge 55, Type (0, 1), BuildingBlock: CIFDUS_clean_linker_0, # of connection points: 2
#     Edge 56, Type (0, 1), BuildingBlock: CIFDUS_clean_linker_0, # of connection points: 2
#     Edge 57, Type (0, 1), BuildingBlock: CIFDUS_clean_linker_0, # of connection points: 2
#     Edge 58, Type (0, 1), BuildingBlock: CIFDUS_clean_linker_0, # of connection points: 2
#     Edge 59, Type (0, 1), BuildingBlock: CIFDUS_clean_linker_0, # of connection points: 2
#     Edge 60, Type (0, 1), BuildingBlock: CIFDUS_clean_linker_0, # of connection points: 2
#     Edge 61, Type (0, 1), BuildingBlock: CIFDUS_clean_linker_0, # of connection points: 2
#     Edge 62, Type (0, 1), BuildingBlock: CIFDUS_clean_linker_0, # of connection points: 2
#     Edge 63, Type (0, 1), BuildingBlock: CIFDUS_clean_linker_0, # of connection points: 2
#     Edge 64, Type (0, 1), BuildingBlock: CIFDUS_clean_linker_0, # of connection points: 2
#     Edge 65, Type (0, 1), BuildingBlock: CIFDUS_clean_linker_0, # of connection points: 2
#     Edge 66, Type (0, 1), BuildingBlock: CIFDUS_clean_linker_0, # of connection points: 2
#     Edge 67, Type (0, 1), BuildingBlock: CIFDUS_clean_linker_0, # of connection points: 2
#     Edge 68, Type (0, 1), BuildingBlock: CIFDUS_clean_linker_0, # of connection points: 2
#     Edge 69, Type (0, 1), BuildingBlock: CIFDUS_clean_linker_0, # of connection points: 2
#     Edge 70, Type (0, 1), BuildingBlock: CIFDUS_clean_linker_0, # of connection points: 2
#     Edge 71, Type (0, 1), BuildingBlock: CIFDUS_clean_linker_0, # of connection points: 2
#     Edge 72, Type (0, 1), BuildingBlock: CIFDUS_clean_linker_0, # of connection points: 2
#     Edge 73, Type (0, 1), BuildingBlock: CIFDUS_clean_linker_0, # of connection points: 2
#     Edge 74, Type (0, 1), BuildingBlock: CIFDUS_clean_linker_0, # of connection points: 2
#     Edge 75, Type (0, 1), BuildingBlock: CIFDUS_clean_linker_0, # of connection points: 2
#     Edge 76, Type (0, 1), BuildingBlock: CIFDUS_clean_linker_0, # of connection points: 2
#     Edge 77, Type (0, 1), BuildingBlock: CIFDUS_clean_linker_0, # of connection points: 2
#     Edge 78, Type (0, 1), BuildingBlock: CIFDUS_clean_linker_0, # of connection points: 2
#     Edge 79, Type (0, 1), BuildingBlock: CIFDUS_clean_linker_0, # of connection points: 2
#     Edge 80, Type (0, 1), BuildingBlock: CIFDUS_clean_linker_0, # of connection points: 2
#     Edge 81, Type (0, 1), BuildingBlock: CIFDUS_clean_linker_0, # of connection points: 2
#     Edge 82, Type (0, 1), BuildingBlock: CIFDUS_clean_linker_0, # of connection points: 2
#     Edge 83, Type (0, 1), BuildingBlock: CIFDUS_clean_linker_0, # of connection points: 2
#     Edge 84, Type (0, 1), BuildingBlock: CIFDUS_clean_linker_0, # of connection points: 2
#     Edge 85, Type (0, 1), BuildingBlock: CIFDUS_clean_linker_0, # of connection points: 2
#     Edge 86, Type (0, 1), BuildingBlock: CIFDUS_clean_linker_0, # of connection points: 2
#     Edge 87, Type (0, 1), BuildingBlock: CIFDUS_clean_linker_0, # of connection points: 2
#     Edge 88, Type (0, 1), BuildingBlock: CIFDUS_clean_linker_0, # of connection points: 2
#     Edge 89, Type (0, 1), BuildingBlock: CIFDUS_clean_linker_0, # of connection points: 2
#     Edge 90, Type (0, 1), BuildingBlock: CIFDUS_clean_linker_0, # of connection points: 2
#     Edge 91, Type (0, 1), BuildingBlock: CIFDUS_clean_linker_0, # of connection points: 2
#     Edge 92, Type (0, 1), BuildingBlock: CIFDUS_clean_linker_0, # of connection points: 2
#     Edge 93, Type (0, 1), BuildingBlock: CIFDUS_clean_linker_0, # of connection points: 2
#     Edge 94, Type (0, 1), BuildingBlock: CIFDUS_clean_linker_0, # of connection points: 2
#     Edge 95, Type (0, 1), BuildingBlock: CIFDUS_clean_linker_0, # of connection points: 2
#     Edge 96, Type (0, 1), BuildingBlock: CIFDUS_clean_linker_0, # of connection points: 2
#     Edge 97, Type (0, 1), BuildingBlock: CIFDUS_clean_linker_0, # of connection points: 2
#     Edge 98, Type (0, 1), BuildingBlock: CIFDUS_clean_linker_0, # of connection points: 2
#     Edge 99, Type (0, 1), BuildingBlock: CIFDUS_clean_linker_0, # of connection points: 2
#     Edge 100, Type (0, 1), BuildingBlock: CIFDUS_clean_linker_0, # of connection points: 2
#     Edge 101, Type (0, 1), BuildingBlock: CIFDUS_clean_linker_0, # of connection points: 2
#     Edge 102, Type (0, 1), BuildingBlock: CIFDUS_clean_linker_0, # of connection points: 2
#     Edge 103, Type (0, 1), BuildingBlock: CIFDUS_clean_linker_0, # of connection points: 2
#     Edge 104, Type (0, 1), BuildingBlock: CIFDUS_clean_linker_0, # of connection points: 2
#     Edge 105, Type (0, 1), BuildingBlock: CIFDUS_clean_linker_0, # of connection points: 2
#     Edge 106, Type (0, 1), BuildingBlock: CIFDUS_clean_linker_0, # of connection points: 2
#     Edge 107, Type (0, 1), BuildingBlock: CIFDUS_clean_linker_0, # of connection points: 2
#     Edge 108, Type (0, 1), BuildingBlock: CIFDUS_clean_linker_0, # of connection points: 2
#     Edge 109, Type (0, 1), BuildingBlock: CIFDUS_clean_linker_0, # of connection points: 2
#     Edge 110, Type (0, 1), BuildingBlock: CIFDUS_clean_linker_0, # of connection points: 2
#     Edge 111, Type (0, 1), BuildingBlock: CIFDUS_clean_linker_0, # of connection points: 2
#     Edge 112, Type (0, 1), BuildingBlock: CIFDUS_clean_linker_0, # of connection points: 2
#     Edge 113, Type (0, 1), BuildingBlock: CIFDUS_clean_linker_0, # of connection points: 2
#     Edge 114, Type (0, 1), BuildingBlock: CIFDUS_clean_linker_0, # of connection points: 2
#     Edge 115, Type (0, 1), BuildingBlock: CIFDUS_clean_linker_0, # of connection points: 2
#     Edge 116, Type (0, 1), BuildingBlock: CIFDUS_clean_linker_0, # of connection points: 2
#     Edge 117, Type (0, 1), BuildingBlock: CIFDUS_clean_linker_0, # of connection points: 2
#     Edge 118, Type (0, 1), BuildingBlock: CIFDUS_clean_linker_0, # of connection points: 2
#     Edge 119, Type (0, 1), BuildingBlock: CIFDUS_clean_linker_0, # of connection points: 2
#     Edge 120, Type (0, 1), BuildingBlock: CIFDUS_clean_linker_0, # of connection points: 2
#     Edge 121, Type (0, 1), BuildingBlock: CIFDUS_clean_linker_0, # of connection points: 2
#     Edge 122, Type (0, 1), BuildingBlock: CIFDUS_clean_linker_0, # of connection points: 2
#     Edge 123, Type (0, 1), BuildingBlock: CIFDUS_clean_linker_0, # of connection points: 2
#     Edge 124, Type (0, 1), BuildingBlock: CIFDUS_clean_linker_0, # of connection points: 2
#     Edge 125, Type (0, 1), BuildingBlock: CIFDUS_clean_linker_0, # of connection points: 2
#     Edge 126, Type (0, 1), BuildingBlock: CIFDUS_clean_linker_0, # of connection points: 2
#     Edge 127, Type (0, 1), BuildingBlock: CIFDUS_clean_linker_0, # of connection points: 2
#     Edge 128, Type (0, 1), BuildingBlock: CIFDUS_clean_linker_0, # of connection points: 2
#     Edge 129, Type (0, 1), BuildingBlock: CIFDUS_clean_linker_0, # of connection points: 2
#     Edge 130, Type (0, 1), BuildingBlock: CIFDUS_clean_linker_0, # of connection points: 2
#     Edge 131, Type (0, 1), BuildingBlock: CIFDUS_clean_linker_0, # of connection points: 2
#     Edge 132, Type (0, 1), BuildingBlock: CIFDUS_clean_linker_0, # of connection points: 2
#     Edge 133, Type (0, 1), BuildingBlock: CIFDUS_clean_linker_0, # of connection points: 2
#     Edge 134, Type (0, 1), BuildingBlock: CIFDUS_clean_linker_0, # of connection points: 2
#     Edge 135, Type (0, 1), BuildingBlock: CIFDUS_clean_linker_0, # of connection points: 2
# Relax obj value: 0.220
# Max RMSD: 0.338
# Mean RMSD: 0.181
data_MOF--net-gar--node1-QUQFOY_clean_sbu_1--node2-BETDIP_clean_sbu_0--edge1-CIFDUS_clean_linker_0
_symmetry_space_group_name_H-M    P1
_symmetry_Int_Tables_number       1
_symmetry_cell_setting            triclinic
loop_
_symmetry_equiv_pos_as_xyz
'x, y, z'
_cell_length_a     58.566848
_cell_length_b     51.254372
_cell_length_c     48.709177
_cell_angle_alpha  97.628546
_cell_angle_beta   99.250075
_cell_angle_gamma 104.31611
loop_
_atom_site_label
_atom_site_type_symbol
_atom_site_fract_x
_atom_site_fract_y
_atom_site_fract_z
_atom_type_partial_charge
O0 O 0.03445 0.28963 0.41862 0.0
Cd1 Cd 0.03412 0.31637 0.39099 0.0
Cd2 Cd 0.02812 0.3525 0.44022 0.0
O3 O 0.03585 0.31993 0.45597 0.0
O4 O 0.04667 0.30148 0.35902 0.0
O5 O 0.06592 0.34043 0.38876 0.0
C6 C 0.06536 0.32221 0.36741 0.0
C7 C 0.03134 0.38808 0.47723 0.0
C8 C 0.03659 0.29633 0.44511 0.0
C9 C 0.98987 0.33421 0.38501 0.0
O10 O 0.99779 0.34715 0.41018 0.0
O11 O 1.002 0.3208 0.3728 0.0
O12 O 1.01429 0.36583 0.47214 0.0
O13 O 0.04697 0.39048 0.46118 0.0
O14 O 0.06512 0.72147 0.75784 0.0
Cd15 Cd 0.07999 0.75215 0.79314 0.0
Cd16 Cd 0.09221 0.78269 0.75471 0.0
O17 O 0.07263 0.74825 0.72663 0.0
O18 O 0.05933 0.74986 0.82221 0.0
O19 O 0.0646 0.7827 0.79654 0.0
C20 C 0.05429 0.77163 0.81533 0.0
C21 C 0.09129 0.82334 0.73894 0.0
C22 C 0.06381 0.72485 0.73225 0.0
C23 C 0.1319 0.77213 0.79601 0.0
O24 O 0.1253 0.78181 0.77444 0.0
O25 O 0.11661 0.75989 0.80912 0.0
O26 O 0.10271 0.80733 0.72854 0.0
O27 O 0.08017 0.81642 0.75877 0.0
O28 O 0.57747 0.83314 0.92998 0.0
Cd29 Cd 0.54805 0.8383 0.94604 0.0
Cd30 Cd 0.54347 0.8643 0.90215 0.0
O31 O 0.57324 0.85342 0.89297 0.0
O32 O 0.54889 0.81925 0.97858 0.0
O33 O 0.51881 0.80607 0.94144 0.0
C34 C 0.52819 0.8031 0.96623 0.0
C35 C 0.50557 0.84245 0.87605 0.0
C36 C 0.58448 0.84035 0.90805 0.0
C37 C 0.54745 0.89751 0.95777 0.0
O38 O 0.54667 0.89844 0.93174 0.0
O39 O 0.54796 0.87556 0.9668 0.0
O40 O 0.5191 0.86303 0.86829 0.0
O41 O 0.51408 0.83375 0.89808 0.0
O42 O 0.55354 0.21888 0.25195 0.0
Cd43 Cd 0.56854 0.24936 0.28702 0.0
Cd44 Cd 0.58282 0.27939 0.24816 0.0
O45 O 0.56235 0.24508 0.22061 0.0
O46 O 0.54714 0.25035 0.31487 0.0
O47 O 0.55726 0.28276 0.28942 0.0
C48 C 0.5456 0.2735 0.30804 0.0
C49 C 0.58471 0.31999 0.23102 0.0
C50 C 0.55292 0.22194 0.22637 0.0
C51 C 0.62024 0.26685 0.29147 0.0
O52 O 0.61478 0.27696 0.26978 0.0
O53 O 0.60428 0.25498 0.30392 0.0
O54 O 0.59467 0.30221 0.22093 0.0
O55 O 0.57357 0.31489 0.25131 0.0
O56 O 0.08161 0.77461 0.17737 0.0
Cd57 Cd 0.0893 0.80859 0.20882 0.0
Cd58 Cd 0.11785 0.83104 0.17087 0.0
O59 O 0.10457 0.78985 0.14774 0.0
O60 O 0.06559 0.79464 0.23296 0.0
O61 O 0.06517 0.8309 0.21355 0.0
C62 C 0.05556 0.81375 0.22839 0.0
C63 C 0.11127 0.87154 0.15259 0.0
C64 C 0.09005 0.77021 0.15526 0.0
C65 C 0.14417 0.82566 0.22913 0.0
O66 O 0.14618 0.83363 0.20557 0.0
O67 O 0.12331 0.81676 0.23461 0.0
O68 O 0.12819 0.86083 0.14703 0.0
O69 O 0.09774 0.85934 0.16823 0.0
O70 O 0.56729 0.78078 0.47591 0.0
Cd71 Cd 0.54778 0.78011 0.50805 0.0
Cd72 Cd 0.51941 0.80304 0.46006 0.0
O73 O 0.54839 0.79681 0.44133 0.0
O74 O 0.56429 0.76059 0.53568 0.0
O75 O 0.52711 0.74273 0.51231 0.0
C76 C 0.54531 0.74007 0.52949 0.0
C77 C 0.47901 0.79377 0.43425 0.0
C78 C 0.56585 0.78779 0.45166 0.0
C79 C 0.53939 0.83748 0.52082 0.0
O80 O 0.52816 0.8339 0.49534 0.0
O81 O 0.54801 0.81886 0.52997 0.0
O82 O 0.49555 0.81515 0.4328 0.0
O83 O 0.48549 0.77682 0.44919 0.0
O84 O 0.58899 0.27202 0.68672 0.0
Cd85 Cd 0.59797 0.30555 0.7187 0.0
Cd86 Cd 0.62071 0.33069 0.67684 0.0
O87 O 0.60724 0.28941 0.65407 0.0
O88 O 0.57494 0.29432 0.7447 0.0
O89 O 0.57431 0.32855 0.72192 0.0
C90 C 0.56477 0.31291 0.73819 0.0
C91 C 0.61413 0.37033 0.65767 0.0
C92 C 0.5949 0.26892 0.66275 0.0
C93 C 0.6528 0.32731 0.73265 0.0
O94 O 0.65116 0.33621 0.70928 0.0
O95 O 0.63387 0.31514 0.74071 0.0
O96 O 0.63001 0.35844 0.65096 0.0
O97 O 0.6014 0.35952 0.67474 0.0
O98 O 0.02521 0.22922 0.98305 0.0
Cd99 Cd 0.02639 0.26031 0.959 0.0
Cd100 Cd 1.01325 0.2858 1.00809 0.0
O101 O 1.021 0.25057 0.02376 0.0
O102 O 0.04551 0.25207 0.92917 0.0
O103 O 0.05837 0.28891 0.96238 0.0
C104 C 0.06224 0.27412 0.94089 0.0
C105 C 0.03074 0.33269 0.03056 0.0
C106 C 0.02412 0.22947 1.00902 0.0
C107 C 0.97741 0.27341 0.9511 0.0
O108 O 0.9814 0.2808 0.97791 0.0
O109 O 0.99331 0.2656 0.93953 0.0
O110 O 1.01334 0.31701 0.03895 0.0
O111 O 0.03939 0.32137 1.0108 0.0
O112 O 0.43356 0.07953 0.27679 0.0
Cd113 Cd 0.40681 0.08316 0.30396 0.0
Cd114 Cd 0.45357 0.05521 0.33969 0.0
O115 O 0.46304 0.06365 0.29858 0.0
O116 O 0.38131 0.1056 0.28915 0.0
O117 O 0.40781 0.12247 0.32755 0.0
C118 C 0.39012 0.12597 0.31007 0.0
C119 C 0.48112 0.05508 0.38532 0.0
C120 C 0.45309 0.07166 0.27653 0.0
C121 C 0.3972 0.02232 0.32356 0.0
O122 O 0.41965 0.02591 0.33349 0.0
O123 O 0.38966 0.04164 0.31322 0.0
O124 O 0.47807 0.03788 0.36222 0.0
O125 O 0.46992 0.07369 0.38274 0.0
O126 O 0.29754 0.19816 0.60373 0.0
Cd127 Cd 0.28988 0.16473 0.57114 0.0
Cd128 Cd 0.26439 0.20271 0.54572 0.0
O129 O 0.27706 0.22572 0.58695 0.0
O130 O 0.30699 0.14018 0.59042 0.0
O131 O 0.31747 0.15586 0.5533 0.0
C132 C 0.32127 0.14185 0.57285 0.0
C133 C 0.27715 0.22115 0.50586 0.0
C134 C 0.2905 0.21979 0.6072 0.0
C135 C 0.23397 0.14635 0.55173 0.0
O136 O 0.23423 0.16906 0.54341 0.0
O137 O 0.25369 0.14112 0.56137 0.0
O138 O 0.25898 0.22613 0.51532 0.0
O139 O 0.28771 0.20531 0.51844 0.0
O140 O 0.1482 0.07164 0.8107 0.0
Cd141 Cd 0.17434 0.07409 0.8458 0.0
Cd142 Cd 0.14521 0.10497 0.86793 0.0
O143 O 0.12411 0.094 0.82723 0.0
O144 O 0.19448 0.05549 0.82557 0.0
O145 O 0.17879 0.03969 0.86019 0.0
C146 C 0.19155 0.0372 0.84126 0.0
C147 C 0.13055 0.09482 0.90873 0.0
C148 C 0.12974 0.08056 0.80664 0.0
C149 C 0.19666 0.13449 0.86998 0.0
O150 O 0.17601 0.13691 0.87267 0.0
O151 O 0.19964 0.11129 0.86151 0.0
O152 O 0.12656 0.11486 0.89697 0.0
O153 O 0.14237 0.0799 0.89682 0.0
O154 O 0.22449 0.85929 0.05586 0.0
Cd155 Cd 0.22878 0.88919 0.03143 0.0
Cd156 Cd 0.23504 0.84331 0.99947 0.0
O157 O 0.21594 0.82166 0.02444 0.0
O158 O 0.23219 0.91954 0.06257 0.0
O159 O 0.20241 0.90814 0.02542 0.0
C160 C 0.21282 0.92345 0.04962 0.0
C161 C 0.23159 0.82416 0.95292 0.0
C162 C 0.21735 0.83339 0.04943 0.0
C163 C 0.27701 0.89133 0.02041 0.0
O164 O 0.27029 0.86538 0.01652 0.0
O165 O 0.26158 0.90474 0.02146 0.0
O166 O 0.24001 0.81349 0.97331 0.0
O167 O 0.22352 0.84506 0.95877 0.0
O168 O 0.34154 0.42104 0.15639 0.0
Cd169 Cd 0.34313 0.44468 0.12426 0.0
Cd170 Cd 0.35326 0.39796 0.0974 0.0
O171 O 0.34416 0.38211 0.13326 0.0
O172 O 0.32539 0.47311 0.13333 0.0
O173 O 0.31164 0.43955 0.09657 0.0
C174 C 0.3085 0.46055 0.11179 0.0
C175 C 0.33597 0.37494 0.05046 0.0
C176 C 0.34116 0.39592 0.15559 0.0
C177 C 0.39231 0.45223 0.1075 0.0
O178 O 0.38659 0.42621 0.10104 0.0
O179 O 0.37716 0.46403 0.11589 0.0
O180 O 0.35242 0.3676 0.06604 0.0
O181 O 0.32828 0.39441 0.06203 0.0
O182 O 0.89403 0.20887 0.20188 0.0
Cd183 Cd 0.87242 0.1764 0.17128 0.0
Cd184 Cd 0.85713 0.2154 0.15653 0.0
O185 O 0.8912 0.23877 0.17459 0.0
O186 O 0.88554 0.14465 0.17011 0.0
O187 O 0.88051 0.16623 0.13381 0.0
C188 C 0.88635 0.14618 0.144 0.0
C189 C 0.83807 0.21988 0.11305 0.0
C190 C 0.89947 0.23365 0.19832 0.0
C191 C 0.82516 0.1782 0.18225 0.0
O192 O 0.83302 0.20345 0.18181 0.0
O193 O 0.83726 0.16203 0.17503 0.0
O194 O 0.84183 0.23854 0.13508 0.0
O195 O 0.84659 0.19913 0.11543 0.0
O196 O 0.17647 0.52561 0.30589 0.0
Cd197 Cd 0.20883 0.52802 0.33688 0.0
Cd198 Cd 0.16656 0.55995 0.3718 0.0
O199 O 0.15061 0.54446 0.32614 0.0
O200 O 0.23305 0.50722 0.31971 0.0
O201 O 0.21581 0.49166 0.35218 0.0
C202 C 0.23021 0.48845 0.33523 0.0
C203 C 0.14562 0.55951 0.41481 0.0
C204 C 0.15685 0.53341 0.30384 0.0
C205 C 0.2194 0.59427 0.36363 0.0
O206 O 0.19956 0.59108 0.37296 0.0
O207 O 0.22543 0.57333 0.35155 0.0
O208 O 0.14304 0.57508 0.39633 0.0
O209 O 0.15919 0.5439 0.40901 0.0
O210 O 0.84036 0.91695 0.663 0.0
Cd211 Cd 0.8426 0.94273 0.63311 0.0
Cd212 Cd 0.85411 0.8973 0.6039 0.0
O213 O 0.84522 0.87959 0.6391 0.0
O214 O 0.82827 0.97258 0.64755 0.0
O215 O 0.81131 0.94343 0.60786 0.0
C216 C 0.81066 0.96388 0.62605 0.0
C217 C 0.83678 0.87589 0.55651 0.0
C218 C 0.84108 0.89213 0.66147 0.0
C219 C 0.89237 0.95225 0.61719 0.0
O220 O 0.88715 0.92658 0.60812 0.0
O221 O 0.87696 0.96261 0.62698 0.0
O222 O 0.85349 0.86833 0.57135 0.0
O223 O 0.82882 0.89464 0.56908 0.0
O224 O 0.95991 1.01838 0.24686 0.0
Cd225 Cd 0.93624 1.01595 0.27388 0.0
Cd226 Cd 0.97359 1.01007 0.31292 0.0
O227 O 0.99135 1.0211 0.27998 0.0
O228 O 0.91214 0.03485 0.25992 0.0
O229 O 0.93816 0.04997 0.30076 0.0
C230 C 0.92064 0.05299 0.28273 0.0
C231 C 0.99311 0.02948 0.36004 0.0
C232 C 0.98242 0.02225 0.25461 0.0
C233 C 0.92604 0.96424 0.29683 0.0
O234 O 0.94786 0.97255 0.31012 0.0
O235 O 0.91762 0.97871 0.28085 0.0
O236 O 0.99924 1.01032 0.34557 0.0
O237 O 0.97642 0.03865 0.34735 0.0
O238 O 0.39306 0.71026 0.68453 0.0
Cd239 Cd 0.3742 0.67385 0.65772 0.0
Cd240 Cd 0.35424 0.70814 0.62969 0.0
O241 O 0.38915 0.7298 0.64795 0.0
O242 O 0.38987 0.64456 0.65102 0.0
O243 O 0.37802 0.66725 0.61776 0.0
C244 C 0.38688 0.64778 0.62488 0.0
C245 C 0.33557 0.71941 0.58884 0.0
C246 C 0.39534 0.73217 0.67454 0.0
C247 C 0.32625 0.67304 0.66515 0.0
O248 O 0.33022 0.69478 0.6548 0.0
O249 O 0.3406 0.65818 0.66506 0.0
O250 O 0.33993 0.73504 0.61307 0.0
O251 O 0.3429 0.69757 0.58732 0.0
O252 O 0.46679 0.5185 0.75603 0.0
Cd253 Cd 0.4446 0.51853 0.78482 0.0
Cd254 Cd 0.48224 0.50347 0.81783 0.0
O255 O 0.49869 0.51355 0.78386 0.0
O256 O 0.42002 0.53553 0.76773 0.0
O257 O 0.44514 0.55433 0.80844 0.0
C258 C 0.42768 0.55538 0.78906 0.0
C259 C 0.50294 0.5176 0.86512 0.0
C260 C 0.48851 0.51758 0.76022 0.0
C261 C 0.43206 0.46381 0.80308 0.0
O262 O 0.45434 0.46795 0.81313 0.0
O263 O 0.42455 0.48183 0.79169 0.0
O264 O 0.50712 0.49838 0.8484 0.0
O265 O 0.48806 0.53023 0.85446 0.0
O266 O 0.67543 1.0196 0.80171 0.0
Cd267 Cd 0.70712 1.02089 0.83371 0.0
Cd268 Cd 0.66496 0.05332 0.86736 0.0
O269 O 0.64956 0.03872 0.8216 0.0
O270 O 0.73087 0.9968 0.81989 0.0
O271 O 0.71053 0.98493 0.85136 0.0
C272 C 0.72558 0.97921 0.83629 0.0
C273 C 0.64326 0.05327 0.90948 0.0
C274 C 0.65599 0.02785 0.79938 0.0
C275 C 0.71876 0.08679 0.86157 0.0
O276 O 0.6985 0.08379 0.86986 0.0
O277 O 0.72474 0.06578 0.84958 0.0
O278 O 0.6415 0.06917 0.89117 0.0
O279 O 0.6564 0.03708 0.90394 0.0
O280 O 0.79628 0.69592 0.10842 0.0
Cd281 Cd 0.78781 0.66347 0.07464 0.0
Cd282 Cd 0.76357 0.70271 0.05068 0.0
O283 O 0.77785 0.72535 0.09193 0.0
O284 O 0.80801 0.63918 0.08934 0.0
O285 O 0.81343 0.65771 0.05198 0.0
C286 C 0.82018 0.64317 0.06975 0.0
C287 C 0.77032 0.72268 1.00919 0.0
C288 C 0.79037 0.71826 0.11215 0.0
C289 C 0.73212 0.647 0.05789 0.0
O290 O 0.73317 0.67016 0.05027 0.0
O291 O 0.75141 0.64021 0.06604 0.0
O292 O 0.7545 0.72744 0.02339 0.0
O293 O 0.7824 0.70648 0.01828 0.0
O294 O 0.93297 0.57467 0.78071 0.0
Cd295 Cd 0.906 0.57713 0.8078 0.0
Cd296 Cd 0.95339 0.5512 0.84366 0.0
O297 O 0.9631 0.56012 0.80293 0.0
O298 O 0.88014 0.59918 0.7932 0.0
O299 O 0.90679 0.61627 0.83145 0.0
C300 C 0.88896 0.61961 0.81406 0.0
C301 C 0.98117 0.55201 0.88902 0.0
C302 C 0.95297 0.56778 0.78078 0.0
C303 C 0.89761 0.51658 0.82818 0.0
O304 O 0.92014 0.52091 0.83811 0.0
O305 O 0.88955 0.53536 0.81733 0.0
O306 O 0.97846 0.53479 0.86605 0.0
O307 O 0.96949 0.57018 0.8864 0.0
O308 O 0.75729 0.38245 0.56051 0.0
Cd309 Cd 0.7491 0.39224 0.52099 0.0
Cd310 Cd 0.74029 0.34193 0.51069 0.0
O311 O 0.73248 0.34114 0.54951 0.0
O312 O 0.75484 0.43213 0.52935 0.0
O313 O 0.71867 0.4031 0.51226 0.0
C314 C 0.73198 0.42784 0.52157 0.0
C315 C 0.71515 0.32746 0.46768 0.0
C316 C 0.74628 0.36079 0.56806 0.0
C317 C 0.78483 0.3731 0.49851 0.0
O318 O 0.77681 0.35253 0.50964 0.0
O319 O 0.77167 0.38886 0.49369 0.0
O320 O 0.72221 0.31006 0.48157 0.0
O321 O 0.71991 0.35263 0.48022 0.0
O322 O 0.64273 0.56576 0.31768 0.0
Cd323 Cd 0.67013 0.57513 0.35275 0.0
Cd324 Cd 0.6409 0.60369 0.37263 0.0
O325 O 0.61921 0.59007 0.332 0.0
O326 O 0.68998 0.55297 0.33719 0.0
O327 O 0.67555 0.54573 0.37542 0.0
C328 C 0.68745 0.53881 0.3569 0.0
C329 C 0.62817 0.59307 0.41456 0.0
C330 C 0.62413 0.57421 0.31274 0.0
C331 C 0.69011 0.6368 0.36899 0.0
O332 O 0.67005 0.6375 0.37553 0.0
O333 O 0.69381 0.61396 0.36043 0.0
O334 O 0.62238 0.61214 0.40246 0.0
O335 O 0.64071 0.5793 0.40241 0.0
Tb336 Tb 0.04326 0.0357 0.06507 0.0
Tb337 Tb 0.08694 0.06837 0.1045 0.0
C338 C 1.00013 1.01778 0.03969 0.0
C339 C 0.98113 0.03138 0.04249 0.0
C340 C 0.98459 0.05125 0.06662 0.0
C341 C 0.96726 0.06474 0.07031 0.0
C342 C 0.94599 0.05864 0.04999 0.0
C343 C 0.9425 0.03928 0.02535 0.0
C344 C 0.96015 0.02563 0.02158 0.0
C345 C 0.08172 0.04316 0.04207 0.0
C346 C 0.05595 0.10201 0.07521 0.0
C347 C 0.12955 0.0889 0.13099 0.0
C348 C 0.14783 0.07583 0.14182 0.0
C349 C 0.17104 0.08481 0.13648 0.0
C350 C 0.18583 0.06725 0.13652 0.0
C351 C 0.17732 0.04068 0.14176 0.0
C352 C 0.15547 0.03313 0.15078 0.0
C353 C 0.14078 0.0507 0.15093 0.0
C354 C 0.04797 0.06034 0.12715 0.0
C355 C 0.07396 1.0022 0.09686 0.0
O356 O 1.00879 1.01009 0.06275 0.0
O357 O 1.01722 0.03053 0.02809 0.0
O358 O 0.07664 0.06063 0.05921 0.0
O359 O 0.06463 1.02052 0.03734 0.0
O360 O 0.03907 0.07819 0.06784 0.0
O361 O 0.0778 0.10292 0.0882 0.0
O362 O 0.12326 0.08407 0.10339 0.0
O363 O 0.11095 0.08608 0.14311 0.0
O364 O 0.05335 0.04349 0.10983 0.0
O365 O 0.06556 0.08257 0.13328 0.0
O366 O 0.09088 0.026 0.105 0.0
O367 O 0.05259 1.00125 0.08204 0.0
H368 H 1.00062 0.05618 0.08297 0.0
H369 H 0.97026 0.07968 0.08942 0.0
H370 H 0.92608 0.03435 1.00953 0.0
H371 H 0.95734 1.01053 1.00268 0.0
H372 H 0.17669 0.1041 0.12935 0.0
H373 H 0.20259 0.07321 0.12925 0.0
H374 H 0.14868 1.0126 0.15475 0.0
H375 H 0.12296 0.04338 0.15527 0.0
Tb376 Tb 0.31474 0.79699 0.3121 0.0
Tb377 Tb 0.30228 0.8155 0.36327 0.0
C378 C 0.31607 0.78262 0.26132 0.0
C379 C 0.30477 0.78927 0.23509 0.0
C380 C 0.30629 0.81645 0.23212 0.0
C381 C 0.29104 0.82201 0.20993 0.0
C382 C 0.27369 0.80052 0.19078 0.0
C383 C 0.27294 0.77336 0.19334 0.0
C384 C 0.28855 0.76783 0.21506 0.0
C385 C 0.34659 0.79409 0.35688 0.0
C386 C 0.32992 0.86218 0.33259 0.0
C387 C 0.29955 0.83537 0.41222 0.0
C388 C 0.28761 0.82339 0.4335 0.0
C389 C 0.27362 0.79603 0.42705 0.0
C390 C 0.26898 0.78157 0.44878 0.0
C391 C 0.27828 0.79441 0.47711 0.0
C392 C 0.28976 0.82268 0.48333 0.0
C393 C 0.29453 0.83706 0.46158 0.0
C394 C 0.26584 0.80509 0.3186 0.0
C395 C 0.28709 0.75141 0.34329 0.0
O396 O 0.30036 0.76942 0.27436 0.0
O397 O 0.33333 0.80182 0.27869 0.0
O398 O 0.33636 0.81278 0.35389 0.0
O399 O 0.3394 0.7766 0.3336 0.0
O400 O 0.32824 0.84183 0.3116 0.0
O401 O 0.32159 0.85628 0.35551 0.0
O402 O 0.31685 0.82494 0.40653 0.0
O403 O 0.28568 0.83773 0.38939 0.0
O404 O 0.28773 0.81667 0.31983 0.0
O405 O 0.26391 0.79875 0.34313 0.0
O406 O 0.29431 0.771 0.36606 0.0
O407 O 0.28976 0.75874 0.3186 0.0
H408 H 0.31849 0.83337 0.2475 0.0
H409 H 0.2926 0.84318 0.20812 0.0
H410 H 0.25969 0.75628 0.17927 0.0
H411 H 0.2869 0.74671 0.21729 0.0
H412 H 0.26815 0.78521 0.40536 0.0
H413 H 0.25991 0.75987 0.44347 0.0
H414 H 0.29728 0.83306 0.50497 0.0
H415 H 0.30547 0.85814 0.46682 0.0
Tb416 Tb 0.59007 0.05209 0.58846 0.0
Tb417 Tb 0.54223 0.05106 0.60438 0.0
C418 C 0.63416 0.05638 0.5883 0.0
C419 C 0.6522 0.04017 0.59098 0.0
C420 C 0.66541 0.03946 0.6176 0.0
C421 C 0.68404 0.02655 0.61982 0.0
C422 C 0.69011 1.01405 0.59549 0.0
C423 C 0.67664 1.01449 0.56891 0.0
C424 C 0.65807 0.02742 0.5667 0.0
C425 C 0.55451 0.0501 0.54416 0.0
C426 C 0.55392 0.99517 0.58355 0.0
C427 C 0.4986 0.05064 0.60216 0.0
C428 C 0.48005 0.06535 0.59442 0.0
C429 C 0.46982 0.06527 0.56616 0.0
C430 C 0.45043 0.07666 0.5598 0.0
C431 C 0.44058 0.08816 0.58148 0.0
C432 C 0.45127 0.0887 0.60967 0.0
C433 C 0.4706 0.07745 0.61599 0.0
C434 C 0.5721 0.04327 0.65047 0.0
C435 C 0.57911 0.10926 0.60879 0.0
O436 O 0.62597 0.06348 0.61078 0.0
O437 O 0.61724 0.04948 0.56551 0.0
O438 O 0.55828 0.06342 0.56934 0.0
O439 O 0.57167 0.03828 0.54351 0.0
O440 O 0.57699 1.00863 0.58968 0.0
O441 O 0.53708 1.0083 0.58445 0.0
O442 O 0.50615 0.03737 0.58211 0.0
O443 O 0.51595 0.06264 0.624 0.0
O444 O 0.57625 0.04639 0.62597 0.0
O445 O 0.55009 0.04437 0.64866 0.0
O446 O 0.55701 0.09543 0.60969 0.0
O447 O 0.59503 0.0965 0.60153 0.0
H448 H 0.66166 0.04928 0.63681 0.0
H449 H 0.6937 0.0264 0.64068 0.0
H450 H 0.6809 1.00552 0.54964 0.0
H451 H 0.64866 0.02797 0.54582 0.0
H452 H 0.47641 0.05589 0.54894 0.0
H453 H 0.44268 0.07565 0.53782 0.0
H454 H 0.44463 0.09778 0.62702 0.0
H455 H 0.47784 0.07766 0.63796 0.0
Tb456 Tb 0.28308 0.30705 0.82458 0.0
Tb457 Tb 0.33265 0.29465 0.82883 0.0
C458 C 0.24052 0.30754 0.82852 0.0
C459 C 0.22193 0.30245 0.84642 0.0
C460 C 0.21374 0.27684 0.8543 0.0
C461 C 0.19358 0.27113 0.86704 0.0
C462 C 0.18096 0.29083 0.87233 0.0
C463 C 0.18988 0.31685 0.86558 0.0
C464 C 0.20998 0.3225 0.85272 0.0
C465 C 0.31777 0.34553 0.81393 0.0
C466 C 0.31778 0.31447 0.88521 0.0
C467 C 0.37527 0.29313 0.8266 0.0
C468 C 0.39494 0.29495 0.81015 0.0
C469 C 0.41268 0.31987 0.81254 0.0
C470 C 0.43384 0.32061 0.80206 0.0
C471 C 0.438 0.29641 0.78914 0.0
C472 C 0.41968 0.27176 0.78552 0.0
C473 C 0.39856 0.27102 0.79594 0.0
C474 C 0.29671 0.25607 0.83786 0.0
C475 C 0.29845 0.28711 0.76799 0.0
O476 O 0.24633 0.28641 0.81643 0.0
O477 O 0.25914 0.3291 0.83695 0.0
O478 O 0.32004 0.33043 0.83207 0.0
O479 O 0.29513 0.34112 0.80308 0.0
O480 O 0.29559 0.31032 0.87055 0.0
O481 O 0.33593 0.31222 0.87283 0.0
O482 O 0.36938 0.31545 0.83514 0.0
O483 O 0.35662 0.2715 0.82004 0.0
O484 O 0.29583 0.27184 0.8204 0.0
O485 O 0.319 0.26012 0.85007 0.0
O486 O 0.32054 0.29117 0.78295 0.0
O487 O 0.28015 0.28964 0.78016 0.0
H488 H 0.22245 0.26088 0.84987 0.0
H489 H 0.18762 0.25101 0.87233 0.0
H490 H 0.18066 0.33252 0.86903 0.0
H491 H 0.21564 0.34232 0.84666 0.0
H492 H 0.41077 0.3387 0.82372 0.0
H493 H 0.44748 0.33998 0.80544 0.0
H494 H 0.42192 0.25274 0.77524 0.0
H495 H 0.38554 0.2514 0.79392 0.0
Tb496 Tb 0.05766 0.07597 0.58811 0.0
Tb497 Tb 0.06546 1.01916 0.57607 0.0
C498 C 0.05521 0.12407 0.58941 0.0
C499 C 0.05413 0.14218 0.56882 0.0
C500 C 0.06648 0.14129 0.54642 0.0
C501 C 0.06423 0.15815 0.52645 0.0
C502 C 0.04947 0.17587 0.52859 0.0
C503 C 0.03669 0.17604 0.55067 0.0
C504 C 0.03912 0.15944 0.57069 0.0
C505 C 0.02314 0.0352 0.59652 0.0
C506 C 0.04799 0.04412 0.5242 0.0
C507 C 0.05751 0.96861 0.57332 0.0
C508 C 0.06813 0.9519 0.5907 0.0
C509 C 0.05365 0.92664 0.5935 0.0
C510 C 0.06171 0.91273 0.61404 0.0
C511 C 0.08441 0.92391 0.63191 0.0
C512 C 0.09938 0.94863 0.62825 0.0
C513 C 0.09117 0.96273 0.60788 0.0
C514 C 0.10588 0.05701 0.57453 0.0
C515 C 0.08145 0.05351 0.63896 0.0
O516 O 0.07554 0.1178 0.59614 0.0
O517 O 0.03632 0.10298 0.58517 0.0
O518 O 0.03465 0.03476 0.57659 0.0
O519 O 0.03076 0.05933 0.61207 0.0
O520 O 0.05134 0.06773 0.54141 0.0
O521 O 0.0501 0.02166 0.53359 0.0
O522 O 0.04604 0.98338 0.58674 0.0
O523 O 0.0712 0.98235 0.55829 0.0
O524 O 0.08619 0.06024 0.57963 0.0
O525 O 0.10336 0.03083 0.5709 0.0
O526 O 0.07636 0.02945 0.62209 0.0
O527 O 0.07783 0.07561 0.62973 0.0
H528 H 0.0778 0.12761 0.54438 0.0
H529 H 0.07432 0.1577 0.50969 0.0
H530 H 0.02475 0.18903 0.55248 0.0
H531 H 0.0291 0.15989 0.58754 0.0
H532 H 0.0357 0.91829 0.58065 0.0
H533 H 0.05004 0.89349 0.61638 0.0
H534 H 0.11691 0.95755 0.64192 0.0
H535 H 0.10235 0.98256 0.60633 0.0
Tb536 Tb 0.31472 0.77413 0.79135 0.0
Tb537 Tb 0.31909 0.83501 0.80998 0.0
C538 C 0.3173 0.72913 0.76611 0.0
C539 C 0.33025 0.70811 0.76938 0.0
C540 C 0.35549 0.71455 0.77629 0.0
C541 C 0.36695 0.69363 0.77785 0.0
C542 C 0.35335 0.66602 0.77243 0.0
C543 C 0.32811 0.65987 0.76616 0.0
C544 C 0.31673 0.68067 0.76455 0.0
C545 C 0.30683 0.78708 0.84237 0.0
C546 C 0.366 0.81683 0.82073 0.0
C547 C 0.31375 0.88089 0.82791 0.0
C548 C 0.29382 0.89206 0.83414 0.0
C549 C 0.2963 0.90837 0.86056 0.0
C550 C 0.27915 0.92225 0.86549 0.0
C551 C 0.25937 0.92022 0.84394 0.0
C552 C 0.25617 0.90259 0.8181 0.0
C553 C 0.27317 0.88854 0.81327 0.0
C554 C 0.32851 0.82037 0.76005 0.0
C555 C 0.26822 0.79213 0.78766 0.0
O556 O 0.32925 0.75296 0.76183 0.0
O557 O 0.30267 0.7313 0.78339 0.0
O558 O 0.32156 0.8014 0.83048 0.0
O559 O 0.29799 0.76302 0.82674 0.0
O560 O 0.35379 0.79178 0.80697 0.0
O561 O 0.35565 0.83639 0.82726 0.0
O562 O 0.32078 0.86517 0.84465 0.0
O563 O 0.31299 0.87176 0.80125 0.0
O564 O 0.31197 0.80752 0.77079 0.0
O565 O 0.34005 0.84297 0.77723 0.0
O566 O 0.28095 0.81484 0.80517 0.0
O567 O 0.27865 0.77585 0.77397 0.0
H568 H 0.36635 0.73562 0.7801 0.0
H569 H 0.38643 0.699 0.7825 0.0
H570 H 0.31708 0.63888 0.7623 0.0
H571 H 0.29725 0.67526 0.75917 0.0
H572 H 0.31202 0.91128 0.877 0.0
H573 H 0.2821 0.9358 0.88555 0.0
H574 H 0.24092 0.9004 0.80127 0.0
H575 H 0.27054 0.87578 0.79281 0.0
Tb576 Tb 0.52188 0.05549 0.07059 0.0
Tb577 Tb 0.56872 0.06303 0.11085 0.0
C578 C 0.48208 0.03053 0.03906 0.0
C579 C 0.45663 1.01866 0.03905 0.0
C580 C 0.44372 0.99644 0.01769 0.0
C581 C 0.41988 0.98323 0.01755 0.0
C582 C 0.40846 0.99201 0.03883 0.0
C583 C 0.42132 1.01467 0.06006 0.0
C584 C 0.44538 0.02785 0.06028 0.0
C585 C 0.54245 0.10601 0.09682 0.0
C586 C 0.52109 0.05426 0.13854 0.0
C587 C 0.60925 0.08554 0.14174 0.0
C588 C 0.6353 0.09065 0.14264 0.0
C589 C 0.64839 0.11513 0.1361 0.0
C590 C 0.67345 0.12203 0.14104 0.0
C591 C 0.68592 0.10467 0.15276 0.0
C592 C 0.67285 0.07973 0.15835 0.0
C593 C 0.64776 0.07285 0.15348 0.0
C594 C 0.54779 1.01263 0.08421 0.0
C595 C 0.56998 0.06516 0.04332 0.0
O596 O 0.4969 1.0183 0.05153 0.0
O597 O 0.49047 0.05731 0.04416 0.0
O598 O 0.5421 0.08425 0.10619 0.0
O599 O 0.52942 0.09968 0.07128 0.0
O600 O 0.50839 0.05065 0.11194 0.0
O601 O 0.54506 0.06004 0.14266 0.0
O602 O 0.59743 0.09831 0.12537 0.0
O603 O 0.59694 0.06033 0.14157 0.0
O604 O 0.54853 0.03455 0.07528 0.0
O605 O 0.5612 1.01861 0.10946 0.0
O606 O 0.58233 0.06718 0.06974 0.0
O607 O 0.54604 0.06087 0.03905 0.0
H608 H 0.45221 0.98908 1.00121 0.0
H609 H 0.41033 0.96614 1.00068 0.0
H610 H 0.41296 0.02176 0.07678 0.0
H611 H 0.45523 0.04486 0.0771 0.0
H612 H 0.63935 0.12943 0.12803 0.0
H613 H 0.68311 0.14121 0.13614 0.0
H614 H 0.68204 0.06607 0.16755 0.0
H615 H 0.63822 0.05404 0.15917 0.0
Tb616 Tb 0.28171 0.28502 0.3104 0.0
Tb617 Tb 0.33126 0.32313 0.33752 0.0
C618 C 0.23826 0.25941 0.30322 0.0
C619 C 0.21892 0.26776 0.31443 0.0
C620 C 0.22474 0.28942 0.33742 0.0
C621 C 0.20683 0.29919 0.34705 0.0
C622 C 0.18258 0.28723 0.33413 0.0
C623 C 0.17669 0.26499 0.31143 0.0
C624 C 0.1948 0.25543 0.30153 0.0
C625 C 0.30774 0.30485 0.27444 0.0
C626 C 0.28671 0.35101 0.33148 0.0
C627 C 0.37322 0.35118 0.33975 0.0
C628 C 0.39696 0.3465 0.34718 0.0
C629 C 0.41422 0.3557 0.3313 0.0
C630 C 0.43486 0.34658 0.33329 0.0
C631 C 0.43877 0.32822 0.35148 0.0
C632 C 0.42203 0.32038 0.36869 0.0
C633 C 0.40117 0.32923 0.36635 0.0
C634 C 0.3116 0.29789 0.37663 0.0
C635 C 0.32573 0.25689 0.31762 0.0
O636 O 0.25513 0.25576 0.3223 0.0
O637 O 0.24704 0.27381 0.28515 0.0
O638 O 0.30654 0.31731 0.2982 0.0
O639 O 0.29319 0.28031 0.26987 0.0
O640 O 0.27276 0.32514 0.32278 0.0
O641 O 0.31071 0.35537 0.33772 0.0
O642 O 0.35963 0.33476 0.31683 0.0
O643 O 0.36145 0.35429 0.36025 0.0
O644 O 0.30332 0.2964 0.35078 0.0
O645 O 0.33272 0.31531 0.38172 0.0
O646 O 0.3403 0.28248 0.32674 0.0
O647 O 0.30191 0.25323 0.31109 0.0
H648 H 0.24323 0.29917 0.34777 0.0
H649 H 0.21209 0.31652 0.36429 0.0
H650 H 0.15814 0.25493 0.30135 0.0
H651 H 0.19002 0.23865 0.28375 0.0
H652 H 0.41104 0.36864 0.31603 0.0
H653 H 0.44696 0.35269 0.31924 0.0
H654 H 0.42459 0.30663 0.38323 0.0
H655 H 0.38784 0.32158 0.37853 0.0
Tb656 Tb 0.55832 0.59535 0.09495 0.0
Tb657 Tb 0.56003 0.53312 0.08783 0.0
C658 C 0.56734 0.64566 0.09638 0.0
C659 C 0.55317 0.66299 0.0843 0.0
C660 C 0.55068 0.66468 0.0555 0.0
C661 C 0.53774 0.68148 0.04423 0.0
C662 C 0.52695 0.697 0.06144 0.0
C663 C 0.52873 0.69461 0.09006 0.0
C664 C 0.54182 0.67783 0.10142 0.0
C665 C 0.51544 0.56118 0.09569 0.0
C666 C 0.54253 0.55794 0.03398 0.0
C667 C 0.54916 0.48261 0.08632 0.0
C668 C 0.5603 0.46473 0.10151 0.0
C669 C 0.57493 0.47486 0.12851 0.0
C670 C 0.58393 0.45724 0.14385 0.0
C671 C 0.57872 0.4294 0.13217 0.0
C672 C 0.56505 0.41959 0.10458 0.0
C673 C 0.55579 0.43718 0.08938 0.0
C674 C 0.60276 0.56776 0.08665 0.0
C675 C 0.57575 0.57088 0.14888 0.0
O676 O 0.574 0.62917 0.07818 0.0
O677 O 0.55966 0.63389 0.11679 0.0
O678 O 0.53472 0.55589 0.0918 0.0
O679 O 0.52016 0.58759 0.09863 0.0
O680 O 0.54891 0.58302 0.04913 0.0
O681 O 0.54323 0.53576 0.04513 0.0
O682 O 0.54067 0.49937 0.10191 0.0
O683 O 0.56117 0.49446 0.06872 0.0
O684 O 0.58336 0.57253 0.09072 0.0
O685 O 0.59853 0.54136 0.08407 0.0
O686 O 0.56911 0.54563 0.13393 0.0
O687 O 0.57591 0.59289 0.1372 0.0
H688 H 0.55916 0.65353 0.04167 0.0
H689 H 0.53733 0.68334 0.02228 0.0
H690 H 0.52062 0.70633 0.10383 0.0
H691 H 0.54338 0.67679 0.12369 0.0
H692 H 0.57889 0.49622 0.138 0.0
H693 H 0.59455 0.46522 0.16503 0.0
H694 H 0.56065 0.3981 0.0953 0.0
H695 H 0.54464 0.42916 0.06847 0.0
Tb696 Tb 0.80067 0.26596 0.32006 0.0
Tb697 Tb 0.80775 0.32804 0.3219 0.0
C698 C 0.8019 0.2168 0.31308 0.0
C699 C 0.81771 0.19952 0.30596 0.0
C700 C 0.81874 0.19073 0.2777 0.0
C701 C 0.83239 0.17279 0.27114 0.0
C702 C 0.84485 0.16269 0.29264 0.0
C703 C 0.84386 0.17166 0.3209 0.0
C704 C 0.83049 0.18987 0.32746 0.0
C705 C 0.78018 0.28899 0.35686 0.0
C706 C 0.84934 0.30996 0.35283 0.0
C707 C 0.80612 0.37685 0.32616 0.0
C708 C 0.78952 0.39367 0.32962 0.0
C709 C 0.76767 0.38391 0.33824 0.0
C710 C 0.75206 0.40056 0.3404 0.0
C711 C 0.75804 0.42679 0.33337 0.0
C712 C 0.78004 0.43644 0.32514 0.0
C713 C 0.79566 0.42005 0.32339 0.0
C714 C 0.8296 0.30464 0.28619 0.0
C715 C 0.75758 0.28548 0.29415 0.0
O716 O 0.79266 0.22807 0.29296 0.0
O717 O 0.80863 0.23332 0.33766 0.0
O718 O 0.79963 0.29992 0.34996 0.0
O719 O 0.77302 0.26342 0.34538 0.0
O720 O 0.83883 0.28483 0.33847 0.0
O721 O 0.83837 0.32954 0.35375 0.0
O722 O 0.81295 0.36592 0.34778 0.0
O723 O 0.80147 0.36007 0.30194 0.0
O724 O 0.80968 0.29406 0.29245 0.0
O725 O 0.83661 0.33013 0.29795 0.0
O726 O 0.76926 0.31052 0.30764 0.0
O727 O 0.76817 0.2656 0.2913 0.0
H728 H 0.80896 0.19762 0.26057 0.0
H729 H 0.833 0.16672 0.24917 0.0
H730 H 0.85272 0.16389 0.33799 0.0
H731 H 0.82964 0.19581 0.34938 0.0
H732 H 0.76255 0.3634 0.34277 0.0
H733 H 0.73509 0.39269 0.34661 0.0
H734 H 0.78505 0.45667 0.31978 0.0
H735 H 0.81245 0.42787 0.31672 0.0
Tb736 Tb 0.02552 0.55536 0.57757 0.0
Tb737 Tb 0.07305 0.56979 0.61874 0.0
C738 C 0.98758 0.52585 0.54509 0.0
C739 C 0.96285 0.50835 0.54205 0.0
C740 C 0.9586 0.47979 0.53563 0.0
C741 C 0.93519 0.46266 0.52771 0.0
C742 C 0.91544 0.4737 0.52591 0.0
C743 C 0.91967 0.50225 0.53343 0.0
C744 C 0.94316 0.51944 0.54128 0.0
C745 C 0.04275 0.6074 0.60085 0.0
C746 C 0.02483 0.55715 0.64558 0.0
C747 C 0.11266 0.59648 0.64927 0.0
C748 C 0.13857 0.60019 0.65055 0.0
C749 C 0.15268 0.62469 0.64528 0.0
C750 C 0.17755 0.62956 0.64888 0.0
C751 C 0.18881 0.61014 0.65811 0.0
C752 C 0.17468 0.58541 0.66288 0.0
C753 C 0.14978 0.58049 0.6592 0.0
C754 C 0.05593 0.51762 0.59671 0.0
C755 C 0.0736 0.56855 0.55054 0.0
O756 O 1.00494 0.51655 0.55686 0.0
O757 O 0.99217 0.55258 0.55173 0.0
O758 O 0.044 0.58684 0.61169 0.0
O759 O 0.02952 0.59895 0.57546 0.0
O760 O 1.01214 0.54993 0.61873 0.0
O761 O 0.04878 0.56683 0.64999 0.0
O762 O 0.10105 0.6062 0.6294 0.0
O763 O 0.10028 0.57262 0.65307 0.0
O764 O 0.05449 0.53783 0.58522 0.0
O765 O 0.07029 0.52688 0.62121 0.0
O766 O 0.08626 0.57262 0.57718 0.0
O767 O 0.04955 0.56233 0.54616 0.0
H768 H 0.97342 0.47066 0.53547 0.0
H769 H 0.93264 0.44085 0.52176 0.0
H770 H 0.90481 0.51137 0.53273 0.0
H771 H 0.94586 0.54138 0.54582 0.0
H772 H 0.14453 0.6403 0.63883 0.0
H773 H 0.18798 0.64861 0.64452 0.0
H774 H 0.18291 0.57017 0.67017 0.0
H775 H 0.13943 0.56148 0.66373 0.0
Tb776 Tb 0.78225 0.80644 0.32947 0.0
Tb777 Tb 0.83201 0.79602 0.33446 0.0
C778 C 0.73951 0.80716 0.33203 0.0
C779 C 0.7207 0.80592 0.3497 0.0
C780 C 0.70392 0.78092 0.34973 0.0
C781 C 0.68386 0.78024 0.36238 0.0
C782 C 0.6797 0.80459 0.37492 0.0
C783 C 0.69684 0.82951 0.37553 0.0
C784 C 0.71699 0.83017 0.36312 0.0
C785 C 0.81591 0.84435 0.31583 0.0
C786 C 0.8178 0.819 0.39012 0.0
C787 C 0.87501 0.79612 0.33303 0.0
C788 C 0.89385 0.79461 0.31626 0.0
C789 C 0.89879 0.81097 0.29574 0.0
C790 C 0.91853 0.81066 0.28262 0.0
C791 C 0.93378 0.79412 0.28987 0.0
C792 C 0.92856 0.77786 0.31045 0.0
C793 C 0.90889 0.77805 0.32329 0.0
C794 C 0.79841 0.75826 0.34869 0.0
C795 C 0.79701 0.78309 0.27362 0.0
O796 O 0.74577 0.78486 0.32432 0.0
O797 O 0.75778 0.82913 0.33714 0.0
O798 O 0.81874 0.83113 0.33558 0.0
O799 O 0.79325 0.838 0.3044 0.0
O800 O 0.79532 0.81349 0.3758 0.0
O801 O 0.83578 0.81683 0.37742 0.0
O802 O 0.86757 0.81823 0.33551 0.0
O803 O 0.85771 0.77388 0.33154 0.0
O804 O 0.79548 0.77135 0.32885 0.0
O805 O 0.82123 0.76393 0.35903 0.0
O806 O 0.81919 0.78791 0.28842 0.0
O807 O 0.7789 0.78634 0.2858 0.0
H808 H 0.70577 0.76189 0.33897 0.0
H809 H 0.67102 0.76067 0.36121 0.0
H810 H 0.6945 0.84868 0.38528 0.0
H811 H 0.72921 0.84986 0.36317 0.0
H812 H 0.88764 0.82421 0.2901 0.0
H813 H 0.92177 0.82331 0.26677 0.0
H814 H 0.94005 0.76537 0.3173 0.0
H815 H 0.9058 0.76567 0.33943 0.0
Tb816 Tb 0.82123 0.2917 0.82188 0.0
Tb817 Tb 0.80516 0.30916 0.86841 0.0
C818 C 0.83202 0.28346 0.77418 0.0
C819 C 0.8268 0.29523 0.74915 0.0
C820 C 0.81373 0.31471 0.74999 0.0
C821 C 0.80473 0.32256 0.72522 0.0
C822 C 0.80852 0.31083 0.69924 0.0
C823 C 0.82268 0.29232 0.69861 0.0
C824 C 0.83179 0.28452 0.72356 0.0
C825 C 0.85 0.2864 0.86815 0.0
C826 C 0.83478 0.3569 0.844 0.0
C827 C 0.79173 0.31723 0.91451 0.0
C828 C 0.78772 0.30053 0.93621 0.0
C829 C 0.80102 0.28169 0.94064 0.0
C830 C 0.79858 0.26724 0.96266 0.0
C831 C 0.78252 0.27107 0.98044 0.0
C832 C 0.76796 0.28858 0.9746 0.0
C833 C 0.77066 0.30335 0.95265 0.0
C834 C 0.77719 0.31378 0.82108 0.0
C835 C 0.7914 0.24379 0.84655 0.0
O836 O 0.81289 0.26886 0.781 0.0
O837 O 0.84658 0.30026 0.796 0.0
O838 O 0.84097 0.30629 0.86547 0.0
O839 O 0.843 0.2695 0.8445 0.0
O840 O 0.82963 0.33718 0.82144 0.0
O841 O 0.82922 0.3497 0.86769 0.0
O842 O 0.81403 0.32562 0.91165 0.0
O843 O 0.77692 0.30769 0.89026 0.0
O844 O 0.78566 0.29384 0.82519 0.0
O845 O 0.78506 0.33213 0.84375 0.0
O846 O 0.79517 0.26368 0.86869 0.0
O847 O 0.7983 0.25084 0.82339 0.0
H848 H 0.80922 0.32264 0.7695 0.0
H849 H 0.79356 0.3365 0.72625 0.0
H850 H 0.82597 0.28321 0.67877 0.0
H851 H 0.8417 0.26927 0.72269 0.0
H852 H 0.81402 0.27893 0.92778 0.0
H853 H 0.81043 0.25437 0.96667 0.0
H854 H 0.75515 0.29163 0.98759 0.0
H855 H 0.75991 0.31745 0.94899 0.0
Tb856 Tb 0.78283 0.78154 0.81677 0.0
Tb857 Tb 0.83391 0.81796 0.84062 0.0
C858 C 0.73913 0.75811 0.81198 0.0
C859 C 0.71971 0.76821 0.82113 0.0
C860 C 0.72459 0.78789 0.84584 0.0
C861 C 0.70643 0.79853 0.85379 0.0
C862 C 0.68311 0.78985 0.83707 0.0
C863 C 0.67829 0.77031 0.81221 0.0
C864 C 0.69649 0.75953 0.80433 0.0
C865 C 0.8076 0.79937 0.77885 0.0
C866 C 0.79043 0.84822 0.83516 0.0
C867 C 0.87579 0.84477 0.83977 0.0
C868 C 0.90014 0.84111 0.84566 0.0
C869 C 0.92003 0.8631 0.84621 0.0
C870 C 0.94273 0.85884 0.84627 0.0
C871 C 0.94589 0.83239 0.84545 0.0
C872 C 0.9261 0.8107 0.84665 0.0
C873 C 0.90347 0.81505 0.84684 0.0
C874 C 0.81576 0.79485 0.8818 0.0
C875 C 0.8256 0.75121 0.82186 0.0
O876 O 0.75595 0.75617 0.83231 0.0
O877 O 0.74796 0.76928 0.79193 0.0
O878 O 0.8077 0.8123 0.80286 0.0
O879 O 0.79238 0.7753 0.77506 0.0
O880 O 0.77521 0.82289 0.8276 0.0
O881 O 0.81427 0.85091 0.84063 0.0
O882 O 0.86117 0.82758 0.81797 0.0
O883 O 0.86537 0.84867 0.86136 0.0
O884 O 0.80616 0.79323 0.85631 0.0
O885 O 0.83726 0.81107 0.88501 0.0
O886 O 0.84094 0.77644 0.82944 0.0
O887 O 0.80184 0.74846 0.81696 0.0
H888 H 0.74251 0.79526 0.85891 0.0
H889 H 0.71071 0.81384 0.87284 0.0
H890 H 0.66041 0.76317 0.79907 0.0
H891 H 0.6925 0.74457 0.78505 0.0
H892 H 0.91782 0.88336 0.8453 0.0
H893 H 0.95764 0.87612 0.84596 0.0
H894 H 0.92769 0.79002 0.84578 0.0
H895 H 0.88833 0.79777 0.84639 0.0
Tb896 Tb 0.55212 0.54189 0.5823 0.0
Tb897 Tb 0.59914 0.57044 0.61623 0.0
C898 C 0.50773 0.52706 0.56143 0.0
C899 C 0.49079 0.54273 0.55259 0.0
C900 C 0.49539 0.57021 0.5653 0.0
C901 C 0.47909 0.58499 0.55828 0.0
C902 C 0.45722 0.57229 0.53938 0.0
C903 C 0.45261 0.54489 0.52613 0.0
C904 C 0.46956 0.53029 0.53239 0.0
C905 C 0.58713 0.5441 0.55342 0.0
C906 C 0.5707 0.60785 0.58958 0.0
C907 C 0.6435 0.58723 0.63596 0.0
C908 C 0.66272 0.57586 0.62808 0.0
C909 C 0.66737 0.57559 0.60062 0.0
C910 C 0.67935 0.55764 0.58982 0.0
C911 C 0.68712 0.53991 0.60639 0.0
C912 C 0.68518 0.54263 0.63494 0.0
C913 C 0.67304 0.56056 0.64576 0.0
C914 C 0.5642 0.56841 0.64516 0.0
C915 C 0.58164 0.5051 0.60828 0.0
O916 O 0.5167 0.53183 0.58858 0.0
O917 O 0.5242 0.52646 0.54639 0.0
O918 O 0.58512 0.56282 0.57173 0.0
O919 O 0.56896 0.52288 0.55109 0.0
O920 O 0.55251 0.58535 0.58165 0.0
O921 O 0.59183 0.60666 0.60258 0.0
O922 O 0.63239 0.59732 0.61633 0.0
O923 O 0.62839 0.57179 0.64818 0.0
O924 O 0.56608 0.54972 0.6268 0.0
O925 O 0.58307 0.58886 0.64852 0.0
O926 O 0.60038 0.52679 0.6108 0.0
O927 O 0.55962 0.50712 0.5998 0.0
H928 H 0.5109 0.57999 0.58189 0.0
H929 H 0.48268 0.60574 0.5696 0.0
H930 H 0.43552 0.53452 0.51207 0.0
H931 H 0.46561 0.50903 0.52248 0.0
H932 H 0.65998 0.58743 0.5865 0.0
H933 H 0.68057 0.55602 0.56773 0.0
H934 H 0.69158 0.52958 0.64832 0.0
H935 H 0.66999 0.56075 0.66714 0.0
Tb936 Tb 0.09014 0.55243 0.09222 0.0
Tb937 Tb 0.04143 0.55089 0.10781 0.0
C938 C 0.1349 0.5601 0.09381 0.0
C939 C 0.15524 0.54746 0.09456 0.0
C940 C 0.15279 0.51971 0.09614 0.0
C941 C 0.17315 0.50942 0.09874 0.0
C942 C 0.19632 0.52679 0.10019 0.0
C943 C 0.19839 0.55432 0.0979 0.0
C944 C 0.17817 0.56445 0.09507 0.0
C945 C 0.05449 0.54904 0.0479 0.0
C946 C 0.05421 0.49469 0.08789 0.0
C947 C 0.99758 0.55 0.10504 0.0
C948 C 0.97902 0.56534 0.09949 0.0
C949 C 0.96268 0.55954 0.07336 0.0
C950 C 0.9426 0.57031 0.07016 0.0
C951 C 0.93811 0.5868 0.09314 0.0
C952 C 0.95507 0.59352 0.11879 0.0
C953 C 0.9751 0.58299 0.12192 0.0
C954 C 0.07207 0.54535 0.15432 0.0
C955 C 0.07762 0.60939 0.11119 0.0
O956 O 0.12527 0.56146 0.11619 0.0
O957 O 0.11877 0.55473 0.07043 0.0
O958 O 0.05796 0.5626 0.07292 0.0
O959 O 0.07207 0.53782 0.04737 0.0
O960 O 0.07712 0.50846 0.0912 0.0
O961 O 0.03722 0.50739 0.09081 0.0
O962 O 1.00566 0.53905 0.08398 0.0
O963 O 1.01448 0.55974 0.12778 0.0
O964 O 0.07579 0.54765 0.12948 0.0
O965 O 0.04999 0.5462 0.15267 0.0
O966 O 0.05568 0.59535 0.11251 0.0
O967 O 0.09382 0.59681 0.10433 0.0
H968 H 0.13529 0.50619 0.09587 0.0
H969 H 0.1709 0.48815 0.10058 0.0
H970 H 0.21581 0.56824 0.09856 0.0
H971 H 0.18056 0.58588 0.09385 0.0
H972 H 0.96484 0.54577 0.0557 0.0
H973 H 0.92993 0.56457 0.05012 0.0
H974 H 0.95251 0.60645 0.13686 0.0
H975 H 0.98699 0.58784 0.14247 0.0
H976 H 0.05334 0.22325 0.05754 0.0
H977 H 0.99809 0.17737 0.98612 0.0
H978 H 1.00136 0.13443 1.00088 0.0
H979 H 0.02148 0.10904 0.03265 0.0
H980 H 0.07928 0.15468 0.10168 0.0
H981 H 0.07347 0.1977 0.08954 0.0
C982 C 0.04175 0.20388 0.04548 0.0
C983 C 0.02519 0.20384 0.02083 0.0
C984 C 0.04436 0.17882 0.0536 0.0
C985 C 1.01084 0.17827 1.00522 0.0
C986 C 1.01277 0.15355 1.01364 0.0
C987 C 0.03266 0.12837 0.04525 0.0
C988 C 0.05079 0.12823 0.06826 0.0
C989 C 0.02968 0.15342 0.03759 0.0
C990 C 0.06521 0.15379 0.08389 0.0
C991 C 0.06189 0.1786 0.07692 0.0
H992 H 0.19114 0.83043 0.2216 0.0
H993 H 0.146 0.8156 0.28295 0.0
H994 H 0.17867 0.80705 0.31491 0.0
H995 H 0.21991 0.80252 0.32576 0.0
H996 H 0.26602 0.81824 0.2658 0.0
H997 H 0.2334 0.82724 0.23332 0.0
C998 C 0.18851 0.82571 0.24211 0.0
C999 C 0.1658 0.82383 0.24958 0.0
C1000 C 0.20762 0.82054 0.26072 0.0
C1001 C 0.16301 0.81732 0.27631 0.0
C1002 C 0.18177 0.81226 0.29473 0.0
C1003 C 0.22285 0.80782 0.30554 0.0
C1004 C 0.2455 0.80949 0.29829 0.0
C1005 C 0.20408 0.8135 0.28713 0.0
C1006 C 0.24885 0.81668 0.27201 0.0
C1007 C 0.23016 0.82195 0.25341 0.0
H1008 H 0.51131 0.87262 0.51833 0.0
H1009 H 0.57819 0.86471 0.56335 0.0
H1010 H 0.58855 0.91253 0.58736 0.0
H1011 H 0.5798 0.95787 0.59295 0.0
H1012 H 0.51166 0.9643 0.54961 0.0
H1013 H 0.50066 0.91606 0.52779 0.0
C1014 C 0.52802 0.88122 0.53369 0.0
C1015 C 0.54398 0.86499 0.53886 0.0
C1016 C 0.53376 0.90869 0.54761 0.0
C1017 C 0.56547 0.87654 0.55904 0.0
C1018 C 0.57149 0.90402 0.57262 0.0
C1019 C 0.56245 0.94864 0.57894 0.0
C1020 C 0.54667 0.96495 0.57285 0.0
C1021 C 0.55598 0.9205 0.56669 0.0
C1022 C 0.52417 0.95243 0.55483 0.0
C1023 C 0.51788 0.92476 0.5422 0.0
H1024 H 0.53683 0.27762 0.76482 0.0
H1025 H 0.54105 0.35253 0.73222 0.0
H1026 H 0.50271 0.35442 0.74517 0.0
H1027 H 0.46713 0.33406 0.76479 0.0
H1028 H 0.46323 0.25872 0.79661 0.0
H1029 H 0.50184 0.25769 0.78467 0.0
C1030 C 0.52951 0.29452 0.76071 0.0
C1031 C 0.54206 0.31498 0.74764 0.0
C1032 C 0.5072 0.29527 0.76784 0.0
C1033 C 0.53198 0.33652 0.74231 0.0
C1034 C 0.50994 0.33757 0.74967 0.0
C1035 C 0.47476 0.31748 0.76925 0.0
C1036 C 0.46188 0.29634 0.78139 0.0
C1037 C 0.49725 0.31696 0.7623 0.0
C1038 C 0.47223 0.27499 0.78677 0.0
C1039 C 0.49452 0.27447 0.78015 0.0
H1040 H 0.12229 0.85025 0.71037 0.0
H1041 H 0.05656 0.85031 0.73963 0.0
H1042 H 0.04984 0.88424 0.71058 0.0
H1043 H 0.06006 0.90886 0.67222 0.0
H1044 H 0.12548 0.90815 0.64265 0.0
H1045 H 0.13518 0.87949 0.67677 0.0
C1046 C 0.10669 0.85804 0.7107 0.0
C1047 C 0.08968 0.84756 0.72657 0.0
C1048 C 0.10283 0.87709 0.69374 0.0
C1049 C 0.0698 0.85809 0.7274 0.0
C1050 C 0.06589 0.87728 0.71067 0.0
C1051 C 0.07654 0.90259 0.67356 0.0
C1052 C 0.09188 0.90996 0.65482 0.0
C1053 C 0.08183 0.8861 0.693 0.0
C1054 C 0.11344 0.90242 0.65689 0.0
C1055 C 0.1189 0.88604 0.67626 0.0
H1056 H 0.47748 0.86956 0.85006 0.0
H1057 H 0.47665 0.79079 0.87242 0.0
H1058 H 0.43299 0.77467 0.85484 0.0
H1059 H 0.39464 0.78458 0.83656 0.0
H1060 H 0.39616 0.86549 0.81974 0.0
H1061 H 0.43994 0.87926 0.83172 0.0
C1062 C 0.46779 0.8487 0.85058 0.0
C1063 C 0.48011 0.83128 0.86221 0.0
C1064 C 0.44277 0.84014 0.84183 0.0
C1065 C 0.46739 0.80448 0.86339 0.0
C1066 C 0.44248 0.79533 0.85349 0.0
C1067 C 0.40467 0.80514 0.83547 0.0
C1068 C 0.39236 0.82413 0.82766 0.0
C1069 C 0.4299 0.81322 0.84325 0.0
C1070 C 0.40537 0.85072 0.82624 0.0
C1071 C 0.43036 0.85856 0.83289 0.0
H1072 H 0.55401 0.22094 0.17053 0.0
H1073 H 0.53412 0.1687 0.23057 0.0
H1074 H 0.52871 0.12839 0.19494 0.0
H1075 H 0.53355 0.10868 0.1492 0.0
H1076 H 0.5527 0.15916 0.08788 0.0
H1077 H 0.55492 0.20012 0.12212 0.0
C1078 C 0.54811 0.20073 0.17573 0.0
C1079 C 0.54481 0.19785 0.20336 0.0
C1080 C 0.54548 0.17762 0.15528 0.0
C1081 C 0.53695 0.17153 0.2096 0.0
C1082 C 0.53403 0.14848 0.18931 0.0
C1083 C 0.53826 0.12852 0.14314 0.0
C1084 C 0.54352 0.13101 0.11631 0.0
C1085 C 0.53902 0.15142 0.16252 0.0
C1086 C 0.54893 0.1569 0.10863 0.0
C1087 C 0.55009 0.18017 0.12812 0.0
H1088 H 0.10997 0.33138 0.39689 0.0
H1089 H 0.0678 0.31085 0.31209 0.0
H1090 H 0.10172 0.30038 0.29372 0.0
H1091 H 0.14168 0.29259 0.3027 0.0
H1092 H 0.18105 0.30654 0.38875 0.0
H1093 H 0.15008 0.32433 0.40575 0.0
C1094 C 0.10856 0.3254 0.37432 0.0
C1095 C 0.08681 0.32222 0.3557 0.0
C1096 C 0.12747 0.31777 0.36428 0.0
C1097 C 0.08466 0.31368 0.32661 0.0
C1098 C 0.1039 0.30745 0.31622 0.0
C1099 C 0.14341 0.29928 0.32519 0.0
C1100 C 0.16368 0.29814 0.34435 0.0
C1101 C 0.12508 0.30852 0.335 0.0
C1102 C 0.16584 0.30752 0.37341 0.0
C1103 C 0.14807 0.31759 0.38323 0.0
H1104 H 0.97158 1.00865 0.1971 0.0
H1105 H 0.0288 0.05447 0.26676 0.0
H1106 H 0.0535 0.07176 0.23356 0.0
H1107 H 0.0586 0.07452 0.18453 0.0
H1108 H 1.00319 0.02473 0.11514 0.0
H1109 H 0.97791 1.00865 0.1482 0.0
C1110 C 0.98952 0.02229 0.20501 0.0
C1111 C 0.99828 0.03033 0.23442 0.0
C1112 C 1.00381 0.03174 0.18576 0.0
C1113 C 0.02167 0.0478 0.24428 0.0
C1114 C 0.03574 0.05786 0.22528 0.0
C1115 C 0.04088 0.06036 0.17668 0.0
C1116 C 0.03245 0.05146 0.14732 0.0
C1117 C 0.02692 0.05018 0.19596 0.0
C1118 C 1.00983 0.0324 0.13752 0.0
C1119 C 0.99545 0.02303 0.15647 0.0
H1120 H 0.30794 0.75423 0.58933 0.0
H1121 H 0.33302 0.70043 0.53283 0.0
H1122 H 0.31361 0.7161 0.4922 0.0
H1123 H 0.29392 0.74905 0.47382 0.0
H1124 H 0.26996 0.80369 0.53071 0.0
H1125 H 0.28426 0.78328 0.5704 0.0
C1126 C 0.30906 0.7458 0.5681 0.0
C1127 C 0.32227 0.72663 0.56401 0.0
C1128 C 0.29801 0.75496 0.54508 0.0
C1129 C 0.32313 0.71541 0.53644 0.0
C1130 C 0.31205 0.72436 0.51327 0.0
C1131 C 0.29108 0.75587 0.49474 0.0
C1132 C 0.28097 0.77787 0.49944 0.0
C1133 C 0.29996 0.74461 0.51745 0.0
C1134 C 0.2778 0.78685 0.52671 0.0
C1135 C 0.2861 0.77532 0.54936 0.0
H1136 H 0.61865 0.05154 0.78199 0.0
H1137 H 0.66161 1.00366 0.74715 0.0
H1138 H 0.64198 1.00504 0.69921 0.0
H1139 H 0.61162 1.01975 0.66541 0.0
H1140 H 0.56889 0.06715 0.70177 0.0
H1141 H 0.58913 0.06616 0.74911 0.0
C1142 C 0.62372 0.0411 0.76408 0.0
C1143 C 0.64188 0.02722 0.76927 0.0
C1144 C 0.61229 0.04214 0.73589 0.0
C1145 C 0.64784 1.01439 0.74482 0.0
C1146 C 0.63654 1.01528 0.71695 0.0
C1147 C 0.60694 0.03024 0.6836 0.0
C1148 C 0.58845 0.0439 0.67905 0.0
C1149 C 0.61868 0.02921 0.71189 0.0
C1150 C 0.58283 0.05662 0.70371 0.0
C1151 C 0.59447 0.05598 0.73125 0.0
H1152 H 0.3571 0.34477 0.01761 0.0
H1153 H 0.29628 0.37836 0.01404 0.0
H1154 H 0.28431 0.3612 0.96299 0.0
H1155 H 0.29231 0.33849 0.91869 0.0
H1156 H 0.35477 0.30768 0.92264 0.0
H1157 H 0.36478 0.32179 0.97391 0.0
C1158 C 0.34106 0.3481 1.00576 0.0
C1159 C 0.32757 0.36276 0.01979 0.0
C1160 C 0.33463 0.33879 0.97627 0.0
C1161 C 0.30701 0.36714 1.00389 0.0
C1162 C 0.30017 0.35735 0.97463 0.0
C1163 C 0.30799 0.33466 0.93081 0.0
C1164 C 0.32277 0.32204 0.91666 0.0
C1165 C 0.31401 0.34342 0.96048 0.0
C1166 C 0.34314 0.31749 0.93279 0.0
C1167 C 0.34888 0.32553 0.96221 0.0
H1168 H 0.02572 1.01067 0.39174 0.0
H1169 H 0.98423 0.06923 0.39753 0.0
H1170 H 0.9991 0.08102 0.44888 0.0
H1171 H 0.02183 0.07197 0.49287 0.0
H1172 H 0.0612 1.01129 0.48551 0.0
H1173 H 0.0494 1.00329 0.43429 0.0
C1174 C 1.02006 0.02624 0.4041 0.0
C1175 C 1.00379 0.03894 0.39071 0.0
C1176 C 0.02825 0.03245 0.43355 0.0
C1177 C 0.99671 0.05906 0.40724 0.0
C1178 C 1.00517 0.06576 0.43665 0.0
C1179 C 0.028 0.05726 0.47996 0.0
C1180 C 0.04219 0.04206 0.49306 0.0
C1181 C 1.02064 0.05221 0.45017 0.0
C1182 C 0.05 0.02301 0.47605 0.0
C1183 C 0.0433 1.01841 0.44669 0.0
H1184 H 0.35447 0.7462 0.66481 0.0
H1185 H 0.42169 0.76605 0.72425 0.0
H1186 H 0.40774 0.79865 0.75484 0.0
H1187 H 0.37494 0.81884 0.76526 0.0
H1188 H 0.30564 0.79111 0.70871 0.0
H1189 H 0.32199 0.76438 0.67538 0.0
C1190 C 0.36634 0.75806 0.68402 0.0
C1191 C 0.38929 0.75436 0.69185 0.0
C1192 C 0.35768 0.77521 0.70179 0.0
C1193 C 0.40413 0.76907 0.71755 0.0
C1194 C 0.39608 0.78751 0.735 0.0
C1195 C 0.36357 0.80708 0.74553 0.0
C1196 C 0.33921 0.80692 0.7391 0.0
C1197 C 0.37271 0.79041 0.72743 0.0
C1198 C 0.32446 0.79153 0.71374 0.0
C1199 C 0.33376 0.77625 0.69487 0.0
H1200 H 0.60485 0.07475 0.92313 0.0
H1201 H 0.65521 0.03335 0.95822 0.0
H1202 H 0.63915 0.03438 1.00162 0.0
H1203 H 0.61021 0.04663 0.03116 0.0
H1204 H 0.55761 0.08443 0.99443 0.0
H1205 H 0.57475 0.08512 0.95179 0.0
C1206 C 0.61246 0.06589 0.94016 0.0
C1207 C 0.6318 0.05404 0.93641 0.0
C1208 C 0.60253 0.06595 0.96564 0.0
C1209 C 0.6406 0.04264 0.95949 0.0
C1210 C 0.63131 0.04327 0.98477 0.0
C1211 C 0.60251 0.0553 0.01404 0.0
C1212 C 0.58241 0.06596 0.0172 0.0
C1213 C 0.61222 0.05488 0.9884 0.0
C1214 C 0.57292 0.07627 0.99364 0.0
C1215 C 0.58284 0.07663 0.96883 0.0
H1216 H 0.33301 0.34142 0.16058 0.0
H1217 H 0.33948 0.42104 0.20823 0.0
H1218 H 0.33143 0.40064 0.24938 0.0
H1219 H 0.32101 0.35983 0.27193 0.0
H1220 H 0.31302 0.28009 0.22382 0.0
H1221 H 0.32335 0.30075 0.1834 0.0
C1222 C 0.33279 0.35438 0.17998 0.0
C1223 C 0.33687 0.38289 0.18095 0.0
C1224 C 0.32786 0.34241 0.20378 0.0
C1225 C 0.33637 0.39911 0.2065 0.0
C1226 C 0.33177 0.38742 0.23022 0.0
C1227 C 0.32179 0.34701 0.25271 0.0
C1228 C 0.31627 0.31835 0.25107 0.0
C1229 C 0.32731 0.35906 0.22914 0.0
C1230 C 0.31717 0.30214 0.22579 0.0
C1231 C 0.32303 0.31398 0.20255 0.0
H1232 H 0.23366 0.96008 0.09765 0.0
H1233 H 0.16944 0.93321 0.03202 0.0
H1234 H 0.15241 0.96652 0.05624 0.0
H1235 H 0.15616 1.00342 0.09562 0.0
H1236 H 0.22068 0.03136 0.1603 0.0
H1237 H 0.23744 0.99701 0.13689 0.0
C1238 C 0.21594 0.9615 0.08856 0.0
C1239 C 0.20278 0.94426 0.06308 0.0
C1240 C 0.20638 0.9806 0.10251 0.0
C1241 C 0.17991 0.94638 0.05154 0.0
C1242 C 0.17016 0.96529 0.06541 0.0
C1243 C 0.17374 1.00157 0.10472 0.0
C1244 C 0.18714 1.01917 0.12976 0.0
C1245 C 0.18325 0.9824 0.09088 0.0
C1246 C 0.21012 1.01753 0.1412 0.0
C1247 C 0.21963 0.99809 0.12777 0.0
H1248 H 0.69171 0.66116 0.06936 0.0
H1249 H 0.7191 0.59122 0.0523 0.0
H1250 H 0.68181 0.56104 0.05926 0.0
H1251 H 0.64164 0.55429 0.07136 0.0
H1252 H 0.61531 0.62417 0.09236 0.0
H1253 H 0.65158 0.65439 0.08277 0.0
C1254 C 0.6894 0.63926 0.06677 0.0
C1255 C 0.70829 0.62855 0.05987 0.0
C1256 C 0.668 0.62195 0.07171 0.0
C1257 C 0.705 0.60013 0.05736 0.0
C1258 C 0.68363 0.58282 0.06145 0.0
C1259 C 0.64378 0.57615 0.07383 0.0
C1260 C 0.62529 0.58679 0.08202 0.0
C1261 C 0.66507 0.59347 0.06888 0.0
C1262 C 0.62871 0.61523 0.08537 0.0
C1263 C 0.64965 0.63257 0.08005 0.0
H1264 H 0.69971 0.51186 0.31311 0.0
H1265 H 0.6977 0.51256 0.4013 0.0
H1266 H 0.71758 0.47557 0.40138 0.0
H1267 H 0.7385 0.44558 0.37672 0.0
H1268 H 0.74026 0.44658 0.28868 0.0
H1269 H 0.71719 0.48018 0.28803 0.0
C1270 C 0.70355 0.50391 0.33239 0.0
C1271 C 0.69764 0.51519 0.35727 0.0
C1272 C 0.71489 0.48292 0.33222 0.0
C1273 C 0.70225 0.50429 0.38191 0.0
C1274 C 0.71363 0.4832 0.38195 0.0
C1275 C 0.7334 0.4529 0.35738 0.0
C1276 C 0.74115 0.44393 0.33282 0.0
C1277 C 0.72043 0.47267 0.3573 0.0
C1278 C 0.73461 0.45349 0.30784 0.0
C1279 C 0.72149 0.47269 0.30747 0.0
H1280 H 0.80608 0.41511 0.47493 0.0
H1281 H 0.82194 0.3549 0.52348 0.0
H1282 H 0.86452 0.38032 0.53515 0.0
H1283 H 0.89595 0.42293 0.53704 0.0
H1284 H 0.87931 0.48358 0.48951 0.0
H1285 H 0.83809 0.45505 0.47276 0.0
C1286 C 0.8189 0.40719 0.4876 0.0
C1287 C 0.81078 0.38335 0.49864 0.0
C1288 C 0.84308 0.42245 0.49516 0.0
C1289 C 0.82768 0.37321 0.51471 0.0
C1290 C 0.852 0.38794 0.52171 0.0
C1291 C 0.88341 0.42974 0.52269 0.0
C1292 C 0.89063 0.45563 0.51499 0.0
C1293 C 0.8597 0.41314 0.51298 0.0
C1294 C 0.87408 0.46413 0.49645 0.0
C1295 C 0.85057 0.44769 0.48658 0.0
H1296 H 0.34633 0.13732 0.2852 0.0
H1297 H 0.41315 0.17667 0.34398 0.0
H1298 H 0.40106 0.21916 0.35091 0.0
H1299 H 0.37101 0.24689 0.34106 0.0
H1300 H 0.30317 0.20613 0.28456 0.0
H1301 H 0.31595 0.16438 0.27659 0.0
C1302 C 0.35843 0.15505 0.2996 0.0
C1303 C 0.38113 0.15263 0.31385 0.0
C1304 C 0.35098 0.18014 0.30417 0.0
C1305 C 0.39575 0.17676 0.33246 0.0
C1306 C 0.38873 0.20157 0.33651 0.0
C1307 C 0.35887 0.22903 0.32688 0.0
C1308 C 0.33568 0.23094 0.31345 0.0
C1309 C 0.36631 0.20384 0.32259 0.0
C1310 C 0.32089 0.20648 0.2955 0.0
C1311 C 0.32831 0.18208 0.2908 0.0
H1312 H 0.35772 0.14445 0.54249 0.0
H1313 H 0.33098 0.10997 0.61113 0.0
H1314 H 0.36472 0.09031 0.61937 0.0
H1315 H 0.40229 0.08327 0.60807 0.0
H1316 H 0.43002 0.11772 0.54005 0.0
H1317 H 0.39552 0.13644 0.53047 0.0
C1318 C 0.35919 0.1325 0.55914 0.0
C1319 C 0.34163 0.12886 0.57616 0.0
C1320 C 0.37894 0.12114 0.56396 0.0
C1321 C 0.34405 0.11328 0.59765 0.0
C1322 C 0.36345 0.10197 0.60245 0.0
C1323 C 0.40099 0.09506 0.59127 0.0
C1324 C 0.41906 0.09912 0.57501 0.0
C1325 C 0.38112 0.10593 0.58594 0.0
C1326 C 0.41648 0.11398 0.55288 0.0
C1327 C 0.39673 0.12487 0.54746 0.0
H1328 H 0.73591 0.64265 0.36079 0.0
H1329 H 0.68581 0.6893 0.37663 0.0
H1330 H 0.71471 0.731 0.37171 0.0
H1331 H 0.75386 0.7541 0.36073 0.0
H1332 H 0.80409 0.70743 0.34656 0.0
H1333 H 0.77554 0.66594 0.35276 0.0
C1334 C 0.73129 0.66194 0.36329 0.0
C1335 C 0.70856 0.66266 0.36889 0.0
C1336 C 0.74794 0.68585 0.36025 0.0
C1337 C 0.7031 0.688 0.3723 0.0
C1338 C 0.71958 0.7119 0.36925 0.0
C1339 C 0.7583 0.73474 0.35859 0.0
C1340 C 0.78073 0.73357 0.35247 0.0
C1341 C 0.74191 0.71101 0.36273 0.0
C1342 C 0.78679 0.70866 0.35095 0.0
C1343 C 0.77049 0.68497 0.35452 0.0
H1344 H 0.9031 0.48078 0.86539 0.0
H1345 H 0.85548 0.48562 0.79025 0.0
H1346 H 0.8329 0.43757 0.78709 0.0
H1347 H 0.82688 0.39244 0.80519 0.0
H1348 H 0.87277 0.39041 0.88302 0.0
H1349 H 0.89529 0.43791 0.88529 0.0
C1350 C 0.88761 0.4716 0.84838 0.0
C1351 C 0.88133 0.48773 0.82811 0.0
C1352 C 0.87426 0.44372 0.84696 0.0
C1353 C 0.86097 0.4746 0.80646 0.0
C1354 C 0.84804 0.44672 0.80452 0.0
C1355 C 0.84184 0.40231 0.82265 0.0
C1356 C 0.84804 0.38691 0.8438 0.0
C1357 C 0.85454 0.43075 0.8245 0.0
C1358 C 0.86734 0.40097 0.86633 0.0
C1359 C 0.88036 0.42846 0.86768 0.0
H1360 H 0.07003 0.88927 0.14189 0.0
H1361 H 0.14535 0.91234 0.13882 0.0
H1362 H 0.1413 0.95449 0.12258 0.0
H1363 H 0.11615 0.98568 0.10885 0.0
H1364 H 0.04014 0.96002 0.10789 0.0
H1365 H 0.04465 0.91884 0.12562 0.0
C1366 C 0.0856 0.90348 0.1377 0.0
C1367 C 0.10808 0.8973 0.14196 0.0
C1368 C 0.08299 0.92762 0.12738 0.0
C1369 C 0.12782 0.91616 0.13588 0.0
C1370 C 0.12551 0.94049 0.12654 0.0
C1371 C 0.10057 0.97109 0.11249 0.0
C1372 C 0.07776 0.97643 0.10692 0.0
C1373 C 0.10317 0.94659 0.12216 0.0
C1374 C 0.05789 0.95678 0.11165 0.0
C1375 C 0.06046 0.93307 0.12197 0.0
H1376 H 0.94471 0.30258 0.96268 0.0
H1377 H 0.95672 0.24382 0.89836 0.0
H1378 H 0.91873 0.24225 0.86825 0.0
H1379 H 0.88204 0.25728 0.8595 0.0
H1380 H 0.87008 0.31818 0.92132 0.0
H1381 H 0.90779 0.31916 0.95285 0.0
C1382 C 0.939 0.28939 0.94209 0.0
C1383 C 0.95383 0.27321 0.93304 0.0
C1384 C 0.91702 0.28898 0.92431 0.0
C1385 C 0.946 0.25654 0.90607 0.0
C1386 C 0.92413 0.25558 0.88875 0.0
C1387 C 0.88756 0.27082 0.87989 0.0
C1388 C 0.87297 0.28758 0.88794 0.0
C1389 C 0.90949 0.27167 0.89757 0.0
C1390 C 0.88079 0.30507 0.91444 0.0
C1391 C 0.90242 0.30559 0.9325 0.0
H1392 H 0.62358 0.23906 0.64193 0.0
H1393 H 0.55029 0.23402 0.64899 0.0
H1394 H 0.53873 0.18465 0.63188 0.0
H1395 H 0.54986 0.14223 0.61884 0.0
H1396 H 0.62336 0.14609 0.61329 0.0
H1397 H 0.63432 0.19611 0.62583 0.0
C1398 C 0.60497 0.22723 0.63887 0.0
C1399 C 0.58771 0.24042 0.64624 0.0
C1400 C 0.59854 0.19838 0.62985 0.0
C1401 C 0.56383 0.22454 0.64306 0.0
C1402 C 0.55724 0.1962 0.63352 0.0
C1403 C 0.5683 0.1539 0.6202 0.0
C1404 C 0.58573 0.14004 0.61525 0.0
C1405 C 0.57453 0.18276 0.62754 0.0
C1406 C 0.60948 0.15591 0.61703 0.0
C1407 C 0.61579 0.18465 0.62421 0.0
H1408 H 0.58474 0.82034 0.41538 0.0
H1409 H 0.59221 0.7511 0.45399 0.0
H1410 H 0.62725 0.74955 0.43336 0.0
H1411 H 0.65723 0.76901 0.40615 0.0
H1412 H 0.65105 0.83935 0.36889 0.0
H1413 H 0.61463 0.83946 0.38727 0.0
C1414 C 0.59383 0.80468 0.41891 0.0
C1415 C 0.58563 0.78577 0.43616 0.0
C1416 C 0.61459 0.80431 0.40751 0.0
C1417 C 0.59801 0.76594 0.44086 0.0
C1418 C 0.61816 0.76505 0.42909 0.0
C1419 C 0.64784 0.78425 0.40183 0.0
C1420 C 0.65716 0.80423 0.38619 0.0
C1421 C 0.62686 0.78434 0.41268 0.0
C1422 C 0.64469 0.82396 0.38119 0.0
C1423 C 0.62367 0.82393 0.39157 0.0
H1424 H 0.03812 0.24355 0.43051 0.0
H1425 H 0.0425 0.30535 0.50233 0.0
H1426 H 0.04764 0.27368 0.53411 0.0
H1427 H 0.05075 0.22886 0.5418 0.0
H1428 H 0.04506 0.16581 0.47092 0.0
H1429 H 0.04117 0.19786 0.43848 0.0
C1430 C 0.04023 0.25006 0.45311 0.0
C1431 C 0.03989 0.27677 0.46397 0.0
C1432 C 0.0431 0.23167 0.47144 0.0
C1433 C 0.04265 0.28492 0.49332 0.0
C1434 C 0.04562 0.26685 0.51159 0.0
C1435 C 0.04838 0.222 0.51921 0.0
C1436 C 0.04792 0.19502 0.5087 0.0
C1437 C 0.04578 0.24023 0.50087 0.0
C1438 C 0.04556 0.1866 0.47949 0.0
C1439 C 0.0432 0.20483 0.46096 0.0
H1440 H 0.64496 0.23871 0.2642 0.0
H1441 H 0.65159 0.29977 0.33709 0.0
H1442 H 0.69554 0.31212 0.34312 0.0
H1443 H 0.73107 0.3085 0.32453 0.0
H1444 H 0.72531 0.24505 0.25394 0.0
H1445 H 0.68141 0.23107 0.24921 0.0
C1446 C 0.6562 0.25406 0.28193 0.0
C1447 C 0.64548 0.26819 0.30046 0.0
C1448 C 0.68121 0.26118 0.28488 0.0
C1449 C 0.65977 0.28838 0.32307 0.0
C1450 C 0.68474 0.29569 0.32617 0.0
C1451 C 0.72026 0.29156 0.3081 0.0
C1452 C 0.73122 0.27808 0.28922 0.0
C1453 C 0.6955 0.28282 0.3066 0.0
C1454 C 0.71708 0.25595 0.26835 0.0
C1455 C 0.69213 0.24783 0.26587 0.0
H1456 H 0.55187 0.90215 0.01467 0.0
H1457 H 0.54027 0.94593 0.94611 0.0
H1458 H 0.53665 0.98414 0.97918 0.0
H1459 H 0.53763 1.00516 0.02739 0.0
H1460 H 0.55186 0.96321 0.09666 0.0
H1461 H 0.55269 0.92346 0.06309 0.0
C1462 C 0.54855 0.92012 1.00684 0.0
C1463 C 0.54641 0.92125 0.97785 0.0
C1464 C 0.54658 0.94194 0.02604 0.0
C1465 C 0.54214 0.9446 0.96816 0.0
C1466 C 0.53993 0.96634 0.98714 0.0
C1467 C 0.5407 0.9873 0.0352 0.0
C1468 C 0.54474 0.98708 0.06445 0.0
C1469 C 0.54214 0.9652 0.01603 0.0
C1470 C 0.54866 0.96373 0.07421 0.0
C1471 C 0.54933 0.94115 0.05509 0.0
H1472 H 0.03729 0.81386 0.80131 0.0
H1473 H 0.02998 0.75369 0.85581 0.0
H1474 H 0.99703 0.76868 0.87175 0.0
H1475 H 0.96855 0.79685 0.86783 0.0
H1476 H 0.97487 0.8552 0.81122 0.0
H1477 H 1.0102 0.84337 0.79911 0.0
C1478 C 0.02869 0.80419 0.81691 0.0
C1479 C 0.03604 0.78256 0.8272 0.0
C1480 C 1.00952 0.81261 0.82567 0.0
C1481 C 0.02465 0.77032 0.84743 0.0
C1482 C 1.00576 0.77885 0.85653 0.0
C1483 C 0.97765 0.80701 0.85287 0.0
C1484 C 0.9689 0.82691 0.84051 0.0
C1485 C 0.99772 0.79962 0.84537 0.0
C1486 C 0.98128 0.84014 0.8215 0.0
C1487 C 1.00142 0.83319 0.81428 0.0
H1488 H 0.12901 0.05003 0.93438 0.0
H1489 H 0.11334 0.12832 0.94331 0.0
H1490 H 0.0994 0.12064 0.98691 0.0
H1491 H 0.08981 0.09087 0.02161 0.0
H1492 H 0.10255 1.01121 1.01109 0.0
H1493 H 0.1198 1.02036 0.96955 0.0
C1494 C 0.12262 0.06545 0.94592 0.0
C1495 C 0.1222 0.0897 0.9354 0.0
C1496 C 0.11423 0.06072 0.97092 0.0
C1497 C 0.11376 0.10938 0.95068 0.0
C1498 C 0.10585 0.10506 0.97575 0.0
C1499 C 0.0968 0.07574 1.01053 0.0
C1500 C 0.09521 0.05051 0.01962 0.0
C1501 C 0.10583 0.08075 0.986 0.0
C1502 C 0.1038 0.03086 1.00463 0.0
C1503 C 0.11351 0.03603 0.98077 0.0
H1504 H 0.74524 0.31202 0.58301 0.0
H1505 H 0.76696 0.39879 0.61601 0.0
H1506 H 0.7886 0.39088 0.66009 0.0
H1507 H 0.80395 0.35959 0.68724 0.0
H1508 H 0.78353 0.27315 0.6528 0.0
H1509 H 0.75938 0.2808 0.61051 0.0
C1510 C 0.7542 0.32915 0.6001 0.0
C1511 C 0.75445 0.35591 0.59648 0.0
C1512 C 0.76745 0.3246 0.6246 0.0
C1513 C 0.76648 0.37798 0.61854 0.0
C1514 C 0.77904 0.37351 0.64353 0.0
C1515 C 0.79413 0.34247 0.67047 0.0
C1516 C 0.79561 0.31593 0.67289 0.0
C1517 C 0.78016 0.34698 0.64642 0.0
C1518 C 0.78302 0.29386 0.65104 0.0
C1519 C 0.76898 0.29815 0.62709 0.0
H1520 H 0.48474 0.08029 0.44224 0.0
H1521 H 0.51252 0.02372 0.39276 0.0
H1522 H 0.53658 1.01727 0.43576 0.0
H1523 H 0.55037 0.02695 0.48806 0.0
H1524 H 0.52254 0.08235 0.53875 0.0
H1525 H 0.49836 0.08955 0.49564 0.0
C1526 C 0.49613 0.06664 0.44072 0.0
C1527 C 0.4965 0.05269 0.41335 0.0
C1528 C 0.51012 0.06257 0.46626 0.0
C1529 C 0.51148 0.03493 0.41279 0.0
C1530 C 0.52541 0.03114 0.43769 0.0
C1531 C 0.53902 0.04064 0.48988 0.0
C1532 C 0.53869 0.05408 0.51735 0.0
C1533 C 0.52495 0.04471 0.46465 0.0
C1534 C 0.52355 0.07162 0.51846 0.0
C1535 C 0.50961 0.0758 0.49352 0.0
H1536 H 0.76183 0.74217 0.14052 0.0
H1537 H 0.83233 0.72895 0.15012 0.0
H1538 H 0.84099 0.74887 0.2004 0.0
H1539 H 0.8277 0.76718 0.24237 0.0
H1540 H 0.75619 0.77771 0.23395 0.0
H1541 H 0.74876 0.76165 0.18288 0.0
C1542 C 0.77927 0.74424 0.15354 0.0
C1543 C 0.79656 0.73443 0.14142 0.0
C1544 C 0.7838 0.75481 0.18286 0.0
C1545 C 0.81881 0.73656 0.1588 0.0
C1546 C 0.82371 0.7478 0.18762 0.0
C1547 C 0.81049 0.76613 0.22943 0.0
C1548 C 0.79253 0.77365 0.24228 0.0
C1549 C 0.80619 0.7565 0.20003 0.0
C1550 C 0.77035 0.77196 0.2249 0.0
C1551 C 0.76609 0.76282 0.19557 0.0
H1552 H 0.13045 0.04409 0.76123 0.0
H1553 H 0.09956 0.10972 0.78526 0.0
H1554 H 0.08231 0.10776 0.73547 0.0
H1555 H 0.0775 0.08851 0.68462 0.0
H1556 H 0.10744 0.0217 0.66173 0.0
H1557 H 0.12371 0.02323 0.71141 0.0
C1558 C 0.11977 0.05785 0.75567 0.0
C1559 C 0.11642 0.07711 0.77706 0.0
C1560 C 0.10997 0.05663 0.72707 0.0
C1561 C 0.10234 0.09459 0.76934 0.0
C1562 C 0.09263 0.09362 0.74081 0.0
C1563 C 0.08769 0.07441 0.69056 0.0
C1564 C 0.09146 0.05523 0.66939 0.0
C1565 C 0.09664 0.07499 0.71941 0.0
C1566 C 0.10431 0.03673 0.67749 0.0
C1567 C 0.11362 0.03756 0.70595 0.0
H1568 H 0.73672 0.36003 0.43615 0.0
H1569 H 0.68794 0.28063 0.43134 0.0
H1570 H 0.70239 0.26245 0.39045 0.0
H1571 H 0.73651 0.26616 0.3666 0.0
H1572 H 0.7917 0.34268 0.38163 0.0
H1573 H 0.76805 0.36501 0.4088 0.0
C1574 C 0.72844 0.33906 0.42528 0.0
C1575 C 0.71171 0.32145 0.43689 0.0
C1576 C 0.73917 0.328 0.40473 0.0
C1577 C 0.70096 0.29443 0.4227 0.0
C1578 C 0.70971 0.28391 0.39989 0.0
C1579 C 0.74321 0.2878 0.37562 0.0
C1580 C 0.76574 0.30295 0.37215 0.0
C1581 C 0.73016 0.29994 0.39251 0.0
C1582 C 0.77427 0.33087 0.38375 0.0
C1583 C 0.76075 0.34355 0.3993 0.0
H1584 H 0.49456 0.05637 0.26382 0.0
H1585 H 0.43507 0.08293 0.22439 0.0
H1586 H 0.44881 0.07895 0.17959 0.0
H1587 H 0.47816 0.06796 0.14976 0.0
H1588 H 0.53833 0.04311 0.19014 0.0
H1589 H 0.52407 0.04627 0.23453 0.0
C1590 C 0.48449 0.06148 0.24561 0.0
C1591 C 0.46339 0.07015 0.24871 0.0
C1592 C 0.49271 0.05922 0.21906 0.0
C1593 C 0.45122 0.07636 0.22384 0.0
C1594 C 0.45914 0.07397 0.19768 0.0
C1595 C 0.48811 0.06285 0.16806 0.0
C1596 C 0.50956 0.05477 0.16539 0.0
C1597 C 0.47988 0.0653 0.19468 0.0
C1598 C 0.52189 0.04912 0.19045 0.0
C1599 C 0.51367 0.05103 0.21634 0.0
H1600 H 0.80753 0.72506 0.98028 0.0
H1601 H 0.74233 0.74982 0.98003 0.0
H1602 H 0.74887 0.77189 0.93929 0.0
H1603 H 0.77429 0.78637 0.90434 0.0
H1604 H 0.84075 0.76404 0.90724 0.0
H1605 H 0.83248 0.73892 0.94544 0.0
C1606 C 0.79464 0.73513 0.97127 0.0
C1607 C 0.7744 0.73558 0.98355 0.0
C1608 C 0.79874 0.74834 0.94791 0.0
C1609 C 0.75811 0.74905 0.97137 0.0
C1610 C 0.76183 0.76172 0.94789 0.0
C1611 C 0.7867 0.77558 0.91302 0.0
C1612 C 0.80802 0.77684 0.90249 0.0
C1613 C 0.78219 0.76175 0.93598 0.0
C1614 C 0.82414 0.76327 0.91464 0.0
C1615 C 0.81947 0.74895 0.93667 0.0
H1616 H 0.8969 0.1466 0.09138 0.0
H1617 H 0.8903 0.09747 0.15675 0.0
H1618 H 0.90311 0.06259 0.12929 0.0
H1619 H 0.92097 0.04876 0.09003 0.0
H1620 H 0.93165 0.09896 0.02656 0.0
H1621 H 0.91159 0.13024 0.04918 0.0
C1622 C 0.8981 0.12815 0.09944 0.0
C1623 C 0.8931 0.12485 0.12627 0.0
C1624 C 0.90591 0.10824 0.08369 0.0
C1625 C 0.8945 0.10076 0.1364 0.0
C1626 C 0.90166 0.08068 0.12064 0.0
C1627 C 0.91807 0.06606 0.08068 0.0
C1628 C 0.92742 0.07165 0.05674 0.0
C1629 C 0.90796 0.08454 0.09468 0.0
C1630 C 0.92412 0.09421 0.0448 0.0
C1631 C 0.91307 0.11226 0.05801 0.0
H1632 H 0.4118 0.50818 0.11882 0.0
H1633 H 0.42821 0.43317 0.08913 0.0
H1634 H 0.46751 0.45915 0.08303 0.0
H1635 H 0.49755 0.50391 0.08507 0.0
H1636 H 0.48033 0.57832 0.11516 0.0
H1637 H 0.44162 0.55212 0.12178 0.0
C1638 C 0.42393 0.49743 0.11109 0.0
C1639 C 0.41671 0.46858 0.1045 0.0
C1640 C 0.4467 0.51255 0.10754 0.0
C1641 C 0.43299 0.45528 0.09446 0.0
C1642 C 0.45562 0.47019 0.0909 0.0
C1643 C 0.48549 0.51432 0.09343 0.0
C1644 C 0.49223 0.54321 0.0998 0.0
C1645 C 0.46276 0.49893 0.09728 0.0
C1646 C 0.47589 0.55619 0.11004 0.0
C1647 C 0.45358 0.54119 0.1139 0.0
H1648 H 0.38927 0.56006 0.75308 0.0
H1649 H 0.44144 0.60277 0.82866 0.0
H1650 H 0.42332 0.6411 0.83016 0.0
H1651 H 0.39236 0.66237 0.80976 0.0
H1652 H 0.34087 0.61888 0.73382 0.0
H1653 H 0.35895 0.58092 0.73289 0.0
C1654 C 0.39674 0.57772 0.76994 0.0
C1655 C 0.41671 0.57854 0.7907 0.0
C1656 C 0.38628 0.59956 0.77065 0.0
C1657 C 0.42605 0.60159 0.81242 0.0
C1658 C 0.41572 0.62354 0.81325 0.0
C1659 C 0.38525 0.64466 0.79292 0.0
C1660 C 0.36516 0.64343 0.77201 0.0
C1661 C 0.39583 0.62277 0.79241 0.0
C1662 C 0.35603 0.6202 0.75046 0.0
C1663 C 0.36643 0.59851 0.7498 0.0
H1664 H 0.29768 0.62144 0.6557 0.0
H1665 H 0.3032 0.70454 0.69279 0.0
H1666 H 0.26106 0.69126 0.69713 0.0
H1667 H 0.22166 0.65756 0.68425 0.0
H1668 H 0.21519 0.57549 0.64283 0.0
H1669 H 0.25875 0.58663 0.64658 0.0
C1670 C 0.28975 0.63639 0.66544 0.0
C1671 C 0.30322 0.66384 0.6738 0.0
C1672 C 0.26529 0.62888 0.66658 0.0
C1673 C 0.29291 0.68327 0.68609 0.0
C1674 C 0.26886 0.67574 0.68841 0.0
C1675 C 0.22981 0.64212 0.67608 0.0
C1676 C 0.21527 0.61593 0.66286 0.0
C1677 C 0.25467 0.64888 0.6776 0.0
C1678 C 0.22606 0.59584 0.65308 0.0
C1679 C 0.25092 0.60222 0.6551 0.0
H1680 H 0.76952 0.96754 0.82516 0.0
H1681 H 0.70351 0.9294 0.84958 0.0
H1682 H 0.71585 0.88715 0.85059 0.0
H1683 H 0.74566 0.8591 0.84461 0.0
H1684 H 0.81337 0.89896 0.82489 0.0
H1685 H 0.80036 0.94055 0.82222 0.0
C1686 C 0.75765 0.95013 0.83074 0.0
C1687 C 0.735 0.95281 0.83705 0.0
C1688 C 0.76539 0.92524 0.83225 0.0
C1689 C 0.7208 0.92911 0.84451 0.0
C1690 C 0.72797 0.90444 0.84508 0.0
C1691 C 0.7578 0.87678 0.83979 0.0
C1692 C 0.781 0.87464 0.83494 0.0
C1693 C 0.75029 0.90191 0.83902 0.0
C1694 C 0.79571 0.89885 0.82897 0.0
C1695 C 0.78811 0.92312 0.82732 0.0
H1696 H 0.76738 0.94618 0.58801 0.0
H1697 H 0.80783 1.01058 0.65776 0.0
H1698 H 0.77456 0.03145 0.6547 0.0
H1699 H 0.73386 0.03175 0.63238 0.0
H1700 H 0.69271 0.96686 0.56343 0.0
H1701 H 0.7262 0.94622 0.56593 0.0
C1702 C 0.76896 0.96484 0.60246 0.0
C1703 C 0.79026 0.97672 0.62306 0.0
C1704 C 0.74952 0.97676 0.60077 0.0
C1705 C 0.79179 1.00086 0.64168 0.0
C1706 C 0.77269 1.01287 0.63998 0.0
C1707 C 0.73203 1.01293 0.61806 0.0
C1708 C 0.71058 1.00105 0.59769 0.0
C1709 C 0.75141 1.00098 0.6197 0.0
C1710 C 0.70897 0.97683 0.57909 0.0
C1711 C 0.72815 0.96487 0.58059 0.0
H1712 H 0.38598 0.44263 0.7742 0.0
H1713 H 0.43832 0.42876 0.8397 0.0
H1714 H 0.40773 0.39058 0.84879 0.0
H1715 H 0.36518 0.36343 0.84045 0.0
H1716 H 0.31375 0.37604 0.77315 0.0
H1717 H 0.34473 0.41286 0.76294 0.0
C1718 C 0.39077 0.43114 0.79033 0.0
C1719 C 0.41436 0.43873 0.8064 0.0
C1720 C 0.37315 0.4092 0.79539 0.0
C1721 C 0.4203 0.42338 0.82699 0.0
C1722 C 0.40278 0.40162 0.83233 0.0
C1723 C 0.36095 0.37373 0.8231 0.0
C1724 C 0.33726 0.36684 0.80745 0.0
C1725 C 0.37903 0.39463 0.81696 0.0
C1726 C 0.33184 0.381 0.78557 0.0
C1727 C 0.34956 0.40203 0.77966 0.0
H1728 H 0.24372 0.61919 0.32403 0.0
H1729 H 0.22807 0.63844 0.40652 0.0
H1730 H 0.24746 0.68703 0.40863 0.0
H1731 H 0.26801 0.7258 0.38645 0.0
H1732 H 0.28099 0.70644 0.30249 0.0
H1733 H 0.26397 0.65779 0.30182 0.0
C1734 C 0.24489 0.63383 0.34278 0.0
C1735 C 0.23452 0.62413 0.36541 0.0
C1736 C 0.25559 0.66258 0.34353 0.0
C1737 C 0.23591 0.64441 0.38885 0.0
C1738 C 0.24701 0.6726 0.39002 0.0
C1739 C 0.26726 0.71105 0.36797 0.0
C1740 C 0.2762 0.72082 0.34449 0.0
C1741 C 0.25679 0.68225 0.3674 0.0
C1742 C 0.2745 0.7005 0.32096 0.0
C1743 C 0.26466 0.67222 0.32054 0.0
H1744 H 0.58126 0.72879 0.56537 0.0
H1745 H 0.50898 0.69187 0.51781 0.0
H1746 H 0.50978 0.6482 0.53267 0.0
H1747 H 0.53192 0.61957 0.55755 0.0
H1748 H 0.6042 0.6575 0.60507 0.0
H1749 H 0.60239 0.70113 0.59181 0.0
C1750 C 0.56556 0.7113 0.55836 0.0
C1751 C 0.54509 0.71389 0.54037 0.0
C1752 C 0.56619 0.68609 0.56688 0.0
C1753 C 0.52501 0.69074 0.53164 0.0
C1754 C 0.52548 0.66562 0.54009 0.0
C1755 C 0.54718 0.6374 0.56529 0.0
C1756 C 0.56819 0.63483 0.5824 0.0
C1757 C 0.5461 0.66289 0.55749 0.0
C1758 C 0.58777 0.65844 0.59189 0.0
C1759 C 0.5868 0.68361 0.58428 0.0
H1760 H 0.67051 0.28594 0.74897 0.0
H1761 H 0.69027 0.37329 0.75317 0.0
H1762 H 0.73043 0.3769 0.78026 0.0
H1763 H 0.75996 0.35519 0.80377 0.0
H1764 H 0.74146 0.26734 0.79536 0.0
H1765 H 0.70125 0.26387 0.76877 0.0
C1766 C 0.6836 0.30578 0.75598 0.0
C1767 C 0.67715 0.32943 0.74956 0.0
C1768 C 0.70707 0.30754 0.77064 0.0
C1769 C 0.69459 0.35485 0.75811 0.0
C1770 C 0.71762 0.35689 0.77355 0.0
C1771 C 0.74719 0.33526 0.79584 0.0
C1772 C 0.75382 0.31155 0.80175 0.0
C1773 C 0.7241 0.33339 0.78003 0.0
C1774 C 0.73703 0.28592 0.79111 0.0
C1775 C 0.7139 0.28394 0.77603 0.0
H1776 H 1.00769 0.36535 0.05829 0.0
H1777 H 0.07324 0.36861 0.02764 0.0
H1778 H 0.08672 0.4183 0.04356 0.0
H1779 H 0.07947 0.46145 0.06497 0.0
H1780 H 1.01268 0.4583 0.09279 0.0
H1781 H 1.00029 0.40845 0.07929 0.0
C1782 C 0.02505 0.37686 0.05533 0.0
C1783 C 0.03948 0.36295 0.04192 0.0
C1784 C 0.03247 0.40572 0.06394 0.0
C1785 C 0.06174 0.37852 0.03792 0.0
C1786 C 0.06946 0.40706 0.04701 0.0
C1787 C 0.06225 0.44989 0.06827 0.0
C1788 C 0.04713 0.46395 0.08009 0.0
C1789 C 0.05493 0.42099 0.05987 0.0
C1790 C 0.02476 0.44834 0.08377 0.0
C1791 C 1.01763 0.41968 0.07605 0.0
H1792 H 0.02365 0.77237 0.2429 0.0
H1793 H 0.03703 0.85782 0.23715 0.0
H1794 H 1.00045 0.85945 0.25503 0.0
H1795 H 0.96503 0.8366 0.27359 0.0
H1796 H 0.95084 0.7501 0.2755 0.0
H1797 H 0.98724 0.74904 0.25805 0.0
C1798 C 1.01863 0.79141 0.24562 0.0
C1799 C 0.03327 0.81503 0.23899 0.0
C1800 C 0.99734 0.79204 0.25533 0.0
C1801 C 0.02619 0.83937 0.24219 0.0
C1802 C 1.00524 0.84029 0.25242 0.0
C1803 C 0.96966 0.81741 0.26984 0.0
C1804 C 0.95517 0.79358 0.27655 0.0
C1805 C 0.99065 0.81673 0.25916 0.0
C1806 C 0.96179 0.769 0.27148 0.0
C1807 C 0.98262 0.76828 0.26125 0.0
H1808 H 0.60216 0.33175 0.18481 0.0
H1809 H 0.56811 0.36337 0.24905 0.0
H1810 H 0.56574 0.40208 0.22532 0.0
H1811 H 0.57006 0.42436 0.18409 0.0
H1812 H 0.60178 0.39094 0.11859 0.0
H1813 H 0.60852 0.35531 0.14522 0.0
C1814 C 0.59443 0.34724 0.19383 0.0
C1815 C 0.58513 0.34464 0.21849 0.0
C1816 C 0.59264 0.36894 0.17979 0.0
C1817 C 0.57523 0.36487 0.22994 0.0
C1818 C 0.57386 0.38696 0.2164 0.0
C1819 C 0.57888 0.40956 0.176 0.0
C1820 C 0.58547 0.41009 0.14956 0.0
C1821 C 0.58205 0.38884 0.19101 0.0
C1822 C 0.59651 0.39068 0.1389 0.0
C1823 C 0.60033 0.37039 0.15407 0.0
H1824 H 0.95904 0.35931 0.40575 0.0
H1825 H 0.96392 0.30124 0.33545 0.0
H1826 H 0.9203 0.28798 0.3201 0.0
H1827 H 0.88108 0.28989 0.32929 0.0
H1828 H 0.87567 0.34879 0.39815 0.0
H1829 H 0.91965 0.36415 0.4123 0.0
C1830 C 0.95063 0.34403 0.38683 0.0
C1831 C 0.96464 0.33092 0.37205 0.0
C1832 C 0.9256 0.33608 0.37851 0.0
C1833 C 0.95352 0.3115 0.34732 0.0
C1834 C 0.92859 0.30368 0.3387 0.0
C1835 C 0.8895 0.30592 0.34751 0.0
C1836 C 0.87536 0.31782 0.36311 0.0
C1837 C 0.91451 0.31518 0.35473 0.0
C1838 C 0.8864 0.3391 0.38621 0.0
C1839 C 0.91142 0.34799 0.3941 0.0
H1840 H 0.06719 0.72348 0.67699 0.0
H1841 H 0.03881 0.67297 0.73475 0.0
H1842 H 0.02715 0.63272 0.69731 0.0
H1843 H 0.02841 0.61163 0.65019 0.0
H1844 H 0.05897 0.6604 0.59269 0.0
H1845 H 0.0659 0.70216 0.62799 0.0
C1846 C 0.05815 0.70374 0.68132 0.0
C1847 C 0.05406 0.70119 0.70876 0.0
C1848 C 0.052 0.68057 0.65986 0.0
C1849 C 0.04233 0.67547 0.71395 0.0
C1850 C 0.03568 0.65246 0.69257 0.0
C1851 C 0.03659 0.63136 0.6453 0.0
C1852 C 0.04366 0.63303 0.61919 0.0
C1853 C 0.04102 0.65474 0.66579 0.0
C1854 C 0.05349 0.65875 0.61274 0.0
C1855 C 0.05757 0.68248 0.63297 0.0
H1856 H 0.59674 0.83846 0.85643 0.0
H1857 H 0.61836 0.82338 0.94055 0.0
H1858 H 0.65103 0.80697 0.92603 0.0
H1859 H 0.67257 0.79538 0.88916 0.0
H1860 H 0.65057 0.80905 0.80467 0.0
H1861 H 0.61873 0.82731 0.81953 0.0
C1862 C 0.60875 0.83184 0.87164 0.0
C1863 C 0.60515 0.83219 0.89952 0.0
C1864 C 0.62726 0.82194 0.86303 0.0
C1865 C 0.6207 0.82326 0.91893 0.0
C1866 C 0.63938 0.81384 0.91065 0.0
C1867 C 0.66093 0.80259 0.87409 0.0
C1868 C 0.66387 0.80094 0.84592 0.0
C1869 C 0.64268 0.81286 0.88272 0.0
C1870 C 0.64846 0.80992 0.82644 0.0
C1871 C 0.63037 0.82047 0.83495 0.0
H1872 H 0.52324 0.56254 0.75751 0.0
H1873 H 0.48231 0.48292 0.71078 0.0
H1874 H 0.50162 0.49151 0.67046 0.0
H1875 H 0.53005 0.52215 0.64832 0.0
H1876 H 0.56894 0.60298 0.69441 0.0
H1877 H 0.55045 0.5937 0.73482 0.0
C1878 C 0.51887 0.54701 0.7386 0.0
C1879 C 0.50187 0.52192 0.7372 0.0
C1880 C 0.52946 0.55249 0.71522 0.0
C1881 C 0.49572 0.50219 0.71237 0.0
C1882 C 0.50663 0.50718 0.6893 0.0
C1883 C 0.53429 0.53778 0.66713 0.0
C1884 C 0.55092 0.56321 0.66831 0.0
C1885 C 0.52344 0.53235 0.69038 0.0
C1886 C 0.55622 0.58325 0.69287 0.0
C1887 C 0.54573 0.57792 0.7161 0.0
H1888 H 0.81492 0.25834 0.10443 0.0
H1889 H 0.82894 0.18638 0.06155 0.0
H1890 H 0.80756 0.1927 0.01654 0.0
H1891 H 0.78938 0.22182 0.98908 0.0
H1892 H 0.7797 0.29639 0.0323 0.0
H1893 H 0.79346 0.28486 0.07766 0.0
C1894 C 0.81324 0.24393 0.08528 0.0
C1895 C 0.82398 0.22232 0.08613 0.0
C1896 C 0.80133 0.24791 0.05961 0.0
C1897 C 0.82117 0.20347 0.06128 0.0
C1898 C 0.80888 0.20701 0.03561 0.0
C1899 C 0.7901 0.23544 1.00844 0.0
C1900 C 0.78407 0.26024 1.00718 0.0
C1901 C 0.79955 0.22964 0.03446 0.0
C1902 C 0.78417 0.27713 0.03247 0.0
C1903 C 0.79245 0.2708 0.0585 0.0
H1904 H 0.11971 0.5573 0.28603 0.0
H1905 H 0.16153 0.50735 0.25213 0.0
H1906 H 0.14161 0.50761 0.20403 0.0
H1907 H 0.1113 0.52178 0.16982 0.0
H1908 H 0.06974 0.57141 0.20504 0.0
H1909 H 0.09026 0.57156 0.25262 0.0
C1910 C 0.12444 0.54616 0.26828 0.0
C1911 C 0.14237 0.53204 0.27378 0.0
C1912 C 0.11287 0.54657 0.23997 0.0
C1913 C 0.14794 0.5183 0.24955 0.0
C1914 C 0.13648 0.51854 0.22158 0.0
C1915 C 0.10698 0.53306 0.18779 0.0
C1916 C 0.08876 0.54698 0.18289 0.0
C1917 C 0.11888 0.53271 0.2162 0.0
C1918 C 0.08353 0.56068 0.20729 0.0
C1919 C 0.0953 0.56068 0.23495 0.0
H1920 H 0.85871 0.84852 0.52217 0.0
H1921 H 0.79628 0.87894 0.52112 0.0
H1922 H 0.78409 0.86304 0.46982 0.0
H1923 H 0.79208 0.84176 0.42464 0.0
H1924 H 0.85621 0.81427 0.42657 0.0
H1925 H 0.86669 0.8277 0.4778 0.0
C1926 C 0.84229 0.85146 0.51082 0.0
C1927 C 0.82837 0.86477 0.52562 0.0
C1928 C 0.83575 0.84292 0.48125 0.0
C1929 C 0.80733 0.86871 0.51035 0.0
C1930 C 0.80037 0.85965 0.48096 0.0
C1931 C 0.80828 0.83862 0.43631 0.0
C1932 C 0.82334 0.82705 0.42157 0.0
C1933 C 0.81456 0.84693 0.46607 0.0
C1934 C 0.84434 0.82331 0.43714 0.0
C1935 C 0.85037 0.83092 0.46656 0.0
H1936 H 0.50147 0.55936 0.90573 0.0
H1937 H 0.52753 0.48771 0.89399 0.0
H1938 H 0.54146 0.49342 0.94488 0.0
H1939 H 0.54536 0.51788 0.99307 0.0
H1940 H 0.52136 0.59088 1.00513 0.0
H1941 H 0.50752 0.58547 0.95404 0.0
C1942 C 0.51038 0.54513 0.9143 0.0
C1943 C 0.51335 0.5231 0.89594 0.0
C1944 C 0.51857 0.54863 0.94376 0.0
C1945 C 0.52502 0.50492 0.90749 0.0
C1946 C 0.53292 0.50807 0.93668 0.0
C1947 C 0.53701 0.53254 0.98452 0.0
C1948 C 0.53417 0.55457 1.00294 0.0
C1949 C 0.52957 0.52966 0.95506 0.0
C1950 C 0.52373 0.57368 0.99145 0.0
C1951 C 0.5158 0.57061 0.96221 0.0
H1952 H 0.88959 0.22596 0.24918 0.0
H1953 H 0.91436 0.28973 0.20271 0.0
H1954 H 0.89628 0.32 0.2299 0.0
H1955 H 0.86471 0.32345 0.2578 0.0
H1956 H 0.83272 0.25398 0.29276 0.0
H1957 H 0.86136 0.2305 0.27876 0.0
C1958 C 0.89179 0.24679 0.2455 0.0
C1959 C 0.90241 0.25514 0.22311 0.0
C1960 C 0.87861 0.26247 0.25814 0.0
C1961 C 0.90581 0.28256 0.21949 0.0
C1962 C 0.89491 0.29962 0.2345 0.0
C1963 C 0.86398 0.30306 0.2621 0.0
C1964 C 0.84618 0.29005 0.27586 0.0
C1965 C 0.87963 0.28892 0.25216 0.0
C1966 C 0.84552 0.26386 0.28147 0.0
C1967 C 0.86215 0.25061 0.27376 0.0
H1968 H 0.10676 0.57974 0.42947 0.0
H1969 H 0.15896 0.54016 0.46357 0.0
H1970 H 0.14356 0.54061 0.50741 0.0
H1971 H 0.11458 0.55166 0.53767 0.0
H1972 H 0.06021 0.58762 0.50188 0.0
H1973 H 0.07678 0.58907 0.45889 0.0
C1974 C 0.11492 0.57116 0.44637 0.0
C1975 C 0.13458 0.55999 0.44215 0.0
C1976 C 0.10538 0.57087 0.47215 0.0
C1977 C 0.1441 0.54894 0.46514 0.0
C1978 C 0.13518 0.54923 0.4907 0.0
C1979 C 0.10637 0.56013 0.52069 0.0
C1980 C 0.08592 0.57 0.52425 0.0
C1981 C 0.11576 0.56013 0.49478 0.0
C1982 C 0.0758 0.58004 0.50083 0.0
C1983 C 0.08539 0.58084 0.47578 0.0
H1984 H 0.83059 0.83682 0.66427 0.0
H1985 H 0.84242 0.91634 0.71529 0.0
H1986 H 0.83481 0.89521 0.75604 0.0
H1987 H 0.82328 0.8541 0.77742 0.0
H1988 H 0.80941 0.77431 0.72643 0.0
H1989 H 0.81944 0.7954 0.68604 0.0
C1990 C 0.83164 0.84954 0.68433 0.0
C1991 C 0.83708 0.87829 0.68637 0.0
C1992 C 0.82684 0.83714 0.70795 0.0
C1993 C 0.83818 0.89424 0.71272 0.0
C1994 C 0.83385 0.88215 0.73623 0.0
C1995 C 0.82268 0.84131 0.75756 0.0
C1996 C 0.81565 0.81257 0.7551 0.0
C1997 C 0.82797 0.85362 0.73412 0.0
C1998 C 0.81477 0.79643 0.72902 0.0
C1999 C 0.82047 0.80852 0.70583 0.0
H2000 H 0.69864 0.42679 0.55269 0.0
H2001 H 0.74393 0.47867 0.50871 0.0
H2002 H 0.73393 0.51883 0.53154 0.0
H2003 H 0.71541 0.53926 0.56741 0.0
H2004 H 0.67248 0.48736 0.61379 0.0
H2005 H 0.67933 0.447 0.58759 0.0
C2006 C 0.70564 0.44682 0.54752 0.0
C2007 C 0.72147 0.45006 0.5288 0.0
C2008 C 0.70105 0.46976 0.562 0.0
C2009 C 0.7313 0.47599 0.52279 0.0
C2010 C 0.72587 0.49885 0.5361 0.0
C2011 C 0.70754 0.51909 0.57169 0.0
C2012 C 0.69365 0.51621 0.5926 0.0
C2013 C 0.71138 0.49604 0.55639 0.0
C2014 C 0.68368 0.49005 0.59818 0.0
C2015 C 0.68727 0.46697 0.58294 0.0
H2016 H 0.19005 0.15597 0.55654 0.0
H2017 H 0.22532 0.09142 0.55031 0.0
H2018 H 0.18931 0.05885 0.55678 0.0
H2019 H 0.14818 0.04844 0.5657 0.0
H2020 H 0.11247 0.11229 0.57347 0.0
H2021 H 0.14799 0.14516 0.56522 0.0
C2022 C 0.18974 0.1347 0.55618 0.0
C2023 C 0.21058 0.1263 0.55265 0.0
C2024 C 0.16887 0.1159 0.56062 0.0
C2025 C 0.20976 0.09864 0.55284 0.0
C2026 C 0.1891 0.07992 0.55666 0.0
C2027 C 0.14812 0.06958 0.56566 0.0
C2028 C 0.12757 0.07782 0.57045 0.0
C2029 C 0.16866 0.08832 0.5609 0.0
C2030 C 0.12797 0.10533 0.57018 0.0
C2031 C 0.14833 0.12413 0.56529 0.0
H2032 H 0.19827 1.00135 0.87689 0.0
H2033 H 0.21024 0.02221 0.79634 0.0
H2034 H 0.23081 0.98681 0.78953 0.0
H2035 H 0.24722 0.95159 0.80712 0.0
H2036 H 0.23741 0.93113 0.88823 0.0
H2037 H 0.21418 0.96461 0.89418 0.0
C2038 C 0.20522 0.99794 0.85779 0.0
C2039 C 0.20277 1.01447 0.83722 0.0
C2040 C 0.21747 0.97768 0.85412 0.0
C2041 C 0.21199 1.00993 0.81262 0.0
C2042 C 0.22375 0.98965 0.80864 0.0
C2043 C 0.23964 0.95412 0.82589 0.0
C2044 C 0.2438 0.9388 0.84709 0.0
C2045 C 0.22682 0.97363 0.82934 0.0
C2046 C 0.2344 0.94275 0.87163 0.0
C2047 C 0.22114 0.96186 0.87501 0.0
H2048 H 0.29719 0.94632 0.03316 0.0
H2049 H 0.31468 0.86946 0.01605 0.0
H2050 H 0.35705 0.89395 0.02158 0.0
H2051 H 0.38892 0.93712 0.0302 0.0
H2052 H 0.37147 1.01394 0.04679 0.0
H2053 H 0.32922 0.98944 0.043 0.0
C2054 C 0.31024 0.93488 0.03062 0.0
C2055 C 0.30272 0.90608 0.02402 0.0
C2056 C 0.33456 0.94906 0.03387 0.0
C2057 C 0.31994 0.89162 0.02104 0.0
C2058 C 0.34418 0.9056 0.02421 0.0
C2059 C 0.37583 0.94849 0.03292 0.0
C2060 C 0.38322 0.97728 0.03857 0.0
C2061 C 0.35164 0.9343 0.03044 0.0
C2062 C 0.36622 0.99176 0.0426 0.0
C2063 C 0.34206 0.97778 0.04024 0.0
H2064 H 0.84458 0.63057 0.79043 0.0
H2065 H 0.91263 0.67064 0.84662 0.0
H2066 H 0.90078 0.71327 0.85332 0.0
H2067 H 0.87081 0.74098 0.84386 0.0
H2068 H 0.80162 0.69979 0.79049 0.0
H2069 H 0.814 0.65767 0.78262 0.0
C2070 C 0.857 0.6485 0.80421 0.0
C2071 C 0.87999 0.64625 0.81778 0.0
C2072 C 0.84968 0.67369 0.8087 0.0
C2073 C 0.89502 0.67061 0.83564 0.0
C2074 C 0.88814 0.69549 0.83954 0.0
C2075 C 0.85828 0.72293 0.8304 0.0
C2076 C 0.83487 0.72481 0.81776 0.0
C2077 C 0.86547 0.69762 0.82628 0.0
C2078 C 0.81954 0.70014 0.80077 0.0
C2079 C 0.82674 0.67555 0.79614 0.0
H2080 H 0.84196 0.61849 0.10869 0.0
H2081 H 0.84751 0.64415 0.02866 0.0
H2082 H 0.88373 0.62843 0.02805 0.0
H2083 H 0.91483 0.60823 0.05105 0.0
H2084 H 0.90916 0.58407 0.13177 0.0
H2085 H 0.87239 0.5983 0.13123 0.0
C2086 C 0.85095 0.62053 0.09097 0.0
C2087 C 0.84176 0.63247 0.06869 0.0
C2088 C 0.87204 0.61178 0.09095 0.0
C2089 C 0.85398 0.63504 0.0461 0.0
C2090 C 0.8748 0.62605 0.04576 0.0
C2091 C 0.90547 0.60596 0.06843 0.0
C2092 C 0.9151 0.59524 0.09157 0.0
C2093 C 0.88415 0.6145 0.06816 0.0
C2094 C 0.9026 0.59263 0.11391 0.0
C2095 C 0.8814 0.60065 0.11358 0.0
H2096 H 0.19782 0.1712 0.83581 0.0
H2097 H 0.24035 0.15086 0.90614 0.0
H2098 H 0.27527 0.18804 0.90361 0.0
H2099 H 0.29422 0.22467 0.87909 0.0
H2100 H 0.25235 0.23946 0.80446 0.0
H2101 H 0.21673 0.20636 0.8108 0.0
C2102 C 0.21463 0.17538 0.85092 0.0
C2103 C 0.21654 0.15897 0.87154 0.0
C2104 C 0.23479 0.19567 0.84831 0.0
C2105 C 0.23852 0.16373 0.89044 0.0
C2106 C 0.25846 0.18479 0.88882 0.0
C2107 C 0.27724 0.22064 0.86435 0.0
C2108 C 0.27569 0.23516 0.84187 0.0
C2109 C 0.25694 0.2006 0.86748 0.0
C2110 C 0.25375 0.2294 0.82258 0.0
C2111 C 0.23341 0.21022 0.826 0.0
H2112 H 0.40499 0.98185 0.35378 0.0
H2113 H 0.35099 0.99658 0.29119 0.0
H2114 H 0.32615 0.94935 0.28718 0.0
H2115 H 0.31961 0.90227 0.30096 0.0
H2116 H 0.37326 0.88981 0.36569 0.0
H2117 H 0.39782 0.9367 0.36901 0.0
C2118 C 0.38771 0.97503 0.3393 0.0
C2119 C 0.38027 0.99369 0.32286 0.0
C2120 C 0.37324 0.94754 0.33725 0.0
C2121 C 0.35755 0.98353 0.30442 0.0
C2122 C 0.34326 0.95614 0.30198 0.0
C2123 C 0.33673 0.90973 0.31571 0.0
C2124 C 0.34448 0.89168 0.33284 0.0
C2125 C 0.35088 0.93767 0.31812 0.0
C2126 C 0.36665 0.90255 0.35206 0.0
C2127 C 0.38081 0.92966 0.35403 0.0
H2128 H 0.57595 0.39346 0.65557 0.0
H2129 H 0.64624 0.40542 0.63498 0.0
H2130 H 0.64313 0.44763 0.6185 0.0
H2131 H 0.62071 0.48259 0.61045 0.0
H2132 H 0.5491 0.46816 0.62773 0.0
H2133 H 0.55261 0.42645 0.64479 0.0
C2134 C 0.59063 0.40528 0.6475 0.0
C2135 C 0.61141 0.39599 0.64684 0.0
C2136 C 0.58856 0.42961 0.63741 0.0
C2137 C 0.63001 0.41175 0.6359 0.0
C2138 C 0.62829 0.43615 0.62649 0.0
C2139 C 0.60584 0.47029 0.61786 0.0
C2140 C 0.58462 0.47892 0.61765 0.0
C2141 C 0.60771 0.44551 0.62721 0.0
C2142 C 0.56561 0.46229 0.62729 0.0
C2143 C 0.56761 0.43829 0.63724 0.0
H2144 H 0.45508 0.83227 0.42431 0.0
H2145 H 0.44504 0.74504 0.41244 0.0
H2146 H 0.40325 0.73735 0.38823 0.0
H2147 H 0.36961 0.75549 0.36908 0.0
H2148 H 0.37869 0.84257 0.38447 0.0
H2149 H 0.42041 0.85022 0.4088 0.0
C2150 C 0.44375 0.81157 0.41637 0.0
C2151 C 0.4534 0.78925 0.41985 0.0
C2152 C 0.41941 0.80728 0.4032 0.0
C2153 C 0.43823 0.76259 0.40994 0.0
C2154 C 0.41427 0.75818 0.39609 0.0
C2155 C 0.38066 0.77612 0.37805 0.0
C2156 C 0.37096 0.79842 0.37479 0.0
C2157 C 0.40465 0.78036 0.39245 0.0
C2158 C 0.38555 0.82501 0.3867 0.0
C2159 C 0.40952 0.82941 0.40049 0.0
H2160 H 0.1201 0.73986 0.13862 0.0
H2161 H 0.04581 0.73428 0.1408 0.0
H2162 H 0.0353 0.68459 0.12672 0.0
H2163 H 0.04741 0.64214 0.11754 0.0
H2164 H 0.12178 0.64668 0.11645 0.0
H2165 H 0.13193 0.69676 0.12636 0.0
C2166 C 0.10152 0.72781 0.13516 0.0
C2167 C 0.0837 0.74106 0.14032 0.0
C2168 C 0.09563 0.69878 0.12785 0.0
C2169 C 0.05983 0.72485 0.1366 0.0
C2170 C 0.05383 0.6963 0.1288 0.0
C2171 C 0.06588 0.65397 0.11936 0.0
C2172 C 0.08378 0.64024 0.11641 0.0
C2173 C 0.07163 0.68292 0.12505 0.0
C2174 C 0.10753 0.65634 0.11867 0.0
C2175 C 0.11338 0.68515 0.12433 0.0
H2176 H 0.07855 0.24307 0.90229 0.0
H2177 H 0.09836 0.3222 0.95643 0.0
H2178 H 0.13648 0.3344 0.94036 0.0
H2179 H 0.16462 0.32254 0.91104 0.0
H2180 H 0.14471 0.24299 0.85753 0.0
H2181 H 0.10669 0.23109 0.87347 0.0
C2182 C 0.09113 0.26305 0.91053 0.0
C2183 C 0.08535 0.2817 0.93052 0.0
C2184 C 0.11327 0.26985 0.90143 0.0
C2185 C 0.10215 0.30739 0.94104 0.0
C2186 C 0.12404 0.3144 0.93185 0.0
C2187 C 0.15196 0.30263 0.90275 0.0
C2188 C 0.15786 0.28371 0.8831 0.0
C2189 C 0.12987 0.2958 0.91205 0.0
C2190 C 0.1411 0.2579 0.87297 0.0
C2191 C 0.11915 0.2511 0.88193 0.0
H2192 H 0.53024 0.80615 0.02177 0.0
H2193 H 0.50019 0.7516 0.94177 0.0
H2194 H 0.49072 0.71266 0.96628 0.0
H2195 H 0.49982 0.6939 1.00945 0.0
H2196 H 0.53376 0.74921 0.08845 0.0
H2197 H 0.53162 0.78813 0.06568 0.0
C2198 C 0.52107 0.78579 1.0098 0.0
C2199 C 0.51652 0.78135 0.98018 0.0
C2200 C 0.51639 0.76368 0.02393 0.0
C2201 C 0.50409 0.75523 0.96468 0.0
C2202 C 0.49883 0.73303 0.97867 0.0
C2203 C 0.50621 0.71447 0.02177 0.0
C2204 C 0.51765 0.7187 0.05034 0.0
C2205 C 0.50624 0.73689 1.00817 0.0
C2206 C 0.52504 0.74532 0.06638 0.0
C2207 C 0.52415 0.76768 0.05328 0.0
H2208 H 0.15534 0.74728 0.76341 0.0
H2209 H 0.16521 0.80074 0.84299 0.0
H2210 H 0.20908 0.81177 0.84733 0.0
H2211 H 0.24385 0.80957 0.82577 0.0
H2212 H 0.23388 0.755 0.74657 0.0
H2213 H 0.19044 0.74114 0.74446 0.0
C2214 C 0.16722 0.76071 0.78208 0.0
C2215 C 0.15738 0.77306 0.80302 0.0
C2216 C 0.19215 0.76719 0.78405 0.0
C2217 C 0.17261 0.79071 0.82697 0.0
C2218 C 0.19758 0.79725 0.82919 0.0
C2219 C 0.23222 0.79456 0.80806 0.0
C2220 C 0.242 0.78362 0.78606 0.0
C2221 C 0.20744 0.78625 0.80739 0.0
C2222 C 0.22673 0.76391 0.76354 0.0
C2223 C 0.20195 0.7559 0.76242 0.0
H2224 H 0.07058 0.42858 0.50569 0.0
H2225 H 0.99455 0.39584 0.50168 0.0
H2226 H 0.99579 0.43173 0.54059 0.0
H2227 H 1.01815 0.47385 0.57432 0.0
H2228 H 0.09411 0.50637 0.57885 0.0
H2229 H 0.09348 0.46887 0.54168 0.0
C2230 C 0.05434 0.42939 0.51337 0.0
C2231 C 0.03251 0.40987 0.50074 0.0
C2232 C 0.05524 0.44981 0.53606 0.0
C2233 C 1.01159 0.41077 0.51109 0.0
C2234 C 1.01226 0.43123 0.53334 0.0
C2235 C 0.03455 0.47228 0.56743 0.0
C2236 C 0.05615 0.49234 0.5792 0.0
C2237 C 0.03394 0.45095 0.54586 0.0
C2238 C 0.0774 0.49059 0.57023 0.0
C2239 C 0.07698 0.46941 0.54881 0.0
H2240 H 0.50683 0.2529 0.33028 0.0
H2241 H 0.54952 0.3279 0.31246 0.0
H2242 H 0.52178 0.35239 0.32831 0.0
H2243 H 0.4839 0.35167 0.34355 0.0
H2244 H 0.43867 0.27532 0.3557 0.0
H2245 H 0.4693 0.25252 0.34688 0.0
C2246 C 0.51021 0.27468 0.33027 0.0
C2247 C 0.5301 0.28859 0.32019 0.0
C2248 C 0.49375 0.28843 0.3385 0.0
C2249 C 0.5342 0.31675 0.31999 0.0
C2250 C 0.51837 0.33075 0.32906 0.0
C2251 C 0.48065 0.33003 0.34423 0.0
C2252 C 0.45883 0.31533 0.35011 0.0
C2253 C 0.4978 0.31665 0.33771 0.0
C2254 C 0.45534 0.28741 0.35164 0.0
C2255 C 0.47276 0.27419 0.34624 0.0
H2256 H 0.62617 0.54739 0.43923 0.0
H2257 H 0.61447 0.62763 0.45185 0.0
H2258 H 0.6031 0.6206 0.49689 0.0
H2259 H 0.59501 0.59128 0.53221 0.0
H2260 H 0.603 0.50952 0.5183 0.0
H2261 H 0.61753 0.51756 0.47474 0.0
C2262 C 0.62119 0.56334 0.45189 0.0
C2263 C 0.6212 0.58803 0.442 0.0
C2264 C 0.6141 0.55893 0.47773 0.0
C2265 C 0.61452 0.60837 0.45869 0.0
C2266 C 0.60808 0.60442 0.48459 0.0
C2267 C 0.60027 0.57534 0.51985 0.0
C2268 C 0.59823 0.54992 0.52868 0.0
C2269 C 0.60767 0.57976 0.49429 0.0
C2270 C 0.60459 0.52931 0.51207 0.0
C2271 C 0.61279 0.53389 0.48709 0.0
H2272 H 0.21526 0.85095 0.10349 0.0
H2273 H 0.21984 0.78062 0.04737 0.0
H2274 H 0.23545 0.76223 0.08779 0.0
H2275 H 0.25615 0.77168 0.13719 0.0
H2276 H 0.2523 0.84245 0.19345 0.0
H2277 H 0.22869 0.8556 0.15448 0.0
C2278 C 0.219 0.83119 0.10016 0.0
C2279 C 0.21719 0.81761 0.07255 0.0
C2280 C 0.22896 0.82138 0.12334 0.0
C2281 C 0.22143 0.79169 0.06845 0.0
C2282 C 0.23067 0.78133 0.09154 0.0
C2283 C 0.24959 0.78953 0.14127 0.0
C2284 C 0.25659 0.80642 0.16811 0.0
C2285 C 0.2359 0.7969 0.11885 0.0
C2286 C 0.24794 0.82958 0.17278 0.0
C2287 C 0.2342 0.83697 0.15059 0.0
H2288 H 0.98434 0.57743 0.94551 0.0
H2289 H 1.01308 0.52136 0.89672 0.0
H2290 H 0.03722 0.51548 0.93995 0.0
H2291 H 0.05075 0.52556 0.99219 0.0
H2292 H 0.02201 0.58053 0.04218 0.0
H2293 H 0.99775 0.58715 0.99883 0.0
C2294 C 0.99597 0.56402 0.94421 0.0
C2295 C 0.99662 0.55003 0.91702 0.0
C2296 C 1.00998 0.5603 0.96983 0.0
C2297 C 1.01187 0.53258 0.91665 0.0
C2298 C 0.02582 0.52912 0.94166 0.0
C2299 C 0.03917 0.53901 0.99379 0.0
C2300 C 0.03856 0.55251 0.02107 0.0
C2301 C 0.02508 0.54273 0.96846 0.0
C2302 C 0.02316 0.56975 0.02198 0.0
C2303 C 1.0092 0.5736 0.99693 0.0
H2304 H 0.26236 0.24481 0.63529 0.0
H2305 H 0.33274 0.23121 0.64476 0.0
H2306 H 0.34196 0.25237 0.69466 0.0
H2307 H 0.32911 0.27149 0.73654 0.0
H2308 H 0.2578 0.28258 0.72842 0.0
H2309 H 0.24993 0.26575 0.67745 0.0
C2310 C 0.27988 0.24705 0.64817 0.0
C2311 C 0.29693 0.23665 0.63616 0.0
C2312 C 0.2848 0.25845 0.67733 0.0
C2313 C 0.31935 0.23914 0.65337 0.0
C2314 C 0.3246 0.25114 0.68199 0.0
C2315 C 0.31188 0.2705 0.72368 0.0
C2316 C 0.29408 0.27832 0.73658 0.0
C2317 C 0.3073 0.26033 0.69437 0.0
C2318 C 0.27186 0.27665 0.7193 0.0
C2319 C 0.26733 0.26702 0.69004 0.0
H2320 H 0.60744 0.60872 0.28207 0.0
H2321 H 0.61165 0.52553 0.27667 0.0
H2322 H 0.59618 0.51658 0.22559 0.0
H2323 H 0.5844 0.53344 0.18183 0.0
H2324 H 0.58301 0.61778 0.18708 0.0
H2325 H 0.59455 0.62521 0.2384 0.0
C2326 C 0.60435 0.58847 0.26977 0.0
C2327 C 0.6103 0.56769 0.2832 0.0
C2328 C 0.59644 0.58381 0.24016 0.0
C2329 C 0.60691 0.54175 0.26686 0.0
C2330 C 0.59827 0.5367 0.2376 0.0
C2331 C 0.58656 0.55343 0.19415 0.0
C2332 C 0.58297 0.57501 0.18032 0.0
C2333 C 0.5935 0.55776 0.22388 0.0
C2334 C 0.58586 0.60077 0.19688 0.0
C2335 C 0.59236 0.60507 0.22639 0.0
H2336 H 0.26908 0.85177 0.93554 0.0
H2337 H 0.20907 0.77953 0.91176 0.0
H2338 H 0.22731 0.76162 0.87397 0.0
H2339 H 0.26254 0.76465 0.85171 0.0
H2340 H 0.32487 0.83415 0.88071 0.0
H2341 H 0.30379 0.85516 0.91296 0.0
C2342 C 0.25969 0.83256 0.92132 0.0
C2343 C 0.23761 0.8172 0.92555 0.0
C2344 C 0.27107 0.82171 0.90134 0.0
C2345 C 0.22582 0.79186 0.9081 0.0
C2346 C 0.23646 0.78148 0.88698 0.0
C2347 C 0.27151 0.78431 0.86525 0.0
C2348 C 0.29501 0.79824 0.86363 0.0
C2349 C 0.25949 0.7958 0.88417 0.0
C2350 C 0.30652 0.82358 0.88119 0.0
C2351 C 0.29452 0.83549 0.89961 0.0
H2352 H 0.99693 0.5578 0.77003 0.0
H2353 H 0.93361 0.57562 0.72758 0.0
H2354 H 0.94825 0.57271 0.68331 0.0
H2355 H 0.97948 0.56516 0.65485 0.0
H2356 H 0.04359 0.54972 0.69829 0.0
H2357 H 0.02841 0.55152 0.74215 0.0
C2358 C 0.98619 0.5612 0.75125 0.0
C2359 C 0.96374 0.56705 0.75331 0.0
C2360 C 0.99499 0.55971 0.72506 0.0
C2361 C 0.95079 0.57123 0.7278 0.0
C2362 C 0.95924 0.56945 0.70197 0.0
C2363 C 0.99013 0.56183 0.67373 0.0
C2364 C 1.01296 0.55678 0.67212 0.0
C2365 C 0.98134 0.56359 0.7 0.0
C2366 C 0.02611 0.55338 0.69783 0.0
C2367 C 1.01735 0.5545 0.72339 0.0
H2368 H 0.2522 0.23581 0.45959 0.0
H2369 H 0.32366 0.23655 0.49954 0.0
H2370 H 0.34043 0.26035 0.46395 0.0
H2371 H 0.33523 0.28215 0.42179 0.0
H2372 H 0.26385 0.27741 0.37857 0.0
H2373 H 0.24673 0.25413 0.41451 0.0
C2374 C 0.27144 0.2411 0.46044 0.0
C2375 C 0.28661 0.23445 0.4826 0.0
C2376 C 0.28103 0.25418 0.43913 0.0
C2377 C 0.31147 0.24125 0.48293 0.0
C2378 C 0.32113 0.25499 0.46252 0.0
C2379 C 0.3159 0.2759 0.42013 0.0
C2380 C 0.30087 0.28182 0.39741 0.0
C2381 C 0.30616 0.26173 0.44058 0.0
C2382 C 0.27586 0.27319 0.39559 0.0
C2383 C 0.26607 0.2599 0.41633 0.0
H2384 H 0.40923 0.6596 0.58148 0.0
H2385 H 0.37688 0.59315 0.62088 0.0
H2386 H 0.39008 0.56113 0.58963 0.0
H2387 H 0.41731 0.55408 0.55844 0.0
H2388 H 0.45551 0.62161 0.52479 0.0
H2389 H 0.43298 0.65098 0.54526 0.0
C2390 C 0.40478 0.63801 0.58272 0.0
C2391 C 0.39256 0.62864 0.6036 0.0
C2392 C 0.41344 0.61995 0.56557 0.0
C2393 C 0.38675 0.60074 0.60523 0.0
C2394 C 0.39416 0.58244 0.58731 0.0
C2395 C 0.41981 0.57486 0.55448 0.0
C2396 C 0.43781 0.58574 0.54013 0.0
C2397 C 0.40839 0.59204 0.5683 0.0
C2398 C 0.44145 0.61285 0.53558 0.0
C2399 C 0.42891 0.62972 0.54772 0.0
H2400 H 0.9248 0.94247 0.58448 0.0
H2401 H 0.91495 1.00295 0.64873 0.0
H2402 H 0.9545 0.03282 0.64876 0.0
H2403 H 0.99183 0.04237 0.63043 0.0
H2404 H 1.00112 0.9841 0.5637 0.0
H2405 H 0.96219 0.95285 0.56491 0.0
C2406 C 0.93133 0.96216 0.59855 0.0
C2407 C 0.91672 0.97028 0.61668 0.0
C2408 C 0.95413 0.97968 0.59807 0.0
C2409 C 0.92555 0.99606 0.6345 0.0
C2410 C 0.94828 1.0132 0.63458 0.0
C2411 C 0.98544 0.02278 0.61617 0.0
C2412 C 0.99969 1.01553 0.59723 0.0
C2413 C 0.96272 1.0053 0.61644 0.0
C2414 C 0.99082 0.99015 0.57875 0.0
C2415 C 0.96844 0.9723 0.57937 0.0
H2416 H 0.88191 0.06173 0.25066 0.0
H2417 H 0.93621 0.09671 0.32654 0.0
H2418 H 0.91842 0.13469 0.33538 0.0
H2419 H 0.8869 0.15729 0.32203 0.0
H2420 H 0.83137 0.12036 0.24749 0.0
H2421 H 0.85069 0.0843 0.23727 0.0
C2422 C 0.88994 0.07769 0.26911 0.0
C2423 C 0.91031 0.07633 0.28796 0.0
C2424 C 0.87951 0.09926 0.27419 0.0
C2425 C 0.92046 0.0972 0.31175 0.0
C2426 C 0.91032 0.11894 0.31679 0.0
C2427 C 0.87889 0.14127 0.30365 0.0
C2428 C 0.85763 0.14168 0.28563 0.0
C2429 C 0.88972 0.12005 0.29826 0.0
C2430 C 0.84789 0.12098 0.26155 0.0
C2431 C 0.8588 0.10011 0.25581 0.0
H2432 H 0.79798 0.12555 0.16761 0.0
H2433 H 0.79605 0.20654 0.20328 0.0
H2434 H 0.75251 0.19022 0.1988 0.0
H2435 H 0.71473 0.15418 0.1801 0.0
H2436 H 0.71656 0.07391 0.14221 0.0
H2437 H 0.76053 0.08871 0.15227 0.0
C2438 C 0.78813 0.13952 0.17496 0.0
C2439 C 0.80016 0.16727 0.18547 0.0
C2440 C 0.76307 0.13023 0.17147 0.0
C2441 C 0.78714 0.18512 0.19489 0.0
C2442 C 0.76225 0.17585 0.19219 0.0
C2443 C 0.7248 0.13997 0.17401 0.0
C2444 C 0.7125 0.11314 0.16008 0.0
C2445 C 0.74997 0.1487 0.1796 0.0
C2446 C 0.72568 0.09468 0.15293 0.0
C2447 C 0.75078 0.10314 0.15862 0.0
H2448 H 0.21864 0.43427 0.34943 0.0
H2449 H 0.27279 0.48815 0.31731 0.0
H2450 H 0.29507 0.45355 0.31463 0.0
H2451 H 0.30013 0.40657 0.32075 0.0
H2452 H 0.24401 0.35128 0.34857 0.0
H2453 H 0.22264 0.38654 0.35325 0.0
C2454 C 0.23534 0.43875 0.34187 0.0
C2455 C 0.24357 0.46508 0.33388 0.0
C2456 C 0.24824 0.41777 0.33949 0.0
C2457 C 0.26538 0.46895 0.32382 0.0
C2458 C 0.27841 0.44878 0.32226 0.0
C2459 C 0.28331 0.40203 0.32805 0.0
C2460 C 0.27436 0.37518 0.33457 0.0
C2461 C 0.27022 0.42288 0.32999 0.0
C2462 C 0.25198 0.37089 0.34334 0.0
C2463 C 0.23952 0.39149 0.3461 0.0
H2464 H 0.29868 0.50634 0.13712 0.0
H2465 H 0.26713 0.43441 0.0725 0.0
H2466 H 0.22957 0.44763 0.06372 0.0
H2467 H 0.20529 0.47992 0.07448 0.0
H2468 H 0.23779 0.55221 0.13845 0.0
H2469 H 0.27498 0.5386 0.14729 0.0
C2470 C 0.28364 0.49355 0.12103 0.0
C2471 C 0.28592 0.46935 0.10553 0.0
C2472 C 0.26204 0.50136 0.11597 0.0
C2473 C 0.26609 0.45317 0.08474 0.0
C2474 C 0.24449 0.4607 0.07975 0.0
C2475 C 0.22047 0.49257 0.09046 0.0
C2476 C 0.21861 0.51717 0.10569 0.0
C2477 C 0.24217 0.48474 0.09529 0.0
C2478 C 0.23866 0.53338 0.12615 0.0
C2479 C 0.26 0.52556 0.1313 0.0
H2480 H 0.88101 0.93725 0.26703 0.0
H2481 H 0.93378 0.93453 0.33866 0.0
H2482 H 0.90468 0.89678 0.35073 0.0
H2483 H 0.86299 0.86696 0.34306 0.0
H2484 H 0.81107 0.86907 0.27038 0.0
H2485 H 0.84087 0.90498 0.25704 0.0
C2486 C 0.88629 0.92826 0.28514 0.0
C2487 C 0.90957 0.93895 0.30199 0.0
C2488 C 0.86945 0.90664 0.29204 0.0
C2489 C 0.91604 0.92678 0.32525 0.0
C2490 C 0.89933 0.90527 0.33229 0.0
C2491 C 0.8584 0.87483 0.32396 0.0
C2492 C 0.83486 0.86519 0.30765 0.0
C2493 C 0.87582 0.89535 0.31615 0.0
C2494 C 0.82902 0.87616 0.28337 0.0
C2495 C 0.84608 0.89668 0.27566 0.0
H2496 H 0.74763 0.11158 0.82551 0.0
H2497 H 0.72436 0.13089 0.90337 0.0
H2498 H 0.7444 0.17943 0.90663 0.0
H2499 H 0.76765 0.21816 0.88664 0.0
H2500 H 0.78897 0.19881 0.8074 0.0
H2501 H 0.77107 0.15017 0.80574 0.0
C2502 C 0.74726 0.12622 0.84354 0.0
C2503 C 0.73445 0.11656 0.86446 0.0
C2504 C 0.75849 0.15496 0.84498 0.0
C2505 C 0.73401 0.13683 0.88699 0.0
C2506 C 0.7455 0.165 0.88883 0.0
C2507 C 0.76854 0.20342 0.86898 0.0
C2508 C 0.78006 0.21318 0.84714 0.0
C2509 C 0.75765 0.17462 0.86783 0.0
C2510 C 0.78048 0.19287 0.82463 0.0
C2511 C 0.77013 0.16459 0.82363 0.0
loop_
_geom_bond_atom_site_label_1
_geom_bond_atom_site_label_2
_geom_bond_distance
_geom_bond_site_symmetry_2
_ccdc_geom_bond_type
O0 Cd1 2.223 1_655 S
O0 C8 1.315 . S
Cd1 O0 2.223 1_455 S
Cd1 O4 2.297 . S
Cd1 O5 2.439 . S
Cd1 O11 2.240 1_455 S
Cd2 O3 2.240 1_655 S
Cd2 O10 2.223 . S
Cd2 O12 2.297 . S
Cd2 O13 2.439 1_655 S
O3 Cd2 2.240 1_455 S
O3 C8 1.279 1_455 S
O4 Cd1 2.297 . S
O4 C6 1.247 . S
O5 Cd1 2.439 . S
O5 C6 1.208 . S
C6 O4 1.247 . S
C6 O5 1.208 . S
C7 O12 1.247 1_455 S
C7 O13 1.208 . S
C8 O0 1.315 . S
C8 O3 1.279 1_655 S
C9 O10 1.315 . S
C9 O11 1.279 . S
O10 Cd2 2.223 . S
O10 C9 1.315 . S
O11 Cd1 2.240 1_655 S
O11 C9 1.279 . S
O12 Cd2 2.297 . S
O12 C7 1.247 1_655 S
O13 Cd2 2.439 1_455 S
O13 C7 1.208 . S
O14 Cd15 2.223 . S
O14 C22 1.315 . S
Cd15 O14 2.223 . S
Cd15 O18 2.297 . S
Cd15 O19 2.439 . S
Cd15 O25 2.240 . S
Cd16 O17 2.240 . S
Cd16 O24 2.223 . S
Cd16 O26 2.297 . S
Cd16 O27 2.439 . S
O17 Cd16 2.240 . S
O17 C22 1.279 . S
O18 Cd15 2.297 . S
O18 C20 1.247 . S
O19 Cd15 2.439 . S
O19 C20 1.208 . S
C20 O18 1.247 . S
C20 O19 1.208 . S
C21 O26 1.247 . S
C21 O27 1.208 . S
C22 O14 1.315 . S
C22 O17 1.279 . S
C23 O24 1.315 . S
C23 O25 1.279 . S
O24 Cd16 2.223 . S
O24 C23 1.315 . S
O25 Cd15 2.240 . S
O25 C23 1.279 . S
O26 Cd16 2.297 . S
O26 C21 1.247 . S
O27 Cd16 2.439 . S
O27 C21 1.208 . S
O28 Cd29 2.223 . S
O28 C36 1.315 . S
Cd29 O28 2.223 . S
Cd29 O32 2.297 . S
Cd29 O33 2.439 . S
Cd29 O39 2.240 . S
Cd30 O31 2.240 . S
Cd30 O38 2.223 . S
Cd30 O40 2.297 . S
Cd30 O41 2.439 . S
O31 Cd30 2.240 . S
O31 C36 1.279 . S
O32 Cd29 2.297 . S
O32 C34 1.247 . S
O33 Cd29 2.439 . S
O33 C34 1.208 . S
C34 O32 1.247 . S
C34 O33 1.208 . S
C35 O40 1.247 . S
C35 O41 1.208 . S
C36 O28 1.315 . S
C36 O31 1.279 . S
C37 O38 1.315 . S
C37 O39 1.279 . S
O38 Cd30 2.223 . S
O38 C37 1.315 . S
O39 Cd29 2.240 . S
O39 C37 1.279 . S
O40 Cd30 2.297 . S
O40 C35 1.247 . S
O41 Cd30 2.439 . S
O41 C35 1.208 . S
O42 Cd43 2.223 . S
O42 C50 1.315 . S
Cd43 O42 2.223 . S
Cd43 O46 2.297 . S
Cd43 O47 2.439 . S
Cd43 O53 2.240 . S
Cd44 O45 2.240 . S
Cd44 O52 2.223 . S
Cd44 O54 2.297 . S
Cd44 O55 2.439 . S
O45 Cd44 2.240 . S
O45 C50 1.279 . S
O46 Cd43 2.297 . S
O46 C48 1.247 . S
O47 Cd43 2.439 . S
O47 C48 1.208 . S
C48 O46 1.247 . S
C48 O47 1.208 . S
C49 O54 1.247 . S
C49 O55 1.208 . S
C50 O42 1.315 . S
C50 O45 1.279 . S
C51 O52 1.315 . S
C51 O53 1.279 . S
O52 Cd44 2.223 . S
O52 C51 1.315 . S
O53 Cd43 2.240 . S
O53 C51 1.279 . S
O54 Cd44 2.297 . S
O54 C49 1.247 . S
O55 Cd44 2.439 . S
O55 C49 1.208 . S
O56 Cd57 2.223 . S
O56 C64 1.315 . S
Cd57 O56 2.223 . S
Cd57 O60 2.297 . S
Cd57 O61 2.439 . S
Cd57 O67 2.240 . S
Cd58 O59 2.240 . S
Cd58 O66 2.223 . S
Cd58 O68 2.297 . S
Cd58 O69 2.439 . S
O59 Cd58 2.240 . S
O59 C64 1.279 . S
O60 Cd57 2.297 . S
O60 C62 1.247 . S
O61 Cd57 2.439 . S
O61 C62 1.208 . S
C62 O60 1.247 . S
C62 O61 1.208 . S
C63 O68 1.247 . S
C63 O69 1.208 . S
C64 O56 1.315 . S
C64 O59 1.279 . S
C65 O66 1.315 . S
C65 O67 1.279 . S
O66 Cd58 2.223 . S
O66 C65 1.315 . S
O67 Cd57 2.240 . S
O67 C65 1.279 . S
O68 Cd58 2.297 . S
O68 C63 1.247 . S
O69 Cd58 2.439 . S
O69 C63 1.208 . S
O70 Cd71 2.223 . S
O70 C78 1.315 . S
Cd71 O70 2.223 . S
Cd71 O74 2.297 . S
Cd71 O75 2.439 . S
Cd71 O81 2.240 . S
Cd72 O73 2.240 . S
Cd72 O80 2.223 . S
Cd72 O82 2.297 . S
Cd72 O83 2.439 . S
O73 Cd72 2.240 . S
O73 C78 1.279 . S
O74 Cd71 2.297 . S
O74 C76 1.247 . S
O75 Cd71 2.439 . S
O75 C76 1.208 . S
C76 O74 1.247 . S
C76 O75 1.208 . S
C77 O82 1.247 . S
C77 O83 1.208 . S
C78 O70 1.315 . S
C78 O73 1.279 . S
C79 O80 1.315 . S
C79 O81 1.279 . S
O80 Cd72 2.223 . S
O80 C79 1.315 . S
O81 Cd71 2.240 . S
O81 C79 1.279 . S
O82 Cd72 2.297 . S
O82 C77 1.247 . S
O83 Cd72 2.439 . S
O83 C77 1.208 . S
O84 Cd85 2.223 . S
O84 C92 1.315 . S
Cd85 O84 2.223 . S
Cd85 O88 2.297 . S
Cd85 O89 2.439 . S
Cd85 O95 2.240 . S
Cd86 O87 2.240 . S
Cd86 O94 2.223 . S
Cd86 O96 2.297 . S
Cd86 O97 2.439 . S
O87 Cd86 2.240 . S
O87 C92 1.279 . S
O88 Cd85 2.297 . S
O88 C90 1.247 . S
O89 Cd85 2.439 . S
O89 C90 1.208 . S
C90 O88 1.247 . S
C90 O89 1.208 . S
C91 O96 1.247 . S
C91 O97 1.208 . S
C92 O84 1.315 . S
C92 O87 1.279 . S
C93 O94 1.315 . S
C93 O95 1.279 . S
O94 Cd86 2.223 . S
O94 C93 1.315 . S
O95 Cd85 2.240 . S
O95 C93 1.279 . S
O96 Cd86 2.297 . S
O96 C91 1.247 . S
O97 Cd86 2.439 . S
O97 C91 1.208 . S
O98 Cd99 2.222 . S
O98 C106 1.315 . S
Cd99 O98 2.222 . S
Cd99 O102 2.297 . S
Cd99 O103 2.439 . S
Cd99 O109 2.240 1_455 S
Cd100 O101 2.240 1_554 S
Cd100 O108 2.223 1_454 S
Cd100 O110 2.283 1_455 S
Cd100 O111 2.439 1_554 S
O101 Cd100 2.240 1_556 S
O101 C106 1.279 . S
O102 Cd99 2.297 . S
O102 C104 1.247 . S
O103 Cd99 2.439 . S
O103 C104 1.208 . S
C104 O102 1.247 . S
C104 O103 1.208 . S
C105 O110 1.222 1_455 S
C105 O111 1.208 1_554 S
C106 O98 1.315 . S
C106 O101 1.279 . S
C107 O108 1.315 . S
C107 O109 1.279 . S
O108 Cd100 2.223 1_656 S
O108 C107 1.315 . S
O109 Cd99 2.240 1_655 S
O109 C107 1.279 . S
O110 Cd100 2.283 1_655 S
O110 C105 1.222 1_655 S
O111 Cd100 2.439 1_556 S
O111 C105 1.208 1_556 S
O112 Cd113 2.223 . S
O112 C120 1.315 . S
Cd113 O112 2.223 . S
Cd113 O116 2.297 . S
Cd113 O117 2.439 . S
Cd113 O123 2.240 . S
Cd114 O115 2.240 . S
Cd114 O122 2.223 1_545 S
Cd114 O124 2.297 . S
Cd114 O125 2.439 . S
O115 Cd114 2.240 . S
O115 C120 1.279 . S
O116 Cd113 2.297 . S
O116 C118 1.247 . S
O117 Cd113 2.439 . S
O117 C118 1.208 . S
C118 O116 1.247 . S
C118 O117 1.208 . S
C119 O124 1.247 . S
C119 O125 1.208 . S
C120 O112 1.315 . S
C120 O115 1.279 . S
C121 O122 1.315 . S
C121 O123 1.279 1_565 S
O122 Cd114 2.223 1_565 S
O122 C121 1.315 . S
O123 Cd113 2.240 . S
O123 C121 1.279 1_545 S
O124 Cd114 2.297 . S
O124 C119 1.247 . S
O125 Cd114 2.439 . S
O125 C119 1.208 . S
O126 Cd127 2.223 . S
O126 C134 1.315 . S
Cd127 O126 2.223 . S
Cd127 O130 2.297 . S
Cd127 O131 2.439 . S
Cd127 O137 2.240 . S
Cd128 O129 2.240 . S
Cd128 O136 2.223 . S
Cd128 O138 2.297 . S
Cd128 O139 2.439 . S
O129 Cd128 2.240 . S
O129 C134 1.279 . S
O130 Cd127 2.297 . S
O130 C132 1.247 . S
O131 Cd127 2.439 . S
O131 C132 1.208 . S
C132 O130 1.247 . S
C132 O131 1.208 . S
C133 O138 1.247 . S
C133 O139 1.208 . S
C134 O126 1.315 . S
C134 O129 1.279 . S
C135 O136 1.315 . S
C135 O137 1.279 . S
O136 Cd128 2.223 . S
O136 C135 1.315 . S
O137 Cd127 2.240 . S
O137 C135 1.279 . S
O138 Cd128 2.297 . S
O138 C133 1.247 . S
O139 Cd128 2.439 . S
O139 C133 1.208 . S
O140 Cd141 2.223 . S
O140 C148 1.315 . S
Cd141 O140 2.223 . S
Cd141 O144 2.297 . S
Cd141 O145 2.439 . S
Cd141 O151 2.240 . S
Cd142 O143 2.240 . S
Cd142 O150 2.223 . S
Cd142 O152 2.297 . S
Cd142 O153 2.439 . S
O143 Cd142 2.240 . S
O143 C148 1.279 . S
O144 Cd141 2.297 . S
O144 C146 1.247 1_545 S
O145 Cd141 2.439 . S
O145 C146 1.208 1_545 S
C146 O144 1.247 1_565 S
C146 O145 1.208 1_565 S
C147 O152 1.247 . S
C147 O153 1.208 . S
C148 O140 1.315 . S
C148 O143 1.279 . S
C149 O150 1.315 . S
C149 O151 1.279 . S
O150 Cd142 2.223 . S
O150 C149 1.315 . S
O151 Cd141 2.240 . S
O151 C149 1.279 . S
O152 Cd142 2.297 . S
O152 C147 1.247 . S
O153 Cd142 2.439 . S
O153 C147 1.208 . S
O154 Cd155 2.223 . S
O154 C162 1.315 . S
Cd155 O154 2.223 . S
Cd155 O158 2.297 . S
Cd155 O159 2.439 1_554 S
Cd155 O165 2.228 1_554 S
Cd156 O157 2.240 1_556 S
Cd156 O164 2.223 1_556 S
Cd156 O166 2.297 . S
Cd156 O167 2.439 . S
O157 Cd156 2.240 1_554 S
O157 C162 1.279 . S
O158 Cd155 2.297 . S
O158 C160 1.247 . S
O159 Cd155 2.439 1_556 S
O159 C160 1.208 1_556 S
C160 O158 1.247 . S
C160 O159 1.208 1_554 S
C161 O166 1.247 . S
C161 O167 1.208 . S
C162 O154 1.315 . S
C162 O157 1.279 . S
C163 O164 1.315 . S
C163 O165 1.273 1_554 S
O164 Cd156 2.223 1_554 S
O164 C163 1.315 . S
O165 Cd155 2.228 1_556 S
O165 C163 1.273 1_556 S
O166 Cd156 2.297 . S
O166 C161 1.247 . S
O167 Cd156 2.439 . S
O167 C161 1.208 . S
O168 Cd169 2.223 . S
O168 C176 1.315 . S
Cd169 O168 2.223 . S
Cd169 O172 2.297 . S
Cd169 O173 2.439 . S
Cd169 O179 2.240 . S
Cd170 O171 2.240 . S
Cd170 O178 2.223 . S
Cd170 O180 2.297 . S
Cd170 O181 2.439 . S
O171 Cd170 2.240 . S
O171 C176 1.279 . S
O172 Cd169 2.297 . S
O172 C174 1.247 . S
O173 Cd169 2.439 . S
O173 C174 1.208 . S
C174 O172 1.247 . S
C174 O173 1.208 . S
C175 O180 1.247 . S
C175 O181 1.208 . S
C176 O168 1.315 . S
C176 O171 1.279 . S
C177 O178 1.315 . S
C177 O179 1.279 . S
O178 Cd170 2.223 . S
O178 C177 1.315 . S
O179 Cd169 2.240 . S
O179 C177 1.279 . S
O180 Cd170 2.297 . S
O180 C175 1.247 . S
O181 Cd170 2.439 . S
O181 C175 1.208 . S
O182 Cd183 2.223 . S
O182 C190 1.315 . S
Cd183 O182 2.223 . S
Cd183 O186 2.297 . S
Cd183 O187 2.439 . S
Cd183 O193 2.240 . S
Cd184 O185 2.240 . S
Cd184 O192 2.223 . S
Cd184 O194 2.297 . S
Cd184 O195 2.439 . S
O185 Cd184 2.240 . S
O185 C190 1.279 . S
O186 Cd183 2.297 . S
O186 C188 1.247 . S
O187 Cd183 2.439 . S
O187 C188 1.208 . S
C188 O186 1.247 . S
C188 O187 1.208 . S
C189 O194 1.247 . S
C189 O195 1.208 . S
C190 O182 1.315 . S
C190 O185 1.279 . S
C191 O192 1.315 . S
C191 O193 1.279 . S
O192 Cd184 2.223 . S
O192 C191 1.315 . S
O193 Cd183 2.240 . S
O193 C191 1.279 . S
O194 Cd184 2.297 . S
O194 C189 1.247 . S
O195 Cd184 2.439 . S
O195 C189 1.208 . S
O196 Cd197 2.223 . S
O196 C204 1.315 . S
Cd197 O196 2.223 . S
Cd197 O200 2.297 . S
Cd197 O201 2.439 . S
Cd197 O207 2.240 . S
Cd198 O199 2.240 . S
Cd198 O206 2.223 . S
Cd198 O208 2.297 . S
Cd198 O209 2.439 . S
O199 Cd198 2.240 . S
O199 C204 1.279 . S
O200 Cd197 2.297 . S
O200 C202 1.247 . S
O201 Cd197 2.439 . S
O201 C202 1.208 . S
C202 O200 1.247 . S
C202 O201 1.208 . S
C203 O208 1.247 . S
C203 O209 1.208 . S
C204 O196 1.315 . S
C204 O199 1.279 . S
C205 O206 1.315 . S
C205 O207 1.279 . S
O206 Cd198 2.223 . S
O206 C205 1.315 . S
O207 Cd197 2.240 . S
O207 C205 1.279 . S
O208 Cd198 2.297 . S
O208 C203 1.247 . S
O209 Cd198 2.439 . S
O209 C203 1.208 . S
O210 Cd211 2.223 . S
O210 C218 1.315 . S
Cd211 O210 2.223 . S
Cd211 O214 2.297 . S
Cd211 O215 2.439 . S
Cd211 O221 2.240 . S
Cd212 O213 2.240 . S
Cd212 O220 2.223 . S
Cd212 O222 2.297 . S
Cd212 O223 2.439 . S
O213 Cd212 2.240 . S
O213 C218 1.279 . S
O214 Cd211 2.297 . S
O214 C216 1.247 . S
O215 Cd211 2.439 . S
O215 C216 1.208 . S
C216 O214 1.247 . S
C216 O215 1.208 . S
C217 O222 1.247 . S
C217 O223 1.208 . S
C218 O210 1.315 . S
C218 O213 1.279 . S
C219 O220 1.315 . S
C219 O221 1.279 . S
O220 Cd212 2.223 . S
O220 C219 1.315 . S
O221 Cd211 2.240 . S
O221 C219 1.279 . S
O222 Cd212 2.297 . S
O222 C217 1.247 . S
O223 Cd212 2.439 . S
O223 C217 1.208 . S
O224 Cd225 2.223 . S
O224 C232 1.315 . S
Cd225 O224 2.223 . S
Cd225 O228 2.297 1_565 S
Cd225 O229 2.439 1_565 S
Cd225 O235 2.240 . S
Cd226 O227 2.240 1_565 S
Cd226 O234 2.223 . S
Cd226 O236 2.297 . S
Cd226 O237 2.439 1_565 S
O227 Cd226 2.240 1_545 S
O227 C232 1.279 1_545 S
O228 Cd225 2.297 1_545 S
O228 C230 1.247 . S
O229 Cd225 2.439 1_545 S
O229 C230 1.208 . S
C230 O228 1.247 . S
C230 O229 1.208 . S
C231 O236 1.247 1_545 S
C231 O237 1.208 . S
C232 O224 1.315 . S
C232 O227 1.279 1_565 S
C233 O234 1.315 . S
C233 O235 1.279 . S
O234 Cd226 2.223 . S
O234 C233 1.315 . S
O235 Cd225 2.240 . S
O235 C233 1.279 . S
O236 Cd226 2.297 . S
O236 C231 1.247 1_565 S
O237 Cd226 2.439 1_545 S
O237 C231 1.208 . S
O238 Cd239 2.223 . S
O238 C246 1.315 . S
Cd239 O238 2.223 . S
Cd239 O242 2.297 . S
Cd239 O243 2.439 . S
Cd239 O249 2.240 . S
Cd240 O241 2.240 . S
Cd240 O248 2.223 . S
Cd240 O250 2.297 . S
Cd240 O251 2.439 . S
O241 Cd240 2.240 . S
O241 C246 1.279 . S
O242 Cd239 2.297 . S
O242 C244 1.247 . S
O243 Cd239 2.439 . S
O243 C244 1.208 . S
C244 O242 1.247 . S
C244 O243 1.208 . S
C245 O250 1.247 . S
C245 O251 1.208 . S
C246 O238 1.315 . S
C246 O241 1.279 . S
C247 O248 1.315 . S
C247 O249 1.279 . S
O248 Cd240 2.223 . S
O248 C247 1.315 . S
O249 Cd239 2.240 . S
O249 C247 1.279 . S
O250 Cd240 2.297 . S
O250 C245 1.247 . S
O251 Cd240 2.439 . S
O251 C245 1.208 . S
O252 Cd253 2.223 . S
O252 C260 1.315 . S
Cd253 O252 2.223 . S
Cd253 O256 2.297 . S
Cd253 O257 2.439 . S
Cd253 O263 2.240 . S
Cd254 O255 2.240 . S
Cd254 O262 2.223 . S
Cd254 O264 2.297 . S
Cd254 O265 2.439 . S
O255 Cd254 2.240 . S
O255 C260 1.279 . S
O256 Cd253 2.297 . S
O256 C258 1.247 . S
O257 Cd253 2.439 . S
O257 C258 1.208 . S
C258 O256 1.247 . S
C258 O257 1.208 . S
C259 O264 1.247 . S
C259 O265 1.208 . S
C260 O252 1.315 . S
C260 O255 1.279 . S
C261 O262 1.315 . S
C261 O263 1.279 . S
O262 Cd254 2.223 . S
O262 C261 1.315 . S
O263 Cd253 2.240 . S
O263 C261 1.279 . S
O264 Cd254 2.297 . S
O264 C259 1.247 . S
O265 Cd254 2.439 . S
O265 C259 1.208 . S
O266 Cd267 2.223 . S
O266 C274 1.315 . S
Cd267 O266 2.223 . S
Cd267 O270 2.297 1_545 S
Cd267 O271 2.439 1_545 S
Cd267 O277 2.240 . S
Cd268 O269 2.240 . S
Cd268 O276 2.223 . S
Cd268 O278 2.297 . S
Cd268 O279 2.439 . S
O269 Cd268 2.240 . S
O269 C274 1.279 . S
O270 Cd267 2.297 1_565 S
O270 C272 1.247 . S
O271 Cd267 2.439 1_565 S
O271 C272 1.208 . S
C272 O270 1.247 . S
C272 O271 1.208 . S
C273 O278 1.247 . S
C273 O279 1.208 . S
C274 O266 1.315 . S
C274 O269 1.279 . S
C275 O276 1.315 . S
C275 O277 1.279 . S
O276 Cd268 2.223 . S
O276 C275 1.315 . S
O277 Cd267 2.240 . S
O277 C275 1.279 . S
O278 Cd268 2.297 . S
O278 C273 1.247 . S
O279 Cd268 2.439 . S
O279 C273 1.208 . S
O280 Cd281 2.223 . S
O280 C288 1.315 . S
Cd281 O280 2.223 . S
Cd281 O284 2.297 . S
Cd281 O285 2.439 . S
Cd281 O291 2.240 . S
Cd282 O283 2.240 . S
Cd282 O290 2.223 . S
Cd282 O292 2.297 . S
Cd282 O293 2.439 . S
O283 Cd282 2.240 . S
O283 C288 1.279 . S
O284 Cd281 2.297 . S
O284 C286 1.247 . S
O285 Cd281 2.439 . S
O285 C286 1.208 . S
C286 O284 1.247 . S
C286 O285 1.208 . S
C287 O292 1.247 . S
C287 O293 1.208 . S
C288 O280 1.315 . S
C288 O283 1.279 . S
C289 O290 1.315 . S
C289 O291 1.279 . S
O290 Cd282 2.223 . S
O290 C289 1.315 . S
O291 Cd281 2.240 . S
O291 C289 1.279 . S
O292 Cd282 2.297 . S
O292 C287 1.247 . S
O293 Cd282 2.439 . S
O293 C287 1.208 . S
O294 Cd295 2.223 . S
O294 C302 1.315 . S
Cd295 O294 2.223 . S
Cd295 O298 2.297 . S
Cd295 O299 2.439 . S
Cd295 O305 2.240 . S
Cd296 O297 2.240 . S
Cd296 O304 2.223 . S
Cd296 O306 2.297 . S
Cd296 O307 2.439 . S
O297 Cd296 2.240 . S
O297 C302 1.279 . S
O298 Cd295 2.297 . S
O298 C300 1.247 . S
O299 Cd295 2.439 . S
O299 C300 1.208 . S
C300 O298 1.247 . S
C300 O299 1.208 . S
C301 O306 1.247 . S
C301 O307 1.208 . S
C302 O294 1.315 . S
C302 O297 1.279 . S
C303 O304 1.315 . S
C303 O305 1.279 . S
O304 Cd296 2.223 . S
O304 C303 1.315 . S
O305 Cd295 2.240 . S
O305 C303 1.279 . S
O306 Cd296 2.297 . S
O306 C301 1.247 . S
O307 Cd296 2.439 . S
O307 C301 1.208 . S
O308 Cd309 2.223 . S
O308 C316 1.315 . S
Cd309 O308 2.223 . S
Cd309 O312 2.297 . S
Cd309 O313 2.439 . S
Cd309 O319 2.240 . S
Cd310 O311 2.240 . S
Cd310 O318 2.223 . S
Cd310 O320 2.297 . S
Cd310 O321 2.439 . S
O311 Cd310 2.240 . S
O311 C316 1.279 . S
O312 Cd309 2.297 . S
O312 C314 1.247 . S
O313 Cd309 2.439 . S
O313 C314 1.208 . S
C314 O312 1.247 . S
C314 O313 1.208 . S
C315 O320 1.247 . S
C315 O321 1.208 . S
C316 O308 1.315 . S
C316 O311 1.279 . S
C317 O318 1.315 . S
C317 O319 1.279 . S
O318 Cd310 2.223 . S
O318 C317 1.315 . S
O319 Cd309 2.240 . S
O319 C317 1.279 . S
O320 Cd310 2.297 . S
O320 C315 1.247 . S
O321 Cd310 2.439 . S
O321 C315 1.208 . S
O322 Cd323 2.223 . S
O322 C330 1.315 . S
Cd323 O322 2.223 . S
Cd323 O326 2.297 . S
Cd323 O327 2.439 . S
Cd323 O333 2.240 . S
Cd324 O325 2.240 . S
Cd324 O332 2.223 . S
Cd324 O334 2.297 . S
Cd324 O335 2.439 . S
O325 Cd324 2.240 . S
O325 C330 1.279 . S
O326 Cd323 2.297 . S
O326 C328 1.247 . S
O327 Cd323 2.439 . S
O327 C328 1.208 . S
C328 O326 1.247 . S
C328 O327 1.208 . S
C329 O334 1.247 . S
C329 O335 1.208 . S
C330 O322 1.315 . S
C330 O325 1.279 . S
C331 O332 1.315 . S
C331 O333 1.279 . S
O332 Cd324 2.223 . S
O332 C331 1.315 . S
O333 Cd323 2.240 . S
O333 C331 1.279 . S
O334 Cd324 2.297 . S
O334 C329 1.247 . S
O335 Cd324 2.439 . S
O335 C329 1.208 . S
Tb336 C338 2.809 1_455 S
Tb336 O356 2.484 1_455 S
Tb336 O357 2.440 1_455 S
Tb336 O358 2.658 . S
Tb336 O359 2.409 . S
Tb336 O360 2.378 . S
Tb336 O364 2.325 . S
Tb336 O367 2.341 1_545 S
Tb337 C347 2.809 . S
Tb337 O358 2.325 . S
Tb337 O361 2.341 . S
Tb337 O362 2.484 . S
Tb337 O363 2.440 . S
Tb337 O364 2.658 . S
Tb337 O365 2.409 . S
Tb337 O366 2.378 . S
C338 Tb336 2.809 1_655 S
C338 C339 1.514 . S
C338 O356 1.248 . S
C338 O357 1.266 . S
C339 C338 1.514 . S
C339 C340 1.359 . S
C339 C344 1.348 . S
C340 C339 1.359 . S
C340 C341 1.380 . S
C340 H368 0.929 . S
C341 C340 1.380 . S
C341 C342 1.347 . S
C341 H369 0.931 . S
C342 C341 1.347 . S
C342 C343 1.369 . S
C343 C342 1.369 . S
C343 C344 1.408 . S
C343 H370 0.930 . S
C344 C339 1.348 . S
C344 C343 1.408 . S
C344 H371 0.930 . S
C345 O358 1.281 . S
C345 O359 1.254 . S
C346 O360 1.236 . S
C346 O361 1.266 . S
C347 Tb337 2.809 . S
C347 C348 1.514 . S
C347 O362 1.248 . S
C347 O363 1.266 . S
C348 C347 1.514 . S
C348 C349 1.359 1_545 S
C348 C353 1.348 . S
C349 C348 1.359 1_565 S
C349 C350 1.380 . S
C349 H372 0.929 . S
C350 C349 1.380 . S
C350 C351 1.347 . S
C350 H373 0.931 . S
C351 C350 1.347 . S
C351 C352 1.369 . S
C352 C351 1.369 . S
C352 C353 1.408 1_565 S
C352 H374 0.930 . S
C353 C348 1.348 . S
C353 C352 1.408 1_545 S
C353 H375 0.930 . S
C354 O364 1.281 . S
C354 O365 1.254 . S
C355 O366 1.236 1_565 S
C355 O367 1.266 . S
O356 Tb336 2.484 1_655 S
O356 C338 1.248 . S
O357 Tb336 2.440 1_655 S
O357 C338 1.266 . S
O358 Tb336 2.658 . S
O358 Tb337 2.325 . S
O358 C345 1.281 . S
O359 Tb336 2.409 . S
O359 C345 1.254 . S
O360 Tb336 2.378 . S
O360 C346 1.236 . S
O361 Tb337 2.341 . S
O361 C346 1.266 . S
O362 Tb337 2.484 . S
O362 C347 1.248 . S
O363 Tb337 2.440 . S
O363 C347 1.266 . S
O364 Tb336 2.325 . S
O364 Tb337 2.658 . S
O364 C354 1.281 . S
O365 Tb337 2.409 . S
O365 C354 1.254 . S
O366 Tb337 2.378 . S
O366 C355 1.236 1_545 S
O367 Tb336 2.341 1_565 S
O367 C355 1.266 . S
H368 C340 0.929 . S
H369 C341 0.931 . S
H370 C343 0.930 . S
H371 C344 0.930 . S
H372 C349 0.929 . S
H373 C350 0.931 . S
H374 C352 0.930 . S
H375 C353 0.930 . S
Tb376 C378 2.809 . S
Tb376 O396 2.484 . S
Tb376 O397 2.440 . S
Tb376 O398 2.658 . S
Tb376 O399 2.409 . S
Tb376 O400 2.378 . S
Tb376 O404 2.325 . S
Tb376 O407 2.341 . S
Tb377 C387 2.809 . S
Tb377 O398 2.325 . S
Tb377 O401 2.341 . S
Tb377 O402 2.484 . S
Tb377 O403 2.440 . S
Tb377 O404 2.658 . S
Tb377 O405 2.409 . S
Tb377 O406 2.378 . S
C378 Tb376 2.809 . S
C378 C379 1.514 . S
C378 O396 1.248 . S
C378 O397 1.266 . S
C379 C378 1.514 . S
C379 C380 1.359 . S
C379 C384 1.348 . S
C380 C379 1.359 . S
C380 C381 1.380 . S
C380 H408 0.929 . S
C381 C380 1.380 . S
C381 C382 1.347 . S
C381 H409 0.931 . S
C382 C381 1.347 . S
C382 C383 1.369 . S
C383 C382 1.369 . S
C383 C384 1.408 . S
C383 H410 0.930 . S
C384 C379 1.348 . S
C384 C383 1.408 . S
C384 H411 0.930 . S
C385 O398 1.281 . S
C385 O399 1.254 . S
C386 O400 1.236 . S
C386 O401 1.266 . S
C387 Tb377 2.809 . S
C387 C388 1.514 . S
C387 O402 1.248 . S
C387 O403 1.266 . S
C388 C387 1.514 . S
C388 C389 1.359 . S
C388 C393 1.348 . S
C389 C388 1.359 . S
C389 C390 1.380 . S
C389 H412 0.929 . S
C390 C389 1.380 . S
C390 C391 1.347 . S
C390 H413 0.931 . S
C391 C390 1.347 . S
C391 C392 1.369 . S
C392 C391 1.369 . S
C392 C393 1.408 . S
C392 H414 0.930 . S
C393 C388 1.348 . S
C393 C392 1.408 . S
C393 H415 0.930 . S
C394 O404 1.281 . S
C394 O405 1.254 . S
C395 O406 1.236 . S
C395 O407 1.266 . S
O396 Tb376 2.484 . S
O396 C378 1.248 . S
O397 Tb376 2.440 . S
O397 C378 1.266 . S
O398 Tb376 2.658 . S
O398 Tb377 2.325 . S
O398 C385 1.281 . S
O399 Tb376 2.409 . S
O399 C385 1.254 . S
O400 Tb376 2.378 . S
O400 C386 1.236 . S
O401 Tb377 2.341 . S
O401 C386 1.266 . S
O402 Tb377 2.484 . S
O402 C387 1.248 . S
O403 Tb377 2.440 . S
O403 C387 1.266 . S
O404 Tb376 2.325 . S
O404 Tb377 2.658 . S
O404 C394 1.281 . S
O405 Tb377 2.409 . S
O405 C394 1.254 . S
O406 Tb377 2.378 . S
O406 C395 1.236 . S
O407 Tb376 2.341 . S
O407 C395 1.266 . S
H408 C380 0.929 . S
H409 C381 0.931 . S
H410 C383 0.930 . S
H411 C384 0.930 . S
H412 C389 0.929 . S
H413 C390 0.931 . S
H414 C392 0.930 . S
H415 C393 0.930 . S
Tb416 C418 2.809 . S
Tb416 O436 2.484 . S
Tb416 O437 2.440 . S
Tb416 O438 2.658 . S
Tb416 O439 2.409 . S
Tb416 O440 2.378 1_545 S
Tb416 O444 2.325 . S
Tb416 O447 2.341 . S
Tb417 C427 2.809 . S
Tb417 O438 2.325 . S
Tb417 O441 2.341 1_545 S
Tb417 O442 2.484 . S
Tb417 O443 2.440 . S
Tb417 O444 2.658 . S
Tb417 O445 2.409 . S
Tb417 O446 2.378 . S
C418 Tb416 2.809 . S
C418 C419 1.514 1_545 S
C418 O436 1.248 . S
C418 O437 1.266 . S
C419 C418 1.514 1_565 S
C419 C420 1.359 . S
C419 C424 1.348 . S
C420 C419 1.359 . S
C420 C421 1.380 . S
C420 H448 0.929 . S
C421 C420 1.380 . S
C421 C422 1.347 . S
C421 H449 0.931 . S
C422 C421 1.347 . S
C422 C423 1.369 . S
C423 C422 1.369 . S
C423 C424 1.408 . S
C423 H450 0.930 . S
C424 C419 1.348 . S
C424 C423 1.408 . S
C424 H451 0.949 . S
C425 O438 1.281 . S
C425 O439 1.254 . S
C426 O440 1.236 . S
C426 O441 1.266 . S
C427 Tb417 2.809 . S
C427 C428 1.514 . S
C427 O442 1.248 . S
C427 O443 1.266 . S
C428 C427 1.514 . S
C428 C429 1.359 . S
C428 C433 1.348 . S
C429 C428 1.359 . S
C429 C430 1.380 . S
C429 H452 0.929 . S
C430 C429 1.380 . S
C430 C431 1.347 . S
C430 H453 0.931 . S
C431 C430 1.347 . S
C431 C432 1.369 . S
C432 C431 1.369 . S
C432 C433 1.408 . S
C432 H454 0.930 . S
C433 C428 1.348 . S
C433 C432 1.408 . S
C433 H455 0.930 . S
C434 O444 1.281 . S
C434 O445 1.254 . S
C435 O446 1.236 . S
C435 O447 1.266 . S
O436 Tb416 2.484 . S
O436 C418 1.248 . S
O437 Tb416 2.440 . S
O437 C418 1.266 . S
O438 Tb416 2.658 . S
O438 Tb417 2.325 . S
O438 C425 1.281 . S
O439 Tb416 2.409 . S
O439 C425 1.254 . S
O440 Tb416 2.378 1_565 S
O440 C426 1.236 . S
O441 Tb417 2.341 1_565 S
O441 C426 1.266 . S
O442 Tb417 2.484 . S
O442 C427 1.248 . S
O443 Tb417 2.440 . S
O443 C427 1.266 . S
O444 Tb416 2.325 . S
O444 Tb417 2.658 . S
O444 C434 1.281 . S
O445 Tb417 2.409 . S
O445 C434 1.254 . S
O446 Tb417 2.378 . S
O446 C435 1.236 . S
O447 Tb416 2.341 . S
O447 C435 1.266 . S
H448 C420 0.929 . S
H449 C421 0.931 . S
H450 C423 0.930 . S
H451 C424 0.949 . S
H452 C429 0.929 . S
H453 C430 0.931 . S
H454 C432 0.930 . S
H455 C433 0.930 . S
Tb456 C458 2.809 . S
Tb456 O476 2.484 . S
Tb456 O477 2.440 . S
Tb456 O478 2.658 . S
Tb456 O479 2.409 . S
Tb456 O480 2.378 . S
Tb456 O484 2.325 . S
Tb456 O487 2.341 . S
Tb457 C467 2.809 . S
Tb457 O478 2.325 . S
Tb457 O481 2.341 . S
Tb457 O482 2.484 . S
Tb457 O483 2.440 . S
Tb457 O484 2.658 . S
Tb457 O485 2.409 . S
Tb457 O486 2.378 . S
C458 Tb456 2.809 . S
C458 C459 1.514 . S
C458 O476 1.248 . S
C458 O477 1.266 . S
C459 C458 1.514 . S
C459 C460 1.359 . S
C459 C464 1.348 . S
C460 C459 1.359 . S
C460 C461 1.380 . S
C460 H488 0.929 . S
C461 C460 1.380 . S
C461 C462 1.347 . S
C461 H489 0.931 . S
C462 C461 1.347 . S
C462 C463 1.369 . S
C463 C462 1.369 . S
C463 C464 1.408 . S
C463 H490 0.930 . S
C464 C459 1.348 . S
C464 C463 1.408 . S
C464 H491 0.930 . S
C465 O478 1.281 . S
C465 O479 1.254 . S
C466 O480 1.236 . S
C466 O481 1.266 . S
C467 Tb457 2.809 . S
C467 C468 1.514 . S
C467 O482 1.248 . S
C467 O483 1.266 . S
C468 C467 1.514 . S
C468 C469 1.359 . S
C468 C473 1.348 . S
C469 C468 1.359 . S
C469 C470 1.380 . S
C469 H492 0.929 . S
C470 C469 1.380 . S
C470 C471 1.347 . S
C470 H493 0.931 . S
C471 C470 1.347 . S
C471 C472 1.369 . S
C472 C471 1.369 . S
C472 C473 1.408 . S
C472 H494 0.930 . S
C473 C468 1.348 . S
C473 C472 1.408 . S
C473 H495 0.930 . S
C474 O484 1.281 . S
C474 O485 1.254 . S
C475 O486 1.236 . S
C475 O487 1.266 . S
O476 Tb456 2.484 . S
O476 C458 1.248 . S
O477 Tb456 2.440 . S
O477 C458 1.266 . S
O478 Tb456 2.658 . S
O478 Tb457 2.325 . S
O478 C465 1.281 . S
O479 Tb456 2.409 . S
O479 C465 1.254 . S
O480 Tb456 2.378 . S
O480 C466 1.236 . S
O481 Tb457 2.341 . S
O481 C466 1.266 . S
O482 Tb457 2.484 . S
O482 C467 1.248 . S
O483 Tb457 2.440 . S
O483 C467 1.266 . S
O484 Tb456 2.325 . S
O484 Tb457 2.658 . S
O484 C474 1.281 . S
O485 Tb457 2.409 . S
O485 C474 1.254 . S
O486 Tb457 2.378 . S
O486 C475 1.236 . S
O487 Tb456 2.341 . S
O487 C475 1.266 . S
H488 C460 0.929 . S
H489 C461 0.931 . S
H490 C463 0.930 . S
H491 C464 0.930 . S
H492 C469 0.929 . S
H493 C470 0.931 . S
H494 C472 0.930 . S
H495 C473 0.930 . S
Tb496 C498 2.809 . S
Tb496 O516 2.484 . S
Tb496 O517 2.440 . S
Tb496 O518 2.658 . S
Tb496 O519 2.371 1_455 S
Tb496 O520 2.378 . S
Tb496 O524 2.325 . S
Tb496 O527 2.341 . S
Tb497 C507 2.809 . S
Tb497 O518 2.325 1_565 S
Tb497 O521 2.341 1_565 S
Tb497 O522 2.484 . S
Tb497 O523 2.440 . S
Tb497 O524 2.658 1_565 S
Tb497 O525 2.409 1_565 S
Tb497 O526 2.378 1_565 S
C498 Tb496 2.809 . S
C498 C499 1.514 . S
C498 O516 1.248 . S
C498 O517 1.266 . S
C499 C498 1.514 . S
C499 C500 1.359 . S
C499 C504 1.348 . S
C500 C499 1.359 . S
C500 C501 1.380 . S
C500 H528 0.929 . S
C501 C500 1.380 . S
C501 C502 1.347 . S
C501 H529 0.931 . S
C502 C501 1.347 . S
C502 C503 1.369 1_455 S
C503 C502 1.369 1_655 S
C503 C504 1.408 1_655 S
C503 H530 0.930 . S
C504 C499 1.348 . S
C504 C503 1.408 1_455 S
C504 H531 0.930 1_455 S
C505 O518 1.281 . S
C505 O519 1.235 1_455 S
C506 O520 1.236 . S
C506 O521 1.266 . S
C507 Tb497 2.809 . S
C507 C508 1.514 . S
C507 O522 1.248 . S
C507 O523 1.266 . S
C508 C507 1.514 . S
C508 C509 1.359 . S
C508 C513 1.348 . S
C509 C508 1.359 . S
C509 C510 1.380 . S
C509 H532 0.929 . S
C510 C509 1.380 . S
C510 C511 1.347 . S
C510 H533 0.931 . S
C511 C510 1.347 . S
C511 C512 1.369 . S
C512 C511 1.369 . S
C512 C513 1.408 . S
C512 H534 0.930 . S
C513 C508 1.348 . S
C513 C512 1.408 . S
C513 H535 0.930 . S
C514 O524 1.281 . S
C514 O525 1.254 . S
C515 O526 1.236 . S
C515 O527 1.266 . S
O516 Tb496 2.484 . S
O516 C498 1.248 . S
O517 Tb496 2.440 . S
O517 C498 1.266 . S
O518 Tb496 2.658 . S
O518 Tb497 2.325 1_545 S
O518 C505 1.281 . S
O519 Tb496 2.371 1_655 S
O519 C505 1.235 1_655 S
O520 Tb496 2.378 . S
O520 C506 1.236 . S
O521 Tb497 2.341 1_545 S
O521 C506 1.266 . S
O522 Tb497 2.484 . S
O522 C507 1.248 . S
O523 Tb497 2.440 . S
O523 C507 1.266 . S
O524 Tb496 2.325 . S
O524 Tb497 2.658 1_545 S
O524 C514 1.281 . S
O525 Tb497 2.409 1_545 S
O525 C514 1.254 . S
O526 Tb497 2.378 1_545 S
O526 C515 1.236 . S
O527 Tb496 2.341 . S
O527 C515 1.266 . S
H528 C500 0.929 . S
H529 C501 0.931 . S
H530 C503 0.930 . S
H531 C504 0.930 1_655 S
H532 C509 0.929 . S
H533 C510 0.931 . S
H534 C512 0.930 . S
H535 C513 0.930 . S
Tb536 C538 2.809 . S
Tb536 O556 2.484 . S
Tb536 O557 2.440 . S
Tb536 O558 2.658 . S
Tb536 O559 2.409 . S
Tb536 O560 2.378 . S
Tb536 O564 2.325 . S
Tb536 O567 2.341 . S
Tb537 C547 2.809 . S
Tb537 O558 2.325 . S
Tb537 O561 2.341 . S
Tb537 O562 2.484 . S
Tb537 O563 2.440 . S
Tb537 O564 2.658 . S
Tb537 O565 2.409 . S
Tb537 O566 2.378 . S
C538 Tb536 2.809 . S
C538 C539 1.514 . S
C538 O556 1.248 . S
C538 O557 1.266 . S
C539 C538 1.514 . S
C539 C540 1.359 . S
C539 C544 1.348 . S
C540 C539 1.359 . S
C540 C541 1.380 . S
C540 H568 0.929 . S
C541 C540 1.380 . S
C541 C542 1.347 . S
C541 H569 0.931 . S
C542 C541 1.347 . S
C542 C543 1.369 . S
C543 C542 1.369 . S
C543 C544 1.408 . S
C543 H570 0.930 . S
C544 C539 1.348 . S
C544 C543 1.408 . S
C544 H571 0.930 . S
C545 O558 1.281 . S
C545 O559 1.254 . S
C546 O560 1.236 . S
C546 O561 1.266 . S
C547 Tb537 2.809 . S
C547 C548 1.514 . S
C547 O562 1.248 . S
C547 O563 1.266 . S
C548 C547 1.514 . S
C548 C549 1.359 . S
C548 C553 1.348 . S
C549 C548 1.359 . S
C549 C550 1.380 . S
C549 H572 0.929 . S
C550 C549 1.380 . S
C550 C551 1.347 . S
C550 H573 0.931 . S
C551 C550 1.347 . S
C551 C552 1.369 . S
C552 C551 1.369 . S
C552 C553 1.408 . S
C552 H574 0.930 . S
C553 C548 1.348 . S
C553 C552 1.408 . S
C553 H575 0.930 . S
C554 O564 1.281 . S
C554 O565 1.254 . S
C555 O566 1.236 . S
C555 O567 1.266 . S
O556 Tb536 2.484 . S
O556 C538 1.248 . S
O557 Tb536 2.440 . S
O557 C538 1.266 . S
O558 Tb536 2.658 . S
O558 Tb537 2.325 . S
O558 C545 1.281 . S
O559 Tb536 2.409 . S
O559 C545 1.254 . S
O560 Tb536 2.378 . S
O560 C546 1.236 . S
O561 Tb537 2.341 . S
O561 C546 1.266 . S
O562 Tb537 2.484 . S
O562 C547 1.248 . S
O563 Tb537 2.440 . S
O563 C547 1.266 . S
O564 Tb536 2.325 . S
O564 Tb537 2.658 . S
O564 C554 1.281 . S
O565 Tb537 2.409 . S
O565 C554 1.254 . S
O566 Tb537 2.378 . S
O566 C555 1.236 . S
O567 Tb536 2.341 . S
O567 C555 1.266 . S
H568 C540 0.929 . S
H569 C541 0.931 . S
H570 C543 0.930 . S
H571 C544 0.930 . S
H572 C549 0.929 . S
H573 C550 0.931 . S
H574 C552 0.930 . S
H575 C553 0.930 . S
Tb576 C578 2.809 . S
Tb576 O596 2.484 1_545 S
Tb576 O597 2.440 . S
Tb576 O598 2.658 . S
Tb576 O599 2.409 . S
Tb576 O600 2.378 . S
Tb576 O604 2.325 1_545 S
Tb576 O607 2.341 . S
Tb577 C587 2.809 . S
Tb577 O598 2.325 . S
Tb577 O601 2.341 . S
Tb577 O602 2.484 . S
Tb577 O603 2.440 . S
Tb577 O604 2.658 1_545 S
Tb577 O605 2.409 1_545 S
Tb577 O606 2.378 . S
C578 Tb576 2.809 . S
C578 C579 1.514 1_545 S
C578 O596 1.248 1_545 S
C578 O597 1.266 . S
C579 C578 1.514 1_565 S
C579 C580 1.359 . S
C579 C584 1.348 1_565 S
C580 C579 1.359 . S
C580 C581 1.380 . S
C580 H608 0.929 . S
C581 C580 1.380 . S
C581 C582 1.347 . S
C581 H609 0.931 . S
C582 C581 1.347 . S
C582 C583 1.369 . S
C583 C582 1.369 . S
C583 C584 1.408 1_565 S
C583 H610 0.930 1_565 S
C584 C579 1.348 1_545 S
C584 C583 1.408 1_545 S
C584 H611 0.930 . S
C585 O598 1.281 . S
C585 O599 1.254 . S
C586 O600 1.236 . S
C586 O601 1.266 . S
C587 Tb577 2.809 . S
C587 C588 1.514 . S
C587 O602 1.248 . S
C587 O603 1.266 . S
C588 C587 1.514 . S
C588 C589 1.359 . S
C588 C593 1.348 . S
C589 C588 1.359 . S
C589 C590 1.380 . S
C589 H612 0.929 . S
C590 C589 1.380 . S
C590 C591 1.347 . S
C590 H613 0.931 . S
C591 C590 1.347 . S
C591 C592 1.369 . S
C592 C591 1.369 . S
C592 C593 1.408 . S
C592 H614 0.930 . S
C593 C588 1.348 . S
C593 C592 1.408 . S
C593 H615 0.930 . S
C594 O604 1.281 . S
C594 O605 1.254 . S
C595 O606 1.236 . S
C595 O607 1.266 . S
O596 Tb576 2.484 1_565 S
O596 C578 1.248 1_565 S
O597 Tb576 2.440 . S
O597 C578 1.266 . S
O598 Tb576 2.658 . S
O598 Tb577 2.325 . S
O598 C585 1.281 . S
O599 Tb576 2.409 . S
O599 C585 1.254 . S
O600 Tb576 2.378 . S
O600 C586 1.236 . S
O601 Tb577 2.341 . S
O601 C586 1.266 . S
O602 Tb577 2.484 . S
O602 C587 1.248 . S
O603 Tb577 2.440 . S
O603 C587 1.266 . S
O604 Tb576 2.325 1_565 S
O604 Tb577 2.658 1_565 S
O604 C594 1.281 . S
O605 Tb577 2.409 1_565 S
O605 C594 1.254 . S
O606 Tb577 2.378 . S
O606 C595 1.236 . S
O607 Tb576 2.341 . S
O607 C595 1.266 . S
H608 C580 0.929 . S
H609 C581 0.931 . S
H610 C583 0.930 1_545 S
H611 C584 0.930 . S
H612 C589 0.929 . S
H613 C590 0.931 . S
H614 C592 0.930 . S
H615 C593 0.930 . S
Tb616 C618 2.809 . S
Tb616 O636 2.484 . S
Tb616 O637 2.440 . S
Tb616 O638 2.658 . S
Tb616 O639 2.409 . S
Tb616 O640 2.378 . S
Tb616 O644 2.325 . S
Tb616 O647 2.341 . S
Tb617 C627 2.809 . S
Tb617 O638 2.325 . S
Tb617 O641 2.341 . S
Tb617 O642 2.484 . S
Tb617 O643 2.440 . S
Tb617 O644 2.658 . S
Tb617 O645 2.409 . S
Tb617 O646 2.378 . S
C618 Tb616 2.809 . S
C618 C619 1.514 . S
C618 O636 1.248 . S
C618 O637 1.266 . S
C619 C618 1.514 . S
C619 C620 1.359 . S
C619 C624 1.348 . S
C620 C619 1.359 . S
C620 C621 1.380 . S
C620 H648 0.929 . S
C621 C620 1.380 . S
C621 C622 1.347 . S
C621 H649 0.931 . S
C622 C621 1.347 . S
C622 C623 1.369 . S
C623 C622 1.369 . S
C623 C624 1.408 . S
C623 H650 0.930 . S
C624 C619 1.348 . S
C624 C623 1.408 . S
C624 H651 0.930 . S
C625 O638 1.281 . S
C625 O639 1.254 . S
C626 O640 1.236 . S
C626 O641 1.266 . S
C627 Tb617 2.809 . S
C627 C628 1.514 . S
C627 O642 1.248 . S
C627 O643 1.266 . S
C628 C627 1.514 . S
C628 C629 1.359 . S
C628 C633 1.348 . S
C629 C628 1.359 . S
C629 C630 1.380 . S
C629 H652 0.929 . S
C630 C629 1.380 . S
C630 C631 1.347 . S
C630 H653 0.931 . S
C631 C630 1.347 . S
C631 C632 1.369 . S
C632 C631 1.369 . S
C632 C633 1.408 . S
C632 H654 0.930 . S
C633 C628 1.348 . S
C633 C632 1.408 . S
C633 H655 0.930 . S
C634 O644 1.281 . S
C634 O645 1.254 . S
C635 O646 1.236 . S
C635 O647 1.266 . S
O636 Tb616 2.484 . S
O636 C618 1.248 . S
O637 Tb616 2.440 . S
O637 C618 1.266 . S
O638 Tb616 2.658 . S
O638 Tb617 2.325 . S
O638 C625 1.281 . S
O639 Tb616 2.409 . S
O639 C625 1.254 . S
O640 Tb616 2.378 . S
O640 C626 1.236 . S
O641 Tb617 2.341 . S
O641 C626 1.266 . S
O642 Tb617 2.484 . S
O642 C627 1.248 . S
O643 Tb617 2.440 . S
O643 C627 1.266 . S
O644 Tb616 2.325 . S
O644 Tb617 2.658 . S
O644 C634 1.281 . S
O645 Tb617 2.409 . S
O645 C634 1.254 . S
O646 Tb617 2.378 . S
O646 C635 1.236 . S
O647 Tb616 2.341 . S
O647 C635 1.266 . S
H648 C620 0.929 . S
H649 C621 0.931 . S
H650 C623 0.930 . S
H651 C624 0.930 . S
H652 C629 0.929 . S
H653 C630 0.931 . S
H654 C632 0.930 . S
H655 C633 0.930 . S
Tb656 C658 2.809 . S
Tb656 O676 2.484 . S
Tb656 O677 2.440 . S
Tb656 O678 2.658 . S
Tb656 O679 2.409 . S
Tb656 O680 2.378 . S
Tb656 O684 2.325 . S
Tb656 O687 2.341 . S
Tb657 C667 2.809 . S
Tb657 O678 2.325 . S
Tb657 O681 2.341 . S
Tb657 O682 2.484 . S
Tb657 O683 2.440 . S
Tb657 O684 2.658 . S
Tb657 O685 2.409 . S
Tb657 O686 2.378 . S
C658 Tb656 2.809 . S
C658 C659 1.514 . S
C658 O676 1.248 . S
C658 O677 1.266 . S
C659 C658 1.514 . S
C659 C660 1.359 . S
C659 C664 1.348 . S
C660 C659 1.359 . S
C660 C661 1.380 . S
C660 H688 0.929 . S
C661 C660 1.380 . S
C661 C662 1.347 . S
C661 H689 0.931 1_554 S
C662 C661 1.347 . S
C662 C663 1.369 . S
C663 C662 1.369 . S
C663 C664 1.408 . S
C663 H690 0.930 . S
C664 C659 1.348 . S
C664 C663 1.408 . S
C664 H691 0.930 . S
C665 O678 1.281 . S
C665 O679 1.254 . S
C666 O680 1.236 . S
C666 O681 1.266 . S
C667 Tb657 2.809 . S
C667 C668 1.514 . S
C667 O682 1.248 . S
C667 O683 1.266 . S
C668 C667 1.514 . S
C668 C669 1.359 . S
C668 C673 1.348 . S
C669 C668 1.359 . S
C669 C670 1.380 . S
C669 H692 0.929 . S
C670 C669 1.380 . S
C670 C671 1.347 . S
C670 H693 0.931 . S
C671 C670 1.347 . S
C671 C672 1.369 . S
C672 C671 1.369 . S
C672 C673 1.408 . S
C672 H694 0.930 . S
C673 C668 1.348 . S
C673 C672 1.408 . S
C673 H695 0.930 . S
C674 O684 1.281 . S
C674 O685 1.254 . S
C675 O686 1.236 . S
C675 O687 1.266 . S
O676 Tb656 2.484 . S
O676 C658 1.248 . S
O677 Tb656 2.440 . S
O677 C658 1.266 . S
O678 Tb656 2.658 . S
O678 Tb657 2.325 . S
O678 C665 1.281 . S
O679 Tb656 2.409 . S
O679 C665 1.254 . S
O680 Tb656 2.378 . S
O680 C666 1.236 . S
O681 Tb657 2.341 . S
O681 C666 1.266 . S
O682 Tb657 2.484 . S
O682 C667 1.248 . S
O683 Tb657 2.440 . S
O683 C667 1.266 . S
O684 Tb656 2.325 . S
O684 Tb657 2.658 . S
O684 C674 1.281 . S
O685 Tb657 2.409 . S
O685 C674 1.254 . S
O686 Tb657 2.378 . S
O686 C675 1.236 . S
O687 Tb656 2.341 . S
O687 C675 1.266 . S
H688 C660 0.929 . S
H689 C661 0.931 1_556 S
H690 C663 0.930 . S
H691 C664 0.930 . S
H692 C669 0.929 . S
H693 C670 0.931 . S
H694 C672 0.930 . S
H695 C673 0.930 . S
Tb696 C698 2.809 . S
Tb696 O716 2.484 . S
Tb696 O717 2.440 . S
Tb696 O718 2.658 . S
Tb696 O719 2.409 . S
Tb696 O720 2.378 . S
Tb696 O724 2.325 . S
Tb696 O727 2.341 . S
Tb697 C707 2.809 . S
Tb697 O718 2.325 . S
Tb697 O721 2.341 . S
Tb697 O722 2.484 . S
Tb697 O723 2.440 . S
Tb697 O724 2.658 . S
Tb697 O725 2.409 . S
Tb697 O726 2.378 . S
C698 Tb696 2.809 . S
C698 C699 1.514 . S
C698 O716 1.248 . S
C698 O717 1.266 . S
C699 C698 1.514 . S
C699 C700 1.359 . S
C699 C704 1.348 . S
C700 C699 1.359 . S
C700 C701 1.380 . S
C700 H728 0.929 . S
C701 C700 1.380 . S
C701 C702 1.347 . S
C701 H729 0.931 . S
C702 C701 1.347 . S
C702 C703 1.369 . S
C703 C702 1.369 . S
C703 C704 1.408 . S
C703 H730 0.930 . S
C704 C699 1.348 . S
C704 C703 1.408 . S
C704 H731 0.930 . S
C705 O718 1.281 . S
C705 O719 1.254 . S
C706 O720 1.236 . S
C706 O721 1.266 . S
C707 Tb697 2.809 . S
C707 C708 1.514 . S
C707 O722 1.248 . S
C707 O723 1.266 . S
C708 C707 1.514 . S
C708 C709 1.359 . S
C708 C713 1.348 . S
C709 C708 1.359 . S
C709 C710 1.380 . S
C709 H732 0.929 . S
C710 C709 1.380 . S
C710 C711 1.347 . S
C710 H733 0.931 . S
C711 C710 1.347 . S
C711 C712 1.369 . S
C712 C711 1.369 . S
C712 C713 1.408 . S
C712 H734 0.930 . S
C713 C708 1.348 . S
C713 C712 1.408 . S
C713 H735 0.930 . S
C714 O724 1.281 . S
C714 O725 1.254 . S
C715 O726 1.236 . S
C715 O727 1.266 . S
O716 Tb696 2.484 . S
O716 C698 1.248 . S
O717 Tb696 2.440 . S
O717 C698 1.266 . S
O718 Tb696 2.658 . S
O718 Tb697 2.325 . S
O718 C705 1.281 . S
O719 Tb696 2.409 . S
O719 C705 1.254 . S
O720 Tb696 2.378 . S
O720 C706 1.236 . S
O721 Tb697 2.341 . S
O721 C706 1.266 . S
O722 Tb697 2.484 . S
O722 C707 1.248 . S
O723 Tb697 2.440 . S
O723 C707 1.266 . S
O724 Tb696 2.325 . S
O724 Tb697 2.658 . S
O724 C714 1.281 . S
O725 Tb697 2.409 . S
O725 C714 1.254 . S
O726 Tb697 2.378 . S
O726 C715 1.236 . S
O727 Tb696 2.341 . S
O727 C715 1.266 . S
H728 C700 0.929 . S
H729 C701 0.931 . S
H730 C703 0.930 . S
H731 C704 0.930 . S
H732 C709 0.929 . S
H733 C710 0.931 . S
H734 C712 0.930 . S
H735 C713 0.930 . S
Tb736 C738 2.760 1_455 S
Tb736 O756 2.452 1_455 S
Tb736 O757 2.386 1_455 S
Tb736 O758 2.691 . S
Tb736 O759 2.401 . S
Tb736 O760 2.366 1_455 S
Tb736 O764 2.361 . S
Tb736 O767 2.386 . S
Tb737 C747 2.809 . S
Tb737 O758 2.325 . S
Tb737 O761 2.341 . S
Tb737 O762 2.484 . S
Tb737 O763 2.440 . S
Tb737 O764 2.658 . S
Tb737 O765 2.409 . S
Tb737 O766 2.378 . S
C738 Tb736 2.760 1_655 S
C738 C739 1.514 . S
C738 O756 1.248 . S
C738 O757 1.266 . S
C739 C738 1.514 . S
C739 C740 1.359 . S
C739 C744 1.348 . S
C740 C739 1.359 . S
C740 C741 1.380 . S
C740 H768 0.929 . S
C741 C740 1.380 . S
C741 C742 1.347 . S
C741 H769 0.931 . S
C742 C741 1.347 . S
C742 C743 1.369 . S
C743 C742 1.369 . S
C743 C744 1.408 . S
C743 H770 0.930 . S
C744 C739 1.348 . S
C744 C743 1.408 . S
C744 H771 0.930 . S
C745 O758 1.281 . S
C745 O759 1.254 . S
C746 O760 1.236 1_455 S
C746 O761 1.266 . S
C747 Tb737 2.809 . S
C747 C748 1.514 . S
C747 O762 1.248 . S
C747 O763 1.266 . S
C748 C747 1.514 . S
C748 C749 1.359 . S
C748 C753 1.348 . S
C749 C748 1.359 . S
C749 C750 1.380 . S
C749 H772 0.929 . S
C750 C749 1.380 . S
C750 C751 1.347 . S
C750 H773 0.931 . S
C751 C750 1.347 . S
C751 C752 1.369 . S
C752 C751 1.369 . S
C752 C753 1.408 . S
C752 H774 0.930 . S
C753 C748 1.348 . S
C753 C752 1.408 . S
C753 H775 0.930 . S
C754 O764 1.281 . S
C754 O765 1.254 . S
C755 O766 1.236 . S
C755 O767 1.266 . S
O756 Tb736 2.452 1_655 S
O756 C738 1.248 . S
O757 Tb736 2.386 1_655 S
O757 C738 1.266 . S
O758 Tb736 2.691 . S
O758 Tb737 2.325 . S
O758 C745 1.281 . S
O759 Tb736 2.401 . S
O759 C745 1.254 . S
O760 Tb736 2.366 1_655 S
O760 C746 1.236 1_655 S
O761 Tb737 2.341 . S
O761 C746 1.266 . S
O762 Tb737 2.484 . S
O762 C747 1.248 . S
O763 Tb737 2.440 . S
O763 C747 1.266 . S
O764 Tb736 2.361 . S
O764 Tb737 2.658 . S
O764 C754 1.281 . S
O765 Tb737 2.409 . S
O765 C754 1.254 . S
O766 Tb737 2.378 . S
O766 C755 1.236 . S
O767 Tb736 2.386 . S
O767 C755 1.266 . S
H768 C740 0.929 . S
H769 C741 0.931 . S
H770 C743 0.930 . S
H771 C744 0.930 . S
H772 C749 0.929 . S
H773 C750 0.931 . S
H774 C752 0.930 . S
H775 C753 0.930 . S
Tb776 C778 2.809 . S
Tb776 O796 2.484 . S
Tb776 O797 2.440 . S
Tb776 O798 2.658 . S
Tb776 O799 2.409 . S
Tb776 O800 2.378 . S
Tb776 O804 2.325 . S
Tb776 O807 2.341 . S
Tb777 C787 2.809 . S
Tb777 O798 2.325 . S
Tb777 O801 2.341 . S
Tb777 O802 2.484 . S
Tb777 O803 2.440 . S
Tb777 O804 2.658 . S
Tb777 O805 2.409 . S
Tb777 O806 2.378 . S
C778 Tb776 2.809 . S
C778 C779 1.514 . S
C778 O796 1.248 . S
C778 O797 1.266 . S
C779 C778 1.514 . S
C779 C780 1.359 . S
C779 C784 1.348 . S
C780 C779 1.359 . S
C780 C781 1.380 . S
C780 H808 0.929 . S
C781 C780 1.380 . S
C781 C782 1.347 . S
C781 H809 0.931 . S
C782 C781 1.347 . S
C782 C783 1.369 . S
C783 C782 1.369 . S
C783 C784 1.408 . S
C783 H810 0.930 . S
C784 C779 1.348 . S
C784 C783 1.408 . S
C784 H811 0.930 . S
C785 O798 1.281 . S
C785 O799 1.254 . S
C786 O800 1.236 . S
C786 O801 1.266 . S
C787 Tb777 2.809 . S
C787 C788 1.514 . S
C787 O802 1.248 . S
C787 O803 1.266 . S
C788 C787 1.514 . S
C788 C789 1.359 . S
C788 C793 1.348 . S
C789 C788 1.359 . S
C789 C790 1.380 . S
C789 H812 0.929 . S
C790 C789 1.380 . S
C790 C791 1.347 . S
C790 H813 0.931 . S
C791 C790 1.347 . S
C791 C792 1.369 . S
C792 C791 1.369 . S
C792 C793 1.408 . S
C792 H814 0.930 . S
C793 C788 1.348 . S
C793 C792 1.408 . S
C793 H815 0.930 . S
C794 O804 1.281 . S
C794 O805 1.254 . S
C795 O806 1.236 . S
C795 O807 1.266 . S
O796 Tb776 2.484 . S
O796 C778 1.248 . S
O797 Tb776 2.440 . S
O797 C778 1.266 . S
O798 Tb776 2.658 . S
O798 Tb777 2.325 . S
O798 C785 1.281 . S
O799 Tb776 2.409 . S
O799 C785 1.254 . S
O800 Tb776 2.378 . S
O800 C786 1.236 . S
O801 Tb777 2.341 . S
O801 C786 1.266 . S
O802 Tb777 2.484 . S
O802 C787 1.248 . S
O803 Tb777 2.440 . S
O803 C787 1.266 . S
O804 Tb776 2.325 . S
O804 Tb777 2.658 . S
O804 C794 1.281 . S
O805 Tb777 2.409 . S
O805 C794 1.254 . S
O806 Tb777 2.378 . S
O806 C795 1.236 . S
O807 Tb776 2.341 . S
O807 C795 1.266 . S
H808 C780 0.929 . S
H809 C781 0.931 . S
H810 C783 0.930 . S
H811 C784 0.930 . S
H812 C789 0.929 . S
H813 C790 0.931 . S
H814 C792 0.930 . S
H815 C793 0.930 . S
Tb816 C818 2.809 . S
Tb816 O836 2.484 . S
Tb816 O837 2.440 . S
Tb816 O838 2.658 . S
Tb816 O839 2.409 . S
Tb816 O840 2.378 . S
Tb816 O844 2.325 . S
Tb816 O847 2.341 . S
Tb817 C827 2.809 . S
Tb817 O838 2.325 . S
Tb817 O841 2.341 . S
Tb817 O842 2.484 . S
Tb817 O843 2.440 . S
Tb817 O844 2.658 . S
Tb817 O845 2.409 . S
Tb817 O846 2.378 . S
C818 Tb816 2.809 . S
C818 C819 1.514 . S
C818 O836 1.248 . S
C818 O837 1.266 . S
C819 C818 1.514 . S
C819 C820 1.359 . S
C819 C824 1.348 . S
C820 C819 1.359 . S
C820 C821 1.380 . S
C820 H848 0.929 . S
C821 C820 1.380 . S
C821 C822 1.347 . S
C821 H849 0.931 . S
C822 C821 1.347 . S
C822 C823 1.369 . S
C823 C822 1.369 . S
C823 C824 1.408 . S
C823 H850 0.930 . S
C824 C819 1.348 . S
C824 C823 1.408 . S
C824 H851 0.930 . S
C825 O838 1.281 . S
C825 O839 1.254 . S
C826 O840 1.236 . S
C826 O841 1.266 . S
C827 Tb817 2.809 . S
C827 C828 1.514 . S
C827 O842 1.248 . S
C827 O843 1.266 . S
C828 C827 1.514 . S
C828 C829 1.359 . S
C828 C833 1.348 . S
C829 C828 1.359 . S
C829 C830 1.380 . S
C829 H852 0.929 . S
C830 C829 1.380 . S
C830 C831 1.347 . S
C830 H853 0.931 . S
C831 C830 1.347 . S
C831 C832 1.369 . S
C832 C831 1.369 . S
C832 C833 1.408 . S
C832 H854 0.930 . S
C833 C828 1.348 . S
C833 C832 1.408 . S
C833 H855 0.930 . S
C834 O844 1.281 . S
C834 O845 1.254 . S
C835 O846 1.236 . S
C835 O847 1.266 . S
O836 Tb816 2.484 . S
O836 C818 1.248 . S
O837 Tb816 2.440 . S
O837 C818 1.266 . S
O838 Tb816 2.658 . S
O838 Tb817 2.325 . S
O838 C825 1.281 . S
O839 Tb816 2.409 . S
O839 C825 1.254 . S
O840 Tb816 2.378 . S
O840 C826 1.236 . S
O841 Tb817 2.341 . S
O841 C826 1.266 . S
O842 Tb817 2.484 . S
O842 C827 1.248 . S
O843 Tb817 2.440 . S
O843 C827 1.266 . S
O844 Tb816 2.325 . S
O844 Tb817 2.658 . S
O844 C834 1.281 . S
O845 Tb817 2.409 . S
O845 C834 1.254 . S
O846 Tb817 2.378 . S
O846 C835 1.236 . S
O847 Tb816 2.341 . S
O847 C835 1.266 . S
H848 C820 0.929 . S
H849 C821 0.931 . S
H850 C823 0.930 . S
H851 C824 0.930 . S
H852 C829 0.929 . S
H853 C830 0.931 . S
H854 C832 0.930 . S
H855 C833 0.930 . S
Tb856 C858 2.809 . S
Tb856 O876 2.484 . S
Tb856 O877 2.440 . S
Tb856 O878 2.658 . S
Tb856 O879 2.409 . S
Tb856 O880 2.378 . S
Tb856 O884 2.325 . S
Tb856 O887 2.341 . S
Tb857 C867 2.809 . S
Tb857 O878 2.325 . S
Tb857 O881 2.341 . S
Tb857 O882 2.484 . S
Tb857 O883 2.440 . S
Tb857 O884 2.658 . S
Tb857 O885 2.409 . S
Tb857 O886 2.378 . S
C858 Tb856 2.809 . S
C858 C859 1.514 . S
C858 O876 1.248 . S
C858 O877 1.266 . S
C859 C858 1.514 . S
C859 C860 1.359 . S
C859 C864 1.348 . S
C860 C859 1.359 . S
C860 C861 1.380 . S
C860 H888 0.929 . S
C861 C860 1.380 . S
C861 C862 1.347 . S
C861 H889 0.931 . S
C862 C861 1.347 . S
C862 C863 1.369 . S
C863 C862 1.369 . S
C863 C864 1.408 . S
C863 H890 0.930 . S
C864 C859 1.348 . S
C864 C863 1.408 . S
C864 H891 0.930 . S
C865 O878 1.281 . S
C865 O879 1.254 . S
C866 O880 1.236 . S
C866 O881 1.266 . S
C867 Tb857 2.809 . S
C867 C868 1.514 . S
C867 O882 1.248 . S
C867 O883 1.266 . S
C868 C867 1.514 . S
C868 C869 1.359 . S
C868 C873 1.348 . S
C869 C868 1.359 . S
C869 C870 1.380 . S
C869 H892 0.929 . S
C870 C869 1.380 . S
C870 C871 1.347 . S
C870 H893 0.931 . S
C871 C870 1.347 . S
C871 C872 1.369 . S
C872 C871 1.369 . S
C872 C873 1.408 . S
C872 H894 0.930 . S
C873 C868 1.348 . S
C873 C872 1.408 . S
C873 H895 0.930 . S
C874 O884 1.281 . S
C874 O885 1.254 . S
C875 O886 1.236 . S
C875 O887 1.266 . S
O876 Tb856 2.484 . S
O876 C858 1.248 . S
O877 Tb856 2.440 . S
O877 C858 1.266 . S
O878 Tb856 2.658 . S
O878 Tb857 2.325 . S
O878 C865 1.281 . S
O879 Tb856 2.409 . S
O879 C865 1.254 . S
O880 Tb856 2.378 . S
O880 C866 1.236 . S
O881 Tb857 2.341 . S
O881 C866 1.266 . S
O882 Tb857 2.484 . S
O882 C867 1.248 . S
O883 Tb857 2.440 . S
O883 C867 1.266 . S
O884 Tb856 2.325 . S
O884 Tb857 2.658 . S
O884 C874 1.281 . S
O885 Tb857 2.409 . S
O885 C874 1.254 . S
O886 Tb857 2.378 . S
O886 C875 1.236 . S
O887 Tb856 2.341 . S
O887 C875 1.266 . S
H888 C860 0.929 . S
H889 C861 0.931 . S
H890 C863 0.930 . S
H891 C864 0.930 . S
H892 C869 0.929 . S
H893 C870 0.931 . S
H894 C872 0.930 . S
H895 C873 0.930 . S
Tb896 C898 2.809 . S
Tb896 O916 2.484 . S
Tb896 O917 2.440 . S
Tb896 O918 2.658 . S
Tb896 O919 2.409 . S
Tb896 O920 2.378 . S
Tb896 O924 2.325 . S
Tb896 O927 2.341 . S
Tb897 C907 2.809 . S
Tb897 O918 2.325 . S
Tb897 O921 2.341 . S
Tb897 O922 2.484 . S
Tb897 O923 2.440 . S
Tb897 O924 2.658 . S
Tb897 O925 2.409 . S
Tb897 O926 2.378 . S
C898 Tb896 2.809 . S
C898 C899 1.514 . S
C898 O916 1.248 . S
C898 O917 1.266 . S
C899 C898 1.514 . S
C899 C900 1.359 . S
C899 C904 1.348 . S
C900 C899 1.359 . S
C900 C901 1.380 . S
C900 H928 0.929 . S
C901 C900 1.380 . S
C901 C902 1.347 . S
C901 H929 0.931 . S
C902 C901 1.347 . S
C902 C903 1.369 . S
C903 C902 1.369 . S
C903 C904 1.408 . S
C903 H930 0.930 . S
C904 C899 1.348 . S
C904 C903 1.408 . S
C904 H931 0.930 . S
C905 O918 1.281 . S
C905 O919 1.254 . S
C906 O920 1.236 . S
C906 O921 1.266 . S
C907 Tb897 2.809 . S
C907 C908 1.514 . S
C907 O922 1.248 . S
C907 O923 1.266 . S
C908 C907 1.514 . S
C908 C909 1.359 . S
C908 C913 1.348 . S
C909 C908 1.359 . S
C909 C910 1.380 . S
C909 H932 0.929 . S
C910 C909 1.380 . S
C910 C911 1.347 . S
C910 H933 0.931 . S
C911 C910 1.347 . S
C911 C912 1.369 . S
C912 C911 1.369 . S
C912 C913 1.408 . S
C912 H934 0.930 . S
C913 C908 1.348 . S
C913 C912 1.408 . S
C913 H935 0.930 . S
C914 O924 1.281 . S
C914 O925 1.254 . S
C915 O926 1.236 . S
C915 O927 1.266 . S
O916 Tb896 2.484 . S
O916 C898 1.248 . S
O917 Tb896 2.440 . S
O917 C898 1.266 . S
O918 Tb896 2.658 . S
O918 Tb897 2.325 . S
O918 C905 1.281 . S
O919 Tb896 2.409 . S
O919 C905 1.254 . S
O920 Tb896 2.378 . S
O920 C906 1.236 . S
O921 Tb897 2.341 . S
O921 C906 1.266 . S
O922 Tb897 2.484 . S
O922 C907 1.248 . S
O923 Tb897 2.440 . S
O923 C907 1.266 . S
O924 Tb896 2.325 . S
O924 Tb897 2.658 . S
O924 C914 1.281 . S
O925 Tb897 2.409 . S
O925 C914 1.254 . S
O926 Tb897 2.378 . S
O926 C915 1.236 . S
O927 Tb896 2.341 . S
O927 C915 1.266 . S
H928 C900 0.929 . S
H929 C901 0.931 . S
H930 C903 0.930 . S
H931 C904 0.930 . S
H932 C909 0.929 . S
H933 C910 0.931 . S
H934 C912 0.930 . S
H935 C913 0.930 . S
Tb936 C938 2.809 . S
Tb936 O956 2.484 . S
Tb936 O957 2.440 . S
Tb936 O958 2.658 . S
Tb936 O959 2.409 . S
Tb936 O960 2.378 . S
Tb936 O964 2.325 . S
Tb936 O967 2.341 . S
Tb937 C947 2.809 1_455 S
Tb937 O958 2.325 . S
Tb937 O961 2.341 . S
Tb937 O962 2.484 1_455 S
Tb937 O963 2.440 1_455 S
Tb937 O964 2.658 . S
Tb937 O965 2.409 . S
Tb937 O966 2.378 . S
C938 Tb936 2.809 . S
C938 C939 1.514 . S
C938 O956 1.248 . S
C938 O957 1.266 . S
C939 C938 1.514 . S
C939 C940 1.359 . S
C939 C944 1.348 . S
C940 C939 1.359 . S
C940 C941 1.380 . S
C940 H968 0.929 . S
C941 C940 1.380 . S
C941 C942 1.347 . S
C941 H969 0.931 . S
C942 C941 1.347 . S
C942 C943 1.369 . S
C943 C942 1.369 . S
C943 C944 1.408 . S
C943 H970 0.930 . S
C944 C939 1.348 . S
C944 C943 1.408 . S
C944 H971 0.930 . S
C945 O958 1.281 . S
C945 O959 1.254 . S
C946 O960 1.236 . S
C946 O961 1.266 . S
C947 Tb937 2.809 1_655 S
C947 C948 1.514 . S
C947 O962 1.248 . S
C947 O963 1.266 . S
C948 C947 1.514 . S
C948 C949 1.359 . S
C948 C953 1.348 . S
C949 C948 1.359 . S
C949 C950 1.380 . S
C949 H972 0.929 . S
C950 C949 1.380 . S
C950 C951 1.347 . S
C950 H973 0.931 . S
C951 C950 1.347 . S
C951 C952 1.369 . S
C952 C951 1.369 . S
C952 C953 1.408 . S
C952 H974 0.930 . S
C953 C948 1.348 . S
C953 C952 1.408 . S
C953 H975 0.930 . S
C954 O964 1.281 . S
C954 O965 1.254 . S
C955 O966 1.236 . S
C955 O967 1.266 . S
O956 Tb936 2.484 . S
O956 C938 1.248 . S
O957 Tb936 2.440 . S
O957 C938 1.266 . S
O958 Tb936 2.658 . S
O958 Tb937 2.325 . S
O958 C945 1.281 . S
O959 Tb936 2.409 . S
O959 C945 1.254 . S
O960 Tb936 2.378 . S
O960 C946 1.236 . S
O961 Tb937 2.341 . S
O961 C946 1.266 . S
O962 Tb937 2.484 1_655 S
O962 C947 1.248 . S
O963 Tb937 2.440 1_655 S
O963 C947 1.266 . S
O964 Tb936 2.325 . S
O964 Tb937 2.658 . S
O964 C954 1.281 . S
O965 Tb937 2.409 . S
O965 C954 1.254 . S
O966 Tb937 2.378 . S
O966 C955 1.236 . S
O967 Tb936 2.341 . S
O967 C955 1.266 . S
H968 C940 0.929 . S
H969 C941 0.931 . S
H970 C943 0.930 . S
H971 C944 0.930 . S
H972 C949 0.929 . S
H973 C950 0.931 . S
H974 C952 0.930 . S
H975 C953 0.930 . S
H976 C982 0.930 . S
H977 C985 0.952 . S
H978 C986 0.930 . S
H979 C987 0.930 . S
H980 C990 0.930 . S
H981 C991 0.930 . S
C982 H976 0.930 . S
C982 C983 1.355 . S
C982 C984 1.415 . S
C983 C982 1.355 . S
C983 C985 1.424 1_454 S
C984 C982 1.415 . S
C984 C989 1.425 . S
C984 C991 1.409 . S
C985 H977 0.952 . S
C985 C983 1.424 1_656 S
C985 C986 1.337 1_556 S
C986 H978 0.930 . S
C986 C985 1.337 1_554 S
C986 C989 1.409 1_655 S
C987 H979 0.930 . S
C987 C988 1.355 . S
C987 C989 1.415 . S
C988 C987 1.355 . S
C988 C990 1.419 . S
C989 C984 1.425 . S
C989 C986 1.409 1_455 S
C989 C987 1.415 . S
C990 H980 0.930 . S
C990 C988 1.419 . S
C990 C991 1.362 . S
C991 H981 0.930 . S
C991 C984 1.409 . S
C991 C990 1.362 . S
H992 C998 0.930 . S
H993 C1001 0.930 . S
H994 C1002 0.930 . S
H995 C1003 0.930 . S
H996 C1006 0.930 . S
H997 C1007 0.930 . S
C998 H992 0.930 . S
C998 C999 1.355 . S
C998 C1000 1.415 . S
C999 C998 1.355 . S
C999 C1001 1.419 . S
C1000 C998 1.415 . S
C1000 C1005 1.425 . S
C1000 C1007 1.409 . S
C1001 H993 0.930 . S
C1001 C999 1.419 . S
C1001 C1002 1.362 . S
C1002 H994 0.930 . S
C1002 C1001 1.362 . S
C1002 C1005 1.409 . S
C1003 H995 0.930 . S
C1003 C1004 1.355 . S
C1003 C1005 1.415 . S
C1004 C1003 1.355 . S
C1004 C1006 1.419 . S
C1005 C1000 1.425 . S
C1005 C1002 1.409 . S
C1005 C1003 1.415 . S
C1006 H996 0.930 . S
C1006 C1004 1.419 . S
C1006 C1007 1.362 . S
C1007 H997 0.930 . S
C1007 C1000 1.409 . S
C1007 C1006 1.362 . S
H1008 C1014 0.930 . S
H1009 C1017 0.930 . S
H1010 C1018 0.930 . S
H1011 C1019 0.930 . S
H1012 C1022 0.930 . S
H1013 C1023 0.930 . S
C1014 H1008 0.930 . S
C1014 C1015 1.355 . S
C1014 C1016 1.415 . S
C1015 C1014 1.355 . S
C1015 C1017 1.419 . S
C1016 C1014 1.415 . S
C1016 C1021 1.425 . S
C1016 C1023 1.409 . S
C1017 H1009 0.930 . S
C1017 C1015 1.419 . S
C1017 C1018 1.362 . S
C1018 H1010 0.930 . S
C1018 C1017 1.362 . S
C1018 C1021 1.409 . S
C1019 H1011 0.930 . S
C1019 C1020 1.355 . S
C1019 C1021 1.415 . S
C1020 C1019 1.355 . S
C1020 C1022 1.419 . S
C1021 C1016 1.425 . S
C1021 C1018 1.409 . S
C1021 C1019 1.415 . S
C1022 H1012 0.930 . S
C1022 C1020 1.419 . S
C1022 C1023 1.362 . S
C1023 H1013 0.930 . S
C1023 C1016 1.409 . S
C1023 C1022 1.362 . S
H1024 C1030 0.930 . S
H1025 C1033 0.930 . S
H1026 C1034 0.930 . S
H1027 C1035 0.930 . S
H1028 C1038 0.930 . S
H1029 C1039 0.930 . S
C1030 H1024 0.930 . S
C1030 C1031 1.355 . S
C1030 C1032 1.415 . S
C1031 C1030 1.355 . S
C1031 C1033 1.419 . S
C1032 C1030 1.415 . S
C1032 C1037 1.425 . S
C1032 C1039 1.409 . S
C1033 H1025 0.930 . S
C1033 C1031 1.419 . S
C1033 C1034 1.362 . S
C1034 H1026 0.930 . S
C1034 C1033 1.362 . S
C1034 C1037 1.409 . S
C1035 H1027 0.930 . S
C1035 C1036 1.355 . S
C1035 C1037 1.415 . S
C1036 C1035 1.355 . S
C1036 C1038 1.419 . S
C1037 C1032 1.425 . S
C1037 C1034 1.409 . S
C1037 C1035 1.415 . S
C1038 H1028 0.930 . S
C1038 C1036 1.419 . S
C1038 C1039 1.362 . S
C1039 H1029 0.930 . S
C1039 C1032 1.409 . S
C1039 C1038 1.362 . S
H1040 C1046 0.930 . S
H1041 C1049 0.930 . S
H1042 C1050 0.930 . S
H1043 C1051 0.930 . S
H1044 C1054 0.930 . S
H1045 C1055 0.930 . S
C1046 H1040 0.930 . S
C1046 C1047 1.355 . S
C1046 C1048 1.415 . S
C1047 C1046 1.355 . S
C1047 C1049 1.419 . S
C1048 C1046 1.415 . S
C1048 C1053 1.425 . S
C1048 C1055 1.409 . S
C1049 H1041 0.930 . S
C1049 C1047 1.419 . S
C1049 C1050 1.362 . S
C1050 H1042 0.930 . S
C1050 C1049 1.362 . S
C1050 C1053 1.409 . S
C1051 H1043 0.930 . S
C1051 C1052 1.355 . S
C1051 C1053 1.415 . S
C1052 C1051 1.355 . S
C1052 C1054 1.419 . S
C1053 C1048 1.425 . S
C1053 C1050 1.409 . S
C1053 C1051 1.415 . S
C1054 H1044 0.930 . S
C1054 C1052 1.419 . S
C1054 C1055 1.362 . S
C1055 H1045 0.930 . S
C1055 C1048 1.409 . S
C1055 C1054 1.362 . S
H1056 C1062 0.930 . S
H1057 C1065 0.930 . S
H1058 C1066 0.930 . S
H1059 C1067 0.930 . S
H1060 C1070 0.930 . S
H1061 C1071 0.930 . S
C1062 H1056 0.930 . S
C1062 C1063 1.355 . S
C1062 C1064 1.415 . S
C1063 C1062 1.355 . S
C1063 C1065 1.419 . S
C1064 C1062 1.415 . S
C1064 C1069 1.425 . S
C1064 C1071 1.409 . S
C1065 H1057 0.930 . S
C1065 C1063 1.419 . S
C1065 C1066 1.362 . S
C1066 H1058 0.930 . S
C1066 C1065 1.362 . S
C1066 C1069 1.409 . S
C1067 H1059 0.930 . S
C1067 C1068 1.355 . S
C1067 C1069 1.415 . S
C1068 C1067 1.355 . S
C1068 C1070 1.419 . S
C1069 C1064 1.425 . S
C1069 C1066 1.409 . S
C1069 C1067 1.415 . S
C1070 H1060 0.930 . S
C1070 C1068 1.419 . S
C1070 C1071 1.362 . S
C1071 H1061 0.930 . S
C1071 C1064 1.409 . S
C1071 C1070 1.362 . S
H1072 C1078 0.930 . S
H1073 C1081 0.930 . S
H1074 C1082 0.930 . S
H1075 C1083 0.930 . S
H1076 C1086 0.930 . S
H1077 C1087 0.930 . S
C1078 H1072 0.930 . S
C1078 C1079 1.355 . S
C1078 C1080 1.415 . S
C1079 C1078 1.355 . S
C1079 C1081 1.419 . S
C1080 C1078 1.415 . S
C1080 C1085 1.425 . S
C1080 C1087 1.409 . S
C1081 H1073 0.930 . S
C1081 C1079 1.419 . S
C1081 C1082 1.362 . S
C1082 H1074 0.930 . S
C1082 C1081 1.362 . S
C1082 C1085 1.409 . S
C1083 H1075 0.930 . S
C1083 C1084 1.355 . S
C1083 C1085 1.415 . S
C1084 C1083 1.355 . S
C1084 C1086 1.419 . S
C1085 C1080 1.425 . S
C1085 C1082 1.409 . S
C1085 C1083 1.415 . S
C1086 H1076 0.930 . S
C1086 C1084 1.419 . S
C1086 C1087 1.362 . S
C1087 H1077 0.930 . S
C1087 C1080 1.409 . S
C1087 C1086 1.362 . S
H1088 C1094 0.930 . S
H1089 C1097 0.930 . S
H1090 C1098 0.930 . S
H1091 C1099 0.930 . S
H1092 C1102 0.930 . S
H1093 C1103 0.930 . S
C1094 H1088 0.930 . S
C1094 C1095 1.355 . S
C1094 C1096 1.415 . S
C1095 C1094 1.355 . S
C1095 C1097 1.419 . S
C1096 C1094 1.415 . S
C1096 C1101 1.425 . S
C1096 C1103 1.409 . S
C1097 H1089 0.930 . S
C1097 C1095 1.419 . S
C1097 C1098 1.362 . S
C1098 H1090 0.930 . S
C1098 C1097 1.362 . S
C1098 C1101 1.409 . S
C1099 H1091 0.930 . S
C1099 C1100 1.355 . S
C1099 C1101 1.415 . S
C1100 C1099 1.355 . S
C1100 C1102 1.419 . S
C1101 C1096 1.425 . S
C1101 C1098 1.409 . S
C1101 C1099 1.415 . S
C1102 H1092 0.930 . S
C1102 C1100 1.419 . S
C1102 C1103 1.362 . S
C1103 H1093 0.930 . S
C1103 C1096 1.409 . S
C1103 C1102 1.362 . S
H1104 C1110 0.930 . S
H1105 C1113 0.930 . S
H1106 C1114 0.930 . S
H1107 C1115 0.930 . S
H1108 C1118 0.930 . S
H1109 C1119 0.930 1_565 S
C1110 H1104 0.930 . S
C1110 C1111 1.355 1_565 S
C1110 C1112 1.415 1_565 S
C1111 C1110 1.355 1_545 S
C1111 C1113 1.419 . S
C1112 C1110 1.415 1_545 S
C1112 C1117 1.425 1_655 S
C1112 C1119 1.409 . S
C1113 H1105 0.930 . S
C1113 C1111 1.419 . S
C1113 C1114 1.362 1_655 S
C1114 H1106 0.930 . S
C1114 C1113 1.362 1_455 S
C1114 C1117 1.409 . S
C1115 H1107 0.930 . S
C1115 C1116 1.355 . S
C1115 C1117 1.415 . S
C1116 C1115 1.355 . S
C1116 C1118 1.419 1_455 S
C1117 C1112 1.425 1_455 S
C1117 C1114 1.409 . S
C1117 C1115 1.415 . S
C1118 H1108 0.930 . S
C1118 C1116 1.419 1_655 S
C1118 C1119 1.362 . S
C1119 H1109 0.930 1_545 S
C1119 C1112 1.409 . S
C1119 C1118 1.362 . S
H1120 C1126 0.930 . S
H1121 C1129 0.930 . S
H1122 C1130 0.930 . S
H1123 C1131 0.930 . S
H1124 C1134 0.930 . S
H1125 C1135 0.930 . S
C1126 H1120 0.930 . S
C1126 C1127 1.355 . S
C1126 C1128 1.415 . S
C1127 C1126 1.355 . S
C1127 C1129 1.419 . S
C1128 C1126 1.415 . S
C1128 C1133 1.425 . S
C1128 C1135 1.409 . S
C1129 H1121 0.930 . S
C1129 C1127 1.419 . S
C1129 C1130 1.362 . S
C1130 H1122 0.930 . S
C1130 C1129 1.362 . S
C1130 C1133 1.409 . S
C1131 H1123 0.930 . S
C1131 C1132 1.355 . S
C1131 C1133 1.415 . S
C1132 C1131 1.355 . S
C1132 C1134 1.419 . S
C1133 C1128 1.425 . S
C1133 C1130 1.409 . S
C1133 C1131 1.415 . S
C1134 H1124 0.930 . S
C1134 C1132 1.419 . S
C1134 C1135 1.362 . S
C1135 H1125 0.930 . S
C1135 C1128 1.409 . S
C1135 C1134 1.362 . S
H1136 C1142 0.930 . S
H1137 C1145 0.930 . S
H1138 C1146 0.930 . S
H1139 C1147 0.930 1_565 S
H1140 C1150 0.930 . S
H1141 C1151 0.930 . S
C1142 H1136 0.930 . S
C1142 C1143 1.355 . S
C1142 C1144 1.415 . S
C1143 C1142 1.355 . S
C1143 C1145 1.419 1_545 S
C1144 C1142 1.415 . S
C1144 C1149 1.425 . S
C1144 C1151 1.409 . S
C1145 H1137 0.930 . S
C1145 C1143 1.419 1_565 S
C1145 C1146 1.362 . S
C1146 H1138 0.930 . S
C1146 C1145 1.362 . S
C1146 C1149 1.409 1_565 S
C1147 H1139 0.930 1_545 S
C1147 C1148 1.355 . S
C1147 C1149 1.415 . S
C1148 C1147 1.355 . S
C1148 C1150 1.419 . S
C1149 C1144 1.425 . S
C1149 C1146 1.409 1_545 S
C1149 C1147 1.415 . S
C1150 H1140 0.930 . S
C1150 C1148 1.419 . S
C1150 C1151 1.362 . S
C1151 H1141 0.930 . S
C1151 C1144 1.409 . S
C1151 C1150 1.362 . S
H1152 C1158 0.930 . S
H1153 C1161 0.930 . S
H1154 C1162 0.930 . S
H1155 C1163 0.930 . S
H1156 C1166 0.930 . S
H1157 C1167 0.930 . S
C1158 H1152 0.930 . S
C1158 C1159 1.355 . S
C1158 C1160 1.415 . S
C1159 C1158 1.355 . S
C1159 C1161 1.419 . S
C1160 C1158 1.415 . S
C1160 C1165 1.425 . S
C1160 C1167 1.409 . S
C1161 H1153 0.930 . S
C1161 C1159 1.419 . S
C1161 C1162 1.362 . S
C1162 H1154 0.930 . S
C1162 C1161 1.362 . S
C1162 C1165 1.409 . S
C1163 H1155 0.930 . S
C1163 C1164 1.355 . S
C1163 C1165 1.415 . S
C1164 C1163 1.355 . S
C1164 C1166 1.419 . S
C1165 C1160 1.425 . S
C1165 C1162 1.409 . S
C1165 C1163 1.415 . S
C1166 H1156 0.930 . S
C1166 C1164 1.419 . S
C1166 C1167 1.362 . S
C1167 H1157 0.930 . S
C1167 C1160 1.409 . S
C1167 C1166 1.362 . S
H1168 C1174 0.960 . S
H1169 C1177 0.930 . S
H1170 C1178 0.930 . S
H1171 C1179 0.930 1_655 S
H1172 C1182 0.930 . S
H1173 C1183 0.936 . S
C1174 H1168 0.960 . S
C1174 C1175 1.328 1_565 S
C1174 C1176 1.409 1_665 S
C1175 C1174 1.328 1_545 S
C1175 C1177 1.419 . S
C1176 C1174 1.409 1_445 S
C1176 C1181 1.412 1_455 S
C1176 C1183 1.422 1_545 S
C1177 H1169 0.930 . S
C1177 C1175 1.419 . S
C1177 C1178 1.362 . S
C1178 H1170 0.930 . S
C1178 C1177 1.362 . S
C1178 C1181 1.409 . S
C1179 H1171 0.930 1_455 S
C1179 C1180 1.355 . S
C1179 C1181 1.415 1_455 S
C1180 C1179 1.355 . S
C1180 C1182 1.419 . S
C1181 C1176 1.412 1_655 S
C1181 C1178 1.409 . S
C1181 C1179 1.415 1_655 S
C1182 H1172 0.930 . S
C1182 C1180 1.419 . S
C1182 C1183 1.362 1_545 S
C1183 H1173 0.936 . S
C1183 C1176 1.422 1_565 S
C1183 C1182 1.362 1_565 S
H1184 C1190 0.930 . S
H1185 C1193 0.930 . S
H1186 C1194 0.930 . S
H1187 C1195 0.930 . S
H1188 C1198 0.930 . S
H1189 C1199 0.930 . S
C1190 H1184 0.930 . S
C1190 C1191 1.355 . S
C1190 C1192 1.415 . S
C1191 C1190 1.355 . S
C1191 C1193 1.419 . S
C1192 C1190 1.415 . S
C1192 C1197 1.425 . S
C1192 C1199 1.409 . S
C1193 H1185 0.930 . S
C1193 C1191 1.419 . S
C1193 C1194 1.362 . S
C1194 H1186 0.930 . S
C1194 C1193 1.362 . S
C1194 C1197 1.409 . S
C1195 H1187 0.930 . S
C1195 C1196 1.355 . S
C1195 C1197 1.415 . S
C1196 C1195 1.355 . S
C1196 C1198 1.419 . S
C1197 C1192 1.425 . S
C1197 C1194 1.409 . S
C1197 C1195 1.415 . S
C1198 H1188 0.930 . S
C1198 C1196 1.419 . S
C1198 C1199 1.362 . S
C1199 H1189 0.930 . S
C1199 C1192 1.409 . S
C1199 C1198 1.362 . S
H1200 C1206 0.930 . S
H1201 C1209 0.930 . S
H1202 C1210 0.930 1_554 S
H1203 C1211 0.930 . S
H1204 C1214 0.930 . S
H1205 C1215 0.930 . S
C1206 H1200 0.930 . S
C1206 C1207 1.355 . S
C1206 C1208 1.415 . S
C1207 C1206 1.355 . S
C1207 C1209 1.419 . S
C1208 C1206 1.415 . S
C1208 C1213 1.425 . S
C1208 C1215 1.409 . S
C1209 H1201 0.930 . S
C1209 C1207 1.419 . S
C1209 C1210 1.362 . S
C1210 H1202 0.930 1_556 S
C1210 C1209 1.362 . S
C1210 C1213 1.409 . S
C1211 H1203 0.930 . S
C1211 C1212 1.355 . S
C1211 C1213 1.415 1_554 S
C1212 C1211 1.355 . S
C1212 C1214 1.419 1_554 S
C1213 C1208 1.425 . S
C1213 C1210 1.409 . S
C1213 C1211 1.415 1_556 S
C1214 H1204 0.930 . S
C1214 C1212 1.419 1_556 S
C1214 C1215 1.362 . S
C1215 H1205 0.930 . S
C1215 C1208 1.409 . S
C1215 C1214 1.362 . S
H1216 C1222 0.930 . S
H1217 C1225 0.930 . S
H1218 C1226 0.930 . S
H1219 C1227 0.930 . S
H1220 C1230 0.930 . S
H1221 C1231 0.930 . S
C1222 H1216 0.930 . S
C1222 C1223 1.355 . S
C1222 C1224 1.415 . S
C1223 C1222 1.355 . S
C1223 C1225 1.419 . S
C1224 C1222 1.415 . S
C1224 C1229 1.425 . S
C1224 C1231 1.409 . S
C1225 H1217 0.930 . S
C1225 C1223 1.419 . S
C1225 C1226 1.362 . S
C1226 H1218 0.930 . S
C1226 C1225 1.362 . S
C1226 C1229 1.409 . S
C1227 H1219 0.930 . S
C1227 C1228 1.355 . S
C1227 C1229 1.415 . S
C1228 C1227 1.355 . S
C1228 C1230 1.419 . S
C1229 C1224 1.425 . S
C1229 C1226 1.409 . S
C1229 C1227 1.415 . S
C1230 H1220 0.930 . S
C1230 C1228 1.419 . S
C1230 C1231 1.362 . S
C1231 H1221 0.930 . S
C1231 C1224 1.409 . S
C1231 C1230 1.362 . S
H1232 C1238 0.930 . S
H1233 C1241 0.930 . S
H1234 C1242 0.930 . S
H1235 C1243 0.930 . S
H1236 C1246 0.930 . S
H1237 C1247 0.930 . S
C1238 H1232 0.930 . S
C1238 C1239 1.355 . S
C1238 C1240 1.415 . S
C1239 C1238 1.355 . S
C1239 C1241 1.419 . S
C1240 C1238 1.415 . S
C1240 C1245 1.425 . S
C1240 C1247 1.409 . S
C1241 H1233 0.930 . S
C1241 C1239 1.419 . S
C1241 C1242 1.362 . S
C1242 H1234 0.930 . S
C1242 C1241 1.362 . S
C1242 C1245 1.409 . S
C1243 H1235 0.930 . S
C1243 C1244 1.355 . S
C1243 C1245 1.415 . S
C1244 C1243 1.355 . S
C1244 C1246 1.419 . S
C1245 C1240 1.425 . S
C1245 C1242 1.409 . S
C1245 C1243 1.415 . S
C1246 H1236 0.930 . S
C1246 C1244 1.419 . S
C1246 C1247 1.362 . S
C1247 H1237 0.930 . S
C1247 C1240 1.409 . S
C1247 C1246 1.362 . S
H1248 C1254 0.930 . S
H1249 C1257 0.930 . S
H1250 C1258 0.930 . S
H1251 C1259 0.930 . S
H1252 C1262 0.930 . S
H1253 C1263 0.930 . S
C1254 H1248 0.930 . S
C1254 C1255 1.355 . S
C1254 C1256 1.415 . S
C1255 C1254 1.355 . S
C1255 C1257 1.419 . S
C1256 C1254 1.415 . S
C1256 C1261 1.425 . S
C1256 C1263 1.409 . S
C1257 H1249 0.930 . S
C1257 C1255 1.419 . S
C1257 C1258 1.362 . S
C1258 H1250 0.930 . S
C1258 C1257 1.362 . S
C1258 C1261 1.409 . S
C1259 H1251 0.930 . S
C1259 C1260 1.355 . S
C1259 C1261 1.415 . S
C1260 C1259 1.355 . S
C1260 C1262 1.419 . S
C1261 C1256 1.425 . S
C1261 C1258 1.409 . S
C1261 C1259 1.415 . S
C1262 H1252 0.930 . S
C1262 C1260 1.419 . S
C1262 C1263 1.362 . S
C1263 H1253 0.930 . S
C1263 C1256 1.409 . S
C1263 C1262 1.362 . S
H1264 C1270 0.930 . S
H1265 C1273 0.930 . S
H1266 C1274 0.930 . S
H1267 C1275 0.930 . S
H1268 C1278 0.930 . S
H1269 C1279 0.930 . S
C1270 H1264 0.930 . S
C1270 C1271 1.355 . S
C1270 C1272 1.415 . S
C1271 C1270 1.355 . S
C1271 C1273 1.419 . S
C1272 C1270 1.415 . S
C1272 C1277 1.425 . S
C1272 C1279 1.409 . S
C1273 H1265 0.930 . S
C1273 C1271 1.419 . S
C1273 C1274 1.362 . S
C1274 H1266 0.930 . S
C1274 C1273 1.362 . S
C1274 C1277 1.409 . S
C1275 H1267 0.930 . S
C1275 C1276 1.355 . S
C1275 C1277 1.415 . S
C1276 C1275 1.355 . S
C1276 C1278 1.419 . S
C1277 C1272 1.425 . S
C1277 C1274 1.409 . S
C1277 C1275 1.415 . S
C1278 H1268 0.930 . S
C1278 C1276 1.419 . S
C1278 C1279 1.362 . S
C1279 H1269 0.930 . S
C1279 C1272 1.409 . S
C1279 C1278 1.362 . S
H1280 C1286 0.930 . S
H1281 C1289 0.930 . S
H1282 C1290 0.930 . S
H1283 C1291 0.930 . S
H1284 C1294 0.930 . S
H1285 C1295 0.930 . S
C1286 H1280 0.930 . S
C1286 C1287 1.355 . S
C1286 C1288 1.415 . S
C1287 C1286 1.355 . S
C1287 C1289 1.419 . S
C1288 C1286 1.415 . S
C1288 C1293 1.425 . S
C1288 C1295 1.409 . S
C1289 H1281 0.930 . S
C1289 C1287 1.419 . S
C1289 C1290 1.362 . S
C1290 H1282 0.930 . S
C1290 C1289 1.362 . S
C1290 C1293 1.409 . S
C1291 H1283 0.930 . S
C1291 C1292 1.355 . S
C1291 C1293 1.415 . S
C1292 C1291 1.355 . S
C1292 C1294 1.419 . S
C1293 C1288 1.425 . S
C1293 C1290 1.409 . S
C1293 C1291 1.415 . S
C1294 H1284 0.930 . S
C1294 C1292 1.419 . S
C1294 C1295 1.362 . S
C1295 H1285 0.930 . S
C1295 C1288 1.409 . S
C1295 C1294 1.362 . S
H1296 C1302 0.930 . S
H1297 C1305 0.930 . S
H1298 C1306 0.930 . S
H1299 C1307 0.930 . S
H1300 C1310 0.930 . S
H1301 C1311 0.930 . S
C1302 H1296 0.930 . S
C1302 C1303 1.355 . S
C1302 C1304 1.415 . S
C1303 C1302 1.355 . S
C1303 C1305 1.419 . S
C1304 C1302 1.415 . S
C1304 C1309 1.425 . S
C1304 C1311 1.409 . S
C1305 H1297 0.930 . S
C1305 C1303 1.419 . S
C1305 C1306 1.362 . S
C1306 H1298 0.930 . S
C1306 C1305 1.362 . S
C1306 C1309 1.409 . S
C1307 H1299 0.930 . S
C1307 C1308 1.355 . S
C1307 C1309 1.415 . S
C1308 C1307 1.355 . S
C1308 C1310 1.419 . S
C1309 C1304 1.425 . S
C1309 C1306 1.409 . S
C1309 C1307 1.415 . S
C1310 H1300 0.930 . S
C1310 C1308 1.419 . S
C1310 C1311 1.362 . S
C1311 H1301 0.930 . S
C1311 C1304 1.409 . S
C1311 C1310 1.362 . S
H1312 C1318 0.930 . S
H1313 C1321 0.930 . S
H1314 C1322 0.930 . S
H1315 C1323 0.930 . S
H1316 C1326 0.930 . S
H1317 C1327 0.930 . S
C1318 H1312 0.930 . S
C1318 C1319 1.355 . S
C1318 C1320 1.415 . S
C1319 C1318 1.355 . S
C1319 C1321 1.419 . S
C1320 C1318 1.415 . S
C1320 C1325 1.425 . S
C1320 C1327 1.409 . S
C1321 H1313 0.930 . S
C1321 C1319 1.419 . S
C1321 C1322 1.362 . S
C1322 H1314 0.930 . S
C1322 C1321 1.362 . S
C1322 C1325 1.409 . S
C1323 H1315 0.930 . S
C1323 C1324 1.355 . S
C1323 C1325 1.415 . S
C1324 C1323 1.355 . S
C1324 C1326 1.419 . S
C1325 C1320 1.425 . S
C1325 C1322 1.409 . S
C1325 C1323 1.415 . S
C1326 H1316 0.930 . S
C1326 C1324 1.419 . S
C1326 C1327 1.362 . S
C1327 H1317 0.930 . S
C1327 C1320 1.409 . S
C1327 C1326 1.362 . S
H1328 C1334 0.930 . S
H1329 C1337 0.930 . S
H1330 C1338 0.930 . S
H1331 C1339 0.930 . S
H1332 C1342 0.930 . S
H1333 C1343 0.930 . S
C1334 H1328 0.930 . S
C1334 C1335 1.355 . S
C1334 C1336 1.415 . S
C1335 C1334 1.355 . S
C1335 C1337 1.419 . S
C1336 C1334 1.415 . S
C1336 C1341 1.425 . S
C1336 C1343 1.409 . S
C1337 H1329 0.930 . S
C1337 C1335 1.419 . S
C1337 C1338 1.362 . S
C1338 H1330 0.930 . S
C1338 C1337 1.362 . S
C1338 C1341 1.409 . S
C1339 H1331 0.930 . S
C1339 C1340 1.355 . S
C1339 C1341 1.415 . S
C1340 C1339 1.355 . S
C1340 C1342 1.419 . S
C1341 C1336 1.425 . S
C1341 C1338 1.409 . S
C1341 C1339 1.415 . S
C1342 H1332 0.930 . S
C1342 C1340 1.419 . S
C1342 C1343 1.362 . S
C1343 H1333 0.930 . S
C1343 C1336 1.409 . S
C1343 C1342 1.362 . S
H1344 C1350 0.930 . S
H1345 C1353 0.930 . S
H1346 C1354 0.930 . S
H1347 C1355 0.930 . S
H1348 C1358 0.930 . S
H1349 C1359 0.930 . S
C1350 H1344 0.930 . S
C1350 C1351 1.355 . S
C1350 C1352 1.415 . S
C1351 C1350 1.355 . S
C1351 C1353 1.419 . S
C1352 C1350 1.415 . S
C1352 C1357 1.425 . S
C1352 C1359 1.409 . S
C1353 H1345 0.930 . S
C1353 C1351 1.419 . S
C1353 C1354 1.362 . S
C1354 H1346 0.930 . S
C1354 C1353 1.362 . S
C1354 C1357 1.409 . S
C1355 H1347 0.930 . S
C1355 C1356 1.355 . S
C1355 C1357 1.415 . S
C1356 C1355 1.355 . S
C1356 C1358 1.419 . S
C1357 C1352 1.425 . S
C1357 C1354 1.409 . S
C1357 C1355 1.415 . S
C1358 H1348 0.930 . S
C1358 C1356 1.419 . S
C1358 C1359 1.362 . S
C1359 H1349 0.930 . S
C1359 C1352 1.409 . S
C1359 C1358 1.362 . S
H1360 C1366 0.930 . S
H1361 C1369 0.930 . S
H1362 C1370 0.930 . S
H1363 C1371 0.930 . S
H1364 C1374 0.930 . S
H1365 C1375 0.930 . S
C1366 H1360 0.930 . S
C1366 C1367 1.355 . S
C1366 C1368 1.415 . S
C1367 C1366 1.355 . S
C1367 C1369 1.419 . S
C1368 C1366 1.415 . S
C1368 C1373 1.425 . S
C1368 C1375 1.409 . S
C1369 H1361 0.930 . S
C1369 C1367 1.419 . S
C1369 C1370 1.362 . S
C1370 H1362 0.930 . S
C1370 C1369 1.362 . S
C1370 C1373 1.409 . S
C1371 H1363 0.930 . S
C1371 C1372 1.355 . S
C1371 C1373 1.415 . S
C1372 C1371 1.355 . S
C1372 C1374 1.419 . S
C1373 C1368 1.425 . S
C1373 C1370 1.409 . S
C1373 C1371 1.415 . S
C1374 H1364 0.930 . S
C1374 C1372 1.419 . S
C1374 C1375 1.362 . S
C1375 H1365 0.930 . S
C1375 C1368 1.409 . S
C1375 C1374 1.362 . S
H1376 C1382 0.930 . S
H1377 C1385 0.930 . S
H1378 C1386 0.930 . S
H1379 C1387 0.930 . S
H1380 C1390 0.930 . S
H1381 C1391 0.930 . S
C1382 H1376 0.930 . S
C1382 C1383 1.355 . S
C1382 C1384 1.415 . S
C1383 C1382 1.355 . S
C1383 C1385 1.419 . S
C1384 C1382 1.415 . S
C1384 C1389 1.425 . S
C1384 C1391 1.409 . S
C1385 H1377 0.930 . S
C1385 C1383 1.419 . S
C1385 C1386 1.362 . S
C1386 H1378 0.930 . S
C1386 C1385 1.362 . S
C1386 C1389 1.409 . S
C1387 H1379 0.930 . S
C1387 C1388 1.355 . S
C1387 C1389 1.415 . S
C1388 C1387 1.355 . S
C1388 C1390 1.419 . S
C1389 C1384 1.425 . S
C1389 C1386 1.409 . S
C1389 C1387 1.415 . S
C1390 H1380 0.930 . S
C1390 C1388 1.419 . S
C1390 C1391 1.362 . S
C1391 H1381 0.930 . S
C1391 C1384 1.409 . S
C1391 C1390 1.362 . S
H1392 C1398 0.930 . S
H1393 C1401 0.930 . S
H1394 C1402 0.930 . S
H1395 C1403 0.930 . S
H1396 C1406 0.930 . S
H1397 C1407 0.930 . S
C1398 H1392 0.930 . S
C1398 C1399 1.355 . S
C1398 C1400 1.415 . S
C1399 C1398 1.355 . S
C1399 C1401 1.419 . S
C1400 C1398 1.415 . S
C1400 C1405 1.425 . S
C1400 C1407 1.409 . S
C1401 H1393 0.930 . S
C1401 C1399 1.419 . S
C1401 C1402 1.362 . S
C1402 H1394 0.930 . S
C1402 C1401 1.362 . S
C1402 C1405 1.409 . S
C1403 H1395 0.930 . S
C1403 C1404 1.355 . S
C1403 C1405 1.415 . S
C1404 C1403 1.355 . S
C1404 C1406 1.419 . S
C1405 C1400 1.425 . S
C1405 C1402 1.409 . S
C1405 C1403 1.415 . S
C1406 H1396 0.930 . S
C1406 C1404 1.419 . S
C1406 C1407 1.362 . S
C1407 H1397 0.930 . S
C1407 C1400 1.409 . S
C1407 C1406 1.362 . S
H1408 C1414 0.930 . S
H1409 C1417 0.930 . S
H1410 C1418 0.930 . S
H1411 C1419 0.930 . S
H1412 C1422 0.930 . S
H1413 C1423 0.930 . S
C1414 H1408 0.930 . S
C1414 C1415 1.355 . S
C1414 C1416 1.415 . S
C1415 C1414 1.355 . S
C1415 C1417 1.419 . S
C1416 C1414 1.415 . S
C1416 C1421 1.425 . S
C1416 C1423 1.409 . S
C1417 H1409 0.930 . S
C1417 C1415 1.419 . S
C1417 C1418 1.362 . S
C1418 H1410 0.930 . S
C1418 C1417 1.362 . S
C1418 C1421 1.409 . S
C1419 H1411 0.930 . S
C1419 C1420 1.355 . S
C1419 C1421 1.415 . S
C1420 C1419 1.355 . S
C1420 C1422 1.419 . S
C1421 C1416 1.425 . S
C1421 C1418 1.409 . S
C1421 C1419 1.415 . S
C1422 H1412 0.930 . S
C1422 C1420 1.419 . S
C1422 C1423 1.362 . S
C1423 H1413 0.930 . S
C1423 C1416 1.409 . S
C1423 C1422 1.362 . S
H1424 C1430 0.930 . S
H1425 C1433 0.930 . S
H1426 C1434 0.930 . S
H1427 C1435 0.940 . S
H1428 C1438 0.930 . S
H1429 C1439 0.930 . S
C1430 H1424 0.930 . S
C1430 C1431 1.355 1_455 S
C1430 C1432 1.415 . S
C1431 C1430 1.355 1_655 S
C1431 C1433 1.419 . S
C1432 C1430 1.415 . S
C1432 C1437 1.425 1_455 S
C1432 C1439 1.409 . S
C1433 H1425 0.930 . S
C1433 C1431 1.419 . S
C1433 C1434 1.362 . S
C1434 H1426 0.930 . S
C1434 C1433 1.362 . S
C1434 C1437 1.409 . S
C1435 H1427 0.940 . S
C1435 C1436 1.341 1_655 S
C1435 C1437 1.418 . S
C1436 C1435 1.341 1_455 S
C1436 C1438 1.419 . S
C1437 C1432 1.425 1_655 S
C1437 C1434 1.409 . S
C1437 C1435 1.418 . S
C1438 H1428 0.930 . S
C1438 C1436 1.419 . S
C1438 C1439 1.362 . S
C1439 H1429 0.930 . S
C1439 C1432 1.409 . S
C1439 C1438 1.362 . S
H1440 C1446 0.930 . S
H1441 C1449 0.930 . S
H1442 C1450 0.930 . S
H1443 C1451 0.930 . S
H1444 C1454 0.930 . S
H1445 C1455 0.930 . S
C1446 H1440 0.930 . S
C1446 C1447 1.355 . S
C1446 C1448 1.415 . S
C1447 C1446 1.355 . S
C1447 C1449 1.419 . S
C1448 C1446 1.415 . S
C1448 C1453 1.425 . S
C1448 C1455 1.409 . S
C1449 H1441 0.930 . S
C1449 C1447 1.419 . S
C1449 C1450 1.362 . S
C1450 H1442 0.930 . S
C1450 C1449 1.362 . S
C1450 C1453 1.409 . S
C1451 H1443 0.930 . S
C1451 C1452 1.355 . S
C1451 C1453 1.415 . S
C1452 C1451 1.355 . S
C1452 C1454 1.419 . S
C1453 C1448 1.425 . S
C1453 C1450 1.409 . S
C1453 C1451 1.415 . S
C1454 H1444 0.930 . S
C1454 C1452 1.419 . S
C1454 C1455 1.362 . S
C1455 H1445 0.930 . S
C1455 C1448 1.409 . S
C1455 C1454 1.362 . S
H1456 C1462 0.930 . S
H1457 C1465 0.930 . S
H1458 C1466 0.930 . S
H1459 C1467 0.930 . S
H1460 C1470 0.930 . S
H1461 C1471 0.930 . S
C1462 H1456 0.930 . S
C1462 C1463 1.355 . S
C1462 C1464 1.415 . S
C1463 C1462 1.355 . S
C1463 C1465 1.419 . S
C1464 C1462 1.415 . S
C1464 C1469 1.425 . S
C1464 C1471 1.409 1_556 S
C1465 H1457 0.930 . S
C1465 C1463 1.419 . S
C1465 C1466 1.362 . S
C1466 H1458 0.930 . S
C1466 C1465 1.362 . S
C1466 C1469 1.409 . S
C1467 H1459 0.930 . S
C1467 C1468 1.355 . S
C1467 C1469 1.415 1_554 S
C1468 C1467 1.355 . S
C1468 C1470 1.419 . S
C1469 C1464 1.425 . S
C1469 C1466 1.409 . S
C1469 C1467 1.415 1_556 S
C1470 H1460 0.930 . S
C1470 C1468 1.419 . S
C1470 C1471 1.362 . S
C1471 H1461 0.930 . S
C1471 C1464 1.409 1_554 S
C1471 C1470 1.362 . S
H1472 C1478 0.930 . S
H1473 C1481 0.930 . S
H1474 C1482 0.930 1_455 S
H1475 C1483 0.930 . S
H1476 C1486 0.930 . S
H1477 C1487 0.930 . S
C1478 H1472 0.930 . S
C1478 C1479 1.370 . S
C1478 C1480 1.415 . S
C1479 C1478 1.370 . S
C1479 C1481 1.417 1_655 S
C1480 C1478 1.415 . S
C1480 C1485 1.425 . S
C1480 C1487 1.409 . S
C1481 H1473 0.930 . S
C1481 C1479 1.417 1_455 S
C1481 C1482 1.362 1_455 S
C1482 H1474 0.930 1_655 S
C1482 C1481 1.362 1_655 S
C1482 C1485 1.409 . S
C1483 H1475 0.930 . S
C1483 C1484 1.355 . S
C1483 C1485 1.415 . S
C1484 C1483 1.355 . S
C1484 C1486 1.419 . S
C1485 C1480 1.425 . S
C1485 C1482 1.409 . S
C1485 C1483 1.415 . S
C1486 H1476 0.930 . S
C1486 C1484 1.419 . S
C1486 C1487 1.362 . S
C1487 H1477 0.930 . S
C1487 C1480 1.409 . S
C1487 C1486 1.362 . S
H1488 C1494 0.930 . S
H1489 C1497 0.930 . S
H1490 C1498 0.930 . S
H1491 C1499 0.930 . S
H1492 C1502 0.930 . S
H1493 C1503 0.930 . S
C1494 H1488 0.930 . S
C1494 C1495 1.355 . S
C1494 C1496 1.415 . S
C1495 C1494 1.355 . S
C1495 C1497 1.419 . S
C1496 C1494 1.415 . S
C1496 C1501 1.425 . S
C1496 C1503 1.409 . S
C1497 H1489 0.930 . S
C1497 C1495 1.419 . S
C1497 C1498 1.362 . S
C1498 H1490 0.930 . S
C1498 C1497 1.362 . S
C1498 C1501 1.409 . S
C1499 H1491 0.930 . S
C1499 C1500 1.355 1_556 S
C1499 C1501 1.415 . S
C1500 C1499 1.355 1_554 S
C1500 C1502 1.419 . S
C1501 C1496 1.425 . S
C1501 C1498 1.409 . S
C1501 C1499 1.415 . S
C1502 H1492 0.930 . S
C1502 C1500 1.419 . S
C1502 C1503 1.362 1_554 S
C1503 H1493 0.930 . S
C1503 C1496 1.409 . S
C1503 C1502 1.362 1_556 S
H1504 C1510 0.930 . S
H1505 C1513 0.930 . S
H1506 C1514 0.930 . S
H1507 C1515 0.930 . S
H1508 C1518 0.930 . S
H1509 C1519 0.930 . S
C1510 H1504 0.930 . S
C1510 C1511 1.355 . S
C1510 C1512 1.415 . S
C1511 C1510 1.355 . S
C1511 C1513 1.419 . S
C1512 C1510 1.415 . S
C1512 C1517 1.425 . S
C1512 C1519 1.409 . S
C1513 H1505 0.930 . S
C1513 C1511 1.419 . S
C1513 C1514 1.362 . S
C1514 H1506 0.930 . S
C1514 C1513 1.362 . S
C1514 C1517 1.409 . S
C1515 H1507 0.930 . S
C1515 C1516 1.355 . S
C1515 C1517 1.415 . S
C1516 C1515 1.355 . S
C1516 C1518 1.419 . S
C1517 C1512 1.425 . S
C1517 C1514 1.409 . S
C1517 C1515 1.415 . S
C1518 H1508 0.930 . S
C1518 C1516 1.419 . S
C1518 C1519 1.362 . S
C1519 H1509 0.930 . S
C1519 C1512 1.409 . S
C1519 C1518 1.362 . S
H1520 C1526 0.930 . S
H1521 C1529 0.930 1_565 S
H1522 C1530 0.930 1_565 S
H1523 C1531 0.930 . S
H1524 C1534 0.930 . S
H1525 C1535 0.930 . S
C1526 H1520 0.930 . S
C1526 C1527 1.355 . S
C1526 C1528 1.415 . S
C1527 C1526 1.355 . S
C1527 C1529 1.419 . S
C1528 C1526 1.415 . S
C1528 C1533 1.425 . S
C1528 C1535 1.409 . S
C1529 H1521 0.930 1_545 S
C1529 C1527 1.419 . S
C1529 C1530 1.362 . S
C1530 H1522 0.930 1_545 S
C1530 C1529 1.362 . S
C1530 C1533 1.409 . S
C1531 H1523 0.930 . S
C1531 C1532 1.355 . S
C1531 C1533 1.415 . S
C1532 C1531 1.355 . S
C1532 C1534 1.419 . S
C1533 C1528 1.425 . S
C1533 C1530 1.409 . S
C1533 C1531 1.415 . S
C1534 H1524 0.930 . S
C1534 C1532 1.419 . S
C1534 C1535 1.362 . S
C1535 H1525 0.930 . S
C1535 C1528 1.409 . S
C1535 C1534 1.362 . S
H1536 C1542 0.930 . S
H1537 C1545 0.930 . S
H1538 C1546 0.930 . S
H1539 C1547 0.930 . S
H1540 C1550 0.930 . S
H1541 C1551 0.930 . S
C1542 H1536 0.930 . S
C1542 C1543 1.355 . S
C1542 C1544 1.415 . S
C1543 C1542 1.355 . S
C1543 C1545 1.419 . S
C1544 C1542 1.415 . S
C1544 C1549 1.425 . S
C1544 C1551 1.409 . S
C1545 H1537 0.930 . S
C1545 C1543 1.419 . S
C1545 C1546 1.362 . S
C1546 H1538 0.930 . S
C1546 C1545 1.362 . S
C1546 C1549 1.409 . S
C1547 H1539 0.930 . S
C1547 C1548 1.355 . S
C1547 C1549 1.415 . S
C1548 C1547 1.355 . S
C1548 C1550 1.419 . S
C1549 C1544 1.425 . S
C1549 C1546 1.409 . S
C1549 C1547 1.415 . S
C1550 H1540 0.930 . S
C1550 C1548 1.419 . S
C1550 C1551 1.362 . S
C1551 H1541 0.930 . S
C1551 C1544 1.409 . S
C1551 C1550 1.362 . S
H1552 C1558 0.930 . S
H1553 C1561 0.930 . S
H1554 C1562 0.930 . S
H1555 C1563 0.930 . S
H1556 C1566 0.930 . S
H1557 C1567 0.930 . S
C1558 H1552 0.930 . S
C1558 C1559 1.355 . S
C1558 C1560 1.415 . S
C1559 C1558 1.355 . S
C1559 C1561 1.419 . S
C1560 C1558 1.415 . S
C1560 C1565 1.425 . S
C1560 C1567 1.409 . S
C1561 H1553 0.930 . S
C1561 C1559 1.419 . S
C1561 C1562 1.362 . S
C1562 H1554 0.930 . S
C1562 C1561 1.362 . S
C1562 C1565 1.409 . S
C1563 H1555 0.930 . S
C1563 C1564 1.355 . S
C1563 C1565 1.415 . S
C1564 C1563 1.355 . S
C1564 C1566 1.419 . S
C1565 C1560 1.425 . S
C1565 C1562 1.409 . S
C1565 C1563 1.415 . S
C1566 H1556 0.930 . S
C1566 C1564 1.419 . S
C1566 C1567 1.362 . S
C1567 H1557 0.930 . S
C1567 C1560 1.409 . S
C1567 C1566 1.362 . S
H1568 C1574 0.930 . S
H1569 C1577 0.930 . S
H1570 C1578 0.930 . S
H1571 C1579 0.930 . S
H1572 C1582 0.930 . S
H1573 C1583 0.930 . S
C1574 H1568 0.930 . S
C1574 C1575 1.355 . S
C1574 C1576 1.415 . S
C1575 C1574 1.355 . S
C1575 C1577 1.419 . S
C1576 C1574 1.415 . S
C1576 C1581 1.425 . S
C1576 C1583 1.409 . S
C1577 H1569 0.930 . S
C1577 C1575 1.419 . S
C1577 C1578 1.362 . S
C1578 H1570 0.930 . S
C1578 C1577 1.362 . S
C1578 C1581 1.409 . S
C1579 H1571 0.930 . S
C1579 C1580 1.355 . S
C1579 C1581 1.415 . S
C1580 C1579 1.355 . S
C1580 C1582 1.419 . S
C1581 C1576 1.425 . S
C1581 C1578 1.409 . S
C1581 C1579 1.415 . S
C1582 H1572 0.930 . S
C1582 C1580 1.419 . S
C1582 C1583 1.362 . S
C1583 H1573 0.930 . S
C1583 C1576 1.409 . S
C1583 C1582 1.362 . S
H1584 C1590 0.930 . S
H1585 C1593 0.930 1_565 S
H1586 C1594 0.930 . S
H1587 C1595 0.951 . S
H1588 C1598 0.930 . S
H1589 C1599 0.930 . S
C1590 H1584 0.930 . S
C1590 C1591 1.355 . S
C1590 C1592 1.415 . S
C1591 C1590 1.355 . S
C1591 C1593 1.419 . S
C1592 C1590 1.415 . S
C1592 C1597 1.425 . S
C1592 C1599 1.409 . S
C1593 H1585 0.930 1_545 S
C1593 C1591 1.419 . S
C1593 C1594 1.362 1_545 S
C1594 H1586 0.930 . S
C1594 C1593 1.362 1_565 S
C1594 C1597 1.409 1_565 S
C1595 H1587 0.951 . S
C1595 C1596 1.347 1_565 S
C1595 C1597 1.403 1_565 S
C1596 C1595 1.347 1_545 S
C1596 C1598 1.419 . S
C1597 C1592 1.425 . S
C1597 C1594 1.409 1_545 S
C1597 C1595 1.403 1_545 S
C1598 H1588 0.930 . S
C1598 C1596 1.419 . S
C1598 C1599 1.362 . S
C1599 H1589 0.930 . S
C1599 C1592 1.409 . S
C1599 C1598 1.362 . S
H1600 C1606 0.930 . S
H1601 C1609 0.930 . S
H1602 C1610 0.930 . S
H1603 C1611 0.930 . S
H1604 C1614 0.930 . S
H1605 C1615 0.930 . S
C1606 H1600 0.930 . S
C1606 C1607 1.355 . S
C1606 C1608 1.415 . S
C1607 C1606 1.355 . S
C1607 C1609 1.419 . S
C1608 C1606 1.415 . S
C1608 C1613 1.425 . S
C1608 C1615 1.409 . S
C1609 H1601 0.930 . S
C1609 C1607 1.419 . S
C1609 C1610 1.362 . S
C1610 H1602 0.930 . S
C1610 C1609 1.362 . S
C1610 C1613 1.409 . S
C1611 H1603 0.930 . S
C1611 C1612 1.355 . S
C1611 C1613 1.415 . S
C1612 C1611 1.355 . S
C1612 C1614 1.419 . S
C1613 C1608 1.425 . S
C1613 C1610 1.409 . S
C1613 C1611 1.415 . S
C1614 H1604 0.930 . S
C1614 C1612 1.419 . S
C1614 C1615 1.362 . S
C1615 H1605 0.930 . S
C1615 C1608 1.409 . S
C1615 C1614 1.362 . S
H1616 C1622 0.930 . S
H1617 C1625 0.930 . S
H1618 C1626 0.930 . S
H1619 C1627 0.930 . S
H1620 C1630 0.930 . S
H1621 C1631 0.930 . S
C1622 H1616 0.930 . S
C1622 C1623 1.355 . S
C1622 C1624 1.415 . S
C1623 C1622 1.355 . S
C1623 C1625 1.419 . S
C1624 C1622 1.415 . S
C1624 C1629 1.425 . S
C1624 C1631 1.409 . S
C1625 H1617 0.930 . S
C1625 C1623 1.419 . S
C1625 C1626 1.362 . S
C1626 H1618 0.930 . S
C1626 C1625 1.362 . S
C1626 C1629 1.409 . S
C1627 H1619 0.930 . S
C1627 C1628 1.355 . S
C1627 C1629 1.415 . S
C1628 C1627 1.355 . S
C1628 C1630 1.419 . S
C1629 C1624 1.425 . S
C1629 C1626 1.409 . S
C1629 C1627 1.415 . S
C1630 H1620 0.930 . S
C1630 C1628 1.419 . S
C1630 C1631 1.362 . S
C1631 H1621 0.930 . S
C1631 C1624 1.409 . S
C1631 C1630 1.362 . S
H1632 C1638 0.930 . S
H1633 C1641 0.930 . S
H1634 C1642 0.930 . S
H1635 C1643 0.930 . S
H1636 C1646 0.930 . S
H1637 C1647 0.930 . S
C1638 H1632 0.930 . S
C1638 C1639 1.355 . S
C1638 C1640 1.415 . S
C1639 C1638 1.355 . S
C1639 C1641 1.419 . S
C1640 C1638 1.415 . S
C1640 C1645 1.425 . S
C1640 C1647 1.409 . S
C1641 H1633 0.930 . S
C1641 C1639 1.419 . S
C1641 C1642 1.362 . S
C1642 H1634 0.930 . S
C1642 C1641 1.362 . S
C1642 C1645 1.409 . S
C1643 H1635 0.930 . S
C1643 C1644 1.355 . S
C1643 C1645 1.415 . S
C1644 C1643 1.355 . S
C1644 C1646 1.419 . S
C1645 C1640 1.425 . S
C1645 C1642 1.409 . S
C1645 C1643 1.415 . S
C1646 H1636 0.930 . S
C1646 C1644 1.419 . S
C1646 C1647 1.362 . S
C1647 H1637 0.930 . S
C1647 C1640 1.409 . S
C1647 C1646 1.362 . S
H1648 C1654 0.930 . S
H1649 C1657 0.930 . S
H1650 C1658 0.930 . S
H1651 C1659 0.930 . S
H1652 C1662 0.930 . S
H1653 C1663 0.930 . S
C1654 H1648 0.930 . S
C1654 C1655 1.355 . S
C1654 C1656 1.415 . S
C1655 C1654 1.355 . S
C1655 C1657 1.419 . S
C1656 C1654 1.415 . S
C1656 C1661 1.425 . S
C1656 C1663 1.409 . S
C1657 H1649 0.930 . S
C1657 C1655 1.419 . S
C1657 C1658 1.362 . S
C1658 H1650 0.930 . S
C1658 C1657 1.362 . S
C1658 C1661 1.409 . S
C1659 H1651 0.930 . S
C1659 C1660 1.355 . S
C1659 C1661 1.415 . S
C1660 C1659 1.355 . S
C1660 C1662 1.419 . S
C1661 C1656 1.425 . S
C1661 C1658 1.409 . S
C1661 C1659 1.415 . S
C1662 H1652 0.930 . S
C1662 C1660 1.419 . S
C1662 C1663 1.362 . S
C1663 H1653 0.930 . S
C1663 C1656 1.409 . S
C1663 C1662 1.362 . S
H1664 C1670 0.930 . S
H1665 C1673 0.930 . S
H1666 C1674 0.930 . S
H1667 C1675 0.930 . S
H1668 C1678 0.930 . S
H1669 C1679 0.930 . S
C1670 H1664 0.930 . S
C1670 C1671 1.355 . S
C1670 C1672 1.415 . S
C1671 C1670 1.355 . S
C1671 C1673 1.419 . S
C1672 C1670 1.415 . S
C1672 C1677 1.425 . S
C1672 C1679 1.409 . S
C1673 H1665 0.930 . S
C1673 C1671 1.419 . S
C1673 C1674 1.362 . S
C1674 H1666 0.930 . S
C1674 C1673 1.362 . S
C1674 C1677 1.409 . S
C1675 H1667 0.930 . S
C1675 C1676 1.355 . S
C1675 C1677 1.415 . S
C1676 C1675 1.355 . S
C1676 C1678 1.419 . S
C1677 C1672 1.425 . S
C1677 C1674 1.409 . S
C1677 C1675 1.415 . S
C1678 H1668 0.930 . S
C1678 C1676 1.419 . S
C1678 C1679 1.362 . S
C1679 H1669 0.930 . S
C1679 C1672 1.409 . S
C1679 C1678 1.362 . S
H1680 C1686 0.930 . S
H1681 C1689 0.930 . S
H1682 C1690 0.930 . S
H1683 C1691 0.930 . S
H1684 C1694 0.930 . S
H1685 C1695 0.930 . S
C1686 H1680 0.930 . S
C1686 C1687 1.355 . S
C1686 C1688 1.415 . S
C1687 C1686 1.355 . S
C1687 C1689 1.419 . S
C1688 C1686 1.415 . S
C1688 C1693 1.425 . S
C1688 C1695 1.409 . S
C1689 H1681 0.930 . S
C1689 C1687 1.419 . S
C1689 C1690 1.362 . S
C1690 H1682 0.930 . S
C1690 C1689 1.362 . S
C1690 C1693 1.409 . S
C1691 H1683 0.930 . S
C1691 C1692 1.355 . S
C1691 C1693 1.415 . S
C1692 C1691 1.355 . S
C1692 C1694 1.419 . S
C1693 C1688 1.425 . S
C1693 C1690 1.409 . S
C1693 C1691 1.415 . S
C1694 H1684 0.930 . S
C1694 C1692 1.419 . S
C1694 C1695 1.362 . S
C1695 H1685 0.930 . S
C1695 C1688 1.409 . S
C1695 C1694 1.362 . S
H1696 C1702 0.930 . S
H1697 C1705 0.930 . S
H1698 C1706 0.930 . S
H1699 C1707 0.930 . S
H1700 C1710 0.930 . S
H1701 C1711 0.930 . S
C1702 H1696 0.930 . S
C1702 C1703 1.355 . S
C1702 C1704 1.415 . S
C1703 C1702 1.355 . S
C1703 C1705 1.419 . S
C1704 C1702 1.415 . S
C1704 C1709 1.425 . S
C1704 C1711 1.409 . S
C1705 H1697 0.930 . S
C1705 C1703 1.419 . S
C1705 C1706 1.362 . S
C1706 H1698 0.930 . S
C1706 C1705 1.362 . S
C1706 C1709 1.409 . S
C1707 H1699 0.930 . S
C1707 C1708 1.355 . S
C1707 C1709 1.415 . S
C1708 C1707 1.355 . S
C1708 C1710 1.419 . S
C1709 C1704 1.425 . S
C1709 C1706 1.409 . S
C1709 C1707 1.415 . S
C1710 H1700 0.930 . S
C1710 C1708 1.419 . S
C1710 C1711 1.362 . S
C1711 H1701 0.930 . S
C1711 C1704 1.409 . S
C1711 C1710 1.362 . S
H1712 C1718 0.930 . S
H1713 C1721 0.930 . S
H1714 C1722 0.930 . S
H1715 C1723 0.930 . S
H1716 C1726 0.930 . S
H1717 C1727 0.930 . S
C1718 H1712 0.930 . S
C1718 C1719 1.355 . S
C1718 C1720 1.415 . S
C1719 C1718 1.355 . S
C1719 C1721 1.419 . S
C1720 C1718 1.415 . S
C1720 C1725 1.425 . S
C1720 C1727 1.409 . S
C1721 H1713 0.930 . S
C1721 C1719 1.419 . S
C1721 C1722 1.362 . S
C1722 H1714 0.930 . S
C1722 C1721 1.362 . S
C1722 C1725 1.409 . S
C1723 H1715 0.930 . S
C1723 C1724 1.355 . S
C1723 C1725 1.415 . S
C1724 C1723 1.355 . S
C1724 C1726 1.419 . S
C1725 C1720 1.425 . S
C1725 C1722 1.409 . S
C1725 C1723 1.415 . S
C1726 H1716 0.930 . S
C1726 C1724 1.419 . S
C1726 C1727 1.362 . S
C1727 H1717 0.930 . S
C1727 C1720 1.409 . S
C1727 C1726 1.362 . S
H1728 C1734 0.930 . S
H1729 C1737 0.930 . S
H1730 C1738 0.930 . S
H1731 C1739 0.930 . S
H1732 C1742 0.930 . S
H1733 C1743 0.930 . S
C1734 H1728 0.930 . S
C1734 C1735 1.355 . S
C1734 C1736 1.415 . S
C1735 C1734 1.355 . S
C1735 C1737 1.419 . S
C1736 C1734 1.415 . S
C1736 C1741 1.425 . S
C1736 C1743 1.409 . S
C1737 H1729 0.930 . S
C1737 C1735 1.419 . S
C1737 C1738 1.362 . S
C1738 H1730 0.930 . S
C1738 C1737 1.362 . S
C1738 C1741 1.409 . S
C1739 H1731 0.930 . S
C1739 C1740 1.355 . S
C1739 C1741 1.415 . S
C1740 C1739 1.355 . S
C1740 C1742 1.419 . S
C1741 C1736 1.425 . S
C1741 C1738 1.409 . S
C1741 C1739 1.415 . S
C1742 H1732 0.930 . S
C1742 C1740 1.419 . S
C1742 C1743 1.362 . S
C1743 H1733 0.930 . S
C1743 C1736 1.409 . S
C1743 C1742 1.362 . S
H1744 C1750 0.930 . S
H1745 C1753 0.930 . S
H1746 C1754 0.930 . S
H1747 C1755 0.930 . S
H1748 C1758 0.930 . S
H1749 C1759 0.930 . S
C1750 H1744 0.930 . S
C1750 C1751 1.355 . S
C1750 C1752 1.415 . S
C1751 C1750 1.355 . S
C1751 C1753 1.419 . S
C1752 C1750 1.415 . S
C1752 C1757 1.425 . S
C1752 C1759 1.409 . S
C1753 H1745 0.930 . S
C1753 C1751 1.419 . S
C1753 C1754 1.362 . S
C1754 H1746 0.930 . S
C1754 C1753 1.362 . S
C1754 C1757 1.409 . S
C1755 H1747 0.930 . S
C1755 C1756 1.355 . S
C1755 C1757 1.415 . S
C1756 C1755 1.355 . S
C1756 C1758 1.419 . S
C1757 C1752 1.425 . S
C1757 C1754 1.409 . S
C1757 C1755 1.415 . S
C1758 H1748 0.930 . S
C1758 C1756 1.419 . S
C1758 C1759 1.362 . S
C1759 H1749 0.930 . S
C1759 C1752 1.409 . S
C1759 C1758 1.362 . S
H1760 C1766 0.930 . S
H1761 C1769 0.930 . S
H1762 C1770 0.930 . S
H1763 C1771 0.930 . S
H1764 C1774 0.930 . S
H1765 C1775 0.930 . S
C1766 H1760 0.930 . S
C1766 C1767 1.355 . S
C1766 C1768 1.415 . S
C1767 C1766 1.355 . S
C1767 C1769 1.419 . S
C1768 C1766 1.415 . S
C1768 C1773 1.425 . S
C1768 C1775 1.409 . S
C1769 H1761 0.930 . S
C1769 C1767 1.419 . S
C1769 C1770 1.362 . S
C1770 H1762 0.930 . S
C1770 C1769 1.362 . S
C1770 C1773 1.409 . S
C1771 H1763 0.930 . S
C1771 C1772 1.355 . S
C1771 C1773 1.415 . S
C1772 C1771 1.355 . S
C1772 C1774 1.419 . S
C1773 C1768 1.425 . S
C1773 C1770 1.409 . S
C1773 C1771 1.415 . S
C1774 H1764 0.930 . S
C1774 C1772 1.419 . S
C1774 C1775 1.362 . S
C1775 H1765 0.930 . S
C1775 C1768 1.409 . S
C1775 C1774 1.362 . S
H1776 C1782 0.930 1_655 S
H1777 C1785 0.930 . S
H1778 C1786 0.930 . S
H1779 C1787 0.930 . S
H1780 C1790 0.909 1_655 S
H1781 C1791 0.930 1_655 S
C1782 H1776 0.930 1_455 S
C1782 C1783 1.355 . S
C1782 C1784 1.415 . S
C1783 C1782 1.355 . S
C1783 C1785 1.419 . S
C1784 C1782 1.415 . S
C1784 C1789 1.425 . S
C1784 C1791 1.409 . S
C1785 H1777 0.930 . S
C1785 C1783 1.419 . S
C1785 C1786 1.362 . S
C1786 H1778 0.930 . S
C1786 C1785 1.362 . S
C1786 C1789 1.409 . S
C1787 H1779 0.930 . S
C1787 C1788 1.355 . S
C1787 C1789 1.415 . S
C1788 C1787 1.355 . S
C1788 C1790 1.419 . S
C1789 C1784 1.425 . S
C1789 C1786 1.409 . S
C1789 C1787 1.415 . S
C1790 H1780 0.909 1_455 S
C1790 C1788 1.419 . S
C1790 C1791 1.362 . S
C1791 H1781 0.930 1_455 S
C1791 C1784 1.409 . S
C1791 C1790 1.362 . S
H1792 C1798 0.930 . S
H1793 C1801 0.930 . S
H1794 C1802 0.930 . S
H1795 C1803 0.930 . S
H1796 C1806 0.930 . S
H1797 C1807 0.930 . S
C1798 H1792 0.930 . S
C1798 C1799 1.355 . S
C1798 C1800 1.415 . S
C1799 C1798 1.355 . S
C1799 C1801 1.419 . S
C1800 C1798 1.415 . S
C1800 C1805 1.425 . S
C1800 C1807 1.409 . S
C1801 H1793 0.930 . S
C1801 C1799 1.419 . S
C1801 C1802 1.362 . S
C1802 H1794 0.930 . S
C1802 C1801 1.362 . S
C1802 C1805 1.409 . S
C1803 H1795 0.930 . S
C1803 C1804 1.355 . S
C1803 C1805 1.415 . S
C1804 C1803 1.355 . S
C1804 C1806 1.419 . S
C1805 C1800 1.425 . S
C1805 C1802 1.409 . S
C1805 C1803 1.415 . S
C1806 H1796 0.930 . S
C1806 C1804 1.419 . S
C1806 C1807 1.362 . S
C1807 H1797 0.930 . S
C1807 C1800 1.409 . S
C1807 C1806 1.362 . S
H1808 C1814 0.930 . S
H1809 C1817 0.930 . S
H1810 C1818 0.930 . S
H1811 C1819 0.930 . S
H1812 C1822 0.930 . S
H1813 C1823 0.930 . S
C1814 H1808 0.930 . S
C1814 C1815 1.355 . S
C1814 C1816 1.415 . S
C1815 C1814 1.355 . S
C1815 C1817 1.419 . S
C1816 C1814 1.415 . S
C1816 C1821 1.425 . S
C1816 C1823 1.409 . S
C1817 H1809 0.930 . S
C1817 C1815 1.419 . S
C1817 C1818 1.362 . S
C1818 H1810 0.930 . S
C1818 C1817 1.362 . S
C1818 C1821 1.409 . S
C1819 H1811 0.930 . S
C1819 C1820 1.355 . S
C1819 C1821 1.415 . S
C1820 C1819 1.355 . S
C1820 C1822 1.419 . S
C1821 C1816 1.425 . S
C1821 C1818 1.409 . S
C1821 C1819 1.415 . S
C1822 H1812 0.930 . S
C1822 C1820 1.419 . S
C1822 C1823 1.362 . S
C1823 H1813 0.930 . S
C1823 C1816 1.409 . S
C1823 C1822 1.362 . S
H1824 C1830 0.930 . S
H1825 C1833 0.930 . S
H1826 C1834 0.930 . S
H1827 C1835 0.930 . S
H1828 C1838 0.930 . S
H1829 C1839 0.930 . S
C1830 H1824 0.930 . S
C1830 C1831 1.355 . S
C1830 C1832 1.415 . S
C1831 C1830 1.355 . S
C1831 C1833 1.419 . S
C1832 C1830 1.415 . S
C1832 C1837 1.425 . S
C1832 C1839 1.409 . S
C1833 H1825 0.930 . S
C1833 C1831 1.419 . S
C1833 C1834 1.362 . S
C1834 H1826 0.930 . S
C1834 C1833 1.362 . S
C1834 C1837 1.409 . S
C1835 H1827 0.930 . S
C1835 C1836 1.355 . S
C1835 C1837 1.415 . S
C1836 C1835 1.355 . S
C1836 C1838 1.419 . S
C1837 C1832 1.425 . S
C1837 C1834 1.409 . S
C1837 C1835 1.415 . S
C1838 H1828 0.930 . S
C1838 C1836 1.419 . S
C1838 C1839 1.362 . S
C1839 H1829 0.930 . S
C1839 C1832 1.409 . S
C1839 C1838 1.362 . S
H1840 C1846 0.930 . S
H1841 C1849 0.930 . S
H1842 C1850 0.930 . S
H1843 C1851 0.930 . S
H1844 C1854 0.930 . S
H1845 C1855 0.930 . S
C1846 H1840 0.930 . S
C1846 C1847 1.355 . S
C1846 C1848 1.415 . S
C1847 C1846 1.355 . S
C1847 C1849 1.419 . S
C1848 C1846 1.415 . S
C1848 C1853 1.425 . S
C1848 C1855 1.409 . S
C1849 H1841 0.930 . S
C1849 C1847 1.419 . S
C1849 C1850 1.362 . S
C1850 H1842 0.930 . S
C1850 C1849 1.362 . S
C1850 C1853 1.409 . S
C1851 H1843 0.930 . S
C1851 C1852 1.355 . S
C1851 C1853 1.415 . S
C1852 C1851 1.355 . S
C1852 C1854 1.419 . S
C1853 C1848 1.425 . S
C1853 C1850 1.409 . S
C1853 C1851 1.415 . S
C1854 H1844 0.930 . S
C1854 C1852 1.419 . S
C1854 C1855 1.362 . S
C1855 H1845 0.930 . S
C1855 C1848 1.409 . S
C1855 C1854 1.362 . S
H1856 C1862 0.930 . S
H1857 C1865 0.930 . S
H1858 C1866 0.930 . S
H1859 C1867 0.930 . S
H1860 C1870 0.930 . S
H1861 C1871 0.930 . S
C1862 H1856 0.930 . S
C1862 C1863 1.355 . S
C1862 C1864 1.415 . S
C1863 C1862 1.355 . S
C1863 C1865 1.419 . S
C1864 C1862 1.415 . S
C1864 C1869 1.425 . S
C1864 C1871 1.409 . S
C1865 H1857 0.930 . S
C1865 C1863 1.419 . S
C1865 C1866 1.362 . S
C1866 H1858 0.930 . S
C1866 C1865 1.362 . S
C1866 C1869 1.409 . S
C1867 H1859 0.930 . S
C1867 C1868 1.355 . S
C1867 C1869 1.415 . S
C1868 C1867 1.355 . S
C1868 C1870 1.419 . S
C1869 C1864 1.425 . S
C1869 C1866 1.409 . S
C1869 C1867 1.415 . S
C1870 H1860 0.930 . S
C1870 C1868 1.419 . S
C1870 C1871 1.362 . S
C1871 H1861 0.930 . S
C1871 C1864 1.409 . S
C1871 C1870 1.362 . S
H1872 C1878 0.930 . S
H1873 C1881 0.930 . S
H1874 C1882 0.930 . S
H1875 C1883 0.930 . S
H1876 C1886 0.930 . S
H1877 C1887 0.930 . S
C1878 H1872 0.930 . S
C1878 C1879 1.355 . S
C1878 C1880 1.415 . S
C1879 C1878 1.355 . S
C1879 C1881 1.419 . S
C1880 C1878 1.415 . S
C1880 C1885 1.425 . S
C1880 C1887 1.409 . S
C1881 H1873 0.930 . S
C1881 C1879 1.419 . S
C1881 C1882 1.362 . S
C1882 H1874 0.930 . S
C1882 C1881 1.362 . S
C1882 C1885 1.409 . S
C1883 H1875 0.930 . S
C1883 C1884 1.355 . S
C1883 C1885 1.415 . S
C1884 C1883 1.355 . S
C1884 C1886 1.419 . S
C1885 C1880 1.425 . S
C1885 C1882 1.409 . S
C1885 C1883 1.415 . S
C1886 H1876 0.930 . S
C1886 C1884 1.419 . S
C1886 C1887 1.362 . S
C1887 H1877 0.930 . S
C1887 C1880 1.409 . S
C1887 C1886 1.362 . S
H1888 C1894 0.930 . S
H1889 C1897 0.930 . S
H1890 C1898 0.930 . S
H1891 C1899 0.930 . S
H1892 C1902 0.930 . S
H1893 C1903 0.930 . S
C1894 H1888 0.930 . S
C1894 C1895 1.355 . S
C1894 C1896 1.415 . S
C1895 C1894 1.355 . S
C1895 C1897 1.419 . S
C1896 C1894 1.415 . S
C1896 C1901 1.425 . S
C1896 C1903 1.409 1_554 S
C1897 H1889 0.930 . S
C1897 C1895 1.419 . S
C1897 C1898 1.362 . S
C1898 H1890 0.930 . S
C1898 C1897 1.362 . S
C1898 C1901 1.409 . S
C1899 H1891 0.930 . S
C1899 C1900 1.355 . S
C1899 C1901 1.415 1_556 S
C1900 C1899 1.355 . S
C1900 C1902 1.419 . S
C1901 C1896 1.425 . S
C1901 C1898 1.409 . S
C1901 C1899 1.415 1_554 S
C1902 H1892 0.930 . S
C1902 C1900 1.419 . S
C1902 C1903 1.362 . S
C1903 H1893 0.930 . S
C1903 C1896 1.409 1_556 S
C1903 C1902 1.362 . S
H1904 C1910 0.930 . S
H1905 C1913 0.930 . S
H1906 C1914 0.930 . S
H1907 C1915 0.930 . S
H1908 C1918 0.930 . S
H1909 C1919 0.930 . S
C1910 H1904 0.930 . S
C1910 C1911 1.355 . S
C1910 C1912 1.415 . S
C1911 C1910 1.355 . S
C1911 C1913 1.419 . S
C1912 C1910 1.415 . S
C1912 C1917 1.425 . S
C1912 C1919 1.409 . S
C1913 H1905 0.930 . S
C1913 C1911 1.419 . S
C1913 C1914 1.362 . S
C1914 H1906 0.930 . S
C1914 C1913 1.362 . S
C1914 C1917 1.409 . S
C1915 H1907 0.930 . S
C1915 C1916 1.355 . S
C1915 C1917 1.415 . S
C1916 C1915 1.355 . S
C1916 C1918 1.419 . S
C1917 C1912 1.425 . S
C1917 C1914 1.409 . S
C1917 C1915 1.415 . S
C1918 H1908 0.930 . S
C1918 C1916 1.419 . S
C1918 C1919 1.362 . S
C1919 H1909 0.930 . S
C1919 C1912 1.409 . S
C1919 C1918 1.362 . S
H1920 C1926 0.930 . S
H1921 C1929 0.930 . S
H1922 C1930 0.930 . S
H1923 C1931 0.930 . S
H1924 C1934 0.930 . S
H1925 C1935 0.930 . S
C1926 H1920 0.930 . S
C1926 C1927 1.355 . S
C1926 C1928 1.415 . S
C1927 C1926 1.355 . S
C1927 C1929 1.419 . S
C1928 C1926 1.415 . S
C1928 C1933 1.425 . S
C1928 C1935 1.409 . S
C1929 H1921 0.930 . S
C1929 C1927 1.419 . S
C1929 C1930 1.362 . S
C1930 H1922 0.930 . S
C1930 C1929 1.362 . S
C1930 C1933 1.409 . S
C1931 H1923 0.930 . S
C1931 C1932 1.355 . S
C1931 C1933 1.415 . S
C1932 C1931 1.355 . S
C1932 C1934 1.419 . S
C1933 C1928 1.425 . S
C1933 C1930 1.409 . S
C1933 C1931 1.415 . S
C1934 H1924 0.930 . S
C1934 C1932 1.419 . S
C1934 C1935 1.362 . S
C1935 H1925 0.930 . S
C1935 C1928 1.409 . S
C1935 C1934 1.362 . S
H1936 C1942 0.930 . S
H1937 C1945 0.930 . S
H1938 C1946 0.930 . S
H1939 C1947 0.930 . S
H1940 C1950 0.930 1_554 S
H1941 C1951 0.930 . S
C1942 H1936 0.930 . S
C1942 C1943 1.355 . S
C1942 C1944 1.415 . S
C1943 C1942 1.355 . S
C1943 C1945 1.419 . S
C1944 C1942 1.415 . S
C1944 C1949 1.425 . S
C1944 C1951 1.409 . S
C1945 H1937 0.930 . S
C1945 C1943 1.419 . S
C1945 C1946 1.362 . S
C1946 H1938 0.930 . S
C1946 C1945 1.362 . S
C1946 C1949 1.409 . S
C1947 H1939 0.930 . S
C1947 C1948 1.355 . S
C1947 C1949 1.415 . S
C1948 C1947 1.355 . S
C1948 C1950 1.419 . S
C1949 C1944 1.425 . S
C1949 C1946 1.409 . S
C1949 C1947 1.415 . S
C1950 H1940 0.930 1_556 S
C1950 C1948 1.419 . S
C1950 C1951 1.362 . S
C1951 H1941 0.930 . S
C1951 C1944 1.409 . S
C1951 C1950 1.362 . S
H1952 C1958 0.930 . S
H1953 C1961 0.930 . S
H1954 C1962 0.930 . S
H1955 C1963 0.930 . S
H1956 C1966 0.930 . S
H1957 C1967 0.930 . S
C1958 H1952 0.930 . S
C1958 C1959 1.355 . S
C1958 C1960 1.415 . S
C1959 C1958 1.355 . S
C1959 C1961 1.419 . S
C1960 C1958 1.415 . S
C1960 C1965 1.425 . S
C1960 C1967 1.409 . S
C1961 H1953 0.930 . S
C1961 C1959 1.419 . S
C1961 C1962 1.362 . S
C1962 H1954 0.930 . S
C1962 C1961 1.362 . S
C1962 C1965 1.409 . S
C1963 H1955 0.930 . S
C1963 C1964 1.355 . S
C1963 C1965 1.415 . S
C1964 C1963 1.355 . S
C1964 C1966 1.419 . S
C1965 C1960 1.425 . S
C1965 C1962 1.409 . S
C1965 C1963 1.415 . S
C1966 H1956 0.930 . S
C1966 C1964 1.419 . S
C1966 C1967 1.362 . S
C1967 H1957 0.930 . S
C1967 C1960 1.409 . S
C1967 C1966 1.362 . S
H1968 C1974 0.930 . S
H1969 C1977 0.930 . S
H1970 C1978 0.930 . S
H1971 C1979 0.930 . S
H1972 C1982 0.930 . S
H1973 C1983 0.930 . S
C1974 H1968 0.930 . S
C1974 C1975 1.355 . S
C1974 C1976 1.415 . S
C1975 C1974 1.355 . S
C1975 C1977 1.419 . S
C1976 C1974 1.415 . S
C1976 C1981 1.425 . S
C1976 C1983 1.409 . S
C1977 H1969 0.930 . S
C1977 C1975 1.419 . S
C1977 C1978 1.362 . S
C1978 H1970 0.930 . S
C1978 C1977 1.362 . S
C1978 C1981 1.409 . S
C1979 H1971 0.930 . S
C1979 C1980 1.355 . S
C1979 C1981 1.415 . S
C1980 C1979 1.355 . S
C1980 C1982 1.419 . S
C1981 C1976 1.425 . S
C1981 C1978 1.409 . S
C1981 C1979 1.415 . S
C1982 H1972 0.930 . S
C1982 C1980 1.419 . S
C1982 C1983 1.362 . S
C1983 H1973 0.930 . S
C1983 C1976 1.409 . S
C1983 C1982 1.362 . S
H1984 C1990 0.930 . S
H1985 C1993 0.930 . S
H1986 C1994 0.930 . S
H1987 C1995 0.930 . S
H1988 C1998 0.930 . S
H1989 C1999 0.930 . S
C1990 H1984 0.930 . S
C1990 C1991 1.355 . S
C1990 C1992 1.415 . S
C1991 C1990 1.355 . S
C1991 C1993 1.419 . S
C1992 C1990 1.415 . S
C1992 C1997 1.425 . S
C1992 C1999 1.409 . S
C1993 H1985 0.930 . S
C1993 C1991 1.419 . S
C1993 C1994 1.362 . S
C1994 H1986 0.930 . S
C1994 C1993 1.362 . S
C1994 C1997 1.409 . S
C1995 H1987 0.930 . S
C1995 C1996 1.355 . S
C1995 C1997 1.415 . S
C1996 C1995 1.355 . S
C1996 C1998 1.419 . S
C1997 C1992 1.425 . S
C1997 C1994 1.409 . S
C1997 C1995 1.415 . S
C1998 H1988 0.930 . S
C1998 C1996 1.419 . S
C1998 C1999 1.362 . S
C1999 H1989 0.930 . S
C1999 C1992 1.409 . S
C1999 C1998 1.362 . S
H2000 C2006 0.930 . S
H2001 C2009 0.930 . S
H2002 C2010 0.930 . S
H2003 C2011 0.930 . S
H2004 C2014 0.930 . S
H2005 C2015 0.930 . S
C2006 H2000 0.930 . S
C2006 C2007 1.355 . S
C2006 C2008 1.415 . S
C2007 C2006 1.355 . S
C2007 C2009 1.419 . S
C2008 C2006 1.415 . S
C2008 C2013 1.425 . S
C2008 C2015 1.409 . S
C2009 H2001 0.930 . S
C2009 C2007 1.419 . S
C2009 C2010 1.362 . S
C2010 H2002 0.930 . S
C2010 C2009 1.362 . S
C2010 C2013 1.409 . S
C2011 H2003 0.930 . S
C2011 C2012 1.355 . S
C2011 C2013 1.415 . S
C2012 C2011 1.355 . S
C2012 C2014 1.419 . S
C2013 C2008 1.425 . S
C2013 C2010 1.409 . S
C2013 C2011 1.415 . S
C2014 H2004 0.930 . S
C2014 C2012 1.419 . S
C2014 C2015 1.362 . S
C2015 H2005 0.930 . S
C2015 C2008 1.409 . S
C2015 C2014 1.362 . S
H2016 C2022 0.930 . S
H2017 C2025 0.930 . S
H2018 C2026 0.930 . S
H2019 C2027 0.930 . S
H2020 C2030 0.930 . S
H2021 C2031 0.930 . S
C2022 H2016 0.930 . S
C2022 C2023 1.355 . S
C2022 C2024 1.415 . S
C2023 C2022 1.355 . S
C2023 C2025 1.419 . S
C2024 C2022 1.415 . S
C2024 C2029 1.425 . S
C2024 C2031 1.409 . S
C2025 H2017 0.930 . S
C2025 C2023 1.419 . S
C2025 C2026 1.362 . S
C2026 H2018 0.930 . S
C2026 C2025 1.362 . S
C2026 C2029 1.409 . S
C2027 H2019 0.930 . S
C2027 C2028 1.355 . S
C2027 C2029 1.415 . S
C2028 C2027 1.355 . S
C2028 C2030 1.419 . S
C2029 C2024 1.425 . S
C2029 C2026 1.409 . S
C2029 C2027 1.415 . S
C2030 H2020 0.930 . S
C2030 C2028 1.419 . S
C2030 C2031 1.362 . S
C2031 H2021 0.930 . S
C2031 C2024 1.409 . S
C2031 C2030 1.362 . S
H2032 C2038 0.930 . S
H2033 C2041 0.930 1_545 S
H2034 C2042 0.930 . S
H2035 C2043 0.930 . S
H2036 C2046 0.930 . S
H2037 C2047 0.930 . S
C2038 H2032 0.930 . S
C2038 C2039 1.355 . S
C2038 C2040 1.415 . S
C2039 C2038 1.355 . S
C2039 C2041 1.419 . S
C2040 C2038 1.415 . S
C2040 C2045 1.425 . S
C2040 C2047 1.409 . S
C2041 H2033 0.930 1_565 S
C2041 C2039 1.419 . S
C2041 C2042 1.362 . S
C2042 H2034 0.930 . S
C2042 C2041 1.362 . S
C2042 C2045 1.409 . S
C2043 H2035 0.930 . S
C2043 C2044 1.355 . S
C2043 C2045 1.415 . S
C2044 C2043 1.355 . S
C2044 C2046 1.419 . S
C2045 C2040 1.425 . S
C2045 C2042 1.409 . S
C2045 C2043 1.415 . S
C2046 H2036 0.930 . S
C2046 C2044 1.419 . S
C2046 C2047 1.362 . S
C2047 H2037 0.930 . S
C2047 C2040 1.409 . S
C2047 C2046 1.362 . S
H2048 C2054 0.930 1_556 S
H2049 C2057 0.930 . S
H2050 C2058 0.930 . S
H2051 C2059 0.930 . S
H2052 C2062 0.930 . S
H2053 C2063 0.930 1_556 S
C2054 H2048 0.930 1_554 S
C2054 C2055 1.355 . S
C2054 C2056 1.415 . S
C2055 C2054 1.355 . S
C2055 C2057 1.419 . S
C2056 C2054 1.415 . S
C2056 C2061 1.425 . S
C2056 C2063 1.409 . S
C2057 H2049 0.930 . S
C2057 C2055 1.419 . S
C2057 C2058 1.362 . S
C2058 H2050 0.930 . S
C2058 C2057 1.362 . S
C2058 C2061 1.409 . S
C2059 H2051 0.930 . S
C2059 C2060 1.355 . S
C2059 C2061 1.415 . S
C2060 C2059 1.355 . S
C2060 C2062 1.419 . S
C2061 C2056 1.425 . S
C2061 C2058 1.409 . S
C2061 C2059 1.415 . S
C2062 H2052 0.930 . S
C2062 C2060 1.419 . S
C2062 C2063 1.362 . S
C2063 H2053 0.930 1_554 S
C2063 C2056 1.409 . S
C2063 C2062 1.362 . S
H2064 C2070 0.930 . S
H2065 C2073 0.930 . S
H2066 C2074 0.930 . S
H2067 C2075 0.930 . S
H2068 C2078 0.930 . S
H2069 C2079 0.930 . S
C2070 H2064 0.930 . S
C2070 C2071 1.355 . S
C2070 C2072 1.415 . S
C2071 C2070 1.355 . S
C2071 C2073 1.419 . S
C2072 C2070 1.415 . S
C2072 C2077 1.425 . S
C2072 C2079 1.409 . S
C2073 H2065 0.930 . S
C2073 C2071 1.419 . S
C2073 C2074 1.362 . S
C2074 H2066 0.930 . S
C2074 C2073 1.362 . S
C2074 C2077 1.409 . S
C2075 H2067 0.930 . S
C2075 C2076 1.355 . S
C2075 C2077 1.415 . S
C2076 C2075 1.355 . S
C2076 C2078 1.419 . S
C2077 C2072 1.425 . S
C2077 C2074 1.409 . S
C2077 C2075 1.415 . S
C2078 H2068 0.930 . S
C2078 C2076 1.419 . S
C2078 C2079 1.362 . S
C2079 H2069 0.930 . S
C2079 C2072 1.409 . S
C2079 C2078 1.362 . S
H2080 C2086 0.930 . S
H2081 C2089 0.930 . S
H2082 C2090 0.930 . S
H2083 C2091 0.930 . S
H2084 C2094 0.930 . S
H2085 C2095 0.930 . S
C2086 H2080 0.930 . S
C2086 C2087 1.355 . S
C2086 C2088 1.415 . S
C2087 C2086 1.355 . S
C2087 C2089 1.419 . S
C2088 C2086 1.415 . S
C2088 C2093 1.425 . S
C2088 C2095 1.409 . S
C2089 H2081 0.930 . S
C2089 C2087 1.419 . S
C2089 C2090 1.362 . S
C2090 H2082 0.930 . S
C2090 C2089 1.362 . S
C2090 C2093 1.409 . S
C2091 H2083 0.930 . S
C2091 C2092 1.355 . S
C2091 C2093 1.415 . S
C2092 C2091 1.355 . S
C2092 C2094 1.419 . S
C2093 C2088 1.425 . S
C2093 C2090 1.409 . S
C2093 C2091 1.415 . S
C2094 H2084 0.930 . S
C2094 C2092 1.419 . S
C2094 C2095 1.362 . S
C2095 H2085 0.930 . S
C2095 C2088 1.409 . S
C2095 C2094 1.362 . S
H2096 C2102 0.930 . S
H2097 C2105 0.930 . S
H2098 C2106 0.930 . S
H2099 C2107 0.930 . S
H2100 C2110 0.930 . S
H2101 C2111 0.930 . S
C2102 H2096 0.930 . S
C2102 C2103 1.355 . S
C2102 C2104 1.415 . S
C2103 C2102 1.355 . S
C2103 C2105 1.419 . S
C2104 C2102 1.415 . S
C2104 C2109 1.425 . S
C2104 C2111 1.409 . S
C2105 H2097 0.930 . S
C2105 C2103 1.419 . S
C2105 C2106 1.362 . S
C2106 H2098 0.930 . S
C2106 C2105 1.362 . S
C2106 C2109 1.409 . S
C2107 H2099 0.930 . S
C2107 C2108 1.355 . S
C2107 C2109 1.415 . S
C2108 C2107 1.355 . S
C2108 C2110 1.419 . S
C2109 C2104 1.425 . S
C2109 C2106 1.409 . S
C2109 C2107 1.415 . S
C2110 H2100 0.930 . S
C2110 C2108 1.419 . S
C2110 C2111 1.362 . S
C2111 H2101 0.930 . S
C2111 C2104 1.409 . S
C2111 C2110 1.362 . S
H2112 C2118 0.930 . S
H2113 C2121 0.930 . S
H2114 C2122 0.930 . S
H2115 C2123 0.930 . S
H2116 C2126 0.930 . S
H2117 C2127 0.930 . S
C2118 H2112 0.930 . S
C2118 C2119 1.355 . S
C2118 C2120 1.415 . S
C2119 C2118 1.355 . S
C2119 C2121 1.419 . S
C2120 C2118 1.415 . S
C2120 C2125 1.425 . S
C2120 C2127 1.409 . S
C2121 H2113 0.930 . S
C2121 C2119 1.419 . S
C2121 C2122 1.362 . S
C2122 H2114 0.930 . S
C2122 C2121 1.362 . S
C2122 C2125 1.409 . S
C2123 H2115 0.930 . S
C2123 C2124 1.355 . S
C2123 C2125 1.415 . S
C2124 C2123 1.355 . S
C2124 C2126 1.419 . S
C2125 C2120 1.425 . S
C2125 C2122 1.409 . S
C2125 C2123 1.415 . S
C2126 H2116 0.930 . S
C2126 C2124 1.419 . S
C2126 C2127 1.362 . S
C2127 H2117 0.930 . S
C2127 C2120 1.409 . S
C2127 C2126 1.362 . S
H2128 C2134 0.930 . S
H2129 C2137 0.930 . S
H2130 C2138 0.930 . S
H2131 C2139 0.930 . S
H2132 C2142 0.930 . S
H2133 C2143 0.930 . S
C2134 H2128 0.930 . S
C2134 C2135 1.355 . S
C2134 C2136 1.415 . S
C2135 C2134 1.355 . S
C2135 C2137 1.419 . S
C2136 C2134 1.415 . S
C2136 C2141 1.425 . S
C2136 C2143 1.409 . S
C2137 H2129 0.930 . S
C2137 C2135 1.419 . S
C2137 C2138 1.362 . S
C2138 H2130 0.930 . S
C2138 C2137 1.362 . S
C2138 C2141 1.409 . S
C2139 H2131 0.930 . S
C2139 C2140 1.355 . S
C2139 C2141 1.415 . S
C2140 C2139 1.355 . S
C2140 C2142 1.419 . S
C2141 C2136 1.425 . S
C2141 C2138 1.409 . S
C2141 C2139 1.415 . S
C2142 H2132 0.930 . S
C2142 C2140 1.419 . S
C2142 C2143 1.362 . S
C2143 H2133 0.930 . S
C2143 C2136 1.409 . S
C2143 C2142 1.362 . S
H2144 C2150 0.930 . S
H2145 C2153 0.930 . S
H2146 C2154 0.930 . S
H2147 C2155 0.930 . S
H2148 C2158 0.930 . S
H2149 C2159 0.930 . S
C2150 H2144 0.930 . S
C2150 C2151 1.355 . S
C2150 C2152 1.415 . S
C2151 C2150 1.355 . S
C2151 C2153 1.419 . S
C2152 C2150 1.415 . S
C2152 C2157 1.425 . S
C2152 C2159 1.409 . S
C2153 H2145 0.930 . S
C2153 C2151 1.419 . S
C2153 C2154 1.362 . S
C2154 H2146 0.930 . S
C2154 C2153 1.362 . S
C2154 C2157 1.409 . S
C2155 H2147 0.930 . S
C2155 C2156 1.355 . S
C2155 C2157 1.415 . S
C2156 C2155 1.355 . S
C2156 C2158 1.419 . S
C2157 C2152 1.425 . S
C2157 C2154 1.409 . S
C2157 C2155 1.415 . S
C2158 H2148 0.930 . S
C2158 C2156 1.419 . S
C2158 C2159 1.362 . S
C2159 H2149 0.930 . S
C2159 C2152 1.409 . S
C2159 C2158 1.362 . S
H2160 C2166 0.930 . S
H2161 C2169 0.930 . S
H2162 C2170 0.930 . S
H2163 C2171 0.930 . S
H2164 C2174 0.930 . S
H2165 C2175 0.930 . S
C2166 H2160 0.930 . S
C2166 C2167 1.355 . S
C2166 C2168 1.415 . S
C2167 C2166 1.355 . S
C2167 C2169 1.419 . S
C2168 C2166 1.415 . S
C2168 C2173 1.425 . S
C2168 C2175 1.409 . S
C2169 H2161 0.930 . S
C2169 C2167 1.419 . S
C2169 C2170 1.362 . S
C2170 H2162 0.930 . S
C2170 C2169 1.362 . S
C2170 C2173 1.409 . S
C2171 H2163 0.930 . S
C2171 C2172 1.355 . S
C2171 C2173 1.415 . S
C2172 C2171 1.355 . S
C2172 C2174 1.419 . S
C2173 C2168 1.425 . S
C2173 C2170 1.409 . S
C2173 C2171 1.415 . S
C2174 H2164 0.930 . S
C2174 C2172 1.419 . S
C2174 C2175 1.362 . S
C2175 H2165 0.930 . S
C2175 C2168 1.409 . S
C2175 C2174 1.362 . S
H2176 C2182 0.930 . S
H2177 C2185 0.930 . S
H2178 C2186 0.930 . S
H2179 C2187 0.930 . S
H2180 C2190 0.930 . S
H2181 C2191 0.930 . S
C2182 H2176 0.930 . S
C2182 C2183 1.355 . S
C2182 C2184 1.415 . S
C2183 C2182 1.355 . S
C2183 C2185 1.419 . S
C2184 C2182 1.415 . S
C2184 C2189 1.425 . S
C2184 C2191 1.409 . S
C2185 H2177 0.930 . S
C2185 C2183 1.419 . S
C2185 C2186 1.362 . S
C2186 H2178 0.930 . S
C2186 C2185 1.362 . S
C2186 C2189 1.409 . S
C2187 H2179 0.930 . S
C2187 C2188 1.355 . S
C2187 C2189 1.415 . S
C2188 C2187 1.355 . S
C2188 C2190 1.419 . S
C2189 C2184 1.425 . S
C2189 C2186 1.409 . S
C2189 C2187 1.415 . S
C2190 H2180 0.930 . S
C2190 C2188 1.419 . S
C2190 C2191 1.362 . S
C2191 H2181 0.930 . S
C2191 C2184 1.409 . S
C2191 C2190 1.362 . S
H2192 C2198 0.930 . S
H2193 C2201 0.930 . S
H2194 C2202 0.930 . S
H2195 C2203 0.930 . S
H2196 C2206 0.930 . S
H2197 C2207 0.930 . S
C2198 H2192 0.930 . S
C2198 C2199 1.355 . S
C2198 C2200 1.415 . S
C2199 C2198 1.355 . S
C2199 C2201 1.419 . S
C2200 C2198 1.415 . S
C2200 C2205 1.425 . S
C2200 C2207 1.409 1_556 S
C2201 H2193 0.930 . S
C2201 C2199 1.419 . S
C2201 C2202 1.362 . S
C2202 H2194 0.930 . S
C2202 C2201 1.362 . S
C2202 C2205 1.409 . S
C2203 H2195 0.930 . S
C2203 C2204 1.373 . S
C2203 C2205 1.415 . S
C2204 C2203 1.373 . S
C2204 C2206 1.410 1_556 S
C2205 C2200 1.425 . S
C2205 C2202 1.409 . S
C2205 C2203 1.415 . S
C2206 H2196 0.930 . S
C2206 C2204 1.410 1_554 S
C2206 C2207 1.362 . S
C2207 H2197 0.930 . S
C2207 C2200 1.409 1_554 S
C2207 C2206 1.362 . S
H2208 C2214 0.930 . S
H2209 C2217 0.930 . S
H2210 C2218 0.930 . S
H2211 C2219 0.930 . S
H2212 C2222 0.930 . S
H2213 C2223 0.930 . S
C2214 H2208 0.930 . S
C2214 C2215 1.355 . S
C2214 C2216 1.415 . S
C2215 C2214 1.355 . S
C2215 C2217 1.419 . S
C2216 C2214 1.415 . S
C2216 C2221 1.425 . S
C2216 C2223 1.409 . S
C2217 H2209 0.930 . S
C2217 C2215 1.419 . S
C2217 C2218 1.362 . S
C2218 H2210 0.930 . S
C2218 C2217 1.362 . S
C2218 C2221 1.409 . S
C2219 H2211 0.930 . S
C2219 C2220 1.355 . S
C2219 C2221 1.415 . S
C2220 C2219 1.355 . S
C2220 C2222 1.419 . S
C2221 C2216 1.425 . S
C2221 C2218 1.409 . S
C2221 C2219 1.415 . S
C2222 H2212 0.930 . S
C2222 C2220 1.419 . S
C2222 C2223 1.362 . S
C2223 H2213 0.930 . S
C2223 C2216 1.409 . S
C2223 C2222 1.362 . S
H2224 C2230 0.930 . S
H2225 C2233 0.930 . S
H2226 C2234 0.930 1_655 S
H2227 C2235 0.930 . S
H2228 C2238 0.930 . S
H2229 C2239 0.930 . S
C2230 H2224 0.930 . S
C2230 C2231 1.355 . S
C2230 C2232 1.415 . S
C2231 C2230 1.355 . S
C2231 C2233 1.419 1_455 S
C2232 C2230 1.415 . S
C2232 C2237 1.425 . S
C2232 C2239 1.409 . S
C2233 H2225 0.930 . S
C2233 C2231 1.419 1_655 S
C2233 C2234 1.362 1_655 S
C2234 H2226 0.930 1_455 S
C2234 C2233 1.362 1_455 S
C2234 C2237 1.409 . S
C2235 H2227 0.930 . S
C2235 C2236 1.355 . S
C2235 C2237 1.415 . S
C2236 C2235 1.355 . S
C2236 C2238 1.419 . S
C2237 C2232 1.425 . S
C2237 C2234 1.409 . S
C2237 C2235 1.415 . S
C2238 H2228 0.930 . S
C2238 C2236 1.419 . S
C2238 C2239 1.362 . S
C2239 H2229 0.930 . S
C2239 C2232 1.409 . S
C2239 C2238 1.362 . S
H2240 C2246 0.930 . S
H2241 C2249 0.930 . S
H2242 C2250 0.930 . S
H2243 C2251 0.930 . S
H2244 C2254 0.930 . S
H2245 C2255 0.930 . S
C2246 H2240 0.930 . S
C2246 C2247 1.355 . S
C2246 C2248 1.415 . S
C2247 C2246 1.355 . S
C2247 C2249 1.419 . S
C2248 C2246 1.415 . S
C2248 C2253 1.425 . S
C2248 C2255 1.409 . S
C2249 H2241 0.930 . S
C2249 C2247 1.419 . S
C2249 C2250 1.362 . S
C2250 H2242 0.930 . S
C2250 C2249 1.362 . S
C2250 C2253 1.409 . S
C2251 H2243 0.930 . S
C2251 C2252 1.355 . S
C2251 C2253 1.415 . S
C2252 C2251 1.355 . S
C2252 C2254 1.419 . S
C2253 C2248 1.425 . S
C2253 C2250 1.409 . S
C2253 C2251 1.415 . S
C2254 H2244 0.930 . S
C2254 C2252 1.419 . S
C2254 C2255 1.362 . S
C2255 H2245 0.930 . S
C2255 C2248 1.409 . S
C2255 C2254 1.362 . S
H2256 C2262 0.930 . S
H2257 C2265 0.930 . S
H2258 C2266 0.930 . S
H2259 C2267 0.930 . S
H2260 C2270 0.930 . S
H2261 C2271 0.930 . S
C2262 H2256 0.930 . S
C2262 C2263 1.355 . S
C2262 C2264 1.415 . S
C2263 C2262 1.355 . S
C2263 C2265 1.419 . S
C2264 C2262 1.415 . S
C2264 C2269 1.425 . S
C2264 C2271 1.409 . S
C2265 H2257 0.930 . S
C2265 C2263 1.419 . S
C2265 C2266 1.362 . S
C2266 H2258 0.930 . S
C2266 C2265 1.362 . S
C2266 C2269 1.409 . S
C2267 H2259 0.930 . S
C2267 C2268 1.355 . S
C2267 C2269 1.415 . S
C2268 C2267 1.355 . S
C2268 C2270 1.419 . S
C2269 C2264 1.425 . S
C2269 C2266 1.409 . S
C2269 C2267 1.415 . S
C2270 H2260 0.930 . S
C2270 C2268 1.419 . S
C2270 C2271 1.362 . S
C2271 H2261 0.930 . S
C2271 C2264 1.409 . S
C2271 C2270 1.362 . S
H2272 C2278 0.930 . S
H2273 C2281 0.930 . S
H2274 C2282 0.930 . S
H2275 C2283 0.930 . S
H2276 C2286 0.930 . S
H2277 C2287 0.930 . S
C2278 H2272 0.930 . S
C2278 C2279 1.355 . S
C2278 C2280 1.415 . S
C2279 C2278 1.355 . S
C2279 C2281 1.419 . S
C2280 C2278 1.415 . S
C2280 C2285 1.425 . S
C2280 C2287 1.409 . S
C2281 H2273 0.930 . S
C2281 C2279 1.419 . S
C2281 C2282 1.362 . S
C2282 H2274 0.930 . S
C2282 C2281 1.362 . S
C2282 C2285 1.409 . S
C2283 H2275 0.930 . S
C2283 C2284 1.355 . S
C2283 C2285 1.415 . S
C2284 C2283 1.355 . S
C2284 C2286 1.419 . S
C2285 C2280 1.425 . S
C2285 C2282 1.409 . S
C2285 C2283 1.415 . S
C2286 H2276 0.930 . S
C2286 C2284 1.419 . S
C2286 C2287 1.362 . S
C2287 H2277 0.930 . S
C2287 C2280 1.409 . S
C2287 C2286 1.362 . S
H2288 C2294 0.930 . S
H2289 C2297 0.930 . S
H2290 C2298 0.930 . S
H2291 C2299 0.930 . S
H2292 C2302 0.930 1_554 S
H2293 C2303 0.934 . S
C2294 H2288 0.930 . S
C2294 C2295 1.355 . S
C2294 C2296 1.415 . S
C2295 C2294 1.355 . S
C2295 C2297 1.419 . S
C2296 C2294 1.415 . S
C2296 C2301 1.425 . S
C2296 C2303 1.387 1_655 S
C2297 H2289 0.930 . S
C2297 C2295 1.419 . S
C2297 C2298 1.362 . S
C2298 H2290 0.930 . S
C2298 C2297 1.362 . S
C2298 C2301 1.409 . S
C2299 H2291 0.930 . S
C2299 C2300 1.355 1_656 S
C2299 C2301 1.415 . S
C2300 C2299 1.355 1_454 S
C2300 C2302 1.419 1_554 S
C2301 C2296 1.425 . S
C2301 C2298 1.409 . S
C2301 C2299 1.415 . S
C2302 H2292 0.930 1_556 S
C2302 C2300 1.419 1_556 S
C2302 C2303 1.383 . S
C2303 H2293 0.934 . S
C2303 C2296 1.387 1_455 S
C2303 C2302 1.383 . S
H2304 C2310 0.930 . S
H2305 C2313 0.930 . S
H2306 C2314 0.930 . S
H2307 C2315 0.930 . S
H2308 C2318 0.930 . S
H2309 C2319 0.930 . S
C2310 H2304 0.930 . S
C2310 C2311 1.355 . S
C2310 C2312 1.415 . S
C2311 C2310 1.355 . S
C2311 C2313 1.419 . S
C2312 C2310 1.415 . S
C2312 C2317 1.425 . S
C2312 C2319 1.409 . S
C2313 H2305 0.930 . S
C2313 C2311 1.419 . S
C2313 C2314 1.362 . S
C2314 H2306 0.930 . S
C2314 C2313 1.362 . S
C2314 C2317 1.409 . S
C2315 H2307 0.930 . S
C2315 C2316 1.355 . S
C2315 C2317 1.415 . S
C2316 C2315 1.355 . S
C2316 C2318 1.419 . S
C2317 C2312 1.425 . S
C2317 C2314 1.409 . S
C2317 C2315 1.415 . S
C2318 H2308 0.930 . S
C2318 C2316 1.419 . S
C2318 C2319 1.362 . S
C2319 H2309 0.930 . S
C2319 C2312 1.409 . S
C2319 C2318 1.362 . S
H2320 C2326 0.930 . S
H2321 C2329 0.930 . S
H2322 C2330 0.930 . S
H2323 C2331 0.930 . S
H2324 C2334 0.930 . S
H2325 C2335 0.930 . S
C2326 H2320 0.930 . S
C2326 C2327 1.355 . S
C2326 C2328 1.415 . S
C2327 C2326 1.355 . S
C2327 C2329 1.419 . S
C2328 C2326 1.415 . S
C2328 C2333 1.425 . S
C2328 C2335 1.409 . S
C2329 H2321 0.930 . S
C2329 C2327 1.419 . S
C2329 C2330 1.362 . S
C2330 H2322 0.930 . S
C2330 C2329 1.362 . S
C2330 C2333 1.409 . S
C2331 H2323 0.930 . S
C2331 C2332 1.355 . S
C2331 C2333 1.415 . S
C2332 C2331 1.355 . S
C2332 C2334 1.419 . S
C2333 C2328 1.425 . S
C2333 C2330 1.409 . S
C2333 C2331 1.415 . S
C2334 H2324 0.930 . S
C2334 C2332 1.419 . S
C2334 C2335 1.362 . S
C2335 H2325 0.930 . S
C2335 C2328 1.409 . S
C2335 C2334 1.362 . S
H2336 C2342 0.930 . S
H2337 C2345 0.930 . S
H2338 C2346 0.930 . S
H2339 C2347 0.930 . S
H2340 C2350 0.930 . S
H2341 C2351 0.930 . S
C2342 H2336 0.930 . S
C2342 C2343 1.355 . S
C2342 C2344 1.415 . S
C2343 C2342 1.355 . S
C2343 C2345 1.419 . S
C2344 C2342 1.415 . S
C2344 C2349 1.425 . S
C2344 C2351 1.409 . S
C2345 H2337 0.930 . S
C2345 C2343 1.419 . S
C2345 C2346 1.362 . S
C2346 H2338 0.930 . S
C2346 C2345 1.362 . S
C2346 C2349 1.409 . S
C2347 H2339 0.930 . S
C2347 C2348 1.355 . S
C2347 C2349 1.415 . S
C2348 C2347 1.355 . S
C2348 C2350 1.419 . S
C2349 C2344 1.425 . S
C2349 C2346 1.409 . S
C2349 C2347 1.415 . S
C2350 H2340 0.930 . S
C2350 C2348 1.419 . S
C2350 C2351 1.362 . S
C2351 H2341 0.930 . S
C2351 C2344 1.409 . S
C2351 C2350 1.362 . S
H2352 C2358 0.930 . S
H2353 C2361 0.930 . S
H2354 C2362 0.930 . S
H2355 C2363 0.930 . S
H2356 C2366 0.930 1_455 S
H2357 C2367 0.930 . S
C2358 H2352 0.930 . S
C2358 C2359 1.355 . S
C2358 C2360 1.415 . S
C2359 C2358 1.355 . S
C2359 C2361 1.419 . S
C2360 C2358 1.415 . S
C2360 C2365 1.425 . S
C2360 C2367 1.409 . S
C2361 H2353 0.930 . S
C2361 C2359 1.419 . S
C2361 C2362 1.362 . S
C2362 H2354 0.930 . S
C2362 C2361 1.362 . S
C2362 C2365 1.409 . S
C2363 H2355 0.930 . S
C2363 C2364 1.355 . S
C2363 C2365 1.415 . S
C2364 C2363 1.355 . S
C2364 C2366 1.419 . S
C2365 C2360 1.425 . S
C2365 C2362 1.409 . S
C2365 C2363 1.415 . S
C2366 H2356 0.930 1_655 S
C2366 C2364 1.419 . S
C2366 C2367 1.362 . S
C2367 H2357 0.930 . S
C2367 C2360 1.409 . S
C2367 C2366 1.362 . S
H2368 C2374 0.930 . S
H2369 C2377 0.930 . S
H2370 C2378 0.930 . S
H2371 C2379 0.930 . S
H2372 C2382 0.930 . S
H2373 C2383 0.930 . S
C2374 H2368 0.930 . S
C2374 C2375 1.355 . S
C2374 C2376 1.415 . S
C2375 C2374 1.355 . S
C2375 C2377 1.419 . S
C2376 C2374 1.415 . S
C2376 C2381 1.425 . S
C2376 C2383 1.409 . S
C2377 H2369 0.930 . S
C2377 C2375 1.419 . S
C2377 C2378 1.362 . S
C2378 H2370 0.930 . S
C2378 C2377 1.362 . S
C2378 C2381 1.409 . S
C2379 H2371 0.930 . S
C2379 C2380 1.355 . S
C2379 C2381 1.415 . S
C2380 C2379 1.355 . S
C2380 C2382 1.419 . S
C2381 C2376 1.425 . S
C2381 C2378 1.409 . S
C2381 C2379 1.415 . S
C2382 H2372 0.930 . S
C2382 C2380 1.419 . S
C2382 C2383 1.362 . S
C2383 H2373 0.930 . S
C2383 C2376 1.409 . S
C2383 C2382 1.362 . S
H2384 C2390 0.930 . S
H2385 C2393 0.930 . S
H2386 C2394 0.930 . S
H2387 C2395 0.930 . S
H2388 C2398 0.930 . S
H2389 C2399 0.930 . S
C2390 H2384 0.930 . S
C2390 C2391 1.355 . S
C2390 C2392 1.415 . S
C2391 C2390 1.355 . S
C2391 C2393 1.419 . S
C2392 C2390 1.415 . S
C2392 C2397 1.425 . S
C2392 C2399 1.409 . S
C2393 H2385 0.930 . S
C2393 C2391 1.419 . S
C2393 C2394 1.362 . S
C2394 H2386 0.930 . S
C2394 C2393 1.362 . S
C2394 C2397 1.409 . S
C2395 H2387 0.930 . S
C2395 C2396 1.355 . S
C2395 C2397 1.415 . S
C2396 C2395 1.355 . S
C2396 C2398 1.419 . S
C2397 C2392 1.425 . S
C2397 C2394 1.409 . S
C2397 C2395 1.415 . S
C2398 H2388 0.930 . S
C2398 C2396 1.419 . S
C2398 C2399 1.362 . S
C2399 H2389 0.930 . S
C2399 C2392 1.409 . S
C2399 C2398 1.362 . S
H2400 C2406 0.930 . S
H2401 C2409 0.930 . S
H2402 C2410 0.930 . S
H2403 C2411 0.930 . S
H2404 C2414 0.930 . S
H2405 C2415 0.930 . S
C2406 H2400 0.930 . S
C2406 C2407 1.355 . S
C2406 C2408 1.415 . S
C2407 C2406 1.355 . S
C2407 C2409 1.419 . S
C2408 C2406 1.415 . S
C2408 C2413 1.425 . S
C2408 C2415 1.409 . S
C2409 H2401 0.930 . S
C2409 C2407 1.419 . S
C2409 C2410 1.362 . S
C2410 H2402 0.930 . S
C2410 C2409 1.362 . S
C2410 C2413 1.409 . S
C2411 H2403 0.930 . S
C2411 C2412 1.355 . S
C2411 C2413 1.415 . S
C2412 C2411 1.355 . S
C2412 C2414 1.419 . S
C2413 C2408 1.425 . S
C2413 C2410 1.409 . S
C2413 C2411 1.415 . S
C2414 H2404 0.930 . S
C2414 C2412 1.419 . S
C2414 C2415 1.362 . S
C2415 H2405 0.930 . S
C2415 C2408 1.409 . S
C2415 C2414 1.362 . S
H2416 C2422 0.930 . S
H2417 C2425 0.930 . S
H2418 C2426 0.930 . S
H2419 C2427 0.930 . S
H2420 C2430 0.930 . S
H2421 C2431 0.930 . S
C2422 H2416 0.930 . S
C2422 C2423 1.355 . S
C2422 C2424 1.415 . S
C2423 C2422 1.355 . S
C2423 C2425 1.419 . S
C2424 C2422 1.415 . S
C2424 C2429 1.425 . S
C2424 C2431 1.409 . S
C2425 H2417 0.930 . S
C2425 C2423 1.419 . S
C2425 C2426 1.362 . S
C2426 H2418 0.930 . S
C2426 C2425 1.362 . S
C2426 C2429 1.409 . S
C2427 H2419 0.930 . S
C2427 C2428 1.355 . S
C2427 C2429 1.415 . S
C2428 C2427 1.355 . S
C2428 C2430 1.419 . S
C2429 C2424 1.425 . S
C2429 C2426 1.409 . S
C2429 C2427 1.415 . S
C2430 H2420 0.930 . S
C2430 C2428 1.419 . S
C2430 C2431 1.362 . S
C2431 H2421 0.930 . S
C2431 C2424 1.409 . S
C2431 C2430 1.362 . S
H2432 C2438 0.930 . S
H2433 C2441 0.930 . S
H2434 C2442 0.930 . S
H2435 C2443 0.930 . S
H2436 C2446 0.930 . S
H2437 C2447 0.930 . S
C2438 H2432 0.930 . S
C2438 C2439 1.355 . S
C2438 C2440 1.415 . S
C2439 C2438 1.355 . S
C2439 C2441 1.419 . S
C2440 C2438 1.415 . S
C2440 C2445 1.425 . S
C2440 C2447 1.409 . S
C2441 H2433 0.930 . S
C2441 C2439 1.419 . S
C2441 C2442 1.362 . S
C2442 H2434 0.930 . S
C2442 C2441 1.362 . S
C2442 C2445 1.409 . S
C2443 H2435 0.930 . S
C2443 C2444 1.355 . S
C2443 C2445 1.415 . S
C2444 C2443 1.355 . S
C2444 C2446 1.419 . S
C2445 C2440 1.425 . S
C2445 C2442 1.409 . S
C2445 C2443 1.415 . S
C2446 H2436 0.930 . S
C2446 C2444 1.419 . S
C2446 C2447 1.362 . S
C2447 H2437 0.930 . S
C2447 C2440 1.409 . S
C2447 C2446 1.362 . S
H2448 C2454 0.930 . S
H2449 C2457 0.930 . S
H2450 C2458 0.930 . S
H2451 C2459 0.930 . S
H2452 C2462 0.930 . S
H2453 C2463 0.930 . S
C2454 H2448 0.930 . S
C2454 C2455 1.355 . S
C2454 C2456 1.415 . S
C2455 C2454 1.355 . S
C2455 C2457 1.419 . S
C2456 C2454 1.415 . S
C2456 C2461 1.425 . S
C2456 C2463 1.409 . S
C2457 H2449 0.930 . S
C2457 C2455 1.419 . S
C2457 C2458 1.362 . S
C2458 H2450 0.930 . S
C2458 C2457 1.362 . S
C2458 C2461 1.409 . S
C2459 H2451 0.930 . S
C2459 C2460 1.355 . S
C2459 C2461 1.415 . S
C2460 C2459 1.355 . S
C2460 C2462 1.419 . S
C2461 C2456 1.425 . S
C2461 C2458 1.409 . S
C2461 C2459 1.415 . S
C2462 H2452 0.930 . S
C2462 C2460 1.419 . S
C2462 C2463 1.362 . S
C2463 H2453 0.930 . S
C2463 C2456 1.409 . S
C2463 C2462 1.362 . S
H2464 C2470 0.930 . S
H2465 C2473 0.930 . S
H2466 C2474 0.930 . S
H2467 C2475 0.930 . S
H2468 C2478 0.930 . S
H2469 C2479 0.930 . S
C2470 H2464 0.930 . S
C2470 C2471 1.355 . S
C2470 C2472 1.415 . S
C2471 C2470 1.355 . S
C2471 C2473 1.419 . S
C2472 C2470 1.415 . S
C2472 C2477 1.425 . S
C2472 C2479 1.409 . S
C2473 H2465 0.930 . S
C2473 C2471 1.419 . S
C2473 C2474 1.362 . S
C2474 H2466 0.930 . S
C2474 C2473 1.362 . S
C2474 C2477 1.409 . S
C2475 H2467 0.930 . S
C2475 C2476 1.355 . S
C2475 C2477 1.415 . S
C2476 C2475 1.355 . S
C2476 C2478 1.419 . S
C2477 C2472 1.425 . S
C2477 C2474 1.409 . S
C2477 C2475 1.415 . S
C2478 H2468 0.930 . S
C2478 C2476 1.419 . S
C2478 C2479 1.362 . S
C2479 H2469 0.930 . S
C2479 C2472 1.409 . S
C2479 C2478 1.362 . S
H2480 C2486 0.930 . S
H2481 C2489 0.930 . S
H2482 C2490 0.930 . S
H2483 C2491 0.930 . S
H2484 C2494 0.930 . S
H2485 C2495 0.930 . S
C2486 H2480 0.930 . S
C2486 C2487 1.355 . S
C2486 C2488 1.415 . S
C2487 C2486 1.355 . S
C2487 C2489 1.419 . S
C2488 C2486 1.415 . S
C2488 C2493 1.425 . S
C2488 C2495 1.409 . S
C2489 H2481 0.930 . S
C2489 C2487 1.419 . S
C2489 C2490 1.362 . S
C2490 H2482 0.930 . S
C2490 C2489 1.362 . S
C2490 C2493 1.409 . S
C2491 H2483 0.930 . S
C2491 C2492 1.355 . S
C2491 C2493 1.415 . S
C2492 C2491 1.355 . S
C2492 C2494 1.419 . S
C2493 C2488 1.425 . S
C2493 C2490 1.409 . S
C2493 C2491 1.415 . S
C2494 H2484 0.930 . S
C2494 C2492 1.419 . S
C2494 C2495 1.362 . S
C2495 H2485 0.930 . S
C2495 C2488 1.409 . S
C2495 C2494 1.362 . S
H2496 C2502 0.930 . S
H2497 C2505 0.930 . S
H2498 C2506 0.930 . S
H2499 C2507 0.930 . S
H2500 C2510 0.930 . S
H2501 C2511 0.930 . S
C2502 H2496 0.930 . S
C2502 C2503 1.355 . S
C2502 C2504 1.415 . S
C2503 C2502 1.355 . S
C2503 C2505 1.419 . S
C2504 C2502 1.415 . S
C2504 C2509 1.425 . S
C2504 C2511 1.409 . S
C2505 H2497 0.930 . S
C2505 C2503 1.419 . S
C2505 C2506 1.362 . S
C2506 H2498 0.930 . S
C2506 C2505 1.362 . S
C2506 C2509 1.409 . S
C2507 H2499 0.930 . S
C2507 C2508 1.355 . S
C2507 C2509 1.415 . S
C2508 C2507 1.355 . S
C2508 C2510 1.419 . S
C2509 C2504 1.425 . S
C2509 C2506 1.409 . S
C2509 C2507 1.415 . S
C2510 H2500 0.930 . S
C2510 C2508 1.419 . S
C2510 C2511 1.362 . S
C2511 H2501 0.930 . S
C2511 C2504 1.409 . S
C2511 C2510 1.362 . S
C983 C106 2.697 1_554 S
C988 C346 2.628 . S
C999 C65 2.012 . S
C1004 C394 1.988 . S
C1015 C79 1.719 . S
C1020 C426 1.663 . S
C1036 C471 1.454 . S
C1031 C90 1.480 . S
C1047 C21 0.790 . S
C1052 C511 0.770 . S
C1068 C546 1.153 . S
C1063 C35 1.148 . S
C1084 C585 1.357 . S
C1079 C50 1.354 . S
C1095 C6 1.258 . S
C1100 C622 1.282 . S
C1116 C354 2.405 . S
C1111 C232 2.356 1_545 S
C1127 C245 0.670 . S
C1132 C391 0.673 . S
C1148 C434 2.433 . S
C1143 C274 2.442 . S
C1164 C466 1.173 . S
C1159 C175 1.151 1_556 S
C1175 C231 1.219 . S
C1180 C506 1.201 . S
C1196 C554 0.616 . S
C1191 C246 0.598 . S
C1212 C595 1.968 . S
C1207 C273 1.972 . S
C1228 C625 2.261 . S
C1223 C176 2.206 . S
C1244 C351 1.811 . S
C1239 C160 1.726 . S
C1255 C289 2.126 . S
C1260 C674 2.104 . S
C1276 C711 1.348 . S
C1271 C328 1.304 . S
C1292 C742 1.043 . S
C1287 C317 1.137 . S
C1303 C118 2.661 . S
C1308 C635 2.674 . S
C1319 C132 1.394 . S
C1324 C431 1.438 . S
C1335 C331 1.804 . S
C1340 C794 1.786 . S
C1356 C826 1.988 . S
C1351 C303 1.945 . S
C1372 C355 2.147 . S
C1367 C63 2.208 . S
C1388 C825 2.468 . S
C1383 C107 2.434 . S
C1399 C92 1.471 . S
C1404 C435 1.513 . S
C1415 C78 1.799 . S
C1420 C782 1.797 . S
C1436 C502 1.193 . S
C1431 C8 1.206 . S
C1447 C51 1.185 . S
C1452 C715 1.176 . S
C1468 C594 1.554 . S
C1463 C37 1.571 . S
C1484 C871 1.258 . S
C1479 C20 1.232 1_655 S
C1500 C345 2.115 . S
C1495 C147 2.035 . S
C1516 C822 0.579 . S
C1511 C316 0.580 . S
C1527 C119 2.287 . S
C1532 C425 2.357 . S
C1543 C288 1.232 . S
C1548 C795 1.253 . S
C1559 C148 1.508 . S
C1564 C515 1.468 . S
C1580 C705 0.559 . S
C1575 C315 0.551 . S
C1591 C120 2.388 . S
C1596 C586 2.261 . S
C1607 C287 1.953 1_556 S
C1612 C874 1.958 . S
C1623 C188 1.472 . S
C1628 C342 1.530 . S
C1639 C177 2.453 . S
C1644 C665 2.467 . S
C1655 C258 1.285 . S
C1660 C542 1.306 . S
C1671 C247 0.991 . S
C1676 C751 1.002 . S
C1692 C866 2.604 . S
C1687 C272 2.630 . S
C1703 C216 1.340 . S
C1708 C422 1.372 . S
C1724 C465 2.037 . S
C1719 C261 1.995 . S
C1740 C395 2.141 . S
C1735 C205 2.145 . S
C1751 C76 2.304 . S
C1756 C906 2.281 . S
C1772 C834 2.074 . S
C1767 C93 2.081 . S
C1783 C105 1.351 . S
C1788 C946 1.328 . S
C1799 C62 1.487 1_655 S
C1804 C791 1.479 . S
C1815 C49 0.750 . S
C1820 C671 0.763 . S
C1836 C706 1.433 . S
C1831 C9 1.481 . S
C1852 C745 1.274 . S
C1847 C22 1.278 . S
C1868 C862 1.575 . S
C1863 C36 1.540 . S
C1884 C914 2.347 . S
C1879 C260 2.310 . S
C1895 C189 0.371 . S
C1900 C831 0.406 . S
C1916 C954 2.353 . S
C1911 C204 2.367 . S
C1932 C786 0.978 . S
C1927 C217 1.010 . S
C1948 C666 1.285 1_556 S
C1943 C259 1.290 . S
C1959 C190 0.306 . S
C1964 C714 0.321 . S
C1980 C755 2.153 . S
C1975 C203 2.153 . S
C1991 C218 2.291 . S
C1996 C865 2.338 . S
C2012 C911 1.825 . S
C2007 C314 1.710 . S
C2023 C135 2.190 . S
C2028 C514 2.178 . S
C2044 C551 1.307 . S
C2039 C146 1.214 . S
C2060 C582 1.040 . S
C2055 C163 1.090 . S
C2076 C875 2.729 . S
C2071 C300 2.721 . S
C2087 C286 1.382 . S
C2092 C951 1.370 . S
C2108 C474 1.743 . S
C2103 C149 1.728 . S
C2124 C386 1.927 . S
C2119 C121 1.933 . S
C2135 C91 2.196 . S
C2140 C915 2.150 . S
C2156 C385 2.057 . S
C2151 C77 1.959 . S
C2167 C64 1.462 . S
C2172 C955 1.490 . S
C2183 C104 1.579 . S
C2188 C462 1.526 . S
C2199 C34 0.928 . S
C2204 C662 0.890 1_556 S
C2220 C555 1.149 . S
C2215 C23 1.100 . S
C2231 C7 1.067 . S
C2236 C754 1.183 . S
C2247 C48 1.243 . S
C2252 C631 1.261 . S
C2268 C905 2.063 . S
C2263 C329 1.996 . S
C2279 C162 0.584 . S
C2284 C382 0.557 . S
C2300 C945 2.338 . S
C2295 C301 2.276 . S
C2311 C134 1.256 . S
C2316 C475 1.254 . S
C2327 C330 1.485 . S
C2332 C675 1.490 . S
C2348 C545 0.509 . S
C2343 C161 0.442 . S
C2359 C302 2.340 . S
C2364 C746 2.214 1_655 S
C2380 C634 1.923 . S
C2375 C133 1.942 . S
C2396 C902 1.560 . S
C2391 C244 1.517 . S
C2412 C505 2.470 1_665 S
C2407 C219 2.459 . S
C2423 C230 1.151 . S
C2428 C702 1.141 . S
C2444 C591 1.098 . S
C2439 C191 1.111 . S
C2455 C202 2.823 . S
C2460 C626 2.837 . S
C2471 C174 1.530 . S
C2476 C942 1.531 . S
C2492 C785 2.045 . S
C2487 C233 1.998 . S
C2508 C835 2.099 . S
C2503 C275 2.103 . S
