# Generated by pormake.
# Topology myd, (4,6)-cn, num edge types: 1
# Building blocks:
#     Node 0, Type 0, BuildingBlock: NAWXER_clean_sbu_0, # of connection points: 4
#     Node 1, Type 0, BuildingBlock: NAWXER_clean_sbu_0, # of connection points: 4
#     Node 2, Type 0, BuildingBlock: NAWXER_clean_sbu_0, # of connection points: 4
#     Node 3, Type 0, BuildingBlock: NAWXER_clean_sbu_0, # of connection points: 4
#     Node 4, Type 0, BuildingBlock: NAWXER_clean_sbu_0, # of connection points: 4
#     Node 5, Type 0, BuildingBlock: NAWXER_clean_sbu_0, # of connection points: 4
#     Node 6, Type 0, BuildingBlock: NAWXER_clean_sbu_0, # of connection points: 4
#     Node 7, Type 0, BuildingBlock: NAWXER_clean_sbu_0, # of connection points: 4
#     Node 8, Type 0, BuildingBlock: NAWXER_clean_sbu_0, # of connection points: 4
#     Node 9, Type 0, BuildingBlock: NAWXER_clean_sbu_0, # of connection points: 4
#     Node 10, Type 0, BuildingBlock: NAWXER_clean_sbu_0, # of connection points: 4
#     Node 11, Type 0, BuildingBlock: NAWXER_clean_sbu_0, # of connection points: 4
#     Node 12, Type 1, BuildingBlock: MIDCAF_clean_sbu_0, # of connection points: 6
#     Node 13, Type 1, BuildingBlock: MIDCAF_clean_sbu_0, # of connection points: 6
#     Node 14, Type 1, BuildingBlock: MIDCAF_clean_sbu_0, # of connection points: 6
#     Node 15, Type 1, BuildingBlock: MIDCAF_clean_sbu_0, # of connection points: 6
#     Node 16, Type 1, BuildingBlock: MIDCAF_clean_sbu_0, # of connection points: 6
#     Node 17, Type 1, BuildingBlock: MIDCAF_clean_sbu_0, # of connection points: 6
#     Node 18, Type 1, BuildingBlock: MIDCAF_clean_sbu_0, # of connection points: 6
#     Node 19, Type 1, BuildingBlock: MIDCAF_clean_sbu_0, # of connection points: 6
#     Edge 20, Type (0, 1), BuildingBlock: TEMPAE_clean_linker_10, # of connection points: 2
#     Edge 21, Type (0, 1), BuildingBlock: TEMPAE_clean_linker_10, # of connection points: 2
#     Edge 22, Type (0, 1), BuildingBlock: TEMPAE_clean_linker_10, # of connection points: 2
#     Edge 23, Type (0, 1), BuildingBlock: TEMPAE_clean_linker_10, # of connection points: 2
#     Edge 24, Type (0, 1), BuildingBlock: TEMPAE_clean_linker_10, # of connection points: 2
#     Edge 25, Type (0, 1), BuildingBlock: TEMPAE_clean_linker_10, # of connection points: 2
#     Edge 26, Type (0, 1), BuildingBlock: TEMPAE_clean_linker_10, # of connection points: 2
#     Edge 27, Type (0, 1), BuildingBlock: TEMPAE_clean_linker_10, # of connection points: 2
#     Edge 28, Type (0, 1), BuildingBlock: TEMPAE_clean_linker_10, # of connection points: 2
#     Edge 29, Type (0, 1), BuildingBlock: TEMPAE_clean_linker_10, # of connection points: 2
#     Edge 30, Type (0, 1), BuildingBlock: TEMPAE_clean_linker_10, # of connection points: 2
#     Edge 31, Type (0, 1), BuildingBlock: TEMPAE_clean_linker_10, # of connection points: 2
#     Edge 32, Type (0, 1), BuildingBlock: TEMPAE_clean_linker_10, # of connection points: 2
#     Edge 33, Type (0, 1), BuildingBlock: TEMPAE_clean_linker_10, # of connection points: 2
#     Edge 34, Type (0, 1), BuildingBlock: TEMPAE_clean_linker_10, # of connection points: 2
#     Edge 35, Type (0, 1), BuildingBlock: TEMPAE_clean_linker_10, # of connection points: 2
#     Edge 36, Type (0, 1), BuildingBlock: TEMPAE_clean_linker_10, # of connection points: 2
#     Edge 37, Type (0, 1), BuildingBlock: TEMPAE_clean_linker_10, # of connection points: 2
#     Edge 38, Type (0, 1), BuildingBlock: TEMPAE_clean_linker_10, # of connection points: 2
#     Edge 39, Type (0, 1), BuildingBlock: TEMPAE_clean_linker_10, # of connection points: 2
#     Edge 40, Type (0, 1), BuildingBlock: TEMPAE_clean_linker_10, # of connection points: 2
#     Edge 41, Type (0, 1), BuildingBlock: TEMPAE_clean_linker_10, # of connection points: 2
#     Edge 42, Type (0, 1), BuildingBlock: TEMPAE_clean_linker_10, # of connection points: 2
#     Edge 43, Type (0, 1), BuildingBlock: TEMPAE_clean_linker_10, # of connection points: 2
#     Edge 44, Type (0, 1), BuildingBlock: TEMPAE_clean_linker_10, # of connection points: 2
#     Edge 45, Type (0, 1), BuildingBlock: TEMPAE_clean_linker_10, # of connection points: 2
#     Edge 46, Type (0, 1), BuildingBlock: TEMPAE_clean_linker_10, # of connection points: 2
#     Edge 47, Type (0, 1), BuildingBlock: TEMPAE_clean_linker_10, # of connection points: 2
#     Edge 48, Type (0, 1), BuildingBlock: TEMPAE_clean_linker_10, # of connection points: 2
#     Edge 49, Type (0, 1), BuildingBlock: TEMPAE_clean_linker_10, # of connection points: 2
#     Edge 50, Type (0, 1), BuildingBlock: TEMPAE_clean_linker_10, # of connection points: 2
#     Edge 51, Type (0, 1), BuildingBlock: TEMPAE_clean_linker_10, # of connection points: 2
#     Edge 52, Type (0, 1), BuildingBlock: TEMPAE_clean_linker_10, # of connection points: 2
#     Edge 53, Type (0, 1), BuildingBlock: TEMPAE_clean_linker_10, # of connection points: 2
#     Edge 54, Type (0, 1), BuildingBlock: TEMPAE_clean_linker_10, # of connection points: 2
#     Edge 55, Type (0, 1), BuildingBlock: TEMPAE_clean_linker_10, # of connection points: 2
#     Edge 56, Type (0, 1), BuildingBlock: TEMPAE_clean_linker_10, # of connection points: 2
#     Edge 57, Type (0, 1), BuildingBlock: TEMPAE_clean_linker_10, # of connection points: 2
#     Edge 58, Type (0, 1), BuildingBlock: TEMPAE_clean_linker_10, # of connection points: 2
#     Edge 59, Type (0, 1), BuildingBlock: TEMPAE_clean_linker_10, # of connection points: 2
#     Edge 60, Type (0, 1), BuildingBlock: TEMPAE_clean_linker_10, # of connection points: 2
#     Edge 61, Type (0, 1), BuildingBlock: TEMPAE_clean_linker_10, # of connection points: 2
#     Edge 62, Type (0, 1), BuildingBlock: TEMPAE_clean_linker_10, # of connection points: 2
#     Edge 63, Type (0, 1), BuildingBlock: TEMPAE_clean_linker_10, # of connection points: 2
#     Edge 64, Type (0, 1), BuildingBlock: TEMPAE_clean_linker_10, # of connection points: 2
#     Edge 65, Type (0, 1), BuildingBlock: TEMPAE_clean_linker_10, # of connection points: 2
#     Edge 66, Type (0, 1), BuildingBlock: TEMPAE_clean_linker_10, # of connection points: 2
#     Edge 67, Type (0, 1), BuildingBlock: TEMPAE_clean_linker_10, # of connection points: 2
# Relax obj value: 0.163
# Max RMSD: 0.104
# Mean RMSD: 0.094
data_MOF--net-myd--node1-NAWXER_clean_sbu_0--node2-MIDCAF_clean_sbu_0--edge1-TEMPAE_clean_linker_10
_symmetry_space_group_name_H-M    P1
_symmetry_Int_Tables_number       1
_symmetry_cell_setting            triclinic
loop_
_symmetry_equiv_pos_as_xyz
'x, y, z'
_cell_length_a     45.686862
_cell_length_b     45.803944
_cell_length_c     45.739334
_cell_angle_alpha  90.070434
_cell_angle_beta   90.08981
_cell_angle_gamma 90.12801
loop_
_atom_site_label
_atom_site_type_symbol
_atom_site_fract_x
_atom_site_fract_y
_atom_site_fract_z
_atom_type_partial_charge
C0 C 0.02615 0.22539 0.24977 0.0
C1 C 0.01013 0.30235 0.3257 0.0
O2 O 0.04741 0.23927 0.26165 0.0
Zn3 Zn 0.02289 0.26078 0.29096 0.0
O4 O 0.00037 0.22835 0.26001 0.0
Zn5 Zn 0.97552 0.25232 0.29044 0.0
O6 O 0.95193 0.27225 0.25948 0.0
O7 O 0.99896 0.28337 0.25877 0.0
O8 O 0.98725 0.28814 0.31777 0.0
O9 O 0.03505 0.29384 0.31651 0.0
O10 O 0.01033 0.22579 0.31874 0.0
O11 O 0.96257 0.21994 0.31625 0.0
C12 C 0.97346 0.28557 0.24757 0.0
C13 C 0.98729 0.2117 0.32626 0.0
C14 C 0.97277 0.78105 0.2546 0.0
C15 C 0.98158 0.70406 0.18051 0.0
O16 O -0.00069 0.77699 0.24629 0.0
Zn17 Zn 0.0229 0.74966 0.2152 0.0
O18 O 0.95213 0.76707 0.24211 0.0
Zn19 Zn 0.97712 0.74583 0.21524 0.0
O20 O 0.00047 0.71957 0.24742 0.0
O21 O 0.04766 0.72884 0.24296 0.0
O22 O 0.95885 0.71686 0.1899 0.0
O23 O 0.0068 0.7141 0.18801 0.0
O24 O 0.04111 0.77825 0.18922 0.0
O25 O 0.99315 0.78105 0.18757 0.0
C26 C 0.02695 0.71558 0.25604 0.0
C27 C 0.0183 0.79099 0.17983 0.0
C28 C 0.3156 0.99022 0.2102 0.0
C29 C 0.24011 0.97824 0.28694 0.0
O30 O 0.30625 0.96557 0.21925 0.0
Zn31 Zn 0.28149 0.97953 0.25187 0.0
O32 O 0.30837 0.01339 0.22403 0.0
Zn33 Zn 0.28215 0.02714 0.25929 0.0
O34 O 0.30901 0.04066 0.2902 0.0
O35 O 0.31042 0.9928 0.2855 0.0
O36 O 0.25105 0.00367 0.28362 0.0
O37 O 0.25166 0.95648 0.27379 0.0
O38 O 0.25062 0.00407 0.22833 0.0
O39 O 0.253 0.05134 0.23803 0.0
C40 C 0.31897 0.01607 0.29854 0.0
C41 C 0.2407 0.02986 0.22496 0.0
C42 C 0.7723 0.45625 0.22271 0.0
C43 C 0.68921 0.4733 0.28874 0.0
O44 O 0.7576 0.43564 0.23445 0.0
Zn45 Zn 0.72864 0.46136 0.25337 0.0
O46 O 0.76379 0.48267 0.2252 0.0
Zn47 Zn 0.73196 0.50848 0.24604 0.0
O48 O 0.75939 0.53108 0.27064 0.0
O49 O 0.75861 0.48389 0.28056 0.0
O50 O 0.69967 0.49619 0.27658 0.0
O51 O 0.69926 0.44834 0.28172 0.0
O52 O 0.70424 0.4767 0.2172 0.0
O53 O 0.71017 0.52427 0.21267 0.0
C54 C 0.76939 0.50929 0.28488 0.0
C55 C 0.6989 0.50048 0.20352 0.0
C56 C 0.21504 0.32421 0.98777 0.0
C57 C 0.2814 0.23998 0.9764 0.0
O58 O 0.22156 0.31207 0.96353 0.0
Zn59 Zn 0.25224 0.28542 0.97759 0.0
O60 O 0.22963 0.31752 0.01076 0.0
Zn61 Zn 0.26326 0.28808 0.02401 0.0
O62 O 0.29797 0.31188 0.03342 0.0
O63 O 0.28982 0.31145 0.98599 0.0
O64 O 0.28138 0.25221 0.00149 0.0
O65 O 0.26836 0.25219 0.95496 0.0
O66 O 0.2264 0.26015 0.00631 0.0
O67 O 0.24109 0.26374 0.05225 0.0
C68 C 0.30545 0.31968 0.00777 0.0
C69 C 0.2238 0.25281 0.03311 0.0
C70 C 0.23073 0.76634 0.4793 0.0
C71 C 0.31017 0.69461 0.4969 0.0
O72 O 0.24542 0.75456 0.45867 0.0
Zn73 Zn 0.26841 0.72797 0.48421 0.0
O74 O 0.234 0.75737 0.50552 0.0
Zn75 Zn 0.2593 0.72852 0.53124 0.0
O76 O 0.27785 0.7596 0.55521 0.0
O77 O 0.28921 0.76134 0.50828 0.0
O78 O 0.29571 0.70217 0.51966 0.0
O79 O 0.30192 0.70388 0.47195 0.0
O80 O 0.23545 0.69831 0.4971 0.0
O81 O 0.22855 0.70138 0.54466 0.0
C82 C 0.29069 0.77231 0.53393 0.0
C83 C 0.22163 0.69024 0.52004 0.0
C84 C 0.69297 0.8106 0.52369 0.0
C85 C 0.77348 0.73966 0.52348 0.0
O86 O 0.70207 0.80532 0.49765 0.0
Zn87 Zn 0.73695 0.78006 0.47786 0.0
O88 O 0.70654 0.79935 0.54511 0.0
Zn89 Zn 0.73528 0.77657 0.5236 0.0
O90 O 0.76774 0.80747 0.50762 0.0
O91 O 0.76295 0.80813 0.45977 0.0
O92 O 0.75961 0.74952 0.54547 0.0
O93 O 0.7674 0.74936 0.49783 0.0
O94 O 0.71561 0.75385 0.45222 0.0
O95 O 0.70893 0.74533 0.4992 0.0
C96 C 0.776 0.81715 0.48258 0.0
C97 C 0.70376 0.73881 0.47234 0.0
C98 C 0.4586 0.7765 0.73416 0.0
C99 C 0.47836 0.70616 0.81313 0.0
O100 O 0.4384 0.76272 0.74765 0.0
Zn101 Zn 0.46467 0.7431 0.77574 0.0
O102 O 0.4851 0.77477 0.74286 0.0
Zn103 Zn 0.51165 0.75333 0.77374 0.0
O104 O 0.53583 0.73163 0.74537 0.0
O105 O 0.48899 0.71938 0.74467 0.0
O106 O 0.5006 0.72031 0.80375 0.0
O107 O 0.45303 0.71218 0.80315 0.0
O108 O 0.47784 0.77819 0.80262 0.0
O109 O 0.52526 0.78596 0.79817 0.0
C110 C 0.51476 0.717 0.73419 0.0
C111 C 0.50074 0.79284 0.80946 0.0
C112 C 0.48623 0.22407 0.76358 0.0
C113 C 0.50095 0.30182 0.69018 0.0
O114 O 0.46517 0.23825 0.75193 0.0
Zn115 Zn 0.48986 0.26152 0.72506 0.0
O116 O 0.51229 0.22765 0.75419 0.0
Zn117 Zn 0.53714 0.25298 0.7248 0.0
O118 O 0.56149 0.27263 0.75458 0.0
O119 O 0.51431 0.28301 0.75761 0.0
O120 O 0.52406 0.28792 0.69763 0.0
O121 O 0.47631 0.29408 0.70071 0.0
O122 O 0.50329 0.22948 0.69493 0.0
O123 O 0.55104 0.2228 0.69776 0.0
C124 C 0.54031 0.28523 0.76764 0.0
C125 C 0.52638 0.2162 0.68645 0.0
C126 C 0.74307 0.4751 0.71236 0.0
C127 C 0.81456 0.4795 0.79198 0.0
O128 O 0.75107 0.50138 0.71825 0.0
Zn129 Zn 0.78123 0.52337 0.74799 0.0
O130 O 0.75529 0.45392 0.72551 0.0
Zn131 Zn 0.78124 0.47767 0.74924 0.0
O132 O 0.74865 0.49951 0.77631 0.0
O133 O 0.75331 0.54699 0.76927 0.0
O134 O 0.80548 0.45758 0.77759 0.0
O135 O 0.80742 0.5052 0.78331 0.0
O136 O 0.80801 0.54353 0.72198 0.0
O137 O 0.81072 0.49593 0.71668 0.0
C138 C 0.74015 0.52576 0.78144 0.0
C139 C 0.81861 0.52167 0.70868 0.0
C140 C 0.25253 0.02839 0.71187 0.0
C141 C 0.17835 0.02154 0.78897 0.0
O142 O 0.24448 0.00193 0.71672 0.0
Zn143 Zn 0.21297 0.97909 0.74438 0.0
O144 O 0.2391 0.0492 0.72445 0.0
Zn145 Zn 0.21206 0.02471 0.74617 0.0
O146 O 0.24428 0.00299 0.77401 0.0
O147 O 0.24094 0.95551 0.76606 0.0
O148 O 0.18659 0.04373 0.77455 0.0
O149 O 0.1862 0.99611 0.78002 0.0
O150 O 0.18718 0.9593 0.7165 0.0
O151 O 0.18468 0.00685 0.71132 0.0
C152 C 0.25328 0.97689 0.77898 0.0
C153 C 0.17737 0.98115 0.70258 0.0
C154 C 0.69676 0.17904 0.0069 0.0
C155 C 0.77154 0.25462 0.0299 0.0
O156 O 0.70395 0.18754 0.03248 0.0
Zn157 Zn 0.73704 0.21352 0.02259 0.0
O158 O 0.71194 0.18775 0.98503 0.0
Zn159 Zn 0.74801 0.21588 0.97605 0.0
O160 O 0.78123 0.19084 0.96383 0.0
O161 O 0.77275 0.18635 0.01095 0.0
O162 O 0.77017 0.2458 0.00345 0.0
O163 O 0.75667 0.24155 0.04962 0.0
O164 O 0.7151 0.2461 -0.00151 0.0
O165 O 0.72866 0.24689 0.95221 0.0
C166 C 0.78809 0.17979 0.98849 0.0
C167 C 0.71394 0.25793 0.97325 0.0
Zn168 Zn 0.0956 0.07823 0.09278 0.0
Zn169 Zn 0.01037 0.01162 0.00895 0.0
Zn170 Zn 0.03867 0.04498 0.04186 0.0
C171 C 0.05906 0.03332 0.97615 0.0
C172 C 0.02649 0.97601 0.0562 0.0
O173 O 0.01305 0.08276 0.05738 0.0
O174 O 0.0538 0.09119 0.08076 0.0
C175 C 0.10495 0.06845 0.03542 0.0
O176 O 0.0644 0.04663 0.00039 0.0
O177 O 0.03692 0.01676 0.97437 0.0
O178 O 0.01278 0.97443 0.03221 0.0
O179 O 0.03796 0.00067 0.06388 0.0
O180 O 0.11106 0.05455 0.05855 0.0
O181 O 0.07886 0.06623 0.02469 0.0
O182 O 0.05347 0.02125 0.08113 0.0
O183 O 0.05553 0.06235 0.10471 0.0
C184 C 0.05876 0.03509 0.10503 0.0
O185 O 0.9948 0.06704 0.03725 0.0
O186 O 0.973 0.03467 0.00885 0.0
C187 C 0.02834 0.09959 0.07383 0.0
C188 C 0.97211 0.05869 0.02251 0.0
Zn189 Zn 0.98898 0.48681 0.00643 0.0
Zn190 Zn 0.93892 0.42211 0.06846 0.0
Zn191 Zn 0.96223 0.45211 0.03906 0.0
C192 C 0.95199 0.45886 0.10562 0.0
C193 C 0.89685 0.4323 0.03641 0.0
O194 O 0.00621 0.43169 0.03321 0.0
O195 O 0.02716 0.4654 0.00603 0.0
C196 C 0.97253 0.52052 0.05509 0.0
O197 O 0.9495 0.47262 0.08112 0.0
O198 O 0.96087 0.43285 0.10479 0.0
O199 O 0.89884 0.43845 0.06321 0.0
O200 O 0.9202 0.43446 0.02061 0.0
O201 O 0.98509 0.52317 0.03062 0.0
O202 O 0.96251 0.4953 0.06268 0.0
O203 O 0.93557 0.45174 -0.00188 0.0
O204 O 0.96272 0.48155 0.97174 0.0
C205 C 0.94056 0.46508 0.97384 0.0
O206 O 0.98794 0.41316 0.0532 0.0
O207 O 0.94965 0.38552 0.04657 0.0
C208 C 0.02866 0.44109 0.01902 0.0
C209 C 0.97593 0.38766 0.05479 0.0
Zn210 Zn 0.99687 0.98738 0.49166 0.0
Zn211 Zn 0.04785 0.92793 0.42109 0.0
Zn212 Zn 0.02657 0.95616 0.4552 0.0
C213 C 0.08973 0.93013 0.46012 0.0
C214 C 0.00459 0.89472 0.42785 0.0
O215 O 0.02573 0.00129 0.43587 0.0
O216 O -0.00068 0.0246 0.46868 0.0
C217 C 0.04661 0.96521 0.52262 0.0
O218 O 0.06626 0.9355 0.47486 0.0
O219 O 0.08917 0.93299 0.43275 0.0
O220 O 0.03134 0.88835 0.42628 0.0
O221 O 0.99734 0.92049 0.43688 0.0
O222 O 0.02416 0.98108 0.52561 0.0
O223 O 0.05166 0.95308 0.49764 0.0
O224 O 0.9816 0.93697 0.4582 0.0
O225 O 0.95896 0.96512 0.49017 0.0
C226 C 0.95855 0.94334 0.47318 0.0
O227 O 0.0453 0.9813 0.41803 0.0
O228 O 0.03627 0.94839 0.38451 0.0
C229 C 0.01302 0.02482 0.44467 0.0
C230 C 0.04735 0.97273 0.39122 0.0
Zn231 Zn 0.94954 0.58856 0.43842 0.0
Zn232 Zn 0.00324 0.51772 0.50237 0.0
Zn233 Zn 0.97471 0.55321 0.46769 0.0
C234 C 0.98715 0.48441 0.45253 0.0
C235 C 0.04174 0.56391 0.4881 0.0
O236 O 0.9379 0.57352 0.49374 0.0
O237 O 0.91247 0.59491 0.45883 0.0
C238 C 0.94574 0.53908 0.40618 0.0
O239 O 0.97446 0.5087 0.44579 0.0
O240 O 0.00132 0.4827 0.47624 0.0
O241 O 0.04014 0.5411 0.50356 0.0
O242 O 0.01977 0.57142 0.47205 0.0
O243 O 0.94606 0.56622 0.40177 0.0
O244 O 0.9549 0.52888 0.4308 0.0
O245 O 0.00549 0.58706 0.44803 0.0
O246 O 0.97536 0.6226 0.43613 0.0
C247 C 0.00106 0.61282 0.43728 0.0
O248 O 0.95198 0.55265 0.51139 0.0
O249 O 0.97678 0.52014 0.53706 0.0
C250 C 0.91512 0.58793 0.48529 0.0
C251 C 0.9557 0.53786 0.53517 0.0
Zn252 Zn 0.42246 0.96058 0.57628 0.0
Zn253 Zn 0.49625 0.00039 0.51368 0.0
Zn254 Zn 0.45805 0.97758 0.54721 0.0
C255 C 0.44711 0.99052 0.47831 0.0
C256 C 0.48594 0.04103 0.5584 0.0
O257 O 0.47278 0.93544 0.56643 0.0
O258 O 0.42788 0.91848 0.56929 0.0
C259 C 0.39161 0.9653 0.53289 0.0
O260 O 0.43786 0.98 0.50272 0.0
O261 O 0.47276 0.0008 0.47688 0.0
O262 O 0.50109 0.03766 0.53557 0.0
O263 O 0.46773 0.02099 0.56616 0.0
O264 O 0.38722 0.97772 0.55713 0.0
O265 O 0.41817 0.9641 0.52338 0.0
O266 O 0.44304 0.00868 0.58261 0.0
O267 O 0.43261 0.97564 0.6157 0.0
C268 C 0.43434 0.0022 0.60871 0.0
O269 O 0.49723 0.94811 0.5506 0.0
O270 O 0.52702 0.97019 0.51971 0.0
C271 C 0.455 0.91397 0.57092 0.0
C272 C 0.52217 0.94962 0.53747 0.0
Zn273 Zn 0.50734 0.50149 0.49768 0.0
Zn274 Zn 0.59035 0.55678 0.55009 0.0
Zn275 Zn 0.54712 0.53229 0.5268 0.0
C276 C 0.5876 0.50614 0.57983 0.0
C277 C 0.60563 0.56064 0.49463 0.0
O278 O 0.50587 0.55863 0.52888 0.0
O279 O 0.47697 0.53259 0.50005 0.0
C280 C 0.523 0.46836 0.54665 0.0
O281 O 0.56623 0.5029 0.56157 0.0
O282 O 0.60234 0.52935 0.58008 0.0
O283 O 0.61822 0.56382 0.51892 0.0
O284 O 0.5798 0.54902 0.49353 0.0
O285 O 0.5051 0.46817 0.52557 0.0
O286 O 0.54117 0.4898 0.5497 0.0
O287 O 0.56298 0.52512 0.48163 0.0
O288 O 0.53016 0.49617 0.46094 0.0
C289 C 0.55438 0.50947 0.45977 0.0
O290 O 0.52797 0.57113 0.54749 0.0
O291 O 0.56892 0.59143 0.56355 0.0
C292 C 0.48115 0.55508 0.51559 0.0
C293 C 0.54148 0.59198 0.56078 0.0
Zn294 Zn 0.51378 0.50056 0.99609 0.0
Zn295 Zn 0.5804 0.45304 0.92998 0.0
Zn296 Zn 0.54708 0.47244 0.96103 0.0
C297 C 0.61362 0.45306 0.97172 0.0
C298 C 0.5429 0.4091 0.93838 0.0
O299 O 0.53843 0.51595 0.9413 0.0
O300 O 0.50869 0.5369 0.97297 0.0
C301 C 0.56498 0.48752 0.02745 0.0
O302 O 0.58748 0.45517 0.98223 0.0
O303 O 0.61876 0.46457 0.9472 0.0
O304 O 0.57027 0.41189 0.93699 0.0
O305 O 0.52717 0.43165 0.94433 0.0
O306 O 0.54099 0.50094 0.03006 0.0
O307 O 0.571 0.47454 0.00323 0.0
O308 O 0.50561 0.44612 0.96277 0.0
O309 O 0.48098 0.47191 0.99524 0.0
C310 C 0.48247 0.45005 0.97842 0.0
O311 O 0.56087 0.50212 0.92396 0.0
O312 O 0.57119 0.46888 0.89088 0.0
C313 C 0.52215 0.53764 0.9489 0.0
C314 C 0.56869 0.49543 0.89763 0.0
Zn315 Zn 0.48499 0.00119 0.99243 0.0
Zn316 Zn 0.42011 0.05353 0.92836 0.0
Zn317 Zn 0.45121 0.03108 0.95917 0.0
C318 C 0.45999 0.09402 0.93412 0.0
C319 C 0.4271 0.01008 0.89577 0.0
O320 O 0.42889 0.02939 0.00242 0.0
O321 O 0.45964 0.00212 0.02767 0.0
C322 C 0.5177 0.05064 0.97526 0.0
O323 O 0.47324 0.07015 0.94095 0.0
O324 O 0.43243 0.09456 0.93455 0.0
O325 O 0.42723 0.03678 0.88909 0.0
O326 O 0.43461 0.00267 0.92201 0.0
O327 O 0.51913 0.02807 0.99104 0.0
O328 O 0.49407 0.05583 0.96064 0.0
O329 O 0.45686 0.98742 0.93875 0.0
O330 O 0.48701 0.96472 0.96882 0.0
C331 C 0.47232 0.96486 0.94541 0.0
O332 O 0.41171 0.04863 0.98217 0.0
O333 O 0.38161 0.04288 0.94534 0.0
C334 C 0.43594 0.01622 0.02627 0.0
C335 C 0.38568 0.05093 0.97137 0.0
C336 C 0.96773 0.16446 0.34772 0.0
C337 C 0.99064 0.18469 0.34445 0.0
C338 C 0.97194 0.13791 0.36292 0.0
C339 C -0.00034 0.13136 0.37539 0.0
C340 C 0.02272 0.15184 0.37236 0.0
C341 C 0.01798 0.17804 0.35698 0.0
C342 C 0.94671 0.11678 0.36557 0.0
C343 C 0.05252 0.14615 0.38548 0.0
C344 C 0.00255 0.07836 0.43974 0.0
C345 C 0.01222 0.05223 0.42677 0.0
C346 C 0.99855 0.10402 0.42336 0.0
C347 C 0.00421 0.10393 0.39294 0.0
C348 C 0.01457 0.07785 0.37968 0.0
C349 C 0.01852 0.05237 0.39672 0.0
C350 C 0.98791 0.13123 0.43867 0.0
C351 C 0.02098 0.0767 0.34736 0.0
H352 H 0.94663 0.1691 0.33796 0.0
H353 H 0.03595 0.19334 0.35467 0.0
H354 H 0.95301 0.09524 0.35644 0.0
H355 H 0.94128 0.11339 0.38896 0.0
H356 H 0.9268 0.12457 0.35402 0.0
H357 H 0.06836 0.16395 0.38074 0.0
H358 H 0.05062 0.14378 0.40954 0.0
H359 H 0.06148 0.12535 0.37688 0.0
H360 H 0.9977 0.07875 0.46293 0.0
H361 H 0.02573 0.03241 0.38631 0.0
H362 H 0.96676 0.13829 0.4291 0.0
H363 H 0.00377 0.14931 0.43542 0.0
H364 H 0.98486 0.12788 0.46253 0.0
H365 H 0.00072 0.08139 0.33483 0.0
H366 H 0.02954 0.05509 0.34043 0.0
H367 H 0.03724 0.09373 0.34152 0.0
C368 C 0.97881 0.33677 0.35508 0.0
C369 C 0.00655 0.32938 0.34396 0.0
C370 C 0.97423 0.36256 0.37127 0.0
C371 C 0.99788 0.38191 0.37661 0.0
C372 C 0.02592 0.37477 0.36529 0.0
C373 C 0.02994 0.34865 0.34924 0.0
C374 C 0.94403 0.36891 0.38302 0.0
C375 C 0.05179 0.3947 0.37032 0.0
C376 C 0.98191 0.46033 0.40259 0.0
C377 C 0.98701 0.45821 0.4328 0.0
C378 C 0.98515 0.43579 0.38399 0.0
C379 C 0.99368 0.40838 0.3958 0.0
C380 C 0.99805 0.40606 0.42637 0.0
C381 C 0.99474 0.4308 0.44431 0.0
C382 C 0.98013 0.43938 0.3516 0.0
C383 C 0.00665 0.37739 0.44021 0.0
H384 H 0.96043 0.32227 0.35119 0.0
H385 H 0.05139 0.34347 0.34061 0.0
H386 H 0.94465 0.36944 0.40727 0.0
H387 H 0.93661 0.39071 0.37555 0.0
H388 H 0.92766 0.35234 0.37603 0.0
H389 H 0.07179 0.38693 0.35895 0.0
H390 H 0.04661 0.41704 0.36255 0.0
H391 H 0.05651 0.39625 0.39407 0.0
H392 H 0.97636 0.48133 0.3933 0.0
H393 H 0.99863 0.42868 0.46759 0.0
H394 H 0.96401 0.42303 0.34369 0.0
H395 H 0.0009 0.4354 0.3397 0.0
H396 H 0.97208 0.46155 0.34597 0.0
H397 H 0.99017 0.36036 0.43491 0.0
H398 H 0.00867 0.37901 0.46436 0.0
H399 H 0.02791 0.36997 0.43121 0.0
C400 C 0.99621 0.83607 0.15712 0.0
C401 C 0.0207 0.81813 0.16169 0.0
C402 C 0.99834 0.86236 0.14122 0.0
C403 C 0.02557 0.871 0.12907 0.0
C404 C 0.05037 0.85296 0.13352 0.0
C405 C 0.0477 0.82696 0.14988 0.0
C406 C 0.97135 0.88091 0.13734 0.0
C407 C 0.07972 0.86094 0.12067 0.0
C408 C 0.02181 0.92178 0.06292 0.0
C409 C 0.02838 0.94929 0.07501 0.0
C410 C 0.02152 0.89628 0.08008 0.0
C411 C 0.02762 0.89802 0.1104 0.0
C412 C 0.0348 0.92562 0.12274 0.0
C413 C 0.03525 0.95084 0.10492 0.0
C414 C 0.01424 0.86745 0.06571 0.0
C415 C 0.04127 0.92864 0.15496 0.0
H416 H 0.97529 0.82975 0.16634 0.0
H417 H 0.06682 0.81341 0.15325 0.0
H418 H 0.97565 0.90343 0.14524 0.0
H419 H 0.9657 0.88243 0.11379 0.0
H420 H 0.95216 0.87197 0.14927 0.0
H421 H 0.09705 0.84502 0.1266 0.0
H422 H 0.07803 0.86194 0.09649 0.0
H423 H 0.08651 0.88292 0.12835 0.0
H424 H 0.01667 0.9201 0.03984 0.0
H425 H 0.04017 0.97186 0.11462 0.0
H426 H 0.99371 0.85852 0.07507 0.0
H427 H 0.03182 0.85137 0.07012 0.0
H428 H 0.01144 0.8695 0.04167 0.0
H429 H 0.02152 0.92268 0.16775 0.0
H430 H 0.04794 0.95121 0.16097 0.0
H431 H 0.05895 0.9134 0.16145 0.0
C432 C 0.95156 0.66715 0.15236 0.0
C433 C 0.97898 0.67687 0.16248 0.0
C434 C 0.94869 0.64113 0.13605 0.0
C435 C 0.97378 0.6241 0.12977 0.0
C436 C 0.00146 0.63362 0.1402 0.0
C437 C 0.00374 0.65984 0.15624 0.0
C438 C 0.9188 0.63208 0.12518 0.0
C439 C 0.0288 0.61617 0.13421 0.0
C440 C 0.96599 0.54438 0.10476 0.0
C441 C 0.97048 0.54676 0.0745 0.0
C442 C 0.96646 0.56931 0.12302 0.0
C443 C 0.97146 0.59737 0.11078 0.0
C444 C 0.97517 0.59989 0.08015 0.0
C445 C 0.97474 0.57472 0.06254 0.0
C446 C 0.96244 0.56549 0.15552 0.0
C447 C 0.98016 0.62924 0.06595 0.0
H448 H 0.93222 0.67997 0.15707 0.0
H449 H 0.02501 0.66688 0.16411 0.0
H450 H 0.91866 0.63164 0.10092 0.0
H451 H 0.91358 0.60967 0.13275 0.0
H452 H 0.9013 0.64707 0.13275 0.0
H453 H 0.04844 0.62569 0.14499 0.0
H454 H 0.02592 0.59341 0.14198 0.0
H455 H 0.03282 0.61517 0.11032 0.0
H456 H 0.96303 0.523 0.11434 0.0
H457 H 0.97803 0.57698 0.03918 0.0
H458 H 0.945 0.58022 0.16363 0.0
H459 H 0.98297 0.57157 0.16702 0.0
H460 H 0.95666 0.54266 0.16141 0.0
H461 H 0.96226 0.64446 0.07186 0.0
H462 H 0.98133 0.6277 0.04174 0.0
H463 H 0.00091 0.63892 0.07411 0.0
C464 C 0.33808 0.02166 0.17159 0.0
C465 C 0.33259 0.99348 0.18255 0.0
C466 C 0.35301 0.02604 0.14518 0.0
C467 C 0.36308 0.0017 0.1291 0.0
C468 C 0.35749 0.97312 0.13978 0.0
C469 C 0.34221 0.96933 0.16633 0.0
C470 C 0.35845 0.05688 0.13475 0.0
C471 C 0.36797 0.94659 0.1233 0.0
C472 C 0.38605 0.01431 0.04961 0.0
C473 C 0.41659 0.01581 0.05229 0.0
C474 C 0.36826 0.00939 0.07433 0.0
C475 C 0.38133 0.00643 0.10236 0.0
C476 C 0.41208 0.00901 0.10516 0.0
C477 C 0.42926 0.01339 0.08015 0.0
C478 C 0.33558 0.00662 0.07038 0.0
C479 C 0.42695 0.00685 0.13461 0.0
H480 H 0.33055 0.0406 0.18362 0.0
H481 H 0.33794 0.9475 0.17442 0.0
H482 H 0.38233 0.06128 0.13414 0.0
H483 H 0.35 0.05965 0.11218 0.0
H484 H 0.34795 0.07343 0.14904 0.0
H485 H 0.3606 0.92589 0.1336 0.0
H486 H 0.35986 0.94722 0.10044 0.0
H487 H 0.39224 0.94662 0.12239 0.0
H488 H 0.37618 0.01572 0.0281 0.0
H489 H 0.45287 0.01462 0.08237 0.0
H490 H 0.32412 0.02276 0.08434 0.0
H491 H 0.32831 0.98461 0.07746 0.0
H492 H 0.32875 0.00997 0.0473 0.0
H493 H 0.41818 0.02374 0.14961 0.0
H494 H 0.45106 0.00969 0.13309 0.0
H495 H 0.42231 0.98527 0.14458 0.0
C496 C 0.67715 0.52338 0.15829 0.0
C497 C 0.68026 0.49923 0.17686 0.0
C498 C 0.65996 0.52156 0.13273 0.0
C499 C 0.6454 0.49506 0.12574 0.0
C500 C 0.64863 0.47064 0.14434 0.0
C501 C 0.66599 0.473 0.16953 0.0
C502 C 0.65712 0.54804 0.11336 0.0
C503 C 0.63327 0.44208 0.13792 0.0
C504 C 0.57609 0.4977 0.07996 0.0
C505 C 0.58585 0.48813 0.05245 0.0
C506 C 0.59529 0.50029 0.10376 0.0
C507 C 0.62519 0.49325 0.10014 0.0
C508 C 0.63528 0.4834 0.07254 0.0
C509 C 0.61547 0.48091 0.04903 0.0
C510 C 0.58348 0.51047 0.13287 0.0
C511 C 0.66702 0.47565 0.06781 0.0
H512 H 0.68823 0.54364 0.16363 0.0
H513 H 0.66818 0.45415 0.18366 0.0
H514 H 0.66334 0.54242 0.0906 0.0
H515 H 0.63399 0.55536 0.11286 0.0
H516 H 0.67101 0.5665 0.12095 0.0
H517 H 0.63895 0.4248 0.15397 0.0
H518 H 0.60921 0.44534 0.13831 0.0
H519 H 0.63907 0.43425 0.11572 0.0
H520 H 0.55325 0.50326 0.08298 0.0
H521 H 0.62338 0.47388 0.02791 0.0
H522 H 0.59535 0.53034 0.14017 0.0
H523 H 0.58711 0.4934 0.14968 0.0
H524 H 0.55971 0.51546 0.13196 0.0
H525 H 0.68107 0.49481 0.0728 0.0
H526 H 0.67141 0.46844 0.04504 0.0
H527 H 0.67354 0.45791 0.08296 0.0
C528 C 0.34374 0.03665 0.34353 0.0
C529 C 0.33879 0.01325 0.32431 0.0
C530 C 0.36071 0.03301 0.36907 0.0
C531 C 0.37317 0.00538 0.37546 0.0
C532 C 0.36854 0.98185 0.35592 0.0
C533 C 0.35146 0.98605 0.33073 0.0
C534 C 0.36515 0.05867 0.38933 0.0
C535 C 0.38161 0.95213 0.36164 0.0
C536 C 0.43998 0.00171 0.42516 0.0
C537 C 0.42794 0.99255 0.45192 0.0
C538 C 0.42243 0.00605 0.40031 0.0
C539 C 0.39189 0.00118 0.40201 0.0
C540 C 0.37954 0.99155 0.42877 0.0
C541 C 0.3977 0.98733 0.45336 0.0
C542 C 0.43663 0.01597 0.37221 0.0
C543 C 0.34709 0.98598 0.43151 0.0
H544 H 0.33393 0.05767 0.33893 0.0
H545 H 0.34788 0.96776 0.31608 0.0
H546 H 0.35692 0.0532 0.41148 0.0
H547 H 0.38885 0.06358 0.39148 0.0
H548 H 0.35376 0.07859 0.3815 0.0
H549 H 0.37578 0.93601 0.3444 0.0
H550 H 0.40581 0.95383 0.36285 0.0
H551 H 0.37393 0.94369 0.38302 0.0
H552 H 0.4633 0.00577 0.42359 0.0
H553 H 0.38802 0.9805 0.47379 0.0
H554 H 0.42697 0.03698 0.36505 0.0
H555 H 0.43239 -0.00022 0.35463 0.0
H556 H 0.46067 0.01888 0.3745 0.0
H557 H 0.33483 0.00625 0.4265 0.0
H558 H 0.3409 0.97842 0.45373 0.0
H559 H 0.34011 0.96924 0.41537 0.0
C560 C 0.65447 0.50467 0.31665 0.0
C561 C 0.6669 0.477 0.31203 0.0
C562 C 0.63549 0.50992 0.34011 0.0
C563 C 0.62862 0.48695 0.35955 0.0
C564 C 0.64039 0.45874 0.35464 0.0
C565 C 0.65939 0.45407 0.33088 0.0
C566 C 0.62333 0.54027 0.34445 0.0
C567 C 0.63348 0.43371 0.37493 0.0
C568 C 0.60379 0.50824 0.436 0.0
C569 C 0.57332 0.50527 0.4338 0.0
C570 C 0.62204 0.50233 0.41204 0.0
C571 C 0.60956 0.4928 0.3853 0.0
C572 C 0.57881 0.48973 0.38293 0.0
C573 C 0.56108 0.49599 0.40719 0.0
C574 C 0.65472 0.50607 0.41544 0.0
C575 C 0.56463 0.47982 0.35476 0.0
H576 H 0.65995 0.52255 0.30215 0.0
H577 H 0.66895 0.43269 0.32755 0.0
H578 H 0.59907 0.5395 0.34516 0.0
H579 H 0.63094 0.54923 0.3657 0.0
H580 H 0.63009 0.55551 0.32682 0.0
H581 H 0.64346 0.41288 0.36752 0.0
H582 H 0.64167 0.43876 0.39722 0.0
H583 H 0.60944 0.43066 0.37656 0.0
H584 H 0.61354 0.51427 0.45671 0.0
H585 H 0.53755 0.49345 0.40536 0.0
H586 H 0.66291 0.52226 0.39937 0.0
H587 H 0.66592 0.4851 0.41084 0.0
H588 H 0.66096 0.51352 0.43772 0.0
H589 H 0.57002 0.49531 0.33693 0.0
H590 H 0.54044 0.47819 0.3566 0.0
H591 H 0.57335 0.45817 0.34829 0.0
C592 C 0.18402 0.35831 0.01734 0.0
C593 C 0.18874 0.34324 0.99097 0.0
C594 C 0.15793 0.37368 0.02258 0.0
C595 C 0.13569 0.37405 0.00101 0.0
C596 C 0.14041 0.35928 0.97413 0.0
C597 C 0.16687 0.34414 0.96939 0.0
C598 C 0.15412 0.38938 0.05138 0.0
C599 C 0.11731 0.35916 0.95051 0.0
C600 C 0.05781 0.39434 0.02465 0.0
C601 C 0.05619 0.42374 0.01615 0.0
C602 C 0.08342 0.37781 0.01978 0.0
C603 C 0.10808 0.39097 0.00619 0.0
C604 C 0.10666 0.42071 -0.00196 0.0
C605 C 0.0809 0.43661 0.00306 0.0
C606 C 0.08401 0.34617 0.02889 0.0
C607 C 0.1324 0.43582 0.98384 0.0
H608 H 0.20067 0.3578 0.03424 0.0
H609 H 0.17007 0.33235 0.9491 0.0
H610 H 0.15046 0.41299 0.04748 0.0
H611 H 0.13452 0.38086 0.06288 0.0
H612 H 0.17342 0.38689 0.06596 0.0
H613 H 0.12412 0.34645 0.93099 0.0
H614 H 0.09669 0.34969 0.95914 0.0
H615 H 0.11245 0.38186 0.94365 0.0
H616 H 0.03894 0.38407 0.03463 0.0
H617 H 0.08013 0.45931 0.99645 0.0
H618 H 0.10221 0.34244 0.04451 0.0
H619 H 0.08811 0.33215 0.00953 0.0
H620 H 0.06319 0.33917 0.03929 0.0
H621 H 0.15179 0.43476 -0.00158 0.0
H622 H 0.12783 0.4591 0.97883 0.0
H623 H 0.13825 0.4245 0.9632 0.0
C624 C 0.19163 0.65616 0.48939 0.0
C625 C 0.19633 0.66994 0.5165 0.0
C626 C 0.1666 0.63913 0.48408 0.0
C627 C 0.14548 0.63561 0.50638 0.0
C628 C 0.15022 0.649 0.53399 0.0
C629 C 0.17561 0.66596 0.53876 0.0
C630 C 0.16263 0.62511 0.45441 0.0
C631 C 0.12825 0.64572 0.55837 0.0
C632 C 0.06819 0.61218 0.48422 0.0
C633 C 0.06864 0.5822 0.4904 0.0
C634 C 0.093 0.62985 0.48919 0.0
C635 C 0.11886 0.6173 0.50088 0.0
C636 C 0.11954 0.58699 0.50677 0.0
C637 C 0.09453 0.56989 0.50148 0.0
C638 C 0.09137 0.66204 0.48241 0.0
C639 C 0.14666 0.5726 0.51894 0.0
H640 H 0.20746 0.65897 0.47198 0.0
H641 H 0.17887 0.67665 0.55967 0.0
H642 H 0.16066 0.60109 0.45679 0.0
H643 H 0.14207 0.63296 0.44418 0.0
H644 H 0.1811 0.62993 0.4394 0.0
H645 H 0.1351 0.65741 0.57856 0.0
H646 H 0.1067 0.65433 0.55126 0.0
H647 H 0.12515 0.62228 0.56363 0.0
H648 H 0.04817 0.62209 0.47649 0.0
H649 H 0.09517 0.54675 0.50638 0.0
H650 H 0.10912 0.66825 0.46709 0.0
H651 H 0.09465 0.67486 0.50275 0.0
H652 H 0.07003 0.66826 0.47255 0.0
H653 H 0.16537 0.57604 0.50389 0.0
H654 H 0.14368 0.54876 0.52227 0.0
H655 H 0.15262 0.58271 0.54019 0.0
C656 C 0.8104 0.84832 0.45291 0.0
C657 C 0.80185 0.83697 0.48014 0.0
C658 C 0.83572 0.86569 0.45007 0.0
C659 C 0.85314 0.87181 0.475 0.0
C660 C 0.84458 0.86053 0.50254 0.0
C661 C 0.81907 0.84339 0.5048 0.0
C662 C 0.84393 0.87739 0.42033 0.0
C663 C 0.86256 0.86634 0.52967 0.0
C664 C 0.93309 0.89498 0.46661 0.0
C665 C 0.93156 0.92516 0.47143 0.0
C666 C 0.90772 0.87745 0.46685 0.0
C667 C 0.88009 0.89034 0.47247 0.0
C668 C 0.87839 0.9209 0.47694 0.0
C669 C 0.90409 0.93787 0.47649 0.0
C670 C 0.91066 0.84499 0.46199 0.0
C671 C 0.84945 0.93565 0.48275 0.0
H672 H 0.79737 0.84349 0.43368 0.0
H673 H 0.81287 0.83462 0.5259 0.0
H674 H 0.84515 0.90158 0.42106 0.0
H675 H 0.86593 0.86935 0.41404 0.0
H676 H 0.82801 0.87087 0.40313 0.0
H677 H 0.85313 0.85581 0.5494 0.0
H678 H 0.88518 0.85814 0.52653 0.0
H679 H 0.86412 0.89019 0.53365 0.0
H680 H 0.95424 0.88483 0.46385 0.0
H681 H 0.90271 0.96119 0.48031 0.0
H682 H 0.89545 0.83764 0.44452 0.0
H683 H 0.90457 0.83318 0.48227 0.0
H684 H 0.93328 0.83867 0.45579 0.0
H685 H 0.83364 0.93035 0.46508 0.0
H686 H 0.85162 0.95976 0.48432 0.0
H687 H 0.84004 0.9274 0.50351 0.0
C688 C 0.35531 0.66967 0.47695 0.0
C689 C 0.33667 0.67588 0.50051 0.0
C690 C 0.3804 0.65213 0.48069 0.0
C691 C 0.38699 0.64029 0.5086 0.0
C692 C 0.36853 0.64691 0.53251 0.0
C693 C 0.34377 0.66458 0.52821 0.0
C694 C 0.39955 0.64575 0.45462 0.0
C695 C 0.37445 0.63462 0.56257 0.0
C696 C 0.42853 0.56841 0.50976 0.0
C697 C 0.45718 0.57709 0.51694 0.0
C698 C 0.40567 0.58867 0.5074 0.0
C699 C 0.41135 0.61868 0.51219 0.0
C700 C 0.44003 0.62763 0.52033 0.0
C701 C 0.46262 0.60672 0.52266 0.0
C702 C 0.37544 0.57791 0.49927 0.0
C703 C 0.44706 0.65938 0.52574 0.0
H704 H 0.35027 0.67845 0.45553 0.0
H705 H 0.3297 0.66925 0.54669 0.0
H706 H 0.42271 0.65101 0.4598 0.0
H707 H 0.39848 0.62213 0.44931 0.0
H708 H 0.39286 0.65834 0.43498 0.0
H709 H 0.35922 0.64341 0.57931 0.0
H710 H 0.37215 0.6105 0.56204 0.0
H711 H 0.39722 0.63959 0.56941 0.0
H712 H 0.42396 0.54555 0.50552 0.0
H713 H 0.48468 0.61372 0.52788 0.0
H714 H 0.36854 0.58777 0.47822 0.0
H715 H 0.35937 0.58476 0.51608 0.0
H716 H 0.37446 0.55377 0.49708 0.0
H717 H 0.44444 0.67181 0.5051 0.0
H718 H 0.46975 0.66257 0.53395 0.0
H719 H 0.43157 0.66878 0.54184 0.0
C720 C 0.51141 0.67855 0.84656 0.0
C721 C 0.48337 0.68218 0.83441 0.0
C722 C 0.51784 0.65512 0.86512 0.0
C723 C 0.49569 0.63464 0.87191 0.0
C724 C 0.46718 0.6383 0.86015 0.0
C725 C 0.46132 0.66208 0.84154 0.0
C726 C 0.54848 0.65213 0.87725 0.0
C727 C 0.443 0.61688 0.86698 0.0
C728 C 0.52033 0.55996 0.89878 0.0
C729 C 0.51721 0.56283 0.92913 0.0
C730 C 0.51336 0.58309 0.87986 0.0
C731 C 0.50255 0.60962 0.89155 0.0
C732 C 0.49936 0.61266 0.92217 0.0
C733 C 0.50674 0.58928 0.94055 0.0
C734 C 0.5173 0.57902 0.84734 0.0
C735 C 0.48812 0.64063 0.93555 0.0
H736 H 0.52866 0.69397 0.84135 0.0
H737 H 0.43966 0.66463 0.83219 0.0
H738 H 0.54786 0.65211 0.90149 0.0
H739 H 0.55805 0.63101 0.87027 0.0
H740 H 0.56318 0.67003 0.86995 0.0
H741 H 0.42197 0.62293 0.8564 0.0
H742 H 0.44931 0.59473 0.85948 0.0
H743 H 0.43959 0.61568 0.89096 0.0
H744 H 0.52725 0.53934 0.88967 0.0
H745 H 0.50408 0.59166 0.96398 0.0
H746 H 0.53229 0.59599 0.83865 0.0
H747 H 0.49597 0.58167 0.83605 0.0
H748 H 0.52634 0.5572 0.8418 0.0
H749 H 0.5029 0.65901 0.92987 0.0
H750 H 0.48642 0.63931 0.95974 0.0
H751 H 0.46621 0.64587 0.92649 0.0
C752 C 0.52102 0.83667 0.83629 0.0
C753 C 0.49749 0.81809 0.82966 0.0
C754 C 0.5172 0.86104 0.85472 0.0
C755 C 0.48922 0.86689 0.86678 0.0
C756 C 0.46548 0.84818 0.8602 0.0
C757 C 0.46989 0.8241 0.84182 0.0
C758 C 0.54304 0.88056 0.86128 0.0
C759 C 0.43532 0.85357 0.8726 0.0
C760 C 0.48334 0.91226 0.93617 0.0
C761 C 0.4748 0.93958 0.92527 0.0
C762 C 0.48832 0.88854 0.91737 0.0
C763 C 0.48471 0.89216 0.88685 0.0
C764 C 0.47584 0.91961 0.8757 0.0
C765 C 0.47122 0.94302 0.89504 0.0
C766 C 0.49749 0.85959 0.9302 0.0
C767 C 0.47157 0.92436 0.84332 0.0
H768 H 0.54236 0.8323 0.82695 0.0
H769 H 0.45146 0.80996 0.83691 0.0
H770 H 0.53813 0.90327 0.85444 0.0
H771 H 0.54724 0.88101 0.88517 0.0
H772 H 0.56326 0.87325 0.84999 0.0
H773 H 0.41907 0.8371 0.86509 0.0
H774 H 0.43618 0.85312 0.89683 0.0
H775 H 0.4275 0.87555 0.8661 0.0
H776 H 0.48634 0.90944 0.95952 0.0
H777 H 0.46582 0.96425 0.88632 0.0
H778 H 0.51874 0.85273 0.92076 0.0
H779 H 0.48117 0.84253 0.92449 0.0
H780 H 0.49969 0.86047 0.95438 0.0
H781 H 0.49243 0.92029 0.83162 0.0
H782 H 0.46407 0.94686 0.83823 0.0
H783 H 0.4552 0.90865 0.83464 0.0
C784 C 0.53088 0.33215 0.65598 0.0
C785 C 0.50386 0.32687 0.66971 0.0
C786 C 0.53475 0.35572 0.63681 0.0
C787 C 0.51109 0.37476 0.6312 0.0
C788 C 0.48382 0.36984 0.64518 0.0
C789 C 0.48047 0.34586 0.66417 0.0
C790 C 0.56409 0.35996 0.62219 0.0
C791 C 0.45817 0.38988 0.63997 0.0
C792 C 0.52854 0.44904 0.59771 0.0
C793 C 0.52177 0.44422 0.56819 0.0
C794 C 0.52506 0.42673 0.61856 0.0
C795 C 0.51461 0.39894 0.60962 0.0
C796 C 0.50807 0.39392 0.57976 0.0
C797 C 0.51156 0.41664 0.55949 0.0
C798 C 0.53235 0.43299 0.65016 0.0
C799 C 0.49734 0.36453 0.56919 0.0
H800 H 0.54916 0.31765 0.66002 0.0
H801 H 0.45962 0.34212 0.6748 0.0
H802 H 0.56154 0.35836 0.59812 0.0
H803 H 0.5728 0.38206 0.62709 0.0
H804 H 0.58047 0.34354 0.62935 0.0
H805 H 0.43884 0.38385 0.65339 0.0
H806 H 0.46445 0.41274 0.64511 0.0
H807 H 0.45179 0.38921 0.61656 0.0
H808 H 0.53558 0.47053 0.60468 0.0
H809 H 0.50623 0.41281 0.5367 0.0
H810 H 0.55131 0.41954 0.65701 0.0
H811 H 0.51364 0.42696 0.66438 0.0
H812 H 0.53784 0.45633 0.65393 0.0
H813 H 0.51361 0.34743 0.57466 0.0
H814 H 0.49343 0.36414 0.54521 0.0
H815 H 0.47664 0.3587 0.58044 0.0
C816 C 0.54392 0.16994 0.6625 0.0
C817 C 0.52297 0.19209 0.66506 0.0
C818 C 0.53854 0.14526 0.64487 0.0
C819 C 0.51172 0.14291 0.62937 0.0
C820 C 0.491 0.1657 0.63114 0.0
C821 C 0.49686 0.18993 0.64893 0.0
C822 C 0.56118 0.12137 0.64342 0.0
C823 C 0.46229 0.16423 0.61475 0.0
C824 C 0.50564 0.0916 0.56438 0.0
C825 C 0.49092 0.06752 0.57647 0.0
C826 C 0.51279 0.11609 0.5814 0.0
C827 C 0.50506 0.11663 0.61132 0.0
C828 C 0.48995 0.09257 0.62365 0.0
C829 C 0.48315 0.06827 0.60609 0.0
C830 C 0.52864 0.14141 0.56734 0.0
C831 C 0.48117 0.09237 0.65546 0.0
H832 H 0.56403 0.17138 0.67504 0.0
H833 H 0.4806 0.20705 0.6506 0.0
H834 H 0.55185 0.10081 0.65225 0.0
H835 H 0.56735 0.11713 0.62036 0.0
H836 H 0.58127 0.12689 0.65601 0.0
H837 H 0.44887 0.18419 0.61784 0.0
H838 H 0.46635 0.16124 0.59103 0.0
H839 H 0.44941 0.1451 0.62229 0.0
H840 H 0.51178 0.09126 0.5415 0.0
H841 H 0.47252 0.04958 0.61583 0.0
H842 H 0.54955 0.14568 0.57896 0.0
H843 H 0.51522 0.16149 0.56911 0.0
H844 H 0.53347 0.13739 0.54388 0.0
H845 H 0.50091 0.09457 0.66946 0.0
H846 H 0.46937 0.07206 0.66164 0.0
H847 H 0.46684 0.11131 0.66022 0.0
C848 C 0.84699 0.50212 0.66575 0.0
C849 C 0.83866 0.52591 0.68323 0.0
C850 C 0.86504 0.50591 0.64109 0.0
C851 C 0.87537 0.53417 0.63368 0.0
C852 C 0.86701 0.5583 0.65117 0.0
C853 C 0.84874 0.55391 0.6756 0.0
C854 C 0.87316 0.47958 0.62298 0.0
C855 C 0.87762 0.58876 0.64424 0.0
C856 C 0.94565 0.53576 0.58886 0.0
C857 C 0.93522 0.54032 0.56035 0.0
C858 C 0.92654 0.53477 0.61292 0.0
C859 C 0.89603 0.53809 0.6085 0.0
C860 C 0.8854 0.54355 0.57984 0.0
C861 C 0.90511 0.54446 0.55612 0.0
C862 C 0.939 0.52931 0.64301 0.0
C863 C 0.85311 0.54728 0.57402 0.0
H864 H 0.83919 0.48043 0.67118 0.0
H865 H 0.84242 0.57251 0.68881 0.0
H866 H 0.86687 0.48312 0.59982 0.0
H867 H 0.89722 0.47638 0.62354 0.0
H868 H 0.86243 0.45929 0.63088 0.0
H869 H 0.8687 0.60532 0.65957 0.0
H870 H 0.90187 0.58951 0.64532 0.0
H871 H 0.87123 0.59481 0.62164 0.0
H872 H 0.9689 0.53251 0.59233 0.0
H873 H 0.89675 0.54696 0.53413 0.0
H874 H 0.93108 0.50797 0.65132 0.0
H875 H 0.93137 0.54634 0.65848 0.0
H876 H 0.96331 0.52913 0.64308 0.0
H877 H 0.8415 0.52652 0.57876 0.0
H878 H 0.84857 0.55356 0.551 0.0
H879 H 0.84386 0.5642 0.58867 0.0
C880 C 0.14849 0.94904 0.66785 0.0
C881 C 0.15897 0.97689 0.67566 0.0
C882 C 0.13164 0.9446 0.64229 0.0
C883 C 0.12518 0.96848 0.62367 0.0
C884 C 0.13612 0.99655 0.63118 0.0
C885 C 0.15265 0.00042 0.65702 0.0
C886 C 0.12026 0.91438 0.63551 0.0
C887 C 0.13005 0.02266 0.61203 0.0
C888 C 0.09683 0.95659 0.54514 0.0
C889 C 0.06682 0.96231 0.54832 0.0
C890 C 0.11608 0.9578 0.56945 0.0
C891 C 0.10509 0.96472 0.5977 0.0
C892 C 0.07463 0.96924 0.60109 0.0
C893 C 0.05606 0.96812 0.57654 0.0
C894 C 0.14833 0.95278 0.56465 0.0
C895 C 0.06162 0.97613 0.63064 0.0
H896 H 0.15325 0.9306 0.68189 0.0
H897 H 0.1608 0.02198 0.66252 0.0
H898 H 0.09598 0.91441 0.63603 0.0
H899 H 0.12691 0.90775 0.61316 0.0
H900 H 0.12832 0.89782 0.6513 0.0
H901 H 0.14156 0.04261 0.61979 0.0
H902 H 0.13694 0.01805 0.58923 0.0
H903 H 0.10619 0.0271 0.61157 0.0
H904 H 0.1055 0.95237 0.52353 0.0
H905 H 0.03291 0.97235 0.57945 0.0
H906 H 0.15688 0.93675 0.58067 0.0
H907 H 0.16039 0.97355 0.56818 0.0
H908 H 0.15306 0.94475 0.54221 0.0
H909 H 0.06809 0.95928 0.64679 0.0
H910 H 0.03734 0.97732 0.62998 0.0
H911 H 0.07021 0.99738 0.63862 0.0
C912 C 0.843 0.44772 0.82682 0.0
C913 C 0.83192 0.47533 0.81934 0.0
C914 C 0.8591 0.44342 0.85276 0.0
C915 C 0.86408 0.4672 0.872 0.0
C916 C 0.8524 0.49497 0.86488 0.0
C917 C 0.83668 0.49873 0.83864 0.0
C918 C 0.87143 0.41356 0.85921 0.0
C919 C 0.85695 0.5209 0.88479 0.0
C920 C 0.89118 0.45513 0.9505 0.0
C921 C 0.92093 0.46233 0.94791 0.0
C922 C 0.87239 0.45595 0.92593 0.0
C923 C 0.88369 0.46384 0.89811 0.0
C924 C 0.91395 0.46983 0.89529 0.0
C925 C 0.93204 0.46915 0.9201 0.0
C926 C 0.84027 0.44946 0.92997 0.0
C927 C 0.92721 0.4778 0.86611 0.0
H928 H 0.8394 0.42943 0.81218 0.0
H929 H 0.82797 0.52007 0.83334 0.0
H930 H 0.8957 0.41455 0.859 0.0
H931 H 0.86474 0.40635 0.88136 0.0
H932 H 0.86415 0.39693 0.84305 0.0
H933 H 0.8447 0.54044 0.8773 0.0
H934 H 0.8499 0.51546 0.90734 0.0
H935 H 0.88058 0.5265 0.88576 0.0
H936 H 0.88234 0.44997 0.97185 0.0
H937 H 0.95506 0.47442 0.91772 0.0
H938 H 0.83274 0.43315 0.91364 0.0
H939 H 0.82743 0.46967 0.92632 0.0
H940 H 0.83536 0.44109 0.95223 0.0
H941 H 0.92173 0.46095 0.84953 0.0
H942 H 0.9514 0.48007 0.86725 0.0
H943 H 0.91791 0.49878 0.85837 0.0
C944 C 0.151 0.05263 0.82554 0.0
C945 C 0.1617 0.02515 0.81697 0.0
C946 C 0.13607 0.05649 0.85226 0.0
C947 C 0.13182 0.03241 0.87125 0.0
C948 C 0.14305 0.00475 0.86298 0.0
C949 C 0.15764 0.00143 0.83601 0.0
C950 C 0.12425 0.08629 0.85988 0.0
C951 C 0.13927 0.97846 0.88249 0.0
C952 C 0.10782 0.04332 0.95121 0.0
C953 C 0.07791 0.03641 0.9496 0.0
C954 C 0.12568 0.04271 0.92591 0.0
C955 C 0.11328 0.03536 0.8983 0.0
C956 C 0.08287 0.02964 0.89655 0.0
C957 C 0.06576 0.03009 0.92203 0.0
C958 C 0.15798 0.04891 0.92891 0.0
C959 C 0.06839 0.02226 0.86774 0.0
H960 H 0.1541 0.0712 0.8112 0.0
H961 H 0.16607 0.98018 0.82994 0.0
H962 H 0.09999 0.08543 0.8608 0.0
H963 H 0.1321 0.09307 0.88183 0.0
H964 H 0.1308 0.10317 0.84372 0.0
H965 H 0.15103 0.959 0.87404 0.0
H966 H 0.14743 0.98341 0.90481 0.0
H967 H 0.11568 0.97299 0.8844 0.0
H968 H 0.1175 0.04812 0.97233 0.0
H969 H 0.04262 0.02504 0.92035 0.0
H970 H 0.16495 0.06548 0.91267 0.0
H971 H 0.17051 0.02869 0.92434 0.0
H972 H 0.16383 0.0568 0.95115 0.0
H973 H 0.07321 0.03942 0.85134 0.0
H974 H 0.04426 0.02002 0.86976 0.0
H975 H 0.0773 0.00142 0.85919 0.0
C976 C 0.65857 0.83815 0.55685 0.0
C977 C 0.66641 0.82896 0.5286 0.0
C978 C 0.6338 0.85586 0.5616 0.0
C979 C 0.61616 0.86445 0.5376 0.0
C980 C 0.62348 0.85449 0.50917 0.0
C981 C 0.6485 0.83708 0.50501 0.0
C982 C 0.62703 0.86613 0.59222 0.0
C983 C 0.60523 0.86284 0.48294 0.0
C984 C 0.53991 0.89816 0.54709 0.0
C985 C 0.54586 0.92777 0.54197 0.0
C986 C 0.56264 0.87724 0.54685 0.0
C987 C 0.59195 0.88622 0.54153 0.0
C988 C 0.59808 0.91631 0.53796 0.0
C989 C 0.57506 0.93655 0.53807 0.0
C990 C 0.55502 0.84544 0.55081 0.0
C991 C 0.62891 0.92713 0.53279 0.0
H992 H 0.67211 0.83195 0.57529 0.0
H993 H 0.65407 0.82988 0.48314 0.0
H994 H 0.63001 0.89014 0.59357 0.0
H995 H 0.60387 0.86139 0.59773 0.0
H996 H 0.64135 0.85569 0.60882 0.0
H997 H 0.61235 0.85143 0.46273 0.0
H998 H 0.58185 0.85765 0.48696 0.0
H999 H 0.60684 0.88673 0.47925 0.0
H1000 H 0.51744 0.89113 0.54977 0.0
H1001 H 0.57993 0.95943 0.53439 0.0
H1002 H 0.57037 0.83491 0.56635 0.0
H1003 H 0.55716 0.83398 0.52954 0.0
H1004 H 0.53229 0.84242 0.55891 0.0
H1005 H 0.64385 0.91861 0.54989 0.0
H1006 H 0.63032 0.95135 0.53275 0.0
H1007 H 0.6369 0.91895 0.5114 0.0
C1008 C 0.66432 0.14988 0.97327 0.0
C1009 C 0.67007 0.16079 0.00148 0.0
C1010 C 0.63883 0.13368 0.96704 0.0
C1011 C 0.61821 0.12817 0.98946 0.0
C1012 C 0.62365 0.13937 0.01792 0.0
C1013 C 0.6495 0.1554 0.02362 0.0
C1014 C 0.63426 0.12195 0.93649 0.0
C1015 C 0.60227 0.13413 0.04248 0.0
C1016 C 0.54103 0.10073 0.96973 0.0
C1017 C 0.54353 0.07074 0.9754 0.0
C1018 C 0.56514 0.11977 0.97385 0.0
C1019 C 0.5924 0.10854 0.98376 0.0
C1020 C 0.59517 0.07814 0.98844 0.0
C1021 C 0.57087 0.05979 0.98427 0.0
C1022 C 0.56119 0.152 0.96846 0.0
C1023 C 0.62375 0.06495 -0.00152 0.0
H1024 H 0.67989 0.1539 0.95587 0.0
H1025 H 0.65345 0.16393 0.04538 0.0
H1026 H 0.63427 0.09773 0.93694 0.0
H1027 H 0.61264 0.1289 0.92795 0.0
H1028 H 0.65151 0.1294 0.92111 0.0
H1029 H 0.60866 0.14575 0.06285 0.0
H1030 H 0.58007 0.1414 0.0359 0.0
H1031 H 0.6009 0.11042 0.04722 0.0
H1032 H 0.52003 0.1095 0.96318 0.0
H1033 H 0.57322 0.03663 0.98851 0.0
H1034 H 0.57842 0.16021 0.95349 0.0
H1035 H 0.56355 0.16405 0.98939 0.0
H1036 H 0.53941 0.15706 0.9589 0.0
H1037 H 0.64153 0.07071 0.98301 0.0
H1038 H 0.62259 0.04079 0.00025 0.0
H1039 H 0.62989 0.07398 0.02016 0.0
C1040 C 0.33849 0.34773 0.97405 0.0
C1041 C 0.33246 0.3373 0.00233 0.0
C1042 C 0.36384 0.36415 0.96806 0.0
C1043 C 0.38398 0.37029 0.99081 0.0
C1044 C 0.3784 0.35933 0.01928 0.0
C1045 C 0.35269 0.34311 0.02473 0.0
C1046 C 0.36863 0.37562 0.9375 0.0
C1047 C 0.39935 0.36522 0.04414 0.0
C1048 C 0.46058 0.39953 0.97247 0.0
C1049 C 0.45721 0.42942 0.97817 0.0
C1050 C 0.43694 0.37991 0.97613 0.0
C1051 C 0.40927 0.39052 0.98548 0.0
C1052 C 0.40562 0.42084 0.99011 0.0
C1053 C 0.42953 0.43976 0.98653 0.0
C1054 C 0.44182 0.34777 0.97093 0.0
C1055 C 0.37652 0.43334 -0.00052 0.0
H1056 H 0.32315 0.34337 0.95648 0.0
H1057 H 0.34848 0.33495 0.04656 0.0
H1058 H 0.3677 0.39983 0.93768 0.0
H1059 H 0.39066 0.36936 0.92952 0.0
H1060 H 0.35197 0.36734 0.92181 0.0
H1061 H 0.39311 0.35339 0.06439 0.0
H1062 H 0.42185 0.35868 0.03786 0.0
H1063 H 0.39989 0.38896 0.04896 0.0
H1064 H 0.48191 0.3913 0.96633 0.0
H1065 H 0.42659 0.46287 0.99075 0.0
H1066 H 0.42495 0.33897 0.95582 0.0
H1067 H 0.43963 0.33581 0.9919 0.0
H1068 H 0.46382 0.34325 0.96165 0.0
H1069 H 0.35917 0.42695 0.98371 0.0
H1070 H 0.377 0.45754 0.00109 0.0
H1071 H 0.37027 0.42435 0.0211 0.0
C1072 C 0.81943 0.14699 0.01939 0.0
C1073 C 0.81476 0.16125 0.99256 0.0
C1074 C 0.84521 0.13117 0.025 0.0
C1075 C 0.8673 0.12948 0.00339 0.0
C1076 C 0.86274 0.14367 0.97615 0.0
C1077 C 0.83655 0.15926 0.97102 0.0
C1078 C 0.84874 0.11613 0.05416 0.0
C1079 C 0.88564 0.14247 0.95245 0.0
C1080 C 0.94462 0.10663 0.02749 0.0
C1081 C 0.9451 0.077 0.01961 0.0
C1082 C 0.91963 0.12407 0.02219 0.0
C1083 C 0.89438 0.11162 0.00886 0.0
C1084 C 0.89465 0.08163 0.00138 0.0
C1085 C 0.91983 0.06484 0.00676 0.0
C1086 C 0.92034 0.15593 0.03054 0.0
C1087 C 0.86829 0.06717 0.98754 0.0
H1088 H 0.80287 0.14827 0.03627 0.0
H1089 H 0.8334 0.17034 0.95034 0.0
H1090 H 0.85123 0.09227 0.05082 0.0
H1091 H 0.86888 0.12403 0.06523 0.0
H1092 H 0.8298 0.11992 0.06887 0.0
H1093 H 0.87926 0.15525 0.93283 0.0
H1094 H 0.90675 0.15107 0.9609 0.0
H1095 H 0.88937 0.11948 0.94579 0.0
H1096 H 0.96395 0.11639 0.03722 0.0
H1097 H 0.91971 0.04198 0.0006 0.0
H1098 H 0.90242 0.16077 0.04614 0.0
H1099 H 0.91664 0.16959 0.01087 0.0
H1100 H 0.94149 0.16238 0.04071 0.0
H1101 H 0.84903 0.06934 0.00212 0.0
H1102 H 0.87193 0.04362 0.98304 0.0
H1103 H 0.86277 0.07819 0.96667 0.0
C1104 C 0.05066 0.19172 0.21295 0.0
C1105 C 0.02804 0.21072 0.22083 0.0
C1106 C 0.04897 0.17559 0.18657 0.0
C1107 C 0.02453 0.17923 0.16757 0.0
C1108 C 0.00269 0.19969 0.17482 0.0
C1109 C 0.00446 0.21464 0.2014 0.0
C1110 C 0.07273 0.15388 0.1795 0.0
C1111 C 0.97674 0.2051 0.15501 0.0
C1112 C 0.0304 0.15074 0.0895 0.0
C1113 C 0.01661 0.12344 0.0917 0.0
C1114 C 0.03232 0.16961 0.1137 0.0
C1115 C 0.02067 0.16067 0.14093 0.0
C1116 C 0.00486 0.13404 0.14267 0.0
C1117 C 0.00282 0.11587 0.11793 0.0
C1118 C 0.04851 0.19821 0.11059 0.0
C1119 C 0.99192 0.12373 0.1712 0.0
H1120 H 0.06881 0.18849 0.22787 0.0
H1121 H 0.98682 0.2293 0.20723 0.0
H1122 H 0.06336 0.1315 0.17907 0.0
H1123 H 0.08178 0.15829 0.15745 0.0
H1124 H 0.09087 0.1545 0.19569 0.0
H1125 H 0.96348 0.22407 0.16226 0.0
H1126 H 0.98412 0.2091 0.13227 0.0
H1127 H 0.96247 0.18547 0.15463 0.0
H1128 H 0.04192 0.15621 0.06952 0.0
H1129 H 0.99317 0.09431 0.12002 0.0
H1130 H 0.06961 0.19699 0.12257 0.0
H1131 H 0.03573 0.21633 0.12033 0.0
H1132 H 0.05315 0.20352 0.08736 0.0
H1133 H 0.00969 0.12029 0.1874 0.0
H1134 H 0.97948 0.103 0.1687 0.0
H1135 H 0.97706 0.14058 0.18026 0.0
C1136 C 0.9963 0.29121 0.19901 0.0
C1137 C 0.97247 0.29748 0.21741 0.0
C1138 C 0.99846 0.30279 0.17087 0.0
C1139 C 0.97686 0.32236 0.16094 0.0
C1140 C 0.95235 0.32862 0.17907 0.0
C1141 C 0.95017 0.31567 0.20707 0.0
C1142 C 0.02437 0.29455 0.15208 0.0
C1143 C 0.92893 0.34955 0.16914 0.0
C1144 C -0.00056 0.3777 0.10301 0.0
C1145 C 0.98482 0.36706 0.07818 0.0
C1146 C 0.99711 0.36329 0.13005 0.0
C1147 C 0.98078 0.33701 0.13205 0.0
C1148 C 0.9688 0.32451 0.10637 0.0
C1149 C 0.97088 0.33971 0.07979 0.0
C1150 C 0.01042 0.37729 0.15687 0.0
C1151 C 0.95222 0.29597 0.10724 0.0
H1152 H 0.01369 0.27713 0.20676 0.0
H1153 H 0.93183 0.32069 0.22119 0.0
H1154 H 0.0169 0.28727 0.13016 0.0
H1155 H 0.03867 0.31388 0.14887 0.0
H1156 H 0.03764 0.27681 0.16198 0.0
H1157 H 0.91143 0.35231 0.18574 0.0
H1158 H 0.93881 0.3712 0.16446 0.0
H1159 H 0.91887 0.34161 0.14852 0.0
H1160 H 0.01033 0.39872 0.10206 0.0
H1161 H 0.95961 0.33126 0.06068 0.0
H1162 H 0.02495 0.36161 0.16827 0.0
H1163 H 0.99277 0.38338 0.17237 0.0
H1164 H 0.02326 0.3972 0.15153 0.0
H1165 H 0.96496 0.27915 0.11915 0.0
H1166 H 0.94711 0.28763 0.08498 0.0
H1167 H 0.93134 0.29905 0.11919 0.0
C1168 C 0.94256 0.79597 0.29812 0.0
C1169 C 0.96715 0.80014 0.2802 0.0
C1170 C 0.9398 0.81099 0.3249 0.0
C1171 C 0.96209 0.83067 0.33377 0.0
C1172 C 0.98595 0.83626 0.31477 0.0
C1173 C 0.98823 0.82086 0.2884 0.0
C1174 C 0.91396 0.80441 0.34432 0.0
C1175 C 0.01004 0.85744 0.32297 0.0
C1176 C 0.96323 0.88807 0.39296 0.0
C1177 C 0.98383 0.87563 0.41194 0.0
C1178 C 0.95263 0.87225 0.36874 0.0
C1179 C 0.96276 0.84344 0.36381 0.0
C1180 C 0.97971 0.82946 0.38562 0.0
C1181 C 0.99018 0.84581 0.40939 0.0
C1182 C 0.93371 0.88766 0.34661 0.0
C1183 C 0.99013 0.79843 0.38192 0.0
H1184 H 0.9262 0.77991 0.29197 0.0
H1185 H 0.00711 0.82445 0.27451 0.0
H1186 H 0.92047 0.78796 0.36087 0.0
H1187 H 0.90654 0.82419 0.35618 0.0
H1188 H 0.89529 0.79536 0.3316 0.0
H1189 H 0.02586 0.8609 0.30488 0.0
H1190 H 0.00062 0.87887 0.32915 0.0
H1191 H 0.0222 0.84901 0.34221 0.0
H1192 H 0.95802 0.91106 0.39498 0.0
H1193 H 0.00574 0.83601 0.42437 0.0
H1194 H 0.9174 0.87251 0.33687 0.0
H1195 H 0.94772 0.89602 0.32866 0.0
H1196 H 0.92204 0.90647 0.35654 0.0
H1197 H 0.97226 0.78428 0.37354 0.0
H1198 H 0.99838 0.78917 0.40281 0.0
H1199 H 0.0082 0.79791 0.36573 0.0
C1200 C 0.00963 0.6808 0.2944 0.0
C1201 C 0.03247 0.69752 0.28256 0.0
C1202 C 0.01275 0.66636 0.32126 0.0
C1203 C 0.03945 0.66856 0.33697 0.0
C1204 C 0.06314 0.68423 0.32455 0.0
C1205 C 0.05937 0.69857 0.2975 0.0
C1206 C 0.98687 0.64971 0.33338 0.0
C1207 C 0.09202 0.68703 0.34035 0.0
C1208 C 0.0212 0.65859 0.41661 0.0
C1209 C 0.02309 0.62814 0.41916 0.0
C1210 C 0.03005 0.67286 0.39093 0.0
C1211 C 0.04101 0.65621 0.36724 0.0
C1212 C 0.04711 0.62616 0.37154 0.0
C1213 C 0.03816 0.61244 0.39761 0.0
C1214 C 0.02389 0.70507 0.38781 0.0
C1215 C 0.0596 0.60771 0.34727 0.0
H1216 H 0.98884 0.67959 0.283 0.0
H1217 H 0.07718 0.71145 0.28861 0.0
H1218 H 0.99334 0.62701 0.33877 0.0
H1219 H 0.9793 0.6602 0.35389 0.0
H1220 H 0.9682 0.64888 0.31781 0.0
H1221 H 0.10985 0.69394 0.32537 0.0
H1222 H 0.09002 0.70365 0.35788 0.0
H1223 H 0.09826 0.66611 0.35083 0.0
H1224 H 0.00976 0.67084 0.43336 0.0
H1225 H 0.03969 0.58888 0.39941 0.0
H1226 H 0.00375 0.70808 0.37454 0.0
H1227 H 0.04208 0.71626 0.37633 0.0
H1228 H 0.02052 0.71573 0.40937 0.0
H1229 H 0.04187 0.60191 0.33169 0.0
H1230 H 0.06922 0.58716 0.35582 0.0
H1231 H 0.07663 0.61986 0.33499 0.0
C1232 C 0.20507 0.05408 0.19033 0.0
C1233 C 0.21207 0.0319 0.2101 0.0
C1234 C 0.17897 0.05252 0.17383 0.0
C1235 C 0.15971 0.02836 0.17752 0.0
C1236 C 0.16633 0.00664 0.19832 0.0
C1237 C 0.19227 0.00876 0.21433 0.0
C1238 C 0.17221 0.07632 0.15209 0.0
C1239 C 0.14632 0.98078 0.2033 0.0
C1240 C 0.08077 0.03698 0.15393 0.0
C1241 C 0.0811 0.0248 0.12578 0.0
C1242 C 0.10607 0.03788 0.17117 0.0
C1243 C 0.13229 0.02584 0.16015 0.0
C1244 C 0.13214 0.01119 0.13279 0.0
C1245 C 0.10642 0.01082 0.11582 0.0
C1246 C 0.10516 0.05345 0.2003 0.0
C1247 C 0.15956 0.99744 0.1207 0.0
H1248 H 0.22036 0.07189 0.18701 0.0
H1249 H 0.19737 0.99175 0.23001 0.0
H1250 H 0.17076 0.06692 0.12976 0.0
H1251 H 0.15063 0.08619 0.15708 0.0
H1252 H 0.18908 0.09383 0.15213 0.0
H1253 H 0.15462 0.96593 0.22061 0.0
H1254 H 0.12418 0.98836 0.20968 0.0
H1255 H 0.14388 0.96814 0.18273 0.0
H1256 H 0.06118 0.04801 0.16149 0.0
H1257 H 0.10685 0.00175 0.09393 0.0
H1258 H 0.11911 0.07329 0.19937 0.0
H1259 H 0.11407 0.03929 0.21782 0.0
H1260 H 0.08261 0.06011 0.20642 0.0
H1261 H 0.17606 0.01468 0.11627 0.0
H1262 H 0.15534 0.98523 0.10012 0.0
H1263 H 0.16921 0.9823 0.13697 0.0
C1264 C 0.82385 0.47111 0.22316 0.0
C1265 C 0.80231 0.45232 0.21187 0.0
C1266 C 0.85129 0.47367 0.21004 0.0
C1267 C 0.85734 0.45711 0.18474 0.0
C1268 C 0.83632 0.4367 0.17416 0.0
C1269 C 0.80884 0.43449 0.18797 0.0
C1270 C 0.87292 0.49562 0.22212 0.0
C1271 C 0.8423 0.41839 0.14737 0.0
C1272 C 0.90939 0.48518 0.12674 0.0
C1273 C 0.93347 0.46673 0.13088 0.0
C1274 C 0.88494 0.48336 0.14518 0.0
C1275 C 0.88473 0.46267 0.1682 0.0
C1276 C 0.91027 0.44649 0.17448 0.0
C1277 C 0.93454 0.44905 0.15596 0.0
C1278 C 0.85843 0.50181 0.13849 0.0
C1279 C 0.91109 0.42465 0.19917 0.0
H1280 H 0.81864 0.48509 0.24155 0.0
H1281 H 0.79204 0.42026 0.1791 0.0
H1282 H 0.89498 0.48582 0.22423 0.0
H1283 H 0.8748 0.51431 0.20682 0.0
H1284 H 0.86614 0.50414 0.24384 0.0
H1285 H 0.8248 0.40198 0.14333 0.0
H1286 H 0.84399 0.43273 0.12789 0.0
H1287 H 0.86352 0.40688 0.14971 0.0
H1288 H 0.90842 0.49903 0.10756 0.0
H1289 H 0.95327 0.43497 0.1595 0.0
H1290 H 0.85022 0.51245 0.15866 0.0
H1291 H 0.84061 0.48768 0.12991 0.0
H1292 H 0.86322 0.51897 0.12201 0.0
H1293 H 0.90382 0.4349 0.21988 0.0
H1294 H 0.93331 0.41539 0.20248 0.0
H1295 H 0.8957 0.40649 0.19434 0.0
C1296 C 0.20042 0.95266 0.31624 0.0
C1297 C 0.21091 0.97706 0.30109 0.0
C1298 C 0.17289 0.95358 0.33028 0.0
C1299 C 0.15549 0.97925 0.32853 0.0
C1300 C 0.16574 0.00346 0.31249 0.0
C1301 C 0.19317 0.00208 0.29914 0.0
C1302 C 0.16256 0.92734 0.34732 0.0
C1303 C 0.14787 0.03106 0.30963 0.0
C1304 C 0.07383 0.97365 0.3437 0.0
C1305 C 0.07226 0.98262 0.37302 0.0
C1306 C 0.10067 0.97288 0.3288 0.0
C1307 C 0.12663 0.98122 0.34358 0.0
C1308 C 0.12489 0.99233 0.37245 0.0
C1309 C 0.09769 0.99317 0.38673 0.0
C1310 C 0.10146 0.96163 0.29775 0.0
C1311 C 0.152 0.00179 0.38886 0.0
H1312 H 0.21392 0.93329 0.31768 0.0
H1313 H 0.20068 0.02088 0.28686 0.0
H1314 H 0.15944 0.9334 0.37061 0.0
H1315 H 0.14104 0.91987 0.33884 0.0
H1316 H 0.17827 0.9089 0.34613 0.0
H1317 H 0.15878 0.04773 0.29576 0.0
H1318 H 0.12615 0.026 0.29997 0.0
H1319 H 0.14397 0.04066 0.33156 0.0
H1320 H 0.0543 0.96535 0.33302 0.0
H1321 H 0.09684 -0.0002 0.40947 0.0
H1322 H 0.11389 0.94086 0.29697 0.0
H1323 H 0.11294 0.97739 0.28335 0.0
H1324 H 0.07918 0.95766 0.28879 0.0
H1325 H 0.16665 0.98275 0.39201 0.0
H1326 H 0.1468 0.01118 0.41065 0.0
H1327 H 0.1643 0.01828 0.37605 0.0
C1328 C 0.81422 0.48593 0.30448 0.0
C1329 C 0.79651 0.51097 0.30258 0.0
C1330 C 0.84074 0.48618 0.31978 0.0
C1331 C 0.84945 0.5118 0.33455 0.0
C1332 C 0.83163 0.53716 0.33307 0.0
C1333 C 0.80552 0.5366 0.31662 0.0
C1334 C 0.85956 0.45908 0.31981 0.0
C1335 C 0.84009 0.56478 0.34902 0.0
C1336 C 0.90235 0.50816 0.39847 0.0
C1337 C 0.92701 0.52184 0.38653 0.0
C1338 C 0.87716 0.50358 0.38144 0.0
C1339 C 0.87718 0.51205 0.35165 0.0
C1340 C 0.90333 0.52246 0.33874 0.0
C1341 C 0.92788 0.5276 0.35647 0.0
C1342 C 0.84973 0.49244 0.39606 0.0
C1343 C 0.90469 0.5304 0.30674 0.0
H1344 H 0.80772 0.46607 0.29327 0.0
H1345 H 0.79198 0.55595 0.31516 0.0
H1346 H 0.88164 0.4643 0.31118 0.0
H1347 H 0.86249 0.45103 0.34248 0.0
H1348 H 0.85 0.44121 0.30638 0.0
H1349 H 0.82344 0.58224 0.34651 0.0
H1350 H 0.84302 0.56015 0.37266 0.0
H1351 H 0.86133 0.57302 0.34064 0.0
H1352 H 0.90151 0.50418 0.42182 0.0
H1353 H 0.94694 0.53839 0.34734 0.0
H1354 H 0.83962 0.47466 0.38301 0.0
H1355 H 0.83351 0.5104 0.39748 0.0
H1356 H 0.85406 0.4842 0.41848 0.0
H1357 H 0.895 0.51277 0.29314 0.0
H1358 H 0.9275 0.5344 0.29935 0.0
H1359 H 0.89172 0.55047 0.30283 0.0
C1360 C 0.20817 0.20776 0.06061 0.0
C1361 C 0.2028 0.22894 0.0392 0.0
C1362 C 0.19191 0.18153 0.06099 0.0
C1363 C 0.17051 0.17627 0.03903 0.0
C1364 C 0.16422 0.19824 0.01833 0.0
C1365 C 0.18 0.22439 0.01905 0.0
C1366 C 0.1979 0.15927 0.08451 0.0
C1367 C 0.14156 0.19375 0.99462 0.0
C1368 C 0.14863 0.09791 0.02063 0.0
C1369 C 0.12027 0.09668 0.03209 0.0
C1370 C 0.16525 0.12383 0.02239 0.0
C1371 C 0.15392 0.14826 0.03779 0.0
C1372 C 0.12548 0.14672 0.04984 0.0
C1373 C 0.10866 0.1215 0.04564 0.0
C1374 C 0.19476 0.12514 0.00764 0.0
C1375 C 0.11244 0.17144 0.06739 0.0
H1376 H 0.22586 0.21105 0.07609 0.0
H1377 H 0.1755 0.24083 0.00261 0.0
H1378 H 0.1771 0.15278 0.09525 0.0
H1379 H 0.20748 0.13934 0.07466 0.0
H1380 H 0.21324 0.16768 0.10142 0.0
H1381 H 0.14113 0.21203 0.97869 0.0
H1382 H 0.14598 0.17316 0.9826 0.0
H1383 H 0.11952 0.19178 0.00454 0.0
H1384 H 0.15777 0.07863 0.01038 0.0
H1385 H 0.08676 0.12098 0.05423 0.0
H1386 H 0.2122 0.12874 0.02415 0.0
H1387 H 0.19546 0.14387 0.99227 0.0
H1388 H 0.19975 0.10483 0.99533 0.0
H1389 H 0.12934 0.18555 0.07765 0.0
H1390 H 0.09812 0.16276 0.08497 0.0
H1391 H 0.09866 0.18511 0.05288 0.0
C1392 C 0.21563 0.81483 0.4975 0.0
C1393 C 0.21351 0.79341 0.47555 0.0
C1394 C 0.19811 0.83982 0.49718 0.0
C1395 C 0.17701 0.84316 0.47489 0.0
C1396 C 0.17508 0.82197 0.45219 0.0
C1397 C 0.19372 0.79742 0.45256 0.0
C1398 C 0.20175 0.86225 0.52119 0.0
C1399 C 0.15267 0.82478 0.42811 0.0
C1400 C 0.10906 0.88892 0.48949 0.0
C1401 C 0.11456 0.91344 0.4721 0.0
C1402 C 0.12964 0.86618 0.49136 0.0
C1403 C 0.15645 0.8684 0.47588 0.0
C1404 C 0.1632 0.89447 0.46074 0.0
C1405 C 0.14211 0.91661 0.45892 0.0
C1406 C 0.12172 0.83885 0.508 0.0
C1407 C 0.19186 0.89822 0.44476 0.0
H1408 H 0.23094 0.81186 0.51537 0.0
H1409 H 0.1919 0.78083 0.43573 0.0
H1410 H 0.20393 0.88444 0.51175 0.0
H1411 H 0.18204 0.86229 0.53532 0.0
H1412 H 0.22122 0.85787 0.53509 0.0
H1413 H 0.15423 0.80679 0.41187 0.0
H1414 H 0.13034 0.8247 0.43764 0.0
H1415 H 0.15553 0.84589 0.41659 0.0
H1416 H 0.08764 0.8862 0.49932 0.0
H1417 H 0.14632 0.93552 0.44529 0.0
H1418 H 0.13937 0.83314 0.52364 0.0
H1419 H 0.11944 0.82033 0.49248 0.0
H1420 H 0.10089 0.84124 0.52027 0.0
H1421 H 0.2105 0.89197 0.45899 0.0
H1422 H 0.19519 0.92104 0.43721 0.0
H1423 H 0.19223 0.88364 0.42538 0.0
C1424 C 0.81675 0.71244 0.50475 0.0
C1425 C 0.79581 0.71637 0.52674 0.0
C1426 C 0.83647 0.68905 0.50558 0.0
C1427 C 0.83505 0.6686 0.5288 0.0
C1428 C 0.81469 0.67301 0.55173 0.0
C1429 C 0.79538 0.69697 0.55051 0.0
C1430 C 0.85811 0.68562 0.48086 0.0
C1431 C 0.81226 0.65169 0.57673 0.0
C1432 C 0.86379 0.59786 0.49877 0.0
C1433 C 0.89354 0.60023 0.50578 0.0
C1434 C 0.84344 0.61807 0.50951 0.0
C1435 C 0.8533 0.64162 0.52705 0.0
C1436 C 0.88267 0.64186 0.53718 0.0
C1437 C 0.90252 0.62094 0.52649 0.0
C1438 C 0.81217 0.61624 0.49898 0.0
C1439 C 0.89403 0.66619 0.55634 0.0
H1440 H 0.81747 0.72751 0.4865 0.0
H1441 H 0.77917 0.69981 0.56755 0.0
H1442 H 0.8806 0.68306 0.48966 0.0
H1443 H 0.85284 0.66565 0.46812 0.0
H1444 H 0.85792 0.70457 0.46572 0.0
H1445 H 0.80014 0.66117 0.59552 0.0
H1446 H 0.80032 0.63194 0.56921 0.0
H1447 H 0.83419 0.64459 0.58433 0.0
H1448 H 0.85687 0.58174 0.48278 0.0
H1449 H 0.92559 0.62286 0.5318 0.0
H1450 H 0.80876 0.63232 0.48117 0.0
H1451 H 0.79674 0.62163 0.51688 0.0
H1452 H 0.80677 0.59417 0.49039 0.0
H1453 H 0.89843 0.68568 0.54262 0.0
H1454 H 0.91471 0.65996 0.56749 0.0
H1455 H 0.87763 0.67245 0.57306 0.0
C1456 C 0.29492 0.82127 0.5121 0.0
C1457 C 0.30154 0.8027 0.53563 0.0
C1458 C 0.3061 0.84959 0.51048 0.0
C1459 C 0.32525 0.85956 0.53255 0.0
C1460 C 0.33144 0.84137 0.55698 0.0
C1461 C 0.31914 0.81309 0.55844 0.0
C1462 C 0.29826 0.86835 0.48446 0.0
C1463 C 0.35182 0.85146 0.58094 0.0
C1464 C 0.38187 0.9164 0.51111 0.0
C1465 C 0.37102 0.94156 0.52485 0.0
C1466 C 0.36702 0.88964 0.51328 0.0
C1467 C 0.34026 0.88818 0.5288 0.0
C1468 C 0.32775 0.91404 0.54015 0.0
C1469 C 0.34329 0.94044 0.53804 0.0
C1470 C 0.38095 0.86259 0.50057 0.0
C1471 C 0.29879 0.91355 0.55601 0.0
H1472 H 0.28111 0.81344 0.49444 0.0
H1473 H 0.32428 0.7988 0.5766 0.0
H1474 H 0.29129 0.89038 0.4917 0.0
H1475 H 0.31778 0.8712 0.47035 0.0
H1476 H 0.2804 0.8586 0.47109 0.0
H1477 H 0.35377 0.83517 0.5988 0.0
H1478 H 0.3739 0.85563 0.57175 0.0
H1479 H 0.34393 0.87235 0.59031 0.0
H1480 H 0.40323 0.91693 0.50085 0.0
H1481 H 0.33467 0.95979 0.54862 0.0
H1482 H 0.36541 0.85134 0.48567 0.0
H1483 H 0.38636 0.84713 0.51845 0.0
H1484 H 0.40131 0.86758 0.48829 0.0
H1485 H 0.28199 0.90195 0.54283 0.0
H1486 H 0.29073 0.93588 0.56099 0.0
H1487 H 0.30122 0.90147 0.57688 0.0
C1488 C 0.49345 0.70137 0.68699 0.0
C1489 C 0.51746 0.70101 0.70627 0.0
C1490 C 0.49399 0.68628 0.66045 0.0
C1491 C 0.51865 0.66923 0.65345 0.0
C1492 C 0.54314 0.66879 0.67267 0.0
C1493 C 0.54247 0.68521 0.69874 0.0
C1494 C 0.46798 0.68837 0.64009 0.0
C1495 C 0.56968 0.65041 0.66602 0.0
C1496 C 0.51045 0.60414 0.60277 0.0
C1497 C 0.52605 0.61378 0.57834 0.0
C1498 C 0.50686 0.62241 0.62715 0.0
C1499 C 0.51843 0.65114 0.62647 0.0
C1500 C 0.53113 0.66195 0.60044 0.0
C1501 C 0.53522 0.64293 0.57677 0.0
C1502 C 0.49319 0.61005 0.65451 0.0
C1503 C 0.54247 0.69286 0.59834 0.0
H1504 H 0.47403 0.71372 0.69259 0.0
H1505 H 0.56096 0.68487 0.71362 0.0
H1506 H 0.47529 0.69412 0.61769 0.0
H1507 H 0.45678 0.66691 0.63871 0.0
H1508 H 0.45186 0.70494 0.64747 0.0
H1509 H 0.58673 0.65221 0.68327 0.0
H1510 H 0.56312 0.62715 0.66387 0.0
H1511 H 0.57935 0.65714 0.64485 0.0
H1512 H 0.50396 0.58138 0.60413 0.0
H1513 H 0.54762 0.65017 0.55791 0.0
H1514 H 0.47596 0.62485 0.66289 0.0
H1515 H 0.51016 0.60817 0.67181 0.0
H1516 H 0.4834 0.58814 0.65078 0.0
H1517 H 0.52634 0.7085 0.60744 0.0
H1518 H 0.54739 0.69913 0.57541 0.0
H1519 H 0.56286 0.69498 0.61139 0.0
C1520 C 0.43525 0.81372 0.70141 0.0
C1521 C 0.45416 0.79015 0.70541 0.0
C1522 C 0.43683 0.83058 0.67571 0.0
C1523 C 0.45751 0.82326 0.65369 0.0
C1524 C 0.47504 0.79815 0.65692 0.0
C1525 C 0.47341 0.78221 0.68289 0.0
C1526 C 0.4176 0.85717 0.67282 0.0
C1527 C 0.49692 0.7891 0.6339 0.0
C1528 C 0.44619 0.8619 0.58152 0.0
C1529 C 0.46391 0.8867 0.58528 0.0
C1530 C 0.44516 0.83999 0.60284 0.0
C1531 C 0.4623 0.84307 0.62841 0.0
C1532 C 0.48269 0.86636 0.63067 0.0
C1533 C 0.4834 0.88791 0.60886 0.0
C1534 C 0.42399 0.81489 0.5991 0.0
C1535 C 0.50185 0.87 0.65735 0.0
H1536 H 0.42071 0.82006 0.71901 0.0
H1537 H 0.48838 0.7642 0.68618 0.0
H1538 H 0.43142 0.87714 0.67281 0.0
H1539 H 0.40558 0.85659 0.65173 0.0
H1540 H 0.4015 0.85888 0.69092 0.0
H1541 H 0.50467 0.76636 0.63726 0.0
H1542 H 0.48736 0.79082 0.61166 0.0
H1543 H 0.51616 0.80389 0.63481 0.0
H1544 H 0.43118 0.86094 0.56314 0.0
H1545 H 0.49696 0.90715 0.61186 0.0
H1546 H 0.40572 0.81728 0.61486 0.0
H1547 H 0.43494 0.79384 0.60389 0.0
H1548 H 0.41471 0.81395 0.57665 0.0
H1549 H 0.48799 0.87532 0.67653 0.0
H1550 H 0.5183 0.88768 0.65455 0.0
H1551 H 0.51348 0.84936 0.6623 0.0
C1552 C 0.56213 0.31934 0.80488 0.0
C1553 C 0.54285 0.2968 0.79754 0.0
C1554 C 0.55958 0.33358 0.83208 0.0
C1555 C 0.53771 0.32447 0.85224 0.0
C1556 C 0.51982 0.30024 0.84559 0.0
C1557 C 0.52225 0.28714 0.81815 0.0
C1558 C 0.57917 0.35936 0.83861 0.0
C1559 C 0.4969 0.28915 0.86664 0.0
C1560 C 0.54718 0.35679 0.92764 0.0
C1561 C 0.53097 0.38262 0.92478 0.0
C1562 C 0.54804 0.33631 0.9049 0.0
C1563 C 0.53199 0.34181 0.87906 0.0
C1564 C 0.51228 0.36568 0.87799 0.0
C1565 C 0.5118 0.38579 0.90116 0.0
C1566 C 0.56854 0.31062 0.90737 0.0
C1567 C 0.49419 0.37183 0.85106 0.0
H1568 H 0.57782 0.32692 0.78883 0.0
H1569 H 0.50704 0.26992 0.81232 0.0
H1570 H 0.56573 0.37946 0.84031 0.0
H1571 H 0.59032 0.3563 0.85995 0.0
H1572 H 0.59602 0.3627 0.82145 0.0
H1573 H 0.48902 0.26697 0.86059 0.0
H1574 H 0.50557 0.28847 0.88929 0.0
H1575 H 0.47788 0.30417 0.86653 0.0
H1576 H 0.56194 0.35435 0.94608 0.0
H1577 H 0.49933 0.40578 0.89894 0.0
H1578 H 0.58851 0.31497 0.89429 0.0
H1579 H 0.55821 0.2905 0.89856 0.0
H1580 H 0.5753 0.30664 0.93037 0.0
H1581 H 0.50884 0.37877 0.833 0.0
H1582 H 0.47782 0.38932 0.85488 0.0
H1583 H 0.48256 0.35183 0.84375 0.0
C1584 C 0.4582 0.19064 0.79742 0.0
C1585 C 0.48302 0.20735 0.79103 0.0
C1586 C 0.45717 0.17363 0.82309 0.0
C1587 C 0.48099 0.17445 0.84312 0.0
C1588 C 0.50536 0.19245 0.83731 0.0
C1589 C 0.50638 0.20799 0.81109 0.0
C1590 C 0.431 0.15422 0.82842 0.0
C1591 C 0.53058 0.19506 0.8586 0.0
C1592 C 0.46383 0.14564 0.91886 0.0
C1593 C 0.47434 0.11698 0.9169 0.0
C1594 C 0.46739 0.16529 0.89563 0.0
C1595 C 0.48103 0.15565 0.86961 0.0
C1596 C 0.49388 0.12753 0.86854 0.0
C1597 C 0.49079 0.10865 0.8925 0.0
C1598 C 0.45469 0.19558 0.89819 0.0
C1599 C 0.50857 0.1164 0.84117 0.0
H1600 H 0.44022 0.19003 0.78195 0.0
H1601 H 0.52566 0.22099 0.80641 0.0
H1602 H 0.43819 0.13115 0.83015 0.0
H1603 H 0.42049 0.16007 0.84946 0.0
H1604 H 0.41443 0.15588 0.8107 0.0
H1605 H 0.5463 0.21246 0.85223 0.0
H1606 H 0.52233 0.19992 0.88088 0.0
H1607 H 0.54253 0.17405 0.85976 0.0
H1608 H 0.45088 0.15197 0.93769 0.0
H1609 H 0.49847 0.08633 0.89076 0.0
H1610 H 0.43454 0.19705 0.88471 0.0
H1611 H 0.47034 0.21215 0.88986 0.0
H1612 H 0.44897 0.2011 0.92114 0.0
H1613 H 0.49215 0.1146 0.82335 0.0
H1614 H 0.51881 0.09466 0.84445 0.0
H1615 H 0.52566 0.13193 0.83379 0.0
C1616 C 0.71028 0.49245 0.67246 0.0
C1617 C 0.71852 0.47011 0.69164 0.0
C1618 C 0.68553 0.48969 0.65454 0.0
C1619 C 0.6682 0.46398 0.65593 0.0
C1620 C 0.67685 0.4409 0.6746 0.0
C1621 C 0.702 0.4442 0.69221 0.0
C1622 C 0.67752 0.51478 0.63464 0.0
C1623 C 0.65896 0.41328 0.677 0.0
C1624 C 0.59417 0.48696 0.62948 0.0
C1625 C 0.59767 0.48284 0.59938 0.0
C1626 C 0.61523 0.47666 0.6493 0.0
C1627 C 0.6406 0.46261 0.63847 0.0
C1628 C 0.64175 0.45443 0.60861 0.0
C1629 C 0.62009 0.46464 0.58933 0.0
C1630 C 0.61241 0.48472 0.68114 0.0
C1631 C 0.66794 0.43876 0.59621 0.0
H1632 H 0.72303 0.51243 0.67172 0.0
H1633 H 0.7081 0.4269 0.70716 0.0
H1634 H 0.67534 0.50699 0.61176 0.0
H1635 H 0.65608 0.52398 0.64127 0.0
H1636 H 0.69405 0.5326 0.63518 0.0
H1637 H 0.67185 0.39517 0.68672 0.0
H1638 H 0.63979 0.4174 0.69126 0.0
H1639 H 0.65055 0.40623 0.65534 0.0
H1640 H 0.57688 0.50119 0.63723 0.0
H1641 H 0.62294 0.46167 0.56597 0.0
H1642 H 0.6257 0.50455 0.68561 0.0
H1643 H 0.62068 0.46695 0.69535 0.0
H1644 H 0.58932 0.48946 0.68707 0.0
H1645 H 0.68588 0.45474 0.59264 0.0
H1646 H 0.66271 0.42825 0.57492 0.0
H1647 H 0.67606 0.4219 0.61158 0.0
C1648 C 0.29579 0.05948 0.69771 0.0
C1649 C 0.2792 0.03386 0.6941 0.0
C1650 C 0.32338 0.06265 0.68426 0.0
C1651 C 0.33448 0.03974 0.66666 0.0
C1652 C 0.31702 0.01457 0.6617 0.0
C1653 C 0.28977 0.0119 0.67556 0.0
C1654 C 0.34118 0.0898 0.69017 0.0
C1655 C 0.32765 0.98974 0.64269 0.0
C1656 C 0.39649 0.0409 0.61197 0.0
C1657 C 0.41669 0.02283 0.62627 0.0
C1658 C 0.37053 0.04962 0.62601 0.0
C1659 C 0.36506 0.0404 0.65507 0.0
C1660 C 0.38756 0.02614 0.67087 0.0
C1661 C 0.4131 0.01743 0.65622 0.0
C1662 C 0.3475 0.0654 0.60849 0.0
C1663 C 0.38319 0.01667 0.70216 0.0
H1664 H 0.28789 0.0765 0.71214 0.0
H1665 H 0.27702 0.99214 0.67246 0.0
H1666 H 0.35851 0.08472 0.70639 0.0
H1667 H 0.35217 0.09756 0.67 0.0
H1668 H 0.32749 0.10773 0.69908 0.0
H1669 H 0.31066 0.97264 0.63947 0.0
H1670 H 0.33438 -0.00194 0.62094 0.0
H1671 H 0.34712 0.97948 0.6529 0.0
H1672 H 0.3991 0.04521 0.58881 0.0
H1673 H 0.4288 0.00367 0.66744 0.0
H1674 H 0.33577 0.08161 0.62215 0.0
H1675 H 0.33113 0.04935 0.60041 0.0
H1676 H 0.35714 0.07671 0.5893 0.0
H1677 H 0.37254 0.03417 0.71508 0.0
H1678 H 0.40422 0.0108 0.71284 0.0
H1679 H 0.36861 0.99726 0.70266 0.0
C1680 C 0.69693 0.55591 0.79719 0.0
C1681 C 0.71402 0.53061 0.80003 0.0
C1682 C 0.67025 0.55882 0.81235 0.0
C1683 C 0.66066 0.53599 0.83091 0.0
C1684 C 0.67863 0.51109 0.83488 0.0
C1685 C 0.70489 0.50866 0.81928 0.0
C1686 C 0.65178 0.58561 0.8073 0.0
C1687 C 0.66963 0.48638 0.85484 0.0
C1688 C 0.60397 0.53603 0.89068 0.0
C1689 C 0.58346 0.51675 0.87842 0.0
C1690 C 0.62804 0.54582 0.8742 0.0
C1691 C 0.63113 0.53644 0.84484 0.0
C1692 C 0.6078 0.52119 0.83122 0.0
C1693 C 0.58427 0.51133 0.84827 0.0
C1694 C 0.65199 0.56272 0.88942 0.0
C1695 C 0.60954 0.51173 0.79966 0.0
H1696 H 0.70377 0.57292 0.78221 0.0
H1697 H 0.71811 0.48919 0.8218 0.0
H1698 H 0.63405 0.58023 0.79157 0.0
H1699 H 0.6413 0.59306 0.82785 0.0
H1700 H 0.66487 0.60386 0.79808 0.0
H1701 H 0.68694 0.46951 0.85697 0.0
H1702 H 0.66448 0.4949 0.87696 0.0
H1703 H 0.64955 0.47574 0.8462 0.0
H1704 H 0.60337 0.54042 0.91397 0.0
H1705 H 0.56819 0.49672 0.83866 0.0
H1706 H 0.66187 0.57915 0.8746 0.0
H1707 H 0.66954 0.54741 0.89616 0.0
H1708 H 0.64372 0.57395 0.9093 0.0
H1709 H 0.61871 0.52941 0.78587 0.0
H1710 H 0.58772 0.5054 0.79092 0.0
H1711 H 0.62429 0.49259 0.79787 0.0
C1712 C 0.28722 0.99453 0.81794 0.0
C1713 C 0.27927 0.9726 0.79804 0.0
C1714 C 0.31355 0.9931 0.83366 0.0
C1715 C 0.33281 0.96927 0.82922 0.0
C1716 C 0.32438 0.94636 0.8101 0.0
C1717 C 0.29761 0.94824 0.7948 0.0
C1718 C 0.32129 0.01785 0.85418 0.0
C1719 C 0.34421 0.92065 0.80459 0.0
C1720 C 0.40877 0.99642 0.8464 0.0
C1721 C 0.41066 0.99 0.87631 0.0
C1722 C 0.38501 0.98654 0.82955 0.0
C1723 C 0.36246 0.97016 0.84308 0.0
C1724 C 0.36643 0.96025 0.87217 0.0
C1725 C 0.39069 0.97015 0.88845 0.0
C1726 C 0.38231 0.99678 0.7983 0.0
C1727 C 0.34334 0.94222 0.88729 0.0
H1728 H 0.27307 0.01329 0.82078 0.0
H1729 H 0.29171 0.93127 0.77932 0.0
H1730 H 0.32701 0.00918 0.87609 0.0
H1731 H 0.34073 0.02972 0.84577 0.0
H1732 H 0.30309 0.0337 0.85669 0.0
H1733 H 0.33221 0.9021 0.79444 0.0
H1734 H 0.362 0.92735 0.78952 0.0
H1735 H 0.35459 0.91307 0.82516 0.0
H1736 H 0.42441 0.01145 0.83681 0.0
H1737 H 0.39207 0.96498 0.91154 0.0
H1738 H 0.36654 0.01515 0.79724 0.0
H1739 H 0.37385 0.97905 0.78407 0.0
H1740 H 0.40363 0.00447 0.78949 0.0
H1741 H 0.32529 0.95673 0.89446 0.0
H1742 H 0.35227 0.93098 0.90687 0.0
H1743 H 0.3339 0.92567 0.87225 0.0
C1744 C 0.67091 0.69813 0.48787 0.0
C1745 C 0.68579 0.71262 0.46536 0.0
C1746 C 0.65648 0.67157 0.48286 0.0
C1747 C 0.65679 0.65895 0.45451 0.0
C1748 C 0.67051 0.67413 0.43129 0.0
C1749 C 0.68495 0.70078 0.437 0.0
C1750 C 0.64187 0.65645 0.50836 0.0
C1751 C 0.6712 0.66178 0.40071 0.0
C1752 C 0.64867 0.57891 0.46783 0.0
C1753 C 0.61813 0.57702 0.46988 0.0
C1754 C 0.66218 0.6047 0.45825 0.0
C1755 C 0.64457 0.62894 0.45063 0.0
C1756 C 0.61397 0.62498 0.4473 0.0
C1757 C 0.601 0.5988 0.45691 0.0
C1758 C 0.69498 0.60743 0.46089 0.0
C1759 C 0.5945 0.64977 0.43787 0.0
H1760 H 0.67115 0.70719 0.50977 0.0
H1761 H 0.69636 0.7118 0.41942 0.0
H1762 H 0.61861 0.65177 0.50314 0.0
H1763 H 0.65281 0.63527 0.51267 0.0
H1764 H 0.64268 0.66971 0.5287 0.0
H1765 H 0.67413 0.6793 0.38418 0.0
H1766 H 0.68995 0.64656 0.39875 0.0
H1767 H 0.65092 0.64943 0.39554 0.0
H1768 H 0.66195 0.56181 0.47743 0.0
H1769 H 0.57734 0.59731 0.45817 0.0
H1770 H 0.70047 0.61906 0.4815 0.0
H1771 H 0.70409 0.62029 0.44249 0.0
H1772 H 0.70575 0.5857 0.46133 0.0
H1773 H 0.59016 0.66414 0.45693 0.0
H1774 H 0.57317 0.64163 0.42945 0.0
H1775 H 0.60522 0.66316 0.42073 0.0
C1776 C 0.68707 0.29887 0.94699 0.0
C1777 C 0.70047 0.28742 0.97202 0.0
C1778 C 0.67372 0.32671 0.94781 0.0
C1779 C 0.67501 0.34373 0.97383 0.0
C1780 C 0.68953 0.33258 -0.00137 0.0
C1781 C 0.70132 0.3045 0.99761 0.0
C1782 C 0.65768 0.33767 0.92115 0.0
C1783 C 0.69238 0.35015 0.0265 0.0
C1784 C 0.66078 0.4256 0.96981 0.0
C1785 C 0.63171 0.42738 0.97956 0.0
C1786 C 0.67533 0.39861 0.96822 0.0
C1787 C 0.66024 0.3727 0.97594 0.0
C1788 C 0.63142 0.37454 0.98714 0.0
C1789 C 0.61774 0.40188 0.98936 0.0
C1790 C 0.7065 0.39772 0.95737 0.0
C1791 C 0.61445 0.34746 0.99544 0.0
H1792 H 0.68623 0.28581 0.92723 0.0
H1793 H 0.71182 0.29606 0.01711 0.0
H1794 H 0.6344 0.34181 0.92667 0.0
H1795 H 0.66725 0.35873 0.91391 0.0
H1796 H 0.65855 0.32191 0.9027 0.0
H1797 H 0.70648 0.33922 0.04298 0.0
H1798 H 0.70178 0.37199 0.02176 0.0
H1799 H 0.67044 0.35362 0.03624 0.0
H1800 H 0.67162 0.44517 0.96201 0.0
H1801 H 0.59515 0.40286 0.9965 0.0
H1802 H 0.70765 0.38481 0.93687 0.0
H1803 H 0.72069 0.38671 0.97367 0.0
H1804 H 0.71546 0.41988 0.95311 0.0
H1805 H 0.61258 0.33273 0.97623 0.0
H1806 H 0.59207 0.35257 0.00338 0.0
H1807 H 0.62623 0.33531 0.01279 0.0
C1808 C 0.31068 0.19928 0.95353 0.0
C1809 C 0.29191 0.2095 0.97535 0.0
C1810 C 0.3234 0.17132 0.9558 0.0
C1811 C 0.31675 0.15326 0.98021 0.0
C1812 C 0.29657 0.16308 0.00139 0.0
C1813 C 0.2846 0.19107 -0.00122 0.0
C1814 C 0.34471 0.16147 0.93265 0.0
C1815 C 0.28835 0.1445 0.0274 0.0
C1816 C 0.33612 0.07316 0.97134 0.0
C1817 C 0.36452 0.07239 0.98315 0.0
C1818 C 0.3196 0.09897 0.97152 0.0
C1819 C 0.33167 0.12456 0.98407 0.0
C1820 C 0.35887 0.123 -0.00106 0.0
C1821 C 0.37494 0.09685 -0.00155 0.0
C1822 C 0.29039 0.09941 0.95604 0.0
C1823 C 0.37219 0.14962 0.01325 0.0
H1824 H 0.31637 0.21354 0.9355 0.0
H1825 H 0.26972 0.19883 0.01553 0.0
H1826 H 0.36666 0.15829 0.94256 0.0
H1827 H 0.33768 0.14014 0.92346 0.0
H1828 H 0.34667 0.17747 0.91452 0.0
H1829 H 0.27032 0.15429 0.04041 0.0
H1830 H 0.28147 0.1224 0.02018 0.0
H1831 H 0.30768 0.14177 0.04184 0.0
H1832 H 0.32787 0.05428 0.95958 0.0
H1833 H 0.39687 0.09654 0.00755 0.0
H1834 H 0.29254 0.11167 0.93524 0.0
H1835 H 0.27371 0.11075 0.96947 0.0
H1836 H 0.28236 0.07707 0.95093 0.0
H1837 H 0.37861 0.16557 0.99615 0.0
H1838 H 0.39188 0.14416 0.02642 0.0
H1839 H 0.35598 0.16047 0.02763 0.0
C1840 C 0.77837 0.30542 0.01376 0.0
C1841 C 0.78511 0.28364 0.03428 0.0
C1842 C 0.7932 0.33211 0.01327 0.0
C1843 C 0.81636 0.33696 0.03313 0.0
C1844 C 0.82285 0.31547 0.05463 0.0
C1845 C 0.80685 0.28902 0.05517 0.0
C1846 C 0.78485 0.35456 0.99055 0.0
C1847 C 0.84756 0.31989 0.07612 0.0
C1848 C 0.87783 0.38841 0.01039 0.0
C1849 C 0.87238 0.41275 0.02814 0.0
C1850 C 0.85938 0.36381 0.01135 0.0
C1851 C 0.83471 0.36377 0.03016 0.0
C1852 C 0.82768 0.38933 0.04602 0.0
C1853 C 0.84657 0.4135 0.04479 0.0
C1854 C 0.86741 0.33712 0.99372 0.0
C1855 C 0.80124 0.39055 0.06576 0.0
H1856 H 0.76196 0.30115 0.9972 0.0
H1857 H 0.8124 0.27208 0.07073 0.0
H1858 H 0.78142 0.37617 0.00097 0.0
H1859 H 0.80287 0.35706 0.97451 0.0
H1860 H 0.76458 0.34842 0.97853 0.0
H1861 H 0.84892 0.30191 0.09234 0.0
H1862 H 0.86865 0.32117 0.06416 0.0
H1863 H 0.84476 0.34085 0.08796 0.0
H1864 H 0.89786 0.38751 0.99774 0.0
H1865 H 0.84231 0.43224 0.05865 0.0
H1866 H 0.84859 0.33004 0.98008 0.0
H1867 H 0.87275 0.31885 0.00872 0.0
H1868 H 0.8865 0.34107 0.97923 0.0
H1869 H 0.78143 0.3828 0.05402 0.0
H1870 H 0.79713 0.41295 0.07413 0.0
H1871 H 0.80465 0.37586 0.08473 0.0
loop_
_geom_bond_atom_site_label_1
_geom_bond_atom_site_label_2
_geom_bond_distance
_geom_bond_site_symmetry_2
_ccdc_geom_bond_type
C0 O2 1.247 . S
C0 O4 1.258 1_455 S
C1 O8 1.247 . S
C1 O9 1.258 1_655 S
O2 C0 1.247 . S
O2 Zn3 2.028 . S
Zn3 O2 2.028 . S
Zn3 O7 2.035 . S
Zn3 O9 2.035 . S
Zn3 O10 2.028 . S
O4 C0 1.258 1_655 S
O4 Zn5 2.035 . S
Zn5 O4 2.035 . S
Zn5 O6 2.028 . S
Zn5 O8 2.028 . S
Zn5 O11 2.035 . S
O6 Zn5 2.028 . S
O6 C12 1.247 . S
O7 Zn3 2.035 . S
O7 C12 1.258 1_455 S
O8 C1 1.247 . S
O8 Zn5 2.028 . S
O9 C1 1.258 1_455 S
O9 Zn3 2.035 . S
O10 Zn3 2.028 . S
O10 C13 1.247 . S
O11 Zn5 2.035 . S
O11 C13 1.258 1_655 S
C12 O6 1.247 . S
C12 O7 1.258 1_655 S
C13 O10 1.247 . S
C13 O11 1.258 1_455 S
C14 O16 1.247 . S
C14 O18 1.258 1_455 S
C15 O22 1.247 . S
C15 O23 1.258 1_655 S
O16 C14 1.247 . S
O16 Zn17 2.028 . S
Zn17 O16 2.028 . S
Zn17 O21 2.035 . S
Zn17 O23 2.035 . S
Zn17 O24 2.028 . S
O18 C14 1.258 1_655 S
O18 Zn19 2.035 . S
Zn19 O18 2.035 . S
Zn19 O20 2.028 . S
Zn19 O22 2.028 . S
Zn19 O25 2.035 . S
O20 Zn19 2.028 . S
O20 C26 1.247 . S
O21 Zn17 2.035 . S
O21 C26 1.258 1_455 S
O22 C15 1.247 . S
O22 Zn19 2.028 . S
O23 C15 1.258 1_455 S
O23 Zn17 2.035 . S
O24 Zn17 2.028 . S
O24 C27 1.247 . S
O25 Zn19 2.035 . S
O25 C27 1.258 1_655 S
C26 O20 1.247 . S
C26 O21 1.258 1_655 S
C27 O24 1.247 . S
C27 O25 1.258 1_455 S
C28 O30 1.247 1_545 S
C28 O32 1.258 . S
C29 O36 1.247 1_565 S
C29 O37 1.258 . S
O30 C28 1.247 1_565 S
O30 Zn31 2.028 . S
Zn31 O30 2.028 . S
Zn31 O35 2.035 . S
Zn31 O37 2.035 . S
Zn31 O38 2.028 . S
O32 C28 1.258 . S
O32 Zn33 2.035 . S
Zn33 O32 2.035 . S
Zn33 O34 2.028 . S
Zn33 O36 2.028 . S
Zn33 O39 2.035 . S
O34 Zn33 2.028 . S
O34 C40 1.247 1_545 S
O35 Zn31 2.035 . S
O35 C40 1.258 . S
O36 C29 1.247 1_545 S
O36 Zn33 2.028 . S
O37 C29 1.258 . S
O37 Zn31 2.035 . S
O38 Zn31 2.028 . S
O38 C41 1.247 1_565 S
O39 Zn33 2.035 . S
O39 C41 1.258 . S
C40 O34 1.247 1_565 S
C40 O35 1.258 . S
C41 O38 1.247 1_545 S
C41 O39 1.258 . S
C42 O44 1.247 . S
C42 O46 1.258 . S
C43 O50 1.247 . S
C43 O51 1.258 . S
O44 C42 1.247 . S
O44 Zn45 2.028 . S
Zn45 O44 2.028 . S
Zn45 O49 2.035 . S
Zn45 O51 2.035 . S
Zn45 O52 2.028 . S
O46 C42 1.258 . S
O46 Zn47 2.035 . S
Zn47 O46 2.035 . S
Zn47 O48 2.028 . S
Zn47 O50 2.028 . S
Zn47 O53 2.035 . S
O48 Zn47 2.028 . S
O48 C54 1.247 . S
O49 Zn45 2.035 . S
O49 C54 1.258 . S
O50 C43 1.247 . S
O50 Zn47 2.028 . S
O51 C43 1.258 . S
O51 Zn45 2.035 . S
O52 Zn45 2.028 . S
O52 C55 1.247 . S
O53 Zn47 2.035 . S
O53 C55 1.258 . S
C54 O48 1.247 . S
C54 O49 1.258 . S
C55 O52 1.247 . S
C55 O53 1.258 . S
C56 O58 1.247 1_554 S
C56 O60 1.258 . S
C57 O64 1.247 1_556 S
C57 O65 1.258 . S
O58 C56 1.247 1_556 S
O58 Zn59 2.028 . S
Zn59 O58 2.028 . S
Zn59 O63 2.035 . S
Zn59 O65 2.035 . S
Zn59 O66 2.028 . S
O60 C56 1.258 . S
O60 Zn61 2.035 . S
Zn61 O60 2.035 . S
Zn61 O62 2.028 . S
Zn61 O64 2.028 . S
Zn61 O67 2.035 . S
O62 Zn61 2.028 . S
O62 C68 1.247 1_554 S
O63 Zn59 2.035 . S
O63 C68 1.258 . S
O64 C57 1.247 1_554 S
O64 Zn61 2.028 . S
O65 C57 1.258 . S
O65 Zn59 2.035 . S
O66 Zn59 2.028 . S
O66 C69 1.247 1_556 S
O67 Zn61 2.035 . S
O67 C69 1.258 . S
C68 O62 1.247 1_556 S
C68 O63 1.258 . S
C69 O66 1.247 1_554 S
C69 O67 1.258 . S
C70 O72 1.247 . S
C70 O74 1.258 . S
C71 O78 1.247 . S
C71 O79 1.258 . S
O72 C70 1.247 . S
O72 Zn73 2.028 . S
Zn73 O72 2.028 . S
Zn73 O77 2.035 . S
Zn73 O79 2.035 . S
Zn73 O80 2.028 . S
O74 C70 1.258 . S
O74 Zn75 2.035 . S
Zn75 O74 2.035 . S
Zn75 O76 2.028 . S
Zn75 O78 2.028 . S
Zn75 O81 2.035 . S
O76 Zn75 2.028 . S
O76 C82 1.247 . S
O77 Zn73 2.035 . S
O77 C82 1.258 . S
O78 C71 1.247 . S
O78 Zn75 2.028 . S
O79 C71 1.258 . S
O79 Zn73 2.035 . S
O80 Zn73 2.028 . S
O80 C83 1.247 . S
O81 Zn75 2.035 . S
O81 C83 1.258 . S
C82 O76 1.247 . S
C82 O77 1.258 . S
C83 O80 1.247 . S
C83 O81 1.258 . S
C84 O86 1.247 . S
C84 O88 1.258 . S
C85 O92 1.247 . S
C85 O93 1.258 . S
O86 C84 1.247 . S
O86 Zn87 2.028 . S
Zn87 O86 2.028 . S
Zn87 O91 2.035 . S
Zn87 O93 2.035 . S
Zn87 O94 2.028 . S
O88 C84 1.258 . S
O88 Zn89 2.035 . S
Zn89 O88 2.035 . S
Zn89 O90 2.028 . S
Zn89 O92 2.028 . S
Zn89 O95 2.035 . S
O90 Zn89 2.028 . S
O90 C96 1.247 . S
O91 Zn87 2.035 . S
O91 C96 1.258 . S
O92 C85 1.247 . S
O92 Zn89 2.028 . S
O93 C85 1.258 . S
O93 Zn87 2.035 . S
O94 Zn87 2.028 . S
O94 C97 1.247 . S
O95 Zn89 2.035 . S
O95 C97 1.258 . S
C96 O90 1.247 . S
C96 O91 1.258 . S
C97 O94 1.247 . S
C97 O95 1.258 . S
C98 O100 1.247 . S
C98 O102 1.258 . S
C99 O106 1.247 . S
C99 O107 1.258 . S
O100 C98 1.247 . S
O100 Zn101 2.028 . S
Zn101 O100 2.028 . S
Zn101 O105 2.035 . S
Zn101 O107 2.035 . S
Zn101 O108 2.028 . S
O102 C98 1.258 . S
O102 Zn103 2.035 . S
Zn103 O102 2.035 . S
Zn103 O104 2.028 . S
Zn103 O106 2.028 . S
Zn103 O109 2.035 . S
O104 Zn103 2.028 . S
O104 C110 1.247 . S
O105 Zn101 2.035 . S
O105 C110 1.258 . S
O106 C99 1.247 . S
O106 Zn103 2.028 . S
O107 C99 1.258 . S
O107 Zn101 2.035 . S
O108 Zn101 2.028 . S
O108 C111 1.247 . S
O109 Zn103 2.035 . S
O109 C111 1.258 . S
C110 O104 1.247 . S
C110 O105 1.258 . S
C111 O108 1.247 . S
C111 O109 1.258 . S
C112 O114 1.247 . S
C112 O116 1.258 . S
C113 O120 1.247 . S
C113 O121 1.258 . S
O114 C112 1.247 . S
O114 Zn115 2.028 . S
Zn115 O114 2.028 . S
Zn115 O119 2.035 . S
Zn115 O121 2.035 . S
Zn115 O122 2.028 . S
O116 C112 1.258 . S
O116 Zn117 2.035 . S
Zn117 O116 2.035 . S
Zn117 O118 2.028 . S
Zn117 O120 2.028 . S
Zn117 O123 2.035 . S
O118 Zn117 2.028 . S
O118 C124 1.247 . S
O119 Zn115 2.035 . S
O119 C124 1.258 . S
O120 C113 1.247 . S
O120 Zn117 2.028 . S
O121 C113 1.258 . S
O121 Zn115 2.035 . S
O122 Zn115 2.028 . S
O122 C125 1.247 . S
O123 Zn117 2.035 . S
O123 C125 1.258 . S
C124 O118 1.247 . S
C124 O119 1.258 . S
C125 O122 1.247 . S
C125 O123 1.258 . S
C126 O128 1.247 . S
C126 O130 1.258 . S
C127 O134 1.247 . S
C127 O135 1.258 . S
O128 C126 1.247 . S
O128 Zn129 2.028 . S
Zn129 O128 2.028 . S
Zn129 O133 2.035 . S
Zn129 O135 2.035 . S
Zn129 O136 2.028 . S
O130 C126 1.258 . S
O130 Zn131 2.035 . S
Zn131 O130 2.035 . S
Zn131 O132 2.028 . S
Zn131 O134 2.028 . S
Zn131 O137 2.035 . S
O132 Zn131 2.028 . S
O132 C138 1.247 . S
O133 Zn129 2.035 . S
O133 C138 1.258 . S
O134 C127 1.247 . S
O134 Zn131 2.028 . S
O135 C127 1.258 . S
O135 Zn129 2.035 . S
O136 Zn129 2.028 . S
O136 C139 1.247 . S
O137 Zn131 2.035 . S
O137 C139 1.258 . S
C138 O132 1.247 . S
C138 O133 1.258 . S
C139 O136 1.247 . S
C139 O137 1.258 . S
C140 O142 1.247 . S
C140 O144 1.258 1_565 S
C141 O148 1.247 . S
C141 O149 1.258 1_545 S
O142 C140 1.247 . S
O142 Zn143 2.028 . S
Zn143 O142 2.028 . S
Zn143 O147 2.035 . S
Zn143 O149 2.035 . S
Zn143 O150 2.028 . S
O144 C140 1.258 1_545 S
O144 Zn145 2.035 . S
Zn145 O144 2.035 . S
Zn145 O146 2.028 . S
Zn145 O148 2.028 . S
Zn145 O151 2.035 . S
O146 Zn145 2.028 . S
O146 C152 1.247 . S
O147 Zn143 2.035 . S
O147 C152 1.258 1_565 S
O148 C141 1.247 . S
O148 Zn145 2.028 . S
O149 C141 1.258 1_565 S
O149 Zn143 2.035 . S
O150 Zn143 2.028 . S
O150 C153 1.247 . S
O151 Zn145 2.035 . S
O151 C153 1.258 1_545 S
C152 O146 1.247 . S
C152 O147 1.258 1_545 S
C153 O150 1.247 . S
C153 O151 1.258 1_565 S
C154 O156 1.247 1_556 S
C154 O158 1.258 . S
C155 O162 1.247 1_554 S
C155 O163 1.258 . S
O156 C154 1.247 1_554 S
O156 Zn157 2.028 . S
Zn157 O156 2.028 . S
Zn157 O161 2.035 . S
Zn157 O163 2.035 . S
Zn157 O164 2.028 . S
O158 C154 1.258 . S
O158 Zn159 2.035 . S
Zn159 O158 2.035 . S
Zn159 O160 2.028 . S
Zn159 O162 2.028 . S
Zn159 O165 2.035 . S
O160 Zn159 2.028 . S
O160 C166 1.247 1_556 S
O161 Zn157 2.035 . S
O161 C166 1.258 . S
O162 C155 1.247 1_556 S
O162 Zn159 2.028 . S
O163 C155 1.258 . S
O163 Zn157 2.035 . S
O164 Zn157 2.028 . S
O164 C167 1.247 1_554 S
O165 Zn159 2.035 . S
O165 C167 1.258 . S
C166 O160 1.247 1_554 S
C166 O161 1.258 . S
C167 O164 1.247 1_556 S
C167 O165 1.258 . S
Zn168 O174 1.920 . S
Zn168 O180 1.898 . S
Zn168 O183 1.905 . S
Zn169 O177 1.905 1_554 S
Zn169 O178 1.898 1_545 S
Zn169 O186 1.920 1_455 S
Zn170 O173 2.080 . S
Zn170 O176 2.114 . S
Zn170 O179 2.120 . S
Zn170 O181 2.120 . S
Zn170 O182 2.114 . S
Zn170 O185 2.080 . S
C171 O176 1.166 1_556 S
C171 O177 1.182 . S
C172 O178 1.167 . S
C172 O179 1.299 1_565 S
O173 Zn170 2.080 . S
O173 C187 1.305 . S
O174 Zn168 1.920 . S
O174 C187 1.234 . S
C175 O180 1.167 . S
C175 O181 1.299 . S
O176 Zn170 2.114 . S
O176 C171 1.166 1_554 S
O177 Zn169 1.905 1_556 S
O177 C171 1.182 . S
O178 Zn169 1.898 1_565 S
O178 C172 1.167 . S
O179 Zn170 2.120 . S
O179 C172 1.299 1_545 S
O180 Zn168 1.898 . S
O180 C175 1.167 . S
O181 Zn170 2.120 . S
O181 C175 1.299 . S
O182 Zn170 2.114 . S
O182 C184 1.166 . S
O183 Zn168 1.905 . S
O183 C184 1.182 . S
C184 O182 1.166 . S
C184 O183 1.182 . S
O185 Zn170 2.080 . S
O185 C188 1.305 1_455 S
O186 Zn169 1.920 1_655 S
O186 C188 1.234 . S
C187 O173 1.305 . S
C187 O174 1.234 . S
C188 O185 1.305 1_655 S
C188 O186 1.234 . S
Zn189 O195 1.920 1_655 S
Zn189 O201 1.898 . S
Zn189 O204 1.905 1_554 S
Zn190 O198 1.905 . S
Zn190 O199 1.898 . S
Zn190 O207 1.920 . S
Zn191 O194 2.080 . S
Zn191 O197 2.114 . S
Zn191 O200 2.120 . S
Zn191 O202 2.120 . S
Zn191 O203 2.114 . S
Zn191 O206 2.080 . S
C192 O197 1.166 . S
C192 O198 1.182 . S
C193 O199 1.167 . S
C193 O200 1.299 . S
O194 Zn191 2.080 . S
O194 C208 1.305 1_655 S
O195 Zn189 1.920 1_455 S
O195 C208 1.234 . S
C196 O201 1.167 . S
C196 O202 1.299 . S
O197 Zn191 2.114 . S
O197 C192 1.166 . S
O198 Zn190 1.905 . S
O198 C192 1.182 . S
O199 Zn190 1.898 . S
O199 C193 1.167 . S
O200 Zn191 2.120 . S
O200 C193 1.299 . S
O201 Zn189 1.898 . S
O201 C196 1.167 . S
O202 Zn191 2.120 . S
O202 C196 1.299 . S
O203 Zn191 2.114 . S
O203 C205 1.166 1_554 S
O204 Zn189 1.905 1_556 S
O204 C205 1.182 . S
C205 O203 1.166 1_556 S
C205 O204 1.182 . S
O206 Zn191 2.080 . S
O206 C209 1.305 . S
O207 Zn190 1.920 . S
O207 C209 1.234 . S
C208 O194 1.305 1_455 S
C208 O195 1.234 . S
C209 O206 1.305 . S
C209 O207 1.234 . S
Zn210 O216 1.912 1_565 S
Zn210 O222 1.901 . S
Zn210 O225 1.913 1_455 S
Zn211 O219 1.905 . S
Zn211 O220 1.898 . S
Zn211 O228 1.920 . S
Zn212 O215 2.080 . S
Zn212 O218 2.114 . S
Zn212 O221 2.120 . S
Zn212 O223 2.120 . S
Zn212 O224 2.114 . S
Zn212 O227 2.080 . S
C213 O218 1.166 . S
C213 O219 1.182 . S
C214 O220 1.167 . S
C214 O221 1.299 . S
O215 Zn212 2.080 . S
O215 C229 1.305 1_565 S
O216 Zn210 1.912 1_545 S
O216 C229 1.234 . S
C217 O222 1.167 . S
C217 O223 1.299 . S
O218 Zn212 2.114 . S
O218 C213 1.166 . S
O219 Zn211 1.905 . S
O219 C213 1.182 . S
O220 Zn211 1.898 . S
O220 C214 1.167 . S
O221 Zn212 2.120 . S
O221 C214 1.299 . S
O222 Zn210 1.901 . S
O222 C217 1.167 . S
O223 Zn212 2.120 . S
O223 C217 1.299 . S
O224 Zn212 2.114 . S
O224 C226 1.166 1_455 S
O225 Zn210 1.913 1_655 S
O225 C226 1.182 . S
C226 O224 1.166 1_655 S
C226 O225 1.182 . S
O227 Zn212 2.080 . S
O227 C230 1.305 . S
O228 Zn211 1.920 . S
O228 C230 1.234 . S
C229 O215 1.305 1_545 S
C229 O216 1.234 . S
C230 O227 1.305 . S
C230 O228 1.234 . S
Zn231 O237 1.920 . S
Zn231 O243 1.898 . S
Zn231 O246 1.905 . S
Zn232 O240 1.905 . S
Zn232 O241 1.898 1_655 S
Zn232 O249 1.920 . S
Zn233 O236 2.080 . S
Zn233 O239 2.114 . S
Zn233 O242 2.120 . S
Zn233 O244 2.120 . S
Zn233 O245 2.114 . S
Zn233 O248 2.080 . S
C234 O239 1.166 . S
C234 O240 1.182 . S
C235 O241 1.167 . S
C235 O242 1.299 1_455 S
O236 Zn233 2.080 . S
O236 C250 1.305 . S
O237 Zn231 1.920 . S
O237 C250 1.234 . S
C238 O243 1.167 . S
C238 O244 1.299 . S
O239 Zn233 2.114 . S
O239 C234 1.166 . S
O240 Zn232 1.905 . S
O240 C234 1.182 . S
O241 Zn232 1.898 1_455 S
O241 C235 1.167 . S
O242 Zn233 2.120 . S
O242 C235 1.299 1_655 S
O243 Zn231 1.898 . S
O243 C238 1.167 . S
O244 Zn233 2.120 . S
O244 C238 1.299 . S
O245 Zn233 2.114 . S
O245 C247 1.166 . S
O246 Zn231 1.905 . S
O246 C247 1.182 . S
C247 O245 1.166 . S
C247 O246 1.182 . S
O248 Zn233 2.080 . S
O248 C251 1.305 . S
O249 Zn232 1.920 . S
O249 C251 1.234 . S
C250 O236 1.305 . S
C250 O237 1.234 . S
C251 O248 1.305 . S
C251 O249 1.234 . S
Zn252 O258 1.920 . S
Zn252 O264 1.898 . S
Zn252 O267 1.905 . S
Zn253 O261 1.902 1_545 S
Zn253 O262 1.906 . S
Zn253 O270 1.912 1_545 S
Zn254 O257 2.080 . S
Zn254 O260 2.114 . S
Zn254 O263 2.120 . S
Zn254 O265 2.120 . S
Zn254 O266 2.114 . S
Zn254 O269 2.080 . S
C255 O260 1.166 . S
C255 O261 1.182 . S
C256 O262 1.167 . S
C256 O263 1.299 1_545 S
O257 Zn254 2.080 . S
O257 C271 1.305 . S
O258 Zn252 1.920 . S
O258 C271 1.234 . S
C259 O264 1.167 . S
C259 O265 1.299 . S
O260 Zn254 2.114 . S
O260 C255 1.166 . S
O261 Zn253 1.902 1_565 S
O261 C255 1.182 . S
O262 Zn253 1.906 . S
O262 C256 1.167 . S
O263 Zn254 2.120 . S
O263 C256 1.299 1_565 S
O264 Zn252 1.898 . S
O264 C259 1.167 . S
O265 Zn254 2.120 . S
O265 C259 1.299 . S
O266 Zn254 2.114 . S
O266 C268 1.166 . S
O267 Zn252 1.905 . S
O267 C268 1.182 . S
C268 O266 1.166 . S
C268 O267 1.182 . S
O269 Zn254 2.080 . S
O269 C272 1.305 . S
O270 Zn253 1.912 1_565 S
O270 C272 1.234 . S
C271 O257 1.305 . S
C271 O258 1.234 . S
C272 O269 1.305 . S
C272 O270 1.234 . S
Zn273 O279 1.920 . S
Zn273 O285 1.898 . S
Zn273 O288 1.905 . S
Zn274 O282 1.905 . S
Zn274 O283 1.898 . S
Zn274 O291 1.920 . S
Zn275 O278 2.080 . S
Zn275 O281 2.114 . S
Zn275 O284 2.120 . S
Zn275 O286 2.120 . S
Zn275 O287 2.114 . S
Zn275 O290 2.080 . S
C276 O281 1.166 . S
C276 O282 1.182 . S
C277 O283 1.167 . S
C277 O284 1.299 . S
O278 Zn275 2.080 . S
O278 C292 1.305 . S
O279 Zn273 1.920 . S
O279 C292 1.234 . S
C280 O285 1.167 . S
C280 O286 1.299 . S
O281 Zn275 2.114 . S
O281 C276 1.166 . S
O282 Zn274 1.905 . S
O282 C276 1.182 . S
O283 Zn274 1.898 . S
O283 C277 1.167 . S
O284 Zn275 2.120 . S
O284 C277 1.299 . S
O285 Zn273 1.898 . S
O285 C280 1.167 . S
O286 Zn275 2.120 . S
O286 C280 1.299 . S
O287 Zn275 2.114 . S
O287 C289 1.166 . S
O288 Zn273 1.905 . S
O288 C289 1.182 . S
C289 O287 1.166 . S
C289 O288 1.182 . S
O290 Zn275 2.080 . S
O290 C293 1.305 . S
O291 Zn274 1.920 . S
O291 C293 1.234 . S
C292 O278 1.305 . S
C292 O279 1.234 . S
C293 O290 1.305 . S
C293 O291 1.234 . S
Zn294 O300 1.919 1_554 S
Zn294 O306 1.899 . S
Zn294 O309 1.905 1_554 S
Zn295 O303 1.905 . S
Zn295 O304 1.898 . S
Zn295 O312 1.920 . S
Zn296 O299 2.080 . S
Zn296 O302 2.114 . S
Zn296 O305 2.120 . S
Zn296 O307 2.120 . S
Zn296 O308 2.114 . S
Zn296 O311 2.080 . S
C297 O302 1.166 . S
C297 O303 1.182 . S
C298 O304 1.167 . S
C298 O305 1.299 . S
O299 Zn296 2.080 . S
O299 C313 1.305 . S
O300 Zn294 1.919 1_556 S
O300 C313 1.234 . S
C301 O306 1.167 . S
C301 O307 1.299 1_554 S
O302 Zn296 2.114 . S
O302 C297 1.166 . S
O303 Zn295 1.905 . S
O303 C297 1.182 . S
O304 Zn295 1.898 . S
O304 C298 1.167 . S
O305 Zn296 2.120 . S
O305 C298 1.299 . S
O306 Zn294 1.899 . S
O306 C301 1.167 . S
O307 Zn296 2.120 . S
O307 C301 1.299 1_556 S
O308 Zn296 2.114 . S
O308 C310 1.166 . S
O309 Zn294 1.905 1_556 S
O309 C310 1.182 . S
C310 O308 1.166 . S
C310 O309 1.182 . S
O311 Zn296 2.080 . S
O311 C314 1.305 . S
O312 Zn295 1.920 . S
O312 C314 1.234 . S
C313 O299 1.305 . S
C313 O300 1.234 . S
C314 O311 1.305 . S
C314 O312 1.234 . S
Zn315 O321 1.918 1_556 S
Zn315 O327 1.899 . S
Zn315 O330 1.907 1_545 S
Zn316 O324 1.905 . S
Zn316 O325 1.898 . S
Zn316 O333 1.920 . S
Zn317 O320 2.080 . S
Zn317 O323 2.114 . S
Zn317 O326 2.120 . S
Zn317 O328 2.120 . S
Zn317 O329 2.114 . S
Zn317 O332 2.080 . S
C318 O323 1.166 . S
C318 O324 1.182 . S
C319 O325 1.167 . S
C319 O326 1.299 . S
O320 Zn317 2.080 . S
O320 C334 1.305 1_556 S
O321 Zn315 1.918 1_554 S
O321 C334 1.234 . S
C322 O327 1.167 . S
C322 O328 1.299 . S
O323 Zn317 2.114 . S
O323 C318 1.166 . S
O324 Zn316 1.905 . S
O324 C318 1.182 . S
O325 Zn316 1.898 . S
O325 C319 1.167 . S
O326 Zn317 2.120 . S
O326 C319 1.299 . S
O327 Zn315 1.899 . S
O327 C322 1.167 . S
O328 Zn317 2.120 . S
O328 C322 1.299 . S
O329 Zn317 2.114 . S
O329 C331 1.166 1_545 S
O330 Zn315 1.907 1_565 S
O330 C331 1.182 . S
C331 O329 1.166 1_565 S
C331 O330 1.182 . S
O332 Zn317 2.080 . S
O332 C335 1.305 . S
O333 Zn316 1.920 . S
O333 C335 1.234 . S
C334 O320 1.305 1_554 S
C334 O321 1.234 . S
C335 O332 1.305 . S
C335 O333 1.234 . S
C336 C337 1.391 1_655 S
C336 C338 1.394 . S
C336 H352 0.931 . S
C337 C336 1.391 1_455 S
C337 C341 1.376 . S
C338 C336 1.394 . S
C338 C339 1.369 1_655 S
C338 C342 1.531 . S
C339 C338 1.369 1_455 S
C339 C340 1.410 . S
C339 C347 1.503 . S
C340 C339 1.410 . S
C340 C341 1.392 . S
C340 C343 1.511 . S
C341 C337 1.376 . S
C341 C340 1.392 . S
C341 H353 0.929 . S
C342 C338 1.531 . S
C342 H354 0.960 . S
C342 H355 0.962 . S
C342 H356 0.960 . S
C343 C340 1.511 . S
C343 H357 0.961 . S
C343 H358 0.961 . S
C343 H359 0.961 . S
C344 C345 1.370 . S
C344 C346 1.363 . S
C344 H360 0.931 . S
C345 C344 1.370 . S
C345 C349 1.408 . S
C346 C344 1.363 . S
C346 C347 1.370 . S
C346 C350 1.524 . S
C347 C339 1.503 . S
C347 C346 1.370 . S
C347 C348 1.403 . S
C348 C347 1.403 . S
C348 C349 1.404 . S
C348 C351 1.539 . S
C349 C345 1.408 . S
C349 C348 1.404 . S
C349 H361 0.930 . S
C350 C346 1.524 . S
C350 H362 0.956 . S
C350 H363 0.961 . S
C350 H364 0.961 . S
C351 C348 1.539 . S
C351 H365 0.958 1_455 S
C351 H366 0.961 . S
C351 H367 0.960 . S
H352 C336 0.931 . S
H353 C341 0.929 . S
H354 C342 0.960 . S
H355 C342 0.962 . S
H356 C342 0.960 . S
H357 C343 0.961 . S
H358 C343 0.961 . S
H359 C343 0.961 . S
H360 C344 0.931 . S
H361 C349 0.930 . S
H362 C350 0.956 . S
H363 C350 0.961 . S
H364 C350 0.961 . S
H365 C351 0.958 1_655 S
H366 C351 0.961 . S
H367 C351 0.960 . S
C368 C369 1.391 . S
C368 C370 1.394 . S
C368 H384 0.931 . S
C369 C368 1.391 . S
C369 C373 1.376 1_655 S
C370 C368 1.394 . S
C370 C371 1.369 . S
C370 C374 1.531 . S
C371 C370 1.369 . S
C371 C372 1.410 1_655 S
C371 C379 1.503 . S
C372 C371 1.410 1_455 S
C372 C373 1.392 . S
C372 C375 1.511 . S
C373 C369 1.376 1_455 S
C373 C372 1.392 . S
C373 H385 0.929 . S
C374 C370 1.531 . S
C374 H386 0.960 . S
C374 H387 0.962 . S
C374 H388 0.960 . S
C375 C372 1.511 . S
C375 H389 0.961 . S
C375 H390 0.961 . S
C375 H391 0.961 . S
C376 C377 1.370 . S
C376 C378 1.363 . S
C376 H392 0.931 . S
C377 C376 1.370 . S
C377 C381 1.426 . S
C378 C376 1.363 . S
C378 C379 1.370 . S
C378 C382 1.524 . S
C379 C371 1.503 . S
C379 C378 1.370 . S
C379 C380 1.403 1_655 S
C380 C379 1.403 1_455 S
C380 C381 1.401 1_455 S
C380 C383 1.539 . S
C381 C377 1.426 . S
C381 C380 1.401 1_655 S
C381 H393 0.916 1_655 S
C382 C378 1.524 . S
C382 H394 0.956 . S
C382 H395 0.961 . S
C382 H396 0.961 . S
C383 C380 1.539 . S
C383 H397 0.958 . S
C383 H398 0.961 . S
C383 H399 0.960 . S
H384 C368 0.931 . S
H385 C373 0.929 . S
H386 C374 0.960 . S
H387 C374 0.962 . S
H388 C374 0.960 . S
H389 C375 0.961 . S
H390 C375 0.961 . S
H391 C375 0.961 . S
H392 C376 0.931 . S
H393 C381 0.916 1_455 S
H394 C382 0.956 . S
H395 C382 0.961 . S
H396 C382 0.961 . S
H397 C383 0.958 . S
H398 C383 0.961 . S
H399 C383 0.960 . S
C400 C401 1.391 . S
C400 C402 1.394 . S
C400 H416 0.931 1_455 S
C401 C400 1.391 . S
C401 C405 1.376 . S
C402 C400 1.394 . S
C402 C403 1.369 . S
C402 C406 1.523 1_455 S
C403 C402 1.369 . S
C403 C404 1.410 . S
C403 C411 1.503 . S
C404 C403 1.410 . S
C404 C405 1.392 . S
C404 C407 1.511 . S
C405 C401 1.376 . S
C405 C404 1.392 . S
C405 H417 0.929 . S
C406 C402 1.523 1_655 S
C406 H418 0.945 1_655 S
C406 H419 0.986 . S
C406 H420 0.960 . S
C407 C404 1.511 . S
C407 H421 0.961 . S
C407 H422 0.961 . S
C407 H423 0.961 . S
C408 C409 1.370 . S
C408 C410 1.363 . S
C408 H424 0.931 1_455 S
C409 C408 1.370 . S
C409 C413 1.408 . S
C410 C408 1.363 . S
C410 C411 1.370 . S
C410 C414 1.524 1_455 S
C411 C403 1.503 . S
C411 C410 1.370 . S
C411 C412 1.403 . S
C412 C411 1.403 . S
C412 C413 1.404 . S
C412 C415 1.539 . S
C413 C409 1.408 . S
C413 C412 1.404 . S
C413 H425 0.930 . S
C414 C410 1.524 1_655 S
C414 H426 0.956 . S
C414 H427 0.961 . S
C414 H428 0.961 . S
C415 C412 1.539 . S
C415 H429 0.958 . S
C415 H430 0.961 . S
C415 H431 0.960 . S
H416 C400 0.931 1_655 S
H417 C405 0.929 . S
H418 C406 0.945 1_455 S
H419 C406 0.986 . S
H420 C406 0.960 . S
H421 C407 0.961 . S
H422 C407 0.961 . S
H423 C407 0.961 . S
H424 C408 0.931 1_655 S
H425 C413 0.930 . S
H426 C414 0.956 . S
H427 C414 0.961 . S
H428 C414 0.961 . S
H429 C415 0.958 . S
H430 C415 0.961 . S
H431 C415 0.960 . S
C432 C433 1.391 . S
C432 C434 1.394 . S
C432 H448 0.931 . S
C433 C432 1.391 . S
C433 C437 1.376 1_655 S
C434 C432 1.394 . S
C434 C435 1.369 . S
C434 C438 1.531 . S
C435 C434 1.369 . S
C435 C436 1.410 1_655 S
C435 C443 1.503 . S
C436 C435 1.410 1_455 S
C436 C437 1.392 . S
C436 C439 1.511 . S
C437 C433 1.376 1_455 S
C437 C436 1.392 . S
C437 H449 0.929 . S
C438 C434 1.531 . S
C438 H450 0.960 . S
C438 H451 0.962 . S
C438 H452 0.960 . S
C439 C436 1.511 . S
C439 H453 0.961 . S
C439 H454 0.961 . S
C439 H455 0.961 . S
C440 C441 1.370 . S
C440 C442 1.363 . S
C440 H456 0.931 . S
C441 C440 1.370 . S
C441 C445 1.408 . S
C442 C440 1.363 . S
C442 C443 1.370 . S
C442 C446 1.524 1_655 S
C443 C435 1.503 . S
C443 C442 1.370 . S
C443 C444 1.403 . S
C444 C443 1.403 . S
C444 C445 1.404 . S
C444 C447 1.539 . S
C445 C441 1.408 . S
C445 C444 1.404 . S
C445 H457 0.930 . S
C446 C442 1.524 1_455 S
C446 H458 0.956 1_455 S
C446 H459 0.961 . S
C446 H460 0.961 . S
C447 C444 1.539 . S
C447 H461 0.958 . S
C447 H462 0.961 . S
C447 H463 0.960 . S
H448 C432 0.931 . S
H449 C437 0.929 . S
H450 C438 0.960 . S
H451 C438 0.962 . S
H452 C438 0.960 . S
H453 C439 0.961 . S
H454 C439 0.961 . S
H455 C439 0.961 . S
H456 C440 0.931 . S
H457 C445 0.930 . S
H458 C446 0.956 1_655 S
H459 C446 0.961 . S
H460 C446 0.961 . S
H461 C447 0.958 . S
H462 C447 0.961 . S
H463 C447 0.960 . S
C464 C465 1.391 . S
C464 C466 1.394 . S
C464 H480 0.931 . S
C465 C464 1.391 . S
C465 C469 1.376 . S
C466 C464 1.394 . S
C466 C467 1.369 . S
C466 C470 1.531 . S
C467 C466 1.369 . S
C467 C468 1.410 . S
C467 C475 1.503 . S
C468 C467 1.410 . S
C468 C469 1.392 . S
C468 C471 1.511 . S
C469 C465 1.376 . S
C469 C468 1.392 . S
C469 H481 0.929 . S
C470 C466 1.531 . S
C470 H482 0.960 . S
C470 H483 0.962 . S
C470 H484 0.960 . S
C471 C468 1.511 . S
C471 H485 0.961 1_545 S
C471 H486 0.961 1_545 S
C471 H487 0.961 . S
C472 C473 1.370 . S
C472 C474 1.363 . S
C472 H488 0.931 1_545 S
C473 C472 1.370 . S
C473 C477 1.408 . S
C474 C472 1.363 . S
C474 C475 1.370 . S
C474 C478 1.524 1_545 S
C475 C467 1.503 . S
C475 C474 1.370 . S
C475 C476 1.403 . S
C476 C475 1.403 . S
C476 C477 1.404 . S
C476 C479 1.539 . S
C477 C473 1.408 . S
C477 C476 1.404 . S
C477 H489 0.930 . S
C478 C474 1.524 1_565 S
C478 H490 0.956 . S
C478 H491 0.961 . S
C478 H492 0.961 . S
C479 C476 1.539 . S
C479 H493 0.958 . S
C479 H494 0.961 . S
C479 H495 0.960 . S
H480 C464 0.931 . S
H481 C469 0.929 . S
H482 C470 0.960 . S
H483 C470 0.962 . S
H484 C470 0.960 . S
H485 C471 0.961 1_565 S
H486 C471 0.961 1_565 S
H487 C471 0.961 . S
H488 C472 0.931 1_565 S
H489 C477 0.930 . S
H490 C478 0.956 . S
H491 C478 0.961 . S
H492 C478 0.961 . S
H493 C479 0.958 . S
H494 C479 0.961 . S
H495 C479 0.960 . S
C496 C497 1.391 . S
C496 C498 1.394 . S
C496 H512 0.931 . S
C497 C496 1.391 . S
C497 C501 1.376 . S
C498 C496 1.394 . S
C498 C499 1.369 . S
C498 C502 1.531 . S
C499 C498 1.369 . S
C499 C500 1.410 . S
C499 C507 1.503 . S
C500 C499 1.410 . S
C500 C501 1.392 . S
C500 C503 1.511 . S
C501 C497 1.376 . S
C501 C500 1.392 . S
C501 H513 0.929 . S
C502 C498 1.531 . S
C502 H514 0.960 . S
C502 H515 0.962 . S
C502 H516 0.960 . S
C503 C500 1.511 . S
C503 H517 0.961 . S
C503 H518 0.961 . S
C503 H519 0.961 . S
C504 C505 1.370 . S
C504 C506 1.363 . S
C504 H520 0.931 . S
C505 C504 1.370 . S
C505 C509 1.408 . S
C506 C504 1.363 . S
C506 C507 1.370 . S
C506 C510 1.524 . S
C507 C499 1.503 . S
C507 C506 1.370 . S
C507 C508 1.403 . S
C508 C507 1.403 . S
C508 C509 1.404 . S
C508 C511 1.539 . S
C509 C505 1.408 . S
C509 C508 1.404 . S
C509 H521 0.930 . S
C510 C506 1.524 . S
C510 H522 0.956 . S
C510 H523 0.961 . S
C510 H524 0.961 . S
C511 C508 1.539 . S
C511 H525 0.958 . S
C511 H526 0.961 . S
C511 H527 0.960 . S
H512 C496 0.931 . S
H513 C501 0.929 . S
H514 C502 0.960 . S
H515 C502 0.962 . S
H516 C502 0.960 . S
H517 C503 0.961 . S
H518 C503 0.961 . S
H519 C503 0.961 . S
H520 C504 0.931 . S
H521 C509 0.930 . S
H522 C510 0.956 . S
H523 C510 0.961 . S
H524 C510 0.961 . S
H525 C511 0.958 . S
H526 C511 0.961 . S
H527 C511 0.960 . S
C528 C529 1.391 1_545 S
C528 C530 1.394 . S
C528 H544 0.931 . S
C529 C528 1.391 1_565 S
C529 C533 1.376 . S
C530 C528 1.394 . S
C530 C531 1.369 1_545 S
C530 C534 1.531 . S
C531 C530 1.369 1_565 S
C531 C532 1.410 . S
C531 C539 1.503 . S
C532 C531 1.410 . S
C532 C533 1.392 . S
C532 C535 1.511 . S
C533 C529 1.376 . S
C533 C532 1.392 . S
C533 H545 0.929 . S
C534 C530 1.531 . S
C534 H546 0.960 . S
C534 H547 0.962 . S
C534 H548 0.960 . S
C535 C532 1.511 . S
C535 H549 0.961 . S
C535 H550 0.961 . S
C535 H551 0.961 . S
C536 C537 1.370 . S
C536 C538 1.363 . S
C536 H552 0.931 . S
C537 C536 1.370 . S
C537 C541 1.410 1_565 S
C538 C536 1.363 . S
C538 C539 1.370 . S
C538 C542 1.524 . S
C539 C531 1.503 . S
C539 C538 1.370 . S
C539 C540 1.403 1_565 S
C540 C539 1.403 1_545 S
C540 C541 1.403 . S
C540 C543 1.539 . S
C541 C537 1.410 1_545 S
C541 C540 1.403 . S
C541 H553 0.929 . S
C542 C538 1.524 . S
C542 H554 0.956 . S
C542 H555 0.961 . S
C542 H556 0.961 . S
C543 C540 1.539 . S
C543 H557 0.958 . S
C543 H558 0.961 . S
C543 H559 0.960 . S
H544 C528 0.931 . S
H545 C533 0.929 . S
H546 C534 0.960 . S
H547 C534 0.962 . S
H548 C534 0.960 . S
H549 C535 0.961 . S
H550 C535 0.961 . S
H551 C535 0.961 . S
H552 C536 0.931 . S
H553 C541 0.929 . S
H554 C542 0.956 . S
H555 C542 0.961 . S
H556 C542 0.961 . S
H557 C543 0.958 . S
H558 C543 0.961 . S
H559 C543 0.960 . S
C560 C561 1.391 . S
C560 C562 1.394 . S
C560 H576 0.931 . S
C561 C560 1.391 . S
C561 C565 1.376 . S
C562 C560 1.394 . S
C562 C563 1.369 . S
C562 C566 1.531 . S
C563 C562 1.369 . S
C563 C564 1.410 . S
C563 C571 1.503 . S
C564 C563 1.410 . S
C564 C565 1.392 . S
C564 C567 1.511 . S
C565 C561 1.376 . S
C565 C564 1.392 . S
C565 H577 0.929 . S
C566 C562 1.531 . S
C566 H578 0.960 . S
C566 H579 0.962 . S
C566 H580 0.960 . S
C567 C564 1.511 . S
C567 H581 0.961 . S
C567 H582 0.961 . S
C567 H583 0.961 . S
C568 C569 1.370 . S
C568 C570 1.363 . S
C568 H584 0.931 . S
C569 C568 1.370 . S
C569 C573 1.408 . S
C570 C568 1.363 . S
C570 C571 1.370 . S
C570 C574 1.524 . S
C571 C563 1.503 . S
C571 C570 1.370 . S
C571 C572 1.403 . S
C572 C571 1.403 . S
C572 C573 1.404 . S
C572 C575 1.539 . S
C573 C569 1.408 . S
C573 C572 1.404 . S
C573 H585 0.930 . S
C574 C570 1.524 . S
C574 H586 0.956 . S
C574 H587 0.961 . S
C574 H588 0.961 . S
C575 C572 1.539 . S
C575 H589 0.958 . S
C575 H590 0.961 . S
C575 H591 0.960 . S
H576 C560 0.931 . S
H577 C565 0.929 . S
H578 C566 0.960 . S
H579 C566 0.962 . S
H580 C566 0.960 . S
H581 C567 0.961 . S
H582 C567 0.961 . S
H583 C567 0.961 . S
H584 C568 0.931 . S
H585 C573 0.930 . S
H586 C574 0.956 . S
H587 C574 0.961 . S
H588 C574 0.961 . S
H589 C575 0.958 . S
H590 C575 0.961 . S
H591 C575 0.960 . S
C592 C593 1.391 . S
C592 C594 1.394 . S
C592 H608 0.931 . S
C593 C592 1.391 . S
C593 C597 1.376 . S
C594 C592 1.394 . S
C594 C595 1.369 . S
C594 C598 1.531 . S
C595 C594 1.369 . S
C595 C596 1.410 . S
C595 C603 1.503 . S
C596 C595 1.410 . S
C596 C597 1.392 . S
C596 C599 1.511 . S
C597 C593 1.376 . S
C597 C596 1.392 . S
C597 H609 0.929 . S
C598 C594 1.531 . S
C598 H610 0.960 1_554 S
C598 H611 0.962 . S
C598 H612 0.960 1_554 S
C599 C596 1.511 . S
C599 H613 0.961 . S
C599 H614 0.961 . S
C599 H615 0.961 . S
C600 C601 1.370 . S
C600 C602 1.363 . S
C600 H616 0.931 . S
C601 C600 1.370 . S
C601 C605 1.408 1_554 S
C602 C600 1.363 . S
C602 C603 1.370 . S
C602 C606 1.524 . S
C603 C595 1.503 . S
C603 C602 1.370 . S
C603 C604 1.403 1_554 S
C604 C603 1.403 1_556 S
C604 C605 1.404 . S
C604 C607 1.539 . S
C605 C601 1.408 1_556 S
C605 C604 1.404 . S
C605 H617 0.930 . S
C606 C602 1.524 . S
C606 H618 0.956 . S
C606 H619 0.961 . S
C606 H620 0.961 . S
C607 C604 1.539 . S
C607 H621 0.958 . S
C607 H622 0.961 . S
C607 H623 0.960 . S
H608 C592 0.931 . S
H609 C597 0.929 . S
H610 C598 0.960 1_556 S
H611 C598 0.962 . S
H612 C598 0.960 1_556 S
H613 C599 0.961 . S
H614 C599 0.961 . S
H615 C599 0.961 . S
H616 C600 0.931 . S
H617 C605 0.930 . S
H618 C606 0.956 . S
H619 C606 0.961 . S
H620 C606 0.961 . S
H621 C607 0.958 . S
H622 C607 0.961 . S
H623 C607 0.960 . S
C624 C625 1.391 . S
C624 C626 1.394 . S
C624 H640 0.931 . S
C625 C624 1.391 . S
C625 C629 1.376 . S
C626 C624 1.394 . S
C626 C627 1.369 . S
C626 C630 1.531 . S
C627 C626 1.369 . S
C627 C628 1.410 . S
C627 C635 1.503 . S
C628 C627 1.410 . S
C628 C629 1.392 . S
C628 C631 1.511 . S
C629 C625 1.376 . S
C629 C628 1.392 . S
C629 H641 0.929 . S
C630 C626 1.531 . S
C630 H642 0.960 . S
C630 H643 0.962 . S
C630 H644 0.960 . S
C631 C628 1.511 . S
C631 H645 0.961 . S
C631 H646 0.961 . S
C631 H647 0.961 . S
C632 C633 1.370 . S
C632 C634 1.363 . S
C632 H648 0.931 . S
C633 C632 1.370 . S
C633 C637 1.408 . S
C634 C632 1.363 . S
C634 C635 1.370 . S
C634 C638 1.524 . S
C635 C627 1.503 . S
C635 C634 1.370 . S
C635 C636 1.403 . S
C636 C635 1.403 . S
C636 C637 1.404 . S
C636 C639 1.539 . S
C637 C633 1.408 . S
C637 C636 1.404 . S
C637 H649 0.930 . S
C638 C634 1.524 . S
C638 H650 0.956 . S
C638 H651 0.961 . S
C638 H652 0.961 . S
C639 C636 1.539 . S
C639 H653 0.958 . S
C639 H654 0.961 . S
C639 H655 0.960 . S
H640 C624 0.931 . S
H641 C629 0.929 . S
H642 C630 0.960 . S
H643 C630 0.962 . S
H644 C630 0.960 . S
H645 C631 0.961 . S
H646 C631 0.961 . S
H647 C631 0.961 . S
H648 C632 0.931 . S
H649 C637 0.930 . S
H650 C638 0.956 . S
H651 C638 0.961 . S
H652 C638 0.961 . S
H653 C639 0.958 . S
H654 C639 0.961 . S
H655 C639 0.960 . S
C656 C657 1.391 . S
C656 C658 1.394 . S
C656 H672 0.931 . S
C657 C656 1.391 . S
C657 C661 1.376 . S
C658 C656 1.394 . S
C658 C659 1.369 . S
C658 C662 1.531 . S
C659 C658 1.369 . S
C659 C660 1.410 . S
C659 C667 1.503 . S
C660 C659 1.410 . S
C660 C661 1.392 . S
C660 C663 1.511 . S
C661 C657 1.376 . S
C661 C660 1.392 . S
C661 H673 0.929 . S
C662 C658 1.531 . S
C662 H674 0.960 . S
C662 H675 0.962 . S
C662 H676 0.960 . S
C663 C660 1.511 . S
C663 H677 0.961 . S
C663 H678 0.961 . S
C663 H679 0.961 . S
C664 C665 1.370 . S
C664 C666 1.363 . S
C664 H680 0.931 . S
C665 C664 1.370 . S
C665 C669 1.408 . S
C666 C664 1.363 . S
C666 C667 1.370 . S
C666 C670 1.524 . S
C667 C659 1.503 . S
C667 C666 1.370 . S
C667 C668 1.403 . S
C668 C667 1.403 . S
C668 C669 1.404 . S
C668 C671 1.539 . S
C669 C665 1.408 . S
C669 C668 1.404 . S
C669 H681 0.930 . S
C670 C666 1.524 . S
C670 H682 0.956 . S
C670 H683 0.961 . S
C670 H684 0.961 . S
C671 C668 1.539 . S
C671 H685 0.958 . S
C671 H686 0.961 . S
C671 H687 0.960 . S
H672 C656 0.931 . S
H673 C661 0.929 . S
H674 C662 0.960 . S
H675 C662 0.962 . S
H676 C662 0.960 . S
H677 C663 0.961 . S
H678 C663 0.961 . S
H679 C663 0.961 . S
H680 C664 0.931 . S
H681 C669 0.930 . S
H682 C670 0.956 . S
H683 C670 0.961 . S
H684 C670 0.961 . S
H685 C671 0.958 . S
H686 C671 0.961 . S
H687 C671 0.960 . S
C688 C689 1.391 . S
C688 C690 1.394 . S
C688 H704 0.931 . S
C689 C688 1.391 . S
C689 C693 1.376 . S
C690 C688 1.394 . S
C690 C691 1.369 . S
C690 C694 1.531 . S
C691 C690 1.369 . S
C691 C692 1.410 . S
C691 C699 1.503 . S
C692 C691 1.410 . S
C692 C693 1.392 . S
C692 C695 1.511 . S
C693 C689 1.376 . S
C693 C692 1.392 . S
C693 H705 0.929 . S
C694 C690 1.531 . S
C694 H706 0.960 . S
C694 H707 0.962 . S
C694 H708 0.960 . S
C695 C692 1.511 . S
C695 H709 0.961 . S
C695 H710 0.961 . S
C695 H711 0.961 . S
C696 C697 1.370 . S
C696 C698 1.363 . S
C696 H712 0.931 . S
C697 C696 1.370 . S
C697 C701 1.408 . S
C698 C696 1.363 . S
C698 C699 1.370 . S
C698 C702 1.524 . S
C699 C691 1.503 . S
C699 C698 1.370 . S
C699 C700 1.403 . S
C700 C699 1.403 . S
C700 C701 1.404 . S
C700 C703 1.539 . S
C701 C697 1.408 . S
C701 C700 1.404 . S
C701 H713 0.930 . S
C702 C698 1.524 . S
C702 H714 0.956 . S
C702 H715 0.961 . S
C702 H716 0.961 . S
C703 C700 1.539 . S
C703 H717 0.958 . S
C703 H718 0.961 . S
C703 H719 0.960 . S
H704 C688 0.931 . S
H705 C693 0.929 . S
H706 C694 0.960 . S
H707 C694 0.962 . S
H708 C694 0.960 . S
H709 C695 0.961 . S
H710 C695 0.961 . S
H711 C695 0.961 . S
H712 C696 0.931 . S
H713 C701 0.930 . S
H714 C702 0.956 . S
H715 C702 0.961 . S
H716 C702 0.961 . S
H717 C703 0.958 . S
H718 C703 0.961 . S
H719 C703 0.960 . S
C720 C721 1.391 . S
C720 C722 1.394 . S
C720 H736 0.931 . S
C721 C720 1.391 . S
C721 C725 1.376 . S
C722 C720 1.394 . S
C722 C723 1.369 . S
C722 C726 1.531 . S
C723 C722 1.369 . S
C723 C724 1.410 . S
C723 C731 1.503 . S
C724 C723 1.410 . S
C724 C725 1.392 . S
C724 C727 1.511 . S
C725 C721 1.376 . S
C725 C724 1.392 . S
C725 H737 0.929 . S
C726 C722 1.531 . S
C726 H738 0.960 . S
C726 H739 0.962 . S
C726 H740 0.960 . S
C727 C724 1.511 . S
C727 H741 0.961 . S
C727 H742 0.961 . S
C727 H743 0.961 . S
C728 C729 1.370 . S
C728 C730 1.363 . S
C728 H744 0.931 . S
C729 C728 1.370 . S
C729 C733 1.408 . S
C730 C728 1.363 . S
C730 C731 1.370 . S
C730 C734 1.524 . S
C731 C723 1.503 . S
C731 C730 1.370 . S
C731 C732 1.403 . S
C732 C731 1.403 . S
C732 C733 1.404 . S
C732 C735 1.539 . S
C733 C729 1.408 . S
C733 C732 1.404 . S
C733 H745 0.930 . S
C734 C730 1.524 . S
C734 H746 0.956 . S
C734 H747 0.961 . S
C734 H748 0.961 . S
C735 C732 1.539 . S
C735 H749 0.958 . S
C735 H750 0.961 . S
C735 H751 0.960 . S
H736 C720 0.931 . S
H737 C725 0.929 . S
H738 C726 0.960 . S
H739 C726 0.962 . S
H740 C726 0.960 . S
H741 C727 0.961 . S
H742 C727 0.961 . S
H743 C727 0.961 . S
H744 C728 0.931 . S
H745 C733 0.930 . S
H746 C734 0.956 . S
H747 C734 0.961 . S
H748 C734 0.961 . S
H749 C735 0.958 . S
H750 C735 0.961 . S
H751 C735 0.960 . S
C752 C753 1.391 . S
C752 C754 1.394 . S
C752 H768 0.931 . S
C753 C752 1.391 . S
C753 C757 1.376 . S
C754 C752 1.394 . S
C754 C755 1.369 . S
C754 C758 1.531 . S
C755 C754 1.369 . S
C755 C756 1.410 . S
C755 C763 1.503 . S
C756 C755 1.410 . S
C756 C757 1.392 . S
C756 C759 1.511 . S
C757 C753 1.376 . S
C757 C756 1.392 . S
C757 H769 0.929 . S
C758 C754 1.531 . S
C758 H770 0.960 . S
C758 H771 0.962 . S
C758 H772 0.960 . S
C759 C756 1.511 . S
C759 H773 0.961 . S
C759 H774 0.961 . S
C759 H775 0.961 . S
C760 C761 1.370 . S
C760 C762 1.363 . S
C760 H776 0.931 . S
C761 C760 1.370 . S
C761 C765 1.408 . S
C762 C760 1.363 . S
C762 C763 1.370 . S
C762 C766 1.524 . S
C763 C755 1.503 . S
C763 C762 1.370 . S
C763 C764 1.403 . S
C764 C763 1.403 . S
C764 C765 1.404 . S
C764 C767 1.539 . S
C765 C761 1.408 . S
C765 C764 1.404 . S
C765 H777 0.930 . S
C766 C762 1.524 . S
C766 H778 0.956 . S
C766 H779 0.961 . S
C766 H780 0.961 . S
C767 C764 1.539 . S
C767 H781 0.958 . S
C767 H782 0.961 . S
C767 H783 0.960 . S
H768 C752 0.931 . S
H769 C757 0.929 . S
H770 C758 0.960 . S
H771 C758 0.962 . S
H772 C758 0.960 . S
H773 C759 0.961 . S
H774 C759 0.961 . S
H775 C759 0.961 . S
H776 C760 0.931 . S
H777 C765 0.930 . S
H778 C766 0.956 . S
H779 C766 0.961 . S
H780 C766 0.961 . S
H781 C767 0.958 . S
H782 C767 0.961 . S
H783 C767 0.960 . S
C784 C785 1.391 . S
C784 C786 1.394 . S
C784 H800 0.931 . S
C785 C784 1.391 . S
C785 C789 1.376 . S
C786 C784 1.394 . S
C786 C787 1.369 . S
C786 C790 1.531 . S
C787 C786 1.369 . S
C787 C788 1.410 . S
C787 C795 1.503 . S
C788 C787 1.410 . S
C788 C789 1.392 . S
C788 C791 1.511 . S
C789 C785 1.376 . S
C789 C788 1.392 . S
C789 H801 0.929 . S
C790 C786 1.531 . S
C790 H802 0.960 . S
C790 H803 0.962 . S
C790 H804 0.960 . S
C791 C788 1.511 . S
C791 H805 0.961 . S
C791 H806 0.961 . S
C791 H807 0.961 . S
C792 C793 1.370 . S
C792 C794 1.363 . S
C792 H808 0.931 . S
C793 C792 1.370 . S
C793 C797 1.408 . S
C794 C792 1.363 . S
C794 C795 1.370 . S
C794 C798 1.524 . S
C795 C787 1.503 . S
C795 C794 1.370 . S
C795 C796 1.403 . S
C796 C795 1.403 . S
C796 C797 1.404 . S
C796 C799 1.539 . S
C797 C793 1.408 . S
C797 C796 1.404 . S
C797 H809 0.930 . S
C798 C794 1.524 . S
C798 H810 0.956 . S
C798 H811 0.961 . S
C798 H812 0.961 . S
C799 C796 1.539 . S
C799 H813 0.958 . S
C799 H814 0.961 . S
C799 H815 0.960 . S
H800 C784 0.931 . S
H801 C789 0.929 . S
H802 C790 0.960 . S
H803 C790 0.962 . S
H804 C790 0.960 . S
H805 C791 0.961 . S
H806 C791 0.961 . S
H807 C791 0.961 . S
H808 C792 0.931 . S
H809 C797 0.930 . S
H810 C798 0.956 . S
H811 C798 0.961 . S
H812 C798 0.961 . S
H813 C799 0.958 . S
H814 C799 0.961 . S
H815 C799 0.960 . S
C816 C817 1.391 . S
C816 C818 1.394 . S
C816 H832 0.931 . S
C817 C816 1.391 . S
C817 C821 1.376 . S
C818 C816 1.394 . S
C818 C819 1.369 . S
C818 C822 1.531 . S
C819 C818 1.369 . S
C819 C820 1.410 . S
C819 C827 1.503 . S
C820 C819 1.410 . S
C820 C821 1.392 . S
C820 C823 1.511 . S
C821 C817 1.376 . S
C821 C820 1.392 . S
C821 H833 0.929 . S
C822 C818 1.531 . S
C822 H834 0.960 . S
C822 H835 0.962 . S
C822 H836 0.960 . S
C823 C820 1.511 . S
C823 H837 0.961 . S
C823 H838 0.961 . S
C823 H839 0.961 . S
C824 C825 1.370 . S
C824 C826 1.363 . S
C824 H840 0.931 . S
C825 C824 1.370 . S
C825 C829 1.408 . S
C826 C824 1.363 . S
C826 C827 1.370 . S
C826 C830 1.524 . S
C827 C819 1.503 . S
C827 C826 1.370 . S
C827 C828 1.403 . S
C828 C827 1.403 . S
C828 C829 1.404 . S
C828 C831 1.539 . S
C829 C825 1.408 . S
C829 C828 1.404 . S
C829 H841 0.930 . S
C830 C826 1.524 . S
C830 H842 0.956 . S
C830 H843 0.961 . S
C830 H844 0.961 . S
C831 C828 1.539 . S
C831 H845 0.958 . S
C831 H846 0.961 . S
C831 H847 0.960 . S
H832 C816 0.931 . S
H833 C821 0.929 . S
H834 C822 0.960 . S
H835 C822 0.962 . S
H836 C822 0.960 . S
H837 C823 0.961 . S
H838 C823 0.961 . S
H839 C823 0.961 . S
H840 C824 0.931 . S
H841 C829 0.930 . S
H842 C830 0.956 . S
H843 C830 0.961 . S
H844 C830 0.961 . S
H845 C831 0.958 . S
H846 C831 0.961 . S
H847 C831 0.960 . S
C848 C849 1.391 . S
C848 C850 1.394 . S
C848 H864 0.931 . S
C849 C848 1.391 . S
C849 C853 1.376 . S
C850 C848 1.394 . S
C850 C851 1.369 . S
C850 C854 1.531 . S
C851 C850 1.369 . S
C851 C852 1.410 . S
C851 C859 1.503 . S
C852 C851 1.410 . S
C852 C853 1.392 . S
C852 C855 1.511 . S
C853 C849 1.376 . S
C853 C852 1.392 . S
C853 H865 0.929 . S
C854 C850 1.531 . S
C854 H866 0.960 . S
C854 H867 0.962 . S
C854 H868 0.960 . S
C855 C852 1.511 . S
C855 H869 0.961 . S
C855 H870 0.961 . S
C855 H871 0.961 . S
C856 C857 1.370 . S
C856 C858 1.363 . S
C856 H872 0.931 . S
C857 C856 1.370 . S
C857 C861 1.408 . S
C858 C856 1.363 . S
C858 C859 1.370 . S
C858 C862 1.524 . S
C859 C851 1.503 . S
C859 C858 1.370 . S
C859 C860 1.403 . S
C860 C859 1.403 . S
C860 C861 1.404 . S
C860 C863 1.539 . S
C861 C857 1.408 . S
C861 C860 1.404 . S
C861 H873 0.930 . S
C862 C858 1.524 . S
C862 H874 0.956 . S
C862 H875 0.961 . S
C862 H876 0.961 . S
C863 C860 1.539 . S
C863 H877 0.958 . S
C863 H878 0.961 . S
C863 H879 0.960 . S
H864 C848 0.931 . S
H865 C853 0.929 . S
H866 C854 0.960 . S
H867 C854 0.962 . S
H868 C854 0.960 . S
H869 C855 0.961 . S
H870 C855 0.961 . S
H871 C855 0.961 . S
H872 C856 0.931 . S
H873 C861 0.930 . S
H874 C862 0.956 . S
H875 C862 0.961 . S
H876 C862 0.961 . S
H877 C863 0.958 . S
H878 C863 0.961 . S
H879 C863 0.960 . S
C880 C881 1.391 . S
C880 C882 1.394 . S
C880 H896 0.931 . S
C881 C880 1.391 . S
C881 C885 1.376 . S
C882 C880 1.394 . S
C882 C883 1.369 . S
C882 C886 1.531 . S
C883 C882 1.369 . S
C883 C884 1.410 . S
C883 C891 1.503 . S
C884 C883 1.410 . S
C884 C885 1.392 . S
C884 C887 1.511 . S
C885 C881 1.376 . S
C885 C884 1.392 . S
C885 H897 0.929 1_565 S
C886 C882 1.531 . S
C886 H898 0.960 . S
C886 H899 0.962 . S
C886 H900 0.960 . S
C887 C884 1.511 . S
C887 H901 0.961 1_565 S
C887 H902 0.961 1_565 S
C887 H903 0.961 . S
C888 C889 1.398 . S
C888 C890 1.363 . S
C888 H904 0.904 1_565 S
C889 C888 1.398 . S
C889 C893 1.408 . S
C890 C888 1.363 . S
C890 C891 1.368 . S
C890 C894 1.527 1_565 S
C891 C883 1.503 . S
C891 C890 1.368 . S
C891 C892 1.403 . S
C892 C891 1.403 . S
C892 C893 1.404 . S
C892 C895 1.539 . S
C893 C889 1.408 . S
C893 C892 1.404 . S
C893 H905 0.930 . S
C894 C890 1.527 1_545 S
C894 H906 0.956 . S
C894 H907 0.961 . S
C894 H908 0.961 . S
C895 C892 1.539 . S
C895 H909 0.958 . S
C895 H910 0.961 . S
C895 H911 0.960 . S
H896 C880 0.931 . S
H897 C885 0.929 1_545 S
H898 C886 0.960 . S
H899 C886 0.962 . S
H900 C886 0.960 . S
H901 C887 0.961 1_545 S
H902 C887 0.961 1_545 S
H903 C887 0.961 . S
H904 C888 0.904 1_545 S
H905 C893 0.930 . S
H906 C894 0.956 . S
H907 C894 0.961 . S
H908 C894 0.961 . S
H909 C895 0.958 . S
H910 C895 0.961 . S
H911 C895 0.960 . S
C912 C913 1.391 . S
C912 C914 1.394 . S
C912 H928 0.931 . S
C913 C912 1.391 . S
C913 C917 1.376 . S
C914 C912 1.394 . S
C914 C915 1.369 . S
C914 C918 1.531 . S
C915 C914 1.369 . S
C915 C916 1.410 . S
C915 C923 1.503 . S
C916 C915 1.410 . S
C916 C917 1.392 . S
C916 C919 1.511 . S
C917 C913 1.376 . S
C917 C916 1.392 . S
C917 H929 0.929 . S
C918 C914 1.531 . S
C918 H930 0.960 . S
C918 H931 0.962 . S
C918 H932 0.960 . S
C919 C916 1.511 . S
C919 H933 0.961 . S
C919 H934 0.961 . S
C919 H935 0.961 . S
C920 C921 1.370 . S
C920 C922 1.363 . S
C920 H936 0.931 . S
C921 C920 1.370 . S
C921 C925 1.408 . S
C922 C920 1.363 . S
C922 C923 1.370 . S
C922 C926 1.524 . S
C923 C915 1.503 . S
C923 C922 1.370 . S
C923 C924 1.403 . S
C924 C923 1.403 . S
C924 C925 1.404 . S
C924 C927 1.539 . S
C925 C921 1.408 . S
C925 C924 1.404 . S
C925 H937 0.930 . S
C926 C922 1.524 . S
C926 H938 0.956 . S
C926 H939 0.961 . S
C926 H940 0.961 . S
C927 C924 1.539 . S
C927 H941 0.958 . S
C927 H942 0.961 . S
C927 H943 0.960 . S
H928 C912 0.931 . S
H929 C917 0.929 . S
H930 C918 0.960 . S
H931 C918 0.962 . S
H932 C918 0.960 . S
H933 C919 0.961 . S
H934 C919 0.961 . S
H935 C919 0.961 . S
H936 C920 0.931 . S
H937 C925 0.930 . S
H938 C926 0.956 . S
H939 C926 0.961 . S
H940 C926 0.961 . S
H941 C927 0.958 . S
H942 C927 0.961 . S
H943 C927 0.960 . S
C944 C945 1.391 . S
C944 C946 1.394 . S
C944 H960 0.931 . S
C945 C944 1.391 . S
C945 C949 1.381 . S
C946 C944 1.394 . S
C946 C947 1.369 . S
C946 C950 1.531 . S
C947 C946 1.369 . S
C947 C948 1.410 . S
C947 C955 1.503 . S
C948 C947 1.410 . S
C948 C949 1.394 . S
C948 C951 1.511 1_545 S
C949 C945 1.381 . S
C949 C948 1.394 . S
C949 H961 0.922 1_545 S
C950 C946 1.531 . S
C950 H962 0.960 . S
C950 H963 0.962 . S
C950 H964 0.960 . S
C951 C948 1.511 1_565 S
C951 H965 0.961 . S
C951 H966 0.961 . S
C951 H967 0.950 1_565 S
C952 C953 1.370 . S
C952 C954 1.363 . S
C952 H968 0.931 1_545 S
C953 C952 1.370 . S
C953 C957 1.408 . S
C954 C952 1.363 . S
C954 C955 1.370 . S
C954 C958 1.524 1_545 S
C955 C947 1.503 . S
C955 C954 1.370 . S
C955 C956 1.403 . S
C956 C955 1.403 . S
C956 C957 1.404 . S
C956 C959 1.539 . S
C957 C953 1.408 . S
C957 C956 1.404 . S
C957 H969 0.930 . S
C958 C954 1.524 1_565 S
C958 H970 0.956 . S
C958 H971 0.961 . S
C958 H972 0.961 . S
C959 C956 1.539 . S
C959 H973 0.958 . S
C959 H974 0.961 . S
C959 H975 0.960 . S
H960 C944 0.931 . S
H961 C949 0.922 1_565 S
H962 C950 0.960 . S
H963 C950 0.962 . S
H964 C950 0.960 . S
H965 C951 0.961 . S
H966 C951 0.961 . S
H967 C951 0.950 1_545 S
H968 C952 0.931 1_565 S
H969 C957 0.930 . S
H970 C958 0.956 . S
H971 C958 0.961 . S
H972 C958 0.961 . S
H973 C959 0.958 . S
H974 C959 0.961 . S
H975 C959 0.960 . S
C976 C977 1.391 . S
C976 C978 1.394 . S
C976 H992 0.931 . S
C977 C976 1.391 . S
C977 C981 1.376 . S
C978 C976 1.394 . S
C978 C979 1.369 . S
C978 C982 1.531 . S
C979 C978 1.369 . S
C979 C980 1.410 . S
C979 C987 1.503 . S
C980 C979 1.410 . S
C980 C981 1.392 . S
C980 C983 1.511 . S
C981 C977 1.376 . S
C981 C980 1.392 . S
C981 H993 0.929 . S
C982 C978 1.531 . S
C982 H994 0.960 . S
C982 H995 0.962 . S
C982 H996 0.960 . S
C983 C980 1.511 . S
C983 H997 0.961 . S
C983 H998 0.961 . S
C983 H999 0.961 . S
C984 C985 1.370 . S
C984 C986 1.363 . S
C984 H1000 0.931 . S
C985 C984 1.370 . S
C985 C989 1.408 . S
C986 C984 1.363 . S
C986 C987 1.370 . S
C986 C990 1.524 . S
C987 C979 1.503 . S
C987 C986 1.370 . S
C987 C988 1.403 . S
C988 C987 1.403 . S
C988 C989 1.404 . S
C988 C991 1.539 . S
C989 C985 1.408 . S
C989 C988 1.404 . S
C989 H1001 0.930 . S
C990 C986 1.524 . S
C990 H1002 0.956 . S
C990 H1003 0.961 . S
C990 H1004 0.961 . S
C991 C988 1.539 . S
C991 H1005 0.958 . S
C991 H1006 0.961 . S
C991 H1007 0.960 . S
H992 C976 0.931 . S
H993 C981 0.929 . S
H994 C982 0.960 . S
H995 C982 0.962 . S
H996 C982 0.960 . S
H997 C983 0.961 . S
H998 C983 0.961 . S
H999 C983 0.961 . S
H1000 C984 0.931 . S
H1001 C989 0.930 . S
H1002 C990 0.956 . S
H1003 C990 0.961 . S
H1004 C990 0.961 . S
H1005 C991 0.958 . S
H1006 C991 0.961 . S
H1007 C991 0.960 . S
C1008 C1009 1.391 . S
C1008 C1010 1.394 . S
C1008 H1024 0.931 . S
C1009 C1008 1.391 . S
C1009 C1013 1.365 1_556 S
C1010 C1008 1.394 . S
C1010 C1011 1.369 . S
C1010 C1014 1.531 . S
C1011 C1010 1.369 . S
C1011 C1012 1.399 1_556 S
C1011 C1019 1.503 . S
C1012 C1011 1.399 1_554 S
C1012 C1013 1.392 . S
C1012 C1015 1.522 . S
C1013 C1009 1.365 1_554 S
C1013 C1012 1.392 . S
C1013 H1025 0.940 . S
C1014 C1010 1.531 . S
C1014 H1026 0.960 . S
C1014 H1027 0.962 . S
C1014 H1028 0.960 . S
C1015 C1012 1.522 . S
C1015 H1029 0.961 . S
C1015 H1030 0.961 . S
C1015 H1031 0.961 . S
C1016 C1017 1.370 . S
C1016 C1018 1.363 . S
C1016 H1032 0.931 . S
C1017 C1016 1.370 . S
C1017 C1021 1.408 1_556 S
C1018 C1016 1.363 . S
C1018 C1019 1.370 . S
C1018 C1022 1.524 . S
C1019 C1011 1.503 . S
C1019 C1018 1.370 . S
C1019 C1020 1.403 1_556 S
C1020 C1019 1.403 1_554 S
C1020 C1021 1.404 . S
C1020 C1023 1.539 . S
C1021 C1017 1.408 1_554 S
C1021 C1020 1.404 . S
C1021 H1033 0.930 . S
C1022 C1018 1.524 . S
C1022 H1034 0.956 . S
C1022 H1035 0.961 . S
C1022 H1036 0.961 . S
C1023 C1020 1.539 . S
C1023 H1037 0.958 . S
C1023 H1038 0.961 . S
C1023 H1039 0.960 . S
H1024 C1008 0.931 . S
H1025 C1013 0.940 . S
H1026 C1014 0.960 . S
H1027 C1014 0.962 . S
H1028 C1014 0.960 . S
H1029 C1015 0.961 . S
H1030 C1015 0.961 . S
H1031 C1015 0.961 . S
H1032 C1016 0.931 . S
H1033 C1021 0.930 . S
H1034 C1022 0.956 . S
H1035 C1022 0.961 . S
H1036 C1022 0.961 . S
H1037 C1023 0.958 . S
H1038 C1023 0.961 . S
H1039 C1023 0.960 . S
C1040 C1041 1.391 . S
C1040 C1042 1.394 . S
C1040 H1056 0.931 . S
C1041 C1040 1.391 . S
C1041 C1045 1.376 . S
C1042 C1040 1.394 . S
C1042 C1043 1.369 . S
C1042 C1046 1.531 . S
C1043 C1042 1.369 . S
C1043 C1044 1.410 . S
C1043 C1051 1.503 . S
C1044 C1043 1.410 . S
C1044 C1045 1.392 . S
C1044 C1047 1.511 1_556 S
C1045 C1041 1.376 . S
C1045 C1044 1.392 . S
C1045 H1057 0.929 1_556 S
C1046 C1042 1.531 . S
C1046 H1058 0.960 . S
C1046 H1059 0.962 . S
C1046 H1060 0.960 . S
C1047 C1044 1.511 1_554 S
C1047 H1061 0.961 . S
C1047 H1062 0.961 . S
C1047 H1063 0.961 1_554 S
C1048 C1049 1.373 . S
C1048 C1050 1.363 1_556 S
C1048 H1064 0.928 1_556 S
C1049 C1048 1.373 . S
C1049 C1053 1.408 . S
C1050 C1048 1.363 1_554 S
C1050 C1051 1.370 1_554 S
C1050 C1054 1.524 . S
C1051 C1043 1.503 . S
C1051 C1050 1.370 1_556 S
C1051 C1052 1.403 . S
C1052 C1051 1.403 . S
C1052 C1053 1.404 . S
C1052 C1055 1.539 . S
C1053 C1049 1.408 . S
C1053 C1052 1.404 . S
C1053 H1065 0.930 . S
C1054 C1050 1.524 . S
C1054 H1066 0.956 . S
C1054 H1067 0.961 . S
C1054 H1068 0.961 . S
C1055 C1052 1.539 . S
C1055 H1069 0.958 . S
C1055 H1070 0.961 . S
C1055 H1071 0.960 . S
H1056 C1040 0.931 . S
H1057 C1045 0.929 1_554 S
H1058 C1046 0.960 . S
H1059 C1046 0.962 . S
H1060 C1046 0.960 . S
H1061 C1047 0.961 . S
H1062 C1047 0.961 . S
H1063 C1047 0.961 1_556 S
H1064 C1048 0.928 1_554 S
H1065 C1053 0.930 . S
H1066 C1054 0.956 . S
H1067 C1054 0.961 . S
H1068 C1054 0.961 . S
H1069 C1055 0.958 . S
H1070 C1055 0.961 . S
H1071 C1055 0.960 . S
C1072 C1073 1.391 . S
C1072 C1074 1.394 . S
C1072 H1088 0.931 . S
C1073 C1072 1.391 . S
C1073 C1077 1.376 . S
C1074 C1072 1.394 . S
C1074 C1075 1.369 . S
C1074 C1078 1.531 . S
C1075 C1074 1.369 . S
C1075 C1076 1.410 . S
C1075 C1083 1.503 . S
C1076 C1075 1.410 . S
C1076 C1077 1.392 . S
C1076 C1079 1.511 . S
C1077 C1073 1.376 . S
C1077 C1076 1.392 . S
C1077 H1089 0.929 . S
C1078 C1074 1.531 . S
C1078 H1090 0.960 1_554 S
C1078 H1091 0.962 . S
C1078 H1092 0.960 1_554 S
C1079 C1076 1.511 . S
C1079 H1093 0.961 . S
C1079 H1094 0.961 . S
C1079 H1095 0.961 . S
C1080 C1081 1.370 . S
C1080 C1082 1.363 . S
C1080 H1096 0.931 . S
C1081 C1080 1.370 . S
C1081 C1085 1.408 1_554 S
C1082 C1080 1.363 . S
C1082 C1083 1.370 . S
C1082 C1086 1.524 . S
C1083 C1075 1.503 . S
C1083 C1082 1.370 . S
C1083 C1084 1.403 1_554 S
C1084 C1083 1.403 1_556 S
C1084 C1085 1.404 . S
C1084 C1087 1.539 . S
C1085 C1081 1.408 1_556 S
C1085 C1084 1.404 . S
C1085 H1097 0.930 . S
C1086 C1082 1.524 . S
C1086 H1098 0.956 . S
C1086 H1099 0.961 . S
C1086 H1100 0.961 . S
C1087 C1084 1.539 . S
C1087 H1101 0.958 . S
C1087 H1102 0.961 . S
C1087 H1103 0.960 . S
H1088 C1072 0.931 . S
H1089 C1077 0.929 . S
H1090 C1078 0.960 1_556 S
H1091 C1078 0.962 . S
H1092 C1078 0.960 1_556 S
H1093 C1079 0.961 . S
H1094 C1079 0.961 . S
H1095 C1079 0.961 . S
H1096 C1080 0.931 . S
H1097 C1085 0.930 . S
H1098 C1086 0.956 . S
H1099 C1086 0.961 . S
H1100 C1086 0.961 . S
H1101 C1087 0.958 . S
H1102 C1087 0.961 . S
H1103 C1087 0.960 . S
C1104 C1105 1.391 . S
C1104 C1106 1.394 . S
C1104 H1120 0.931 . S
C1105 C1104 1.391 . S
C1105 C1109 1.376 1_455 S
C1106 C1104 1.394 . S
C1106 C1107 1.369 . S
C1106 C1110 1.531 . S
C1107 C1106 1.369 . S
C1107 C1108 1.410 1_455 S
C1107 C1115 1.503 . S
C1108 C1107 1.410 1_655 S
C1108 C1109 1.392 . S
C1108 C1111 1.511 . S
C1109 C1105 1.376 1_655 S
C1109 C1108 1.392 . S
C1109 H1121 0.929 . S
C1110 C1106 1.531 . S
C1110 H1122 0.960 . S
C1110 H1123 0.962 . S
C1110 H1124 0.960 . S
C1111 C1108 1.511 . S
C1111 H1125 0.961 . S
C1111 H1126 0.961 . S
C1111 H1127 0.961 . S
C1112 C1113 1.370 . S
C1112 C1114 1.363 . S
C1112 H1128 0.931 . S
C1113 C1112 1.370 . S
C1113 C1117 1.431 . S
C1114 C1112 1.363 . S
C1114 C1115 1.370 . S
C1114 C1118 1.524 . S
C1115 C1107 1.503 . S
C1115 C1114 1.370 . S
C1115 C1116 1.403 1_455 S
C1116 C1115 1.403 1_655 S
C1116 C1117 1.401 1_655 S
C1116 C1119 1.539 . S
C1117 C1113 1.431 . S
C1117 C1116 1.401 1_455 S
C1117 H1129 0.911 1_455 S
C1118 C1114 1.524 . S
C1118 H1130 0.956 . S
C1118 H1131 0.961 . S
C1118 H1132 0.961 . S
C1119 C1116 1.539 . S
C1119 H1133 0.958 . S
C1119 H1134 0.961 . S
C1119 H1135 0.960 . S
H1120 C1104 0.931 . S
H1121 C1109 0.929 . S
H1122 C1110 0.960 . S
H1123 C1110 0.962 . S
H1124 C1110 0.960 . S
H1125 C1111 0.961 . S
H1126 C1111 0.961 . S
H1127 C1111 0.961 . S
H1128 C1112 0.931 . S
H1129 C1117 0.911 1_655 S
H1130 C1118 0.956 . S
H1131 C1118 0.961 . S
H1132 C1118 0.961 . S
H1133 C1119 0.958 . S
H1134 C1119 0.961 . S
H1135 C1119 0.960 . S
C1136 C1137 1.391 1_455 S
C1136 C1138 1.394 . S
C1136 H1152 0.931 . S
C1137 C1136 1.391 1_655 S
C1137 C1141 1.376 . S
C1138 C1136 1.394 . S
C1138 C1139 1.369 1_455 S
C1138 C1142 1.531 . S
C1139 C1138 1.369 1_655 S
C1139 C1140 1.410 . S
C1139 C1147 1.503 . S
C1140 C1139 1.410 . S
C1140 C1141 1.392 . S
C1140 C1143 1.511 . S
C1141 C1137 1.376 . S
C1141 C1140 1.392 . S
C1141 H1153 0.929 . S
C1142 C1138 1.531 . S
C1142 H1154 0.960 . S
C1142 H1155 0.962 . S
C1142 H1156 0.960 . S
C1143 C1140 1.511 . S
C1143 H1157 0.961 . S
C1143 H1158 0.961 . S
C1143 H1159 0.961 . S
C1144 C1145 1.370 . S
C1144 C1146 1.363 . S
C1144 H1160 0.931 . S
C1145 C1144 1.370 . S
C1145 C1149 1.408 . S
C1146 C1144 1.363 . S
C1146 C1147 1.370 . S
C1146 C1150 1.524 . S
C1147 C1139 1.503 . S
C1147 C1146 1.370 . S
C1147 C1148 1.403 . S
C1148 C1147 1.403 . S
C1148 C1149 1.404 . S
C1148 C1151 1.539 . S
C1149 C1145 1.408 . S
C1149 C1148 1.404 . S
C1149 H1161 0.930 . S
C1150 C1146 1.524 . S
C1150 H1162 0.956 1_655 S
C1150 H1163 0.961 . S
C1150 H1164 0.961 . S
C1151 C1148 1.539 . S
C1151 H1165 0.958 . S
C1151 H1166 0.961 . S
C1151 H1167 0.960 . S
H1152 C1136 0.931 . S
H1153 C1141 0.929 . S
H1154 C1142 0.960 . S
H1155 C1142 0.962 . S
H1156 C1142 0.960 . S
H1157 C1143 0.961 . S
H1158 C1143 0.961 . S
H1159 C1143 0.961 . S
H1160 C1144 0.931 . S
H1161 C1149 0.930 . S
H1162 C1150 0.956 1_455 S
H1163 C1150 0.961 . S
H1164 C1150 0.961 . S
H1165 C1151 0.958 . S
H1166 C1151 0.961 . S
H1167 C1151 0.960 . S
C1168 C1169 1.400 . S
C1168 C1170 1.394 . S
C1168 H1184 0.923 1_455 S
C1169 C1168 1.400 . S
C1169 C1173 1.376 . S
C1170 C1168 1.394 . S
C1170 C1171 1.377 . S
C1170 C1174 1.522 1_455 S
C1171 C1170 1.377 . S
C1171 C1172 1.410 . S
C1171 C1179 1.503 . S
C1172 C1171 1.410 . S
C1172 C1173 1.392 . S
C1172 C1175 1.511 . S
C1173 C1169 1.376 . S
C1173 C1172 1.392 . S
C1173 H1185 0.929 . S
C1174 C1170 1.522 1_655 S
C1174 H1186 0.960 . S
C1174 H1187 0.962 1_655 S
C1174 H1188 0.960 . S
C1175 C1172 1.511 . S
C1175 H1189 0.961 . S
C1175 H1190 0.961 . S
C1175 H1191 0.961 . S
C1176 C1177 1.370 . S
C1176 C1178 1.363 . S
C1176 H1192 0.931 . S
C1177 C1176 1.370 . S
C1177 C1181 1.408 1_455 S
C1178 C1176 1.363 . S
C1178 C1179 1.370 . S
C1178 C1182 1.524 . S
C1179 C1171 1.503 . S
C1179 C1178 1.370 . S
C1179 C1180 1.403 1_455 S
C1180 C1179 1.403 1_655 S
C1180 C1181 1.404 . S
C1180 C1183 1.539 . S
C1181 C1177 1.408 1_655 S
C1181 C1180 1.404 . S
C1181 H1193 0.930 . S
C1182 C1178 1.524 . S
C1182 H1194 0.956 . S
C1182 H1195 0.961 . S
C1182 H1196 0.961 . S
C1183 C1180 1.539 . S
C1183 H1197 0.958 . S
C1183 H1198 0.961 . S
C1183 H1199 0.960 . S
H1184 C1168 0.923 1_655 S
H1185 C1173 0.929 . S
H1186 C1174 0.960 . S
H1187 C1174 0.962 1_455 S
H1188 C1174 0.960 . S
H1189 C1175 0.961 . S
H1190 C1175 0.961 . S
H1191 C1175 0.961 . S
H1192 C1176 0.931 . S
H1193 C1181 0.930 . S
H1194 C1182 0.956 . S
H1195 C1182 0.961 . S
H1196 C1182 0.961 . S
H1197 C1183 0.958 . S
H1198 C1183 0.961 . S
H1199 C1183 0.960 . S
C1200 C1201 1.391 . S
C1200 C1202 1.394 . S
C1200 H1216 0.931 . S
C1201 C1200 1.391 . S
C1201 C1205 1.376 1_655 S
C1202 C1200 1.394 . S
C1202 C1203 1.369 . S
C1202 C1206 1.531 . S
C1203 C1202 1.369 . S
C1203 C1204 1.410 1_655 S
C1203 C1211 1.503 . S
C1204 C1203 1.410 1_455 S
C1204 C1205 1.392 . S
C1204 C1207 1.511 . S
C1205 C1201 1.376 1_455 S
C1205 C1204 1.392 . S
C1205 H1217 0.929 . S
C1206 C1202 1.531 . S
C1206 H1218 0.960 . S
C1206 H1219 0.962 . S
C1206 H1220 0.960 . S
C1207 C1204 1.511 . S
C1207 H1221 0.961 . S
C1207 H1222 0.961 . S
C1207 H1223 0.961 . S
C1208 C1209 1.370 . S
C1208 C1210 1.363 . S
C1208 H1224 0.931 . S
C1209 C1208 1.370 . S
C1209 C1213 1.408 1_655 S
C1210 C1208 1.363 . S
C1210 C1211 1.370 . S
C1210 C1214 1.524 . S
C1211 C1203 1.503 . S
C1211 C1210 1.370 . S
C1211 C1212 1.403 1_655 S
C1212 C1211 1.403 1_455 S
C1212 C1213 1.404 . S
C1212 C1215 1.539 . S
C1213 C1209 1.408 1_455 S
C1213 C1212 1.404 . S
C1213 H1225 0.930 . S
C1214 C1210 1.524 . S
C1214 H1226 0.956 . S
C1214 H1227 0.961 . S
C1214 H1228 0.961 . S
C1215 C1212 1.539 . S
C1215 H1229 0.958 . S
C1215 H1230 0.961 . S
C1215 H1231 0.960 . S
H1216 C1200 0.931 . S
H1217 C1205 0.929 . S
H1218 C1206 0.960 . S
H1219 C1206 0.962 . S
H1220 C1206 0.960 . S
H1221 C1207 0.961 . S
H1222 C1207 0.961 . S
H1223 C1207 0.961 . S
H1224 C1208 0.931 . S
H1225 C1213 0.930 . S
H1226 C1214 0.956 . S
H1227 C1214 0.961 . S
H1228 C1214 0.961 . S
H1229 C1215 0.958 . S
H1230 C1215 0.961 . S
H1231 C1215 0.960 . S
C1232 C1233 1.391 . S
C1232 C1234 1.394 . S
C1232 H1248 0.931 . S
C1233 C1232 1.391 . S
C1233 C1237 1.376 . S
C1234 C1232 1.394 . S
C1234 C1235 1.369 . S
C1234 C1238 1.531 . S
C1235 C1234 1.369 . S
C1235 C1236 1.410 . S
C1235 C1243 1.503 . S
C1236 C1235 1.410 . S
C1236 C1237 1.392 . S
C1236 C1239 1.511 . S
C1237 C1233 1.376 . S
C1237 C1236 1.392 . S
C1237 H1249 0.929 . S
C1238 C1234 1.531 . S
C1238 H1250 0.960 . S
C1238 H1251 0.962 . S
C1238 H1252 0.960 . S
C1239 C1236 1.511 . S
C1239 H1253 0.961 . S
C1239 H1254 0.961 . S
C1239 H1255 0.961 1_545 S
C1240 C1241 1.370 . S
C1240 C1242 1.363 . S
C1240 H1256 0.931 . S
C1241 C1240 1.370 . S
C1241 C1245 1.408 1_545 S
C1242 C1240 1.363 . S
C1242 C1243 1.370 . S
C1242 C1246 1.524 . S
C1243 C1235 1.503 . S
C1243 C1242 1.370 . S
C1243 C1244 1.403 1_545 S
C1244 C1243 1.403 1_565 S
C1244 C1245 1.404 . S
C1244 C1247 1.539 . S
C1245 C1241 1.408 1_565 S
C1245 C1244 1.404 . S
C1245 H1257 0.930 . S
C1246 C1242 1.524 . S
C1246 H1258 0.956 . S
C1246 H1259 0.961 . S
C1246 H1260 0.961 . S
C1247 C1244 1.539 . S
C1247 H1261 0.958 . S
C1247 H1262 0.961 . S
C1247 H1263 0.960 . S
H1248 C1232 0.931 . S
H1249 C1237 0.929 . S
H1250 C1238 0.960 . S
H1251 C1238 0.962 . S
H1252 C1238 0.960 . S
H1253 C1239 0.961 . S
H1254 C1239 0.961 . S
H1255 C1239 0.961 1_565 S
H1256 C1240 0.931 . S
H1257 C1245 0.930 . S
H1258 C1246 0.956 . S
H1259 C1246 0.961 . S
H1260 C1246 0.961 . S
H1261 C1247 0.958 . S
H1262 C1247 0.961 . S
H1263 C1247 0.960 . S
C1264 C1265 1.391 . S
C1264 C1266 1.394 . S
C1264 H1280 0.931 . S
C1265 C1264 1.391 . S
C1265 C1269 1.376 . S
C1266 C1264 1.394 . S
C1266 C1267 1.369 . S
C1266 C1270 1.531 . S
C1267 C1266 1.369 . S
C1267 C1268 1.410 . S
C1267 C1275 1.503 . S
C1268 C1267 1.410 . S
C1268 C1269 1.392 . S
C1268 C1271 1.511 . S
C1269 C1265 1.376 . S
C1269 C1268 1.392 . S
C1269 H1281 0.929 . S
C1270 C1266 1.531 . S
C1270 H1282 0.960 . S
C1270 H1283 0.962 . S
C1270 H1284 0.960 . S
C1271 C1268 1.511 . S
C1271 H1285 0.961 . S
C1271 H1286 0.961 . S
C1271 H1287 0.961 . S
C1272 C1273 1.370 . S
C1272 C1274 1.363 . S
C1272 H1288 0.931 . S
C1273 C1272 1.370 . S
C1273 C1277 1.408 . S
C1274 C1272 1.363 . S
C1274 C1275 1.370 . S
C1274 C1278 1.524 . S
C1275 C1267 1.503 . S
C1275 C1274 1.370 . S
C1275 C1276 1.403 . S
C1276 C1275 1.403 . S
C1276 C1277 1.404 . S
C1276 C1279 1.539 . S
C1277 C1273 1.408 . S
C1277 C1276 1.404 . S
C1277 H1289 0.930 . S
C1278 C1274 1.524 . S
C1278 H1290 0.956 . S
C1278 H1291 0.961 . S
C1278 H1292 0.961 . S
C1279 C1276 1.539 . S
C1279 H1293 0.958 . S
C1279 H1294 0.961 . S
C1279 H1295 0.960 . S
H1280 C1264 0.931 . S
H1281 C1269 0.929 . S
H1282 C1270 0.960 . S
H1283 C1270 0.962 . S
H1284 C1270 0.960 . S
H1285 C1271 0.961 . S
H1286 C1271 0.961 . S
H1287 C1271 0.961 . S
H1288 C1272 0.931 . S
H1289 C1277 0.930 . S
H1290 C1278 0.956 . S
H1291 C1278 0.961 . S
H1292 C1278 0.961 . S
H1293 C1279 0.958 . S
H1294 C1279 0.961 . S
H1295 C1279 0.960 . S
C1296 C1297 1.391 . S
C1296 C1298 1.394 . S
C1296 H1312 0.931 . S
C1297 C1296 1.391 . S
C1297 C1301 1.376 1_565 S
C1298 C1296 1.394 . S
C1298 C1299 1.369 . S
C1298 C1302 1.531 . S
C1299 C1298 1.369 . S
C1299 C1300 1.410 1_565 S
C1299 C1307 1.503 . S
C1300 C1299 1.410 1_545 S
C1300 C1301 1.392 . S
C1300 C1303 1.511 . S
C1301 C1297 1.376 1_545 S
C1301 C1300 1.392 . S
C1301 H1313 0.929 . S
C1302 C1298 1.531 . S
C1302 H1314 0.960 . S
C1302 H1315 0.962 . S
C1302 H1316 0.960 . S
C1303 C1300 1.511 . S
C1303 H1317 0.961 . S
C1303 H1318 0.961 . S
C1303 H1319 0.961 . S
C1304 C1305 1.370 . S
C1304 C1306 1.363 . S
C1304 H1320 0.931 . S
C1305 C1304 1.370 . S
C1305 C1309 1.408 . S
C1306 C1304 1.363 . S
C1306 C1307 1.370 . S
C1306 C1310 1.524 . S
C1307 C1299 1.503 . S
C1307 C1306 1.370 . S
C1307 C1308 1.403 . S
C1308 C1307 1.403 . S
C1308 C1309 1.404 . S
C1308 C1311 1.539 . S
C1309 C1305 1.408 . S
C1309 C1308 1.404 . S
C1309 H1321 0.930 . S
C1310 C1306 1.524 . S
C1310 H1322 0.956 . S
C1310 H1323 0.952 1_565 S
C1310 H1324 0.961 . S
C1311 C1308 1.539 . S
C1311 H1325 0.958 . S
C1311 H1326 0.961 1_565 S
C1311 H1327 0.960 1_565 S
H1312 C1296 0.931 . S
H1313 C1301 0.929 . S
H1314 C1302 0.960 . S
H1315 C1302 0.962 . S
H1316 C1302 0.960 . S
H1317 C1303 0.961 . S
H1318 C1303 0.961 . S
H1319 C1303 0.961 . S
H1320 C1304 0.931 . S
H1321 C1309 0.930 . S
H1322 C1310 0.956 . S
H1323 C1310 0.952 1_545 S
H1324 C1310 0.961 . S
H1325 C1311 0.958 . S
H1326 C1311 0.961 1_545 S
H1327 C1311 0.960 1_545 S
C1328 C1329 1.391 . S
C1328 C1330 1.394 . S
C1328 H1344 0.931 . S
C1329 C1328 1.391 . S
C1329 C1333 1.376 . S
C1330 C1328 1.394 . S
C1330 C1331 1.369 . S
C1330 C1334 1.531 . S
C1331 C1330 1.369 . S
C1331 C1332 1.410 . S
C1331 C1339 1.503 . S
C1332 C1331 1.410 . S
C1332 C1333 1.392 . S
C1332 C1335 1.511 . S
C1333 C1329 1.376 . S
C1333 C1332 1.392 . S
C1333 H1345 0.929 . S
C1334 C1330 1.531 . S
C1334 H1346 0.960 . S
C1334 H1347 0.962 . S
C1334 H1348 0.960 . S
C1335 C1332 1.511 . S
C1335 H1349 0.961 . S
C1335 H1350 0.961 . S
C1335 H1351 0.961 . S
C1336 C1337 1.370 . S
C1336 C1338 1.363 . S
C1336 H1352 0.931 . S
C1337 C1336 1.370 . S
C1337 C1341 1.408 . S
C1338 C1336 1.363 . S
C1338 C1339 1.370 . S
C1338 C1342 1.524 . S
C1339 C1331 1.503 . S
C1339 C1338 1.370 . S
C1339 C1340 1.403 . S
C1340 C1339 1.403 . S
C1340 C1341 1.404 . S
C1340 C1343 1.539 . S
C1341 C1337 1.408 . S
C1341 C1340 1.404 . S
C1341 H1353 0.930 . S
C1342 C1338 1.524 . S
C1342 H1354 0.956 . S
C1342 H1355 0.961 . S
C1342 H1356 0.961 . S
C1343 C1340 1.539 . S
C1343 H1357 0.958 . S
C1343 H1358 0.961 . S
C1343 H1359 0.960 . S
H1344 C1328 0.931 . S
H1345 C1333 0.929 . S
H1346 C1334 0.960 . S
H1347 C1334 0.962 . S
H1348 C1334 0.960 . S
H1349 C1335 0.961 . S
H1350 C1335 0.961 . S
H1351 C1335 0.961 . S
H1352 C1336 0.931 . S
H1353 C1341 0.930 . S
H1354 C1342 0.956 . S
H1355 C1342 0.961 . S
H1356 C1342 0.961 . S
H1357 C1343 0.958 . S
H1358 C1343 0.961 . S
H1359 C1343 0.960 . S
C1360 C1361 1.391 . S
C1360 C1362 1.394 . S
C1360 H1376 0.931 . S
C1361 C1360 1.391 . S
C1361 C1365 1.376 . S
C1362 C1360 1.394 . S
C1362 C1363 1.369 . S
C1362 C1366 1.531 . S
C1363 C1362 1.369 . S
C1363 C1364 1.410 . S
C1363 C1371 1.503 . S
C1364 C1363 1.410 . S
C1364 C1365 1.392 . S
C1364 C1367 1.511 . S
C1365 C1361 1.376 . S
C1365 C1364 1.392 . S
C1365 H1377 0.929 . S
C1366 C1362 1.531 . S
C1366 H1378 0.960 . S
C1366 H1379 0.962 . S
C1366 H1380 0.960 . S
C1367 C1364 1.511 . S
C1367 H1381 0.961 . S
C1367 H1382 0.961 . S
C1367 H1383 0.961 . S
C1368 C1369 1.370 1_556 S
C1368 C1370 1.363 . S
C1368 H1384 0.931 . S
C1369 C1368 1.370 1_554 S
C1369 C1373 1.408 . S
C1370 C1368 1.363 . S
C1370 C1371 1.370 1_556 S
C1370 C1374 1.524 . S
C1371 C1363 1.503 . S
C1371 C1370 1.370 1_554 S
C1371 C1372 1.403 . S
C1372 C1371 1.403 . S
C1372 C1373 1.404 . S
C1372 C1375 1.539 . S
C1373 C1369 1.408 . S
C1373 C1372 1.404 . S
C1373 H1385 0.930 . S
C1374 C1370 1.524 . S
C1374 H1386 0.956 . S
C1374 H1387 0.961 . S
C1374 H1388 0.961 . S
C1375 C1372 1.539 . S
C1375 H1389 0.958 . S
C1375 H1390 0.961 . S
C1375 H1391 0.960 . S
H1376 C1360 0.931 . S
H1377 C1365 0.929 . S
H1378 C1366 0.960 . S
H1379 C1366 0.962 . S
H1380 C1366 0.960 . S
H1381 C1367 0.961 . S
H1382 C1367 0.961 . S
H1383 C1367 0.961 . S
H1384 C1368 0.931 . S
H1385 C1373 0.930 . S
H1386 C1374 0.956 . S
H1387 C1374 0.961 . S
H1388 C1374 0.961 . S
H1389 C1375 0.958 . S
H1390 C1375 0.961 . S
H1391 C1375 0.960 . S
C1392 C1393 1.391 . S
C1392 C1394 1.394 . S
C1392 H1408 0.931 . S
C1393 C1392 1.391 . S
C1393 C1397 1.376 . S
C1394 C1392 1.394 . S
C1394 C1395 1.369 . S
C1394 C1398 1.531 . S
C1395 C1394 1.369 . S
C1395 C1396 1.410 . S
C1395 C1403 1.503 . S
C1396 C1395 1.410 . S
C1396 C1397 1.392 . S
C1396 C1399 1.511 . S
C1397 C1393 1.376 . S
C1397 C1396 1.392 . S
C1397 H1409 0.929 . S
C1398 C1394 1.531 . S
C1398 H1410 0.960 . S
C1398 H1411 0.962 . S
C1398 H1412 0.960 . S
C1399 C1396 1.511 . S
C1399 H1413 0.961 . S
C1399 H1414 0.961 . S
C1399 H1415 0.961 . S
C1400 C1401 1.370 . S
C1400 C1402 1.363 . S
C1400 H1416 0.931 . S
C1401 C1400 1.370 . S
C1401 C1405 1.408 . S
C1402 C1400 1.363 . S
C1402 C1403 1.370 . S
C1402 C1406 1.524 . S
C1403 C1395 1.503 . S
C1403 C1402 1.370 . S
C1403 C1404 1.403 . S
C1404 C1403 1.403 . S
C1404 C1405 1.404 . S
C1404 C1407 1.539 . S
C1405 C1401 1.408 . S
C1405 C1404 1.404 . S
C1405 H1417 0.930 . S
C1406 C1402 1.524 . S
C1406 H1418 0.956 . S
C1406 H1419 0.961 . S
C1406 H1420 0.961 . S
C1407 C1404 1.539 . S
C1407 H1421 0.958 . S
C1407 H1422 0.961 . S
C1407 H1423 0.960 . S
H1408 C1392 0.931 . S
H1409 C1397 0.929 . S
H1410 C1398 0.960 . S
H1411 C1398 0.962 . S
H1412 C1398 0.960 . S
H1413 C1399 0.961 . S
H1414 C1399 0.961 . S
H1415 C1399 0.961 . S
H1416 C1400 0.931 . S
H1417 C1405 0.930 . S
H1418 C1406 0.956 . S
H1419 C1406 0.961 . S
H1420 C1406 0.961 . S
H1421 C1407 0.958 . S
H1422 C1407 0.961 . S
H1423 C1407 0.960 . S
C1424 C1425 1.391 . S
C1424 C1426 1.394 . S
C1424 H1440 0.931 . S
C1425 C1424 1.391 . S
C1425 C1429 1.376 . S
C1426 C1424 1.394 . S
C1426 C1427 1.369 . S
C1426 C1430 1.531 . S
C1427 C1426 1.369 . S
C1427 C1428 1.410 . S
C1427 C1435 1.503 . S
C1428 C1427 1.410 . S
C1428 C1429 1.392 . S
C1428 C1431 1.511 . S
C1429 C1425 1.376 . S
C1429 C1428 1.392 . S
C1429 H1441 0.929 . S
C1430 C1426 1.531 . S
C1430 H1442 0.960 . S
C1430 H1443 0.962 . S
C1430 H1444 0.960 . S
C1431 C1428 1.511 . S
C1431 H1445 0.961 . S
C1431 H1446 0.961 . S
C1431 H1447 0.961 . S
C1432 C1433 1.370 . S
C1432 C1434 1.363 . S
C1432 H1448 0.931 . S
C1433 C1432 1.370 . S
C1433 C1437 1.408 . S
C1434 C1432 1.363 . S
C1434 C1435 1.370 . S
C1434 C1438 1.524 . S
C1435 C1427 1.503 . S
C1435 C1434 1.370 . S
C1435 C1436 1.403 . S
C1436 C1435 1.403 . S
C1436 C1437 1.404 . S
C1436 C1439 1.539 . S
C1437 C1433 1.408 . S
C1437 C1436 1.404 . S
C1437 H1449 0.930 . S
C1438 C1434 1.524 . S
C1438 H1450 0.956 . S
C1438 H1451 0.961 . S
C1438 H1452 0.961 . S
C1439 C1436 1.539 . S
C1439 H1453 0.958 . S
C1439 H1454 0.961 . S
C1439 H1455 0.960 . S
H1440 C1424 0.931 . S
H1441 C1429 0.929 . S
H1442 C1430 0.960 . S
H1443 C1430 0.962 . S
H1444 C1430 0.960 . S
H1445 C1431 0.961 . S
H1446 C1431 0.961 . S
H1447 C1431 0.961 . S
H1448 C1432 0.931 . S
H1449 C1437 0.930 . S
H1450 C1438 0.956 . S
H1451 C1438 0.961 . S
H1452 C1438 0.961 . S
H1453 C1439 0.958 . S
H1454 C1439 0.961 . S
H1455 C1439 0.960 . S
C1456 C1457 1.391 . S
C1456 C1458 1.394 . S
C1456 H1472 0.931 . S
C1457 C1456 1.391 . S
C1457 C1461 1.376 . S
C1458 C1456 1.394 . S
C1458 C1459 1.369 . S
C1458 C1462 1.531 . S
C1459 C1458 1.369 . S
C1459 C1460 1.410 . S
C1459 C1467 1.503 . S
C1460 C1459 1.410 . S
C1460 C1461 1.392 . S
C1460 C1463 1.511 . S
C1461 C1457 1.376 . S
C1461 C1460 1.392 . S
C1461 H1473 0.929 . S
C1462 C1458 1.531 . S
C1462 H1474 0.960 . S
C1462 H1475 0.962 . S
C1462 H1476 0.960 . S
C1463 C1460 1.511 . S
C1463 H1477 0.961 . S
C1463 H1478 0.961 . S
C1463 H1479 0.961 . S
C1464 C1465 1.370 . S
C1464 C1466 1.363 . S
C1464 H1480 0.931 . S
C1465 C1464 1.370 . S
C1465 C1469 1.408 . S
C1466 C1464 1.363 . S
C1466 C1467 1.370 . S
C1466 C1470 1.524 . S
C1467 C1459 1.503 . S
C1467 C1466 1.370 . S
C1467 C1468 1.403 . S
C1468 C1467 1.403 . S
C1468 C1469 1.404 . S
C1468 C1471 1.539 . S
C1469 C1465 1.408 . S
C1469 C1468 1.404 . S
C1469 H1481 0.930 . S
C1470 C1466 1.524 . S
C1470 H1482 0.956 . S
C1470 H1483 0.961 . S
C1470 H1484 0.961 . S
C1471 C1468 1.539 . S
C1471 H1485 0.958 . S
C1471 H1486 0.961 . S
C1471 H1487 0.960 . S
H1472 C1456 0.931 . S
H1473 C1461 0.929 . S
H1474 C1462 0.960 . S
H1475 C1462 0.962 . S
H1476 C1462 0.960 . S
H1477 C1463 0.961 . S
H1478 C1463 0.961 . S
H1479 C1463 0.961 . S
H1480 C1464 0.931 . S
H1481 C1469 0.930 . S
H1482 C1470 0.956 . S
H1483 C1470 0.961 . S
H1484 C1470 0.961 . S
H1485 C1471 0.958 . S
H1486 C1471 0.961 . S
H1487 C1471 0.960 . S
C1488 C1489 1.391 . S
C1488 C1490 1.394 . S
C1488 H1504 0.931 . S
C1489 C1488 1.391 . S
C1489 C1493 1.376 . S
C1490 C1488 1.394 . S
C1490 C1491 1.369 . S
C1490 C1494 1.531 . S
C1491 C1490 1.369 . S
C1491 C1492 1.410 . S
C1491 C1499 1.503 . S
C1492 C1491 1.410 . S
C1492 C1493 1.392 . S
C1492 C1495 1.511 . S
C1493 C1489 1.376 . S
C1493 C1492 1.392 . S
C1493 H1505 0.929 . S
C1494 C1490 1.531 . S
C1494 H1506 0.960 . S
C1494 H1507 0.962 . S
C1494 H1508 0.960 . S
C1495 C1492 1.511 . S
C1495 H1509 0.961 . S
C1495 H1510 0.961 . S
C1495 H1511 0.961 . S
C1496 C1497 1.370 . S
C1496 C1498 1.363 . S
C1496 H1512 0.931 . S
C1497 C1496 1.370 . S
C1497 C1501 1.408 . S
C1498 C1496 1.363 . S
C1498 C1499 1.370 . S
C1498 C1502 1.524 . S
C1499 C1491 1.503 . S
C1499 C1498 1.370 . S
C1499 C1500 1.403 . S
C1500 C1499 1.403 . S
C1500 C1501 1.404 . S
C1500 C1503 1.539 . S
C1501 C1497 1.408 . S
C1501 C1500 1.404 . S
C1501 H1513 0.930 . S
C1502 C1498 1.524 . S
C1502 H1514 0.956 . S
C1502 H1515 0.961 . S
C1502 H1516 0.961 . S
C1503 C1500 1.539 . S
C1503 H1517 0.958 . S
C1503 H1518 0.961 . S
C1503 H1519 0.960 . S
H1504 C1488 0.931 . S
H1505 C1493 0.929 . S
H1506 C1494 0.960 . S
H1507 C1494 0.962 . S
H1508 C1494 0.960 . S
H1509 C1495 0.961 . S
H1510 C1495 0.961 . S
H1511 C1495 0.961 . S
H1512 C1496 0.931 . S
H1513 C1501 0.930 . S
H1514 C1502 0.956 . S
H1515 C1502 0.961 . S
H1516 C1502 0.961 . S
H1517 C1503 0.958 . S
H1518 C1503 0.961 . S
H1519 C1503 0.960 . S
C1520 C1521 1.391 . S
C1520 C1522 1.394 . S
C1520 H1536 0.931 . S
C1521 C1520 1.391 . S
C1521 C1525 1.376 . S
C1522 C1520 1.394 . S
C1522 C1523 1.369 . S
C1522 C1526 1.531 . S
C1523 C1522 1.369 . S
C1523 C1524 1.410 . S
C1523 C1531 1.503 . S
C1524 C1523 1.410 . S
C1524 C1525 1.392 . S
C1524 C1527 1.511 . S
C1525 C1521 1.376 . S
C1525 C1524 1.392 . S
C1525 H1537 0.929 . S
C1526 C1522 1.531 . S
C1526 H1538 0.960 . S
C1526 H1539 0.962 . S
C1526 H1540 0.960 . S
C1527 C1524 1.511 . S
C1527 H1541 0.961 . S
C1527 H1542 0.961 . S
C1527 H1543 0.961 . S
C1528 C1529 1.370 . S
C1528 C1530 1.363 . S
C1528 H1544 0.931 . S
C1529 C1528 1.370 . S
C1529 C1533 1.408 . S
C1530 C1528 1.363 . S
C1530 C1531 1.370 . S
C1530 C1534 1.524 . S
C1531 C1523 1.503 . S
C1531 C1530 1.370 . S
C1531 C1532 1.403 . S
C1532 C1531 1.403 . S
C1532 C1533 1.404 . S
C1532 C1535 1.539 . S
C1533 C1529 1.408 . S
C1533 C1532 1.404 . S
C1533 H1545 0.930 . S
C1534 C1530 1.524 . S
C1534 H1546 0.956 . S
C1534 H1547 0.961 . S
C1534 H1548 0.961 . S
C1535 C1532 1.539 . S
C1535 H1549 0.958 . S
C1535 H1550 0.961 . S
C1535 H1551 0.960 . S
H1536 C1520 0.931 . S
H1537 C1525 0.929 . S
H1538 C1526 0.960 . S
H1539 C1526 0.962 . S
H1540 C1526 0.960 . S
H1541 C1527 0.961 . S
H1542 C1527 0.961 . S
H1543 C1527 0.961 . S
H1544 C1528 0.931 . S
H1545 C1533 0.930 . S
H1546 C1534 0.956 . S
H1547 C1534 0.961 . S
H1548 C1534 0.961 . S
H1549 C1535 0.958 . S
H1550 C1535 0.961 . S
H1551 C1535 0.960 . S
C1552 C1553 1.391 . S
C1552 C1554 1.394 . S
C1552 H1568 0.931 . S
C1553 C1552 1.391 . S
C1553 C1557 1.376 . S
C1554 C1552 1.394 . S
C1554 C1555 1.369 . S
C1554 C1558 1.531 . S
C1555 C1554 1.369 . S
C1555 C1556 1.410 . S
C1555 C1563 1.503 . S
C1556 C1555 1.410 . S
C1556 C1557 1.392 . S
C1556 C1559 1.511 . S
C1557 C1553 1.376 . S
C1557 C1556 1.392 . S
C1557 H1569 0.929 . S
C1558 C1554 1.531 . S
C1558 H1570 0.960 . S
C1558 H1571 0.962 . S
C1558 H1572 0.960 . S
C1559 C1556 1.511 . S
C1559 H1573 0.961 . S
C1559 H1574 0.961 . S
C1559 H1575 0.961 . S
C1560 C1561 1.370 . S
C1560 C1562 1.363 . S
C1560 H1576 0.931 . S
C1561 C1560 1.370 . S
C1561 C1565 1.408 . S
C1562 C1560 1.363 . S
C1562 C1563 1.370 . S
C1562 C1566 1.524 . S
C1563 C1555 1.503 . S
C1563 C1562 1.370 . S
C1563 C1564 1.403 . S
C1564 C1563 1.403 . S
C1564 C1565 1.404 . S
C1564 C1567 1.539 . S
C1565 C1561 1.408 . S
C1565 C1564 1.404 . S
C1565 H1577 0.930 . S
C1566 C1562 1.524 . S
C1566 H1578 0.956 . S
C1566 H1579 0.961 . S
C1566 H1580 0.961 . S
C1567 C1564 1.539 . S
C1567 H1581 0.958 . S
C1567 H1582 0.961 . S
C1567 H1583 0.960 . S
H1568 C1552 0.931 . S
H1569 C1557 0.929 . S
H1570 C1558 0.960 . S
H1571 C1558 0.962 . S
H1572 C1558 0.960 . S
H1573 C1559 0.961 . S
H1574 C1559 0.961 . S
H1575 C1559 0.961 . S
H1576 C1560 0.931 . S
H1577 C1565 0.930 . S
H1578 C1566 0.956 . S
H1579 C1566 0.961 . S
H1580 C1566 0.961 . S
H1581 C1567 0.958 . S
H1582 C1567 0.961 . S
H1583 C1567 0.960 . S
C1584 C1585 1.391 . S
C1584 C1586 1.394 . S
C1584 H1600 0.931 . S
C1585 C1584 1.391 . S
C1585 C1589 1.376 . S
C1586 C1584 1.394 . S
C1586 C1587 1.369 . S
C1586 C1590 1.531 . S
C1587 C1586 1.369 . S
C1587 C1588 1.410 . S
C1587 C1595 1.503 . S
C1588 C1587 1.410 . S
C1588 C1589 1.392 . S
C1588 C1591 1.511 . S
C1589 C1585 1.376 . S
C1589 C1588 1.392 . S
C1589 H1601 0.929 . S
C1590 C1586 1.531 . S
C1590 H1602 0.960 . S
C1590 H1603 0.962 . S
C1590 H1604 0.960 . S
C1591 C1588 1.511 . S
C1591 H1605 0.961 . S
C1591 H1606 0.961 . S
C1591 H1607 0.961 . S
C1592 C1593 1.370 . S
C1592 C1594 1.363 . S
C1592 H1608 0.931 . S
C1593 C1592 1.370 . S
C1593 C1597 1.408 . S
C1594 C1592 1.363 . S
C1594 C1595 1.370 . S
C1594 C1598 1.524 . S
C1595 C1587 1.503 . S
C1595 C1594 1.370 . S
C1595 C1596 1.403 . S
C1596 C1595 1.403 . S
C1596 C1597 1.404 . S
C1596 C1599 1.539 . S
C1597 C1593 1.408 . S
C1597 C1596 1.404 . S
C1597 H1609 0.930 . S
C1598 C1594 1.524 . S
C1598 H1610 0.956 . S
C1598 H1611 0.961 . S
C1598 H1612 0.961 . S
C1599 C1596 1.539 . S
C1599 H1613 0.958 . S
C1599 H1614 0.961 . S
C1599 H1615 0.960 . S
H1600 C1584 0.931 . S
H1601 C1589 0.929 . S
H1602 C1590 0.960 . S
H1603 C1590 0.962 . S
H1604 C1590 0.960 . S
H1605 C1591 0.961 . S
H1606 C1591 0.961 . S
H1607 C1591 0.961 . S
H1608 C1592 0.931 . S
H1609 C1597 0.930 . S
H1610 C1598 0.956 . S
H1611 C1598 0.961 . S
H1612 C1598 0.961 . S
H1613 C1599 0.958 . S
H1614 C1599 0.961 . S
H1615 C1599 0.960 . S
C1616 C1617 1.391 . S
C1616 C1618 1.394 . S
C1616 H1632 0.931 . S
C1617 C1616 1.391 . S
C1617 C1621 1.376 . S
C1618 C1616 1.394 . S
C1618 C1619 1.369 . S
C1618 C1622 1.531 . S
C1619 C1618 1.369 . S
C1619 C1620 1.410 . S
C1619 C1627 1.503 . S
C1620 C1619 1.410 . S
C1620 C1621 1.392 . S
C1620 C1623 1.511 . S
C1621 C1617 1.376 . S
C1621 C1620 1.392 . S
C1621 H1633 0.929 . S
C1622 C1618 1.531 . S
C1622 H1634 0.960 . S
C1622 H1635 0.962 . S
C1622 H1636 0.960 . S
C1623 C1620 1.511 . S
C1623 H1637 0.961 . S
C1623 H1638 0.961 . S
C1623 H1639 0.961 . S
C1624 C1625 1.370 . S
C1624 C1626 1.363 . S
C1624 H1640 0.931 . S
C1625 C1624 1.370 . S
C1625 C1629 1.408 . S
C1626 C1624 1.363 . S
C1626 C1627 1.370 . S
C1626 C1630 1.524 . S
C1627 C1619 1.503 . S
C1627 C1626 1.370 . S
C1627 C1628 1.403 . S
C1628 C1627 1.403 . S
C1628 C1629 1.404 . S
C1628 C1631 1.539 . S
C1629 C1625 1.408 . S
C1629 C1628 1.404 . S
C1629 H1641 0.930 . S
C1630 C1626 1.524 . S
C1630 H1642 0.956 . S
C1630 H1643 0.961 . S
C1630 H1644 0.961 . S
C1631 C1628 1.539 . S
C1631 H1645 0.958 . S
C1631 H1646 0.961 . S
C1631 H1647 0.960 . S
H1632 C1616 0.931 . S
H1633 C1621 0.929 . S
H1634 C1622 0.960 . S
H1635 C1622 0.962 . S
H1636 C1622 0.960 . S
H1637 C1623 0.961 . S
H1638 C1623 0.961 . S
H1639 C1623 0.961 . S
H1640 C1624 0.931 . S
H1641 C1629 0.930 . S
H1642 C1630 0.956 . S
H1643 C1630 0.961 . S
H1644 C1630 0.961 . S
H1645 C1631 0.958 . S
H1646 C1631 0.961 . S
H1647 C1631 0.960 . S
C1648 C1649 1.391 . S
C1648 C1650 1.394 . S
C1648 H1664 0.931 . S
C1649 C1648 1.391 . S
C1649 C1653 1.376 . S
C1650 C1648 1.394 . S
C1650 C1651 1.369 . S
C1650 C1654 1.531 . S
C1651 C1650 1.369 . S
C1651 C1652 1.410 . S
C1651 C1659 1.503 . S
C1652 C1651 1.410 . S
C1652 C1653 1.392 . S
C1652 C1655 1.511 . S
C1653 C1649 1.376 . S
C1653 C1652 1.392 . S
C1653 H1665 0.929 . S
C1654 C1650 1.531 . S
C1654 H1666 0.960 . S
C1654 H1667 0.962 1_565 S
C1654 H1668 0.960 . S
C1655 C1652 1.511 . S
C1655 H1669 0.961 . S
C1655 H1670 0.961 . S
C1655 H1671 0.961 . S
C1656 C1657 1.370 1_545 S
C1656 C1658 1.363 . S
C1656 H1672 0.931 . S
C1657 C1656 1.370 1_565 S
C1657 C1661 1.408 . S
C1658 C1656 1.363 . S
C1658 C1659 1.370 1_545 S
C1658 C1662 1.524 . S
C1659 C1651 1.503 . S
C1659 C1658 1.370 1_565 S
C1659 C1660 1.403 . S
C1660 C1659 1.403 . S
C1660 C1661 1.404 . S
C1660 C1663 1.539 . S
C1661 C1657 1.408 . S
C1661 C1660 1.404 . S
C1661 H1673 0.930 . S
C1662 C1658 1.524 . S
C1662 H1674 0.956 . S
C1662 H1675 0.961 . S
C1662 H1676 0.961 . S
C1663 C1660 1.539 . S
C1663 H1677 0.958 . S
C1663 H1678 0.961 . S
C1663 H1679 0.960 . S
H1664 C1648 0.931 . S
H1665 C1653 0.929 . S
H1666 C1654 0.960 . S
H1667 C1654 0.962 1_545 S
H1668 C1654 0.960 . S
H1669 C1655 0.961 . S
H1670 C1655 0.961 . S
H1671 C1655 0.961 . S
H1672 C1656 0.931 . S
H1673 C1661 0.930 . S
H1674 C1662 0.956 . S
H1675 C1662 0.961 . S
H1676 C1662 0.961 . S
H1677 C1663 0.958 . S
H1678 C1663 0.961 . S
H1679 C1663 0.960 . S
C1680 C1681 1.391 . S
C1680 C1682 1.394 . S
C1680 H1696 0.931 . S
C1681 C1680 1.391 . S
C1681 C1685 1.376 . S
C1682 C1680 1.394 . S
C1682 C1683 1.369 . S
C1682 C1686 1.531 . S
C1683 C1682 1.369 . S
C1683 C1684 1.410 . S
C1683 C1691 1.503 . S
C1684 C1683 1.410 . S
C1684 C1685 1.392 . S
C1684 C1687 1.511 . S
C1685 C1681 1.376 . S
C1685 C1684 1.392 . S
C1685 H1697 0.929 . S
C1686 C1682 1.531 . S
C1686 H1698 0.960 . S
C1686 H1699 0.962 . S
C1686 H1700 0.960 . S
C1687 C1684 1.511 . S
C1687 H1701 0.961 . S
C1687 H1702 0.961 . S
C1687 H1703 0.961 . S
C1688 C1689 1.370 . S
C1688 C1690 1.363 . S
C1688 H1704 0.931 . S
C1689 C1688 1.370 . S
C1689 C1693 1.408 . S
C1690 C1688 1.363 . S
C1690 C1691 1.370 . S
C1690 C1694 1.524 . S
C1691 C1683 1.503 . S
C1691 C1690 1.370 . S
C1691 C1692 1.403 . S
C1692 C1691 1.403 . S
C1692 C1693 1.404 . S
C1692 C1695 1.539 . S
C1693 C1689 1.408 . S
C1693 C1692 1.404 . S
C1693 H1705 0.930 . S
C1694 C1690 1.524 . S
C1694 H1706 0.956 . S
C1694 H1707 0.961 . S
C1694 H1708 0.961 . S
C1695 C1692 1.539 . S
C1695 H1709 0.958 . S
C1695 H1710 0.961 . S
C1695 H1711 0.960 . S
H1696 C1680 0.931 . S
H1697 C1685 0.929 . S
H1698 C1686 0.960 . S
H1699 C1686 0.962 . S
H1700 C1686 0.960 . S
H1701 C1687 0.961 . S
H1702 C1687 0.961 . S
H1703 C1687 0.961 . S
H1704 C1688 0.931 . S
H1705 C1693 0.930 . S
H1706 C1694 0.956 . S
H1707 C1694 0.961 . S
H1708 C1694 0.961 . S
H1709 C1695 0.958 . S
H1710 C1695 0.961 . S
H1711 C1695 0.960 . S
C1712 C1713 1.391 . S
C1712 C1714 1.394 . S
C1712 H1728 0.931 . S
C1713 C1712 1.391 . S
C1713 C1717 1.376 1_545 S
C1714 C1712 1.394 . S
C1714 C1715 1.369 . S
C1714 C1718 1.531 . S
C1715 C1714 1.369 . S
C1715 C1716 1.410 1_545 S
C1715 C1723 1.503 . S
C1716 C1715 1.410 1_565 S
C1716 C1717 1.392 . S
C1716 C1719 1.511 . S
C1717 C1713 1.376 1_565 S
C1717 C1716 1.392 . S
C1717 H1729 0.929 . S
C1718 C1714 1.531 . S
C1718 H1730 0.960 . S
C1718 H1731 0.962 . S
C1718 H1732 0.960 . S
C1719 C1716 1.511 . S
C1719 H1733 0.961 . S
C1719 H1734 0.961 . S
C1719 H1735 0.961 . S
C1720 C1721 1.370 . S
C1720 C1722 1.363 . S
C1720 H1736 0.931 . S
C1721 C1720 1.370 . S
C1721 C1725 1.408 . S
C1722 C1720 1.363 . S
C1722 C1723 1.370 . S
C1722 C1726 1.524 1_545 S
C1723 C1715 1.503 . S
C1723 C1722 1.370 . S
C1723 C1724 1.403 . S
C1724 C1723 1.403 . S
C1724 C1725 1.404 . S
C1724 C1727 1.539 . S
C1725 C1721 1.408 . S
C1725 C1724 1.404 . S
C1725 H1737 0.930 . S
C1726 C1722 1.524 1_565 S
C1726 H1738 0.956 1_565 S
C1726 H1739 0.961 . S
C1726 H1740 0.961 . S
C1727 C1724 1.539 . S
C1727 H1741 0.958 . S
C1727 H1742 0.961 . S
C1727 H1743 0.960 . S
H1728 C1712 0.931 . S
H1729 C1717 0.929 . S
H1730 C1718 0.960 . S
H1731 C1718 0.962 . S
H1732 C1718 0.960 . S
H1733 C1719 0.961 . S
H1734 C1719 0.961 . S
H1735 C1719 0.961 . S
H1736 C1720 0.931 . S
H1737 C1725 0.930 . S
H1738 C1726 0.956 1_545 S
H1739 C1726 0.961 . S
H1740 C1726 0.961 . S
H1741 C1727 0.958 . S
H1742 C1727 0.961 . S
H1743 C1727 0.960 . S
C1744 C1745 1.391 . S
C1744 C1746 1.394 . S
C1744 H1760 0.931 . S
C1745 C1744 1.391 . S
C1745 C1749 1.376 . S
C1746 C1744 1.394 . S
C1746 C1747 1.369 . S
C1746 C1750 1.531 . S
C1747 C1746 1.369 . S
C1747 C1748 1.410 . S
C1747 C1755 1.503 . S
C1748 C1747 1.410 . S
C1748 C1749 1.392 . S
C1748 C1751 1.511 . S
C1749 C1745 1.376 . S
C1749 C1748 1.392 . S
C1749 H1761 0.929 . S
C1750 C1746 1.531 . S
C1750 H1762 0.960 . S
C1750 H1763 0.962 . S
C1750 H1764 0.960 . S
C1751 C1748 1.511 . S
C1751 H1765 0.961 . S
C1751 H1766 0.961 . S
C1751 H1767 0.961 . S
C1752 C1753 1.370 . S
C1752 C1754 1.363 . S
C1752 H1768 0.931 . S
C1753 C1752 1.370 . S
C1753 C1757 1.408 . S
C1754 C1752 1.363 . S
C1754 C1755 1.370 . S
C1754 C1758 1.524 . S
C1755 C1747 1.503 . S
C1755 C1754 1.370 . S
C1755 C1756 1.403 . S
C1756 C1755 1.403 . S
C1756 C1757 1.404 . S
C1756 C1759 1.539 . S
C1757 C1753 1.408 . S
C1757 C1756 1.404 . S
C1757 H1769 0.930 . S
C1758 C1754 1.524 . S
C1758 H1770 0.956 . S
C1758 H1771 0.961 . S
C1758 H1772 0.961 . S
C1759 C1756 1.539 . S
C1759 H1773 0.958 . S
C1759 H1774 0.961 . S
C1759 H1775 0.960 . S
H1760 C1744 0.931 . S
H1761 C1749 0.929 . S
H1762 C1750 0.960 . S
H1763 C1750 0.962 . S
H1764 C1750 0.960 . S
H1765 C1751 0.961 . S
H1766 C1751 0.961 . S
H1767 C1751 0.961 . S
H1768 C1752 0.931 . S
H1769 C1757 0.930 . S
H1770 C1758 0.956 . S
H1771 C1758 0.961 . S
H1772 C1758 0.961 . S
H1773 C1759 0.958 . S
H1774 C1759 0.961 . S
H1775 C1759 0.960 . S
C1776 C1777 1.391 . S
C1776 C1778 1.394 . S
C1776 H1792 0.931 . S
C1777 C1776 1.391 . S
C1777 C1781 1.376 1_556 S
C1778 C1776 1.394 . S
C1778 C1779 1.369 . S
C1778 C1782 1.531 . S
C1779 C1778 1.369 . S
C1779 C1780 1.408 . S
C1779 C1787 1.503 . S
C1780 C1779 1.408 . S
C1780 C1781 1.392 1_556 S
C1780 C1783 1.512 1_556 S
C1781 C1777 1.376 1_554 S
C1781 C1780 1.392 1_554 S
C1781 H1793 0.929 . S
C1782 C1778 1.531 . S
C1782 H1794 0.960 . S
C1782 H1795 0.962 . S
C1782 H1796 0.960 . S
C1783 C1780 1.512 1_554 S
C1783 H1797 0.961 . S
C1783 H1798 0.961 . S
C1783 H1799 0.961 . S
C1784 C1785 1.368 . S
C1784 C1786 1.363 1_556 S
C1784 H1800 0.933 1_556 S
C1785 C1784 1.368 . S
C1785 C1789 1.408 . S
C1786 C1784 1.363 1_554 S
C1786 C1787 1.366 1_554 S
C1786 C1790 1.528 . S
C1787 C1779 1.503 . S
C1787 C1786 1.366 1_556 S
C1787 C1788 1.403 . S
C1788 C1787 1.403 . S
C1788 C1789 1.404 . S
C1788 C1791 1.539 . S
C1789 C1785 1.408 . S
C1789 C1788 1.404 . S
C1789 H1801 0.930 . S
C1790 C1786 1.528 . S
C1790 H1802 0.956 . S
C1790 H1803 0.961 . S
C1790 H1804 0.961 . S
C1791 C1788 1.539 . S
C1791 H1805 0.958 . S
C1791 H1806 0.961 . S
C1791 H1807 0.960 . S
H1792 C1776 0.931 . S
H1793 C1781 0.929 . S
H1794 C1782 0.960 . S
H1795 C1782 0.962 . S
H1796 C1782 0.960 . S
H1797 C1783 0.961 . S
H1798 C1783 0.961 . S
H1799 C1783 0.961 . S
H1800 C1784 0.933 1_554 S
H1801 C1789 0.930 . S
H1802 C1790 0.956 . S
H1803 C1790 0.961 . S
H1804 C1790 0.961 . S
H1805 C1791 0.958 . S
H1806 C1791 0.961 . S
H1807 C1791 0.960 . S
C1808 C1809 1.391 . S
C1808 C1810 1.394 . S
C1808 H1824 0.931 . S
C1809 C1808 1.391 . S
C1809 C1813 1.376 1_556 S
C1810 C1808 1.394 . S
C1810 C1811 1.369 . S
C1810 C1814 1.531 . S
C1811 C1810 1.369 . S
C1811 C1812 1.410 1_556 S
C1811 C1819 1.503 . S
C1812 C1811 1.410 1_554 S
C1812 C1813 1.392 . S
C1812 C1815 1.511 . S
C1813 C1809 1.376 1_554 S
C1813 C1812 1.392 . S
C1813 H1825 0.929 . S
C1814 C1810 1.531 . S
C1814 H1826 0.960 . S
C1814 H1827 0.962 . S
C1814 H1828 0.960 . S
C1815 C1812 1.511 . S
C1815 H1829 0.961 . S
C1815 H1830 0.961 . S
C1815 H1831 0.961 . S
C1816 C1817 1.370 . S
C1816 C1818 1.363 . S
C1816 H1832 0.931 . S
C1817 C1816 1.370 . S
C1817 C1821 1.408 . S
C1818 C1816 1.363 . S
C1818 C1819 1.370 . S
C1818 C1822 1.524 . S
C1819 C1811 1.503 . S
C1819 C1818 1.370 . S
C1819 C1820 1.403 . S
C1820 C1819 1.403 . S
C1820 C1821 1.404 . S
C1820 C1823 1.539 1_556 S
C1821 C1817 1.408 . S
C1821 C1820 1.404 . S
C1821 H1833 0.930 . S
C1822 C1818 1.524 . S
C1822 H1834 0.956 . S
C1822 H1835 0.961 . S
C1822 H1836 0.961 . S
C1823 C1820 1.539 1_554 S
C1823 H1837 0.958 1_554 S
C1823 H1838 0.961 . S
C1823 H1839 0.960 . S
H1824 C1808 0.931 . S
H1825 C1813 0.929 . S
H1826 C1814 0.960 . S
H1827 C1814 0.962 . S
H1828 C1814 0.960 . S
H1829 C1815 0.961 . S
H1830 C1815 0.961 . S
H1831 C1815 0.961 . S
H1832 C1816 0.931 . S
H1833 C1821 0.930 . S
H1834 C1822 0.956 . S
H1835 C1822 0.961 . S
H1836 C1822 0.961 . S
H1837 C1823 0.958 1_556 S
H1838 C1823 0.961 . S
H1839 C1823 0.960 . S
C1840 C1841 1.391 1_556 S
C1840 C1842 1.394 . S
C1840 H1856 0.931 . S
C1841 C1840 1.391 1_554 S
C1841 C1845 1.376 . S
C1842 C1840 1.394 . S
C1842 C1843 1.369 1_556 S
C1842 C1846 1.531 . S
C1843 C1842 1.369 1_554 S
C1843 C1844 1.410 . S
C1843 C1851 1.503 . S
C1844 C1843 1.410 . S
C1844 C1845 1.392 . S
C1844 C1847 1.511 . S
C1845 C1841 1.376 . S
C1845 C1844 1.392 . S
C1845 H1857 0.929 . S
C1846 C1842 1.531 . S
C1846 H1858 0.960 . S
C1846 H1859 0.962 . S
C1846 H1860 0.960 . S
C1847 C1844 1.511 . S
C1847 H1861 0.961 . S
C1847 H1862 0.961 . S
C1847 H1863 0.961 . S
C1848 C1849 1.370 . S
C1848 C1850 1.363 . S
C1848 H1864 0.931 . S
C1849 C1848 1.370 . S
C1849 C1853 1.408 . S
C1850 C1848 1.363 . S
C1850 C1851 1.370 . S
C1850 C1854 1.524 . S
C1851 C1843 1.503 . S
C1851 C1850 1.370 . S
C1851 C1852 1.403 . S
C1852 C1851 1.403 . S
C1852 C1853 1.404 . S
C1852 C1855 1.539 . S
C1853 C1849 1.408 . S
C1853 C1852 1.404 . S
C1853 H1865 0.930 . S
C1854 C1850 1.524 . S
C1854 H1866 0.956 1_554 S
C1854 H1867 0.961 . S
C1854 H1868 0.961 . S
C1855 C1852 1.539 . S
C1855 H1869 0.958 . S
C1855 H1870 0.961 . S
C1855 H1871 0.960 . S
H1856 C1840 0.931 . S
H1857 C1845 0.929 . S
H1858 C1846 0.960 . S
H1859 C1846 0.962 . S
H1860 C1846 0.960 . S
H1861 C1847 0.961 . S
H1862 C1847 0.961 . S
H1863 C1847 0.961 . S
H1864 C1848 0.931 . S
H1865 C1853 0.930 . S
H1866 C1854 0.956 1_556 S
H1867 C1854 0.961 . S
H1868 C1854 0.961 . S
H1869 C1855 0.958 . S
H1870 C1855 0.961 . S
H1871 C1855 0.960 . S
C337 C13 1.588 . S
C345 C229 1.556 . S
C377 C234 1.551 . S
C369 C1 1.615 . S
C409 C172 1.564 . S
C401 C27 1.609 . S
C433 C15 1.580 . S
C441 C196 1.504 . S
C465 C28 1.592 . S
C473 C334 1.534 . S
C497 C55 1.576 . S
C505 C301 1.537 . S
C537 C255 1.568 . S
C529 C40 1.606 . S
C561 C43 1.635 . S
C569 C289 1.569 . S
C601 C208 1.562 . S
C593 C56 1.609 . S
C633 C235 1.509 . S
C625 C83 1.567 . S
C657 C96 1.601 . S
C665 C226 1.552 . S
C689 C71 1.601 . S
C697 C292 1.566 . S
C729 C313 1.546 . S
C721 C99 1.592 . S
C761 C331 1.574 . S
C753 C111 1.604 . S
C785 C113 1.621 . S
C793 C280 1.548 . S
C825 C256 1.526 . S
C817 C125 1.566 . S
C849 C139 1.577 . S
C857 C251 1.532 . S
C881 C153 1.587 . S
C889 C217 1.525 . S
C921 C205 1.556 . S
C913 C127 1.625 . S
C945 C141 1.641 . S
C953 C171 1.577 . S
C985 C272 1.567 . S
C977 C84 1.624 . S
C1017 C322 1.505 . S
C1009 C154 1.569 . S
C1041 C68 1.615 . S
C1049 C310 1.557 . S
C1073 C166 1.606 . S
C1081 C188 1.554 . S
C1113 C187 1.118 . S
C1105 C0 1.288 . S
C1137 C12 1.245 . S
C1145 C209 1.076 . S
C1177 C214 1.119 . S
C1169 C14 1.264 . S
C1209 C247 1.156 . S
C1201 C26 1.317 . S
C1233 C41 1.301 . S
C1241 C184 1.152 . S
C1265 C42 1.318 . S
C1273 C192 1.103 . S
C1305 C230 1.099 . S
C1297 C29 1.286 . S
C1329 C54 1.242 . S
C1337 C238 1.083 . S
C1361 C69 1.283 . S
C1369 C175 1.054 . S
C1401 C213 1.125 . S
C1393 C70 1.285 . S
C1425 C85 1.261 . S
C1433 C250 1.120 . S
C1457 C82 1.246 . S
C1465 C259 1.102 . S
C1497 C293 1.090 . S
C1489 C110 1.255 . S
C1521 C98 1.275 . S
C1529 C271 1.114 . S
C1553 C124 1.287 . S
C1561 C298 1.117 . S
C1585 C112 1.331 . S
C1593 C318 1.134 . S
C1617 C126 1.303 . S
C1625 C276 1.153 . S
C1657 C268 1.102 . S
C1649 C140 1.324 . S
C1681 C138 1.246 . S
C1689 C314 1.107 . S
C1721 C319 1.077 . S
C1713 C152 1.288 . S
C1753 C277 1.113 . S
C1745 C97 1.278 . S
C1785 C297 1.107 . S
C1777 C167 1.328 . S
C1817 C335 1.103 . S
C1809 C57 1.285 . S
C1841 C155 1.246 . S
C1849 C193 1.069 . S
