# Generated by pormake.
# Topology eea, (3,6)-cn, num edge types: 1
# Building blocks:
#     Node 0, Type 0, BuildingBlock: OLANEW_clean_sbu_2, # of connection points: 3
#     Node 1, Type 0, BuildingBlock: OLANEW_clean_sbu_2, # of connection points: 3
#     Node 2, Type 0, BuildingBlock: OLANEW_clean_sbu_2, # of connection points: 3
#     Node 3, Type 0, BuildingBlock: OLANEW_clean_sbu_2, # of connection points: 3
#     Node 4, Type 0, BuildingBlock: OLANEW_clean_sbu_2, # of connection points: 3
#     Node 5, Type 0, BuildingBlock: OLANEW_clean_sbu_2, # of connection points: 3
#     Node 6, Type 0, BuildingBlock: OLANEW_clean_sbu_2, # of connection points: 3
#     Node 7, Type 0, BuildingBlock: OLANEW_clean_sbu_2, # of connection points: 3
#     Node 8, Type 0, BuildingBlock: OLANEW_clean_sbu_2, # of connection points: 3
#     Node 9, Type 0, BuildingBlock: OLANEW_clean_sbu_2, # of connection points: 3
#     Node 10, Type 0, BuildingBlock: OLANEW_clean_sbu_2, # of connection points: 3
#     Node 11, Type 0, BuildingBlock: OLANEW_clean_sbu_2, # of connection points: 3
#     Node 12, Type 0, BuildingBlock: OLANEW_clean_sbu_2, # of connection points: 3
#     Node 13, Type 0, BuildingBlock: OLANEW_clean_sbu_2, # of connection points: 3
#     Node 14, Type 0, BuildingBlock: OLANEW_clean_sbu_2, # of connection points: 3
#     Node 15, Type 0, BuildingBlock: OLANEW_clean_sbu_2, # of connection points: 3
#     Node 16, Type 0, BuildingBlock: OLANEW_clean_sbu_2, # of connection points: 3
#     Node 17, Type 0, BuildingBlock: OLANEW_clean_sbu_2, # of connection points: 3
#     Node 18, Type 1, BuildingBlock: KUMJIN_clean_sbu_0, # of connection points: 6
#     Node 19, Type 1, BuildingBlock: KUMJIN_clean_sbu_0, # of connection points: 6
#     Node 20, Type 1, BuildingBlock: KUMJIN_clean_sbu_0, # of connection points: 6
#     Node 21, Type 1, BuildingBlock: KUMJIN_clean_sbu_0, # of connection points: 6
#     Node 22, Type 1, BuildingBlock: KUMJIN_clean_sbu_0, # of connection points: 6
#     Node 23, Type 1, BuildingBlock: KUMJIN_clean_sbu_0, # of connection points: 6
#     Node 24, Type 1, BuildingBlock: KUMJIN_clean_sbu_0, # of connection points: 6
#     Node 25, Type 1, BuildingBlock: KUMJIN_clean_sbu_0, # of connection points: 6
#     Node 26, Type 1, BuildingBlock: KUMJIN_clean_sbu_0, # of connection points: 6
#     Edge 27, Type (0, 1), BuildingBlock: EZIPEK_clean_linker_0, # of connection points: 2
#     Edge 28, Type (0, 1), BuildingBlock: EZIPEK_clean_linker_0, # of connection points: 2
#     Edge 29, Type (0, 1), BuildingBlock: EZIPEK_clean_linker_0, # of connection points: 2
#     Edge 30, Type (0, 1), BuildingBlock: EZIPEK_clean_linker_0, # of connection points: 2
#     Edge 31, Type (0, 1), BuildingBlock: EZIPEK_clean_linker_0, # of connection points: 2
#     Edge 32, Type (0, 1), BuildingBlock: EZIPEK_clean_linker_0, # of connection points: 2
#     Edge 33, Type (0, 1), BuildingBlock: EZIPEK_clean_linker_0, # of connection points: 2
#     Edge 34, Type (0, 1), BuildingBlock: EZIPEK_clean_linker_0, # of connection points: 2
#     Edge 35, Type (0, 1), BuildingBlock: EZIPEK_clean_linker_0, # of connection points: 2
#     Edge 36, Type (0, 1), BuildingBlock: EZIPEK_clean_linker_0, # of connection points: 2
#     Edge 37, Type (0, 1), BuildingBlock: EZIPEK_clean_linker_0, # of connection points: 2
#     Edge 38, Type (0, 1), BuildingBlock: EZIPEK_clean_linker_0, # of connection points: 2
#     Edge 39, Type (0, 1), BuildingBlock: EZIPEK_clean_linker_0, # of connection points: 2
#     Edge 40, Type (0, 1), BuildingBlock: EZIPEK_clean_linker_0, # of connection points: 2
#     Edge 41, Type (0, 1), BuildingBlock: EZIPEK_clean_linker_0, # of connection points: 2
#     Edge 42, Type (0, 1), BuildingBlock: EZIPEK_clean_linker_0, # of connection points: 2
#     Edge 43, Type (0, 1), BuildingBlock: EZIPEK_clean_linker_0, # of connection points: 2
#     Edge 44, Type (0, 1), BuildingBlock: EZIPEK_clean_linker_0, # of connection points: 2
#     Edge 45, Type (0, 1), BuildingBlock: EZIPEK_clean_linker_0, # of connection points: 2
#     Edge 46, Type (0, 1), BuildingBlock: EZIPEK_clean_linker_0, # of connection points: 2
#     Edge 47, Type (0, 1), BuildingBlock: EZIPEK_clean_linker_0, # of connection points: 2
#     Edge 48, Type (0, 1), BuildingBlock: EZIPEK_clean_linker_0, # of connection points: 2
#     Edge 49, Type (0, 1), BuildingBlock: EZIPEK_clean_linker_0, # of connection points: 2
#     Edge 50, Type (0, 1), BuildingBlock: EZIPEK_clean_linker_0, # of connection points: 2
#     Edge 51, Type (0, 1), BuildingBlock: EZIPEK_clean_linker_0, # of connection points: 2
#     Edge 52, Type (0, 1), BuildingBlock: EZIPEK_clean_linker_0, # of connection points: 2
#     Edge 53, Type (0, 1), BuildingBlock: EZIPEK_clean_linker_0, # of connection points: 2
#     Edge 54, Type (0, 1), BuildingBlock: EZIPEK_clean_linker_0, # of connection points: 2
#     Edge 55, Type (0, 1), BuildingBlock: EZIPEK_clean_linker_0, # of connection points: 2
#     Edge 56, Type (0, 1), BuildingBlock: EZIPEK_clean_linker_0, # of connection points: 2
#     Edge 57, Type (0, 1), BuildingBlock: EZIPEK_clean_linker_0, # of connection points: 2
#     Edge 58, Type (0, 1), BuildingBlock: EZIPEK_clean_linker_0, # of connection points: 2
#     Edge 59, Type (0, 1), BuildingBlock: EZIPEK_clean_linker_0, # of connection points: 2
#     Edge 60, Type (0, 1), BuildingBlock: EZIPEK_clean_linker_0, # of connection points: 2
#     Edge 61, Type (0, 1), BuildingBlock: EZIPEK_clean_linker_0, # of connection points: 2
#     Edge 62, Type (0, 1), BuildingBlock: EZIPEK_clean_linker_0, # of connection points: 2
#     Edge 63, Type (0, 1), BuildingBlock: EZIPEK_clean_linker_0, # of connection points: 2
#     Edge 64, Type (0, 1), BuildingBlock: EZIPEK_clean_linker_0, # of connection points: 2
#     Edge 65, Type (0, 1), BuildingBlock: EZIPEK_clean_linker_0, # of connection points: 2
#     Edge 66, Type (0, 1), BuildingBlock: EZIPEK_clean_linker_0, # of connection points: 2
#     Edge 67, Type (0, 1), BuildingBlock: EZIPEK_clean_linker_0, # of connection points: 2
#     Edge 68, Type (0, 1), BuildingBlock: EZIPEK_clean_linker_0, # of connection points: 2
#     Edge 69, Type (0, 1), BuildingBlock: EZIPEK_clean_linker_0, # of connection points: 2
#     Edge 70, Type (0, 1), BuildingBlock: EZIPEK_clean_linker_0, # of connection points: 2
#     Edge 71, Type (0, 1), BuildingBlock: EZIPEK_clean_linker_0, # of connection points: 2
#     Edge 72, Type (0, 1), BuildingBlock: EZIPEK_clean_linker_0, # of connection points: 2
#     Edge 73, Type (0, 1), BuildingBlock: EZIPEK_clean_linker_0, # of connection points: 2
#     Edge 74, Type (0, 1), BuildingBlock: EZIPEK_clean_linker_0, # of connection points: 2
#     Edge 75, Type (0, 1), BuildingBlock: EZIPEK_clean_linker_0, # of connection points: 2
#     Edge 76, Type (0, 1), BuildingBlock: EZIPEK_clean_linker_0, # of connection points: 2
#     Edge 77, Type (0, 1), BuildingBlock: EZIPEK_clean_linker_0, # of connection points: 2
#     Edge 78, Type (0, 1), BuildingBlock: EZIPEK_clean_linker_0, # of connection points: 2
#     Edge 79, Type (0, 1), BuildingBlock: EZIPEK_clean_linker_0, # of connection points: 2
#     Edge 80, Type (0, 1), BuildingBlock: EZIPEK_clean_linker_0, # of connection points: 2
# Relax obj value: 0.012
# Max RMSD: 0.176
# Mean RMSD: 0.121
data_MOF--net-eea--node1-OLANEW_clean_sbu_2--node2-KUMJIN_clean_sbu_0--edge1-EZIPEK_clean_linker_0
_symmetry_space_group_name_H-M    P1
_symmetry_Int_Tables_number       1
_symmetry_cell_setting            triclinic
loop_
_symmetry_equiv_pos_as_xyz
'x, y, z'
_cell_length_a     45.483568
_cell_length_b     45.070149
_cell_length_c     54.672537
_cell_angle_alpha  94.83975
_cell_angle_beta   90.222084
_cell_angle_gamma 121.03602
loop_
_atom_site_label
_atom_site_type_symbol
_atom_site_fract_x
_atom_site_fract_y
_atom_site_fract_z
_atom_type_partial_charge
O0 O 0.22592 0.13019 0.43213 0.0
Cd1 Cd 0.20853 0.12499 0.38885 0.0
O2 O 0.27061 0.12674 0.42104 0.0
Cd3 Cd 0.25714 0.11952 0.38193 0.0
O4 O 0.22448 0.06989 0.36112 0.0
C5 C 0.23932 0.05524 0.3509 0.0
O6 O 0.27262 0.07379 0.34842 0.0
C7 C 0.25305 0.13013 0.43788 0.0
C8 C 0.19847 0.17793 0.37641 0.0
O9 O 0.22844 0.18426 0.3828 0.0
O10 O 0.17317 0.14655 0.37611 0.0
O11 O 0.89983 0.13033 0.42729 0.0
Cd12 Cd 0.91815 0.11962 0.38743 0.0
O13 O 0.91671 0.09898 0.44498 0.0
Cd14 Cd 0.91722 0.07512 0.40885 0.0
O15 O 0.87947 0.03664 0.38093 0.0
C16 C 0.84862 0.02419 0.38696 0.0
O17 O 0.84271 0.03749 0.40729 0.0
C18 C 0.90525 0.11945 0.44653 0.0
C19 C 0.97574 0.17954 0.37396 0.0
O20 O 0.97783 0.16334 0.3914 0.0
O21 O 0.94629 0.16753 0.36292 0.0
O22 O 0.89677 0.74036 0.43299 0.0
Cd23 Cd 0.91115 0.75703 0.39111 0.0
O24 O 0.85517 0.752 0.4341 0.0
Cd25 Cd 0.85949 0.77036 0.39801 0.0
O26 O 0.82756 0.78509 0.37904 0.0
C27 C 0.79847 0.76174 0.36912 0.0
O28 O 0.7898 0.72894 0.36754 0.0
C29 C 0.87263 0.74117 0.44413 0.0
C30 C 0.97638 0.77249 0.37724 0.0
O31 O 0.97119 0.79628 0.38674 0.0
O32 O 0.95094 0.74103 0.37458 0.0
O33 O 0.16197 0.26514 0.58508 0.0
Cd34 Cd 0.15424 0.24525 0.62655 0.0
O35 O 0.10934 0.25536 0.57938 0.0
Cd36 Cd 0.0866 0.23668 0.61412 0.0
O37 O 0.03874 0.22166 0.63237 0.0
C38 C 0.03445 0.24372 0.64543 0.0
O39 O 0.06041 0.27575 0.65038 0.0
C40 C 0.13913 0.2655 0.57177 0.0
C41 C 0.20076 0.22556 0.64021 0.0
O42 O 0.17183 0.2036 0.62889 0.0
O43 O 0.2082 0.25706 0.64506 0.0
O44 O 0.76219 0.88001 0.59544 0.0
Cd45 Cd 0.78245 0.89032 0.63868 0.0
O46 O 0.81304 0.90011 0.58006 0.0
Cd47 Cd 0.83635 0.9256 0.61643 0.0
O48 O 0.84233 0.97139 0.63817 0.0
C49 C 0.81728 0.97616 0.63583 0.0
O50 O 0.78954 0.95264 0.62259 0.0
C51 C 0.78057 0.88492 0.57701 0.0
C52 C 0.79225 0.83692 0.65013 0.0
O53 O 0.76289 0.83412 0.65217 0.0
O54 O 0.81713 0.8651 0.64318 0.0
O55 O 0.07689 0.87184 0.57705 0.0
Cd56 Cd 0.06667 0.88136 0.61982 0.0
O57 O 0.11885 0.86373 0.58771 0.0
Cd58 Cd 0.12263 0.88523 0.6254 0.0
O59 O 0.14921 0.93926 0.64084 0.0
C60 C 0.18142 0.95688 0.63844 0.0
O61 O 0.19698 0.94115 0.62903 0.0
C62 C 0.09933 0.86415 0.57123 0.0
C63 C 0.00808 0.82325 0.63371 0.0
O64 O 0.00651 0.84745 0.62421 0.0
O65 O 0.03746 0.82619 0.6367 0.0
O66 O 0.88093 0.46017 0.76565 0.0
Cd67 Cd 0.86627 0.45228 0.7215 0.0
O68 O 0.93472 0.47701 0.75846 0.0
Cd69 Cd 0.92312 0.46037 0.71926 0.0
O70 O 0.89665 0.40836 0.69983 0.0
C71 C 0.91369 0.39346 0.69586 0.0
O72 O 0.94711 0.41139 0.7006 0.0
C73 C 0.91158 0.47136 0.77355 0.0
C74 C 0.86213 0.50823 0.70827 0.0
O75 O 0.89129 0.51046 0.7102 0.0
O76 O 0.83506 0.47944 0.71211 0.0
O77 O 0.56592 0.4653 0.75859 0.0
Cd78 Cd 0.58094 0.45432 0.7171 0.0
O79 O 0.57634 0.42919 0.7762 0.0
Cd80 Cd 0.58376 0.40917 0.74057 0.0
O81 O 0.54397 0.36519 0.71696 0.0
C82 C 0.51439 0.35967 0.72194 0.0
O83 O 0.51197 0.38133 0.73818 0.0
C84 C 0.56739 0.4517 0.77769 0.0
C85 C 0.64076 0.51194 0.70322 0.0
O86 O 0.61137 0.50828 0.69856 0.0
O87 O 0.6418 0.48831 0.71402 0.0
O88 O 0.57793 0.09351 0.77485 0.0
Cd89 Cd 0.5932 0.11513 0.73419 0.0
O90 O 0.52882 0.0778 0.75674 0.0
Cd91 Cd 0.47459 0.05596 0.74782 0.0
O92 O 0.44482 0.06297 0.72004 0.0
C93 C 0.43754 0.08619 0.72576 0.0
O94 O 0.44682 0.10274 0.74797 0.0
C95 C 0.5455 0.07849 0.77567 0.0
C96 C 0.65034 0.11822 0.71347 0.0
O97 O 0.65279 0.14409 0.72706 0.0
O98 O 0.62085 0.09019 0.70989 0.0
O99 O 0.83537 0.58333 0.90554 0.0
Cd100 Cd 0.82013 0.5521 0.94301 0.0
O101 O 0.7946 0.58939 0.92085 0.0
Cd102 Cd 0.75282 0.5989 0.92726 0.0
O103 O 0.70509 0.57498 0.94653 0.0
C104 C 0.68954 0.59005 0.95478 0.0
O105 O 0.70141 0.62274 0.95142 0.0
C106 C 0.81469 0.59413 0.90354 0.0
C107 C 0.86953 0.5482 0.97104 0.0
O108 O 0.85264 0.52615 0.95245 0.0
O109 O 0.864 0.57318 0.9757 0.0
O110 O 0.43175 0.21323 0.92703 0.0
Cd111 Cd 0.45096 0.22329 0.97075 0.0
O112 O 0.4833 0.23462 0.91263 0.0
Cd113 Cd 0.50421 0.25784 0.9499 0.0
O114 O 0.49593 0.29509 0.97224 0.0
C115 C 0.51691 0.32703 0.9702 0.0
O116 O 0.54416 0.33574 0.95745 0.0
C117 C 0.45087 0.2191 0.90892 0.0
C118 C 0.46181 0.17089 0.98315 0.0
O119 O 0.43248 0.16811 0.98538 0.0
O120 O 0.48639 0.19875 0.97559 0.0
O121 O 0.73811 0.20646 0.90565 0.0
Cd122 Cd 0.72252 0.21657 0.9467 0.0
O123 O 0.78066 0.20322 0.92198 0.0
Cd124 Cd 0.77808 0.22466 0.95873 0.0
O125 O 0.80492 0.2771 0.9777 0.0
C126 C 0.83426 0.28807 0.98804 0.0
O127 O 0.84479 0.26608 0.98979 0.0
C128 C 0.7627 0.20092 0.90324 0.0
C129 C 0.66697 0.15668 0.96199 0.0
O130 O 0.66293 0.17917 0.95201 0.0
O131 O 0.6974 0.16201 0.96441 0.0
O132 O 0.55954 0.79713 0.10093 0.0
Cd133 Cd 0.53353 0.78796 0.0601 0.0
O134 O 0.60159 0.79179 0.08609 0.0
Cd135 Cd 0.58298 0.78491 0.04822 0.0
O136 O 0.54934 0.73223 0.0324 0.0
C137 C 0.56434 0.7152 0.02896 0.0
O138 O 0.59804 0.7318 0.03147 0.0
C139 C 0.58673 0.79628 0.10441 0.0
C140 C 0.53365 0.8461 0.04746 0.0
O141 O 0.50814 0.82213 0.05771 0.0
O142 O 0.55984 0.84316 0.04359 0.0
O143 O 0.23271 0.79377 0.09359 0.0
Cd144 Cd 0.24677 0.78169 0.05193 0.0
O145 O 0.25437 0.76771 0.11292 0.0
Cd146 Cd 0.25698 0.74348 0.07751 0.0
O147 O 0.21719 0.70186 0.05219 0.0
C148 C 0.19136 0.67978 0.06296 0.0
O149 O 0.19171 0.68315 0.08707 0.0
C150 C 0.24045 0.78598 0.11349 0.0
C151 C 0.30481 0.83961 0.03642 0.0
O152 O 0.27478 0.83479 0.03246 0.0
O153 O 0.30742 0.81694 0.04733 0.0
O154 O 0.23098 0.41772 0.09847 0.0
Cd155 Cd 0.24265 0.42005 0.05405 0.0
O156 O 0.17738 0.40268 0.09121 0.0
Cd157 Cd 0.17694 0.4121 0.05264 0.0
O158 O 0.14304 0.42197 0.03052 0.0
C159 C 0.12911 0.4355 0.04364 0.0
O160 O 0.13808 0.44397 0.06722 0.0
C161 C 0.20146 0.40876 0.10644 0.0
C162 C 0.30995 0.44029 0.04039 0.0
O163 O 0.28994 0.41055 0.04809 0.0
O164 O 0.29846 0.46085 0.03938 0.0
O165 O 0.51365 0.93357 0.24334 0.0
Cd166 Cd 0.5144 0.92835 0.28778 0.0
O167 O 0.46635 0.92828 0.25619 0.0
Cd168 Cd 0.41972 0.92932 0.2619 0.0
O169 O 0.37013 0.90976 0.27812 0.0
C170 C 0.36439 0.9191 0.29933 0.0
O171 O 0.38993 0.94368 0.31385 0.0
C172 C 0.48678 0.93454 0.23893 0.0
C173 C 0.54841 0.89814 0.30685 0.0
O174 O 0.56484 0.9286 0.29949 0.0
O175 O 0.5155 0.88151 0.3049 0.0
O176 O 0.10097 0.54916 0.26068 0.0
Cd177 Cd 0.12519 0.56199 0.30313 0.0
O178 O 0.15076 0.5706 0.24347 0.0
Cd179 Cd 0.17657 0.59751 0.27896 0.0
O180 O 0.18175 0.64327 0.30017 0.0
C181 C 0.15593 0.64688 0.2981 0.0
O182 O 0.12817 0.62249 0.28531 0.0
C183 C 0.11815 0.55438 0.24155 0.0
C184 C 0.13306 0.5076 0.31502 0.0
O185 O 0.10524 0.50732 0.31931 0.0
O186 O 0.15748 0.53395 0.30582 0.0
O187 O 0.39123 0.5358 0.23218 0.0
Cd188 Cd 0.38266 0.55086 0.27429 0.0
O189 O 0.43888 0.54999 0.25219 0.0
Cd190 Cd 0.4917 0.56298 0.25684 0.0
O191 O 0.52383 0.60346 0.28571 0.0
C192 C 0.51585 0.62659 0.28948 0.0
O193 O 0.49432 0.62628 0.27325 0.0
C194 C 0.421 0.54007 0.2321 0.0
C195 C 0.3317 0.49269 0.29394 0.0
O196 O 0.32519 0.51316 0.28338 0.0
O197 O 0.36276 0.49959 0.29539 0.0
Eu198 Eu 0.48259 0.98465 0.97555 0.0
C199 C 0.55206 0.086 0.07631 0.0
C200 C 0.60372 0.08424 0.08402 0.0
C201 C 0.59802 0.13073 0.10467 0.0
C202 C 0.57061 0.06944 0.07244 0.0
C203 C 0.56587 0.11704 0.09227 0.0
C204 C 0.61686 0.11434 0.10059 0.0
C205 C 0.51524 0.11918 0.0826 0.0
N206 N 0.52167 0.07307 0.06323 0.0
C207 C 0.50244 0.08825 0.06719 0.0
C208 C 0.54718 0.13375 0.0951 0.0
Eu209 Eu 0.49957 0.0173 0.04123 0.0
N210 N 0.55823 0.04171 0.05497 0.0
C211 C 0.57859 0.02885 0.04755 0.0
C212 C 0.62359 0.06963 0.0775 0.0
C213 C 0.61119 0.04224 0.05891 0.0
H214 H 0.47666 0.07612 0.05899 0.0
H215 H 0.62694 0.03163 0.05309 0.0
H216 H 0.64211 0.12586 0.10971 0.0
H217 H 0.50011 0.13135 0.08521 0.0
H218 H 0.57044 0.0086 0.03264 0.0
H219 H 0.3513 0.96112 0.98016 0.0
H220 H 0.6491 0.08028 0.08594 0.0
H221 H 0.50862 0.93442 0.94783 0.0
H222 H 0.41334 0.9932 0.98863 0.0
H223 H 0.48416 0.87796 0.92235 0.0
H224 H 0.60888 0.15442 0.11705 0.0
H225 H 0.3222 0.90208 0.95815 0.0
H226 H 0.32658 0.85343 0.93668 0.0
H227 H 0.55699 0.15769 0.1071 0.0
H228 H 0.36248 0.83056 0.92126 0.0
N229 N 0.42123 0.95464 0.97 0.0
C230 C 0.40192 0.96861 0.97764 0.0
C231 C 0.34991 0.91661 0.9612 0.0
C232 C 0.36954 0.90237 0.95308 0.0
C233 C 0.36624 0.94997 0.97343 0.0
C234 C 0.40558 0.92223 0.95779 0.0
H235 H 0.42114 0.83974 0.91541 0.0
N236 N 0.46009 0.9283 0.95493 0.0
C237 C 0.46733 0.88613 0.93017 0.0
C238 C 0.42562 0.90882 0.94987 0.0
C239 C 0.48108 0.91814 0.94445 0.0
C240 C 0.43178 0.86463 0.92633 0.0
C241 C 0.41043 0.87597 0.93602 0.0
O242 O 0.51768 0.9981 0.94615 0.0
O243 O 0.51812 0.03073 0.00302 0.0
O244 O 0.48857 0.05391 0.02148 0.0
O245 O 0.47183 0.02892 0.98096 0.0
O246 O 0.54057 0.01131 0.97973 0.0
O247 O 0.4699 0.9964 0.93954 0.0
O248 O 0.46248 0.00803 0.06871 0.0
O249 O 0.46369 0.97239 0.01354 0.0
O250 O 0.49788 0.94982 0.99306 0.0
O251 O 0.51102 0.97382 0.03407 0.0
O252 O 0.44247 0.98758 0.04144 0.0
O253 O 0.50365 0.99831 0.07631 0.0
C254 C 0.54711 0.0374 0.99541 0.0
C255 C 0.50056 0.99215 0.90405 0.0
C256 C 0.50755 0.0078 0.86164 0.0
C257 C 0.49722 0.01071 0.88569 0.0
C258 C 0.5189 0.9845 0.85586 0.0
C259 C 0.51278 0.9697 0.89756 0.0
C260 C 0.52108 0.96535 0.87361 0.0
C261 C 0.47657 0.05286 0.99892 0.0
C262 C 0.49852 0.0017 0.93041 0.0
C263 C 0.3746 0.85597 0.93163 0.0
C264 C 0.35418 0.86905 0.94031 0.0
C265 C 0.4353 0.96485 0.02299 0.0
C266 C 0.47563 0.00844 0.11084 0.0
C267 C 0.47979 0.99026 0.12902 0.0
C268 C 0.47295 0.99547 0.15365 0.0
C269 C 0.46225 0.01916 0.15994 0.0
C270 C 0.46552 0.03255 0.1178 0.0
C271 C 0.45889 0.03778 0.14217 0.0
C272 C 0.5068 0.94976 0.0163 0.0
C273 C 0.47657 0.99823 0.0845 0.0
H274 H 0.48888 0.02897 0.89043 0.0
H275 H 0.52694 0.98174 0.8376 0.0
H276 H 0.51796 0.95684 0.91112 0.0
H277 H 0.53069 0.94815 0.86905 0.0
H278 H 0.48743 0.97151 0.12398 0.0
H279 H 0.45687 0.02351 0.17877 0.0
H280 H 0.46157 0.04659 0.10433 0.0
H281 H 0.45068 0.05603 0.14725 0.0
Eu282 Eu 0.01536 0.49858 0.97762 0.0
C283 C 0.91477 0.47742 0.05979 0.0
C284 C 0.91119 0.52923 0.06049 0.0
C285 C 0.86221 0.4753 0.07141 0.0
C286 C 0.92944 0.51197 0.05587 0.0
C287 C 0.88145 0.45901 0.06851 0.0
C288 C 0.87705 0.51038 0.06735 0.0
C289 C 0.89018 0.41124 0.07343 0.0
N290 N 0.9342 0.46264 0.05704 0.0
C291 C 0.92303 0.43052 0.06463 0.0
C292 C 0.86907 0.42532 0.07501 0.0
Eu293 Eu 0.98944 0.49662 0.04176 0.0
N294 N 0.96271 0.52953 0.0499 0.0
C295 C 0.98027 0.56492 0.05078 0.0
C296 C 0.92843 0.56526 0.05946 0.0
C297 C 0.96342 0.58331 0.05526 0.0
H298 H 0.93928 0.41954 0.06329 0.0
H299 H 0.97743 0.61136 0.05542 0.0
H300 H 0.86245 0.52306 0.07063 0.0
H301 H 0.88112 0.3855 0.07888 0.0
H302 H 0.00727 0.57902 0.04816 0.0
H303 H 0.02895 0.38452 0.96411 0.0
H304 H 0.9154 0.57953 0.06296 0.0
H305 H 0.06461 0.57613 0.95656 0.0
H306 H 0.99896 0.41597 0.97324 0.0
H307 H 0.12244 0.61077 0.94058 0.0
H308 H 0.83635 0.46142 0.0777 0.0
H309 H 0.08993 0.41657 0.95391 0.0
H310 H 0.14154 0.47283 0.9446 0.0
H311 H 0.84364 0.41035 0.08184 0.0
H312 H 0.16694 0.53446 0.93787 0.0
N313 N 0.04229 0.46587 0.96889 0.0
C314 C 0.02539 0.43052 0.96879 0.0
C315 C 0.0768 0.43062 0.95792 0.0
C316 C 0.09337 0.4665 0.95642 0.0
C317 C 0.04238 0.41244 0.96355 0.0
C318 C 0.07506 0.48354 0.9618 0.0
H319 H 0.15976 0.58589 0.93585 0.0
N320 N 0.07003 0.53293 0.9617 0.0
C321 C 0.11354 0.58484 0.94556 0.0
C322 C 0.08931 0.51812 0.95795 0.0
C323 C 0.08087 0.56521 0.95453 0.0
C324 C 0.13456 0.57073 0.94298 0.0
C325 C 0.12229 0.53674 0.94872 0.0
O326 O 0.99771 0.5149 0.94691 0.0
O327 O 0.98189 0.50638 0.00372 0.0
O328 O 0.94389 0.45064 0.01971 0.0
O329 O 0.96928 0.44499 0.98423 0.0
O330 O 0.00506 0.54284 0.9792 0.0
O331 O 0.99055 0.46363 0.94447 0.0
O332 O 0.00564 0.4796 0.0725 0.0
O333 O 0.02271 0.4884 0.01577 0.0
O334 O 0.06132 0.54348 0.99875 0.0
O335 O 0.0385 0.54929 0.03588 0.0
O336 O 0.99806 0.45143 0.04009 0.0
O337 O 0.01512 0.53195 0.07521 0.0
C338 C 0.98342 0.53297 0.99627 0.0
C339 C 0.9956 0.48853 0.90747 0.0
C340 C 0.97963 0.4877 0.86482 0.0
C341 C 0.97215 0.48662 0.88972 0.0
C342 C 0.01101 0.49153 0.85792 0.0
C343 C 0.02684 0.49227 0.90035 0.0
C344 C 0.03451 0.49387 0.87563 0.0
C345 C 0.94284 0.43318 0.99859 0.0
C346 C 0.98672 0.48579 0.93321 0.0
C347 C 0.14141 0.52048 0.94471 0.0
C348 C 0.12698 0.48541 0.94857 0.0
C349 C 0.01989 0.46113 0.02313 0.0
C350 C 0.0095 0.50579 0.11221 0.0
C351 C 0.03604 0.51627 0.13021 0.0
C352 C 0.02852 0.51174 0.15499 0.0
C353 C 0.99427 0.49609 0.16158 0.0
C354 C 0.97541 0.49063 0.11909 0.0
C355 C 0.96787 0.48562 0.14368 0.0
C356 C 0.06401 0.56007 0.02046 0.0
C357 C 0.01772 0.50882 0.08629 0.0
H358 H 0.94794 0.48369 0.89514 0.0
H359 H 0.01717 0.49247 0.83877 0.0
H360 H 0.0451 0.49364 0.91381 0.0
H361 H 0.05859 0.49667 0.87018 0.0
H362 H 0.06245 0.52797 0.12502 0.0
H363 H 0.98807 0.49231 0.18061 0.0
H364 H 0.95467 0.48246 0.10552 0.0
H365 H 0.9415 0.47367 0.14888 0.0
Eu366 Eu 0.51567 0.5046 0.03775 0.0
C367 C 0.43749 0.5279 0.95576 0.0
C368 C 0.38131 0.47504 0.95206 0.0
C369 C 0.38744 0.529 0.94121 0.0
C370 C 0.41691 0.49267 0.95849 0.0
C371 C 0.42312 0.54595 0.946 0.0
C372 C 0.36655 0.49366 0.94438 0.0
C373 C 0.48068 0.59497 0.94354 0.0
N374 N 0.47194 0.54379 0.96057 0.0
C375 C 0.49373 0.5764 0.95377 0.0
C376 C 0.44519 0.57996 0.94012 0.0
Eu377 Eu 0.49223 0.50906 0.97471 0.0
N378 N 0.43205 0.475 0.96504 0.0
C379 C 0.41356 0.43941 0.96313 0.0
C380 C 0.36189 0.43886 0.95203 0.0
C381 C 0.3783 0.42092 0.95689 0.0
H382 H 0.52122 0.58798 0.95641 0.0
H383 H 0.36381 0.39279 0.95588 0.0
H384 H 0.33922 0.48057 0.93967 0.0
H385 H 0.498 0.62086 0.93838 0.0
H386 H 0.42547 0.4247 0.96638 0.0
H387 H 0.63694 0.63198 0.04698 0.0
H388 H 0.33456 0.4244 0.94714 0.0
H389 H 0.4992 0.43066 0.0577 0.0
H390 H 0.57922 0.58963 0.03006 0.0
H391 H 0.52824 0.40671 0.08015 0.0
H392 H 0.3759 0.54262 0.9341 0.0
H393 H 0.66771 0.61459 0.07415 0.0
H394 H 0.66905 0.56733 0.09407 0.0
H395 H 0.43514 0.59447 0.93228 0.0
H396 H 0.64079 0.50564 0.10128 0.0
N397 N 0.575 0.54727 0.04814 0.0
C398 C 0.59118 0.58099 0.04232 0.0
C399 C 0.64176 0.59558 0.06709 0.0
C400 C 0.62582 0.56102 0.07241 0.0
C401 C 0.62451 0.60546 0.05173 0.0
C402 C 0.59198 0.53721 0.06266 0.0
H403 H 0.58886 0.44539 0.09546 0.0
N404 N 0.54397 0.4802 0.05672 0.0
C405 C 0.54241 0.4335 0.07595 0.0
C406 C 0.57648 0.50236 0.06623 0.0
C407 C 0.52625 0.4467 0.06255 0.0
C408 C 0.57652 0.45545 0.08467 0.0
C409 C 0.59378 0.49054 0.08034 0.0
O410 O 0.48431 0.48069 0.06882 0.0
O411 O 0.47376 0.49896 0.01258 0.0
O412 O 0.49155 0.55314 0.9972 0.0
O413 O 0.52083 0.55725 0.03341 0.0
O414 O 0.46052 0.45985 0.035 0.0
O415 O 0.51697 0.53652 0.07025 0.0
O416 O 0.52652 0.53 0.94508 0.0
O417 O 0.53293 0.51017 0.99922 0.0
O418 O 0.51381 0.45854 0.01498 0.0
O419 O 0.48292 0.4546 0.97934 0.0
O420 O 0.54901 0.55065 0.97847 0.0
O421 O 0.47996 0.4795 0.93805 0.0
C422 C 0.44851 0.47134 0.01933 0.0
C423 C 0.50306 0.51257 0.1082 0.0
C424 C 0.48998 0.52012 0.15053 0.0
C425 C 0.48211 0.5167 0.12521 0.0
C426 C 0.51862 0.51902 0.15876 0.0
C427 C 0.53164 0.51167 0.11675 0.0
C428 C 0.53933 0.51476 0.14188 0.0
C429 C 0.507 0.56943 0.01881 0.0
C430 C 0.49518 0.51041 0.0818 0.0
C431 C 0.62717 0.51422 0.09035 0.0
C432 C 0.64314 0.54939 0.08643 0.0
C433 C 0.55979 0.536 0.9924 0.0
C434 C 0.50865 0.51006 0.90333 0.0
C435 C 0.51793 0.49219 0.8857 0.0
C436 C 0.52417 0.50214 0.86169 0.0
C437 C 0.52077 0.52979 0.85536 0.0
C438 C 0.50513 0.53748 0.8966 0.0
C439 C 0.5112 0.54727 0.87274 0.0
C440 C 0.49644 0.44177 0.99367 0.0
C441 C 0.50813 0.5032 0.92917 0.0
H442 H 0.45993 0.5175 0.11885 0.0
H443 H 0.52483 0.5214 0.17825 0.0
H444 H 0.54815 0.50879 0.10419 0.0
H445 H 0.56145 0.51396 0.14826 0.0
H446 H 0.52128 0.47132 0.89078 0.0
H447 H 0.52566 0.53785 0.83696 0.0
H448 H 0.4985 0.55186 0.90983 0.0
H449 H 0.50888 0.56876 0.8678 0.0
Eu450 Eu 0.15113 0.3187 0.30748 0.0
C451 C 0.21547 0.42005 0.40944 0.0
C452 C 0.26859 0.42109 0.41702 0.0
C453 C 0.2596 0.46477 0.43881 0.0
C454 C 0.23551 0.40529 0.40523 0.0
C455 C 0.22746 0.4501 0.42616 0.0
C456 C 0.28012 0.45033 0.43423 0.0
C457 C 0.17528 0.44945 0.41637 0.0
N458 N 0.18517 0.40623 0.39614 0.0
C459 C 0.16446 0.41967 0.40004 0.0
C460 C 0.20698 0.46482 0.42943 0.0
Eu461 Eu 0.16589 0.35219 0.37284 0.0
N462 N 0.22446 0.37829 0.38734 0.0
C463 C 0.24605 0.36702 0.37976 0.0
C464 C 0.2899 0.40831 0.41016 0.0
C465 C 0.27877 0.38155 0.39119 0.0
H466 H 0.13916 0.40693 0.39088 0.0
H467 H 0.29553 0.37227 0.38517 0.0
H468 H 0.30534 0.46262 0.44354 0.0
H469 H 0.15894 0.46021 0.41915 0.0
H470 H 0.23879 0.34723 0.36463 0.0
H471 H 0.01819 0.29003 0.30082 0.0
H472 H 0.31549 0.41983 0.4187 0.0
H473 H 0.18202 0.26787 0.28648 0.0
H474 H 0.07956 0.32471 0.31207 0.0
H475 H 0.16025 0.20794 0.26776 0.0
H476 H 0.26916 0.48777 0.45176 0.0
H477 H 0.9923 0.22926 0.28247 0.0
H478 H 5e-05 0.18008 0.26709 0.0
H479 H 0.21531 0.4879 0.44209 0.0
H480 H 0.03841 0.15762 0.25853 0.0
N481 N 0.09025 0.28573 0.29885 0.0
C482 C 0.06959 0.29923 0.30281 0.0
C483 C 0.01976 0.24488 0.28678 0.0
C484 C 0.04087 0.23117 0.28224 0.0
C485 C 0.03427 0.27917 0.29697 0.0
C486 C 0.07654 0.25257 0.28831 0.0
H487 H 0.09789 0.16769 0.25879 0.0
N488 N 0.13227 0.26096 0.28981 0.0
C489 C 0.14244 0.21642 0.27241 0.0
C490 C 0.09813 0.23986 0.28363 0.0
C491 C 0.15462 0.25021 0.28327 0.0
C492 C 0.10726 0.19384 0.26729 0.0
C493 C 0.08465 0.20553 0.27258 0.0
O494 O 0.18397 0.32854 0.27662 0.0
O495 O 0.18604 0.36433 0.33499 0.0
O496 O 0.16055 0.39175 0.35273 0.0
O497 O 0.13936 0.36282 0.31347 0.0
O498 O 0.20921 0.3461 0.31173 0.0
O499 O 0.13906 0.33314 0.27284 0.0
O500 O 0.12688 0.33855 0.39949 0.0
O501 O 0.13038 0.30801 0.34498 0.0
O502 O 0.16696 0.28607 0.32669 0.0
O503 O 0.17947 0.3104 0.36761 0.0
O504 O 0.10909 0.32972 0.36788 0.0
O505 O 0.16816 0.32901 0.40622 0.0
C506 C 0.21532 0.37166 0.32778 0.0
C507 C 0.16309 0.32403 0.23579 0.0
C508 C 0.17299 0.34003 0.19369 0.0
C509 C 0.17038 0.34834 0.21869 0.0
C510 C 0.16789 0.30717 0.18591 0.0
C511 C 0.15766 0.29116 0.22754 0.0
C512 C 0.16008 0.28284 0.20274 0.0
C513 C 0.14685 0.38905 0.33045 0.0
C514 C 0.16558 0.33511 0.26224 0.0
C515 C 0.04918 0.18407 0.26689 0.0
C516 C 0.02734 0.19685 0.27174 0.0
C517 C 0.10197 0.30421 0.35154 0.0
C518 C 0.14097 0.33835 0.4412 0.0
C519 C 0.14769 0.32157 0.45915 0.0
C520 C 0.14188 0.3268 0.48404 0.0
C521 C 0.13038 0.34973 0.49083 0.0
C522 C 0.12994 0.36156 0.44864 0.0
C523 C 0.12486 0.36725 0.47328 0.0
C524 C 0.17692 0.2875 0.3497 0.0
C525 C 0.14095 0.32813 0.41475 0.0
H526 H 0.17482 0.3739 0.22484 0.0
H527 H 0.16972 0.30031 0.16673 0.0
H528 H 0.15219 0.27214 0.24023 0.0
H529 H 0.15617 0.25753 0.19659 0.0
H530 H 0.15604 0.3035 0.45371 0.0
H531 H 0.12564 0.35405 0.50983 0.0
H532 H 0.12412 0.37458 0.43539 0.0
H533 H 0.11593 0.3848 0.47873 0.0
Eu534 Eu 0.677 0.82737 0.31337 0.0
C535 C 0.58545 0.82109 0.38925 0.0
C536 C 0.5964 0.8795 0.39836 0.0
C537 C 0.53772 0.83059 0.39517 0.0
C538 C 0.60836 0.85657 0.39218 0.0
C539 C 0.54999 0.80772 0.392 0.0
C540 C 0.56094 0.86651 0.39843 0.0
C541 C 0.54247 0.75113 0.3943 0.0
N542 N 0.59833 0.79979 0.38736 0.0
C543 C 0.57775 0.76566 0.39198 0.0
C544 C 0.52831 0.77203 0.39347 0.0
Eu545 Eu 0.65807 0.82639 0.37906 0.0
N546 N 0.64251 0.86827 0.3923 0.0
C547 C 0.66561 0.90144 0.40235 0.0
C548 C 0.62037 0.91437 0.40601 0.0
C549 C 0.65503 0.92508 0.40883 0.0
H550 H 0.58809 0.74897 0.39341 0.0
H551 H 0.67364 0.95156 0.41601 0.0
H552 H 0.55134 0.88385 0.4025 0.0
H553 H 0.52631 0.72384 0.39691 0.0
H554 H 0.69242 0.91018 0.40553 0.0
H555 H 0.69367 0.71529 0.30323 0.0
H556 H 0.61223 0.9327 0.41108 0.0
H557 H 0.72734 0.90808 0.29523 0.0
H558 H 0.66497 0.74719 0.31538 0.0
H559 H 0.78131 0.94062 0.27428 0.0
H560 H 0.51054 0.82075 0.3968 0.0
H561 H 0.74882 0.74482 0.28303 0.0
H562 H 0.79507 0.79851 0.2663 0.0
H563 H 0.50102 0.76081 0.39564 0.0
H564 H 0.81905 0.85961 0.25885 0.0
N565 N 0.70392 0.7951 0.30383 0.0
C566 C 0.68916 0.76072 0.30719 0.0
C567 C 0.73638 0.75913 0.28864 0.0
C568 C 0.75082 0.79401 0.28433 0.0
C569 C 0.70534 0.7424 0.30007 0.0
C570 C 0.73378 0.81162 0.29221 0.0
H571 H 0.81431 0.91268 0.2619 0.0
N572 N 0.73034 0.86254 0.29565 0.0
C573 C 0.77215 0.91416 0.27813 0.0
C574 C 0.74736 0.84623 0.28805 0.0
C575 C 0.74155 0.89561 0.28993 0.0
C576 C 0.79069 0.8983 0.27119 0.0
C577 C 0.7782 0.86384 0.27582 0.0
O578 O 0.64175 0.83021 0.28814 0.0
O579 O 0.6442 0.83332 0.34169 0.0
O580 O 0.62395 0.77113 0.36052 0.0
O581 O 0.63136 0.77372 0.3183 0.0
O582 O 0.66707 0.87165 0.31795 0.0
O583 O 0.6668 0.80353 0.27489 0.0
O584 O 0.65035 0.79267 0.40784 0.0
O585 O 0.68139 0.80832 0.3489 0.0
O586 O 0.72217 0.8758 0.33366 0.0
O587 O 0.70237 0.88094 0.37232 0.0
O588 O 0.70825 0.82874 0.38224 0.0
O589 O 0.68606 0.84834 0.41472 0.0
C590 C 0.64558 0.86039 0.3352 0.0
C591 C 0.65445 0.83379 0.247 0.0
C592 C 0.64342 0.83329 0.2034 0.0
C593 C 0.64024 0.81522 0.22391 0.0
C594 C 0.6622 0.86986 0.20594 0.0
C595 C 0.67262 0.87038 0.24921 0.0
C596 C 0.67692 0.88826 0.22871 0.0
C597 C 0.61544 0.75728 0.3374 0.0
C598 C 0.64721 0.81522 0.26909 0.0
C599 C 0.79532 0.84644 0.26821 0.0
C600 C 0.78163 0.81162 0.27239 0.0
C601 C 0.7092 0.81632 0.36052 0.0
C602 C 0.66541 0.81732 0.4496 0.0
C603 C 0.69353 0.83402 0.46687 0.0
C604 C 0.68834 0.83169 0.49204 0.0
C605 C 0.65476 0.81294 0.49992 0.0
C606 C 0.63191 0.79875 0.45765 0.0
C607 C 0.6267 0.79665 0.48277 0.0
C608 C 0.72557 0.89282 0.35541 0.0
C609 C 0.67238 0.81827 0.42346 0.0
H610 H 0.62575 0.787 0.22204 0.0
H611 H 0.66511 0.88417 0.19026 0.0
H612 H 0.68241 0.88519 0.26692 0.0
H613 H 0.69094 0.91642 0.2306 0.0
H614 H 0.71951 0.84831 0.46076 0.0
H615 H 0.65034 0.81092 0.51933 0.0
H616 H 0.60992 0.78567 0.44459 0.0
H617 H 0.60086 0.78215 0.48897 0.0
Eu618 Eu 0.1824 0.84205 0.36998 0.0
C619 C 0.10056 0.85375 0.28242 0.0
C620 C 0.04623 0.7989 0.27993 0.0
C621 C 0.04982 0.84871 0.26291 0.0
C622 C 0.08155 0.81919 0.28705 0.0
C623 C 0.08493 0.86886 0.27019 0.0
C624 C 0.0305 0.81382 0.26779 0.0
C625 C 0.1402 0.92228 0.27231 0.0
N626 N 0.13426 0.87269 0.29014 0.0
C627 C 0.15453 0.9061 0.28428 0.0
C628 C 0.10516 0.90368 0.26541 0.0
Eu629 Eu 0.15756 0.84174 0.30656 0.0
N630 N 0.09741 0.80569 0.29909 0.0
C631 C 0.07968 0.7717 0.30393 0.0
C632 C 0.02774 0.76425 0.28532 0.0
C633 C 0.04457 0.75061 0.2974 0.0
H634 H 0.18186 0.92025 0.28899 0.0
H635 H 0.03055 0.72381 0.30157 0.0
H636 H 0.00342 0.79862 0.26213 0.0
H637 H 0.15625 0.94894 0.26816 0.0
H638 H 0.09241 0.76079 0.31307 0.0
H639 H 0.31251 0.96082 0.3757 0.0
H640 H 0.00055 0.74783 0.28023 0.0
H641 H 0.1594 0.76263 0.38803 0.0
H642 H 0.25371 0.92417 0.36 0.0
H643 H 0.18551 0.73561 0.40952 0.0
H644 H 0.03736 0.85984 0.25346 0.0
H645 H 0.339 0.9385 0.40232 0.0
H646 H 0.33457 0.88893 0.42213 0.0
H647 H 0.09413 0.91622 0.25604 0.0
H648 H 0.30118 0.82749 0.42965 0.0
N649 N 0.24337 0.87994 0.37885 0.0
C650 C 0.26316 0.91327 0.37235 0.0
C651 C 0.31228 0.9219 0.39589 0.0
C652 C 0.29301 0.88753 0.40153 0.0
C653 C 0.29744 0.93458 0.38091 0.0
C654 C 0.25819 0.86677 0.39267 0.0
H655 H 0.2465 0.77025 0.42426 0.0
N656 N 0.20614 0.81183 0.38778 0.0
C657 C 0.20111 0.76251 0.40576 0.0
C658 C 0.23947 0.83169 0.39656 0.0
C659 C 0.18661 0.77795 0.39314 0.0
C660 C 0.23546 0.78217 0.41412 0.0
C661 C 0.25495 0.81722 0.40993 0.0
O662 O 0.15127 0.81448 0.40009 0.0
O663 O 0.13687 0.82134 0.34236 0.0
O664 O 0.16192 0.88945 0.32902 0.0
O665 O 0.19634 0.89602 0.36267 0.0
O666 O 0.13528 0.84636 0.37484 0.0
O667 O 0.18658 0.87054 0.40512 0.0
O668 O 0.18693 0.86187 0.27479 0.0
O669 O 0.19951 0.84507 0.33114 0.0
O670 O 0.16783 0.78905 0.35042 0.0
O671 O 0.15534 0.79057 0.30912 0.0
O672 O 0.2134 0.88443 0.30907 0.0
O673 O 0.14663 0.80746 0.27214 0.0
C674 C 0.11819 0.82965 0.35472 0.0
C675 C 0.16978 0.84157 0.44104 0.0
C676 C 0.15432 0.84493 0.4832 0.0
C677 C 0.14738 0.8431 0.45794 0.0
C678 C 0.18315 0.84421 0.49148 0.0
C679 C 0.19887 0.84156 0.44959 0.0
C680 C 0.20529 0.84245 0.47468 0.0
C681 C 0.18131 0.90781 0.34918 0.0
C682 C 0.16356 0.84299 0.41498 0.0
C683 C 0.28911 0.83818 0.41923 0.0
C684 C 0.30804 0.87322 0.4151 0.0
C685 C 0.22527 0.87075 0.32296 0.0
C686 C 0.16709 0.8344 0.23474 0.0
C687 C 0.18267 0.82164 0.2184 0.0
C688 C 0.18474 0.82808 0.19363 0.0
C689 C 0.1709 0.84714 0.18523 0.0
C690 C 0.15323 0.85334 0.22615 0.0
C691 C 0.15511 0.8596 0.20145 0.0
C692 C 0.15952 0.77517 0.32727 0.0
C693 C 0.17092 0.83245 0.26103 0.0
H694 H 0.12518 0.84386 0.45158 0.0
H695 H 0.1887 0.8455 0.51097 0.0
H696 H 0.217 0.84162 0.43712 0.0
H697 H 0.2278 0.84241 0.48113 0.0
H698 H 0.19405 0.80757 0.22503 0.0
H699 H 0.17235 0.85234 0.16615 0.0
H700 H 0.14178 0.86397 0.23858 0.0
H701 H 0.14471 0.87453 0.19492 0.0
Eu702 Eu 0.81831 0.65404 0.64532 0.0
C703 C 0.89275 0.75778 0.74405 0.0
C704 C 0.94436 0.75502 0.74893 0.0
C705 C 0.94118 0.80234 0.7708 0.0
C706 C 0.91038 0.74041 0.73896 0.0
C707 C 0.90844 0.78932 0.75961 0.0
C708 C 0.95908 0.78526 0.76547 0.0
C709 C 0.85947 0.79463 0.75064 0.0
N710 N 0.86196 0.74585 0.73179 0.0
C711 C 0.84488 0.7634 0.73542 0.0
C712 C 0.89133 0.80762 0.76285 0.0
Eu713 Eu 0.83669 0.68904 0.71072 0.0
N714 N 0.89641 0.71249 0.72152 0.0
C715 C 0.91622 0.69972 0.71241 0.0
C716 C 0.96353 0.74029 0.74076 0.0
C717 C 0.94963 0.71301 0.72209 0.0
H718 H 0.81937 0.753 0.72724 0.0
H719 H 0.96482 0.7024 0.71488 0.0
H720 H 0.98496 0.79652 0.77341 0.0
H721 H 0.84587 0.80842 0.75323 0.0
H722 H 0.90705 0.67959 0.69736 0.0
H723 H 0.68829 0.63213 0.64833 0.0
H724 H 0.98969 0.75089 0.74789 0.0
H725 H 0.8433 0.59769 0.62581 0.0
H726 H 0.75043 0.66322 0.65804 0.0
H727 H 0.81766 0.53789 0.60567 0.0
H728 H 0.95341 0.82635 0.78292 0.0
H729 H 0.65895 0.57318 0.62603 0.0
H730 H 0.66274 0.52317 0.60625 0.0
H731 H 0.90262 0.83194 0.77458 0.0
H732 H 0.69767 0.4973 0.59527 0.0
N733 N 0.75734 0.62363 0.64027 0.0
C734 C 0.73847 0.63825 0.64744 0.0
C735 C 0.68652 0.58709 0.62986 0.0
C736 C 0.70575 0.57189 0.62289 0.0
C737 C 0.70297 0.62036 0.64234 0.0
C738 C 0.74158 0.591 0.62852 0.0
H739 H 0.75511 0.50225 0.59547 0.0
N740 N 0.79533 0.5949 0.62936 0.0
C741 C 0.80137 0.54813 0.61074 0.0
C742 C 0.76114 0.5762 0.62288 0.0
C743 C 0.81571 0.58179 0.62258 0.0
C744 C 0.7661 0.52818 0.60487 0.0
C745 C 0.74554 0.5422 0.61073 0.0
O746 O 0.84901 0.66083 0.61364 0.0
O747 O 0.85524 0.70058 0.67208 0.0
O748 O 0.82005 0.72146 0.69029 0.0
O749 O 0.81204 0.7011 0.64853 0.0
O750 O 0.87608 0.67931 0.64866 0.0
O751 O 0.80465 0.66633 0.61024 0.0
O752 O 0.80126 0.69031 0.73711 0.0
O753 O 0.79554 0.65274 0.68144 0.0
O754 O 0.83335 0.62135 0.66546 0.0
O755 O 0.84927 0.64638 0.70634 0.0
O756 O 0.79009 0.63702 0.71591 0.0
O757 O 0.83871 0.67591 0.74814 0.0
C758 C 0.88365 0.706 0.66402 0.0
C759 C 0.82687 0.65453 0.5731 0.0
C760 C 0.83709 0.6691 0.53079 0.0
C761 C 0.83353 0.67792 0.55544 0.0
C762 C 0.83288 0.63637 0.52384 0.0
C763 C 0.82248 0.62184 0.56571 0.0
C764 C 0.82536 0.61281 0.54119 0.0
C765 C 0.81232 0.72245 0.66684 0.0
C766 C 0.83035 0.66701 0.59928 0.0
C767 C 0.71004 0.52338 0.60463 0.0
C768 C 0.69017 0.53814 0.6108 0.0
C769 C 0.77727 0.6273 0.69386 0.0
C770 C 0.80061 0.67625 0.77957 0.0
C771 C 0.81086 0.6614 0.79709 0.0
C772 C 0.79704 0.65648 0.82055 0.0
C773 C 0.77346 0.6669 0.82633 0.0
C774 C 0.77701 0.68644 0.786 0.0
C775 C 0.76363 0.68183 0.80921 0.0
C776 C 0.8447 0.62282 0.68815 0.0
C777 C 0.81374 0.68089 0.75454 0.0
H778 H 0.83732 0.70339 0.56097 0.0
H779 H 0.83544 0.6291 0.50491 0.0
H780 H 0.8178 0.60367 0.57891 0.0
H781 H 0.82234 0.58771 0.53568 0.0
H782 H 0.82908 0.65339 0.79251 0.0
H783 H 0.76263 0.66344 0.84422 0.0
H784 H 0.76879 0.69801 0.77305 0.0
H785 H 0.74545 0.68978 0.81392 0.0
Eu786 Eu 0.34888 0.16983 0.64555 0.0
C787 C 0.25388 0.151 0.73882 0.0
C788 C 0.25672 0.20631 0.74449 0.0
C789 C 0.21214 0.15662 0.76327 0.0
C790 C 0.26997 0.18576 0.73488 0.0
C791 C 0.22483 0.13603 0.7531 0.0
C792 C 0.22801 0.19167 0.75894 0.0
C793 C 0.22342 0.08159 0.74665 0.0
N794 N 0.26625 0.13161 0.72825 0.0
C795 C 0.25226 0.09762 0.73262 0.0
C796 C 0.20949 0.10082 0.75681 0.0
Eu797 Eu 0.31848 0.16141 0.70865 0.0
N798 N 0.29688 0.19866 0.72006 0.0
C799 C 0.31162 0.23217 0.71415 0.0
C800 C 0.27205 0.24065 0.7387 0.0
C801 C 0.29944 0.25352 0.72331 0.0
H802 H 0.26361 0.08295 0.72538 0.0
H803 H 0.31119 0.27992 0.71842 0.0
H804 H 0.21759 0.2071 0.76654 0.0
H805 H 0.21215 0.05452 0.74977 0.0
H806 H 0.33256 0.24283 0.70209 0.0
H807 H 0.33252 0.0406 0.62337 0.0
H808 H 0.26253 0.25721 0.74562 0.0
H809 H 0.42103 0.24846 0.63679 0.0
H810 H 0.31372 0.08185 0.63174 0.0
H811 H 0.48237 0.27248 0.63147 0.0
H812 H 0.18989 0.14561 0.77434 0.0
H813 H 0.39428 0.06113 0.62211 0.0
H814 H 0.45471 0.11072 0.62333 0.0
H815 H 0.18717 0.08838 0.7677 0.0
H816 H 0.49541 0.17368 0.62562 0.0
N817 N 0.36439 0.12686 0.6369 0.0
C818 C 0.34086 0.09204 0.63187 0.0
C819 C 0.38623 0.07978 0.62606 0.0
C820 C 0.41019 0.11546 0.62946 0.0
C821 C 0.35139 0.06812 0.62674 0.0
C822 C 0.39841 0.1388 0.63455 0.0
H823 H 0.50594 0.23384 0.62847 0.0
N824 N 0.40944 0.19636 0.63957 0.0
C825 C 0.46574 0.24494 0.6331 0.0
C826 C 0.42148 0.17439 0.63591 0.0
C827 C 0.43083 0.23106 0.63648 0.0
C828 C 0.47888 0.22306 0.63139 0.0
C829 C 0.45667 0.1873 0.63215 0.0
O830 O 0.36512 0.19847 0.61374 0.0
O831 O 0.30886 0.17031 0.66979 0.0
O832 O 0.27517 0.11426 0.68566 0.0
O833 O 0.29655 0.11918 0.64638 0.0
O834 O 0.33066 0.20825 0.6465 0.0
O835 O 0.32376 0.1449 0.60871 0.0
O836 O 0.33078 0.13835 0.73761 0.0
O837 O 0.35581 0.15823 0.68319 0.0
O838 O 0.38604 0.21877 0.66919 0.0
O839 O 0.36429 0.21568 0.70792 0.0
O840 O 0.32757 0.11693 0.70386 0.0
O841 O 0.34978 0.19338 0.74195 0.0
C842 C 0.30641 0.19457 0.66163 0.0
C843 C 0.32775 0.18318 0.57903 0.0
C844 C 0.29941 0.17117 0.53853 0.0
C845 C 0.31106 0.16033 0.55775 0.0
C846 C 0.30322 0.20423 0.54107 0.0
C847 C 0.33252 0.21681 0.5808 0.0
C848 C 0.31969 0.2269 0.56211 0.0
C849 C 0.27213 0.10274 0.66203 0.0
C850 C 0.34301 0.17323 0.59818 0.0
C851 C 0.4685 0.16415 0.62833 0.0
C852 C 0.44533 0.12832 0.62702 0.0
C853 C 0.35184 0.12971 0.68876 0.0
C854 C 0.34245 0.1651 0.77835 0.0
C855 C 0.3707 0.17908 0.79551 0.0
C856 C 0.36528 0.17488 0.82067 0.0
C857 C 0.33165 0.15668 0.82847 0.0
C858 C 0.30905 0.14728 0.78668 0.0
C859 C 0.30371 0.14302 0.81154 0.0
C860 C 0.38754 0.23158 0.69193 0.0
C861 C 0.34815 0.16727 0.75183 0.0
H862 H 0.30871 0.13504 0.55559 0.0
H863 H 0.29455 0.21294 0.52628 0.0
H864 H 0.34571 0.23522 0.59679 0.0
H865 H 0.3231 0.2526 0.56375 0.0
H866 H 0.39668 0.1929 0.78939 0.0
H867 H 0.32708 0.15326 0.84775 0.0
H868 H 0.28702 0.13623 0.77408 0.0
H869 H 0.2778 0.12901 0.81768 0.0
Eu870 Eu 0.85046 0.17697 0.70499 0.0
C871 C 0.76998 0.18791 0.61709 0.0
C872 C 0.71477 0.13407 0.61646 0.0
C873 C 0.71867 0.18382 0.59927 0.0
C874 C 0.75054 0.15355 0.62242 0.0
C875 C 0.75423 0.20307 0.60497 0.0
C876 C 0.69898 0.14947 0.60508 0.0
C877 C 0.81031 0.25435 0.60297 0.0
N878 N 0.8043 0.20624 0.62313 0.0
C879 C 0.82475 0.23841 0.61513 0.0
C880 C 0.77482 0.23686 0.59827 0.0
Eu881 Eu 0.82705 0.1751 0.64023 0.0
N882 N 0.76642 0.13913 0.63336 0.0
C883 C 0.74795 0.10515 0.63838 0.0
C884 C 0.69582 0.09956 0.62202 0.0
C885 C 0.71251 0.08506 0.63302 0.0
H886 H 0.85236 0.25198 0.61837 0.0
H887 H 0.69809 0.05836 0.6374 0.0
H888 H 0.67158 0.13488 0.60043 0.0
H889 H 0.82658 0.28012 0.59724 0.0
H890 H 0.75994 0.09331 0.64711 0.0
H891 H 0.97984 0.29477 0.71236 0.0
H892 H 0.66833 0.08386 0.61783 0.0
H893 H 0.82529 0.0982 0.72402 0.0
H894 H 0.91861 0.26121 0.70233 0.0
H895 H 0.85138 0.06773 0.74124 0.0
H896 H 0.70619 0.19513 0.59008 0.0
H897 H 0.00937 0.2671 0.72885 0.0
H898 H 0.00604 0.21426 0.74259 0.0
H899 H 0.76368 0.24929 0.58887 0.0
H900 H 0.97157 0.15264 0.7497 0.0
N901 N 0.9112 0.21312 0.71295 0.0
C902 C 0.92993 0.24793 0.70986 0.0
C903 C 0.98188 0.25179 0.72461 0.0
C904 C 0.96284 0.21656 0.72834 0.0
C905 C 0.96532 0.26751 0.71538 0.0
C906 C 0.92705 0.19753 0.72226 0.0
H907 H 0.91431 0.09799 0.74904 0.0
N908 N 0.87328 0.1445 0.72001 0.0
C909 C 0.86756 0.09418 0.7367 0.0
C910 C 0.90767 0.16241 0.7258 0.0
C911 C 0.85296 0.11149 0.72675 0.0
C912 C 0.90306 0.11137 0.7411 0.0
C913 C 0.92351 0.14603 0.73614 0.0
O914 O 0.81761 0.15177 0.73495 0.0
O915 O 0.80594 0.15496 0.67638 0.0
O916 O 0.83801 0.22763 0.66005 0.0
O917 O 0.86042 0.23011 0.6989 0.0
O918 O 0.80311 0.17996 0.70907 0.0
O919 O 0.85984 0.20556 0.741 0.0
O920 O 0.8601 0.19898 0.61034 0.0
O921 O 0.87059 0.19626 0.66935 0.0
O922 O 0.8385 0.12487 0.6842 0.0
O923 O 0.8195 0.12206 0.64375 0.0
O924 O 0.8781 0.17947 0.63528 0.0
O925 O 0.81706 0.14521 0.60439 0.0
C926 C 0.78717 0.16354 0.68855 0.0
C927 C 0.83897 0.17511 0.77602 0.0
C928 C 0.82385 0.1773 0.81844 0.0
C929 C 0.81816 0.17861 0.79345 0.0
C930 C 0.84985 0.1714 0.82581 0.0
C931 C 0.8651 0.16956 0.78357 0.0
C932 C 0.8703 0.16745 0.8084 0.0
C933 C 0.85099 0.24383 0.68243 0.0
C934 C 0.83403 0.17963 0.75047 0.0
C935 C 0.95904 0.16489 0.74188 0.0
C936 C 0.97864 0.20001 0.73795 0.0
C937 C 0.89122 0.19073 0.65716 0.0
C938 C 0.84132 0.17505 0.56905 0.0
C939 C 0.8574 0.16321 0.55253 0.0
C940 C 0.85713 0.16791 0.52757 0.0
C941 C 0.84145 0.1853 0.51921 0.0
C942 C 0.8248 0.1915 0.56045 0.0
C943 C 0.8253 0.19701 0.53565 0.0
C944 C 0.82758 0.10906 0.66156 0.0
C945 C 0.84359 0.17078 0.59508 0.0
H946 H 0.79815 0.18329 0.78772 0.0
H947 H 0.85447 0.17022 0.84506 0.0
H948 H 0.8817 0.16736 0.77044 0.0
H949 H 0.89051 0.1632 0.8142 0.0
H950 H 0.86986 0.15007 0.559 0.0
H951 H 0.84123 0.18922 0.49995 0.0
H952 H 0.81143 0.19988 0.57267 0.0
H953 H 0.81285 0.21006 0.52912 0.0
C954 C 0.34319 0.90465 0.03885 0.0
C955 C 0.33599 0.87126 0.02945 0.0
C956 C 0.39316 0.89749 0.01308 0.0
C957 C 0.39998 0.93168 0.02098 0.0
N958 N 0.37443 0.96592 0.03422 0.0
N959 N 0.34999 0.83695 0.0013 0.0
C960 C 0.37268 0.93458 0.03148 0.0
C961 C 0.35963 0.86804 0.01449 0.0
N962 N 0.32304 0.90813 0.05595 0.0
N963 N 0.4186 0.89235 0.00544 0.0
H964 H 0.32545 0.81502 0.00167 0.0
H965 H 0.36507 0.83408 0.9881 0.0
H966 H 0.44264 0.91284 0.00316 0.0
H967 H 0.416 0.86791 0.00262 0.0
H968 H 0.32981 0.93193 0.06561 0.0
H969 H 0.30152 0.88703 0.0624 0.0
H970 H 0.354 0.96856 0.03993 0.0
H971 H 0.39422 0.98853 0.02789 0.0
C972 C 0.10945 0.47604 0.03551 0.0
C973 C 0.10266 0.44162 0.03333 0.0
C974 C 0.04175 0.41964 0.02243 0.0
C975 C 0.04873 0.45447 0.02536 0.0
N976 N 0.08576 0.51165 0.04671 0.0
N977 N 0.06348 0.38022 0.02311 0.0
C978 C 0.08174 0.4818 0.03485 0.0
C979 C 0.06908 0.41321 0.0262 0.0
N980 N 0.14258 0.50342 0.03861 0.0
N981 N 0.00861 0.39273 0.01734 0.0
H982 H 0.08262 0.37465 0.02643 0.0
H983 H 0.04054 0.35829 0.0162 0.0
H984 H 0.98818 0.39646 0.01415 0.0
H985 H 0.00063 0.36654 0.01693 0.0
H986 H 0.14911 0.52922 0.03846 0.0
H987 H 0.16363 0.50006 0.0389 0.0
H988 H 0.10851 0.53072 0.05629 0.0
H989 H 0.06528 0.51521 0.05 0.0
C990 C 0.54928 0.66143 0.04876 0.0
C991 C 0.54412 0.67703 0.0289 0.0
C992 C 0.49908 0.61961 0.01084 0.0
C993 C 0.51147 0.60444 0.02629 0.0
N994 N 0.52716 0.60864 0.06879 0.0
N995 N 0.51196 0.67101 0.99159 0.0
C996 C 0.53087 0.62461 0.04799 0.0
C997 C 0.51793 0.65621 0.0103 0.0
N998 N 0.57101 0.68163 0.06851 0.0
N999 N 0.46729 0.59964 0.99932 0.0
H1000 H 0.52562 0.69776 0.99029 0.0
H1001 H 0.49499 0.65634 0.97655 0.0
H1002 H 0.45146 0.57341 0.002 0.0
H1003 H 0.45514 0.61018 0.99022 0.0
H1004 H 0.57913 0.67179 0.08183 0.0
H1005 H 0.58165 0.70849 0.07136 0.0
H1006 H 0.53909 0.6216 0.08585 0.0
H1007 H 0.50705 0.58316 0.06961 0.0
C1008 C 0.8847 0.33765 0.97105 0.0
C1009 C 0.86005 0.32571 0.98916 0.0
C1010 C 0.88111 0.38607 0.0051 0.0
C1011 C 0.91113 0.39749 0.99156 0.0
N1012 N 0.9349 0.38452 0.95555 0.0
N1013 N 0.83416 0.33836 0.02365 0.0
C1014 C 0.91112 0.37333 0.97283 0.0
C1015 C 0.85796 0.34986 0.0062 0.0
N1016 N 0.88129 0.31544 0.95101 0.0
N1017 N 0.87269 0.40948 0.01471 0.0
H1018 H 0.8165 0.312 0.02478 0.0
H1019 H 0.83378 0.3549 0.038 0.0
H1020 H 0.88667 0.43565 0.01166 0.0
H1021 H 0.8493 0.40208 0.0225 0.0
H1022 H 0.89613 0.32322 0.93576 0.0
H1023 H 0.86154 0.28941 0.94841 0.0
H1024 H 0.94242 0.36873 0.94598 0.0
H1025 H 0.94341 0.40831 0.94888 0.0
C1026 C 0.62638 0.54676 0.94884 0.0
C1027 C 0.65559 0.5691 0.96496 0.0
C1028 C 0.61978 0.5457 0.99956 0.0
C1029 C 0.59058 0.53431 0.98413 0.0
N1030 N 0.56684 0.49963 0.94615 0.0
N1031 N 0.68068 0.58558 0.00665 0.0
C1032 C 0.59381 0.52759 0.95901 0.0
C1033 C 0.65255 0.56765 0.9907 0.0
N1034 N 0.62954 0.54441 0.92406 0.0
N1035 N 0.61697 0.52635 0.018 0.0
H1036 H 0.70546 0.60121 1.00082 0.0
H1037 H 0.67853 0.58562 0.02565 0.0
H1038 H 0.5935 0.50377 0.02019 0.0
H1039 H 0.63832 0.52973 0.02793 0.0
H1040 H 0.6085 0.53033 0.91161 0.0
H1041 H 0.65304 0.55772 0.91592 0.0
H1042 H 0.56777 0.49019 0.9283 0.0
H1043 H 0.5447 0.48388 0.95512 0.0
C1044 C 0.49191 0.14479 0.00325 0.0
C1045 C 0.46607 0.14103 0.98657 0.0
C1046 C 0.44757 0.07965 0.97594 0.0
C1047 C 0.47401 0.0834 0.99249 0.0
N1048 N 0.52963 0.1241 0.01267 0.0
N1049 N 0.42605 0.10795 0.95199 0.0
C1050 C 0.49851 0.11729 0.00365 0.0
C1051 C 0.4456 0.10927 0.97165 0.0
N1052 N 0.50997 0.17442 0.01896 0.0
N1053 N 0.42422 0.04823 0.96386 0.0
H1054 H 0.42474 0.12927 0.94744 0.0
H1055 H 0.41381 0.08676 0.93865 0.0
H1056 H 0.42922 0.02859 0.95939 0.0
H1057 H 0.40038 0.04269 0.95681 0.0
H1058 H 0.52665 0.17692 0.0332 0.0
H1059 H 0.50589 0.1952 0.01921 0.0
H1060 H 0.54948 0.14888 0.01938 0.0
H1061 H 0.53733 0.10605 0.00987 0.0
C1062 C 0.60751 0.10509 0.95444 0.0
C1063 C 0.63678 0.12579 0.97073 0.0
C1064 C 0.60228 0.09678 0.00487 0.0
C1065 C 0.57465 0.07294 0.98843 0.0
N1066 N 0.54591 0.07191 0.95139 0.0
N1067 N 0.66262 0.13938 0.01209 0.0
C1068 C 0.57573 0.08151 0.964 0.0
C1069 C 0.63456 0.12071 0.99606 0.0
N1070 N 0.61012 0.10708 0.92968 0.0
N1071 N 0.59511 0.10262 0.02803 0.0
H1072 H 0.68646 0.15888 0.00707 0.0
H1073 H 0.66245 0.13362 0.0302 0.0
H1074 H 0.56946 0.09215 0.03171 0.0
H1075 H 0.61287 0.12256 0.04078 0.0
H1076 H 0.59013 0.08992 0.91697 0.0
H1077 H 0.63323 0.12333 0.92182 0.0
H1078 H 0.54478 0.08036 0.93443 0.0
H1079 H 0.5228 0.0599 0.95991 0.0
C1080 C 0.92778 0.57436 0.99406 0.0
C1081 C 0.89566 0.54489 0.98539 0.0
C1082 C 0.92 0.50775 0.98621 0.0
C1083 C 0.95293 0.53717 0.99362 0.0
N1084 N 0.9893 0.59982 0.99748 0.0
N1085 N 0.85856 0.48296 0.98498 0.0
C1086 C 0.95713 0.57089 0.99576 0.0
C1087 C 0.89098 0.51142 0.98551 0.0
N1088 N 0.93015 0.60511 0.00196 0.0
N1089 N 0.91697 0.47765 0.97583 0.0
H1090 H 0.83684 0.48522 0.98554 0.0
H1091 H 0.85377 0.45808 0.98705 0.0
H1092 H 0.93822 0.47612 0.97096 0.0
H1093 H 0.89382 0.45642 0.96825 0.0
H1094 H 0.95236 0.62647 0.01054 0.0
H1095 H 0.90884 0.60778 0.00361 0.0
H1096 H 0.9941 0.62492 0.99658 0.0
H1097 H 0.01134 0.59842 0.99667 0.0
C1098 C 0.50173 0.36868 0.95577 0.0
C1099 C 0.50581 0.35245 0.97547 0.0
C1100 C 0.48714 0.38408 0.0033 0.0
C1101 C 0.49289 0.40726 0.98541 0.0
N1102 N 0.50167 0.41783 0.94229 0.0
N1103 N 0.5017 0.34418 0.01861 0.0
C1104 C 0.49862 0.39832 0.96089 0.0
C1105 C 0.49797 0.35969 0.99942 0.0
N1106 N 0.49884 0.35458 0.93207 0.0
N1107 N 0.46893 0.38362 0.02312 0.0
H1108 H 0.50948 0.32606 0.01644 0.0
H1109 H 0.49954 0.35141 0.03683 0.0
H1110 H 0.46132 0.36521 0.03575 0.0
H1111 H 0.45821 0.39926 0.02517 0.0
H1112 H 0.49185 0.36286 0.91706 0.0
H1113 H 0.49948 0.33196 0.9276 0.0
H1114 H 0.51241 0.41631 0.92576 0.0
H1115 H 0.49362 0.43546 0.94305 0.0
C1116 C 0.16101 0.62341 0.03581 0.0
C1117 C 0.16021 0.65154 0.04879 0.0
C1118 C 0.09841 0.62281 0.03866 0.0
C1119 C 0.09792 0.59255 0.0283 0.0
N1120 N 0.13079 0.56735 0.01191 0.0
N1121 N 0.12861 0.67836 0.06349 0.0
C1122 C 0.12983 0.59391 0.02516 0.0
C1123 C 0.12904 0.65131 0.05044 0.0
N1124 N 0.1912 0.62357 0.03554 0.0
N1125 N 0.07033 0.62563 0.03507 0.0
H1126 H 0.15087 0.70127 0.07043 0.0
H1127 H 0.1061 0.67744 0.06849 0.0
H1128 H 0.04927 0.60686 0.02401 0.0
H1129 H 0.06954 0.64801 0.04006 0.0
H1130 H 0.1931 0.60211 0.02958 0.0
H1131 H 0.21461 0.64479 0.04273 0.0
H1132 H 0.15302 0.56982 0.00474 0.0
H1133 H 0.10951 0.54276 0.00731 0.0
C1134 C 0.35031 0.42522 0.01908 0.0
C1135 C 0.34536 0.45025 0.03294 0.0
C1136 C 0.40798 0.49132 0.03486 0.0
C1137 C 0.41296 0.46507 0.02267 0.0
N1138 N 0.38844 0.40372 0.01049 0.0
N1139 N 0.37059 0.50565 0.05769 0.0
C1140 C 0.384 0.43103 0.01706 0.0
C1141 C 0.37442 0.48326 0.04136 0.0
N1142 N 0.32292 0.39638 0.00682 0.0
N1143 N 0.43565 0.5232 0.04246 0.0
H1144 H 0.34722 0.50008 0.06463 0.0
H1145 H 0.39098 0.52864 0.06639 0.0
H1146 H 0.45975 0.52676 0.04575 0.0
H1147 H 0.43427 0.54546 0.0464 0.0
H1148 H 0.32553 0.37882 0.99475 0.0
H1149 H 0.29813 0.3922 0.00638 0.0
H1150 H 0.36827 0.37788 0.00901 0.0
H1151 H 0.41248 0.40661 0.00815 0.0
C1152 C 0.52777 0.87762 0.01418 0.0
C1153 C 0.53154 0.8755 0.03955 0.0
C1154 C 0.5111 0.91555 0.04941 0.0
C1155 C 0.51041 0.92031 0.02405 0.0
N1156 N 0.49396 0.88579 0.98513 0.0
N1157 N 0.53264 0.89685 0.08159 0.0
C1158 C 0.51286 0.89652 0.00677 0.0
C1159 C 0.52504 0.89591 0.05724 0.0
N1160 N 0.53676 0.86035 0.99697 0.0
N1161 N 0.49349 0.92485 0.06536 0.0
H1162 H 0.54328 0.88296 0.08786 0.0
H1163 H 0.53176 0.91407 0.09511 0.0
H1164 H 0.47623 0.93169 0.05924 0.0
H1165 H 0.49111 0.91995 0.08374 0.0
H1166 H 0.53745 0.86413 0.97837 0.0
H1167 H 0.54631 0.84475 0.00137 0.0
H1168 H 0.49301 0.86695 0.97215 0.0
H1169 H 0.47318 0.88921 0.98338 0.0
C1170 C 0.03581 0.20826 0.35977 0.0
C1171 C 0.00691 0.21064 0.36616 0.0
C1172 C 0.03817 0.27237 0.35835 0.0
C1173 C 0.06771 0.27034 0.35222 0.0
N1174 N 0.08903 0.2322 0.34007 0.0
N1175 N 0.97876 0.24366 0.36968 0.0
C1176 C 0.06497 0.23717 0.35103 0.0
C1177 C 0.00751 0.24225 0.3647 0.0
N1178 N 0.03557 0.17806 0.36184 0.0
N1179 N 0.03962 0.3035 0.3586 0.0
H1180 H 0.95752 0.22415 0.37759 0.0
H1181 H 0.97518 0.26365 0.36533 0.0
H1182 H 0.05893 0.32487 0.35075 0.0
H1183 H 0.022 0.3087 0.36691 0.0
H1184 H 0.05781 0.17681 0.36236 0.0
H1185 H 0.01346 0.15434 0.36413 0.0
H1186 H 0.08666 0.20806 0.33589 0.0
H1187 H 0.10926 0.25151 0.332 0.0
C1188 C 0.78142 0.7979 0.34789 0.0
C1189 C 0.77279 0.77137 0.36339 0.0
C1190 C 0.7186 0.76888 0.37145 0.0
C1191 C 0.7288 0.79802 0.35786 0.0
N1192 N 0.77566 0.84622 0.33974 0.0
N1193 N 0.73676 0.73707 0.39458 0.0
C1194 C 0.76178 0.81416 0.34783 0.0
C1195 C 0.74211 0.7579 0.37621 0.0
N1196 N 0.80858 0.80776 0.33323 0.0
N1197 N 0.68697 0.75267 0.38098 0.0
H1198 H 0.75377 0.72935 0.39952 0.0
H1199 H 0.71722 0.73022 0.40674 0.0
H1200 H 0.66969 0.76098 0.37918 0.0
H1201 H 0.67653 0.72908 0.38859 0.0
H1202 H 0.81461 0.82538 0.32021 0.0
H1203 H 0.82312 0.79585 0.33248 0.0
H1204 H 0.8012 0.86105 0.33524 0.0
H1205 H 0.76226 0.85897 0.33915 0.0
C1206 C 0.23382 0.00526 0.37122 0.0
C1207 C 0.22281 0.01746 0.3521 0.0
C1208 C 0.17459 0.95862 0.34129 0.0
C1209 C 0.19074 0.94521 0.35504 0.0
N1210 N 0.22789 0.95663 0.39086 0.0
N1211 N 0.18116 0.00603 0.31962 0.0
C1212 C 0.21822 0.96878 0.37234 0.0
C1213 C 0.19272 0.99421 0.33728 0.0
N1214 N 0.2572 0.02851 0.38935 0.0
N1215 N 0.14037 0.93847 0.33525 0.0
H1216 H 0.19354 0.0322 0.31645 0.0
H1217 H 0.16074 0.98939 0.30706 0.0
H1218 H 0.12578 0.91594 0.34375 0.0
H1219 H 0.1262 0.94709 0.32643 0.0
H1220 H 0.26428 0.02153 0.40499 0.0
H1221 H 0.26797 0.05535 0.39 0.0
H1222 H 0.25171 0.97062 0.40049 0.0
H1223 H 0.21084 0.93313 0.39763 0.0
C1224 C 0.52792 0.68403 0.31222 0.0
C1225 C 0.5342 0.65609 0.30942 0.0
C1226 C 0.58918 0.69196 0.33271 0.0
C1227 C 0.58552 0.72126 0.33216 0.0
N1228 N 0.54588 0.74146 0.33209 0.0
N1229 N 0.5593 0.62923 0.33096 0.0
C1230 C 0.55313 0.71624 0.32511 0.0
C1231 C 0.56129 0.65858 0.32404 0.0
N1232 N 0.49774 0.67966 0.30329 0.0
N1233 N 0.61933 0.69589 0.34102 0.0
H1234 H 0.53703 0.60477 0.32758 0.0
H1235 H 0.57733 0.62979 0.34312 0.0
H1236 H 0.63963 0.71982 0.34829 0.0
H1237 H 0.62466 0.67594 0.33925 0.0
H1238 H 0.49424 0.7003 0.3007 0.0
H1239 H 0.47573 0.65517 0.29936 0.0
H1240 H 0.52189 0.73868 0.32932 0.0
H1241 H 0.56318 0.76405 0.34306 0.0
C1242 C 0.30436 0.90259 0.28868 0.0
C1243 C 0.32827 0.9041 0.30613 0.0
C1244 C 0.27991 0.86746 0.33109 0.0
C1245 C 0.25817 0.87239 0.31575 0.0
N1246 N 0.24772 0.86203 0.27236 0.0
N1247 N 0.33834 0.88523 0.34387 0.0
C1248 C 0.2693 0.88124 0.29209 0.0
C1249 C 0.316 0.88566 0.3274 0.0
N1250 N 0.3146 0.92097 0.26865 0.0
N1251 N 0.26559 0.84066 0.34532 0.0
H1252 H 0.36454 0.89666 0.34126 0.0
H1253 H 0.33091 0.87496 0.36068 0.0
H1254 H 0.23899 0.8247 0.3456 0.0
H1255 H 0.27973 0.83219 0.35435 0.0
H1256 H 0.29691 0.92072 0.25627 0.0
H1257 H 0.34027 0.93881 0.26583 0.0
H1258 H 0.2551 0.86549 0.25427 0.0
H1259 H 0.22584 0.83829 0.27495 0.0
C1260 C 0.16324 0.48112 0.33398 0.0
C1261 C 0.13602 0.47703 0.31867 0.0
C1262 C 0.1172 0.4155 0.30781 0.0
C1263 C 0.14466 0.41957 0.32332 0.0
N1264 N 0.20162 0.46049 0.34104 0.0
N1265 N 0.09149 0.44264 0.28682 0.0
C1266 C 0.16986 0.45362 0.33368 0.0
C1267 C 0.11392 0.44475 0.30464 0.0
N1268 N 0.18264 0.51113 0.34911 0.0
N1269 N 0.09464 0.38418 0.29531 0.0
H1270 H 0.08877 0.4635 0.28331 0.0
H1271 H 0.07742 0.42107 0.27404 0.0
H1272 H 0.10205 0.367 0.28847 0.0
H1273 H 0.06983 0.37715 0.28948 0.0
H1274 H 0.2006 0.51398 0.36245 0.0
H1275 H 0.17846 0.53188 0.34996 0.0
H1276 H 0.22201 0.48533 0.34704 0.0
H1277 H 0.20885 0.44224 0.33726 0.0
C1278 C 0.30076 0.4576 0.32868 0.0
C1279 C 0.30314 0.46121 0.30314 0.0
C1280 C 0.24322 0.41488 0.29624 0.0
C1281 C 0.24211 0.40741 0.32091 0.0
N1282 N 0.26071 0.43851 0.36039 0.0
N1283 N 0.2778 0.43912 0.26188 0.0
C1284 C 0.26881 0.4327 0.33749 0.0
C1285 C 0.27473 0.43856 0.28671 0.0
N1286 N 0.32836 0.47842 0.34471 0.0
N1287 N 0.21343 0.4043 0.28327 0.0
H1288 H 0.30091 0.45554 0.25406 0.0
H1289 H 0.25828 0.42079 0.24927 0.0
H1290 H 0.19033 0.39265 0.29181 0.0
H1291 H 0.21236 0.41202 0.266 0.0
H1292 H 0.32843 0.47421 0.36318 0.0
H1293 H 0.35182 0.4981 0.33926 0.0
H1294 H 0.27769 0.45909 0.37309 0.0
H1295 H 0.23487 0.42701 0.36394 0.0
C1296 C 0.59502 0.9064 0.33583 0.0
C1297 C 0.56775 0.88405 0.31842 0.0
C1298 C 0.58492 0.84059 0.31894 0.0
C1299 C 0.61546 0.8654 0.33357 0.0
N1300 N 0.65169 0.92448 0.35189 0.0
N1301 N 0.53222 0.82681 0.29686 0.0
C1302 C 0.62084 0.89885 0.34107 0.0
C1303 C 0.56109 0.85007 0.31123 0.0
N1304 N 0.59554 0.93436 0.34816 0.0
N1305 N 0.5805 0.8093 0.31001 0.0
H1306 H 0.51653 0.83349 0.28798 0.0
H1307 H 0.5225 0.80015 0.29447 0.0
H1308 H 0.59581 0.80025 0.31581 0.0
H1309 H 0.56283 0.79262 0.29589 0.0
H1310 H 0.61306 0.94972 0.36277 0.0
H1311 H 0.57595 0.93963 0.34576 0.0
H1312 H 0.65871 0.95053 0.35463 0.0
H1313 H 0.67101 0.91997 0.35691 0.0
C1314 C 0.18218 0.71107 0.29676 0.0
C1315 C 0.15837 0.68005 0.30693 0.0
C1316 C 0.13315 0.71058 0.32887 0.0
C1317 C 0.15898 0.74229 0.32055 0.0
N1318 N 0.21191 0.77386 0.30003 0.0
N1319 N 0.1148 0.65112 0.3357 0.0
C1320 C 0.18465 0.74286 0.30553 0.0
C1321 C 0.13491 0.68007 0.32393 0.0
N1322 N 0.20111 0.70997 0.2777 0.0
N1323 N 0.10594 0.70918 0.34034 0.0
H1324 H 0.11555 0.62836 0.33255 0.0
H1325 H 0.09973 0.65068 0.35012 0.0
H1326 H 0.10325 0.73072 0.3432 0.0
H1327 H 0.08448 0.68615 0.34467 0.0
H1328 H 0.21582 0.73105 0.26769 0.0
H1329 H 0.19972 0.68718 0.27026 0.0
H1330 H 0.23348 0.77612 0.29177 0.0
H1331 H 0.21436 0.79773 0.30554 0.0
C1332 C 0.81935 0.96021 0.37506 0.0
C1333 C 0.8199 0.99173 0.374 0.0
C1334 C 0.76087 0.95848 0.35566 0.0
C1335 C 0.75821 0.92707 0.36142 0.0
N1336 N 0.78451 0.90023 0.38185 0.0
N1337 N 0.79018 0.02121 0.36462 0.0
C1338 C 0.7874 0.92849 0.37235 0.0
C1339 C 0.79029 0.99097 0.36471 0.0
N1340 N 0.84895 0.96011 0.37925 0.0
N1341 N 0.73602 0.95738 0.34091 0.0
H1342 H 0.81199 0.04563 0.36948 0.0
H1343 H 0.768 0.0218 0.36093 0.0
H1344 H 0.71539 0.93406 0.33282 0.0
H1345 H 0.73787 0.97941 0.33457 0.0
H1346 H 0.84984 0.93737 0.37722 0.0
H1347 H 0.87313 0.98247 0.38227 0.0
H1348 H 0.80405 0.90098 0.39241 0.0
H1349 H 0.76145 0.87709 0.38153 0.0
C1350 C 0.02434 0.80601 0.3503 0.0
C1351 C 0.01051 0.78189 0.36802 0.0
C1352 C 0.06369 0.78032 0.36942 0.0
C1353 C 0.07964 0.80902 0.35506 0.0
N1354 N 0.07532 0.85211 0.33496 0.0
N1355 N 0.01795 0.74789 0.39642 0.0
C1356 C 0.05985 0.82245 0.34625 0.0
C1357 C 0.03021 0.76905 0.37788 0.0
N1358 N 0.00341 0.81285 0.33694 0.0
N1359 N 0.08074 0.76413 0.37528 0.0
H1360 H 0.99373 0.73928 0.40318 0.0
H1361 H 0.03277 0.74111 0.40642 0.0
H1362 H 0.10526 0.77205 0.36955 0.0
H1363 H 0.06948 0.74111 0.38369 0.0
H1364 H 0.01159 0.82764 0.32202 0.0
H1365 H 0.97702 0.80073 0.33909 0.0
H1366 H 0.06353 0.86587 0.3309 0.0
H1367 H 0.10063 0.86316 0.33049 0.0
C1368 C 0.16751 0.21076 0.38097 0.0
C1369 C 0.19322 0.20624 0.36962 0.0
C1370 C 0.20882 0.25563 0.34544 0.0
C1371 C 0.18279 0.25972 0.35656 0.0
N1372 N 0.13814 0.24291 0.38556 0.0
N1373 N 0.2375 0.22265 0.34043 0.0
C1374 C 0.16223 0.23763 0.37441 0.0
C1375 C 0.21374 0.22831 0.35171 0.0
N1376 N 0.14805 0.18922 0.39809 0.0
N1377 N 0.22883 0.27811 0.32896 0.0
H1378 H 0.23905 0.20065 0.34211 0.0
H1379 H 0.25561 0.23904 0.32889 0.0
H1380 H 0.22761 0.29979 0.32536 0.0
H1381 H 0.24701 0.27607 0.31875 0.0
H1382 H 0.12528 0.18668 0.4041 0.0
H1383 H 0.15428 0.17303 0.40636 0.0
H1384 H 0.12538 0.23123 0.40089 0.0
H1385 H 0.13107 0.26001 0.38007 0.0
C1386 C 0.69599 0.53695 0.68224 0.0
C1387 C 0.67305 0.54257 0.69633 0.0
C1388 C 0.71509 0.60542 0.7003 0.0
C1389 C 0.7402 0.59907 0.68981 0.0
N1390 N 0.755 0.55632 0.67573 0.0
N1391 N 0.66226 0.58202 0.72175 0.0
C1392 C 0.73072 0.56417 0.68199 0.0
C1393 C 0.6827 0.57685 0.70586 0.0
N1394 N 0.68464 0.50551 0.66899 0.0
N1395 N 0.72248 0.63884 0.70546 0.0
H1396 H 0.63878 0.56187 0.72681 0.0
H1397 H 0.66992 0.60589 0.73164 0.0
H1398 H 0.74615 0.66038 0.70216 0.0
H1399 H 0.70415 0.64504 0.71074 0.0
H1400 H 0.69967 0.5011 0.6566 0.0
H1401 H 0.65911 0.4851 0.66842 0.0
H1402 H 0.75007 0.53097 0.6728 0.0
H1403 H 0.78053 0.57524 0.6752 0.0
C1404 C 0.43455 0.13277 0.70621 0.0
C1405 C 0.421 0.0968 0.70768 0.0
C1406 C 0.36623 0.08307 0.68862 0.0
C1407 C 0.37826 0.1193 0.68936 0.0
N1408 N 0.42775 0.17817 0.69204 0.0
N1409 N 0.38038 0.03832 0.69001 0.0
C1410 C 0.41372 0.14405 0.69577 0.0
C1411 C 0.38905 0.07211 0.69539 0.0
N1412 N 0.46731 0.1562 0.71545 0.0
N1413 N 0.33236 0.05888 0.68264 0.0
H1414 H 0.3965 0.02923 0.69409 0.0
H1415 H 0.35892 0.02022 0.67877 0.0
H1416 H 0.31492 0.06511 0.67594 0.0
H1417 H 0.32114 0.03269 0.68536 0.0
H1418 H 0.47728 0.18286 0.71889 0.0
H1419 H 0.48449 0.1486 0.72036 0.0
H1420 H 0.45399 0.19639 0.69357 0.0
H1421 H 0.41391 0.1881 0.68506 0.0
C1422 C 0.89618 0.33776 0.71375 0.0
C1423 C 0.8951 0.35499 0.69351 0.0
C1424 C 0.85214 0.29892 0.67215 0.0
C1425 C 0.85993 0.28122 0.6889 0.0
N1426 N 0.87857 0.28391 0.73103 0.0
N1427 N 0.87156 0.352 0.65317 0.0
C1428 C 0.879 0.30072 0.71133 0.0
C1429 C 0.87289 0.3356 0.67267 0.0
N1430 N 0.91134 0.35667 0.73588 0.0
N1431 N 0.82219 0.2816 0.65816 0.0
H1432 H 0.88607 0.37897 0.65293 0.0
H1433 H 0.85804 0.33842 0.63659 0.0
H1434 H 0.80413 0.25578 0.65986 0.0
H1435 H 0.81321 0.29411 0.64792 0.0
H1436 H 0.91075 0.34585 0.75206 0.0
H1437 H 0.92269 0.38361 0.73879 0.0
H1438 H 0.89754 0.29485 0.74526 0.0
H1439 H 0.85745 0.2597 0.73383 0.0
C1440 C 0.19964 0.01149 0.66611 0.0
C1441 C 0.20026 0.99533 0.64292 0.0
C1442 C 0.23728 0.05297 0.62845 0.0
C1443 C 0.24087 0.06818 0.65295 0.0
N1444 N 0.20593 0.06378 0.68691 0.0
N1445 N 0.21336 0.00018 0.60014 0.0
C1446 C 0.21631 0.04814 0.66957 0.0
C1447 C 0.21724 0.01596 0.62342 0.0
N1448 N 0.18449 0.99225 0.68526 0.0
N1449 N 0.24991 0.07405 0.60991 0.0
H1450 H 0.19601 0.97375 0.59533 0.0
H1451 H 0.22703 0.01289 0.58539 0.0
H1452 H 0.25747 0.10026 0.61264 0.0
H1453 H 0.24934 0.06556 0.59156 0.0
H1454 H 0.18659 0.00368 0.70309 0.0
H1455 H 0.17259 0.96522 0.68386 0.0
H1456 H 0.18562 0.0498 0.69802 0.0
H1457 H 0.21411 0.09008 0.68743 0.0
C1458 C 0.98042 0.20368 0.66535 0.0
C1459 C 0.99943 0.23382 0.65294 0.0
C1460 C 0.94965 0.24131 0.65219 0.0
C1461 C 0.92917 0.20826 0.66101 0.0
N1462 N 0.92443 0.1554 0.67233 0.0
N1463 N 9e-05 0.27818 0.63055 0.0
C1464 C 0.94442 0.18876 0.66663 0.0
C1465 C 0.98374 0.25221 0.6456 0.0
N1466 N 0.99685 0.18956 0.67623 0.0
N1467 N 0.93618 0.26189 0.64942 0.0
H1468 H 0.0244 0.28614 0.62425 0.0
H1469 H 0.98817 0.28954 0.62225 0.0
H1470 H 0.91107 0.25441 0.65354 0.0
H1471 H 0.95085 0.2876 0.64535 0.0
H1472 H 0.98472 0.1694 0.68744 0.0
H1473 H 0.02339 0.20038 0.67611 0.0
H1474 H 0.93345 0.13848 0.67358 0.0
H1475 H 0.89831 0.14421 0.67466 0.0
C1476 C 0.8218 0.81187 0.67188 0.0
C1477 C 0.79685 0.80744 0.65411 0.0
C1478 C 0.78216 0.74723 0.64282 0.0
C1479 C 0.80804 0.75197 0.66039 0.0
N1480 N 0.86149 0.79417 0.68233 0.0
N1481 N 0.75927 0.77408 0.61847 0.0
C1482 C 0.83031 0.78581 0.67245 0.0
C1483 C 0.77848 0.77592 0.63853 0.0
N1484 N 0.83733 0.84085 0.6884 0.0
N1485 N 0.76099 0.71573 0.62989 0.0
H1486 H 0.75632 0.79458 0.61429 0.0
H1487 H 0.74881 0.75345 0.60463 0.0
H1488 H 0.76688 0.69646 0.62697 0.0
H1489 H 0.73759 0.70912 0.62134 0.0
H1490 H 0.8533 0.84358 0.70324 0.0
H1491 H 0.83169 0.86057 0.68864 0.0
H1492 H 0.88005 0.81916 0.68977 0.0
H1493 H 0.87049 0.77726 0.67935 0.0
C1494 C 0.94969 0.77072 0.62391 0.0
C1495 C 0.97646 0.79329 0.64163 0.0
C1496 C 0.9371 0.76716 0.67413 0.0
C1497 C 0.91235 0.74095 0.65695 0.0
N1498 N 0.88839 0.73595 0.61689 0.0
N1499 N 0.99609 0.81219 0.68436 0.0
C1500 C 0.9167 0.74721 0.63192 0.0
C1501 C 0.97044 0.79107 0.66697 0.0
N1502 N 0.95571 0.77131 0.59946 0.0
N1503 N 0.92629 0.77439 0.69542 0.0
H1504 H 0.02066 0.83118 0.68004 0.0
H1505 H 0.99329 0.80894 0.70305 0.0
H1506 H 0.90018 0.76093 0.6979 0.0
H1507 H 0.94147 0.79648 0.70762 0.0
H1508 H 0.93768 0.75297 0.58605 0.0
H1509 H 0.97971 0.78809 0.5929 0.0
H1510 H 0.88929 0.74194 0.5988 0.0
H1511 H 0.86452 0.72621 0.62439 0.0
C1512 C 0.22533 0.20112 0.66825 0.0
C1513 C 0.22579 0.21504 0.64584 0.0
C1514 C 0.26685 0.19904 0.63144 0.0
C1515 C 0.27316 0.19382 0.65557 0.0
N1516 N 0.23755 0.16213 0.687 0.0
N1517 N 0.24748 0.22678 0.60534 0.0
C1518 C 0.24689 0.18735 0.67185 0.0
C1519 C 0.24673 0.21392 0.62721 0.0
N1520 N 0.2044 0.20091 0.68614 0.0
N1521 N 0.27364 0.18279 0.61225 0.0
H1522 H 0.23276 0.23758 0.60126 0.0
H1523 H 0.26472 0.22877 0.59211 0.0
H1524 H 0.28242 0.1661 0.61532 0.0
H1525 H 0.26464 0.18085 0.59426 0.0
H1526 H 0.20538 0.19361 0.70359 0.0
H1527 H 0.18781 0.21016 0.68398 0.0
H1528 H 0.21506 0.15196 0.69652 0.0
H1529 H 0.25051 0.14892 0.68733 0.0
C1530 C 0.84504 0.03987 0.6319 0.0
C1531 C 0.82144 0.01041 0.64366 0.0
C1532 C 0.79914 0.04429 0.66485 0.0
C1533 C 0.82516 0.07484 0.65526 0.0
N1534 N 0.87468 0.10198 0.63061 0.0
N1535 N 0.7786 0.9849 0.67339 0.0
C1536 C 0.84863 0.07266 0.6391 0.0
C1537 C 0.79929 0.01276 0.66079 0.0
N1538 N 0.86258 0.03617 0.61274 0.0
N1539 N 0.77287 0.04478 0.67638 0.0
H1540 H 0.77789 0.96134 0.6707 0.0
H1541 H 0.76439 0.98605 0.68794 0.0
H1542 H 0.7709 0.06675 0.67789 0.0
H1543 H 0.75123 0.02274 0.68171 0.0
H1544 H 0.87685 0.05564 0.6014 0.0
H1545 H 0.86061 0.01266 0.60657 0.0
H1546 H 0.8956 0.10308 0.62208 0.0
H1547 H 0.87665 0.12593 0.63354 0.0
C1548 C 0.45865 0.32713 0.69682 0.0
C1549 C 0.48285 0.3267 0.71301 0.0
C1550 C 0.4426 0.26518 0.71789 0.0
C1551 C 0.41916 0.26491 0.70044 0.0
N1552 N 0.40478 0.2944 0.67221 0.0
N1553 N 0.50005 0.29526 0.73724 0.0
C1554 C 0.42722 0.29558 0.68955 0.0
C1555 C 0.47547 0.29569 0.723 0.0
N1556 N 0.46557 0.35793 0.68879 0.0
N1557 N 0.4333 0.23649 0.73 0.0
H1558 H 0.52365 0.31741 0.74292 0.0
H1559 H 0.49818 0.27258 0.74221 0.0
H1560 H 0.41064 0.21273 0.72586 0.0
H1561 H 0.44704 0.23656 0.74529 0.0
H1562 H 0.44768 0.36114 0.67932 0.0
H1563 H 0.48912 0.3811 0.69259 0.0
H1564 H 0.41065 0.31436 0.66128 0.0
H1565 H 0.38034 0.27264 0.66798 0.0
C1566 C 0.69664 0.14764 0.68482 0.0
C1567 C 0.68094 0.12196 0.70129 0.0
C1568 C 0.7309 0.11481 0.70111 0.0
C1569 C 0.74885 0.14464 0.68792 0.0
N1570 N 0.74993 0.19269 0.67104 0.0
N1571 N 0.68174 0.07979 0.72502 0.0
C1572 C 0.73179 0.16158 0.6805 0.0
C1573 C 0.6973 0.10447 0.70893 0.0
N1574 N 0.67788 0.15886 0.67341 0.0
N1575 N 0.74681 0.09761 0.70731 0.0
H1576 H 0.65699 0.0713 0.73067 0.0
H1577 H 0.69357 0.06868 0.73368 0.0
H1578 H 0.77234 0.10647 0.70383 0.0
H1579 H 0.7345 0.07377 0.71463 0.0
H1580 H 0.68716 0.17524 0.6594 0.0
H1581 H 0.65185 0.14882 0.67618 0.0
H1582 H 0.74015 0.20858 0.66801 0.0
H1583 H 0.7756 0.20315 0.66758 0.0
C1584 C 0.84088 0.54846 0.71951 0.0
C1585 C 0.85971 0.53886 0.70359 0.0
C1586 C 0.87395 0.58842 0.68024 0.0
C1587 C 0.85089 0.59468 0.69396 0.0
N1588 N 0.80687 0.57496 0.72368 0.0
N1589 N 0.89045 0.54675 0.66646 0.0
C1590 C 0.83293 0.57323 0.71282 0.0
C1591 C 0.87544 0.55813 0.68335 0.0
N1592 N 0.83158 0.53493 0.7416 0.0
N1593 N 0.89525 0.61191 0.66485 0.0
H1594 H 0.89126 0.52423 0.66766 0.0
H1595 H 0.89921 0.55781 0.65006 0.0
H1596 H 0.89526 0.63459 0.66237 0.0
H1597 H 0.9151 0.61059 0.65642 0.0
H1598 H 0.82085 0.54385 0.75494 0.0
H1599 H 0.83817 0.51781 0.74791 0.0
H1600 H 0.7902 0.55689 0.73516 0.0
H1601 H 0.79935 0.59185 0.71908 0.0
C1602 C 0.50485 0.9851 0.21455 0.0
C1603 C 0.48323 0.9489 0.21636 0.0
C1604 C 0.45543 0.94194 0.17586 0.0
C1605 C 0.47844 0.97792 0.17363 0.0
N1606 N 0.53023 0.03157 0.18799 0.0
N1607 N 0.44191 0.89165 0.19741 0.0
C1608 C 0.50476 0.99878 0.19213 0.0
C1609 C 0.45968 0.92689 0.19657 0.0
N1610 N 0.52457 0.00677 0.23462 0.0
N1611 N 0.42873 0.92254 0.15879 0.0
H1612 H 0.44399 0.88005 0.21254 0.0
H1613 H 0.42715 0.87387 0.18255 0.0
H1614 H 0.42499 0.93257 0.14336 0.0
H1615 H 0.409 0.89722 0.16069 0.0
H1616 H 0.53766 0.0338 0.23526 0.0
H1617 H 0.52547 0.99795 0.25148 0.0
H1618 H 0.552 0.0468 0.19974 0.0
H1619 H 0.5314 0.04224 0.17155 0.0
C1620 C 0.09661 0.5701 0.20573 0.0
C1621 C 0.10004 0.54474 0.21706 0.0
C1622 C 0.06329 0.49995 0.18403 0.0
C1623 C 0.05639 0.52417 0.17445 0.0
N1624 N 0.06714 0.58241 0.1745 0.0
N1625 N 0.08798 0.48617 0.21764 0.0
C1626 C 0.07367 0.55948 0.18463 0.0
C1627 C 0.08404 0.50987 0.20623 0.0
N1628 N 0.11497 0.60418 0.21549 0.0
N1629 N 0.05035 0.46769 0.17159 0.0
H1630 H 0.10426 0.49306 0.23328 0.0
H1631 H 0.07422 0.45952 0.21239 0.0
H1632 H 0.0351 0.45982 0.15529 0.0
H1633 H 0.05663 0.44962 0.17618 0.0
H1634 H 0.11556 0.62468 0.20766 0.0
H1635 H 0.13142 0.61264 0.23119 0.0
H1636 H 0.07664 0.60797 0.18173 0.0
H1637 H 0.05108 0.57563 0.15877 0.0
C1638 C 0.43254 0.5012 0.20394 0.0
C1639 C 0.43475 0.53363 0.20926 0.0
C1640 C 0.47063 0.55662 0.17436 0.0
C1641 C 0.46797 0.52394 0.16884 0.0
N1642 N 0.44019 0.46294 0.17427 0.0
N1643 N 0.44975 0.58988 0.19745 0.0
C1644 C 0.44691 0.4955 0.18238 0.0
C1645 C 0.45172 0.56058 0.19368 0.0
N1646 N 0.41761 0.47625 0.2199 0.0
N1647 N 0.4925 0.58424 0.16195 0.0
H1648 H 0.43686 0.59393 0.21187 0.0
H1649 H 0.45853 0.60893 0.18529 0.0
H1650 H 0.50642 0.58222 0.14747 0.0
H1651 H 0.49861 0.60967 0.16693 0.0
H1652 H 0.419 0.45383 0.21866 0.0
H1653 H 0.40555 0.47892 0.23541 0.0
H1654 H 0.42238 0.4405 0.18193 0.0
H1655 H 0.45014 0.45788 0.15836 0.0
C1656 C 0.90862 0.44796 0.81413 0.0
C1657 C 0.92092 0.47702 0.80026 0.0
C1658 C 0.9623 0.5147 0.83418 0.0
C1659 C 0.95492 0.48466 0.84551 0.0
N1660 N 0.92006 0.42277 0.84777 0.0
N1661 N 0.95644 0.53866 0.79757 0.0
C1662 C 0.92717 0.45137 0.83626 0.0
C1663 C 0.94656 0.51072 0.81065 0.0
N1664 N 0.8798 0.41702 0.8059 0.0
N1665 N 0.98432 0.54689 0.84609 0.0
H1666 H 0.94362 0.53683 0.78112 0.0
H1667 H 0.97773 0.5633 0.80253 0.0
H1668 H 0.99584 0.55024 0.86346 0.0
H1669 H 0.98899 0.57007 0.83991 0.0
H1670 H 0.86749 0.396 0.81633 0.0
H1671 H 0.86628 0.41304 0.78935 0.0
H1672 H 0.90309 0.39726 0.84048 0.0
H1673 H 0.93251 0.42439 0.86432 0.0
C1674 C 0.57856 0.47737 0.82188 0.0
C1675 C 0.55529 0.45976 0.80107 0.0
C1676 C 0.50948 0.46109 0.82384 0.0
C1677 C 0.53415 0.48387 0.84269 0.0
N1678 N 0.5926 0.51565 0.85955 0.0
N1679 N 0.49823 0.43429 0.78198 0.0
C1680 C 0.56872 0.49205 0.84194 0.0
C1681 C 0.52055 0.45124 0.80205 0.0
N1682 N 0.6102 0.48073 0.82228 0.0
N1683 N 0.47537 0.44851 0.82703 0.0
H1684 H 0.50439 0.42441 0.76625 0.0
H1685 H 0.4741 0.43151 0.78035 0.0
H1686 H 0.46653 0.45522 0.84289 0.0
H1687 H 0.45566 0.42909 0.81513 0.0
H1688 H 0.62662 0.48965 0.83799 0.0
H1689 H 0.61916 0.4722 0.80742 0.0
H1690 H 0.61887 0.52542 0.85889 0.0
H1691 H 0.58635 0.52769 0.87396 0.0
C1692 C 0.5028 0.02644 0.79693 0.0
C1693 C 0.52829 0.06236 0.7981 0.0
C1694 C 0.53302 0.06538 0.8431 0.0
C1695 C 0.50832 0.02914 0.84183 0.0
N1696 N 0.46129 0.97889 0.81895 0.0
N1697 N 0.55784 0.118 0.82233 0.0
C1698 C 0.49013 0.01113 0.81915 0.0
C1699 C 0.54008 0.0825 0.82126 0.0
N1700 N 0.49259 0.00622 0.77492 0.0
N1701 N 0.55152 0.08305 0.86458 0.0
H1702 H 0.5628 0.13114 0.80661 0.0
H1703 H 0.56428 0.13409 0.83874 0.0
H1704 H 0.54731 0.07185 0.88106 0.0
H1705 H 0.57261 0.10838 0.86572 0.0
H1706 H 0.47714 0.97919 0.77347 0.0
H1707 H 0.50172 0.01594 0.75819 0.0
H1708 H 0.44527 0.96547 0.80327 0.0
H1709 H 0.45165 0.96736 0.83514 0.0
C1710 C 0.12825 0.25762 0.52616 0.0
C1711 C 0.14708 0.27971 0.54755 0.0
C1712 C 0.17174 0.32987 0.5235 0.0
C1713 C 0.14766 0.30898 0.5037 0.0
N1714 N 0.10131 0.25253 0.48649 0.0
N1715 N 0.1854 0.33759 0.56726 0.0
C1716 C 0.12586 0.27254 0.50484 0.0
C1717 C 0.16899 0.316 0.54634 0.0
N1718 N 0.11261 0.22238 0.52634 0.0
N1719 N 0.19716 0.36311 0.52041 0.0
H1720 H 0.18442 0.32857 0.58436 0.0
H1721 H 0.19803 0.36461 0.568 0.0
H1722 H 0.20006 0.37374 0.50372 0.0
H1723 H 0.21723 0.37871 0.53346 0.0
H1724 H 0.10122 0.2049 0.51067 0.0
H1725 H 0.11414 0.21094 0.54175 0.0
H1726 H 0.08227 0.22668 0.48768 0.0
H1727 H 0.09821 0.26231 0.47072 0.0
C1728 C 0.7519 0.89595 0.543 0.0
C1729 C 0.76388 0.87521 0.55201 0.0
C1730 C 0.73409 0.83077 0.51722 0.0
C1731 C 0.71795 0.84893 0.51042 0.0
N1732 N 0.7154 0.9011 0.51296 0.0
N1733 N 0.7693 0.8247 0.54767 0.0
C1734 C 0.72832 0.88248 0.52206 0.0
C1735 C 0.75641 0.84345 0.53879 0.0
N1736 N 0.76289 0.92824 0.55485 0.0
N1737 N 0.72807 0.80159 0.50292 0.0
H1738 H 0.78662 0.83394 0.56294 0.0
H1739 H 0.76215 0.79958 0.54063 0.0
H1740 H 0.7114 0.79141 0.48727 0.0
H1741 H 0.7412 0.7887 0.50536 0.0
H1742 H 0.75497 0.94496 0.55006 0.0
H1743 H 0.7812 0.93908 0.56957 0.0
H1744 H 0.72123 0.92566 0.52031 0.0
H1745 H 0.69885 0.89208 0.49728 0.0
C1746 C 0.12176 0.88565 0.5308 0.0
C1747 C 0.10442 0.85728 0.54523 0.0
C1748 C 0.10912 0.81871 0.51335 0.0
C1749 C 0.13205 0.84826 0.50148 0.0
N1750 N 0.15948 0.90966 0.4974 0.0
N1751 N 0.079 0.79643 0.5502 0.0
C1752 C 0.13754 0.88161 0.50942 0.0
C1753 C 0.09686 0.82352 0.53628 0.0
N1754 N 0.12379 0.91653 0.53787 0.0
N1755 N 0.09926 0.78622 0.50256 0.0
H1756 H 0.06789 0.7988 0.56635 0.0
H1757 H 0.07613 0.77204 0.54631 0.0
H1758 H 0.1079 0.78222 0.48565 0.0
H1759 H 0.08046 0.76328 0.50914 0.0
H1760 H 0.13315 0.93712 0.52701 0.0
H1761 H 0.11361 0.92079 0.5539 0.0
H1762 H 0.16795 0.93534 0.50384 0.0
H1763 H 0.17068 0.90744 0.48128 0.0
C1764 C 0.63715 0.82001 0.13519 0.0
C1765 C 0.60103 0.80052 0.12979 0.0
C1766 C 0.59167 0.79682 0.17379 0.0
C1767 C 0.62776 0.81501 0.17879 0.0
N1768 N 0.68327 0.83143 0.16384 0.0
N1769 N 0.54503 0.75971 0.14375 0.0
C1770 C 0.64987 0.82194 0.15924 0.0
C1771 C 0.57852 0.78546 0.14902 0.0
N1772 N 0.65938 0.83936 0.11832 0.0
N1773 N 0.57 0.79185 0.19231 0.0
H1774 H 0.53503 0.74893 0.12587 0.0
H1775 H 0.5285 0.74621 0.15723 0.0
H1776 H 0.57846 0.79987 0.21073 0.0
H1777 H 0.54383 0.78208 0.18908 0.0
H1778 H 0.68563 0.85607 0.12252 0.0
H1779 H 0.65153 0.84249 0.10131 0.0
H1780 H 0.69975 0.83409 0.14985 0.0
H1781 H 0.69306 0.83279 0.18147 0.0
C1782 C 0.25036 0.82483 0.15219 0.0
C1783 C 0.22837 0.79381 0.13686 0.0
C1784 C 0.17992 0.78161 0.16247 0.0
C1785 C 0.20088 0.81445 0.17611 0.0
N1786 N 0.25703 0.8638 0.18832 0.0
N1787 N 0.17325 0.74144 0.12732 0.0
C1788 C 0.23656 0.83498 0.17235 0.0
C1789 C 0.19354 0.77154 0.14225 0.0
N1790 N 0.28399 0.84509 0.14672 0.0
N1791 N 0.14718 0.75996 0.16924 0.0
H1792 H 0.18282 0.73248 0.11311 0.0
H1793 H 0.1468 0.72567 0.12826 0.0
H1794 H 0.13642 0.76677 0.18385 0.0
H1795 H 0.1312 0.7344 0.16167 0.0
H1796 H 0.30112 0.86958 0.15558 0.0
H1797 H 0.29485 0.83759 0.13255 0.0
H1798 H 0.28363 0.87885 0.188 0.0
H1799 H 0.24748 0.87178 0.20313 0.0
C1800 C 0.2207 0.41109 0.15078 0.0
C1801 C 0.19375 0.40103 0.13281 0.0
C1802 C 0.15228 0.3596 0.15948 0.0
C1803 C 0.17987 0.3649 0.1751 0.0
N1804 N 0.24021 0.39776 0.18751 0.0
N1805 N 0.13361 0.38293 0.12889 0.0
C1806 C 0.21404 0.39183 0.17161 0.0
C1807 C 0.15926 0.38036 0.13967 0.0
N1808 N 0.25176 0.4406 0.14877 0.0
N1809 N 0.11939 0.33407 0.16318 0.0
H1810 H 0.13856 0.40243 0.11771 0.0
H1811 H 0.10836 0.36996 0.13421 0.0
H1812 H 0.11288 0.31985 0.17841 0.0
H1813 H 0.09892 0.3257 0.1504 0.0
H1814 H 0.27195 0.4512 0.16205 0.0
H1815 H 0.25576 0.45701 0.13517 0.0
H1816 H 0.2661 0.41421 0.18463 0.0
H1817 H 0.23605 0.38484 0.20325 0.0
C1818 C 0.79732 0.58921 0.85885 0.0
C1819 C 0.81313 0.61036 0.88131 0.0
C1820 C 0.82645 0.6623 0.86117 0.0
C1821 C 0.80676 0.6408 0.83976 0.0
N1822 N 0.77134 0.58349 0.81848 0.0
N1823 N 0.84073 0.66669 0.90467 0.0
C1824 C 0.792 0.60416 0.83853 0.0
C1825 C 0.82722 0.64685 0.88267 0.0
N1826 N 0.78715 0.55473 0.85701 0.0
N1827 N 0.84498 0.69762 0.86068 0.0
H1828 H 0.84307 0.65659 0.92055 0.0
H1829 H 0.84762 0.69265 0.90763 0.0
H1830 H 0.84528 0.7096 0.84508 0.0
H1831 H 0.86248 0.71479 0.87475 0.0
H1832 H 0.77911 0.53877 0.84049 0.0
H1833 H 0.78887 0.54241 0.87179 0.0
H1834 H 0.75637 0.55647 0.81761 0.0
H1835 H 0.76743 0.59344 0.80308 0.0
C1836 C 0.42819 0.18022 0.86927 0.0
C1837 C 0.43529 0.2112 0.88359 0.0
C1838 C 0.40447 0.22292 0.85249 0.0
C1839 C 0.39425 0.19016 0.83956 0.0
N1840 N 0.40104 0.14076 0.83197 0.0
N1841 N 0.43272 0.26341 0.88903 0.0
C1842 C 0.40782 0.16986 0.84677 0.0
C1843 C 0.42458 0.23324 0.87503 0.0
N1844 N 0.43962 0.16009 0.87789 0.0
N1845 N 0.39498 0.24405 0.84295 0.0
H1846 H 0.44884 0.27254 0.90496 0.0
H1847 H 0.42312 0.27922 0.88549 0.0
H1848 H 0.38038 0.23707 0.82642 0.0
H1849 H 0.40312 0.2693 0.85026 0.0
H1850 H 0.43344 0.13579 0.86966 0.0
H1851 H 0.45512 0.1675 0.89402 0.0
H1852 H 0.4113 0.12538 0.83506 0.0
H1853 H 0.38627 0.13286 0.81545 0.0
C1854 C 0.79209 0.22153 0.86439 0.0
C1855 C 0.77202 0.19352 0.87859 0.0
C1856 C 0.77817 0.15359 0.84882 0.0
C1857 C 0.80298 0.18252 0.83716 0.0
N1858 N 0.83437 0.24431 0.83351 0.0
N1859 N 0.74492 0.13283 0.88471 0.0
C1860 C 0.80973 0.21655 0.84454 0.0
C1861 C 0.76446 0.15941 0.87076 0.0
N1862 N 0.79456 0.25291 0.87009 0.0
N1863 N 0.76743 0.12061 0.83859 0.0
H1864 H 0.73288 0.13587 0.90011 0.0
H1865 H 0.74186 0.10825 0.88174 0.0
H1866 H 0.77689 0.11564 0.82239 0.0
H1867 H 0.74712 0.09829 0.84482 0.0
H1868 H 0.8058 0.27328 0.85901 0.0
H1869 H 0.78284 0.25774 0.88497 0.0
H1870 H 0.84334 0.27014 0.83984 0.0
H1871 H 0.84765 0.24175 0.81879 0.0
C1872 C 0.30065 0.15765 0.47114 0.0
C1873 C 0.2651 0.13533 0.46408 0.0
C1874 C 0.25216 0.12905 0.50755 0.0
C1875 C 0.28765 0.15092 0.51411 0.0
N1876 N 0.34584 0.17463 0.50233 0.0
N1877 N 0.20889 0.09111 0.47545 0.0
C1878 C 0.3119 0.16085 0.49587 0.0
C1879 C 0.2413 0.11823 0.48226 0.0
N1880 N 0.32337 0.17848 0.45504 0.0
N1881 N 0.22895 0.11947 0.52541 0.0
H1882 H 0.20068 0.08122 0.45717 0.0
H1883 H 0.19148 0.07607 0.48798 0.0
H1884 H 0.23652 0.12571 0.5441 0.0
H1885 H 0.20251 0.10688 0.52164 0.0
H1886 H 0.34886 0.19723 0.46025 0.0
H1887 H 0.31617 0.18054 0.43747 0.0
H1888 H 0.36422 0.17943 0.48944 0.0
H1889 H 0.35477 0.17758 0.52051 0.0
C1890 C 0.86359 0.106 0.47941 0.0
C1891 C 0.89611 0.12916 0.47047 0.0
C1892 C 0.90619 0.17471 0.503 0.0
C1893 C 0.87196 0.15327 0.50981 0.0
N1894 N 0.81952 0.09738 0.508 0.0
N1895 N 0.94963 0.18402 0.47378 0.0
C1896 C 0.85116 0.11835 0.49918 0.0
C1897 C 0.91801 0.16296 0.48253 0.0
N1898 N 0.8444 0.07267 0.46835 0.0
N1899 N 0.92732 0.20596 0.51644 0.0
H1900 H 0.95961 0.17537 0.45966 0.0
H1901 H 0.9657 0.21023 0.47985 0.0
H1902 H 0.91919 0.21519 0.53148 0.0
H1903 H 0.95343 0.22179 0.51397 0.0
H1904 H 0.81985 0.0543 0.4729 0.0
H1905 H 0.8534 0.06273 0.45438 0.0
H1906 H 0.80275 0.07145 0.50166 0.0
H1907 H 0.80976 0.10578 0.52241 0.0
C1908 C 0.88545 0.74127 0.48891 0.0
C1909 C 0.86227 0.72624 0.46791 0.0
C1910 C 0.81904 0.68259 0.49232 0.0
C1911 C 0.84438 0.69311 0.51155 0.0
N1912 N 0.90225 0.73263 0.5286 0.0
N1913 N 0.80755 0.68044 0.44885 0.0
C1914 C 0.87765 0.7229 0.5102 0.0
C1915 C 0.82897 0.69661 0.46947 0.0
N1916 N 0.91446 0.77334 0.48862 0.0
N1917 N 0.78543 0.65912 0.49601 0.0
H1918 H 0.81394 0.68905 0.43147 0.0
H1919 H 0.78463 0.65657 0.44853 0.0
H1920 H 0.77744 0.64874 0.51276 0.0
H1921 H 0.76526 0.65286 0.48349 0.0
H1922 H 0.93059 0.78731 0.50415 0.0
H1923 H 0.92069 0.78739 0.4733 0.0
H1924 H 0.92794 0.75176 0.52741 0.0
H1925 H 0.89747 0.72012 0.54457 0.0
loop_
_geom_bond_atom_site_label_1
_geom_bond_atom_site_label_2
_geom_bond_distance
_geom_bond_site_symmetry_2
_ccdc_geom_bond_type
O0 Cd1 2.300 . S
O0 C7 1.275 . S
Cd1 O0 2.300 . S
Cd1 O9 2.381 . S
Cd1 O10 2.378 . S
O2 Cd3 2.385 . S
O2 C7 1.255 . S
Cd3 O2 2.385 . S
Cd3 O4 2.317 . S
O4 Cd3 2.317 . S
O4 C5 1.232 . S
C5 O4 1.232 . S
C5 O6 1.218 . S
O6 C5 1.218 . S
C7 O0 1.275 . S
C7 O2 1.255 . S
C8 O9 1.258 . S
C8 O10 1.256 . S
O9 Cd1 2.381 . S
O9 C8 1.258 . S
O10 Cd1 2.378 . S
O10 C8 1.256 . S
O11 Cd12 2.300 . S
O11 C18 1.275 . S
Cd12 O11 2.300 . S
Cd12 O20 2.381 . S
Cd12 O21 2.378 . S
O13 Cd14 2.385 . S
O13 C18 1.255 . S
Cd14 O13 2.385 . S
Cd14 O15 2.317 . S
O15 Cd14 2.317 . S
O15 C16 1.232 . S
C16 O15 1.232 . S
C16 O17 1.205 1_545 S
O17 C16 1.205 1_565 S
C18 O11 1.275 . S
C18 O13 1.255 . S
C19 O20 1.258 . S
C19 O21 1.256 . S
O20 Cd12 2.381 . S
O20 C19 1.258 . S
O21 Cd12 2.378 . S
O21 C19 1.256 . S
O22 Cd23 2.300 . S
O22 C29 1.275 . S
Cd23 O22 2.300 . S
Cd23 O31 2.381 . S
Cd23 O32 2.378 . S
O24 Cd25 2.385 . S
O24 C29 1.255 . S
Cd25 O24 2.385 . S
Cd25 O26 2.317 . S
O26 Cd25 2.317 . S
O26 C27 1.232 . S
C27 O26 1.232 . S
C27 O28 1.218 . S
O28 C27 1.218 . S
C29 O22 1.275 . S
C29 O24 1.255 . S
C30 O31 1.258 . S
C30 O32 1.256 . S
O31 Cd23 2.381 . S
O31 C30 1.258 . S
O32 Cd23 2.378 . S
O32 C30 1.256 . S
O33 Cd34 2.300 . S
O33 C40 1.275 . S
Cd34 O33 2.300 . S
Cd34 O42 2.381 . S
Cd34 O43 2.378 . S
O35 Cd36 2.385 . S
O35 C40 1.255 . S
Cd36 O35 2.385 . S
Cd36 O37 2.317 . S
O37 Cd36 2.317 . S
O37 C38 1.232 . S
C38 O37 1.232 . S
C38 O39 1.218 . S
O39 C38 1.218 . S
C40 O33 1.275 . S
C40 O35 1.255 . S
C41 O42 1.258 . S
C41 O43 1.256 . S
O42 Cd34 2.381 . S
O42 C41 1.258 . S
O43 Cd34 2.378 . S
O43 C41 1.256 . S
O44 Cd45 2.300 . S
O44 C51 1.275 . S
Cd45 O44 2.300 . S
Cd45 O53 2.381 . S
Cd45 O54 2.378 . S
O46 Cd47 2.385 . S
O46 C51 1.255 . S
Cd47 O46 2.385 . S
Cd47 O48 2.317 . S
O48 Cd47 2.317 . S
O48 C49 1.232 . S
C49 O48 1.232 . S
C49 O50 1.218 1_565 S
O50 C49 1.218 1_545 S
C51 O44 1.275 . S
C51 O46 1.255 . S
C52 O53 1.258 . S
C52 O54 1.256 . S
O53 Cd45 2.381 . S
O53 C52 1.258 . S
O54 Cd45 2.378 . S
O54 C52 1.256 . S
O55 Cd56 2.300 . S
O55 C62 1.275 . S
Cd56 O55 2.300 . S
Cd56 O64 2.381 . S
Cd56 O65 2.378 . S
O57 Cd58 2.385 . S
O57 C62 1.255 . S
Cd58 O57 2.385 . S
Cd58 O59 2.317 . S
O59 Cd58 2.317 . S
O59 C60 1.232 . S
C60 O59 1.232 . S
C60 O61 1.218 . S
O61 C60 1.218 . S
C62 O55 1.275 . S
C62 O57 1.255 . S
C63 O64 1.258 . S
C63 O65 1.256 . S
O64 Cd56 2.381 . S
O64 C63 1.258 . S
O65 Cd56 2.378 . S
O65 C63 1.256 . S
O66 Cd67 2.300 . S
O66 C73 1.275 . S
Cd67 O66 2.300 . S
Cd67 O75 2.381 . S
Cd67 O76 2.378 . S
O68 Cd69 2.385 . S
O68 C73 1.255 . S
Cd69 O68 2.385 . S
Cd69 O70 2.317 . S
O70 Cd69 2.317 . S
O70 C71 1.232 . S
C71 O70 1.232 . S
C71 O72 1.218 . S
O72 C71 1.218 . S
C73 O66 1.275 . S
C73 O68 1.255 . S
C74 O75 1.258 . S
C74 O76 1.256 . S
O75 Cd67 2.381 . S
O75 C74 1.258 . S
O76 Cd67 2.378 . S
O76 C74 1.256 . S
O77 Cd78 2.300 . S
O77 C84 1.275 . S
Cd78 O77 2.300 . S
Cd78 O86 2.381 . S
Cd78 O87 2.378 . S
O79 Cd80 2.385 . S
O79 C84 1.255 . S
Cd80 O79 2.385 . S
Cd80 O81 2.317 . S
O81 Cd80 2.317 . S
O81 C82 1.232 . S
C82 O81 1.232 . S
C82 O83 1.218 . S
O83 C82 1.218 . S
C84 O77 1.275 . S
C84 O79 1.255 . S
C85 O86 1.258 . S
C85 O87 1.256 . S
O86 Cd78 2.381 . S
O86 C85 1.258 . S
O87 Cd78 2.378 . S
O87 C85 1.256 . S
O88 Cd89 2.300 . S
O88 C95 1.275 . S
Cd89 O88 2.300 . S
Cd89 O97 2.381 . S
Cd89 O98 2.378 . S
O90 Cd91 2.385 . S
O90 C95 1.255 . S
Cd91 O90 2.385 . S
Cd91 O92 2.317 . S
O92 Cd91 2.317 . S
O92 C93 1.232 . S
C93 O92 1.232 . S
C93 O94 1.218 . S
O94 C93 1.218 . S
C95 O88 1.275 . S
C95 O90 1.255 . S
C96 O97 1.258 . S
C96 O98 1.256 . S
O97 Cd89 2.381 . S
O97 C96 1.258 . S
O98 Cd89 2.378 . S
O98 C96 1.256 . S
O99 Cd100 2.300 . S
O99 C106 1.275 . S
Cd100 O99 2.300 . S
Cd100 O108 2.381 . S
Cd100 O109 2.378 . S
O101 Cd102 2.385 . S
O101 C106 1.255 . S
Cd102 O101 2.385 . S
Cd102 O103 2.317 . S
O103 Cd102 2.317 . S
O103 C104 1.232 . S
C104 O103 1.232 . S
C104 O105 1.218 . S
O105 C104 1.218 . S
C106 O99 1.275 . S
C106 O101 1.255 . S
C107 O108 1.258 . S
C107 O109 1.256 . S
O108 Cd100 2.381 . S
O108 C107 1.258 . S
O109 Cd100 2.378 . S
O109 C107 1.256 . S
O110 Cd111 2.300 . S
O110 C117 1.275 . S
Cd111 O110 2.300 . S
Cd111 O119 2.381 . S
Cd111 O120 2.378 . S
O112 Cd113 2.385 . S
O112 C117 1.255 . S
Cd113 O112 2.385 . S
Cd113 O114 2.317 . S
O114 Cd113 2.317 . S
O114 C115 1.232 . S
C115 O114 1.232 . S
C115 O116 1.218 . S
O116 C115 1.218 . S
C117 O110 1.275 . S
C117 O112 1.255 . S
C118 O119 1.258 . S
C118 O120 1.256 . S
O119 Cd111 2.381 . S
O119 C118 1.258 . S
O120 Cd111 2.378 . S
O120 C118 1.256 . S
O121 Cd122 2.300 . S
O121 C128 1.275 . S
Cd122 O121 2.300 . S
Cd122 O130 2.381 . S
Cd122 O131 2.378 . S
O123 Cd124 2.385 . S
O123 C128 1.255 . S
Cd124 O123 2.385 . S
Cd124 O125 2.317 . S
O125 Cd124 2.317 . S
O125 C126 1.232 . S
C126 O125 1.232 . S
C126 O127 1.218 . S
O127 C126 1.218 . S
C128 O121 1.275 . S
C128 O123 1.255 . S
C129 O130 1.258 . S
C129 O131 1.256 . S
O130 Cd122 2.381 . S
O130 C129 1.258 . S
O131 Cd122 2.378 . S
O131 C129 1.256 . S
O132 Cd133 2.300 . S
O132 C139 1.275 . S
Cd133 O132 2.300 . S
Cd133 O141 2.381 . S
Cd133 O142 2.378 . S
O134 Cd135 2.385 . S
O134 C139 1.255 . S
Cd135 O134 2.385 . S
Cd135 O136 2.317 . S
O136 Cd135 2.317 . S
O136 C137 1.232 . S
C137 O136 1.232 . S
C137 O138 1.218 . S
O138 C137 1.218 . S
C139 O132 1.275 . S
C139 O134 1.255 . S
C140 O141 1.258 . S
C140 O142 1.256 . S
O141 Cd133 2.381 . S
O141 C140 1.258 . S
O142 Cd133 2.378 . S
O142 C140 1.256 . S
O143 Cd144 2.300 . S
O143 C150 1.275 . S
Cd144 O143 2.300 . S
Cd144 O152 2.381 . S
Cd144 O153 2.378 . S
O145 Cd146 2.385 . S
O145 C150 1.255 . S
Cd146 O145 2.385 . S
Cd146 O147 2.317 . S
O147 Cd146 2.317 . S
O147 C148 1.232 . S
C148 O147 1.232 . S
C148 O149 1.218 . S
O149 C148 1.218 . S
C150 O143 1.275 . S
C150 O145 1.255 . S
C151 O152 1.258 . S
C151 O153 1.256 . S
O152 Cd144 2.381 . S
O152 C151 1.258 . S
O153 Cd144 2.378 . S
O153 C151 1.256 . S
O154 Cd155 2.300 . S
O154 C161 1.275 . S
Cd155 O154 2.300 . S
Cd155 O163 2.381 . S
Cd155 O164 2.378 . S
O156 Cd157 2.385 . S
O156 C161 1.255 . S
Cd157 O156 2.385 . S
Cd157 O158 2.317 . S
O158 Cd157 2.317 . S
O158 C159 1.232 . S
C159 O158 1.232 . S
C159 O160 1.218 . S
O160 C159 1.218 . S
C161 O154 1.275 . S
C161 O156 1.255 . S
C162 O163 1.258 . S
C162 O164 1.256 . S
O163 Cd155 2.381 . S
O163 C162 1.258 . S
O164 Cd155 2.378 . S
O164 C162 1.256 . S
O165 Cd166 2.300 . S
O165 C172 1.275 . S
Cd166 O165 2.300 . S
Cd166 O174 2.381 . S
Cd166 O175 2.378 . S
O167 Cd168 2.385 . S
O167 C172 1.255 . S
Cd168 O167 2.385 . S
Cd168 O169 2.317 . S
O169 Cd168 2.317 . S
O169 C170 1.232 . S
C170 O169 1.232 . S
C170 O171 1.218 . S
O171 C170 1.218 . S
C172 O165 1.275 . S
C172 O167 1.255 . S
C173 O174 1.258 . S
C173 O175 1.256 . S
O174 Cd166 2.381 . S
O174 C173 1.258 . S
O175 Cd166 2.378 . S
O175 C173 1.256 . S
O176 Cd177 2.300 . S
O176 C183 1.275 . S
Cd177 O176 2.300 . S
Cd177 O185 2.381 . S
Cd177 O186 2.378 . S
O178 Cd179 2.385 . S
O178 C183 1.255 . S
Cd179 O178 2.385 . S
Cd179 O180 2.317 . S
O180 Cd179 2.317 . S
O180 C181 1.232 . S
C181 O180 1.232 . S
C181 O182 1.218 . S
O182 C181 1.218 . S
C183 O176 1.275 . S
C183 O178 1.255 . S
C184 O185 1.258 . S
C184 O186 1.256 . S
O185 Cd177 2.381 . S
O185 C184 1.258 . S
O186 Cd177 2.378 . S
O186 C184 1.256 . S
O187 Cd188 2.300 . S
O187 C194 1.275 . S
Cd188 O187 2.300 . S
Cd188 O196 2.381 . S
Cd188 O197 2.378 . S
O189 Cd190 2.385 . S
O189 C194 1.255 . S
Cd190 O189 2.385 . S
Cd190 O191 2.317 . S
O191 Cd190 2.317 . S
O191 C192 1.232 . S
C192 O191 1.232 . S
C192 O193 1.218 . S
O193 C192 1.218 . S
C194 O187 1.275 . S
C194 O189 1.255 . S
C195 O196 1.258 . S
C195 O197 1.256 . S
O196 Cd188 2.381 . S
O196 C195 1.258 . S
O197 Cd188 2.378 . S
O197 C195 1.256 . S
Eu198 N229 2.657 . S
Eu198 N236 2.609 . S
Eu198 O242 2.558 . S
Eu198 O243 2.612 1_566 S
Eu198 O245 2.339 1_565 S
Eu198 O246 2.563 1_565 S
Eu198 O247 2.419 1_565 S
Eu198 O249 2.380 1_556 S
Eu198 O250 2.432 . S
Eu198 C262 2.848 . S
C199 C202 1.429 . S
C199 C203 1.411 . S
C199 N206 1.377 . S
C200 C202 1.420 . S
C200 C204 1.423 . S
C200 C212 1.392 . S
C201 C203 1.420 . S
C201 C204 1.351 . S
C201 H224 0.931 . S
C202 C199 1.429 . S
C202 C200 1.420 . S
C202 N210 1.362 . S
C203 C199 1.411 . S
C203 C201 1.420 . S
C203 C208 1.395 . S
C204 C200 1.423 . S
C204 C201 1.351 . S
C204 H216 0.930 . S
C205 C207 1.400 . S
C205 C208 1.386 . S
C205 H217 0.930 . S
N206 C199 1.377 . S
N206 C207 1.321 . S
N206 Eu209 2.609 . S
C207 C205 1.400 . S
C207 N206 1.321 . S
C207 H214 0.930 . S
C208 C203 1.395 . S
C208 C205 1.386 . S
C208 H227 0.930 . S
Eu209 N206 2.609 . S
Eu209 N210 2.657 . S
Eu209 O243 2.380 . S
Eu209 O244 2.432 . S
Eu209 O248 2.558 . S
Eu209 O249 2.612 1_545 S
Eu209 O251 2.339 1_545 S
Eu209 O252 2.563 1_545 S
Eu209 O253 2.419 . S
Eu209 C273 2.848 . S
N210 C202 1.362 . S
N210 Eu209 2.657 . S
N210 C211 1.334 . S
C211 N210 1.334 . S
C211 C213 1.413 . S
C211 H218 0.929 . S
C212 C200 1.392 . S
C212 C213 1.367 . S
C212 H220 0.930 . S
C213 C211 1.413 . S
C213 C212 1.367 . S
C213 H215 0.930 . S
H214 C207 0.930 . S
H215 C213 0.930 . S
H216 C204 0.930 . S
H217 C205 0.930 . S
H218 C211 0.929 . S
H219 C233 0.930 . S
H220 C212 0.930 . S
H221 C239 0.930 . S
H222 C230 0.929 . S
H223 C237 0.930 . S
H224 C201 0.931 . S
H225 C231 0.930 . S
H226 C264 0.930 . S
H227 C208 0.930 . S
H228 C263 0.931 . S
N229 Eu198 2.657 . S
N229 C230 1.334 . S
N229 C234 1.362 . S
C230 H222 0.929 . S
C230 N229 1.334 . S
C230 C233 1.413 . S
C231 H225 0.930 . S
C231 C232 1.392 . S
C231 C233 1.367 . S
C232 C231 1.392 . S
C232 C234 1.420 . S
C232 C264 1.423 . S
C233 H219 0.930 . S
C233 C230 1.413 . S
C233 C231 1.367 . S
C234 N229 1.362 . S
C234 C232 1.420 . S
C234 C238 1.429 . S
H235 C240 0.930 . S
N236 Eu198 2.609 . S
N236 C238 1.377 . S
N236 C239 1.321 . S
C237 H223 0.930 . S
C237 C239 1.400 . S
C237 C240 1.386 . S
C238 C234 1.429 . S
C238 N236 1.377 . S
C238 C241 1.411 . S
C239 H221 0.930 . S
C239 N236 1.321 . S
C239 C237 1.400 . S
C240 H235 0.930 . S
C240 C237 1.386 . S
C240 C241 1.395 . S
C241 C238 1.411 . S
C241 C240 1.395 . S
C241 C263 1.420 . S
O242 Eu198 2.558 . S
O242 C262 1.257 . S
O243 Eu198 2.612 1_544 S
O243 Eu209 2.380 . S
O243 C254 1.276 1_554 S
O244 Eu209 2.432 . S
O244 C261 1.264 1_554 S
O245 Eu198 2.339 1_545 S
O245 C261 1.254 . S
O246 Eu198 2.563 1_545 S
O246 C254 1.235 . S
O247 Eu198 2.419 1_545 S
O247 C262 1.249 1_545 S
O248 Eu209 2.558 . S
O248 C273 1.257 . S
O249 Eu198 2.380 1_554 S
O249 Eu209 2.612 1_565 S
O249 C265 1.276 . S
O250 Eu198 2.432 . S
O250 C272 1.264 1_556 S
O251 Eu209 2.339 1_565 S
O251 C272 1.254 . S
O252 Eu209 2.563 1_565 S
O252 C265 1.235 . S
O253 Eu209 2.419 . S
O253 C273 1.249 . S
C254 O243 1.276 1_556 S
C254 O246 1.235 . S
C255 C257 1.393 1_565 S
C255 C259 1.395 . S
C255 C262 1.492 . S
C256 C257 1.392 . S
C256 C258 1.386 . S
C257 C255 1.393 1_545 S
C257 C256 1.392 . S
C257 H274 0.930 . S
C258 C256 1.386 . S
C258 C260 1.395 1_545 S
C258 H275 0.930 . S
C259 C255 1.395 . S
C259 C260 1.379 . S
C259 H276 0.930 . S
C260 C258 1.395 1_565 S
C260 C259 1.379 . S
C260 H277 0.930 . S
C261 O244 1.264 1_556 S
C261 O245 1.254 . S
C262 Eu198 2.848 . S
C262 O242 1.257 . S
C262 O247 1.249 1_565 S
C262 C255 1.492 . S
C263 H228 0.931 . S
C263 C241 1.420 . S
C263 C264 1.351 . S
C264 H226 0.930 . S
C264 C232 1.423 . S
C264 C263 1.351 . S
C265 O249 1.276 . S
C265 O252 1.235 . S
C266 C267 1.393 1_545 S
C266 C270 1.395 . S
C266 C273 1.492 . S
C267 C266 1.393 1_565 S
C267 C268 1.392 . S
C267 H278 0.930 . S
C268 C267 1.392 . S
C268 C269 1.386 . S
C269 C268 1.386 . S
C269 C271 1.395 1_565 S
C269 H279 0.930 . S
C270 C266 1.395 . S
C270 C271 1.379 . S
C270 H280 0.930 . S
C271 C269 1.395 1_545 S
C271 C270 1.379 . S
C271 H281 0.930 . S
C272 O250 1.264 1_554 S
C272 O251 1.254 . S
C273 Eu209 2.848 . S
C273 O248 1.257 . S
C273 O253 1.249 . S
C273 C266 1.492 . S
H274 C257 0.930 . S
H275 C258 0.930 . S
H276 C259 0.930 . S
H277 C260 0.930 . S
H278 C267 0.930 . S
H279 C269 0.930 . S
H280 C270 0.930 . S
H281 C271 0.930 . S
Eu282 N313 2.657 . S
Eu282 N320 2.609 . S
Eu282 O326 2.558 . S
Eu282 O327 2.612 1_456 S
Eu282 O329 2.339 1_455 S
Eu282 O330 2.563 1_455 S
Eu282 O331 2.419 1_455 S
Eu282 O333 2.380 1_556 S
Eu282 O334 2.417 1_556 S
Eu282 C346 2.848 . S
C283 C286 1.429 . S
C283 C287 1.411 . S
C283 N290 1.377 . S
C284 C286 1.420 . S
C284 C288 1.423 . S
C284 C296 1.392 . S
C285 C287 1.420 . S
C285 C288 1.351 . S
C285 H308 0.931 . S
C286 C283 1.429 . S
C286 C284 1.420 . S
C286 N294 1.362 . S
C287 C283 1.411 . S
C287 C285 1.420 . S
C287 C292 1.395 . S
C288 C284 1.423 . S
C288 C285 1.351 . S
C288 H300 0.930 . S
C289 C291 1.400 . S
C289 C292 1.386 . S
C289 H301 0.930 . S
N290 C283 1.377 . S
N290 C291 1.321 . S
N290 Eu293 2.609 . S
C291 C289 1.400 . S
C291 N290 1.321 . S
C291 H298 0.930 . S
C292 C287 1.395 . S
C292 C289 1.386 . S
C292 H311 0.930 . S
Eu293 N290 2.609 . S
Eu293 N294 2.657 . S
Eu293 O327 2.380 . S
Eu293 O328 2.432 . S
Eu293 O332 2.558 . S
Eu293 O333 2.612 1_655 S
Eu293 O335 2.339 1_655 S
Eu293 O336 2.563 1_655 S
Eu293 O337 2.419 1_655 S
Eu293 C357 2.848 . S
N294 C286 1.362 . S
N294 Eu293 2.657 . S
N294 C295 1.334 . S
C295 N294 1.334 . S
C295 C297 1.413 . S
C295 H302 0.929 1_655 S
C296 C284 1.392 . S
C296 C297 1.367 . S
C296 H304 0.930 . S
C297 C295 1.413 . S
C297 C296 1.367 . S
C297 H299 0.930 . S
H298 C291 0.930 . S
H299 C297 0.930 . S
H300 C288 0.930 . S
H301 C289 0.930 . S
H302 C295 0.929 1_455 S
H303 C317 0.930 . S
H304 C296 0.930 . S
H305 C323 0.930 . S
H306 C314 0.929 1_655 S
H307 C321 0.930 . S
H308 C285 0.931 . S
H309 C315 0.930 . S
H310 C348 0.930 . S
H311 C292 0.930 . S
H312 C347 0.931 . S
N313 Eu282 2.657 . S
N313 C314 1.334 . S
N313 C318 1.362 . S
C314 H306 0.929 1_455 S
C314 N313 1.334 . S
C314 C317 1.413 . S
C315 H309 0.930 . S
C315 C316 1.392 . S
C315 C317 1.367 . S
C316 C315 1.392 . S
C316 C318 1.420 . S
C316 C348 1.423 . S
C317 H303 0.930 . S
C317 C314 1.413 . S
C317 C315 1.367 . S
C318 N313 1.362 . S
C318 C316 1.420 . S
C318 C322 1.429 . S
H319 C324 0.930 . S
N320 Eu282 2.609 . S
N320 C322 1.377 . S
N320 C323 1.321 . S
C321 H307 0.930 . S
C321 C323 1.400 . S
C321 C324 1.386 . S
C322 C318 1.429 . S
C322 N320 1.377 . S
C322 C325 1.411 . S
C323 H305 0.930 . S
C323 N320 1.321 . S
C323 C321 1.400 . S
C324 H319 0.930 . S
C324 C321 1.386 . S
C324 C325 1.395 . S
C325 C322 1.411 . S
C325 C324 1.395 . S
C325 C347 1.420 . S
O326 Eu282 2.558 . S
O326 C346 1.257 . S
O327 Eu282 2.612 1_654 S
O327 Eu293 2.380 . S
O327 C338 1.276 1_554 S
O328 Eu293 2.432 . S
O328 C345 1.264 1_554 S
O329 Eu282 2.339 1_655 S
O329 C345 1.254 . S
O330 Eu282 2.563 1_655 S
O330 C338 1.235 . S
O331 Eu282 2.419 1_655 S
O331 C346 1.249 1_655 S
O332 Eu293 2.558 . S
O332 C357 1.257 . S
O333 Eu282 2.380 1_554 S
O333 Eu293 2.612 1_455 S
O333 C349 1.276 . S
O334 Eu282 2.417 1_554 S
O334 C356 1.297 . S
O335 Eu293 2.339 1_455 S
O335 C356 1.254 . S
O336 Eu293 2.563 1_455 S
O336 C349 1.235 . S
O337 Eu293 2.419 1_455 S
O337 C357 1.249 1_455 S
C338 O327 1.276 1_556 S
C338 O330 1.235 . S
C339 C341 1.393 . S
C339 C343 1.395 1_655 S
C339 C346 1.492 1_655 S
C340 C341 1.392 . S
C340 C342 1.386 . S
C341 C339 1.393 . S
C341 C340 1.392 . S
C341 H358 0.930 . S
C342 C340 1.386 . S
C342 C344 1.395 1_655 S
C342 H359 0.930 . S
C343 C339 1.395 1_455 S
C343 C344 1.379 . S
C343 H360 0.930 . S
C344 C342 1.395 1_455 S
C344 C343 1.379 . S
C344 H361 0.930 . S
C345 O328 1.264 1_556 S
C345 O329 1.254 . S
C346 Eu282 2.848 . S
C346 O326 1.257 . S
C346 O331 1.249 1_455 S
C346 C339 1.492 1_455 S
C347 H312 0.931 . S
C347 C325 1.420 . S
C347 C348 1.351 . S
C348 H310 0.930 . S
C348 C316 1.423 . S
C348 C347 1.351 . S
C349 O333 1.276 . S
C349 O336 1.235 . S
C350 C351 1.393 . S
C350 C354 1.395 1_455 S
C350 C357 1.492 1_455 S
C351 C350 1.393 . S
C351 C352 1.392 . S
C351 H362 0.930 . S
C352 C351 1.392 . S
C352 C353 1.386 . S
C353 C352 1.386 . S
C353 C355 1.395 1_455 S
C353 H363 0.930 . S
C354 C350 1.395 1_655 S
C354 C355 1.379 . S
C354 H364 0.930 . S
C355 C353 1.395 1_655 S
C355 C354 1.379 . S
C355 H365 0.930 . S
C356 O334 1.297 . S
C356 O335 1.254 . S
C357 Eu293 2.848 . S
C357 O332 1.257 . S
C357 O337 1.249 1_655 S
C357 C350 1.492 1_655 S
H358 C341 0.930 . S
H359 C342 0.930 . S
H360 C343 0.930 . S
H361 C344 0.930 . S
H362 C351 0.930 . S
H363 C353 0.930 . S
H364 C354 0.930 . S
H365 C355 0.930 . S
Eu366 N397 2.657 . S
Eu366 N404 2.609 . S
Eu366 O410 2.558 . S
Eu366 O411 2.612 . S
Eu366 O413 2.339 . S
Eu366 O414 2.563 . S
Eu366 O415 2.419 . S
Eu366 O417 2.379 . S
Eu366 O418 2.432 . S
Eu366 C430 2.848 . S
C367 C370 1.429 . S
C367 C371 1.411 . S
C367 N374 1.377 . S
C368 C370 1.420 . S
C368 C372 1.423 . S
C368 C380 1.392 . S
C369 C371 1.420 . S
C369 C372 1.351 . S
C369 H392 0.931 . S
C370 C367 1.429 . S
C370 C368 1.420 . S
C370 N378 1.362 . S
C371 C367 1.411 . S
C371 C369 1.420 . S
C371 C376 1.395 . S
C372 C368 1.423 . S
C372 C369 1.351 . S
C372 H384 0.930 . S
C373 C375 1.400 . S
C373 C376 1.386 . S
C373 H385 0.930 . S
N374 C367 1.377 . S
N374 C375 1.321 . S
N374 Eu377 2.609 . S
C375 C373 1.400 . S
C375 N374 1.321 . S
C375 H382 0.930 . S
C376 C371 1.395 . S
C376 C373 1.386 . S
C376 H395 0.930 . S
Eu377 N374 2.609 . S
Eu377 N378 2.657 . S
Eu377 O411 2.380 1_556 S
Eu377 O412 2.432 . S
Eu377 O416 2.558 . S
Eu377 O417 2.614 1_556 S
Eu377 O419 2.339 . S
Eu377 O420 2.563 . S
Eu377 O421 2.419 . S
Eu377 C441 2.848 . S
N378 C370 1.362 . S
N378 Eu377 2.657 . S
N378 C379 1.334 . S
C379 N378 1.334 . S
C379 C381 1.413 . S
C379 H386 0.929 . S
C380 C368 1.392 . S
C380 C381 1.367 . S
C380 H388 0.930 . S
C381 C379 1.413 . S
C381 C380 1.367 . S
C381 H383 0.930 . S
H382 C375 0.930 . S
H383 C381 0.930 . S
H384 C372 0.930 . S
H385 C373 0.930 . S
H386 C379 0.929 . S
H387 C401 0.930 . S
H388 C380 0.930 . S
H389 C407 0.930 . S
H390 C398 0.929 . S
H391 C405 0.930 . S
H392 C369 0.931 . S
H393 C399 0.930 . S
H394 C432 0.930 . S
H395 C376 0.930 . S
H396 C431 0.931 . S
N397 Eu366 2.657 . S
N397 C398 1.334 . S
N397 C402 1.362 . S
C398 H390 0.929 . S
C398 N397 1.334 . S
C398 C401 1.413 . S
C399 H393 0.930 . S
C399 C400 1.392 . S
C399 C401 1.367 . S
C400 C399 1.392 . S
C400 C402 1.420 . S
C400 C432 1.423 . S
C401 H387 0.930 . S
C401 C398 1.413 . S
C401 C399 1.367 . S
C402 N397 1.362 . S
C402 C400 1.420 . S
C402 C406 1.429 . S
H403 C408 0.930 . S
N404 Eu366 2.609 . S
N404 C406 1.377 . S
N404 C407 1.321 . S
C405 H391 0.930 . S
C405 C407 1.400 . S
C405 C408 1.386 . S
C406 C402 1.429 . S
C406 N404 1.377 . S
C406 C409 1.411 . S
C407 H389 0.930 . S
C407 N404 1.321 . S
C407 C405 1.400 . S
C408 H403 0.930 . S
C408 C405 1.386 . S
C408 C409 1.395 . S
C409 C406 1.411 . S
C409 C408 1.395 . S
C409 C431 1.420 . S
O410 Eu366 2.558 . S
O410 C430 1.257 . S
O411 Eu366 2.612 . S
O411 Eu377 2.380 1_554 S
O411 C422 1.276 . S
O412 Eu377 2.432 . S
O412 C429 1.264 1_556 S
O413 Eu366 2.339 . S
O413 C429 1.254 . S
O414 Eu366 2.563 . S
O414 C422 1.235 . S
O415 Eu366 2.419 . S
O415 C430 1.249 . S
O416 Eu377 2.558 . S
O416 C441 1.257 . S
O417 Eu366 2.379 . S
O417 Eu377 2.614 1_554 S
O417 C433 1.277 1_554 S
O418 Eu366 2.432 . S
O418 C440 1.264 1_554 S
O419 Eu377 2.339 . S
O419 C440 1.254 . S
O420 Eu377 2.563 . S
O420 C433 1.235 . S
O421 Eu377 2.419 . S
O421 C441 1.249 . S
C422 O411 1.276 . S
C422 O414 1.235 . S
C423 C425 1.393 . S
C423 C427 1.395 . S
C423 C430 1.492 . S
C424 C425 1.392 . S
C424 C426 1.386 . S
C425 C423 1.393 . S
C425 C424 1.392 . S
C425 H442 0.930 . S
C426 C424 1.386 . S
C426 C428 1.395 . S
C426 H443 0.930 . S
C427 C423 1.395 . S
C427 C428 1.379 . S
C427 H444 0.930 . S
C428 C426 1.395 . S
C428 C427 1.379 . S
C428 H445 0.930 . S
C429 O412 1.264 1_554 S
C429 O413 1.254 . S
C430 Eu366 2.848 . S
C430 O410 1.257 . S
C430 O415 1.249 . S
C430 C423 1.492 . S
C431 H396 0.931 . S
C431 C409 1.420 . S
C431 C432 1.351 . S
C432 H394 0.930 . S
C432 C400 1.423 . S
C432 C431 1.351 . S
C433 O417 1.277 1_556 S
C433 O420 1.235 . S
C434 C435 1.393 . S
C434 C438 1.395 . S
C434 C441 1.492 . S
C435 C434 1.393 . S
C435 C436 1.392 . S
C435 H446 0.930 . S
C436 C435 1.392 . S
C436 C437 1.386 . S
C437 C436 1.386 . S
C437 C439 1.395 . S
C437 H447 0.930 . S
C438 C434 1.395 . S
C438 C439 1.379 . S
C438 H448 0.930 . S
C439 C437 1.395 . S
C439 C438 1.379 . S
C439 H449 0.930 . S
C440 O418 1.264 1_556 S
C440 O419 1.254 . S
C441 Eu377 2.848 . S
C441 O416 1.257 . S
C441 O421 1.249 . S
C441 C434 1.492 . S
H442 C425 0.930 . S
H443 C426 0.930 . S
H444 C427 0.930 . S
H445 C428 0.930 . S
H446 C435 0.930 . S
H447 C437 0.930 . S
H448 C438 0.930 . S
H449 C439 0.930 . S
Eu450 N481 2.657 . S
Eu450 N488 2.609 . S
Eu450 O494 2.558 . S
Eu450 O495 2.612 . S
Eu450 O497 2.339 . S
Eu450 O498 2.563 . S
Eu450 O499 2.419 . S
Eu450 O501 2.380 . S
Eu450 O502 2.432 . S
Eu450 C514 2.848 . S
C451 C454 1.429 . S
C451 C455 1.411 . S
C451 N458 1.377 . S
C452 C454 1.420 . S
C452 C456 1.423 . S
C452 C464 1.392 . S
C453 C455 1.420 . S
C453 C456 1.351 . S
C453 H476 0.931 . S
C454 C451 1.429 . S
C454 C452 1.420 . S
C454 N462 1.362 . S
C455 C451 1.411 . S
C455 C453 1.420 . S
C455 C460 1.395 . S
C456 C452 1.423 . S
C456 C453 1.351 . S
C456 H468 0.930 . S
C457 C459 1.400 . S
C457 C460 1.386 . S
C457 H469 0.930 . S
N458 C451 1.377 . S
N458 C459 1.321 . S
N458 Eu461 2.609 . S
C459 C457 1.400 . S
C459 N458 1.321 . S
C459 H466 0.930 . S
C460 C455 1.395 . S
C460 C457 1.386 . S
C460 H479 0.930 . S
Eu461 N458 2.609 . S
Eu461 N462 2.657 . S
Eu461 O495 2.380 . S
Eu461 O496 2.432 . S
Eu461 O500 2.558 . S
Eu461 O501 2.612 . S
Eu461 O503 2.339 . S
Eu461 O504 2.563 . S
Eu461 O505 2.419 . S
Eu461 C525 2.848 . S
N462 C454 1.362 . S
N462 Eu461 2.657 . S
N462 C463 1.334 . S
C463 N462 1.334 . S
C463 C465 1.413 . S
C463 H470 0.929 . S
C464 C452 1.392 . S
C464 C465 1.367 . S
C464 H472 0.930 . S
C465 C463 1.413 . S
C465 C464 1.367 . S
C465 H467 0.930 . S
H466 C459 0.930 . S
H467 C465 0.930 . S
H468 C456 0.930 . S
H469 C457 0.930 . S
H470 C463 0.929 . S
H471 C485 0.930 . S
H472 C464 0.930 . S
H473 C491 0.930 . S
H474 C482 0.929 . S
H475 C489 0.930 . S
H476 C453 0.931 . S
H477 C483 0.930 1_655 S
H478 C516 0.930 1_655 S
H479 C460 0.930 . S
H480 C515 0.931 . S
N481 Eu450 2.657 . S
N481 C482 1.334 . S
N481 C486 1.362 . S
C482 H474 0.929 . S
C482 N481 1.334 . S
C482 C485 1.413 . S
C483 H477 0.930 1_455 S
C483 C484 1.392 . S
C483 C485 1.367 . S
C484 C483 1.392 . S
C484 C486 1.420 . S
C484 C516 1.423 . S
C485 H471 0.930 . S
C485 C482 1.413 . S
C485 C483 1.367 . S
C486 N481 1.362 . S
C486 C484 1.420 . S
C486 C490 1.429 . S
H487 C492 0.930 . S
N488 Eu450 2.609 . S
N488 C490 1.377 . S
N488 C491 1.321 . S
C489 H475 0.930 . S
C489 C491 1.400 . S
C489 C492 1.386 . S
C490 C486 1.429 . S
C490 N488 1.377 . S
C490 C493 1.411 . S
C491 H473 0.930 . S
C491 N488 1.321 . S
C491 C489 1.400 . S
C492 H487 0.930 . S
C492 C489 1.386 . S
C492 C493 1.395 . S
C493 C490 1.411 . S
C493 C492 1.395 . S
C493 C515 1.420 . S
O494 Eu450 2.558 . S
O494 C514 1.257 . S
O495 Eu450 2.612 . S
O495 Eu461 2.380 . S
O495 C506 1.276 . S
O496 Eu461 2.432 . S
O496 C513 1.264 . S
O497 Eu450 2.339 . S
O497 C513 1.254 . S
O498 Eu450 2.563 . S
O498 C506 1.235 . S
O499 Eu450 2.419 . S
O499 C514 1.249 . S
O500 Eu461 2.558 . S
O500 C525 1.257 . S
O501 Eu450 2.380 . S
O501 Eu461 2.612 . S
O501 C517 1.276 . S
O502 Eu450 2.432 . S
O502 C524 1.264 . S
O503 Eu461 2.339 . S
O503 C524 1.254 . S
O504 Eu461 2.563 . S
O504 C517 1.235 . S
O505 Eu461 2.419 . S
O505 C525 1.249 . S
C506 O495 1.276 . S
C506 O498 1.235 . S
C507 C509 1.393 . S
C507 C511 1.395 . S
C507 C514 1.492 . S
C508 C509 1.392 . S
C508 C510 1.386 . S
C509 C507 1.393 . S
C509 C508 1.392 . S
C509 H526 0.930 . S
C510 C508 1.386 . S
C510 C512 1.395 . S
C510 H527 0.930 . S
C511 C507 1.395 . S
C511 C512 1.379 . S
C511 H528 0.930 . S
C512 C510 1.395 . S
C512 C511 1.379 . S
C512 H529 0.930 . S
C513 O496 1.264 . S
C513 O497 1.254 . S
C514 Eu450 2.848 . S
C514 O494 1.257 . S
C514 O499 1.249 . S
C514 C507 1.492 . S
C515 H480 0.931 . S
C515 C493 1.420 . S
C515 C516 1.351 . S
C516 H478 0.930 1_455 S
C516 C484 1.423 . S
C516 C515 1.351 . S
C517 O501 1.276 . S
C517 O504 1.235 . S
C518 C519 1.393 . S
C518 C522 1.395 . S
C518 C525 1.492 . S
C519 C518 1.393 . S
C519 C520 1.392 . S
C519 H530 0.930 . S
C520 C519 1.392 . S
C520 C521 1.386 . S
C521 C520 1.386 . S
C521 C523 1.395 . S
C521 H531 0.930 . S
C522 C518 1.395 . S
C522 C523 1.379 . S
C522 H532 0.930 . S
C523 C521 1.395 . S
C523 C522 1.379 . S
C523 H533 0.930 . S
C524 O502 1.264 . S
C524 O503 1.254 . S
C525 Eu461 2.848 . S
C525 O500 1.257 . S
C525 O505 1.249 . S
C525 C518 1.492 . S
H526 C509 0.930 . S
H527 C510 0.930 . S
H528 C511 0.930 . S
H529 C512 0.930 . S
H530 C519 0.930 . S
H531 C521 0.930 . S
H532 C522 0.930 . S
H533 C523 0.930 . S
Eu534 N565 2.657 . S
Eu534 N572 2.609 . S
Eu534 O578 2.558 . S
Eu534 O579 2.612 . S
Eu534 O581 2.339 . S
Eu534 O582 2.563 . S
Eu534 O583 2.419 . S
Eu534 O585 2.380 . S
Eu534 O586 2.432 . S
Eu534 C598 2.848 . S
C535 C538 1.429 . S
C535 C539 1.411 . S
C535 N542 1.377 . S
C536 C538 1.420 . S
C536 C540 1.423 . S
C536 C548 1.392 . S
C537 C539 1.420 . S
C537 C540 1.351 . S
C537 H560 0.931 . S
C538 C535 1.429 . S
C538 C536 1.420 . S
C538 N546 1.362 . S
C539 C535 1.411 . S
C539 C537 1.420 . S
C539 C544 1.395 . S
C540 C536 1.423 . S
C540 C537 1.351 . S
C540 H552 0.930 . S
C541 C543 1.400 . S
C541 C544 1.386 . S
C541 H553 0.930 . S
N542 C535 1.377 . S
N542 C543 1.321 . S
N542 Eu545 2.609 . S
C543 C541 1.400 . S
C543 N542 1.321 . S
C543 H550 0.930 . S
C544 C539 1.395 . S
C544 C541 1.386 . S
C544 H563 0.930 . S
Eu545 N542 2.609 . S
Eu545 N546 2.657 . S
Eu545 O579 2.380 . S
Eu545 O580 2.432 . S
Eu545 O584 2.558 . S
Eu545 O585 2.612 . S
Eu545 O587 2.339 . S
Eu545 O588 2.563 . S
Eu545 O589 2.419 . S
Eu545 C609 2.848 . S
N546 C538 1.362 . S
N546 Eu545 2.657 . S
N546 C547 1.334 . S
C547 N546 1.334 . S
C547 C549 1.413 . S
C547 H554 0.929 . S
C548 C536 1.392 . S
C548 C549 1.367 . S
C548 H556 0.930 . S
C549 C547 1.413 . S
C549 C548 1.367 . S
C549 H551 0.930 . S
H550 C543 0.930 . S
H551 C549 0.930 . S
H552 C540 0.930 . S
H553 C541 0.930 . S
H554 C547 0.929 . S
H555 C569 0.930 . S
H556 C548 0.930 . S
H557 C575 0.930 . S
H558 C566 0.929 . S
H559 C573 0.930 . S
H560 C537 0.931 . S
H561 C567 0.930 . S
H562 C600 0.930 . S
H563 C544 0.930 . S
H564 C599 0.931 . S
N565 Eu534 2.657 . S
N565 C566 1.334 . S
N565 C570 1.362 . S
C566 H558 0.929 . S
C566 N565 1.334 . S
C566 C569 1.413 . S
C567 H561 0.930 . S
C567 C568 1.392 . S
C567 C569 1.367 . S
C568 C567 1.392 . S
C568 C570 1.420 . S
C568 C600 1.423 . S
C569 H555 0.930 . S
C569 C566 1.413 . S
C569 C567 1.367 . S
C570 N565 1.362 . S
C570 C568 1.420 . S
C570 C574 1.429 . S
H571 C576 0.930 . S
N572 Eu534 2.609 . S
N572 C574 1.377 . S
N572 C575 1.321 . S
C573 H559 0.930 . S
C573 C575 1.400 . S
C573 C576 1.386 . S
C574 C570 1.429 . S
C574 N572 1.377 . S
C574 C577 1.411 . S
C575 H557 0.930 . S
C575 N572 1.321 . S
C575 C573 1.400 . S
C576 H571 0.930 . S
C576 C573 1.386 . S
C576 C577 1.395 . S
C577 C574 1.411 . S
C577 C576 1.395 . S
C577 C599 1.420 . S
O578 Eu534 2.558 . S
O578 C598 1.257 . S
O579 Eu534 2.612 . S
O579 Eu545 2.380 . S
O579 C590 1.276 . S
O580 Eu545 2.432 . S
O580 C597 1.264 . S
O581 Eu534 2.339 . S
O581 C597 1.254 . S
O582 Eu534 2.563 . S
O582 C590 1.235 . S
O583 Eu534 2.419 . S
O583 C598 1.249 . S
O584 Eu545 2.558 . S
O584 C609 1.257 . S
O585 Eu534 2.380 . S
O585 Eu545 2.612 . S
O585 C601 1.276 . S
O586 Eu534 2.432 . S
O586 C608 1.264 . S
O587 Eu545 2.339 . S
O587 C608 1.254 . S
O588 Eu545 2.563 . S
O588 C601 1.235 . S
O589 Eu545 2.419 . S
O589 C609 1.249 . S
C590 O579 1.276 . S
C590 O582 1.235 . S
C591 C593 1.393 . S
C591 C595 1.395 . S
C591 C598 1.492 . S
C592 C593 1.392 . S
C592 C594 1.386 . S
C593 C591 1.393 . S
C593 C592 1.392 . S
C593 H610 0.930 . S
C594 C592 1.386 . S
C594 C596 1.395 . S
C594 H611 0.930 . S
C595 C591 1.395 . S
C595 C596 1.379 . S
C595 H612 0.930 . S
C596 C594 1.395 . S
C596 C595 1.379 . S
C596 H613 0.930 . S
C597 O580 1.264 . S
C597 O581 1.254 . S
C598 Eu534 2.848 . S
C598 O578 1.257 . S
C598 O583 1.249 . S
C598 C591 1.492 . S
C599 H564 0.931 . S
C599 C577 1.420 . S
C599 C600 1.351 . S
C600 H562 0.930 . S
C600 C568 1.423 . S
C600 C599 1.351 . S
C601 O585 1.276 . S
C601 O588 1.235 . S
C602 C603 1.393 . S
C602 C606 1.395 . S
C602 C609 1.492 . S
C603 C602 1.393 . S
C603 C604 1.392 . S
C603 H614 0.930 . S
C604 C603 1.392 . S
C604 C605 1.386 . S
C605 C604 1.386 . S
C605 C607 1.395 . S
C605 H615 0.930 . S
C606 C602 1.395 . S
C606 C607 1.379 . S
C606 H616 0.930 . S
C607 C605 1.395 . S
C607 C606 1.379 . S
C607 H617 0.930 . S
C608 O586 1.264 . S
C608 O587 1.254 . S
C609 Eu545 2.848 . S
C609 O584 1.257 . S
C609 O589 1.249 . S
C609 C602 1.492 . S
H610 C593 0.930 . S
H611 C594 0.930 . S
H612 C595 0.930 . S
H613 C596 0.930 . S
H614 C603 0.930 . S
H615 C605 0.930 . S
H616 C606 0.930 . S
H617 C607 0.930 . S
Eu618 N649 2.657 . S
Eu618 N656 2.609 . S
Eu618 O662 2.558 . S
Eu618 O663 2.612 . S
Eu618 O665 2.339 . S
Eu618 O666 2.563 . S
Eu618 O667 2.419 . S
Eu618 O669 2.380 . S
Eu618 O670 2.432 . S
Eu618 C682 2.848 . S
C619 C622 1.429 . S
C619 C623 1.411 . S
C619 N626 1.377 . S
C620 C622 1.420 . S
C620 C624 1.423 . S
C620 C632 1.392 . S
C621 C623 1.420 . S
C621 C624 1.351 . S
C621 H644 0.931 . S
C622 C619 1.429 . S
C622 C620 1.420 . S
C622 N630 1.362 . S
C623 C619 1.411 . S
C623 C621 1.420 . S
C623 C628 1.395 . S
C624 C620 1.423 . S
C624 C621 1.351 . S
C624 H636 0.941 . S
C625 C627 1.400 . S
C625 C628 1.386 . S
C625 H637 0.930 . S
N626 C619 1.377 . S
N626 C627 1.321 . S
N626 Eu629 2.609 . S
C627 C625 1.400 . S
C627 N626 1.321 . S
C627 H634 0.930 . S
C628 C623 1.395 . S
C628 C625 1.386 . S
C628 H647 0.930 . S
Eu629 N626 2.609 . S
Eu629 N630 2.657 . S
Eu629 O663 2.380 . S
Eu629 O664 2.432 . S
Eu629 O668 2.558 . S
Eu629 O669 2.612 . S
Eu629 O671 2.339 . S
Eu629 O672 2.563 . S
Eu629 O673 2.419 . S
Eu629 C693 2.848 . S
N630 C622 1.362 . S
N630 Eu629 2.657 . S
N630 C631 1.334 . S
C631 N630 1.334 . S
C631 C633 1.413 . S
C631 H638 0.929 . S
C632 C620 1.392 . S
C632 C633 1.367 . S
C632 H640 0.930 . S
C633 C631 1.413 . S
C633 C632 1.367 . S
C633 H635 0.930 . S
H634 C627 0.930 . S
H635 C633 0.930 . S
H636 C624 0.941 . S
H637 C625 0.930 . S
H638 C631 0.929 . S
H639 C653 0.930 . S
H640 C632 0.930 . S
H641 C659 0.930 . S
H642 C650 0.929 . S
H643 C657 0.930 . S
H644 C621 0.931 . S
H645 C651 0.930 . S
H646 C684 0.930 . S
H647 C628 0.930 . S
H648 C683 0.931 . S
N649 Eu618 2.657 . S
N649 C650 1.334 . S
N649 C654 1.362 . S
C650 H642 0.929 . S
C650 N649 1.334 . S
C650 C653 1.413 . S
C651 H645 0.930 . S
C651 C652 1.392 . S
C651 C653 1.367 . S
C652 C651 1.392 . S
C652 C654 1.420 . S
C652 C684 1.423 . S
C653 H639 0.930 . S
C653 C650 1.413 . S
C653 C651 1.367 . S
C654 N649 1.362 . S
C654 C652 1.420 . S
C654 C658 1.429 . S
H655 C660 0.930 . S
N656 Eu618 2.609 . S
N656 C658 1.377 . S
N656 C659 1.321 . S
C657 H643 0.930 . S
C657 C659 1.400 . S
C657 C660 1.386 . S
C658 C654 1.429 . S
C658 N656 1.377 . S
C658 C661 1.411 . S
C659 H641 0.930 . S
C659 N656 1.321 . S
C659 C657 1.400 . S
C660 H655 0.930 . S
C660 C657 1.386 . S
C660 C661 1.395 . S
C661 C658 1.411 . S
C661 C660 1.395 . S
C661 C683 1.420 . S
O662 Eu618 2.558 . S
O662 C682 1.257 . S
O663 Eu618 2.612 . S
O663 Eu629 2.380 . S
O663 C674 1.276 . S
O664 Eu629 2.432 . S
O664 C681 1.264 . S
O665 Eu618 2.339 . S
O665 C681 1.254 . S
O666 Eu618 2.563 . S
O666 C674 1.235 . S
O667 Eu618 2.419 . S
O667 C682 1.249 . S
O668 Eu629 2.558 . S
O668 C693 1.257 . S
O669 Eu618 2.380 . S
O669 Eu629 2.612 . S
O669 C685 1.276 . S
O670 Eu618 2.432 . S
O670 C692 1.264 . S
O671 Eu629 2.339 . S
O671 C692 1.254 . S
O672 Eu629 2.563 . S
O672 C685 1.235 . S
O673 Eu629 2.419 . S
O673 C693 1.249 . S
C674 O663 1.276 . S
C674 O666 1.235 . S
C675 C677 1.393 . S
C675 C679 1.395 . S
C675 C682 1.492 . S
C676 C677 1.392 . S
C676 C678 1.386 . S
C677 C675 1.393 . S
C677 C676 1.392 . S
C677 H694 0.930 . S
C678 C676 1.386 . S
C678 C680 1.395 . S
C678 H695 0.930 . S
C679 C675 1.395 . S
C679 C680 1.379 . S
C679 H696 0.930 . S
C680 C678 1.395 . S
C680 C679 1.379 . S
C680 H697 0.930 . S
C681 O664 1.264 . S
C681 O665 1.254 . S
C682 Eu618 2.848 . S
C682 O662 1.257 . S
C682 O667 1.249 . S
C682 C675 1.492 . S
C683 H648 0.931 . S
C683 C661 1.420 . S
C683 C684 1.351 . S
C684 H646 0.930 . S
C684 C652 1.423 . S
C684 C683 1.351 . S
C685 O669 1.276 . S
C685 O672 1.235 . S
C686 C687 1.393 . S
C686 C690 1.395 . S
C686 C693 1.492 . S
C687 C686 1.393 . S
C687 C688 1.392 . S
C687 H698 0.930 . S
C688 C687 1.392 . S
C688 C689 1.386 . S
C689 C688 1.386 . S
C689 C691 1.395 . S
C689 H699 0.930 . S
C690 C686 1.395 . S
C690 C691 1.379 . S
C690 H700 0.930 . S
C691 C689 1.395 . S
C691 C690 1.379 . S
C691 H701 0.930 . S
C692 O670 1.264 . S
C692 O671 1.254 . S
C693 Eu629 2.848 . S
C693 O668 1.257 . S
C693 O673 1.249 . S
C693 C686 1.492 . S
H694 C677 0.930 . S
H695 C678 0.930 . S
H696 C679 0.930 . S
H697 C680 0.930 . S
H698 C687 0.930 . S
H699 C689 0.930 . S
H700 C690 0.930 . S
H701 C691 0.930 . S
Eu702 N733 2.657 . S
Eu702 N740 2.609 . S
Eu702 O746 2.558 . S
Eu702 O747 2.612 . S
Eu702 O749 2.339 . S
Eu702 O750 2.563 . S
Eu702 O751 2.419 . S
Eu702 O753 2.380 . S
Eu702 O754 2.432 . S
Eu702 C766 2.848 . S
C703 C706 1.429 . S
C703 C707 1.411 . S
C703 N710 1.377 . S
C704 C706 1.420 . S
C704 C708 1.423 . S
C704 C716 1.392 . S
C705 C707 1.420 . S
C705 C708 1.351 . S
C705 H728 0.931 . S
C706 C703 1.429 . S
C706 C704 1.420 . S
C706 N714 1.362 . S
C707 C703 1.411 . S
C707 C705 1.420 . S
C707 C712 1.395 . S
C708 C704 1.423 . S
C708 C705 1.351 . S
C708 H720 0.930 . S
C709 C711 1.400 . S
C709 C712 1.386 . S
C709 H721 0.930 . S
N710 C703 1.377 . S
N710 C711 1.321 . S
N710 Eu713 2.609 . S
C711 C709 1.400 . S
C711 N710 1.321 . S
C711 H718 0.930 . S
C712 C707 1.395 . S
C712 C709 1.386 . S
C712 H731 0.930 . S
Eu713 N710 2.609 . S
Eu713 N714 2.657 . S
Eu713 O747 2.380 . S
Eu713 O748 2.432 . S
Eu713 O752 2.558 . S
Eu713 O753 2.612 . S
Eu713 O755 2.339 . S
Eu713 O756 2.563 . S
Eu713 O757 2.419 . S
Eu713 C777 2.848 . S
N714 C706 1.362 . S
N714 Eu713 2.657 . S
N714 C715 1.334 . S
C715 N714 1.334 . S
C715 C717 1.413 . S
C715 H722 0.929 . S
C716 C704 1.392 . S
C716 C717 1.367 . S
C716 H724 0.930 . S
C717 C715 1.413 . S
C717 C716 1.367 . S
C717 H719 0.930 . S
H718 C711 0.930 . S
H719 C717 0.930 . S
H720 C708 0.930 . S
H721 C709 0.930 . S
H722 C715 0.929 . S
H723 C737 0.930 . S
H724 C716 0.930 . S
H725 C743 0.930 . S
H726 C734 0.929 . S
H727 C741 0.930 . S
H728 C705 0.931 . S
H729 C735 0.930 . S
H730 C768 0.930 . S
H731 C712 0.930 . S
H732 C767 0.931 . S
N733 Eu702 2.657 . S
N733 C734 1.334 . S
N733 C738 1.362 . S
C734 H726 0.929 . S
C734 N733 1.334 . S
C734 C737 1.413 . S
C735 H729 0.930 . S
C735 C736 1.392 . S
C735 C737 1.367 . S
C736 C735 1.392 . S
C736 C738 1.420 . S
C736 C768 1.423 . S
C737 H723 0.930 . S
C737 C734 1.413 . S
C737 C735 1.367 . S
C738 N733 1.362 . S
C738 C736 1.420 . S
C738 C742 1.429 . S
H739 C744 0.930 . S
N740 Eu702 2.609 . S
N740 C742 1.377 . S
N740 C743 1.321 . S
C741 H727 0.930 . S
C741 C743 1.400 . S
C741 C744 1.386 . S
C742 C738 1.429 . S
C742 N740 1.377 . S
C742 C745 1.411 . S
C743 H725 0.930 . S
C743 N740 1.321 . S
C743 C741 1.400 . S
C744 H739 0.930 . S
C744 C741 1.386 . S
C744 C745 1.395 . S
C745 C742 1.411 . S
C745 C744 1.395 . S
C745 C767 1.420 . S
O746 Eu702 2.558 . S
O746 C766 1.257 . S
O747 Eu702 2.612 . S
O747 Eu713 2.380 . S
O747 C758 1.276 . S
O748 Eu713 2.432 . S
O748 C765 1.264 . S
O749 Eu702 2.339 . S
O749 C765 1.254 . S
O750 Eu702 2.563 . S
O750 C758 1.235 . S
O751 Eu702 2.419 . S
O751 C766 1.249 . S
O752 Eu713 2.558 . S
O752 C777 1.257 . S
O753 Eu702 2.380 . S
O753 Eu713 2.612 . S
O753 C769 1.276 . S
O754 Eu702 2.432 . S
O754 C776 1.264 . S
O755 Eu713 2.339 . S
O755 C776 1.254 . S
O756 Eu713 2.563 . S
O756 C769 1.235 . S
O757 Eu713 2.419 . S
O757 C777 1.249 . S
C758 O747 1.276 . S
C758 O750 1.235 . S
C759 C761 1.393 . S
C759 C763 1.395 . S
C759 C766 1.492 . S
C760 C761 1.392 . S
C760 C762 1.386 . S
C761 C759 1.393 . S
C761 C760 1.392 . S
C761 H778 0.930 . S
C762 C760 1.386 . S
C762 C764 1.395 . S
C762 H779 0.930 . S
C763 C759 1.395 . S
C763 C764 1.379 . S
C763 H780 0.930 . S
C764 C762 1.395 . S
C764 C763 1.379 . S
C764 H781 0.930 . S
C765 O748 1.264 . S
C765 O749 1.254 . S
C766 Eu702 2.848 . S
C766 O746 1.257 . S
C766 O751 1.249 . S
C766 C759 1.492 . S
C767 H732 0.931 . S
C767 C745 1.420 . S
C767 C768 1.351 . S
C768 H730 0.930 . S
C768 C736 1.423 . S
C768 C767 1.351 . S
C769 O753 1.276 . S
C769 O756 1.235 . S
C770 C771 1.393 . S
C770 C774 1.395 . S
C770 C777 1.492 . S
C771 C770 1.393 . S
C771 C772 1.392 . S
C771 H782 0.930 . S
C772 C771 1.392 . S
C772 C773 1.386 . S
C773 C772 1.386 . S
C773 C775 1.395 . S
C773 H783 0.930 . S
C774 C770 1.395 . S
C774 C775 1.379 . S
C774 H784 0.930 . S
C775 C773 1.395 . S
C775 C774 1.379 . S
C775 H785 0.930 . S
C776 O754 1.264 . S
C776 O755 1.254 . S
C777 Eu713 2.848 . S
C777 O752 1.257 . S
C777 O757 1.249 . S
C777 C770 1.492 . S
H778 C761 0.930 . S
H779 C762 0.930 . S
H780 C763 0.930 . S
H781 C764 0.930 . S
H782 C771 0.930 . S
H783 C773 0.930 . S
H784 C774 0.930 . S
H785 C775 0.930 . S
Eu786 N817 2.657 . S
Eu786 N824 2.609 . S
Eu786 O830 2.558 . S
Eu786 O831 2.612 . S
Eu786 O833 2.339 . S
Eu786 O834 2.563 . S
Eu786 O835 2.419 . S
Eu786 O837 2.380 . S
Eu786 O838 2.432 . S
Eu786 C850 2.848 . S
C787 C790 1.429 . S
C787 C791 1.411 . S
C787 N794 1.377 . S
C788 C790 1.420 . S
C788 C792 1.423 . S
C788 C800 1.392 . S
C789 C791 1.420 . S
C789 C792 1.351 . S
C789 H812 0.931 . S
C790 C787 1.429 . S
C790 C788 1.420 . S
C790 N798 1.362 . S
C791 C787 1.411 . S
C791 C789 1.420 . S
C791 C796 1.395 . S
C792 C788 1.423 . S
C792 C789 1.351 . S
C792 H804 0.930 . S
C793 C795 1.400 . S
C793 C796 1.386 . S
C793 H805 0.930 . S
N794 C787 1.377 . S
N794 C795 1.321 . S
N794 Eu797 2.609 . S
C795 C793 1.400 . S
C795 N794 1.321 . S
C795 H802 0.930 . S
C796 C791 1.395 . S
C796 C793 1.386 . S
C796 H815 0.930 . S
Eu797 N794 2.609 . S
Eu797 N798 2.657 . S
Eu797 O831 2.380 . S
Eu797 O832 2.432 . S
Eu797 O836 2.558 . S
Eu797 O837 2.612 . S
Eu797 O839 2.339 . S
Eu797 O840 2.563 . S
Eu797 O841 2.419 . S
Eu797 C861 2.848 . S
N798 C790 1.362 . S
N798 Eu797 2.657 . S
N798 C799 1.334 . S
C799 N798 1.334 . S
C799 C801 1.413 . S
C799 H806 0.929 . S
C800 C788 1.392 . S
C800 C801 1.367 . S
C800 H808 0.930 . S
C801 C799 1.413 . S
C801 C800 1.367 . S
C801 H803 0.930 . S
H802 C795 0.930 . S
H803 C801 0.930 . S
H804 C792 0.930 . S
H805 C793 0.930 . S
H806 C799 0.929 . S
H807 C821 0.930 . S
H808 C800 0.930 . S
H809 C827 0.930 . S
H810 C818 0.929 . S
H811 C825 0.930 . S
H812 C789 0.931 . S
H813 C819 0.930 . S
H814 C852 0.930 . S
H815 C796 0.930 . S
H816 C851 0.931 . S
N817 Eu786 2.657 . S
N817 C818 1.334 . S
N817 C822 1.362 . S
C818 H810 0.929 . S
C818 N817 1.334 . S
C818 C821 1.413 . S
C819 H813 0.930 . S
C819 C820 1.392 . S
C819 C821 1.367 . S
C820 C819 1.392 . S
C820 C822 1.420 . S
C820 C852 1.423 . S
C821 H807 0.930 . S
C821 C818 1.413 . S
C821 C819 1.367 . S
C822 N817 1.362 . S
C822 C820 1.420 . S
C822 C826 1.429 . S
H823 C828 0.930 . S
N824 Eu786 2.609 . S
N824 C826 1.377 . S
N824 C827 1.321 . S
C825 H811 0.930 . S
C825 C827 1.400 . S
C825 C828 1.386 . S
C826 C822 1.429 . S
C826 N824 1.377 . S
C826 C829 1.411 . S
C827 H809 0.930 . S
C827 N824 1.321 . S
C827 C825 1.400 . S
C828 H823 0.930 . S
C828 C825 1.386 . S
C828 C829 1.395 . S
C829 C826 1.411 . S
C829 C828 1.395 . S
C829 C851 1.420 . S
O830 Eu786 2.558 . S
O830 C850 1.257 . S
O831 Eu786 2.612 . S
O831 Eu797 2.380 . S
O831 C842 1.276 . S
O832 Eu797 2.432 . S
O832 C849 1.264 . S
O833 Eu786 2.339 . S
O833 C849 1.254 . S
O834 Eu786 2.563 . S
O834 C842 1.235 . S
O835 Eu786 2.419 . S
O835 C850 1.249 . S
O836 Eu797 2.558 . S
O836 C861 1.257 . S
O837 Eu786 2.380 . S
O837 Eu797 2.612 . S
O837 C853 1.276 . S
O838 Eu786 2.432 . S
O838 C860 1.264 . S
O839 Eu797 2.339 . S
O839 C860 1.254 . S
O840 Eu797 2.563 . S
O840 C853 1.235 . S
O841 Eu797 2.419 . S
O841 C861 1.249 . S
C842 O831 1.276 . S
C842 O834 1.235 . S
C843 C845 1.393 . S
C843 C847 1.395 . S
C843 C850 1.492 . S
C844 C845 1.392 . S
C844 C846 1.386 . S
C845 C843 1.393 . S
C845 C844 1.392 . S
C845 H862 0.930 . S
C846 C844 1.386 . S
C846 C848 1.395 . S
C846 H863 0.930 . S
C847 C843 1.395 . S
C847 C848 1.379 . S
C847 H864 0.930 . S
C848 C846 1.395 . S
C848 C847 1.379 . S
C848 H865 0.930 . S
C849 O832 1.264 . S
C849 O833 1.254 . S
C850 Eu786 2.848 . S
C850 O830 1.257 . S
C850 O835 1.249 . S
C850 C843 1.492 . S
C851 H816 0.931 . S
C851 C829 1.420 . S
C851 C852 1.351 . S
C852 H814 0.930 . S
C852 C820 1.423 . S
C852 C851 1.351 . S
C853 O837 1.276 . S
C853 O840 1.235 . S
C854 C855 1.393 . S
C854 C858 1.395 . S
C854 C861 1.492 . S
C855 C854 1.393 . S
C855 C856 1.392 . S
C855 H866 0.930 . S
C856 C855 1.392 . S
C856 C857 1.386 . S
C857 C856 1.386 . S
C857 C859 1.395 . S
C857 H867 0.930 . S
C858 C854 1.395 . S
C858 C859 1.379 . S
C858 H868 0.930 . S
C859 C857 1.395 . S
C859 C858 1.379 . S
C859 H869 0.930 . S
C860 O838 1.264 . S
C860 O839 1.254 . S
C861 Eu797 2.848 . S
C861 O836 1.257 . S
C861 O841 1.249 . S
C861 C854 1.492 . S
H862 C845 0.930 . S
H863 C846 0.930 . S
H864 C847 0.930 . S
H865 C848 0.930 . S
H866 C855 0.930 . S
H867 C857 0.930 . S
H868 C858 0.930 . S
H869 C859 0.930 . S
Eu870 N901 2.657 . S
Eu870 N908 2.609 . S
Eu870 O914 2.558 . S
Eu870 O915 2.612 . S
Eu870 O917 2.339 . S
Eu870 O918 2.563 . S
Eu870 O919 2.419 . S
Eu870 O921 2.380 . S
Eu870 O922 2.432 . S
Eu870 C934 2.848 . S
C871 C874 1.429 . S
C871 C875 1.411 . S
C871 N878 1.377 . S
C872 C874 1.420 . S
C872 C876 1.423 . S
C872 C884 1.392 . S
C873 C875 1.420 . S
C873 C876 1.351 . S
C873 H896 0.931 . S
C874 C871 1.429 . S
C874 C872 1.420 . S
C874 N882 1.362 . S
C875 C871 1.411 . S
C875 C873 1.420 . S
C875 C880 1.395 . S
C876 C872 1.423 . S
C876 C873 1.351 . S
C876 H888 0.930 . S
C877 C879 1.400 . S
C877 C880 1.386 . S
C877 H889 0.930 . S
N878 C871 1.377 . S
N878 C879 1.321 . S
N878 Eu881 2.609 . S
C879 C877 1.400 . S
C879 N878 1.321 . S
C879 H886 0.930 . S
C880 C875 1.395 . S
C880 C877 1.386 . S
C880 H899 0.930 . S
Eu881 N878 2.609 . S
Eu881 N882 2.657 . S
Eu881 O915 2.380 . S
Eu881 O916 2.432 . S
Eu881 O920 2.558 . S
Eu881 O921 2.612 . S
Eu881 O923 2.339 . S
Eu881 O924 2.563 . S
Eu881 O925 2.419 . S
Eu881 C945 2.848 . S
N882 C874 1.362 . S
N882 Eu881 2.657 . S
N882 C883 1.334 . S
C883 N882 1.334 . S
C883 C885 1.413 . S
C883 H890 0.929 . S
C884 C872 1.392 . S
C884 C885 1.367 . S
C884 H892 0.930 . S
C885 C883 1.413 . S
C885 C884 1.367 . S
C885 H887 0.930 . S
H886 C879 0.930 . S
H887 C885 0.930 . S
H888 C876 0.930 . S
H889 C877 0.930 . S
H890 C883 0.929 . S
H891 C905 0.930 . S
H892 C884 0.930 . S
H893 C911 0.930 . S
H894 C902 0.929 . S
H895 C909 0.930 . S
H896 C873 0.931 . S
H897 C903 0.930 1_455 S
H898 C936 0.930 1_455 S
H899 C880 0.930 . S
H900 C935 0.931 . S
N901 Eu870 2.657 . S
N901 C902 1.334 . S
N901 C906 1.362 . S
C902 H894 0.929 . S
C902 N901 1.334 . S
C902 C905 1.413 . S
C903 H897 0.930 1_655 S
C903 C904 1.392 . S
C903 C905 1.367 . S
C904 C903 1.392 . S
C904 C906 1.420 . S
C904 C936 1.423 . S
C905 H891 0.930 . S
C905 C902 1.413 . S
C905 C903 1.367 . S
C906 N901 1.362 . S
C906 C904 1.420 . S
C906 C910 1.429 . S
H907 C912 0.930 . S
N908 Eu870 2.609 . S
N908 C910 1.377 . S
N908 C911 1.321 . S
C909 H895 0.930 . S
C909 C911 1.400 . S
C909 C912 1.386 . S
C910 C906 1.429 . S
C910 N908 1.377 . S
C910 C913 1.411 . S
C911 H893 0.930 . S
C911 N908 1.321 . S
C911 C909 1.400 . S
C912 H907 0.930 . S
C912 C909 1.386 . S
C912 C913 1.395 . S
C913 C910 1.411 . S
C913 C912 1.395 . S
C913 C935 1.420 . S
O914 Eu870 2.558 . S
O914 C934 1.257 . S
O915 Eu870 2.612 . S
O915 Eu881 2.380 . S
O915 C926 1.276 . S
O916 Eu881 2.432 . S
O916 C933 1.264 . S
O917 Eu870 2.339 . S
O917 C933 1.254 . S
O918 Eu870 2.563 . S
O918 C926 1.235 . S
O919 Eu870 2.419 . S
O919 C934 1.249 . S
O920 Eu881 2.558 . S
O920 C945 1.257 . S
O921 Eu870 2.380 . S
O921 Eu881 2.612 . S
O921 C937 1.276 . S
O922 Eu870 2.432 . S
O922 C944 1.264 . S
O923 Eu881 2.339 . S
O923 C944 1.254 . S
O924 Eu881 2.563 . S
O924 C937 1.235 . S
O925 Eu881 2.419 . S
O925 C945 1.249 . S
C926 O915 1.276 . S
C926 O918 1.235 . S
C927 C929 1.393 . S
C927 C931 1.395 . S
C927 C934 1.492 . S
C928 C929 1.392 . S
C928 C930 1.386 . S
C929 C927 1.393 . S
C929 C928 1.392 . S
C929 H946 0.930 . S
C930 C928 1.386 . S
C930 C932 1.395 . S
C930 H947 0.930 . S
C931 C927 1.395 . S
C931 C932 1.379 . S
C931 H948 0.930 . S
C932 C930 1.395 . S
C932 C931 1.379 . S
C932 H949 0.930 . S
C933 O916 1.264 . S
C933 O917 1.254 . S
C934 Eu870 2.848 . S
C934 O914 1.257 . S
C934 O919 1.249 . S
C934 C927 1.492 . S
C935 H900 0.931 . S
C935 C913 1.420 . S
C935 C936 1.351 . S
C936 H898 0.930 1_655 S
C936 C904 1.423 . S
C936 C935 1.351 . S
C937 O921 1.276 . S
C937 O924 1.235 . S
C938 C939 1.393 . S
C938 C942 1.395 . S
C938 C945 1.492 . S
C939 C938 1.393 . S
C939 C940 1.392 . S
C939 H950 0.930 . S
C940 C939 1.392 . S
C940 C941 1.386 . S
C941 C940 1.386 . S
C941 C943 1.395 . S
C941 H951 0.930 . S
C942 C938 1.395 . S
C942 C943 1.379 . S
C942 H952 0.930 . S
C943 C941 1.395 . S
C943 C942 1.379 . S
C943 H953 0.930 . S
C944 O922 1.264 . S
C944 O923 1.254 . S
C945 Eu881 2.848 . S
C945 O920 1.257 . S
C945 O925 1.249 . S
C945 C938 1.492 . S
H946 C929 0.930 . S
H947 C930 0.930 . S
H948 C931 0.930 . S
H949 C932 0.930 . S
H950 C939 0.930 . S
H951 C941 0.930 . S
H952 C942 0.930 . S
H953 C943 0.930 . S
C954 C955 1.363 . S
C954 C960 1.379 . S
C954 N962 1.356 . S
C955 C954 1.363 . S
C955 C961 1.363 . S
C956 C957 1.363 . S
C956 C961 1.379 . S
C956 N963 1.356 1_554 S
C957 C956 1.363 . S
C957 C960 1.363 . S
N958 C960 1.356 . S
N958 H970 0.984 . S
N958 H971 0.985 . S
N959 C961 1.356 . S
N959 H964 0.984 . S
N959 H965 0.985 1_554 S
C960 C954 1.379 . S
C960 C957 1.363 . S
C960 N958 1.356 . S
C961 C955 1.363 . S
C961 C956 1.379 . S
C961 N959 1.356 . S
N962 C954 1.356 . S
N962 H968 0.984 . S
N962 H969 0.984 . S
N963 C956 1.356 1_556 S
N963 H966 0.984 . S
N963 H967 0.985 . S
H964 N959 0.984 . S
H965 N959 0.985 1_556 S
H966 N963 0.984 . S
H967 N963 0.985 . S
H968 N962 0.984 . S
H969 N962 0.984 . S
H970 N958 0.984 . S
H971 N958 0.985 . S
C972 C973 1.363 . S
C972 C978 1.379 . S
C972 N980 1.356 . S
C973 C972 1.363 . S
C973 C979 1.363 . S
C974 C975 1.363 . S
C974 C979 1.379 . S
C974 N981 1.356 . S
C975 C974 1.363 . S
C975 C978 1.363 . S
N976 C978 1.356 . S
N976 H988 0.984 . S
N976 H989 0.985 . S
N977 C979 1.356 . S
N977 H982 0.984 . S
N977 H983 0.985 . S
C978 C972 1.379 . S
C978 C975 1.363 . S
C978 N976 1.356 . S
C979 C973 1.363 . S
C979 C974 1.379 . S
C979 N977 1.356 . S
N980 C972 1.356 . S
N980 H986 0.984 . S
N980 H987 0.984 . S
N981 C974 1.356 . S
N981 H984 0.984 . S
N981 H985 0.985 . S
H982 N977 0.984 . S
H983 N977 0.985 . S
H984 N981 0.984 . S
H985 N981 0.985 . S
H986 N980 0.984 . S
H987 N980 0.984 . S
H988 N976 0.984 . S
H989 N976 0.985 . S
C990 C991 1.363 . S
C990 C996 1.379 . S
C990 N998 1.356 . S
C991 C990 1.363 . S
C991 C997 1.363 . S
C992 C993 1.363 . S
C992 C997 1.379 . S
C992 N999 1.356 1_554 S
C993 C992 1.363 . S
C993 C996 1.363 . S
N994 C996 1.356 . S
N994 H1006 0.984 . S
N994 H1007 0.985 . S
N995 C997 1.356 . S
N995 H1000 0.984 . S
N995 H1001 0.985 1_554 S
C996 C990 1.379 . S
C996 C993 1.363 . S
C996 N994 1.356 . S
C997 C991 1.363 . S
C997 C992 1.379 . S
C997 N995 1.356 . S
N998 C990 1.356 . S
N998 H1004 0.984 . S
N998 H1005 0.984 . S
N999 C992 1.356 1_556 S
N999 H1002 0.984 . S
N999 H1003 0.985 . S
H1000 N995 0.984 . S
H1001 N995 0.985 1_556 S
H1002 N999 0.984 . S
H1003 N999 0.985 . S
H1004 N998 0.984 . S
H1005 N998 0.984 . S
H1006 N994 0.984 . S
H1007 N994 0.985 . S
C1008 C1009 1.363 . S
C1008 C1014 1.379 . S
C1008 N1016 1.356 . S
C1009 C1008 1.363 . S
C1009 C1015 1.363 . S
C1010 C1011 1.347 1_554 S
C1010 C1015 1.372 1_554 S
C1010 N1017 1.377 . S
C1011 C1010 1.347 1_556 S
C1011 C1014 1.363 . S
N1012 C1014 1.356 . S
N1012 H1024 0.984 . S
N1012 H1025 0.985 . S
N1013 C1015 1.360 . S
N1013 H1018 0.989 . S
N1013 H1019 0.977 1_556 S
C1014 C1008 1.379 . S
C1014 C1011 1.363 . S
C1014 N1012 1.356 . S
C1015 C1009 1.363 . S
C1015 C1010 1.372 1_556 S
C1015 N1013 1.360 . S
N1016 C1008 1.356 . S
N1016 H1022 0.984 . S
N1016 H1023 0.984 . S
N1017 C1010 1.377 . S
N1017 H1020 0.984 . S
N1017 H1021 0.985 . S
H1018 N1013 0.989 . S
H1019 N1013 0.977 1_554 S
H1020 N1017 0.984 . S
H1021 N1017 0.985 . S
H1022 N1016 0.984 . S
H1023 N1016 0.984 . S
H1024 N1012 0.984 . S
H1025 N1012 0.985 . S
C1026 C1027 1.363 . S
C1026 C1032 1.379 . S
C1026 N1034 1.356 . S
C1027 C1026 1.363 . S
C1027 C1033 1.363 . S
C1028 C1029 1.360 1_554 S
C1028 C1033 1.377 1_554 S
C1028 N1035 1.361 . S
C1029 C1028 1.360 1_556 S
C1029 C1032 1.363 . S
N1030 C1032 1.356 . S
N1030 H1042 0.984 . S
N1030 H1043 0.985 . S
N1031 C1033 1.356 1_554 S
N1031 H1036 0.984 1_554 S
N1031 H1037 0.985 . S
C1032 C1026 1.379 . S
C1032 C1029 1.363 . S
C1032 N1030 1.356 . S
C1033 C1027 1.363 . S
C1033 C1028 1.377 1_556 S
C1033 N1031 1.356 1_556 S
N1034 C1026 1.356 . S
N1034 H1040 0.984 . S
N1034 H1041 0.984 . S
N1035 C1028 1.361 . S
N1035 H1038 0.984 . S
N1035 H1039 0.985 . S
H1036 N1031 0.984 1_556 S
H1037 N1031 0.985 . S
H1038 N1035 0.984 . S
H1039 N1035 0.985 . S
H1040 N1034 0.984 . S
H1041 N1034 0.984 . S
H1042 N1030 0.984 . S
H1043 N1030 0.985 . S
C1044 C1045 1.365 . S
C1044 C1050 1.378 1_556 S
C1044 N1052 1.355 1_556 S
C1045 C1044 1.365 . S
C1045 C1051 1.363 . S
C1046 C1047 1.363 . S
C1046 C1051 1.379 . S
C1046 N1053 1.356 . S
C1047 C1046 1.363 . S
C1047 C1050 1.363 1_556 S
N1048 C1050 1.356 . S
N1048 H1060 0.984 . S
N1048 H1061 0.985 . S
N1049 C1051 1.356 . S
N1049 H1054 0.984 . S
N1049 H1055 0.985 . S
C1050 C1044 1.378 1_554 S
C1050 C1047 1.363 1_554 S
C1050 N1048 1.356 . S
C1051 C1045 1.363 . S
C1051 C1046 1.379 . S
C1051 N1049 1.356 . S
N1052 C1044 1.355 1_554 S
N1052 H1058 0.984 . S
N1052 H1059 0.984 . S
N1053 C1046 1.356 . S
N1053 H1056 0.984 . S
N1053 H1057 0.985 . S
H1054 N1049 0.984 . S
H1055 N1049 0.985 . S
H1056 N1053 0.984 . S
H1057 N1053 0.985 . S
H1058 N1052 0.984 . S
H1059 N1052 0.984 . S
H1060 N1048 0.984 . S
H1061 N1048 0.985 . S
C1062 C1063 1.363 . S
C1062 C1068 1.379 . S
C1062 N1070 1.356 . S
C1063 C1062 1.363 . S
C1063 C1069 1.363 . S
C1064 C1065 1.363 1_554 S
C1064 C1069 1.379 1_554 S
C1064 N1071 1.356 . S
C1065 C1064 1.363 1_556 S
C1065 C1068 1.363 . S
N1066 C1068 1.356 . S
N1066 H1078 0.984 . S
N1066 H1079 0.985 . S
N1067 C1069 1.356 1_554 S
N1067 H1072 0.970 1_554 S
N1067 H1073 0.985 . S
C1068 C1062 1.379 . S
C1068 C1065 1.363 . S
C1068 N1066 1.356 . S
C1069 C1063 1.363 . S
C1069 C1064 1.379 1_556 S
C1069 N1067 1.356 1_556 S
N1070 C1062 1.356 . S
N1070 H1076 0.984 . S
N1070 H1077 0.984 . S
N1071 C1064 1.356 . S
N1071 H1074 0.984 . S
N1071 H1075 0.985 . S
H1072 N1067 0.970 1_556 S
H1073 N1067 0.985 . S
H1074 N1071 0.984 . S
H1075 N1071 0.985 . S
H1076 N1070 0.984 . S
H1077 N1070 0.984 . S
H1078 N1066 0.984 . S
H1079 N1066 0.985 . S
C1080 C1081 1.363 . S
C1080 C1086 1.379 . S
C1080 N1088 1.356 . S
C1081 C1080 1.363 . S
C1081 C1087 1.363 . S
C1082 C1083 1.363 . S
C1082 C1087 1.379 . S
C1082 N1089 1.356 . S
C1083 C1082 1.363 . S
C1083 C1086 1.363 . S
N1084 C1086 1.356 1_554 S
N1084 H1096 0.984 . S
N1084 H1097 0.985 . S
N1085 C1087 1.356 . S
N1085 H1090 0.984 . S
N1085 H1091 0.985 . S
C1086 C1080 1.379 . S
C1086 C1083 1.363 . S
C1086 N1084 1.356 1_556 S
C1087 C1081 1.363 . S
C1087 C1082 1.379 . S
C1087 N1085 1.356 . S
N1088 C1080 1.356 . S
N1088 H1094 0.984 . S
N1088 H1095 0.984 . S
N1089 C1082 1.356 . S
N1089 H1092 0.984 . S
N1089 H1093 0.985 . S
H1090 N1085 0.984 . S
H1091 N1085 0.985 . S
H1092 N1089 0.984 . S
H1093 N1089 0.985 . S
H1094 N1088 0.984 . S
H1095 N1088 0.984 . S
H1096 N1084 0.984 . S
H1097 N1084 0.985 . S
C1098 C1099 1.363 . S
C1098 C1104 1.379 . S
C1098 N1106 1.356 . S
C1099 C1098 1.363 . S
C1099 C1105 1.363 . S
C1100 C1101 1.363 1_554 S
C1100 C1105 1.379 1_554 S
C1100 N1107 1.356 . S
C1101 C1100 1.363 1_556 S
C1101 C1104 1.363 . S
N1102 C1104 1.356 . S
N1102 H1114 0.984 . S
N1102 H1115 0.985 . S
N1103 C1105 1.356 1_554 S
N1103 H1108 0.984 . S
N1103 H1109 0.985 . S
C1104 C1098 1.379 . S
C1104 C1101 1.363 . S
C1104 N1102 1.356 . S
C1105 C1099 1.363 . S
C1105 C1100 1.379 1_556 S
C1105 N1103 1.356 1_556 S
N1106 C1098 1.356 . S
N1106 H1112 0.984 . S
N1106 H1113 0.984 . S
N1107 C1100 1.356 . S
N1107 H1110 0.984 . S
N1107 H1111 0.985 . S
H1108 N1103 0.984 . S
H1109 N1103 0.985 . S
H1110 N1107 0.984 . S
H1111 N1107 0.985 . S
H1112 N1106 0.984 . S
H1113 N1106 0.984 . S
H1114 N1102 0.984 . S
H1115 N1102 0.985 . S
C1116 C1117 1.363 . S
C1116 C1122 1.379 . S
C1116 N1124 1.356 . S
C1117 C1116 1.363 . S
C1117 C1123 1.363 . S
C1118 C1119 1.363 . S
C1118 C1123 1.379 . S
C1118 N1125 1.356 . S
C1119 C1118 1.363 . S
C1119 C1122 1.363 . S
N1120 C1122 1.356 . S
N1120 H1132 0.984 . S
N1120 H1133 0.985 . S
N1121 C1123 1.356 . S
N1121 H1126 0.984 . S
N1121 H1127 0.985 . S
C1122 C1116 1.379 . S
C1122 C1119 1.363 . S
C1122 N1120 1.356 . S
C1123 C1117 1.363 . S
C1123 C1118 1.379 . S
C1123 N1121 1.356 . S
N1124 C1116 1.356 . S
N1124 H1130 0.984 . S
N1124 H1131 0.984 . S
N1125 C1118 1.356 . S
N1125 H1128 0.984 . S
N1125 H1129 0.985 . S
H1126 N1121 0.984 . S
H1127 N1121 0.985 . S
H1128 N1125 0.984 . S
H1129 N1125 0.985 . S
H1130 N1124 0.984 . S
H1131 N1124 0.984 . S
H1132 N1120 0.984 . S
H1133 N1120 0.985 . S
C1134 C1135 1.363 . S
C1134 C1140 1.379 . S
C1134 N1142 1.356 . S
C1135 C1134 1.363 . S
C1135 C1141 1.363 . S
C1136 C1137 1.363 . S
C1136 C1141 1.379 . S
C1136 N1143 1.356 . S
C1137 C1136 1.363 . S
C1137 C1140 1.363 . S
N1138 C1140 1.374 . S
N1138 H1150 0.972 1_554 S
N1138 H1151 0.979 1_554 S
N1139 C1141 1.356 . S
N1139 H1144 0.984 . S
N1139 H1145 0.985 . S
C1140 C1134 1.379 . S
C1140 C1137 1.363 . S
C1140 N1138 1.374 . S
C1141 C1135 1.363 . S
C1141 C1136 1.379 . S
C1141 N1139 1.356 . S
N1142 C1134 1.356 . S
N1142 H1148 0.984 . S
N1142 H1149 0.984 . S
N1143 C1136 1.356 . S
N1143 H1146 0.984 . S
N1143 H1147 0.985 . S
H1144 N1139 0.984 . S
H1145 N1139 0.985 . S
H1146 N1143 0.984 . S
H1147 N1143 0.985 . S
H1148 N1142 0.984 . S
H1149 N1142 0.984 . S
H1150 N1138 0.972 1_556 S
H1151 N1138 0.979 1_556 S
C1152 C1153 1.363 . S
C1152 C1158 1.379 . S
C1152 N1160 1.348 1_554 S
C1153 C1152 1.363 . S
C1153 C1159 1.363 . S
C1154 C1155 1.363 . S
C1154 C1159 1.379 . S
C1154 N1161 1.356 . S
C1155 C1154 1.363 . S
C1155 C1158 1.363 . S
N1156 C1158 1.356 1_556 S
N1156 H1168 0.984 . S
N1156 H1169 0.985 . S
N1157 C1159 1.356 . S
N1157 H1162 0.984 . S
N1157 H1163 0.985 . S
C1158 C1152 1.379 . S
C1158 C1155 1.363 . S
C1158 N1156 1.356 1_554 S
C1159 C1153 1.363 . S
C1159 C1154 1.379 . S
C1159 N1157 1.356 . S
N1160 C1152 1.348 1_556 S
N1160 H1166 1.004 . S
N1160 H1167 0.973 1_556 S
N1161 C1154 1.356 . S
N1161 H1164 0.984 . S
N1161 H1165 0.985 . S
H1162 N1157 0.984 . S
H1163 N1157 0.985 . S
H1164 N1161 0.984 . S
H1165 N1161 0.985 . S
H1166 N1160 1.004 . S
H1167 N1160 0.973 1_554 S
H1168 N1156 0.984 . S
H1169 N1156 0.985 . S
C1170 C1171 1.363 . S
C1170 C1176 1.379 . S
C1170 N1178 1.356 . S
C1171 C1170 1.363 . S
C1171 C1177 1.363 . S
C1172 C1173 1.363 . S
C1172 C1177 1.379 . S
C1172 N1179 1.356 . S
C1173 C1172 1.363 . S
C1173 C1176 1.363 . S
N1174 C1176 1.356 . S
N1174 H1186 0.984 . S
N1174 H1187 0.985 . S
N1175 C1177 1.356 1_655 S
N1175 H1180 0.984 . S
N1175 H1181 0.985 . S
C1176 C1170 1.379 . S
C1176 C1173 1.363 . S
C1176 N1174 1.356 . S
C1177 C1171 1.363 . S
C1177 C1172 1.379 . S
C1177 N1175 1.356 1_455 S
N1178 C1170 1.356 . S
N1178 H1184 0.984 . S
N1178 H1185 0.984 . S
N1179 C1172 1.356 . S
N1179 H1182 0.984 . S
N1179 H1183 0.985 . S
H1180 N1175 0.984 . S
H1181 N1175 0.985 . S
H1182 N1179 0.984 . S
H1183 N1179 0.985 . S
H1184 N1178 0.984 . S
H1185 N1178 0.984 . S
H1186 N1174 0.984 . S
H1187 N1174 0.985 . S
C1188 C1189 1.363 . S
C1188 C1194 1.379 . S
C1188 N1196 1.356 . S
C1189 C1188 1.363 . S
C1189 C1195 1.363 . S
C1190 C1191 1.363 . S
C1190 C1195 1.379 . S
C1190 N1197 1.356 . S
C1191 C1190 1.363 . S
C1191 C1194 1.363 . S
N1192 C1194 1.356 . S
N1192 H1204 0.984 . S
N1192 H1205 0.985 . S
N1193 C1195 1.356 . S
N1193 H1198 0.984 . S
N1193 H1199 0.985 . S
C1194 C1188 1.379 . S
C1194 C1191 1.363 . S
C1194 N1192 1.356 . S
C1195 C1189 1.363 . S
C1195 C1190 1.379 . S
C1195 N1193 1.356 . S
N1196 C1188 1.356 . S
N1196 H1202 0.984 . S
N1196 H1203 0.984 . S
N1197 C1190 1.356 . S
N1197 H1200 0.984 . S
N1197 H1201 0.985 . S
H1198 N1193 0.984 . S
H1199 N1193 0.985 . S
H1200 N1197 0.984 . S
H1201 N1197 0.985 . S
H1202 N1196 0.984 . S
H1203 N1196 0.984 . S
H1204 N1192 0.984 . S
H1205 N1192 0.985 . S
C1206 C1207 1.363 1_565 S
C1206 C1212 1.379 . S
C1206 N1214 1.356 1_565 S
C1207 C1206 1.363 1_545 S
C1207 C1213 1.363 1_545 S
C1208 C1209 1.363 . S
C1208 C1213 1.379 . S
C1208 N1215 1.356 . S
C1209 C1208 1.363 . S
C1209 C1212 1.363 . S
N1210 C1212 1.356 . S
N1210 H1222 0.984 . S
N1210 H1223 0.985 . S
N1211 C1213 1.356 1_545 S
N1211 H1216 0.984 . S
N1211 H1217 0.985 1_545 S
C1212 C1206 1.379 . S
C1212 C1209 1.363 . S
C1212 N1210 1.356 . S
C1213 C1207 1.363 1_565 S
C1213 C1208 1.379 . S
C1213 N1211 1.356 1_565 S
N1214 C1206 1.356 1_545 S
N1214 H1220 0.984 . S
N1214 H1221 0.984 . S
N1215 C1208 1.356 . S
N1215 H1218 0.984 . S
N1215 H1219 0.985 . S
H1216 N1211 0.984 . S
H1217 N1211 0.985 1_565 S
H1218 N1215 0.984 . S
H1219 N1215 0.985 . S
H1220 N1214 0.984 . S
H1221 N1214 0.984 . S
H1222 N1210 0.984 . S
H1223 N1210 0.985 . S
C1224 C1225 1.363 . S
C1224 C1230 1.379 . S
C1224 N1232 1.356 . S
C1225 C1224 1.363 . S
C1225 C1231 1.363 . S
C1226 C1227 1.363 . S
C1226 C1231 1.379 . S
C1226 N1233 1.356 . S
C1227 C1226 1.363 . S
C1227 C1230 1.363 . S
N1228 C1230 1.356 . S
N1228 H1240 0.984 . S
N1228 H1241 0.985 . S
N1229 C1231 1.356 . S
N1229 H1234 0.984 . S
N1229 H1235 0.985 . S
C1230 C1224 1.379 . S
C1230 C1227 1.363 . S
C1230 N1228 1.356 . S
C1231 C1225 1.363 . S
C1231 C1226 1.379 . S
C1231 N1229 1.356 . S
N1232 C1224 1.356 . S
N1232 H1238 0.984 . S
N1232 H1239 0.984 . S
N1233 C1226 1.356 . S
N1233 H1236 0.984 . S
N1233 H1237 0.985 . S
H1234 N1229 0.984 . S
H1235 N1229 0.985 . S
H1236 N1233 0.984 . S
H1237 N1233 0.985 . S
H1238 N1232 0.984 . S
H1239 N1232 0.984 . S
H1240 N1228 0.984 . S
H1241 N1228 0.985 . S
C1242 C1243 1.363 . S
C1242 C1248 1.379 . S
C1242 N1250 1.356 . S
C1243 C1242 1.363 . S
C1243 C1249 1.363 . S
C1244 C1245 1.363 . S
C1244 C1249 1.379 . S
C1244 N1251 1.356 . S
C1245 C1244 1.363 . S
C1245 C1248 1.363 . S
N1246 C1248 1.356 . S
N1246 H1258 0.984 . S
N1246 H1259 0.985 . S
N1247 C1249 1.356 . S
N1247 H1252 0.984 . S
N1247 H1253 0.985 . S
C1248 C1242 1.379 . S
C1248 C1245 1.363 . S
C1248 N1246 1.356 . S
C1249 C1243 1.363 . S
C1249 C1244 1.379 . S
C1249 N1247 1.356 . S
N1250 C1242 1.356 . S
N1250 H1256 0.984 . S
N1250 H1257 0.984 . S
N1251 C1244 1.356 . S
N1251 H1254 0.984 . S
N1251 H1255 0.985 . S
H1252 N1247 0.984 . S
H1253 N1247 0.985 . S
H1254 N1251 0.984 . S
H1255 N1251 0.985 . S
H1256 N1250 0.984 . S
H1257 N1250 0.984 . S
H1258 N1246 0.984 . S
H1259 N1246 0.985 . S
C1260 C1261 1.363 . S
C1260 C1266 1.379 . S
C1260 N1268 1.356 . S
C1261 C1260 1.363 . S
C1261 C1267 1.363 . S
C1262 C1263 1.363 . S
C1262 C1267 1.379 . S
C1262 N1269 1.356 . S
C1263 C1262 1.363 . S
C1263 C1266 1.363 . S
N1264 C1266 1.356 . S
N1264 H1276 0.984 . S
N1264 H1277 0.985 . S
N1265 C1267 1.356 . S
N1265 H1270 0.984 . S
N1265 H1271 0.985 . S
C1266 C1260 1.379 . S
C1266 C1263 1.363 . S
C1266 N1264 1.356 . S
C1267 C1261 1.363 . S
C1267 C1262 1.379 . S
C1267 N1265 1.356 . S
N1268 C1260 1.356 . S
N1268 H1274 0.984 . S
N1268 H1275 0.984 . S
N1269 C1262 1.356 . S
N1269 H1272 0.984 . S
N1269 H1273 0.985 . S
H1270 N1265 0.984 . S
H1271 N1265 0.985 . S
H1272 N1269 0.984 . S
H1273 N1269 0.985 . S
H1274 N1268 0.984 . S
H1275 N1268 0.984 . S
H1276 N1264 0.984 . S
H1277 N1264 0.985 . S
C1278 C1279 1.363 . S
C1278 C1284 1.379 . S
C1278 N1286 1.356 . S
C1279 C1278 1.363 . S
C1279 C1285 1.363 . S
C1280 C1281 1.363 . S
C1280 C1285 1.379 . S
C1280 N1287 1.356 . S
C1281 C1280 1.363 . S
C1281 C1284 1.363 . S
N1282 C1284 1.356 . S
N1282 H1294 0.984 . S
N1282 H1295 0.985 . S
N1283 C1285 1.356 . S
N1283 H1288 0.984 . S
N1283 H1289 0.985 . S
C1284 C1278 1.379 . S
C1284 C1281 1.363 . S
C1284 N1282 1.356 . S
C1285 C1279 1.363 . S
C1285 C1280 1.379 . S
C1285 N1283 1.356 . S
N1286 C1278 1.356 . S
N1286 H1292 0.984 . S
N1286 H1293 0.984 . S
N1287 C1280 1.356 . S
N1287 H1290 0.984 . S
N1287 H1291 0.985 . S
H1288 N1283 0.984 . S
H1289 N1283 0.985 . S
H1290 N1287 0.984 . S
H1291 N1287 0.985 . S
H1292 N1286 0.984 . S
H1293 N1286 0.984 . S
H1294 N1282 0.984 . S
H1295 N1282 0.985 . S
C1296 C1297 1.363 . S
C1296 C1302 1.379 . S
C1296 N1304 1.356 . S
C1297 C1296 1.363 . S
C1297 C1303 1.363 . S
C1298 C1299 1.363 . S
C1298 C1303 1.379 . S
C1298 N1305 1.356 . S
C1299 C1298 1.363 . S
C1299 C1302 1.363 . S
N1300 C1302 1.356 . S
N1300 H1312 0.984 . S
N1300 H1313 0.985 . S
N1301 C1303 1.356 . S
N1301 H1306 0.984 . S
N1301 H1307 0.985 . S
C1302 C1296 1.379 . S
C1302 C1299 1.363 . S
C1302 N1300 1.356 . S
C1303 C1297 1.363 . S
C1303 C1298 1.379 . S
C1303 N1301 1.356 . S
N1304 C1296 1.356 . S
N1304 H1310 0.984 . S
N1304 H1311 0.984 . S
N1305 C1298 1.356 . S
N1305 H1308 0.984 . S
N1305 H1309 0.985 . S
H1306 N1301 0.984 . S
H1307 N1301 0.985 . S
H1308 N1305 0.984 . S
H1309 N1305 0.985 . S
H1310 N1304 0.984 . S
H1311 N1304 0.984 . S
H1312 N1300 0.984 . S
H1313 N1300 0.985 . S
C1314 C1315 1.363 . S
C1314 C1320 1.379 . S
C1314 N1322 1.356 . S
C1315 C1314 1.363 . S
C1315 C1321 1.363 . S
C1316 C1317 1.363 . S
C1316 C1321 1.379 . S
C1316 N1323 1.356 . S
C1317 C1316 1.363 . S
C1317 C1320 1.363 . S
N1318 C1320 1.356 . S
N1318 H1330 0.984 . S
N1318 H1331 0.985 . S
N1319 C1321 1.356 . S
N1319 H1324 0.984 . S
N1319 H1325 0.985 . S
C1320 C1314 1.379 . S
C1320 C1317 1.363 . S
C1320 N1318 1.356 . S
C1321 C1315 1.363 . S
C1321 C1316 1.379 . S
C1321 N1319 1.356 . S
N1322 C1314 1.356 . S
N1322 H1328 0.984 . S
N1322 H1329 0.984 . S
N1323 C1316 1.356 . S
N1323 H1326 0.984 . S
N1323 H1327 0.985 . S
H1324 N1319 0.984 . S
H1325 N1319 0.985 . S
H1326 N1323 0.984 . S
H1327 N1323 0.985 . S
H1328 N1322 0.984 . S
H1329 N1322 0.984 . S
H1330 N1318 0.984 . S
H1331 N1318 0.985 . S
C1332 C1333 1.363 . S
C1332 C1338 1.379 . S
C1332 N1340 1.356 . S
C1333 C1332 1.363 . S
C1333 C1339 1.363 . S
C1334 C1335 1.363 . S
C1334 C1339 1.379 . S
C1334 N1341 1.356 . S
C1335 C1334 1.363 . S
C1335 C1338 1.363 . S
N1336 C1338 1.356 . S
N1336 H1348 0.984 . S
N1336 H1349 0.985 . S
N1337 C1339 1.356 1_545 S
N1337 H1342 0.984 . S
N1337 H1343 0.985 . S
C1338 C1332 1.379 . S
C1338 C1335 1.363 . S
C1338 N1336 1.356 . S
C1339 C1333 1.363 . S
C1339 C1334 1.379 . S
C1339 N1337 1.356 1_565 S
N1340 C1332 1.356 . S
N1340 H1346 0.984 . S
N1340 H1347 0.984 1_565 S
N1341 C1334 1.356 . S
N1341 H1344 0.984 . S
N1341 H1345 0.985 . S
H1342 N1337 0.984 . S
H1343 N1337 0.985 . S
H1344 N1341 0.984 . S
H1345 N1341 0.985 . S
H1346 N1340 0.984 . S
H1347 N1340 0.984 1_545 S
H1348 N1336 0.984 . S
H1349 N1336 0.985 . S
C1350 C1351 1.363 . S
C1350 C1356 1.379 . S
C1350 N1358 1.356 1_455 S
C1351 C1350 1.363 . S
C1351 C1357 1.363 . S
C1352 C1353 1.363 . S
C1352 C1357 1.379 . S
C1352 N1359 1.356 . S
C1353 C1352 1.363 . S
C1353 C1356 1.363 . S
N1354 C1356 1.356 . S
N1354 H1366 0.984 . S
N1354 H1367 0.985 . S
N1355 C1357 1.356 . S
N1355 H1360 0.984 1_455 S
N1355 H1361 0.985 . S
C1356 C1350 1.379 . S
C1356 C1353 1.363 . S
C1356 N1354 1.356 . S
C1357 C1351 1.363 . S
C1357 C1352 1.379 . S
C1357 N1355 1.356 . S
N1358 C1350 1.356 1_655 S
N1358 H1364 0.979 . S
N1358 H1365 0.984 . S
N1359 C1352 1.356 . S
N1359 H1362 0.984 . S
N1359 H1363 0.985 . S
H1360 N1355 0.984 1_655 S
H1361 N1355 0.985 . S
H1362 N1359 0.984 . S
H1363 N1359 0.985 . S
H1364 N1358 0.979 . S
H1365 N1358 0.984 . S
H1366 N1354 0.984 . S
H1367 N1354 0.985 . S
C1368 C1369 1.363 . S
C1368 C1374 1.379 . S
C1368 N1376 1.356 . S
C1369 C1368 1.363 . S
C1369 C1375 1.363 . S
C1370 C1371 1.363 . S
C1370 C1375 1.379 . S
C1370 N1377 1.356 . S
C1371 C1370 1.363 . S
C1371 C1374 1.363 . S
N1372 C1374 1.356 . S
N1372 H1384 0.984 . S
N1372 H1385 0.985 . S
N1373 C1375 1.356 . S
N1373 H1378 0.984 . S
N1373 H1379 0.985 . S
C1374 C1368 1.379 . S
C1374 C1371 1.363 . S
C1374 N1372 1.356 . S
C1375 C1369 1.363 . S
C1375 C1370 1.379 . S
C1375 N1373 1.356 . S
N1376 C1368 1.356 . S
N1376 H1382 0.984 . S
N1376 H1383 0.984 . S
N1377 C1370 1.356 . S
N1377 H1380 0.984 . S
N1377 H1381 0.985 . S
H1378 N1373 0.984 . S
H1379 N1373 0.985 . S
H1380 N1377 0.984 . S
H1381 N1377 0.985 . S
H1382 N1376 0.984 . S
H1383 N1376 0.984 . S
H1384 N1372 0.984 . S
H1385 N1372 0.985 . S
C1386 C1387 1.363 . S
C1386 C1392 1.379 . S
C1386 N1394 1.356 . S
C1387 C1386 1.363 . S
C1387 C1393 1.363 . S
C1388 C1389 1.363 . S
C1388 C1393 1.379 . S
C1388 N1395 1.356 . S
C1389 C1388 1.363 . S
C1389 C1392 1.363 . S
N1390 C1392 1.356 . S
N1390 H1402 0.984 . S
N1390 H1403 0.985 . S
N1391 C1393 1.356 . S
N1391 H1396 0.984 . S
N1391 H1397 0.985 . S
C1392 C1386 1.379 . S
C1392 C1389 1.363 . S
C1392 N1390 1.356 . S
C1393 C1387 1.363 . S
C1393 C1388 1.379 . S
C1393 N1391 1.356 . S
N1394 C1386 1.356 . S
N1394 H1400 0.984 . S
N1394 H1401 0.984 . S
N1395 C1388 1.356 . S
N1395 H1398 0.984 . S
N1395 H1399 0.985 . S
H1396 N1391 0.984 . S
H1397 N1391 0.985 . S
H1398 N1395 0.984 . S
H1399 N1395 0.985 . S
H1400 N1394 0.984 . S
H1401 N1394 0.984 . S
H1402 N1390 0.984 . S
H1403 N1390 0.985 . S
C1404 C1405 1.363 . S
C1404 C1410 1.379 . S
C1404 N1412 1.356 . S
C1405 C1404 1.363 . S
C1405 C1411 1.363 . S
C1406 C1407 1.363 . S
C1406 C1411 1.379 . S
C1406 N1413 1.356 . S
C1407 C1406 1.363 . S
C1407 C1410 1.363 . S
N1408 C1410 1.356 . S
N1408 H1420 0.984 . S
N1408 H1421 0.985 . S
N1409 C1411 1.356 . S
N1409 H1414 0.984 . S
N1409 H1415 0.985 . S
C1410 C1404 1.379 . S
C1410 C1407 1.363 . S
C1410 N1408 1.356 . S
C1411 C1405 1.363 . S
C1411 C1406 1.379 . S
C1411 N1409 1.356 . S
N1412 C1404 1.356 . S
N1412 H1418 0.984 . S
N1412 H1419 0.984 . S
N1413 C1406 1.356 . S
N1413 H1416 0.984 . S
N1413 H1417 0.985 . S
H1414 N1409 0.984 . S
H1415 N1409 0.985 . S
H1416 N1413 0.984 . S
H1417 N1413 0.985 . S
H1418 N1412 0.984 . S
H1419 N1412 0.984 . S
H1420 N1408 0.984 . S
H1421 N1408 0.985 . S
C1422 C1423 1.363 . S
C1422 C1428 1.379 . S
C1422 N1430 1.356 . S
C1423 C1422 1.363 . S
C1423 C1429 1.363 . S
C1424 C1425 1.363 . S
C1424 C1429 1.379 . S
C1424 N1431 1.356 . S
C1425 C1424 1.363 . S
C1425 C1428 1.363 . S
N1426 C1428 1.356 . S
N1426 H1438 0.984 . S
N1426 H1439 0.985 . S
N1427 C1429 1.356 . S
N1427 H1432 0.984 . S
N1427 H1433 0.985 . S
C1428 C1422 1.379 . S
C1428 C1425 1.363 . S
C1428 N1426 1.356 . S
C1429 C1423 1.363 . S
C1429 C1424 1.379 . S
C1429 N1427 1.356 . S
N1430 C1422 1.356 . S
N1430 H1436 0.984 . S
N1430 H1437 0.984 . S
N1431 C1424 1.356 . S
N1431 H1434 0.984 . S
N1431 H1435 0.985 . S
H1432 N1427 0.984 . S
H1433 N1427 0.985 . S
H1434 N1431 0.984 . S
H1435 N1431 0.985 . S
H1436 N1430 0.984 . S
H1437 N1430 0.984 . S
H1438 N1426 0.984 . S
H1439 N1426 0.985 . S
C1440 C1441 1.363 . S
C1440 C1446 1.379 . S
C1440 N1448 1.356 1_545 S
C1441 C1440 1.363 . S
C1441 C1447 1.363 . S
C1442 C1443 1.363 . S
C1442 C1447 1.379 . S
C1442 N1449 1.356 . S
C1443 C1442 1.363 . S
C1443 C1446 1.363 . S
N1444 C1446 1.356 . S
N1444 H1456 0.984 . S
N1444 H1457 0.985 . S
N1445 C1447 1.351 1_565 S
N1445 H1450 0.990 . S
N1445 H1451 0.984 1_565 S
C1446 C1440 1.379 . S
C1446 C1443 1.363 . S
C1446 N1444 1.356 . S
C1447 C1441 1.363 . S
C1447 C1442 1.379 . S
C1447 N1445 1.351 1_545 S
N1448 C1440 1.356 1_565 S
N1448 H1454 0.984 . S
N1448 H1455 0.984 . S
N1449 C1442 1.356 . S
N1449 H1452 0.984 . S
N1449 H1453 0.985 . S
H1450 N1445 0.990 . S
H1451 N1445 0.984 1_545 S
H1452 N1449 0.984 . S
H1453 N1449 0.985 . S
H1454 N1448 0.984 . S
H1455 N1448 0.984 . S
H1456 N1444 0.984 . S
H1457 N1444 0.985 . S
C1458 C1459 1.363 1_655 S
C1458 C1464 1.379 . S
C1458 N1466 1.356 1_655 S
C1459 C1458 1.363 1_455 S
C1459 C1465 1.363 1_455 S
C1460 C1461 1.363 . S
C1460 C1465 1.379 . S
C1460 N1467 1.356 . S
C1461 C1460 1.363 . S
C1461 C1464 1.363 . S
N1462 C1464 1.356 . S
N1462 H1474 0.984 . S
N1462 H1475 0.985 . S
N1463 C1465 1.356 1_455 S
N1463 H1468 0.984 . S
N1463 H1469 0.985 . S
C1464 C1458 1.379 . S
C1464 C1461 1.363 . S
C1464 N1462 1.356 . S
C1465 C1459 1.363 1_655 S
C1465 C1460 1.379 . S
C1465 N1463 1.356 1_655 S
N1466 C1458 1.356 1_455 S
N1466 H1472 0.984 . S
N1466 H1473 0.984 . S
N1467 C1460 1.356 . S
N1467 H1470 0.984 . S
N1467 H1471 0.985 . S
H1468 N1463 0.984 . S
H1469 N1463 0.985 . S
H1470 N1467 0.984 . S
H1471 N1467 0.985 . S
H1472 N1466 0.984 . S
H1473 N1466 0.984 . S
H1474 N1462 0.984 . S
H1475 N1462 0.985 . S
C1476 C1477 1.363 . S
C1476 C1482 1.379 . S
C1476 N1484 1.356 . S
C1477 C1476 1.363 . S
C1477 C1483 1.363 . S
C1478 C1479 1.363 . S
C1478 C1483 1.379 . S
C1478 N1485 1.356 . S
C1479 C1478 1.363 . S
C1479 C1482 1.363 . S
N1480 C1482 1.356 . S
N1480 H1492 0.984 . S
N1480 H1493 0.985 . S
N1481 C1483 1.356 . S
N1481 H1486 0.984 . S
N1481 H1487 0.985 . S
C1482 C1476 1.379 . S
C1482 C1479 1.363 . S
C1482 N1480 1.356 . S
C1483 C1477 1.363 . S
C1483 C1478 1.379 . S
C1483 N1481 1.356 . S
N1484 C1476 1.356 . S
N1484 H1490 0.984 . S
N1484 H1491 0.984 . S
N1485 C1478 1.356 . S
N1485 H1488 0.984 . S
N1485 H1489 0.985 . S
H1486 N1481 0.984 . S
H1487 N1481 0.985 . S
H1488 N1485 0.984 . S
H1489 N1485 0.985 . S
H1490 N1484 0.984 . S
H1491 N1484 0.984 . S
H1492 N1480 0.984 . S
H1493 N1480 0.985 . S
C1494 C1495 1.363 . S
C1494 C1500 1.379 . S
C1494 N1502 1.356 . S
C1495 C1494 1.363 . S
C1495 C1501 1.363 . S
C1496 C1497 1.363 . S
C1496 C1501 1.379 . S
C1496 N1503 1.356 . S
C1497 C1496 1.363 . S
C1497 C1500 1.363 . S
N1498 C1500 1.356 . S
N1498 H1510 0.984 . S
N1498 H1511 0.985 . S
N1499 C1501 1.356 . S
N1499 H1504 0.984 1_655 S
N1499 H1505 0.985 1_655 S
C1500 C1494 1.379 . S
C1500 C1497 1.363 . S
C1500 N1498 1.356 . S
C1501 C1495 1.363 . S
C1501 C1496 1.379 . S
C1501 N1499 1.356 . S
N1502 C1494 1.356 . S
N1502 H1508 0.984 . S
N1502 H1509 0.984 . S
N1503 C1496 1.356 . S
N1503 H1506 0.984 . S
N1503 H1507 0.985 . S
H1504 N1499 0.984 1_455 S
H1505 N1499 0.985 1_455 S
H1506 N1503 0.984 . S
H1507 N1503 0.985 . S
H1508 N1502 0.984 . S
H1509 N1502 0.984 . S
H1510 N1498 0.984 . S
H1511 N1498 0.985 . S
C1512 C1513 1.363 . S
C1512 C1518 1.379 . S
C1512 N1520 1.356 . S
C1513 C1512 1.363 . S
C1513 C1519 1.363 . S
C1514 C1515 1.363 . S
C1514 C1519 1.379 . S
C1514 N1521 1.356 . S
C1515 C1514 1.363 . S
C1515 C1518 1.363 . S
N1516 C1518 1.356 . S
N1516 H1528 0.984 . S
N1516 H1529 0.985 . S
N1517 C1519 1.356 . S
N1517 H1522 0.984 . S
N1517 H1523 0.985 . S
C1518 C1512 1.379 . S
C1518 C1515 1.363 . S
C1518 N1516 1.356 . S
C1519 C1513 1.363 . S
C1519 C1514 1.379 . S
C1519 N1517 1.356 . S
N1520 C1512 1.356 . S
N1520 H1526 0.984 . S
N1520 H1527 0.984 . S
N1521 C1514 1.356 . S
N1521 H1524 0.984 . S
N1521 H1525 0.985 . S
H1522 N1517 0.984 . S
H1523 N1517 0.985 . S
H1524 N1521 0.984 . S
H1525 N1521 0.985 . S
H1526 N1520 0.984 . S
H1527 N1520 0.984 . S
H1528 N1516 0.984 . S
H1529 N1516 0.985 . S
C1530 C1531 1.363 . S
C1530 C1536 1.379 . S
C1530 N1538 1.356 . S
C1531 C1530 1.363 . S
C1531 C1537 1.363 . S
C1532 C1533 1.363 . S
C1532 C1537 1.379 . S
C1532 N1539 1.356 . S
C1533 C1532 1.363 . S
C1533 C1536 1.363 . S
N1534 C1536 1.356 . S
N1534 H1546 0.984 . S
N1534 H1547 0.985 . S
N1535 C1537 1.356 1_565 S
N1535 H1540 0.984 . S
N1535 H1541 0.985 . S
C1536 C1530 1.379 . S
C1536 C1533 1.363 . S
C1536 N1534 1.356 . S
C1537 C1531 1.363 . S
C1537 C1532 1.379 . S
C1537 N1535 1.356 1_545 S
N1538 C1530 1.356 . S
N1538 H1544 0.984 . S
N1538 H1545 0.984 1_545 S
N1539 C1532 1.356 . S
N1539 H1542 0.984 . S
N1539 H1543 0.985 . S
H1540 N1535 0.984 . S
H1541 N1535 0.985 . S
H1542 N1539 0.984 . S
H1543 N1539 0.985 . S
H1544 N1538 0.984 . S
H1545 N1538 0.984 1_565 S
H1546 N1534 0.984 . S
H1547 N1534 0.985 . S
C1548 C1549 1.363 . S
C1548 C1554 1.379 . S
C1548 N1556 1.356 . S
C1549 C1548 1.363 . S
C1549 C1555 1.363 . S
C1550 C1551 1.363 . S
C1550 C1555 1.379 . S
C1550 N1557 1.356 . S
C1551 C1550 1.363 . S
C1551 C1554 1.363 . S
N1552 C1554 1.356 . S
N1552 H1564 0.984 . S
N1552 H1565 0.985 . S
N1553 C1555 1.356 . S
N1553 H1558 0.984 . S
N1553 H1559 0.985 . S
C1554 C1548 1.379 . S
C1554 C1551 1.363 . S
C1554 N1552 1.356 . S
C1555 C1549 1.363 . S
C1555 C1550 1.379 . S
C1555 N1553 1.356 . S
N1556 C1548 1.356 . S
N1556 H1562 0.984 . S
N1556 H1563 0.984 . S
N1557 C1550 1.356 . S
N1557 H1560 0.984 . S
N1557 H1561 0.985 . S
H1558 N1553 0.984 . S
H1559 N1553 0.985 . S
H1560 N1557 0.984 . S
H1561 N1557 0.985 . S
H1562 N1556 0.984 . S
H1563 N1556 0.984 . S
H1564 N1552 0.984 . S
H1565 N1552 0.985 . S
C1566 C1567 1.363 . S
C1566 C1572 1.379 . S
C1566 N1574 1.356 . S
C1567 C1566 1.363 . S
C1567 C1573 1.363 . S
C1568 C1569 1.363 . S
C1568 C1573 1.379 . S
C1568 N1575 1.356 . S
C1569 C1568 1.363 . S
C1569 C1572 1.363 . S
N1570 C1572 1.356 . S
N1570 H1582 0.984 . S
N1570 H1583 0.985 . S
N1571 C1573 1.356 . S
N1571 H1576 0.984 . S
N1571 H1577 0.985 . S
C1572 C1566 1.379 . S
C1572 C1569 1.363 . S
C1572 N1570 1.356 . S
C1573 C1567 1.363 . S
C1573 C1568 1.379 . S
C1573 N1571 1.356 . S
N1574 C1566 1.356 . S
N1574 H1580 0.984 . S
N1574 H1581 0.984 . S
N1575 C1568 1.356 . S
N1575 H1578 0.984 . S
N1575 H1579 0.985 . S
H1576 N1571 0.984 . S
H1577 N1571 0.985 . S
H1578 N1575 0.984 . S
H1579 N1575 0.985 . S
H1580 N1574 0.984 . S
H1581 N1574 0.984 . S
H1582 N1570 0.984 . S
H1583 N1570 0.985 . S
C1584 C1585 1.363 . S
C1584 C1590 1.379 . S
C1584 N1592 1.356 . S
C1585 C1584 1.363 . S
C1585 C1591 1.363 . S
C1586 C1587 1.363 . S
C1586 C1591 1.379 . S
C1586 N1593 1.356 . S
C1587 C1586 1.363 . S
C1587 C1590 1.363 . S
N1588 C1590 1.356 . S
N1588 H1600 0.984 . S
N1588 H1601 0.985 . S
N1589 C1591 1.356 . S
N1589 H1594 0.984 . S
N1589 H1595 0.985 . S
C1590 C1584 1.379 . S
C1590 C1587 1.363 . S
C1590 N1588 1.356 . S
C1591 C1585 1.363 . S
C1591 C1586 1.379 . S
C1591 N1589 1.356 . S
N1592 C1584 1.356 . S
N1592 H1598 0.984 . S
N1592 H1599 0.984 . S
N1593 C1586 1.356 . S
N1593 H1596 0.984 . S
N1593 H1597 0.985 . S
H1594 N1589 0.984 . S
H1595 N1589 0.985 . S
H1596 N1593 0.984 . S
H1597 N1593 0.985 . S
H1598 N1592 0.984 . S
H1599 N1592 0.984 . S
H1600 N1588 0.984 . S
H1601 N1588 0.985 . S
C1602 C1603 1.363 . S
C1602 C1608 1.379 . S
C1602 N1610 1.356 . S
C1603 C1602 1.363 . S
C1603 C1609 1.363 . S
C1604 C1605 1.363 . S
C1604 C1609 1.379 . S
C1604 N1611 1.356 . S
C1605 C1604 1.363 . S
C1605 C1608 1.363 . S
N1606 C1608 1.356 1_545 S
N1606 H1618 0.984 . S
N1606 H1619 0.985 . S
N1607 C1609 1.356 . S
N1607 H1612 0.984 . S
N1607 H1613 0.985 . S
C1608 C1602 1.379 . S
C1608 C1605 1.363 . S
C1608 N1606 1.356 1_565 S
C1609 C1603 1.363 . S
C1609 C1604 1.379 . S
C1609 N1607 1.356 . S
N1610 C1602 1.356 . S
N1610 H1616 0.984 1_565 S
N1610 H1617 0.984 . S
N1611 C1604 1.356 . S
N1611 H1614 0.984 . S
N1611 H1615 0.985 . S
H1612 N1607 0.984 . S
H1613 N1607 0.985 . S
H1614 N1611 0.984 . S
H1615 N1611 0.985 . S
H1616 N1610 0.984 1_545 S
H1617 N1610 0.984 . S
H1618 N1606 0.984 . S
H1619 N1606 0.985 . S
C1620 C1621 1.363 . S
C1620 C1626 1.379 . S
C1620 N1628 1.356 . S
C1621 C1620 1.363 . S
C1621 C1627 1.363 . S
C1622 C1623 1.363 . S
C1622 C1627 1.379 . S
C1622 N1629 1.356 . S
C1623 C1622 1.363 . S
C1623 C1626 1.363 . S
N1624 C1626 1.356 . S
N1624 H1636 0.984 . S
N1624 H1637 0.985 . S
N1625 C1627 1.356 . S
N1625 H1630 0.984 . S
N1625 H1631 0.985 . S
C1626 C1620 1.379 . S
C1626 C1623 1.363 . S
C1626 N1624 1.356 . S
C1627 C1621 1.363 . S
C1627 C1622 1.379 . S
C1627 N1625 1.356 . S
N1628 C1620 1.356 . S
N1628 H1634 0.984 . S
N1628 H1635 0.984 . S
N1629 C1622 1.356 . S
N1629 H1632 0.984 . S
N1629 H1633 0.985 . S
H1630 N1625 0.984 . S
H1631 N1625 0.985 . S
H1632 N1629 0.984 . S
H1633 N1629 0.985 . S
H1634 N1628 0.984 . S
H1635 N1628 0.984 . S
H1636 N1624 0.984 . S
H1637 N1624 0.985 . S
C1638 C1639 1.363 . S
C1638 C1644 1.379 . S
C1638 N1646 1.356 . S
C1639 C1638 1.363 . S
C1639 C1645 1.363 . S
C1640 C1641 1.363 . S
C1640 C1645 1.379 . S
C1640 N1647 1.356 . S
C1641 C1640 1.363 . S
C1641 C1644 1.363 . S
N1642 C1644 1.356 . S
N1642 H1654 0.984 . S
N1642 H1655 0.985 . S
N1643 C1645 1.356 . S
N1643 H1648 0.984 . S
N1643 H1649 0.985 . S
C1644 C1638 1.379 . S
C1644 C1641 1.363 . S
C1644 N1642 1.356 . S
C1645 C1639 1.363 . S
C1645 C1640 1.379 . S
C1645 N1643 1.356 . S
N1646 C1638 1.356 . S
N1646 H1652 0.984 . S
N1646 H1653 0.984 . S
N1647 C1640 1.356 . S
N1647 H1650 0.984 . S
N1647 H1651 0.985 . S
H1648 N1643 0.984 . S
H1649 N1643 0.985 . S
H1650 N1647 0.984 . S
H1651 N1647 0.985 . S
H1652 N1646 0.984 . S
H1653 N1646 0.984 . S
H1654 N1642 0.984 . S
H1655 N1642 0.985 . S
C1656 C1657 1.363 . S
C1656 C1662 1.379 . S
C1656 N1664 1.356 . S
C1657 C1656 1.363 . S
C1657 C1663 1.363 . S
C1658 C1659 1.363 . S
C1658 C1663 1.379 . S
C1658 N1665 1.356 . S
C1659 C1658 1.363 . S
C1659 C1662 1.363 . S
N1660 C1662 1.356 . S
N1660 H1672 0.984 . S
N1660 H1673 0.985 . S
N1661 C1663 1.356 . S
N1661 H1666 0.984 . S
N1661 H1667 0.985 . S
C1662 C1656 1.379 . S
C1662 C1659 1.363 . S
C1662 N1660 1.356 . S
C1663 C1657 1.363 . S
C1663 C1658 1.379 . S
C1663 N1661 1.356 . S
N1664 C1656 1.356 . S
N1664 H1670 0.984 . S
N1664 H1671 0.984 . S
N1665 C1658 1.356 . S
N1665 H1668 0.984 . S
N1665 H1669 0.985 . S
H1666 N1661 0.984 . S
H1667 N1661 0.985 . S
H1668 N1665 0.984 . S
H1669 N1665 0.985 . S
H1670 N1664 0.984 . S
H1671 N1664 0.984 . S
H1672 N1660 0.984 . S
H1673 N1660 0.985 . S
C1674 C1675 1.363 . S
C1674 C1680 1.379 . S
C1674 N1682 1.356 . S
C1675 C1674 1.363 . S
C1675 C1681 1.363 . S
C1676 C1677 1.363 . S
C1676 C1681 1.379 . S
C1676 N1683 1.356 . S
C1677 C1676 1.363 . S
C1677 C1680 1.363 . S
N1678 C1680 1.356 . S
N1678 H1690 0.984 . S
N1678 H1691 0.985 . S
N1679 C1681 1.356 . S
N1679 H1684 0.984 . S
N1679 H1685 0.985 . S
C1680 C1674 1.379 . S
C1680 C1677 1.363 . S
C1680 N1678 1.356 . S
C1681 C1675 1.363 . S
C1681 C1676 1.379 . S
C1681 N1679 1.356 . S
N1682 C1674 1.356 . S
N1682 H1688 0.984 . S
N1682 H1689 0.984 . S
N1683 C1676 1.356 . S
N1683 H1686 0.984 . S
N1683 H1687 0.985 . S
H1684 N1679 0.984 . S
H1685 N1679 0.985 . S
H1686 N1683 0.984 . S
H1687 N1683 0.985 . S
H1688 N1682 0.984 . S
H1689 N1682 0.984 . S
H1690 N1678 0.984 . S
H1691 N1678 0.985 . S
C1692 C1693 1.363 . S
C1692 C1698 1.379 . S
C1692 N1700 1.356 . S
C1693 C1692 1.363 . S
C1693 C1699 1.363 . S
C1694 C1695 1.363 . S
C1694 C1699 1.379 . S
C1694 N1701 1.356 . S
C1695 C1694 1.363 . S
C1695 C1698 1.363 . S
N1696 C1698 1.356 . S
N1696 H1708 0.984 1_545 S
N1696 H1709 0.985 . S
N1697 C1699 1.356 . S
N1697 H1702 0.984 . S
N1697 H1703 0.985 . S
C1698 C1692 1.379 . S
C1698 C1695 1.363 . S
C1698 N1696 1.356 . S
C1699 C1693 1.363 . S
C1699 C1694 1.379 . S
C1699 N1697 1.356 . S
N1700 C1692 1.356 . S
N1700 H1706 0.984 . S
N1700 H1707 0.984 . S
N1701 C1694 1.356 . S
N1701 H1704 0.984 . S
N1701 H1705 0.985 . S
H1702 N1697 0.984 . S
H1703 N1697 0.985 . S
H1704 N1701 0.984 . S
H1705 N1701 0.985 . S
H1706 N1700 0.984 . S
H1707 N1700 0.984 . S
H1708 N1696 0.984 1_565 S
H1709 N1696 0.985 . S
C1710 C1711 1.363 . S
C1710 C1716 1.379 . S
C1710 N1718 1.356 . S
C1711 C1710 1.363 . S
C1711 C1717 1.363 . S
C1712 C1713 1.363 . S
C1712 C1717 1.379 . S
C1712 N1719 1.356 . S
C1713 C1712 1.363 . S
C1713 C1716 1.363 . S
N1714 C1716 1.356 . S
N1714 H1726 0.984 . S
N1714 H1727 0.985 . S
N1715 C1717 1.356 . S
N1715 H1720 0.984 . S
N1715 H1721 0.985 . S
C1716 C1710 1.379 . S
C1716 C1713 1.363 . S
C1716 N1714 1.356 . S
C1717 C1711 1.363 . S
C1717 C1712 1.379 . S
C1717 N1715 1.356 . S
N1718 C1710 1.356 . S
N1718 H1724 0.984 . S
N1718 H1725 0.984 . S
N1719 C1712 1.356 . S
N1719 H1722 0.984 . S
N1719 H1723 0.985 . S
H1720 N1715 0.984 . S
H1721 N1715 0.985 . S
H1722 N1719 0.984 . S
H1723 N1719 0.985 . S
H1724 N1718 0.984 . S
H1725 N1718 0.984 . S
H1726 N1714 0.984 . S
H1727 N1714 0.985 . S
C1728 C1729 1.363 . S
C1728 C1734 1.379 . S
C1728 N1736 1.356 . S
C1729 C1728 1.363 . S
C1729 C1735 1.363 . S
C1730 C1731 1.363 . S
C1730 C1735 1.379 . S
C1730 N1737 1.356 . S
C1731 C1730 1.363 . S
C1731 C1734 1.363 . S
N1732 C1734 1.356 . S
N1732 H1744 0.984 . S
N1732 H1745 0.985 . S
N1733 C1735 1.356 . S
N1733 H1738 0.984 . S
N1733 H1739 0.985 . S
C1734 C1728 1.379 . S
C1734 C1731 1.363 . S
C1734 N1732 1.356 . S
C1735 C1729 1.363 . S
C1735 C1730 1.379 . S
C1735 N1733 1.356 . S
N1736 C1728 1.356 . S
N1736 H1742 0.984 . S
N1736 H1743 0.984 . S
N1737 C1730 1.356 . S
N1737 H1740 0.984 . S
N1737 H1741 0.985 . S
H1738 N1733 0.984 . S
H1739 N1733 0.985 . S
H1740 N1737 0.984 . S
H1741 N1737 0.985 . S
H1742 N1736 0.984 . S
H1743 N1736 0.984 . S
H1744 N1732 0.984 . S
H1745 N1732 0.985 . S
C1746 C1747 1.363 . S
C1746 C1752 1.379 . S
C1746 N1754 1.356 . S
C1747 C1746 1.363 . S
C1747 C1753 1.363 . S
C1748 C1749 1.363 . S
C1748 C1753 1.379 . S
C1748 N1755 1.356 . S
C1749 C1748 1.363 . S
C1749 C1752 1.363 . S
N1750 C1752 1.356 . S
N1750 H1762 0.984 . S
N1750 H1763 0.985 . S
N1751 C1753 1.356 . S
N1751 H1756 0.984 . S
N1751 H1757 0.985 . S
C1752 C1746 1.379 . S
C1752 C1749 1.363 . S
C1752 N1750 1.356 . S
C1753 C1747 1.363 . S
C1753 C1748 1.379 . S
C1753 N1751 1.356 . S
N1754 C1746 1.356 . S
N1754 H1760 0.984 . S
N1754 H1761 0.984 . S
N1755 C1748 1.356 . S
N1755 H1758 0.984 . S
N1755 H1759 0.985 . S
H1756 N1751 0.984 . S
H1757 N1751 0.985 . S
H1758 N1755 0.984 . S
H1759 N1755 0.985 . S
H1760 N1754 0.984 . S
H1761 N1754 0.984 . S
H1762 N1750 0.984 . S
H1763 N1750 0.985 . S
C1764 C1765 1.363 . S
C1764 C1770 1.379 . S
C1764 N1772 1.356 . S
C1765 C1764 1.363 . S
C1765 C1771 1.363 . S
C1766 C1767 1.363 . S
C1766 C1771 1.379 . S
C1766 N1773 1.356 . S
C1767 C1766 1.363 . S
C1767 C1770 1.363 . S
N1768 C1770 1.356 . S
N1768 H1780 0.984 . S
N1768 H1781 0.985 . S
N1769 C1771 1.356 . S
N1769 H1774 0.984 . S
N1769 H1775 0.985 . S
C1770 C1764 1.379 . S
C1770 C1767 1.363 . S
C1770 N1768 1.356 . S
C1771 C1765 1.363 . S
C1771 C1766 1.379 . S
C1771 N1769 1.356 . S
N1772 C1764 1.356 . S
N1772 H1778 0.984 . S
N1772 H1779 0.984 . S
N1773 C1766 1.356 . S
N1773 H1776 0.984 . S
N1773 H1777 0.985 . S
H1774 N1769 0.984 . S
H1775 N1769 0.985 . S
H1776 N1773 0.984 . S
H1777 N1773 0.985 . S
H1778 N1772 0.984 . S
H1779 N1772 0.984 . S
H1780 N1768 0.984 . S
H1781 N1768 0.985 . S
C1782 C1783 1.363 . S
C1782 C1788 1.379 . S
C1782 N1790 1.356 . S
C1783 C1782 1.363 . S
C1783 C1789 1.363 . S
C1784 C1785 1.363 . S
C1784 C1789 1.379 . S
C1784 N1791 1.356 . S
C1785 C1784 1.363 . S
C1785 C1788 1.363 . S
N1786 C1788 1.356 . S
N1786 H1798 0.984 . S
N1786 H1799 0.985 . S
N1787 C1789 1.356 . S
N1787 H1792 0.984 . S
N1787 H1793 0.985 . S
C1788 C1782 1.379 . S
C1788 C1785 1.363 . S
C1788 N1786 1.356 . S
C1789 C1783 1.363 . S
C1789 C1784 1.379 . S
C1789 N1787 1.356 . S
N1790 C1782 1.356 . S
N1790 H1796 0.984 . S
N1790 H1797 0.984 . S
N1791 C1784 1.356 . S
N1791 H1794 0.984 . S
N1791 H1795 0.985 . S
H1792 N1787 0.984 . S
H1793 N1787 0.985 . S
H1794 N1791 0.984 . S
H1795 N1791 0.985 . S
H1796 N1790 0.984 . S
H1797 N1790 0.984 . S
H1798 N1786 0.984 . S
H1799 N1786 0.985 . S
C1800 C1801 1.363 . S
C1800 C1806 1.379 . S
C1800 N1808 1.356 . S
C1801 C1800 1.363 . S
C1801 C1807 1.363 . S
C1802 C1803 1.363 . S
C1802 C1807 1.379 . S
C1802 N1809 1.356 . S
C1803 C1802 1.363 . S
C1803 C1806 1.363 . S
N1804 C1806 1.356 . S
N1804 H1816 0.984 . S
N1804 H1817 0.985 . S
N1805 C1807 1.356 . S
N1805 H1810 0.984 . S
N1805 H1811 0.985 . S
C1806 C1800 1.379 . S
C1806 C1803 1.363 . S
C1806 N1804 1.356 . S
C1807 C1801 1.363 . S
C1807 C1802 1.379 . S
C1807 N1805 1.356 . S
N1808 C1800 1.356 . S
N1808 H1814 0.984 . S
N1808 H1815 0.984 . S
N1809 C1802 1.356 . S
N1809 H1812 0.984 . S
N1809 H1813 0.985 . S
H1810 N1805 0.984 . S
H1811 N1805 0.985 . S
H1812 N1809 0.984 . S
H1813 N1809 0.985 . S
H1814 N1808 0.984 . S
H1815 N1808 0.984 . S
H1816 N1804 0.984 . S
H1817 N1804 0.985 . S
C1818 C1819 1.363 . S
C1818 C1824 1.379 . S
C1818 N1826 1.356 . S
C1819 C1818 1.363 . S
C1819 C1825 1.363 . S
C1820 C1821 1.363 . S
C1820 C1825 1.379 . S
C1820 N1827 1.356 . S
C1821 C1820 1.363 . S
C1821 C1824 1.363 . S
N1822 C1824 1.356 . S
N1822 H1834 0.984 . S
N1822 H1835 0.985 . S
N1823 C1825 1.356 . S
N1823 H1828 0.984 . S
N1823 H1829 0.985 . S
C1824 C1818 1.379 . S
C1824 C1821 1.363 . S
C1824 N1822 1.356 . S
C1825 C1819 1.363 . S
C1825 C1820 1.379 . S
C1825 N1823 1.356 . S
N1826 C1818 1.356 . S
N1826 H1832 0.984 . S
N1826 H1833 0.984 . S
N1827 C1820 1.356 . S
N1827 H1830 0.984 . S
N1827 H1831 0.985 . S
H1828 N1823 0.984 . S
H1829 N1823 0.985 . S
H1830 N1827 0.984 . S
H1831 N1827 0.985 . S
H1832 N1826 0.984 . S
H1833 N1826 0.984 . S
H1834 N1822 0.984 . S
H1835 N1822 0.985 . S
C1836 C1837 1.363 . S
C1836 C1842 1.379 . S
C1836 N1844 1.356 . S
C1837 C1836 1.363 . S
C1837 C1843 1.363 . S
C1838 C1839 1.363 . S
C1838 C1843 1.379 . S
C1838 N1845 1.356 . S
C1839 C1838 1.363 . S
C1839 C1842 1.363 . S
N1840 C1842 1.356 . S
N1840 H1852 0.984 . S
N1840 H1853 0.985 . S
N1841 C1843 1.356 . S
N1841 H1846 0.984 . S
N1841 H1847 0.985 . S
C1842 C1836 1.379 . S
C1842 C1839 1.363 . S
C1842 N1840 1.356 . S
C1843 C1837 1.363 . S
C1843 C1838 1.379 . S
C1843 N1841 1.356 . S
N1844 C1836 1.356 . S
N1844 H1850 0.984 . S
N1844 H1851 0.984 . S
N1845 C1838 1.356 . S
N1845 H1848 0.984 . S
N1845 H1849 0.985 . S
H1846 N1841 0.984 . S
H1847 N1841 0.985 . S
H1848 N1845 0.984 . S
H1849 N1845 0.985 . S
H1850 N1844 0.984 . S
H1851 N1844 0.984 . S
H1852 N1840 0.984 . S
H1853 N1840 0.985 . S
C1854 C1855 1.363 . S
C1854 C1860 1.379 . S
C1854 N1862 1.356 . S
C1855 C1854 1.363 . S
C1855 C1861 1.363 . S
C1856 C1857 1.363 . S
C1856 C1861 1.379 . S
C1856 N1863 1.356 . S
C1857 C1856 1.363 . S
C1857 C1860 1.363 . S
N1858 C1860 1.356 . S
N1858 H1870 0.984 . S
N1858 H1871 0.985 . S
N1859 C1861 1.356 . S
N1859 H1864 0.984 . S
N1859 H1865 0.985 . S
C1860 C1854 1.379 . S
C1860 C1857 1.363 . S
C1860 N1858 1.356 . S
C1861 C1855 1.363 . S
C1861 C1856 1.379 . S
C1861 N1859 1.356 . S
N1862 C1854 1.356 . S
N1862 H1868 0.984 . S
N1862 H1869 0.984 . S
N1863 C1856 1.356 . S
N1863 H1866 0.984 . S
N1863 H1867 0.985 . S
H1864 N1859 0.984 . S
H1865 N1859 0.985 . S
H1866 N1863 0.984 . S
H1867 N1863 0.985 . S
H1868 N1862 0.984 . S
H1869 N1862 0.984 . S
H1870 N1858 0.984 . S
H1871 N1858 0.985 . S
C1872 C1873 1.363 . S
C1872 C1878 1.379 . S
C1872 N1880 1.356 . S
C1873 C1872 1.363 . S
C1873 C1879 1.363 . S
C1874 C1875 1.363 . S
C1874 C1879 1.379 . S
C1874 N1881 1.356 . S
C1875 C1874 1.363 . S
C1875 C1878 1.363 . S
N1876 C1878 1.356 . S
N1876 H1888 0.984 . S
N1876 H1889 0.985 . S
N1877 C1879 1.356 . S
N1877 H1882 0.984 . S
N1877 H1883 0.985 . S
C1878 C1872 1.379 . S
C1878 C1875 1.363 . S
C1878 N1876 1.356 . S
C1879 C1873 1.363 . S
C1879 C1874 1.379 . S
C1879 N1877 1.356 . S
N1880 C1872 1.356 . S
N1880 H1886 0.984 . S
N1880 H1887 0.984 . S
N1881 C1874 1.356 . S
N1881 H1884 0.984 . S
N1881 H1885 0.985 . S
H1882 N1877 0.984 . S
H1883 N1877 0.985 . S
H1884 N1881 0.984 . S
H1885 N1881 0.985 . S
H1886 N1880 0.984 . S
H1887 N1880 0.984 . S
H1888 N1876 0.984 . S
H1889 N1876 0.985 . S
C1890 C1891 1.363 . S
C1890 C1896 1.379 . S
C1890 N1898 1.356 . S
C1891 C1890 1.363 . S
C1891 C1897 1.363 . S
C1892 C1893 1.363 . S
C1892 C1897 1.379 . S
C1892 N1899 1.356 . S
C1893 C1892 1.363 . S
C1893 C1896 1.363 . S
N1894 C1896 1.356 . S
N1894 H1906 0.984 . S
N1894 H1907 0.985 . S
N1895 C1897 1.356 . S
N1895 H1900 0.984 . S
N1895 H1901 0.985 . S
C1896 C1890 1.379 . S
C1896 C1893 1.363 . S
C1896 N1894 1.356 . S
C1897 C1891 1.363 . S
C1897 C1892 1.379 . S
C1897 N1895 1.356 . S
N1898 C1890 1.356 . S
N1898 H1904 0.984 . S
N1898 H1905 0.984 . S
N1899 C1892 1.356 . S
N1899 H1902 0.984 . S
N1899 H1903 0.985 . S
H1900 N1895 0.984 . S
H1901 N1895 0.985 . S
H1902 N1899 0.984 . S
H1903 N1899 0.985 . S
H1904 N1898 0.984 . S
H1905 N1898 0.984 . S
H1906 N1894 0.984 . S
H1907 N1894 0.985 . S
C1908 C1909 1.363 . S
C1908 C1914 1.379 . S
C1908 N1916 1.356 . S
C1909 C1908 1.363 . S
C1909 C1915 1.363 . S
C1910 C1911 1.363 . S
C1910 C1915 1.379 . S
C1910 N1917 1.356 . S
C1911 C1910 1.363 . S
C1911 C1914 1.363 . S
N1912 C1914 1.356 . S
N1912 H1924 0.984 . S
N1912 H1925 0.985 . S
N1913 C1915 1.356 . S
N1913 H1918 0.984 . S
N1913 H1919 0.985 . S
C1914 C1908 1.379 . S
C1914 C1911 1.363 . S
C1914 N1912 1.356 . S
C1915 C1909 1.363 . S
C1915 C1910 1.379 . S
C1915 N1913 1.356 . S
N1916 C1908 1.356 . S
N1916 H1922 0.984 . S
N1916 H1923 0.984 . S
N1917 C1910 1.356 . S
N1917 H1920 0.984 . S
N1917 H1921 0.985 . S
H1918 N1913 0.984 . S
H1919 N1913 0.985 . S
H1920 N1917 0.984 . S
H1921 N1917 0.985 . S
H1922 N1916 0.984 . S
H1923 N1916 0.984 . S
H1924 N1912 0.984 . S
H1925 N1912 0.985 . S
C955 C151 1.206 . S
C957 C265 1.185 . S
C973 C159 1.662 . S
C975 C349 1.737 . S
C991 C137 1.332 . S
C993 C429 1.454 . S
C1009 C126 1.288 . S
C1011 C345 1.435 . S
C1029 C433 1.695 . S
C1027 C104 1.632 . S
C1045 C118 1.171 . S
C1047 C261 1.176 . S
C1065 C254 1.381 . S
C1063 C129 1.436 . S
C1083 C338 1.547 . S
C1081 C107 1.618 . S
C1099 C115 1.252 . S
C1101 C440 1.450 . S
C1117 C148 1.256 . S
C1119 C356 1.429 . S
C1135 C162 1.577 . S
C1137 C422 1.500 . S
C1155 C272 1.379 . S
C1153 C140 1.411 . S
C1173 C517 1.185 . S
C1171 C19 1.206 1_455 S
C1189 C27 1.662 . S
C1191 C601 1.737 . S
C1207 C5 1.332 . S
C1209 C681 1.454 . S
C1225 C192 1.288 . S
C1227 C597 1.435 . S
C1243 C170 1.632 . S
C1245 C685 1.695 . S
C1261 C184 1.172 . S
C1263 C513 1.176 . S
C1279 C195 1.436 . S
C1281 C506 1.381 . S
C1297 C173 1.618 . S
C1299 C590 1.547 . S
C1317 C692 1.450 . S
C1315 C181 1.252 . S
C1333 C16 1.256 1_565 S
C1335 C608 1.429 . S
C1353 C674 1.500 . S
C1351 C30 1.578 1_455 S
C1369 C8 1.411 . S
C1371 C524 1.379 . S
C1389 C769 1.185 . S
C1387 C85 1.206 . S
C1405 C93 1.662 . S
C1407 C853 1.737 . S
C1425 C933 1.454 . S
C1423 C71 1.332 . S
C1443 C849 1.435 . S
C1441 C60 1.288 1_545 S
C1461 C937 1.695 . S
C1459 C38 1.632 . S
C1477 C52 1.171 . S
C1479 C765 1.176 . S
C1495 C63 1.436 1_655 S
C1497 C758 1.381 . S
C1513 C41 1.618 . S
C1515 C842 1.547 . S
C1533 C944 1.450 . S
C1531 C49 1.252 1_545 S
C1549 C82 1.256 . S
C1551 C860 1.429 . S
C1567 C96 1.578 . S
C1569 C926 1.500 . S
C1585 C74 1.411 . S
C1587 C776 1.379 . S
C1603 C172 1.572 . S
C1605 C268 1.469 . S
C1623 C352 1.255 . S
C1621 C183 1.336 . S
C1639 C194 1.473 . S
C1641 C424 1.335 . S
C1657 C73 1.502 . S
C1659 C340 1.345 . S
C1675 C84 1.322 . S
C1677 C436 1.245 . S
C1695 C256 1.453 . S
C1693 C95 1.557 . S
C1711 C40 1.572 . S
C1713 C520 1.469 . S
C1729 C51 1.336 . S
C1731 C604 1.255 . S
C1747 C62 1.474 . S
C1749 C676 1.336 . S
C1765 C139 1.502 . S
C1767 C592 1.345 . S
C1785 C688 1.244 . S
C1783 C150 1.321 . S
C1801 C161 1.557 . S
C1803 C508 1.453 . S
C1819 C106 1.572 . S
C1821 C772 1.469 . S
C1837 C117 1.336 . S
C1839 C856 1.255 . S
C1857 C928 1.336 . S
C1855 C128 1.474 . S
C1873 C7 1.502 . S
C1875 C844 1.345 . S
C1891 C18 1.321 . S
C1893 C940 1.244 . S
C1909 C29 1.557 . S
C1911 C760 1.453 . S
