# Generated by pormake.
# Topology pth, (4,4)-cn, num edge types: 1
# Building blocks:
#     Node 0, Type 0, BuildingBlock: GALJAG_clean_sbu_0, # of connection points: 4
#     Node 1, Type 0, BuildingBlock: GALJAG_clean_sbu_0, # of connection points: 4
#     Node 2, Type 0, BuildingBlock: GALJAG_clean_sbu_0, # of connection points: 4
#     Node 3, Type 1, BuildingBlock: KOZSID_clean_sbu_0, # of connection points: 4
#     Node 4, Type 1, BuildingBlock: KOZSID_clean_sbu_0, # of connection points: 4
#     Node 5, Type 1, BuildingBlock: KOZSID_clean_sbu_0, # of connection points: 4
#     Edge 6, Type (0, 1), BuildingBlock: FUNLAD_clean_linker_0, # of connection points: 2
#     Edge 7, Type (0, 1), BuildingBlock: FUNLAD_clean_linker_0, # of connection points: 2
#     Edge 8, Type (0, 1), BuildingBlock: FUNLAD_clean_linker_0, # of connection points: 2
#     Edge 9, Type (0, 1), BuildingBlock: FUNLAD_clean_linker_0, # of connection points: 2
#     Edge 10, Type (0, 1), BuildingBlock: FUNLAD_clean_linker_0, # of connection points: 2
#     Edge 11, Type (0, 1), BuildingBlock: FUNLAD_clean_linker_0, # of connection points: 2
#     Edge 12, Type (0, 1), BuildingBlock: FUNLAD_clean_linker_0, # of connection points: 2
#     Edge 13, Type (0, 1), BuildingBlock: FUNLAD_clean_linker_0, # of connection points: 2
#     Edge 14, Type (0, 1), BuildingBlock: FUNLAD_clean_linker_0, # of connection points: 2
#     Edge 15, Type (0, 1), BuildingBlock: FUNLAD_clean_linker_0, # of connection points: 2
#     Edge 16, Type (0, 1), BuildingBlock: FUNLAD_clean_linker_0, # of connection points: 2
#     Edge 17, Type (0, 1), BuildingBlock: FUNLAD_clean_linker_0, # of connection points: 2
# Relax obj value: 0.002
# Max RMSD: 0.042
# Mean RMSD: 0.024
data_MOF--net-pth--node1-GALJAG_clean_sbu_0--node2-KOZSID_clean_sbu_0--edge1-FUNLAD_clean_linker_0
_symmetry_space_group_name_H-M    P1
_symmetry_Int_Tables_number       1
_symmetry_cell_setting            triclinic
loop_
_symmetry_equiv_pos_as_xyz
'x, y, z'
_cell_length_a     31.102317
_cell_length_b     31.098987
_cell_length_c     67.670282
_cell_angle_alpha  87.846481
_cell_angle_beta   87.858639
_cell_angle_gamma 119.99362
loop_
_atom_site_label
_atom_site_type_symbol
_atom_site_fract_x
_atom_site_fract_y
_atom_site_fract_z
_atom_type_partial_charge
In0 In 0.05968 0.04141 0.0402 0.0
O1 O 0.02276 0.08463 0.05131 0.0
O2 O 0.08465 0.09098 0.0661 0.0
C3 C 0.9935 0.98062 0.01507 0.0
C4 C 0.13667 0.10959 0.01599 0.0
C5 C 0.0586 0.9723 0.06586 0.0
O6 O 0.98198 0.00163 0.02817 0.0
O7 O 0.03829 0.99117 0.01445 0.0
O8 O 0.09645 0.00132 0.05465 0.0
O9 O 0.02178 0.97851 0.06419 0.0
C10 C 0.05212 0.10373 0.06493 0.0
O11 O 0.13852 0.07525 0.02579 0.0
O12 O 0.09601 0.10915 0.01829 0.0
In13 In 0.03381 0.05489 0.37429 0.0
O14 O 0.07492 0.1357 0.36181 0.0
O15 O 0.00741 0.08549 0.34929 0.0
C16 C 0.10248 0.05795 0.39854 0.0
C17 C 0.96088 0.04829 0.3994 0.0
C18 C 0.02657 0.98468 0.35003 0.0
O19 O 0.11328 0.09002 0.38441 0.0
O20 O 0.05715 0.02499 0.40058 0.0
O21 O 0.99142 0.97778 0.36209 0.0
O22 O 0.06488 0.02714 0.35 0.0
C23 C 0.04327 0.12952 0.34941 0.0
O24 O 0.95619 0.01184 0.39013 0.0
O25 O 0.00239 0.08763 0.39618 0.0
In26 In 0.05591 0.04526 0.70729 0.0
O27 O 0.02446 0.96753 0.72255 0.0
O28 O 0.98281 0.00434 0.72602 0.0
C29 C 0.12654 0.04029 0.68468 0.0
C30 C 0.99712 0.0568 0.68173 0.0
C31 C 0.11256 0.11383 0.73266 0.0
O32 O 0.09237 0.00291 0.69474 0.0
O33 O 0.12462 0.07966 0.68591 0.0
O34 O 0.10363 0.12564 0.71592 0.0
O35 O 0.09218 0.06768 0.73674 0.0
C36 C 0.98583 0.96602 0.73001 0.0
O37 O 0.0088 0.07894 0.69759 0.0
O38 O 0.01568 0.02952 0.67862 0.0
C39 C 0.10099 0.6354 0.17555 0.0
C40 C 0.14839 0.67148 0.16819 0.0
C41 C 0.1811 0.66382 0.17846 0.0
C42 C 0.15202 0.62386 0.19149 0.0
N43 N 0.10258 0.60506 0.19006 0.0
Co44 Co 0.04711 0.5485 0.20687 0.0
N45 N 0.0955 0.53864 0.22251 0.0
C46 C 0.14576 0.56533 0.22025 0.0
C47 C 0.16896 0.54838 0.23248 0.0
C48 C 0.13133 0.5079 0.24299 0.0
C49 C 0.08714 0.50264 0.23658 0.0
N50 N 0.99172 0.49213 0.22374 0.0
C51 C 0.99336 0.46072 0.23773 0.0
C52 C 0.94617 0.42574 0.24565 0.0
C53 C 0.91339 0.43469 0.23602 0.0
C54 C 0.94232 0.47455 0.22289 0.0
N55 N 0.9987 0.55803 0.19114 0.0
C56 C 0.94842 0.5312 0.19337 0.0
C57 C 0.92521 0.54683 0.18054 0.0
C58 C 0.96285 0.58634 0.16956 0.0
C59 C 0.00703 0.59265 0.17644 0.0
N60 N 0.04553 0.50049 0.18796 0.0
C61 C 0.04292 0.42995 0.16228 0.0
C62 C 0.9991 0.42749 0.16959 0.0
C63 C 0.00124 0.4628 0.18228 0.0
C64 C 0.08812 0.46878 0.16785 0.0
C65 C 0.08858 0.50337 0.18056 0.0
N66 N 0.04861 0.59669 0.22576 0.0
C67 C 0.00636 0.63196 0.24391 0.0
C68 C 0.0514 0.66998 0.24996 0.0
C69 C 0.09486 0.6697 0.24418 0.0
C70 C 0.09263 0.63305 0.23222 0.0
C71 C 0.00581 0.59596 0.23202 0.0
H72 H 0.12714 0.63536 0.22822 0.0
H73 H 0.97031 0.56846 0.22783 0.0
H74 H 0.9665 0.45846 0.18748 0.0
H75 H 0.12419 0.53194 0.18427 0.0
C76 C 0.17005 0.60424 0.20568 0.0
C77 C 0.05579 0.63298 0.16892 0.0
C78 C 0.03833 0.46121 0.24339 0.0
C79 C 0.92414 0.49341 0.20842 0.0
H80 H 0.15841 0.70096 0.15684 0.0
H81 H 0.22132 0.68548 0.1769 0.0
H82 H 0.20851 0.56277 0.23321 0.0
H83 H 0.136 0.4842 0.25376 0.0
H84 H 0.93647 0.39609 0.25689 0.0
H85 H 0.87319 0.41358 0.23789 0.0
H86 H 0.88565 0.53197 0.17958 0.0
H87 H 0.95835 0.60855 0.15802 0.0
H88 H 0.96309 0.39781 0.1659 0.0
H89 H 0.12317 0.47277 0.16234 0.0
H90 H 0.97159 0.63055 0.24786 0.0
H91 H 0.13065 0.69766 0.24883 0.0
C92 C 0.46617 0.0175 0.57159 0.0
C93 C 0.42779 0.97115 0.57891 0.0
C94 C 0.43327 0.93662 0.56904 0.0
C95 C 0.47429 0.96365 0.55624 0.0
N96 N 0.49594 0.01346 0.55752 0.0
Co97 Co 0.55444 0.06661 0.54067 0.0
N98 N 0.55966 0.01578 0.52496 0.0
C99 C 0.53024 0.96574 0.52731 0.0
C100 C 0.543 0.94043 0.51442 0.0
C101 C 0.58347 0.97637 0.50332 0.0
C102 C 0.59327 0.02171 0.51021 0.0
N103 N 0.6126 0.1198 0.52369 0.0
C104 C 0.64142 0.11587 0.50913 0.0
C105 C 0.67946 0.16233 0.50172 0.0
C106 C 0.67446 0.19676 0.51188 0.0
C107 C 0.63408 0.16962 0.52496 0.0
N108 N 0.54945 0.11738 0.55651 0.0
C109 C 0.57975 0.16735 0.5546 0.0
C110 C 0.56649 0.19253 0.56737 0.0
C111 C 0.52478 0.15661 0.57789 0.0
C112 C 0.51489 0.11144 0.57081 0.0
N113 N 0.60089 0.06406 0.55949 0.0
C114 C 0.66946 0.06078 0.58474 0.0
C115 C 0.67623 0.10606 0.57695 0.0
C116 C 0.64166 0.10685 0.56461 0.0
C117 C 0.62736 0.01711 0.57998 0.0
C118 C 0.59398 0.01956 0.56733 0.0
N119 N 0.50811 0.06927 0.5219 0.0
C120 C 0.47959 0.11679 0.50304 0.0
C121 C 0.43932 0.07335 0.49699 0.0
C122 C 0.43461 0.02781 0.50333 0.0
C123 C 0.46922 0.02665 0.51561 0.0
C124 C 0.51319 0.11393 0.51537 0.0
H125 H 0.46347 0.99081 0.51996 0.0
H126 H 0.54259 0.14838 0.51963 0.0
H127 H 0.64904 0.14262 0.55933 0.0
H128 H 0.56318 0.98494 0.56397 0.0
C129 C 0.49148 0.94352 0.54201 0.0
C130 C 0.47108 0.06423 0.57758 0.0
C131 C 0.63575 0.06914 0.50261 0.0
C132 C 0.61788 0.1897 0.53963 0.0
H133 H 0.39804 0.96301 0.58986 0.0
H134 H 0.40924 0.89661 0.57054 0.0
H135 H 0.52535 0.90058 0.51338 0.0
H136 H 0.60386 0.96988 0.49162 0.0
H137 H 0.70873 0.17071 0.4905 0.0
H138 H 0.69844 0.23677 0.51038 0.0
H139 H 0.58413 0.23237 0.56847 0.0
H140 H 0.50335 0.16295 0.58918 0.0
H141 H 0.70795 0.14092 0.5805 0.0
H142 H 0.62074 0.9811 0.58562 0.0
H143 H 0.48462 0.15299 0.4987 0.0
H144 H 0.40445 0.99311 0.49879 0.0
C145 C 0.64136 0.58629 0.84186 0.0
C146 C 0.67799 0.57731 0.83419 0.0
C147 C 0.67312 0.53698 0.84494 0.0
C148 C 0.63375 0.52344 0.85837 0.0
N149 N 0.61278 0.55237 0.85678 0.0
Co150 Co 0.55404 0.5451 0.87314 0.0
N151 N 0.54878 0.48749 0.88965 0.0
C152 C 0.57929 0.46828 0.88827 0.0
C153 C 0.56682 0.42925 0.90176 0.0
C154 C 0.52554 0.42274 0.9123 0.0
C155 C 0.51497 0.4581 0.90447 0.0
N156 N 0.4947 0.53721 0.88932 0.0
C157 C 0.46502 0.50208 0.90373 0.0
C158 C 0.42569 0.5084 0.91017 0.0
C159 C 0.43081 0.54898 0.89956 0.0
C160 C 0.47246 0.56488 0.88717 0.0
N161 N 0.55986 0.60329 0.85681 0.0
C162 C 0.53084 0.62408 0.85884 0.0
C163 C 0.54538 0.66521 0.84629 0.0
C164 C 0.58645 0.67149 0.83567 0.0
C165 C 0.59443 0.63337 0.84229 0.0
N166 N 0.50857 0.49851 0.85431 0.0
C167 C 0.44059 0.42995 0.82918 0.0
C168 C 0.43648 0.47038 0.83498 0.0
C169 C 0.47074 0.50407 0.8473 0.0
C170 C 0.47992 0.4249 0.83581 0.0
C171 C 0.5131 0.45921 0.84836 0.0
N172 N 0.59945 0.5918 0.89199 0.0
C173 C 0.62359 0.66237 0.91192 0.0
C174 C 0.6661 0.6615 0.91722 0.0
C175 C 0.6743 0.62458 0.90992 0.0
C176 C 0.64066 0.59026 0.89749 0.0
C177 C 0.59113 0.62756 0.89944 0.0
H178 H 0.64901 0.56308 0.89243 0.0
H179 H 0.5599 0.63084 0.89585 0.0
H180 H 0.46556 0.53412 0.85103 0.0
H181 H 0.54174 0.45286 0.85322 0.0
C182 C 0.61746 0.48564 0.87338 0.0
C183 C 0.6363 0.62836 0.83484 0.0
C184 C 0.47158 0.46121 0.91125 0.0
C185 C 0.49081 0.60479 0.87299 0.0
H186 H 0.70587 0.59824 0.82226 0.0
H187 H 0.69615 0.52015 0.8434 0.0
H188 H 0.58496 0.40746 0.90346 0.0
H189 H 0.50507 0.3946 0.9242 0.0
H190 H 0.39575 0.4856 0.92114 0.0
H191 H 0.40645 0.56445 0.90048 0.0
H192 H 0.52863 0.68842 0.84523 0.0
H193 H 0.60843 0.70135 0.82456 0.0
H194 H 0.40707 0.47627 0.82991 0.0
H195 H 0.48444 0.39398 0.83171 0.0
H196 H 0.61584 0.69058 0.91699 0.0
H197 H 0.7064 0.62195 0.91382 0.0
C198 C 0.01638 0.15661 0.07536 0.0
C199 C 0.04978 0.13928 0.07821 0.0
C200 C 0.01561 0.19153 0.08763 0.0
C201 C 0.0484 0.20985 0.10298 0.0
C202 C 0.08091 0.19155 0.10602 0.0
C203 C 0.08183 0.15692 0.09372 0.0
C204 C 0.04955 0.2472 0.11639 0.0
C205 C 0.03409 0.27954 0.11159 0.0
C206 C 0.03718 0.31797 0.12487 0.0
C207 C 0.00556 0.33752 0.12223 0.0
C208 C 0.00742 0.37385 0.1343 0.0
C209 C 0.04137 0.39187 0.14921 0.0
H210 H 0.09801 0.32396 0.14174 0.0
C211 C 0.07363 0.37296 0.15164 0.0
C212 C 0.07174 0.3366 0.13959 0.0
H213 H 0.10009 0.38586 0.16304 0.0
H214 H 0.99099 0.14339 0.0636 0.0
H215 H 0.98888 0.20341 0.08514 0.0
H216 H 0.10625 0.2046 0.11781 0.0
H217 H 0.10785 0.1441 0.09635 0.0
H218 H 0.06509 0.2486 0.1306 0.0
H219 H 0.01825 0.27803 0.09744 0.0
H220 H 0.97905 0.32442 0.11085 0.0
H221 H 0.98259 0.38821 0.13181 0.0
C222 C 0.92366 0.08953 0.41899 0.0
C223 C 0.92072 0.04568 0.41266 0.0
C224 C 0.8854 0.08743 0.43123 0.0
C225 C 0.84355 0.04133 0.43753 0.0
C226 C 0.84111 0.99747 0.43154 0.0
C227 C 0.87906 0.99961 0.41902 0.0
C228 C 0.80296 0.03801 0.45092 0.0
C229 C 0.78879 0.07245 0.45014 0.0
C230 C 0.74873 0.06982 0.46364 0.0
C231 C 0.71978 0.08977 0.45688 0.0
C232 C 0.68261 0.089 0.46942 0.0
C233 C 0.67472 0.06948 0.4891 0.0
H234 H 0.76288 0.03532 0.48917 0.0
C235 C 0.70379 0.04984 0.49595 0.0
C236 C 0.74041 0.04985 0.48334 0.0
H237 H 0.69829 0.03476 0.51113 0.0
H238 H 0.95543 0.12557 0.41437 0.0
H239 H 0.8891 0.12189 0.43602 0.0
H240 H 0.80948 0.9615 0.43636 0.0
H241 H 0.87596 0.96521 0.41445 0.0
H242 H 0.78274 0.00511 0.46101 0.0
H243 H 0.80557 0.10258 0.43864 0.0
H244 H 0.72568 0.10563 0.44182 0.0
H245 H 0.66028 0.10402 0.46385 0.0
C246 C 0.90201 0.92074 0.74808 0.0
C247 C 0.94719 0.92312 0.74258 0.0
C248 C 0.86552 0.8807 0.76019 0.0
C249 C 0.87351 0.84219 0.76711 0.0
C250 C 0.91889 0.84486 0.76176 0.0
C251 C 0.95523 0.8847 0.74945 0.0
C252 C 0.83623 0.80024 0.78066 0.0
C253 C 0.78693 0.78253 0.78026 0.0
C254 C 0.74949 0.74195 0.79426 0.0
C255 C 0.70111 0.71152 0.7883 0.0
C256 C 0.66445 0.67418 0.80136 0.0
C257 C 0.67531 0.66739 0.82077 0.0
H258 H 0.79681 0.75835 0.81901 0.0
C259 C 0.7235 0.69779 0.82683 0.0
C260 C 0.76035 0.73474 0.81371 0.0
H261 H 0.73243 0.69315 0.8418 0.0
H262 H 0.89487 0.94997 0.7431 0.0
H263 H 0.83163 0.88069 0.76447 0.0
H264 H 0.92616 0.81594 0.76706 0.0
H265 H 0.98983 0.88572 0.74553 0.0
H266 H 0.84983 0.7824 0.79074 0.0
H267 H 0.77309 0.79703 0.76882 0.0
H268 H 0.6917 0.71655 0.77346 0.0
H269 H 0.62748 0.65086 0.79641 0.0
C270 C 0.09716 0.92495 0.08011 0.0
C271 C 0.05693 0.93351 0.0797 0.0
C272 C 0.09484 0.88741 0.09295 0.0
C273 C 0.05207 0.85761 0.1056 0.0
C274 C 0.01236 0.86696 0.10541 0.0
C275 C 0.0146 0.90426 0.09253 0.0
C276 C 0.04788 0.81743 0.11955 0.0
C277 C 0.07287 0.79296 0.11655 0.0
C278 C 0.06744 0.75182 0.13028 0.0
C279 C 0.07844 0.71652 0.12292 0.0
C280 C 0.0742 0.67755 0.1354 0.0
C281 C 0.05944 0.67363 0.15552 0.0
H282 H 0.04563 0.77504 0.15699 0.0
C283 C 0.04877 0.70888 0.16302 0.0
C284 C 0.0529 0.7478 0.15056 0.0
H285 H 0.03777 0.70654 0.17859 0.0
H286 H 0.13043 0.94719 0.07048 0.0
H287 H 0.12686 0.88245 0.09309 0.0
H288 H 0.97919 0.84494 0.11512 0.0
H289 H 0.98306 0.91013 0.09262 0.0
H290 H 0.0209 0.8058 0.13213 0.0
H291 H 0.09621 0.80132 0.10299 0.0
H292 H 0.09008 0.71891 0.10743 0.0
H293 H 0.08267 0.65062 0.12942 0.0
C294 C 0.19065 0.09333 0.40775 0.0
C295 C 0.14001 0.05768 0.41124 0.0
C296 C 0.22627 0.09161 0.41927 0.0
C297 C 0.21184 0.05425 0.43466 0.0
C298 C 0.16112 0.0188 0.4381 0.0
C299 C 0.1256 0.02053 0.42659 0.0
C300 C 0.24816 0.04949 0.44697 0.0
C301 C 0.29502 0.08663 0.44896 0.0
C302 C 0.33102 0.08136 0.46129 0.0
C303 C 0.38206 0.11517 0.45746 0.0
C304 C 0.4172 0.11227 0.46886 0.0
C305 C 0.40211 0.0756 0.48448 0.0
H306 H 0.27697 0.01906 0.48103 0.0
C307 C 0.35104 0.04186 0.48841 0.0
C308 C 0.31586 0.04479 0.47704 0.0
H309 H 0.33811 0.01388 0.50062 0.0
H310 H 0.2029 0.12213 0.39589 0.0
H311 H 0.26493 0.11889 0.41565 0.0
H312 H 0.14885 0.98945 0.44974 0.0
H313 H 0.08685 0.99241 0.42961 0.0
H314 H 0.23511 0.01357 0.45475 0.0
H315 H 0.30834 0.12253 0.44112 0.0
H316 H 0.39487 0.14387 0.44553 0.0
H317 H 0.45628 0.13861 0.46533 0.0
C318 C 0.17931 0.20009 0.73883 0.0
C319 C 0.14629 0.1508 0.746 0.0
C320 C 0.21346 0.2342 0.75117 0.0
C321 C 0.21478 0.21968 0.77098 0.0
C322 C 0.18065 0.17088 0.77829 0.0
C323 C 0.14713 0.13656 0.76586 0.0
C324 C 0.2505 0.25487 0.78447 0.0
C325 C 0.29696 0.29058 0.77824 0.0
C326 C 0.3331 0.32517 0.7918 0.0
C327 C 0.38418 0.34409 0.78755 0.0
C328 C 0.41915 0.37742 0.79986 0.0
C329 C 0.40368 0.39327 0.81645 0.0
H330 H 0.27865 0.32806 0.81193 0.0
C331 C 0.35258 0.37466 0.82062 0.0
C332 C 0.31762 0.3409 0.80847 0.0
H333 H 0.3396 0.38614 0.83335 0.0
H334 H 0.1794 0.21208 0.72358 0.0
H335 H 0.23841 0.27195 0.74523 0.0
H336 H 0.1806 0.15897 0.79355 0.0
H337 H 0.12193 0.09885 0.7718 0.0
H338 H 0.23915 0.24901 0.80018 0.0
H339 H 0.30995 0.29297 0.76289 0.0
H340 H 0.39707 0.33289 0.7747 0.0
H341 H 0.45833 0.39159 0.79618 0.0
C342 C 0.93279 0.08018 0.67462 0.0
C343 C 0.96271 0.06065 0.66827 0.0
C344 C 0.89844 0.0815 0.66221 0.0
C345 C 0.89375 0.06375 0.64313 0.0
C346 C 0.92469 0.0456 0.63662 0.0
C347 C 0.95843 0.0435 0.64913 0.0
C348 C 0.85791 0.06488 0.62954 0.0
C349 C 0.81331 0.05812 0.63598 0.0
C350 C 0.77704 0.05835 0.62237 0.0
C351 C 0.72593 0.02949 0.62779 0.0
C352 C 0.69089 0.02957 0.61544 0.0
C353 C 0.70638 0.05938 0.59761 0.0
H354 H 0.83163 0.11176 0.60007 0.0
C355 C 0.75754 0.08865 0.59227 0.0
C356 C 0.79253 0.08809 0.60448 0.0
H357 H 0.77052 0.1119 0.57858 0.0
H358 H 0.9354 0.09377 0.68928 0.0
H359 H 0.87606 0.09697 0.66749 0.0
H360 H 0.92213 0.03219 0.62191 0.0
H361 H 0.98121 0.02849 0.64382 0.0
H362 H 0.8674 0.06833 0.61372 0.0
H363 H 0.80176 0.0495 0.65166 0.0
H364 H 0.71307 0.00662 0.64157 0.0
H365 H 0.65171 0.00706 0.62002 0.0
C366 C 0.90639 0.929 0.0047 0.0
C367 C 0.95716 0.94435 0.00217 0.0
C368 C 0.87181 0.89229 0.99326 0.0
C369 C 0.88746 0.87037 0.9789 0.0
C370 C 0.93841 0.88639 0.97631 0.0
C371 C 0.97284 0.92291 0.98776 0.0
C372 C 0.85248 0.82979 0.96674 0.0
C373 C 0.80425 0.81614 0.96521 0.0
C374 C 0.77003 0.77528 0.95303 0.0
C375 C 0.71855 0.75277 0.95746 0.0
C376 C 0.68491 0.71528 0.9461 0.0
C377 C 0.70196 0.69958 0.92991 0.0
H378 H 0.82633 0.77686 0.93239 0.0
C379 C 0.75347 0.72194 0.92546 0.0
C380 C 0.78715 0.75952 0.93681 0.0
H381 H 0.76777 0.71143 0.91283 0.0
H382 H 0.8932 0.94462 0.01581 0.0
H383 H 0.83305 0.88078 0.99617 0.0
H384 H 0.95173 0.8703 0.96544 0.0
H385 H 0.01174 0.93388 0.98547 0.0
H386 H 0.86763 0.81019 0.95877 0.0
H387 H 0.78828 0.8347 0.97336 0.0
H388 H 0.70422 0.7642 0.96979 0.0
H389 H 0.64548 0.69852 0.95004 0.0
C390 C 0.06394 0.95583 0.32406 0.0
C391 C 0.02398 0.94563 0.3375 0.0
C392 C 0.06261 0.9185 0.31277 0.0
C393 C 0.02135 0.86982 0.31483 0.0
C394 C 0.98095 0.8601 0.32795 0.0
C395 C 0.98225 0.89751 0.3392 0.0
C396 C 0.01847 0.82841 0.30346 0.0
C397 C 0.05842 0.82873 0.29479 0.0
C398 C 0.05529 0.78715 0.28356 0.0
C399 C 0.09307 0.79754 0.26897 0.0
C400 C 0.09187 0.75963 0.25813 0.0
C401 C 0.05309 0.71015 0.2618 0.0
H402 H 0.98786 0.72765 0.29905 0.0
C403 C 0.01566 0.69957 0.27666 0.0
C404 C 0.01674 0.73756 0.28745 0.0
H405 H 0.98582 0.66175 0.28019 0.0
H406 H 0.09643 0.99273 0.32228 0.0
H407 H 0.09386 0.92842 0.30237 0.0
H408 H 0.94845 0.82319 0.32972 0.0
H409 H 0.9508 0.88855 0.3494 0.0
H410 H 0.98179 0.79615 0.3025 0.0
H411 H 0.09521 0.86086 0.29555 0.0
H412 H 0.12337 0.83532 0.26574 0.0
H413 H 0.12099 0.76933 0.24663 0.0
C414 C 0.20275 0.08149 0.66157 0.0
C415 C 0.16631 0.03867 0.67265 0.0
C416 C 0.24111 0.08067 0.65049 0.0
C417 C 0.24372 0.03679 0.65017 0.0
C418 C 0.20748 0.99412 0.6614 0.0
C419 C 0.16898 0.99492 0.67245 0.0
C420 C 0.28471 0.03485 0.63895 0.0
C421 C 0.30996 0.06523 0.62282 0.0
C422 C 0.35117 0.0638 0.61159 0.0
C423 C 0.36208 0.08155 0.59159 0.0
C424 C 0.40094 0.08149 0.58057 0.0
C425 C 0.42989 0.06411 0.58941 0.0
H426 H 0.37476 0.03468 0.63603 0.0
C427 C 0.41994 0.04731 0.60948 0.0
C428 C 0.38086 0.04706 0.6205 0.0
H429 H 0.44251 0.03449 0.61659 0.0
H430 H 0.20195 0.11592 0.66158 0.0
H431 H 0.26914 0.11481 0.6426 0.0
H432 H 0.20885 0.95997 0.66158 0.0
H433 H 0.14157 0.96141 0.68094 0.0
H434 H 0.29268 0.00596 0.6437 0.0
H435 H 0.29868 0.09079 0.61694 0.0
H436 H 0.34024 0.09519 0.58442 0.0
H437 H 0.40841 0.09494 0.56511 0.0
C438 C 0.17839 0.19049 0.99574 0.0
C439 C 0.17883 0.14781 0.003 0.0
C440 C 0.2183 0.22706 0.9836 0.0
C441 C 0.25937 0.22152 0.97836 0.0
C442 C 0.25938 0.17843 0.98533 0.0
C443 C 0.21974 0.14213 0.99773 0.0
C444 C 0.30156 0.25918 0.96503 0.0
C445 C 0.31719 0.30814 0.96497 0.0
C446 C 0.35825 0.34612 0.95131 0.0
C447 C 0.38699 0.39474 0.95731 0.0
C448 C 0.42447 0.43195 0.94446 0.0
C449 C 0.43298 0.4214 0.92521 0.0
H450 H 0.34514 0.29873 0.92679 0.0
C451 C 0.40441 0.37289 0.91915 0.0
C452 C 0.3674 0.33547 0.93208 0.0
H453 H 0.41039 0.36417 0.9043 0.0
H454 H 0.14724 0.19576 0.99949 0.0
H455 H 0.21642 0.25914 0.97804 0.0
H456 H 0.29037 0.17307 0.98133 0.0
H457 H 0.22092 0.10945 0.00303 0.0
H458 H 0.32145 0.24637 0.95565 0.0
H459 H 0.30053 0.32131 0.97582 0.0
H460 H 0.38046 0.40394 0.97198 0.0
H461 H 0.44639 0.46915 0.94942 0.0
C462 C 0.00844 0.16281 0.32428 0.0
C463 C 0.04652 0.17102 0.33679 0.0
C464 C 0.01003 0.20247 0.31316 0.0
C465 C 0.0501 0.25129 0.31419 0.0
C466 C 0.08823 0.25926 0.32665 0.0
C467 C 0.08657 0.21961 0.33778 0.0
C468 C 0.05257 0.29506 0.30329 0.0
C469 C 0.02679 0.29195 0.28729 0.0
C470 C 0.02965 0.33601 0.27652 0.0
C471 C 0.01772 0.33273 0.2566 0.0
C472 C 0.02023 0.37334 0.2459 0.0
C473 C 0.03438 0.41784 0.255 0.0
H474 H 0.05036 0.38403 0.30121 0.0
C475 C 0.04506 0.42105 0.275 0.0
C476 C 0.04266 0.38049 0.28572 0.0
H477 H 0.05539 0.45502 0.28228 0.0
H478 H 0.97682 0.12582 0.32336 0.0
H479 H 0.97908 0.19464 0.30426 0.0
H480 H 0.11938 0.29641 0.32787 0.0
H481 H 0.11638 0.22715 0.34736 0.0
H482 H 0.07827 0.33144 0.3083 0.0
H483 H 0.00454 0.25621 0.28111 0.0
H484 H 0.00701 0.29883 0.2492 0.0
H485 H 0.01156 0.37023 0.23048 0.0
loop_
_geom_bond_atom_site_label_1
_geom_bond_atom_site_label_2
_geom_bond_distance
_geom_bond_site_symmetry_2
_ccdc_geom_bond_type
In0 O1 2.294 . S
In0 O2 2.326 . S
In0 O6 2.266 1_455 S
In0 O7 2.326 1_545 S
In0 O8 2.268 . S
In0 O9 2.326 1_545 S
In0 O11 2.294 . S
In0 O12 2.326 . S
O1 In0 2.294 . S
O1 C10 1.240 . S
O2 In0 2.326 . S
O2 C10 1.252 . S
C3 O6 1.252 1_465 S
C3 O7 1.260 . S
C4 O11 1.240 . S
C4 O12 1.252 . S
C5 O8 1.252 1_565 S
C5 O9 1.260 . S
O6 In0 2.266 1_655 S
O6 C3 1.252 1_645 S
O7 In0 2.326 1_565 S
O7 C3 1.260 . S
O8 In0 2.268 . S
O8 C5 1.252 1_545 S
O9 In0 2.326 1_565 S
O9 C5 1.260 . S
C10 O1 1.240 . S
C10 O2 1.252 . S
O11 In0 2.294 . S
O11 C4 1.240 . S
O12 In0 2.326 . S
O12 C4 1.252 . S
In13 O14 2.294 . S
In13 O15 2.326 1_455 S
In13 O19 2.266 . S
In13 O20 2.326 . S
In13 O21 2.265 1_545 S
In13 O22 2.326 . S
In13 O24 2.294 1_455 S
In13 O25 2.326 . S
O14 In13 2.294 . S
O14 C23 1.240 . S
O15 In13 2.326 1_655 S
O15 C23 1.252 1_655 S
C16 O19 1.252 . S
C16 O20 1.260 . S
C17 O24 1.240 . S
C17 O25 1.252 1_655 S
C18 O21 1.260 1_545 S
C18 O22 1.260 . S
O19 In13 2.266 . S
O19 C16 1.252 . S
O20 In13 2.326 . S
O20 C16 1.260 . S
O21 In13 2.265 1_565 S
O21 C18 1.260 1_565 S
O22 In13 2.326 . S
O22 C18 1.260 . S
C23 O14 1.240 . S
C23 O15 1.252 1_455 S
O24 In13 2.294 1_655 S
O24 C17 1.240 . S
O25 In13 2.326 . S
O25 C17 1.252 1_455 S
In26 O27 2.294 1_545 S
In26 O28 2.326 1_455 S
In26 O32 2.266 . S
In26 O33 2.326 . S
In26 O34 2.266 . S
In26 O35 2.326 . S
In26 O37 2.294 . S
In26 O38 2.326 1_445 S
O27 In26 2.294 1_565 S
O27 C36 1.240 1_455 S
O28 In26 2.326 1_655 S
O28 C36 1.252 1_545 S
C29 O32 1.252 . S
C29 O33 1.260 . S
C30 O37 1.240 1_655 S
C30 O38 1.252 1_545 S
C31 O34 1.252 . S
C31 O35 1.260 . S
O32 In26 2.266 . S
O32 C29 1.252 . S
O33 In26 2.326 . S
O33 C29 1.260 . S
O34 In26 2.266 . S
O34 C31 1.252 . S
O35 In26 2.326 . S
O35 C31 1.260 . S
C36 O27 1.240 1_655 S
C36 O28 1.252 1_565 S
O37 In26 2.294 . S
O37 C30 1.240 1_455 S
O38 In26 2.326 1_665 S
O38 C30 1.252 1_565 S
C39 C40 1.443 . S
C39 N43 1.376 . S
C39 C77 1.389 . S
C40 C39 1.443 . S
C40 C41 1.340 . S
C40 H80 0.951 . S
C41 C40 1.340 . S
C41 C42 1.439 . S
C41 H81 0.950 . S
C42 C41 1.439 . S
C42 N43 1.374 . S
C42 C76 1.395 . S
N43 C39 1.376 . S
N43 C42 1.374 . S
N43 Co44 2.008 . S
Co44 N43 2.008 . S
Co44 N45 1.995 . S
Co44 N50 2.008 1_455 S
Co44 N55 1.995 1_455 S
Co44 N60 2.282 . S
Co44 N66 2.282 . S
N45 Co44 1.995 . S
N45 C46 1.376 . S
N45 C49 1.383 . S
C46 N45 1.376 . S
C46 C47 1.446 . S
C46 C76 1.391 . S
C47 C46 1.446 . S
C47 C48 1.339 . S
C47 H82 0.949 . S
C48 C47 1.339 . S
C48 C49 1.439 . S
C48 H83 0.950 . S
C49 N45 1.383 . S
C49 C48 1.439 . S
C49 C78 1.392 . S
N50 Co44 2.008 1_655 S
N50 C51 1.376 . S
N50 C54 1.374 . S
C51 N50 1.376 . S
C51 C52 1.443 . S
C51 C78 1.389 1_655 S
C52 C51 1.443 . S
C52 C53 1.340 . S
C52 H84 0.951 . S
C53 C52 1.340 . S
C53 C54 1.439 . S
C53 H85 0.950 . S
C54 N50 1.374 . S
C54 C53 1.439 . S
C54 C79 1.395 . S
N55 Co44 1.995 1_655 S
N55 C56 1.376 . S
N55 C59 1.386 1_655 S
C56 N55 1.376 . S
C56 C57 1.446 . S
C56 C79 1.391 . S
C57 C56 1.446 . S
C57 C58 1.339 . S
C57 H86 0.949 . S
C58 C57 1.339 . S
C58 C59 1.430 1_655 S
C58 H87 0.950 . S
C59 N55 1.386 1_455 S
C59 C58 1.430 1_455 S
C59 C77 1.397 . S
N60 Co44 2.282 . S
N60 C63 1.332 . S
N60 C65 1.332 . S
C61 C62 1.386 . S
C61 C64 1.388 . S
C62 C61 1.386 . S
C62 C63 1.382 . S
C62 H88 0.950 1_455 S
C63 N60 1.332 . S
C63 C62 1.382 . S
C63 H74 0.952 1_455 S
C64 C61 1.388 . S
C64 C65 1.382 . S
C64 H89 0.950 . S
C65 N60 1.332 . S
C65 C64 1.382 . S
C65 H75 0.948 . S
N66 Co44 2.282 . S
N66 C70 1.332 . S
N66 C71 1.332 1_455 S
C67 C68 1.388 1_655 S
C67 C71 1.382 . S
C67 H90 0.950 . S
C68 C67 1.388 1_455 S
C68 C69 1.386 . S
C69 C68 1.386 . S
C69 C70 1.382 . S
C69 H91 0.950 . S
C70 N66 1.332 . S
C70 C69 1.382 . S
C70 H72 0.952 . S
C71 N66 1.332 1_655 S
C71 C67 1.382 . S
C71 H73 0.948 . S
H72 C70 0.952 . S
H73 C71 0.948 . S
H74 C63 0.952 1_655 S
H75 C65 0.948 . S
C76 C42 1.395 . S
C76 C46 1.391 . S
C77 C39 1.389 . S
C77 C59 1.397 . S
C78 C49 1.392 . S
C78 C51 1.389 1_455 S
C79 C54 1.395 . S
C79 C56 1.391 . S
H80 C40 0.951 . S
H81 C41 0.950 . S
H82 C47 0.949 . S
H83 C48 0.950 . S
H84 C52 0.951 . S
H85 C53 0.950 . S
H86 C57 0.949 . S
H87 C58 0.950 . S
H88 C62 0.950 1_655 S
H89 C64 0.950 . S
H90 C67 0.950 . S
H91 C69 0.950 . S
C92 C93 1.443 1_545 S
C92 N96 1.376 . S
C92 C130 1.389 . S
C93 C92 1.443 1_565 S
C93 C94 1.340 . S
C93 H133 0.951 . S
C94 C93 1.340 . S
C94 C95 1.439 . S
C94 H134 0.950 . S
C95 C94 1.439 . S
C95 N96 1.374 1_565 S
C95 C129 1.395 . S
N96 C92 1.376 . S
N96 C95 1.374 1_545 S
N96 Co97 2.008 . S
Co97 N96 2.008 . S
Co97 N98 1.995 . S
Co97 N103 2.008 . S
Co97 N108 1.995 . S
Co97 N113 2.282 . S
Co97 N119 2.282 . S
N98 Co97 1.995 . S
N98 C99 1.376 1_545 S
N98 C102 1.383 . S
C99 N98 1.376 1_565 S
C99 C100 1.446 . S
C99 C129 1.391 . S
C100 C99 1.446 . S
C100 C101 1.339 . S
C100 H135 0.949 . S
C101 C100 1.339 . S
C101 C102 1.439 1_565 S
C101 H136 0.950 . S
C102 N98 1.383 . S
C102 C101 1.439 1_545 S
C102 C131 1.392 . S
N103 Co97 2.008 . S
N103 C104 1.376 . S
N103 C107 1.374 . S
C104 N103 1.376 . S
C104 C105 1.443 . S
C104 C131 1.389 . S
C105 C104 1.443 . S
C105 C106 1.340 . S
C105 H137 0.951 . S
C106 C105 1.340 . S
C106 C107 1.439 . S
C106 H138 0.950 . S
C107 N103 1.374 . S
C107 C106 1.439 . S
C107 C132 1.395 . S
N108 Co97 1.995 . S
N108 C109 1.376 . S
N108 C112 1.383 . S
C109 N108 1.376 . S
C109 C110 1.446 . S
C109 C132 1.391 . S
C110 C109 1.446 . S
C110 C111 1.339 . S
C110 H139 0.949 . S
C111 C110 1.339 . S
C111 C112 1.439 . S
C111 H140 0.950 . S
C112 N108 1.383 . S
C112 C111 1.439 . S
C112 C130 1.392 . S
N113 Co97 2.282 . S
N113 C116 1.332 . S
N113 C118 1.332 . S
C114 C115 1.386 . S
C114 C117 1.388 . S
C115 C114 1.386 . S
C115 C116 1.382 . S
C115 H141 0.950 . S
C116 N113 1.332 . S
C116 C115 1.382 . S
C116 H127 0.952 . S
C117 C114 1.388 . S
C117 C118 1.382 . S
C117 H142 0.950 1_545 S
C118 N113 1.332 . S
C118 C117 1.382 . S
C118 H128 0.948 1_545 S
N119 Co97 2.282 . S
N119 C123 1.332 . S
N119 C124 1.332 . S
C120 C121 1.388 . S
C120 C124 1.382 . S
C120 H143 0.950 . S
C121 C120 1.388 . S
C121 C122 1.386 . S
C122 C121 1.386 . S
C122 C123 1.382 . S
C122 H144 0.950 1_545 S
C123 N119 1.332 . S
C123 C122 1.382 . S
C123 H125 0.952 1_545 S
C124 N119 1.332 . S
C124 C120 1.382 . S
C124 H126 0.948 . S
H125 C123 0.952 1_565 S
H126 C124 0.948 . S
H127 C116 0.952 . S
H128 C118 0.948 1_565 S
C129 C95 1.395 . S
C129 C99 1.391 . S
C130 C92 1.389 . S
C130 C112 1.392 . S
C131 C102 1.392 . S
C131 C104 1.389 . S
C132 C107 1.395 . S
C132 C109 1.391 . S
H133 C93 0.951 . S
H134 C94 0.950 . S
H135 C100 0.949 . S
H136 C101 0.950 . S
H137 C105 0.951 . S
H138 C106 0.950 . S
H139 C110 0.949 . S
H140 C111 0.950 . S
H141 C115 0.950 . S
H142 C117 0.950 1_565 S
H143 C120 0.950 . S
H144 C122 0.950 1_565 S
C145 C146 1.443 . S
C145 N149 1.376 . S
C145 C183 1.389 . S
C146 C145 1.443 . S
C146 C147 1.340 . S
C146 H186 0.951 . S
C147 C146 1.340 . S
C147 C148 1.439 . S
C147 H187 0.950 . S
C148 C147 1.439 . S
C148 N149 1.374 . S
C148 C182 1.395 . S
N149 C145 1.376 . S
N149 C148 1.374 . S
N149 Co150 2.008 . S
Co150 N149 2.008 . S
Co150 N151 1.995 . S
Co150 N156 2.008 . S
Co150 N161 1.995 . S
Co150 N166 2.282 . S
Co150 N172 2.282 . S
N151 Co150 1.995 . S
N151 C152 1.376 . S
N151 C155 1.383 . S
C152 N151 1.376 . S
C152 C153 1.446 . S
C152 C182 1.391 . S
C153 C152 1.446 . S
C153 C154 1.339 . S
C153 H188 0.949 . S
C154 C153 1.339 . S
C154 C155 1.439 . S
C154 H189 0.950 . S
C155 N151 1.383 . S
C155 C154 1.439 . S
C155 C184 1.392 . S
N156 Co150 2.008 . S
N156 C157 1.376 . S
N156 C160 1.374 . S
C157 N156 1.376 . S
C157 C158 1.443 . S
C157 C184 1.389 . S
C158 C157 1.443 . S
C158 C159 1.340 . S
C158 H190 0.951 . S
C159 C158 1.340 . S
C159 C160 1.439 . S
C159 H191 0.950 . S
C160 N156 1.374 . S
C160 C159 1.439 . S
C160 C185 1.395 . S
N161 Co150 1.995 . S
N161 C162 1.376 . S
N161 C165 1.383 . S
C162 N161 1.376 . S
C162 C163 1.446 . S
C162 C185 1.391 . S
C163 C162 1.446 . S
C163 C164 1.339 . S
C163 H192 0.949 . S
C164 C163 1.339 . S
C164 C165 1.439 . S
C164 H193 0.950 . S
C165 N161 1.383 . S
C165 C164 1.439 . S
C165 C183 1.392 . S
N166 Co150 2.282 . S
N166 C169 1.332 . S
N166 C171 1.332 . S
C167 C168 1.386 . S
C167 C170 1.388 . S
C168 C167 1.386 . S
C168 C169 1.382 . S
C168 H194 0.950 . S
C169 N166 1.332 . S
C169 C168 1.382 . S
C169 H180 0.952 . S
C170 C167 1.388 . S
C170 C171 1.382 . S
C170 H195 0.950 . S
C171 N166 1.332 . S
C171 C170 1.382 . S
C171 H181 0.948 . S
N172 Co150 2.282 . S
N172 C176 1.332 . S
N172 C177 1.332 . S
C173 C174 1.388 . S
C173 C177 1.382 . S
C173 H196 0.950 . S
C174 C173 1.388 . S
C174 C175 1.386 . S
C175 C174 1.386 . S
C175 C176 1.382 . S
C175 H197 0.950 . S
C176 N172 1.332 . S
C176 C175 1.382 . S
C176 H178 0.952 . S
C177 N172 1.332 . S
C177 C173 1.382 . S
C177 H179 0.948 . S
H178 C176 0.952 . S
H179 C177 0.948 . S
H180 C169 0.952 . S
H181 C171 0.948 . S
C182 C148 1.395 . S
C182 C152 1.391 . S
C183 C145 1.389 . S
C183 C165 1.392 . S
C184 C155 1.392 . S
C184 C157 1.389 . S
C185 C160 1.395 . S
C185 C162 1.391 . S
H186 C146 0.951 . S
H187 C147 0.950 . S
H188 C153 0.949 . S
H189 C154 0.950 . S
H190 C158 0.951 . S
H191 C159 0.950 . S
H192 C163 0.949 . S
H193 C164 0.950 . S
H194 C168 0.950 . S
H195 C170 0.950 . S
H196 C173 0.950 . S
H197 C175 0.950 . S
C198 C199 1.386 . S
C198 C200 1.383 . S
C198 H214 0.951 . S
C199 C198 1.386 . S
C199 C203 1.383 . S
C200 C198 1.383 . S
C200 C201 1.402 . S
C200 H215 0.951 . S
C201 C200 1.402 . S
C201 C202 1.375 . S
C201 C204 1.481 . S
C202 C201 1.375 . S
C202 C203 1.367 . S
C202 H216 0.951 . S
C203 C199 1.383 . S
C203 C202 1.367 . S
C203 H217 0.950 . S
C204 C201 1.481 . S
C204 C205 1.297 . S
C204 H218 0.950 . S
C205 C204 1.297 . S
C205 C206 1.479 . S
C205 H219 0.950 . S
C206 C205 1.479 . S
C206 C207 1.375 . S
C206 C212 1.404 . S
C207 C206 1.375 . S
C207 C208 1.369 . S
C207 H220 0.950 . S
C208 C207 1.369 . S
C208 C209 1.392 . S
C208 H221 0.951 . S
C209 C208 1.392 . S
C209 C211 1.384 . S
H210 C212 0.949 . S
C211 C209 1.384 . S
C211 C212 1.385 . S
C211 H213 0.950 . S
C212 C206 1.404 . S
C212 H210 0.949 . S
C212 C211 1.385 . S
H213 C211 0.950 . S
H214 C198 0.951 . S
H215 C200 0.951 . S
H216 C202 0.951 . S
H217 C203 0.950 . S
H218 C204 0.950 . S
H219 C205 0.950 . S
H220 C207 0.950 . S
H221 C208 0.951 . S
C222 C223 1.386 . S
C222 C224 1.383 . S
C222 H238 0.951 . S
C223 C222 1.386 . S
C223 C227 1.383 . S
C224 C222 1.383 . S
C224 C225 1.402 . S
C224 H239 0.951 . S
C225 C224 1.402 . S
C225 C226 1.375 . S
C225 C228 1.481 . S
C226 C225 1.375 . S
C226 C227 1.367 . S
C226 H240 0.951 1_545 S
C227 C223 1.383 . S
C227 C226 1.367 . S
C227 H241 0.950 . S
C228 C225 1.481 . S
C228 C229 1.297 . S
C228 H242 0.950 . S
C229 C228 1.297 . S
C229 C230 1.479 . S
C229 H243 0.950 . S
C230 C229 1.479 . S
C230 C231 1.375 . S
C230 C236 1.404 . S
C231 C230 1.375 . S
C231 C232 1.369 . S
C231 H244 0.950 . S
C232 C231 1.369 . S
C232 C233 1.392 . S
C232 H245 0.951 . S
C233 C232 1.392 . S
C233 C235 1.384 . S
H234 C236 0.949 1_565 S
C235 C233 1.384 . S
C235 C236 1.385 . S
C235 H237 0.950 1_545 S
C236 C230 1.404 . S
C236 H234 0.949 1_545 S
C236 C235 1.385 . S
H237 C235 0.950 1_565 S
H238 C222 0.951 . S
H239 C224 0.951 . S
H240 C226 0.951 1_565 S
H241 C227 0.950 . S
H242 C228 0.950 . S
H243 C229 0.950 . S
H244 C231 0.950 . S
H245 C232 0.951 . S
C246 C247 1.386 . S
C246 C248 1.383 . S
C246 H262 0.951 . S
C247 C246 1.386 . S
C247 C251 1.383 . S
C248 C246 1.383 . S
C248 C249 1.402 . S
C248 H263 0.951 . S
C249 C248 1.402 . S
C249 C250 1.375 . S
C249 C252 1.481 . S
C250 C249 1.375 . S
C250 C251 1.367 . S
C250 H264 0.951 . S
C251 C247 1.383 . S
C251 C250 1.367 . S
C251 H265 0.950 . S
C252 C249 1.481 . S
C252 C253 1.297 . S
C252 H266 0.950 . S
C253 C252 1.297 . S
C253 C254 1.479 . S
C253 H267 0.950 . S
C254 C253 1.479 . S
C254 C255 1.375 . S
C254 C260 1.404 . S
C255 C254 1.375 . S
C255 C256 1.369 . S
C255 H268 0.950 . S
C256 C255 1.369 . S
C256 C257 1.392 . S
C256 H269 0.951 . S
C257 C256 1.392 . S
C257 C259 1.384 . S
H258 C260 0.949 . S
C259 C257 1.384 . S
C259 C260 1.385 . S
C259 H261 0.950 . S
C260 C254 1.404 . S
C260 H258 0.949 . S
C260 C259 1.385 . S
H261 C259 0.950 . S
H262 C246 0.951 . S
H263 C248 0.951 . S
H264 C250 0.951 . S
H265 C251 0.950 . S
H266 C252 0.950 . S
H267 C253 0.950 . S
H268 C255 0.950 . S
H269 C256 0.951 . S
C270 C271 1.386 . S
C270 C272 1.383 . S
C270 H286 0.951 . S
C271 C270 1.386 . S
C271 C275 1.383 . S
C272 C270 1.383 . S
C272 C273 1.402 . S
C272 H287 0.951 . S
C273 C272 1.402 . S
C273 C274 1.375 . S
C273 C276 1.481 . S
C274 C273 1.375 . S
C274 C275 1.367 . S
C274 H288 0.951 . S
C275 C271 1.383 . S
C275 C274 1.367 . S
C275 H289 0.950 . S
C276 C273 1.481 . S
C276 C277 1.297 . S
C276 H290 0.950 . S
C277 C276 1.297 . S
C277 C278 1.479 . S
C277 H291 0.950 . S
C278 C277 1.479 . S
C278 C279 1.375 . S
C278 C284 1.404 . S
C279 C278 1.375 . S
C279 C280 1.369 . S
C279 H292 0.950 . S
C280 C279 1.369 . S
C280 C281 1.392 . S
C280 H293 0.951 . S
C281 C280 1.392 . S
C281 C283 1.384 . S
H282 C284 0.949 . S
C283 C281 1.384 . S
C283 C284 1.385 . S
C283 H285 0.950 . S
C284 C278 1.404 . S
C284 H282 0.949 . S
C284 C283 1.385 . S
H285 C283 0.950 . S
H286 C270 0.951 . S
H287 C272 0.951 . S
H288 C274 0.951 . S
H289 C275 0.950 . S
H290 C276 0.950 . S
H291 C277 0.950 . S
H292 C279 0.950 . S
H293 C280 0.951 . S
C294 C295 1.386 . S
C294 C296 1.383 . S
C294 H310 0.951 . S
C295 C294 1.386 . S
C295 C299 1.383 . S
C296 C294 1.383 . S
C296 C297 1.402 . S
C296 H311 0.951 . S
C297 C296 1.402 . S
C297 C298 1.375 . S
C297 C300 1.481 . S
C298 C297 1.375 . S
C298 C299 1.367 . S
C298 H312 0.951 1_545 S
C299 C295 1.383 . S
C299 C298 1.367 . S
C299 H313 0.950 1_545 S
C300 C297 1.481 . S
C300 C301 1.297 . S
C300 H314 0.950 . S
C301 C300 1.297 . S
C301 C302 1.479 . S
C301 H315 0.950 . S
C302 C301 1.479 . S
C302 C303 1.375 . S
C302 C308 1.404 . S
C303 C302 1.375 . S
C303 C304 1.369 . S
C303 H316 0.950 . S
C304 C303 1.369 . S
C304 C305 1.392 . S
C304 H317 0.951 . S
C305 C304 1.392 . S
C305 C307 1.384 . S
H306 C308 0.949 1_565 S
C307 C305 1.384 . S
C307 C308 1.385 . S
C307 H309 0.950 1_545 S
C308 C302 1.404 . S
C308 H306 0.949 1_545 S
C308 C307 1.385 . S
H309 C307 0.950 1_565 S
H310 C294 0.951 . S
H311 C296 0.951 . S
H312 C298 0.951 1_565 S
H313 C299 0.950 1_565 S
H314 C300 0.950 . S
H315 C301 0.950 . S
H316 C303 0.950 . S
H317 C304 0.951 . S
C318 C319 1.386 . S
C318 C320 1.383 . S
C318 H334 0.951 . S
C319 C318 1.386 . S
C319 C323 1.383 . S
C320 C318 1.383 . S
C320 C321 1.402 . S
C320 H335 0.951 . S
C321 C320 1.402 . S
C321 C322 1.375 . S
C321 C324 1.481 . S
C322 C321 1.375 . S
C322 C323 1.367 . S
C322 H336 0.951 . S
C323 C319 1.383 . S
C323 C322 1.367 . S
C323 H337 0.950 . S
C324 C321 1.481 . S
C324 C325 1.297 . S
C324 H338 0.950 . S
C325 C324 1.297 . S
C325 C326 1.479 . S
C325 H339 0.950 . S
C326 C325 1.479 . S
C326 C327 1.375 . S
C326 C332 1.404 . S
C327 C326 1.375 . S
C327 C328 1.369 . S
C327 H340 0.950 . S
C328 C327 1.369 . S
C328 C329 1.392 . S
C328 H341 0.951 . S
C329 C328 1.392 . S
C329 C331 1.384 . S
H330 C332 0.949 . S
C331 C329 1.384 . S
C331 C332 1.385 . S
C331 H333 0.950 . S
C332 C326 1.404 . S
C332 H330 0.949 . S
C332 C331 1.385 . S
H333 C331 0.950 . S
H334 C318 0.951 . S
H335 C320 0.951 . S
H336 C322 0.951 . S
H337 C323 0.950 . S
H338 C324 0.950 . S
H339 C325 0.950 . S
H340 C327 0.950 . S
H341 C328 0.951 . S
C342 C343 1.386 . S
C342 C344 1.383 . S
C342 H358 0.951 . S
C343 C342 1.386 . S
C343 C347 1.383 . S
C344 C342 1.383 . S
C344 C345 1.402 . S
C344 H359 0.951 . S
C345 C344 1.402 . S
C345 C346 1.375 . S
C345 C348 1.481 . S
C346 C345 1.375 . S
C346 C347 1.367 . S
C346 H360 0.951 . S
C347 C343 1.383 . S
C347 C346 1.367 . S
C347 H361 0.950 1_655 S
C348 C345 1.481 . S
C348 C349 1.297 . S
C348 H362 0.950 . S
C349 C348 1.297 . S
C349 C350 1.479 . S
C349 H363 0.950 . S
C350 C349 1.479 . S
C350 C351 1.375 . S
C350 C356 1.404 . S
C351 C350 1.375 . S
C351 C352 1.369 . S
C351 H364 0.950 . S
C352 C351 1.369 . S
C352 C353 1.392 . S
C352 H365 0.951 . S
C353 C352 1.392 . S
C353 C355 1.384 . S
H354 C356 0.949 . S
C355 C353 1.384 . S
C355 C356 1.385 . S
C355 H357 0.950 . S
C356 C350 1.404 . S
C356 H354 0.949 . S
C356 C355 1.385 . S
H357 C355 0.950 . S
H358 C342 0.951 . S
H359 C344 0.951 . S
H360 C346 0.951 . S
H361 C347 0.950 1_455 S
H362 C348 0.950 . S
H363 C349 0.950 . S
H364 C351 0.950 . S
H365 C352 0.951 . S
C366 C367 1.386 . S
C366 C368 1.383 1_554 S
C366 H382 0.951 . S
C367 C366 1.386 . S
C367 C371 1.383 1_554 S
C368 C366 1.383 1_556 S
C368 C369 1.402 . S
C368 H383 0.951 . S
C369 C368 1.402 . S
C369 C370 1.375 . S
C369 C372 1.481 . S
C370 C369 1.375 . S
C370 C371 1.367 . S
C370 H384 0.951 . S
C371 C367 1.383 1_556 S
C371 C370 1.367 . S
C371 H385 0.950 1_655 S
C372 C369 1.481 . S
C372 C373 1.297 . S
C372 H386 0.950 . S
C373 C372 1.297 . S
C373 C374 1.479 . S
C373 H387 0.950 . S
C374 C373 1.479 . S
C374 C375 1.375 . S
C374 C380 1.404 . S
C375 C374 1.375 . S
C375 C376 1.369 . S
C375 H388 0.950 . S
C376 C375 1.369 . S
C376 C377 1.392 . S
C376 H389 0.951 . S
C377 C376 1.392 . S
C377 C379 1.384 . S
H378 C380 0.949 . S
C379 C377 1.384 . S
C379 C380 1.385 . S
C379 H381 0.950 . S
C380 C374 1.404 . S
C380 H378 0.949 . S
C380 C379 1.385 . S
H381 C379 0.950 . S
H382 C366 0.951 . S
H383 C368 0.951 . S
H384 C370 0.951 . S
H385 C371 0.950 1_455 S
H386 C372 0.950 . S
H387 C373 0.950 . S
H388 C375 0.950 . S
H389 C376 0.951 . S
C390 C391 1.386 . S
C390 C392 1.383 . S
C390 H406 0.951 1_565 S
C391 C390 1.386 . S
C391 C395 1.383 . S
C392 C390 1.383 . S
C392 C393 1.402 . S
C392 H407 0.951 . S
C393 C392 1.402 . S
C393 C394 1.375 . S
C393 C396 1.481 . S
C394 C393 1.375 . S
C394 C395 1.367 . S
C394 H408 0.951 1_455 S
C395 C391 1.383 . S
C395 C394 1.367 . S
C395 H409 0.950 1_455 S
C396 C393 1.481 . S
C396 C397 1.297 . S
C396 H410 0.950 . S
C397 C396 1.297 . S
C397 C398 1.479 . S
C397 H411 0.950 . S
C398 C397 1.479 . S
C398 C399 1.375 . S
C398 C404 1.404 . S
C399 C398 1.375 . S
C399 C400 1.369 . S
C399 H412 0.950 . S
C400 C399 1.369 . S
C400 C401 1.392 . S
C400 H413 0.951 . S
C401 C400 1.392 . S
C401 C403 1.384 . S
H402 C404 0.949 . S
C403 C401 1.384 . S
C403 C404 1.385 . S
C403 H405 0.950 . S
C404 C398 1.404 . S
C404 H402 0.949 . S
C404 C403 1.385 . S
H405 C403 0.950 . S
H406 C390 0.951 1_545 S
H407 C392 0.951 . S
H408 C394 0.951 1_655 S
H409 C395 0.950 1_655 S
H410 C396 0.950 . S
H411 C397 0.950 . S
H412 C399 0.950 . S
H413 C400 0.951 . S
C414 C415 1.386 . S
C414 C416 1.383 . S
C414 H430 0.951 . S
C415 C414 1.386 . S
C415 C419 1.400 . S
C416 C414 1.383 . S
C416 C417 1.402 . S
C416 H431 0.951 . S
C417 C416 1.402 . S
C417 C418 1.375 1_545 S
C417 C420 1.481 . S
C418 C417 1.375 1_565 S
C418 C419 1.358 1_565 S
C418 H432 0.951 . S
C419 C415 1.400 . S
C419 C418 1.358 1_545 S
C419 H433 0.941 1_545 S
C420 C417 1.481 . S
C420 C421 1.297 . S
C420 H434 0.949 . S
C421 C420 1.297 . S
C421 C422 1.479 . S
C421 H435 0.950 . S
C422 C421 1.479 . S
C422 C423 1.375 . S
C422 C428 1.404 . S
C423 C422 1.375 . S
C423 C424 1.369 . S
C423 H436 0.950 . S
C424 C423 1.369 . S
C424 C425 1.392 . S
C424 H437 0.951 . S
C425 C424 1.392 . S
C425 C427 1.384 . S
H426 C428 0.949 1_565 S
C427 C425 1.384 . S
C427 C428 1.385 . S
C427 H429 0.950 1_545 S
C428 C422 1.404 . S
C428 H426 0.949 1_545 S
C428 C427 1.385 . S
H429 C427 0.950 1_565 S
H430 C414 0.951 . S
H431 C416 0.951 . S
H432 C418 0.951 . S
H433 C419 0.941 1_565 S
H434 C420 0.949 . S
H435 C421 0.950 . S
H436 C423 0.950 . S
H437 C424 0.951 . S
C438 C439 1.386 . S
C438 C440 1.383 1_554 S
C438 H454 0.951 . S
C439 C438 1.386 . S
C439 C443 1.383 1_554 S
C440 C438 1.383 1_556 S
C440 C441 1.402 . S
C440 H455 0.951 . S
C441 C440 1.402 . S
C441 C442 1.375 . S
C441 C444 1.481 . S
C442 C441 1.375 . S
C442 C443 1.367 . S
C442 H456 0.951 . S
C443 C439 1.383 1_556 S
C443 C442 1.367 . S
C443 H457 0.950 . S
C444 C441 1.481 . S
C444 C445 1.297 . S
C444 H458 0.950 . S
C445 C444 1.297 . S
C445 C446 1.479 . S
C445 H459 0.950 . S
C446 C445 1.479 . S
C446 C447 1.375 . S
C446 C452 1.404 . S
C447 C446 1.375 . S
C447 C448 1.369 . S
C447 H460 0.950 . S
C448 C447 1.369 . S
C448 C449 1.392 . S
C448 H461 0.951 . S
C449 C448 1.392 . S
C449 C451 1.384 . S
H450 C452 0.949 . S
C451 C449 1.384 . S
C451 C452 1.385 . S
C451 H453 0.950 . S
C452 C446 1.404 . S
C452 H450 0.949 . S
C452 C451 1.385 . S
H453 C451 0.950 . S
H454 C438 0.951 . S
H455 C440 0.951 . S
H456 C442 0.951 . S
H457 C443 0.950 . S
H458 C444 0.950 . S
H459 C445 0.950 . S
H460 C447 0.950 . S
H461 C448 0.951 . S
C462 C463 1.386 . S
C462 C464 1.383 . S
C462 H478 0.951 . S
C463 C462 1.386 . S
C463 C467 1.383 . S
C464 C462 1.383 . S
C464 C465 1.402 . S
C464 H479 0.951 . S
C465 C464 1.402 . S
C465 C466 1.375 . S
C465 C468 1.481 . S
C466 C465 1.375 . S
C466 C467 1.367 . S
C466 H480 0.951 . S
C467 C463 1.383 . S
C467 C466 1.367 . S
C467 H481 0.950 . S
C468 C465 1.481 . S
C468 C469 1.297 . S
C468 H482 0.950 . S
C469 C468 1.297 . S
C469 C470 1.479 . S
C469 H483 0.950 . S
C470 C469 1.479 . S
C470 C471 1.375 . S
C470 C476 1.404 . S
C471 C470 1.375 . S
C471 C472 1.369 . S
C471 H484 0.950 . S
C472 C471 1.369 . S
C472 C473 1.392 . S
C472 H485 0.951 . S
C473 C472 1.392 . S
C473 C475 1.384 . S
H474 C476 0.949 1_655 S
C475 C473 1.384 . S
C475 C476 1.385 . S
C475 H477 0.950 . S
C476 C470 1.404 . S
C476 H474 0.949 1_455 S
C476 C475 1.385 . S
H477 C475 0.950 . S
H478 C462 0.951 . S
H479 C464 0.951 . S
H480 C466 0.951 . S
H481 C467 0.950 . S
H482 C468 0.950 . S
H483 C469 0.950 . S
H484 C471 0.950 . S
H485 C472 0.951 . S
C209 C61 1.511 . S
C199 C10 1.517 . S
C223 C17 1.516 . S
C233 C131 1.506 . S
C247 C36 1.518 . S
C257 C183 1.509 . S
C271 C5 1.519 . S
C281 C77 1.509 . S
C305 C121 1.512 . S
C295 C16 1.518 . S
C319 C31 1.518 . S
C329 C167 1.510 . S
C353 C114 1.509 . S
C343 C30 1.516 . S
C367 C3 1.518 1_655 S
C377 C174 1.508 . S
C401 C68 1.508 . S
C391 C18 1.517 1_565 S
C425 C130 1.507 . S
C415 C29 1.518 . S
C449 C184 1.511 . S
C439 C4 1.518 . S
C463 C23 1.515 . S
C473 C78 1.508 . S
