# Generated by pormake.
# Topology gar, (4,6)-cn, num edge types: 1
# Building blocks:
#     Node 0, Type 0, BuildingBlock: TATPOV_clean_sbu_0, # of connection points: 4
#     Node 1, Type 0, BuildingBlock: TATPOV_clean_sbu_0, # of connection points: 4
#     Node 2, Type 0, BuildingBlock: TATPOV_clean_sbu_0, # of connection points: 4
#     Node 3, Type 0, BuildingBlock: TATPOV_clean_sbu_0, # of connection points: 4
#     Node 4, Type 0, BuildingBlock: TATPOV_clean_sbu_0, # of connection points: 4
#     Node 5, Type 0, BuildingBlock: TATPOV_clean_sbu_0, # of connection points: 4
#     Node 6, Type 0, BuildingBlock: TATPOV_clean_sbu_0, # of connection points: 4
#     Node 7, Type 0, BuildingBlock: TATPOV_clean_sbu_0, # of connection points: 4
#     Node 8, Type 0, BuildingBlock: TATPOV_clean_sbu_0, # of connection points: 4
#     Node 9, Type 0, BuildingBlock: TATPOV_clean_sbu_0, # of connection points: 4
#     Node 10, Type 0, BuildingBlock: TATPOV_clean_sbu_0, # of connection points: 4
#     Node 11, Type 0, BuildingBlock: TATPOV_clean_sbu_0, # of connection points: 4
#     Node 12, Type 0, BuildingBlock: TATPOV_clean_sbu_0, # of connection points: 4
#     Node 13, Type 0, BuildingBlock: TATPOV_clean_sbu_0, # of connection points: 4
#     Node 14, Type 0, BuildingBlock: TATPOV_clean_sbu_0, # of connection points: 4
#     Node 15, Type 0, BuildingBlock: TATPOV_clean_sbu_0, # of connection points: 4
#     Node 16, Type 0, BuildingBlock: TATPOV_clean_sbu_0, # of connection points: 4
#     Node 17, Type 0, BuildingBlock: TATPOV_clean_sbu_0, # of connection points: 4
#     Node 18, Type 0, BuildingBlock: TATPOV_clean_sbu_0, # of connection points: 4
#     Node 19, Type 0, BuildingBlock: TATPOV_clean_sbu_0, # of connection points: 4
#     Node 20, Type 0, BuildingBlock: TATPOV_clean_sbu_0, # of connection points: 4
#     Node 21, Type 0, BuildingBlock: TATPOV_clean_sbu_0, # of connection points: 4
#     Node 22, Type 0, BuildingBlock: TATPOV_clean_sbu_0, # of connection points: 4
#     Node 23, Type 0, BuildingBlock: TATPOV_clean_sbu_0, # of connection points: 4
#     Node 24, Type 1, BuildingBlock: CUKXOW_clean_sbu_0, # of connection points: 6
#     Node 25, Type 1, BuildingBlock: CUKXOW_clean_sbu_0, # of connection points: 6
#     Node 26, Type 1, BuildingBlock: CUKXOW_clean_sbu_0, # of connection points: 6
#     Node 27, Type 1, BuildingBlock: CUKXOW_clean_sbu_0, # of connection points: 6
#     Node 28, Type 1, BuildingBlock: CUKXOW_clean_sbu_0, # of connection points: 6
#     Node 29, Type 1, BuildingBlock: CUKXOW_clean_sbu_0, # of connection points: 6
#     Node 30, Type 1, BuildingBlock: CUKXOW_clean_sbu_0, # of connection points: 6
#     Node 31, Type 1, BuildingBlock: CUKXOW_clean_sbu_0, # of connection points: 6
#     Node 32, Type 1, BuildingBlock: CUKXOW_clean_sbu_0, # of connection points: 6
#     Node 33, Type 1, BuildingBlock: CUKXOW_clean_sbu_0, # of connection points: 6
#     Node 34, Type 1, BuildingBlock: CUKXOW_clean_sbu_0, # of connection points: 6
#     Node 35, Type 1, BuildingBlock: CUKXOW_clean_sbu_0, # of connection points: 6
#     Node 36, Type 1, BuildingBlock: CUKXOW_clean_sbu_0, # of connection points: 6
#     Node 37, Type 1, BuildingBlock: CUKXOW_clean_sbu_0, # of connection points: 6
#     Node 38, Type 1, BuildingBlock: CUKXOW_clean_sbu_0, # of connection points: 6
#     Node 39, Type 1, BuildingBlock: CUKXOW_clean_sbu_0, # of connection points: 6
#     Edge 40, Type (0, 1), BuildingBlock: ZUJKAS_clean_linker_0, # of connection points: 2
#     Edge 41, Type (0, 1), BuildingBlock: ZUJKAS_clean_linker_0, # of connection points: 2
#     Edge 42, Type (0, 1), BuildingBlock: ZUJKAS_clean_linker_0, # of connection points: 2
#     Edge 43, Type (0, 1), BuildingBlock: ZUJKAS_clean_linker_0, # of connection points: 2
#     Edge 44, Type (0, 1), BuildingBlock: ZUJKAS_clean_linker_0, # of connection points: 2
#     Edge 45, Type (0, 1), BuildingBlock: ZUJKAS_clean_linker_0, # of connection points: 2
#     Edge 46, Type (0, 1), BuildingBlock: ZUJKAS_clean_linker_0, # of connection points: 2
#     Edge 47, Type (0, 1), BuildingBlock: ZUJKAS_clean_linker_0, # of connection points: 2
#     Edge 48, Type (0, 1), BuildingBlock: ZUJKAS_clean_linker_0, # of connection points: 2
#     Edge 49, Type (0, 1), BuildingBlock: ZUJKAS_clean_linker_0, # of connection points: 2
#     Edge 50, Type (0, 1), BuildingBlock: ZUJKAS_clean_linker_0, # of connection points: 2
#     Edge 51, Type (0, 1), BuildingBlock: ZUJKAS_clean_linker_0, # of connection points: 2
#     Edge 52, Type (0, 1), BuildingBlock: ZUJKAS_clean_linker_0, # of connection points: 2
#     Edge 53, Type (0, 1), BuildingBlock: ZUJKAS_clean_linker_0, # of connection points: 2
#     Edge 54, Type (0, 1), BuildingBlock: ZUJKAS_clean_linker_0, # of connection points: 2
#     Edge 55, Type (0, 1), BuildingBlock: ZUJKAS_clean_linker_0, # of connection points: 2
#     Edge 56, Type (0, 1), BuildingBlock: ZUJKAS_clean_linker_0, # of connection points: 2
#     Edge 57, Type (0, 1), BuildingBlock: ZUJKAS_clean_linker_0, # of connection points: 2
#     Edge 58, Type (0, 1), BuildingBlock: ZUJKAS_clean_linker_0, # of connection points: 2
#     Edge 59, Type (0, 1), BuildingBlock: ZUJKAS_clean_linker_0, # of connection points: 2
#     Edge 60, Type (0, 1), BuildingBlock: ZUJKAS_clean_linker_0, # of connection points: 2
#     Edge 61, Type (0, 1), BuildingBlock: ZUJKAS_clean_linker_0, # of connection points: 2
#     Edge 62, Type (0, 1), BuildingBlock: ZUJKAS_clean_linker_0, # of connection points: 2
#     Edge 63, Type (0, 1), BuildingBlock: ZUJKAS_clean_linker_0, # of connection points: 2
#     Edge 64, Type (0, 1), BuildingBlock: ZUJKAS_clean_linker_0, # of connection points: 2
#     Edge 65, Type (0, 1), BuildingBlock: ZUJKAS_clean_linker_0, # of connection points: 2
#     Edge 66, Type (0, 1), BuildingBlock: ZUJKAS_clean_linker_0, # of connection points: 2
#     Edge 67, Type (0, 1), BuildingBlock: ZUJKAS_clean_linker_0, # of connection points: 2
#     Edge 68, Type (0, 1), BuildingBlock: ZUJKAS_clean_linker_0, # of connection points: 2
#     Edge 69, Type (0, 1), BuildingBlock: ZUJKAS_clean_linker_0, # of connection points: 2
#     Edge 70, Type (0, 1), BuildingBlock: ZUJKAS_clean_linker_0, # of connection points: 2
#     Edge 71, Type (0, 1), BuildingBlock: ZUJKAS_clean_linker_0, # of connection points: 2
#     Edge 72, Type (0, 1), BuildingBlock: ZUJKAS_clean_linker_0, # of connection points: 2
#     Edge 73, Type (0, 1), BuildingBlock: ZUJKAS_clean_linker_0, # of connection points: 2
#     Edge 74, Type (0, 1), BuildingBlock: ZUJKAS_clean_linker_0, # of connection points: 2
#     Edge 75, Type (0, 1), BuildingBlock: ZUJKAS_clean_linker_0, # of connection points: 2
#     Edge 76, Type (0, 1), BuildingBlock: ZUJKAS_clean_linker_0, # of connection points: 2
#     Edge 77, Type (0, 1), BuildingBlock: ZUJKAS_clean_linker_0, # of connection points: 2
#     Edge 78, Type (0, 1), BuildingBlock: ZUJKAS_clean_linker_0, # of connection points: 2
#     Edge 79, Type (0, 1), BuildingBlock: ZUJKAS_clean_linker_0, # of connection points: 2
#     Edge 80, Type (0, 1), BuildingBlock: ZUJKAS_clean_linker_0, # of connection points: 2
#     Edge 81, Type (0, 1), BuildingBlock: ZUJKAS_clean_linker_0, # of connection points: 2
#     Edge 82, Type (0, 1), BuildingBlock: ZUJKAS_clean_linker_0, # of connection points: 2
#     Edge 83, Type (0, 1), BuildingBlock: ZUJKAS_clean_linker_0, # of connection points: 2
#     Edge 84, Type (0, 1), BuildingBlock: ZUJKAS_clean_linker_0, # of connection points: 2
#     Edge 85, Type (0, 1), BuildingBlock: ZUJKAS_clean_linker_0, # of connection points: 2
#     Edge 86, Type (0, 1), BuildingBlock: ZUJKAS_clean_linker_0, # of connection points: 2
#     Edge 87, Type (0, 1), BuildingBlock: ZUJKAS_clean_linker_0, # of connection points: 2
#     Edge 88, Type (0, 1), BuildingBlock: ZUJKAS_clean_linker_0, # of connection points: 2
#     Edge 89, Type (0, 1), BuildingBlock: ZUJKAS_clean_linker_0, # of connection points: 2
#     Edge 90, Type (0, 1), BuildingBlock: ZUJKAS_clean_linker_0, # of connection points: 2
#     Edge 91, Type (0, 1), BuildingBlock: ZUJKAS_clean_linker_0, # of connection points: 2
#     Edge 92, Type (0, 1), BuildingBlock: ZUJKAS_clean_linker_0, # of connection points: 2
#     Edge 93, Type (0, 1), BuildingBlock: ZUJKAS_clean_linker_0, # of connection points: 2
#     Edge 94, Type (0, 1), BuildingBlock: ZUJKAS_clean_linker_0, # of connection points: 2
#     Edge 95, Type (0, 1), BuildingBlock: ZUJKAS_clean_linker_0, # of connection points: 2
#     Edge 96, Type (0, 1), BuildingBlock: ZUJKAS_clean_linker_0, # of connection points: 2
#     Edge 97, Type (0, 1), BuildingBlock: ZUJKAS_clean_linker_0, # of connection points: 2
#     Edge 98, Type (0, 1), BuildingBlock: ZUJKAS_clean_linker_0, # of connection points: 2
#     Edge 99, Type (0, 1), BuildingBlock: ZUJKAS_clean_linker_0, # of connection points: 2
#     Edge 100, Type (0, 1), BuildingBlock: ZUJKAS_clean_linker_0, # of connection points: 2
#     Edge 101, Type (0, 1), BuildingBlock: ZUJKAS_clean_linker_0, # of connection points: 2
#     Edge 102, Type (0, 1), BuildingBlock: ZUJKAS_clean_linker_0, # of connection points: 2
#     Edge 103, Type (0, 1), BuildingBlock: ZUJKAS_clean_linker_0, # of connection points: 2
#     Edge 104, Type (0, 1), BuildingBlock: ZUJKAS_clean_linker_0, # of connection points: 2
#     Edge 105, Type (0, 1), BuildingBlock: ZUJKAS_clean_linker_0, # of connection points: 2
#     Edge 106, Type (0, 1), BuildingBlock: ZUJKAS_clean_linker_0, # of connection points: 2
#     Edge 107, Type (0, 1), BuildingBlock: ZUJKAS_clean_linker_0, # of connection points: 2
#     Edge 108, Type (0, 1), BuildingBlock: ZUJKAS_clean_linker_0, # of connection points: 2
#     Edge 109, Type (0, 1), BuildingBlock: ZUJKAS_clean_linker_0, # of connection points: 2
#     Edge 110, Type (0, 1), BuildingBlock: ZUJKAS_clean_linker_0, # of connection points: 2
#     Edge 111, Type (0, 1), BuildingBlock: ZUJKAS_clean_linker_0, # of connection points: 2
#     Edge 112, Type (0, 1), BuildingBlock: ZUJKAS_clean_linker_0, # of connection points: 2
#     Edge 113, Type (0, 1), BuildingBlock: ZUJKAS_clean_linker_0, # of connection points: 2
#     Edge 114, Type (0, 1), BuildingBlock: ZUJKAS_clean_linker_0, # of connection points: 2
#     Edge 115, Type (0, 1), BuildingBlock: ZUJKAS_clean_linker_0, # of connection points: 2
#     Edge 116, Type (0, 1), BuildingBlock: ZUJKAS_clean_linker_0, # of connection points: 2
#     Edge 117, Type (0, 1), BuildingBlock: ZUJKAS_clean_linker_0, # of connection points: 2
#     Edge 118, Type (0, 1), BuildingBlock: ZUJKAS_clean_linker_0, # of connection points: 2
#     Edge 119, Type (0, 1), BuildingBlock: ZUJKAS_clean_linker_0, # of connection points: 2
#     Edge 120, Type (0, 1), BuildingBlock: ZUJKAS_clean_linker_0, # of connection points: 2
#     Edge 121, Type (0, 1), BuildingBlock: ZUJKAS_clean_linker_0, # of connection points: 2
#     Edge 122, Type (0, 1), BuildingBlock: ZUJKAS_clean_linker_0, # of connection points: 2
#     Edge 123, Type (0, 1), BuildingBlock: ZUJKAS_clean_linker_0, # of connection points: 2
#     Edge 124, Type (0, 1), BuildingBlock: ZUJKAS_clean_linker_0, # of connection points: 2
#     Edge 125, Type (0, 1), BuildingBlock: ZUJKAS_clean_linker_0, # of connection points: 2
#     Edge 126, Type (0, 1), BuildingBlock: ZUJKAS_clean_linker_0, # of connection points: 2
#     Edge 127, Type (0, 1), BuildingBlock: ZUJKAS_clean_linker_0, # of connection points: 2
#     Edge 128, Type (0, 1), BuildingBlock: ZUJKAS_clean_linker_0, # of connection points: 2
#     Edge 129, Type (0, 1), BuildingBlock: ZUJKAS_clean_linker_0, # of connection points: 2
#     Edge 130, Type (0, 1), BuildingBlock: ZUJKAS_clean_linker_0, # of connection points: 2
#     Edge 131, Type (0, 1), BuildingBlock: ZUJKAS_clean_linker_0, # of connection points: 2
#     Edge 132, Type (0, 1), BuildingBlock: ZUJKAS_clean_linker_0, # of connection points: 2
#     Edge 133, Type (0, 1), BuildingBlock: ZUJKAS_clean_linker_0, # of connection points: 2
#     Edge 134, Type (0, 1), BuildingBlock: ZUJKAS_clean_linker_0, # of connection points: 2
#     Edge 135, Type (0, 1), BuildingBlock: ZUJKAS_clean_linker_0, # of connection points: 2
# Relax obj value: 0.106
# Max RMSD: 0.218
# Mean RMSD: 0.145
data_MOF--net-gar--node1-TATPOV_clean_sbu_0--node2-CUKXOW_clean_sbu_0--edge1-ZUJKAS_clean_linker_0
_symmetry_space_group_name_H-M    P1
_symmetry_Int_Tables_number       1
_symmetry_cell_setting            triclinic
loop_
_symmetry_equiv_pos_as_xyz
'x, y, z'
_cell_length_a     70.75013
_cell_length_b     69.316076
_cell_length_c     70.184138
_cell_angle_alpha  93.949274
_cell_angle_beta   96.197804
_cell_angle_gamma 101.22409
loop_
_atom_site_label
_atom_site_type_symbol
_atom_site_fract_x
_atom_site_fract_y
_atom_site_fract_z
_atom_type_partial_charge
Zn0 Zn 0.97763 0.25279 0.43853 0.0
Zn1 Zn 0.01257 0.26063 0.42573 0.0
O2 O 0.01397 0.28566 0.44385 0.0
O3 O 0.98509 0.27951 0.45384 0.0
O4 O 0.03804 0.2639 0.41478 0.0
O5 O 0.98356 0.22849 0.44969 0.0
O6 O 0.01194 0.23482 0.4388 0.0
C7 C 0.00143 0.2909 0.45379 0.0
C8 C 0.97486 0.25441 0.3978 0.0
O9 O 0.99329 0.25891 0.4013 0.0
O10 O 0.96463 0.2505 0.4113 0.0
C11 C 0.04296 0.27703 0.40348 0.0
O12 O 0.0318 0.28979 0.39994 0.0
C13 C -0.00031 0.22388 0.44754 0.0
Zn14 Zn 0.98099 0.74299 0.6335 0.0
Zn15 Zn 0.98807 0.77482 0.6137 0.0
O16 O 0.96212 0.77591 0.62393 0.0
O17 O 0.95508 0.74858 0.63823 0.0
O18 O 0.99244 0.79865 0.59878 0.0
O19 O 0.00485 0.75487 0.65204 0.0
O20 O 0.01178 0.77967 0.63427 0.0
C21 C 0.95067 0.76438 0.63292 0.0
C22 C 0.98558 0.73345 0.59402 0.0
O23 O 0.98735 0.752 0.59318 0.0
O24 O 0.98314 0.72602 0.60978 0.0
C25 C 0.98853 0.81485 0.60512 0.0
O26 O 0.98207 0.8161 0.62193 0.0
C27 C 0.01605 0.7706 0.6488 0.0
Zn28 Zn 0.47659 0.76285 0.9435 0.0
Zn29 Zn 0.51178 0.76826 0.93062 0.0
O30 O 0.51504 0.79256 0.95002 0.0
O31 O 0.48622 0.78854 0.96014 0.0
O32 O 0.53724 0.77079 0.91959 0.0
O33 O 0.48056 0.73745 0.95351 0.0
O34 O 0.50903 0.74176 0.94269 0.0
C35 C 0.50331 0.79851 0.96052 0.0
C36 C 0.47435 0.76601 0.90304 0.0
O37 O 0.49274 0.76878 0.90652 0.0
O38 O 0.46388 0.76264 0.91644 0.0
C39 C 0.54153 0.78353 0.90772 0.0
O40 O 0.52977 0.79563 0.9038 0.0
C41 C 0.49605 0.73153 0.95119 0.0
Zn42 Zn 0.47802 0.24012 0.12931 0.0
Zn43 Zn 0.48737 0.27438 0.11271 0.0
O44 O 0.46218 0.27597 0.12391 0.0
O45 O 0.45368 0.24801 0.1368 0.0
O46 O 0.49182 0.29898 0.09919 0.0
O47 O 0.50368 0.24945 0.14671 0.0
O48 O 0.51088 0.27704 0.13278 0.0
C49 C 0.45044 0.2647 0.13282 0.0
C50 C 0.48187 0.23436 0.08909 0.0
O51 O 0.4863 0.25312 0.0908 0.0
O52 O 0.47726 0.22505 0.10337 0.0
C53 C 0.47819 0.30058 0.08642 0.0
O54 O 0.46264 0.28636 0.08311 0.0
C55 C 0.51515 0.26569 0.14535 0.0
Zn56 Zn 0.02205 0.7695 0.13157 0.0
Zn57 Zn 0.99326 0.7657 0.1511 0.0
O58 O 0.99149 0.7903 0.1357 0.0
O59 O 0.01808 0.79467 0.12162 0.0
O60 O 0.96968 0.76389 0.16582 0.0
O61 O 0.01136 0.74443 0.1154 0.0
O62 O 0.98803 0.73865 0.13385 0.0
C63 C 0.00266 0.80012 0.12506 0.0
C64 C 0.03517 0.7697 0.17098 0.0
O65 O 0.01727 0.76934 0.17254 0.0
O66 O 0.0409 0.76928 0.15454 0.0
C67 C 0.96829 0.77837 0.17741 0.0
O68 O 0.98255 0.79395 0.18015 0.0
C69 C 0.99656 0.73311 0.11989 0.0
Zn70 Zn 0.49252 0.77816 0.38203 0.0
Zn71 Zn 0.52239 0.78654 0.36391 0.0
O72 O 0.52424 0.8135 0.38001 0.0
O73 O 0.49732 0.80613 0.39339 0.0
O74 O 0.54587 0.78975 0.34905 0.0
O75 O 0.50218 0.75822 0.39705 0.0
O76 O 0.52687 0.76317 0.38024 0.0
C77 C 0.51222 0.8186 0.39075 0.0
C78 C 0.48062 0.77375 0.34233 0.0
O79 O 0.49866 0.78099 0.34222 0.0
O80 O 0.4742 0.76968 0.35801 0.0
C81 C 0.5628 0.79902 0.35615 0.0
O82 O 0.56532 0.80797 0.37362 0.0
C83 C 0.51793 0.75403 0.39291 0.0
Zn84 Zn 0.51762 0.27238 0.6296 0.0
Zn85 Zn 0.49174 0.2694 0.653 0.0
O86 O 0.48906 0.29445 0.63837 0.0
O87 O 0.51295 0.29762 0.62051 0.0
O88 O 0.47029 0.26788 0.67048 0.0
O89 O 0.50468 0.24723 0.61421 0.0
O90 O 0.48483 0.24208 0.63628 0.0
C91 C 0.49877 0.30386 0.62635 0.0
C92 C 0.53482 0.27303 0.66836 0.0
O93 O 0.51741 0.27264 0.67189 0.0
O94 O 0.53855 0.27246 0.65112 0.0
C95 C 0.45387 0.27132 0.66401 0.0
O96 O 0.45105 0.27537 0.64603 0.0
C97 C 0.49105 0.2362 0.62091 0.0
Zn98 Zn 0.98358 0.27691 0.87465 0.0
Zn99 Zn 0.01567 0.28349 0.85894 0.0
O100 O 0.01784 0.31042 0.87485 0.0
O101 O 0.9892 0.3053 0.88533 0.0
O102 O 0.04063 0.28534 0.84665 0.0
O103 O 0.99117 0.25636 0.89052 0.0
O104 O 0.01703 0.25962 0.87534 0.0
C105 C 0.00522 0.31669 0.88396 0.0
C106 C 0.97562 0.27256 0.83416 0.0
O107 O 0.99391 0.27919 0.83552 0.0
O108 O 0.96758 0.26885 0.8491 0.0
C109 C 0.05236 0.30102 0.8439 0.0
O110 O 0.04844 0.31828 0.84896 0.0
C111 C 0.00671 0.25101 0.88734 0.0
Zn112 Zn 0.41828 0.05165 0.24234 0.0
Zn113 Zn 0.39711 0.07807 0.24345 0.0
O114 O 0.41481 0.08316 0.27034 0.0
O115 O 0.43241 0.06034 0.26837 0.0
O116 O 0.38093 0.09977 0.24422 0.0
O117 O 0.43068 0.06079 0.21989 0.0
O118 O 0.41116 0.08198 0.21824 0.0
C119 C 0.42797 0.07464 0.2778 0.0
C120 C 0.37826 0.03381 0.23985 0.0
O121 O 0.37655 0.05181 0.24201 0.0
O122 O 0.39483 0.02977 0.23887 0.0
C123 C 0.36408 0.09744 0.23477 0.0
O124 O 0.35702 0.0808 0.22401 0.0
C125 C 0.42435 0.0742 0.21148 0.0
Zn126 Zn 0.24618 0.18696 0.48641 0.0
Zn127 Zn 0.27016 0.16206 0.49055 0.0
O128 O 0.2772 0.17473 0.4658 0.0
O129 O 0.25435 0.19196 0.46045 0.0
O130 O 0.28931 0.1443 0.49519 0.0
O131 O 0.25989 0.20405 0.51002 0.0
O132 O 0.27706 0.18123 0.51507 0.0
C133 C 0.26887 0.18572 0.45535 0.0
C134 C 0.2262 0.14746 0.48918 0.0
O135 O 0.24305 0.14359 0.48867 0.0
O136 O 0.22386 0.1651 0.48918 0.0
C137 C 0.28647 0.12616 0.48903 0.0
O138 O 0.27006 0.11786 0.47845 0.0
C139 C 0.27238 0.19739 0.52051 0.0
Zn140 Zn 0.10578 0.02291 0.77422 0.0
Zn141 Zn 0.1332 0.00224 0.77976 0.0
O142 O 0.11793 0.9966 0.80337 0.0
O143 O 0.0953 0.01407 0.79815 0.0
O144 O 0.1535 0.98519 0.78131 0.0
O145 O 0.09428 0.00746 0.74928 0.0
O146 O 0.11763 0.99078 0.75327 0.0
C147 C 0.10294 0.00249 0.80822 0.0
C148 C 0.14387 0.04736 0.77782 0.0
O149 O 0.14915 0.03103 0.7804 0.0
O150 O 0.12599 0.04773 0.77474 0.0
C151 C 0.1478 0.96655 0.78076 0.0
O152 O 0.1292 0.95927 0.78072 0.0
C153 C 0.10259 0.99404 0.74332 0.0
Zn154 Zn 0.24018 0.86647 0.02039 0.0
Zn155 Zn 0.21875 0.89281 0.02056 0.0
O156 O 0.21168 0.87755 0.9927 0.0
O157 O 0.229 0.85436 0.99425 0.0
O158 O 0.19984 0.91166 0.02278 0.0
O159 O 0.23113 0.85356 0.04286 0.0
O160 O 0.21484 0.87743 0.04531 0.0
C161 C 0.21704 0.86259 0.98487 0.0
C162 C 0.26258 0.90642 0.02407 0.0
O163 O 0.24592 0.91104 0.02271 0.0
O164 O 0.26388 0.88843 0.02384 0.0
C165 C 0.18973 0.91736 0.00895 0.0
O166 O 0.19131 0.91117 0.99118 0.0
C167 C 0.22024 0.86231 0.05183 0.0
Zn168 Zn 0.2754 0.39484 0.05358 0.0
Zn169 Zn 0.24904 0.41627 0.04383 0.0
O170 O 0.2472 0.39792 0.01925 0.0
O171 O 0.26882 0.37997 0.02712 0.0
O172 O 0.22854 0.43223 0.03728 0.0
O173 O 0.26178 0.38509 0.07555 0.0
O174 O 0.23911 0.4016 0.06687 0.0
C175 C 0.25613 0.38427 0.01489 0.0
C176 C 0.29252 0.43564 0.05423 0.0
O177 O 0.2751 0.43697 0.04853 0.0
O178 O 0.29636 0.41913 0.05797 0.0
C179 C 0.22943 0.44385 0.024 0.0
O180 O 0.24447 0.44603 0.0143 0.0
C181 C 0.24586 0.39003 0.07793 0.0
Zn182 Zn 0.7792 0.19909 0.00142 0.0
Zn183 Zn 0.80356 0.17585 0.0037 0.0
O184 O 0.80752 0.19014 0.9783 0.0
O185 O 0.78854 0.21179 0.97902 0.0
O186 O 0.82475 0.15943 0.00537 0.0
O187 O 0.78809 0.21278 0.02743 0.0
O188 O 0.80893 0.19307 0.03044 0.0
C189 C 0.80084 0.20423 0.97097 0.0
C190 C 0.76008 0.15831 -0.00137 0.0
O191 O 0.77742 0.15546 0.00146 0.0
O192 O 0.75712 0.17565 -0.00248 0.0
C193 C 0.82797 0.14908 0.99081 0.0
O194 O 0.81708 0.14865 0.97432 0.0
C195 C 0.80148 0.20698 0.03743 0.0
Zn196 Zn 0.09363 0.52396 0.26452 0.0
Zn197 Zn 0.11192 0.49527 0.2671 0.0
O198 O 0.09909 0.49572 0.29268 0.0
O199 O 0.08655 0.5223 0.29114 0.0
O200 O 0.12517 0.4717 0.26808 0.0
O201 O 0.07487 0.51069 0.24209 0.0
O202 O 0.09369 0.48896 0.2408 0.0
C203 C 0.0902 0.50809 0.30028 0.0
C204 C 0.13417 0.53681 0.26279 0.0
O205 O 0.13458 0.51922 0.26681 0.0
O206 O 0.1181 0.54225 0.25995 0.0
C207 C 0.14131 0.47255 0.27839 0.0
O208 O 0.14952 0.48904 0.28896 0.0
C209 C 0.07941 0.49596 0.23347 0.0
Zn210 Zn 0.74819 0.86233 0.54047 0.0
Zn211 Zn 0.72995 0.89138 0.53648 0.0
O212 O 0.72183 0.87321 0.51111 0.0
O213 O 0.73287 0.8464 0.51696 0.0
O214 O 0.71404 0.91237 0.53242 0.0
O215 O 0.73979 0.85823 0.56634 0.0
O216 O 0.72082 0.8795 0.56119 0.0
C217 C 0.72334 0.85566 0.50585 0.0
C218 C 0.77405 0.89932 0.53826 0.0
O219 O 0.75868 0.90626 0.53901 0.0
O220 O 0.77318 0.88087 0.53783 0.0
C221 C 0.71299 0.92025 0.5166 0.0
O222 O 0.72319 0.91529 0.50317 0.0
C223 C 0.72686 0.86699 0.57156 0.0
Zn224 Zn 0.90714 0.03994 0.24479 0.0
Zn225 Zn 0.88545 0.06615 0.24387 0.0
O226 O 0.90134 0.07186 0.27114 0.0
O227 O 0.9182 0.04837 0.27201 0.0
O228 O 0.87042 0.08849 0.24376 0.0
O229 O 0.92187 0.05065 0.22418 0.0
O230 O 0.90164 0.07093 0.22051 0.0
C231 C 0.9135 0.06326 0.28016 0.0
C232 C 0.86698 0.02177 0.23824 0.0
O233 O 0.86483 0.03962 0.24083 0.0
O234 O 0.88381 0.01809 0.23837 0.0
C235 C 0.85339 0.08727 0.24854 0.0
O236 O 0.84405 0.07032 0.25325 0.0
C237 C 0.91596 0.064 0.21529 0.0
Zn238 Zn 0.27258 0.69466 0.50177 0.0
Zn239 Zn 0.29866 0.67296 0.50468 0.0
O240 O 0.30269 0.68776 0.47959 0.0
O241 O 0.28259 0.70835 0.48003 0.0
O242 O 0.32024 0.65701 0.50634 0.0
O243 O 0.2805 0.70773 0.52825 0.0
O244 O 0.30323 0.69011 0.53141 0.0
C245 C 0.29561 0.70165 0.47235 0.0
C246 C 0.25547 0.65344 0.49846 0.0
O247 O 0.27311 0.65175 0.50211 0.0
O248 O 0.25146 0.67031 0.49679 0.0
C249 C 0.32333 0.64684 0.49159 0.0
O250 O 0.31227 0.6466 0.47524 0.0
C251 C 0.29453 0.70305 0.53834 0.0
Zn252 Zn 0.39615 0.52941 0.72845 0.0
Zn253 Zn 0.37774 0.55838 0.73536 0.0
O254 O 0.39742 0.56144 0.75988 0.0
O255 O 0.41326 0.53784 0.75366 0.0
O256 O 0.36314 0.58057 0.73961 0.0
O257 O 0.40418 0.53951 0.70419 0.0
O258 O 0.39059 0.56493 0.71036 0.0
C259 C 0.41068 0.552 0.7648 0.0
C260 C 0.35635 0.51435 0.73039 0.0
O261 O 0.35621 0.53265 0.73398 0.0
O262 O 0.37187 0.50902 0.7271 0.0
C263 C 0.37216 0.59847 0.74303 0.0
O264 O 0.39117 0.60246 0.74382 0.0
C265 C 0.40019 0.55574 0.69976 0.0
Zn266 Zn 0.58147 0.01096 0.76796 0.0
Zn267 Zn 0.60469 0.986 0.76731 0.0
O268 O 0.59155 0.98221 0.79278 0.0
O269 O 0.57104 0.00236 0.79173 0.0
O270 O 0.62105 0.96473 0.76637 0.0
O271 O 0.56666 0.00034 0.74251 0.0
O272 O 0.58722 0.98041 0.74049 0.0
C273 C 0.57851 0.98962 0.80016 0.0
C274 C 0.62175 0.03015 0.76952 0.0
O275 O 0.62455 0.01248 0.76872 0.0
O276 O 0.6047 0.03327 0.76955 0.0
C277 C 0.62878 0.95843 0.78132 0.0
O278 O 0.62645 0.96603 0.79837 0.0
C279 C 0.5728 0.98716 0.73306 0.0
Zn280 Zn 0.73834 0.67506 0.97498 0.0
Zn281 Zn 0.76785 0.65704 0.98533 0.0
O282 O 0.77654 0.6701 0.96136 0.0
O283 O 0.75219 0.6845 0.95279 0.0
O284 O 0.78914 0.64303 0.99393 0.0
O285 O 0.74395 0.69128 0.00077 0.0
O286 O 0.76833 0.6767 0.00856 0.0
C287 C 0.76846 0.68052 0.95002 0.0
C288 C 0.72584 0.63334 0.9752 0.0
O289 O 0.7438 0.63434 0.98069 0.0
O290 O 0.71969 0.64884 0.97159 0.0
C291 C 0.79495 0.63141 0.98213 0.0
O292 O 0.78714 0.62899 0.96405 0.0
C293 C 0.75801 0.68918 0.01269 0.0
Zn294 Zn 0.92108 0.55316 0.74359 0.0
Zn295 Zn 0.89567 0.57534 0.74343 0.0
O296 O 0.91282 0.58213 0.77071 0.0
O297 O 0.93533 0.56441 0.76889 0.0
O298 O 0.87652 0.5944 0.74332 0.0
O299 O 0.93168 0.562 0.72008 0.0
O300 O 0.90903 0.57979 0.71781 0.0
C301 C 0.92798 0.57665 0.7783 0.0
C302 C 0.88227 0.53046 0.74186 0.0
O303 O 0.87785 0.54748 0.74214 0.0
O304 O 0.89986 0.52901 0.74216 0.0
C305 C 0.881 0.61197 0.75151 0.0
O306 O 0.8987 0.61846 0.76027 0.0
C307 C 0.92313 0.57361 0.71105 0.0
Zn308 Zn 0.74606 0.37133 0.51959 0.0
Zn309 Zn 0.71945 0.3925 0.51839 0.0
O310 O 0.71427 0.37674 0.49095 0.0
O311 O 0.73727 0.35936 0.49283 0.0
O312 O 0.698 0.40832 0.51981 0.0
O313 O 0.73728 0.35653 0.54111 0.0
O314 O 0.71667 0.37643 0.54275 0.0
C315 C 0.72301 0.36424 0.4833 0.0
C316 C 0.76236 0.41272 0.524 0.0
O317 O 0.74458 0.41407 0.52093 0.0
O318 O 0.76681 0.39595 0.52489 0.0
C319 C 0.68876 0.41439 0.50561 0.0
O320 O 0.69282 0.41027 0.48814 0.0
C321 C 0.72428 0.36258 0.54939 0.0
Zn322 Zn 0.61421 0.5287 0.28706 0.0
Zn323 Zn 0.64036 0.50669 0.28739 0.0
O324 O 0.62665 0.50031 0.31203 0.0
O325 O 0.607 0.52138 0.31249 0.0
O326 O 0.65932 0.48803 0.28677 0.0
O327 O 0.59922 0.51406 0.26274 0.0
O328 O 0.62309 0.4981 0.26124 0.0
C329 C 0.61421 0.50804 0.32013 0.0
C330 C 0.6524 0.5519 0.28727 0.0
O331 O 0.6574 0.53519 0.28822 0.0
O332 O 0.63463 0.55282 0.28615 0.0
C333 C 0.65232 0.46958 0.28341 0.0
O334 O 0.63336 0.46351 0.28113 0.0
C335 C 0.60706 0.50182 0.25387 0.0
Tb336 Tb 0.01657 0.04944 0.00571 0.0
C337 C 0.01154 0.01274 0.97437 0.0
Tb338 Tb -0.00042 0.00765 0.01627 0.0
O339 O 0.04376 0.04993 0.02476 0.0
O340 O 0.02691 0.02374 0.01189 0.0
O341 O 0.01395 0.03225 0.97793 0.0
C342 C 0.99554 0.9719 0.02879 0.0
O343 O 0.00662 0.00017 0.98741 0.0
C344 C 0.9739 0.02986 0.009 0.0
C345 C 0.00429 0.04427 0.04669 0.0
O346 O 0.98435 0.9767 0.01465 0.0
O347 O 0.00905 0.9871 0.03547 0.0
O348 O 0.97148 0.0153 0.01975 0.0
O349 O 0.98913 0.0298 0.00116 0.0
O350 O 0.0056 0.02545 0.04402 0.0
O351 O 0.00609 0.05623 0.0328 0.0
C352 C 0.02242 0.08374 0.98997 0.0
O353 O 0.00782 0.07702 -0.00098 0.0
O354 O 0.0339 0.07124 0.98996 0.0
C355 C 0.04164 0.03079 0.02368 0.0
Tb356 Tb 0.26458 0.8079 0.26651 0.0
C357 C 0.29703 0.78365 0.26137 0.0
Tb358 Tb 0.25249 0.76274 0.26101 0.0
O359 O 0.28118 0.80653 0.29432 0.0
O360 O 0.25652 0.78481 0.28423 0.0
O361 O 0.29213 0.80111 0.26009 0.0
C362 C 0.24729 0.72384 0.26377 0.0
O363 O 0.2842 0.76727 0.2631 0.0
C364 C 0.24637 0.78114 0.23028 0.0
C365 C 0.2201 0.78671 0.26603 0.0
O366 O 0.25111 0.73733 0.27817 0.0
O367 O 0.24642 0.73226 0.24785 0.0
O368 O 0.23577 0.76439 0.23329 0.0
O369 O 0.26057 0.78582 0.24335 0.0
O370 O 0.22538 0.76958 0.26847 0.0
O371 O 0.2327 0.80295 0.26333 0.0
C372 C 0.26996 0.84658 0.26238 0.0
O373 O 0.27055 0.83285 0.24911 0.0
O374 O 0.26629 0.83855 0.27811 0.0
C375 C 0.27074 0.78965 0.29729 0.0
Tb376 Tb 0.5264 0.03296 0.50135 0.0
C377 C 0.5123 0.01613 0.53931 0.0
Tb378 Tb 0.48324 0.02866 0.50693 0.0
O379 O 0.53446 0.0583 0.52321 0.0
O380 O 0.50726 0.05199 0.50684 0.0
O381 O 0.52518 0.01648 0.52678 0.0
C382 C 0.44943 0.0347 0.51727 0.0
O383 O 0.49543 0.02165 0.53514 0.0
C384 C 0.49264 -0.00104 0.48749 0.0
C385 C 0.49708 0.04599 0.46912 0.0
O386 O 0.45169 0.01964 0.50633 0.0
O387 O 0.46628 0.04601 0.52278 0.0
O388 O 0.47558 0.00339 0.48488 0.0
O389 O 0.5025 0.00968 0.50167 0.0
O390 O 0.48386 0.04463 0.48132 0.0
O391 O 0.51429 0.04111 0.47337 0.0
C392 C 0.56 0.02625 0.49092 0.0
O393 O 0.55822 0.03928 0.50445 0.0
O394 O 0.54282 0.01753 0.48283 0.0
C395 C 0.51736 0.06262 0.52096 0.0
Tb396 Tb 0.26348 0.288 0.78875 0.0
C397 C 0.2676 0.32333 0.76147 0.0
Tb398 Tb 0.25754 0.2787 0.74513 0.0
O399 O 0.29216 0.2797 0.79059 0.0
O400 O 0.28097 0.291 0.76619 0.0
O401 O 0.26473 0.31763 0.77884 0.0
C402 C 0.26509 0.26595 0.71074 0.0
O403 O 0.2682 0.31053 0.74665 0.0
C404 C 0.22654 0.28414 0.76023 0.0
C405 C 0.25175 0.24326 0.77242 0.0
O406 O 0.25166 0.27583 0.71365 0.0
O407 O 0.27396 0.26308 0.7271 0.0
O408 O 0.22903 0.28693 0.74244 0.0
O409 O 0.23982 0.2762 0.76752 0.0
O410 O 0.25424 0.24887 0.75493 0.0
O411 O 0.25256 0.25619 0.78754 0.0
C412 C 0.25813 0.30065 0.82411 0.0
O413 O 0.27229 0.29233 0.81992 0.0
O414 O 0.24714 0.30192 0.80843 0.0
C415 C 0.29453 0.28325 0.77297 0.0
Tb416 Tb 0.99608 0.01747 0.49129 0.0
C417 C 0.96737 -0.0015 0.51882 0.0
Tb418 Tb 0.01351 0.00671 0.53073 0.0
O419 O 0.98492 0.98596 0.48212 0.0
O420 O 0.00998 0.99544 0.50162 0.0
O421 O 0.96944 0.0093 0.50399 0.0
C422 C 0.0243 0.98802 0.56066 0.0
O423 O 0.98231 0.99427 0.52983 0.0
C424 C 0.01184 0.0438 0.52845 0.0
C425 C 0.04218 0.02579 0.50321 0.0
O426 O 0.01578 0.00299 0.5615 0.0
O427 O 0.02686 0.98365 0.54299 0.0
O428 O 0.02494 0.0381 0.53995 0.0
O429 O -0.00012 0.02891 0.52039 0.0
O430 O 0.04017 0.01496 0.51803 0.0
O431 O 0.02722 0.02987 0.49214 0.0
C432 C 0.98578 0.03731 0.46201 0.0
O433 O 0.99357 0.02184 0.46059 0.0
O434 O 0.98356 0.04139 0.47982 0.0
C435 C 0.99823 0.98044 0.49354 0.0
Tb436 Tb 0.28709 0.79721 0.77004 0.0
C437 C 0.25555 0.79493 0.79984 0.0
Tb438 Tb 0.24258 0.78001 0.75512 0.0
O439 O 0.28505 0.8258 0.75856 0.0
O440 O 0.26096 0.80718 0.76565 0.0
O441 O 0.27432 0.79881 0.79721 0.0
C442 C 0.207 0.78168 0.74026 0.0
O443 O 0.24117 0.78831 0.78556 0.0
C444 C 0.2622 0.75172 0.76118 0.0
C445 C 0.27439 0.78 0.72661 0.0
O446 O 0.21114 0.77055 0.75367 0.0
O447 O 0.22288 0.79151 0.735 0.0
O448 O 0.24363 0.74822 0.75524 0.0
O449 O 0.26771 0.77014 0.76354 0.0
O450 O 0.25605 0.78106 0.72839 0.0
O451 O 0.28826 0.78325 0.74152 0.0
C452 C 0.32338 0.80014 0.78621 0.0
O453 O 0.31814 0.81003 0.7722 0.0
O454 O 0.30815 0.789 0.79135 0.0
C455 C 0.26621 0.82265 0.75777 0.0
Tb456 Tb 0.48962 0.026 0.00613 0.0
C457 C 0.51614 0.99646 0.02095 0.0
Tb458 Tb 0.53337 0.04078 0.01535 0.0
O459 O 0.49131 0.02418 0.97517 0.0
O460 O 0.51466 0.02055 0.99426 0.0
O461 O 0.4984 0.00041 0.01868 0.0
C462 C 0.57119 0.05304 0.01295 0.0
O463 O 0.53172 0.00945 0.01789 0.0
C464 C 0.51299 0.04459 0.04424 0.0
C465 C 0.50717 0.07009 -0.00026 0.0
O466 O 0.56366 0.0489 0.02859 0.0
O467 O 0.55741 0.05053 -0.00132 0.0
O468 O 0.53102 0.04282 0.04645 0.0
O469 O 0.50827 0.04635 0.02681 0.0
O470 O 0.52485 0.06603 0.00194 0.0
O471 O 0.4916 0.05737 0.00335 0.0
C472 C 0.45204 0.01377 0.00953 0.0
O473 O 0.45908 0.01817 0.99369 0.0
O474 O 0.46618 0.01603 0.02342 0.0
C475 C 0.50937 0.02249 0.97692 0.0
Tb476 Tb 0.22623 0.27035 0.26642 0.0
C477 C 0.26588 0.28133 0.2955 0.0
Tb478 Tb 0.26435 0.28803 0.25189 0.0
O479 O 0.227 0.24083 0.25298 0.0
O480 O 0.25245 0.26127 0.26255 0.0
O481 O 0.24652 0.27789 0.29323 0.0
C482 C 0.29485 0.29157 0.23239 0.0
O483 O 0.27611 0.28366 0.28075 0.0
C484 C 0.24503 0.31371 0.26511 0.0
C485 C 0.22494 0.27722 0.22267 0.0
O486 O 0.28968 0.30609 0.24178 0.0
O487 O 0.28297 0.2752 0.2341 0.0
O488 O 0.26384 0.31732 0.26566 0.0
O489 O 0.23825 0.29719 0.25584 0.0
O490 O 0.24426 0.28057 0.22507 0.0
O491 O 0.21458 0.2746 0.23733 0.0
C492 C 0.19568 0.26865 0.28595 0.0
O493 O 0.20084 0.25344 0.27772 0.0
O494 O 0.20766 0.28457 0.28314 0.0
C495 C 0.24585 0.24462 0.2535 0.0
Tb496 Tb 0.50691 0.51496 0.98255 0.0
C497 C 0.47876 0.51052 0.01441 0.0
Tb498 Tb 0.52284 0.51009 0.02469 0.0
O499 O 0.48932 0.48476 0.97946 0.0
O500 O 0.51499 0.4924 -0.00173 0.0
O501 O 0.483 0.51901 -0.00141 0.0
C502 C 0.53823 0.49898 0.05742 0.0
O503 O 0.49154 0.50298 0.0253 0.0
C504 C 0.51851 0.54561 0.01712 0.0
C505 C 0.55162 0.51429 0.99268 0.0
O506 O 0.52266 0.48923 0.04679 0.0
O507 O 0.54506 0.5149 0.04959 0.0
O508 O 0.51731 0.53934 0.03403 0.0
O509 O 0.52343 0.53283 0.00636 0.0
O510 O 0.54848 0.50901 0.01015 0.0
O511 O 0.53786 0.51848 0.98006 0.0
C512 C 0.49756 0.52961 0.9496 0.0
O513 O 0.50456 0.51367 0.95112 0.0
O514 O 0.49584 0.5372 0.9666 0.0
C515 C 0.50044 0.47891 0.99289 0.0
Tb516 Tb 0.78683 0.29351 0.26976 0.0
C517 C 0.7548 0.29809 0.29611 0.0
Tb518 Tb 0.74468 0.28577 0.25095 0.0
O519 O 0.78705 0.32458 0.27771 0.0
O520 O 0.76896 0.30946 0.25369 0.0
O521 O 0.77257 0.29453 0.29574 0.0
C522 C 0.70816 0.28734 0.23855 0.0
O523 O 0.74253 0.29733 0.28023 0.0
C524 C 0.75874 0.25391 0.25623 0.0
C525 C 0.77653 0.28158 0.22449 0.0
O526 O 0.71345 0.27527 0.25041 0.0
O527 O 0.72345 0.29845 0.23353 0.0
O528 O 0.74488 0.25482 0.24282 0.0
O529 O 0.76254 0.26982 0.26711 0.0
O530 O 0.75888 0.28536 0.22497 0.0
O531 O 0.78878 0.28207 0.24033 0.0
C532 C 0.82284 0.29001 0.28197 0.0
O533 O 0.81834 0.30236 0.27003 0.0
O534 O 0.80713 0.28 0.28728 0.0
C535 C 0.77293 0.32541 0.26452 0.0
Tb536 Tb 0.98603 0.52506 0.50305 0.0
C537 C 0.00988 0.49205 0.51483 0.0
Tb538 Tb 0.03001 0.53677 0.51425 0.0
O539 O 0.98872 0.52546 0.47231 0.0
O540 O 0.01099 0.51942 0.49144 0.0
O541 O 0.99262 0.49717 0.51254 0.0
C542 C 0.06802 0.54782 0.51215 0.0
O543 O 0.02628 0.50482 0.5137 0.0
C544 C 0.00874 0.53961 0.54255 0.0
C545 C 0.00666 0.56905 0.49979 0.0
O546 O 0.06041 0.54167 0.52723 0.0
O547 O 0.05424 0.54792 0.49841 0.0
O548 O 0.02636 0.53656 0.54505 0.0
O549 O 0.00502 0.54299 0.52537 0.0
O550 O 0.02385 0.56412 0.50345 0.0
O551 O 0.99002 0.55677 0.50115 0.0
C552 C 0.94826 0.51515 0.50641 0.0
O553 O 0.95549 0.51941 0.49061 0.0
O554 O 0.96228 0.51616 0.5202 0.0
C555 C 0.00659 0.52308 0.47441 0.0
Tb556 Tb 0.76457 0.7926 0.28284 0.0
C557 C 0.77179 0.82722 0.25645 0.0
Tb558 Tb 0.75917 0.78226 0.23941 0.0
O559 O 0.79636 0.79967 0.2841 0.0
O560 O 0.77944 0.77918 0.26283 0.0
O561 O 0.7659 0.82195 0.27303 0.0
C562 C 0.76512 0.77666 0.20278 0.0
O563 O 0.77236 0.81393 0.24204 0.0
C564 C 0.72769 0.78554 0.255 0.0
C565 C 0.75197 0.74718 0.26552 0.0
O566 O 0.77736 0.77566 0.21761 0.0
O567 O 0.74943 0.78084 0.20854 0.0
O568 O 0.72758 0.77371 0.23976 0.0
O569 O 0.74451 0.79578 0.25954 0.0
O570 O 0.75511 0.75234 0.24807 0.0
O571 O 0.75405 0.76038 0.28072 0.0
C572 C 0.75499 0.79705 0.3183 0.0
O573 O 0.74404 0.78655 0.3038 0.0
O574 O 0.77162 0.80483 0.31299 0.0
C575 C 0.79636 0.78892 0.26817 0.0
Tb576 Tb 0.76132 0.30055 0.76368 0.0
C577 C 0.79406 0.27718 0.75328 0.0
Tb578 Tb 0.75106 0.25563 0.75422 0.0
O579 O 0.75898 0.29712 0.79421 0.0
O580 O 0.76741 0.27551 0.77684 0.0
O581 O 0.78791 0.29415 0.75311 0.0
C582 C 0.74028 0.21701 0.75756 0.0
O583 O 0.78254 0.26043 0.75639 0.0
C584 C 0.74932 0.27656 0.7246 0.0
C585 C 0.71787 0.27913 0.76432 0.0
O586 O 0.74587 0.22473 0.74225 0.0
O587 O 0.74071 0.23103 0.77093 0.0
O588 O 0.75282 0.25881 0.72348 0.0
O589 O 0.74505 0.28054 0.74111 0.0
O590 O 0.72326 0.26185 0.76165 0.0
O591 O 0.7301 0.29637 0.76447 0.0
C592 C 0.77195 0.33933 0.7607 0.0
O593 O 0.76185 0.32644 0.74735 0.0
O594 O 0.77606 0.33041 0.77582 0.0
C595 C 0.76294 0.27953 0.7933 0.0
Tb596 Tb 0.72819 0.77155 0.77584 0.0
C597 C 0.77052 0.77682 0.79634 0.0
Tb598 Tb 0.7618 0.78119 0.75174 0.0
O599 O 0.73584 0.74321 0.78185 0.0
O600 O 0.74184 0.75553 0.75637 0.0
O601 O 0.75245 0.77832 0.79862 0.0
C602 C 0.79238 0.78289 0.73254 0.0
O603 O 0.77678 0.77603 0.7792 0.0
C604 C 0.74537 0.81081 0.76094 0.0
C605 C 0.71978 0.77552 0.73098 0.0
O606 O 0.7784 0.76761 0.73209 0.0
O607 O 0.78927 0.79715 0.74397 0.0
O608 O 0.75358 0.8091 0.74543 0.0
O609 O 0.74821 0.79715 0.77121 0.0
O610 O 0.73773 0.7735 0.7289 0.0
O611 O 0.71348 0.77672 0.7481 0.0
C612 C 0.69801 0.7732 0.79523 0.0
O613 O 0.69968 0.75819 0.78383 0.0
O614 O 0.71329 0.78708 0.79571 0.0
C615 C 0.74449 0.74172 0.76655 0.0
Tb616 Tb 0.51781 0.55122 0.5061 0.0
C617 C 0.51043 0.51342 0.47533 0.0
Tb618 Tb 0.49773 0.51134 0.51682 0.0
O619 O 0.54528 0.54873 0.52275 0.0
O620 O 0.52571 0.52378 0.51038 0.0
O621 O 0.51336 0.53301 0.47839 0.0
C622 C 0.49091 0.47831 0.53468 0.0
O623 O 0.50621 0.50179 0.48924 0.0
C624 C 0.4742 0.53289 0.50136 0.0
C625 C 0.50518 0.54928 0.54754 0.0
O626 O 0.50665 0.49186 0.53773 0.0
O627 O 0.47896 0.48325 0.5214 0.0
O628 O 0.47024 0.51368 0.50015 0.0
O629 O 0.48977 0.53873 0.51243 0.0
O630 O 0.50203 0.52968 0.54448 0.0
O631 O 0.50946 0.56089 0.53364 0.0
C632 C 0.52554 0.58429 0.48847 0.0
O633 O 0.5372 0.57895 0.50174 0.0
O634 O 0.50952 0.57113 0.48531 0.0
C635 C 0.54133 0.52953 0.52137 0.0
Tb636 Tb 0.02407 0.52851 -0.00029 0.0
C637 C 0.01154 0.5132 0.0391 0.0
Tb638 Tb 0.98059 0.52258 0.0064 0.0
O639 O 0.03143 0.55426 0.0212 0.0
O640 O 0.00393 0.54635 0.0054 0.0
O641 O 0.02508 0.51557 0.02722 0.0
C642 C 0.94719 0.5285 0.01777 0.0
O643 O 0.99358 0.51594 0.03432 0.0
C644 C 0.99027 0.49315 0.98723 0.0
C645 C 0.99327 0.53924 0.96782 0.0
O646 O 0.96437 0.53601 0.02666 0.0
O647 O 0.94885 0.51718 0.00279 0.0
O648 O 0.97243 0.49537 0.98677 0.0
O649 O 0.00059 0.50491 0.00043 0.0
O650 O 0.98098 0.5389 0.98093 0.0
O651 O 0.01041 0.53399 0.97135 0.0
C652 C 0.05779 0.52148 0.99001 0.0
O653 O 0.05451 0.53885 0.99501 0.0
O654 O 0.04201 0.50839 0.99007 0.0
C655 C 0.01392 0.55771 0.01911 0.0
H656 H 0.98782 0.23091 0.91397 0.0
H657 H 0.99558 0.20272 0.92962 0.0
H658 H 0.04572 0.20489 0.89936 0.0
H659 H 0.03808 0.23347 0.88345 0.0
H660 H -0.00081 0.16587 0.90826 0.0
H661 H 0.06523 0.20192 0.95827 0.0
H662 H 0.04792 0.21583 0.94855 0.0
H663 H 0.0638 0.20698 0.93336 0.0
C664 C 0.0006 0.22557 0.91065 0.0
C665 C 0.0123 0.23445 0.89737 0.0
C666 C 0.005 0.20942 0.91964 0.0
C667 C 0.02123 0.20181 0.91569 0.0
C668 C 0.03322 0.21072 0.90271 0.0
H669 H 0.05154 0.09865 0.9692 0.0
H670 H 0.05325 0.12714 0.94997 0.0
C671 C 0.02879 0.22698 0.89361 0.0
C672 C 0.02473 0.18394 0.92468 0.0
H673 H 0.05231 0.16844 0.96126 0.0
C674 C 0.01095 0.16634 0.91966 0.0
C675 C 0.04015 0.18463 0.93946 0.0
C676 C 0.05515 0.20332 0.94539 0.0
C677 C 0.01176 0.14957 0.92953 0.0
C678 C 0.02654 0.15056 0.94503 0.0
C679 C 0.04092 0.16783 0.94944 0.0
C680 C 0.02639 0.13422 0.95754 0.0
C681 C 0.99656 0.13101 0.92351 0.0
C682 C 0.011 0.12917 0.9685 0.0
C683 C 0.01002 0.11303 0.97945 0.0
C684 C 0.02446 0.10171 0.97969 0.0
C685 C 0.04022 0.10715 0.96922 0.0
C686 C 0.04121 0.12338 0.95827 0.0
H687 H 0.98973 0.13086 0.90847 0.0
H688 H 0.0029 0.11764 0.92477 0.0
H689 H 0.98497 0.13024 0.93307 0.0
H690 H -0.00042 0.13756 0.96834 0.0
H691 H 0.99774 0.10917 0.98743 0.0
H692 H 0.03822 0.7902 0.20672 0.0
H693 H 0.06688 0.79654 0.23147 0.0
H694 H 0.09378 0.7579 0.19744 0.0
H695 H 0.06568 0.75174 0.1729 0.0
H696 H 0.09162 0.76573 0.25095 0.0
H697 H 0.12721 0.81879 0.20351 0.0
H698 H 0.10115 0.81235 0.20318 0.0
H699 H 0.1137 0.79569 0.19145 0.0
C700 C 0.05006 0.78268 0.20486 0.0
C701 C 0.04986 0.77064 0.18785 0.0
C702 C 0.06639 0.78634 0.21893 0.0
C703 C 0.08246 0.77781 0.21611 0.0
C704 C 0.08157 0.7647 0.19981 0.0
H705 H 0.18927 0.75546 0.2622 0.0
H706 H 0.15503 0.75613 0.2546 0.0
C707 C 0.0655 0.76122 0.1858 0.0
C708 C 0.10116 0.78384 0.22874 0.0
H709 H 0.14803 0.80655 0.22653 0.0
C710 C 0.10392 0.77504 0.24594 0.0
C711 C 0.11709 0.79617 0.22227 0.0
C712 C 0.1147 0.80646 0.20416 0.0
C713 C 0.12256 0.77729 0.25622 0.0
C714 C 0.13881 0.78819 0.24877 0.0
C715 C 0.1357 0.79808 0.23226 0.0
C716 C 0.15923 0.78803 0.25648 0.0
C717 C 0.12464 0.76766 0.27474 0.0
C718 C 0.17321 0.80573 0.25997 0.0
C719 C 0.19295 0.80538 0.26393 0.0
C720 C 0.19914 0.78731 0.26458 0.0
C721 C 0.18505 0.76966 0.26199 0.0
C722 C 0.16536 0.77002 0.25781 0.0
H723 H 0.11143 0.76698 0.28212 0.0
H724 H 0.12641 0.75227 0.27147 0.0
H725 H 0.13743 0.7757 0.28472 0.0
H726 H 0.1689 0.81982 0.25893 0.0
H727 H 0.2034 0.81925 0.26589 0.0
H728 H 0.48779 0.83285 0.41264 0.0
H729 H 0.49116 0.86579 0.42824 0.0
H730 H 0.54602 0.88391 0.40657 0.0
H731 H 0.54263 0.85049 0.39037 0.0
H732 H 0.52063 0.88574 0.45623 0.0
H733 H 0.51485 0.9264 0.39078 0.0
H734 H 0.50792 0.89983 0.38971 0.0
H735 H 0.53312 0.91162 0.39312 0.0
C736 C 0.50064 0.84372 0.41106 0.0
C737 C 0.51496 0.83895 0.40019 0.0
C738 C 0.50253 0.86262 0.42007 0.0
C739 C 0.51876 0.87734 0.41851 0.0
C740 C 0.53324 0.87279 0.40775 0.0
H741 H 0.52559 0.98473 0.49595 0.0
H742 H 0.53573 0.95737 0.47866 0.0
C743 C 0.53133 0.8537 0.3986 0.0
C744 C 0.52007 0.8972 0.42851 0.0
H745 H 0.51482 0.94404 0.42057 0.0
C746 C 0.5197 0.89862 0.44851 0.0
C747 C 0.51867 0.91387 0.41833 0.0
C748 C 0.51854 0.91299 0.39678 0.0
C749 C 0.51694 0.91589 0.4585 0.0
C750 C 0.51503 0.93245 0.44826 0.0
C751 C 0.51631 0.93135 0.42838 0.0
C752 C 0.51007 0.95036 0.45764 0.0
C753 C 0.5149 0.91577 0.47969 0.0
C754 C 0.49267 0.95607 0.45112 0.0
C755 C 0.48709 0.97203 0.4607 0.0
C756 C 0.49881 0.98253 0.47698 0.0
C757 C 0.51637 0.97702 0.48331 0.0
C758 C 0.52208 0.96125 0.47357 0.0
H759 H 0.51217 0.90055 0.48426 0.0
H760 H 0.52854 0.92412 0.48816 0.0
H761 H 0.50284 0.92292 0.48332 0.0
H762 H 0.48316 0.94788 0.43886 0.0
H763 H 0.4735 0.97599 0.45551 0.0
H764 H 0.41935 0.28273 0.65554 0.0
H765 H 0.39353 0.28317 0.67585 0.0
H766 H 0.42638 0.2597 0.7208 0.0
H767 H 0.45264 0.25972 0.70067 0.0
H768 H 0.37099 0.25356 0.69049 0.0
H769 H 0.41312 0.30612 0.75047 0.0
H770 H 0.42226 0.30222 0.7278 0.0
H771 H 0.42321 0.28475 0.7455 0.0
C772 C 0.42118 0.27772 0.66977 0.0
C773 C 0.43815 0.27127 0.67649 0.0
C774 C 0.40635 0.27797 0.68139 0.0
C775 C 0.40806 0.27176 0.70001 0.0
C776 C 0.42488 0.26503 0.70669 0.0
H777 H 0.32459 0.26557 0.7851 0.0
H778 H 0.35234 0.26147 0.76798 0.0
C779 C 0.43984 0.26492 0.6951 0.0
C780 C 0.39197 0.27201 0.71205 0.0
H781 H 0.38078 0.29169 0.75446 0.0
C782 C 0.37318 0.26188 0.70449 0.0
C783 C 0.39477 0.28282 0.73038 0.0
C784 C 0.41438 0.29475 0.73899 0.0
C785 C 0.35716 0.2624 0.71459 0.0
C786 C 0.3599 0.27346 0.73273 0.0
C787 C 0.37872 0.28318 0.74057 0.0
C788 C 0.34326 0.27596 0.74326 0.0
C789 C 0.33738 0.25117 0.70569 0.0
C790 C 0.32916 0.28576 0.73522 0.0
C791 C 0.31348 0.28823 0.745 0.0
C792 C 0.31147 0.28086 0.763 0.0
C793 C 0.32572 0.2713 0.77121 0.0
C794 C 0.34155 0.26895 0.76145 0.0
H795 H 0.3384 0.23938 0.69453 0.0
H796 H 0.32887 0.24437 0.7168 0.0
H797 H 0.32933 0.26155 0.69871 0.0
H798 H 0.33037 0.29164 0.7214 0.0
H799 H 0.30291 0.29595 0.73843 0.0
H800 H 0.00443 0.81828 0.57141 0.0
H801 H 0.00655 0.84588 0.55134 0.0
H802 H 0.97832 0.87693 0.59147 0.0
H803 H 0.97653 0.8496 0.61186 0.0
H804 H 0.97723 0.86073 0.53338 0.0
H805 H 0.02538 0.91853 0.5849 0.0
H806 H 0.02156 0.89267 0.58872 0.0
H807 H 0.00386 0.90695 0.59433 0.0
C808 C -0.00119 0.83105 0.57606 0.0
C809 C 0.99039 0.83179 0.59328 0.0
C810 C 1e-05 0.84678 0.56455 0.0
C811 C 0.99282 0.86355 0.57004 0.0
C812 C 0.98434 0.86432 0.58718 0.0
H813 H 0.96545 0.95347 0.49711 0.0
H814 H 0.96374 0.92376 0.51451 0.0
C815 C 0.98326 0.84864 0.59877 0.0
C816 C 0.99365 0.87992 0.55748 0.0
H817 H 0.01056 0.92937 0.55666 0.0
C818 C 0.9846 0.87573 0.53842 0.0
C819 C 0.00342 0.89942 0.56406 0.0
C820 C 0.01427 0.90467 0.58406 0.0
C821 C 0.98491 0.89059 0.52578 0.0
C822 C 0.99419 0.91018 0.53253 0.0
C823 C 0.00336 0.91433 0.55155 0.0
C824 C 0.99493 0.92666 0.52013 0.0
C825 C 0.97561 0.88511 0.50524 0.0
C826 C 0.01298 0.938 0.51743 0.0
C827 C 0.01394 0.95494 0.50768 0.0
C828 C 0.99688 0.96081 0.5005 0.0
C829 C 0.97878 0.94901 0.50232 0.0
C830 C 0.97781 0.93209 0.51226 0.0
H831 H 0.97388 0.86905 0.50103 0.0
H832 H 0.96096 0.88875 0.50371 0.0
H833 H 0.98432 0.89347 0.49512 0.0
H834 H 0.02635 0.93408 0.5234 0.0
H835 H 0.02804 0.96389 0.50638 0.0
H836 H 0.43766 0.74903 0.88752 0.0
H837 H 0.42031 0.75591 0.8577 0.0
H838 H 0.47214 0.79455 0.84508 0.0
H839 H 0.48982 0.78748 0.87507 0.0
H840 H 0.4391 0.81206 0.84669 0.0
H841 H 0.42013 0.74228 0.79967 0.0
H842 H 0.41649 0.73809 0.82407 0.0
H843 H 0.4406 0.74759 0.81839 0.0
C844 C 0.44551 0.75863 0.87819 0.0
C845 C 0.46502 0.76784 0.88363 0.0
C846 C 0.43564 0.76239 0.86106 0.0
C847 C 0.44503 0.77553 0.84908 0.0
C848 C 0.46476 0.78417 0.85404 0.0
H849 H 0.3568 0.82001 0.77443 0.0
H850 H 0.39016 0.81647 0.78509 0.0
C851 C 0.47479 0.78013 0.87113 0.0
C852 C 0.43311 0.78225 0.83331 0.0
H853 H 0.39573 0.76314 0.79823 0.0
C854 C 0.43009 0.80166 0.83552 0.0
C855 C 0.42153 0.76866 0.81871 0.0
C856 C 0.42501 0.74804 0.81494 0.0
C857 C 0.41417 0.80707 0.82511 0.0
C858 C 0.40125 0.79272 0.81216 0.0
C859 C 0.40559 0.77403 0.80837 0.0
C860 C 0.38154 0.7954 0.80546 0.0
C861 C 0.41013 0.82741 0.82939 0.0
C862 C 0.36585 0.78481 0.81352 0.0
C863 C 0.34699 0.78684 0.80758 0.0
C864 C 0.34349 0.79947 0.79343 0.0
C865 C 0.3592 0.81028 0.78548 0.0
C866 C 0.37818 0.80825 0.79148 0.0
H867 H 0.4215 0.83675 0.84015 0.0
H868 H 0.40935 0.83491 0.81595 0.0
H869 H 0.39587 0.8262 0.83493 0.0
H870 H 0.36824 0.7749 0.82442 0.0
H871 H 0.33512 0.77827 0.81386 0.0
H872 H 0.5051 0.24627 0.06167 0.0
H873 H 0.51149 0.22566 0.03417 0.0
H874 H 0.4686 0.17707 0.04794 0.0
H875 H 0.46253 0.19729 0.07565 0.0
H876 H 0.52265 0.18639 0.04407 0.0
H877 H 0.46129 0.17933 0.9861 0.0
H878 H 0.4694 0.20104 0.00304 0.0
H879 H 0.45472 0.1792 0.01017 0.0
C880 C 0.49672 0.23134 0.05853 0.0
C881 C 0.48344 0.22327 0.07085 0.0
C882 C 0.50035 0.21966 0.04282 0.0
C883 C 0.49033 0.2 0.03898 0.0
C884 C 0.47624 0.19234 0.05056 0.0
H885 H 0.47548 0.0861 0.00375 0.0
H886 H 0.47439 0.12087 0.00673 0.0
C887 C 0.4729 0.20383 0.06645 0.0
C888 C 0.49661 0.18625 0.02521 0.0
H889 H 0.47821 0.15241 0.98697 0.0
C890 C 0.51337 0.17927 0.03117 0.0
C891 C 0.48438 0.17719 0.00851 0.0
C892 C 0.46649 0.18464 0.00142 0.0
C893 C 0.51706 0.16193 0.02218 0.0
C894 C 0.5039 0.15181 0.00631 0.0
C895 C 0.48826 0.16013 -0.00088 0.0
C896 C 0.50365 0.13091 -5e-05 0.0
C897 C 0.5338 0.15361 0.03109 0.0
C898 C 0.5201 0.12481 0.9941 0.0
C899 C 0.52097 0.10476 0.99284 0.0
C900 C 0.50519 0.09057 -0.00305 0.0
C901 C 0.48801 0.09662 0.00071 0.0
C902 C 0.48731 0.11657 0.00232 0.0
H903 H 0.5407 0.16188 0.04503 0.0
H904 H 0.52885 0.13789 0.03362 0.0
H905 H 0.54508 0.15444 0.02119 0.0
H906 H 0.53265 0.13559 0.99157 0.0
H907 H 0.53428 0.10051 0.98955 0.0
H908 H 0.0649 0.24863 0.40238 0.0
H909 H 0.09124 0.24665 0.38287 0.0
H910 H 0.08567 0.30213 0.36101 0.0
H911 H 0.05915 0.30422 0.38032 0.0
H912 H 0.08634 0.25088 0.33802 0.0
H913 H 0.14615 0.30401 0.38344 0.0
H914 H 0.12564 0.29038 0.39343 0.0
H915 H 0.12266 0.3105 0.37945 0.0
C916 C 0.06937 0.26053 0.39357 0.0
C917 C 0.05991 0.2766 0.3929 0.0
C918 C 0.08437 0.25931 0.3824 0.0
C919 C 0.09034 0.27425 0.37058 0.0
C920 C 0.08126 0.29051 0.37014 0.0
H921 H 0.18089 0.29992 0.29791 0.0
H922 H 0.15465 0.30016 0.31781 0.0
C923 C 0.06613 0.29166 0.38117 0.0
C924 C 0.10567 0.27256 0.35821 0.0
H925 H 0.15314 0.29092 0.35375 0.0
C926 C 0.10099 0.25954 0.34142 0.0
C927 C 0.12464 0.28398 0.36275 0.0
C928 C 0.13026 0.29799 0.38078 0.0
C929 C 0.11478 0.25796 0.32872 0.0
C930 C 0.13388 0.26932 0.33328 0.0
C931 C 0.13853 0.28219 0.35025 0.0
C932 C 0.14915 0.26868 0.32043 0.0
C933 C 0.10854 0.24465 0.31026 0.0
C934 C 0.15479 0.25087 0.31519 0.0
C935 C 0.16963 0.25067 0.30354 0.0
C936 C 0.17929 0.26832 0.29729 0.0
C937 C 0.17367 0.28609 0.30256 0.0
C938 C 0.15871 0.28625 0.31395 0.0
H939 H 0.09252 0.24152 0.30643 0.0
H940 H 0.1154 0.25131 0.29811 0.0
H941 H 0.11303 0.23035 0.31208 0.0
H942 H 0.14797 0.2372 0.3204 0.0
H943 H 0.17386 0.23682 0.29981 0.0
H944 H 0.90056 0.07864 0.18287 0.0
H945 H 0.91535 0.08289 0.15282 0.0
H946 H 0.96742 0.06741 0.17973 0.0
H947 H 0.95296 0.06336 0.20949 0.0
H948 H 0.97472 0.09786 0.15508 0.0
H949 H 0.92028 0.03209 0.12072 0.0
H950 H 0.91113 0.05266 0.13039 0.0
H951 H 0.92357 0.03875 0.14633 0.0
C952 C 0.91532 0.07664 0.18244 0.0
C953 C 0.92551 0.0704 0.1984 0.0
C954 C 0.9237 0.07893 0.16527 0.0
C955 C 0.94237 0.07513 0.16398 0.0
C956 C 0.95299 0.07035 0.18037 0.0
H957 H 0.99807 0.02413 0.07841 0.0
H958 H 0.98329 0.03418 0.10636 0.0
C959 C 0.94465 0.06795 0.19736 0.0
C960 C 0.95042 0.07404 0.14538 0.0
H961 H 0.94602 0.04423 0.10365 0.0
C962 C 0.9683 0.08639 0.14363 0.0
C963 C 0.94213 0.05883 0.13065 0.0
C964 C 0.92329 0.04469 0.13203 0.0
C965 C 0.97843 0.08351 0.12785 0.0
C966 C 0.97036 0.06796 0.11342 0.0
C967 C 0.95216 0.0561 0.1148 0.0
C968 C 0.98096 0.06292 0.09729 0.0
C969 C 0.99809 0.09645 0.1272 0.0
C970 C 0.98488 0.0759 0.08309 0.0
C971 C 0.99343 0.07024 0.0671 0.0
C972 C 0.99811 0.05142 0.06496 0.0
C973 C 0.99473 0.03873 0.07957 0.0
C974 C 0.98619 0.04442 0.09553 0.0
H975 H 0.00378 0.10538 0.14111 0.0
H976 H 0.00871 0.08736 0.12349 0.0
H977 H 0.99692 0.10671 0.11587 0.0
H978 H 0.98073 0.09014 0.08404 0.0
H979 H 0.99567 0.08035 0.05607 0.0
H980 H 0.29898 0.6809 0.43864 0.0
H981 H 0.29811 0.69359 0.40675 0.0
H982 H 0.30257 0.75253 0.43342 0.0
H983 H 0.30282 0.73984 0.46499 0.0
H984 H 0.27046 0.74078 0.40748 0.0
H985 H 0.33529 0.72669 0.37504 0.0
H986 H 0.3211 0.70568 0.38411 0.0
H987 H 0.33362 0.72636 0.40052 0.0
C988 C 0.30055 0.69665 0.43766 0.0
C989 C 0.301 0.70943 0.45421 0.0
C990 C 0.3 0.7039 0.41945 0.0
C991 C 0.30023 0.72404 0.41767 0.0
C992 C 0.30229 0.73695 0.4344 0.0
H993 H 0.30398 0.79561 0.3221 0.0
H994 H 0.31073 0.77782 0.35019 0.0
C995 C 0.30255 0.72971 0.45245 0.0
C996 C 0.29576 0.73146 0.39865 0.0
H997 H 0.31175 0.73857 0.35493 0.0
C998 C 0.27949 0.74026 0.39598 0.0
C999 C 0.30754 0.73079 0.38368 0.0
C1000 C 0.32547 0.72203 0.38594 0.0
C1001 C 0.27488 0.74877 0.37897 0.0
C1002 C 0.28656 0.74801 0.36391 0.0
C1003 C 0.30271 0.73898 0.36643 0.0
C1004 C 0.28285 0.75761 0.34596 0.0
C1005 C 0.25795 0.75913 0.37763 0.0
C1006 C 0.26502 0.752 0.33406 0.0
C1007 C 0.26103 0.76235 0.31816 0.0
C1008 C 0.27493 0.77824 0.3137 0.0
C1009 C 0.29296 0.78346 0.32527 0.0
C1010 C 0.29689 0.77322 0.34123 0.0
H1011 H 0.25358 0.76259 0.39201 0.0
H1012 H 0.26149 0.7731 0.37072 0.0
H1013 H 0.24529 0.7494 0.36877 0.0
H1014 H 0.25406 0.73983 0.33726 0.0
H1015 H 0.24694 0.75817 0.30962 0.0
H1016 H 0.5908 0.97603 0.70256 0.0
H1017 H 0.57899 0.97597 0.66828 0.0
H1018 H 0.52425 0.9867 0.68344 0.0
H1019 H 0.536 0.98713 0.7175 0.0
H1020 H 0.54453 0.95597 0.64186 0.0
H1021 H 0.54791 0.03628 0.65758 0.0
H1022 H 0.55922 0.0219 0.67416 0.0
H1023 H 0.5335 0.02089 0.67244 0.0
C1024 C 0.57606 0.97777 0.69852 0.0
C1025 C 0.5644 0.98183 0.7127 0.0
C1026 C 0.56936 0.97782 0.67896 0.0
C1027 C 0.55092 0.9818 0.67339 0.0
C1028 C 0.53867 0.984 0.68746 0.0
H1029 H 0.4913 0.01512 0.57004 0.0
H1030 H 0.50001 0.00485 0.60194 0.0
C1031 C 0.54538 0.98415 0.70691 0.0
C1032 C 0.54511 0.98572 0.65329 0.0
H1033 H 0.53364 0.02209 0.6265 0.0
C1034 C 0.54221 0.97042 0.63845 0.0
C1035 C 0.54219 0.00464 0.64888 0.0
C1036 C 0.54603 0.02194 0.66405 0.0
C1037 C 0.53596 0.97344 0.61934 0.0
C1038 C 0.5328 0.9923 0.61502 0.0
C1039 C 0.53588 0.0076 0.62987 0.0
C1040 C 0.52675 0.99681 0.59516 0.0
C1041 C 0.53238 0.95633 0.60403 0.0
C1042 C 0.53889 0.99573 0.58076 0.0
C1043 C 0.53399 0.00164 0.56253 0.0
C1044 C 0.51685 0.00883 0.55833 0.0
C1045 C 0.50456 0.00961 0.57272 0.0
C1046 C 0.50952 0.00374 0.59097 0.0
H1047 H 0.53056 0.94192 0.61035 0.0
H1048 H 0.51926 0.9564 0.59382 0.0
H1049 H 0.54501 0.95764 0.59575 0.0
H1050 H 0.55246 0.99085 0.58378 0.0
H1051 H 0.54384 0.00086 0.55185 0.0
H1052 H 0.27472 0.35666 0.00031 0.0
H1053 H 0.27054 0.34148 0.96737 0.0
H1054 H 0.22491 0.37284 0.95207 0.0
H1055 H 0.22929 0.38855 0.98503 0.0
H1056 H 0.23894 0.31799 0.94484 0.0
H1057 H 0.2627 0.38892 0.91334 0.0
H1058 H 0.26584 0.38683 0.93891 0.0
H1059 H 0.24242 0.38799 0.92683 0.0
C1060 C 0.26372 0.36032 0.99 0.0
C1061 C 0.25246 0.37398 0.99526 0.0
C1062 C 0.26133 0.35157 0.97117 0.0
C1063 C 0.24765 0.35628 0.95723 0.0
C1064 C 0.23585 0.36934 0.96255 0.0
H1065 H 0.22989 0.31969 0.8337 0.0
H1066 H 0.2251 0.33228 0.86596 0.0
C1067 C 0.2383 0.37821 0.9814 0.0
C1068 C 0.24628 0.34782 0.93707 0.0
H1069 H 0.25407 0.3601 0.89188 0.0
C1070 C 0.24212 0.32719 0.93323 0.0
C1071 C 0.25045 0.35989 0.92198 0.0
C1072 C 0.25577 0.38213 0.92541 0.0
C1073 C 0.24233 0.31828 0.91472 0.0
C1074 C 0.24698 0.33035 0.89978 0.0
C1075 C 0.25052 0.35095 0.90345 0.0
C1076 C 0.24926 0.32192 0.88047 0.0
C1077 C 0.23772 0.29605 0.91127 0.0
C1078 C 0.26452 0.31208 0.87805 0.0
C1079 C 0.26736 0.30501 0.85968 0.0
C1080 C 0.25499 0.30772 0.84351 0.0
C1081 C 0.23963 0.31744 0.84597 0.0
C1082 C 0.23686 0.3246 0.86433 0.0
H1083 H 0.2299 0.28911 0.92277 0.0
H1084 H 0.22875 0.29115 0.89715 0.0
H1085 H 0.25147 0.29063 0.91108 0.0
H1086 H 0.27442 0.31018 0.89034 0.0
H1087 H 0.27931 0.29759 0.85812 0.0
H1088 H 0.94365 0.05167 0.30019 0.0
H1089 H 0.95597 0.05964 0.334 0.0
H1090 H 0.91553 0.09825 0.33993 0.0
H1091 H 0.90269 0.09002 0.30569 0.0
H1092 H 0.9723 0.09559 0.35641 0.0
H1093 H 0.90245 0.0578 0.37946 0.0
H1094 H 0.90727 0.05484 0.35483 0.0
H1095 H 0.90219 0.07771 0.36435 0.0
C1096 C 0.93737 0.06197 0.30856 0.0
C1097 C 0.92198 0.07 0.30029 0.0
C1098 C 0.94455 0.06661 0.3279 0.0
C1099 C 0.93655 0.07937 0.33951 0.0
C1100 C 0.92173 0.08817 0.33123 0.0
H1101 H 0.96677 0.068 0.46297 0.0
H1102 H 0.95559 0.08485 0.4355 0.0
C1103 C 0.91448 0.08352 0.31169 0.0
C1104 C 0.94314 0.08187 0.36045 0.0
H1105 H 0.93018 0.06327 0.40201 0.0
C1106 C 0.96298 0.08907 0.36657 0.0
C1107 C 0.93093 0.07346 0.37371 0.0
C1108 C 0.90952 0.06542 0.36788 0.0
C1109 C 0.97124 0.08645 0.38504 0.0
C1110 C 0.95936 0.07631 0.39759 0.0
C1111 C 0.93923 0.07094 0.39223 0.0
C1112 C 0.96777 0.06804 0.41461 0.0
C1113 C 0.99282 0.09343 0.39057 0.0
C1114 C 0.97826 0.05305 0.41188 0.0
C1115 C 0.98438 0.04328 0.42738 0.0
C1116 C 0.98014 0.04836 0.4459 0.0
C1117 C 0.97011 0.06375 0.44877 0.0
C1118 C 0.9638 0.07342 0.43317 0.0
H1119 H -0.00132 0.10599 0.38244 0.0
H1120 H 0.99631 0.09803 0.40623 0.0
H1121 H 0.00025 0.08116 0.38712 0.0
H1122 H 0.98116 0.04846 0.39759 0.0
H1123 H 0.99213 0.03151 0.42481 0.0
H1124 H 0.28879 0.73856 0.5523 0.0
H1125 H 0.29116 0.75139 0.58581 0.0
H1126 H 0.31316 0.70087 0.60382 0.0
H1127 H 0.31072 0.68775 0.56993 0.0
H1128 H 0.28106 0.70762 0.62165 0.0
H1129 H 0.33641 0.77672 0.62649 0.0
H1130 H 0.31822 0.77475 0.60617 0.0
H1131 H 0.33394 0.75722 0.60737 0.0
C1132 C 0.29454 0.73033 0.56334 0.0
C1133 C 0.29955 0.71211 0.55846 0.0
C1134 C 0.296 0.73778 0.58252 0.0
C1135 C 0.30252 0.72722 0.59735 0.0
C1136 C 0.30823 0.70933 0.59258 0.0
H1137 H 0.31004 0.77558 0.71736 0.0
H1138 H 0.31788 0.76197 0.68686 0.0
C1139 C 0.30694 0.70191 0.57324 0.0
C1140 C 0.30134 0.73409 0.61763 0.0
H1141 H 0.31401 0.77481 0.65019 0.0
C1142 C 0.28852 0.72218 0.62803 0.0
C1143 C 0.31114 0.75304 0.62602 0.0
C1144 C 0.32585 0.76609 0.61601 0.0
C1145 C 0.28453 0.72908 0.64617 0.0
C1146 C 0.29338 0.74852 0.65399 0.0
C1147 C 0.30696 0.76005 0.64404 0.0
C1148 C 0.28857 0.75721 0.67237 0.0
C1149 C 0.27078 0.71555 0.65676 0.0
C1150 C 0.26955 0.75952 0.67425 0.0
C1151 C 0.26498 0.76737 0.69169 0.0
C1152 C 0.27938 0.77315 0.7076 0.0
C1153 C 0.29854 0.77128 0.70547 0.0
C1154 C 0.30308 0.76347 0.68802 0.0
H1155 H 0.26951 0.69979 0.65153 0.0
H1156 H 0.27559 0.71749 0.67248 0.0
H1157 H 0.25612 0.7191 0.65433 0.0
H1158 H 0.2582 0.75518 0.66222 0.0
H1159 H 0.2501 0.76862 0.69275 0.0
H1160 H 0.54407 0.99136 0.81283 0.0
H1161 H 0.53638 0.99075 0.84579 0.0
H1162 H 0.59223 0.97746 0.86413 0.0
H1163 H 0.60015 0.97818 0.83081 0.0
H1164 H 0.53531 0.96251 0.87326 0.0
H1165 H 0.59234 0.03039 0.89568 0.0
H1166 H 0.58434 0.02201 0.87067 0.0
H1167 H 0.59965 0.00917 0.88483 0.0
C1168 C 0.55462 0.98794 0.82379 0.0
C1169 C 0.57279 0.985 0.81927 0.0
C1170 C 0.55018 0.98758 0.84263 0.0
C1171 C 0.56385 0.98442 0.85747 0.0
C1172 C 0.58159 0.98022 0.8529 0.0
H1173 H 0.54478 0.0118 0.97821 0.0
H1174 H 0.56008 0.00044 0.95086 0.0
C1175 C 0.58602 0.98044 0.83387 0.0
C1176 C 0.55964 0.98711 0.87765 0.0
H1177 H 0.5701 0.0206 0.91733 0.0
C1178 C 0.54316 0.97498 0.88307 0.0
C1179 C 0.56989 0.00339 0.89044 0.0
C1180 C 0.58749 0.01712 0.8852 0.0
C1181 C 0.5361 0.97924 0.90049 0.0
C1182 C 0.5456 0.99625 0.91266 0.0
C1183 C 0.5628 0.00765 0.90788 0.0
C1184 C 0.53681 0.00345 0.92932 0.0
C1185 C 0.51817 0.96584 0.90546 0.0
C1186 C 0.51896 0.00942 0.9262 0.0
C1187 C 0.51032 0.01604 0.94169 0.0
C1188 C 0.51937 0.01684 0.96062 0.0
C1189 C 0.53749 0.01133 0.96375 0.0
C1190 C 0.5462 0.00479 0.94818 0.0
H1191 H 0.51605 0.95081 0.89792 0.0
H1192 H 0.51899 0.96461 0.92121 0.0
H1193 H 0.50525 0.97204 0.90092 0.0
H1194 H 0.51167 0.0089 0.91173 0.0
H1195 H 0.49641 0.02029 0.93883 0.0
H1196 H 0.20648 0.37748 0.07667 0.0
H1197 H 0.1896 0.35707 0.09957 0.0
H1198 H 0.24404 0.36207 0.13558 0.0
H1199 H 0.26086 0.38191 0.11277 0.0
H1200 H 0.202 0.31969 0.10959 0.0
H1201 H 0.20379 0.37207 0.17326 0.0
H1202 H 0.20447 0.3797 0.14915 0.0
H1203 H 0.22618 0.37578 0.16283 0.0
C1204 C 0.21467 0.37462 0.08975 0.0
C1205 C 0.23494 0.38122 0.09302 0.0
C1206 C 0.20507 0.36293 0.10273 0.0
C1207 C 0.21559 0.35824 0.1193 0.0
C1208 C 0.23563 0.36576 0.12301 0.0
H1209 H 0.23866 0.27594 0.18791 0.0
H1210 H 0.22832 0.2922 0.16011 0.0
C1211 C 0.24523 0.37703 0.10995 0.0
C1212 C 0.20658 0.34373 0.13184 0.0
H1213 H 0.20442 0.33827 0.17945 0.0
C1214 C 0.20187 0.32372 0.12478 0.0
C1215 C 0.20618 0.34903 0.15155 0.0
C1216 C 0.21024 0.37034 0.15965 0.0
C1217 C 0.19875 0.3088 0.13732 0.0
C1218 C 0.20056 0.31412 0.15735 0.0
C1219 C 0.2032 0.33414 0.1641 0.0
C1220 C 0.20331 0.29986 0.17169 0.0
C1221 C 0.19461 0.28751 0.12914 0.0
C1222 C 0.19236 0.29818 0.18725 0.0
C1223 C 0.19827 0.28881 0.20323 0.0
C1224 C 0.21543 0.28133 0.20401 0.0
C1225 C 0.2254 0.28158 0.18774 0.0
C1226 C 0.2194 0.29078 0.17175 0.0
H1227 H 0.18657 0.28569 0.11442 0.0
H1228 H 0.20856 0.28269 0.12808 0.0
H1229 H 0.18605 0.27775 0.1384 0.0
H1230 H 0.17999 0.30522 0.18756 0.0
H1231 H 0.19034 0.28899 0.21558 0.0
H1232 H 0.16529 0.93132 0.98277 0.0
H1233 H 0.14215 0.95223 0.98906 0.0
H1234 H 0.15966 0.95431 0.05006 0.0
H1235 H 0.18269 0.93308 0.04391 0.0
H1236 H 0.12025 0.94706 0.0416 0.0
H1237 H 0.15264 0.01109 0.00457 0.0
H1238 H 0.14757 0.9884 0.98928 0.0
H1239 H 0.16533 0.99159 0.01024 0.0
C1240 C 0.16435 0.9363 -0.00246 0.0
C1241 C 0.17597 0.93053 0.01281 0.0
C1242 C 0.15116 0.9484 0.00111 0.0
C1243 C 0.14936 0.9552 0.02002 0.0
C1244 C 0.16085 0.94939 0.03533 0.0
H1245 H 0.0794 0.0455 0.03985 0.0
H1246 H 0.10638 0.02776 0.04189 0.0
C1247 C 0.17405 0.93725 0.03177 0.0
C1248 C 0.13495 0.96771 0.0238 0.0
H1249 H 0.12014 0.00991 0.01184 0.0
C1250 C 0.12037 0.96091 0.03525 0.0
C1251 C 0.13522 0.98599 0.01584 0.0
C1252 C 0.15115 0.99482 0.00447 0.0
C1253 C 0.10563 0.9714 0.03825 0.0
C1254 C 0.10523 0.98907 0.02932 0.0
C1255 C 0.12029 0.99631 0.01857 0.0
C1256 C 0.08873 -0.00045 0.0299 0.0
C1257 C 0.0906 0.96342 0.05096 0.0
C1258 C 0.06981 0.98965 0.02262 0.0
C1259 C 0.05446 -0.0003 0.02151 0.0
C1260 C 0.05762 0.01998 0.02755 0.0
C1261 C 0.07647 0.02986 0.03526 0.0
C1262 C 0.0919 0.01975 0.03634 0.0
H1263 H 0.09634 0.95408 0.0615 0.0
H1264 H 0.08566 0.97554 0.05895 0.0
H1265 H 0.07784 0.95407 0.04191 0.0
H1266 H 0.06699 0.97425 0.0171 0.0
H1267 H 0.04021 0.9917 0.0152 0.0
H1268 H 0.68887 0.62473 0.957 0.0
H1269 H 0.66416 0.59511 0.95827 0.0
H1270 H 0.70584 0.56937 0.99194 0.0
H1271 H 0.7309 0.59913 0.99071 0.0
H1272 H 0.66387 0.55142 0.94887 0.0
H1273 H 0.66042 0.57559 0.02572 0.0
H1274 H 0.67112 0.59269 0.00971 0.0
H1275 H 0.68357 0.57406 0.01794 0.0
C1276 C 0.69291 0.61269 0.96446 0.0
C1277 C 0.71178 0.61436 0.97396 0.0
C1278 C 0.67879 0.59573 0.96506 0.0
C1279 C 0.6832 0.58018 0.97527 0.0
C1280 C 0.70222 0.5813 0.98402 0.0
H1281 H 0.58322 0.50389 0.01232 0.0
H1282 H 0.61719 0.51396 0.00704 0.0
C1283 C 0.71648 0.59827 0.98329 0.0
C1284 C 0.66718 0.56397 0.97825 0.0
H1285 H 0.6351 0.55093 0.01026 0.0
C1286 C 0.65776 0.55092 0.9624 0.0
C1287 C 0.65942 0.56332 0.99596 0.0
C1288 C 0.66902 0.57715 0.01337 0.0
C1289 C 0.64012 0.53792 0.96353 0.0
C1290 C 0.63148 0.53847 0.98078 0.0
C1291 C 0.64166 0.55053 -0.00299 0.0
C1292 C 0.61098 0.52891 0.98173 0.0
C1293 C 0.63069 0.52413 0.94607 0.0
C1294 C 0.59614 0.53357 0.96902 0.0
C1295 C 0.57673 0.52773 0.9719 0.0
C1296 C 0.57175 0.51742 0.98779 0.0
C1297 C 0.58655 0.51193 -1e-05 0.0
C1298 C 0.60598 0.51763 -0.00302 0.0
H1299 H 0.64183 0.51969 0.93765 0.0
H1300 H 0.6213 0.51062 0.9501 0.0
H1301 H 0.62167 0.53187 0.93655 0.0
H1302 H 0.5996 0.54275 0.95749 0.0
H1303 H 0.56574 0.53231 0.96228 0.0
H1304 H 0.64134 0.42952 0.27599 0.0
H1305 H 0.66202 0.40548 0.27228 0.0
H1306 H 0.71288 0.45233 0.28272 0.0
H1307 H 0.69221 0.47664 0.28625 0.0
H1308 H 0.71356 0.42527 0.25123 0.0
H1309 H 0.6954 0.38645 0.31544 0.0
H1310 H 0.67458 0.38816 0.29909 0.0
H1311 H 0.68976 0.41027 0.3115 0.0
C1312 C 0.65693 0.43477 0.27759 0.0
C1313 C 0.6651 0.45505 0.28154 0.0
C1314 C 0.66875 0.42096 0.27554 0.0
C1315 C 0.68902 0.42704 0.2775 0.0
C1316 C 0.69727 0.44728 0.28124 0.0
H1317 H 0.77302 0.35227 0.29448 0.0
H1318 H 0.75286 0.37702 0.29674 0.0
C1319 C 0.68543 0.46116 0.28331 0.0
C1320 C 0.70154 0.41227 0.27539 0.0
H1321 H 0.71322 0.37129 0.29415 0.0
C1322 C 0.71354 0.41349 0.26064 0.0
C1323 C 0.70164 0.397 0.28778 0.0
C1324 C 0.6898 0.39544 0.30446 0.0
C1325 C 0.72544 0.39973 0.2578 0.0
C1326 C 0.72514 0.38416 0.26988 0.0
C1327 C 0.7133 0.38309 0.28476 0.0
C1328 C 0.73763 0.36932 0.26797 0.0
C1329 C 0.73854 0.40223 0.24217 0.0
C1330 C 0.73579 0.35666 0.25102 0.0
C1331 C 0.74744 0.34251 0.24967 0.0
C1332 C 0.76096 0.34068 0.26528 0.0
C1333 C 0.76279 0.35339 0.28216 0.0
C1334 C 0.75121 0.36749 0.28351 0.0
H1335 H 0.74057 0.41737 0.23739 0.0
H1336 H 0.753 0.39914 0.24714 0.0
H1337 H 0.73194 0.39163 0.22953 0.0
H1338 H 0.72522 0.35757 0.23893 0.0
H1339 H 0.74596 0.33311 0.23641 0.0
H1340 H 0.76231 0.44702 0.5067 0.0
H1341 H 0.79093 0.47278 0.50378 0.0
H1342 H 0.82657 0.44341 0.54084 0.0
H1343 H 0.79834 0.41765 0.5436 0.0
H1344 H 0.83195 0.49144 0.54409 0.0
H1345 H 0.83554 0.45019 0.47387 0.0
H1346 H 0.81276 0.45513 0.48013 0.0
H1347 H 0.82388 0.43765 0.49251 0.0
C1348 C 0.77616 0.4464 0.51463 0.0
C1349 C 0.77819 0.43028 0.52522 0.0
C1350 C 0.79244 0.46107 0.51293 0.0
C1351 C 0.81077 0.45986 0.52206 0.0
C1352 C 0.8125 0.44457 0.53374 0.0
H1353 H 0.9319 0.50168 0.5375 0.0
H1354 H 0.89734 0.49197 0.54051 0.0
C1355 C 0.79639 0.42984 0.53523 0.0
C1356 C 0.82867 0.47275 0.51768 0.0
H1357 H 0.86307 0.4737 0.48713 0.0
C1358 C 0.83865 0.48793 0.53145 0.0
C1359 C 0.83722 0.46812 0.50114 0.0
C1360 C 0.82691 0.4519 0.48597 0.0
C1361 C 0.85743 0.49813 0.52945 0.0
C1362 C 0.86663 0.49245 0.51362 0.0
C1363 C 0.85611 0.47801 0.49932 0.0
C1364 C 0.88756 0.49991 0.51232 0.0
C1365 C 0.86727 0.51469 0.54446 0.0
C1366 C 0.89366 0.50705 0.49526 0.0
C1367 C 0.91344 0.51211 0.49334 0.0
C1368 C 0.92743 0.51019 0.50848 0.0
C1369 C 0.92137 0.50336 0.52564 0.0
C1370 C 0.90162 0.49806 0.52746 0.0
H1371 H 0.85644 0.52202 0.55077 0.0
H1372 H 0.87521 0.50855 0.55633 0.0
H1373 H 0.87775 0.52598 0.53837 0.0
H1374 H 0.8831 0.50844 0.48332 0.0
H1375 H 0.91777 0.51741 0.47999 0.0
H1376 H 0.37451 0.13487 0.25367 0.0
H1377 H 0.35446 0.15996 0.25587 0.0
H1378 H 0.30686 0.1204 0.22094 0.0
H1379 H 0.32666 0.09533 0.21867 0.0
H1380 H 0.33494 0.17751 0.22497 0.0
H1381 H 0.28303 0.13678 0.26944 0.0
H1382 H 0.30641 0.13076 0.26699 0.0
H1383 H 0.28665 0.12295 0.248 0.0
C1384 C 0.35977 0.13149 0.24647 0.0
C1385 C 0.35222 0.11299 0.23607 0.0
C1386 C 0.34833 0.14588 0.24772 0.0
C1387 C 0.32904 0.142 0.23878 0.0
C1388 C 0.32157 0.12365 0.22822 0.0
H1389 H 0.23423 0.20688 0.2359 0.0
H1390 H 0.25448 0.18228 0.23111 0.0
C1391 C 0.33299 0.10934 0.22688 0.0
C1392 C 0.31672 0.1571 0.24035 0.0
H1393 H 0.2754 0.16579 0.2575 0.0
C1394 C 0.32196 0.175 0.23215 0.0
C1395 C 0.29969 0.15378 0.24958 0.0
C1396 C 0.29362 0.13511 0.25916 0.0
C1397 C 0.3105 0.1895 0.23267 0.0
C1398 C 0.29355 0.18626 0.24208 0.0
C1399 C 0.28831 0.16831 0.25023 0.0
C1400 C 0.28134 0.20147 0.24414 0.0
C1401 C 0.31646 0.20793 0.22269 0.0
C1402 C 0.28957 0.22042 0.25316 0.0
C1403 C 0.27806 0.23446 0.25578 0.0
C1404 C 0.25797 0.22986 0.24965 0.0
C1405 C 0.24967 0.21089 0.24068 0.0
C1406 C 0.26124 0.19683 0.23798 0.0
H1407 H 0.32566 0.20542 0.21126 0.0
H1408 H 0.30361 0.21318 0.21612 0.0
H1409 H 0.3251 0.2198 0.23335 0.0
H1410 H 0.30487 0.22427 0.25857 0.0
H1411 H 0.2849 0.24883 0.26299 0.0
H1412 H 0.28577 0.08735 0.47775 0.0
H1413 H 0.31109 0.06856 0.48559 0.0
H1414 H 0.34667 0.12 0.51885 0.0
H1415 H 0.32147 0.13881 0.5113 0.0
H1416 H 0.34913 0.07726 0.47682 0.0
H1417 H 0.34824 0.0769 0.55567 0.0
H1418 H 0.32872 0.08289 0.5399 0.0
H1419 H 0.35059 0.10109 0.5474 0.0
C1420 C 0.29892 0.09463 0.48685 0.0
C1421 C 0.30158 0.11458 0.49391 0.0
C1422 C 0.31336 0.08386 0.49133 0.0
C1423 C 0.3306 0.09279 0.50308 0.0
C1424 C 0.33328 0.11268 0.51015 0.0
H1425 H 0.44359 0.06894 0.53476 0.0
H1426 H 0.41327 0.08117 0.53256 0.0
C1427 C 0.3189 0.12346 0.50566 0.0
C1428 C 0.34637 0.08176 0.50695 0.0
H1429 H 0.37564 0.06766 0.5431 0.0
C1430 C 0.35477 0.07491 0.49128 0.0
C1431 C 0.35373 0.07881 0.52585 0.0
C1432 C 0.34475 0.08514 0.54317 0.0
C1433 C 0.37081 0.06584 0.49402 0.0
C1434 C 0.37839 0.06317 0.51295 0.0
C1435 C 0.36976 0.06969 0.52862 0.0
C1436 C 0.39591 0.05459 0.51668 0.0
C1437 C 0.38001 0.05993 0.47667 0.0
C1438 C 0.39599 0.03529 0.50922 0.0
C1439 C 0.41329 0.0283 0.51042 0.0
C1440 C 0.43071 0.04047 0.51924 0.0
C1441 C 0.43034 0.05927 0.52787 0.0
C1442 C 0.41305 0.06627 0.52661 0.0
H1443 H 0.37521 0.06699 0.46376 0.0
H1444 H 0.39609 0.06399 0.47956 0.0
H1445 H 0.37579 0.04368 0.47327 0.0
H1446 H 0.38282 0.02591 0.50184 0.0
H1447 H 0.41319 0.01372 0.50371 0.0
H1448 H 0.69057 0.55703 0.27971 0.0
H1449 H 0.71241 0.58855 0.27604 0.0
H1450 H 0.66835 0.62012 0.29059 0.0
H1451 H 0.64666 0.58915 0.2941 0.0
H1452 H 0.68305 0.62898 0.25558 0.0
H1453 H 0.74165 0.6348 0.31669 0.0
H1454 H 0.73519 0.61206 0.30125 0.0
H1455 H 0.7181 0.61885 0.31622 0.0
C1456 C 0.68571 0.57074 0.2824 0.0
C1457 C 0.66681 0.57055 0.28703 0.0
C1458 C 0.69819 0.58871 0.28033 0.0
C1459 C 0.69197 0.60667 0.28305 0.0
C1460 C 0.67342 0.60646 0.28835 0.0
H1461 H 0.73982 0.73052 0.29756 0.0
H1462 H 0.72758 0.69557 0.3009 0.0
C1463 C 0.66102 0.58867 0.29032 0.0
C1464 C 0.70391 0.62579 0.27922 0.0
H1465 H 0.74357 0.66139 0.29729 0.0
C1466 C 0.69643 0.63598 0.26453 0.0
C1467 C 0.72123 0.63492 0.29105 0.0
C1468 C 0.72957 0.62474 0.30729 0.0
C1469 C 0.70542 0.6553 0.26171 0.0
C1470 C 0.72264 0.66457 0.27367 0.0
C1471 C 0.73043 0.6542 0.28808 0.0
C1472 C 0.73195 0.68547 0.27215 0.0
C1473 C 0.69585 0.66592 0.24654 0.0
C1474 C 0.7389 0.69138 0.25504 0.0
C1475 C 0.74575 0.71138 0.25301 0.0
C1476 C 0.74599 0.72587 0.26815 0.0
C1477 C 0.7398 0.7198 0.28558 0.0
C1478 C 0.73285 0.6998 0.28755 0.0
H1479 H 0.68056 0.65839 0.24166 0.0
H1480 H 0.69601 0.68137 0.25203 0.0
H1481 H 0.70395 0.66634 0.23384 0.0
H1482 H 0.73867 0.68054 0.24309 0.0
H1483 H 0.75061 0.71546 0.23945 0.0
H1484 H 0.84254 0.5264 0.74118 0.0
H1485 H 0.81863 0.49569 0.7423 0.0
H1486 H 0.86454 0.46278 0.74422 0.0
H1487 H 0.88819 0.49292 0.74269 0.0
H1488 H 0.83334 0.4449 0.71881 0.0
H1489 H 0.81037 0.46525 0.78957 0.0
H1490 H 0.80765 0.48179 0.77129 0.0
H1491 H 0.83151 0.47921 0.78091 0.0
C1492 C 0.84748 0.51259 0.74177 0.0
C1493 C 0.86731 0.51218 0.74189 0.0
C1494 C 0.83383 0.49508 0.74254 0.0
C1495 C 0.83984 0.47696 0.74359 0.0
C1496 C 0.85955 0.47656 0.74343 0.0
H1497 H 0.79796 0.36631 0.78541 0.0
H1498 H 0.81177 0.40051 0.78024 0.0
C1499 C 0.87309 0.4939 0.74258 0.0
C1500 C 0.82597 0.45816 0.74489 0.0
H1501 H 0.79685 0.43333 0.77483 0.0
C1502 C 0.82516 0.44241 0.73093 0.0
C1503 C 0.81547 0.45493 0.76083 0.0
C1504 C 0.81632 0.4711 0.77662 0.0
C1505 C 0.81481 0.42334 0.73283 0.0
C1506 C 0.80447 0.42002 0.74888 0.0
C1507 C 0.8047 0.43593 0.7625 0.0
C1508 C 0.79471 0.39987 0.75257 0.0
C1509 C 0.81598 0.40676 0.71816 0.0
C1510 C 0.78018 0.38827 0.73898 0.0
C1511 C 0.77249 0.36865 0.74181 0.0
C1512 C 0.77894 0.36043 0.75844 0.0
C1513 C 0.79278 0.37229 0.77245 0.0
C1514 C 0.80063 0.39184 0.76952 0.0
H1515 H 0.82818 0.4109 0.70953 0.0
H1516 H 0.81786 0.39329 0.72523 0.0
H1517 H 0.80232 0.40308 0.70809 0.0
H1518 H 0.77504 0.39428 0.72603 0.0
H1519 H 0.76169 0.35984 0.73086 0.0
H1520 H 0.96973 0.81579 0.12652 0.0
H1521 H 0.96141 0.84336 0.10928 0.0
H1522 H 0.01584 0.85069 0.08561 0.0
H1523 H 0.02421 0.82353 0.10248 0.0
H1524 H 0.98261 0.88343 0.11113 0.0
H1525 H 0.97515 0.84572 0.03787 0.0
H1526 H 0.97437 0.8325 0.05918 0.0
H1527 H 0.99731 0.84385 0.05201 0.0
C1528 C 0.9799 0.82332 0.11766 0.0
C1529 C 0.99757 0.81733 0.11579 0.0
C1530 C 0.97511 0.839 0.1078 0.0
C1531 C 0.98783 0.84871 0.09582 0.0
C1532 C 0.00561 0.84306 0.09437 0.0
H1533 H 0.01851 0.9613 0.05796 0.0
H1534 H 0.01283 0.93092 0.07399 0.0
C1535 C 0.01041 0.82757 0.10418 0.0
C1536 C 0.98322 0.86526 0.08515 0.0
H1537 H 0.9824 0.8814 0.04027 0.0
C1538 C 0.98213 0.8829 0.0956 0.0
C1539 C 0.98226 0.86444 0.06486 0.0
C1540 C 0.98213 0.84553 0.0528 0.0
C1541 C 0.98158 0.90018 0.08639 0.0
C1542 C 0.98248 0.89979 0.06631 0.0
C1543 C 0.98204 0.88177 0.0557 0.0
C1544 C 0.98563 0.91814 0.05639 0.0
C1545 C 0.98056 0.9188 0.09833 0.0
C1546 C 0.97263 0.92071 0.04061 0.0
C1547 C 0.97598 0.93805 0.03125 0.0
C1548 C 0.99244 0.95295 0.03748 0.0
C1549 C 0.00564 0.9501 0.05293 0.0
C1550 C 0.00231 0.93284 0.06224 0.0
H1551 H 0.97353 0.91538 0.11145 0.0
H1552 H 0.99551 0.92734 0.10304 0.0
H1553 H 0.9724 0.92824 0.08996 0.0
H1554 H 0.95981 0.90942 0.03571 0.0
H1555 H 0.96558 0.93992 0.01936 0.0
H1556 H 0.94401 0.24418 0.82119 0.0
H1557 H 0.91792 0.24658 0.79631 0.0
H1558 H 0.95143 0.30133 0.78188 0.0
H1559 H 0.9779 0.29876 0.80672 0.0
H1560 H 0.91496 0.30339 0.79511 0.0
H1561 H 0.90597 0.2431 0.73698 0.0
H1562 H 0.90998 0.23503 0.76058 0.0
H1563 H 0.92876 0.25252 0.75206 0.0
C1564 C 0.94615 0.25629 0.81216 0.0
C1565 C 0.96294 0.27126 0.81581 0.0
C1566 C 0.93126 0.25762 0.79789 0.0
C1567 C 0.93277 0.27406 0.78714 0.0
C1568 C 0.95009 0.28841 0.78987 0.0
H1569 H 0.82242 0.30722 0.74441 0.0
H1570 H 0.8575 0.30851 0.74765 0.0
C1571 C 0.96522 0.28689 0.80398 0.0
C1572 C 0.91498 0.27776 0.77604 0.0
H1573 H 0.87703 0.25519 0.74269 0.0
C1574 C 0.90684 0.29323 0.78326 0.0
C1575 C 0.90444 0.26438 0.76071 0.0
C1576 C 0.91281 0.24792 0.75199 0.0
C1577 C 0.88775 0.29469 0.77672 0.0
C1578 C 0.87671 0.2806 0.76209 0.0
C1579 C 0.88543 0.26597 0.75391 0.0
C1580 C 0.85549 0.27915 0.75705 0.0
C1581 C 0.87911 0.31032 0.78668 0.0
C1582 C 0.84262 0.26184 0.76013 0.0
C1583 C 0.82262 0.26092 0.75795 0.0
C1584 C 0.815 0.27738 0.75277 0.0
C1585 C 0.82782 0.29437 0.74866 0.0
C1586 C 0.8479 0.29517 0.75061 0.0
H1587 H 0.88828 0.31734 0.80016 0.0
H1588 H 0.87777 0.32207 0.77696 0.0
H1589 H 0.86441 0.30394 0.79026 0.0
H1590 H 0.8481 0.24925 0.76505 0.0
H1591 H 0.81323 0.24756 0.76117 0.0
H1592 H 0.48164 0.20172 0.63792 0.0
H1593 H 0.48027 0.16833 0.62263 0.0
H1594 H 0.48463 0.19189 0.56766 0.0
H1595 H 0.48628 0.22507 0.58277 0.0
H1596 H 0.45745 0.14308 0.58403 0.0
H1597 H 0.53693 0.17147 0.58684 0.0
H1598 H 0.52211 0.18251 0.60201 0.0
H1599 H 0.52159 0.1872 0.57714 0.0
C1600 C 0.4815 0.1996 0.62246 0.0
C1601 C 0.48423 0.21594 0.61152 0.0
C1602 C 0.48078 0.18057 0.61377 0.0
C1603 C 0.48256 0.17776 0.59408 0.0
C1604 C 0.48331 0.1938 0.58288 0.0
H1605 H 0.48726 0.08094 0.51171 0.0
H1606 H 0.47737 0.10713 0.53112 0.0
C1607 C 0.48425 0.21273 0.59154 0.0
C1608 C 0.48691 0.15917 0.5857 0.0
H1609 H 0.52387 0.14104 0.56851 0.0
C1610 C 0.47197 0.14246 0.58079 0.0
C1611 C 0.50593 0.15841 0.58173 0.0
C1612 C 0.52265 0.17577 0.58731 0.0
C1613 C 0.47552 0.12512 0.57141 0.0
C1614 C 0.49441 0.12472 0.5666 0.0
C1615 C 0.50939 0.1413 0.57211 0.0
C1616 C 0.49913 0.10761 0.55547 0.0
C1617 C 0.45903 0.10742 0.56685 0.0
C1618 C 0.51492 0.09942 0.56244 0.0
C1619 C 0.52079 0.08474 0.55122 0.0
C1620 C 0.5109 0.07787 0.53286 0.0
C1621 C 0.49497 0.08584 0.52594 0.0
C1622 C 0.4892 0.10067 0.53709 0.0
H1623 H 0.44781 0.10775 0.57672 0.0
H1624 H 0.45197 0.10757 0.55196 0.0
H1625 H 0.46429 0.09339 0.56784 0.0
H1626 H 0.5229 0.10462 0.5765 0.0
H1627 H 0.53309 0.07879 0.55689 0.0
H1628 H 0.56423 0.77615 0.32307 0.0
H1629 H 0.59255 0.77427 0.30642 0.0
H1630 H 0.62784 0.81951 0.3477 0.0
H1631 H 0.59975 0.82101 0.36478 0.0
H1632 H 0.61536 0.8009 0.28883 0.0
H1633 H 0.66064 0.77853 0.34964 0.0
H1634 H 0.63514 0.77832 0.35002 0.0
H1635 H 0.65277 0.80109 0.35531 0.0
C1636 C 0.57802 0.7857 0.32863 0.0
C1637 C 0.57972 0.79863 0.34537 0.0
C1638 C 0.59423 0.78459 0.3191 0.0
C1639 C 0.6125 0.79641 0.32602 0.0
C1640 C 0.6141 0.80977 0.34239 0.0
H1641 H 0.72576 0.8128 0.28431 0.0
H1642 H 0.69785 0.81543 0.30145 0.0
C1643 C 0.59794 0.81074 0.35206 0.0
C1644 C 0.6297 0.79501 0.31582 0.0
H1645 H 0.67602 0.78673 0.32203 0.0
C1646 C 0.62856 0.79768 0.29609 0.0
C1647 C 0.64703 0.79087 0.32527 0.0
C1648 C 0.64897 0.78684 0.34618 0.0
C1649 C 0.64424 0.79655 0.28563 0.0
C1650 C 0.66151 0.79241 0.29507 0.0
C1651 C 0.66276 0.78988 0.31481 0.0
C1652 C 0.67843 0.79063 0.28469 0.0
C1653 C 0.64234 0.80017 0.26462 0.0
C1654 C 0.67689 0.77564 0.26972 0.0
C1655 C 0.69288 0.77401 0.26 0.0
C1656 C 0.71071 0.7873 0.26512 0.0
C1657 C 0.71223 0.80227 0.28011 0.0
C1658 C 0.69629 0.80381 0.28991 0.0
H1659 H 0.63022 0.8078 0.26074 0.0
H1660 H 0.65599 0.80919 0.26091 0.0
H1661 H 0.63937 0.7858 0.25572 0.0
H1662 H 0.66335 0.7651 0.26565 0.0
H1663 H 0.69131 0.76229 0.24856 0.0
H1664 H 0.03455 0.21183 0.45118 0.0
H1665 H 0.04107 0.18114 0.46355 0.0
H1666 H 0.98099 0.16384 0.47242 0.0
H1667 H 0.97435 0.19429 0.46035 0.0
H1668 H 0.03112 0.16808 0.50264 0.0
H1669 H 0.99521 0.11575 0.43972 0.0
H1670 H 0.00457 0.14164 0.43769 0.0
H1671 H 0.98196 0.13403 0.44712 0.0
C1672 C 0.02274 0.20144 0.45572 0.0
C1673 C 0.00394 0.20549 0.45482 0.0
C1674 C 0.02649 0.18397 0.46274 0.0
C1675 C 0.01143 0.17024 0.46863 0.0
C1676 C 0.99271 0.17421 0.46769 0.0
H1677 H 0.98247 0.06107 0.51566 0.0
H1678 H 0.98494 0.09247 0.50124 0.0
C1679 C 0.98899 0.19167 0.46089 0.0
C1680 C 0.01515 0.15205 0.47664 0.0
H1681 H 0.00186 0.10192 0.46912 0.0
C1682 C 0.02507 0.15357 0.49526 0.0
C1683 C 0.00712 0.13326 0.46689 0.0
C1684 C 0.99673 0.13096 0.44668 0.0
C1685 C 0.02618 0.13667 0.5049 0.0
C1686 C 0.0175 0.11786 0.4954 0.0
C1687 C 0.0084 0.11637 0.4764 0.0
C1688 C 0.0164 0.09957 0.50524 0.0
C1689 C 0.03566 0.13916 0.52548 0.0
C1690 C 0.03326 0.0933 0.51249 0.0
C1691 C 0.03183 0.07548 0.52096 0.0
C1692 C 0.01353 0.0636 0.52189 0.0
C1693 C 0.99672 0.07004 0.51498 0.0
C1694 C 0.99813 0.08789 0.50672 0.0
H1695 H 0.03764 0.15461 0.53198 0.0
H1696 H 0.0269 0.12921 0.53444 0.0
H1697 H 0.05019 0.13531 0.52591 0.0
H1698 H 0.04749 0.1019 0.51114 0.0
H1699 H 0.04498 0.0706 0.52599 0.0
H1700 H 0.52764 0.24645 0.17542 0.0
H1701 H 0.55975 0.25332 0.19412 0.0
H1702 H 0.57751 0.30316 0.16196 0.0
H1703 H 0.5453 0.29663 0.14337 0.0
H1704 H 0.59322 0.25235 0.17773 0.0
H1705 H 0.59797 0.32563 0.21736 0.0
H1706 H 0.57519 0.31037 0.20643 0.0
H1707 H 0.59098 0.32469 0.19189 0.0
C1708 C 0.53826 0.25906 0.1725 0.0
C1709 C 0.53395 0.27093 0.15783 0.0
C1710 C 0.55658 0.26297 0.18322 0.0
C1711 C 0.57091 0.27885 0.17954 0.0
C1712 C 0.56652 0.29108 0.1653 0.0
H1713 H 0.69538 0.31115 0.2129 0.0
H1714 H 0.66166 0.30994 0.1993 0.0
C1715 C 0.54814 0.28723 0.15459 0.0
C1716 C 0.59094 0.28131 0.18925 0.0
H1717 H 0.62731 0.31352 0.21783 0.0
C1718 C 0.60062 0.26567 0.18662 0.0
C1719 C 0.60057 0.29878 0.20067 0.0
C1720 C 0.59062 0.31578 0.20443 0.0
C1721 C 0.61978 0.26706 0.19494 0.0
C1722 C 0.62939 0.28446 0.20644 0.0
C1723 C 0.6198 0.30019 0.20902 0.0
C1724 C 0.64944 0.28643 0.21585 0.0
C1725 C 0.62972 0.25005 0.19106 0.0
C1726 C 0.65354 0.27394 0.22993 0.0
C1727 C 0.67268 0.27453 0.23761 0.0
C1728 C 0.68797 0.28771 0.23137 0.0
C1729 C 0.6838 0.30077 0.21782 0.0
C1730 C 0.66462 0.30015 0.21012 0.0
H1731 H 0.62203 0.23989 0.17846 0.0
H1732 H 0.64496 0.25548 0.18843 0.0
H1733 H 0.62996 0.24144 0.20381 0.0
H1734 H 0.64194 0.26346 0.2347 0.0
H1735 H 0.67554 0.26444 0.24817 0.0
H1736 H 0.53851 0.82444 0.96521 0.0
H1737 H 0.54662 0.85727 0.98293 0.0
H1738 H 0.48902 0.84864 2e-05 0.0
H1739 H 0.48098 0.81586 0.98291 0.0
H1740 H 0.52907 0.88682 0.97433 0.0
H1741 H 0.52071 0.87291 0.04977 0.0
H1742 H 0.52265 0.85362 0.03187 0.0
H1743 H 0.49962 0.86051 0.03394 0.0
C1744 C 0.52773 0.8294 0.97306 0.0
C1745 C 0.50909 0.81756 0.97258 0.0
C1746 C 0.53238 0.84813 0.98321 0.0
C1747 C 0.51854 0.85526 0.99309 0.0
C1748 C 0.50013 0.84324 0.99301 0.0
H1749 H 0.48738 0.96378 0.02166 0.0
H1750 H 0.4908 0.92931 0.01845 0.0
C1751 C 0.49551 0.82455 0.983 0.0
C1752 C 0.52225 0.87607 0.00136 0.0
H1753 H 0.51685 0.90533 0.0408 0.0
C1754 C 0.52686 0.8909 0.989 0.0
C1755 C 0.5193 0.88136 0.0205 0.0
C1756 C 0.51549 0.86623 0.03482 0.0
C1757 C 0.5275 0.91075 0.9949 0.0
C1758 C 0.52358 0.91589 0.0137 0.0
C1759 C 0.51975 0.90124 0.02636 0.0
C1760 C 0.52208 0.93628 0.01972 0.0
C1761 C 0.5314 0.926 0.98068 0.0
C1762 C 0.53865 0.95144 0.02235 0.0
C1763 C 0.53678 0.97113 0.02416 0.0
C1764 C 0.51828 0.97593 0.0233 0.0
C1765 C 0.50182 0.96061 0.02224 0.0
C1766 C 0.50373 0.94091 0.02045 0.0
H1767 H 0.53161 0.91919 0.96592 0.0
H1768 H 0.52019 0.93523 0.98016 0.0
H1769 H 0.54571 0.93592 0.98536 0.0
H1770 H 0.55293 0.94806 0.02195 0.0
H1771 H 0.54979 0.98255 0.02518 0.0
H1772 H 0.91866 0.73958 0.64144 0.0
H1773 H 0.89033 0.74851 0.65389 0.0
H1774 H 0.91366 0.81006 0.6493 0.0
H1775 H 0.94213 0.80121 0.63649 0.0
H1776 H 0.90403 0.79725 0.68777 0.0
H1777 H 0.84388 0.77216 0.62839 0.0
H1778 H 0.8599 0.75524 0.63243 0.0
H1779 H 0.86904 0.77891 0.62434 0.0
C1780 C 0.91763 0.75499 0.64275 0.0
C1781 C 0.93262 0.76972 0.63811 0.0
C1782 C 0.90139 0.76004 0.64973 0.0
C1783 C 0.89993 0.77989 0.65232 0.0
C1784 C 0.91455 0.79465 0.64718 0.0
H1785 H 0.81832 0.81592 0.72707 0.0
H1786 H 0.8444 0.81828 0.70651 0.0
C1787 C 0.93073 0.78957 0.63988 0.0
C1788 C 0.88419 0.785 0.6625 0.0
H1789 H 0.83489 0.77608 0.66012 0.0
C1790 C 0.88889 0.79308 0.68168 0.0
C1791 C 0.86458 0.77935 0.65442 0.0
C1792 C 0.85897 0.77107 0.6337 0.0
C1793 C 0.87434 0.79444 0.69348 0.0
C1794 C 0.85465 0.78798 0.68562 0.0
C1795 C 0.85 0.78092 0.66611 0.0
C1796 C 0.83871 0.78692 0.69773 0.0
C1797 C 0.88022 0.80156 0.7145 0.0
C1798 C 0.82664 0.76859 0.69921 0.0
C1799 C 0.81162 0.76726 0.7107 0.0
C1800 C 0.80854 0.78424 0.72092 0.0
C1801 C 0.82059 0.80259 0.71945 0.0
C1802 C 0.83549 0.80395 0.70778 0.0
H1803 H 0.89578 0.8017 0.71908 0.0
H1804 H 0.8779 0.81685 0.71704 0.0
H1805 H 0.8713 0.79209 0.72372 0.0
H1806 H 0.82892 0.75528 0.69157 0.0
H1807 H 0.80246 0.75296 0.7116 0.0
H1808 H 0.1191 0.98744 0.84011 0.0
H1809 H 0.10407 0.98006 0.86957 0.0
H1810 H 0.05154 0.99592 0.84431 0.0
H1811 H 0.06619 0.00315 0.81524 0.0
H1812 H 0.09105 0.00774 0.89264 0.0
H1813 H 0.03021 0.94525 0.86756 0.0
H1814 H 0.05067 0.95187 0.85426 0.0
H1815 H 0.03075 0.9646 0.85181 0.0
C1816 C 0.10424 0.98897 0.84078 0.0
C1817 C 0.0939 0.996 0.8254 0.0
C1818 C 0.09567 0.98475 0.85757 0.0
C1819 C 0.07655 0.98711 0.859 0.0
C1820 C 0.06611 0.99351 0.8434 0.0
H1821 H 0.01862 0.03285 0.94295 0.0
H1822 H 0.03483 0.02318 0.91599 0.0
C1823 C 0.07464 0.99788 0.82683 0.0
C1824 C 0.06798 0.98531 0.87734 0.0
H1825 H 0.02556 0.96683 0.8949 0.0
C1826 C 0.07697 -0.00159 0.89331 0.0
C1827 C 0.04967 0.97301 0.87833 0.0
C1828 C 0.03988 0.95774 0.86212 0.0
C1829 C 0.06745 0.00068 0.90961 0.0
C1830 C 0.04839 0.98974 0.90981 0.0
C1831 C 0.04003 0.97547 0.89454 0.0
C1832 C 0.0365 0.99428 0.92499 0.0
C1833 C 0.07755 0.01537 0.92619 0.0
C1834 C 0.03116 0.98079 0.93844 0.0
C1835 C 0.02176 0.98625 0.95393 0.0
C1836 C 0.01753 0.00526 0.95613 0.0
C1837 C 0.02178 0.01817 0.94185 0.0
C1838 C 0.03115 0.01271 0.92645 0.0
H1839 H 0.09356 0.0185 0.9262 0.0
H1840 H 0.0725 0.02947 0.92492 0.0
H1841 H 0.0741 0.0099 0.94018 0.0
H1842 H 0.03503 0.96642 0.93742 0.0
H1843 H 0.01876 0.97597 0.96469 0.0
H1844 H 0.72581 0.32583 0.55922 0.0
H1845 H 0.72573 0.3144 0.59132 0.0
H1846 H 0.7134 0.36959 0.61342 0.0
H1847 H 0.71331 0.38122 0.581 0.0
H1848 H 0.75399 0.34691 0.62585 0.0
H1849 H 0.67744 0.31312 0.63402 0.0
H1850 H 0.68584 0.31121 0.61069 0.0
H1851 H 0.68338 0.33477 0.62112 0.0
C1852 C 0.72257 0.33537 0.57078 0.0
C1853 C 0.71966 0.35446 0.56765 0.0
C1854 C 0.72253 0.32881 0.5891 0.0
C1855 C 0.71964 0.34119 0.60465 0.0
C1856 C 0.71556 0.35982 0.60148 0.0
H1857 H 0.72986 0.30682 0.72292 0.0
H1858 H 0.72276 0.32482 0.69501 0.0
C1859 C 0.71541 0.36639 0.58299 0.0
C1860 C 0.7233 0.33525 0.6243 0.0
H1861 H 0.70196 0.30758 0.65752 0.0
C1862 C 0.7426 0.33859 0.63297 0.0
C1863 C 0.7084 0.32444 0.63343 0.0
C1864 C 0.68753 0.32062 0.62448 0.0
C1865 C 0.74749 0.33073 0.65029 0.0
C1866 C 0.73271 0.31902 0.65896 0.0
C1867 C 0.71327 0.31646 0.65075 0.0
C1868 C 0.73732 0.30848 0.67595 0.0
C1869 C 0.76847 0.3347 0.65902 0.0
C1870 C 0.74777 0.29328 0.67441 0.0
C1871 C 0.75184 0.28299 0.6903 0.0
C1872 C 0.74558 0.2878 0.70799 0.0
C1873 C 0.73512 0.30302 0.70951 0.0
C1874 C 0.73094 0.31322 0.69359 0.0
H1875 H 0.77717 0.34775 0.65344 0.0
H1876 H 0.76974 0.3372 0.67495 0.0
H1877 H 0.77481 0.32169 0.65535 0.0
H1878 H 0.75258 0.28923 0.66083 0.0
H1879 H 0.75983 0.27125 0.68873 0.0
H1880 H 0.46304 0.06859 0.29278 0.0
H1881 H 0.47571 0.07004 0.32663 0.0
H1882 H 0.42687 0.0934 0.34265 0.0
H1883 H 0.41385 0.09174 0.30847 0.0
H1884 H 0.48584 0.09917 0.35789 0.0
H1885 H 0.42223 0.04114 0.36806 0.0
H1886 H 0.42777 0.04764 0.34455 0.0
H1887 H 0.41677 0.06344 0.35929 0.0
C1888 C 0.45512 0.07439 0.30346 0.0
C1889 C 0.43729 0.07982 0.29795 0.0
C1890 C 0.46243 0.07525 0.32283 0.0
C1891 C 0.45206 0.08144 0.3372 0.0
C1892 C 0.43494 0.08824 0.33177 0.0
H1893 H 0.46692 0.06395 0.45899 0.0
H1894 H 0.45714 0.07475 0.42784 0.0
C1895 C 0.42761 0.08747 0.31226 0.0
C1896 C 0.45849 0.07899 0.35761 0.0
H1897 H 0.44617 0.05134 0.39453 0.0
C1898 C 0.4771 0.08886 0.366 0.0
C1899 C 0.44717 0.06536 0.36809 0.0
C1900 C 0.42744 0.05363 0.35957 0.0
C1901 C 0.48468 0.08548 0.38457 0.0
C1902 C 0.47349 0.07157 0.39488 0.0
C1903 C 0.45475 0.06199 0.38662 0.0
C1904 C 0.48079 0.06654 0.41424 0.0
C1905 C 0.50452 0.09693 0.39303 0.0
C1906 C 0.4975 0.0584 0.4171 0.0
C1907 C 0.50324 0.0522 0.43506 0.0
C1908 C 0.49224 0.05383 0.45041 0.0
C1909 C 0.47573 0.06233 0.44752 0.0
C1910 C 0.47009 0.06857 0.42968 0.0
H1911 H 0.50876 0.11065 0.38586 0.0
H1912 H 0.50504 0.10095 0.4087 0.0
H1913 H 0.51541 0.08766 0.39098 0.0
H1914 H 0.50577 0.05628 0.40529 0.0
H1915 H 0.51594 0.04562 0.43674 0.0
H1916 H 0.78926 0.69184 0.04009 0.0
H1917 H 0.79509 0.71014 0.07195 0.0
H1918 H 0.74179 0.73096 0.06004 0.0
H1919 H 0.73607 0.71316 0.02804 0.0
H1920 H 0.77201 0.76014 0.07814 0.0
H1921 H 0.76533 0.69166 0.11599 0.0
H1922 H 0.78368 0.69468 0.10004 0.0
H1923 H 0.75853 0.69122 0.09042 0.0
C1924 C 0.77881 0.70037 0.04422 0.0
C1925 C 0.7621 0.70089 0.03161 0.0
C1926 C 0.78214 0.71076 0.06245 0.0
C1927 C 0.76869 0.72159 0.06844 0.0
C1928 C 0.75231 0.72262 0.05568 0.0
H1929 H 0.74033 0.77764 0.17055 0.0
H1930 H 0.74381 0.76654 0.13744 0.0
C1931 C 0.74904 0.71239 0.03743 0.0
C1932 C 0.7712 0.73135 0.08821 0.0
H1933 H 0.77237 0.72189 0.13534 0.0
C1934 C 0.7722 0.75182 0.09067 0.0
C1935 C 0.77141 0.72041 0.10449 0.0
C1936 C 0.76952 0.69826 0.10269 0.0
C1937 C 0.7732 0.76162 0.10903 0.0
C1938 C 0.77303 0.7506 0.12522 0.0
C1939 C 0.77257 0.73026 0.12283 0.0
C1940 C 0.77207 0.75952 0.14471 0.0
C1941 C 0.77435 0.78364 0.11099 0.0
C1942 C 0.78682 0.75922 0.15967 0.0
C1943 C 0.78484 0.76551 0.17854 0.0
C1944 C 0.76799 0.77197 0.1827 0.0
C1945 C 0.75347 0.77277 0.16766 0.0
C1946 C 0.7555 0.76655 0.14877 0.0
H1947 H 0.77939 0.79058 0.09814 0.0
H1948 H 0.7597 0.78659 0.11254 0.0
H1949 H 0.7843 0.79074 0.12397 0.0
H1950 H 0.79963 0.75369 0.15679 0.0
H1951 H 0.79623 0.76476 0.18993 0.0
H1952 H 0.06705 0.99164 0.7234 0.0
H1953 H 0.05534 0.97671 0.69094 0.0
H1954 H 0.10866 0.95589 0.68783 0.0
H1955 H 0.1207 0.97111 0.72069 0.0
H1956 H 0.10027 0.9774 0.65826 0.0
H1957 H 0.03478 0.92189 0.66467 0.0
H1958 H 0.03417 0.94431 0.67868 0.0
H1959 H 0.0532 0.93106 0.68489 0.0
C1960 C 0.07621 0.9836 0.71601 0.0
C1961 C 0.09488 0.98272 0.72455 0.0
C1962 C 0.06936 0.97481 0.69749 0.0
C1963 C 0.08095 0.96483 0.68707 0.0
C1964 C 0.09938 0.96328 0.69575 0.0
H1965 H 0.04696 0.96028 0.56147 0.0
H1966 H 0.06172 0.94778 0.59024 0.0
C1967 C 0.10624 0.97201 0.71447 0.0
C1968 C 0.07471 0.959 0.6663 0.0
H1969 H 0.03338 0.94028 0.63567 0.0
C1970 C 0.08596 0.96862 0.65313 0.0
C1971 C 0.05611 0.9474 0.6596 0.0
C1972 C 0.04401 0.93542 0.67274 0.0
C1973 C 0.07815 0.96894 0.63394 0.0
C1974 C 0.05871 0.95926 0.62787 0.0
C1975 C 0.04822 0.94787 0.64047 0.0
C1976 C 0.04806 0.96414 0.61019 0.0
C1977 C 0.09004 0.98121 0.6208 0.0
C1978 C 0.03517 0.977 0.61196 0.0
C1979 C 0.02694 0.98424 0.59571 0.0
C1980 C 0.03136 0.97862 0.57741 0.0
C1981 C 0.04347 0.96492 0.5755 0.0
C1982 C 0.05187 0.95779 0.59184 0.0
H1983 H 0.10477 0.9883 0.62797 0.0
H1984 H 0.0916 0.97172 0.60791 0.0
H1985 H 0.0825 0.99291 0.61581 0.0
H1986 H 0.03213 0.9821 0.62604 0.0
H1987 H 0.01756 0.99469 0.59754 0.0
H1988 H 0.709 0.38207 0.45247 0.0
H1989 H 0.70823 0.37104 0.41822 0.0
H1990 H 0.72631 0.31782 0.4342 0.0
H1991 H 0.72702 0.32861 0.46805 0.0
H1992 H 0.74139 0.36453 0.4026 0.0
H1993 H 0.68409 0.29671 0.38954 0.0
H1994 H 0.68559 0.31477 0.40977 0.0
H1995 H 0.70053 0.29651 0.41082 0.0
C1996 C 0.71215 0.36773 0.44858 0.0
C1997 C 0.71806 0.35619 0.4629 0.0
C1998 C 0.71184 0.36151 0.42905 0.0
C1999 C 0.71707 0.34352 0.42363 0.0
C2000 C 0.72187 0.33155 0.43795 0.0
H2001 H 0.77646 0.30631 0.33174 0.0
H2002 H 0.7662 0.31825 0.36185 0.0
C2003 C 0.72235 0.3378 0.45734 0.0
C2004 C 0.71982 0.33807 0.40342 0.0
H2005 H 0.70883 0.29971 0.36816 0.0
C2006 C 0.73402 0.35051 0.39492 0.0
C2007 C 0.71017 0.31982 0.39334 0.0
C2008 C 0.6941 0.30628 0.40126 0.0
C2009 C 0.73949 0.34477 0.37706 0.0
C2010 C 0.73071 0.32597 0.36759 0.0
C2011 C 0.71581 0.31397 0.3756 0.0
C2012 C 0.73689 0.31846 0.34942 0.0
C2013 C 0.75473 0.35879 0.36854 0.0
C2014 C 0.72368 0.3141 0.33258 0.0
C2015 C 0.72946 0.30721 0.31539 0.0
C2016 C 0.74856 0.30434 0.3147 0.0
C2017 C 0.76167 0.30833 0.33172 0.0
C2018 C 0.75587 0.31531 0.34892 0.0
H2019 H 0.7563 0.37424 0.37488 0.0
H2020 H 0.76895 0.3544 0.37154 0.0
H2021 H 0.75115 0.35829 0.35269 0.0
H2022 H 0.70894 0.31631 0.33267 0.0
H2023 H 0.71893 0.30428 0.30261 0.0
H2024 H 0.46147 0.07744 0.20458 0.0
H2025 H 0.47376 0.0781 0.17354 0.0
H2026 H 0.41742 0.08249 0.14603 0.0
H2027 H 0.40489 0.0817 0.17749 0.0
H2028 H 0.43163 0.05163 0.12955 0.0
H2029 H 0.48859 0.11942 0.13704 0.0
H2030 H 0.49138 0.1053 0.15723 0.0
H2031 H 0.46997 0.11558 0.15287 0.0
C2032 C 0.45182 0.07917 0.19201 0.0
C2033 C 0.43224 0.07962 0.19346 0.0
C2034 C 0.4589 0.07963 0.17424 0.0
C2035 C 0.44662 0.08056 0.15741 0.0
C2036 C 0.42721 0.08194 0.15886 0.0
H2037 H 0.47739 0.05461 0.04092 0.0
H2038 H 0.45955 0.06414 0.06689 0.0
C2039 C 0.4201 0.08167 0.17682 0.0
C2040 C 0.45376 0.07769 0.13843 0.0
H2041 H 0.49273 0.09291 0.1144 0.0
C2042 C 0.44472 0.06091 0.12597 0.0
C2043 C 0.47088 0.08977 0.13377 0.0
C2044 C 0.48063 0.10863 0.14586 0.0
C2045 C 0.45304 0.05522 0.10969 0.0
C2046 C 0.47077 0.06669 0.10571 0.0
C2047 C 0.47928 0.08398 0.11761 0.0
C2048 C 0.48124 0.06051 0.08983 0.0
C2049 C 0.44336 0.03643 0.09743 0.0
C2050 C 0.49941 0.05544 0.09408 0.0
C2051 C 0.5096 0.04991 0.07927 0.0
C2052 C 0.50185 0.04951 0.05993 0.0
C2053 C 0.48364 0.05458 0.05569 0.0
C2054 C 0.47342 0.06002 0.07051 0.0
H2055 H 0.43157 0.02753 0.10427 0.0
H2056 H 0.43698 0.04016 0.08335 0.0
H2057 H 0.45416 0.02724 0.0946 0.0
H2058 H 0.50573 0.05576 0.10889 0.0
H2059 H 0.52361 0.04615 0.08295 0.0
H2060 H 0.80695 0.68501 0.94424 0.0
H2061 H 0.82238 0.70123 0.91802 0.0
H2062 H 0.76665 0.71012 0.89308 0.0
H2063 H 0.75129 0.69423 0.91887 0.0
H2064 H 0.79347 0.69381 0.86697 0.0
H2065 H 0.82473 0.76398 0.91288 0.0
H2066 H 0.82729 0.74027 0.92082 0.0
H2067 H 0.80416 0.74733 0.91975 0.0
C2068 C 0.79802 0.69024 0.93301 0.0
C2069 C 0.77794 0.68851 0.93367 0.0
C2070 C 0.80685 0.6995 0.91813 0.0
C2071 C 0.7956 0.70687 0.90375 0.0
C2072 C 0.77553 0.70449 0.90408 0.0
H2073 H 0.76465 0.78031 0.83408 0.0
H2074 H 0.77998 0.76511 0.86016 0.0
C2075 C 0.7668 0.69547 0.91889 0.0
C2076 C 0.8042 0.71808 0.88859 0.0
H2077 H 0.81751 0.76619 0.87954 0.0
C2078 C 0.79955 0.70951 0.86957 0.0
C2079 C 0.81209 0.7385 0.89223 0.0
C2080 C 0.81746 0.7482 0.9125 0.0
C2081 C 0.80035 0.72124 0.85406 0.0
C2082 C 0.8062 0.74202 0.85783 0.0
C2083 C 0.81302 0.75027 0.87674 0.0
C2084 C 0.80083 0.75521 0.84339 0.0
C2085 C 0.79282 0.71151 0.83403 0.0
C2086 C 0.80818 0.75563 0.82562 0.0
C2087 C 0.79931 0.76424 0.81056 0.0
C2088 C 0.78301 0.77257 0.81315 0.0
C2089 C 0.77701 0.77383 0.83154 0.0
C2090 C 0.78584 0.76522 0.84651 0.0
H2091 H 0.7874 0.69533 0.83389 0.0
H2092 H 0.78081 0.71813 0.82762 0.0
H2093 H 0.80462 0.71392 0.82473 0.0
H2094 H 0.81994 0.74824 0.82304 0.0
H2095 H 0.80436 0.7631 0.79658 0.0
H2096 H 0.85429 0.14743 0.02223 0.0
H2097 H 0.88034 0.12868 0.0242 0.0
H2098 H 0.86395 0.10659 0.96458 0.0
H2099 H 0.83781 0.12508 0.96251 0.0
H2100 H 0.86918 0.07723 0.98797 0.0
H2101 H 0.93232 0.14003 0.0022 0.0
H2102 H 0.91454 0.14045 0.01858 0.0
H2103 H 0.90821 0.14311 0.99354 0.0
C2104 C 0.85626 0.13865 0.00951 0.0
C2105 C 0.84392 0.13782 0.9922 0.0
C2106 C 0.87128 0.12804 0.01062 0.0
C2107 C 0.87434 0.11644 0.99445 0.0
C2108 C 0.86197 0.11551 0.97722 0.0
H2109 H 0.97269 0.05738 0.98255 0.0
H2110 H 0.94911 0.07912 0.97838 0.0
C2111 C 0.84701 0.12612 0.97607 0.0
C2112 C 0.88985 0.10459 0.99565 0.0
H2113 H 0.93887 0.10793 0.00583 0.0
C2114 C 0.88442 0.08398 0.99178 0.0
C2115 C 0.90979 0.11337 0.00036 0.0
C2116 C 0.91665 0.13547 0.00374 0.0
C2117 C 0.89826 0.07191 0.993 0.0
C2118 C 0.91811 0.08061 -0.00155 0.0
C2119 C 0.92365 0.10125 0.00179 0.0
C2120 C 0.9331 0.06834 0.00142 0.0
C2121 C 0.89151 0.04989 0.98839 0.0
C2122 C 0.93222 0.05543 0.01598 0.0
C2123 C 0.94567 0.0432 0.01843 0.0
C2124 C 0.96039 0.04362 0.00643 0.0
C2125 C 0.9616 0.05686 0.9921 0.0
C2126 C 0.94811 0.06921 0.98968 0.0
H2127 H 0.87696 0.04611 0.97975 0.0
H2128 H 0.90195 0.04362 0.98035 0.0
H2129 H 0.8905 0.04274 0.00201 0.0
H2130 H 0.92101 0.05474 0.02543 0.0
H2131 H 0.94446 0.03329 0.02973 0.0
H2132 H 0.32748 0.44177 0.07614 0.0
H2133 H 0.35714 0.4641 0.0709 0.0
H2134 H 0.32499 0.48949 0.02688 0.0
H2135 H 0.295 0.46688 0.03203 0.0
H2136 H 0.35478 0.4742 0.01403 0.0
H2137 H 0.38272 0.52197 0.08129 0.0
H2138 H 0.3758 0.49662 0.08597 0.0
H2139 H 0.35763 0.50929 0.07597 0.0
C2140 C 0.32658 0.45254 0.06577 0.0
C2141 C 0.30895 0.45251 0.05441 0.0
C2142 C 0.34356 0.46543 0.06289 0.0
C2143 C 0.3433 0.4786 0.04861 0.0
C2144 C 0.32548 0.47954 0.03809 0.0
H2145 H 0.44931 0.52653 -0.00239 0.0
H2146 H 0.41602 0.52246 0.00553 0.0
C2147 C 0.30835 0.4667 0.0411 0.0
C2148 C 0.36198 0.48868 0.04276 0.0
H2149 H 0.407 0.5149 0.06123 0.0
C2150 C 0.36606 0.48356 0.02416 0.0
C2151 C 0.37672 0.50078 0.05604 0.0
C2152 C 0.37292 0.50764 0.07587 0.0
C2153 C 0.38484 0.48899 0.01893 0.0
C2154 C 0.39984 0.50015 0.03259 0.0
C2155 C 0.39551 0.50623 0.05083 0.0
C2156 C 0.42036 0.50417 0.02872 0.0
C2157 C 0.38873 0.48165 -0.00074 0.0
C2158 C 0.434 0.49575 0.03953 0.0
C2159 C 0.45306 0.4981 0.03512 0.0
C2160 C 0.45887 0.50897 0.0198 0.0
C2161 C 0.4453 0.5179 0.00937 0.0
C2162 C 0.42624 0.51557 0.01385 0.0
H2163 H 0.37645 0.47018 0.99185 0.0
H2164 H 0.391 0.4942 0.99019 0.0
H2165 H 0.40208 0.4754 0.00035 0.0
H2166 H 0.42974 0.48689 0.05108 0.0
H2167 H 0.4631 0.49105 0.04348 0.0
H2168 H 0.33281 0.59564 0.74216 0.0
H2169 H 0.31536 0.62255 0.74666 0.0
H2170 H 0.36971 0.66477 0.75544 0.0
H2171 H 0.38724 0.63806 0.75073 0.0
H2172 H 0.31845 0.65029 0.77842 0.0
H2173 H 0.33801 0.68741 0.71357 0.0
H2174 H 0.34131 0.66267 0.71712 0.0
H2175 H 0.35837 0.68362 0.72943 0.0
C2176 C 0.34106 0.61065 0.74499 0.0
C2177 C 0.36144 0.61467 0.74596 0.0
C2178 C 0.33106 0.62602 0.74759 0.0
C2179 C 0.34119 0.64572 0.75109 0.0
C2180 C 0.36154 0.64974 0.75235 0.0
H2181 H 0.30199 0.75758 0.76612 0.0
H2182 H 0.32186 0.73226 0.76536 0.0
C2183 C 0.37155 0.63441 0.74975 0.0
C2184 C 0.33048 0.66199 0.75371 0.0
H2185 H 0.32134 0.70392 0.73485 0.0
C2186 C 0.31906 0.662 0.76888 0.0
C2187 C 0.33136 0.67734 0.74132 0.0
C2188 C 0.34277 0.67775 0.72433 0.0
C2189 C 0.30858 0.67697 0.77205 0.0
C2190 C 0.30927 0.69217 0.75952 0.0
C2191 C 0.32088 0.6923 0.74449 0.0
C2192 C 0.29737 0.70756 0.76118 0.0
C2193 C 0.29706 0.67649 0.78895 0.0
C2194 C 0.27702 0.70214 0.75904 0.0
C2195 C 0.2657 0.71656 0.75955 0.0
C2196 C 0.27448 0.73671 0.76215 0.0
C2197 C 0.29484 0.74218 0.76442 0.0
C2198 C 0.30619 0.72772 0.76386 0.0
H2199 H 0.30245 0.66759 0.80013 0.0
H2200 H 0.29767 0.69163 0.79563 0.0
H2201 H 0.28165 0.66965 0.78392 0.0
H2202 H 0.26986 0.68673 0.75651 0.0
H2203 H 0.25003 0.71192 0.75757 0.0
H2204 H 0.21955 0.64923 0.47884 0.0
H2205 H 0.19086 0.62395 0.48136 0.0
H2206 H 0.2254 0.59386 0.5188 0.0
H2207 H 0.25449 0.61916 0.51615 0.0
H2208 H 0.1852 0.57632 0.47715 0.0
H2209 H 0.17996 0.61528 0.54805 0.0
H2210 H 0.19221 0.6284 0.53006 0.0
H2211 H 0.20296 0.61054 0.54221 0.0
C2212 C 0.22116 0.63702 0.4873 0.0
C2213 C 0.23922 0.63623 0.49741 0.0
C2214 C 0.20477 0.62257 0.48867 0.0
C2215 C 0.20606 0.60717 0.50032 0.0
C2216 C 0.22421 0.60568 0.5097 0.0
H2217 H 0.09838 0.54528 0.53875 0.0
H2218 H 0.13315 0.55583 0.53633 0.0
C2219 C 0.24077 0.62007 0.50813 0.0
C2220 C 0.18792 0.59413 0.50402 0.0
H2221 H 0.15283 0.59163 0.53398 0.0
C2222 C 0.17823 0.57933 0.48974 0.0
C2223 C 0.17898 0.5981 0.52049 0.0
C2224 C 0.18894 0.61393 0.53617 0.0
C2225 C 0.15941 0.56883 0.49119 0.0
C2226 C 0.14987 0.57378 0.50703 0.0
C2227 C 0.16005 0.58789 0.52179 0.0
C2228 C 0.12893 0.5658 0.50789 0.0
C2229 C 0.14991 0.55271 0.47561 0.0
C2230 C 0.11497 0.568 0.49281 0.0
C2231 C 0.09519 0.56186 0.49412 0.0
C2232 C 0.08895 0.55374 0.5107 0.0
C2233 C 0.10284 0.55152 0.52582 0.0
C2234 C 0.12268 0.5575 0.52442 0.0
H2235 H 0.16093 0.5459 0.46905 0.0
H2236 H 0.13954 0.54095 0.48125 0.0
H2237 H 0.14189 0.55916 0.46403 0.0
H2238 H 0.11935 0.57494 0.48018 0.0
H2239 H 0.08476 0.56381 0.48228 0.0
H2240 H 0.64573 0.94069 0.8104 0.0
H2241 H 0.66491 0.91503 0.80768 0.0
H2242 H 0.65676 0.91445 0.74587 0.0
H2243 H 0.63767 0.94022 0.74842 0.0
H2244 H 0.65467 0.87645 0.78802 0.0
H2245 H 0.71609 0.92319 0.75913 0.0
H2246 H 0.698 0.93342 0.77037 0.0
H2247 H 0.6927 0.92241 0.74594 0.0
C2248 C 0.64803 0.93516 0.7962 0.0
C2249 C 0.64024 0.94266 0.77962 0.0
C2250 C 0.65897 0.92043 0.79469 0.0
C2251 C 0.66249 0.91298 0.7766 0.0
C2252 C 0.65451 0.9202 0.76 0.0
H2253 H 0.72798 0.82988 0.73397 0.0
H2254 H 0.70716 0.85367 0.73855 0.0
C2255 C 0.64353 0.9349 0.76149 0.0
C2256 C 0.67458 0.89772 0.77508 0.0
H2257 H 0.71641 0.88911 0.75921 0.0
C2258 C 0.66822 0.87921 0.7818 0.0
C2259 C 0.69229 0.90137 0.76704 0.0
C2260 C 0.70032 0.92122 0.76035 0.0
C2261 C 0.67882 0.86407 0.78017 0.0
C2262 C 0.69645 0.86768 0.77194 0.0
C2263 C 0.70288 0.88629 0.76546 0.0
C2264 C 0.70828 0.85231 0.76936 0.0
C2265 C 0.67071 0.84417 0.78672 0.0
C2266 C 0.71592 0.84354 0.78515 0.0
C2267 C 0.72781 0.8298 0.78252 0.0
C2268 C 0.73238 0.82476 0.76409 0.0
C2269 C 0.72474 0.83354 0.74835 0.0
C2270 C 0.71281 0.84712 0.75095 0.0
H2271 H 0.65492 0.84221 0.78784 0.0
H2272 H 0.67309 0.832 0.77671 0.0
H2273 H 0.6782 0.8429 0.80117 0.0
H2274 H 0.71307 0.84765 0.79957 0.0
H2275 H 0.73384 0.82354 0.79493 0.0
H2276 H 0.68958 0.93338 0.54105 0.0
H2277 H 0.66525 0.95337 0.5338 0.0
H2278 H 0.6806 0.95703 0.47617 0.0
H2279 H 0.70519 0.93727 0.48334 0.0
H2280 H 0.67505 0.993 0.49317 0.0
H2281 H 0.61357 0.93163 0.4999 0.0
H2282 H 0.63139 0.93702 0.5208 0.0
H2283 H 0.63789 0.92784 0.49833 0.0
C2284 C 0.68788 0.93852 0.52686 0.0
C2285 C 0.69923 0.93357 0.51273 0.0
C2286 C 0.67389 0.94986 0.52271 0.0
C2287 C 0.67086 0.95636 0.50433 0.0
C2288 C 0.68262 0.95206 0.4904 0.0
H2289 H 0.56434 0.99562 0.46646 0.0
H2290 H 0.59247 0.97983 0.46691 0.0
C2291 C 0.69666 0.94074 0.49454 0.0
C2292 C 0.65514 0.96725 0.49954 0.0
H2293 H 0.60615 0.96347 0.49776 0.0
C2294 C 0.65996 0.98653 0.49405 0.0
C2295 C 0.63542 0.95864 0.50032 0.0
C2296 C 0.62918 0.93758 0.50496 0.0
C2297 C 0.64564 0.99766 0.48994 0.0
C2298 C 0.62603 0.98937 0.49164 0.0
C2299 C 0.62118 0.96988 0.49656 0.0
C2300 C 0.61031 0.00074 0.48918 0.0
C2301 C 0.65162 0.01812 0.48369 0.0
C2302 C 0.61113 0.01801 0.50122 0.0
C2303 C 0.59513 0.02712 0.50087 0.0
C2304 C 0.57797 0.01902 0.48861 0.0
C2305 C 0.57744 0.00226 0.47595 0.0
C2306 C 0.59347 0.99319 0.47626 0.0
H2307 H 0.66549 0.01982 0.4773 0.0
H2308 H 0.64028 0.0216 0.47303 0.0
H2309 H 0.65386 0.02909 0.49644 0.0
H2310 H 0.62376 0.02387 0.51161 0.0
H2311 H 0.59585 0.03991 0.51091 0.0
H2312 H 0.34511 0.48003 0.70772 0.0
H2313 H 0.32184 0.45086 0.71371 0.0
H2314 H 0.30631 0.48344 0.76219 0.0
H2315 H 0.32961 0.51301 0.75603 0.0
H2316 H 0.32059 0.44833 0.77028 0.0
H2317 H 0.26211 0.43291 0.70889 0.0
H2318 H 0.28598 0.439 0.70166 0.0
H2319 H 0.27704 0.45722 0.71567 0.0
C2320 C 0.33626 0.48119 0.71926 0.0
C2321 C 0.3391 0.49875 0.73139 0.0
C2322 C 0.3229 0.46452 0.72263 0.0
C2323 C 0.31223 0.46501 0.7383 0.0
C2324 C 0.31428 0.48284 0.74989 0.0
H2325 H 0.26325 0.35409 0.78628 0.0
H2326 H 0.27096 0.38942 0.78209 0.0
C2327 C 0.32748 0.49971 0.74631 0.0
C2328 C 0.30139 0.44616 0.74393 0.0
H2329 H 0.26764 0.40502 0.72581 0.0
C2330 C 0.30867 0.43899 0.76084 0.0
C2331 C 0.28599 0.434 0.73149 0.0
C2332 C 0.27719 0.44123 0.71349 0.0
C2333 C 0.3019 0.41948 0.76496 0.0
C2334 C 0.28707 0.40697 0.75204 0.0
C2335 C 0.27905 0.41455 0.73567 0.0
C2336 C 0.28098 0.38557 0.75427 0.0
C2337 C 0.31161 0.41208 0.78243 0.0
C2338 C 0.28336 0.37159 0.73975 0.0
C2339 C 0.27875 0.35141 0.74198 0.0
C2340 C 0.27171 0.34474 0.75886 0.0
C2341 C 0.26888 0.35873 0.77322 0.0
C2342 C 0.27335 0.37895 0.77088 0.0
H2343 H 0.32551 0.42217 0.7884 0.0
H2344 H 0.30185 0.41098 0.79383 0.0
H2345 H 0.3146 0.39719 0.77888 0.0
H2346 H 0.2892 0.37633 0.7268 0.0
H2347 H 0.28108 0.34108 0.7306 0.0
H2348 H 0.139 0.5672 0.24045 0.0
H2349 H 0.16662 0.59492 0.24298 0.0
H2350 H 0.19731 0.5682 0.28696 0.0
H2351 H 0.16965 0.53993 0.28421 0.0
H2352 H 0.18375 0.61315 0.29082 0.0
H2353 H 0.23096 0.59606 0.23617 0.0
H2354 H 0.20503 0.58776 0.23049 0.0
H2355 H 0.21786 0.5772 0.24917 0.0
C2356 C 0.1518 0.56698 0.25036 0.0
C2357 C 0.15218 0.55151 0.26222 0.0
C2358 C 0.16756 0.58277 0.25173 0.0
C2359 C 0.18392 0.58351 0.26511 0.0
C2360 C 0.18481 0.56771 0.27643 0.0
H2361 H 0.25277 0.7042 0.29566 0.0
H2362 H 0.242 0.66876 0.29844 0.0
C2363 C 0.16907 0.55163 0.27483 0.0
C2364 C 0.1986 0.60207 0.26866 0.0
H2365 H 0.23523 0.62963 0.24846 0.0
C2366 C 0.19539 0.61673 0.28197 0.0
C2367 C 0.21346 0.60655 0.25686 0.0
C2368 C 0.21722 0.5911 0.24237 0.0
C2369 C 0.20581 0.63625 0.28288 0.0
C2370 C 0.22026 0.64103 0.2705 0.0
C2371 C 0.22422 0.62598 0.25798 0.0
C2372 C 0.22956 0.66183 0.26859 0.0
C2373 C 0.20013 0.65178 0.29603 0.0
C2374 C 0.2272 0.66951 0.25068 0.0
C2375 C 0.23374 0.68958 0.24899 0.0
C2376 C 0.24257 0.70239 0.26523 0.0
C2377 C 0.24578 0.69462 0.28298 0.0
C2378 C 0.23953 0.67443 0.2846 0.0
H2379 H 0.18597 0.64634 0.3013 0.0
H2380 H 0.2113 0.656 0.30876 0.0
H2381 H 0.19911 0.66521 0.28856 0.0
H2382 H 0.2196 0.6601 0.23811 0.0
H2383 H 0.23116 0.6952 0.23512 0.0
H2384 H 0.50509 0.73712 0.42409 0.0
H2385 H 0.51523 0.71 0.43961 0.0
H2386 H 0.55778 0.7079 0.40033 0.0
H2387 H 0.54747 0.73533 0.38432 0.0
H2388 H 0.53468 0.67119 0.40353 0.0
H2389 H 0.56334 0.70792 0.47594 0.0
H2390 H 0.5399 0.71296 0.4684 0.0
H2391 H 0.55995 0.72159 0.45526 0.0
C2392 C 0.51675 0.73111 0.41877 0.0
C2393 C 0.52544 0.7384 0.40289 0.0
C2394 C 0.52267 0.71568 0.42784 0.0
C2395 C 0.53751 0.70717 0.42139 0.0
C2396 C 0.54644 0.71445 0.40566 0.0
H2397 H 0.55955 0.61156 0.49176 0.0
H2398 H 0.56658 0.64097 0.47407 0.0
C2399 C 0.54055 0.73009 0.39655 0.0
C2400 C 0.54219 0.68963 0.43032 0.0
H2401 H 0.55001 0.67259 0.47435 0.0
C2402 C 0.53851 0.67153 0.41896 0.0
C2403 C 0.54756 0.6901 0.45039 0.0
C2404 C 0.55312 0.70925 0.46315 0.0
C2405 C 0.53846 0.65372 0.42736 0.0
C2406 C 0.54175 0.65404 0.44765 0.0
C2407 C 0.54708 0.67228 0.45883 0.0
C2408 C 0.53806 0.63574 0.45765 0.0
C2409 C 0.53434 0.63469 0.41443 0.0
C2410 C 0.51962 0.62323 0.45453 0.0
C2411 C 0.51562 0.60649 0.46455 0.0
C2412 C 0.5299 0.60208 0.47808 0.0
C2413 C 0.5483 0.61466 0.48138 0.0
C2414 C 0.55233 0.6314 0.47126 0.0
H2415 H 0.53912 0.63722 0.40007 0.0
H2416 H 0.54172 0.62348 0.42082 0.0
H2417 H 0.51846 0.62869 0.41221 0.0
H2418 H 0.50818 0.62659 0.44456 0.0
H2419 H 0.50128 0.5971 0.46183 0.0
H2420 H 0.53513 0.27991 0.70777 0.0
H2421 H 0.56341 0.28388 0.73263 0.0
H2422 H 0.59919 0.27278 0.68879 0.0
H2423 H 0.57157 0.26899 0.66421 0.0
H2424 H 0.58982 0.25739 0.74199 0.0
H2425 H 0.6275 0.32666 0.71675 0.0
H2426 H 0.6018 0.31702 0.71034 0.0
H2427 H 0.6192 0.30768 0.6973 0.0
C2428 C 0.54904 0.27827 0.7035 0.0
C2429 C 0.55111 0.27439 0.68396 0.0
C2430 C 0.56514 0.28054 0.71769 0.0
C2431 C 0.58346 0.27904 0.71246 0.0
C2432 C 0.5853 0.27446 0.69309 0.0
H2433 H 0.68734 0.24824 0.75313 0.0
H2434 H 0.65331 0.24978 0.74601 0.0
C2435 C 0.5694 0.27225 0.67904 0.0
C2436 C 0.60103 0.28225 0.72682 0.0
H2437 H 0.64794 0.30763 0.73366 0.0
C2438 C 0.60244 0.26865 0.74056 0.0
C2439 C 0.61736 0.29722 0.72527 0.0
C2440 C 0.61635 0.3131 0.71175 0.0
C2441 C 0.62025 0.26868 0.75167 0.0
C2442 C 0.6371 0.28235 0.74857 0.0
C2443 C 0.6352 0.29694 0.73597 0.0
C2444 C 0.65708 0.28063 0.75638 0.0
C2445 C 0.62083 0.25381 0.76631 0.0
C2446 C 0.67077 0.29743 0.76465 0.0
C2447 C 0.69046 0.2967 0.76833 0.0
C2448 C 0.69685 0.27912 0.76393 0.0
C2449 C 0.68296 0.26201 0.75684 0.0
C2450 C 0.66335 0.26282 0.7529 0.0
H2451 H 0.60688 0.2506 0.77252 0.0
H2452 H 0.62292 0.23974 0.75913 0.0
H2453 H 0.63281 0.25905 0.7782 0.0
H2454 H 0.66636 0.31136 0.76743 0.0
H2455 H 0.70075 0.31013 0.77387 0.0
H2456 H 0.97806 0.33634 0.89495 0.0
H2457 H 0.98288 0.36963 0.9106 0.0
H2458 H 0.04462 0.37728 0.90909 0.0
H2459 H 0.03991 0.34361 0.89302 0.0
H2460 H 0.02926 0.38665 0.94742 0.0
H2461 H 0.00109 0.42356 0.88596 0.0
H2462 H 0.98674 0.39973 0.88878 0.0
H2463 H 0.01106 0.40159 0.88284 0.0
C2464 C 0.99271 0.34505 0.89782 0.0
C2465 C 0.00863 0.33729 0.89278 0.0
C2466 C 0.9954 0.36413 0.90668 0.0
C2467 C 0.01405 0.37591 0.91083 0.0
C2468 C 0.03009 0.36838 0.90585 0.0
H2469 H 0.0156 0.49631 0.96063 0.0
H2470 H 0.02579 0.46929 0.94253 0.0
C2471 C 0.02738 0.34921 0.89668 0.0
C2472 C 0.01634 0.39568 0.92119 0.0
H2473 H 0.00058 0.43892 0.91755 0.0
C2474 C 0.02345 0.39832 0.94084 0.0
C2475 C 0.00883 0.41086 0.91251 0.0
C2476 C 0.00164 0.40894 0.89131 0.0
C2477 C 0.02199 0.41525 0.95232 0.0
C2478 C 0.01304 0.42971 0.94392 0.0
C2479 C 0.00724 0.42771 0.924 0.0
C2480 C 0.00806 0.44611 0.95572 0.0
C2481 C 0.02947 0.41727 0.97346 0.0
C2482 C 0.99454 0.442 0.9689 0.0
C2483 C 0.98877 0.45738 0.97921 0.0
C2484 C 0.99657 0.47705 0.97659 0.0
C2485 C 0.00993 0.48121 0.9633 0.0
C2486 C 0.01562 0.46583 0.95289 0.0
H2487 H 0.04063 0.40824 0.9765 0.0
H2488 H 0.03584 0.43293 0.97867 0.0
H2489 H 0.01725 0.41204 0.98172 0.0
H2490 H 0.98816 0.42687 0.97093 0.0
H2491 H 0.97824 0.45392 0.98923 0.0
H2492 H 0.93446 0.75018 0.17279 0.0
H2493 H 0.90484 0.75113 0.18775 0.0
H2494 H 0.93244 0.80697 0.21906 0.0
H2495 H 0.96186 0.80632 0.20401 0.0
H2496 H 0.89822 0.75291 0.22592 0.0
H2497 H 0.88268 0.81957 0.19329 0.0
H2498 H 0.90022 0.80621 0.18509 0.0
H2499 H 0.90658 0.82343 0.20627 0.0
C2500 C 0.93423 0.76266 0.18287 0.0
C2501 C 0.95053 0.77825 0.18706 0.0
C2502 C 0.91727 0.76318 0.19141 0.0
C2503 C 0.91623 0.77932 0.20424 0.0
C2504 C 0.93267 0.79461 0.20884 0.0
H2505 H 0.83196 0.81347 0.274 0.0
H2506 H 0.8608 0.81033 0.25844 0.0
C2507 C 0.94957 0.79414 0.20028 0.0
C2508 C 0.89808 0.78017 0.213 0.0
H2509 H 0.86437 0.80876 0.2185 0.0
C2510 C 0.89073 0.76504 0.22418 0.0
C2511 C 0.88825 0.79598 0.2107 0.0
C2512 C 0.8947 0.81212 0.19803 0.0
C2513 C 0.8742 0.76559 0.23355 0.0
C2514 C 0.86459 0.78158 0.23151 0.0
C2515 C 0.8718 0.79658 0.22016 0.0
C2516 C 0.84712 0.78315 0.24114 0.0
C2517 C 0.86746 0.74935 0.246 0.0
C2518 C 0.82979 0.76899 0.23652 0.0
C2519 C 0.81332 0.77077 0.24541 0.0
C2520 C 0.81382 0.78682 0.25896 0.0
C2521 C 0.83117 0.80094 0.26362 0.0
C2522 C 0.84763 0.79919 0.2547 0.0
H2523 H 0.87887 0.74078 0.24969 0.0
H2524 H 0.86315 0.75547 0.25954 0.0
H2525 H 0.85459 0.739 0.23812 0.0
H2526 H 0.82894 0.75665 0.22591 0.0
H2527 H 0.80022 0.75952 0.24173 0.0
H2528 H 0.45072 0.30923 0.05981 0.0
H2529 H 0.45318 0.33835 0.04171 0.0
H2530 H 0.51123 0.36073 0.0702 0.0
H2531 H 0.50899 0.33165 0.08833 0.0
H2532 H 0.46113 0.37897 0.05751 0.0
H2533 H 0.5164 0.36219 0.01189 0.0
H2534 H 0.50227 0.34369 0.02443 0.0
H2535 H 0.52265 0.36103 0.03723 0.0
C2536 C 0.46405 0.3203 0.06218 0.0
C2537 C 0.4797 0.31812 0.07545 0.0
C2538 C 0.4654 0.33691 0.05184 0.0
C2539 C 0.48246 0.35148 0.05448 0.0
C2540 C 0.49807 0.34943 0.06777 0.0
H2541 H 0.5257 0.46403 0.01649 0.0
H2542 H 0.5198 0.43253 0.03066 0.0
C2543 C 0.49672 0.33287 0.07817 0.0
C2544 C 0.48379 0.36915 0.04374 0.0
H2545 H 0.50953 0.39442 0.01172 0.0
C2546 C 0.47155 0.38231 0.04734 0.0
C2547 C 0.49739 0.37332 0.0305 0.0
C2548 C 0.51033 0.35925 0.02561 0.0
C2549 C 0.4731 0.40003 0.03855 0.0
C2550 C 0.48699 0.40439 0.0256 0.0
C2551 C 0.4989 0.39098 0.02167 0.0
C2552 C 0.49023 0.42331 0.01682 0.0
C2553 C 0.46043 0.41427 0.04377 0.0
C2554 C 0.47558 0.42842 0.0042 0.0
C2555 C 0.47888 0.44653 0.99622 0.0
C2556 C 0.49687 0.45963 0.00073 0.0
C2557 C 0.5116 0.45429 0.01304 0.0
C2558 C 0.5083 0.43628 0.02104 0.0
H2559 H 0.4535 0.4106 0.05688 0.0
H2560 H 0.46901 0.42964 0.0462 0.0
H2561 H 0.44875 0.41368 0.03172 0.0
H2562 H 0.46166 0.41841 0.00052 0.0
H2563 H 0.46736 0.45033 0.98666 0.0
H2564 H 0.93842 0.23555 0.38301 0.0
H2565 H 0.92005 0.241 0.35321 0.0
H2566 H 0.97035 0.28069 0.33878 0.0
H2567 H 0.98902 0.27518 0.36879 0.0
H2568 H 0.93756 0.29729 0.34062 0.0
H2569 H 0.91775 0.22639 0.29543 0.0
H2570 H 0.91436 0.2229 0.32001 0.0
H2571 H 0.93839 0.23202 0.31394 0.0
C2572 C 0.94574 0.24506 0.37329 0.0
C2573 C 0.96508 0.25508 0.37828 0.0
C2574 C 0.93528 0.248 0.35614 0.0
C2575 C 0.94392 0.26105 0.34367 0.0
C2576 C 0.96353 0.27037 0.34812 0.0
H2577 H 0.85701 0.30883 0.27084 0.0
H2578 H 0.88969 0.30302 0.28081 0.0
C2579 C 0.97414 0.26722 0.36525 0.0
C2580 C 0.93132 0.26719 0.32802 0.0
H2581 H 0.89358 0.24742 0.29348 0.0
C2582 C 0.92835 0.28663 0.32979 0.0
C2583 C 0.91945 0.25325 0.31389 0.0
C2584 C 0.9228 0.23253 0.31058 0.0
C2585 C 0.91237 0.29189 0.31933 0.0
C2586 C 0.89934 0.27734 0.30661 0.0
C2587 C 0.9035 0.25848 0.30341 0.0
C2588 C 0.87986 0.28031 0.29924 0.0
C2589 C 0.90855 0.31238 0.32328 0.0
C2590 C 0.8636 0.26922 0.30605 0.0
C2591 C 0.84508 0.27247 0.3004 0.0
C2592 C 0.8425 0.28687 0.28784 0.0
C2593 C 0.85871 0.29778 0.28072 0.0
C2594 C 0.87732 0.29448 0.28637 0.0
H2595 H 0.91903 0.32122 0.33512 0.0
H2596 H 0.90971 0.32029 0.31011 0.0
H2597 H 0.89362 0.31154 0.32716 0.0
H2598 H 0.86528 0.25826 0.31605 0.0
H2599 H 0.83279 0.26376 0.30597 0.0
H2600 H 0.98924 0.74319 0.55698 0.0
H2601 H 0.99021 0.72059 0.52865 0.0
H2602 H 0.98519 0.67183 0.56406 0.0
H2603 H 0.98397 0.6939 0.59204 0.0
H2604 H 0.01632 0.69566 0.52228 0.0
H2605 H 0.94222 0.65187 0.51962 0.0
H2606 H 0.9498 0.67609 0.53258 0.0
H2607 H 0.95422 0.65445 0.54376 0.0
C2608 C 0.98824 0.72762 0.55865 0.0
C2609 C 0.98636 0.72031 0.57673 0.0
C2610 C 0.98878 0.71477 0.54248 0.0
C2611 C 0.98729 0.69451 0.54422 0.0
C2612 C 0.9858 0.68734 0.5623 0.0
H2613 H 0.03292 0.60153 0.51582 0.0
H2614 H 0.02793 0.63524 0.51843 0.0
C2615 C 0.98523 0.70004 0.57834 0.0
C2616 C 0.98806 0.68047 0.52764 0.0
H2617 H 0.96652 0.63364 0.50982 0.0
C2618 C 0.00522 0.68229 0.51899 0.0
C2619 C 0.97328 0.66343 0.52272 0.0
C2620 C 0.95376 0.66147 0.53002 0.0
C2621 C 0.00892 0.6664 0.50746 0.0
C2622 C 0.99539 0.64816 0.50519 0.0
C2623 C 0.97723 0.64736 0.51182 0.0
C2624 C 0.00077 0.62911 0.49937 0.0
C2625 C 0.0276 0.66913 0.49855 0.0
C2626 C 0.98733 0.61421 0.48766 0.0
C2627 C 0.98981 0.59468 0.48683 0.0
C2628 C 0.00602 0.58982 0.49728 0.0
C2629 C 0.02037 0.60493 0.50748 0.0
C2630 C 0.01762 0.62434 0.50878 0.0
H2631 H 0.03103 0.6841 0.49346 0.0
H2632 H 0.03971 0.66802 0.50961 0.0
H2633 H 0.0269 0.65795 0.48624 0.0
H2634 H 0.97423 0.61745 0.48024 0.0
H2635 H 0.97861 0.58325 0.47875 0.0
H2636 H 0.56834 0.75992 0.91159 0.0
H2637 H 0.59526 0.75879 0.89266 0.0
H2638 H 0.58028 0.80603 0.86112 0.0
H2639 H 0.55323 0.80717 0.87982 0.0
H2640 H 0.58572 0.77366 0.83761 0.0
H2641 H 0.64719 0.79843 0.8958 0.0
H2642 H 0.62908 0.7781 0.90097 0.0
H2643 H 0.62287 0.80179 0.89829 0.0
C2644 C 0.57088 0.77021 0.90075 0.0
C2645 C 0.55865 0.78367 0.89725 0.0
C2646 C 0.58632 0.76958 0.89 0.0
C2647 C 0.58987 0.78246 0.87562 0.0
C2648 C 0.57781 0.79601 0.87219 0.0
H2649 H 0.69219 0.80531 0.81641 0.0
H2650 H 0.66539 0.80749 0.83525 0.0
C2651 C 0.56239 0.79667 0.88294 0.0
C2652 C 0.60571 0.78132 0.86365 0.0
H2653 H 0.65486 0.78622 0.86577 0.0
C2654 C 0.60086 0.77645 0.84374 0.0
C2655 C 0.62543 0.78517 0.87167 0.0
C2656 C 0.63155 0.79134 0.89283 0.0
C2657 C 0.6152 0.77508 0.83164 0.0
C2658 C 0.63487 0.7784 0.83974 0.0
C2659 C 0.63974 0.78352 0.85962 0.0
C2660 C 0.65072 0.77703 0.82782 0.0
C2661 C 0.60919 0.77045 0.81026 0.0
C2662 C 0.65137 0.75917 0.81741 0.0
C2663 C 0.66664 0.75792 0.80656 0.0
C2664 C 0.68156 0.77446 0.80615 0.0
C2665 C 0.68089 0.79231 0.81655 0.0
C2666 C 0.66561 0.79357 0.82731 0.0
H2667 H 0.59449 0.7733 0.80589 0.0
H2668 H 0.61969 0.77934 0.80198 0.0
H2669 H 0.60885 0.7546 0.80631 0.0
H2670 H 0.64022 0.74613 0.81789 0.0
H2671 H 0.6669 0.74397 0.79873 0.0
H2672 H 0.42058 0.59296 0.69651 0.0
H2673 H 0.43995 0.60286 0.67031 0.0
H2674 H 0.41666 0.54604 0.63881 0.0
H2675 H 0.39778 0.53609 0.66488 0.0
H2676 H 0.46808 0.57983 0.6599 0.0
H2677 H 0.41571 0.58554 0.59706 0.0
H2678 H 0.41028 0.58832 0.62158 0.0
H2679 H 0.40814 0.56411 0.60948 0.0
C2680 C 0.41911 0.58294 0.68364 0.0
C2681 C 0.40766 0.56383 0.68256 0.0
C2682 C 0.43024 0.58854 0.66878 0.0
C2683 C 0.42959 0.57524 0.65256 0.0
C2684 C 0.41712 0.55666 0.65102 0.0
H2685 H 0.49995 0.53185 0.58085 0.0
H2686 H 0.48471 0.54353 0.60778 0.0
C2687 C 0.40636 0.55097 0.66592 0.0
C2688 C 0.4437 0.57918 0.63846 0.0
H2689 H 0.44587 0.57675 0.59006 0.0
C2690 C 0.46335 0.57973 0.64466 0.0
C2691 C 0.43754 0.57915 0.61862 0.0
C2692 C 0.41678 0.57945 0.61128 0.0
C2693 C 0.4767 0.57862 0.63139 0.0
C2694 C 0.47014 0.57682 0.61147 0.0
C2695 C 0.45085 0.57794 0.60535 0.0
C2696 C 0.48227 0.57148 0.59678 0.0
C2697 C 0.49751 0.5786 0.63876 0.0
C2698 C 0.48622 0.58342 0.58177 0.0
C2699 C 0.49503 0.57679 0.56635 0.0
C2700 C 0.49972 0.55794 0.56553 0.0
C2701 C 0.49656 0.54643 0.58105 0.0
C2702 C 0.48792 0.55314 0.59652 0.0
H2703 H 0.50157 0.58616 0.65354 0.0
H2704 H 0.49937 0.56311 0.63932 0.0
H2705 H 0.5076 0.58593 0.62915 0.0
H2706 H 0.48183 0.59754 0.58163 0.0
H2707 H 0.4971 0.58599 0.55457 0.0
H2708 H 0.80846 0.1826 0.9394 0.0
H2709 H 0.80809 0.19274 0.90643 0.0
H2710 H 0.80214 0.25095 0.92749 0.0
H2711 H 0.80271 0.24105 0.96005 0.0
H2712 H 0.7766 0.2041 0.88768 0.0
H2713 H 0.84056 0.26445 0.88978 0.0
H2714 H 0.83838 0.24721 0.90797 0.0
H2715 H 0.8272 0.26843 0.90946 0.0
C2716 C 0.80784 0.19775 0.93701 0.0
C2717 C 0.80562 0.21105 0.95225 0.0
C2718 C 0.80747 0.20349 0.91819 0.0
C2719 C 0.80527 0.22268 0.91449 0.0
C2720 C 0.80429 0.23623 0.92995 0.0
H2721 H 0.7614 0.29056 0.83109 0.0
H2722 H 0.7725 0.27468 0.85919 0.0
C2723 C 0.80451 0.2305 0.9486 0.0
C2724 C 0.80137 0.2281 0.89453 0.0
H2725 H 0.813 0.26578 0.86625 0.0
C2726 C 0.78484 0.2173 0.88275 0.0
C2727 C 0.81209 0.24535 0.88811 0.0
C2728 C 0.83066 0.25688 0.89944 0.0
C2729 C 0.77807 0.22402 0.86535 0.0
C2730 C 0.78811 0.24194 0.85963 0.0
C2731 C 0.80518 0.25218 0.87086 0.0
C2732 C 0.78062 0.25083 0.84252 0.0
C2733 C 0.75968 0.21253 0.85368 0.0
C2734 C 0.78141 0.24257 0.82389 0.0
C2735 C 0.77516 0.25164 0.80785 0.0
C2736 C 0.76796 0.26909 0.81019 0.0
C2737 C 0.76682 0.2771 0.82886 0.0
C2738 C 0.7732 0.26809 0.8449 0.0
H2739 H 0.75245 0.20004 0.86116 0.0
H2740 H 0.74934 0.22241 0.85054 0.0
H2741 H 0.76314 0.2065 0.83971 0.0
H2742 H 0.78724 0.22934 0.82178 0.0
H2743 H 0.77635 0.24522 0.79363 0.0
H2744 H 0.04231 0.4968 0.21958 0.0
H2745 H 0.02844 0.49349 0.18586 0.0
H2746 H 0.08077 0.47794 0.16894 0.0
H2747 H 0.09453 0.48068 0.20285 0.0
H2748 H 0.04468 0.51804 0.16166 0.0
H2749 H 0.03979 0.44086 0.13164 0.0
H2750 H 0.0428 0.44793 0.15721 0.0
H2751 H 0.06332 0.4523 0.14389 0.0
C2752 C 0.05061 0.49202 0.20871 0.0
C2753 C 0.06952 0.48904 0.21383 0.0
C2754 C 0.04269 0.49019 0.18943 0.0
C2755 C 0.05353 0.48548 0.17481 0.0
C2756 C 0.07196 0.48123 0.17994 0.0
H2757 H 0.04553 0.50306 0.05337 0.0
H2758 H 0.05485 0.49502 0.08598 0.0
C2759 C 0.07983 0.48281 0.19934 0.0
C2760 C 0.04662 0.48781 0.15449 0.0
H2761 H 0.03625 0.4645 0.10893 0.0
C2762 C 0.04265 0.50623 0.15019 0.0
C2763 C 0.04417 0.4725 0.13946 0.0
C2764 C 0.04757 0.45222 0.14326 0.0
C2765 C 0.0365 0.50985 0.13134 0.0
C2766 C 0.03404 0.49457 0.11633 0.0
C2767 C 0.03808 0.47615 0.12052 0.0
C2768 C 0.02765 0.49776 0.09617 0.0
C2769 C 0.03312 0.53017 0.12756 0.0
C2770 C 0.00911 0.50161 0.09101 0.0
C2771 C 0.00371 0.50625 0.07237 0.0
C2772 C 0.01676 0.50712 0.05853 0.0
C2773 C 0.03513 0.50265 0.06365 0.0
C2774 C 0.04048 0.49796 0.08227 0.0
H2775 H 0.0396 0.54133 0.13982 0.0
H2776 H 0.03934 0.53503 0.11439 0.0
H2777 H 0.01727 0.52972 0.12525 0.0
H2778 H -0.00107 0.50134 0.1015 0.0
H2779 H 0.98943 0.50951 0.06896 0.0
H2780 H 0.71467 0.81674 0.49244 0.0
H2781 H 0.71289 0.8034 0.45898 0.0
H2782 H 0.71707 0.86204 0.44064 0.0
H2783 H 0.71816 0.87541 0.474 0.0
H2784 H 0.69464 0.8326 0.41338 0.0
H2785 H 0.7658 0.81485 0.43933 0.0
H2786 H 0.74586 0.80304 0.45097 0.0
H2787 H 0.75353 0.82949 0.45407 0.0
C2788 C 0.71459 0.8267 0.4812 0.0
C2789 C 0.71693 0.84715 0.48582 0.0
C2790 C 0.71365 0.81907 0.46213 0.0
C2791 C 0.71547 0.83183 0.44747 0.0
C2792 C 0.7158 0.85198 0.4518 0.0
H2793 H 0.77473 0.82248 0.34831 0.0
H2794 H 0.76339 0.83025 0.37911 0.0
C2795 C 0.71641 0.85959 0.47087 0.0
C2796 C 0.71986 0.82481 0.42837 0.0
H2797 H 0.75438 0.80662 0.40657 0.0
C2798 C 0.70761 0.8268 0.41183 0.0
C2799 C 0.73702 0.81759 0.42645 0.0
C2800 C 0.75143 0.81626 0.44361 0.0
C2801 C 0.71217 0.82187 0.39334 0.0
C2802 C 0.72924 0.81447 0.39149 0.0
C2803 C 0.74128 0.81223 0.40806 0.0
C2804 C 0.73562 0.80992 0.37257 0.0
C2805 C 0.69906 0.82531 0.37602 0.0
C2806 C 0.72386 0.79577 0.35879 0.0
C2807 C 0.73027 0.79145 0.34114 0.0
C2808 C 0.74866 0.80098 0.33719 0.0
C2809 C 0.76054 0.81488 0.35108 0.0
C2810 C 0.75405 0.81934 0.36863 0.0
H2811 H 0.68943 0.8355 0.37985 0.0
H2812 H 0.70766 0.83154 0.36473 0.0
H2813 H 0.6897 0.81103 0.36985 0.0
H2814 H 0.70981 0.78796 0.3617 0.0
H2815 H 0.72084 0.78067 0.33061 0.0
H2816 H 0.40637 0.57761 0.795 0.0
H2817 H 0.424 0.58204 0.82761 0.0
H2818 H 0.45861 0.5406 0.81043 0.0
H2819 H 0.44148 0.53636 0.77802 0.0
H2820 H 0.42419 0.55282 0.85157 0.0
H2821 H 0.49969 0.58386 0.8403 0.0
H2822 H 0.47928 0.5839 0.82247 0.0
H2823 H 0.48975 0.56226 0.82409 0.0
C2824 C 0.41801 0.56976 0.79809 0.0
C2825 C 0.42247 0.55658 0.78392 0.0
C2826 C 0.42805 0.57231 0.81672 0.0
C2827 C 0.44283 0.5619 0.82137 0.0
C2828 C 0.44763 0.54919 0.80708 0.0
H2829 H 0.49958 0.5146 0.91317 0.0
H2830 H 0.48702 0.52603 0.88297 0.0
C2831 C 0.43765 0.54663 0.78855 0.0
C2832 C 0.45189 0.56241 0.8415 0.0
H2833 H 0.49572 0.56583 0.86857 0.0
C2834 C 0.43982 0.55614 0.85545 0.0
C2835 C 0.47228 0.56675 0.84653 0.0
C2836 C 0.48597 0.57477 0.83258 0.0
C2837 C 0.44762 0.5528 0.87388 0.0
C2838 C 0.468 0.556 0.87848 0.0
C2839 C 0.48009 0.56325 0.8649 0.0
C2840 C 0.47693 0.55035 0.89674 0.0
C2841 C 0.43404 0.54481 0.88795 0.0
C2842 C 0.47573 0.56054 0.9144 0.0
C2843 C 0.4829 0.55405 0.93164 0.0
C2844 C 0.49133 0.53728 0.93142 0.0
C2845 C 0.49308 0.52751 0.91371 0.0
C2846 C 0.48596 0.53404 0.89649 0.0
H2847 H 0.4187 0.54058 0.88121 0.0
H2848 H 0.43835 0.5317 0.89402 0.0
H2849 H 0.43494 0.55625 0.90007 0.0
H2850 H 0.46898 0.57329 0.91485 0.0
H2851 H 0.48151 0.56192 0.94513 0.0
H2852 H 0.81507 0.18966 0.06884 0.0
H2853 H 0.81664 0.20196 0.10285 0.0
H2854 H 0.80056 0.25561 0.0854 0.0
H2855 H 0.79911 0.24358 0.05173 0.0
H2856 H 0.82878 0.26167 0.11817 0.0
H2857 H 0.76449 0.20275 0.12454 0.0
H2858 H 0.78551 0.1948 0.11711 0.0
H2859 H 0.77234 0.20849 0.1016 0.0
C2860 C 0.81241 0.20428 0.07232 0.0
C2861 C 0.80678 0.21558 0.05765 0.0
C2862 C 0.81313 0.21122 0.09172 0.0
C2863 C 0.80834 0.22955 0.09661 0.0
C2864 C 0.8042 0.2414 0.08197 0.0
H2865 H 0.75515 0.27585 0.18876 0.0
H2866 H 0.76444 0.26315 0.15849 0.0
C2867 C 0.80335 0.23447 0.06271 0.0
C2868 C 0.80587 0.23594 0.11666 0.0
H2869 H 0.77537 0.2264 0.15097 0.0
C2870 C 0.8173 0.25383 0.1255 0.0
C2871 C 0.79062 0.22586 0.126 0.0
C2872 C 0.77739 0.20698 0.11686 0.0
C2873 C 0.81367 0.26209 0.14327 0.0
C2874 C 0.79831 0.2521 0.15249 0.0
C2875 C 0.78714 0.23402 0.14385 0.0
C2876 C 0.7931 0.26046 0.17079 0.0
C2877 C 0.82579 0.28184 0.15165 0.0
C2878 C 0.80613 0.26317 0.18774 0.0
C2879 C 0.80089 0.27047 0.20505 0.0
C2880 C 0.78245 0.27514 0.2058 0.0
C2881 C 0.76948 0.27253 0.18873 0.0
C2882 C 0.77474 0.26519 0.17142 0.0
H2883 H 0.83415 0.28952 0.14088 0.0
H2884 H 0.8165 0.29155 0.15727 0.0
H2885 H 0.83627 0.27957 0.16381 0.0
H2886 H 0.82023 0.25931 0.18766 0.0
H2887 H 0.81123 0.27214 0.21791 0.0
H2888 H 0.09112 0.47783 0.3239 0.0
H2889 H 0.08062 0.4762 0.35622 0.0
H2890 H 0.06577 0.53343 0.35308 0.0
H2891 H 0.07604 0.53522 0.32123 0.0
H2892 H 0.08845 0.52765 0.38893 0.0
H2893 H 0.02193 0.46933 0.36646 0.0
H2894 H 0.04484 0.46503 0.36003 0.0
H2895 H 0.03416 0.4837 0.34923 0.0
C2896 C 0.08563 0.49004 0.33014 0.0
C2897 C 0.08431 0.50658 0.31989 0.0
C2898 C 0.07964 0.48908 0.34856 0.0
C2899 C 0.07237 0.50469 0.35696 0.0
C2900 C 0.07136 0.52125 0.34687 0.0
H2901 H 0.99697 0.52762 0.43672 0.0
H2902 H 0.01478 0.5213 0.40971 0.0
C2903 C 0.07718 0.52218 0.32857 0.0
C2904 C 0.06522 0.50402 0.37604 0.0
H2905 H 0.02555 0.48514 0.39766 0.0
C2906 C 0.07491 0.51809 0.39104 0.0
C2907 C 0.04745 0.49166 0.3786 0.0
C2908 C 0.03633 0.47659 0.36277 0.0
C2909 C 0.06688 0.52071 0.40827 0.0
C2910 C 0.04874 0.50884 0.41053 0.0
C2911 C 0.03947 0.4942 0.39585 0.0
C2912 C 0.03828 0.5126 0.42718 0.0
C2913 C 0.0773 0.53687 0.42345 0.0
C2914 C 0.04562 0.50982 0.44597 0.0
C2915 C 0.03546 0.51347 0.46145 0.0
C2916 C 0.01781 0.51991 0.45833 0.0
C2917 C 0.01055 0.5227 0.43953 0.0
C2918 C 0.02067 0.51903 0.4241 0.0
H2919 H 0.08955 0.54678 0.41815 0.0
H2920 H 0.06709 0.5459 0.42837 0.0
H2921 H 0.08321 0.53015 0.43609 0.0
H2922 H 0.05907 0.50465 0.44862 0.0
H2923 H 0.04129 0.51103 0.47579 0.0
H2924 H 0.74478 0.85339 0.60224 0.0
H2925 H 0.73059 0.84048 0.63001 0.0
H2926 H 0.67606 0.85527 0.60922 0.0
H2927 H 0.69038 0.86857 0.58109 0.0
H2928 H 0.70839 0.86042 0.65851 0.0
H2929 H 0.66787 0.79198 0.6144 0.0
H2930 H 0.68888 0.80665 0.60615 0.0
H2931 H 0.66709 0.81613 0.6066 0.0
C2932 C 0.72984 0.85418 0.60365 0.0
C2933 C 0.71863 0.86185 0.58944 0.0
C2934 C 0.72178 0.84685 0.61955 0.0
C2935 C 0.70229 0.84683 0.62154 0.0
C2936 C 0.69114 0.85516 0.60784 0.0
H2937 H 0.68894 0.79411 0.73059 0.0
H2938 H 0.67612 0.81064 0.70384 0.0
C2939 C 0.69934 0.86279 0.59189 0.0
C2940 C 0.69393 0.83671 0.63747 0.0
H2941 H 0.67529 0.78991 0.64765 0.0
C2942 C 0.70044 0.84523 0.6563 0.0
C2943 C 0.68367 0.81691 0.63437 0.0
C2944 C 0.67638 0.80723 0.61432 0.0
C2945 C 0.6987 0.83387 0.67205 0.0
C2946 C 0.69006 0.81351 0.66876 0.0
C2947 C 0.68185 0.80551 0.6501 0.0
C2948 C 0.69335 0.79981 0.68347 0.0
C2949 C 0.70792 0.84326 0.69177 0.0
C2950 C 0.70623 0.78717 0.68048 0.0
C2951 C 0.71349 0.77763 0.69563 0.0
C2952 C 0.70796 0.78054 0.71407 0.0
C2953 C 0.69351 0.79156 0.71655 0.0
C2954 C 0.68627 0.80117 0.70133 0.0
H2955 H 0.71549 0.85884 0.6915 0.0
H2956 H 0.69656 0.843 0.70154 0.0
H2957 H 0.71857 0.83481 0.69791 0.0
H2958 H 0.71183 0.78585 0.66677 0.0
H2959 H 0.72445 0.7691 0.6932 0.0
H2960 H 0.66494 0.42783 0.47841 0.0
H2961 H 0.64044 0.44747 0.48358 0.0
H2962 H 0.65408 0.44772 0.54499 0.0
H2963 H 0.67837 0.42771 0.53994 0.0
H2964 H 0.61508 0.44038 0.53425 0.0
H2965 H 0.64998 0.50586 0.50056 0.0
H2966 H 0.64553 0.48355 0.48477 0.0
H2967 H 0.66233 0.48619 0.5064 0.0
C2968 C 0.66279 0.43208 0.49303 0.0
C2969 C 0.67374 0.42625 0.50876 0.0
C2970 C 0.64883 0.44345 0.49597 0.0
C2971 C 0.64564 0.44945 0.51469 0.0
C2972 C 0.65634 0.4434 0.53041 0.0
H2973 H 0.57935 0.5413 0.53718 0.0
H2974 H 0.6048 0.52174 0.53771 0.0
C2975 C 0.67026 0.43196 0.52749 0.0
C2976 C 0.63091 0.46172 0.51784 0.0
H2977 H 0.61741 0.50483 0.50702 0.0
C2978 C 0.61567 0.45453 0.5284 0.0
C2979 C 0.6318 0.48037 0.51051 0.0
C2980 C 0.64839 0.48956 0.5001 0.0
C2981 C 0.60104 0.46519 0.53136 0.0
C2982 C 0.60143 0.48339 0.52324 0.0
C2983 C 0.61697 0.49082 0.51313 0.0
C2984 C 0.58568 0.49476 0.52456 0.0
C2985 C 0.58543 0.45691 0.54333 0.0
C2986 C 0.5664 0.48611 0.51719 0.0
C2987 C 0.55185 0.49721 0.51703 0.0
C2988 C 0.55628 0.5173 0.524 0.0
C2989 C 0.57547 0.52585 0.53178 0.0
C2990 C 0.59003 0.5147 0.53201 0.0
H2991 H 0.59042 0.44663 0.5533 0.0
H2992 H 0.58081 0.46885 0.5519 0.0
H2993 H 0.5726 0.44848 0.53367 0.0
H2994 H 0.56268 0.47093 0.51095 0.0
H2995 H 0.53724 0.49021 0.51082 0.0
H2996 H 0.19504 0.15074 0.50721 0.0
H2997 H 0.16545 0.12611 0.50742 0.0
H2998 H 0.18842 0.08439 0.47276 0.0
H2999 H 0.21874 0.10895 0.47336 0.0
H3000 H 0.14026 0.1108 0.47782 0.0
H3001 H 0.16739 0.05008 0.51245 0.0
H3002 H 0.18236 0.07432 0.51242 0.0
H3003 H 0.17825 0.05706 0.49133 0.0
C3004 C 0.19391 0.13623 0.49983 0.0
C3005 C 0.20912 0.13173 0.49022 0.0
C3006 C 0.17697 0.12216 0.49993 0.0
C3007 C 0.17467 0.10335 0.49015 0.0
C3008 C 0.18999 0.09865 0.48074 0.0
H3009 H 0.05393 0.03709 0.46912 0.0
H3010 H 0.08651 0.05338 0.46346 0.0
C3011 C 0.20724 0.11269 0.48099 0.0
C3012 C 0.15572 0.0894 0.48917 0.0
H3013 H 0.13388 0.04426 0.50121 0.0
C3014 C 0.13888 0.09621 0.48288 0.0
C3015 C 0.15394 0.0704 0.49583 0.0
C3016 C 0.17141 0.06255 0.50356 0.0
C3017 C 0.12031 0.08501 0.48384 0.0
C3018 C 0.11848 0.06595 0.49041 0.0
C3019 C 0.13532 0.05881 0.49605 0.0
C3020 C 0.0993 0.05395 0.49302 0.0
C3021 C 0.10296 0.09423 0.47882 0.0
C3022 C 0.09591 0.04786 0.51123 0.0
C3023 C 0.07746 0.03809 0.51436 0.0
C3024 C 0.062 0.03446 0.49938 0.0
C3025 C 0.06553 0.03996 0.48099 0.0
C3026 C 0.08411 0.04935 0.47777 0.0
H3027 H 0.10717 0.11057 0.47917 0.0
H3028 H 0.0961 0.0885 0.46402 0.0
H3029 H 0.09199 0.09062 0.48889 0.0
H3030 H 0.1074 0.05121 0.52321 0.0
H3031 H 0.07516 0.03407 0.52869 0.0
H3032 H 0.14092 0.92668 0.78297 0.0
H3033 H 0.16254 0.90401 0.777 0.0
H3034 H 0.20684 0.95288 0.76621 0.0
H3035 H 0.18544 0.97576 0.77267 0.0
H3036 H 0.17779 0.89617 0.74435 0.0
H3037 H 0.23746 0.92529 0.80341 0.0
H3038 H 0.2142 0.93242 0.80241 0.0
H3039 H 0.232 0.94342 0.78778 0.0
C3040 C 0.15535 0.93267 0.77955 0.0
C3041 C 0.16148 0.95306 0.7784 0.0
C3042 C 0.16768 0.91966 0.77608 0.0
C3043 C 0.18642 0.92672 0.77135 0.0
C3044 C 0.19263 0.9471 0.77025 0.0
H3045 H 0.27701 0.8605 0.74781 0.0
H3046 H 0.25785 0.88655 0.7485 0.0
C3047 C 0.18034 0.96017 0.77389 0.0
C3048 C 0.19906 0.91257 0.76696 0.0
H3049 H 0.24255 0.90017 0.78117 0.0
C3050 C 0.19197 0.89709 0.75239 0.0
C3051 C 0.21762 0.91378 0.77736 0.0
C3052 C 0.22574 0.9295 0.79373 0.0
C3053 C 0.20279 0.88273 0.74809 0.0
C3054 C 0.22117 0.88376 0.75873 0.0
C3055 C 0.22851 0.8995 0.77294 0.0
C3056 C 0.23228 0.86779 0.75652 0.0
C3057 C 0.1944 0.86652 0.73223 0.0
C3058 C 0.22427 0.84866 0.76077 0.0
C3059 C 0.23515 0.83391 0.76044 0.0
C3060 C 0.2543 0.83791 0.75585 0.0
C3061 C 0.26223 0.85696 0.75122 0.0
C3062 C 0.25133 0.87183 0.75166 0.0
H3063 H 0.18347 0.87105 0.72182 0.0
H3064 H 0.20594 0.86225 0.72432 0.0
H3065 H 0.18701 0.85331 0.7386 0.0
H3066 H 0.2098 0.8453 0.76502 0.0
H3067 H 0.22875 0.81953 0.76452 0.0
H3068 H 0.26655 0.94538 0.0164 0.0
H3069 H 0.29704 0.96868 0.01386 0.0
H3070 H 0.32961 0.92489 0.0309 0.0
H3071 H 0.29957 0.90169 0.03339 0.0
H3072 H 0.33332 0.98264 0.04186 0.0
H3073 H 0.34361 0.9387 0.97609 0.0
H3074 H 0.32042 0.93653 0.98516 0.0
H3075 H 0.33852 0.92432 0.99595 0.0
C3076 C 0.28023 0.94086 0.01987 0.0
C3077 C 0.28063 0.9216 0.02484 0.0
C3078 C 0.2976 0.95415 0.0184 0.0
C3079 C 0.31549 0.94832 0.02188 0.0
C3080 C 0.31591 0.92953 0.02786 0.0
H3081 H 0.43605 0.00185 0.04144 0.0
H3082 H 0.40175 0.98884 0.04391 0.0
C3083 C 0.2987 0.9163 0.02927 0.0
C3084 C 0.33382 0.96117 0.01835 0.0
H3085 H 0.37137 0.96179 0.99163 0.0
C3086 C 0.34157 0.97831 0.03072 0.0
C3087 C 0.34436 0.95562 0.00361 0.0
C3088 C 0.33626 0.93789 0.9893 0.0
C3089 C 0.36012 0.98953 0.0293 0.0
C3090 C 0.37122 0.98317 0.01538 0.0
C3091 C 0.36297 0.96658 0.00242 0.0
C3092 C 0.39172 0.99279 0.01444 0.0
C3093 C 0.36766 0.00798 0.04278 0.0
C3094 C 0.39758 -0.00101 -0.00303 0.0
C3095 C 0.4172 0.00608 0.99545 0.0
C3096 C 0.4313 0.00707 0.01138 0.0
C3097 C 0.42544 0.00125 0.02896 0.0
C3098 C 0.40582 0.99403 0.03044 0.0
H3099 H 0.35555 0.01428 0.04776 0.0
H3100 H 0.3763 0.00427 0.05567 0.0
H3101 H 0.37711 0.01942 0.03581 0.0
H3102 H 0.38699 0.99804 0.9844 0.0
H3103 H 0.42136 0.01054 0.98175 0.0
H3104 H 0.84312 0.60425 0.73404 0.0
H3105 H 0.81961 0.626 0.73439 0.0
H3106 H 0.86229 0.67077 0.76976 0.0
H3107 H 0.88588 0.64938 0.76918 0.0
H3108 H 0.80412 0.64164 0.76396 0.0
H3109 H 0.84418 0.70272 0.72816 0.0
H3110 H 0.85087 0.67891 0.72845 0.0
H3111 H 0.85842 0.69696 0.74892 0.0
C3112 C 0.84756 0.61878 0.74178 0.0
C3113 C 0.8665 0.62505 0.75148 0.0
C3114 C 0.83406 0.63122 0.74199 0.0
C3115 C 0.8392 0.65026 0.7518 0.0
C3116 C 0.85804 0.65642 0.76165 0.0
H3117 H 0.76136 0.72191 0.7935 0.0
H3118 H 0.78387 0.69973 0.78924 0.0
C3119 C 0.87152 0.64405 0.76141 0.0
C3120 C 0.82474 0.6634 0.75237 0.0
H3121 H 0.81778 0.7098 0.74413 0.0
C3122 C 0.80708 0.65649 0.75948 0.0
C3123 C 0.82835 0.68273 0.74628 0.0
C3124 C 0.84639 0.69071 0.73733 0.0
C3125 C 0.79327 0.66847 0.76119 0.0
C3126 C 0.79731 0.68814 0.75602 0.0
C3127 C 0.81471 0.69485 0.74836 0.0
C3128 C 0.78378 0.702 0.75862 0.0
C3129 C 0.77434 0.65977 0.76831 0.0
C3130 C 0.77664 0.71136 0.74301 0.0
C3131 C 0.76385 0.72426 0.74548 0.0
C3132 C 0.75801 0.72814 0.76363 0.0
C3133 C 0.76536 0.719 0.77927 0.0
C3134 C 0.7782 0.70622 0.77683 0.0
H3135 H 0.77098 0.64339 0.76588 0.0
H3136 H 0.77545 0.66381 0.78402 0.0
H3137 H 0.76208 0.66547 0.76107 0.0
H3138 H 0.78077 0.70849 0.72883 0.0
H3139 H 0.7583 0.73095 0.73314 0.0
H3140 H 0.81347 0.60881 0.96013 0.0
H3141 H 0.83845 0.59075 0.97115 0.0
H3142 H 0.83558 0.61111 0.02999 0.0
H3143 H 0.81064 0.62935 0.01915 0.0
H3144 H 0.876 0.60975 -0.00305 0.0
H3145 H 0.82828 0.5477 0.02595 0.0
H3146 H 0.81904 0.56172 0.0076 0.0
H3147 H 0.82535 0.57257 0.03194 0.0
C3148 C 0.81811 0.60944 0.97542 0.0
C3149 C 0.81007 0.62051 0.98876 0.0
C3150 C 0.83237 0.59912 0.98167 0.0
C3151 C 0.83867 0.59952 0.00135 0.0
C3152 C 0.83072 0.61052 0.01475 0.0
H3153 H 0.94395 0.55889 0.04315 0.0
H3154 H 0.91673 0.57606 0.04269 0.0
C3155 C 0.81655 0.62097 0.00851 0.0
C3156 C 0.854 0.58883 0.00772 0.0
H3157 H 0.8616 0.54699 0.02765 0.0
C3158 C 0.87295 0.59614 0.00385 0.0
C3159 C 0.84981 0.57108 0.01663 0.0
C3160 C 0.82952 0.56263 0.02076 0.0
C3161 C 0.88788 0.58593 0.00835 0.0
C3162 C 0.88367 0.56801 0.01705 0.0
C3163 C 0.86475 0.56083 0.02117 0.0
C3164 C 0.89845 0.55577 0.02022 0.0
C3165 C 0.90787 0.59397 0.0031 0.0
C3166 C 0.89671 0.53818 0.00845 0.0
C3167 C 0.91218 0.52836 0.00869 0.0
C3168 C 0.92955 0.53597 0.02079 0.0
C3169 C 0.9307 0.55272 0.03368 0.0
C3170 C 0.91523 0.56258 0.03338 0.0
H3171 H 0.90789 0.60623 0.9937 0.0
H3172 H 0.91792 0.59966 0.01642 0.0
H3173 H 0.91361 0.58212 0.9956 0.0
H3174 H 0.88384 0.53271 -0.00177 0.0
H3175 H 0.91095 0.51548 -0.00138 0.0
H3176 H 0.13715 0.08195 0.76542 0.0
H3177 H 0.15984 0.11332 0.76665 0.0
H3178 H 0.20583 0.08738 0.79269 0.0
H3179 H 0.18307 0.05542 0.79104 0.0
H3180 H 0.17932 0.13571 0.79806 0.0
H3181 H 0.23128 0.11533 0.75004 0.0
H3182 H 0.20801 0.09959 0.75136 0.0
H3183 H 0.22776 0.10075 0.77005 0.0
C3184 C 0.1521 0.08277 0.77133 0.0
C3185 C 0.15826 0.06613 0.77818 0.0
C3186 C 0.16509 0.10079 0.77202 0.0
C3187 C 0.18459 0.10274 0.77965 0.0
C3188 C 0.19093 0.08616 0.78642 0.0
H3189 H 0.25028 0.22504 0.80582 0.0
H3190 H 0.23691 0.19035 0.80934 0.0
C3191 C 0.17789 0.06793 0.78557 0.0
C3192 C 0.19773 0.12247 0.78096 0.0
H3193 H 0.23765 0.14829 0.76385 0.0
C3194 C 0.19218 0.13844 0.79071 0.0
C3195 C 0.21442 0.12602 0.77125 0.0
C3196 C 0.22071 0.10959 0.75994 0.0
C3197 C 0.20237 0.15791 0.79048 0.0
C3198 C 0.21905 0.16153 0.78073 0.0
C3199 C 0.22496 0.14549 0.77143 0.0
C3200 C 0.22952 0.18195 0.77875 0.0
C3201 C 0.19452 0.17448 0.79984 0.0
C3202 C 0.23083 0.18856 0.76039 0.0
C3203 C 0.23878 0.20831 0.75832 0.0
C3204 C 0.24547 0.2219 0.7746 0.0
C3205 C 0.24499 0.21504 0.79298 0.0
C3206 C 0.23727 0.19521 0.79502 0.0
H3207 H 0.17916 0.16958 0.80238 0.0
H3208 H 0.20324 0.17976 0.81399 0.0
H3209 H 0.1954 0.1871 0.79083 0.0
H3210 H 0.22504 0.1786 0.74761 0.0
H3211 H 0.23897 0.21304 0.74394 0.0
H3212 H 0.37585 0.99546 0.2272 0.0
H3213 H 0.35094 0.96712 0.2317 0.0
H3214 H 0.31787 0.00577 0.25734 0.0
H3215 H 0.34296 0.03459 0.25282 0.0
H3216 H 0.3407 0.96193 0.27241 0.0
H3217 H 0.27882 0.96193 0.21606 0.0
H3218 H 0.30347 0.97252 0.21248 0.0
H3219 H 0.2916 0.98473 0.22953 0.0
C3220 C 0.36316 0.99806 0.23353 0.0
C3221 C 0.36147 0.01728 0.23984 0.0
C3222 C 0.34892 0.98181 0.23605 0.0
C3223 C 0.33266 0.98438 0.24489 0.0
C3224 C 0.33032 0.00356 0.25038 0.0
H3225 H 0.27111 0.8771 0.2896 0.0
H3226 H 0.28278 0.91244 0.28689 0.0
C3227 C 0.34462 0.01997 0.24777 0.0
C3228 C 0.31944 0.96668 0.24989 0.0
H3229 H 0.2771 0.93405 0.23375 0.0
C3230 C 0.32659 0.95597 0.26427 0.0
C3231 C 0.30119 0.95901 0.23907 0.0
C3232 C 0.29317 0.97002 0.22336 0.0
C3233 C 0.31641 0.93726 0.26754 0.0
C3234 C 0.29838 0.92921 0.2563 0.0
C3235 C 0.29084 0.94032 0.24242 0.0
C3236 C 0.28843 0.90847 0.25731 0.0
C3237 C 0.32564 0.92578 0.28214 0.0
C3238 C 0.2869 0.89466 0.24135 0.0
C3239 C 0.28014 0.87457 0.24283 0.0
C3240 C 0.27478 0.86795 0.26032 0.0
C3241 C 0.27531 0.88184 0.27601 0.0
C3242 C 0.28201 0.90199 0.27449 0.0
H3243 H 0.34114 0.93259 0.2869 0.0
H3244 H 0.31779 0.92534 0.29501 0.0
H3245 H 0.32473 0.91033 0.27614 0.0
H3246 H 0.29176 0.89934 0.22796 0.0
H3247 H 0.27976 0.86417 0.23047 0.0
H3248 H 0.51845 0.32728 0.60254 0.0
H3249 H 0.51028 0.35613 0.58865 0.0
H3250 H 0.45939 0.35044 0.6182 0.0
H3251 H 0.46759 0.32117 0.63251 0.0
H3252 H 0.4752 0.35748 0.56495 0.0
H3253 H 0.48869 0.40925 0.63162 0.0
H3254 H 0.49818 0.38688 0.6304 0.0
H3255 H 0.47278 0.38555 0.63163 0.0
C3256 C 0.50552 0.33208 0.60623 0.0
C3257 C 0.49366 0.32184 0.61867 0.0
C3258 C 0.50086 0.34861 0.5982 0.0
C3259 C 0.48428 0.35544 0.6024 0.0
C3260 C 0.47237 0.34546 0.61491 0.0
H3261 H 0.45778 0.44973 0.53133 0.0
H3262 H 0.45231 0.41974 0.5484 0.0
C3263 C 0.47705 0.32876 0.62304 0.0
C3264 C 0.47981 0.37294 0.59324 0.0
H3265 H 0.48302 0.42258 0.60218 0.0
C3266 C 0.4765 0.37167 0.57306 0.0
C3267 C 0.4817 0.39139 0.60392 0.0
C3268 C 0.48562 0.39355 0.62559 0.0
C3269 C 0.47605 0.38855 0.56321 0.0
C3270 C 0.47864 0.40716 0.57386 0.0
C3271 C 0.48099 0.40828 0.59407 0.0
C3272 C 0.48111 0.42579 0.56433 0.0
C3273 C 0.47405 0.38648 0.54149 0.0
C3274 C 0.49891 0.43934 0.56797 0.0
C3275 C 0.50199 0.45645 0.55837 0.0
C3276 C 0.48732 0.46033 0.54493 0.0
C3277 C 0.46937 0.44697 0.54151 0.0
C3278 C 0.46626 0.42985 0.55121 0.0
H3279 H 0.47585 0.37173 0.53565 0.0
H3280 H 0.4594 0.38847 0.53571 0.0
H3281 H 0.48495 0.39796 0.53615 0.0
H3282 H 0.51058 0.43649 0.57801 0.0
H3283 H 0.51595 0.46653 0.56132 0.0
H3284 H 0.48189 0.79743 0.31256 0.0
H3285 H 0.45418 0.79997 0.28915 0.0
H3286 H 0.41931 0.74971 0.3103 0.0
H3287 H 0.4467 0.74717 0.33363 0.0
H3288 H 0.41292 0.75297 0.26787 0.0
H3289 H 0.40928 0.82027 0.3146 0.0
H3290 H 0.43176 0.81892 0.30529 0.0
H3291 H 0.42335 0.80265 0.32276 0.0
C3292 C 0.46852 0.78652 0.31171 0.0
C3293 C 0.46636 0.7722 0.325 0.0
C3294 C 0.45268 0.78807 0.29845 0.0
C3295 C 0.43465 0.77519 0.29821 0.0
C3296 C 0.43308 0.75981 0.31028 0.0
H3297 H 0.3136 0.75231 0.26984 0.0
H3298 H 0.34799 0.75146 0.27452 0.0
C3299 C 0.44875 0.7584 0.32361 0.0
C3300 C 0.41669 0.77901 0.28757 0.0
H3301 H 0.38269 0.80737 0.29158 0.0
C3302 C 0.40644 0.76508 0.27274 0.0
C3303 C 0.40831 0.79484 0.29395 0.0
C3304 C 0.4186 0.81004 0.31007 0.0
C3305 C 0.38766 0.76617 0.2646 0.0
C3306 C 0.37873 0.78123 0.27192 0.0
C3307 C 0.38947 0.79578 0.28599 0.0
C3308 C 0.35775 0.78115 0.26677 0.0
C3309 C 0.37751 0.75096 0.24847 0.0
C3310 C 0.35163 0.79825 0.26115 0.0
C3311 C 0.33186 0.79891 0.25877 0.0
C3312 C 0.31781 0.78247 0.26197 0.0
C3313 C 0.32396 0.76519 0.26706 0.0
C3314 C 0.34369 0.76461 0.26958 0.0
H3315 H 0.38815 0.74574 0.23988 0.0
H3316 H 0.36946 0.73796 0.25464 0.0
H3317 H 0.36708 0.75691 0.2387 0.0
H3318 H 0.3622 0.81126 0.25906 0.0
H3319 H 0.32766 0.81246 0.25484 0.0
H3320 H 0.00824 0.72104 0.08641 0.0
H3321 H 0.00208 0.68808 0.07031 0.0
H3322 H 0.96455 0.66677 0.11215 0.0
H3323 H 0.97123 0.70022 0.12902 0.0
H3324 H 0.9897 0.64326 0.10691 0.0
H3325 H 0.95743 0.65584 0.03533 0.0
H3326 H 0.97943 0.67388 0.04174 0.0
H3327 H 0.95955 0.6736 0.0559 0.0
C3328 C -0.00157 0.70949 0.09217 0.0
C3329 C 0.99027 0.71331 0.1091 0.0
C3330 C 0.99474 0.6906 0.08274 0.0
C3331 C 0.98252 0.67495 0.08972 0.0
C3332 C 0.97388 0.67868 0.10638 0.0
H3333 H 0.97897 0.56874 0.01298 0.0
H3334 H 0.96709 0.59368 0.032 0.0
C3335 C 0.97764 0.69778 0.11596 0.0
C3336 C 0.98064 0.65465 0.08038 0.0
H3337 H 0.97721 0.63035 0.03583 0.0
C3338 C 0.98648 0.64021 0.09141 0.0
C3339 C 0.9759 0.65032 0.06022 0.0
C3340 C 0.9675 0.6642 0.04771 0.0
C3341 C 0.98937 0.62233 0.08264 0.0
C3342 C 0.98708 0.61917 0.06227 0.0
C3343 C 0.97955 0.63286 0.05141 0.0
C3344 C 0.99355 0.6026 0.05188 0.0
C3345 C 0.99506 0.6072 0.09536 0.0
C3346 C 0.01242 0.59923 0.05652 0.0
C3347 C 0.01897 0.58448 0.04602 0.0
C3348 C 0.00697 0.57315 0.03035 0.0
C3349 C 0.98833 0.57686 0.02534 0.0
C3350 C 0.98159 0.59125 0.03613 0.0
H3351 H 0.98859 0.6079 0.10907 0.0
H3352 H 0.99036 0.59197 0.08818 0.0
H3353 H 0.01107 0.61043 0.09908 0.0
H3354 H 0.0223 0.60829 0.06802 0.0
H3355 H 0.03352 0.58214 0.05001 0.0
H3356 H 0.06516 0.26767 0.83272 0.0
H3357 H 0.09519 0.26551 0.81921 0.0
H3358 H 0.11053 0.32905 0.82199 0.0
H3359 H 0.08063 0.33139 0.83578 0.0
H3360 H 0.1076 0.27876 0.78573 0.0
H3361 H 0.15952 0.315 0.84886 0.0
H3362 H 0.13395 0.30654 0.85026 0.0
H3363 H 0.1424 0.32947 0.84041 0.0
C3364 C 0.07493 0.28122 0.83052 0.0
C3365 C 0.07049 0.29973 0.83542 0.0
C3366 C 0.0921 0.27995 0.82278 0.0
C3367 C 0.10527 0.29711 0.81985 0.0
C3368 C 0.1008 0.31561 0.8245 0.0
H3369 H 0.19764 0.30213 0.74637 0.0
H3370 H 0.16835 0.30558 0.76088 0.0
C3371 C 0.08362 0.31691 0.83228 0.0
C3372 C 0.12341 0.29556 0.81146 0.0
H3373 H 0.17293 0.30836 0.82011 0.0
C3374 C 0.12188 0.28521 0.79326 0.0
C3375 C 0.14206 0.30376 0.8214 0.0
C3376 C 0.14467 0.31416 0.84139 0.0
C3377 C 0.13846 0.28304 0.78462 0.0
C3378 C 0.15709 0.29175 0.7943 0.0
C3379 C 0.15864 0.30187 0.81262 0.0
C3380 C 0.17515 0.29023 0.78576 0.0
C3381 C 0.13586 0.27109 0.76538 0.0
C3382 C 0.189 0.28097 0.79518 0.0
C3383 C 0.20578 0.27907 0.78695 0.0
C3384 C 0.20908 0.28654 0.76922 0.0
C3385 C 0.19539 0.29611 0.75998 0.0
C3386 C 0.17862 0.29801 0.76822 0.0
H3387 H 0.12128 0.26123 0.76235 0.0
H3388 H 0.13734 0.28126 0.75385 0.0
H3389 H 0.14707 0.26194 0.7647 0.0
H3390 H 0.18667 0.27492 0.80876 0.0
H3391 H 0.21605 0.27153 0.79435 0.0
H3392 H 0.52851 0.71535 0.95198 0.0
H3393 H 0.53258 0.68379 0.96391 0.0
H3394 H 0.47405 0.6736 0.97856 0.0
H3395 H 0.46977 0.70494 0.96675 0.0
H3396 H 0.52653 0.67131 0.00299 0.0
H3397 H 0.47823 0.62356 0.94292 0.0
H3398 H 0.48885 0.64914 0.94096 0.0
H3399 H 0.46841 0.64295 0.95407 0.0
C3400 C 0.51651 0.70637 0.95771 0.0
C3401 C 0.49881 0.71261 0.95836 0.0
C3402 C 0.51888 0.68842 0.96454 0.0
C3403 C 0.50354 0.67642 0.97191 0.0
C3404 C 0.48595 0.68264 0.97271 0.0
H3405 H 0.50404 0.57365 0.03696 0.0
H3406 H 0.50045 0.60615 0.02678 0.0
C3407 C 0.48359 0.70057 0.966 0.0
C3408 C 0.50585 0.65735 0.97886 0.0
H3409 H 0.48967 0.60764 0.96924 0.0
C3410 C 0.51853 0.65735 0.99565 0.0
C3411 C 0.49539 0.63929 0.96911 0.0
C3412 C 0.48205 0.63859 0.95068 0.0
C3413 C 0.52093 0.6396 0.00309 0.0
C3414 C 0.51023 0.62155 0.9935 0.0
C3415 C 0.49767 0.62158 0.97662 0.0
C3416 C 0.51263 0.60235 0.0001 0.0
C3417 C 0.53512 0.64022 0.02089 0.0
C3418 C 0.52045 0.58956 0.98835 0.0
C3419 C 0.52248 0.57119 0.99409 0.0
C3420 C 0.51651 0.5652 0.01158 0.0
C3421 C 0.50874 0.57801 0.02342 0.0
C3422 C 0.50676 0.59651 0.01767 0.0
H3423 H 0.54484 0.65497 0.02439 0.0
H3424 H 0.52698 0.6368 0.0333 0.0
H3425 H 0.54417 0.62896 0.01904 0.0
H3426 H 0.52505 0.59385 0.97474 0.0
H3427 H 0.52876 0.56166 0.98482 0.0
H3428 H 0.04789 0.79729 0.64153 0.0
H3429 H 0.08052 0.80358 0.6595 0.0
H3430 H 0.05912 0.76539 0.70175 0.0
H3431 H 0.02663 0.75883 0.6839 0.0
H3432 H 0.09664 0.81614 0.70088 0.0
H3433 H 0.0996 0.73915 0.67539 0.0
H3434 H 0.08186 0.752 0.66468 0.0
H3435 H 0.07881 0.74169 0.68721 0.0
C3436 C 0.05006 0.79056 0.65485 0.0
C3437 C 0.03479 0.77727 0.66112 0.0
C3438 C 0.06867 0.7942 0.6651 0.0
C3439 C 0.07217 0.78467 0.68172 0.0
C3440 C 0.05667 0.77264 0.68879 0.0
H3441 H 0.17277 0.76186 0.74983 0.0
H3442 H 0.14001 0.7646 0.73661 0.0
C3443 C 0.03815 0.7689 0.67854 0.0
C3444 C 0.09221 0.78544 0.69054 0.0
H3445 H 0.12558 0.75643 0.69792 0.0
C3446 C 0.10307 0.80316 0.70023 0.0
C3447 C 0.10046 0.76846 0.68947 0.0
C3448 C 0.08969 0.74927 0.6785 0.0
C3449 C 0.12193 0.80416 0.70942 0.0
C3450 C 0.13004 0.78705 0.70858 0.0
C3451 C 0.11922 0.76945 0.69866 0.0
C3452 C 0.14979 0.78688 0.71772 0.0
C3453 C 0.13286 0.82332 0.72031 0.0
C3454 C 0.16606 0.79849 0.71142 0.0
C3455 C 0.18473 0.7969 0.7189 0.0
C3456 C 0.18735 0.78358 0.73267 0.0
C3457 C 0.17109 0.77217 0.73916 0.0
C3458 C 0.15242 0.77377 0.73169 0.0
H3459 H 0.12299 0.83343 0.72358 0.0
H3460 H 0.1409 0.82058 0.734 0.0
H3461 H 0.14358 0.83089 0.71143 0.0
H3462 H 0.16431 0.80839 0.70037 0.0
H3463 H 0.1971 0.80592 0.71374 0.0
H3464 H 0.97585 0.30797 0.47196 0.0
H3465 H 0.98061 0.34171 0.48653 0.0
H3466 H 0.04017 0.35272 0.47476 0.0
H3467 H 0.03534 0.31895 0.45946 0.0
H3468 H 0.00432 0.36299 0.51645 0.0
H3469 H 0.01988 0.39572 0.44831 0.0
H3470 H 0.01102 0.36963 0.44918 0.0
H3471 H 0.03624 0.38039 0.4565 0.0
C3472 C 0.99003 0.31748 0.47252 0.0
C3473 C 0.00517 0.31081 0.46432 0.0
C3474 C 0.99273 0.33679 0.48093 0.0
C3475 C 0.01062 0.34986 0.48141 0.0
C3476 C 0.02608 0.34302 0.4741 0.0
H3477 H 0.04217 0.47585 0.51602 0.0
H3478 H 0.04335 0.441 0.51074 0.0
C3479 C 0.02334 0.32369 0.46547 0.0
C3480 C 0.01259 0.3708 0.48888 0.0
H3481 H 0.02133 0.4179 0.47565 0.0
C3482 C 0.00812 0.37501 0.50757 0.0
C3483 C 0.0174 0.38646 0.4772 0.0
C3484 C 0.02123 0.38288 0.45663 0.0
C3485 C 0.00825 0.39444 0.51482 0.0
C3486 C 0.01296 0.40998 0.5031 0.0
C3487 C 0.01781 0.40587 0.48461 0.0
C3488 C 0.01234 0.43063 0.50932 0.0
C3489 C 0.00331 0.39828 0.53492 0.0
C3490 C 0.99449 0.43626 0.51067 0.0
C3491 C 0.99369 0.45625 0.51357 0.0
C3492 C 0.01076 0.47089 0.51512 0.0
C3493 C 0.02871 0.46503 0.51482 0.0
C3494 C 0.02946 0.4451 0.51181 0.0
H3495 H 0.00356 0.38534 0.54338 0.0
H3496 H 0.01364 0.4113 0.54266 0.0
H3497 H 0.98853 0.40159 0.5341 0.0
H3498 H 0.9811 0.42527 0.50856 0.0
H3499 H 0.97964 0.46023 0.51373 0.0
H3500 H 0.41892 0.24221 0.1452 0.0
H3501 H 0.39176 0.25346 0.15791 0.0
H3502 H 0.41623 0.31339 0.14802 0.0
H3503 H 0.44352 0.30224 0.13503 0.0
H3504 H 0.40632 0.30537 0.18747 0.0
H3505 H 0.34614 0.2758 0.12919 0.0
H3506 H 0.36149 0.25875 0.13534 0.0
H3507 H 0.37136 0.28103 0.12511 0.0
C3508 C 0.41845 0.25775 0.14551 0.0
C3509 C 0.43337 0.27135 0.13917 0.0
C3510 C 0.40288 0.26413 0.15266 0.0
C3511 C 0.40199 0.28419 0.15368 0.0
C3512 C 0.41667 0.29782 0.14715 0.0
H3513 H 0.31814 0.32522 0.22356 0.0
H3514 H 0.34437 0.32742 0.20302 0.0
C3515 C 0.43219 0.29142 0.13975 0.0
C3516 C 0.38641 0.29077 0.16306 0.0
H3517 H 0.33713 0.28239 0.16063 0.0
C3518 C 0.39117 0.30084 0.1815 0.0
C3519 C 0.36678 0.28482 0.15508 0.0
C3520 C 0.36108 0.27465 0.13501 0.0
C3521 C 0.37664 0.30368 0.19287 0.0
C3522 C 0.35696 0.29653 0.18534 0.0
C3523 C 0.35226 0.28773 0.16637 0.0
C3524 C 0.34119 0.29575 0.19758 0.0
C3525 C 0.38244 0.313 0.21327 0.0
C3526 C 0.33066 0.27727 0.20106 0.0
C3527 C 0.31571 0.276 0.21256 0.0
C3528 C 0.31106 0.29322 0.22081 0.0
C3529 C 0.32161 0.31176 0.21742 0.0
C3530 C 0.33656 0.31303 0.20577 0.0
H3531 H 0.39829 0.31493 0.21778 0.0
H3532 H 0.37856 0.32775 0.21446 0.0
H3533 H 0.37453 0.30385 0.22342 0.0
H3534 H 0.33409 0.26378 0.1949 0.0
H3535 H 0.30779 0.26153 0.21498 0.0
H3536 H 0.60232 0.47038 0.33023 0.0
H3537 H 0.58423 0.46131 0.35757 0.0
H3538 H 0.59259 0.52291 0.37776 0.0
H3539 H 0.61019 0.53195 0.35058 0.0
H3540 H 0.59684 0.49287 0.4075 0.0
H3541 H 0.52833 0.4785 0.35664 0.0
H3542 H 0.5484 0.46749 0.35105 0.0
H3543 H 0.55031 0.49361 0.35065 0.0
C3544 C 0.60076 0.48186 0.34088 0.0
C3545 C 0.60759 0.50184 0.33838 0.0
C3546 C 0.59035 0.4767 0.35636 0.0
C3547 C 0.587 0.49149 0.36955 0.0
C3548 C 0.59504 0.5113 0.36774 0.0
H3549 H 0.51525 0.53075 0.44193 0.0
H3550 H 0.532 0.52007 0.41567 0.0
C3551 C 0.60509 0.51644 0.35223 0.0
C3552 C 0.57357 0.48706 0.38418 0.0
H3553 H 0.52557 0.48273 0.38963 0.0
C3554 C 0.58121 0.49002 0.40368 0.0
C3555 C 0.55323 0.48365 0.37904 0.0
C3556 C 0.54442 0.48064 0.35823 0.0
C3557 C 0.56908 0.4907 0.41819 0.0
C3558 C 0.54882 0.48839 0.41298 0.0
C3559 C 0.54109 0.48439 0.39353 0.0
C3560 C 0.53595 0.49282 0.42728 0.0
C3561 C 0.57809 0.49526 0.43891 0.0
C3562 C 0.53192 0.48061 0.44208 0.0
C3563 C 0.52219 0.48661 0.45707 0.0
C3564 C 0.51651 0.505 0.45756 0.0
C3565 C 0.51949 0.51655 0.44204 0.0
C3566 C 0.52906 0.51047 0.42701 0.0
H3567 H 0.59422 0.49849 0.44035 0.0
H3568 H 0.57323 0.50815 0.4456 0.0
H3569 H 0.57326 0.48244 0.44709 0.0
H3570 H 0.537 0.46686 0.44244 0.0
H3571 H 0.52022 0.47739 0.46884 0.0
H3572 H 0.21788 0.88517 0.08467 0.0
H3573 H 0.21988 0.87476 0.11754 0.0
H3574 H 0.21549 0.81454 0.09449 0.0
H3575 H 0.21394 0.82486 0.0619 0.0
H3576 H 0.1978 0.84513 0.13846 0.0
H3577 H 0.26977 0.82981 0.1263 0.0
H3578 H 0.25686 0.84375 0.11058 0.0
H3579 H 0.25059 0.81719 0.10828 0.0
C3580 C 0.21672 0.86964 0.08665 0.0
C3581 C 0.21595 0.85583 0.0708 0.0
C3582 C 0.21798 0.86373 0.1054 0.0
C3583 C 0.21833 0.84396 0.10843 0.0
C3584 C 0.21567 0.82993 0.09249 0.0
H3585 H 0.21291 0.77581 0.20592 0.0
H3586 H 0.20621 0.79361 0.17791 0.0
C3587 C 0.21467 0.83583 0.07388 0.0
C3588 C 0.22335 0.83807 0.12797 0.0
H3589 H 0.25638 0.8169 0.15362 0.0
C3590 C 0.21069 0.83914 0.1419 0.0
C3591 C 0.24043 0.83072 0.1326 0.0
C3592 C 0.25531 0.83047 0.11873 0.0
C3593 C 0.21422 0.83213 0.16003 0.0
C3594 C 0.23062 0.82349 0.16413 0.0
C3595 C 0.2437 0.82331 0.15048 0.0
C3596 C 0.23418 0.81372 0.18202 0.0
C3597 C 0.20036 0.83412 0.17461 0.0
C3598 C 0.25236 0.81863 0.19341 0.0
C3599 C 0.25637 0.80813 0.20918 0.0
C3600 C 0.24222 0.79264 0.21395 0.0
C3601 C 0.22404 0.78779 0.20265 0.0
C3602 C 0.22009 0.79815 0.18678 0.0
H3603 H 0.19303 0.84668 0.1721 0.0
H3604 H 0.18895 0.82046 0.17323 0.0
H3605 H 0.20795 0.83635 0.18953 0.0
H3606 H 0.26359 0.83038 0.18988 0.0
H3607 H 0.27068 0.8118 0.21732 0.0
H3608 H 0.9088 0.58533 0.80882 0.0
H3609 H 0.9206 0.58523 0.84307 0.0
H3610 H 0.97663 0.57854 0.82801 0.0
H3611 H 0.96509 0.5789 0.79413 0.0
H3612 H 0.93196 0.55276 0.85677 0.0
H3613 H 0.99259 0.61715 0.87532 0.0
H3614 H 0.975 0.6152 0.85426 0.0
H3615 H 0.99516 0.60289 0.85379 0.0
C3616 C 0.92384 0.58466 0.81292 0.0
C3617 C 0.936 0.5821 0.79879 0.0
C3618 C 0.93054 0.58444 0.83247 0.0
C3619 C 0.94957 0.58199 0.83818 0.0
C3620 C 0.96205 0.58084 0.82411 0.0
H3621 H 0.01275 0.5417 0.93575 0.0
H3622 H 0.00215 0.55297 0.90466 0.0
C3623 C 0.95537 0.58095 0.80467 0.0
C3624 C 0.95564 0.5778 0.8582 0.0
H3625 H 0.99215 0.59051 0.89571 0.0
C3626 C 0.94495 0.56123 0.86541 0.0
C3627 C 0.97274 0.58866 0.8694 0.0
C3628 C 0.98443 0.60707 0.86287 0.0
C3629 C 0.95117 0.55486 0.88316 0.0
C3630 C 0.96844 0.56551 0.89419 0.0
C3631 C 0.97901 0.58226 0.88717 0.0
C3632 C 0.97545 0.55958 0.91323 0.0
C3633 C 0.93953 0.53638 0.88967 0.0
C3634 C 0.96417 0.55991 0.92842 0.0
C3635 C 0.97013 0.55348 0.94608 0.0
C3636 C 0.98763 0.54665 0.94907 0.0
C3637 C -0.0008 0.54679 0.93396 0.0
C3638 C 0.99317 0.55326 0.9162 0.0
H3639 H 0.92957 0.52732 0.87759 0.0
H3640 H 0.94923 0.52716 0.89621 0.0
H3641 H 0.9306 0.54057 0.90072 0.0
H3642 H 0.95063 0.56504 0.92658 0.0
H3643 H 0.96086 0.55379 0.95736 0.0
H3644 H 0.26501 0.23175 0.53637 0.0
H3645 H 0.27255 0.24512 0.56986 0.0
H3646 H 0.30445 0.19942 0.58214 0.0
H3647 H 0.29658 0.18556 0.54854 0.0
H3648 H 0.27653 0.20023 0.60492 0.0
H3649 H 0.31854 0.27618 0.60513 0.0
H3650 H 0.29719 0.27203 0.58794 0.0
H3651 H 0.31576 0.25802 0.58475 0.0
C3652 C 0.27401 0.22476 0.54605 0.0
C3653 C 0.28 0.20744 0.53984 0.0
C3654 C 0.27849 0.23258 0.56519 0.0
C3655 C 0.28926 0.22341 0.57845 0.0
C3656 C 0.29622 0.20678 0.57208 0.0
H3657 H 0.29194 0.24412 0.70383 0.0
H3658 H 0.30092 0.23377 0.67252 0.0
C3659 C 0.2917 0.19888 0.55289 0.0
C3660 C 0.29048 0.22943 0.59924 0.0
H3661 H 0.29939 0.27002 0.63178 0.0
C3662 C 0.28199 0.21538 0.61094 0.0
C3663 C 0.29757 0.2492 0.60705 0.0
C3664 C 0.30796 0.26464 0.59557 0.0
C3665 C 0.27922 0.22087 0.62986 0.0
C3666 C 0.28522 0.24086 0.63722 0.0
C3667 C 0.29464 0.25473 0.62593 0.0
C3668 C 0.2806 0.2478 0.65614 0.0
C3669 C 0.26894 0.2055 0.6415 0.0
C3670 C 0.26636 0.25924 0.65714 0.0
C3671 C 0.26115 0.26509 0.67495 0.0
C3672 C 0.27024 0.25965 0.69192 0.0
C3673 C 0.28468 0.24841 0.69089 0.0
C3674 C 0.28983 0.24252 0.67309 0.0
H3675 H 0.26302 0.19117 0.63279 0.0
H3676 H 0.27928 0.20294 0.65366 0.0
H3677 H 0.25684 0.21077 0.64766 0.0
H3678 H 0.25908 0.26338 0.64413 0.0
H3679 H 0.25005 0.27384 0.67543 0.0
H3680 H 0.56932 0.49725 0.23858 0.0
H3681 H 0.55598 0.48942 0.20478 0.0
H3682 H 0.61187 0.48095 0.19074 0.0
H3683 H 0.62516 0.48814 0.22473 0.0
H3684 H 0.56865 0.51284 0.17873 0.0
H3685 H 0.57609 0.43684 0.15601 0.0
H3686 H 0.57794 0.44599 0.18101 0.0
H3687 H 0.59838 0.45194 0.16775 0.0
C3688 C 0.57864 0.4932 0.22837 0.0
C3689 C 0.59832 0.49347 0.23425 0.0
C3690 C 0.57099 0.4887 0.20906 0.0
C3691 C 0.58289 0.48455 0.1952 0.0
C3692 C 0.60229 0.4837 0.20119 0.0
H3693 H 0.57117 0.51796 0.07972 0.0
H3694 H 0.58222 0.51233 0.11272 0.0
C3695 C 0.60991 0.48793 0.22062 0.0
C3696 C 0.57576 0.48411 0.17448 0.0
H3697 H 0.57069 0.45757 0.13069 0.0
C3698 C 0.56891 0.50062 0.1683 0.0
C3699 C 0.57602 0.46816 0.16085 0.0
C3700 C 0.58232 0.44964 0.16675 0.0
C3701 C 0.5627 0.50183 0.14889 0.0
C3702 C 0.56379 0.48633 0.13515 0.0
C3703 C 0.57013 0.46954 0.14128 0.0
C3704 C 0.5586 0.48769 0.11438 0.0
C3705 C 0.55497 0.51974 0.14326 0.0
C3706 C 0.54213 0.47513 0.10415 0.0
C3707 C 0.53583 0.47826 0.08522 0.0
C3708 C 0.54597 0.49399 0.07636 0.0
C3709 C 0.56301 0.50585 0.08629 0.0
C3710 C 0.56932 0.50267 0.10512 0.0
H3711 H 0.55045 0.52765 0.15576 0.0
H3712 H 0.56654 0.53015 0.13755 0.0
H3713 H 0.54237 0.51554 0.13186 0.0
H3714 H 0.53371 0.46347 0.11108 0.0
H3715 H 0.52269 0.46887 0.0778 0.0
H3716 H 0.2185 0.88505 0.95438 0.0
H3717 H 0.22115 0.87317 0.92122 0.0
H3718 H 0.20773 0.813 0.93587 0.0
H3719 H 0.20584 0.82489 0.96905 0.0
H3720 H 0.24116 0.82019 0.92163 0.0
H3721 H 0.18674 0.84706 0.87321 0.0
H3722 H 0.20193 0.86634 0.88955 0.0
H3723 H 0.18574 0.84684 0.89879 0.0
C3724 C 0.21526 0.8693 0.95025 0.0
C3725 C 0.21183 0.85587 0.96421 0.0
C3726 C 0.21685 0.86248 0.93129 0.0
C3727 C 0.21466 0.84214 0.92597 0.0
C3728 C 0.20957 0.82874 0.93959 0.0
H3729 H 0.21954 0.78664 0.81192 0.0
H3730 H 0.2099 0.7978 0.8425 0.0
C3731 C 0.20829 0.83553 0.95851 0.0
C3732 C 0.2202 0.83483 0.9073 0.0
H3733 H 0.21168 0.83515 0.85845 0.0
C3734 C 0.23458 0.82337 0.90782 0.0
C3735 C 0.21163 0.83887 0.88923 0.0
C3736 C 0.19552 0.85029 0.88759 0.0
C3737 C 0.24068 0.81594 0.89092 0.0
C3738 C 0.23257 0.82049 0.87288 0.0
C3739 C 0.21805 0.8318 0.87228 0.0
C3740 C 0.23873 0.81339 0.85446 0.0
C3741 C 0.25548 0.80293 0.89258 0.0
C3742 C 0.25819 0.81835 0.85096 0.0
C3743 C 0.26383 0.8118 0.83351 0.0
C3744 C 0.25006 0.80036 0.81907 0.0
C3745 C 0.23059 0.79537 0.82268 0.0
C3746 C 0.225 0.80182 0.84016 0.0
H3747 H 0.25599 0.79632 0.90657 0.0
H3748 H 0.25227 0.79081 0.88078 0.0
H3749 H 0.27009 0.81194 0.89168 0.0
H3750 H 0.269 0.82759 0.86159 0.0
H3751 H 0.2789 0.81615 0.83118 0.0
H3752 H 0.95979 0.58436 0.70263 0.0
H3753 H 0.97065 0.58275 0.67082 0.0
H3754 H 0.91109 0.56952 0.6445 0.0
H3755 H 0.90011 0.57136 0.6766 0.0
H3756 H 0.93379 0.54108 0.63448 0.0
H3757 H 0.97188 0.61688 0.62489 0.0
H3758 H 0.9786 0.60893 0.64803 0.0
H3759 H 0.9541 0.61188 0.64153 0.0
C3760 C 0.94902 0.58189 0.69003 0.0
C3761 C 0.92912 0.57823 0.69206 0.0
C3762 C 0.95524 0.58095 0.67184 0.0
C3763 C 0.94172 0.57612 0.65523 0.0
C3764 C 0.92179 0.57343 0.65712 0.0
H3765 H 0.97639 0.55577 0.53978 0.0
H3766 H 0.9583 0.56459 0.56587 0.0
C3767 C 0.91553 0.57468 0.67543 0.0
C3768 C 0.94856 0.57154 0.63643 0.0
H3769 H 0.9803 0.59044 0.60569 0.0
C3770 C 0.94367 0.55196 0.62798 0.0
C3771 C 0.9615 0.58571 0.62796 0.0
C3772 C 0.96672 0.60708 0.63595 0.0
C3773 C 0.95209 0.54601 0.61187 0.0
C3774 C 0.96572 0.55997 0.60402 0.0
C3775 C 0.96996 0.57972 0.61188 0.0
C3776 C 0.97628 0.55411 0.58812 0.0
C3777 C 0.9468 0.52475 0.60355 0.0
C3778 C 0.99234 0.54524 0.59201 0.0
C3779 C 0.00278 0.54028 0.57716 0.0
C3780 C 0.99724 0.54401 0.55816 0.0
C3781 C 0.98097 0.55264 0.55427 0.0
C3782 C 0.97064 0.55774 0.56915 0.0
H3783 H 0.9344 0.5162 0.60986 0.0
H3784 H 0.94302 0.52392 0.5877 0.0
H3785 H 0.95952 0.51772 0.60638 0.0
H3786 H 0.99693 0.54236 0.60659 0.0
H3787 H 0.01524 0.53365 0.58057 0.0
H3788 H 0.24799 0.19033 0.4221 0.0
H3789 H 0.25992 0.20751 0.39519 0.0
H3790 H 0.31878 0.21515 0.4226 0.0
H3791 H 0.30686 0.19732 0.44955 0.0
H3792 H 0.30036 0.25172 0.41214 0.0
H3793 H 0.29658 0.19368 0.35249 0.0
H3794 H 0.27689 0.18962 0.36692 0.0
H3795 H 0.3011 0.18946 0.37759 0.0
C3796 C 0.26351 0.19517 0.42213 0.0
C3797 C 0.27654 0.19253 0.4378 0.0
C3798 C 0.2703 0.20494 0.40678 0.0
C3799 C 0.29019 0.2125 0.40697 0.0
C3800 C 0.30339 0.20922 0.42221 0.0
H3801 H 0.3022 0.27351 0.30303 0.0
H3802 H 0.31529 0.26059 0.33205 0.0
C3803 C 0.2966 0.19901 0.43748 0.0
C3804 C 0.29636 0.22573 0.39226 0.0
H3805 H 0.29318 0.2258 0.34353 0.0
C3806 C 0.29948 0.24617 0.39717 0.0
C3807 C 0.29526 0.21839 0.37285 0.0
C3808 C 0.29243 0.19657 0.36708 0.0
C3809 C 0.29966 0.25936 0.38287 0.0
C3810 C 0.29659 0.2518 0.36333 0.0
C3811 C 0.29544 0.23156 0.35855 0.0
C3812 C 0.29125 0.26376 0.34776 0.0
C3813 C 0.30199 0.2811 0.38872 0.0
C3814 C 0.27366 0.27033 0.34724 0.0
C3815 C 0.26603 0.27753 0.33064 0.0
C3816 C 0.27589 0.27831 0.3143 0.0
C3817 C 0.29425 0.27317 0.3154 0.0
C3818 C 0.30178 0.26575 0.33195 0.0
H3819 H 0.31032 0.28522 0.40326 0.0
H3820 H 0.30946 0.29017 0.37824 0.0
H3821 H 0.28742 0.28469 0.38923 0.0
H3822 H 0.26515 0.26859 0.35917 0.0
H3823 H 0.25189 0.28141 0.33025 0.0
H3824 H 0.3485 0.64285 0.52315 0.0
H3825 H 0.37478 0.62434 0.52432 0.0
H3826 H 0.36031 0.60655 0.46359 0.0
H3827 H 0.33422 0.62506 0.46224 0.0
H3828 H 0.37299 0.58396 0.51491 0.0
H3829 H 0.41878 0.62935 0.46844 0.0
H3830 H 0.39918 0.63757 0.47894 0.0
H3831 H 0.39411 0.62036 0.45777 0.0
C3832 C 0.35095 0.63506 0.51003 0.0
C3833 C 0.33926 0.63556 0.49258 0.0
C3834 C 0.36597 0.62446 0.51072 0.0
C3835 C 0.36975 0.61428 0.49398 0.0
C3836 C 0.35798 0.61459 0.47662 0.0
H3837 H 0.43602 0.52073 0.48629 0.0
H3838 H 0.41081 0.54057 0.4842 0.0
C3839 C 0.34295 0.62512 0.47591 0.0
C3840 C 0.38569 0.60298 0.49469 0.0
H3841 H 0.4276 0.59906 0.47591 0.0
C3842 C 0.38495 0.5873 0.50643 0.0
C3843 C 0.40145 0.60747 0.4838 0.0
C3844 C 0.4036 0.62471 0.47166 0.0
C3845 C 0.39929 0.57576 0.50725 0.0
C3846 C 0.41469 0.57982 0.49585 0.0
C3847 C 0.41566 0.59577 0.48444 0.0
C3848 C 0.43015 0.56795 0.49595 0.0
C3849 C 0.398 0.55949 0.52056 0.0
C3850 C 0.44954 0.57686 0.50256 0.0
C3851 C 0.46397 0.56556 0.50369 0.0
C3852 C 0.45933 0.54514 0.49809 0.0
C3853 C 0.44004 0.5364 0.49076 0.0
C3854 C 0.4256 0.5477 0.4897 0.0
H3855 H 0.38815 0.56129 0.53157 0.0
H3856 H 0.39224 0.54506 0.51202 0.0
H3857 H 0.41256 0.55907 0.52802 0.0
H3858 H 0.45344 0.59247 0.50734 0.0
H3859 H 0.47869 0.57275 0.5094 0.0
H3860 H 0.78722 0.93801 0.55312 0.0
H3861 H 0.81998 0.95805 0.55307 0.0
H3862 H 0.83591 0.90993 0.52035 0.0
H3863 H 0.80385 0.88976 0.5212 0.0
H3864 H 0.86284 0.92378 0.54877 0.0
H3865 H 0.8441 0.98694 0.51155 0.0
H3866 H 0.83322 0.983 0.53327 0.0
H3867 H 0.82646 0.96467 0.51299 0.0
C3868 C 0.79774 0.93186 0.54583 0.0
C3869 C 0.79305 0.91233 0.53726 0.0
C3870 C 0.8164 0.94333 0.5457 0.0
C3871 C 0.83041 0.93558 0.53655 0.0
C3872 C 0.82545 0.91624 0.52761 0.0
H3873 H 0.93409 0.99123 0.49381 0.0
H3874 H 0.90126 0.97712 0.50021 0.0
C3875 C 0.80708 0.90471 0.52809 0.0
C3876 C 0.85054 0.94699 0.53667 0.0
H3877 H 0.87724 0.98876 0.52228 0.0
C3878 C 0.86598 0.93803 0.54301 0.0
C3879 C 0.85465 0.96554 0.52909 0.0
C3880 C 0.83876 0.97555 0.52117 0.0
C3881 C 0.8853 0.94663 0.54129 0.0
C3882 C 0.88945 0.96523 0.53381 0.0
C3883 C 0.87407 0.97455 0.5281 0.0
C3884 C 0.90943 0.97456 0.53043 0.0
C3885 C 0.90088 0.93512 0.54655 0.0
C3886 C 0.925 0.97807 0.54532 0.0
C3887 C 0.9439 0.98572 0.54156 0.0
C3888 C 0.94746 0.99056 0.52299 0.0
C3889 C 0.93179 0.98769 0.50828 0.0
C3890 C 0.913 0.97967 0.51194 0.0
H3891 H 0.89469 0.91914 0.54684 0.0
H3892 H 0.9118 0.93667 0.53622 0.0
H3893 H 0.9084 0.94077 0.56113 0.0
H3894 H 0.92256 0.97481 0.55982 0.0
H3895 H 0.95567 0.98804 0.55324 0.0
H3896 H 0.81565 0.08879 0.25263 0.0
H3897 H 0.80104 0.11796 0.25459 0.0
H3898 H 0.85643 0.15513 0.24964 0.0
H3899 H 0.87098 0.12596 0.247 0.0
H3900 H 0.80792 0.14941 0.28014 0.0
H3901 H 0.82259 0.17453 0.20893 0.0
H3902 H 0.82595 0.15073 0.21581 0.0
H3903 H 0.84419 0.17255 0.22391 0.0
C3904 C 0.82471 0.10315 0.2518 0.0
C3905 C 0.84446 0.10499 0.24947 0.0
C3906 C 0.81634 0.11985 0.25299 0.0
C3907 C 0.82752 0.13879 0.25195 0.0
C3908 C 0.84733 0.14068 0.24994 0.0
H3909 H 0.78491 0.24638 0.28536 0.0
H3910 H 0.80313 0.21963 0.28507 0.0
C3911 C 0.85567 0.12397 0.24853 0.0
C3912 C 0.81844 0.15647 0.25328 0.0
H3913 H 0.81054 0.19631 0.22979 0.0
C3914 C 0.80848 0.15966 0.26911 0.0
C3915 C 0.81897 0.16978 0.23881 0.0
C3916 C 0.82833 0.16666 0.22082 0.0
C3917 C 0.79897 0.17563 0.27083 0.0
C3918 C 0.79989 0.18919 0.25659 0.0
C3919 C 0.80997 0.18607 0.24083 0.0
C3920 C 0.78945 0.20594 0.25697 0.0
C3921 C 0.78748 0.17736 0.28756 0.0
C3922 C 0.77617 0.20763 0.2411 0.0
C3923 C 0.76628 0.22321 0.24104 0.0
C3924 C 0.76938 0.23751 0.25686 0.0
C3925 C 0.78258 0.23585 0.27281 0.0
C3926 C 0.79272 0.22033 0.27278 0.0
H3927 H 0.7839 0.16313 0.29405 0.0
H3928 H 0.79624 0.18846 0.29887 0.0
H3929 H 0.77374 0.1822 0.28304 0.0
H3930 H 0.77336 0.19678 0.22872 0.0
H3931 H 0.75621 0.22408 0.22851 0.0
H3932 H 0.72335 0.15799 0.98281 0.0
H3933 H 0.69397 0.134 0.98584 0.0
H3934 H 0.72815 0.09774 0.01575 0.0
H3935 H 0.75801 0.1219 0.01276 0.0
H3936 H 0.69075 0.07939 0.98245 0.0
H3937 H 0.68038 0.12766 0.04552 0.0
H3938 H 0.68816 0.13985 0.02503 0.0
H3939 H 0.70405 0.12697 0.03839 0.0
C3940 C 0.72474 0.14478 0.98978 0.0
C3941 C 0.743 0.14194 -0.00225 0.0
C3942 C 0.70791 0.13107 0.99143 0.0
C3943 C 0.70894 0.11426 0.00113 0.0
C3944 C 0.72716 0.11068 0.00819 0.0
H3945 H 0.6012 0.05647 0.04156 0.0
H3946 H 0.63589 0.06787 0.03952 0.0
C3947 C 0.74415 0.12444 0.00645 0.0
C3948 C 0.6907 0.10174 0.00526 0.0
H3949 H 0.6531 0.10347 0.03147 0.0
C3950 C 0.68261 0.08437 0.99338 0.0
C3951 C 0.68026 0.10827 0.01963 0.0
C3952 C 0.68863 0.12664 0.03302 0.0
C3953 C 0.66383 0.07379 0.99496 0.0
C3954 C 0.65284 0.08109 0.00848 0.0
C3955 C 0.66144 0.09792 0.02101 0.0
C3956 C 0.63205 0.07235 0.00923 0.0
C3957 C 0.65589 0.05504 0.98199 0.0
C3958 C 0.61834 0.07116 0.99292 0.0
C3959 C 0.59855 0.0646 0.99406 0.0
C3960 C 0.5921 0.05939 0.01159 0.0
C3961 C 0.6058 0.06045 0.02787 0.0
C3962 C 0.6256 0.0669 0.02671 0.0
H3963 H 0.66778 0.04806 0.97753 0.0
H3964 H 0.64597 0.04422 0.98917 0.0
H3965 H 0.64766 0.0586 0.96877 0.0
H3966 H 0.62288 0.07582 0.97942 0.0
H3967 H 0.58826 0.06397 0.98131 0.0
H3968 H 0.12773 0.43554 0.25962 0.0
H3969 H 0.14418 0.40755 0.25898 0.0
H3970 H 0.19354 0.44284 0.29538 0.0
H3971 H 0.17708 0.47069 0.29644 0.0
H3972 H 0.17817 0.40454 0.24553 0.0
H3973 H 0.18407 0.39342 0.32319 0.0
H3974 H 0.16866 0.40872 0.31254 0.0
H3975 H 0.19432 0.41821 0.31867 0.0
C3976 C 0.14202 0.43731 0.26763 0.0
C3977 C 0.15103 0.45536 0.27817 0.0
C3978 C 0.15142 0.42128 0.26723 0.0
C3979 C 0.16998 0.42294 0.27741 0.0
C3980 C 0.17904 0.44099 0.28783 0.0
H3981 H 0.25764 0.35087 0.28324 0.0
H3982 H 0.23883 0.37693 0.28657 0.0
C3983 C 0.16963 0.45698 0.2883 0.0
C3984 C 0.18021 0.40611 0.27646 0.0
H3985 H 0.20295 0.37661 0.30416 0.0
C3986 C 0.18342 0.39833 0.25835 0.0
C3987 C 0.1871 0.39797 0.29318 0.0
C3988 C 0.18321 0.40486 0.31297 0.0
C3989 C 0.19372 0.38302 0.25653 0.0
C3990 C 0.20085 0.37512 0.27327 0.0
C3991 C 0.19754 0.38276 0.29137 0.0
C3992 C 0.2119 0.359 0.2722 0.0
C3993 C 0.19732 0.37571 0.23675 0.0
C3994 C 0.20289 0.34017 0.26344 0.0
C3995 C 0.21356 0.32529 0.2616 0.0
C3996 C 0.23346 0.32896 0.26852 0.0
C3997 C 0.24234 0.34765 0.27776 0.0
C3998 C 0.23162 0.36252 0.27967 0.0
H3999 H 0.19447 0.386 0.22584 0.0
H4000 H 0.21252 0.37369 0.23688 0.0
H4001 H 0.18754 0.36117 0.23226 0.0
H4002 H 0.18763 0.33706 0.25782 0.0
H4003 H 0.20631 0.31105 0.25436 0.0
H4004 H 0.19524 0.44051 0.03952 0.0
H4005 H 0.16832 0.45683 0.03081 0.0
H4006 H 0.2003 0.48743 0.98911 0.0
H4007 H 0.22722 0.47085 -0.00252 0.0
H4008 H 0.16717 0.49625 0.03266 0.0
H4009 H 0.14866 0.46237 0.95719 0.0
H4010 H 0.16465 0.45341 0.97471 0.0
H4011 H 0.17338 0.47535 0.9634 0.0
C4012 C 0.19658 0.45069 0.02848 0.0
C4013 C 0.21336 0.45427 0.01912 0.0
C4014 C 0.18117 0.46003 0.02353 0.0
C4015 C 0.18217 0.47314 0.00911 0.0
C4016 C 0.19904 0.47706 -1e-05 0.0
H4017 H 0.09349 0.54641 0.99586 0.0
H4018 H 0.12527 0.53683 -0.00159 0.0
C4019 C 0.21446 0.46765 0.00488 0.0
C4020 C 0.1655 0.48269 0.00386 0.0
H4021 H 0.1305 0.48555 0.96719 0.0
C4022 C 0.15923 0.49405 0.01831 0.0
C4023 C 0.15508 0.47965 0.98515 0.0
C4024 C 0.16062 0.4669 0.96922 0.0
C4025 C 0.14259 0.50211 0.01472 0.0
C4026 C 0.13216 0.49909 0.99601 0.0
C4027 C 0.13865 0.48805 0.98145 0.0
C4028 C 0.11343 0.50555 0.99185 0.0
C4029 C 0.13585 0.51301 0.03123 0.0
C4030 C 0.09635 0.49129 0.98628 0.0
C4031 C 0.0783 0.49674 0.98461 0.0
C4032 C 0.07698 0.51657 0.98845 0.0
C4033 C 0.09412 0.53102 0.99288 0.0
C4034 C 0.11224 0.52554 0.9945 0.0
H4035 H 0.14309 0.51041 0.0454 0.0
H4036 H 0.13932 0.52911 0.02974 0.0
H4037 H 0.1199 0.50845 0.03114 0.0
H4038 H 0.09691 0.4758 0.98407 0.0
H4039 H 0.06532 0.4853 0.98111 0.0
H4040 H 0.83351 0.01837 0.25544 0.0
H4041 H 0.81012 0.98748 0.25775 0.0
H4042 H 0.8402 0.95614 0.21977 0.0
H4043 H 0.86353 0.98662 0.21757 0.0
H4044 H 0.79609 0.94548 0.21442 0.0
H4045 H 0.83255 0.94408 0.28872 0.0
H4046 H 0.8243 0.96606 0.28236 0.0
H4047 H 0.84413 0.95913 0.27158 0.0
C4048 C 0.83475 0.00498 0.24717 0.0
C4049 C 0.85039 0.00482 0.23643 0.0
C4050 C 0.82148 0.98737 0.24859 0.0
C4051 C 0.8236 0.96953 0.23907 0.0
C4052 C 0.83834 0.96973 0.22723 0.0
H4053 H 0.78966 0.84413 0.22723 0.0
H4054 H 0.79936 0.87925 0.22327 0.0
C4055 C 0.85166 0.98715 0.22602 0.0
C4056 C 0.81203 0.95024 0.2428 0.0
H4057 H 0.81054 0.91553 0.27513 0.0
C4058 C 0.79895 0.93901 0.2278 0.0
C4059 C 0.81582 0.94187 0.26027 0.0
C4060 C 0.83 0.95327 0.27671 0.0
C4061 C 0.78991 0.91939 0.22964 0.0
C4062 C 0.79459 0.91061 0.24671 0.0
C4063 C 0.80702 0.92219 0.26201 0.0
C4064 C 0.78775 0.88921 0.24865 0.0
C4065 C 0.77554 0.90829 0.21321 0.0
C4066 C 0.77852 0.88302 0.26456 0.0
C4067 C 0.77325 0.86291 0.26705 0.0
C4068 C 0.77711 0.84854 0.25367 0.0
C4069 C 0.78629 0.85477 0.23771 0.0
C4070 C 0.7917 0.87488 0.23533 0.0
H4071 H 0.76856 0.91854 0.20473 0.0
H4072 H 0.78328 0.90029 0.20337 0.0
H4073 H 0.76403 0.89738 0.21845 0.0
H4074 H 0.77547 0.89378 0.27513 0.0
H4075 H 0.76618 0.85865 0.2795 0.0
H4076 H 0.62027 0.06905 0.77447 0.0
H4077 H 0.64569 0.0975 0.77172 0.0
H4078 H 0.68554 0.05918 0.76178 0.0
H4079 H 0.65995 0.03021 0.76455 0.0
H4080 H 0.70067 0.09573 0.78888 0.0
H4081 H 0.66483 0.10964 0.7184 0.0
H4082 H 0.64874 0.10601 0.73656 0.0
H4083 H 0.65957 0.08606 0.72828 0.0
C4084 C 0.63443 0.06653 0.77179 0.0
C4085 C 0.63799 0.04728 0.76952 0.0
C4086 C 0.64894 0.08287 0.7702 0.0
C4087 C 0.66735 0.0804 0.76623 0.0
C4088 C 0.67134 0.06132 0.76472 0.0
H4089 H 0.73899 0.18636 0.73061 0.0
H4090 H 0.72506 0.15136 0.73243 0.0
C4091 C 0.65673 0.04483 0.76632 0.0
C4092 C 0.68195 0.09796 0.76318 0.0
H4093 H 0.68811 0.13667 0.73546 0.0
C4094 C 0.69819 0.10455 0.77703 0.0
C4095 C 0.67882 0.10924 0.74754 0.0
C4096 C 0.66215 0.10231 0.73173 0.0
C4097 C 0.71075 0.12282 0.77625 0.0
C4098 C 0.70671 0.13484 0.76142 0.0
C4099 C 0.69114 0.12759 0.74694 0.0
C4100 C 0.71741 0.1555 0.76126 0.0
C4101 C 0.72806 0.12916 0.79145 0.0
C4102 C 0.71784 0.16945 0.77689 0.0
C4103 C 0.72584 0.18939 0.77589 0.0
C4104 C 0.73333 0.19577 0.75915 0.0
C4105 C 0.73329 0.1818 0.74368 0.0
C4106 C 0.72537 0.16183 0.74471 0.0
H4107 H 0.73293 0.11617 0.79724 0.0
H4108 H 0.74041 0.13844 0.78571 0.0
H4109 H 0.72392 0.13789 0.80361 0.0
H4110 H 0.71131 0.16506 0.78959 0.0
H4111 H 0.72563 0.19988 0.788 0.0
loop_
_geom_bond_atom_site_label_1
_geom_bond_atom_site_label_2
_geom_bond_distance
_geom_bond_site_symmetry_2
_ccdc_geom_bond_type
Zn0 O3 2.025 1_655 S
Zn0 O5 2.049 . S
Zn0 O10 2.067 . S
Zn1 O2 1.962 . S
Zn1 O4 1.986 . S
Zn1 O6 1.996 . S
Zn1 O9 1.943 . S
O2 Zn1 1.962 . S
O2 C7 1.254 . S
O3 Zn0 2.025 1_455 S
O3 C7 1.298 . S
O4 Zn1 1.986 . S
O4 C11 1.262 . S
O5 Zn0 2.049 . S
O5 C13 1.260 1_655 S
O6 Zn1 1.996 . S
O6 C13 1.257 . S
C7 O2 1.254 . S
C7 O3 1.298 . S
C8 O9 1.249 1_655 S
C8 O10 1.270 . S
O9 Zn1 1.943 . S
O9 C8 1.249 1_455 S
O10 Zn0 2.067 . S
O10 C8 1.270 . S
C11 O4 1.262 . S
C11 O12 1.232 . S
O12 C11 1.232 . S
C13 O5 1.260 1_455 S
C13 O6 1.257 . S
Zn14 O17 2.031 1_455 S
Zn14 O19 2.049 . S
Zn14 O24 2.067 . S
Zn15 O16 1.918 1_455 S
Zn15 O18 2.006 . S
Zn15 O20 2.031 . S
Zn15 O23 1.951 1_455 S
O16 Zn15 1.918 1_655 S
O16 C21 1.254 . S
O17 Zn14 2.031 1_655 S
O17 C21 1.269 . S
O18 Zn15 2.006 . S
O18 C25 1.262 . S
O19 Zn14 2.049 . S
O19 C27 1.260 . S
O20 Zn15 2.031 . S
O20 C27 1.257 . S
C21 O16 1.254 . S
C21 O17 1.269 . S
C22 O23 1.249 . S
C22 O24 1.270 1_655 S
O23 Zn15 1.951 1_655 S
O23 C22 1.249 . S
O24 Zn14 2.067 . S
O24 C22 1.270 1_455 S
C25 O18 1.262 . S
C25 O26 1.232 1_455 S
O26 C25 1.232 1_655 S
C27 O19 1.260 . S
C27 O20 1.257 . S
Zn28 O31 2.031 . S
Zn28 O33 2.049 . S
Zn28 O38 2.067 . S
Zn29 O30 1.962 . S
Zn29 O32 1.986 . S
Zn29 O34 1.996 . S
Zn29 O37 1.943 . S
O30 Zn29 1.962 . S
O30 C35 1.254 . S
O31 Zn28 2.031 . S
O31 C35 1.269 . S
O32 Zn29 1.986 . S
O32 C39 1.262 . S
O33 Zn28 2.049 . S
O33 C41 1.260 . S
O34 Zn29 1.996 . S
O34 C41 1.257 . S
C35 O30 1.254 . S
C35 O31 1.269 . S
C36 O37 1.249 . S
C36 O38 1.270 . S
O37 Zn29 1.943 . S
O37 C36 1.249 . S
O38 Zn28 2.067 . S
O38 C36 1.270 . S
C39 O32 1.262 . S
C39 O40 1.232 . S
O40 C39 1.232 . S
C41 O33 1.260 . S
C41 O34 1.257 . S
Zn42 O45 2.031 . S
Zn42 O47 2.049 . S
Zn42 O52 2.067 . S
Zn43 O44 1.962 . S
Zn43 O46 1.986 . S
Zn43 O48 1.996 . S
Zn43 O51 1.943 . S
O44 Zn43 1.962 . S
O44 C49 1.254 . S
O45 Zn42 2.031 . S
O45 C49 1.269 . S
O46 Zn43 1.986 . S
O46 C53 1.262 . S
O47 Zn42 2.049 . S
O47 C55 1.260 . S
O48 Zn43 1.996 . S
O48 C55 1.257 . S
C49 O44 1.254 . S
C49 O45 1.269 . S
C50 O51 1.249 . S
C50 O52 1.270 . S
O51 Zn43 1.943 . S
O51 C50 1.249 . S
O52 Zn42 2.067 . S
O52 C50 1.270 . S
C53 O46 1.262 . S
C53 O54 1.232 . S
O54 C53 1.232 . S
C55 O47 1.260 . S
C55 O48 1.257 . S
Zn56 O59 2.031 . S
Zn56 O61 2.049 . S
Zn56 O66 2.067 . S
Zn57 O58 1.962 . S
Zn57 O60 1.986 . S
Zn57 O62 1.996 1_655 S
Zn57 O65 1.943 1_655 S
O58 Zn57 1.962 . S
O58 C63 1.254 1_655 S
O59 Zn56 2.031 . S
O59 C63 1.269 . S
O60 Zn57 1.986 . S
O60 C67 1.262 . S
O61 Zn56 2.049 . S
O61 C69 1.260 . S
O62 Zn57 1.996 1_455 S
O62 C69 1.257 . S
C63 O58 1.254 1_455 S
C63 O59 1.269 . S
C64 O65 1.249 . S
C64 O66 1.270 . S
O65 Zn57 1.943 1_455 S
O65 C64 1.249 . S
O66 Zn56 2.067 . S
O66 C64 1.270 . S
C67 O60 1.262 . S
C67 O68 1.232 . S
O68 C67 1.232 . S
C69 O61 1.260 . S
C69 O62 1.257 . S
Zn70 O73 2.031 . S
Zn70 O75 2.049 . S
Zn70 O80 2.067 . S
Zn71 O72 1.962 . S
Zn71 O74 1.986 . S
Zn71 O76 1.996 . S
Zn71 O79 1.943 . S
O72 Zn71 1.962 . S
O72 C77 1.254 . S
O73 Zn70 2.031 . S
O73 C77 1.269 . S
O74 Zn71 1.986 . S
O74 C81 1.262 . S
O75 Zn70 2.049 . S
O75 C83 1.260 . S
O76 Zn71 1.996 . S
O76 C83 1.257 . S
C77 O72 1.254 . S
C77 O73 1.269 . S
C78 O79 1.249 . S
C78 O80 1.270 . S
O79 Zn71 1.943 . S
O79 C78 1.249 . S
O80 Zn70 2.067 . S
O80 C78 1.270 . S
C81 O74 1.262 . S
C81 O82 1.232 . S
O82 C81 1.232 . S
C83 O75 1.260 . S
C83 O76 1.257 . S
Zn84 O87 2.031 . S
Zn84 O89 2.049 . S
Zn84 O94 2.067 . S
Zn85 O86 1.962 . S
Zn85 O88 1.986 . S
Zn85 O90 1.996 . S
Zn85 O93 1.943 . S
O86 Zn85 1.962 . S
O86 C91 1.254 . S
O87 Zn84 2.031 . S
O87 C91 1.269 . S
O88 Zn85 1.986 . S
O88 C95 1.262 . S
O89 Zn84 2.049 . S
O89 C97 1.260 . S
O90 Zn85 1.996 . S
O90 C97 1.257 . S
C91 O86 1.254 . S
C91 O87 1.269 . S
C92 O93 1.249 . S
C92 O94 1.270 . S
O93 Zn85 1.943 . S
O93 C92 1.249 . S
O94 Zn84 2.067 . S
O94 C92 1.270 . S
C95 O88 1.262 . S
C95 O96 1.232 . S
O96 C95 1.232 . S
C97 O89 1.260 . S
C97 O90 1.257 . S
Zn98 O101 2.031 . S
Zn98 O103 2.049 . S
Zn98 O108 2.067 . S
Zn99 O100 1.962 . S
Zn99 O102 1.986 . S
Zn99 O104 1.996 . S
Zn99 O107 1.943 1_455 S
O100 Zn99 1.962 . S
O100 C105 1.254 . S
O101 Zn98 2.031 . S
O101 C105 1.269 1_655 S
O102 Zn99 1.986 . S
O102 C109 1.262 . S
O103 Zn98 2.049 . S
O103 C111 1.260 1_655 S
O104 Zn99 1.996 . S
O104 C111 1.257 . S
C105 O100 1.254 . S
C105 O101 1.269 1_455 S
C106 O107 1.249 . S
C106 O108 1.270 . S
O107 Zn99 1.943 1_655 S
O107 C106 1.249 . S
O108 Zn98 2.067 . S
O108 C106 1.270 . S
C109 O102 1.262 . S
C109 O110 1.232 . S
O110 C109 1.232 . S
C111 O103 1.260 1_455 S
C111 O104 1.257 . S
Zn112 O115 2.031 . S
Zn112 O117 2.049 . S
Zn112 O122 2.067 . S
Zn113 O114 1.962 . S
Zn113 O116 1.986 . S
Zn113 O118 1.996 . S
Zn113 O121 1.943 . S
O114 Zn113 1.962 . S
O114 C119 1.254 . S
O115 Zn112 2.031 . S
O115 C119 1.269 . S
O116 Zn113 1.986 . S
O116 C123 1.262 . S
O117 Zn112 2.049 . S
O117 C125 1.260 . S
O118 Zn113 1.996 . S
O118 C125 1.257 . S
C119 O114 1.254 . S
C119 O115 1.269 . S
C120 O121 1.249 . S
C120 O122 1.270 . S
O121 Zn113 1.943 . S
O121 C120 1.249 . S
O122 Zn112 2.067 . S
O122 C120 1.270 . S
C123 O116 1.262 . S
C123 O124 1.232 . S
O124 C123 1.232 . S
C125 O117 1.260 . S
C125 O118 1.257 . S
Zn126 O129 2.031 . S
Zn126 O131 2.049 . S
Zn126 O136 2.067 . S
Zn127 O128 1.962 . S
Zn127 O130 1.986 . S
Zn127 O132 1.996 . S
Zn127 O135 1.943 . S
O128 Zn127 1.962 . S
O128 C133 1.254 . S
O129 Zn126 2.031 . S
O129 C133 1.269 . S
O130 Zn127 1.986 . S
O130 C137 1.262 . S
O131 Zn126 2.049 . S
O131 C139 1.260 . S
O132 Zn127 1.996 . S
O132 C139 1.257 . S
C133 O128 1.254 . S
C133 O129 1.269 . S
C134 O135 1.249 . S
C134 O136 1.270 . S
O135 Zn127 1.943 . S
O135 C134 1.249 . S
O136 Zn126 2.067 . S
O136 C134 1.270 . S
C137 O130 1.262 . S
C137 O138 1.232 . S
O138 C137 1.232 . S
C139 O131 1.260 . S
C139 O132 1.257 . S
Zn140 O143 2.031 . S
Zn140 O145 2.049 . S
Zn140 O150 2.067 . S
Zn141 O142 1.962 . S
Zn141 O144 1.986 . S
Zn141 O146 1.996 . S
Zn141 O149 1.943 1_565 S
O142 Zn141 1.962 . S
O142 C147 1.254 1_565 S
O143 Zn140 2.031 . S
O143 C147 1.269 . S
O144 Zn141 1.986 . S
O144 C151 1.262 . S
O145 Zn140 2.049 . S
O145 C153 1.260 . S
O146 Zn141 1.996 . S
O146 C153 1.257 1_565 S
C147 O142 1.254 1_545 S
C147 O143 1.269 . S
C148 O149 1.249 . S
C148 O150 1.270 . S
O149 Zn141 1.943 1_545 S
O149 C148 1.249 . S
O150 Zn140 2.067 . S
O150 C148 1.270 . S
C151 O144 1.262 . S
C151 O152 1.232 . S
O152 C151 1.232 . S
C153 O145 1.260 . S
C153 O146 1.257 1_545 S
Zn154 O157 2.031 . S
Zn154 O159 2.049 . S
Zn154 O164 2.067 . S
Zn155 O156 1.962 . S
Zn155 O158 1.986 . S
Zn155 O160 1.996 . S
Zn155 O163 1.943 . S
O156 Zn155 1.962 . S
O156 C161 1.254 1_554 S
O157 Zn154 2.031 . S
O157 C161 1.269 1_554 S
O158 Zn155 1.986 . S
O158 C165 1.262 . S
O159 Zn154 2.049 . S
O159 C167 1.260 . S
O160 Zn155 1.996 . S
O160 C167 1.257 . S
C161 O156 1.254 1_556 S
C161 O157 1.269 1_556 S
C162 O163 1.249 . S
C162 O164 1.270 . S
O163 Zn155 1.943 . S
O163 C162 1.249 . S
O164 Zn154 2.067 . S
O164 C162 1.270 . S
C165 O158 1.262 . S
C165 O166 1.232 . S
O166 C165 1.232 . S
C167 O159 1.260 . S
C167 O160 1.257 . S
Zn168 O171 2.031 1_554 S
Zn168 O173 2.049 . S
Zn168 O178 2.067 . S
Zn169 O170 1.962 1_554 S
Zn169 O172 1.986 . S
Zn169 O174 1.996 . S
Zn169 O177 1.943 . S
O170 Zn169 1.962 1_556 S
O170 C175 1.254 . S
O171 Zn168 2.031 1_556 S
O171 C175 1.269 . S
O172 Zn169 1.986 . S
O172 C179 1.262 . S
O173 Zn168 2.049 . S
O173 C181 1.260 . S
O174 Zn169 1.996 . S
O174 C181 1.257 . S
C175 O170 1.254 . S
C175 O171 1.269 . S
C176 O177 1.249 . S
C176 O178 1.270 . S
O177 Zn169 1.943 . S
O177 C176 1.249 . S
O178 Zn168 2.067 . S
O178 C176 1.270 . S
C179 O172 1.262 . S
C179 O180 1.232 . S
O180 C179 1.232 . S
C181 O173 1.260 . S
C181 O174 1.257 . S
Zn182 O185 2.031 1_554 S
Zn182 O187 2.049 . S
Zn182 O192 2.067 . S
Zn183 O184 1.962 1_554 S
Zn183 O186 1.986 . S
Zn183 O188 1.996 . S
Zn183 O191 1.943 . S
O184 Zn183 1.962 1_556 S
O184 C189 1.254 . S
O185 Zn182 2.031 1_556 S
O185 C189 1.269 . S
O186 Zn183 1.986 . S
O186 C193 1.262 . S
O187 Zn182 2.049 . S
O187 C195 1.260 . S
O188 Zn183 1.996 . S
O188 C195 1.257 . S
C189 O184 1.254 . S
C189 O185 1.269 . S
C190 O191 1.245 . S
C190 O192 1.283 . S
O191 Zn183 1.943 . S
O191 C190 1.245 . S
O192 Zn182 2.067 . S
O192 C190 1.283 . S
C193 O186 1.262 . S
C193 O194 1.232 1_554 S
O194 C193 1.232 1_556 S
C195 O187 1.260 . S
C195 O188 1.257 . S
Zn196 O199 2.031 . S
Zn196 O201 2.049 . S
Zn196 O206 2.067 . S
Zn197 O198 1.962 . S
Zn197 O200 1.986 . S
Zn197 O202 1.996 . S
Zn197 O205 1.943 . S
O198 Zn197 1.962 . S
O198 C203 1.254 . S
O199 Zn196 2.031 . S
O199 C203 1.269 . S
O200 Zn197 1.986 . S
O200 C207 1.262 . S
O201 Zn196 2.049 . S
O201 C209 1.260 . S
O202 Zn197 1.996 . S
O202 C209 1.257 . S
C203 O198 1.254 . S
C203 O199 1.269 . S
C204 O205 1.249 . S
C204 O206 1.270 . S
O205 Zn197 1.943 . S
O205 C204 1.249 . S
O206 Zn196 2.067 . S
O206 C204 1.270 . S
C207 O200 1.262 . S
C207 O208 1.232 . S
O208 C207 1.232 . S
C209 O201 1.260 . S
C209 O202 1.257 . S
Zn210 O213 2.031 . S
Zn210 O215 2.049 . S
Zn210 O220 2.067 . S
Zn211 O212 1.962 . S
Zn211 O214 1.986 . S
Zn211 O216 1.996 . S
Zn211 O219 1.943 . S
O212 Zn211 1.962 . S
O212 C217 1.254 . S
O213 Zn210 2.031 . S
O213 C217 1.269 . S
O214 Zn211 1.986 . S
O214 C221 1.262 . S
O215 Zn210 2.049 . S
O215 C223 1.260 . S
O216 Zn211 1.996 . S
O216 C223 1.257 . S
C217 O212 1.254 . S
C217 O213 1.269 . S
C218 O219 1.249 . S
C218 O220 1.270 . S
O219 Zn211 1.943 . S
O219 C218 1.249 . S
O220 Zn210 2.067 . S
O220 C218 1.270 . S
C221 O214 1.262 . S
C221 O222 1.232 . S
O222 C221 1.232 . S
C223 O215 1.260 . S
C223 O216 1.257 . S
Zn224 O227 2.031 . S
Zn224 O229 2.049 . S
Zn224 O234 2.067 . S
Zn225 O226 1.962 . S
Zn225 O228 1.986 . S
Zn225 O230 1.996 . S
Zn225 O233 1.943 . S
O226 Zn225 1.962 . S
O226 C231 1.254 . S
O227 Zn224 2.031 . S
O227 C231 1.269 . S
O228 Zn225 1.986 . S
O228 C235 1.262 . S
O229 Zn224 2.049 . S
O229 C237 1.260 . S
O230 Zn225 1.996 . S
O230 C237 1.257 . S
C231 O226 1.254 . S
C231 O227 1.269 . S
C232 O233 1.249 . S
C232 O234 1.270 . S
O233 Zn225 1.943 . S
O233 C232 1.249 . S
O234 Zn224 2.067 . S
O234 C232 1.270 . S
C235 O228 1.262 . S
C235 O236 1.232 . S
O236 C235 1.232 . S
C237 O229 1.260 . S
C237 O230 1.257 . S
Zn238 O241 2.031 . S
Zn238 O243 2.049 . S
Zn238 O248 2.067 . S
Zn239 O240 1.962 . S
Zn239 O242 1.986 . S
Zn239 O244 1.996 . S
Zn239 O247 1.943 . S
O240 Zn239 1.962 . S
O240 C245 1.254 . S
O241 Zn238 2.031 . S
O241 C245 1.269 . S
O242 Zn239 1.986 . S
O242 C249 1.262 . S
O243 Zn238 2.049 . S
O243 C251 1.260 . S
O244 Zn239 1.996 . S
O244 C251 1.257 . S
C245 O240 1.254 . S
C245 O241 1.269 . S
C246 O247 1.249 . S
C246 O248 1.270 . S
O247 Zn239 1.943 . S
O247 C246 1.249 . S
O248 Zn238 2.067 . S
O248 C246 1.270 . S
C249 O242 1.262 . S
C249 O250 1.232 . S
O250 C249 1.232 . S
C251 O243 1.260 . S
C251 O244 1.257 . S
Zn252 O255 2.031 . S
Zn252 O257 2.049 . S
Zn252 O262 2.067 . S
Zn253 O254 1.962 . S
Zn253 O256 1.986 . S
Zn253 O258 1.996 . S
Zn253 O261 1.943 . S
O254 Zn253 1.962 . S
O254 C259 1.254 . S
O255 Zn252 2.031 . S
O255 C259 1.269 . S
O256 Zn253 1.986 . S
O256 C263 1.262 . S
O257 Zn252 2.049 . S
O257 C265 1.260 . S
O258 Zn253 1.996 . S
O258 C265 1.257 . S
C259 O254 1.254 . S
C259 O255 1.269 . S
C260 O261 1.249 . S
C260 O262 1.270 . S
O261 Zn253 1.943 . S
O261 C260 1.249 . S
O262 Zn252 2.067 . S
O262 C260 1.270 . S
C263 O256 1.262 . S
C263 O264 1.232 . S
O264 C263 1.232 . S
C265 O257 1.260 . S
C265 O258 1.257 . S
Zn266 O269 2.031 . S
Zn266 O271 2.049 . S
Zn266 O276 2.067 . S
Zn267 O268 1.962 . S
Zn267 O270 1.986 1_545 S
Zn267 O272 1.996 . S
Zn267 O275 1.943 . S
O268 Zn267 1.962 . S
O268 C273 1.254 . S
O269 Zn266 2.031 . S
O269 C273 1.269 . S
O270 Zn267 1.986 1_565 S
O270 C277 1.262 . S
O271 Zn266 2.049 . S
O271 C279 1.260 . S
O272 Zn267 1.996 . S
O272 C279 1.257 . S
C273 O268 1.254 . S
C273 O269 1.269 . S
C274 O275 1.249 . S
C274 O276 1.270 . S
O275 Zn267 1.943 . S
O275 C274 1.249 . S
O276 Zn266 2.067 . S
O276 C274 1.270 . S
C277 O270 1.262 . S
C277 O278 1.232 . S
O278 C277 1.232 . S
C279 O271 1.260 . S
C279 O272 1.257 . S
Zn280 O283 2.031 1_554 S
Zn280 O285 2.049 . S
Zn280 O290 2.067 . S
Zn281 O282 1.962 1_554 S
Zn281 O284 1.986 . S
Zn281 O286 1.996 . S
Zn281 O289 1.943 . S
O282 Zn281 1.962 1_556 S
O282 C287 1.254 . S
O283 Zn280 2.031 1_556 S
O283 C287 1.269 . S
O284 Zn281 1.986 . S
O284 C291 1.262 . S
O285 Zn280 2.049 . S
O285 C293 1.260 . S
O286 Zn281 1.996 . S
O286 C293 1.257 . S
C287 O282 1.254 . S
C287 O283 1.269 . S
C288 O289 1.249 . S
C288 O290 1.270 . S
O289 Zn281 1.943 . S
O289 C288 1.249 . S
O290 Zn280 2.067 . S
O290 C288 1.270 . S
C291 O284 1.262 . S
C291 O292 1.232 1_554 S
O292 C291 1.232 1_556 S
C293 O285 1.260 . S
C293 O286 1.257 . S
Zn294 O297 2.031 . S
Zn294 O299 2.049 . S
Zn294 O304 2.067 . S
Zn295 O296 1.962 . S
Zn295 O298 1.986 . S
Zn295 O300 1.996 . S
Zn295 O303 1.943 . S
O296 Zn295 1.962 . S
O296 C301 1.254 . S
O297 Zn294 2.031 . S
O297 C301 1.269 . S
O298 Zn295 1.986 . S
O298 C305 1.262 . S
O299 Zn294 2.049 . S
O299 C307 1.260 . S
O300 Zn295 1.996 . S
O300 C307 1.257 . S
C301 O296 1.254 . S
C301 O297 1.269 . S
C302 O303 1.249 . S
C302 O304 1.270 . S
O303 Zn295 1.943 . S
O303 C302 1.249 . S
O304 Zn294 2.067 . S
O304 C302 1.270 . S
C305 O298 1.262 . S
C305 O306 1.232 . S
O306 C305 1.232 . S
C307 O299 1.260 . S
C307 O300 1.257 . S
Zn308 O311 2.031 . S
Zn308 O313 2.049 . S
Zn308 O318 2.067 . S
Zn309 O310 1.962 . S
Zn309 O312 1.986 . S
Zn309 O314 1.996 . S
Zn309 O317 1.943 . S
O310 Zn309 1.962 . S
O310 C315 1.254 . S
O311 Zn308 2.031 . S
O311 C315 1.269 . S
O312 Zn309 1.986 . S
O312 C319 1.262 . S
O313 Zn308 2.049 . S
O313 C321 1.260 . S
O314 Zn309 1.996 . S
O314 C321 1.257 . S
C315 O310 1.254 . S
C315 O311 1.269 . S
C316 O317 1.249 . S
C316 O318 1.270 . S
O317 Zn309 1.943 . S
O317 C316 1.249 . S
O318 Zn308 2.067 . S
O318 C316 1.270 . S
C319 O312 1.262 . S
C319 O320 1.232 . S
O320 C319 1.232 . S
C321 O313 1.260 . S
C321 O314 1.257 . S
Zn322 O325 2.031 . S
Zn322 O327 2.049 . S
Zn322 O332 2.067 . S
Zn323 O324 1.962 . S
Zn323 O326 1.986 . S
Zn323 O328 1.996 . S
Zn323 O331 1.943 . S
O324 Zn323 1.962 . S
O324 C329 1.254 . S
O325 Zn322 2.031 . S
O325 C329 1.269 . S
O326 Zn323 1.986 . S
O326 C333 1.262 . S
O327 Zn322 2.049 . S
O327 C335 1.260 . S
O328 Zn323 1.996 . S
O328 C335 1.257 . S
C329 O324 1.254 . S
C329 O325 1.269 . S
C330 O331 1.249 . S
C330 O332 1.270 . S
O331 Zn323 1.943 . S
O331 C330 1.249 . S
O332 Zn322 2.067 . S
O332 C330 1.270 . S
C333 O326 1.262 . S
C333 O334 1.232 . S
O334 C333 1.232 . S
C335 O327 1.260 . S
C335 O328 1.257 . S
Tb336 O339 2.453 . S
Tb336 O340 2.596 . S
Tb336 O341 2.374 1_554 S
Tb336 O349 2.343 1_455 S
Tb336 O351 2.353 . S
Tb336 O353 2.427 . S
Tb336 O354 2.513 1_554 S
C337 O341 1.251 . S
C337 O343 1.263 . S
Tb338 O340 2.343 1_655 S
Tb338 O343 2.353 1_654 S
Tb338 O346 2.427 1_645 S
Tb338 O347 2.513 1_645 S
Tb338 O348 2.453 . S
Tb338 O349 2.596 . S
Tb338 O350 2.374 . S
O339 Tb336 2.453 . S
O339 C355 1.245 . S
O340 Tb336 2.596 . S
O340 Tb338 2.343 1_455 S
O340 C355 1.259 . S
O341 Tb336 2.374 1_556 S
O341 C337 1.251 . S
C342 O346 1.275 . S
C342 O347 1.246 . S
O343 C337 1.263 . S
O343 Tb338 2.353 1_456 S
C344 O348 1.245 . S
C344 O349 1.259 . S
C345 O350 1.250 1_455 S
C345 O351 1.263 . S
O346 Tb338 2.427 1_465 S
O346 C342 1.275 . S
O347 Tb338 2.513 1_465 S
O347 C342 1.246 . S
O348 Tb338 2.453 . S
O348 C344 1.245 . S
O349 Tb336 2.343 1_655 S
O349 Tb338 2.596 . S
O349 C344 1.259 . S
O350 Tb338 2.374 . S
O350 C345 1.250 1_655 S
O351 Tb336 2.353 . S
O351 C345 1.263 . S
C352 O353 1.275 . S
C352 O354 1.246 1_554 S
O353 Tb336 2.427 . S
O353 C352 1.275 . S
O354 Tb336 2.513 1_556 S
O354 C352 1.246 1_556 S
C355 O339 1.245 . S
C355 O340 1.259 . S
Tb356 O359 2.453 . S
Tb356 O360 2.596 . S
Tb356 O361 2.374 . S
Tb356 O369 2.343 . S
Tb356 O371 2.353 . S
Tb356 O373 2.427 . S
Tb356 O374 2.513 . S
C357 O361 1.251 . S
C357 O363 1.263 . S
Tb358 O360 2.343 . S
Tb358 O363 2.353 . S
Tb358 O366 2.427 . S
Tb358 O367 2.513 . S
Tb358 O368 2.453 . S
Tb358 O369 2.596 . S
Tb358 O370 2.374 . S
O359 Tb356 2.453 . S
O359 C375 1.245 . S
O360 Tb356 2.596 . S
O360 Tb358 2.343 . S
O360 C375 1.259 . S
O361 Tb356 2.374 . S
O361 C357 1.251 . S
C362 O366 1.275 . S
C362 O367 1.246 . S
O363 C357 1.263 . S
O363 Tb358 2.353 . S
C364 O368 1.245 . S
C364 O369 1.259 . S
C365 O370 1.250 . S
C365 O371 1.263 . S
O366 Tb358 2.427 . S
O366 C362 1.275 . S
O367 Tb358 2.513 . S
O367 C362 1.246 . S
O368 Tb358 2.453 . S
O368 C364 1.245 . S
O369 Tb356 2.343 . S
O369 Tb358 2.596 . S
O369 C364 1.259 . S
O370 Tb358 2.374 . S
O370 C365 1.250 . S
O371 Tb356 2.353 . S
O371 C365 1.263 . S
C372 O373 1.275 . S
C372 O374 1.246 . S
O373 Tb356 2.427 . S
O373 C372 1.275 . S
O374 Tb356 2.513 . S
O374 C372 1.246 . S
C375 O359 1.245 . S
C375 O360 1.259 . S
Tb376 O379 2.453 . S
Tb376 O380 2.596 . S
Tb376 O381 2.374 . S
Tb376 O389 2.343 . S
Tb376 O391 2.353 . S
Tb376 O393 2.427 . S
Tb376 O394 2.513 . S
C377 O381 1.251 . S
C377 O383 1.263 . S
Tb378 O380 2.343 . S
Tb378 O383 2.353 . S
Tb378 O386 2.427 . S
Tb378 O387 2.513 . S
Tb378 O388 2.453 1_545 S
Tb378 O389 2.596 . S
Tb378 O390 2.374 . S
O379 Tb376 2.453 . S
O379 C395 1.245 . S
O380 Tb376 2.596 . S
O380 Tb378 2.343 . S
O380 C395 1.259 . S
O381 Tb376 2.374 . S
O381 C377 1.251 . S
C382 O386 1.275 . S
C382 O387 1.246 . S
O383 C377 1.263 . S
O383 Tb378 2.353 . S
C384 O388 1.245 . S
C384 O389 1.259 1_565 S
C385 O390 1.250 . S
C385 O391 1.263 . S
O386 Tb378 2.427 . S
O386 C382 1.275 . S
O387 Tb378 2.513 . S
O387 C382 1.246 . S
O388 Tb378 2.453 1_565 S
O388 C384 1.245 . S
O389 Tb376 2.343 . S
O389 Tb378 2.596 . S
O389 C384 1.259 1_545 S
O390 Tb378 2.374 . S
O390 C385 1.250 . S
O391 Tb376 2.353 . S
O391 C385 1.263 . S
C392 O393 1.275 . S
C392 O394 1.246 . S
O393 Tb376 2.427 . S
O393 C392 1.275 . S
O394 Tb376 2.513 . S
O394 C392 1.246 . S
C395 O379 1.245 . S
C395 O380 1.259 . S
Tb396 O399 2.453 . S
Tb396 O400 2.596 . S
Tb396 O401 2.374 . S
Tb396 O409 2.343 . S
Tb396 O411 2.353 . S
Tb396 O413 2.427 . S
Tb396 O414 2.513 . S
C397 O401 1.251 . S
C397 O403 1.263 . S
Tb398 O400 2.343 . S
Tb398 O403 2.353 . S
Tb398 O406 2.427 . S
Tb398 O407 2.513 . S
Tb398 O408 2.453 . S
Tb398 O409 2.596 . S
Tb398 O410 2.374 . S
O399 Tb396 2.453 . S
O399 C415 1.245 . S
O400 Tb396 2.596 . S
O400 Tb398 2.343 . S
O400 C415 1.259 . S
O401 Tb396 2.374 . S
O401 C397 1.251 . S
C402 O406 1.275 . S
C402 O407 1.246 . S
O403 C397 1.263 . S
O403 Tb398 2.353 . S
C404 O408 1.245 . S
C404 O409 1.259 . S
C405 O410 1.250 . S
C405 O411 1.263 . S
O406 Tb398 2.427 . S
O406 C402 1.275 . S
O407 Tb398 2.513 . S
O407 C402 1.246 . S
O408 Tb398 2.453 . S
O408 C404 1.245 . S
O409 Tb396 2.343 . S
O409 Tb398 2.596 . S
O409 C404 1.259 . S
O410 Tb398 2.374 . S
O410 C405 1.250 . S
O411 Tb396 2.353 . S
O411 C405 1.263 . S
C412 O413 1.275 . S
C412 O414 1.246 . S
O413 Tb396 2.427 . S
O413 C412 1.275 . S
O414 Tb396 2.513 . S
O414 C412 1.246 . S
C415 O399 1.245 . S
C415 O400 1.259 . S
Tb416 O419 2.453 1_545 S
Tb416 O420 2.596 . S
Tb416 O421 2.374 1_455 S
Tb416 O429 2.343 . S
Tb416 O431 2.353 . S
Tb416 O433 2.427 . S
Tb416 O434 2.513 1_455 S
C417 O421 1.251 . S
C417 O423 1.263 . S
Tb418 O420 2.343 . S
Tb418 O423 2.353 1_455 S
Tb418 O426 2.427 . S
Tb418 O427 2.513 . S
Tb418 O428 2.453 . S
Tb418 O429 2.596 . S
Tb418 O430 2.374 . S
O419 Tb416 2.453 1_565 S
O419 C435 1.245 . S
O420 Tb416 2.596 . S
O420 Tb418 2.343 . S
O420 C435 1.259 1_545 S
O421 Tb416 2.374 1_655 S
O421 C417 1.251 . S
C422 O426 1.275 . S
C422 O427 1.246 . S
O423 C417 1.263 . S
O423 Tb418 2.353 1_655 S
C424 O428 1.245 . S
C424 O429 1.259 . S
C425 O430 1.250 . S
C425 O431 1.263 . S
O426 Tb418 2.427 . S
O426 C422 1.275 . S
O427 Tb418 2.513 . S
O427 C422 1.246 . S
O428 Tb418 2.453 . S
O428 C424 1.245 . S
O429 Tb416 2.343 . S
O429 Tb418 2.596 . S
O429 C424 1.259 . S
O430 Tb418 2.374 . S
O430 C425 1.250 . S
O431 Tb416 2.353 . S
O431 C425 1.263 . S
C432 O433 1.275 1_655 S
C432 O434 1.246 . S
O433 Tb416 2.427 . S
O433 C432 1.275 1_455 S
O434 Tb416 2.513 1_655 S
O434 C432 1.246 . S
C435 O419 1.245 . S
C435 O420 1.259 1_565 S
Tb436 O439 2.453 . S
Tb436 O440 2.596 . S
Tb436 O441 2.374 . S
Tb436 O449 2.343 . S
Tb436 O451 2.353 . S
Tb436 O453 2.427 . S
Tb436 O454 2.513 . S
C437 O441 1.251 . S
C437 O443 1.263 . S
Tb438 O440 2.343 . S
Tb438 O443 2.353 . S
Tb438 O446 2.427 . S
Tb438 O447 2.513 . S
Tb438 O448 2.453 . S
Tb438 O449 2.596 . S
Tb438 O450 2.374 . S
O439 Tb436 2.453 . S
O439 C455 1.245 . S
O440 Tb436 2.596 . S
O440 Tb438 2.343 . S
O440 C455 1.259 . S
O441 Tb436 2.374 . S
O441 C437 1.251 . S
C442 O446 1.275 . S
C442 O447 1.246 . S
O443 C437 1.263 . S
O443 Tb438 2.353 . S
C444 O448 1.245 . S
C444 O449 1.259 . S
C445 O450 1.250 . S
C445 O451 1.263 . S
O446 Tb438 2.427 . S
O446 C442 1.275 . S
O447 Tb438 2.513 . S
O447 C442 1.246 . S
O448 Tb438 2.453 . S
O448 C444 1.245 . S
O449 Tb436 2.343 . S
O449 Tb438 2.596 . S
O449 C444 1.259 . S
O450 Tb438 2.374 . S
O450 C445 1.250 . S
O451 Tb436 2.353 . S
O451 C445 1.263 . S
C452 O453 1.275 . S
C452 O454 1.246 . S
O453 Tb436 2.427 . S
O453 C452 1.275 . S
O454 Tb436 2.513 . S
O454 C452 1.246 . S
C455 O439 1.245 . S
C455 O440 1.259 . S
Tb456 O459 2.453 . S
Tb456 O460 2.596 . S
Tb456 O461 2.374 . S
Tb456 O469 2.343 1_556 S
Tb456 O471 2.353 1_556 S
Tb456 O473 2.427 1_556 S
Tb456 O474 2.513 1_556 S
C457 O461 1.224 1_565 S
C457 O463 1.247 1_566 S
Tb458 O460 2.343 1_554 S
Tb458 O463 2.353 . S
Tb458 O466 2.427 . S
Tb458 O467 2.513 . S
Tb458 O468 2.453 . S
Tb458 O469 2.596 . S
Tb458 O470 2.374 . S
O459 Tb456 2.453 . S
O459 C475 1.245 . S
O460 Tb456 2.596 . S
O460 Tb458 2.343 1_556 S
O460 C475 1.259 . S
O461 Tb456 2.374 . S
O461 C457 1.224 1_545 S
C462 O466 1.275 . S
C462 O467 1.246 . S
O463 C457 1.247 1_544 S
O463 Tb458 2.353 . S
C464 O468 1.245 . S
C464 O469 1.259 . S
C465 O470 1.250 . S
C465 O471 1.263 . S
O466 Tb458 2.427 . S
O466 C462 1.275 . S
O467 Tb458 2.513 . S
O467 C462 1.246 . S
O468 Tb458 2.453 . S
O468 C464 1.245 . S
O469 Tb456 2.343 1_554 S
O469 Tb458 2.596 . S
O469 C464 1.259 . S
O470 Tb458 2.374 . S
O470 C465 1.250 . S
O471 Tb456 2.353 1_554 S
O471 C465 1.263 . S
C472 O473 1.275 . S
C472 O474 1.246 . S
O473 Tb456 2.427 1_554 S
O473 C472 1.275 . S
O474 Tb456 2.513 1_554 S
O474 C472 1.246 . S
C475 O459 1.245 . S
C475 O460 1.259 . S
Tb476 O479 2.453 . S
Tb476 O480 2.596 . S
Tb476 O481 2.374 . S
Tb476 O489 2.343 . S
Tb476 O491 2.353 . S
Tb476 O493 2.427 . S
Tb476 O494 2.513 . S
C477 O481 1.251 . S
C477 O483 1.263 . S
Tb478 O480 2.343 . S
Tb478 O483 2.353 . S
Tb478 O486 2.427 . S
Tb478 O487 2.513 . S
Tb478 O488 2.453 . S
Tb478 O489 2.596 . S
Tb478 O490 2.374 . S
O479 Tb476 2.453 . S
O479 C495 1.245 . S
O480 Tb476 2.596 . S
O480 Tb478 2.343 . S
O480 C495 1.259 . S
O481 Tb476 2.374 . S
O481 C477 1.251 . S
C482 O486 1.275 . S
C482 O487 1.246 . S
O483 C477 1.263 . S
O483 Tb478 2.353 . S
C484 O488 1.245 . S
C484 O489 1.259 . S
C485 O490 1.250 . S
C485 O491 1.263 . S
O486 Tb478 2.427 . S
O486 C482 1.275 . S
O487 Tb478 2.513 . S
O487 C482 1.246 . S
O488 Tb478 2.453 . S
O488 C484 1.245 . S
O489 Tb476 2.343 . S
O489 Tb478 2.596 . S
O489 C484 1.259 . S
O490 Tb478 2.374 . S
O490 C485 1.250 . S
O491 Tb476 2.353 . S
O491 C485 1.263 . S
C492 O493 1.275 . S
C492 O494 1.246 . S
O493 Tb476 2.427 . S
O493 C492 1.275 . S
O494 Tb476 2.513 . S
O494 C492 1.246 . S
C495 O479 1.245 . S
C495 O480 1.259 . S
Tb496 O499 2.453 1_556 S
Tb496 O500 2.596 1_556 S
Tb496 O501 2.374 . S
Tb496 O509 2.343 . S
Tb496 O511 2.353 . S
Tb496 O513 2.427 . S
Tb496 O514 2.513 . S
C497 O501 1.251 1_554 S
C497 O503 1.263 . S
Tb498 O500 2.343 . S
Tb498 O503 2.353 . S
Tb498 O506 2.427 . S
Tb498 O507 2.513 . S
Tb498 O508 2.453 . S
Tb498 O509 2.596 1_554 S
Tb498 O510 2.374 . S
O499 Tb496 2.453 1_554 S
O499 C515 1.245 . S
O500 Tb496 2.596 1_554 S
O500 Tb498 2.343 . S
O500 C515 1.259 . S
O501 Tb496 2.374 . S
O501 C497 1.251 1_556 S
C502 O506 1.275 . S
C502 O507 1.246 . S
O503 C497 1.263 . S
O503 Tb498 2.353 . S
C504 O508 1.244 1_556 S
C504 O509 1.260 . S
C505 O510 1.250 . S
C505 O511 1.263 1_554 S
O506 Tb498 2.427 . S
O506 C502 1.275 . S
O507 Tb498 2.513 . S
O507 C502 1.246 . S
O508 Tb498 2.453 . S
O508 C504 1.244 1_554 S
O509 Tb496 2.343 . S
O509 Tb498 2.596 1_556 S
O509 C504 1.260 . S
O510 Tb498 2.374 . S
O510 C505 1.250 . S
O511 Tb496 2.353 . S
O511 C505 1.263 1_556 S
C512 O513 1.275 . S
C512 O514 1.246 . S
O513 Tb496 2.427 . S
O513 C512 1.275 . S
O514 Tb496 2.513 . S
O514 C512 1.246 . S
C515 O499 1.245 . S
C515 O500 1.259 . S
Tb516 O519 2.453 . S
Tb516 O520 2.596 . S
Tb516 O521 2.374 . S
Tb516 O529 2.343 . S
Tb516 O531 2.353 . S
Tb516 O533 2.427 . S
Tb516 O534 2.513 . S
C517 O521 1.251 . S
C517 O523 1.263 . S
Tb518 O520 2.343 . S
Tb518 O523 2.353 . S
Tb518 O526 2.427 . S
Tb518 O527 2.513 . S
Tb518 O528 2.453 . S
Tb518 O529 2.596 . S
Tb518 O530 2.374 . S
O519 Tb516 2.453 . S
O519 C535 1.245 . S
O520 Tb516 2.596 . S
O520 Tb518 2.343 . S
O520 C535 1.259 . S
O521 Tb516 2.374 . S
O521 C517 1.251 . S
C522 O526 1.275 . S
C522 O527 1.246 . S
O523 C517 1.263 . S
O523 Tb518 2.353 . S
C524 O528 1.245 . S
C524 O529 1.259 . S
C525 O530 1.250 . S
C525 O531 1.263 . S
O526 Tb518 2.427 . S
O526 C522 1.275 . S
O527 Tb518 2.513 . S
O527 C522 1.246 . S
O528 Tb518 2.453 . S
O528 C524 1.245 . S
O529 Tb516 2.343 . S
O529 Tb518 2.596 . S
O529 C524 1.259 . S
O530 Tb518 2.374 . S
O530 C525 1.250 . S
O531 Tb516 2.353 . S
O531 C525 1.263 . S
C532 O533 1.275 . S
C532 O534 1.246 . S
O533 Tb516 2.427 . S
O533 C532 1.275 . S
O534 Tb516 2.513 . S
O534 C532 1.246 . S
C535 O519 1.245 . S
C535 O520 1.259 . S
Tb536 O539 2.453 . S
Tb536 O540 2.596 1_655 S
Tb536 O541 2.374 . S
Tb536 O549 2.343 . S
Tb536 O551 2.353 . S
Tb536 O553 2.427 . S
Tb536 O554 2.513 . S
C537 O541 1.251 1_455 S
C537 O543 1.263 . S
Tb538 O540 2.343 . S
Tb538 O543 2.353 . S
Tb538 O546 2.427 . S
Tb538 O547 2.513 . S
Tb538 O548 2.453 . S
Tb538 O549 2.596 1_455 S
Tb538 O550 2.374 . S
O539 Tb536 2.453 . S
O539 C555 1.245 1_655 S
O540 Tb536 2.596 1_455 S
O540 Tb538 2.343 . S
O540 C555 1.259 . S
O541 Tb536 2.374 . S
O541 C537 1.251 1_655 S
C542 O546 1.275 . S
C542 O547 1.246 . S
O543 C537 1.263 . S
O543 Tb538 2.353 . S
C544 O548 1.245 1_655 S
C544 O549 1.259 . S
C545 O550 1.252 . S
C545 O551 1.262 1_455 S
O546 Tb538 2.427 . S
O546 C542 1.275 . S
O547 Tb538 2.513 . S
O547 C542 1.246 . S
O548 Tb538 2.453 . S
O548 C544 1.245 1_455 S
O549 Tb536 2.343 . S
O549 Tb538 2.596 1_655 S
O549 C544 1.259 . S
O550 Tb538 2.374 . S
O550 C545 1.252 . S
O551 Tb536 2.353 . S
O551 C545 1.262 1_655 S
C552 O553 1.275 . S
C552 O554 1.246 . S
O553 Tb536 2.427 . S
O553 C552 1.275 . S
O554 Tb536 2.513 . S
O554 C552 1.246 . S
C555 O539 1.245 1_455 S
C555 O540 1.259 . S
Tb556 O559 2.453 . S
Tb556 O560 2.596 . S
Tb556 O561 2.374 . S
Tb556 O569 2.343 . S
Tb556 O571 2.353 . S
Tb556 O573 2.427 . S
Tb556 O574 2.513 . S
C557 O561 1.251 . S
C557 O563 1.263 . S
Tb558 O560 2.343 . S
Tb558 O563 2.353 . S
Tb558 O566 2.427 . S
Tb558 O567 2.513 . S
Tb558 O568 2.453 . S
Tb558 O569 2.596 . S
Tb558 O570 2.374 . S
O559 Tb556 2.453 . S
O559 C575 1.245 . S
O560 Tb556 2.596 . S
O560 Tb558 2.343 . S
O560 C575 1.259 . S
O561 Tb556 2.374 . S
O561 C557 1.251 . S
C562 O566 1.275 . S
C562 O567 1.246 . S
O563 C557 1.263 . S
O563 Tb558 2.353 . S
C564 O568 1.245 . S
C564 O569 1.259 . S
C565 O570 1.250 . S
C565 O571 1.263 . S
O566 Tb558 2.427 . S
O566 C562 1.275 . S
O567 Tb558 2.513 . S
O567 C562 1.246 . S
O568 Tb558 2.453 . S
O568 C564 1.245 . S
O569 Tb556 2.343 . S
O569 Tb558 2.596 . S
O569 C564 1.259 . S
O570 Tb558 2.374 . S
O570 C565 1.250 . S
O571 Tb556 2.353 . S
O571 C565 1.263 . S
C572 O573 1.275 . S
C572 O574 1.246 . S
O573 Tb556 2.427 . S
O573 C572 1.275 . S
O574 Tb556 2.513 . S
O574 C572 1.246 . S
C575 O559 1.245 . S
C575 O560 1.259 . S
Tb576 O579 2.453 . S
Tb576 O580 2.596 . S
Tb576 O581 2.374 . S
Tb576 O589 2.343 . S
Tb576 O591 2.353 . S
Tb576 O593 2.427 . S
Tb576 O594 2.513 . S
C577 O581 1.251 . S
C577 O583 1.263 . S
Tb578 O580 2.343 . S
Tb578 O583 2.353 . S
Tb578 O586 2.427 . S
Tb578 O587 2.513 . S
Tb578 O588 2.453 . S
Tb578 O589 2.596 . S
Tb578 O590 2.374 . S
O579 Tb576 2.453 . S
O579 C595 1.245 . S
O580 Tb576 2.596 . S
O580 Tb578 2.343 . S
O580 C595 1.259 . S
O581 Tb576 2.374 . S
O581 C577 1.251 . S
C582 O586 1.275 . S
C582 O587 1.246 . S
O583 C577 1.263 . S
O583 Tb578 2.353 . S
C584 O588 1.245 . S
C584 O589 1.259 . S
C585 O590 1.250 . S
C585 O591 1.263 . S
O586 Tb578 2.427 . S
O586 C582 1.275 . S
O587 Tb578 2.513 . S
O587 C582 1.246 . S
O588 Tb578 2.453 . S
O588 C584 1.245 . S
O589 Tb576 2.343 . S
O589 Tb578 2.596 . S
O589 C584 1.259 . S
O590 Tb578 2.374 . S
O590 C585 1.250 . S
O591 Tb576 2.353 . S
O591 C585 1.263 . S
C592 O593 1.275 . S
C592 O594 1.246 . S
O593 Tb576 2.427 . S
O593 C592 1.275 . S
O594 Tb576 2.513 . S
O594 C592 1.246 . S
C595 O579 1.245 . S
C595 O580 1.259 . S
Tb596 O599 2.453 . S
Tb596 O600 2.596 . S
Tb596 O601 2.374 . S
Tb596 O609 2.343 . S
Tb596 O611 2.353 . S
Tb596 O613 2.427 . S
Tb596 O614 2.513 . S
C597 O601 1.251 . S
C597 O603 1.263 . S
Tb598 O600 2.343 . S
Tb598 O603 2.353 . S
Tb598 O606 2.427 . S
Tb598 O607 2.513 . S
Tb598 O608 2.453 . S
Tb598 O609 2.596 . S
Tb598 O610 2.374 . S
O599 Tb596 2.453 . S
O599 C615 1.245 . S
O600 Tb596 2.596 . S
O600 Tb598 2.343 . S
O600 C615 1.259 . S
O601 Tb596 2.374 . S
O601 C597 1.251 . S
C602 O606 1.275 . S
C602 O607 1.246 . S
O603 C597 1.263 . S
O603 Tb598 2.353 . S
C604 O608 1.245 . S
C604 O609 1.259 . S
C605 O610 1.250 . S
C605 O611 1.263 . S
O606 Tb598 2.427 . S
O606 C602 1.275 . S
O607 Tb598 2.513 . S
O607 C602 1.246 . S
O608 Tb598 2.453 . S
O608 C604 1.245 . S
O609 Tb596 2.343 . S
O609 Tb598 2.596 . S
O609 C604 1.259 . S
O610 Tb598 2.374 . S
O610 C605 1.250 . S
O611 Tb596 2.353 . S
O611 C605 1.263 . S
C612 O613 1.275 . S
C612 O614 1.246 . S
O613 Tb596 2.427 . S
O613 C612 1.275 . S
O614 Tb596 2.513 . S
O614 C612 1.246 . S
C615 O599 1.245 . S
C615 O600 1.259 . S
Tb616 O619 2.453 . S
Tb616 O620 2.596 . S
Tb616 O621 2.374 . S
Tb616 O629 2.343 . S
Tb616 O631 2.353 . S
Tb616 O633 2.427 . S
Tb616 O634 2.513 . S
C617 O621 1.251 . S
C617 O623 1.263 . S
Tb618 O620 2.343 . S
Tb618 O623 2.353 . S
Tb618 O626 2.427 . S
Tb618 O627 2.513 . S
Tb618 O628 2.453 . S
Tb618 O629 2.596 . S
Tb618 O630 2.374 . S
O619 Tb616 2.453 . S
O619 C635 1.245 . S
O620 Tb616 2.596 . S
O620 Tb618 2.343 . S
O620 C635 1.259 . S
O621 Tb616 2.374 . S
O621 C617 1.251 . S
C622 O626 1.275 . S
C622 O627 1.246 . S
O623 C617 1.263 . S
O623 Tb618 2.353 . S
C624 O628 1.245 . S
C624 O629 1.259 . S
C625 O630 1.250 . S
C625 O631 1.263 . S
O626 Tb618 2.427 . S
O626 C622 1.275 . S
O627 Tb618 2.513 . S
O627 C622 1.246 . S
O628 Tb618 2.453 . S
O628 C624 1.245 . S
O629 Tb616 2.343 . S
O629 Tb618 2.596 . S
O629 C624 1.259 . S
O630 Tb618 2.374 . S
O630 C625 1.250 . S
O631 Tb616 2.353 . S
O631 C625 1.263 . S
C632 O633 1.275 . S
C632 O634 1.246 . S
O633 Tb616 2.427 . S
O633 C632 1.275 . S
O634 Tb616 2.513 . S
O634 C632 1.246 . S
C635 O619 1.245 . S
C635 O620 1.259 . S
Tb636 O639 2.453 . S
Tb636 O640 2.644 . S
Tb636 O641 2.374 . S
Tb636 O649 2.343 . S
Tb636 O651 2.353 1_554 S
Tb636 O653 2.427 1_554 S
Tb636 O654 2.513 . S
C637 O641 1.251 . S
C637 O643 1.263 1_455 S
Tb638 O640 2.313 1_655 S
Tb638 O643 2.353 . S
Tb638 O646 2.427 . S
Tb638 O647 2.513 . S
Tb638 O648 2.453 . S
Tb638 O649 2.596 1_655 S
Tb638 O650 2.374 1_554 S
O639 Tb636 2.453 . S
O639 C655 1.245 . S
O640 Tb636 2.644 . S
O640 Tb638 2.313 1_455 S
O640 C655 1.279 . S
O641 Tb636 2.374 . S
O641 C637 1.251 . S
C642 O646 1.275 . S
C642 O647 1.246 . S
O643 C637 1.263 1_655 S
O643 Tb638 2.353 . S
C644 O648 1.263 . S
C644 O649 1.267 1_655 S
C645 O650 1.250 . S
C645 O651 1.263 1_655 S
O646 Tb638 2.427 . S
O646 C642 1.275 . S
O647 Tb638 2.513 . S
O647 C642 1.246 . S
O648 Tb638 2.453 . S
O648 C644 1.263 . S
O649 Tb636 2.343 . S
O649 Tb638 2.596 1_455 S
O649 C644 1.267 1_455 S
O650 Tb638 2.374 1_556 S
O650 C645 1.250 . S
O651 Tb636 2.353 1_556 S
O651 C645 1.263 1_455 S
C652 O653 1.275 1_554 S
C652 O654 1.246 . S
O653 Tb636 2.427 1_556 S
O653 C652 1.275 1_556 S
O654 Tb636 2.513 . S
O654 C652 1.246 . S
C655 O639 1.245 . S
C655 O640 1.279 . S
H656 C664 0.929 . S
H657 C666 0.930 . S
H658 C668 0.930 . S
H659 C671 0.929 . S
H660 C674 0.930 . S
H661 C676 0.960 . S
H662 C676 0.960 . S
H663 C676 0.960 . S
C664 H656 0.929 . S
C664 C665 1.377 . S
C664 C666 1.384 . S
C665 C664 1.377 . S
C665 C671 1.390 . S
C666 H657 0.930 . S
C666 C664 1.384 . S
C666 C667 1.372 . S
C667 C666 1.372 . S
C667 C668 1.400 . S
C667 C672 1.490 . S
C668 H658 0.930 . S
C668 C667 1.400 . S
C668 C671 1.386 . S
H669 C685 0.930 . S
H670 C686 0.931 . S
C671 H659 0.929 . S
C671 C665 1.390 . S
C671 C668 1.386 . S
C672 C667 1.490 . S
C672 C674 1.395 1_455 S
C672 C675 1.403 . S
H673 C679 0.930 . S
C674 H660 0.930 . S
C674 C672 1.395 1_655 S
C674 C677 1.403 . S
C675 C672 1.403 . S
C675 C676 1.524 . S
C675 C679 1.400 . S
C676 H661 0.960 . S
C676 H662 0.960 . S
C676 H663 0.960 . S
C676 C675 1.524 . S
C677 C674 1.403 . S
C677 C678 1.392 1_655 S
C677 C681 1.495 . S
C678 C677 1.392 1_455 S
C678 C679 1.385 . S
C678 C680 1.478 . S
C679 H673 0.930 . S
C679 C675 1.400 . S
C679 C678 1.385 . S
C680 C678 1.478 . S
C680 C682 1.431 . S
C680 C686 1.383 . S
C681 C677 1.495 . S
C681 H687 0.959 . S
C681 H688 0.961 . S
C681 H689 0.960 . S
C682 C680 1.431 . S
C682 C683 1.366 1_556 S
C682 H690 0.909 1_556 S
C683 C682 1.366 1_554 S
C683 C684 1.372 1_554 S
C683 H691 0.929 . S
C684 C683 1.372 1_556 S
C684 C685 1.404 . S
C685 H669 0.930 . S
C685 C684 1.404 . S
C685 C686 1.379 . S
C686 H670 0.931 . S
C686 C680 1.383 . S
C686 C685 1.379 . S
H687 C681 0.959 . S
H688 C681 0.961 . S
H689 C681 0.960 . S
H690 C682 0.909 1_554 S
H691 C683 0.929 . S
H692 C700 0.929 . S
H693 C702 0.930 . S
H694 C704 0.930 . S
H695 C707 0.929 . S
H696 C710 0.930 . S
H697 C712 0.960 . S
H698 C712 0.960 . S
H699 C712 0.960 . S
C700 H692 0.929 . S
C700 C701 1.377 . S
C700 C702 1.384 . S
C701 C700 1.377 . S
C701 C707 1.390 . S
C702 H693 0.930 . S
C702 C700 1.384 . S
C702 C703 1.372 . S
C703 C702 1.372 . S
C703 C704 1.400 . S
C703 C708 1.490 . S
C704 H694 0.930 . S
C704 C703 1.400 . S
C704 C707 1.386 . S
H705 C721 0.930 . S
H706 C722 0.931 . S
C707 H695 0.929 . S
C707 C701 1.390 . S
C707 C704 1.386 . S
C708 C703 1.490 . S
C708 C710 1.395 . S
C708 C711 1.403 . S
H709 C715 0.930 . S
C710 H696 0.930 . S
C710 C708 1.395 . S
C710 C713 1.403 . S
C711 C708 1.403 . S
C711 C712 1.524 . S
C711 C715 1.400 . S
C712 H697 0.960 . S
C712 H698 0.960 . S
C712 H699 0.960 . S
C712 C711 1.524 . S
C713 C710 1.403 . S
C713 C714 1.392 . S
C713 C717 1.495 . S
C714 C713 1.392 . S
C714 C715 1.385 . S
C714 C716 1.478 . S
C715 H709 0.930 . S
C715 C711 1.400 . S
C715 C714 1.385 . S
C716 C714 1.478 . S
C716 C718 1.381 . S
C716 C722 1.383 . S
C717 C713 1.495 . S
C717 H723 0.959 . S
C717 H724 0.961 . S
C717 H725 0.960 . S
C718 C716 1.381 . S
C718 C719 1.394 . S
C718 H726 0.930 . S
C719 C718 1.394 . S
C719 C720 1.383 . S
C719 H727 0.929 . S
C720 C719 1.383 . S
C720 C721 1.377 . S
C721 H705 0.930 . S
C721 C720 1.377 . S
C721 C722 1.379 . S
C722 H706 0.931 . S
C722 C716 1.383 . S
C722 C721 1.379 . S
H723 C717 0.959 . S
H724 C717 0.961 . S
H725 C717 0.960 . S
H726 C718 0.930 . S
H727 C719 0.929 . S
H728 C736 0.929 . S
H729 C738 0.930 . S
H730 C740 0.930 . S
H731 C743 0.929 . S
H732 C746 0.930 . S
H733 C748 0.960 . S
H734 C748 0.960 . S
H735 C748 0.960 . S
C736 H728 0.929 . S
C736 C737 1.377 . S
C736 C738 1.384 . S
C737 C736 1.377 . S
C737 C743 1.390 . S
C738 H729 0.930 . S
C738 C736 1.384 . S
C738 C739 1.372 . S
C739 C738 1.372 . S
C739 C740 1.400 . S
C739 C744 1.490 . S
C740 H730 0.930 . S
C740 C739 1.400 . S
C740 C743 1.386 . S
H741 C757 0.930 . S
H742 C758 0.931 . S
C743 H731 0.929 . S
C743 C737 1.390 . S
C743 C740 1.386 . S
C744 C739 1.490 . S
C744 C746 1.395 . S
C744 C747 1.403 . S
H745 C751 0.930 . S
C746 H732 0.930 . S
C746 C744 1.395 . S
C746 C749 1.403 . S
C747 C744 1.403 . S
C747 C748 1.524 . S
C747 C751 1.400 . S
C748 H733 0.960 . S
C748 H734 0.960 . S
C748 H735 0.960 . S
C748 C747 1.524 . S
C749 C746 1.403 . S
C749 C750 1.392 . S
C749 C753 1.495 . S
C750 C749 1.392 . S
C750 C751 1.385 . S
C750 C752 1.478 . S
C751 H745 0.930 . S
C751 C747 1.400 . S
C751 C750 1.385 . S
C752 C750 1.478 . S
C752 C754 1.381 . S
C752 C758 1.383 . S
C753 C749 1.495 . S
C753 H759 0.959 . S
C753 H760 0.961 . S
C753 H761 0.960 . S
C754 C752 1.381 . S
C754 C755 1.394 . S
C754 H762 0.930 . S
C755 C754 1.394 . S
C755 C756 1.383 . S
C755 H763 0.929 . S
C756 C755 1.383 . S
C756 C757 1.377 . S
C757 H741 0.930 . S
C757 C756 1.377 . S
C757 C758 1.379 . S
C758 H742 0.931 . S
C758 C752 1.383 . S
C758 C757 1.379 . S
H759 C753 0.959 . S
H760 C753 0.961 . S
H761 C753 0.960 . S
H762 C754 0.930 . S
H763 C755 0.929 . S
H764 C772 0.929 . S
H765 C774 0.930 . S
H766 C776 0.930 . S
H767 C779 0.929 . S
H768 C782 0.930 . S
H769 C784 0.960 . S
H770 C784 0.960 . S
H771 C784 0.960 . S
C772 H764 0.929 . S
C772 C773 1.377 . S
C772 C774 1.384 . S
C773 C772 1.377 . S
C773 C779 1.390 . S
C774 H765 0.930 . S
C774 C772 1.384 . S
C774 C775 1.372 . S
C775 C774 1.372 . S
C775 C776 1.400 . S
C775 C780 1.490 . S
C776 H766 0.930 . S
C776 C775 1.400 . S
C776 C779 1.386 . S
H777 C793 0.930 . S
H778 C794 0.931 . S
C779 H767 0.929 . S
C779 C773 1.390 . S
C779 C776 1.386 . S
C780 C775 1.490 . S
C780 C782 1.395 . S
C780 C783 1.403 . S
H781 C787 0.930 . S
C782 H768 0.930 . S
C782 C780 1.395 . S
C782 C785 1.403 . S
C783 C780 1.403 . S
C783 C784 1.524 . S
C783 C787 1.400 . S
C784 H769 0.960 . S
C784 H770 0.960 . S
C784 H771 0.960 . S
C784 C783 1.524 . S
C785 C782 1.403 . S
C785 C786 1.392 . S
C785 C789 1.495 . S
C786 C785 1.392 . S
C786 C787 1.385 . S
C786 C788 1.478 . S
C787 H781 0.930 . S
C787 C783 1.400 . S
C787 C786 1.385 . S
C788 C786 1.478 . S
C788 C790 1.381 . S
C788 C794 1.383 . S
C789 C785 1.495 . S
C789 H795 0.959 . S
C789 H796 0.961 . S
C789 H797 0.960 . S
C790 C788 1.381 . S
C790 C791 1.394 . S
C790 H798 0.930 . S
C791 C790 1.394 . S
C791 C792 1.383 . S
C791 H799 0.929 . S
C792 C791 1.383 . S
C792 C793 1.377 . S
C793 H777 0.930 . S
C793 C792 1.377 . S
C793 C794 1.379 . S
C794 H778 0.931 . S
C794 C788 1.383 . S
C794 C793 1.379 . S
H795 C789 0.959 . S
H796 C789 0.961 . S
H797 C789 0.960 . S
H798 C790 0.930 . S
H799 C791 0.929 . S
H800 C808 0.929 . S
H801 C810 0.930 . S
H802 C812 0.930 . S
H803 C815 0.929 . S
H804 C818 0.930 . S
H805 C820 0.960 . S
H806 C820 0.948 1_455 S
H807 C820 0.960 . S
C808 H800 0.929 . S
C808 C809 1.377 . S
C808 C810 1.384 . S
C809 C808 1.377 . S
C809 C815 1.390 1_455 S
C810 H801 0.930 . S
C810 C808 1.384 . S
C810 C811 1.372 . S
C811 C810 1.372 . S
C811 C812 1.400 1_455 S
C811 C816 1.490 . S
C812 H802 0.930 . S
C812 C811 1.400 1_655 S
C812 C815 1.386 . S
H813 C829 0.930 . S
H814 C830 0.931 . S
C815 H803 0.929 . S
C815 C809 1.390 1_655 S
C815 C812 1.386 . S
C816 C811 1.490 . S
C816 C818 1.395 . S
C816 C819 1.413 . S
H817 C823 0.930 1_655 S
C818 H804 0.930 . S
C818 C816 1.395 . S
C818 C821 1.403 . S
C819 C816 1.413 . S
C819 C820 1.515 1_455 S
C819 C823 1.399 . S
C820 H805 0.960 . S
C820 H806 0.948 1_655 S
C820 H807 0.960 . S
C820 C819 1.515 1_655 S
C821 C818 1.403 . S
C821 C822 1.392 . S
C821 C825 1.495 . S
C822 C821 1.392 . S
C822 C823 1.385 . S
C822 C824 1.478 . S
C823 H817 0.930 1_455 S
C823 C819 1.399 . S
C823 C822 1.385 . S
C824 C822 1.478 . S
C824 C826 1.381 . S
C824 C830 1.383 1_455 S
C825 C821 1.495 . S
C825 H831 0.959 . S
C825 H832 0.961 . S
C825 H833 0.960 . S
C826 C824 1.381 . S
C826 C827 1.394 . S
C826 H834 0.930 . S
C827 C826 1.394 . S
C827 C828 1.383 . S
C827 H835 0.929 . S
C828 C827 1.383 . S
C828 C829 1.377 1_455 S
C829 H813 0.930 . S
C829 C828 1.377 1_655 S
C829 C830 1.379 . S
C830 H814 0.931 . S
C830 C824 1.383 1_655 S
C830 C829 1.379 . S
H831 C825 0.959 . S
H832 C825 0.961 . S
H833 C825 0.960 . S
H834 C826 0.930 . S
H835 C827 0.929 . S
H836 C844 0.929 . S
H837 C846 0.930 . S
H838 C848 0.930 . S
H839 C851 0.929 . S
H840 C854 0.930 . S
H841 C856 0.960 . S
H842 C856 0.960 . S
H843 C856 0.960 . S
C844 H836 0.929 . S
C844 C845 1.377 . S
C844 C846 1.384 . S
C845 C844 1.377 . S
C845 C851 1.390 . S
C846 H837 0.930 . S
C846 C844 1.384 . S
C846 C847 1.372 . S
C847 C846 1.372 . S
C847 C848 1.400 . S
C847 C852 1.490 . S
C848 H838 0.930 . S
C848 C847 1.400 . S
C848 C851 1.386 . S
H849 C865 0.930 . S
H850 C866 0.931 . S
C851 H839 0.929 . S
C851 C845 1.390 . S
C851 C848 1.386 . S
C852 C847 1.490 . S
C852 C854 1.395 . S
C852 C855 1.403 . S
H853 C859 0.930 . S
C854 H840 0.930 . S
C854 C852 1.395 . S
C854 C857 1.403 . S
C855 C852 1.403 . S
C855 C856 1.524 . S
C855 C859 1.400 . S
C856 H841 0.960 . S
C856 H842 0.960 . S
C856 H843 0.960 . S
C856 C855 1.524 . S
C857 C854 1.403 . S
C857 C858 1.392 . S
C857 C861 1.495 . S
C858 C857 1.392 . S
C858 C859 1.385 . S
C858 C860 1.478 . S
C859 H853 0.930 . S
C859 C855 1.400 . S
C859 C858 1.385 . S
C860 C858 1.478 . S
C860 C862 1.381 . S
C860 C866 1.383 . S
C861 C857 1.495 . S
C861 H867 0.959 . S
C861 H868 0.961 . S
C861 H869 0.960 . S
C862 C860 1.381 . S
C862 C863 1.394 . S
C862 H870 0.930 . S
C863 C862 1.394 . S
C863 C864 1.383 . S
C863 H871 0.929 . S
C864 C863 1.383 . S
C864 C865 1.377 . S
C865 H849 0.930 . S
C865 C864 1.377 . S
C865 C866 1.379 . S
C866 H850 0.931 . S
C866 C860 1.383 . S
C866 C865 1.379 . S
H867 C861 0.959 . S
H868 C861 0.961 . S
H869 C861 0.960 . S
H870 C862 0.930 . S
H871 C863 0.929 . S
H872 C880 0.929 . S
H873 C882 0.930 . S
H874 C884 0.930 . S
H875 C887 0.929 . S
H876 C890 0.930 . S
H877 C892 0.960 . S
H878 C892 0.960 . S
H879 C892 0.960 . S
C880 H872 0.929 . S
C880 C881 1.377 . S
C880 C882 1.384 . S
C881 C880 1.377 . S
C881 C887 1.390 . S
C882 H873 0.930 . S
C882 C880 1.384 . S
C882 C883 1.372 . S
C883 C882 1.372 . S
C883 C884 1.400 . S
C883 C888 1.490 . S
C884 H874 0.930 . S
C884 C883 1.400 . S
C884 C887 1.386 . S
H885 C901 0.930 . S
H886 C902 0.931 . S
C887 H875 0.929 . S
C887 C881 1.390 . S
C887 C884 1.386 . S
C888 C883 1.490 . S
C888 C890 1.395 . S
C888 C891 1.403 . S
H889 C895 0.930 . S
C890 H876 0.930 . S
C890 C888 1.395 . S
C890 C893 1.403 . S
C891 C888 1.403 . S
C891 C892 1.524 . S
C891 C895 1.400 . S
C892 H877 0.960 . S
C892 H878 0.960 . S
C892 H879 0.960 . S
C892 C891 1.524 . S
C893 C890 1.403 . S
C893 C894 1.392 . S
C893 C897 1.495 . S
C894 C893 1.392 . S
C894 C895 1.385 . S
C894 C896 1.478 . S
C895 H889 0.930 . S
C895 C891 1.400 . S
C895 C894 1.385 . S
C896 C894 1.478 . S
C896 C898 1.381 . S
C896 C902 1.383 . S
C897 C893 1.495 . S
C897 H903 0.959 . S
C897 H904 0.961 . S
C897 H905 0.960 . S
C898 C896 1.381 . S
C898 C899 1.394 . S
C898 H906 0.930 . S
C899 C898 1.394 . S
C899 C900 1.383 . S
C899 H907 0.929 . S
C900 C899 1.383 . S
C900 C901 1.377 . S
C901 H885 0.930 . S
C901 C900 1.377 . S
C901 C902 1.379 . S
C902 H886 0.931 . S
C902 C896 1.383 . S
C902 C901 1.379 . S
H903 C897 0.959 . S
H904 C897 0.961 . S
H905 C897 0.960 . S
H906 C898 0.930 . S
H907 C899 0.929 . S
H908 C916 0.929 . S
H909 C918 0.930 . S
H910 C920 0.930 . S
H911 C923 0.929 . S
H912 C926 0.930 . S
H913 C928 0.960 . S
H914 C928 0.960 . S
H915 C928 0.960 . S
C916 H908 0.929 . S
C916 C917 1.377 . S
C916 C918 1.384 . S
C917 C916 1.377 . S
C917 C923 1.390 . S
C918 H909 0.930 . S
C918 C916 1.384 . S
C918 C919 1.372 . S
C919 C918 1.372 . S
C919 C920 1.400 . S
C919 C924 1.490 . S
C920 H910 0.930 . S
C920 C919 1.400 . S
C920 C923 1.386 . S
H921 C937 0.930 . S
H922 C938 0.931 . S
C923 H911 0.929 . S
C923 C917 1.390 . S
C923 C920 1.386 . S
C924 C919 1.490 . S
C924 C926 1.395 . S
C924 C927 1.403 . S
H925 C931 0.930 . S
C926 H912 0.930 . S
C926 C924 1.395 . S
C926 C929 1.403 . S
C927 C924 1.403 . S
C927 C928 1.524 . S
C927 C931 1.400 . S
C928 H913 0.960 . S
C928 H914 0.960 . S
C928 H915 0.960 . S
C928 C927 1.524 . S
C929 C926 1.403 . S
C929 C930 1.392 . S
C929 C933 1.495 . S
C930 C929 1.392 . S
C930 C931 1.385 . S
C930 C932 1.478 . S
C931 H925 0.930 . S
C931 C927 1.400 . S
C931 C930 1.385 . S
C932 C930 1.478 . S
C932 C934 1.381 . S
C932 C938 1.383 . S
C933 C929 1.495 . S
C933 H939 0.959 . S
C933 H940 0.961 . S
C933 H941 0.960 . S
C934 C932 1.381 . S
C934 C935 1.394 . S
C934 H942 0.930 . S
C935 C934 1.394 . S
C935 C936 1.383 . S
C935 H943 0.929 . S
C936 C935 1.383 . S
C936 C937 1.377 . S
C937 H921 0.930 . S
C937 C936 1.377 . S
C937 C938 1.379 . S
C938 H922 0.931 . S
C938 C932 1.383 . S
C938 C937 1.379 . S
H939 C933 0.959 . S
H940 C933 0.961 . S
H941 C933 0.960 . S
H942 C934 0.930 . S
H943 C935 0.929 . S
H944 C952 0.929 . S
H945 C954 0.930 . S
H946 C956 0.930 . S
H947 C959 0.929 . S
H948 C962 0.930 . S
H949 C964 0.960 . S
H950 C964 0.960 . S
H951 C964 0.960 . S
C952 H944 0.929 . S
C952 C953 1.377 . S
C952 C954 1.384 . S
C953 C952 1.377 . S
C953 C959 1.390 . S
C954 H945 0.930 . S
C954 C952 1.384 . S
C954 C955 1.372 . S
C955 C954 1.372 . S
C955 C956 1.400 . S
C955 C960 1.490 . S
C956 H946 0.930 . S
C956 C955 1.400 . S
C956 C959 1.386 . S
H957 C973 0.953 . S
H958 C974 0.931 . S
C959 H947 0.929 . S
C959 C953 1.390 . S
C959 C956 1.386 . S
C960 C955 1.490 . S
C960 C962 1.395 . S
C960 C963 1.403 . S
H961 C967 0.930 . S
C962 H948 0.930 . S
C962 C960 1.395 . S
C962 C965 1.403 . S
C963 C960 1.403 . S
C963 C964 1.524 . S
C963 C967 1.400 . S
C964 H949 0.960 . S
C964 H950 0.960 . S
C964 H951 0.960 . S
C964 C963 1.524 . S
C965 C962 1.403 . S
C965 C966 1.392 . S
C965 C969 1.495 1_655 S
C966 C965 1.392 . S
C966 C967 1.385 . S
C966 C968 1.478 . S
C967 H961 0.930 . S
C967 C963 1.400 . S
C967 C966 1.385 . S
C968 C966 1.478 . S
C968 C970 1.381 . S
C968 C974 1.383 . S
C969 C965 1.495 1_455 S
C969 H975 0.959 . S
C969 H976 0.961 . S
C969 H977 0.960 . S
C970 C968 1.381 . S
C970 C971 1.394 . S
C970 H978 0.930 . S
C971 C970 1.394 . S
C971 C972 1.413 . S
C971 H979 0.929 . S
C972 C971 1.413 . S
C972 C973 1.382 . S
C973 H957 0.953 . S
C973 C972 1.382 . S
C973 C974 1.379 . S
C974 H958 0.931 . S
C974 C968 1.383 . S
C974 C973 1.379 . S
H975 C969 0.959 . S
H976 C969 0.961 . S
H977 C969 0.960 . S
H978 C970 0.930 . S
H979 C971 0.929 . S
H980 C988 0.929 . S
H981 C990 0.930 . S
H982 C992 0.930 . S
H983 C995 0.929 . S
H984 C998 0.930 . S
H985 C1000 0.960 . S
H986 C1000 0.960 . S
H987 C1000 0.960 . S
C988 H980 0.929 . S
C988 C989 1.377 . S
C988 C990 1.384 . S
C989 C988 1.377 . S
C989 C995 1.390 . S
C990 H981 0.930 . S
C990 C988 1.384 . S
C990 C991 1.372 . S
C991 C990 1.372 . S
C991 C992 1.400 . S
C991 C996 1.490 . S
C992 H982 0.930 . S
C992 C991 1.400 . S
C992 C995 1.386 . S
H993 C1009 0.930 . S
H994 C1010 0.931 . S
C995 H983 0.929 . S
C995 C989 1.390 . S
C995 C992 1.386 . S
C996 C991 1.490 . S
C996 C998 1.395 . S
C996 C999 1.403 . S
H997 C1003 0.930 . S
C998 H984 0.930 . S
C998 C996 1.395 . S
C998 C1001 1.403 . S
C999 C996 1.403 . S
C999 C1000 1.524 . S
C999 C1003 1.400 . S
C1000 H985 0.960 . S
C1000 H986 0.960 . S
C1000 H987 0.960 . S
C1000 C999 1.524 . S
C1001 C998 1.403 . S
C1001 C1002 1.392 . S
C1001 C1005 1.495 . S
C1002 C1001 1.392 . S
C1002 C1003 1.385 . S
C1002 C1004 1.478 . S
C1003 H997 0.930 . S
C1003 C999 1.400 . S
C1003 C1002 1.385 . S
C1004 C1002 1.478 . S
C1004 C1006 1.381 . S
C1004 C1010 1.383 . S
C1005 C1001 1.495 . S
C1005 H1011 0.959 . S
C1005 H1012 0.961 . S
C1005 H1013 0.960 . S
C1006 C1004 1.381 . S
C1006 C1007 1.394 . S
C1006 H1014 0.930 . S
C1007 C1006 1.394 . S
C1007 C1008 1.383 . S
C1007 H1015 0.929 . S
C1008 C1007 1.383 . S
C1008 C1009 1.377 . S
C1009 H993 0.930 . S
C1009 C1008 1.377 . S
C1009 C1010 1.379 . S
C1010 H994 0.931 . S
C1010 C1004 1.383 . S
C1010 C1009 1.379 . S
H1011 C1005 0.959 . S
H1012 C1005 0.961 . S
H1013 C1005 0.960 . S
H1014 C1006 0.930 . S
H1015 C1007 0.929 . S
H1016 C1024 0.929 1_565 S
H1017 C1026 0.913 1_565 S
H1018 C1028 0.930 . S
H1019 C1031 0.929 . S
H1020 C1034 0.930 . S
H1021 C1036 0.960 . S
H1022 C1036 0.960 . S
H1023 C1036 0.960 . S
C1024 H1016 0.929 1_545 S
C1024 C1025 1.377 . S
C1024 C1026 1.384 . S
C1025 C1024 1.377 . S
C1025 C1031 1.390 . S
C1026 H1017 0.913 1_545 S
C1026 C1024 1.384 . S
C1026 C1027 1.372 . S
C1027 C1026 1.372 . S
C1027 C1028 1.400 . S
C1027 C1032 1.490 . S
C1028 H1018 0.930 . S
C1028 C1027 1.400 . S
C1028 C1031 1.386 . S
H1029 C1045 0.930 . S
H1030 C1046 0.931 . S
C1031 H1019 0.929 . S
C1031 C1025 1.390 . S
C1031 C1028 1.386 . S
C1032 C1027 1.490 . S
C1032 C1034 1.395 1_545 S
C1032 C1035 1.403 . S
H1033 C1039 0.930 . S
C1034 H1020 0.930 . S
C1034 C1032 1.395 1_565 S
C1034 C1037 1.403 . S
C1035 C1032 1.403 . S
C1035 C1036 1.524 . S
C1035 C1039 1.400 . S
C1036 H1021 0.960 . S
C1036 H1022 0.960 . S
C1036 H1023 0.960 . S
C1036 C1035 1.524 . S
C1037 C1034 1.403 . S
C1037 C1038 1.392 1_565 S
C1037 C1041 1.495 . S
C1038 C1037 1.392 1_545 S
C1038 C1039 1.385 . S
C1038 C1040 1.478 . S
C1039 H1033 0.930 . S
C1039 C1035 1.400 . S
C1039 C1038 1.385 . S
C1040 C1038 1.478 . S
C1040 C1042 1.381 . S
C1040 C1046 1.383 . S
C1041 C1037 1.495 . S
C1041 H1047 0.959 . S
C1041 H1048 0.961 . S
C1041 H1049 0.960 . S
C1042 C1040 1.381 . S
C1042 C1043 1.394 . S
C1042 H1050 0.930 . S
C1043 C1042 1.394 . S
C1043 C1044 1.383 . S
C1043 H1051 0.929 . S
C1044 C1043 1.383 . S
C1044 C1045 1.377 . S
C1045 H1029 0.930 . S
C1045 C1044 1.377 . S
C1045 C1046 1.379 . S
C1046 H1030 0.931 . S
C1046 C1040 1.383 . S
C1046 C1045 1.379 . S
H1047 C1041 0.959 . S
H1048 C1041 0.961 . S
H1049 C1041 0.960 . S
H1050 C1042 0.930 . S
H1051 C1043 0.929 . S
H1052 C1060 0.929 . S
H1053 C1062 0.930 . S
H1054 C1064 0.930 . S
H1055 C1067 0.929 . S
H1056 C1070 0.930 . S
H1057 C1072 0.960 . S
H1058 C1072 0.960 . S
H1059 C1072 0.960 . S
C1060 H1052 0.929 . S
C1060 C1061 1.377 . S
C1060 C1062 1.384 . S
C1061 C1060 1.377 . S
C1061 C1067 1.390 . S
C1062 H1053 0.930 . S
C1062 C1060 1.384 . S
C1062 C1063 1.372 . S
C1063 C1062 1.372 . S
C1063 C1064 1.400 . S
C1063 C1068 1.490 . S
C1064 H1054 0.930 . S
C1064 C1063 1.400 . S
C1064 C1067 1.386 . S
H1065 C1081 0.930 . S
H1066 C1082 0.931 . S
C1067 H1055 0.929 . S
C1067 C1061 1.390 . S
C1067 C1064 1.386 . S
C1068 C1063 1.490 . S
C1068 C1070 1.395 . S
C1068 C1071 1.403 . S
H1069 C1075 0.930 . S
C1070 H1056 0.930 . S
C1070 C1068 1.395 . S
C1070 C1073 1.403 . S
C1071 C1068 1.403 . S
C1071 C1072 1.524 . S
C1071 C1075 1.400 . S
C1072 H1057 0.960 . S
C1072 H1058 0.960 . S
C1072 H1059 0.960 . S
C1072 C1071 1.524 . S
C1073 C1070 1.403 . S
C1073 C1074 1.392 . S
C1073 C1077 1.495 . S
C1074 C1073 1.392 . S
C1074 C1075 1.385 . S
C1074 C1076 1.478 . S
C1075 H1069 0.930 . S
C1075 C1071 1.400 . S
C1075 C1074 1.385 . S
C1076 C1074 1.478 . S
C1076 C1078 1.381 . S
C1076 C1082 1.383 . S
C1077 C1073 1.495 . S
C1077 H1083 0.959 . S
C1077 H1084 0.961 . S
C1077 H1085 0.960 . S
C1078 C1076 1.381 . S
C1078 C1079 1.394 . S
C1078 H1086 0.930 . S
C1079 C1078 1.394 . S
C1079 C1080 1.383 . S
C1079 H1087 0.929 . S
C1080 C1079 1.383 . S
C1080 C1081 1.377 . S
C1081 H1065 0.930 . S
C1081 C1080 1.377 . S
C1081 C1082 1.379 . S
C1082 H1066 0.931 . S
C1082 C1076 1.383 . S
C1082 C1081 1.379 . S
H1083 C1077 0.959 . S
H1084 C1077 0.961 . S
H1085 C1077 0.960 . S
H1086 C1078 0.930 . S
H1087 C1079 0.929 . S
H1088 C1096 0.929 . S
H1089 C1098 0.930 . S
H1090 C1100 0.930 . S
H1091 C1103 0.929 . S
H1092 C1106 0.930 . S
H1093 C1108 0.960 . S
H1094 C1108 0.960 . S
H1095 C1108 0.960 . S
C1096 H1088 0.929 . S
C1096 C1097 1.377 . S
C1096 C1098 1.384 . S
C1097 C1096 1.377 . S
C1097 C1103 1.390 . S
C1098 H1089 0.930 . S
C1098 C1096 1.384 . S
C1098 C1099 1.372 . S
C1099 C1098 1.372 . S
C1099 C1100 1.400 . S
C1099 C1104 1.490 . S
C1100 H1090 0.930 . S
C1100 C1099 1.400 . S
C1100 C1103 1.386 . S
H1101 C1117 0.930 . S
H1102 C1118 0.931 . S
C1103 H1091 0.929 . S
C1103 C1097 1.390 . S
C1103 C1100 1.386 . S
C1104 C1099 1.490 . S
C1104 C1106 1.395 . S
C1104 C1107 1.403 . S
H1105 C1111 0.930 . S
C1106 H1092 0.930 . S
C1106 C1104 1.395 . S
C1106 C1109 1.403 . S
C1107 C1104 1.403 . S
C1107 C1108 1.524 . S
C1107 C1111 1.400 . S
C1108 H1093 0.960 . S
C1108 H1094 0.960 . S
C1108 H1095 0.960 . S
C1108 C1107 1.524 . S
C1109 C1106 1.403 . S
C1109 C1110 1.392 . S
C1109 C1113 1.495 1_655 S
C1110 C1109 1.392 . S
C1110 C1111 1.385 . S
C1110 C1112 1.478 . S
C1111 H1105 0.930 . S
C1111 C1107 1.400 . S
C1111 C1110 1.385 . S
C1112 C1110 1.478 . S
C1112 C1114 1.381 . S
C1112 C1118 1.383 . S
C1113 C1109 1.495 1_455 S
C1113 H1119 0.959 . S
C1113 H1120 0.961 . S
C1113 H1121 0.960 . S
C1114 C1112 1.381 . S
C1114 C1115 1.394 . S
C1114 H1122 0.930 . S
C1115 C1114 1.394 . S
C1115 C1116 1.383 . S
C1115 H1123 0.929 1_655 S
C1116 C1115 1.383 . S
C1116 C1117 1.377 . S
C1117 H1101 0.930 . S
C1117 C1116 1.377 . S
C1117 C1118 1.379 . S
C1118 H1102 0.931 . S
C1118 C1112 1.383 . S
C1118 C1117 1.379 . S
H1119 C1113 0.959 . S
H1120 C1113 0.961 . S
H1121 C1113 0.960 . S
H1122 C1114 0.930 . S
H1123 C1115 0.929 1_455 S
H1124 C1132 0.929 . S
H1125 C1134 0.930 . S
H1126 C1136 0.930 . S
H1127 C1139 0.929 . S
H1128 C1142 0.930 . S
H1129 C1144 0.960 . S
H1130 C1144 0.960 . S
H1131 C1144 0.960 . S
C1132 H1124 0.929 . S
C1132 C1133 1.377 . S
C1132 C1134 1.384 . S
C1133 C1132 1.377 . S
C1133 C1139 1.390 . S
C1134 H1125 0.930 . S
C1134 C1132 1.384 . S
C1134 C1135 1.372 . S
C1135 C1134 1.372 . S
C1135 C1136 1.400 . S
C1135 C1140 1.490 . S
C1136 H1126 0.930 . S
C1136 C1135 1.400 . S
C1136 C1139 1.386 . S
H1137 C1153 0.930 . S
H1138 C1154 0.931 . S
C1139 H1127 0.929 . S
C1139 C1133 1.390 . S
C1139 C1136 1.386 . S
C1140 C1135 1.490 . S
C1140 C1142 1.395 . S
C1140 C1143 1.403 . S
H1141 C1147 0.930 . S
C1142 H1128 0.930 . S
C1142 C1140 1.395 . S
C1142 C1145 1.403 . S
C1143 C1140 1.403 . S
C1143 C1144 1.524 . S
C1143 C1147 1.400 . S
C1144 H1129 0.960 . S
C1144 H1130 0.960 . S
C1144 H1131 0.960 . S
C1144 C1143 1.524 . S
C1145 C1142 1.403 . S
C1145 C1146 1.392 . S
C1145 C1149 1.495 . S
C1146 C1145 1.392 . S
C1146 C1147 1.385 . S
C1146 C1148 1.478 . S
C1147 H1141 0.930 . S
C1147 C1143 1.400 . S
C1147 C1146 1.385 . S
C1148 C1146 1.478 . S
C1148 C1150 1.381 . S
C1148 C1154 1.383 . S
C1149 C1145 1.495 . S
C1149 H1155 0.959 . S
C1149 H1156 0.961 . S
C1149 H1157 0.960 . S
C1150 C1148 1.381 . S
C1150 C1151 1.394 . S
C1150 H1158 0.930 . S
C1151 C1150 1.394 . S
C1151 C1152 1.383 . S
C1151 H1159 0.929 . S
C1152 C1151 1.383 . S
C1152 C1153 1.377 . S
C1153 H1137 0.930 . S
C1153 C1152 1.377 . S
C1153 C1154 1.379 . S
C1154 H1138 0.931 . S
C1154 C1148 1.383 . S
C1154 C1153 1.379 . S
H1155 C1149 0.959 . S
H1156 C1149 0.961 . S
H1157 C1149 0.960 . S
H1158 C1150 0.930 . S
H1159 C1151 0.929 . S
H1160 C1168 0.900 1_565 S
H1161 C1170 0.930 . S
H1162 C1172 0.930 . S
H1163 C1175 0.929 . S
H1164 C1178 0.930 1_565 S
H1165 C1180 0.960 . S
H1166 C1180 0.960 . S
H1167 C1180 0.960 . S
C1168 H1160 0.900 1_545 S
C1168 C1169 1.377 . S
C1168 C1170 1.384 . S
C1169 C1168 1.377 . S
C1169 C1175 1.390 . S
C1170 H1161 0.930 . S
C1170 C1168 1.384 . S
C1170 C1171 1.372 . S
C1171 C1170 1.372 . S
C1171 C1172 1.400 . S
C1171 C1176 1.490 . S
C1172 H1162 0.930 . S
C1172 C1171 1.400 . S
C1172 C1175 1.386 . S
H1173 C1189 0.930 . S
H1174 C1190 0.931 . S
C1175 H1163 0.929 . S
C1175 C1169 1.390 . S
C1175 C1172 1.386 . S
C1176 C1171 1.490 . S
C1176 C1178 1.395 . S
C1176 C1179 1.403 . S
H1177 C1183 0.930 . S
C1178 H1164 0.930 1_545 S
C1178 C1176 1.395 . S
C1178 C1181 1.403 . S
C1179 C1176 1.403 . S
C1179 C1180 1.524 . S
C1179 C1183 1.400 . S
C1180 H1165 0.960 . S
C1180 H1166 0.960 . S
C1180 H1167 0.960 . S
C1180 C1179 1.524 . S
C1181 C1178 1.403 . S
C1181 C1182 1.392 . S
C1181 C1185 1.495 1_545 S
C1182 C1181 1.392 . S
C1182 C1183 1.385 . S
C1182 C1184 1.478 . S
C1183 H1177 0.930 . S
C1183 C1179 1.400 . S
C1183 C1182 1.385 . S
C1184 C1182 1.478 . S
C1184 C1186 1.381 . S
C1184 C1190 1.383 . S
C1185 C1181 1.495 1_565 S
C1185 H1191 0.959 . S
C1185 H1192 0.961 . S
C1185 H1193 0.960 . S
C1186 C1184 1.381 . S
C1186 C1187 1.394 . S
C1186 H1194 0.930 . S
C1187 C1186 1.394 . S
C1187 C1188 1.383 . S
C1187 H1195 0.929 . S
C1188 C1187 1.383 . S
C1188 C1189 1.377 . S
C1189 H1173 0.930 . S
C1189 C1188 1.377 . S
C1189 C1190 1.379 . S
C1190 H1174 0.931 . S
C1190 C1184 1.383 . S
C1190 C1189 1.379 . S
H1191 C1185 0.959 . S
H1192 C1185 0.961 . S
H1193 C1185 0.960 . S
H1194 C1186 0.930 . S
H1195 C1187 0.929 . S
H1196 C1204 0.929 . S
H1197 C1206 0.930 . S
H1198 C1208 0.930 . S
H1199 C1211 0.929 . S
H1200 C1214 0.930 . S
H1201 C1216 0.960 . S
H1202 C1216 0.960 . S
H1203 C1216 0.960 . S
C1204 H1196 0.929 . S
C1204 C1205 1.377 . S
C1204 C1206 1.384 . S
C1205 C1204 1.377 . S
C1205 C1211 1.390 . S
C1206 H1197 0.930 . S
C1206 C1204 1.384 . S
C1206 C1207 1.372 . S
C1207 C1206 1.372 . S
C1207 C1208 1.400 . S
C1207 C1212 1.490 . S
C1208 H1198 0.930 . S
C1208 C1207 1.400 . S
C1208 C1211 1.386 . S
H1209 C1225 0.930 . S
H1210 C1226 0.931 . S
C1211 H1199 0.929 . S
C1211 C1205 1.390 . S
C1211 C1208 1.386 . S
C1212 C1207 1.490 . S
C1212 C1214 1.395 . S
C1212 C1215 1.403 . S
H1213 C1219 0.930 . S
C1214 H1200 0.930 . S
C1214 C1212 1.395 . S
C1214 C1217 1.403 . S
C1215 C1212 1.403 . S
C1215 C1216 1.524 . S
C1215 C1219 1.400 . S
C1216 H1201 0.960 . S
C1216 H1202 0.960 . S
C1216 H1203 0.960 . S
C1216 C1215 1.524 . S
C1217 C1214 1.403 . S
C1217 C1218 1.392 . S
C1217 C1221 1.495 . S
C1218 C1217 1.392 . S
C1218 C1219 1.385 . S
C1218 C1220 1.478 . S
C1219 H1213 0.930 . S
C1219 C1215 1.400 . S
C1219 C1218 1.385 . S
C1220 C1218 1.478 . S
C1220 C1222 1.381 . S
C1220 C1226 1.383 . S
C1221 C1217 1.495 . S
C1221 H1227 0.959 . S
C1221 H1228 0.961 . S
C1221 H1229 0.960 . S
C1222 C1220 1.381 . S
C1222 C1223 1.394 . S
C1222 H1230 0.930 . S
C1223 C1222 1.394 . S
C1223 C1224 1.383 . S
C1223 H1231 0.929 . S
C1224 C1223 1.383 . S
C1224 C1225 1.377 . S
C1225 H1209 0.930 . S
C1225 C1224 1.377 . S
C1225 C1226 1.379 . S
C1226 H1210 0.931 . S
C1226 C1220 1.383 . S
C1226 C1225 1.379 . S
H1227 C1221 0.959 . S
H1228 C1221 0.961 . S
H1229 C1221 0.960 . S
H1230 C1222 0.930 . S
H1231 C1223 0.929 . S
H1232 C1240 0.929 . S
H1233 C1242 0.930 . S
H1234 C1244 0.930 . S
H1235 C1247 0.929 . S
H1236 C1250 0.930 . S
H1237 C1252 0.960 1_545 S
H1238 C1252 0.960 . S
H1239 C1252 0.960 . S
C1240 H1232 0.929 . S
C1240 C1241 1.377 . S
C1240 C1242 1.384 . S
C1241 C1240 1.377 . S
C1241 C1247 1.390 . S
C1242 H1233 0.930 . S
C1242 C1240 1.384 . S
C1242 C1243 1.372 . S
C1243 C1242 1.372 . S
C1243 C1244 1.400 . S
C1243 C1248 1.490 . S
C1244 H1234 0.930 . S
C1244 C1243 1.400 . S
C1244 C1247 1.386 . S
H1245 C1261 0.930 . S
H1246 C1262 0.931 . S
C1247 H1235 0.929 . S
C1247 C1241 1.390 . S
C1247 C1244 1.386 . S
C1248 C1243 1.490 . S
C1248 C1250 1.395 . S
C1248 C1251 1.403 . S
H1249 C1255 0.930 1_545 S
C1250 H1236 0.930 . S
C1250 C1248 1.395 . S
C1250 C1253 1.403 . S
C1251 C1248 1.403 . S
C1251 C1252 1.524 . S
C1251 C1255 1.400 . S
C1252 H1237 0.960 1_565 S
C1252 H1238 0.960 . S
C1252 H1239 0.960 . S
C1252 C1251 1.524 . S
C1253 C1250 1.403 . S
C1253 C1254 1.392 . S
C1253 C1257 1.495 . S
C1254 C1253 1.392 . S
C1254 C1255 1.385 . S
C1254 C1256 1.478 . S
C1255 H1249 0.930 1_565 S
C1255 C1251 1.400 . S
C1255 C1254 1.385 . S
C1256 C1254 1.478 . S
C1256 C1258 1.381 . S
C1256 C1262 1.383 1_565 S
C1257 C1253 1.495 . S
C1257 H1263 0.959 . S
C1257 H1264 0.961 . S
C1257 H1265 0.960 . S
C1258 C1256 1.381 . S
C1258 C1259 1.414 . S
C1258 H1266 0.959 . S
C1259 C1258 1.414 . S
C1259 C1260 1.367 1_565 S
C1259 H1267 0.935 . S
C1260 C1259 1.367 1_545 S
C1260 C1261 1.377 . S
C1261 H1245 0.930 . S
C1261 C1260 1.377 . S
C1261 C1262 1.379 . S
C1262 H1246 0.931 . S
C1262 C1256 1.383 1_545 S
C1262 C1261 1.379 . S
H1263 C1257 0.959 . S
H1264 C1257 0.961 . S
H1265 C1257 0.960 . S
H1266 C1258 0.959 . S
H1267 C1259 0.935 . S
H1268 C1276 0.929 . S
H1269 C1278 0.930 . S
H1270 C1280 0.930 . S
H1271 C1283 0.929 . S
H1272 C1286 0.930 . S
H1273 C1288 0.960 . S
H1274 C1288 0.960 . S
H1275 C1288 0.960 . S
C1276 H1268 0.929 . S
C1276 C1277 1.390 . S
C1276 C1278 1.384 . S
C1277 C1276 1.390 . S
C1277 C1283 1.370 1_556 S
C1278 H1269 0.930 . S
C1278 C1276 1.384 . S
C1278 C1279 1.387 . S
C1279 C1278 1.387 . S
C1279 C1280 1.391 1_556 S
C1279 C1284 1.486 . S
C1280 H1270 0.930 . S
C1280 C1279 1.391 1_554 S
C1280 C1283 1.386 . S
H1281 C1297 0.930 . S
H1282 C1298 0.931 . S
C1283 H1271 0.929 . S
C1283 C1277 1.370 1_554 S
C1283 C1280 1.386 . S
C1284 C1279 1.486 . S
C1284 C1286 1.395 . S
C1284 C1287 1.403 1_556 S
H1285 C1291 0.930 . S
C1286 H1272 0.930 . S
C1286 C1284 1.395 . S
C1286 C1289 1.403 . S
C1287 C1284 1.403 1_554 S
C1287 C1288 1.524 . S
C1287 C1291 1.400 . S
C1288 H1273 0.960 . S
C1288 H1274 0.960 . S
C1288 H1275 0.960 . S
C1288 C1287 1.524 . S
C1289 C1286 1.403 . S
C1289 C1290 1.392 . S
C1289 C1293 1.495 . S
C1290 C1289 1.392 . S
C1290 C1291 1.385 1_556 S
C1290 C1292 1.478 . S
C1291 H1285 0.930 . S
C1291 C1287 1.400 . S
C1291 C1290 1.385 1_554 S
C1292 C1290 1.478 . S
C1292 C1294 1.381 . S
C1292 C1298 1.383 1_556 S
C1293 C1289 1.495 . S
C1293 H1299 0.959 . S
C1293 H1300 0.961 . S
C1293 H1301 0.960 . S
C1294 C1292 1.381 . S
C1294 C1295 1.394 . S
C1294 H1302 0.930 . S
C1295 C1294 1.394 . S
C1295 C1296 1.387 . S
C1295 H1303 0.929 . S
C1296 C1295 1.387 . S
C1296 C1297 1.376 1_556 S
C1297 H1281 0.930 . S
C1297 C1296 1.376 1_554 S
C1297 C1298 1.379 . S
C1298 H1282 0.931 . S
C1298 C1292 1.383 1_554 S
C1298 C1297 1.379 . S
H1299 C1293 0.959 . S
H1300 C1293 0.961 . S
H1301 C1293 0.960 . S
H1302 C1294 0.930 . S
H1303 C1295 0.929 . S
H1304 C1312 0.929 . S
H1305 C1314 0.930 . S
H1306 C1316 0.930 . S
H1307 C1319 0.929 . S
H1308 C1322 0.930 . S
H1309 C1324 0.960 . S
H1310 C1324 0.960 . S
H1311 C1324 0.960 . S
C1312 H1304 0.929 . S
C1312 C1313 1.377 . S
C1312 C1314 1.384 . S
C1313 C1312 1.377 . S
C1313 C1319 1.390 . S
C1314 H1305 0.930 . S
C1314 C1312 1.384 . S
C1314 C1315 1.372 . S
C1315 C1314 1.372 . S
C1315 C1316 1.400 . S
C1315 C1320 1.490 . S
C1316 H1306 0.930 . S
C1316 C1315 1.400 . S
C1316 C1319 1.386 . S
H1317 C1333 0.930 . S
H1318 C1334 0.931 . S
C1319 H1307 0.929 . S
C1319 C1313 1.390 . S
C1319 C1316 1.386 . S
C1320 C1315 1.490 . S
C1320 C1322 1.395 . S
C1320 C1323 1.403 . S
H1321 C1327 0.930 . S
C1322 H1308 0.930 . S
C1322 C1320 1.395 . S
C1322 C1325 1.403 . S
C1323 C1320 1.403 . S
C1323 C1324 1.524 . S
C1323 C1327 1.400 . S
C1324 H1309 0.960 . S
C1324 H1310 0.960 . S
C1324 H1311 0.960 . S
C1324 C1323 1.524 . S
C1325 C1322 1.403 . S
C1325 C1326 1.392 . S
C1325 C1329 1.495 . S
C1326 C1325 1.392 . S
C1326 C1327 1.385 . S
C1326 C1328 1.478 . S
C1327 H1321 0.930 . S
C1327 C1323 1.400 . S
C1327 C1326 1.385 . S
C1328 C1326 1.478 . S
C1328 C1330 1.381 . S
C1328 C1334 1.383 . S
C1329 C1325 1.495 . S
C1329 H1335 0.959 . S
C1329 H1336 0.961 . S
C1329 H1337 0.960 . S
C1330 C1328 1.381 . S
C1330 C1331 1.394 . S
C1330 H1338 0.930 . S
C1331 C1330 1.394 . S
C1331 C1332 1.383 . S
C1331 H1339 0.929 . S
C1332 C1331 1.383 . S
C1332 C1333 1.377 . S
C1333 H1317 0.930 . S
C1333 C1332 1.377 . S
C1333 C1334 1.379 . S
C1334 H1318 0.931 . S
C1334 C1328 1.383 . S
C1334 C1333 1.379 . S
H1335 C1329 0.959 . S
H1336 C1329 0.961 . S
H1337 C1329 0.960 . S
H1338 C1330 0.930 . S
H1339 C1331 0.929 . S
H1340 C1348 0.929 . S
H1341 C1350 0.930 . S
H1342 C1352 0.930 . S
H1343 C1355 0.929 . S
H1344 C1358 0.930 . S
H1345 C1360 0.960 . S
H1346 C1360 0.960 . S
H1347 C1360 0.960 . S
C1348 H1340 0.929 . S
C1348 C1349 1.377 . S
C1348 C1350 1.384 . S
C1349 C1348 1.377 . S
C1349 C1355 1.390 . S
C1350 H1341 0.930 . S
C1350 C1348 1.384 . S
C1350 C1351 1.372 . S
C1351 C1350 1.372 . S
C1351 C1352 1.400 . S
C1351 C1356 1.490 . S
C1352 H1342 0.930 . S
C1352 C1351 1.400 . S
C1352 C1355 1.386 . S
H1353 C1369 0.930 . S
H1354 C1370 0.931 . S
C1355 H1343 0.929 . S
C1355 C1349 1.390 . S
C1355 C1352 1.386 . S
C1356 C1351 1.490 . S
C1356 C1358 1.395 . S
C1356 C1359 1.403 . S
H1357 C1363 0.930 . S
C1358 H1344 0.930 . S
C1358 C1356 1.395 . S
C1358 C1361 1.403 . S
C1359 C1356 1.403 . S
C1359 C1360 1.524 . S
C1359 C1363 1.400 . S
C1360 H1345 0.960 . S
C1360 H1346 0.960 . S
C1360 H1347 0.960 . S
C1360 C1359 1.524 . S
C1361 C1358 1.403 . S
C1361 C1362 1.392 . S
C1361 C1365 1.495 . S
C1362 C1361 1.392 . S
C1362 C1363 1.385 . S
C1362 C1364 1.478 . S
C1363 H1357 0.930 . S
C1363 C1359 1.400 . S
C1363 C1362 1.385 . S
C1364 C1362 1.478 . S
C1364 C1366 1.381 . S
C1364 C1370 1.383 . S
C1365 C1361 1.495 . S
C1365 H1371 0.959 . S
C1365 H1372 0.961 . S
C1365 H1373 0.960 . S
C1366 C1364 1.381 . S
C1366 C1367 1.394 . S
C1366 H1374 0.930 . S
C1367 C1366 1.394 . S
C1367 C1368 1.383 . S
C1367 H1375 0.929 . S
C1368 C1367 1.383 . S
C1368 C1369 1.377 . S
C1369 H1353 0.930 . S
C1369 C1368 1.377 . S
C1369 C1370 1.379 . S
C1370 H1354 0.931 . S
C1370 C1364 1.383 . S
C1370 C1369 1.379 . S
H1371 C1365 0.959 . S
H1372 C1365 0.961 . S
H1373 C1365 0.960 . S
H1374 C1366 0.930 . S
H1375 C1367 0.929 . S
H1376 C1384 0.929 . S
H1377 C1386 0.930 . S
H1378 C1388 0.930 . S
H1379 C1391 0.929 . S
H1380 C1394 0.930 . S
H1381 C1396 0.960 . S
H1382 C1396 0.960 . S
H1383 C1396 0.960 . S
C1384 H1376 0.929 . S
C1384 C1385 1.377 . S
C1384 C1386 1.384 . S
C1385 C1384 1.377 . S
C1385 C1391 1.390 . S
C1386 H1377 0.930 . S
C1386 C1384 1.384 . S
C1386 C1387 1.372 . S
C1387 C1386 1.372 . S
C1387 C1388 1.400 . S
C1387 C1392 1.490 . S
C1388 H1378 0.930 . S
C1388 C1387 1.400 . S
C1388 C1391 1.386 . S
H1389 C1405 0.930 . S
H1390 C1406 0.931 . S
C1391 H1379 0.929 . S
C1391 C1385 1.390 . S
C1391 C1388 1.386 . S
C1392 C1387 1.490 . S
C1392 C1394 1.395 . S
C1392 C1395 1.403 . S
H1393 C1399 0.930 . S
C1394 H1380 0.930 . S
C1394 C1392 1.395 . S
C1394 C1397 1.403 . S
C1395 C1392 1.403 . S
C1395 C1396 1.524 . S
C1395 C1399 1.400 . S
C1396 H1381 0.960 . S
C1396 H1382 0.960 . S
C1396 H1383 0.960 . S
C1396 C1395 1.524 . S
C1397 C1394 1.403 . S
C1397 C1398 1.392 . S
C1397 C1401 1.495 . S
C1398 C1397 1.392 . S
C1398 C1399 1.385 . S
C1398 C1400 1.478 . S
C1399 H1393 0.930 . S
C1399 C1395 1.400 . S
C1399 C1398 1.385 . S
C1400 C1398 1.478 . S
C1400 C1402 1.381 . S
C1400 C1406 1.383 . S
C1401 C1397 1.495 . S
C1401 H1407 0.959 . S
C1401 H1408 0.961 . S
C1401 H1409 0.960 . S
C1402 C1400 1.381 . S
C1402 C1403 1.394 . S
C1402 H1410 0.930 . S
C1403 C1402 1.394 . S
C1403 C1404 1.383 . S
C1403 H1411 0.929 . S
C1404 C1403 1.383 . S
C1404 C1405 1.377 . S
C1405 H1389 0.930 . S
C1405 C1404 1.377 . S
C1405 C1406 1.379 . S
C1406 H1390 0.931 . S
C1406 C1400 1.383 . S
C1406 C1405 1.379 . S
H1407 C1401 0.959 . S
H1408 C1401 0.961 . S
H1409 C1401 0.960 . S
H1410 C1402 0.930 . S
H1411 C1403 0.929 . S
H1412 C1420 0.929 . S
H1413 C1422 0.930 . S
H1414 C1424 0.930 . S
H1415 C1427 0.929 . S
H1416 C1430 0.930 . S
H1417 C1432 0.960 . S
H1418 C1432 0.960 . S
H1419 C1432 0.960 . S
C1420 H1412 0.929 . S
C1420 C1421 1.377 . S
C1420 C1422 1.384 . S
C1421 C1420 1.377 . S
C1421 C1427 1.390 . S
C1422 H1413 0.930 . S
C1422 C1420 1.384 . S
C1422 C1423 1.372 . S
C1423 C1422 1.372 . S
C1423 C1424 1.400 . S
C1423 C1428 1.490 . S
C1424 H1414 0.930 . S
C1424 C1423 1.400 . S
C1424 C1427 1.386 . S
H1425 C1441 0.930 . S
H1426 C1442 0.931 . S
C1427 H1415 0.929 . S
C1427 C1421 1.390 . S
C1427 C1424 1.386 . S
C1428 C1423 1.490 . S
C1428 C1430 1.395 . S
C1428 C1431 1.403 . S
H1429 C1435 0.930 . S
C1430 H1416 0.930 . S
C1430 C1428 1.395 . S
C1430 C1433 1.403 . S
C1431 C1428 1.403 . S
C1431 C1432 1.524 . S
C1431 C1435 1.400 . S
C1432 H1417 0.960 . S
C1432 H1418 0.960 . S
C1432 H1419 0.960 . S
C1432 C1431 1.524 . S
C1433 C1430 1.403 . S
C1433 C1434 1.392 . S
C1433 C1437 1.495 . S
C1434 C1433 1.392 . S
C1434 C1435 1.385 . S
C1434 C1436 1.478 . S
C1435 H1429 0.930 . S
C1435 C1431 1.400 . S
C1435 C1434 1.385 . S
C1436 C1434 1.478 . S
C1436 C1438 1.381 . S
C1436 C1442 1.383 . S
C1437 C1433 1.495 . S
C1437 H1443 0.959 . S
C1437 H1444 0.961 . S
C1437 H1445 0.960 . S
C1438 C1436 1.381 . S
C1438 C1439 1.394 . S
C1438 H1446 0.930 . S
C1439 C1438 1.394 . S
C1439 C1440 1.383 . S
C1439 H1447 0.929 . S
C1440 C1439 1.383 . S
C1440 C1441 1.377 . S
C1441 H1425 0.930 . S
C1441 C1440 1.377 . S
C1441 C1442 1.379 . S
C1442 H1426 0.931 . S
C1442 C1436 1.383 . S
C1442 C1441 1.379 . S
H1443 C1437 0.959 . S
H1444 C1437 0.961 . S
H1445 C1437 0.960 . S
H1446 C1438 0.930 . S
H1447 C1439 0.929 . S
H1448 C1456 0.929 . S
H1449 C1458 0.930 . S
H1450 C1460 0.930 . S
H1451 C1463 0.929 . S
H1452 C1466 0.930 . S
H1453 C1468 0.960 . S
H1454 C1468 0.960 . S
H1455 C1468 0.960 . S
C1456 H1448 0.929 . S
C1456 C1457 1.377 . S
C1456 C1458 1.384 . S
C1457 C1456 1.377 . S
C1457 C1463 1.390 . S
C1458 H1449 0.930 . S
C1458 C1456 1.384 . S
C1458 C1459 1.372 . S
C1459 C1458 1.372 . S
C1459 C1460 1.400 . S
C1459 C1464 1.490 . S
C1460 H1450 0.930 . S
C1460 C1459 1.400 . S
C1460 C1463 1.386 . S
H1461 C1477 0.930 . S
H1462 C1478 0.931 . S
C1463 H1451 0.929 . S
C1463 C1457 1.390 . S
C1463 C1460 1.386 . S
C1464 C1459 1.490 . S
C1464 C1466 1.395 . S
C1464 C1467 1.403 . S
H1465 C1471 0.930 . S
C1466 H1452 0.930 . S
C1466 C1464 1.395 . S
C1466 C1469 1.403 . S
C1467 C1464 1.403 . S
C1467 C1468 1.524 . S
C1467 C1471 1.400 . S
C1468 H1453 0.960 . S
C1468 H1454 0.960 . S
C1468 H1455 0.960 . S
C1468 C1467 1.524 . S
C1469 C1466 1.403 . S
C1469 C1470 1.392 . S
C1469 C1473 1.495 . S
C1470 C1469 1.392 . S
C1470 C1471 1.385 . S
C1470 C1472 1.478 . S
C1471 H1465 0.930 . S
C1471 C1467 1.400 . S
C1471 C1470 1.385 . S
C1472 C1470 1.478 . S
C1472 C1474 1.381 . S
C1472 C1478 1.383 . S
C1473 C1469 1.495 . S
C1473 H1479 0.959 . S
C1473 H1480 0.961 . S
C1473 H1481 0.960 . S
C1474 C1472 1.381 . S
C1474 C1475 1.394 . S
C1474 H1482 0.930 . S
C1475 C1474 1.394 . S
C1475 C1476 1.383 . S
C1475 H1483 0.929 . S
C1476 C1475 1.383 . S
C1476 C1477 1.377 . S
C1477 H1461 0.930 . S
C1477 C1476 1.377 . S
C1477 C1478 1.379 . S
C1478 H1462 0.931 . S
C1478 C1472 1.383 . S
C1478 C1477 1.379 . S
H1479 C1473 0.959 . S
H1480 C1473 0.961 . S
H1481 C1473 0.960 . S
H1482 C1474 0.930 . S
H1483 C1475 0.929 . S
H1484 C1492 0.929 . S
H1485 C1494 0.930 . S
H1486 C1496 0.930 . S
H1487 C1499 0.929 . S
H1488 C1502 0.930 . S
H1489 C1504 0.960 . S
H1490 C1504 0.960 . S
H1491 C1504 0.960 . S
C1492 H1484 0.929 . S
C1492 C1493 1.377 . S
C1492 C1494 1.384 . S
C1493 C1492 1.377 . S
C1493 C1499 1.390 . S
C1494 H1485 0.930 . S
C1494 C1492 1.384 . S
C1494 C1495 1.372 . S
C1495 C1494 1.372 . S
C1495 C1496 1.400 . S
C1495 C1500 1.490 . S
C1496 H1486 0.930 . S
C1496 C1495 1.400 . S
C1496 C1499 1.386 . S
H1497 C1513 0.930 . S
H1498 C1514 0.931 . S
C1499 H1487 0.929 . S
C1499 C1493 1.390 . S
C1499 C1496 1.386 . S
C1500 C1495 1.490 . S
C1500 C1502 1.395 . S
C1500 C1503 1.403 . S
H1501 C1507 0.930 . S
C1502 H1488 0.930 . S
C1502 C1500 1.395 . S
C1502 C1505 1.403 . S
C1503 C1500 1.403 . S
C1503 C1504 1.524 . S
C1503 C1507 1.400 . S
C1504 H1489 0.960 . S
C1504 H1490 0.960 . S
C1504 H1491 0.960 . S
C1504 C1503 1.524 . S
C1505 C1502 1.403 . S
C1505 C1506 1.392 . S
C1505 C1509 1.495 . S
C1506 C1505 1.392 . S
C1506 C1507 1.385 . S
C1506 C1508 1.478 . S
C1507 H1501 0.930 . S
C1507 C1503 1.400 . S
C1507 C1506 1.385 . S
C1508 C1506 1.478 . S
C1508 C1510 1.381 . S
C1508 C1514 1.383 . S
C1509 C1505 1.495 . S
C1509 H1515 0.959 . S
C1509 H1516 0.961 . S
C1509 H1517 0.960 . S
C1510 C1508 1.381 . S
C1510 C1511 1.394 . S
C1510 H1518 0.930 . S
C1511 C1510 1.394 . S
C1511 C1512 1.383 . S
C1511 H1519 0.929 . S
C1512 C1511 1.383 . S
C1512 C1513 1.377 . S
C1513 H1497 0.930 . S
C1513 C1512 1.377 . S
C1513 C1514 1.379 . S
C1514 H1498 0.931 . S
C1514 C1508 1.383 . S
C1514 C1513 1.379 . S
H1515 C1509 0.959 . S
H1516 C1509 0.961 . S
H1517 C1509 0.960 . S
H1518 C1510 0.930 . S
H1519 C1511 0.929 . S
H1520 C1528 0.929 . S
H1521 C1530 0.930 . S
H1522 C1532 0.930 . S
H1523 C1535 0.929 . S
H1524 C1538 0.930 . S
H1525 C1540 0.960 . S
H1526 C1540 0.960 . S
H1527 C1540 0.960 . S
C1528 H1520 0.929 . S
C1528 C1529 1.377 . S
C1528 C1530 1.384 . S
C1529 C1528 1.377 . S
C1529 C1535 1.390 . S
C1530 H1521 0.930 . S
C1530 C1528 1.384 . S
C1530 C1531 1.372 . S
C1531 C1530 1.372 . S
C1531 C1532 1.400 . S
C1531 C1536 1.490 . S
C1532 H1522 0.930 . S
C1532 C1531 1.400 . S
C1532 C1535 1.386 . S
H1533 C1549 0.930 . S
H1534 C1550 0.931 . S
C1535 H1523 0.929 . S
C1535 C1529 1.390 . S
C1535 C1532 1.386 . S
C1536 C1531 1.490 . S
C1536 C1538 1.395 1_455 S
C1536 C1539 1.403 . S
H1537 C1543 0.930 . S
C1538 H1524 0.930 . S
C1538 C1536 1.395 1_655 S
C1538 C1541 1.403 . S
C1539 C1536 1.403 . S
C1539 C1540 1.524 . S
C1539 C1543 1.400 . S
C1540 H1525 0.960 . S
C1540 H1526 0.960 . S
C1540 H1527 0.960 . S
C1540 C1539 1.524 . S
C1541 C1538 1.403 . S
C1541 C1542 1.392 1_655 S
C1541 C1545 1.495 . S
C1542 C1541 1.392 1_455 S
C1542 C1543 1.385 . S
C1542 C1544 1.478 . S
C1543 H1537 0.930 . S
C1543 C1539 1.400 . S
C1543 C1542 1.385 . S
C1544 C1542 1.478 . S
C1544 C1546 1.381 . S
C1544 C1550 1.383 . S
C1545 C1541 1.495 . S
C1545 H1551 0.959 . S
C1545 H1552 0.961 . S
C1545 H1553 0.960 . S
C1546 C1544 1.381 . S
C1546 C1547 1.394 . S
C1546 H1554 0.930 1_455 S
C1547 C1546 1.394 . S
C1547 C1548 1.383 . S
C1547 H1555 0.929 . S
C1548 C1547 1.383 . S
C1548 C1549 1.377 . S
C1549 H1533 0.930 . S
C1549 C1548 1.377 . S
C1549 C1550 1.379 . S
C1550 H1534 0.931 . S
C1550 C1544 1.383 . S
C1550 C1549 1.379 . S
H1551 C1545 0.959 . S
H1552 C1545 0.961 . S
H1553 C1545 0.960 . S
H1554 C1546 0.930 1_655 S
H1555 C1547 0.929 . S
H1556 C1564 0.929 . S
H1557 C1566 0.930 . S
H1558 C1568 0.930 . S
H1559 C1571 0.929 . S
H1560 C1574 0.930 . S
H1561 C1576 0.960 . S
H1562 C1576 0.960 . S
H1563 C1576 0.960 . S
C1564 H1556 0.929 . S
C1564 C1565 1.377 . S
C1564 C1566 1.384 . S
C1565 C1564 1.377 . S
C1565 C1571 1.390 . S
C1566 H1557 0.930 . S
C1566 C1564 1.384 . S
C1566 C1567 1.372 . S
C1567 C1566 1.372 . S
C1567 C1568 1.400 . S
C1567 C1572 1.490 . S
C1568 H1558 0.930 . S
C1568 C1567 1.400 . S
C1568 C1571 1.386 . S
H1569 C1585 0.930 . S
H1570 C1586 0.931 . S
C1571 H1559 0.929 . S
C1571 C1565 1.390 . S
C1571 C1568 1.386 . S
C1572 C1567 1.490 . S
C1572 C1574 1.395 . S
C1572 C1575 1.403 . S
H1573 C1579 0.930 . S
C1574 H1560 0.930 . S
C1574 C1572 1.395 . S
C1574 C1577 1.403 . S
C1575 C1572 1.403 . S
C1575 C1576 1.524 . S
C1575 C1579 1.400 . S
C1576 H1561 0.960 . S
C1576 H1562 0.960 . S
C1576 H1563 0.960 . S
C1576 C1575 1.524 . S
C1577 C1574 1.403 . S
C1577 C1578 1.392 . S
C1577 C1581 1.495 . S
C1578 C1577 1.392 . S
C1578 C1579 1.385 . S
C1578 C1580 1.478 . S
C1579 H1573 0.930 . S
C1579 C1575 1.400 . S
C1579 C1578 1.385 . S
C1580 C1578 1.478 . S
C1580 C1582 1.381 . S
C1580 C1586 1.383 . S
C1581 C1577 1.495 . S
C1581 H1587 0.959 . S
C1581 H1588 0.961 . S
C1581 H1589 0.960 . S
C1582 C1580 1.381 . S
C1582 C1583 1.394 . S
C1582 H1590 0.930 . S
C1583 C1582 1.394 . S
C1583 C1584 1.383 . S
C1583 H1591 0.929 . S
C1584 C1583 1.383 . S
C1584 C1585 1.377 . S
C1585 H1569 0.930 . S
C1585 C1584 1.377 . S
C1585 C1586 1.379 . S
C1586 H1570 0.931 . S
C1586 C1580 1.383 . S
C1586 C1585 1.379 . S
H1587 C1581 0.959 . S
H1588 C1581 0.961 . S
H1589 C1581 0.960 . S
H1590 C1582 0.930 . S
H1591 C1583 0.929 . S
H1592 C1600 0.929 . S
H1593 C1602 0.930 . S
H1594 C1604 0.930 . S
H1595 C1607 0.929 . S
H1596 C1610 0.930 . S
H1597 C1612 0.960 . S
H1598 C1612 0.960 . S
H1599 C1612 0.960 . S
C1600 H1592 0.929 . S
C1600 C1601 1.377 . S
C1600 C1602 1.384 . S
C1601 C1600 1.377 . S
C1601 C1607 1.390 . S
C1602 H1593 0.930 . S
C1602 C1600 1.384 . S
C1602 C1603 1.372 . S
C1603 C1602 1.372 . S
C1603 C1604 1.400 . S
C1603 C1608 1.490 . S
C1604 H1594 0.930 . S
C1604 C1603 1.400 . S
C1604 C1607 1.386 . S
H1605 C1621 0.930 . S
H1606 C1622 0.931 . S
C1607 H1595 0.929 . S
C1607 C1601 1.390 . S
C1607 C1604 1.386 . S
C1608 C1603 1.490 . S
C1608 C1610 1.395 . S
C1608 C1611 1.403 . S
H1609 C1615 0.930 . S
C1610 H1596 0.930 . S
C1610 C1608 1.395 . S
C1610 C1613 1.403 . S
C1611 C1608 1.403 . S
C1611 C1612 1.524 . S
C1611 C1615 1.400 . S
C1612 H1597 0.960 . S
C1612 H1598 0.960 . S
C1612 H1599 0.960 . S
C1612 C1611 1.524 . S
C1613 C1610 1.403 . S
C1613 C1614 1.392 . S
C1613 C1617 1.495 . S
C1614 C1613 1.392 . S
C1614 C1615 1.385 . S
C1614 C1616 1.478 . S
C1615 H1609 0.930 . S
C1615 C1611 1.400 . S
C1615 C1614 1.385 . S
C1616 C1614 1.478 . S
C1616 C1618 1.381 . S
C1616 C1622 1.383 . S
C1617 C1613 1.495 . S
C1617 H1623 0.959 . S
C1617 H1624 0.961 . S
C1617 H1625 0.960 . S
C1618 C1616 1.381 . S
C1618 C1619 1.394 . S
C1618 H1626 0.930 . S
C1619 C1618 1.394 . S
C1619 C1620 1.383 . S
C1619 H1627 0.929 . S
C1620 C1619 1.383 . S
C1620 C1621 1.377 . S
C1621 H1605 0.930 . S
C1621 C1620 1.377 . S
C1621 C1622 1.379 . S
C1622 H1606 0.931 . S
C1622 C1616 1.383 . S
C1622 C1621 1.379 . S
H1623 C1617 0.959 . S
H1624 C1617 0.961 . S
H1625 C1617 0.960 . S
H1626 C1618 0.930 . S
H1627 C1619 0.929 . S
H1628 C1636 0.929 . S
H1629 C1638 0.930 . S
H1630 C1640 0.930 . S
H1631 C1643 0.929 . S
H1632 C1646 0.930 . S
H1633 C1648 0.960 . S
H1634 C1648 0.960 . S
H1635 C1648 0.960 . S
C1636 H1628 0.929 . S
C1636 C1637 1.377 . S
C1636 C1638 1.384 . S
C1637 C1636 1.377 . S
C1637 C1643 1.390 . S
C1638 H1629 0.930 . S
C1638 C1636 1.384 . S
C1638 C1639 1.372 . S
C1639 C1638 1.372 . S
C1639 C1640 1.400 . S
C1639 C1644 1.490 . S
C1640 H1630 0.930 . S
C1640 C1639 1.400 . S
C1640 C1643 1.386 . S
H1641 C1657 0.930 . S
H1642 C1658 0.931 . S
C1643 H1631 0.929 . S
C1643 C1637 1.390 . S
C1643 C1640 1.386 . S
C1644 C1639 1.490 . S
C1644 C1646 1.395 . S
C1644 C1647 1.403 . S
H1645 C1651 0.930 . S
C1646 H1632 0.930 . S
C1646 C1644 1.395 . S
C1646 C1649 1.403 . S
C1647 C1644 1.403 . S
C1647 C1648 1.524 . S
C1647 C1651 1.400 . S
C1648 H1633 0.960 . S
C1648 H1634 0.960 . S
C1648 H1635 0.960 . S
C1648 C1647 1.524 . S
C1649 C1646 1.403 . S
C1649 C1650 1.392 . S
C1649 C1653 1.495 . S
C1650 C1649 1.392 . S
C1650 C1651 1.385 . S
C1650 C1652 1.478 . S
C1651 H1645 0.930 . S
C1651 C1647 1.400 . S
C1651 C1650 1.385 . S
C1652 C1650 1.478 . S
C1652 C1654 1.381 . S
C1652 C1658 1.383 . S
C1653 C1649 1.495 . S
C1653 H1659 0.959 . S
C1653 H1660 0.961 . S
C1653 H1661 0.960 . S
C1654 C1652 1.381 . S
C1654 C1655 1.394 . S
C1654 H1662 0.930 . S
C1655 C1654 1.394 . S
C1655 C1656 1.383 . S
C1655 H1663 0.929 . S
C1656 C1655 1.383 . S
C1656 C1657 1.377 . S
C1657 H1641 0.930 . S
C1657 C1656 1.377 . S
C1657 C1658 1.379 . S
C1658 H1642 0.931 . S
C1658 C1652 1.383 . S
C1658 C1657 1.379 . S
H1659 C1653 0.959 . S
H1660 C1653 0.961 . S
H1661 C1653 0.960 . S
H1662 C1654 0.930 . S
H1663 C1655 0.929 . S
H1664 C1672 0.929 . S
H1665 C1674 0.930 . S
H1666 C1676 0.930 . S
H1667 C1679 0.960 . S
H1668 C1682 0.930 . S
H1669 C1684 0.960 . S
H1670 C1684 0.960 . S
H1671 C1684 0.960 . S
C1672 H1664 0.929 . S
C1672 C1673 1.377 . S
C1672 C1674 1.384 . S
C1673 C1672 1.377 . S
C1673 C1679 1.365 1_455 S
C1674 H1665 0.930 . S
C1674 C1672 1.384 . S
C1674 C1675 1.372 . S
C1675 C1674 1.372 . S
C1675 C1676 1.400 1_455 S
C1675 C1680 1.490 . S
C1676 H1666 0.930 . S
C1676 C1675 1.400 1_655 S
C1676 C1679 1.381 . S
H1677 C1693 0.930 . S
H1678 C1694 0.931 . S
C1679 H1667 0.960 . S
C1679 C1673 1.365 1_655 S
C1679 C1676 1.381 . S
C1680 C1675 1.490 . S
C1680 C1682 1.395 . S
C1680 C1683 1.403 . S
H1681 C1687 0.930 . S
C1682 H1668 0.930 . S
C1682 C1680 1.395 . S
C1682 C1685 1.403 . S
C1683 C1680 1.403 . S
C1683 C1684 1.524 . S
C1683 C1687 1.400 . S
C1684 H1669 0.960 . S
C1684 H1670 0.960 . S
C1684 H1671 0.960 . S
C1684 C1683 1.524 . S
C1685 C1682 1.403 . S
C1685 C1686 1.392 . S
C1685 C1689 1.495 . S
C1686 C1685 1.392 . S
C1686 C1687 1.385 . S
C1686 C1688 1.478 . S
C1687 H1681 0.930 . S
C1687 C1683 1.400 . S
C1687 C1686 1.385 . S
C1688 C1686 1.478 . S
C1688 C1690 1.381 . S
C1688 C1694 1.383 1_455 S
C1689 C1685 1.495 . S
C1689 H1695 0.959 . S
C1689 H1696 0.961 1_455 S
C1689 H1697 0.960 . S
C1690 C1688 1.381 . S
C1690 C1691 1.394 . S
C1690 H1698 0.930 . S
C1691 C1690 1.394 . S
C1691 C1692 1.383 . S
C1691 H1699 0.929 . S
C1692 C1691 1.383 . S
C1692 C1693 1.377 1_455 S
C1693 H1677 0.930 . S
C1693 C1692 1.377 1_655 S
C1693 C1694 1.379 . S
C1694 H1678 0.931 . S
C1694 C1688 1.383 1_655 S
C1694 C1693 1.379 . S
H1695 C1689 0.959 . S
H1696 C1689 0.961 1_655 S
H1697 C1689 0.960 . S
H1698 C1690 0.930 . S
H1699 C1691 0.929 . S
H1700 C1708 0.929 . S
H1701 C1710 0.930 . S
H1702 C1712 0.930 . S
H1703 C1715 0.929 . S
H1704 C1718 0.930 . S
H1705 C1720 0.960 . S
H1706 C1720 0.960 . S
H1707 C1720 0.960 . S
C1708 H1700 0.929 . S
C1708 C1709 1.377 . S
C1708 C1710 1.384 . S
C1709 C1708 1.377 . S
C1709 C1715 1.390 . S
C1710 H1701 0.930 . S
C1710 C1708 1.384 . S
C1710 C1711 1.372 . S
C1711 C1710 1.372 . S
C1711 C1712 1.400 . S
C1711 C1716 1.490 . S
C1712 H1702 0.930 . S
C1712 C1711 1.400 . S
C1712 C1715 1.386 . S
H1713 C1729 0.930 . S
H1714 C1730 0.931 . S
C1715 H1703 0.929 . S
C1715 C1709 1.390 . S
C1715 C1712 1.386 . S
C1716 C1711 1.490 . S
C1716 C1718 1.395 . S
C1716 C1719 1.403 . S
H1717 C1723 0.930 . S
C1718 H1704 0.930 . S
C1718 C1716 1.395 . S
C1718 C1721 1.403 . S
C1719 C1716 1.403 . S
C1719 C1720 1.524 . S
C1719 C1723 1.400 . S
C1720 H1705 0.960 . S
C1720 H1706 0.960 . S
C1720 H1707 0.960 . S
C1720 C1719 1.524 . S
C1721 C1718 1.403 . S
C1721 C1722 1.392 . S
C1721 C1725 1.495 . S
C1722 C1721 1.392 . S
C1722 C1723 1.385 . S
C1722 C1724 1.478 . S
C1723 H1717 0.930 . S
C1723 C1719 1.400 . S
C1723 C1722 1.385 . S
C1724 C1722 1.478 . S
C1724 C1726 1.381 . S
C1724 C1730 1.383 . S
C1725 C1721 1.495 . S
C1725 H1731 0.959 . S
C1725 H1732 0.961 . S
C1725 H1733 0.960 . S
C1726 C1724 1.381 . S
C1726 C1727 1.394 . S
C1726 H1734 0.930 . S
C1727 C1726 1.394 . S
C1727 C1728 1.383 . S
C1727 H1735 0.929 . S
C1728 C1727 1.383 . S
C1728 C1729 1.377 . S
C1729 H1713 0.930 . S
C1729 C1728 1.377 . S
C1729 C1730 1.379 . S
C1730 H1714 0.931 . S
C1730 C1724 1.383 . S
C1730 C1729 1.379 . S
H1731 C1725 0.959 . S
H1732 C1725 0.961 . S
H1733 C1725 0.960 . S
H1734 C1726 0.930 . S
H1735 C1727 0.929 . S
H1736 C1744 0.929 . S
H1737 C1746 0.930 . S
H1738 C1748 0.930 . S
H1739 C1751 0.929 . S
H1740 C1754 0.930 . S
H1741 C1756 0.960 . S
H1742 C1756 0.960 . S
H1743 C1756 0.960 . S
C1744 H1736 0.929 . S
C1744 C1745 1.377 . S
C1744 C1746 1.384 . S
C1745 C1744 1.377 . S
C1745 C1751 1.390 . S
C1746 H1737 0.930 . S
C1746 C1744 1.384 . S
C1746 C1747 1.372 . S
C1747 C1746 1.372 . S
C1747 C1748 1.400 . S
C1747 C1752 1.490 . S
C1748 H1738 0.930 . S
C1748 C1747 1.400 . S
C1748 C1751 1.386 . S
H1749 C1765 0.930 . S
H1750 C1766 0.931 . S
C1751 H1739 0.929 . S
C1751 C1745 1.390 . S
C1751 C1748 1.386 . S
C1752 C1747 1.490 . S
C1752 C1754 1.395 . S
C1752 C1755 1.403 . S
H1753 C1759 0.930 . S
C1754 H1740 0.930 . S
C1754 C1752 1.395 . S
C1754 C1757 1.403 . S
C1755 C1752 1.403 . S
C1755 C1756 1.524 . S
C1755 C1759 1.400 . S
C1756 H1741 0.960 . S
C1756 H1742 0.960 . S
C1756 H1743 0.960 . S
C1756 C1755 1.524 . S
C1757 C1754 1.403 . S
C1757 C1758 1.392 . S
C1757 C1761 1.495 . S
C1758 C1757 1.392 . S
C1758 C1759 1.385 . S
C1758 C1760 1.478 . S
C1759 H1753 0.930 . S
C1759 C1755 1.400 . S
C1759 C1758 1.385 . S
C1760 C1758 1.478 . S
C1760 C1762 1.381 . S
C1760 C1766 1.383 . S
C1761 C1757 1.495 . S
C1761 H1767 0.959 . S
C1761 H1768 0.961 . S
C1761 H1769 0.960 . S
C1762 C1760 1.381 . S
C1762 C1763 1.394 . S
C1762 H1770 0.930 . S
C1763 C1762 1.394 . S
C1763 C1764 1.383 . S
C1763 H1771 0.929 1_556 S
C1764 C1763 1.383 . S
C1764 C1765 1.377 . S
C1765 H1749 0.930 . S
C1765 C1764 1.377 . S
C1765 C1766 1.379 . S
C1766 H1750 0.931 . S
C1766 C1760 1.383 . S
C1766 C1765 1.379 . S
H1767 C1761 0.959 . S
H1768 C1761 0.961 . S
H1769 C1761 0.960 . S
H1770 C1762 0.930 . S
H1771 C1763 0.929 1_554 S
H1772 C1780 0.929 . S
H1773 C1782 0.930 . S
H1774 C1784 0.930 . S
H1775 C1787 0.929 . S
H1776 C1790 0.930 . S
H1777 C1792 0.960 . S
H1778 C1792 0.960 . S
H1779 C1792 0.960 . S
C1780 H1772 0.929 . S
C1780 C1781 1.377 . S
C1780 C1782 1.384 . S
C1781 C1780 1.377 . S
C1781 C1787 1.390 . S
C1782 H1773 0.930 . S
C1782 C1780 1.384 . S
C1782 C1783 1.372 . S
C1783 C1782 1.372 . S
C1783 C1784 1.400 . S
C1783 C1788 1.490 . S
C1784 H1774 0.930 . S
C1784 C1783 1.400 . S
C1784 C1787 1.386 . S
H1785 C1801 0.930 . S
H1786 C1802 0.931 . S
C1787 H1775 0.929 . S
C1787 C1781 1.390 . S
C1787 C1784 1.386 . S
C1788 C1783 1.490 . S
C1788 C1790 1.395 . S
C1788 C1791 1.403 . S
H1789 C1795 0.930 . S
C1790 H1776 0.930 . S
C1790 C1788 1.395 . S
C1790 C1793 1.403 . S
C1791 C1788 1.403 . S
C1791 C1792 1.524 . S
C1791 C1795 1.400 . S
C1792 H1777 0.960 . S
C1792 H1778 0.960 . S
C1792 H1779 0.960 . S
C1792 C1791 1.524 . S
C1793 C1790 1.403 . S
C1793 C1794 1.392 . S
C1793 C1797 1.495 . S
C1794 C1793 1.392 . S
C1794 C1795 1.385 . S
C1794 C1796 1.478 . S
C1795 H1789 0.930 . S
C1795 C1791 1.400 . S
C1795 C1794 1.385 . S
C1796 C1794 1.478 . S
C1796 C1798 1.381 . S
C1796 C1802 1.383 . S
C1797 C1793 1.495 . S
C1797 H1803 0.959 . S
C1797 H1804 0.961 . S
C1797 H1805 0.960 . S
C1798 C1796 1.381 . S
C1798 C1799 1.394 . S
C1798 H1806 0.930 . S
C1799 C1798 1.394 . S
C1799 C1800 1.383 . S
C1799 H1807 0.929 . S
C1800 C1799 1.383 . S
C1800 C1801 1.377 . S
C1801 H1785 0.930 . S
C1801 C1800 1.377 . S
C1801 C1802 1.379 . S
C1802 H1786 0.931 . S
C1802 C1796 1.383 . S
C1802 C1801 1.379 . S
H1803 C1797 0.959 . S
H1804 C1797 0.961 . S
H1805 C1797 0.960 . S
H1806 C1798 0.930 . S
H1807 C1799 0.929 . S
H1808 C1816 0.929 . S
H1809 C1818 0.938 . S
H1810 C1820 0.930 . S
H1811 C1823 0.929 . S
H1812 C1826 0.930 . S
H1813 C1828 0.960 . S
H1814 C1828 0.960 . S
H1815 C1828 0.960 . S
C1816 H1808 0.929 . S
C1816 C1817 1.377 1_565 S
C1816 C1818 1.386 . S
C1817 C1816 1.377 1_545 S
C1817 C1823 1.390 . S
C1818 H1809 0.938 . S
C1818 C1816 1.386 . S
C1818 C1819 1.362 1_565 S
C1819 C1818 1.362 1_545 S
C1819 C1820 1.400 . S
C1819 C1824 1.490 . S
C1820 H1810 0.930 . S
C1820 C1819 1.400 . S
C1820 C1823 1.386 . S
H1821 C1837 0.930 . S
H1822 C1838 0.931 . S
C1823 H1811 0.929 . S
C1823 C1817 1.390 . S
C1823 C1820 1.386 . S
C1824 C1819 1.490 . S
C1824 C1826 1.395 . S
C1824 C1827 1.399 1_545 S
H1825 C1831 0.930 1_565 S
C1826 H1812 0.930 . S
C1826 C1824 1.395 . S
C1826 C1829 1.403 . S
C1827 C1824 1.399 1_565 S
C1827 C1828 1.530 . S
C1827 C1831 1.397 1_565 S
C1828 H1813 0.960 . S
C1828 H1814 0.960 . S
C1828 H1815 0.960 . S
C1828 C1827 1.530 . S
C1829 C1826 1.403 . S
C1829 C1830 1.392 . S
C1829 C1833 1.495 . S
C1830 C1829 1.392 . S
C1830 C1831 1.385 . S
C1830 C1832 1.478 . S
C1831 H1825 0.930 1_545 S
C1831 C1827 1.397 1_545 S
C1831 C1830 1.385 . S
C1832 C1830 1.478 . S
C1832 C1834 1.381 . S
C1832 C1838 1.383 . S
C1833 C1829 1.495 . S
C1833 H1839 0.959 . S
C1833 H1840 0.961 . S
C1833 H1841 0.960 . S
C1834 C1832 1.381 . S
C1834 C1835 1.394 . S
C1834 H1842 0.930 . S
C1835 C1834 1.394 . S
C1835 C1836 1.383 . S
C1835 H1843 0.929 . S
C1836 C1835 1.383 . S
C1836 C1837 1.377 . S
C1837 H1821 0.930 . S
C1837 C1836 1.377 . S
C1837 C1838 1.379 . S
C1838 H1822 0.931 . S
C1838 C1832 1.383 . S
C1838 C1837 1.379 . S
H1839 C1833 0.959 . S
H1840 C1833 0.961 . S
H1841 C1833 0.960 . S
H1842 C1834 0.930 . S
H1843 C1835 0.929 . S
H1844 C1852 0.929 . S
H1845 C1854 0.930 . S
H1846 C1856 0.930 . S
H1847 C1859 0.929 . S
H1848 C1862 0.930 . S
H1849 C1864 0.960 . S
H1850 C1864 0.960 . S
H1851 C1864 0.960 . S
C1852 H1844 0.929 . S
C1852 C1853 1.377 . S
C1852 C1854 1.384 . S
C1853 C1852 1.377 . S
C1853 C1859 1.390 . S
C1854 H1845 0.930 . S
C1854 C1852 1.384 . S
C1854 C1855 1.372 . S
C1855 C1854 1.372 . S
C1855 C1856 1.400 . S
C1855 C1860 1.490 . S
C1856 H1846 0.930 . S
C1856 C1855 1.400 . S
C1856 C1859 1.386 . S
H1857 C1873 0.930 . S
H1858 C1874 0.931 . S
C1859 H1847 0.929 . S
C1859 C1853 1.390 . S
C1859 C1856 1.386 . S
C1860 C1855 1.490 . S
C1860 C1862 1.395 . S
C1860 C1863 1.403 . S
H1861 C1867 0.930 . S
C1862 H1848 0.930 . S
C1862 C1860 1.395 . S
C1862 C1865 1.403 . S
C1863 C1860 1.403 . S
C1863 C1864 1.524 . S
C1863 C1867 1.400 . S
C1864 H1849 0.960 . S
C1864 H1850 0.960 . S
C1864 H1851 0.960 . S
C1864 C1863 1.524 . S
C1865 C1862 1.403 . S
C1865 C1866 1.392 . S
C1865 C1869 1.495 . S
C1866 C1865 1.392 . S
C1866 C1867 1.385 . S
C1866 C1868 1.478 . S
C1867 H1861 0.930 . S
C1867 C1863 1.400 . S
C1867 C1866 1.385 . S
C1868 C1866 1.478 . S
C1868 C1870 1.381 . S
C1868 C1874 1.383 . S
C1869 C1865 1.495 . S
C1869 H1875 0.959 . S
C1869 H1876 0.961 . S
C1869 H1877 0.960 . S
C1870 C1868 1.381 . S
C1870 C1871 1.394 . S
C1870 H1878 0.930 . S
C1871 C1870 1.394 . S
C1871 C1872 1.383 . S
C1871 H1879 0.929 . S
C1872 C1871 1.383 . S
C1872 C1873 1.377 . S
C1873 H1857 0.930 . S
C1873 C1872 1.377 . S
C1873 C1874 1.379 . S
C1874 H1858 0.931 . S
C1874 C1868 1.383 . S
C1874 C1873 1.379 . S
H1875 C1869 0.959 . S
H1876 C1869 0.961 . S
H1877 C1869 0.960 . S
H1878 C1870 0.930 . S
H1879 C1871 0.929 . S
H1880 C1888 0.929 . S
H1881 C1890 0.930 . S
H1882 C1892 0.930 . S
H1883 C1895 0.929 . S
H1884 C1898 0.930 . S
H1885 C1900 0.960 . S
H1886 C1900 0.960 . S
H1887 C1900 0.960 . S
C1888 H1880 0.929 . S
C1888 C1889 1.377 . S
C1888 C1890 1.384 . S
C1889 C1888 1.377 . S
C1889 C1895 1.390 . S
C1890 H1881 0.930 . S
C1890 C1888 1.384 . S
C1890 C1891 1.372 . S
C1891 C1890 1.372 . S
C1891 C1892 1.400 . S
C1891 C1896 1.490 . S
C1892 H1882 0.930 . S
C1892 C1891 1.400 . S
C1892 C1895 1.386 . S
H1893 C1909 0.930 . S
H1894 C1910 0.931 . S
C1895 H1883 0.929 . S
C1895 C1889 1.390 . S
C1895 C1892 1.386 . S
C1896 C1891 1.490 . S
C1896 C1898 1.395 . S
C1896 C1899 1.403 . S
H1897 C1903 0.930 . S
C1898 H1884 0.930 . S
C1898 C1896 1.395 . S
C1898 C1901 1.403 . S
C1899 C1896 1.403 . S
C1899 C1900 1.524 . S
C1899 C1903 1.400 . S
C1900 H1885 0.960 . S
C1900 H1886 0.960 . S
C1900 H1887 0.960 . S
C1900 C1899 1.524 . S
C1901 C1898 1.403 . S
C1901 C1902 1.392 . S
C1901 C1905 1.495 . S
C1902 C1901 1.392 . S
C1902 C1903 1.385 . S
C1902 C1904 1.478 . S
C1903 H1897 0.930 . S
C1903 C1899 1.400 . S
C1903 C1902 1.385 . S
C1904 C1902 1.478 . S
C1904 C1906 1.381 . S
C1904 C1910 1.383 . S
C1905 C1901 1.495 . S
C1905 H1911 0.959 . S
C1905 H1912 0.961 . S
C1905 H1913 0.960 . S
C1906 C1904 1.381 . S
C1906 C1907 1.394 . S
C1906 H1914 0.930 . S
C1907 C1906 1.394 . S
C1907 C1908 1.383 . S
C1907 H1915 0.929 . S
C1908 C1907 1.383 . S
C1908 C1909 1.377 . S
C1909 H1893 0.930 . S
C1909 C1908 1.377 . S
C1909 C1910 1.379 . S
C1910 H1894 0.931 . S
C1910 C1904 1.383 . S
C1910 C1909 1.379 . S
H1911 C1905 0.959 . S
H1912 C1905 0.961 . S
H1913 C1905 0.960 . S
H1914 C1906 0.930 . S
H1915 C1907 0.929 . S
H1916 C1924 0.929 . S
H1917 C1926 0.930 . S
H1918 C1928 0.930 . S
H1919 C1931 0.929 . S
H1920 C1934 0.930 . S
H1921 C1936 0.960 . S
H1922 C1936 0.960 . S
H1923 C1936 0.960 . S
C1924 H1916 0.929 . S
C1924 C1925 1.377 . S
C1924 C1926 1.384 . S
C1925 C1924 1.377 . S
C1925 C1931 1.390 . S
C1926 H1917 0.930 . S
C1926 C1924 1.384 . S
C1926 C1927 1.372 . S
C1927 C1926 1.372 . S
C1927 C1928 1.400 . S
C1927 C1932 1.490 . S
C1928 H1918 0.930 . S
C1928 C1927 1.400 . S
C1928 C1931 1.386 . S
H1929 C1945 0.930 . S
H1930 C1946 0.931 . S
C1931 H1919 0.929 . S
C1931 C1925 1.390 . S
C1931 C1928 1.386 . S
C1932 C1927 1.490 . S
C1932 C1934 1.395 . S
C1932 C1935 1.403 . S
H1933 C1939 0.930 . S
C1934 H1920 0.930 . S
C1934 C1932 1.395 . S
C1934 C1937 1.403 . S
C1935 C1932 1.403 . S
C1935 C1936 1.524 . S
C1935 C1939 1.400 . S
C1936 H1921 0.960 . S
C1936 H1922 0.960 . S
C1936 H1923 0.960 . S
C1936 C1935 1.524 . S
C1937 C1934 1.403 . S
C1937 C1938 1.392 . S
C1937 C1941 1.495 . S
C1938 C1937 1.392 . S
C1938 C1939 1.385 . S
C1938 C1940 1.478 . S
C1939 H1933 0.930 . S
C1939 C1935 1.400 . S
C1939 C1938 1.385 . S
C1940 C1938 1.478 . S
C1940 C1942 1.381 . S
C1940 C1946 1.383 . S
C1941 C1937 1.495 . S
C1941 H1947 0.959 . S
C1941 H1948 0.961 . S
C1941 H1949 0.960 . S
C1942 C1940 1.381 . S
C1942 C1943 1.394 . S
C1942 H1950 0.930 . S
C1943 C1942 1.394 . S
C1943 C1944 1.383 . S
C1943 H1951 0.929 . S
C1944 C1943 1.383 . S
C1944 C1945 1.377 . S
C1945 H1929 0.930 . S
C1945 C1944 1.377 . S
C1945 C1946 1.379 . S
C1946 H1930 0.931 . S
C1946 C1940 1.383 . S
C1946 C1945 1.379 . S
H1947 C1941 0.959 . S
H1948 C1941 0.961 . S
H1949 C1941 0.960 . S
H1950 C1942 0.930 . S
H1951 C1943 0.929 . S
H1952 C1960 0.929 . S
H1953 C1962 0.930 . S
H1954 C1964 0.930 . S
H1955 C1967 0.929 . S
H1956 C1970 0.930 . S
H1957 C1972 0.960 . S
H1958 C1972 0.960 . S
H1959 C1972 0.960 . S
C1960 H1952 0.929 . S
C1960 C1961 1.377 . S
C1960 C1962 1.384 . S
C1961 C1960 1.377 . S
C1961 C1967 1.390 1_565 S
C1962 H1953 0.930 . S
C1962 C1960 1.384 . S
C1962 C1963 1.372 1_565 S
C1963 C1962 1.372 1_545 S
C1963 C1964 1.400 . S
C1963 C1968 1.490 . S
C1964 H1954 0.930 . S
C1964 C1963 1.400 . S
C1964 C1967 1.386 . S
H1965 C1981 0.930 . S
H1966 C1982 0.931 . S
C1967 H1955 0.929 . S
C1967 C1961 1.390 1_545 S
C1967 C1964 1.386 . S
C1968 C1963 1.490 . S
C1968 C1970 1.395 . S
C1968 C1971 1.403 . S
H1969 C1975 0.930 . S
C1970 H1956 0.930 . S
C1970 C1968 1.395 . S
C1970 C1973 1.403 . S
C1971 C1968 1.403 . S
C1971 C1972 1.524 1_545 S
C1971 C1975 1.400 . S
C1972 H1957 0.960 . S
C1972 H1958 0.960 . S
C1972 H1959 0.960 . S
C1972 C1971 1.524 1_565 S
C1973 C1970 1.403 . S
C1973 C1974 1.392 . S
C1973 C1977 1.495 . S
C1974 C1973 1.392 . S
C1974 C1975 1.385 . S
C1974 C1976 1.478 . S
C1975 H1969 0.930 . S
C1975 C1971 1.400 . S
C1975 C1974 1.385 . S
C1976 C1974 1.478 . S
C1976 C1978 1.381 . S
C1976 C1982 1.383 . S
C1977 C1973 1.495 . S
C1977 H1983 0.959 . S
C1977 H1984 0.961 . S
C1977 H1985 0.960 . S
C1978 C1976 1.381 . S
C1978 C1979 1.394 . S
C1978 H1986 0.930 1_545 S
C1979 C1978 1.394 . S
C1979 C1980 1.383 . S
C1979 H1987 0.929 . S
C1980 C1979 1.383 . S
C1980 C1981 1.377 . S
C1981 H1965 0.930 . S
C1981 C1980 1.377 . S
C1981 C1982 1.379 . S
C1982 H1966 0.931 . S
C1982 C1976 1.383 . S
C1982 C1981 1.379 . S
H1983 C1977 0.959 . S
H1984 C1977 0.961 . S
H1985 C1977 0.960 . S
H1986 C1978 0.930 1_565 S
H1987 C1979 0.929 . S
H1988 C1996 0.929 . S
H1989 C1998 0.930 . S
H1990 C2000 0.930 . S
H1991 C2003 0.929 . S
H1992 C2006 0.930 . S
H1993 C2008 0.960 . S
H1994 C2008 0.960 . S
H1995 C2008 0.960 . S
C1996 H1988 0.929 . S
C1996 C1997 1.377 . S
C1996 C1998 1.384 . S
C1997 C1996 1.377 . S
C1997 C2003 1.390 . S
C1998 H1989 0.930 . S
C1998 C1996 1.384 . S
C1998 C1999 1.372 . S
C1999 C1998 1.372 . S
C1999 C2000 1.400 . S
C1999 C2004 1.490 . S
C2000 H1990 0.930 . S
C2000 C1999 1.400 . S
C2000 C2003 1.386 . S
H2001 C2017 0.930 . S
H2002 C2018 0.931 . S
C2003 H1991 0.929 . S
C2003 C1997 1.390 . S
C2003 C2000 1.386 . S
C2004 C1999 1.490 . S
C2004 C2006 1.395 . S
C2004 C2007 1.403 . S
H2005 C2011 0.930 . S
C2006 H1992 0.930 . S
C2006 C2004 1.395 . S
C2006 C2009 1.403 . S
C2007 C2004 1.403 . S
C2007 C2008 1.524 . S
C2007 C2011 1.400 . S
C2008 H1993 0.960 . S
C2008 H1994 0.960 . S
C2008 H1995 0.960 . S
C2008 C2007 1.524 . S
C2009 C2006 1.403 . S
C2009 C2010 1.392 . S
C2009 C2013 1.495 . S
C2010 C2009 1.392 . S
C2010 C2011 1.385 . S
C2010 C2012 1.478 . S
C2011 H2005 0.930 . S
C2011 C2007 1.400 . S
C2011 C2010 1.385 . S
C2012 C2010 1.478 . S
C2012 C2014 1.381 . S
C2012 C2018 1.383 . S
C2013 C2009 1.495 . S
C2013 H2019 0.959 . S
C2013 H2020 0.961 . S
C2013 H2021 0.960 . S
C2014 C2012 1.381 . S
C2014 C2015 1.394 . S
C2014 H2022 0.930 . S
C2015 C2014 1.394 . S
C2015 C2016 1.383 . S
C2015 H2023 0.929 . S
C2016 C2015 1.383 . S
C2016 C2017 1.377 . S
C2017 H2001 0.930 . S
C2017 C2016 1.377 . S
C2017 C2018 1.379 . S
C2018 H2002 0.931 . S
C2018 C2012 1.383 . S
C2018 C2017 1.379 . S
H2019 C2013 0.959 . S
H2020 C2013 0.961 . S
H2021 C2013 0.960 . S
H2022 C2014 0.930 . S
H2023 C2015 0.929 . S
H2024 C2032 0.929 . S
H2025 C2034 0.930 . S
H2026 C2036 0.930 . S
H2027 C2039 0.929 . S
H2028 C2042 0.930 . S
H2029 C2044 0.960 . S
H2030 C2044 0.960 . S
H2031 C2044 0.960 . S
C2032 H2024 0.929 . S
C2032 C2033 1.377 . S
C2032 C2034 1.384 . S
C2033 C2032 1.377 . S
C2033 C2039 1.390 . S
C2034 H2025 0.930 . S
C2034 C2032 1.384 . S
C2034 C2035 1.372 . S
C2035 C2034 1.372 . S
C2035 C2036 1.400 . S
C2035 C2040 1.490 . S
C2036 H2026 0.930 . S
C2036 C2035 1.400 . S
C2036 C2039 1.386 . S
H2037 C2053 0.930 . S
H2038 C2054 0.931 . S
C2039 H2027 0.929 . S
C2039 C2033 1.390 . S
C2039 C2036 1.386 . S
C2040 C2035 1.490 . S
C2040 C2042 1.395 . S
C2040 C2043 1.403 . S
H2041 C2047 0.930 . S
C2042 H2028 0.930 . S
C2042 C2040 1.395 . S
C2042 C2045 1.403 . S
C2043 C2040 1.403 . S
C2043 C2044 1.524 . S
C2043 C2047 1.400 . S
C2044 H2029 0.960 . S
C2044 H2030 0.960 . S
C2044 H2031 0.960 . S
C2044 C2043 1.524 . S
C2045 C2042 1.403 . S
C2045 C2046 1.392 . S
C2045 C2049 1.495 . S
C2046 C2045 1.392 . S
C2046 C2047 1.385 . S
C2046 C2048 1.478 . S
C2047 H2041 0.930 . S
C2047 C2043 1.400 . S
C2047 C2046 1.385 . S
C2048 C2046 1.478 . S
C2048 C2050 1.381 . S
C2048 C2054 1.383 . S
C2049 C2045 1.495 . S
C2049 H2055 0.959 . S
C2049 H2056 0.961 . S
C2049 H2057 0.960 . S
C2050 C2048 1.381 . S
C2050 C2051 1.394 . S
C2050 H2058 0.930 . S
C2051 C2050 1.394 . S
C2051 C2052 1.383 . S
C2051 H2059 0.929 . S
C2052 C2051 1.383 . S
C2052 C2053 1.377 . S
C2053 H2037 0.930 . S
C2053 C2052 1.377 . S
C2053 C2054 1.379 . S
C2054 H2038 0.931 . S
C2054 C2048 1.383 . S
C2054 C2053 1.379 . S
H2055 C2049 0.959 . S
H2056 C2049 0.961 . S
H2057 C2049 0.960 . S
H2058 C2050 0.930 . S
H2059 C2051 0.929 . S
H2060 C2068 0.929 . S
H2061 C2070 0.930 . S
H2062 C2072 0.930 . S
H2063 C2075 0.929 . S
H2064 C2078 0.930 . S
H2065 C2080 0.960 . S
H2066 C2080 0.960 . S
H2067 C2080 0.960 . S
C2068 H2060 0.929 . S
C2068 C2069 1.377 . S
C2068 C2070 1.384 . S
C2069 C2068 1.377 . S
C2069 C2075 1.390 . S
C2070 H2061 0.930 . S
C2070 C2068 1.384 . S
C2070 C2071 1.372 . S
C2071 C2070 1.372 . S
C2071 C2072 1.400 . S
C2071 C2076 1.490 . S
C2072 H2062 0.930 . S
C2072 C2071 1.400 . S
C2072 C2075 1.386 . S
H2073 C2089 0.930 . S
H2074 C2090 0.931 . S
C2075 H2063 0.929 . S
C2075 C2069 1.390 . S
C2075 C2072 1.386 . S
C2076 C2071 1.490 . S
C2076 C2078 1.395 . S
C2076 C2079 1.403 . S
H2077 C2083 0.930 . S
C2078 H2064 0.930 . S
C2078 C2076 1.395 . S
C2078 C2081 1.403 . S
C2079 C2076 1.403 . S
C2079 C2080 1.524 . S
C2079 C2083 1.400 . S
C2080 H2065 0.960 . S
C2080 H2066 0.960 . S
C2080 H2067 0.960 . S
C2080 C2079 1.524 . S
C2081 C2078 1.403 . S
C2081 C2082 1.392 . S
C2081 C2085 1.495 . S
C2082 C2081 1.392 . S
C2082 C2083 1.385 . S
C2082 C2084 1.478 . S
C2083 H2077 0.930 . S
C2083 C2079 1.400 . S
C2083 C2082 1.385 . S
C2084 C2082 1.478 . S
C2084 C2086 1.381 . S
C2084 C2090 1.383 . S
C2085 C2081 1.495 . S
C2085 H2091 0.959 . S
C2085 H2092 0.961 . S
C2085 H2093 0.960 . S
C2086 C2084 1.381 . S
C2086 C2087 1.394 . S
C2086 H2094 0.930 . S
C2087 C2086 1.394 . S
C2087 C2088 1.383 . S
C2087 H2095 0.929 . S
C2088 C2087 1.383 . S
C2088 C2089 1.377 . S
C2089 H2073 0.930 . S
C2089 C2088 1.377 . S
C2089 C2090 1.379 . S
C2090 H2074 0.931 . S
C2090 C2084 1.383 . S
C2090 C2089 1.379 . S
H2091 C2085 0.959 . S
H2092 C2085 0.961 . S
H2093 C2085 0.960 . S
H2094 C2086 0.930 . S
H2095 C2087 0.929 . S
H2096 C2104 0.929 . S
H2097 C2106 0.930 . S
H2098 C2108 0.930 . S
H2099 C2111 0.929 . S
H2100 C2114 0.929 1_556 S
H2101 C2116 0.960 . S
H2102 C2116 0.960 . S
H2103 C2116 0.960 . S
C2104 H2096 0.929 . S
C2104 C2105 1.377 . S
C2104 C2106 1.384 . S
C2105 C2104 1.377 . S
C2105 C2111 1.390 1_554 S
C2106 H2097 0.930 . S
C2106 C2104 1.384 . S
C2106 C2107 1.372 . S
C2107 C2106 1.372 . S
C2107 C2108 1.400 1_554 S
C2107 C2112 1.490 . S
C2108 H2098 0.930 . S
C2108 C2107 1.400 1_556 S
C2108 C2111 1.386 . S
H2109 C2125 0.930 . S
H2110 C2126 0.931 . S
C2111 H2099 0.929 . S
C2111 C2105 1.390 1_556 S
C2111 C2108 1.386 . S
C2112 C2107 1.490 . S
C2112 C2114 1.395 . S
C2112 C2115 1.403 . S
H2113 C2119 0.930 . S
C2114 H2100 0.929 1_554 S
C2114 C2112 1.395 . S
C2114 C2117 1.403 . S
C2115 C2112 1.403 . S
C2115 C2116 1.524 . S
C2115 C2119 1.400 . S
C2116 H2101 0.960 . S
C2116 H2102 0.960 . S
C2116 H2103 0.960 . S
C2116 C2115 1.524 . S
C2117 C2114 1.403 . S
C2117 C2118 1.392 . S
C2117 C2121 1.495 1_554 S
C2118 C2117 1.392 . S
C2118 C2119 1.385 . S
C2118 C2120 1.478 . S
C2119 H2113 0.930 . S
C2119 C2115 1.400 . S
C2119 C2118 1.385 . S
C2120 C2118 1.478 . S
C2120 C2122 1.381 . S
C2120 C2126 1.383 1_554 S
C2121 C2117 1.495 1_556 S
C2121 H2127 0.959 . S
C2121 H2128 0.961 . S
C2121 H2129 0.960 1_556 S
C2122 C2120 1.381 . S
C2122 C2123 1.394 . S
C2122 H2130 0.930 . S
C2123 C2122 1.394 . S
C2123 C2124 1.383 . S
C2123 H2131 0.929 . S
C2124 C2123 1.383 . S
C2124 C2125 1.377 1_554 S
C2125 H2109 0.930 . S
C2125 C2124 1.377 1_556 S
C2125 C2126 1.379 . S
C2126 H2110 0.931 . S
C2126 C2120 1.383 1_556 S
C2126 C2125 1.379 . S
H2127 C2121 0.959 . S
H2128 C2121 0.961 . S
H2129 C2121 0.960 1_554 S
H2130 C2122 0.930 . S
H2131 C2123 0.929 . S
H2132 C2140 0.929 . S
H2133 C2142 0.930 . S
H2134 C2144 0.930 . S
H2135 C2147 0.929 . S
H2136 C2150 0.930 . S
H2137 C2152 0.960 . S
H2138 C2152 0.960 . S
H2139 C2152 0.960 . S
C2140 H2132 0.929 . S
C2140 C2141 1.377 . S
C2140 C2142 1.384 . S
C2141 C2140 1.377 . S
C2141 C2147 1.390 . S
C2142 H2133 0.930 . S
C2142 C2140 1.384 . S
C2142 C2143 1.372 . S
C2143 C2142 1.372 . S
C2143 C2144 1.400 . S
C2143 C2148 1.490 . S
C2144 H2134 0.930 . S
C2144 C2143 1.400 . S
C2144 C2147 1.386 . S
H2145 C2161 0.896 1_556 S
H2146 C2162 0.931 1_556 S
C2147 H2135 0.929 . S
C2147 C2141 1.390 . S
C2147 C2144 1.386 . S
C2148 C2143 1.490 . S
C2148 C2150 1.395 . S
C2148 C2151 1.403 . S
H2149 C2155 0.930 . S
C2150 H2136 0.930 . S
C2150 C2148 1.395 . S
C2150 C2153 1.403 . S
C2151 C2148 1.403 . S
C2151 C2152 1.524 . S
C2151 C2155 1.400 . S
C2152 H2137 0.960 . S
C2152 H2138 0.960 . S
C2152 H2139 0.960 . S
C2152 C2151 1.524 . S
C2153 C2150 1.403 . S
C2153 C2154 1.392 . S
C2153 C2157 1.477 1_554 S
C2154 C2153 1.392 . S
C2154 C2155 1.385 . S
C2154 C2156 1.478 . S
C2155 H2149 0.930 . S
C2155 C2151 1.400 . S
C2155 C2154 1.385 . S
C2156 C2154 1.478 . S
C2156 C2158 1.381 . S
C2156 C2162 1.383 . S
C2157 C2153 1.477 1_556 S
C2157 H2163 0.967 . S
C2157 H2164 0.993 . S
C2157 H2165 0.940 1_556 S
C2158 C2156 1.381 . S
C2158 C2159 1.394 . S
C2158 H2166 0.930 . S
C2159 C2158 1.394 . S
C2159 C2160 1.383 . S
C2159 H2167 0.929 . S
C2160 C2159 1.383 . S
C2160 C2161 1.377 . S
C2161 H2145 0.896 1_554 S
C2161 C2160 1.377 . S
C2161 C2162 1.379 . S
C2162 H2146 0.931 1_554 S
C2162 C2156 1.383 . S
C2162 C2161 1.379 . S
H2163 C2157 0.967 . S
H2164 C2157 0.993 . S
H2165 C2157 0.940 1_554 S
H2166 C2158 0.930 . S
H2167 C2159 0.929 . S
H2168 C2176 0.929 . S
H2169 C2178 0.930 . S
H2170 C2180 0.930 . S
H2171 C2183 0.929 . S
H2172 C2186 0.930 . S
H2173 C2188 0.960 . S
H2174 C2188 0.960 . S
H2175 C2188 0.960 . S
C2176 H2168 0.929 . S
C2176 C2177 1.377 . S
C2176 C2178 1.384 . S
C2177 C2176 1.377 . S
C2177 C2183 1.390 . S
C2178 H2169 0.930 . S
C2178 C2176 1.384 . S
C2178 C2179 1.372 . S
C2179 C2178 1.372 . S
C2179 C2180 1.400 . S
C2179 C2184 1.490 . S
C2180 H2170 0.930 . S
C2180 C2179 1.400 . S
C2180 C2183 1.386 . S
H2181 C2197 0.930 . S
H2182 C2198 0.931 . S
C2183 H2171 0.929 . S
C2183 C2177 1.390 . S
C2183 C2180 1.386 . S
C2184 C2179 1.490 . S
C2184 C2186 1.395 . S
C2184 C2187 1.403 . S
H2185 C2191 0.930 . S
C2186 H2172 0.930 . S
C2186 C2184 1.395 . S
C2186 C2189 1.403 . S
C2187 C2184 1.403 . S
C2187 C2188 1.524 . S
C2187 C2191 1.400 . S
C2188 H2173 0.960 . S
C2188 H2174 0.960 . S
C2188 H2175 0.960 . S
C2188 C2187 1.524 . S
C2189 C2186 1.403 . S
C2189 C2190 1.392 . S
C2189 C2193 1.495 . S
C2190 C2189 1.392 . S
C2190 C2191 1.385 . S
C2190 C2192 1.478 . S
C2191 H2185 0.930 . S
C2191 C2187 1.400 . S
C2191 C2190 1.385 . S
C2192 C2190 1.478 . S
C2192 C2194 1.381 . S
C2192 C2198 1.383 . S
C2193 C2189 1.495 . S
C2193 H2199 0.959 . S
C2193 H2200 0.961 . S
C2193 H2201 0.960 . S
C2194 C2192 1.381 . S
C2194 C2195 1.394 . S
C2194 H2202 0.930 . S
C2195 C2194 1.394 . S
C2195 C2196 1.383 . S
C2195 H2203 0.929 . S
C2196 C2195 1.383 . S
C2196 C2197 1.377 . S
C2197 H2181 0.930 . S
C2197 C2196 1.377 . S
C2197 C2198 1.379 . S
C2198 H2182 0.931 . S
C2198 C2192 1.383 . S
C2198 C2197 1.379 . S
H2199 C2193 0.959 . S
H2200 C2193 0.961 . S
H2201 C2193 0.960 . S
H2202 C2194 0.930 . S
H2203 C2195 0.929 . S
H2204 C2212 0.929 . S
H2205 C2214 0.930 . S
H2206 C2216 0.930 . S
H2207 C2219 0.929 . S
H2208 C2222 0.930 . S
H2209 C2224 0.960 . S
H2210 C2224 0.960 . S
H2211 C2224 0.960 . S
C2212 H2204 0.929 . S
C2212 C2213 1.377 . S
C2212 C2214 1.384 . S
C2213 C2212 1.377 . S
C2213 C2219 1.390 . S
C2214 H2205 0.930 . S
C2214 C2212 1.384 . S
C2214 C2215 1.372 . S
C2215 C2214 1.372 . S
C2215 C2216 1.400 . S
C2215 C2220 1.490 . S
C2216 H2206 0.930 . S
C2216 C2215 1.400 . S
C2216 C2219 1.386 . S
H2217 C2233 0.930 . S
H2218 C2234 0.931 . S
C2219 H2207 0.929 . S
C2219 C2213 1.390 . S
C2219 C2216 1.386 . S
C2220 C2215 1.490 . S
C2220 C2222 1.395 . S
C2220 C2223 1.403 . S
H2221 C2227 0.930 . S
C2222 H2208 0.930 . S
C2222 C2220 1.395 . S
C2222 C2225 1.403 . S
C2223 C2220 1.403 . S
C2223 C2224 1.524 . S
C2223 C2227 1.400 . S
C2224 H2209 0.960 . S
C2224 H2210 0.960 . S
C2224 H2211 0.960 . S
C2224 C2223 1.524 . S
C2225 C2222 1.403 . S
C2225 C2226 1.392 . S
C2225 C2229 1.495 . S
C2226 C2225 1.392 . S
C2226 C2227 1.385 . S
C2226 C2228 1.478 . S
C2227 H2221 0.930 . S
C2227 C2223 1.400 . S
C2227 C2226 1.385 . S
C2228 C2226 1.478 . S
C2228 C2230 1.381 . S
C2228 C2234 1.383 . S
C2229 C2225 1.495 . S
C2229 H2235 0.959 . S
C2229 H2236 0.961 . S
C2229 H2237 0.960 . S
C2230 C2228 1.381 . S
C2230 C2231 1.394 . S
C2230 H2238 0.930 . S
C2231 C2230 1.394 . S
C2231 C2232 1.383 . S
C2231 H2239 0.929 . S
C2232 C2231 1.383 . S
C2232 C2233 1.377 . S
C2233 H2217 0.930 . S
C2233 C2232 1.377 . S
C2233 C2234 1.379 . S
C2234 H2218 0.931 . S
C2234 C2228 1.383 . S
C2234 C2233 1.379 . S
H2235 C2229 0.959 . S
H2236 C2229 0.961 . S
H2237 C2229 0.960 . S
H2238 C2230 0.930 . S
H2239 C2231 0.929 . S
H2240 C2248 0.929 . S
H2241 C2250 0.930 . S
H2242 C2252 0.930 . S
H2243 C2255 0.929 . S
H2244 C2258 0.930 . S
H2245 C2260 0.960 . S
H2246 C2260 0.960 . S
H2247 C2260 0.960 . S
C2248 H2240 0.929 . S
C2248 C2249 1.377 . S
C2248 C2250 1.384 . S
C2249 C2248 1.377 . S
C2249 C2255 1.390 . S
C2250 H2241 0.930 . S
C2250 C2248 1.384 . S
C2250 C2251 1.372 . S
C2251 C2250 1.372 . S
C2251 C2252 1.400 . S
C2251 C2256 1.490 . S
C2252 H2242 0.930 . S
C2252 C2251 1.400 . S
C2252 C2255 1.386 . S
H2253 C2269 0.930 . S
H2254 C2270 0.931 . S
C2255 H2243 0.929 . S
C2255 C2249 1.390 . S
C2255 C2252 1.386 . S
C2256 C2251 1.490 . S
C2256 C2258 1.395 . S
C2256 C2259 1.403 . S
H2257 C2263 0.930 . S
C2258 H2244 0.930 . S
C2258 C2256 1.395 . S
C2258 C2261 1.403 . S
C2259 C2256 1.403 . S
C2259 C2260 1.524 . S
C2259 C2263 1.400 . S
C2260 H2245 0.960 . S
C2260 H2246 0.960 . S
C2260 H2247 0.960 . S
C2260 C2259 1.524 . S
C2261 C2258 1.403 . S
C2261 C2262 1.392 . S
C2261 C2265 1.495 . S
C2262 C2261 1.392 . S
C2262 C2263 1.385 . S
C2262 C2264 1.478 . S
C2263 H2257 0.930 . S
C2263 C2259 1.400 . S
C2263 C2262 1.385 . S
C2264 C2262 1.478 . S
C2264 C2266 1.381 . S
C2264 C2270 1.383 . S
C2265 C2261 1.495 . S
C2265 H2271 0.959 . S
C2265 H2272 0.961 . S
C2265 H2273 0.960 . S
C2266 C2264 1.381 . S
C2266 C2267 1.394 . S
C2266 H2274 0.930 . S
C2267 C2266 1.394 . S
C2267 C2268 1.383 . S
C2267 H2275 0.929 . S
C2268 C2267 1.383 . S
C2268 C2269 1.377 . S
C2269 H2253 0.930 . S
C2269 C2268 1.377 . S
C2269 C2270 1.379 . S
C2270 H2254 0.931 . S
C2270 C2264 1.383 . S
C2270 C2269 1.379 . S
H2271 C2265 0.959 . S
H2272 C2265 0.961 . S
H2273 C2265 0.960 . S
H2274 C2266 0.930 . S
H2275 C2267 0.929 . S
H2276 C2284 0.929 . S
H2277 C2286 0.930 . S
H2278 C2288 0.930 . S
H2279 C2291 0.929 . S
H2280 C2294 0.930 . S
H2281 C2296 0.960 . S
H2282 C2296 0.960 . S
H2283 C2296 0.960 . S
C2284 H2276 0.929 . S
C2284 C2285 1.377 . S
C2284 C2286 1.384 . S
C2285 C2284 1.377 . S
C2285 C2291 1.390 . S
C2286 H2277 0.930 . S
C2286 C2284 1.384 . S
C2286 C2287 1.372 . S
C2287 C2286 1.372 . S
C2287 C2288 1.400 . S
C2287 C2292 1.490 . S
C2288 H2278 0.930 . S
C2288 C2287 1.400 . S
C2288 C2291 1.386 . S
H2289 C2305 0.930 . S
H2290 C2306 0.931 . S
C2291 H2279 0.929 . S
C2291 C2285 1.390 . S
C2291 C2288 1.386 . S
C2292 C2287 1.490 . S
C2292 C2294 1.395 . S
C2292 C2295 1.403 . S
H2293 C2299 0.930 . S
C2294 H2280 0.930 . S
C2294 C2292 1.395 . S
C2294 C2297 1.403 . S
C2295 C2292 1.403 . S
C2295 C2296 1.524 . S
C2295 C2299 1.400 . S
C2296 H2281 0.960 . S
C2296 H2282 0.960 . S
C2296 H2283 0.960 . S
C2296 C2295 1.524 . S
C2297 C2294 1.403 . S
C2297 C2298 1.392 . S
C2297 C2301 1.495 1_565 S
C2298 C2297 1.392 . S
C2298 C2299 1.385 . S
C2298 C2300 1.478 . S
C2299 H2293 0.930 . S
C2299 C2295 1.400 . S
C2299 C2298 1.385 . S
C2300 C2298 1.478 . S
C2300 C2302 1.381 . S
C2300 C2306 1.383 . S
C2301 C2297 1.495 1_545 S
C2301 H2307 0.959 . S
C2301 H2308 0.961 . S
C2301 H2309 0.960 . S
C2302 C2300 1.381 . S
C2302 C2303 1.379 1_565 S
C2302 H2310 0.930 . S
C2303 C2302 1.379 1_545 S
C2303 C2304 1.385 1_545 S
C2303 H2311 0.944 . S
C2304 C2303 1.385 1_565 S
C2304 C2305 1.377 . S
C2305 H2289 0.930 . S
C2305 C2304 1.377 . S
C2305 C2306 1.379 . S
C2306 H2290 0.931 . S
C2306 C2300 1.383 . S
C2306 C2305 1.379 . S
H2307 C2301 0.959 . S
H2308 C2301 0.961 . S
H2309 C2301 0.960 . S
H2310 C2302 0.930 . S
H2311 C2303 0.944 . S
H2312 C2320 0.929 . S
H2313 C2322 0.930 . S
H2314 C2324 0.930 . S
H2315 C2327 0.929 . S
H2316 C2330 0.930 . S
H2317 C2332 0.960 . S
H2318 C2332 0.960 . S
H2319 C2332 0.960 . S
C2320 H2312 0.929 . S
C2320 C2321 1.377 . S
C2320 C2322 1.384 . S
C2321 C2320 1.377 . S
C2321 C2327 1.390 . S
C2322 H2313 0.930 . S
C2322 C2320 1.384 . S
C2322 C2323 1.372 . S
C2323 C2322 1.372 . S
C2323 C2324 1.400 . S
C2323 C2328 1.490 . S
C2324 H2314 0.930 . S
C2324 C2323 1.400 . S
C2324 C2327 1.386 . S
H2325 C2341 0.930 . S
H2326 C2342 0.931 . S
C2327 H2315 0.929 . S
C2327 C2321 1.390 . S
C2327 C2324 1.386 . S
C2328 C2323 1.490 . S
C2328 C2330 1.395 . S
C2328 C2331 1.403 . S
H2329 C2335 0.930 . S
C2330 H2316 0.930 . S
C2330 C2328 1.395 . S
C2330 C2333 1.403 . S
C2331 C2328 1.403 . S
C2331 C2332 1.524 . S
C2331 C2335 1.400 . S
C2332 H2317 0.960 . S
C2332 H2318 0.960 . S
C2332 H2319 0.960 . S
C2332 C2331 1.524 . S
C2333 C2330 1.403 . S
C2333 C2334 1.392 . S
C2333 C2337 1.495 . S
C2334 C2333 1.392 . S
C2334 C2335 1.385 . S
C2334 C2336 1.478 . S
C2335 H2329 0.930 . S
C2335 C2331 1.400 . S
C2335 C2334 1.385 . S
C2336 C2334 1.478 . S
C2336 C2338 1.381 . S
C2336 C2342 1.383 . S
C2337 C2333 1.495 . S
C2337 H2343 0.959 . S
C2337 H2344 0.961 . S
C2337 H2345 0.960 . S
C2338 C2336 1.381 . S
C2338 C2339 1.394 . S
C2338 H2346 0.930 . S
C2339 C2338 1.394 . S
C2339 C2340 1.383 . S
C2339 H2347 0.929 . S
C2340 C2339 1.383 . S
C2340 C2341 1.377 . S
C2341 H2325 0.930 . S
C2341 C2340 1.377 . S
C2341 C2342 1.379 . S
C2342 H2326 0.931 . S
C2342 C2336 1.383 . S
C2342 C2341 1.379 . S
H2343 C2337 0.959 . S
H2344 C2337 0.961 . S
H2345 C2337 0.960 . S
H2346 C2338 0.930 . S
H2347 C2339 0.929 . S
H2348 C2356 0.929 . S
H2349 C2358 0.930 . S
H2350 C2360 0.930 . S
H2351 C2363 0.929 . S
H2352 C2366 0.930 . S
H2353 C2368 0.960 . S
H2354 C2368 0.960 . S
H2355 C2368 0.960 . S
C2356 H2348 0.929 . S
C2356 C2357 1.377 . S
C2356 C2358 1.384 . S
C2357 C2356 1.377 . S
C2357 C2363 1.390 . S
C2358 H2349 0.930 . S
C2358 C2356 1.384 . S
C2358 C2359 1.372 . S
C2359 C2358 1.372 . S
C2359 C2360 1.400 . S
C2359 C2364 1.490 . S
C2360 H2350 0.930 . S
C2360 C2359 1.400 . S
C2360 C2363 1.386 . S
H2361 C2377 0.930 . S
H2362 C2378 0.931 . S
C2363 H2351 0.929 . S
C2363 C2357 1.390 . S
C2363 C2360 1.386 . S
C2364 C2359 1.490 . S
C2364 C2366 1.395 . S
C2364 C2367 1.403 . S
H2365 C2371 0.930 . S
C2366 H2352 0.930 . S
C2366 C2364 1.395 . S
C2366 C2369 1.403 . S
C2367 C2364 1.403 . S
C2367 C2368 1.524 . S
C2367 C2371 1.400 . S
C2368 H2353 0.960 . S
C2368 H2354 0.960 . S
C2368 H2355 0.960 . S
C2368 C2367 1.524 . S
C2369 C2366 1.403 . S
C2369 C2370 1.392 . S
C2369 C2373 1.495 . S
C2370 C2369 1.392 . S
C2370 C2371 1.385 . S
C2370 C2372 1.478 . S
C2371 H2365 0.930 . S
C2371 C2367 1.400 . S
C2371 C2370 1.385 . S
C2372 C2370 1.478 . S
C2372 C2374 1.381 . S
C2372 C2378 1.383 . S
C2373 C2369 1.495 . S
C2373 H2379 0.959 . S
C2373 H2380 0.961 . S
C2373 H2381 0.960 . S
C2374 C2372 1.381 . S
C2374 C2375 1.394 . S
C2374 H2382 0.930 . S
C2375 C2374 1.394 . S
C2375 C2376 1.383 . S
C2375 H2383 0.929 . S
C2376 C2375 1.383 . S
C2376 C2377 1.377 . S
C2377 H2361 0.930 . S
C2377 C2376 1.377 . S
C2377 C2378 1.379 . S
C2378 H2362 0.931 . S
C2378 C2372 1.383 . S
C2378 C2377 1.379 . S
H2379 C2373 0.959 . S
H2380 C2373 0.961 . S
H2381 C2373 0.960 . S
H2382 C2374 0.930 . S
H2383 C2375 0.929 . S
H2384 C2392 0.929 . S
H2385 C2394 0.930 . S
H2386 C2396 0.930 . S
H2387 C2399 0.929 . S
H2388 C2402 0.930 . S
H2389 C2404 0.960 . S
H2390 C2404 0.960 . S
H2391 C2404 0.960 . S
C2392 H2384 0.929 . S
C2392 C2393 1.377 . S
C2392 C2394 1.384 . S
C2393 C2392 1.377 . S
C2393 C2399 1.390 . S
C2394 H2385 0.930 . S
C2394 C2392 1.384 . S
C2394 C2395 1.372 . S
C2395 C2394 1.372 . S
C2395 C2396 1.400 . S
C2395 C2400 1.490 . S
C2396 H2386 0.930 . S
C2396 C2395 1.400 . S
C2396 C2399 1.386 . S
H2397 C2413 0.930 . S
H2398 C2414 0.931 . S
C2399 H2387 0.929 . S
C2399 C2393 1.390 . S
C2399 C2396 1.386 . S
C2400 C2395 1.490 . S
C2400 C2402 1.395 . S
C2400 C2403 1.403 . S
H2401 C2407 0.930 . S
C2402 H2388 0.930 . S
C2402 C2400 1.395 . S
C2402 C2405 1.403 . S
C2403 C2400 1.403 . S
C2403 C2404 1.524 . S
C2403 C2407 1.400 . S
C2404 H2389 0.960 . S
C2404 H2390 0.960 . S
C2404 H2391 0.960 . S
C2404 C2403 1.524 . S
C2405 C2402 1.403 . S
C2405 C2406 1.392 . S
C2405 C2409 1.495 . S
C2406 C2405 1.392 . S
C2406 C2407 1.385 . S
C2406 C2408 1.478 . S
C2407 H2401 0.930 . S
C2407 C2403 1.400 . S
C2407 C2406 1.385 . S
C2408 C2406 1.478 . S
C2408 C2410 1.381 . S
C2408 C2414 1.383 . S
C2409 C2405 1.495 . S
C2409 H2415 0.959 . S
C2409 H2416 0.961 . S
C2409 H2417 0.960 . S
C2410 C2408 1.381 . S
C2410 C2411 1.394 . S
C2410 H2418 0.930 . S
C2411 C2410 1.394 . S
C2411 C2412 1.383 . S
C2411 H2419 0.929 . S
C2412 C2411 1.383 . S
C2412 C2413 1.377 . S
C2413 H2397 0.930 . S
C2413 C2412 1.377 . S
C2413 C2414 1.379 . S
C2414 H2398 0.931 . S
C2414 C2408 1.383 . S
C2414 C2413 1.379 . S
H2415 C2409 0.959 . S
H2416 C2409 0.961 . S
H2417 C2409 0.960 . S
H2418 C2410 0.930 . S
H2419 C2411 0.929 . S
H2420 C2428 0.929 . S
H2421 C2430 0.930 . S
H2422 C2432 0.930 . S
H2423 C2435 0.929 . S
H2424 C2438 0.930 . S
H2425 C2440 0.960 . S
H2426 C2440 0.960 . S
H2427 C2440 0.960 . S
C2428 H2420 0.929 . S
C2428 C2429 1.377 . S
C2428 C2430 1.384 . S
C2429 C2428 1.377 . S
C2429 C2435 1.390 . S
C2430 H2421 0.930 . S
C2430 C2428 1.384 . S
C2430 C2431 1.372 . S
C2431 C2430 1.372 . S
C2431 C2432 1.400 . S
C2431 C2436 1.490 . S
C2432 H2422 0.930 . S
C2432 C2431 1.400 . S
C2432 C2435 1.386 . S
H2433 C2449 0.930 . S
H2434 C2450 0.931 . S
C2435 H2423 0.929 . S
C2435 C2429 1.390 . S
C2435 C2432 1.386 . S
C2436 C2431 1.490 . S
C2436 C2438 1.395 . S
C2436 C2439 1.403 . S
H2437 C2443 0.930 . S
C2438 H2424 0.930 . S
C2438 C2436 1.395 . S
C2438 C2441 1.403 . S
C2439 C2436 1.403 . S
C2439 C2440 1.524 . S
C2439 C2443 1.400 . S
C2440 H2425 0.960 . S
C2440 H2426 0.960 . S
C2440 H2427 0.960 . S
C2440 C2439 1.524 . S
C2441 C2438 1.403 . S
C2441 C2442 1.392 . S
C2441 C2445 1.495 . S
C2442 C2441 1.392 . S
C2442 C2443 1.385 . S
C2442 C2444 1.478 . S
C2443 H2437 0.930 . S
C2443 C2439 1.400 . S
C2443 C2442 1.385 . S
C2444 C2442 1.478 . S
C2444 C2446 1.381 . S
C2444 C2450 1.383 . S
C2445 C2441 1.495 . S
C2445 H2451 0.959 . S
C2445 H2452 0.961 . S
C2445 H2453 0.960 . S
C2446 C2444 1.381 . S
C2446 C2447 1.394 . S
C2446 H2454 0.930 . S
C2447 C2446 1.394 . S
C2447 C2448 1.383 . S
C2447 H2455 0.929 . S
C2448 C2447 1.383 . S
C2448 C2449 1.377 . S
C2449 H2433 0.930 . S
C2449 C2448 1.377 . S
C2449 C2450 1.379 . S
C2450 H2434 0.931 . S
C2450 C2444 1.383 . S
C2450 C2449 1.379 . S
H2451 C2445 0.959 . S
H2452 C2445 0.961 . S
H2453 C2445 0.960 . S
H2454 C2446 0.930 . S
H2455 C2447 0.929 . S
H2456 C2464 0.929 . S
H2457 C2466 0.930 . S
H2458 C2468 0.930 . S
H2459 C2471 0.929 . S
H2460 C2474 0.930 . S
H2461 C2476 0.960 . S
H2462 C2476 0.960 1_655 S
H2463 C2476 0.960 . S
C2464 H2456 0.929 . S
C2464 C2465 1.377 1_655 S
C2464 C2466 1.384 . S
C2465 C2464 1.377 1_455 S
C2465 C2471 1.390 . S
C2466 H2457 0.930 . S
C2466 C2464 1.384 . S
C2466 C2467 1.372 1_655 S
C2467 C2466 1.372 1_455 S
C2467 C2468 1.400 . S
C2467 C2472 1.490 . S
C2468 H2458 0.930 . S
C2468 C2467 1.400 . S
C2468 C2471 1.386 . S
H2469 C2485 0.930 . S
H2470 C2486 0.931 . S
C2471 H2459 0.929 . S
C2471 C2465 1.390 . S
C2471 C2468 1.386 . S
C2472 C2467 1.490 . S
C2472 C2474 1.395 . S
C2472 C2475 1.403 . S
H2473 C2479 0.930 . S
C2474 H2460 0.930 . S
C2474 C2472 1.395 . S
C2474 C2477 1.403 . S
C2475 C2472 1.403 . S
C2475 C2476 1.524 . S
C2475 C2479 1.400 . S
C2476 H2461 0.960 . S
C2476 H2462 0.960 1_455 S
C2476 H2463 0.960 . S
C2476 C2475 1.524 . S
C2477 C2474 1.403 . S
C2477 C2478 1.392 . S
C2477 C2481 1.495 . S
C2478 C2477 1.392 . S
C2478 C2479 1.385 . S
C2478 C2480 1.478 . S
C2479 H2473 0.930 . S
C2479 C2475 1.400 . S
C2479 C2478 1.385 . S
C2480 C2478 1.478 . S
C2480 C2482 1.381 1_455 S
C2480 C2486 1.383 . S
C2481 C2477 1.495 . S
C2481 H2487 0.970 . S
C2481 H2488 0.961 1_556 S
C2481 H2489 0.978 1_455 S
C2482 C2480 1.381 1_655 S
C2482 C2483 1.394 . S
C2482 H2490 0.930 . S
C2483 C2482 1.394 . S
C2483 C2484 1.359 1_655 S
C2483 H2491 0.929 . S
C2484 C2483 1.359 1_455 S
C2484 C2485 1.412 . S
C2485 H2469 0.930 . S
C2485 C2484 1.412 . S
C2485 C2486 1.379 . S
C2486 H2470 0.931 . S
C2486 C2480 1.383 . S
C2486 C2485 1.379 . S
H2487 C2481 0.970 . S
H2488 C2481 0.961 1_554 S
H2489 C2481 0.978 1_655 S
H2490 C2482 0.930 . S
H2491 C2483 0.929 . S
H2492 C2500 0.929 . S
H2493 C2502 0.930 . S
H2494 C2504 0.930 . S
H2495 C2507 0.929 . S
H2496 C2510 0.930 . S
H2497 C2512 0.960 . S
H2498 C2512 0.960 . S
H2499 C2512 0.960 . S
C2500 H2492 0.929 . S
C2500 C2501 1.377 . S
C2500 C2502 1.384 . S
C2501 C2500 1.377 . S
C2501 C2507 1.390 . S
C2502 H2493 0.930 . S
C2502 C2500 1.384 . S
C2502 C2503 1.372 . S
C2503 C2502 1.372 . S
C2503 C2504 1.400 . S
C2503 C2508 1.490 . S
C2504 H2494 0.930 . S
C2504 C2503 1.400 . S
C2504 C2507 1.386 . S
H2505 C2521 0.930 . S
H2506 C2522 0.931 . S
C2507 H2495 0.929 . S
C2507 C2501 1.390 . S
C2507 C2504 1.386 . S
C2508 C2503 1.490 . S
C2508 C2510 1.395 . S
C2508 C2511 1.403 . S
H2509 C2515 0.930 . S
C2510 H2496 0.930 . S
C2510 C2508 1.395 . S
C2510 C2513 1.403 . S
C2511 C2508 1.403 . S
C2511 C2512 1.524 . S
C2511 C2515 1.400 . S
C2512 H2497 0.960 . S
C2512 H2498 0.960 . S
C2512 H2499 0.960 . S
C2512 C2511 1.524 . S
C2513 C2510 1.403 . S
C2513 C2514 1.392 . S
C2513 C2517 1.495 . S
C2514 C2513 1.392 . S
C2514 C2515 1.385 . S
C2514 C2516 1.478 . S
C2515 H2509 0.930 . S
C2515 C2511 1.400 . S
C2515 C2514 1.385 . S
C2516 C2514 1.478 . S
C2516 C2518 1.381 . S
C2516 C2522 1.383 . S
C2517 C2513 1.495 . S
C2517 H2523 0.959 . S
C2517 H2524 0.961 . S
C2517 H2525 0.960 . S
C2518 C2516 1.381 . S
C2518 C2519 1.394 . S
C2518 H2526 0.930 . S
C2519 C2518 1.394 . S
C2519 C2520 1.383 . S
C2519 H2527 0.929 . S
C2520 C2519 1.383 . S
C2520 C2521 1.377 . S
C2521 H2505 0.930 . S
C2521 C2520 1.377 . S
C2521 C2522 1.379 . S
C2522 H2506 0.931 . S
C2522 C2516 1.383 . S
C2522 C2521 1.379 . S
H2523 C2517 0.959 . S
H2524 C2517 0.961 . S
H2525 C2517 0.960 . S
H2526 C2518 0.930 . S
H2527 C2519 0.929 . S
H2528 C2536 0.929 . S
H2529 C2538 0.930 . S
H2530 C2540 0.930 . S
H2531 C2543 0.929 . S
H2532 C2546 0.930 . S
H2533 C2548 0.960 . S
H2534 C2548 0.960 . S
H2535 C2548 0.960 . S
C2536 H2528 0.929 . S
C2536 C2537 1.377 . S
C2536 C2538 1.384 . S
C2537 C2536 1.377 . S
C2537 C2543 1.390 . S
C2538 H2529 0.930 . S
C2538 C2536 1.384 . S
C2538 C2539 1.372 . S
C2539 C2538 1.372 . S
C2539 C2540 1.400 . S
C2539 C2544 1.490 . S
C2540 H2530 0.930 . S
C2540 C2539 1.400 . S
C2540 C2543 1.386 . S
H2541 C2557 0.930 . S
H2542 C2558 0.931 . S
C2543 H2531 0.929 . S
C2543 C2537 1.390 . S
C2543 C2540 1.386 . S
C2544 C2539 1.490 . S
C2544 C2546 1.395 . S
C2544 C2547 1.403 . S
H2545 C2551 0.930 . S
C2546 H2532 0.930 . S
C2546 C2544 1.395 . S
C2546 C2549 1.403 . S
C2547 C2544 1.403 . S
C2547 C2548 1.524 . S
C2547 C2551 1.400 . S
C2548 H2533 0.960 . S
C2548 H2534 0.960 . S
C2548 H2535 0.960 . S
C2548 C2547 1.524 . S
C2549 C2546 1.403 . S
C2549 C2550 1.392 . S
C2549 C2553 1.495 . S
C2550 C2549 1.392 . S
C2550 C2551 1.385 . S
C2550 C2552 1.478 . S
C2551 H2545 0.930 . S
C2551 C2547 1.400 . S
C2551 C2550 1.385 . S
C2552 C2550 1.478 . S
C2552 C2554 1.381 . S
C2552 C2558 1.383 . S
C2553 C2549 1.495 . S
C2553 H2559 0.959 . S
C2553 H2560 0.961 . S
C2553 H2561 0.960 . S
C2554 C2552 1.381 . S
C2554 C2555 1.394 . S
C2554 H2562 0.930 . S
C2555 C2554 1.394 . S
C2555 C2556 1.383 . S
C2555 H2563 0.929 . S
C2556 C2555 1.383 . S
C2556 C2557 1.377 . S
C2557 H2541 0.930 . S
C2557 C2556 1.377 . S
C2557 C2558 1.379 . S
C2558 H2542 0.931 . S
C2558 C2552 1.383 . S
C2558 C2557 1.379 . S
H2559 C2553 0.959 . S
H2560 C2553 0.961 . S
H2561 C2553 0.960 . S
H2562 C2554 0.930 . S
H2563 C2555 0.929 . S
H2564 C2572 0.929 . S
H2565 C2574 0.930 . S
H2566 C2576 0.930 . S
H2567 C2579 0.929 . S
H2568 C2582 0.930 . S
H2569 C2584 0.960 . S
H2570 C2584 0.960 . S
H2571 C2584 0.960 . S
C2572 H2564 0.929 . S
C2572 C2573 1.377 . S
C2572 C2574 1.384 . S
C2573 C2572 1.377 . S
C2573 C2579 1.390 . S
C2574 H2565 0.930 . S
C2574 C2572 1.384 . S
C2574 C2575 1.372 . S
C2575 C2574 1.372 . S
C2575 C2576 1.400 . S
C2575 C2580 1.490 . S
C2576 H2566 0.930 . S
C2576 C2575 1.400 . S
C2576 C2579 1.386 . S
H2577 C2593 0.930 . S
H2578 C2594 0.931 . S
C2579 H2567 0.929 . S
C2579 C2573 1.390 . S
C2579 C2576 1.386 . S
C2580 C2575 1.490 . S
C2580 C2582 1.395 . S
C2580 C2583 1.403 . S
H2581 C2587 0.930 . S
C2582 H2568 0.930 . S
C2582 C2580 1.395 . S
C2582 C2585 1.403 . S
C2583 C2580 1.403 . S
C2583 C2584 1.524 . S
C2583 C2587 1.400 . S
C2584 H2569 0.960 . S
C2584 H2570 0.960 . S
C2584 H2571 0.960 . S
C2584 C2583 1.524 . S
C2585 C2582 1.403 . S
C2585 C2586 1.392 . S
C2585 C2589 1.495 . S
C2586 C2585 1.392 . S
C2586 C2587 1.385 . S
C2586 C2588 1.478 . S
C2587 H2581 0.930 . S
C2587 C2583 1.400 . S
C2587 C2586 1.385 . S
C2588 C2586 1.478 . S
C2588 C2590 1.381 . S
C2588 C2594 1.383 . S
C2589 C2585 1.495 . S
C2589 H2595 0.959 . S
C2589 H2596 0.961 . S
C2589 H2597 0.960 . S
C2590 C2588 1.381 . S
C2590 C2591 1.394 . S
C2590 H2598 0.930 . S
C2591 C2590 1.394 . S
C2591 C2592 1.383 . S
C2591 H2599 0.929 . S
C2592 C2591 1.383 . S
C2592 C2593 1.377 . S
C2593 H2577 0.930 . S
C2593 C2592 1.377 . S
C2593 C2594 1.379 . S
C2594 H2578 0.931 . S
C2594 C2588 1.383 . S
C2594 C2593 1.379 . S
H2595 C2589 0.959 . S
H2596 C2589 0.961 . S
H2597 C2589 0.960 . S
H2598 C2590 0.930 . S
H2599 C2591 0.929 . S
H2600 C2608 0.929 . S
H2601 C2610 0.930 . S
H2602 C2612 0.930 . S
H2603 C2615 0.929 . S
H2604 C2618 0.930 . S
H2605 C2620 0.969 . S
H2606 C2620 0.960 . S
H2607 C2620 0.960 1_455 S
C2608 H2600 0.929 . S
C2608 C2609 1.377 . S
C2608 C2610 1.384 . S
C2609 C2608 1.377 . S
C2609 C2615 1.390 1_655 S
C2610 H2601 0.930 . S
C2610 C2608 1.384 . S
C2610 C2611 1.372 . S
C2611 C2610 1.372 . S
C2611 C2612 1.400 1_655 S
C2611 C2616 1.490 . S
C2612 H2602 0.930 . S
C2612 C2611 1.400 1_455 S
C2612 C2615 1.386 . S
H2613 C2629 0.930 . S
H2614 C2630 0.931 . S
C2615 H2603 0.929 . S
C2615 C2609 1.390 1_455 S
C2615 C2612 1.386 . S
C2616 C2611 1.490 . S
C2616 C2618 1.395 . S
C2616 C2619 1.403 . S
H2617 C2623 0.930 . S
C2618 H2604 0.930 . S
C2618 C2616 1.395 . S
C2618 C2621 1.403 . S
C2619 C2616 1.403 . S
C2619 C2620 1.524 . S
C2619 C2623 1.400 . S
C2620 H2605 0.969 . S
C2620 H2606 0.960 . S
C2620 H2607 0.960 1_655 S
C2620 C2619 1.524 . S
C2621 C2618 1.403 . S
C2621 C2622 1.392 . S
C2621 C2625 1.495 . S
C2622 C2621 1.392 . S
C2622 C2623 1.385 . S
C2622 C2624 1.478 . S
C2623 H2617 0.930 . S
C2623 C2619 1.400 . S
C2623 C2622 1.385 . S
C2624 C2622 1.478 . S
C2624 C2626 1.381 . S
C2624 C2630 1.383 1_655 S
C2625 C2621 1.495 . S
C2625 H2631 0.959 . S
C2625 H2632 0.961 1_655 S
C2625 H2633 0.960 . S
C2626 C2624 1.381 . S
C2626 C2627 1.394 . S
C2626 H2634 0.930 . S
C2627 C2626 1.394 . S
C2627 C2628 1.383 . S
C2627 H2635 0.929 . S
C2628 C2627 1.383 . S
C2628 C2629 1.377 1_655 S
C2629 H2613 0.930 . S
C2629 C2628 1.377 1_455 S
C2629 C2630 1.379 . S
C2630 H2614 0.931 . S
C2630 C2624 1.383 1_455 S
C2630 C2629 1.379 . S
H2631 C2625 0.959 . S
H2632 C2625 0.961 1_455 S
H2633 C2625 0.960 . S
H2634 C2626 0.930 . S
H2635 C2627 0.929 . S
H2636 C2644 0.929 . S
H2637 C2646 0.930 . S
H2638 C2648 0.930 . S
H2639 C2651 0.929 . S
H2640 C2654 0.930 . S
H2641 C2656 0.960 . S
H2642 C2656 0.960 . S
H2643 C2656 0.960 . S
C2644 H2636 0.929 . S
C2644 C2645 1.377 . S
C2644 C2646 1.384 . S
C2645 C2644 1.377 . S
C2645 C2651 1.390 . S
C2646 H2637 0.930 . S
C2646 C2644 1.384 . S
C2646 C2647 1.372 . S
C2647 C2646 1.372 . S
C2647 C2648 1.400 . S
C2647 C2652 1.490 . S
C2648 H2638 0.930 . S
C2648 C2647 1.400 . S
C2648 C2651 1.386 . S
H2649 C2665 0.930 . S
H2650 C2666 0.931 . S
C2651 H2639 0.929 . S
C2651 C2645 1.390 . S
C2651 C2648 1.386 . S
C2652 C2647 1.490 . S
C2652 C2654 1.395 . S
C2652 C2655 1.403 . S
H2653 C2659 0.930 . S
C2654 H2640 0.930 . S
C2654 C2652 1.395 . S
C2654 C2657 1.403 . S
C2655 C2652 1.403 . S
C2655 C2656 1.524 . S
C2655 C2659 1.400 . S
C2656 H2641 0.960 . S
C2656 H2642 0.960 . S
C2656 H2643 0.960 . S
C2656 C2655 1.524 . S
C2657 C2654 1.403 . S
C2657 C2658 1.392 . S
C2657 C2661 1.495 . S
C2658 C2657 1.392 . S
C2658 C2659 1.385 . S
C2658 C2660 1.478 . S
C2659 H2653 0.930 . S
C2659 C2655 1.400 . S
C2659 C2658 1.385 . S
C2660 C2658 1.478 . S
C2660 C2662 1.381 . S
C2660 C2666 1.383 . S
C2661 C2657 1.495 . S
C2661 H2667 0.959 . S
C2661 H2668 0.961 . S
C2661 H2669 0.960 . S
C2662 C2660 1.381 . S
C2662 C2663 1.394 . S
C2662 H2670 0.930 . S
C2663 C2662 1.394 . S
C2663 C2664 1.383 . S
C2663 H2671 0.929 . S
C2664 C2663 1.383 . S
C2664 C2665 1.377 . S
C2665 H2649 0.930 . S
C2665 C2664 1.377 . S
C2665 C2666 1.379 . S
C2666 H2650 0.931 . S
C2666 C2660 1.383 . S
C2666 C2665 1.379 . S
H2667 C2661 0.959 . S
H2668 C2661 0.961 . S
H2669 C2661 0.960 . S
H2670 C2662 0.930 . S
H2671 C2663 0.929 . S
H2672 C2680 0.929 . S
H2673 C2682 0.930 . S
H2674 C2684 0.930 . S
H2675 C2687 0.929 . S
H2676 C2690 0.930 . S
H2677 C2692 0.960 . S
H2678 C2692 0.960 . S
H2679 C2692 0.960 . S
C2680 H2672 0.929 . S
C2680 C2681 1.377 . S
C2680 C2682 1.384 . S
C2681 C2680 1.377 . S
C2681 C2687 1.390 . S
C2682 H2673 0.930 . S
C2682 C2680 1.384 . S
C2682 C2683 1.372 . S
C2683 C2682 1.372 . S
C2683 C2684 1.400 . S
C2683 C2688 1.490 . S
C2684 H2674 0.930 . S
C2684 C2683 1.400 . S
C2684 C2687 1.386 . S
H2685 C2701 0.930 . S
H2686 C2702 0.931 . S
C2687 H2675 0.929 . S
C2687 C2681 1.390 . S
C2687 C2684 1.386 . S
C2688 C2683 1.490 . S
C2688 C2690 1.395 . S
C2688 C2691 1.403 . S
H2689 C2695 0.930 . S
C2690 H2676 0.930 . S
C2690 C2688 1.395 . S
C2690 C2693 1.403 . S
C2691 C2688 1.403 . S
C2691 C2692 1.524 . S
C2691 C2695 1.400 . S
C2692 H2677 0.960 . S
C2692 H2678 0.960 . S
C2692 H2679 0.960 . S
C2692 C2691 1.524 . S
C2693 C2690 1.403 . S
C2693 C2694 1.392 . S
C2693 C2697 1.495 . S
C2694 C2693 1.392 . S
C2694 C2695 1.385 . S
C2694 C2696 1.478 . S
C2695 H2689 0.930 . S
C2695 C2691 1.400 . S
C2695 C2694 1.385 . S
C2696 C2694 1.478 . S
C2696 C2698 1.381 . S
C2696 C2702 1.383 . S
C2697 C2693 1.495 . S
C2697 H2703 0.959 . S
C2697 H2704 0.961 . S
C2697 H2705 0.960 . S
C2698 C2696 1.381 . S
C2698 C2699 1.394 . S
C2698 H2706 0.930 . S
C2699 C2698 1.394 . S
C2699 C2700 1.383 . S
C2699 H2707 0.929 . S
C2700 C2699 1.383 . S
C2700 C2701 1.377 . S
C2701 H2685 0.930 . S
C2701 C2700 1.377 . S
C2701 C2702 1.379 . S
C2702 H2686 0.931 . S
C2702 C2696 1.383 . S
C2702 C2701 1.379 . S
H2703 C2697 0.959 . S
H2704 C2697 0.961 . S
H2705 C2697 0.960 . S
H2706 C2698 0.930 . S
H2707 C2699 0.929 . S
H2708 C2716 0.929 . S
H2709 C2718 0.930 . S
H2710 C2720 0.930 . S
H2711 C2723 0.929 . S
H2712 C2726 0.930 . S
H2713 C2728 0.960 . S
H2714 C2728 0.960 . S
H2715 C2728 0.960 . S
C2716 H2708 0.929 . S
C2716 C2717 1.377 . S
C2716 C2718 1.384 . S
C2717 C2716 1.377 . S
C2717 C2723 1.390 . S
C2718 H2709 0.930 . S
C2718 C2716 1.384 . S
C2718 C2719 1.372 . S
C2719 C2718 1.372 . S
C2719 C2720 1.400 . S
C2719 C2724 1.490 . S
C2720 H2710 0.930 . S
C2720 C2719 1.400 . S
C2720 C2723 1.386 . S
H2721 C2737 0.930 . S
H2722 C2738 0.931 . S
C2723 H2711 0.929 . S
C2723 C2717 1.390 . S
C2723 C2720 1.386 . S
C2724 C2719 1.490 . S
C2724 C2726 1.395 . S
C2724 C2727 1.403 . S
H2725 C2731 0.930 . S
C2726 H2712 0.930 . S
C2726 C2724 1.395 . S
C2726 C2729 1.403 . S
C2727 C2724 1.403 . S
C2727 C2728 1.524 . S
C2727 C2731 1.400 . S
C2728 H2713 0.960 . S
C2728 H2714 0.960 . S
C2728 H2715 0.960 . S
C2728 C2727 1.524 . S
C2729 C2726 1.403 . S
C2729 C2730 1.392 . S
C2729 C2733 1.495 . S
C2730 C2729 1.392 . S
C2730 C2731 1.385 . S
C2730 C2732 1.478 . S
C2731 H2725 0.930 . S
C2731 C2727 1.400 . S
C2731 C2730 1.385 . S
C2732 C2730 1.478 . S
C2732 C2734 1.381 . S
C2732 C2738 1.383 . S
C2733 C2729 1.495 . S
C2733 H2739 0.959 . S
C2733 H2740 0.961 . S
C2733 H2741 0.960 . S
C2734 C2732 1.381 . S
C2734 C2735 1.394 . S
C2734 H2742 0.930 . S
C2735 C2734 1.394 . S
C2735 C2736 1.383 . S
C2735 H2743 0.929 . S
C2736 C2735 1.383 . S
C2736 C2737 1.377 . S
C2737 H2721 0.930 . S
C2737 C2736 1.377 . S
C2737 C2738 1.379 . S
C2738 H2722 0.931 . S
C2738 C2732 1.383 . S
C2738 C2737 1.379 . S
H2739 C2733 0.959 . S
H2740 C2733 0.961 . S
H2741 C2733 0.960 . S
H2742 C2734 0.930 . S
H2743 C2735 0.929 . S
H2744 C2752 0.929 . S
H2745 C2754 0.930 . S
H2746 C2756 0.930 . S
H2747 C2759 0.929 . S
H2748 C2762 0.930 . S
H2749 C2764 0.960 . S
H2750 C2764 0.960 . S
H2751 C2764 0.960 . S
C2752 H2744 0.929 . S
C2752 C2753 1.377 . S
C2752 C2754 1.384 . S
C2753 C2752 1.377 . S
C2753 C2759 1.390 . S
C2754 H2745 0.930 . S
C2754 C2752 1.384 . S
C2754 C2755 1.372 . S
C2755 C2754 1.372 . S
C2755 C2756 1.400 . S
C2755 C2760 1.490 . S
C2756 H2746 0.930 . S
C2756 C2755 1.400 . S
C2756 C2759 1.386 . S
H2757 C2773 0.930 . S
H2758 C2774 0.931 . S
C2759 H2747 0.929 . S
C2759 C2753 1.390 . S
C2759 C2756 1.386 . S
C2760 C2755 1.490 . S
C2760 C2762 1.395 . S
C2760 C2763 1.403 . S
H2761 C2767 0.930 . S
C2762 H2748 0.930 . S
C2762 C2760 1.395 . S
C2762 C2765 1.403 . S
C2763 C2760 1.403 . S
C2763 C2764 1.524 . S
C2763 C2767 1.400 . S
C2764 H2749 0.960 . S
C2764 H2750 0.960 . S
C2764 H2751 0.960 . S
C2764 C2763 1.524 . S
C2765 C2762 1.403 . S
C2765 C2766 1.392 . S
C2765 C2769 1.495 . S
C2766 C2765 1.392 . S
C2766 C2767 1.385 . S
C2766 C2768 1.478 . S
C2767 H2761 0.930 . S
C2767 C2763 1.400 . S
C2767 C2766 1.385 . S
C2768 C2766 1.478 . S
C2768 C2770 1.381 . S
C2768 C2774 1.383 . S
C2769 C2765 1.495 . S
C2769 H2775 0.959 . S
C2769 H2776 0.961 . S
C2769 H2777 0.960 . S
C2770 C2768 1.381 . S
C2770 C2771 1.394 . S
C2770 H2778 0.930 . S
C2771 C2770 1.394 . S
C2771 C2772 1.383 . S
C2771 H2779 0.929 1_455 S
C2772 C2771 1.383 . S
C2772 C2773 1.377 . S
C2773 H2757 0.930 . S
C2773 C2772 1.377 . S
C2773 C2774 1.379 . S
C2774 H2758 0.931 . S
C2774 C2768 1.383 . S
C2774 C2773 1.379 . S
H2775 C2769 0.959 . S
H2776 C2769 0.961 . S
H2777 C2769 0.960 . S
H2778 C2770 0.930 . S
H2779 C2771 0.929 1_655 S
H2780 C2788 0.929 . S
H2781 C2790 0.930 . S
H2782 C2792 0.930 . S
H2783 C2795 0.929 . S
H2784 C2798 0.930 . S
H2785 C2800 0.960 . S
H2786 C2800 0.960 . S
H2787 C2800 0.960 . S
C2788 H2780 0.929 . S
C2788 C2789 1.377 . S
C2788 C2790 1.384 . S
C2789 C2788 1.377 . S
C2789 C2795 1.390 . S
C2790 H2781 0.930 . S
C2790 C2788 1.384 . S
C2790 C2791 1.372 . S
C2791 C2790 1.372 . S
C2791 C2792 1.400 . S
C2791 C2796 1.490 . S
C2792 H2782 0.930 . S
C2792 C2791 1.400 . S
C2792 C2795 1.386 . S
H2793 C2809 0.930 . S
H2794 C2810 0.931 . S
C2795 H2783 0.929 . S
C2795 C2789 1.390 . S
C2795 C2792 1.386 . S
C2796 C2791 1.490 . S
C2796 C2798 1.395 . S
C2796 C2799 1.403 . S
H2797 C2803 0.930 . S
C2798 H2784 0.930 . S
C2798 C2796 1.395 . S
C2798 C2801 1.403 . S
C2799 C2796 1.403 . S
C2799 C2800 1.524 . S
C2799 C2803 1.400 . S
C2800 H2785 0.960 . S
C2800 H2786 0.960 . S
C2800 H2787 0.960 . S
C2800 C2799 1.524 . S
C2801 C2798 1.403 . S
C2801 C2802 1.392 . S
C2801 C2805 1.495 . S
C2802 C2801 1.392 . S
C2802 C2803 1.385 . S
C2802 C2804 1.478 . S
C2803 H2797 0.930 . S
C2803 C2799 1.400 . S
C2803 C2802 1.385 . S
C2804 C2802 1.478 . S
C2804 C2806 1.381 . S
C2804 C2810 1.383 . S
C2805 C2801 1.495 . S
C2805 H2811 0.959 . S
C2805 H2812 0.961 . S
C2805 H2813 0.960 . S
C2806 C2804 1.381 . S
C2806 C2807 1.394 . S
C2806 H2814 0.930 . S
C2807 C2806 1.394 . S
C2807 C2808 1.383 . S
C2807 H2815 0.929 . S
C2808 C2807 1.383 . S
C2808 C2809 1.377 . S
C2809 H2793 0.930 . S
C2809 C2808 1.377 . S
C2809 C2810 1.379 . S
C2810 H2794 0.931 . S
C2810 C2804 1.383 . S
C2810 C2809 1.379 . S
H2811 C2805 0.959 . S
H2812 C2805 0.961 . S
H2813 C2805 0.960 . S
H2814 C2806 0.930 . S
H2815 C2807 0.929 . S
H2816 C2824 0.929 . S
H2817 C2826 0.930 . S
H2818 C2828 0.930 . S
H2819 C2831 0.929 . S
H2820 C2834 0.930 . S
H2821 C2836 0.960 . S
H2822 C2836 0.960 . S
H2823 C2836 0.960 . S
C2824 H2816 0.929 . S
C2824 C2825 1.377 . S
C2824 C2826 1.384 . S
C2825 C2824 1.377 . S
C2825 C2831 1.390 . S
C2826 H2817 0.930 . S
C2826 C2824 1.384 . S
C2826 C2827 1.372 . S
C2827 C2826 1.372 . S
C2827 C2828 1.400 . S
C2827 C2832 1.490 . S
C2828 H2818 0.930 . S
C2828 C2827 1.400 . S
C2828 C2831 1.386 . S
H2829 C2845 0.930 . S
H2830 C2846 0.931 . S
C2831 H2819 0.929 . S
C2831 C2825 1.390 . S
C2831 C2828 1.386 . S
C2832 C2827 1.490 . S
C2832 C2834 1.395 . S
C2832 C2835 1.403 . S
H2833 C2839 0.930 . S
C2834 H2820 0.930 . S
C2834 C2832 1.395 . S
C2834 C2837 1.403 . S
C2835 C2832 1.403 . S
C2835 C2836 1.524 . S
C2835 C2839 1.400 . S
C2836 H2821 0.960 . S
C2836 H2822 0.960 . S
C2836 H2823 0.960 . S
C2836 C2835 1.524 . S
C2837 C2834 1.403 . S
C2837 C2838 1.392 . S
C2837 C2841 1.495 . S
C2838 C2837 1.392 . S
C2838 C2839 1.385 . S
C2838 C2840 1.478 . S
C2839 H2833 0.930 . S
C2839 C2835 1.400 . S
C2839 C2838 1.385 . S
C2840 C2838 1.478 . S
C2840 C2842 1.381 . S
C2840 C2846 1.383 . S
C2841 C2837 1.495 . S
C2841 H2847 0.959 . S
C2841 H2848 0.961 . S
C2841 H2849 0.960 . S
C2842 C2840 1.381 . S
C2842 C2843 1.394 . S
C2842 H2850 0.930 . S
C2843 C2842 1.394 . S
C2843 C2844 1.383 . S
C2843 H2851 0.929 . S
C2844 C2843 1.383 . S
C2844 C2845 1.377 . S
C2845 H2829 0.930 . S
C2845 C2844 1.377 . S
C2845 C2846 1.379 . S
C2846 H2830 0.931 . S
C2846 C2840 1.383 . S
C2846 C2845 1.379 . S
H2847 C2841 0.959 . S
H2848 C2841 0.961 . S
H2849 C2841 0.960 . S
H2850 C2842 0.930 . S
H2851 C2843 0.929 . S
H2852 C2860 0.929 . S
H2853 C2862 0.930 . S
H2854 C2864 0.930 . S
H2855 C2867 0.929 . S
H2856 C2870 0.930 . S
H2857 C2872 0.960 . S
H2858 C2872 0.960 . S
H2859 C2872 0.960 . S
C2860 H2852 0.929 . S
C2860 C2861 1.377 . S
C2860 C2862 1.384 . S
C2861 C2860 1.377 . S
C2861 C2867 1.390 . S
C2862 H2853 0.930 . S
C2862 C2860 1.384 . S
C2862 C2863 1.372 . S
C2863 C2862 1.372 . S
C2863 C2864 1.400 . S
C2863 C2868 1.490 . S
C2864 H2854 0.930 . S
C2864 C2863 1.400 . S
C2864 C2867 1.386 . S
H2865 C2881 0.930 . S
H2866 C2882 0.931 . S
C2867 H2855 0.929 . S
C2867 C2861 1.390 . S
C2867 C2864 1.386 . S
C2868 C2863 1.490 . S
C2868 C2870 1.395 . S
C2868 C2871 1.403 . S
H2869 C2875 0.930 . S
C2870 H2856 0.930 . S
C2870 C2868 1.395 . S
C2870 C2873 1.403 . S
C2871 C2868 1.403 . S
C2871 C2872 1.524 . S
C2871 C2875 1.400 . S
C2872 H2857 0.960 . S
C2872 H2858 0.960 . S
C2872 H2859 0.960 . S
C2872 C2871 1.524 . S
C2873 C2870 1.403 . S
C2873 C2874 1.392 . S
C2873 C2877 1.495 . S
C2874 C2873 1.392 . S
C2874 C2875 1.385 . S
C2874 C2876 1.478 . S
C2875 H2869 0.930 . S
C2875 C2871 1.400 . S
C2875 C2874 1.385 . S
C2876 C2874 1.478 . S
C2876 C2878 1.381 . S
C2876 C2882 1.383 . S
C2877 C2873 1.495 . S
C2877 H2883 0.959 . S
C2877 H2884 0.961 . S
C2877 H2885 0.960 . S
C2878 C2876 1.381 . S
C2878 C2879 1.394 . S
C2878 H2886 0.930 . S
C2879 C2878 1.394 . S
C2879 C2880 1.383 . S
C2879 H2887 0.929 . S
C2880 C2879 1.383 . S
C2880 C2881 1.377 . S
C2881 H2865 0.930 . S
C2881 C2880 1.377 . S
C2881 C2882 1.379 . S
C2882 H2866 0.931 . S
C2882 C2876 1.383 . S
C2882 C2881 1.379 . S
H2883 C2877 0.959 . S
H2884 C2877 0.961 . S
H2885 C2877 0.960 . S
H2886 C2878 0.930 . S
H2887 C2879 0.929 . S
H2888 C2896 0.929 . S
H2889 C2898 0.930 . S
H2890 C2900 0.930 . S
H2891 C2903 0.929 . S
H2892 C2906 0.930 . S
H2893 C2908 0.960 . S
H2894 C2908 0.960 . S
H2895 C2908 0.960 . S
C2896 H2888 0.929 . S
C2896 C2897 1.377 . S
C2896 C2898 1.384 . S
C2897 C2896 1.377 . S
C2897 C2903 1.390 . S
C2898 H2889 0.930 . S
C2898 C2896 1.384 . S
C2898 C2899 1.372 . S
C2899 C2898 1.372 . S
C2899 C2900 1.400 . S
C2899 C2904 1.490 . S
C2900 H2890 0.930 . S
C2900 C2899 1.400 . S
C2900 C2903 1.386 . S
H2901 C2917 0.930 . S
H2902 C2918 0.931 . S
C2903 H2891 0.929 . S
C2903 C2897 1.390 . S
C2903 C2900 1.386 . S
C2904 C2899 1.490 . S
C2904 C2906 1.395 . S
C2904 C2907 1.403 . S
H2905 C2911 0.930 . S
C2906 H2892 0.930 . S
C2906 C2904 1.395 . S
C2906 C2909 1.403 . S
C2907 C2904 1.403 . S
C2907 C2908 1.524 . S
C2907 C2911 1.400 . S
C2908 H2893 0.960 . S
C2908 H2894 0.960 . S
C2908 H2895 0.960 . S
C2908 C2907 1.524 . S
C2909 C2906 1.403 . S
C2909 C2910 1.392 . S
C2909 C2913 1.495 . S
C2910 C2909 1.392 . S
C2910 C2911 1.385 . S
C2910 C2912 1.478 . S
C2911 H2905 0.930 . S
C2911 C2907 1.400 . S
C2911 C2910 1.385 . S
C2912 C2910 1.478 . S
C2912 C2914 1.381 . S
C2912 C2918 1.383 . S
C2913 C2909 1.495 . S
C2913 H2919 0.959 . S
C2913 H2920 0.961 . S
C2913 H2921 0.960 . S
C2914 C2912 1.381 . S
C2914 C2915 1.394 . S
C2914 H2922 0.930 . S
C2915 C2914 1.394 . S
C2915 C2916 1.383 . S
C2915 H2923 0.929 . S
C2916 C2915 1.383 . S
C2916 C2917 1.377 . S
C2917 H2901 0.930 . S
C2917 C2916 1.377 . S
C2917 C2918 1.379 . S
C2918 H2902 0.931 . S
C2918 C2912 1.383 . S
C2918 C2917 1.379 . S
H2919 C2913 0.959 . S
H2920 C2913 0.961 . S
H2921 C2913 0.960 . S
H2922 C2914 0.930 . S
H2923 C2915 0.929 . S
H2924 C2932 0.929 . S
H2925 C2934 0.930 . S
H2926 C2936 0.930 . S
H2927 C2939 0.929 . S
H2928 C2942 0.930 . S
H2929 C2944 0.960 . S
H2930 C2944 0.960 . S
H2931 C2944 0.960 . S
C2932 H2924 0.929 . S
C2932 C2933 1.377 . S
C2932 C2934 1.384 . S
C2933 C2932 1.377 . S
C2933 C2939 1.390 . S
C2934 H2925 0.930 . S
C2934 C2932 1.384 . S
C2934 C2935 1.372 . S
C2935 C2934 1.372 . S
C2935 C2936 1.400 . S
C2935 C2940 1.490 . S
C2936 H2926 0.930 . S
C2936 C2935 1.400 . S
C2936 C2939 1.386 . S
H2937 C2953 0.930 . S
H2938 C2954 0.931 . S
C2939 H2927 0.929 . S
C2939 C2933 1.390 . S
C2939 C2936 1.386 . S
C2940 C2935 1.490 . S
C2940 C2942 1.395 . S
C2940 C2943 1.403 . S
H2941 C2947 0.930 . S
C2942 H2928 0.930 . S
C2942 C2940 1.395 . S
C2942 C2945 1.403 . S
C2943 C2940 1.403 . S
C2943 C2944 1.524 . S
C2943 C2947 1.400 . S
C2944 H2929 0.960 . S
C2944 H2930 0.960 . S
C2944 H2931 0.960 . S
C2944 C2943 1.524 . S
C2945 C2942 1.403 . S
C2945 C2946 1.392 . S
C2945 C2949 1.495 . S
C2946 C2945 1.392 . S
C2946 C2947 1.385 . S
C2946 C2948 1.478 . S
C2947 H2941 0.930 . S
C2947 C2943 1.400 . S
C2947 C2946 1.385 . S
C2948 C2946 1.478 . S
C2948 C2950 1.381 . S
C2948 C2954 1.383 . S
C2949 C2945 1.495 . S
C2949 H2955 0.959 . S
C2949 H2956 0.961 . S
C2949 H2957 0.960 . S
C2950 C2948 1.381 . S
C2950 C2951 1.394 . S
C2950 H2958 0.930 . S
C2951 C2950 1.394 . S
C2951 C2952 1.383 . S
C2951 H2959 0.929 . S
C2952 C2951 1.383 . S
C2952 C2953 1.377 . S
C2953 H2937 0.930 . S
C2953 C2952 1.377 . S
C2953 C2954 1.379 . S
C2954 H2938 0.931 . S
C2954 C2948 1.383 . S
C2954 C2953 1.379 . S
H2955 C2949 0.959 . S
H2956 C2949 0.961 . S
H2957 C2949 0.960 . S
H2958 C2950 0.930 . S
H2959 C2951 0.929 . S
H2960 C2968 0.929 . S
H2961 C2970 0.930 . S
H2962 C2972 0.930 . S
H2963 C2975 0.929 . S
H2964 C2978 0.930 . S
H2965 C2980 0.960 . S
H2966 C2980 0.960 . S
H2967 C2980 0.960 . S
C2968 H2960 0.929 . S
C2968 C2969 1.377 . S
C2968 C2970 1.384 . S
C2969 C2968 1.377 . S
C2969 C2975 1.390 . S
C2970 H2961 0.930 . S
C2970 C2968 1.384 . S
C2970 C2971 1.372 . S
C2971 C2970 1.372 . S
C2971 C2972 1.400 . S
C2971 C2976 1.490 . S
C2972 H2962 0.930 . S
C2972 C2971 1.400 . S
C2972 C2975 1.386 . S
H2973 C2989 0.930 . S
H2974 C2990 0.931 . S
C2975 H2963 0.929 . S
C2975 C2969 1.390 . S
C2975 C2972 1.386 . S
C2976 C2971 1.490 . S
C2976 C2978 1.395 . S
C2976 C2979 1.403 . S
H2977 C2983 0.930 . S
C2978 H2964 0.930 . S
C2978 C2976 1.395 . S
C2978 C2981 1.403 . S
C2979 C2976 1.403 . S
C2979 C2980 1.524 . S
C2979 C2983 1.400 . S
C2980 H2965 0.960 . S
C2980 H2966 0.960 . S
C2980 H2967 0.960 . S
C2980 C2979 1.524 . S
C2981 C2978 1.403 . S
C2981 C2982 1.392 . S
C2981 C2985 1.495 . S
C2982 C2981 1.392 . S
C2982 C2983 1.385 . S
C2982 C2984 1.478 . S
C2983 H2977 0.930 . S
C2983 C2979 1.400 . S
C2983 C2982 1.385 . S
C2984 C2982 1.478 . S
C2984 C2986 1.381 . S
C2984 C2990 1.383 . S
C2985 C2981 1.495 . S
C2985 H2991 0.959 . S
C2985 H2992 0.961 . S
C2985 H2993 0.960 . S
C2986 C2984 1.381 . S
C2986 C2987 1.394 . S
C2986 H2994 0.930 . S
C2987 C2986 1.394 . S
C2987 C2988 1.383 . S
C2987 H2995 0.929 . S
C2988 C2987 1.383 . S
C2988 C2989 1.377 . S
C2989 H2973 0.930 . S
C2989 C2988 1.377 . S
C2989 C2990 1.379 . S
C2990 H2974 0.931 . S
C2990 C2984 1.383 . S
C2990 C2989 1.379 . S
H2991 C2985 0.959 . S
H2992 C2985 0.961 . S
H2993 C2985 0.960 . S
H2994 C2986 0.930 . S
H2995 C2987 0.929 . S
H2996 C3004 0.929 . S
H2997 C3006 0.930 . S
H2998 C3008 0.930 . S
H2999 C3011 0.929 . S
H3000 C3014 0.930 . S
H3001 C3016 0.960 . S
H3002 C3016 0.960 . S
H3003 C3016 0.960 . S
C3004 H2996 0.929 . S
C3004 C3005 1.377 . S
C3004 C3006 1.384 . S
C3005 C3004 1.377 . S
C3005 C3011 1.390 . S
C3006 H2997 0.930 . S
C3006 C3004 1.384 . S
C3006 C3007 1.372 . S
C3007 C3006 1.372 . S
C3007 C3008 1.400 . S
C3007 C3012 1.490 . S
C3008 H2998 0.930 . S
C3008 C3007 1.400 . S
C3008 C3011 1.386 . S
H3009 C3025 0.930 . S
H3010 C3026 0.931 . S
C3011 H2999 0.929 . S
C3011 C3005 1.390 . S
C3011 C3008 1.386 . S
C3012 C3007 1.490 . S
C3012 C3014 1.395 . S
C3012 C3015 1.403 . S
H3013 C3019 0.930 . S
C3014 H3000 0.930 . S
C3014 C3012 1.395 . S
C3014 C3017 1.403 . S
C3015 C3012 1.403 . S
C3015 C3016 1.524 . S
C3015 C3019 1.400 . S
C3016 H3001 0.960 . S
C3016 H3002 0.960 . S
C3016 H3003 0.960 . S
C3016 C3015 1.524 . S
C3017 C3014 1.403 . S
C3017 C3018 1.392 . S
C3017 C3021 1.495 . S
C3018 C3017 1.392 . S
C3018 C3019 1.385 . S
C3018 C3020 1.478 . S
C3019 H3013 0.930 . S
C3019 C3015 1.400 . S
C3019 C3018 1.385 . S
C3020 C3018 1.478 . S
C3020 C3022 1.381 . S
C3020 C3026 1.383 . S
C3021 C3017 1.495 . S
C3021 H3027 0.959 . S
C3021 H3028 0.961 . S
C3021 H3029 0.960 . S
C3022 C3020 1.381 . S
C3022 C3023 1.394 . S
C3022 H3030 0.930 . S
C3023 C3022 1.394 . S
C3023 C3024 1.383 . S
C3023 H3031 0.929 . S
C3024 C3023 1.383 . S
C3024 C3025 1.377 . S
C3025 H3009 0.930 . S
C3025 C3024 1.377 . S
C3025 C3026 1.379 . S
C3026 H3010 0.931 . S
C3026 C3020 1.383 . S
C3026 C3025 1.379 . S
H3027 C3021 0.959 . S
H3028 C3021 0.961 . S
H3029 C3021 0.960 . S
H3030 C3022 0.930 . S
H3031 C3023 0.929 . S
H3032 C3040 0.929 . S
H3033 C3042 0.930 . S
H3034 C3044 0.930 . S
H3035 C3047 0.929 . S
H3036 C3050 0.930 . S
H3037 C3052 0.960 . S
H3038 C3052 0.960 . S
H3039 C3052 0.960 . S
C3040 H3032 0.929 . S
C3040 C3041 1.377 . S
C3040 C3042 1.384 . S
C3041 C3040 1.377 . S
C3041 C3047 1.390 . S
C3042 H3033 0.930 . S
C3042 C3040 1.384 . S
C3042 C3043 1.372 . S
C3043 C3042 1.372 . S
C3043 C3044 1.400 . S
C3043 C3048 1.490 . S
C3044 H3034 0.930 . S
C3044 C3043 1.400 . S
C3044 C3047 1.386 . S
H3045 C3061 0.930 . S
H3046 C3062 0.931 . S
C3047 H3035 0.929 . S
C3047 C3041 1.390 . S
C3047 C3044 1.386 . S
C3048 C3043 1.490 . S
C3048 C3050 1.395 . S
C3048 C3051 1.403 . S
H3049 C3055 0.930 . S
C3050 H3036 0.930 . S
C3050 C3048 1.395 . S
C3050 C3053 1.403 . S
C3051 C3048 1.403 . S
C3051 C3052 1.524 . S
C3051 C3055 1.400 . S
C3052 H3037 0.960 . S
C3052 H3038 0.960 . S
C3052 H3039 0.960 . S
C3052 C3051 1.524 . S
C3053 C3050 1.403 . S
C3053 C3054 1.392 . S
C3053 C3057 1.495 . S
C3054 C3053 1.392 . S
C3054 C3055 1.385 . S
C3054 C3056 1.478 . S
C3055 H3049 0.930 . S
C3055 C3051 1.400 . S
C3055 C3054 1.385 . S
C3056 C3054 1.478 . S
C3056 C3058 1.381 . S
C3056 C3062 1.383 . S
C3057 C3053 1.495 . S
C3057 H3063 0.959 . S
C3057 H3064 0.961 . S
C3057 H3065 0.960 . S
C3058 C3056 1.381 . S
C3058 C3059 1.394 . S
C3058 H3066 0.930 . S
C3059 C3058 1.394 . S
C3059 C3060 1.383 . S
C3059 H3067 0.929 . S
C3060 C3059 1.383 . S
C3060 C3061 1.377 . S
C3061 H3045 0.930 . S
C3061 C3060 1.377 . S
C3061 C3062 1.379 . S
C3062 H3046 0.931 . S
C3062 C3056 1.383 . S
C3062 C3061 1.379 . S
H3063 C3057 0.959 . S
H3064 C3057 0.961 . S
H3065 C3057 0.960 . S
H3066 C3058 0.930 . S
H3067 C3059 0.929 . S
H3068 C3076 0.929 . S
H3069 C3078 0.930 . S
H3070 C3080 0.930 . S
H3071 C3083 0.929 . S
H3072 C3086 0.930 . S
H3073 C3088 0.960 . S
H3074 C3088 0.960 . S
H3075 C3088 0.960 . S
C3076 H3068 0.929 . S
C3076 C3077 1.377 . S
C3076 C3078 1.384 . S
C3077 C3076 1.377 . S
C3077 C3083 1.390 . S
C3078 H3069 0.930 . S
C3078 C3076 1.384 . S
C3078 C3079 1.372 . S
C3079 C3078 1.372 . S
C3079 C3080 1.400 . S
C3079 C3084 1.490 . S
C3080 H3070 0.930 . S
C3080 C3079 1.400 . S
C3080 C3083 1.386 . S
H3081 C3097 0.930 . S
H3082 C3098 0.931 . S
C3083 H3071 0.929 . S
C3083 C3077 1.390 . S
C3083 C3080 1.386 . S
C3084 C3079 1.490 . S
C3084 C3086 1.395 . S
C3084 C3087 1.403 . S
H3085 C3091 0.930 . S
C3086 H3072 0.930 . S
C3086 C3084 1.395 . S
C3086 C3089 1.403 . S
C3087 C3084 1.403 . S
C3087 C3088 1.524 . S
C3087 C3091 1.400 . S
C3088 H3073 0.960 . S
C3088 H3074 0.960 . S
C3088 H3075 0.960 . S
C3088 C3087 1.524 . S
C3089 C3086 1.403 . S
C3089 C3090 1.392 . S
C3089 C3093 1.495 1_565 S
C3090 C3089 1.392 . S
C3090 C3091 1.385 . S
C3090 C3092 1.478 . S
C3091 H3085 0.930 . S
C3091 C3087 1.400 . S
C3091 C3090 1.385 . S
C3092 C3090 1.478 . S
C3092 C3094 1.381 1_565 S
C3092 C3098 1.383 . S
C3093 C3089 1.495 1_545 S
C3093 H3099 0.959 . S
C3093 H3100 0.961 . S
C3093 H3101 0.960 . S
C3094 C3092 1.381 1_545 S
C3094 C3095 1.390 1_554 S
C3094 H3102 0.930 1_554 S
C3095 C3094 1.390 1_556 S
C3095 C3096 1.373 1_556 S
C3095 H3103 0.944 . S
C3096 C3095 1.373 1_554 S
C3096 C3097 1.377 . S
C3097 H3081 0.930 . S
C3097 C3096 1.377 . S
C3097 C3098 1.379 1_545 S
C3098 H3082 0.931 . S
C3098 C3092 1.383 . S
C3098 C3097 1.379 1_565 S
H3099 C3093 0.959 . S
H3100 C3093 0.961 . S
H3101 C3093 0.960 . S
H3102 C3094 0.930 1_556 S
H3103 C3095 0.944 . S
H3104 C3112 0.929 . S
H3105 C3114 0.930 . S
H3106 C3116 0.930 . S
H3107 C3119 0.929 . S
H3108 C3122 0.930 . S
H3109 C3124 0.960 . S
H3110 C3124 0.960 . S
H3111 C3124 0.960 . S
C3112 H3104 0.929 . S
C3112 C3113 1.377 . S
C3112 C3114 1.384 . S
C3113 C3112 1.377 . S
C3113 C3119 1.390 . S
C3114 H3105 0.930 . S
C3114 C3112 1.384 . S
C3114 C3115 1.372 . S
C3115 C3114 1.372 . S
C3115 C3116 1.400 . S
C3115 C3120 1.490 . S
C3116 H3106 0.930 . S
C3116 C3115 1.400 . S
C3116 C3119 1.386 . S
H3117 C3133 0.930 . S
H3118 C3134 0.931 . S
C3119 H3107 0.929 . S
C3119 C3113 1.390 . S
C3119 C3116 1.386 . S
C3120 C3115 1.490 . S
C3120 C3122 1.395 . S
C3120 C3123 1.403 . S
H3121 C3127 0.930 . S
C3122 H3108 0.930 . S
C3122 C3120 1.395 . S
C3122 C3125 1.403 . S
C3123 C3120 1.403 . S
C3123 C3124 1.524 . S
C3123 C3127 1.400 . S
C3124 H3109 0.960 . S
C3124 H3110 0.960 . S
C3124 H3111 0.960 . S
C3124 C3123 1.524 . S
C3125 C3122 1.403 . S
C3125 C3126 1.392 . S
C3125 C3129 1.495 . S
C3126 C3125 1.392 . S
C3126 C3127 1.385 . S
C3126 C3128 1.478 . S
C3127 H3121 0.930 . S
C3127 C3123 1.400 . S
C3127 C3126 1.385 . S
C3128 C3126 1.478 . S
C3128 C3130 1.381 . S
C3128 C3134 1.383 . S
C3129 C3125 1.495 . S
C3129 H3135 0.959 . S
C3129 H3136 0.961 . S
C3129 H3137 0.960 . S
C3130 C3128 1.381 . S
C3130 C3131 1.394 . S
C3130 H3138 0.930 . S
C3131 C3130 1.394 . S
C3131 C3132 1.383 . S
C3131 H3139 0.929 . S
C3132 C3131 1.383 . S
C3132 C3133 1.377 . S
C3133 H3117 0.930 . S
C3133 C3132 1.377 . S
C3133 C3134 1.379 . S
C3134 H3118 0.931 . S
C3134 C3128 1.383 . S
C3134 C3133 1.379 . S
H3135 C3129 0.959 . S
H3136 C3129 0.961 . S
H3137 C3129 0.960 . S
H3138 C3130 0.930 . S
H3139 C3131 0.929 . S
H3140 C3148 0.929 . S
H3141 C3150 0.930 . S
H3142 C3152 0.930 . S
H3143 C3155 0.929 . S
H3144 C3158 0.930 . S
H3145 C3160 0.960 . S
H3146 C3160 0.960 . S
H3147 C3160 0.960 . S
C3148 H3140 0.929 . S
C3148 C3149 1.377 1_556 S
C3148 C3150 1.384 . S
C3149 C3148 1.377 1_554 S
C3149 C3155 1.390 . S
C3150 H3141 0.930 . S
C3150 C3148 1.384 . S
C3150 C3151 1.372 1_556 S
C3151 C3150 1.372 1_554 S
C3151 C3152 1.400 . S
C3151 C3156 1.490 . S
C3152 H3142 0.930 . S
C3152 C3151 1.400 . S
C3152 C3155 1.386 . S
H3153 C3169 0.930 . S
H3154 C3170 0.931 . S
C3155 H3143 0.929 . S
C3155 C3149 1.390 . S
C3155 C3152 1.386 . S
C3156 C3151 1.490 . S
C3156 C3158 1.395 . S
C3156 C3159 1.403 . S
H3157 C3163 0.930 . S
C3158 H3144 0.930 . S
C3158 C3156 1.395 . S
C3158 C3161 1.403 . S
C3159 C3156 1.403 . S
C3159 C3160 1.524 . S
C3159 C3163 1.400 . S
C3160 H3145 0.960 . S
C3160 H3146 0.960 . S
C3160 H3147 0.960 . S
C3160 C3159 1.524 . S
C3161 C3158 1.403 . S
C3161 C3162 1.392 . S
C3161 C3165 1.495 . S
C3162 C3161 1.392 . S
C3162 C3163 1.385 . S
C3162 C3164 1.478 . S
C3163 H3157 0.930 . S
C3163 C3159 1.400 . S
C3163 C3162 1.385 . S
C3164 C3162 1.478 . S
C3164 C3166 1.381 . S
C3164 C3170 1.383 . S
C3165 C3161 1.495 . S
C3165 H3171 0.975 . S
C3165 H3172 0.961 . S
C3165 H3173 0.960 1_554 S
C3166 C3164 1.381 . S
C3166 C3167 1.394 . S
C3166 H3174 0.930 1_554 S
C3167 C3166 1.394 . S
C3167 C3168 1.383 . S
C3167 H3175 0.929 1_554 S
C3168 C3167 1.383 . S
C3168 C3169 1.377 . S
C3169 H3153 0.930 . S
C3169 C3168 1.377 . S
C3169 C3170 1.379 . S
C3170 H3154 0.931 . S
C3170 C3164 1.383 . S
C3170 C3169 1.379 . S
H3171 C3165 0.975 . S
H3172 C3165 0.961 . S
H3173 C3165 0.960 1_556 S
H3174 C3166 0.930 1_556 S
H3175 C3167 0.929 1_556 S
H3176 C3184 0.929 . S
H3177 C3186 0.930 . S
H3178 C3188 0.930 . S
H3179 C3191 0.929 . S
H3180 C3194 0.930 . S
H3181 C3196 0.960 . S
H3182 C3196 0.960 . S
H3183 C3196 0.960 . S
C3184 H3176 0.929 . S
C3184 C3185 1.377 . S
C3184 C3186 1.384 . S
C3185 C3184 1.377 . S
C3185 C3191 1.390 . S
C3186 H3177 0.930 . S
C3186 C3184 1.384 . S
C3186 C3187 1.372 . S
C3187 C3186 1.372 . S
C3187 C3188 1.400 . S
C3187 C3192 1.490 . S
C3188 H3178 0.930 . S
C3188 C3187 1.400 . S
C3188 C3191 1.386 . S
H3189 C3205 0.930 . S
H3190 C3206 0.931 . S
C3191 H3179 0.929 . S
C3191 C3185 1.390 . S
C3191 C3188 1.386 . S
C3192 C3187 1.490 . S
C3192 C3194 1.395 . S
C3192 C3195 1.403 . S
H3193 C3199 0.930 . S
C3194 H3180 0.930 . S
C3194 C3192 1.395 . S
C3194 C3197 1.403 . S
C3195 C3192 1.403 . S
C3195 C3196 1.524 . S
C3195 C3199 1.400 . S
C3196 H3181 0.960 . S
C3196 H3182 0.960 . S
C3196 H3183 0.960 . S
C3196 C3195 1.524 . S
C3197 C3194 1.403 . S
C3197 C3198 1.392 . S
C3197 C3201 1.495 . S
C3198 C3197 1.392 . S
C3198 C3199 1.385 . S
C3198 C3200 1.478 . S
C3199 H3193 0.930 . S
C3199 C3195 1.400 . S
C3199 C3198 1.385 . S
C3200 C3198 1.478 . S
C3200 C3202 1.381 . S
C3200 C3206 1.383 . S
C3201 C3197 1.495 . S
C3201 H3207 0.959 . S
C3201 H3208 0.961 . S
C3201 H3209 0.960 . S
C3202 C3200 1.381 . S
C3202 C3203 1.394 . S
C3202 H3210 0.930 . S
C3203 C3202 1.394 . S
C3203 C3204 1.383 . S
C3203 H3211 0.929 . S
C3204 C3203 1.383 . S
C3204 C3205 1.377 . S
C3205 H3189 0.930 . S
C3205 C3204 1.377 . S
C3205 C3206 1.379 . S
C3206 H3190 0.931 . S
C3206 C3200 1.383 . S
C3206 C3205 1.379 . S
H3207 C3201 0.959 . S
H3208 C3201 0.961 . S
H3209 C3201 0.960 . S
H3210 C3202 0.930 . S
H3211 C3203 0.929 . S
H3212 C3220 0.929 . S
H3213 C3222 0.930 . S
H3214 C3224 0.930 . S
H3215 C3227 0.929 . S
H3216 C3230 0.930 . S
H3217 C3232 0.960 . S
H3218 C3232 0.960 . S
H3219 C3232 0.960 . S
C3220 H3212 0.929 . S
C3220 C3221 1.377 1_565 S
C3220 C3222 1.384 . S
C3221 C3220 1.377 1_545 S
C3221 C3227 1.390 . S
C3222 H3213 0.930 . S
C3222 C3220 1.384 . S
C3222 C3223 1.372 . S
C3223 C3222 1.372 . S
C3223 C3224 1.400 . S
C3223 C3228 1.490 . S
C3224 H3214 0.930 . S
C3224 C3223 1.400 . S
C3224 C3227 1.386 1_565 S
H3225 C3241 0.930 . S
H3226 C3242 0.931 . S
C3227 H3215 0.929 . S
C3227 C3221 1.390 . S
C3227 C3224 1.386 1_545 S
C3228 C3223 1.490 . S
C3228 C3230 1.395 . S
C3228 C3231 1.403 . S
H3229 C3235 0.930 . S
C3230 H3216 0.930 . S
C3230 C3228 1.395 . S
C3230 C3233 1.403 . S
C3231 C3228 1.403 . S
C3231 C3232 1.524 . S
C3231 C3235 1.400 . S
C3232 H3217 0.960 . S
C3232 H3218 0.960 . S
C3232 H3219 0.960 . S
C3232 C3231 1.524 . S
C3233 C3230 1.403 . S
C3233 C3234 1.392 . S
C3233 C3237 1.495 . S
C3234 C3233 1.392 . S
C3234 C3235 1.385 . S
C3234 C3236 1.478 . S
C3235 H3229 0.930 . S
C3235 C3231 1.400 . S
C3235 C3234 1.385 . S
C3236 C3234 1.478 . S
C3236 C3238 1.381 . S
C3236 C3242 1.383 . S
C3237 C3233 1.495 . S
C3237 H3243 0.959 . S
C3237 H3244 0.961 . S
C3237 H3245 0.960 . S
C3238 C3236 1.381 . S
C3238 C3239 1.394 . S
C3238 H3246 0.930 . S
C3239 C3238 1.394 . S
C3239 C3240 1.383 . S
C3239 H3247 0.929 . S
C3240 C3239 1.383 . S
C3240 C3241 1.377 . S
C3241 H3225 0.930 . S
C3241 C3240 1.377 . S
C3241 C3242 1.379 . S
C3242 H3226 0.931 . S
C3242 C3236 1.383 . S
C3242 C3241 1.379 . S
H3243 C3237 0.959 . S
H3244 C3237 0.961 . S
H3245 C3237 0.960 . S
H3246 C3238 0.930 . S
H3247 C3239 0.929 . S
H3248 C3256 0.929 . S
H3249 C3258 0.930 . S
H3250 C3260 0.930 . S
H3251 C3263 0.929 . S
H3252 C3266 0.930 . S
H3253 C3268 0.960 . S
H3254 C3268 0.960 . S
H3255 C3268 0.960 . S
C3256 H3248 0.929 . S
C3256 C3257 1.377 . S
C3256 C3258 1.384 . S
C3257 C3256 1.377 . S
C3257 C3263 1.390 . S
C3258 H3249 0.930 . S
C3258 C3256 1.384 . S
C3258 C3259 1.372 . S
C3259 C3258 1.372 . S
C3259 C3260 1.400 . S
C3259 C3264 1.490 . S
C3260 H3250 0.930 . S
C3260 C3259 1.400 . S
C3260 C3263 1.386 . S
H3261 C3277 0.930 . S
H3262 C3278 0.931 . S
C3263 H3251 0.929 . S
C3263 C3257 1.390 . S
C3263 C3260 1.386 . S
C3264 C3259 1.490 . S
C3264 C3266 1.395 . S
C3264 C3267 1.403 . S
H3265 C3271 0.930 . S
C3266 H3252 0.930 . S
C3266 C3264 1.395 . S
C3266 C3269 1.403 . S
C3267 C3264 1.403 . S
C3267 C3268 1.524 . S
C3267 C3271 1.400 . S
C3268 H3253 0.960 . S
C3268 H3254 0.960 . S
C3268 H3255 0.960 . S
C3268 C3267 1.524 . S
C3269 C3266 1.403 . S
C3269 C3270 1.392 . S
C3269 C3273 1.495 . S
C3270 C3269 1.392 . S
C3270 C3271 1.385 . S
C3270 C3272 1.478 . S
C3271 H3265 0.930 . S
C3271 C3267 1.400 . S
C3271 C3270 1.385 . S
C3272 C3270 1.478 . S
C3272 C3274 1.381 . S
C3272 C3278 1.383 . S
C3273 C3269 1.495 . S
C3273 H3279 0.959 . S
C3273 H3280 0.961 . S
C3273 H3281 0.960 . S
C3274 C3272 1.381 . S
C3274 C3275 1.394 . S
C3274 H3282 0.930 . S
C3275 C3274 1.394 . S
C3275 C3276 1.383 . S
C3275 H3283 0.929 . S
C3276 C3275 1.383 . S
C3276 C3277 1.377 . S
C3277 H3261 0.930 . S
C3277 C3276 1.377 . S
C3277 C3278 1.379 . S
C3278 H3262 0.931 . S
C3278 C3272 1.383 . S
C3278 C3277 1.379 . S
H3279 C3273 0.959 . S
H3280 C3273 0.961 . S
H3281 C3273 0.960 . S
H3282 C3274 0.930 . S
H3283 C3275 0.929 . S
H3284 C3292 0.929 . S
H3285 C3294 0.930 . S
H3286 C3296 0.930 . S
H3287 C3299 0.929 . S
H3288 C3302 0.930 . S
H3289 C3304 0.960 . S
H3290 C3304 0.960 . S
H3291 C3304 0.960 . S
C3292 H3284 0.929 . S
C3292 C3293 1.377 . S
C3292 C3294 1.384 . S
C3293 C3292 1.377 . S
C3293 C3299 1.390 . S
C3294 H3285 0.930 . S
C3294 C3292 1.384 . S
C3294 C3295 1.372 . S
C3295 C3294 1.372 . S
C3295 C3296 1.400 . S
C3295 C3300 1.490 . S
C3296 H3286 0.930 . S
C3296 C3295 1.400 . S
C3296 C3299 1.386 . S
H3297 C3313 0.930 . S
H3298 C3314 0.931 . S
C3299 H3287 0.929 . S
C3299 C3293 1.390 . S
C3299 C3296 1.386 . S
C3300 C3295 1.490 . S
C3300 C3302 1.395 . S
C3300 C3303 1.403 . S
H3301 C3307 0.930 . S
C3302 H3288 0.930 . S
C3302 C3300 1.395 . S
C3302 C3305 1.403 . S
C3303 C3300 1.403 . S
C3303 C3304 1.524 . S
C3303 C3307 1.400 . S
C3304 H3289 0.960 . S
C3304 H3290 0.960 . S
C3304 H3291 0.960 . S
C3304 C3303 1.524 . S
C3305 C3302 1.403 . S
C3305 C3306 1.392 . S
C3305 C3309 1.495 . S
C3306 C3305 1.392 . S
C3306 C3307 1.385 . S
C3306 C3308 1.478 . S
C3307 H3301 0.930 . S
C3307 C3303 1.400 . S
C3307 C3306 1.385 . S
C3308 C3306 1.478 . S
C3308 C3310 1.381 . S
C3308 C3314 1.383 . S
C3309 C3305 1.495 . S
C3309 H3315 0.959 . S
C3309 H3316 0.961 . S
C3309 H3317 0.960 . S
C3310 C3308 1.381 . S
C3310 C3311 1.394 . S
C3310 H3318 0.930 . S
C3311 C3310 1.394 . S
C3311 C3312 1.383 . S
C3311 H3319 0.929 . S
C3312 C3311 1.383 . S
C3312 C3313 1.377 . S
C3313 H3297 0.930 . S
C3313 C3312 1.377 . S
C3313 C3314 1.379 . S
C3314 H3298 0.931 . S
C3314 C3308 1.383 . S
C3314 C3313 1.379 . S
H3315 C3309 0.959 . S
H3316 C3309 0.961 . S
H3317 C3309 0.960 . S
H3318 C3310 0.930 . S
H3319 C3311 0.929 . S
H3320 C3328 0.929 . S
H3321 C3330 0.930 . S
H3322 C3332 0.930 . S
H3323 C3335 0.929 . S
H3324 C3338 0.930 . S
H3325 C3340 0.960 . S
H3326 C3340 0.960 1_455 S
H3327 C3340 0.960 . S
C3328 H3320 0.929 . S
C3328 C3329 1.377 . S
C3328 C3330 1.384 . S
C3329 C3328 1.377 . S
C3329 C3335 1.390 1_455 S
C3330 H3321 0.930 . S
C3330 C3328 1.384 . S
C3330 C3331 1.372 . S
C3331 C3330 1.372 . S
C3331 C3332 1.400 1_455 S
C3331 C3336 1.490 . S
C3332 H3322 0.930 . S
C3332 C3331 1.400 1_655 S
C3332 C3335 1.386 . S
H3333 C3349 0.930 . S
H3334 C3350 0.931 . S
C3335 H3323 0.929 . S
C3335 C3329 1.390 1_655 S
C3335 C3332 1.386 . S
C3336 C3331 1.490 . S
C3336 C3338 1.395 . S
C3336 C3339 1.403 . S
H3337 C3343 0.931 . S
C3338 H3324 0.930 . S
C3338 C3336 1.395 . S
C3338 C3341 1.403 . S
C3339 C3336 1.403 . S
C3339 C3340 1.524 1_455 S
C3339 C3343 1.400 . S
C3340 H3325 0.960 . S
C3340 H3326 0.960 1_655 S
C3340 H3327 0.960 . S
C3340 C3339 1.524 1_655 S
C3341 C3338 1.403 . S
C3341 C3342 1.392 . S
C3341 C3345 1.495 . S
C3342 C3341 1.392 . S
C3342 C3343 1.385 . S
C3342 C3344 1.478 . S
C3343 H3337 0.931 . S
C3343 C3339 1.400 . S
C3343 C3342 1.385 . S
C3344 C3342 1.478 . S
C3344 C3346 1.381 . S
C3344 C3350 1.383 1_455 S
C3345 C3341 1.495 . S
C3345 H3351 0.959 . S
C3345 H3352 0.961 . S
C3345 H3353 0.960 . S
C3346 C3344 1.381 . S
C3346 C3347 1.394 . S
C3346 H3354 0.930 . S
C3347 C3346 1.394 . S
C3347 C3348 1.383 . S
C3347 H3355 0.929 . S
C3348 C3347 1.383 . S
C3348 C3349 1.377 1_455 S
C3349 H3333 0.930 . S
C3349 C3348 1.377 1_655 S
C3349 C3350 1.379 . S
C3350 H3334 0.931 . S
C3350 C3344 1.383 1_655 S
C3350 C3349 1.379 . S
H3351 C3345 0.959 . S
H3352 C3345 0.961 . S
H3353 C3345 0.960 . S
H3354 C3346 0.930 . S
H3355 C3347 0.929 . S
H3356 C3364 0.929 . S
H3357 C3366 0.930 . S
H3358 C3368 0.930 . S
H3359 C3371 0.929 . S
H3360 C3374 0.930 . S
H3361 C3376 0.960 . S
H3362 C3376 0.960 . S
H3363 C3376 0.960 . S
C3364 H3356 0.929 . S
C3364 C3365 1.377 . S
C3364 C3366 1.384 . S
C3365 C3364 1.377 . S
C3365 C3371 1.390 . S
C3366 H3357 0.930 . S
C3366 C3364 1.384 . S
C3366 C3367 1.372 . S
C3367 C3366 1.372 . S
C3367 C3368 1.400 . S
C3367 C3372 1.490 . S
C3368 H3358 0.930 . S
C3368 C3367 1.400 . S
C3368 C3371 1.386 . S
H3369 C3385 0.930 . S
H3370 C3386 0.931 . S
C3371 H3359 0.929 . S
C3371 C3365 1.390 . S
C3371 C3368 1.386 . S
C3372 C3367 1.490 . S
C3372 C3374 1.395 . S
C3372 C3375 1.403 . S
H3373 C3379 0.930 . S
C3374 H3360 0.930 . S
C3374 C3372 1.395 . S
C3374 C3377 1.403 . S
C3375 C3372 1.403 . S
C3375 C3376 1.524 . S
C3375 C3379 1.400 . S
C3376 H3361 0.960 . S
C3376 H3362 0.960 . S
C3376 H3363 0.960 . S
C3376 C3375 1.524 . S
C3377 C3374 1.403 . S
C3377 C3378 1.392 . S
C3377 C3381 1.495 . S
C3378 C3377 1.392 . S
C3378 C3379 1.385 . S
C3378 C3380 1.478 . S
C3379 H3373 0.930 . S
C3379 C3375 1.400 . S
C3379 C3378 1.385 . S
C3380 C3378 1.478 . S
C3380 C3382 1.381 . S
C3380 C3386 1.383 . S
C3381 C3377 1.495 . S
C3381 H3387 0.959 . S
C3381 H3388 0.961 . S
C3381 H3389 0.960 . S
C3382 C3380 1.381 . S
C3382 C3383 1.394 . S
C3382 H3390 0.930 . S
C3383 C3382 1.394 . S
C3383 C3384 1.383 . S
C3383 H3391 0.929 . S
C3384 C3383 1.383 . S
C3384 C3385 1.377 . S
C3385 H3369 0.930 . S
C3385 C3384 1.377 . S
C3385 C3386 1.379 . S
C3386 H3370 0.931 . S
C3386 C3380 1.383 . S
C3386 C3385 1.379 . S
H3387 C3381 0.959 . S
H3388 C3381 0.961 . S
H3389 C3381 0.960 . S
H3390 C3382 0.930 . S
H3391 C3383 0.929 . S
H3392 C3400 0.929 . S
H3393 C3402 0.930 . S
H3394 C3404 0.930 . S
H3395 C3407 0.929 . S
H3396 C3410 0.930 . S
H3397 C3412 0.960 . S
H3398 C3412 0.960 . S
H3399 C3412 0.960 . S
C3400 H3392 0.929 . S
C3400 C3401 1.377 . S
C3400 C3402 1.384 . S
C3401 C3400 1.377 . S
C3401 C3407 1.390 . S
C3402 H3393 0.930 . S
C3402 C3400 1.384 . S
C3402 C3403 1.372 . S
C3403 C3402 1.372 . S
C3403 C3404 1.400 . S
C3403 C3408 1.490 . S
C3404 H3394 0.930 . S
C3404 C3403 1.400 . S
C3404 C3407 1.386 . S
H3405 C3421 0.930 . S
H3406 C3422 0.931 . S
C3407 H3395 0.929 . S
C3407 C3401 1.390 . S
C3407 C3404 1.386 . S
C3408 C3403 1.490 . S
C3408 C3410 1.395 . S
C3408 C3411 1.403 . S
H3409 C3415 0.930 . S
C3410 H3396 0.930 . S
C3410 C3408 1.395 . S
C3410 C3413 1.403 . S
C3411 C3408 1.403 . S
C3411 C3412 1.524 . S
C3411 C3415 1.400 . S
C3412 H3397 0.960 . S
C3412 H3398 0.960 . S
C3412 H3399 0.960 . S
C3412 C3411 1.524 . S
C3413 C3410 1.403 . S
C3413 C3414 1.392 . S
C3413 C3417 1.495 . S
C3414 C3413 1.392 . S
C3414 C3415 1.385 . S
C3414 C3416 1.478 . S
C3415 H3409 0.930 . S
C3415 C3411 1.400 . S
C3415 C3414 1.385 . S
C3416 C3414 1.478 . S
C3416 C3418 1.381 . S
C3416 C3422 1.383 . S
C3417 C3413 1.495 . S
C3417 H3423 0.959 . S
C3417 H3424 0.961 . S
C3417 H3425 0.960 . S
C3418 C3416 1.381 . S
C3418 C3419 1.394 . S
C3418 H3426 0.930 . S
C3419 C3418 1.394 . S
C3419 C3420 1.383 . S
C3419 H3427 0.929 . S
C3420 C3419 1.383 . S
C3420 C3421 1.377 . S
C3421 H3405 0.930 . S
C3421 C3420 1.377 . S
C3421 C3422 1.379 . S
C3422 H3406 0.931 . S
C3422 C3416 1.383 . S
C3422 C3421 1.379 . S
H3423 C3417 0.959 . S
H3424 C3417 0.961 . S
H3425 C3417 0.960 . S
H3426 C3418 0.930 . S
H3427 C3419 0.929 . S
H3428 C3436 0.929 . S
H3429 C3438 0.930 . S
H3430 C3440 0.930 . S
H3431 C3443 0.929 . S
H3432 C3446 0.930 . S
H3433 C3448 0.960 . S
H3434 C3448 0.960 . S
H3435 C3448 0.960 . S
C3436 H3428 0.929 . S
C3436 C3437 1.377 . S
C3436 C3438 1.384 . S
C3437 C3436 1.377 . S
C3437 C3443 1.390 . S
C3438 H3429 0.930 . S
C3438 C3436 1.384 . S
C3438 C3439 1.372 . S
C3439 C3438 1.372 . S
C3439 C3440 1.400 . S
C3439 C3444 1.490 . S
C3440 H3430 0.930 . S
C3440 C3439 1.400 . S
C3440 C3443 1.386 . S
H3441 C3457 0.930 . S
H3442 C3458 0.931 . S
C3443 H3431 0.929 . S
C3443 C3437 1.390 . S
C3443 C3440 1.386 . S
C3444 C3439 1.490 . S
C3444 C3446 1.395 . S
C3444 C3447 1.403 . S
H3445 C3451 0.930 . S
C3446 H3432 0.930 . S
C3446 C3444 1.395 . S
C3446 C3449 1.403 . S
C3447 C3444 1.403 . S
C3447 C3448 1.524 . S
C3447 C3451 1.400 . S
C3448 H3433 0.960 . S
C3448 H3434 0.960 . S
C3448 H3435 0.960 . S
C3448 C3447 1.524 . S
C3449 C3446 1.403 . S
C3449 C3450 1.392 . S
C3449 C3453 1.495 . S
C3450 C3449 1.392 . S
C3450 C3451 1.385 . S
C3450 C3452 1.478 . S
C3451 H3445 0.930 . S
C3451 C3447 1.400 . S
C3451 C3450 1.385 . S
C3452 C3450 1.478 . S
C3452 C3454 1.381 . S
C3452 C3458 1.383 . S
C3453 C3449 1.495 . S
C3453 H3459 0.959 . S
C3453 H3460 0.961 . S
C3453 H3461 0.960 . S
C3454 C3452 1.381 . S
C3454 C3455 1.394 . S
C3454 H3462 0.930 . S
C3455 C3454 1.394 . S
C3455 C3456 1.383 . S
C3455 H3463 0.929 . S
C3456 C3455 1.383 . S
C3456 C3457 1.377 . S
C3457 H3441 0.930 . S
C3457 C3456 1.377 . S
C3457 C3458 1.379 . S
C3458 H3442 0.931 . S
C3458 C3452 1.383 . S
C3458 C3457 1.379 . S
H3459 C3453 0.959 . S
H3460 C3453 0.961 . S
H3461 C3453 0.960 . S
H3462 C3454 0.930 . S
H3463 C3455 0.929 . S
H3464 C3472 0.929 1_655 S
H3465 C3474 0.932 . S
H3466 C3476 0.930 . S
H3467 C3479 0.929 . S
H3468 C3482 0.930 1_655 S
H3469 C3484 0.960 . S
H3470 C3484 0.960 . S
H3471 C3484 0.960 . S
C3472 H3464 0.929 1_455 S
C3472 C3473 1.377 . S
C3472 C3474 1.383 1_455 S
C3473 C3472 1.377 . S
C3473 C3479 1.390 . S
C3474 H3465 0.932 . S
C3474 C3472 1.383 1_655 S
C3474 C3475 1.371 1_655 S
C3475 C3474 1.371 1_455 S
C3475 C3476 1.400 . S
C3475 C3480 1.490 . S
C3476 H3466 0.930 . S
C3476 C3475 1.400 . S
C3476 C3479 1.386 . S
H3477 C3493 0.930 . S
H3478 C3494 0.931 . S
C3479 H3467 0.929 . S
C3479 C3473 1.390 . S
C3479 C3476 1.386 . S
C3480 C3475 1.490 . S
C3480 C3482 1.395 . S
C3480 C3483 1.403 . S
H3481 C3487 0.930 . S
C3482 H3468 0.930 1_455 S
C3482 C3480 1.395 . S
C3482 C3485 1.403 . S
C3483 C3480 1.403 . S
C3483 C3484 1.524 . S
C3483 C3487 1.400 . S
C3484 H3469 0.960 . S
C3484 H3470 0.960 . S
C3484 H3471 0.960 . S
C3484 C3483 1.524 . S
C3485 C3482 1.403 . S
C3485 C3486 1.392 . S
C3485 C3489 1.495 1_455 S
C3486 C3485 1.392 . S
C3486 C3487 1.385 . S
C3486 C3488 1.478 . S
C3487 H3481 0.930 . S
C3487 C3483 1.400 . S
C3487 C3486 1.385 . S
C3488 C3486 1.478 . S
C3488 C3490 1.381 1_455 S
C3488 C3494 1.383 . S
C3489 C3485 1.495 1_655 S
C3489 H3495 0.959 . S
C3489 H3496 0.961 . S
C3489 H3497 0.960 . S
C3490 C3488 1.381 1_655 S
C3490 C3491 1.394 . S
C3490 H3498 0.930 . S
C3491 C3490 1.394 . S
C3491 C3492 1.383 1_655 S
C3491 H3499 0.929 . S
C3492 C3491 1.383 1_455 S
C3492 C3493 1.377 . S
C3493 H3477 0.930 . S
C3493 C3492 1.377 . S
C3493 C3494 1.379 . S
C3494 H3478 0.931 . S
C3494 C3488 1.383 . S
C3494 C3493 1.379 . S
H3495 C3489 0.959 . S
H3496 C3489 0.961 . S
H3497 C3489 0.960 . S
H3498 C3490 0.930 . S
H3499 C3491 0.929 . S
H3500 C3508 0.929 . S
H3501 C3510 0.930 . S
H3502 C3512 0.930 . S
H3503 C3515 0.929 . S
H3504 C3518 0.930 . S
H3505 C3520 0.960 . S
H3506 C3520 0.960 . S
H3507 C3520 0.960 . S
C3508 H3500 0.929 . S
C3508 C3509 1.377 . S
C3508 C3510 1.384 . S
C3509 C3508 1.377 . S
C3509 C3515 1.390 . S
C3510 H3501 0.930 . S
C3510 C3508 1.384 . S
C3510 C3511 1.372 . S
C3511 C3510 1.372 . S
C3511 C3512 1.400 . S
C3511 C3516 1.490 . S
C3512 H3502 0.930 . S
C3512 C3511 1.400 . S
C3512 C3515 1.386 . S
H3513 C3529 0.930 . S
H3514 C3530 0.931 . S
C3515 H3503 0.929 . S
C3515 C3509 1.390 . S
C3515 C3512 1.386 . S
C3516 C3511 1.490 . S
C3516 C3518 1.395 . S
C3516 C3519 1.403 . S
H3517 C3523 0.930 . S
C3518 H3504 0.930 . S
C3518 C3516 1.395 . S
C3518 C3521 1.403 . S
C3519 C3516 1.403 . S
C3519 C3520 1.524 . S
C3519 C3523 1.400 . S
C3520 H3505 0.960 . S
C3520 H3506 0.960 . S
C3520 H3507 0.960 . S
C3520 C3519 1.524 . S
C3521 C3518 1.403 . S
C3521 C3522 1.392 . S
C3521 C3525 1.495 . S
C3522 C3521 1.392 . S
C3522 C3523 1.385 . S
C3522 C3524 1.478 . S
C3523 H3517 0.930 . S
C3523 C3519 1.400 . S
C3523 C3522 1.385 . S
C3524 C3522 1.478 . S
C3524 C3526 1.381 . S
C3524 C3530 1.383 . S
C3525 C3521 1.495 . S
C3525 H3531 0.959 . S
C3525 H3532 0.961 . S
C3525 H3533 0.960 . S
C3526 C3524 1.381 . S
C3526 C3527 1.394 . S
C3526 H3534 0.930 . S
C3527 C3526 1.394 . S
C3527 C3528 1.383 . S
C3527 H3535 0.929 . S
C3528 C3527 1.383 . S
C3528 C3529 1.377 . S
C3529 H3513 0.930 . S
C3529 C3528 1.377 . S
C3529 C3530 1.379 . S
C3530 H3514 0.931 . S
C3530 C3524 1.383 . S
C3530 C3529 1.379 . S
H3531 C3525 0.959 . S
H3532 C3525 0.961 . S
H3533 C3525 0.960 . S
H3534 C3526 0.930 . S
H3535 C3527 0.929 . S
H3536 C3544 0.929 . S
H3537 C3546 0.930 . S
H3538 C3548 0.930 . S
H3539 C3551 0.929 . S
H3540 C3554 0.930 . S
H3541 C3556 0.960 . S
H3542 C3556 0.960 . S
H3543 C3556 0.960 . S
C3544 H3536 0.929 . S
C3544 C3545 1.377 . S
C3544 C3546 1.384 . S
C3545 C3544 1.377 . S
C3545 C3551 1.390 . S
C3546 H3537 0.930 . S
C3546 C3544 1.384 . S
C3546 C3547 1.372 . S
C3547 C3546 1.372 . S
C3547 C3548 1.400 . S
C3547 C3552 1.490 . S
C3548 H3538 0.930 . S
C3548 C3547 1.400 . S
C3548 C3551 1.386 . S
H3549 C3565 0.930 . S
H3550 C3566 0.931 . S
C3551 H3539 0.929 . S
C3551 C3545 1.390 . S
C3551 C3548 1.386 . S
C3552 C3547 1.490 . S
C3552 C3554 1.395 . S
C3552 C3555 1.403 . S
H3553 C3559 0.930 . S
C3554 H3540 0.930 . S
C3554 C3552 1.395 . S
C3554 C3557 1.403 . S
C3555 C3552 1.403 . S
C3555 C3556 1.524 . S
C3555 C3559 1.400 . S
C3556 H3541 0.960 . S
C3556 H3542 0.960 . S
C3556 H3543 0.960 . S
C3556 C3555 1.524 . S
C3557 C3554 1.403 . S
C3557 C3558 1.392 . S
C3557 C3561 1.495 . S
C3558 C3557 1.392 . S
C3558 C3559 1.385 . S
C3558 C3560 1.478 . S
C3559 H3553 0.930 . S
C3559 C3555 1.400 . S
C3559 C3558 1.385 . S
C3560 C3558 1.478 . S
C3560 C3562 1.381 . S
C3560 C3566 1.383 . S
C3561 C3557 1.495 . S
C3561 H3567 0.959 . S
C3561 H3568 0.961 . S
C3561 H3569 0.960 . S
C3562 C3560 1.381 . S
C3562 C3563 1.394 . S
C3562 H3570 0.930 . S
C3563 C3562 1.394 . S
C3563 C3564 1.383 . S
C3563 H3571 0.929 . S
C3564 C3563 1.383 . S
C3564 C3565 1.377 . S
C3565 H3549 0.930 . S
C3565 C3564 1.377 . S
C3565 C3566 1.379 . S
C3566 H3550 0.931 . S
C3566 C3560 1.383 . S
C3566 C3565 1.379 . S
H3567 C3561 0.959 . S
H3568 C3561 0.961 . S
H3569 C3561 0.960 . S
H3570 C3562 0.930 . S
H3571 C3563 0.929 . S
H3572 C3580 0.929 . S
H3573 C3582 0.930 . S
H3574 C3584 0.930 . S
H3575 C3587 0.929 . S
H3576 C3590 0.930 . S
H3577 C3592 0.960 . S
H3578 C3592 0.960 . S
H3579 C3592 0.960 . S
C3580 H3572 0.929 . S
C3580 C3581 1.377 . S
C3580 C3582 1.384 . S
C3581 C3580 1.377 . S
C3581 C3587 1.390 . S
C3582 H3573 0.930 . S
C3582 C3580 1.384 . S
C3582 C3583 1.372 . S
C3583 C3582 1.372 . S
C3583 C3584 1.400 . S
C3583 C3588 1.490 . S
C3584 H3574 0.930 . S
C3584 C3583 1.400 . S
C3584 C3587 1.386 . S
H3585 C3601 0.930 . S
H3586 C3602 0.931 . S
C3587 H3575 0.929 . S
C3587 C3581 1.390 . S
C3587 C3584 1.386 . S
C3588 C3583 1.490 . S
C3588 C3590 1.395 . S
C3588 C3591 1.403 . S
H3589 C3595 0.930 . S
C3590 H3576 0.930 . S
C3590 C3588 1.395 . S
C3590 C3593 1.403 . S
C3591 C3588 1.403 . S
C3591 C3592 1.524 . S
C3591 C3595 1.400 . S
C3592 H3577 0.960 . S
C3592 H3578 0.960 . S
C3592 H3579 0.960 . S
C3592 C3591 1.524 . S
C3593 C3590 1.403 . S
C3593 C3594 1.392 . S
C3593 C3597 1.495 . S
C3594 C3593 1.392 . S
C3594 C3595 1.385 . S
C3594 C3596 1.478 . S
C3595 H3589 0.930 . S
C3595 C3591 1.400 . S
C3595 C3594 1.385 . S
C3596 C3594 1.478 . S
C3596 C3598 1.381 . S
C3596 C3602 1.383 . S
C3597 C3593 1.495 . S
C3597 H3603 0.959 . S
C3597 H3604 0.961 . S
C3597 H3605 0.960 . S
C3598 C3596 1.381 . S
C3598 C3599 1.394 . S
C3598 H3606 0.930 . S
C3599 C3598 1.394 . S
C3599 C3600 1.383 . S
C3599 H3607 0.929 . S
C3600 C3599 1.383 . S
C3600 C3601 1.377 . S
C3601 H3585 0.930 . S
C3601 C3600 1.377 . S
C3601 C3602 1.379 . S
C3602 H3586 0.931 . S
C3602 C3596 1.383 . S
C3602 C3601 1.379 . S
H3603 C3597 0.959 . S
H3604 C3597 0.961 . S
H3605 C3597 0.960 . S
H3606 C3598 0.930 . S
H3607 C3599 0.929 . S
H3608 C3616 0.929 . S
H3609 C3618 0.930 . S
H3610 C3620 0.930 . S
H3611 C3623 0.929 . S
H3612 C3626 0.930 . S
H3613 C3628 0.960 . S
H3614 C3628 0.960 . S
H3615 C3628 0.960 . S
C3616 H3608 0.929 . S
C3616 C3617 1.377 . S
C3616 C3618 1.384 . S
C3617 C3616 1.377 . S
C3617 C3623 1.390 . S
C3618 H3609 0.930 . S
C3618 C3616 1.384 . S
C3618 C3619 1.372 . S
C3619 C3618 1.372 . S
C3619 C3620 1.400 . S
C3619 C3624 1.490 . S
C3620 H3610 0.930 . S
C3620 C3619 1.400 . S
C3620 C3623 1.386 . S
H3621 C3637 0.930 1_455 S
H3622 C3638 0.931 . S
C3623 H3611 0.929 . S
C3623 C3617 1.390 . S
C3623 C3620 1.386 . S
C3624 C3619 1.490 . S
C3624 C3626 1.395 . S
C3624 C3627 1.403 . S
H3625 C3631 0.930 . S
C3626 H3612 0.930 . S
C3626 C3624 1.395 . S
C3626 C3629 1.403 . S
C3627 C3624 1.403 . S
C3627 C3628 1.524 . S
C3627 C3631 1.400 . S
C3628 H3613 0.960 . S
C3628 H3614 0.960 . S
C3628 H3615 0.960 . S
C3628 C3627 1.524 . S
C3629 C3626 1.403 . S
C3629 C3630 1.392 . S
C3629 C3633 1.495 . S
C3630 C3629 1.392 . S
C3630 C3631 1.385 . S
C3630 C3632 1.478 . S
C3631 H3625 0.930 . S
C3631 C3627 1.400 . S
C3631 C3630 1.385 . S
C3632 C3630 1.478 . S
C3632 C3634 1.381 . S
C3632 C3638 1.383 . S
C3633 C3629 1.495 . S
C3633 H3639 0.959 . S
C3633 H3640 0.961 . S
C3633 H3641 0.960 . S
C3634 C3632 1.381 . S
C3634 C3635 1.394 . S
C3634 H3642 0.930 . S
C3635 C3634 1.394 . S
C3635 C3636 1.383 . S
C3635 H3643 0.929 . S
C3636 C3635 1.383 . S
C3636 C3637 1.377 . S
C3637 H3621 0.930 1_655 S
C3637 C3636 1.377 . S
C3637 C3638 1.379 . S
C3638 H3622 0.931 . S
C3638 C3632 1.383 . S
C3638 C3637 1.379 . S
H3639 C3633 0.959 . S
H3640 C3633 0.961 . S
H3641 C3633 0.960 . S
H3642 C3634 0.930 . S
H3643 C3635 0.929 . S
H3644 C3652 0.929 . S
H3645 C3654 0.930 . S
H3646 C3656 0.930 . S
H3647 C3659 0.929 . S
H3648 C3662 0.930 . S
H3649 C3664 0.960 . S
H3650 C3664 0.960 . S
H3651 C3664 0.960 . S
C3652 H3644 0.929 . S
C3652 C3653 1.377 . S
C3652 C3654 1.384 . S
C3653 C3652 1.377 . S
C3653 C3659 1.390 . S
C3654 H3645 0.930 . S
C3654 C3652 1.384 . S
C3654 C3655 1.372 . S
C3655 C3654 1.372 . S
C3655 C3656 1.400 . S
C3655 C3660 1.490 . S
C3656 H3646 0.930 . S
C3656 C3655 1.400 . S
C3656 C3659 1.386 . S
H3657 C3673 0.930 . S
H3658 C3674 0.931 . S
C3659 H3647 0.929 . S
C3659 C3653 1.390 . S
C3659 C3656 1.386 . S
C3660 C3655 1.490 . S
C3660 C3662 1.395 . S
C3660 C3663 1.403 . S
H3661 C3667 0.930 . S
C3662 H3648 0.930 . S
C3662 C3660 1.395 . S
C3662 C3665 1.403 . S
C3663 C3660 1.403 . S
C3663 C3664 1.524 . S
C3663 C3667 1.400 . S
C3664 H3649 0.960 . S
C3664 H3650 0.960 . S
C3664 H3651 0.960 . S
C3664 C3663 1.524 . S
C3665 C3662 1.403 . S
C3665 C3666 1.392 . S
C3665 C3669 1.495 . S
C3666 C3665 1.392 . S
C3666 C3667 1.385 . S
C3666 C3668 1.478 . S
C3667 H3661 0.930 . S
C3667 C3663 1.400 . S
C3667 C3666 1.385 . S
C3668 C3666 1.478 . S
C3668 C3670 1.381 . S
C3668 C3674 1.383 . S
C3669 C3665 1.495 . S
C3669 H3675 0.959 . S
C3669 H3676 0.961 . S
C3669 H3677 0.960 . S
C3670 C3668 1.381 . S
C3670 C3671 1.394 . S
C3670 H3678 0.930 . S
C3671 C3670 1.394 . S
C3671 C3672 1.383 . S
C3671 H3679 0.929 . S
C3672 C3671 1.383 . S
C3672 C3673 1.377 . S
C3673 H3657 0.930 . S
C3673 C3672 1.377 . S
C3673 C3674 1.379 . S
C3674 H3658 0.931 . S
C3674 C3668 1.383 . S
C3674 C3673 1.379 . S
H3675 C3669 0.959 . S
H3676 C3669 0.961 . S
H3677 C3669 0.960 . S
H3678 C3670 0.930 . S
H3679 C3671 0.929 . S
H3680 C3688 0.929 . S
H3681 C3690 0.930 . S
H3682 C3692 0.930 . S
H3683 C3695 0.929 . S
H3684 C3698 0.930 . S
H3685 C3700 0.960 . S
H3686 C3700 0.960 . S
H3687 C3700 0.960 . S
C3688 H3680 0.929 . S
C3688 C3689 1.377 . S
C3688 C3690 1.384 . S
C3689 C3688 1.377 . S
C3689 C3695 1.390 . S
C3690 H3681 0.930 . S
C3690 C3688 1.384 . S
C3690 C3691 1.372 . S
C3691 C3690 1.372 . S
C3691 C3692 1.400 . S
C3691 C3696 1.490 . S
C3692 H3682 0.930 . S
C3692 C3691 1.400 . S
C3692 C3695 1.386 . S
H3693 C3709 0.930 . S
H3694 C3710 0.931 . S
C3695 H3683 0.929 . S
C3695 C3689 1.390 . S
C3695 C3692 1.386 . S
C3696 C3691 1.490 . S
C3696 C3698 1.395 . S
C3696 C3699 1.403 . S
H3697 C3703 0.930 . S
C3698 H3684 0.930 . S
C3698 C3696 1.395 . S
C3698 C3701 1.403 . S
C3699 C3696 1.403 . S
C3699 C3700 1.524 . S
C3699 C3703 1.400 . S
C3700 H3685 0.960 . S
C3700 H3686 0.960 . S
C3700 H3687 0.960 . S
C3700 C3699 1.524 . S
C3701 C3698 1.403 . S
C3701 C3702 1.392 . S
C3701 C3705 1.495 . S
C3702 C3701 1.392 . S
C3702 C3703 1.385 . S
C3702 C3704 1.478 . S
C3703 H3697 0.930 . S
C3703 C3699 1.400 . S
C3703 C3702 1.385 . S
C3704 C3702 1.478 . S
C3704 C3706 1.381 . S
C3704 C3710 1.383 . S
C3705 C3701 1.495 . S
C3705 H3711 0.959 . S
C3705 H3712 0.961 . S
C3705 H3713 0.960 . S
C3706 C3704 1.381 . S
C3706 C3707 1.394 . S
C3706 H3714 0.930 . S
C3707 C3706 1.394 . S
C3707 C3708 1.383 . S
C3707 H3715 0.929 . S
C3708 C3707 1.383 . S
C3708 C3709 1.377 . S
C3709 H3693 0.930 . S
C3709 C3708 1.377 . S
C3709 C3710 1.379 . S
C3710 H3694 0.931 . S
C3710 C3704 1.383 . S
C3710 C3709 1.379 . S
H3711 C3705 0.959 . S
H3712 C3705 0.961 . S
H3713 C3705 0.960 . S
H3714 C3706 0.930 . S
H3715 C3707 0.929 . S
H3716 C3724 0.929 . S
H3717 C3726 0.930 . S
H3718 C3728 0.930 . S
H3719 C3731 0.929 . S
H3720 C3734 0.930 . S
H3721 C3736 0.960 . S
H3722 C3736 0.960 . S
H3723 C3736 0.960 . S
C3724 H3716 0.929 . S
C3724 C3725 1.377 . S
C3724 C3726 1.384 . S
C3725 C3724 1.377 . S
C3725 C3731 1.390 . S
C3726 H3717 0.930 . S
C3726 C3724 1.384 . S
C3726 C3727 1.372 . S
C3727 C3726 1.372 . S
C3727 C3728 1.400 . S
C3727 C3732 1.490 . S
C3728 H3718 0.930 . S
C3728 C3727 1.400 . S
C3728 C3731 1.386 . S
H3729 C3745 0.930 . S
H3730 C3746 0.931 . S
C3731 H3719 0.929 . S
C3731 C3725 1.390 . S
C3731 C3728 1.386 . S
C3732 C3727 1.490 . S
C3732 C3734 1.395 . S
C3732 C3735 1.403 . S
H3733 C3739 0.930 . S
C3734 H3720 0.930 . S
C3734 C3732 1.395 . S
C3734 C3737 1.403 . S
C3735 C3732 1.403 . S
C3735 C3736 1.524 . S
C3735 C3739 1.400 . S
C3736 H3721 0.960 . S
C3736 H3722 0.960 . S
C3736 H3723 0.960 . S
C3736 C3735 1.524 . S
C3737 C3734 1.403 . S
C3737 C3738 1.392 . S
C3737 C3741 1.495 . S
C3738 C3737 1.392 . S
C3738 C3739 1.385 . S
C3738 C3740 1.478 . S
C3739 H3733 0.930 . S
C3739 C3735 1.400 . S
C3739 C3738 1.385 . S
C3740 C3738 1.478 . S
C3740 C3742 1.381 . S
C3740 C3746 1.383 . S
C3741 C3737 1.495 . S
C3741 H3747 0.959 . S
C3741 H3748 0.961 . S
C3741 H3749 0.960 . S
C3742 C3740 1.381 . S
C3742 C3743 1.394 . S
C3742 H3750 0.930 . S
C3743 C3742 1.394 . S
C3743 C3744 1.383 . S
C3743 H3751 0.929 . S
C3744 C3743 1.383 . S
C3744 C3745 1.377 . S
C3745 H3729 0.930 . S
C3745 C3744 1.377 . S
C3745 C3746 1.379 . S
C3746 H3730 0.931 . S
C3746 C3740 1.383 . S
C3746 C3745 1.379 . S
H3747 C3741 0.959 . S
H3748 C3741 0.961 . S
H3749 C3741 0.960 . S
H3750 C3742 0.930 . S
H3751 C3743 0.929 . S
H3752 C3760 0.929 . S
H3753 C3762 0.930 . S
H3754 C3764 0.930 . S
H3755 C3767 0.929 . S
H3756 C3770 0.930 . S
H3757 C3772 0.960 . S
H3758 C3772 0.960 . S
H3759 C3772 0.960 . S
C3760 H3752 0.929 . S
C3760 C3761 1.377 . S
C3760 C3762 1.384 . S
C3761 C3760 1.377 . S
C3761 C3767 1.390 . S
C3762 H3753 0.930 . S
C3762 C3760 1.384 . S
C3762 C3763 1.372 . S
C3763 C3762 1.372 . S
C3763 C3764 1.400 . S
C3763 C3768 1.490 . S
C3764 H3754 0.930 . S
C3764 C3763 1.400 . S
C3764 C3767 1.386 . S
H3765 C3781 0.930 . S
H3766 C3782 0.931 . S
C3767 H3755 0.929 . S
C3767 C3761 1.390 . S
C3767 C3764 1.386 . S
C3768 C3763 1.490 . S
C3768 C3770 1.395 . S
C3768 C3771 1.403 . S
H3769 C3775 0.930 . S
C3770 H3756 0.930 . S
C3770 C3768 1.395 . S
C3770 C3773 1.403 . S
C3771 C3768 1.403 . S
C3771 C3772 1.524 . S
C3771 C3775 1.400 . S
C3772 H3757 0.960 . S
C3772 H3758 0.960 . S
C3772 H3759 0.960 . S
C3772 C3771 1.524 . S
C3773 C3770 1.403 . S
C3773 C3774 1.392 . S
C3773 C3777 1.495 . S
C3774 C3773 1.392 . S
C3774 C3775 1.385 . S
C3774 C3776 1.478 . S
C3775 H3769 0.930 . S
C3775 C3771 1.400 . S
C3775 C3774 1.385 . S
C3776 C3774 1.478 . S
C3776 C3778 1.381 . S
C3776 C3782 1.383 . S
C3777 C3773 1.495 . S
C3777 H3783 0.959 . S
C3777 H3784 0.961 . S
C3777 H3785 0.960 . S
C3778 C3776 1.381 . S
C3778 C3779 1.394 . S
C3778 H3786 0.930 . S
C3779 C3778 1.394 . S
C3779 C3780 1.383 . S
C3779 H3787 0.929 1_655 S
C3780 C3779 1.383 . S
C3780 C3781 1.377 . S
C3781 H3765 0.930 . S
C3781 C3780 1.377 . S
C3781 C3782 1.379 . S
C3782 H3766 0.931 . S
C3782 C3776 1.383 . S
C3782 C3781 1.379 . S
H3783 C3777 0.959 . S
H3784 C3777 0.961 . S
H3785 C3777 0.960 . S
H3786 C3778 0.930 . S
H3787 C3779 0.929 1_455 S
H3788 C3796 0.929 . S
H3789 C3798 0.930 . S
H3790 C3800 0.930 . S
H3791 C3803 0.929 . S
H3792 C3806 0.930 . S
H3793 C3808 0.960 . S
H3794 C3808 0.960 . S
H3795 C3808 0.960 . S
C3796 H3788 0.929 . S
C3796 C3797 1.377 . S
C3796 C3798 1.384 . S
C3797 C3796 1.377 . S
C3797 C3803 1.390 . S
C3798 H3789 0.930 . S
C3798 C3796 1.384 . S
C3798 C3799 1.372 . S
C3799 C3798 1.372 . S
C3799 C3800 1.400 . S
C3799 C3804 1.490 . S
C3800 H3790 0.930 . S
C3800 C3799 1.400 . S
C3800 C3803 1.386 . S
H3801 C3817 0.930 . S
H3802 C3818 0.931 . S
C3803 H3791 0.929 . S
C3803 C3797 1.390 . S
C3803 C3800 1.386 . S
C3804 C3799 1.490 . S
C3804 C3806 1.395 . S
C3804 C3807 1.403 . S
H3805 C3811 0.930 . S
C3806 H3792 0.930 . S
C3806 C3804 1.395 . S
C3806 C3809 1.403 . S
C3807 C3804 1.403 . S
C3807 C3808 1.524 . S
C3807 C3811 1.400 . S
C3808 H3793 0.960 . S
C3808 H3794 0.960 . S
C3808 H3795 0.960 . S
C3808 C3807 1.524 . S
C3809 C3806 1.403 . S
C3809 C3810 1.392 . S
C3809 C3813 1.495 . S
C3810 C3809 1.392 . S
C3810 C3811 1.385 . S
C3810 C3812 1.478 . S
C3811 H3805 0.930 . S
C3811 C3807 1.400 . S
C3811 C3810 1.385 . S
C3812 C3810 1.478 . S
C3812 C3814 1.381 . S
C3812 C3818 1.383 . S
C3813 C3809 1.495 . S
C3813 H3819 0.959 . S
C3813 H3820 0.961 . S
C3813 H3821 0.960 . S
C3814 C3812 1.381 . S
C3814 C3815 1.394 . S
C3814 H3822 0.930 . S
C3815 C3814 1.394 . S
C3815 C3816 1.383 . S
C3815 H3823 0.929 . S
C3816 C3815 1.383 . S
C3816 C3817 1.377 . S
C3817 H3801 0.930 . S
C3817 C3816 1.377 . S
C3817 C3818 1.379 . S
C3818 H3802 0.931 . S
C3818 C3812 1.383 . S
C3818 C3817 1.379 . S
H3819 C3813 0.959 . S
H3820 C3813 0.961 . S
H3821 C3813 0.960 . S
H3822 C3814 0.930 . S
H3823 C3815 0.929 . S
H3824 C3832 0.929 . S
H3825 C3834 0.930 . S
H3826 C3836 0.930 . S
H3827 C3839 0.929 . S
H3828 C3842 0.930 . S
H3829 C3844 0.960 . S
H3830 C3844 0.960 . S
H3831 C3844 0.960 . S
C3832 H3824 0.929 . S
C3832 C3833 1.377 . S
C3832 C3834 1.384 . S
C3833 C3832 1.377 . S
C3833 C3839 1.390 . S
C3834 H3825 0.930 . S
C3834 C3832 1.384 . S
C3834 C3835 1.372 . S
C3835 C3834 1.372 . S
C3835 C3836 1.400 . S
C3835 C3840 1.490 . S
C3836 H3826 0.930 . S
C3836 C3835 1.400 . S
C3836 C3839 1.386 . S
H3837 C3853 0.930 . S
H3838 C3854 0.931 . S
C3839 H3827 0.929 . S
C3839 C3833 1.390 . S
C3839 C3836 1.386 . S
C3840 C3835 1.490 . S
C3840 C3842 1.395 . S
C3840 C3843 1.403 . S
H3841 C3847 0.930 . S
C3842 H3828 0.930 . S
C3842 C3840 1.395 . S
C3842 C3845 1.403 . S
C3843 C3840 1.403 . S
C3843 C3844 1.524 . S
C3843 C3847 1.400 . S
C3844 H3829 0.960 . S
C3844 H3830 0.960 . S
C3844 H3831 0.960 . S
C3844 C3843 1.524 . S
C3845 C3842 1.403 . S
C3845 C3846 1.392 . S
C3845 C3849 1.495 . S
C3846 C3845 1.392 . S
C3846 C3847 1.385 . S
C3846 C3848 1.478 . S
C3847 H3841 0.930 . S
C3847 C3843 1.400 . S
C3847 C3846 1.385 . S
C3848 C3846 1.478 . S
C3848 C3850 1.381 . S
C3848 C3854 1.383 . S
C3849 C3845 1.495 . S
C3849 H3855 0.959 . S
C3849 H3856 0.961 . S
C3849 H3857 0.960 . S
C3850 C3848 1.381 . S
C3850 C3851 1.394 . S
C3850 H3858 0.930 . S
C3851 C3850 1.394 . S
C3851 C3852 1.383 . S
C3851 H3859 0.929 . S
C3852 C3851 1.383 . S
C3852 C3853 1.377 . S
C3853 H3837 0.930 . S
C3853 C3852 1.377 . S
C3853 C3854 1.379 . S
C3854 H3838 0.931 . S
C3854 C3848 1.383 . S
C3854 C3853 1.379 . S
H3855 C3849 0.959 . S
H3856 C3849 0.961 . S
H3857 C3849 0.960 . S
H3858 C3850 0.930 . S
H3859 C3851 0.929 . S
H3860 C3868 0.929 . S
H3861 C3870 0.930 . S
H3862 C3872 0.930 . S
H3863 C3875 0.929 . S
H3864 C3878 0.930 . S
H3865 C3880 0.960 . S
H3866 C3880 0.960 . S
H3867 C3880 0.960 . S
C3868 H3860 0.929 . S
C3868 C3869 1.377 . S
C3868 C3870 1.384 . S
C3869 C3868 1.377 . S
C3869 C3875 1.390 . S
C3870 H3861 0.930 . S
C3870 C3868 1.384 . S
C3870 C3871 1.372 . S
C3871 C3870 1.372 . S
C3871 C3872 1.400 . S
C3871 C3876 1.490 . S
C3872 H3862 0.930 . S
C3872 C3871 1.400 . S
C3872 C3875 1.386 . S
H3873 C3889 0.930 . S
H3874 C3890 0.931 . S
C3875 H3863 0.929 . S
C3875 C3869 1.390 . S
C3875 C3872 1.386 . S
C3876 C3871 1.490 . S
C3876 C3878 1.395 . S
C3876 C3879 1.403 . S
H3877 C3883 0.930 . S
C3878 H3864 0.930 . S
C3878 C3876 1.395 . S
C3878 C3881 1.403 . S
C3879 C3876 1.403 . S
C3879 C3880 1.524 . S
C3879 C3883 1.400 . S
C3880 H3865 0.960 . S
C3880 H3866 0.960 . S
C3880 H3867 0.960 . S
C3880 C3879 1.524 . S
C3881 C3878 1.403 . S
C3881 C3882 1.392 . S
C3881 C3885 1.495 . S
C3882 C3881 1.392 . S
C3882 C3883 1.385 . S
C3882 C3884 1.478 . S
C3883 H3877 0.930 . S
C3883 C3879 1.400 . S
C3883 C3882 1.385 . S
C3884 C3882 1.478 . S
C3884 C3886 1.381 1_565 S
C3884 C3890 1.383 . S
C3885 C3881 1.495 . S
C3885 H3891 0.959 . S
C3885 H3892 0.961 . S
C3885 H3893 0.960 . S
C3886 C3884 1.381 1_545 S
C3886 C3887 1.394 . S
C3886 H3894 0.930 . S
C3887 C3886 1.394 . S
C3887 C3888 1.383 . S
C3887 H3895 0.929 . S
C3888 C3887 1.383 . S
C3888 C3889 1.377 1_545 S
C3889 H3873 0.930 . S
C3889 C3888 1.377 1_565 S
C3889 C3890 1.379 . S
C3890 H3874 0.931 . S
C3890 C3884 1.383 . S
C3890 C3889 1.379 . S
H3891 C3885 0.959 . S
H3892 C3885 0.961 . S
H3893 C3885 0.960 . S
H3894 C3886 0.930 . S
H3895 C3887 0.929 . S
H3896 C3904 0.929 . S
H3897 C3906 0.930 . S
H3898 C3908 0.930 . S
H3899 C3911 0.929 . S
H3900 C3914 0.930 . S
H3901 C3916 0.960 . S
H3902 C3916 0.960 . S
H3903 C3916 0.960 . S
C3904 H3896 0.929 . S
C3904 C3905 1.377 . S
C3904 C3906 1.384 . S
C3905 C3904 1.377 . S
C3905 C3911 1.390 . S
C3906 H3897 0.930 . S
C3906 C3904 1.384 . S
C3906 C3907 1.372 . S
C3907 C3906 1.372 . S
C3907 C3908 1.400 . S
C3907 C3912 1.490 . S
C3908 H3898 0.930 . S
C3908 C3907 1.400 . S
C3908 C3911 1.386 . S
H3909 C3925 0.930 . S
H3910 C3926 0.931 . S
C3911 H3899 0.929 . S
C3911 C3905 1.390 . S
C3911 C3908 1.386 . S
C3912 C3907 1.490 . S
C3912 C3914 1.395 . S
C3912 C3915 1.403 . S
H3913 C3919 0.930 . S
C3914 H3900 0.930 . S
C3914 C3912 1.395 . S
C3914 C3917 1.403 . S
C3915 C3912 1.403 . S
C3915 C3916 1.524 . S
C3915 C3919 1.400 . S
C3916 H3901 0.960 . S
C3916 H3902 0.960 . S
C3916 H3903 0.960 . S
C3916 C3915 1.524 . S
C3917 C3914 1.403 . S
C3917 C3918 1.392 . S
C3917 C3921 1.495 . S
C3918 C3917 1.392 . S
C3918 C3919 1.385 . S
C3918 C3920 1.478 . S
C3919 H3913 0.930 . S
C3919 C3915 1.400 . S
C3919 C3918 1.385 . S
C3920 C3918 1.478 . S
C3920 C3922 1.381 . S
C3920 C3926 1.383 . S
C3921 C3917 1.495 . S
C3921 H3927 0.959 . S
C3921 H3928 0.961 . S
C3921 H3929 0.960 . S
C3922 C3920 1.381 . S
C3922 C3923 1.394 . S
C3922 H3930 0.930 . S
C3923 C3922 1.394 . S
C3923 C3924 1.383 . S
C3923 H3931 0.929 . S
C3924 C3923 1.383 . S
C3924 C3925 1.377 . S
C3925 H3909 0.930 . S
C3925 C3924 1.377 . S
C3925 C3926 1.379 . S
C3926 H3910 0.931 . S
C3926 C3920 1.383 . S
C3926 C3925 1.379 . S
H3927 C3921 0.959 . S
H3928 C3921 0.961 . S
H3929 C3921 0.960 . S
H3930 C3922 0.930 . S
H3931 C3923 0.929 . S
H3932 C3940 0.929 . S
H3933 C3942 0.930 . S
H3934 C3944 0.930 . S
H3935 C3947 0.929 . S
H3936 C3950 0.930 . S
H3937 C3952 0.964 . S
H3938 C3952 0.960 . S
H3939 C3952 0.960 1_554 S
C3940 H3932 0.929 . S
C3940 C3941 1.377 . S
C3940 C3942 1.384 . S
C3941 C3940 1.377 . S
C3941 C3947 1.390 1_556 S
C3942 H3933 0.930 . S
C3942 C3940 1.384 . S
C3942 C3943 1.372 . S
C3943 C3942 1.372 . S
C3943 C3944 1.400 1_556 S
C3943 C3948 1.490 . S
C3944 H3934 0.930 . S
C3944 C3943 1.400 1_554 S
C3944 C3947 1.386 . S
H3945 C3961 0.930 . S
H3946 C3962 0.931 . S
C3947 H3935 0.929 . S
C3947 C3941 1.390 1_554 S
C3947 C3944 1.386 . S
C3948 C3943 1.490 . S
C3948 C3950 1.395 . S
C3948 C3951 1.403 . S
H3949 C3955 0.931 1_554 S
C3950 H3936 0.930 . S
C3950 C3948 1.395 . S
C3950 C3953 1.403 . S
C3951 C3948 1.403 . S
C3951 C3952 1.524 . S
C3951 C3955 1.399 . S
C3952 H3937 0.964 . S
C3952 H3938 0.960 . S
C3952 H3939 0.960 1_556 S
C3952 C3951 1.524 . S
C3953 C3950 1.403 . S
C3953 C3954 1.395 . S
C3953 C3957 1.495 . S
C3954 C3953 1.395 . S
C3954 C3955 1.387 . S
C3954 C3956 1.464 1_556 S
C3955 H3949 0.931 1_556 S
C3955 C3951 1.399 . S
C3955 C3954 1.387 . S
C3956 C3954 1.464 1_554 S
C3956 C3958 1.345 1_554 S
C3956 C3962 1.429 . S
C3957 C3953 1.495 . S
C3957 H3963 0.959 . S
C3957 H3964 0.961 1_556 S
C3957 H3965 0.960 . S
C3958 C3956 1.345 1_556 S
C3958 C3959 1.394 . S
C3958 H3966 0.930 . S
C3959 C3958 1.394 . S
C3959 C3960 1.383 1_556 S
C3959 H3967 0.929 . S
C3960 C3959 1.383 1_554 S
C3960 C3961 1.377 . S
C3961 H3945 0.930 . S
C3961 C3960 1.377 . S
C3961 C3962 1.379 . S
C3962 H3946 0.931 . S
C3962 C3956 1.429 . S
C3962 C3961 1.379 . S
H3963 C3957 0.959 . S
H3964 C3957 0.961 1_554 S
H3965 C3957 0.960 . S
H3966 C3958 0.930 . S
H3967 C3959 0.929 . S
H3968 C3976 0.929 . S
H3969 C3978 0.930 . S
H3970 C3980 0.930 . S
H3971 C3983 0.929 . S
H3972 C3986 0.930 . S
H3973 C3988 0.960 . S
H3974 C3988 0.960 . S
H3975 C3988 0.960 . S
C3976 H3968 0.929 . S
C3976 C3977 1.377 . S
C3976 C3978 1.384 . S
C3977 C3976 1.377 . S
C3977 C3983 1.390 . S
C3978 H3969 0.930 . S
C3978 C3976 1.384 . S
C3978 C3979 1.372 . S
C3979 C3978 1.372 . S
C3979 C3980 1.400 . S
C3979 C3984 1.490 . S
C3980 H3970 0.930 . S
C3980 C3979 1.400 . S
C3980 C3983 1.386 . S
H3981 C3997 0.930 . S
H3982 C3998 0.931 . S
C3983 H3971 0.929 . S
C3983 C3977 1.390 . S
C3983 C3980 1.386 . S
C3984 C3979 1.490 . S
C3984 C3986 1.395 . S
C3984 C3987 1.403 . S
H3985 C3991 0.930 . S
C3986 H3972 0.930 . S
C3986 C3984 1.395 . S
C3986 C3989 1.403 . S
C3987 C3984 1.403 . S
C3987 C3988 1.524 . S
C3987 C3991 1.400 . S
C3988 H3973 0.960 . S
C3988 H3974 0.960 . S
C3988 H3975 0.960 . S
C3988 C3987 1.524 . S
C3989 C3986 1.403 . S
C3989 C3990 1.392 . S
C3989 C3993 1.495 . S
C3990 C3989 1.392 . S
C3990 C3991 1.385 . S
C3990 C3992 1.478 . S
C3991 H3985 0.930 . S
C3991 C3987 1.400 . S
C3991 C3990 1.385 . S
C3992 C3990 1.478 . S
C3992 C3994 1.381 . S
C3992 C3998 1.383 . S
C3993 C3989 1.495 . S
C3993 H3999 0.959 . S
C3993 H4000 0.961 . S
C3993 H4001 0.960 . S
C3994 C3992 1.381 . S
C3994 C3995 1.394 . S
C3994 H4002 0.930 . S
C3995 C3994 1.394 . S
C3995 C3996 1.383 . S
C3995 H4003 0.929 . S
C3996 C3995 1.383 . S
C3996 C3997 1.377 . S
C3997 H3981 0.930 . S
C3997 C3996 1.377 . S
C3997 C3998 1.379 . S
C3998 H3982 0.931 . S
C3998 C3992 1.383 . S
C3998 C3997 1.379 . S
H3999 C3993 0.959 . S
H4000 C3993 0.961 . S
H4001 C3993 0.960 . S
H4002 C3994 0.930 . S
H4003 C3995 0.929 . S
H4004 C4012 0.929 . S
H4005 C4014 0.930 . S
H4006 C4016 0.904 1_556 S
H4007 C4019 0.929 1_556 S
H4008 C4022 0.930 . S
H4009 C4024 0.960 . S
H4010 C4024 0.960 . S
H4011 C4024 0.960 1_556 S
C4012 H4004 0.929 . S
C4012 C4013 1.377 . S
C4012 C4014 1.384 . S
C4013 C4012 1.377 . S
C4013 C4019 1.390 . S
C4014 H4005 0.930 . S
C4014 C4012 1.384 . S
C4014 C4015 1.372 . S
C4015 C4014 1.372 . S
C4015 C4016 1.424 . S
C4015 C4020 1.490 . S
C4016 H4006 0.904 1_554 S
C4016 C4015 1.424 . S
C4016 C4019 1.388 . S
H4017 C4033 0.930 . S
H4018 C4034 0.931 . S
C4019 H4007 0.929 1_554 S
C4019 C4013 1.390 . S
C4019 C4016 1.388 . S
C4020 C4015 1.490 . S
C4020 C4022 1.395 . S
C4020 C4023 1.403 . S
H4021 C4027 0.930 . S
C4022 H4008 0.930 . S
C4022 C4020 1.395 . S
C4022 C4025 1.403 . S
C4023 C4020 1.403 . S
C4023 C4024 1.524 . S
C4023 C4027 1.400 . S
C4024 H4009 0.960 . S
C4024 H4010 0.960 . S
C4024 H4011 0.960 1_554 S
C4024 C4023 1.524 . S
C4025 C4022 1.403 . S
C4025 C4026 1.392 . S
C4025 C4029 1.495 . S
C4026 C4025 1.392 . S
C4026 C4027 1.385 . S
C4026 C4028 1.478 . S
C4027 H4021 0.930 . S
C4027 C4023 1.400 . S
C4027 C4026 1.385 . S
C4028 C4026 1.478 . S
C4028 C4030 1.381 . S
C4028 C4034 1.383 1_554 S
C4029 C4025 1.495 . S
C4029 H4035 0.959 . S
C4029 H4036 0.961 . S
C4029 H4037 0.960 . S
C4030 C4028 1.381 . S
C4030 C4031 1.394 . S
C4030 H4038 0.930 . S
C4031 C4030 1.394 . S
C4031 C4032 1.383 1_554 S
C4031 H4039 0.929 . S
C4032 C4031 1.383 1_556 S
C4032 C4033 1.377 . S
C4033 H4017 0.930 . S
C4033 C4032 1.377 . S
C4033 C4034 1.379 . S
C4034 H4018 0.931 . S
C4034 C4028 1.383 1_556 S
C4034 C4033 1.379 . S
H4035 C4029 0.959 . S
H4036 C4029 0.961 . S
H4037 C4029 0.960 . S
H4038 C4030 0.930 . S
H4039 C4031 0.929 . S
H4040 C4048 0.979 . S
H4041 C4050 0.930 . S
H4042 C4052 0.930 . S
H4043 C4055 0.929 . S
H4044 C4058 0.930 . S
H4045 C4060 0.960 . S
H4046 C4060 0.960 . S
H4047 C4060 0.960 . S
C4048 H4040 0.979 . S
C4048 C4049 1.381 . S
C4048 C4050 1.334 1_545 S
C4049 C4048 1.381 . S
C4049 C4055 1.390 1_545 S
C4050 H4041 0.930 . S
C4050 C4048 1.334 1_565 S
C4050 C4051 1.372 . S
C4051 C4050 1.372 . S
C4051 C4052 1.400 . S
C4051 C4056 1.490 . S
C4052 H4042 0.930 . S
C4052 C4051 1.400 . S
C4052 C4055 1.386 . S
H4053 C4069 0.930 . S
H4054 C4070 0.931 . S
C4055 H4043 0.929 . S
C4055 C4049 1.390 1_565 S
C4055 C4052 1.386 . S
C4056 C4051 1.490 . S
C4056 C4058 1.395 . S
C4056 C4059 1.403 . S
H4057 C4063 0.930 . S
C4058 H4044 0.930 . S
C4058 C4056 1.395 . S
C4058 C4061 1.403 . S
C4059 C4056 1.403 . S
C4059 C4060 1.524 . S
C4059 C4063 1.400 . S
C4060 H4045 0.960 . S
C4060 H4046 0.960 . S
C4060 H4047 0.960 . S
C4060 C4059 1.524 . S
C4061 C4058 1.403 . S
C4061 C4062 1.392 . S
C4061 C4065 1.495 . S
C4062 C4061 1.392 . S
C4062 C4063 1.385 . S
C4062 C4064 1.478 . S
C4063 H4057 0.930 . S
C4063 C4059 1.400 . S
C4063 C4062 1.385 . S
C4064 C4062 1.478 . S
C4064 C4066 1.381 . S
C4064 C4070 1.383 . S
C4065 C4061 1.495 . S
C4065 H4071 0.959 . S
C4065 H4072 0.961 . S
C4065 H4073 0.960 . S
C4066 C4064 1.381 . S
C4066 C4067 1.394 . S
C4066 H4074 0.930 . S
C4067 C4066 1.394 . S
C4067 C4068 1.383 . S
C4067 H4075 0.929 . S
C4068 C4067 1.383 . S
C4068 C4069 1.377 . S
C4069 H4053 0.930 . S
C4069 C4068 1.377 . S
C4069 C4070 1.379 . S
C4070 H4054 0.931 . S
C4070 C4064 1.383 . S
C4070 C4069 1.379 . S
H4071 C4065 0.959 . S
H4072 C4065 0.961 . S
H4073 C4065 0.960 . S
H4074 C4066 0.930 . S
H4075 C4067 0.929 . S
H4076 C4084 0.929 . S
H4077 C4086 0.930 . S
H4078 C4088 0.930 . S
H4079 C4091 0.929 . S
H4080 C4094 0.930 . S
H4081 C4096 0.960 . S
H4082 C4096 0.960 . S
H4083 C4096 0.960 . S
C4084 H4076 0.929 . S
C4084 C4085 1.377 . S
C4084 C4086 1.384 . S
C4085 C4084 1.377 . S
C4085 C4091 1.390 . S
C4086 H4077 0.930 . S
C4086 C4084 1.384 . S
C4086 C4087 1.372 . S
C4087 C4086 1.372 . S
C4087 C4088 1.400 . S
C4087 C4092 1.490 . S
C4088 H4078 0.930 . S
C4088 C4087 1.400 . S
C4088 C4091 1.386 . S
H4089 C4105 0.930 . S
H4090 C4106 0.931 . S
C4091 H4079 0.929 . S
C4091 C4085 1.390 . S
C4091 C4088 1.386 . S
C4092 C4087 1.490 . S
C4092 C4094 1.395 . S
C4092 C4095 1.403 . S
H4093 C4099 0.930 . S
C4094 H4080 0.930 . S
C4094 C4092 1.395 . S
C4094 C4097 1.403 . S
C4095 C4092 1.403 . S
C4095 C4096 1.524 . S
C4095 C4099 1.400 . S
C4096 H4081 0.960 . S
C4096 H4082 0.960 . S
C4096 H4083 0.960 . S
C4096 C4095 1.524 . S
C4097 C4094 1.403 . S
C4097 C4098 1.392 . S
C4097 C4101 1.495 . S
C4098 C4097 1.392 . S
C4098 C4099 1.385 . S
C4098 C4100 1.478 . S
C4099 H4093 0.930 . S
C4099 C4095 1.400 . S
C4099 C4098 1.385 . S
C4100 C4098 1.478 . S
C4100 C4102 1.381 . S
C4100 C4106 1.383 . S
C4101 C4097 1.495 . S
C4101 H4107 0.959 . S
C4101 H4108 0.961 . S
C4101 H4109 0.960 . S
C4102 C4100 1.381 . S
C4102 C4103 1.394 . S
C4102 H4110 0.930 . S
C4103 C4102 1.394 . S
C4103 C4104 1.383 . S
C4103 H4111 0.929 . S
C4104 C4103 1.383 . S
C4104 C4105 1.377 . S
C4105 H4089 0.930 . S
C4105 C4104 1.377 . S
C4105 C4106 1.379 . S
C4106 H4090 0.931 . S
C4106 C4100 1.383 . S
C4106 C4105 1.379 . S
H4107 C4101 0.959 . S
H4108 C4101 0.961 . S
H4109 C4101 0.960 . S
H4110 C4102 0.930 . S
H4111 C4103 0.929 . S
C665 C111 1.023 . S
C684 C352 1.068 1_556 S
C701 C64 1.179 . S
C720 C365 1.197 . S
C737 C77 1.124 . S
C756 C384 1.085 . S
C792 C415 1.745 . S
C773 C95 1.755 . S
C809 C25 1.551 . S
C828 C435 1.506 . S
C864 C452 0.656 . S
C845 C36 0.687 . S
C900 C465 1.461 . S
C881 C50 1.428 . S
C917 C11 0.741 . S
C936 C492 0.759 . S
C972 C345 0.996 1_655 S
C953 C237 0.985 . S
C989 C245 1.296 . S
C1008 C375 1.253 . S
C1044 C377 1.562 . S
C1025 C279 1.509 . S
C1080 C412 0.657 . S
C1061 C175 0.631 . S
C1097 C231 0.882 . S
C1116 C432 0.907 . S
C1152 C445 1.669 . S
C1133 C251 1.557 . S
C1188 C475 1.124 . S
C1169 C273 1.142 . S
C1224 C485 1.029 . S
C1205 C181 1.033 . S
C1260 C355 1.417 . S
C1241 C165 1.422 . S
C1277 C288 1.814 1_556 S
C1296 C505 1.878 1_556 S
C1332 C535 1.474 . S
C1313 C333 1.495 . S
C1368 C552 1.077 . S
C1349 C316 1.054 . S
C1385 C123 1.812 . S
C1404 C495 1.804 . S
C1421 C137 1.013 . S
C1440 C382 0.966 . S
C1457 C330 1.855 . S
C1476 C565 1.920 . S
C1512 C592 0.774 . S
C1493 C302 0.762 . S
C1548 C342 1.171 . S
C1529 C63 1.219 . S
C1584 C577 1.253 . S
C1565 C106 1.220 . S
C1601 C97 1.151 . S
C1620 C395 1.237 . S
C1637 C81 1.862 . S
C1656 C564 1.795 . S
C1692 C424 1.647 . S
C1673 C13 1.636 . S
C1709 C55 0.720 . S
C1728 C522 0.682 . S
C1764 C457 1.469 . S
C1745 C35 1.406 . S
C1800 C602 0.958 . S
C1781 C21 0.971 . S
C1836 C337 1.151 . S
C1817 C147 1.175 . S
C1872 C584 1.306 . S
C1853 C321 1.271 . S
C1889 C119 1.684 . S
C1908 C385 1.662 . S
C1925 C293 0.794 . S
C1944 C562 0.802 . S
C1961 C153 1.022 1_565 S
C1980 C422 1.067 . S
C2016 C517 1.754 . S
C1997 C315 1.749 . S
C2033 C125 1.102 . S
C2052 C464 1.100 . S
C2069 C287 1.212 . S
C2088 C597 1.211 . S
C2105 C193 1.544 . S
C2124 C344 1.486 . S
C2141 C176 1.871 . S
C2160 C497 1.905 . S
C2177 C263 1.487 . S
C2196 C444 1.451 . S
C2213 C246 1.159 . S
C2232 C542 1.225 . S
C2268 C604 1.963 . S
C2249 C277 1.992 . S
C2285 C221 1.060 . S
C2304 C392 1.019 1_565 S
C2340 C397 1.978 . S
C2321 C260 1.940 . S
C2376 C362 0.910 . S
C2357 C204 0.864 . S
C2393 C83 1.014 . S
C2412 C632 1.051 . S
C2448 C585 1.194 . S
C2429 C92 1.181 . S
C2465 C105 1.120 . S
C2484 C644 1.062 1_456 S
C2501 C67 1.756 . S
C2520 C575 1.716 . S
C2537 C53 1.554 . S
C2556 C515 1.519 . S
C2592 C532 0.664 . S
C2573 C8 0.678 . S
C2628 C545 1.471 1_655 S
C2609 C22 1.425 . S
C2664 C612 0.749 . S
C2645 C39 0.740 . S
C2700 C625 1.000 . S
C2681 C265 0.983 . S
C2717 C189 1.298 . S
C2736 C595 1.293 . S
C2772 C637 1.592 . S
C2753 C209 1.514 . S
C2808 C572 0.674 . S
C2789 C217 0.632 . S
C2844 C512 0.862 . S
C2825 C259 0.892 . S
C2861 C195 1.570 . S
C2880 C525 1.675 . S
C2916 C555 1.152 . S
C2897 C203 1.146 . S
C2933 C223 1.024 . S
C2952 C605 1.083 . S
C2988 C635 1.416 . S
C2969 C319 1.422 . S
C3005 C134 1.815 . S
C3024 C425 1.881 . S
C3060 C455 1.485 . S
C3041 C151 1.501 . S
C3096 C472 1.070 . S
C3077 C162 1.049 . S
C3132 C615 1.771 . S
C3113 C305 1.815 . S
C3149 C291 1.012 . S
C3168 C642 0.992 . S
C3204 C405 1.928 . S
C3185 C148 1.845 . S
C3240 C372 0.714 . S
C3221 C120 0.752 . S
C3257 C91 1.221 . S
C3276 C622 1.192 . S
C3312 C357 1.243 . S
C3293 C78 1.221 . S
C3329 C69 1.145 . S
C3348 C655 1.221 . S
C3365 C109 1.860 . S
C3384 C404 1.805 . S
C3401 C41 1.637 . S
C3420 C504 1.651 . S
C3456 C442 0.706 . S
C3437 C27 0.709 . S
C3473 C7 1.407 . S
C3492 C537 1.396 . S
C3509 C49 0.972 . S
C3528 C482 0.973 . S
C3564 C617 1.175 . S
C3545 C329 1.171 . S
C3581 C167 1.259 . S
C3600 C364 1.341 . S
C3636 C645 1.652 . S
C3617 C301 1.688 . S
C3653 C139 0.770 . S
C3672 C402 0.762 . S
C3689 C335 1.023 . S
C3708 C502 1.073 . S
C3744 C437 1.739 . S
C3725 C161 1.749 . S
C3761 C307 1.102 . S
C3780 C544 1.100 . S
C3816 C477 1.158 . S
C3797 C133 1.213 . S
C3852 C624 1.486 . S
C3833 C249 1.543 . S
C3888 C417 1.914 . S
C3869 C218 1.877 . S
C3905 C235 1.485 . S
C3924 C524 1.475 . S
C3960 C462 1.208 . S
C3941 C190 1.166 1_556 S
C3977 C207 1.992 . S
C3996 C484 1.939 . S
C4013 C179 1.060 . S
C4032 C652 1.017 1_556 S
C4068 C557 1.973 . S
C4049 C232 1.943 . S
C4104 C582 0.882 . S
C4085 C274 0.866 . S
