# Generated by pormake.
# Topology anh, (6,3)-cn, num edge types: 1
# Building blocks:
#     Node 0, Type 0, BuildingBlock: BETDEL_clean_sbu_0, # of connection points: 6
#     Node 1, Type 0, BuildingBlock: BETDEL_clean_sbu_0, # of connection points: 6
#     Node 2, Type 0, BuildingBlock: BETDEL_clean_sbu_0, # of connection points: 6
#     Node 3, Type 1, BuildingBlock: WUSLED_clean_sbu_0, # of connection points: 3
#     Node 4, Type 1, BuildingBlock: WUSLED_clean_sbu_0, # of connection points: 3
#     Node 5, Type 1, BuildingBlock: WUSLED_clean_sbu_0, # of connection points: 3
#     Node 6, Type 1, BuildingBlock: WUSLED_clean_sbu_0, # of connection points: 3
#     Node 7, Type 1, BuildingBlock: WUSLED_clean_sbu_0, # of connection points: 3
#     Node 8, Type 1, BuildingBlock: WUSLED_clean_sbu_0, # of connection points: 3
#     Edge 9, Type (0, 1), BuildingBlock: MIFKUJ_clean_linker_0, # of connection points: 2
#     Edge 10, Type (0, 1), BuildingBlock: MIFKUJ_clean_linker_0, # of connection points: 2
#     Edge 11, Type (0, 1), BuildingBlock: MIFKUJ_clean_linker_0, # of connection points: 2
#     Edge 12, Type (0, 1), BuildingBlock: MIFKUJ_clean_linker_0, # of connection points: 2
#     Edge 13, Type (0, 1), BuildingBlock: MIFKUJ_clean_linker_0, # of connection points: 2
#     Edge 14, Type (0, 1), BuildingBlock: MIFKUJ_clean_linker_0, # of connection points: 2
#     Edge 15, Type (0, 1), BuildingBlock: MIFKUJ_clean_linker_0, # of connection points: 2
#     Edge 16, Type (0, 1), BuildingBlock: MIFKUJ_clean_linker_0, # of connection points: 2
#     Edge 17, Type (0, 1), BuildingBlock: MIFKUJ_clean_linker_0, # of connection points: 2
#     Edge 18, Type (0, 1), BuildingBlock: MIFKUJ_clean_linker_0, # of connection points: 2
#     Edge 19, Type (0, 1), BuildingBlock: MIFKUJ_clean_linker_0, # of connection points: 2
#     Edge 20, Type (0, 1), BuildingBlock: MIFKUJ_clean_linker_0, # of connection points: 2
#     Edge 21, Type (0, 1), BuildingBlock: MIFKUJ_clean_linker_0, # of connection points: 2
#     Edge 22, Type (0, 1), BuildingBlock: MIFKUJ_clean_linker_0, # of connection points: 2
#     Edge 23, Type (0, 1), BuildingBlock: MIFKUJ_clean_linker_0, # of connection points: 2
#     Edge 24, Type (0, 1), BuildingBlock: MIFKUJ_clean_linker_0, # of connection points: 2
#     Edge 25, Type (0, 1), BuildingBlock: MIFKUJ_clean_linker_0, # of connection points: 2
#     Edge 26, Type (0, 1), BuildingBlock: MIFKUJ_clean_linker_0, # of connection points: 2
# Relax obj value: 0.129
# Max RMSD: 0.161
# Mean RMSD: 0.125
data_MOF--net-anh--node1-BETDEL_clean_sbu_0--node2-WUSLED_clean_sbu_0--edge1-MIFKUJ_clean_linker_0
_symmetry_space_group_name_H-M    P1
_symmetry_Int_Tables_number       1
_symmetry_cell_setting            triclinic
loop_
_symmetry_equiv_pos_as_xyz
'x, y, z'
_cell_length_a     47.640849
_cell_length_b     47.513051
_cell_length_c     84.002731
_cell_angle_alpha  89.624752
_cell_angle_beta   90.137704
_cell_angle_gamma 119.9627
loop_
_atom_site_label
_atom_site_type_symbol
_atom_site_fract_x
_atom_site_fract_y
_atom_site_fract_z
_atom_type_partial_charge
Dy0 Dy 0.05168 0.49405 0.17298 0.0
C1 C 0.96688 0.54039 0.17259 0.0
C2 C 0.10224 0.48309 0.16942 0.0
Dy3 Dy 0.01585 0.52683 0.17061 0.0
O4 O 0.08454 0.47636 0.18211 0.0
O5 O 0.0906 0.4933 0.15827 0.0
O6 O 0.03065 0.47424 0.19688 0.0
O7 O 0.04212 0.52189 0.19071 0.0
C8 C 0.03011 0.50004 0.20133 0.0
C9 C 0.03911 0.52215 0.14234 0.0
O10 O 0.0623 0.57326 0.17514 0.0
O11 O 0.09177 0.54719 0.17246 0.0
O12 O 0.97991 0.53792 0.15957 0.0
O13 O 0.98202 0.53743 0.18477 0.0
O14 O 0.03917 0.54796 0.14729 0.0
O15 O 0.02599 0.49944 0.15258 0.0
O16 O 1.00399 0.44786 0.16909 0.0
O17 O 0.97577 0.47446 0.17398 0.0
C18 C 0.09056 0.57434 0.17415 0.0
C19 C 0.97611 0.44706 0.17169 0.0
Dy20 Dy 0.47657 0.01809 0.50586 0.0
C21 C 0.61638 0.11107 0.50966 0.0
C22 C 0.41792 0.96789 0.49748 0.0
Dy23 Dy 0.55521 0.06216 0.50406 0.0
O24 O 0.422 0.99158 0.50675 0.0
O25 O 0.44563 0.9731 0.49212 0.0
O26 O 0.47257 0.01522 0.5328 0.0
O27 O 0.51719 0.0403 0.52161 0.0
C28 C 0.5037 0.0325 0.53504 0.0
C29 C 0.5279 0.0472 0.4747 0.0
O30 O 0.55105 0.01317 0.50809 0.0
O31 O 0.49423 0.98164 0.50688 0.0
O32 O 0.60643 0.09441 0.49664 0.0
O33 O 0.59325 0.09931 0.52018 0.0
O34 O 0.55889 0.0632 0.47714 0.0
O35 O 0.51421 0.04054 0.48813 0.0
O36 O 0.482 0.06816 0.50224 0.0
O37 O 0.53828 0.09881 0.50591 0.0
C38 C 0.52352 0.9846 0.50799 0.0
C39 C 0.50944 0.09662 0.50413 0.0
Dy40 Dy 0.58401 0.60162 0.83841 0.0
C41 C 0.54279 0.471 0.83903 0.0
C42 C 0.5926 0.66168 0.83178 0.0
Dy43 Dy 0.5525 0.53253 0.83807 0.0
O44 O 0.60986 0.65602 0.84193 0.0
O45 O 0.5723 0.63498 0.82478 0.0
O46 O 0.60368 0.60529 0.86288 0.0
O47 O 0.55795 0.56556 0.85737 0.0
C48 C 0.57981 0.5779 0.86789 0.0
C49 C 0.5562 0.55867 0.8091 0.0
O50 O 0.50578 0.53215 0.84282 0.0
O51 O 0.53066 0.58715 0.83789 0.0
O52 O 0.55049 0.48952 0.8266 0.0
O53 O 0.53818 0.48528 0.85107 0.0
O54 O 0.53071 0.53319 0.81458 0.0
O55 O 0.57894 0.56892 0.81919 0.0
O56 O 0.62865 0.59821 0.83265 0.0
O57 O 0.60454 0.54745 0.84388 0.0
C58 C 0.50398 0.5589 0.84065 0.0
C59 C 0.63089 0.57335 0.83845 0.0
C60 C 0.60238 0.09258 0.19833 0.0
C61 C 0.62173 0.11302 0.21068 0.0
C62 C 0.6633 0.14913 0.19145 0.0
C63 C 0.65196 0.14093 0.20726 0.0
C64 C 0.64359 0.12892 0.17918 0.0
C65 C 0.61372 0.10102 0.18259 0.0
U66 U 0.52679 0.0214 0.22172 0.0
O67 O 0.47626 0.99539 0.21251 0.0
O68 O 0.50322 0.96893 0.21573 0.0
C69 C 0.47635 0.96788 0.21107 0.0
C70 C 0.57082 0.06194 0.20108 0.0
C71 C 0.44771 0.93748 0.20504 0.0
C72 C 0.41179 0.90499 0.18329 0.0
C73 C 0.43832 0.93415 0.18892 0.0
C74 C 0.4035 0.88201 0.20975 0.0
C75 C 0.39399 0.87835 0.19362 0.0
C76 C 0.42995 0.91104 0.21534 0.0
C77 C 0.53042 0.03199 0.26983 0.0
C78 C 0.50294 1.00166 0.294 0.0
C79 C 0.54864 0.05609 0.29612 0.0
C80 C 0.55162 0.05799 0.27951 0.0
C81 C 0.52433 0.02797 0.30369 0.0
C82 C 0.50588 1.00367 0.27721 0.0
C83 C 0.53628 0.03572 0.2523 0.0
O84 O 0.5716 0.03726 0.20776 0.0
O85 O 0.54563 0.06419 0.2056 0.0
O86 O 0.51931 0.04416 0.24309 0.0
O87 O 0.54662 0.01818 0.24506 0.0
H88 H 0.61364 0.10732 0.22292 0.0
H89 H 0.66647 0.15621 0.21697 0.0
H90 H 0.65156 0.13446 0.16692 0.0
H91 H 0.59944 0.08574 0.17283 0.0
H92 H 0.40554 0.90313 0.17078 0.0
H93 H 0.45176 0.95398 0.18064 0.0
H94 H 0.39021 0.86242 0.21817 0.0
H95 H 0.43645 0.91288 0.22781 0.0
H96 H 0.48375 0.9797 0.2994 0.0
H97 H 0.56583 0.07663 0.30309 0.0
H98 H 0.57096 0.07996 0.27417 0.0
H99 H 0.48918 0.9832 0.27005 0.0
C100 C 0.51029 0.61253 0.5321 0.0
C101 C 0.512 0.63277 0.54466 0.0
C102 C 0.51017 0.67202 0.52584 0.0
C103 C 0.51194 0.66206 0.54158 0.0
C104 C 0.50824 0.65134 0.51339 0.0
C105 C 0.50835 0.62225 0.51648 0.0
U106 U 0.5146 0.54191 0.55582 0.0
O107 O 0.48863 0.48935 0.54992 0.0
O108 O 0.54214 0.51755 0.54859 0.0
C109 C 0.51567 0.48914 0.54712 0.0
C110 C 0.51094 0.58154 0.53451 0.0
C111 C 0.51577 0.46036 0.53996 0.0
C112 C 0.51055 0.42523 0.51748 0.0
C113 C 0.5105 0.45292 0.52361 0.0
C114 C 0.52116 0.41212 0.54383 0.0
C115 C 0.51577 0.40443 0.52758 0.0
C116 C 0.52121 0.43966 0.5499 0.0
C117 C 0.5217 0.55441 0.60362 0.0
C118 C 0.52655 0.52747 0.62758 0.0
C119 C 0.52795 0.57883 0.62981 0.0
C120 C 0.52426 0.57951 0.61331 0.0
C121 C 0.52906 0.55283 0.63732 0.0
C122 C 0.52284 0.52821 0.61088 0.0
C123 C 0.51851 0.55774 0.58616 0.0
O124 O 0.53828 0.58379 0.53925 0.0
O125 O 0.48548 0.5567 0.54102 0.0
O126 O 0.49089 0.53861 0.57898 0.0
O127 O 0.54397 0.56715 0.57696 0.0
H128 H 0.51361 0.62608 0.55684 0.0
H129 H 0.51387 0.67717 0.55158 0.0
H130 H 0.50623 0.65732 0.50114 0.0
H131 H 0.50691 0.60718 0.50654 0.0
H132 H 0.50628 0.41994 0.5049 0.0
H133 H 0.50629 0.4684 0.51562 0.0
H134 H 0.52518 0.39661 0.5519 0.0
H135 H 0.52534 0.44469 0.56251 0.0
H136 H 0.52707 0.50689 0.63287 0.0
H137 H 0.53049 0.5992 0.63665 0.0
H138 H 0.52365 0.60008 0.60804 0.0
H139 H 0.52093 0.50848 0.60369 0.0
C140 C 0.98439 0.55144 0.86523 0.0
C141 C 0.96318 0.54789 0.8777 0.0
C142 C 0.92641 0.55407 0.85902 0.0
C143 C 0.93459 0.54917 0.87464 0.0
C144 C 0.94778 0.55723 0.84665 0.0
C145 C 0.97617 0.55597 0.84972 0.0
U146 U 0.05622 0.54798 0.88819 0.0
O147 O 0.08318 0.52407 0.87946 0.0
O148 O 0.10842 0.57761 0.88187 0.0
C149 C 0.11019 0.55195 0.87764 0.0
C150 C 0.01541 0.55111 0.86762 0.0
C151 C 0.14099 0.55413 0.87197 0.0
C152 C 0.1786 0.56063 0.85044 0.0
C153 C 0.14951 0.55862 0.85572 0.0
C154 C 0.19104 0.55335 0.87753 0.0
C155 C 0.19965 0.55774 0.8613 0.0
C156 C 0.16225 0.55177 0.8828 0.0
C157 C 0.04464 0.53949 0.93621 0.0
C158 C 0.07342 0.5389 0.96028 0.0
C159 C 0.0209 0.53472 0.96251 0.0
C160 C 0.01937 0.53649 0.94592 0.0
C161 C 0.04784 0.53582 0.97003 0.0
C162 C 0.07181 0.54064 0.94351 0.0
C163 C 0.04124 0.54213 0.91872 0.0
O164 O 0.03975 0.57667 0.87422 0.0
O165 O 0.01384 0.52379 0.87208 0.0
O166 O 0.03346 0.51705 0.90949 0.0
O167 O 0.05855 0.57032 0.91153 0.0
H168 H 0.9688 0.5444 0.8898 0.0
H169 H 0.91924 0.54692 0.8846 0.0
H170 H 0.94251 0.56035 0.83444 0.0
H171 H 0.99192 0.55864 0.83984 0.0
H172 H 0.18433 0.56378 0.83786 0.0
H173 H 0.13358 0.56045 0.84707 0.0
H174 H 0.20679 0.55128 0.8862 0.0
H175 H 0.15651 0.54854 0.89538 0.0
H176 H 0.09447 0.53957 0.96561 0.0
H177 H 1.00099 0.53297 0.96948 0.0
H178 H 0.99825 0.53578 0.94063 0.0
H179 H 0.09168 0.54292 0.93631 0.0
C180 C 0.94557 0.48627 0.4782 0.0
C181 C 0.92727 0.46542 0.46582 0.0
C182 C 0.88955 0.42648 0.48513 0.0
C183 C 0.89944 0.43576 0.46926 0.0
C184 C 0.90793 0.44763 0.49745 0.0
C185 C 0.9357 0.47726 0.494 0.0
U186 U 0.00847 0.54571 0.44896 0.0
O187 O 0.0386 0.59901 0.4495 0.0
O188 O 0.06145 0.56861 0.4498 0.0
C189 C 0.06566 0.59806 0.4506 0.0
C190 C 0.97585 0.51659 0.47485 0.0
C191 C 0.0896 0.61953 0.4623 0.0
C192 C 0.1058 0.64266 0.48878 0.0
C193 C 0.08186 0.62069 0.47835 0.0
C194 C 0.14508 0.66103 0.46729 0.0
C195 C 0.1375 0.66296 0.48319 0.0
C196 C 0.12132 0.63959 0.45694 0.0
C197 C 0.99335 0.52252 0.40413 0.0
C198 C 0.02149 0.55342 0.38036 0.0
C199 C 0.98582 0.49524 0.37887 0.0
C200 C 0.97907 0.49421 0.39505 0.0
C201 C 0.00651 0.52487 0.37109 0.0
C202 C 0.01508 0.55222 0.39678 0.0
C203 C 0.98492 0.51932 0.42118 0.0
O204 O 0.99925 0.5126 0.46913 0.0
O205 O 0.9729 0.53941 0.4674 0.0
O206 O 0.97971 0.54153 0.42756 0.0
O207 O 1.00121 0.51025 0.43047 0.0
H208 H 0.93476 0.47191 0.45354 0.0
H209 H 0.88604 0.41983 0.45951 0.0
H210 H 0.90073 0.44138 0.50977 0.0
H211 H 0.94964 0.49304 0.50369 0.0
H212 H 0.09957 0.64416 0.50102 0.0
H213 H 0.05743 0.60511 0.4827 0.0
H214 H 0.1693 0.67696 0.46275 0.0
H215 H 0.12765 0.63902 0.44461 0.0
H216 H 0.03757 0.57676 0.37494 0.0
H217 H 0.97471 0.47244 0.37254 0.0
H218 H 0.96256 0.47101 0.40053 0.0
H219 H 0.02675 0.57439 0.40366 0.0
C220 C 0.55373 0.99821 0.81268 0.0
C221 C 0.54826 0.97504 0.80097 0.0
C222 C 0.5595 0.94359 0.82028 0.0
C223 C 0.55096 0.94775 0.80479 0.0
C224 C 0.56523 0.96688 0.83191 0.0
C225 C 0.56224 0.99397 0.82813 0.0
U226 U 0.54641 0.0563 0.78324 0.0
O227 O 0.52129 0.08436 0.78592 0.0
O228 O 0.57414 0.10952 0.78244 0.0
C229 C 0.54846 0.11234 0.78493 0.0
C230 C 0.55158 0.02738 0.80895 0.0
C231 C 0.55285 0.1381 0.7959 0.0
C232 C 0.56141 0.16266 0.82212 0.0
C233 C 0.5553 0.13603 0.81252 0.0
C234 C 0.56259 0.19287 0.7985 0.0
C235 C 0.56564 0.19146 0.81505 0.0
C236 C 0.55624 0.1665 0.78906 0.0
C237 C 0.54242 0.03756 0.73795 0.0
C238 C 0.5343 0.06528 0.71533 0.0
C239 C 0.55077 0.0253 0.71095 0.0
C240 C 0.55079 0.02041 0.72733 0.0
C241 C 0.54192 0.04726 0.70461 0.0
C242 C 0.53455 0.06045 0.7319 0.0
C243 C 0.54275 0.03076 0.75511 0.0
O244 O 0.57661 0.05043 0.80129 0.0
O245 O 0.52365 0.02236 0.80335 0.0
O246 O 0.51707 0.02461 0.76357 0.0
O247 O 0.57019 0.04905 0.76255 0.0
H248 H 0.54194 0.97809 0.78894 0.0
H249 H 0.54653 0.92997 0.79568 0.0
H250 H 0.5717 0.96391 0.84393 0.0
H251 H 0.56666 0.01167 0.83729 0.0
H252 H 0.56337 0.16103 0.83491 0.0
H253 H 0.55281 0.11417 0.81798 0.0
H254 H 0.56498 0.21452 0.79282 0.0
H255 H 0.55434 0.16845 0.77629 0.0
H256 H 0.52742 0.08245 0.71092 0.0
H257 H 0.55776 0.01168 0.70324 0.0
H258 H 0.55735 1.00298 0.73174 0.0
H259 H 0.52835 0.07428 0.73993 0.0
C260 C 0.59158 0.49362 0.14389 0.0
C261 C 0.61262 0.49636 0.13153 0.0
C262 C 0.6515 0.49814 0.15097 0.0
C263 C 0.64236 0.49845 0.13505 0.0
C264 C 0.63018 0.49509 0.16324 0.0
C265 C 0.60045 0.49276 0.15971 0.0
U266 U 0.53055 0.49952 0.11604 0.0
O267 O 0.50545 0.52712 0.11971 0.0
O268 O 0.47717 0.47386 0.11718 0.0
C269 C 0.47665 0.50092 0.11955 0.0
C270 C 0.56113 0.49343 0.14071 0.0
C271 C 0.45209 0.49991 0.13047 0.0
C272 C 0.43459 0.51161 0.15563 0.0
C273 C 0.45771 0.50812 0.14672 0.0
C274 C 0.40024 0.49731 0.13228 0.0
C275 C 0.40623 0.5074 0.14819 0.0
C276 C 0.42288 0.49365 0.12356 0.0
C277 C 0.55134 0.51172 0.07044 0.0
C278 C 0.52097 0.51532 0.0478 0.0
C279 C 0.57544 0.52492 0.04406 0.0
C280 C 0.57732 0.51923 0.06022 0.0
C281 C 0.54743 0.52325 0.03759 0.0
C282 C 0.52297 0.50975 0.06418 0.0
C283 C 0.5555 0.50629 0.08741 0.0
O284 O 0.56451 0.52133 0.13594 0.0
O285 O 0.53884 0.46846 0.13276 0.0
O286 O 0.53491 0.47793 0.09368 0.0
O287 O 0.5634 0.53073 0.09708 0.0
H288 H 0.60623 0.49731 0.11923 0.0
H289 H 0.6585 0.501 0.12539 0.0
H290 H 0.63646 0.49439 0.17558 0.0
H291 H 0.58451 0.49069 0.16938 0.0
H292 H 0.43948 0.519 0.16796 0.0
H293 H 0.48018 0.51289 0.15229 0.0
H294 H 0.3783 0.49326 0.12637 0.0
H295 H 0.4181 0.48726 0.1111 0.0
H296 H 0.49905 0.51389 0.04318 0.0
H297 H 0.59598 0.53027 0.03654 0.0
H298 H 0.5993 0.52067 0.06477 0.0
H299 H 0.50258 0.504 0.07189 0.0
H300 H 0.14627 0.50825 0.14542 0.0
H301 H 0.2026 0.52054 0.14594 0.0
H302 H 0.18966 0.48323 0.19395 0.0
H303 H 0.13336 0.47153 0.19362 0.0
H304 H 0.25132 0.53836 0.18903 0.0
H305 H 0.17987 0.43534 0.16421 0.0
H306 H 0.13772 0.40072 0.14495 0.0
H307 H 0.20058 0.45508 0.10622 0.0
H308 H 0.24282 0.49062 0.12526 0.0
H309 H 0.37285 0.48304 0.17637 0.0
H310 H 0.32409 0.48504 0.18449 0.0
H311 H 0.3379 0.54911 0.145 0.0
H312 H 0.38675 0.54826 0.13729 0.0
H313 H 0.27593 0.47926 0.14787 0.0
H314 H 0.34552 0.58384 0.17177 0.0
H315 H 0.38922 0.61888 0.19022 0.0
H316 H 0.33135 0.5625 0.2299 0.0
H317 H 0.2876 0.52643 0.21158 0.0
C318 C 0.15537 0.50244 0.15603 0.0
C319 C 0.13525 0.48798 0.1693 0.0
C320 C 0.18763 0.50985 0.1564 0.0
C321 C 0.20014 0.50245 0.16993 0.0
C322 C 0.18042 0.48907 0.1834 0.0
C323 C 0.14816 0.48185 0.18308 0.0
C324 C 0.23243 0.50511 0.1693 0.0
C325 C 0.25663 0.52519 0.18016 0.0
C326 C 0.23935 0.48804 0.15765 0.0
C327 C 0.21447 0.46578 0.14618 0.0
C328 C 0.18468 0.44 0.15159 0.0
C329 C 0.16073 0.42025 0.14071 0.0
C330 C 0.16645 0.42572 0.12437 0.0
C331 C 0.19617 0.4509 0.11888 0.0
C332 C 0.22012 0.47087 0.12971 0.0
C333 C 0.3661 0.49853 0.16987 0.0
C334 C 0.38311 0.51507 0.15606 0.0
C335 C 0.33826 0.49949 0.17443 0.0
C336 C 0.32742 0.51694 0.16518 0.0
C337 C 0.34593 0.53548 0.15222 0.0
C338 C 0.37377 0.53496 0.14786 0.0
C339 C 0.29484 0.51271 0.16743 0.0
C340 C 0.27051 0.4922 0.15684 0.0
C341 C 0.28803 0.52952 0.1792 0.0
C342 C 0.31352 0.55207 0.19028 0.0
C343 C 0.34224 0.57865 0.18441 0.0
C344 C 0.36701 0.59873 0.19484 0.0
C345 C 0.36314 0.59281 0.21122 0.0
C346 C 0.33436 0.56696 0.2172 0.0
C347 C 0.30958 0.54666 0.20679 0.0
H348 H 0.38238 0.60834 0.21929 0.0
H349 H 0.14788 0.4104 0.11597 0.0
H350 H 0.66317 0.14441 0.53205 0.0
H351 H 0.70697 0.20141 0.53008 0.0
H352 H 0.66746 0.21138 0.48544 0.0
H353 H 0.62519 0.15451 0.48702 0.0
H354 H 0.72771 0.22951 0.48182 0.0
H355 H 0.66813 0.25588 0.51896 0.0
H356 H 0.63732 0.24938 0.54361 0.0
H357 H 0.71947 0.26538 0.57163 0.0
H358 H 0.75081 0.27211 0.54712 0.0
H359 H 0.83106 0.39828 0.46986 0.0
H360 H 0.78285 0.34612 0.47594 0.0
H361 H 0.83304 0.33129 0.51499 0.0
H362 H 0.88166 0.38322 0.50883 0.0
H363 H 0.76753 0.31676 0.52224 0.0
H364 H 0.82604 0.29047 0.48324 0.0
H365 H 0.85413 0.29643 0.45774 0.0
H366 H 0.76905 0.27971 0.43215 0.0
H367 H 0.74054 0.27385 0.45753 0.0
C368 C 0.66412 0.15899 0.52188 0.0
C369 C 0.64188 0.14516 0.50942 0.0
C370 C 0.68872 0.19153 0.52084 0.0
C371 C 0.69052 0.21058 0.50755 0.0
C372 C 0.66682 0.19703 0.49566 0.0
C373 C 0.64291 0.16454 0.49651 0.0
C374 C 0.71901 0.24317 0.50494 0.0
C375 C 0.73601 0.24872 0.49058 0.0
C376 C 0.73028 0.26799 0.51647 0.0
C377 C 0.71172 0.2643 0.53123 0.0
C378 C 0.67957 0.2579 0.53039 0.0
C379 C 0.66204 0.25425 0.54433 0.0
C380 C 0.67641 0.25689 0.55918 0.0
C381 C 0.70839 0.26337 0.56012 0.0
C382 C 0.72609 0.26725 0.54621 0.0
C383 C 0.83195 0.38384 0.47967 0.0
C384 C 0.8602 0.39489 0.48885 0.0
C385 C 0.80434 0.35419 0.48319 0.0
C386 C 0.80448 0.33502 0.49592 0.0
C387 C 0.83244 0.34599 0.50522 0.0
C388 C 0.86013 0.37563 0.50168 0.0
C389 C 0.77576 0.30291 0.49907 0.0
C390 C 0.75892 0.29748 0.51351 0.0
C391 C 0.76414 0.27822 0.4875 0.0
C392 C 0.78134 0.2821 0.47225 0.0
C393 C 0.81345 0.28837 0.47217 0.0
C394 C 0.8294 0.29162 0.45774 0.0
C395 C 0.81342 0.28855 0.44333 0.0
C396 C 0.78141 0.28212 0.44332 0.0
C397 C 0.76534 0.27878 0.45771 0.0
H398 H 0.82581 0.29108 0.43218 0.0
H399 H 0.66278 0.25395 0.56995 0.0
H400 H 0.53614 0.66148 0.8309 0.0
H401 H 0.52731 0.70759 0.83282 0.0
H402 H 0.63083 0.77255 0.83466 0.0
H403 H 0.63937 0.72565 0.83421 0.0
H404 H 0.60439 0.79359 0.8535 0.0
H405 H 0.57747 0.75188 0.79967 0.0
H406 H 0.54732 0.71194 0.77869 0.0
H407 H 0.45877 0.70618 0.79419 0.0
H408 H 0.4882 0.74538 0.81554 0.0
H409 H 0.61404 0.93938 0.82386 0.0
H410 H 0.6173 0.89034 0.82963 0.0
H411 H 0.51292 0.83405 0.83229 0.0
H412 H 0.50979 0.88294 0.82606 0.0
H413 H 0.53504 0.80643 0.81342 0.0
H414 H 0.56213 0.85097 0.86567 0.0
H415 H 0.59173 0.89118 0.88663 0.0
H416 H 0.67962 0.89267 0.87375 0.0
H417 H 0.65074 0.85294 0.85253 0.0
C418 C 0.55698 0.68564 0.83165 0.0
C419 C 0.58847 0.69027 0.83205 0.0
C420 C 0.55193 0.71202 0.83269 0.0
C421 C 0.5784 0.74376 0.83335 0.0
C422 C 0.60997 0.74833 0.83402 0.0
C423 C 0.61494 0.72169 0.83362 0.0
C424 C 0.57333 0.7722 0.8332 0.0
C425 C 0.58959 0.79662 0.84458 0.0
C426 C 0.55278 0.77551 0.82202 0.0
C427 C 0.53504 0.75131 0.80936 0.0
C428 C 0.55152 0.74182 0.79874 0.0
C429 C 0.53454 0.7193 0.78677 0.0
C430 C 0.50115 0.70646 0.78513 0.0
C431 C 0.48462 0.71604 0.7955 0.0
C432 C 0.50143 0.73833 0.80756 0.0
C433 C 0.59192 0.91649 0.82582 0.0
C434 C 0.56166 0.91457 0.82445 0.0
C435 C 0.59377 0.88861 0.82926 0.0
C436 C 0.56536 0.85856 0.83158 0.0
C437 C 0.53514 0.85696 0.83058 0.0
C438 C 0.53332 0.88475 0.82698 0.0
C439 C 0.56694 0.82828 0.83337 0.0
C440 C 0.54979 0.80338 0.82237 0.0
C441 C 0.58673 0.82463 0.84484 0.0
C442 C 0.60429 0.84921 0.85736 0.0
C443 C 0.58785 0.86017 0.86716 0.0
C444 C 0.6045 0.88282 0.87913 0.0
C445 C 0.63755 0.89455 0.88149 0.0
C446 C 0.65404 0.88364 0.87189 0.0
C447 C 0.63754 0.86105 0.85989 0.0
H448 H 0.65037 0.91203 0.89078 0.0
H449 H 0.48809 0.68917 0.77581 0.0
H450 H 0.93929 0.56285 0.19402 0.0
H451 H 0.8831 0.55235 0.19339 0.0
H452 H 0.86348 0.49016 0.15268 0.0
H453 H 0.91933 0.50202 0.15275 0.0
H454 H 0.84684 0.53311 0.14667 0.0
H455 H 0.8376 0.46534 0.19078 0.0
H456 H 0.85322 0.4553 0.21717 0.0
H457 H 0.81553 0.51096 0.23898 0.0
H458 H 0.80312 0.5247 0.21254 0.0
H459 H 0.67854 0.46475 0.13797 0.0
H460 H 0.73079 0.46942 0.14462 0.0
H461 H 0.74804 0.54263 0.17945 0.0
H462 H 0.6957 0.53801 0.17289 0.0
H463 H 0.76494 0.49468 0.18989 0.0
H464 H 0.78574 0.57006 0.1462 0.0
H465 H 0.77508 0.58535 0.11968 0.0
H466 H 0.78846 0.5111 0.0982 0.0
H467 H 0.79905 0.4953 0.12462 0.0
C468 C 0.92282 0.54717 0.18494 0.0
C469 C 0.93361 0.5342 0.17309 0.0
C470 C 0.89079 0.54089 0.18468 0.0
C471 C 0.86924 0.52068 0.17289 0.0
C472 C 0.87982 0.50626 0.16169 0.0
C473 C 0.91177 0.51325 0.16168 0.0
C474 C 0.83654 0.51654 0.17106 0.0
C475 C 0.8289 0.52428 0.15613 0.0
C476 C 0.81338 0.50577 0.18353 0.0
C477 C 0.81984 0.49654 0.19953 0.0
C478 C 0.83311 0.476 0.20113 0.0
C479 C 0.84138 0.46958 0.21614 0.0
C480 C 0.8348 0.48191 0.22978 0.0
C481 C 0.82053 0.50131 0.2284 0.0
C482 C 0.8133 0.50883 0.21337 0.0
C483 C 0.69351 0.48187 0.14701 0.0
C484 C 0.68316 0.50106 0.15489 0.0
C485 C 0.72316 0.48435 0.15088 0.0
C486 C 0.74308 0.50629 0.16255 0.0
C487 C 0.73273 0.52527 0.17056 0.0
C488 C 0.70298 0.52269 0.16675 0.0
C489 C 0.77566 0.51093 0.16553 0.0
C490 C 0.78316 0.50339 0.18058 0.0
C491 C 0.79892 0.52174 0.15324 0.0
C492 C 0.79286 0.53134 0.13736 0.0
C493 C 0.78621 0.5569 0.13581 0.0
C494 C 0.78025 0.56569 0.12081 0.0
C495 C 0.781 0.54914 0.10727 0.0
C496 C 0.78787 0.52387 0.1087 0.0
C497 C 0.79392 0.51504 0.12367 0.0
H498 H 0.77631 0.55594 0.09566 0.0
H499 H 0.84092 0.47657 0.2414 0.0
H500 H 0.35411 0.95071 0.49483 0.0
H501 H 0.30724 0.89553 0.49661 0.0
H502 H 0.37142 0.85723 0.50472 0.0
H503 H 0.41805 0.91189 0.50189 0.0
H504 H 0.3266 0.81986 0.48507 0.0
H505 H 0.32325 0.86151 0.53708 0.0
H506 H 0.32421 0.90224 0.55552 0.0
H507 H 0.24182 0.89711 0.53179 0.0
H508 H 0.24031 0.85621 0.5133 0.0
H509 H 0.18991 0.66459 0.49707 0.0
H510 H 0.23986 0.71413 0.5047 0.0
H511 H 0.19252 0.77023 0.49643 0.0
H512 H 0.14254 0.72069 0.4895 0.0
H513 H 0.23296 0.79564 0.51976 0.0
H514 H 0.23804 0.75689 0.46684 0.0
H515 H 0.23846 0.71882 0.44713 0.0
H516 H 0.31879 0.72025 0.47119 0.0
H517 H 0.31865 0.75813 0.49112 0.0
C518 C 0.35799 0.93037 0.49686 0.0
C519 C 0.3894 0.93524 0.498 0.0
C520 C 0.33133 0.89896 0.49808 0.0
C521 C 0.33578 0.87225 0.50112 0.0
C522 C 0.36733 0.87734 0.50233 0.0
C523 C 0.39391 0.90853 0.50066 0.0
C524 C 0.30757 0.83892 0.50256 0.0
C525 C 0.30638 0.81436 0.49289 0.0
C526 C 0.28109 0.83173 0.51264 0.0
C527 C 0.2817 0.85593 0.52384 0.0
C528 C 0.30538 0.86913 0.53582 0.0
C529 C 0.30598 0.89218 0.54628 0.0
C530 C 0.2831 0.90227 0.54482 0.0
C531 C 0.25947 0.88921 0.53294 0.0
C532 C 0.25862 0.86599 0.52252 0.0
C533 C 0.18996 0.68739 0.49762 0.0
C534 C 0.16256 0.68907 0.49289 0.0
C535 C 0.21855 0.71568 0.50171 0.0
C536 C 0.22018 0.74599 0.5007 0.0
C537 C 0.1919 0.74716 0.49726 0.0
C538 C 0.16326 0.71886 0.49343 0.0
C539 C 0.25149 0.77679 0.50192 0.0
C540 C 0.2534 0.80088 0.51215 0.0
C541 C 0.27858 0.78349 0.49229 0.0
C542 C 0.27801 0.75995 0.48059 0.0
C543 C 0.25555 0.7488 0.46802 0.0
C544 C 0.25581 0.72734 0.45678 0.0
C545 C 0.27856 0.71703 0.45794 0.0
C546 C 0.30112 0.72818 0.47033 0.0
C547 C 0.30097 0.74964 0.4816 0.0
H548 H 0.27878 0.70049 0.4492 0.0
H549 H 0.28366 0.92019 0.5529 0.0
H550 H 0.51681 0.41925 0.85994 0.0
H551 H 0.52688 0.3732 0.86007 0.0
H552 H 0.59446 0.41739 0.82118 0.0
H553 H 0.58324 0.46191 0.8205 0.0
H554 H 0.55477 0.35884 0.81418 0.0
H555 H 0.6208 0.41019 0.85982 0.0
H556 H 0.6347 0.43541 0.88639 0.0
H557 H 0.55728 0.34843 0.90719 0.0
H558 H 0.54292 0.32275 0.88073 0.0
H559 H 0.61567 0.25263 0.81114 0.0
H560 H 0.61627 0.30227 0.81919 0.0
H561 H 0.53035 0.24549 0.84743 0.0
H562 H 0.52929 0.19544 0.83912 0.0
H563 H 0.57979 0.30982 0.86048 0.0
H564 H 0.51615 0.25971 0.81298 0.0
H565 H 0.505 0.23737 0.78581 0.0
H566 H 0.58314 0.32701 0.76762 0.0
H567 H 0.59503 0.34973 0.79474 0.0
C568 C 0.53369 0.41886 0.85146 0.0
C569 C 0.54855 0.44346 0.83994 0.0
C570 C 0.53978 0.39289 0.85165 0.0
C571 C 0.56147 0.39187 0.84063 0.0
C572 C 0.57737 0.4174 0.82967 0.0
C573 C 0.57074 0.44272 0.82923 0.0
C574 C 0.56541 0.36296 0.8393 0.0
C575 C 0.5608 0.34854 0.82429 0.0
C576 C 0.57262 0.34905 0.8525 0.0
C577 C 0.58061 0.36469 0.86832 0.0
C578 C 0.60657 0.39658 0.87005 0.0
C579 C 0.61461 0.41091 0.88509 0.0
C580 C 0.59683 0.39357 0.89847 0.0
C581 C 0.57102 0.36185 0.89683 0.0
C582 C 0.56297 0.34737 0.88183 0.0
C583 C 0.59756 0.25086 0.81951 0.0
C584 C 0.57216 0.22034 0.82435 0.0
C585 C 0.59783 0.27915 0.824 0.0
C586 C 0.57294 0.27729 0.83357 0.0
C587 C 0.54961 0.24719 0.83993 0.0
C588 C 0.54916 0.21872 0.8353 0.0
C589 C 0.56939 0.3062 0.8354 0.0
C590 C 0.57398 0.32045 0.85043 0.0
C591 C 0.56281 0.32046 0.82213 0.0
C592 C 0.5568 0.30621 0.80594 0.0
C593 C 0.53131 0.27445 0.80324 0.0
C594 C 0.52476 0.26179 0.78783 0.0
C595 C 0.54343 0.28071 0.77501 0.0
C596 C 0.56876 0.31233 0.77757 0.0
C597 C 0.57542 0.3251 0.79296 0.0
H598 H 0.5382 0.27091 0.76308 0.0
H599 H 0.60311 0.40468 0.9101 0.0
H600 H 0.49311 0.93546 0.52965 0.0
H601 H 0.49173 0.88311 0.53074 0.0
H602 H 0.55268 0.91005 0.48912 0.0
H603 H 0.55496 0.96308 0.48836 0.0
H604 H 0.49901 0.84422 0.48814 0.0
H605 H 0.58558 0.91223 0.52274 0.0
H606 H 0.61282 0.95044 0.54473 0.0
H607 H 0.54587 0.88043 0.57815 0.0
H608 H 0.51775 0.84205 0.5563 0.0
H609 H 0.53604 0.71377 0.49978 0.0
H610 H 0.537 0.76493 0.49449 0.0
H611 H 0.48662 0.75435 0.53859 0.0
H612 H 0.48473 0.70282 0.5438 0.0
H613 H 0.5379 0.81353 0.5364 0.0
H614 H 0.45119 0.74493 0.50135 0.0
H615 H 0.42318 0.70784 0.47906 0.0
H616 H 0.4901 0.77869 0.44597 0.0
H617 H 0.51898 0.816 0.46808 0.0
C618 C 0.50654 0.93038 0.52084 0.0
C619 C 0.52467 0.95373 0.50911 0.0
C620 C 0.50563 0.90032 0.52142 0.0
C621 C 0.52214 0.89232 0.51004 0.0
C622 C 0.53977 0.91543 0.49808 0.0
C623 C 0.54136 0.94592 0.49775 0.0
C624 C 0.52155 0.86028 0.51103 0.0
C625 C 0.50797 0.83765 0.49859 0.0
C626 C 0.5327 0.85123 0.52471 0.0
C627 C 0.54931 0.87441 0.53785 0.0
C628 C 0.5764 0.90513 0.53475 0.0
C629 C 0.59205 0.9268 0.5472 0.0
C630 C 0.58103 0.91791 0.56282 0.0
C631 C 0.55433 0.88732 0.56603 0.0
C632 C 0.53852 0.86561 0.55362 0.0
C633 C 0.52458 0.72184 0.5083 0.0
C634 C 0.51041 0.70361 0.52235 0.0
C635 C 0.52521 0.75139 0.50521 0.0
C636 C 0.5118 0.76389 0.51607 0.0
C637 C 0.49734 0.74562 0.52998 0.0
C638 C 0.49652 0.71603 0.53303 0.0
C639 C 0.51466 0.79683 0.51369 0.0
C640 C 0.52891 0.81987 0.52589 0.0
C641 C 0.50419 0.8061 0.49972 0.0
C642 C 0.48765 0.78309 0.48646 0.0
C643 C 0.46033 0.75242 0.48936 0.0
C644 C 0.44419 0.73139 0.47674 0.0
C645 C 0.45494 0.74084 0.46112 0.0
C646 C 0.48188 0.77134 0.45808 0.0
C647 C 0.49816 0.79242 0.47066 0.0
H648 H 0.44233 0.72458 0.45136 0.0
H649 H 0.59322 0.93469 0.57245 0.0
H650 H 0.68727 0.60868 0.82059 0.0
H651 H 0.73765 0.60603 0.82214 0.0
H652 H 0.69675 0.53607 0.86033 0.0
H653 H 0.64663 0.5381 0.85863 0.0
H654 H 0.7587 0.58325 0.86736 0.0
H655 H 0.70389 0.51084 0.82424 0.0
H656 H 0.67627 0.49379 0.7983 0.0
H657 H 0.76123 0.56816 0.77476 0.0
H658 H 0.7893 0.58584 0.80062 0.0
H659 H 0.86631 0.52158 0.87384 0.0
H660 H 0.8181 0.52592 0.86863 0.0
H661 H 0.86815 0.59457 0.83083 0.0
H662 H 0.91679 0.59099 0.83615 0.0
H663 H 0.80372 0.55112 0.82235 0.0
H664 H 0.85852 0.62286 0.86583 0.0
H665 H 0.88625 0.63732 0.89182 0.0
H666 H 0.80044 0.5624 0.91456 0.0
H667 H 0.77229 0.54735 0.88865 0.0
C668 C 0.68908 0.59283 0.82935 0.0
C669 C 0.66266 0.57368 0.8395 0.0
C670 C 0.7179 0.59114 0.83016 0.0
C671 C 0.72131 0.5707 0.84134 0.0
C672 C 0.69508 0.55204 0.85159 0.0
C673 C 0.66623 0.55323 0.85058 0.0
C674 C 0.7521 0.56898 0.84275 0.0
C675 C 0.76824 0.57596 0.8575 0.0
C676 C 0.76541 0.56008 0.82992 0.0
C677 C 0.74854 0.54994 0.81438 0.0
C678 C 0.71657 0.52379 0.81355 0.0
C679 C 0.70087 0.51394 0.79886 0.0
C680 C 0.71695 0.52996 0.7849 0.0
C681 C 0.74879 0.55582 0.7856 0.0
C682 C 0.76462 0.56574 0.80026 0.0
C683 C 0.86742 0.53792 0.8645 0.0
C684 C 0.8961 0.55608 0.85558 0.0
C685 C 0.83952 0.54021 0.86144 0.0
C686 C 0.83917 0.56081 0.84937 0.0
C687 C 0.8674 0.57836 0.84016 0.0
C688 C 0.8954 0.57618 0.84325 0.0
C689 C 0.80999 0.5651 0.84702 0.0
C690 C 0.79424 0.55866 0.83214 0.0
C691 C 0.79689 0.57448 0.85971 0.0
C692 C 0.81338 0.58392 0.87533 0.0
C693 C 0.84561 0.60944 0.87638 0.0
C694 C 0.8614 0.61774 0.89109 0.0
C695 C 0.84513 0.60077 0.90483 0.0
C696 C 0.813 0.57554 0.90391 0.0
C697 C 0.79709 0.56717 0.88922 0.0
H698 H 0.85741 0.60718 0.91621 0.0
H699 H 0.70476 0.52228 0.77353 0.0
H700 H 0.14961 0.58471 0.18428 0.0
H701 H 0.20122 0.63583 0.18548 0.0
H702 H 0.15501 0.68727 0.1669 0.0
H703 H 0.10289 0.63599 0.16597 0.0
H704 H 0.21564 0.70718 0.15233 0.0
H705 H 0.1733 0.69225 0.20562 0.0
H706 H 0.15198 0.66433 0.23132 0.0
H707 H 0.23827 0.65866 0.23859 0.0
H708 H 0.25988 0.68607 0.21281 0.0
H709 H 0.34406 0.86885 0.17328 0.0
H710 H 0.29471 0.81764 0.16695 0.0
H711 H 0.33054 0.76501 0.19426 0.0
H712 H 0.37921 0.81599 0.20088 0.0
H713 H 0.27407 0.7454 0.20353 0.0
H714 H 0.31797 0.7597 0.15122 0.0
H715 H 0.34013 0.78473 0.12506 0.0
H716 H 0.25413 0.78943 0.11512 0.0
H717 H 0.2316 0.76482 0.1413 0.0
C718 C 0.15029 0.60688 0.18048 0.0
C719 C 0.12185 0.60608 0.17512 0.0
C720 C 0.17996 0.63623 0.18119 0.0
C721 C 0.18232 0.66576 0.17635 0.0
C722 C 0.15405 0.66501 0.17075 0.0
C723 C 0.12413 0.63564 0.17032 0.0
C724 C 0.21415 0.69723 0.17741 0.0
C725 C 0.22826 0.71585 0.16357 0.0
C726 C 0.23142 0.7082 0.19192 0.0
C727 C 0.21801 0.69084 0.20719 0.0
C728 C 0.18754 0.68467 0.2126 0.0
C729 C 0.17544 0.66902 0.22721 0.0
C730 C 0.1937 0.65963 0.23656 0.0
C731 C 0.2241 0.66586 0.23132 0.0
C732 C 0.23628 0.68143 0.21671 0.0
C733 C 0.34164 0.84632 0.17775 0.0
C734 C 0.36556 0.84686 0.1879 0.0
C735 C 0.31331 0.81682 0.17404 0.0
C736 C 0.30828 0.78692 0.18016 0.0
C737 C 0.33314 0.78745 0.18952 0.0
C738 C 0.36114 0.81681 0.19336 0.0
C739 C 0.2762 0.75568 0.17841 0.0
C740 C 0.26181 0.73698 0.1922 0.0
C741 C 0.25909 0.74453 0.16379 0.0
C742 C 0.2733 0.76086 0.14836 0.0
C743 C 0.30399 0.76654 0.14357 0.0
C744 C 0.31656 0.78052 0.1287 0.0
C745 C 0.29862 0.78879 0.11846 0.0
C746 C 0.26806 0.78311 0.12308 0.0
C747 C 0.25538 0.76915 0.13794 0.0
H748 H 0.30834 0.79949 0.10693 0.0
H749 H 0.18434 0.64761 0.24789 0.0
H750 H 0.45755 0.10715 0.50896 0.0
H751 H 0.45897 0.15933 0.51147 0.0
H752 H 0.56204 0.2103 0.50313 0.0
H753 H 0.5609 0.15863 0.5011 0.0
H754 H 0.55207 0.24138 0.52496 0.0
H755 H 0.50287 0.20304 0.47423 0.0
H756 H 0.46328 0.16357 0.45535 0.0
H757 H 0.38564 0.16451 0.48075 0.0
H758 H 0.42475 0.20366 0.49993 0.0
H759 H 0.56571 0.39757 0.51559 0.0
H760 H 0.56533 0.34693 0.50914 0.0
H761 H 0.46349 0.29205 0.52048 0.0
H762 H 0.46391 0.34274 0.5266 0.0
H763 H 0.47475 0.26426 0.49602 0.0
H764 H 0.52652 0.30396 0.54687 0.0
H765 H 0.56775 0.34468 0.56471 0.0
H766 H 0.64308 0.34235 0.53781 0.0
H767 H 0.60232 0.30212 0.51957 0.0
C768 C 0.48047 0.12943 0.50751 0.0
C769 C 0.50901 0.12822 0.50469 0.0
C770 C 0.48132 0.15951 0.50892 0.0
C771 C 0.51061 0.18939 0.5073 0.0
C772 C 0.53903 0.18806 0.5045 0.0
C773 C 0.53826 0.15815 0.50324 0.0
C774 C 0.51191 0.22193 0.50858 0.0
C775 C 0.53533 0.24635 0.51843 0.0
C776 C 0.49019 0.22908 0.50026 0.0
C777 C 0.46669 0.20605 0.48859 0.0
C778 C 0.47733 0.1947 0.47583 0.0
C779 C 0.45499 0.17239 0.46507 0.0
C780 C 0.42196 0.16148 0.46687 0.0
C781 C 0.41123 0.17295 0.47939 0.0
C782 C 0.43347 0.19523 0.49019 0.0
C783 C 0.54316 0.37471 0.51645 0.0
C784 C 0.51482 0.37421 0.52161 0.0
C785 C 0.54296 0.34561 0.51288 0.0
C786 C 0.51449 0.3151 0.5146 0.0
C787 C 0.48589 0.3149 0.51908 0.0
C788 C 0.4861 0.34397 0.5226 0.0
C789 C 0.51456 0.28343 0.51254 0.0
C790 C 0.49148 0.25924 0.50251 0.0
C791 C 0.53687 0.27665 0.52056 0.0
C792 C 0.56136 0.30026 0.53175 0.0
C793 C 0.55189 0.31226 0.54469 0.0
C794 C 0.57518 0.33528 0.55487 0.0
C795 C 0.60803 0.34616 0.55237 0.0
C796 C 0.61764 0.33396 0.53971 0.0
C797 C 0.59444 0.31106 0.52943 0.0
H798 H 0.62602 0.36399 0.56026 0.0
H799 H 0.40469 0.14417 0.45854 0.0
H800 H 0.44287 0.50856 0.84929 0.0
H801 H 0.39176 0.5095 0.85031 0.0
H802 H 0.44145 0.60893 0.83392 0.0
H803 H 0.49215 0.60812 0.83297 0.0
H804 H 0.40202 0.60377 0.85687 0.0
H805 H 0.38998 0.54574 0.80927 0.0
H806 H 0.38968 0.50364 0.79214 0.0
H807 H 0.31302 0.42918 0.82021 0.0
H808 H 0.31315 0.47085 0.83764 0.0
H809 H 0.25311 0.60672 0.84581 0.0
H810 H 0.30453 0.60858 0.83949 0.0
H811 H 0.26589 0.51146 0.85821 0.0
H812 H 0.21495 0.50984 0.86466 0.0
H813 H 0.301 0.51883 0.8317 0.0
H814 H 0.31572 0.58054 0.87971 0.0
H815 H 0.31731 0.62478 0.89556 0.0
H816 H 0.39099 0.6955 0.8648 0.0
H817 H 0.38931 0.65164 0.84853 0.0
C818 C 0.44293 0.5306 0.84586 0.0
C819 C 0.47203 0.55833 0.84113 0.0
C820 C 0.41353 0.53112 0.84639 0.0
C821 C 0.41229 0.55929 0.84212 0.0
C822 C 0.44135 0.58688 0.83739 0.0
C823 C 0.47058 0.58635 0.83685 0.0
C824 C 0.38105 0.56031 0.84273 0.0
C825 C 0.3801 0.58537 0.85116 0.0
C826 C 0.35209 0.53653 0.83533 0.0
C827 C 0.3518 0.51139 0.82486 0.0
C828 C 0.37323 0.52037 0.81186 0.0
C829 C 0.37306 0.4966 0.80209 0.0
C830 C 0.35141 0.46375 0.80512 0.0
C831 C 0.32981 0.45463 0.8179 0.0
C832 C 0.3299 0.47832 0.82772 0.0
C833 C 0.25555 0.58569 0.84843 0.0
C834 C 0.22999 0.55822 0.85591 0.0
C835 C 0.28507 0.5868 0.84488 0.0
C836 C 0.28963 0.56031 0.84856 0.0
C837 C 0.26341 0.53236 0.8553 0.0
C838 C 0.23423 0.53146 0.85907 0.0
C839 C 0.3218 0.56178 0.84618 0.0
C840 C 0.32297 0.53728 0.83735 0.0
C841 C 0.35109 0.5864 0.85301 0.0
C842 C 0.35206 0.61278 0.86277 0.0
C843 C 0.33201 0.60552 0.87622 0.0
C844 C 0.33295 0.63053 0.88529 0.0
C845 C 0.35416 0.66293 0.88116 0.0
C846 C 0.37449 0.67039 0.86795 0.0
C847 C 0.37353 0.64546 0.85879 0.0
H848 H 0.3549 0.68226 0.88823 0.0
H849 H 0.35132 0.44537 0.79754 0.0
H850 H 0.91479 0.43767 0.16802 0.0
H851 H 0.86275 0.38755 0.17003 0.0
H852 H 0.91209 0.33415 0.18014 0.0
H853 H 0.96453 0.38445 0.17748 0.0
H854 H 0.86588 0.29777 0.16284 0.0
H855 H 0.86329 0.35253 0.21 0.0
H856 H 0.85816 0.38748 0.23 0.0
H857 H 0.78048 0.38598 0.20329 0.0
H858 H 0.78529 0.35122 0.18308 0.0
H859 H 0.72422 0.15846 0.19697 0.0
H860 H 0.77693 0.20655 0.19069 0.0
H861 H 0.72783 0.25418 0.17088 0.0
H862 H 0.67524 0.20586 0.17687 0.0
H863 H 0.77288 0.29229 0.1918 0.0
H864 H 0.77233 0.23171 0.14664 0.0
H865 H 0.76989 0.18652 0.13124 0.0
H866 H 0.85143 0.19476 0.15715 0.0
H867 H 0.85422 0.23984 0.1728 0.0
C868 C 0.91472 0.4153 0.17068 0.0
C869 C 0.94426 0.41544 0.17254 0.0
C870 C 0.88461 0.3864 0.17202 0.0
C871 C 0.8827 0.35646 0.1756 0.0
C872 C 0.91228 0.35654 0.17736 0.0
C873 C 0.94252 0.38548 0.17581 0.0
C874 C 0.85017 0.32518 0.17689 0.0
C875 C 0.84584 0.29671 0.16944 0.0
C876 C 0.82293 0.32311 0.18495 0.0
C877 C 0.82487 0.34952 0.19497 0.0
C878 C 0.84577 0.36044 0.20815 0.0
C879 C 0.84264 0.37989 0.21962 0.0
C880 C 0.81869 0.38849 0.21802 0.0
C881 C 0.79881 0.37901 0.20458 0.0
C882 C 0.80182 0.35957 0.19309 0.0
C883 C 0.72475 0.17919 0.19122 0.0
C884 C 0.69551 0.17847 0.18761 0.0
C885 C 0.75495 0.20662 0.18745 0.0
C886 C 0.75679 0.2343 0.18016 0.0
C887 C 0.72743 0.23333 0.17642 0.0
C888 C 0.69727 0.20571 0.17992 0.0
C889 C 0.7889 0.26529 0.17796 0.0
C890 C 0.79302 0.29363 0.18515 0.0
C891 C 0.81585 0.26704 0.16985 0.0
C892 C 0.81322 0.2389 0.16103 0.0
C893 C 0.78945 0.22359 0.14921 0.0
C894 C 0.7881 0.19809 0.14038 0.0
C895 C 0.81042 0.18771 0.14325 0.0
C896 C 0.83412 0.20278 0.15496 0.0
C897 C 0.83561 0.22832 0.1638 0.0
H898 H 0.80941 0.16805 0.13636 0.0
H899 H 0.81546 0.40243 0.22724 0.0
H900 H 0.99354 0.47768 0.12217 0.0
H901 H 0.99585 0.4784 0.09297 0.0
H902 H 0.09436 0.55814 0.09464 0.0
H903 H 0.09115 0.55851 0.12372 0.0
H904 H 0.06439 0.57219 0.07407 0.0
H905 H 0.07026 0.47519 0.08314 0.0
H906 H 0.05215 0.42053 0.09418 0.0
H907 H 0.96186 0.38322 0.0692 0.0
H908 H 0.97926 0.43777 0.05817 0.0
H909 H 0.09916 0.57022 0.99066 0.0
H910 H 0.09889 0.56748 0.01989 0.0
H911 H 0.99779 0.49419 0.01917 0.0
H912 H 0.99801 0.4964 0.99015 0.0
H913 H 0.02931 0.47667 0.03921 0.0
H914 H 0.02349 0.57352 0.03032 0.0
H915 H 0.03887 0.62899 0.02148 0.0
H916 H 0.12843 0.66722 0.04719 0.0
H917 H 0.11381 0.61195 0.056 0.0
C918 C 0.0159 0.49473 0.11626 0.0
C919 C 0.04238 0.51771 0.12516 0.0
C920 C 0.01727 0.49521 0.09953 0.0
C921 C 0.04545 0.51815 0.0914 0.0
C922 C 0.07227 0.54025 0.10047 0.0
C923 C 0.07059 0.54027 0.11712 0.0
C924 C 0.04656 0.52071 0.07354 0.0
C925 C 0.05736 0.55135 0.06647 0.0
C926 C 0.03632 0.49348 0.06347 0.0
C927 C 0.02598 0.46061 0.06993 0.0
C928 C 0.04648 0.45536 0.08007 0.0
C929 C 0.03634 0.4244 0.08632 0.0
C930 C 0.00585 0.39844 0.08242 0.0
C931 C 0.98546 0.40336 0.07222 0.0
C932 C 0.99546 0.43429 0.06595 0.0
C933 C 0.07693 0.55334 0.99671 0.0
C934 C 0.04859 0.53361 0.98791 0.0
C935 C 0.0767 0.55206 0.01348 0.0
C936 C 0.04821 0.53083 0.02188 0.0
C937 C 0.02009 0.51087 0.01309 0.0
C938 C 0.02024 0.5123 0.99641 0.0
C939 C 0.0477 0.5283 0.03973 0.0
C940 C 0.03678 0.4976 0.0468 0.0
C941 C 0.05799 0.55554 0.04982 0.0
C942 C 0.06779 0.58848 0.04358 0.0
C943 C 0.04673 0.59367 0.03384 0.0
C944 C 0.05524 0.62512 0.02891 0.0
C945 C 0.08467 0.6516 0.03371 0.0
C946 C 0.10571 0.64669 0.04342 0.0
C947 C 0.09733 0.61531 0.04837 0.0
H948 H 0.09112 0.67593 0.02995 0.0
H949 H 0.99804 0.37449 0.08727 0.0
H950 H 0.51611 0.08284 0.45348 0.0
H951 H 0.51161 0.07548 0.42462 0.0
H952 H 0.50795 0.98338 0.43019 0.0
H953 H 0.51318 0.99131 0.45919 0.0
H954 H 0.55111 0.01857 0.40805 0.0
H955 H 0.44048 0.98955 0.41701 0.0
H956 H 0.39695 0.99715 0.42823 0.0
H957 H 0.43317 0.08712 0.40253 0.0
H958 H 0.47715 0.08022 0.39129 0.0
H959 H 0.51599 0.97883 0.32439 0.0
H960 H 0.51409 0.97864 0.35367 0.0
H961 H 0.52514 0.07436 0.35275 0.0
H962 H 0.52725 0.07475 0.32365 0.0
H963 H 0.47653 0.0342 0.37265 0.0
H964 H 0.58705 0.06422 0.36395 0.0
H965 H 0.6344 0.06088 0.35478 0.0
H966 H 0.60123 0.97184 0.3809 0.0
H967 H 0.55338 0.97435 0.39005 0.0
C968 C 0.51283 0.06035 0.44858 0.0
C969 C 0.51376 0.0371 0.45863 0.0
C970 C 0.51056 0.05623 0.43202 0.0
C971 C 0.50916 0.02869 0.42503 0.0
C972 C 0.50886 0.0048 0.43517 0.0
C973 C 0.51122 0.00901 0.45178 0.0
C974 C 0.51015 0.02604 0.40722 0.0
C975 C 0.53429 0.02121 0.40032 0.0
C976 C 0.48906 0.03063 0.39699 0.0
C977 C 0.46217 0.03443 0.40337 0.0
C978 C 0.4392 0.01099 0.41379 0.0
C979 C 0.41446 0.01518 0.42015 0.0
C980 C 0.41232 0.04262 0.41611 0.0
C981 C 0.43485 0.06587 0.40564 0.0
C982 C 0.45965 0.0618 0.39924 0.0
C983 C 0.51785 0.99976 0.33043 0.0
C984 C 0.52171 0.02678 0.32157 0.0
C985 C 0.51708 0.99977 0.34721 0.0
C986 C 0.51966 0.02659 0.35556 0.0
C987 C 0.52316 0.05337 0.3467 0.0
C988 C 0.52442 0.05358 0.33 0.0
C989 C 0.51734 0.02642 0.37342 0.0
C990 C 0.49304 0.03097 0.38034 0.0
C991 C 0.5384 0.02164 0.38364 0.0
C992 C 0.56625 0.01917 0.37745 0.0
C993 C 0.5895 0.04361 0.36751 0.0
C994 C 0.61654 0.04195 0.36238 0.0
C995 C 0.62074 0.01608 0.36719 0.0
C996 C 0.59788 0.99179 0.37713 0.0
C997 C 0.57078 0.99331 0.38228 0.0
H998 H 0.64176 0.01493 0.36326 0.0
H999 H 0.39318 0.04586 0.42107 0.0
H1000 H 0.59519 0.54921 0.78872 0.0
H1001 H 0.59453 0.55107 0.75953 0.0
H1002 H 0.52621 0.58558 0.76146 0.0
H1003 H 0.52557 0.58178 0.79059 0.0
H1004 H 0.5051 0.53975 0.74176 0.0
H1005 H 0.61005 0.63367 0.74843 0.0
H1006 H 0.66571 0.66377 0.75901 0.0
H1007 H 0.68966 0.5992 0.73481 0.0
H1008 H 0.63401 0.56845 0.72424 0.0
H1009 H 0.50252 0.57391 0.66012 0.0
H1010 H 0.51166 0.57824 0.68873 0.0
H1011 H 0.57249 0.53545 0.68429 0.0
H1012 H 0.56455 0.53229 0.6553 0.0
H1013 H 0.59926 0.58542 0.70508 0.0
H1014 H 0.4932 0.49173 0.69884 0.0
H1015 H 0.43634 0.46025 0.69 0.0
H1016 H 0.41423 0.52567 0.7147 0.0
H1017 H 0.47105 0.55779 0.72351 0.0
C1018 C 0.58066 0.5579 0.78285 0.0
C1019 C 0.56067 0.56569 0.79183 0.0
C1020 C 0.58031 0.55905 0.76613 0.0
C1021 C 0.56051 0.56875 0.75808 0.0
C1022 C 0.54162 0.57786 0.76724 0.0
C1023 C 0.5414 0.57595 0.7839 0.0
C1024 C 0.55714 0.56678 0.74027 0.0
C1025 C 0.5258 0.55036 0.73379 0.0
C1026 C 0.58399 0.57955 0.7297 0.0
C1027 C 0.61777 0.59861 0.73563 0.0
C1028 C 0.62715 0.62582 0.7454 0.0
C1029 C 0.6587 0.643 0.7514 0.0
C1030 C 0.68119 0.63336 0.74761 0.0
C1031 C 0.67221 0.60663 0.73774 0.0
C1032 C 0.64068 0.58935 0.73172 0.0
C1033 C 0.51812 0.5656 0.6651 0.0
C1034 C 0.53292 0.5529 0.65517 0.0
C1035 C 0.52308 0.56782 0.68161 0.0
C1036 C 0.54257 0.55693 0.68887 0.0
C1037 C 0.55732 0.54406 0.67907 0.0
C1038 C 0.55244 0.54191 0.66246 0.0
C1039 C 0.54713 0.55885 0.70665 0.0
C1040 C 0.57864 0.57509 0.7131 0.0
C1041 C 0.52043 0.54619 0.71728 0.0
C1042 C 0.48645 0.52735 0.71167 0.0
C1043 C 0.47629 0.4996 0.70224 0.0
C1044 C 0.44405 0.4816 0.69727 0.0
C1045 C 0.42171 0.49101 0.70174 0.0
C1046 C 0.43156 0.51844 0.71121 0.0
C1047 C 0.46377 0.53654 0.71619 0.0
H1048 H 0.39675 0.47699 0.69791 0.0
H1049 H 0.70557 0.64664 0.7523 0.0
H1050 H 0.53658 0.09113 0.55012 0.0
H1051 H 0.54842 0.09919 0.57882 0.0
H1052 H 0.51499 0.99688 0.58437 0.0
H1053 H 0.50227 0.98885 0.55596 0.0
H1054 H 0.48479 0.01452 0.60437 0.0
H1055 H 0.5958 0.05713 0.58885 0.0
H1056 H 0.64552 0.09356 0.57388 0.0
H1057 H 0.64943 0.17645 0.59623 0.0
H1058 H 0.59938 0.14052 0.61115 0.0
H1059 H 0.52015 0.99836 0.68287 0.0
H1060 H 0.52009 1.00188 0.65412 0.0
H1061 H 0.55624 0.10498 0.65682 0.0
H1062 H 0.55872 0.10203 0.68601 0.0
H1063 H 0.58511 0.09251 0.63266 0.0
H1064 H 0.47415 0.04839 0.64883 0.0
H1065 H 0.42419 0.01089 0.66339 0.0
H1066 H 0.42036 0.92968 0.63924 0.0
H1067 H 0.47051 0.96663 0.62468 0.0
C1068 C 0.53289 0.07069 0.55744 0.0
C1069 C 0.51897 0.03944 0.55089 0.0
C1070 C 0.5395 0.07524 0.57384 0.0
C1071 C 0.53255 0.04862 0.58385 0.0
C1072 C 0.52041 0.01778 0.57699 0.0
C1073 C 0.51342 0.01322 0.56073 0.0
C1074 C 0.5347 0.0518 0.60157 0.0
C1075 C 0.5069 0.03136 0.61051 0.0
C1076 C 0.56313 0.07455 0.60968 0.0
C1077 C 0.59361 0.09614 0.60098 0.0
C1078 C 0.60712 0.08314 0.59049 0.0
C1079 C 0.63538 0.10369 0.58202 0.0
C1080 C 0.65056 0.13731 0.58406 0.0
C1081 C 0.6376 0.15041 0.59464 0.0
C1082 C 0.60929 0.12996 0.60311 0.0
C1083 C 0.52863 0.02201 0.67747 0.0
C1084 C 0.53981 0.04996 0.68691 0.0
C1085 C 0.52811 0.02389 0.66091 0.0
C1086 C 0.53758 0.05359 0.65316 0.0
C1087 C 0.54865 0.08171 0.66247 0.0
C1088 C 0.54969 0.07992 0.67919 0.0
C1089 C 0.53538 0.05458 0.63541 0.0
C1090 C 0.563 0.07585 0.62647 0.0
C1091 C 0.50675 0.03249 0.6272 0.0
C1092 C 0.47618 0.0103 0.63572 0.0
C1093 C 0.46271 0.02253 0.64666 0.0
C1094 C 0.43436 1.00136 0.65492 0.0
C1095 C 0.41913 0.96793 0.65225 0.0
C1096 C 0.43217 0.95559 0.64129 0.0
C1097 C 0.46052 0.97663 0.63301 0.0
H1098 H 0.39722 0.95159 0.65868 0.0
H1099 H 0.6724 0.15319 0.57747 0.0
H1100 H 0.62136 0.60913 0.89217 0.0
H1101 H 0.61312 0.59671 0.92054 0.0
H1102 H 0.51962 0.5132 0.91087 0.0
H1103 H 0.52751 0.52616 0.88225 0.0
H1104 H 0.51605 0.54748 0.93533 0.0
H1105 H 0.58547 0.50435 0.92227 0.0
H1106 H 0.63365 0.50649 0.91018 0.0
H1107 H 0.69563 0.58745 0.93977 0.0
H1108 H 0.64781 0.58594 0.95196 0.0
H1109 H 0.49901 0.48813 0.0159 0.0
H1110 H 0.50188 0.49474 0.98682 0.0
H1111 H 0.59713 0.579 0.99097 0.0
H1112 H 0.59438 0.57247 0.01987 0.0
H1113 H 0.59778 0.53977 0.96889 0.0
H1114 H 0.53091 0.58575 0.98091 0.0
H1115 H 0.48418 0.58703 0.99265 0.0
H1116 H 0.41907 0.50437 0.96479 0.0
H1117 H 0.46546 0.50235 0.95303 0.0
C1118 C 0.59909 0.58799 0.89604 0.0
C1119 C 0.57504 0.56865 0.88497 0.0
C1120 C 0.59448 0.58078 0.9123 0.0
C1121 C 0.56591 0.55374 0.91791 0.0
C1122 C 0.5419 0.53416 0.90685 0.0
C1123 C 0.54645 0.5415 0.89051 0.0
C1124 C 0.56092 0.54684 0.93534 0.0
C1125 C 0.53358 0.5451 0.94262 0.0
C1126 C 0.58424 0.54468 0.94498 0.0
C1127 C 0.61304 0.5451 0.93798 0.0
C1128 C 0.60938 0.52265 0.92617 0.0
C1129 C 0.63662 0.52375 0.91931 0.0
C1130 C 0.66768 0.54712 0.92419 0.0
C1131 C 0.67155 0.56934 0.93601 0.0
C1132 C 0.64438 0.56831 0.94294 0.0
C1133 C 0.52028 0.50839 0.01061 0.0
C1134 C 0.5466 0.52957 0.02021 0.0
C1135 C 0.52197 0.51211 0.99397 0.0
C1136 C 0.54986 0.53729 0.98663 0.0
C1137 C 0.57554 0.55914 0.99627 0.0
C1138 C 0.57389 0.55541 0.01282 0.0
C1139 C 0.55292 0.54054 0.96892 0.0
C1140 C 0.58 0.5417 0.96159 0.0
C1141 C 0.52951 0.54243 0.95926 0.0
C1142 C 0.50161 0.54366 0.96624 0.0
C1143 C 0.50661 0.56768 0.97739 0.0
C1144 C 0.4802 0.56858 0.98403 0.0
C1145 C 0.44867 0.54573 0.97951 0.0
C1146 C 0.44351 0.52201 0.9683 0.0
C1147 C 0.46984 0.52099 0.96164 0.0
H1148 H 0.42825 0.54645 0.98467 0.0
H1149 H 0.68874 0.54799 0.91883 0.0
H1150 H 0.06999 0.5545 0.21826 0.0
H1151 H 0.06897 0.5619 0.24717 0.0
H1152 H 0.98381 0.46703 0.25121 0.0
H1153 H 0.98546 0.45919 0.22245 0.0
H1154 H 0.97965 0.51621 0.26774 0.0
H1155 H 0.05095 0.47356 0.26144 0.0
H1156 H 0.09803 0.47165 0.25069 0.0
H1157 H 0.16225 0.56421 0.27164 0.0
H1158 H 0.11545 0.56699 0.28227 0.0
H1159 H 0.96319 0.48448 0.34868 0.0
H1160 H 0.97105 0.48239 0.32052 0.0
H1161 H 0.06646 0.56664 0.32389 0.0
H1162 H 0.06045 0.56646 0.35285 0.0
H1163 H 0.06835 0.52759 0.30306 0.0
H1164 H 0.99405 0.56823 0.30993 0.0
H1165 H 0.94515 0.56713 0.32039 0.0
H1166 H 0.88501 0.4751 0.29797 0.0
H1167 H 0.93354 0.4755 0.28753 0.0
C1168 C 0.05088 0.53547 0.22534 0.0
C1169 C 0.02766 0.50634 0.21824 0.0
C1170 C 0.05048 0.53959 0.24182 0.0
C1171 C 0.02646 0.5149 0.25132 0.0
C1172 C 1.00262 0.48629 0.24409 0.0
C1173 C 1.00352 0.48186 0.22772 0.0
C1174 C 0.02591 0.51872 0.2688 0.0
C1175 C 0.99896 0.51856 0.27549 0.0
C1176 C 0.0514 0.52231 0.27882 0.0
C1177 C 0.07963 0.52071 0.27247 0.0
C1178 C 0.07507 0.49371 0.2636 0.0
C1179 C 0.10172 0.49242 0.25756 0.0
C1180 C 0.13311 0.51784 0.26043 0.0
C1181 C 0.13791 0.54457 0.26939 0.0
C1182 C 0.11132 0.54602 0.27543 0.0
C1183 C 0.98635 0.50219 0.34372 0.0
C1184 C 0.01128 0.52544 0.35339 0.0
C1185 C 0.99049 0.50141 0.32735 0.0
C1186 C 0.01891 0.52499 0.31984 0.0
C1187 C 0.04407 0.54833 0.32933 0.0
C1188 C 0.04038 0.54846 0.34593 0.0
C1189 C 0.02186 0.52503 0.30213 0.0
C1190 C 0.04925 0.52583 0.29534 0.0
C1191 C 0.99661 0.52181 0.29193 0.0
C1192 C 0.96743 0.52188 0.298 0.0
C1193 C 0.9704 0.54775 0.30727 0.0
C1194 C 0.94274 0.54723 0.3132 0.0
C1195 C 0.912 0.52106 0.30986 0.0
C1196 C 0.90883 0.49537 0.30054 0.0
C1197 C 0.93639 0.49577 0.29459 0.0
H1198 H 0.89063 0.52069 0.31448 0.0
H1199 H 0.15372 0.51678 0.25576 0.0
loop_
_geom_bond_atom_site_label_1
_geom_bond_atom_site_label_2
_geom_bond_distance
_geom_bond_site_symmetry_2
_ccdc_geom_bond_type
Dy0 O4 2.398 . S
Dy0 O5 2.491 . S
Dy0 O6 2.403 . S
Dy0 O7 2.664 . S
Dy0 O11 2.326 . S
Dy0 O15 2.310 . S
Dy0 O16 2.351 1_455 S
C1 O12 1.185 . S
C1 O13 1.355 . S
C2 O4 1.185 . S
C2 O5 1.355 . S
Dy3 O7 2.310 . S
Dy3 O10 2.351 . S
Dy3 O12 2.398 1_455 S
Dy3 O13 2.491 1_455 S
Dy3 O14 2.403 . S
Dy3 O15 2.664 . S
Dy3 O17 2.326 1_455 S
O4 Dy0 2.398 . S
O4 C2 1.185 . S
O5 Dy0 2.491 . S
O5 C2 1.355 . S
O6 Dy0 2.403 . S
O6 C8 1.254 . S
O7 Dy0 2.664 . S
O7 Dy3 2.310 . S
O7 C8 1.268 . S
C8 O6 1.254 . S
C8 O7 1.268 . S
C9 O14 1.254 . S
C9 O15 1.268 . S
O10 Dy3 2.351 . S
O10 C18 1.249 . S
O11 Dy0 2.326 . S
O11 C18 1.267 . S
O12 C1 1.185 . S
O12 Dy3 2.398 1_655 S
O13 C1 1.355 . S
O13 Dy3 2.491 1_655 S
O14 Dy3 2.403 . S
O14 C9 1.254 . S
O15 Dy0 2.310 . S
O15 Dy3 2.664 . S
O15 C9 1.268 . S
O16 Dy0 2.351 1_655 S
O16 C19 1.249 . S
O17 Dy3 2.326 1_655 S
O17 C19 1.267 . S
C18 O10 1.249 . S
C18 O11 1.267 . S
C19 O16 1.249 . S
C19 O17 1.267 . S
Dy20 O24 2.398 1_545 S
Dy20 O25 2.491 1_545 S
Dy20 O26 2.403 . S
Dy20 O27 2.664 . S
Dy20 O31 2.326 1_545 S
Dy20 O35 2.310 . S
Dy20 O36 2.351 . S
C21 O32 1.185 . S
C21 O33 1.355 . S
C22 O24 1.185 . S
C22 O25 1.355 . S
Dy23 O27 2.310 . S
Dy23 O30 2.351 . S
Dy23 O32 2.398 . S
Dy23 O33 2.491 . S
Dy23 O34 2.403 . S
Dy23 O35 2.664 . S
Dy23 O37 2.326 . S
O24 Dy20 2.398 1_565 S
O24 C22 1.185 . S
O25 Dy20 2.491 1_565 S
O25 C22 1.355 . S
O26 Dy20 2.403 . S
O26 C28 1.254 . S
O27 Dy20 2.664 . S
O27 Dy23 2.310 . S
O27 C28 1.268 . S
C28 O26 1.254 . S
C28 O27 1.268 . S
C29 O34 1.254 . S
C29 O35 1.268 . S
O30 Dy23 2.351 . S
O30 C38 1.249 1_545 S
O31 Dy20 2.326 1_565 S
O31 C38 1.267 . S
O32 C21 1.185 . S
O32 Dy23 2.398 . S
O33 C21 1.355 . S
O33 Dy23 2.491 . S
O34 Dy23 2.403 . S
O34 C29 1.254 . S
O35 Dy20 2.310 . S
O35 Dy23 2.664 . S
O35 C29 1.268 . S
O36 Dy20 2.351 . S
O36 C39 1.249 . S
O37 Dy23 2.326 . S
O37 C39 1.267 . S
C38 O30 1.249 1_565 S
C38 O31 1.267 . S
C39 O36 1.249 . S
C39 O37 1.267 . S
Dy40 O44 2.398 . S
Dy40 O45 2.491 . S
Dy40 O46 2.403 . S
Dy40 O47 2.664 . S
Dy40 O51 2.326 . S
Dy40 O55 2.310 . S
Dy40 O56 2.351 . S
C41 O52 1.185 . S
C41 O53 1.355 . S
C42 O44 1.185 . S
C42 O45 1.355 . S
Dy43 O47 2.310 . S
Dy43 O50 2.351 . S
Dy43 O52 2.398 . S
Dy43 O53 2.491 . S
Dy43 O54 2.403 . S
Dy43 O55 2.664 . S
Dy43 O57 2.326 . S
O44 Dy40 2.398 . S
O44 C42 1.185 . S
O45 Dy40 2.491 . S
O45 C42 1.355 . S
O46 Dy40 2.403 . S
O46 C48 1.254 . S
O47 Dy40 2.664 . S
O47 Dy43 2.310 . S
O47 C48 1.268 . S
C48 O46 1.254 . S
C48 O47 1.268 . S
C49 O54 1.254 . S
C49 O55 1.268 . S
O50 Dy43 2.351 . S
O50 C58 1.249 . S
O51 Dy40 2.326 . S
O51 C58 1.267 . S
O52 C41 1.185 . S
O52 Dy43 2.398 . S
O53 C41 1.355 . S
O53 Dy43 2.491 . S
O54 Dy43 2.403 . S
O54 C49 1.254 . S
O55 Dy40 2.310 . S
O55 Dy43 2.664 . S
O55 C49 1.268 . S
O56 Dy40 2.351 . S
O56 C59 1.249 . S
O57 Dy43 2.326 . S
O57 C59 1.267 . S
C58 O50 1.249 . S
C58 O51 1.267 . S
C59 O56 1.249 . S
C59 O57 1.267 . S
C60 C61 1.264 . S
C60 C65 1.479 . S
C60 C70 1.465 . S
C61 C60 1.264 . S
C61 C63 1.339 . S
C61 H88 0.931 . S
C62 C63 1.395 . S
C62 C64 1.320 . S
C63 C61 1.339 . S
C63 C62 1.395 . S
C63 H89 0.929 . S
C64 C62 1.320 . S
C64 C65 1.405 . S
C64 H90 0.930 . S
C65 C60 1.479 . S
C65 C64 1.405 . S
C65 H91 0.931 . S
U66 O67 2.454 1_545 S
U66 O68 2.458 1_545 S
U66 C69 2.984 1_545 S
U66 C70 2.847 . S
U66 C83 2.882 . S
U66 O84 2.441 . S
U66 O85 2.420 . S
U66 O86 2.455 . S
U66 O87 2.449 . S
O67 U66 2.454 1_565 S
O67 C69 1.353 . S
O68 U66 2.458 1_565 S
O68 C69 1.286 . S
C69 U66 2.984 1_565 S
C69 O67 1.353 . S
C69 O68 1.286 . S
C69 C71 1.363 . S
C70 C60 1.465 . S
C70 U66 2.847 . S
C70 O84 1.249 . S
C70 O85 1.202 . S
C71 C69 1.363 . S
C71 C73 1.408 . S
C71 C76 1.342 . S
C72 C73 1.310 . S
C72 C75 1.461 . S
C72 H92 0.932 . S
C73 C71 1.408 . S
C73 C72 1.310 . S
C73 H93 0.930 . S
C74 C75 1.474 . S
C74 C76 1.285 . S
C74 H94 0.929 . S
C75 C72 1.461 . S
C75 C74 1.474 . S
C76 C71 1.342 . S
C76 C74 1.285 . S
C76 H95 0.930 . S
C77 C80 1.424 . S
C77 C82 1.245 1_545 S
C77 C83 1.428 . S
C78 C81 1.260 . S
C78 C82 1.477 1_545 S
C78 H96 0.932 1_545 S
C79 C80 1.384 . S
C79 C81 1.479 . S
C79 H97 0.929 . S
C80 C77 1.424 . S
C80 C79 1.384 . S
C80 H98 0.928 . S
C81 C78 1.260 . S
C81 C79 1.479 . S
C82 C77 1.245 1_565 S
C82 C78 1.477 1_565 S
C82 H99 0.932 . S
C83 U66 2.882 . S
C83 C77 1.428 . S
C83 O86 1.302 . S
C83 O87 1.282 . S
O84 U66 2.441 . S
O84 C70 1.249 . S
O85 U66 2.420 . S
O85 C70 1.202 . S
O86 U66 2.455 . S
O86 C83 1.302 . S
O87 U66 2.449 . S
O87 C83 1.282 . S
H88 C61 0.931 . S
H89 C63 0.929 . S
H90 C64 0.930 . S
H91 C65 0.931 . S
H92 C72 0.932 . S
H93 C73 0.930 . S
H94 C74 0.929 . S
H95 C76 0.930 . S
H96 C78 0.932 1_565 S
H97 C79 0.929 . S
H98 C80 0.928 . S
H99 C82 0.932 . S
C100 C101 1.264 . S
C100 C105 1.479 . S
C100 C110 1.465 . S
C101 C100 1.264 . S
C101 C103 1.339 . S
C101 H128 0.931 . S
C102 C103 1.395 . S
C102 C104 1.320 . S
C103 C101 1.339 . S
C103 C102 1.395 . S
C103 H129 0.929 . S
C104 C102 1.320 . S
C104 C105 1.405 . S
C104 H130 0.930 . S
C105 C100 1.479 . S
C105 C104 1.405 . S
C105 H131 0.931 . S
U106 O107 2.454 . S
U106 O108 2.458 . S
U106 C109 2.984 . S
U106 C110 2.847 . S
U106 C123 2.882 . S
U106 O124 2.441 . S
U106 O125 2.420 . S
U106 O126 2.455 . S
U106 O127 2.449 . S
O107 U106 2.454 . S
O107 C109 1.353 . S
O108 U106 2.458 . S
O108 C109 1.286 . S
C109 U106 2.984 . S
C109 O107 1.353 . S
C109 O108 1.286 . S
C109 C111 1.363 . S
C110 C100 1.465 . S
C110 U106 2.847 . S
C110 O124 1.249 . S
C110 O125 1.202 . S
C111 C109 1.363 . S
C111 C113 1.408 . S
C111 C116 1.342 . S
C112 C113 1.310 . S
C112 C115 1.461 . S
C112 H132 0.932 . S
C113 C111 1.408 . S
C113 C112 1.310 . S
C113 H133 0.930 . S
C114 C115 1.474 . S
C114 C116 1.285 . S
C114 H134 0.929 . S
C115 C112 1.461 . S
C115 C114 1.474 . S
C116 C111 1.342 . S
C116 C114 1.285 . S
C116 H135 0.930 . S
C117 C120 1.424 . S
C117 C122 1.245 . S
C117 C123 1.428 . S
C118 C121 1.260 . S
C118 C122 1.477 . S
C118 H136 0.932 . S
C119 C120 1.384 . S
C119 C121 1.479 . S
C119 H137 0.929 . S
C120 C117 1.424 . S
C120 C119 1.384 . S
C120 H138 0.928 . S
C121 C118 1.260 . S
C121 C119 1.479 . S
C122 C117 1.245 . S
C122 C118 1.477 . S
C122 H139 0.932 . S
C123 U106 2.882 . S
C123 C117 1.428 . S
C123 O126 1.301 . S
C123 O127 1.282 . S
O124 U106 2.441 . S
O124 C110 1.249 . S
O125 U106 2.420 . S
O125 C110 1.202 . S
O126 U106 2.455 . S
O126 C123 1.301 . S
O127 U106 2.449 . S
O127 C123 1.282 . S
H128 C101 0.931 . S
H129 C103 0.929 . S
H130 C104 0.930 . S
H131 C105 0.931 . S
H132 C112 0.932 . S
H133 C113 0.930 . S
H134 C114 0.929 . S
H135 C116 0.930 . S
H136 C118 0.932 . S
H137 C119 0.929 . S
H138 C120 0.928 . S
H139 C122 0.932 . S
C140 C141 1.264 . S
C140 C145 1.479 . S
C140 C150 1.465 . S
C141 C140 1.264 . S
C141 C143 1.339 . S
C141 H168 0.931 . S
C142 C143 1.395 . S
C142 C144 1.320 . S
C143 C141 1.339 . S
C143 C142 1.395 . S
C143 H169 0.929 . S
C144 C142 1.320 . S
C144 C145 1.405 . S
C144 H170 0.930 . S
C145 C140 1.479 . S
C145 C144 1.405 . S
C145 H171 0.931 . S
U146 O147 2.454 . S
U146 O148 2.458 . S
U146 C149 2.984 . S
U146 C150 2.847 1_455 S
U146 C163 2.882 . S
U146 O164 2.441 . S
U146 O165 2.420 1_455 S
U146 O166 2.455 . S
U146 O167 2.449 . S
O147 U146 2.454 . S
O147 C149 1.353 . S
O148 U146 2.458 . S
O148 C149 1.286 . S
C149 U146 2.984 . S
C149 O147 1.353 . S
C149 O148 1.286 . S
C149 C151 1.363 . S
C150 C140 1.465 . S
C150 U146 2.847 1_655 S
C150 O164 1.249 1_655 S
C150 O165 1.202 . S
C151 C149 1.363 . S
C151 C153 1.408 . S
C151 C156 1.342 . S
C152 C153 1.310 . S
C152 C155 1.461 . S
C152 H172 0.932 . S
C153 C151 1.408 . S
C153 C152 1.310 . S
C153 H173 0.930 . S
C154 C155 1.474 . S
C154 C156 1.285 . S
C154 H174 0.929 . S
C155 C152 1.461 . S
C155 C154 1.474 . S
C156 C151 1.342 . S
C156 C154 1.285 . S
C156 H175 0.930 . S
C157 C160 1.424 . S
C157 C162 1.245 . S
C157 C163 1.428 . S
C158 C161 1.260 . S
C158 C162 1.477 . S
C158 H176 0.932 . S
C159 C160 1.384 . S
C159 C161 1.479 . S
C159 H177 0.954 . S
C160 C157 1.424 . S
C160 C159 1.384 . S
C160 H178 0.928 . S
C161 C158 1.260 . S
C161 C159 1.479 . S
C162 C157 1.245 . S
C162 C158 1.477 . S
C162 H179 0.932 . S
C163 U146 2.882 . S
C163 C157 1.428 . S
C163 O166 1.301 . S
C163 O167 1.282 . S
O164 U146 2.441 . S
O164 C150 1.249 1_455 S
O165 U146 2.420 1_655 S
O165 C150 1.202 . S
O166 U146 2.455 . S
O166 C163 1.301 . S
O167 U146 2.449 . S
O167 C163 1.282 . S
H168 C141 0.931 . S
H169 C143 0.929 . S
H170 C144 0.930 . S
H171 C145 0.931 . S
H172 C152 0.932 . S
H173 C153 0.930 . S
H174 C154 0.929 . S
H175 C156 0.930 . S
H176 C158 0.932 . S
H177 C159 0.954 . S
H178 C160 0.928 . S
H179 C162 0.932 . S
C180 C181 1.264 . S
C180 C185 1.479 . S
C180 C190 1.465 . S
C181 C180 1.264 . S
C181 C183 1.339 . S
C181 H208 0.931 . S
C182 C183 1.395 . S
C182 C184 1.320 . S
C183 C181 1.339 . S
C183 C182 1.395 . S
C183 H209 0.929 . S
C184 C182 1.320 . S
C184 C185 1.405 . S
C184 H210 0.930 . S
C185 C180 1.479 . S
C185 C184 1.405 . S
C185 H211 0.931 . S
U186 O187 2.449 1_655 S
U186 O188 2.449 1_655 S
U186 C189 2.977 1_655 S
U186 C190 2.854 . S
U186 C203 2.882 1_655 S
U186 O204 2.445 . S
U186 O205 2.429 . S
U186 O206 2.452 1_655 S
U186 O207 2.453 . S
O187 U186 2.449 1_455 S
O187 C189 1.353 . S
O188 U186 2.449 1_455 S
O188 C189 1.286 . S
C189 U186 2.977 1_455 S
C189 O187 1.353 . S
C189 O188 1.286 . S
C189 C191 1.363 . S
C190 C180 1.465 . S
C190 U186 2.854 . S
C190 O204 1.249 . S
C190 O205 1.202 . S
C191 C189 1.363 . S
C191 C193 1.408 . S
C191 C196 1.342 . S
C192 C193 1.310 . S
C192 C195 1.461 . S
C192 H212 0.932 . S
C193 C191 1.408 . S
C193 C192 1.310 . S
C193 H213 0.930 . S
C194 C195 1.474 . S
C194 C196 1.285 . S
C194 H214 0.929 . S
C195 C192 1.461 . S
C195 C194 1.474 . S
C196 C191 1.342 . S
C196 C194 1.285 . S
C196 H215 0.930 . S
C197 C200 1.424 1_455 S
C197 C202 1.245 . S
C197 C203 1.430 . S
C198 C201 1.260 . S
C198 C202 1.477 . S
C198 H216 0.932 . S
C199 C200 1.384 . S
C199 C201 1.479 1_655 S
C199 H217 0.929 . S
C200 C197 1.424 1_655 S
C200 C199 1.384 . S
C200 H218 0.928 . S
C201 C198 1.260 . S
C201 C199 1.479 1_455 S
C202 C197 1.245 . S
C202 C198 1.477 . S
C202 H219 0.932 . S
C203 U186 2.882 1_455 S
C203 C197 1.430 . S
C203 O206 1.307 . S
C203 O207 1.274 1_455 S
O204 U186 2.445 . S
O204 C190 1.249 . S
O205 U186 2.429 . S
O205 C190 1.202 . S
O206 U186 2.452 1_455 S
O206 C203 1.307 . S
O207 U186 2.453 . S
O207 C203 1.274 1_655 S
H208 C181 0.931 . S
H209 C183 0.929 . S
H210 C184 0.930 . S
H211 C185 0.931 . S
H212 C192 0.932 . S
H213 C193 0.930 . S
H214 C194 0.929 . S
H215 C196 0.930 . S
H216 C198 0.932 . S
H217 C199 0.929 . S
H218 C200 0.928 . S
H219 C202 0.932 . S
C220 C221 1.264 . S
C220 C225 1.479 . S
C220 C230 1.465 1_565 S
C221 C220 1.264 . S
C221 C223 1.339 . S
C221 H248 0.931 . S
C222 C223 1.395 . S
C222 C224 1.320 . S
C223 C221 1.339 . S
C223 C222 1.395 . S
C223 H249 0.929 . S
C224 C222 1.320 . S
C224 C225 1.405 . S
C224 H250 0.930 . S
C225 C220 1.479 . S
C225 C224 1.405 . S
C225 H251 0.931 . S
U226 O227 2.454 . S
U226 O228 2.458 . S
U226 C229 2.984 . S
U226 C230 2.847 . S
U226 C243 2.882 . S
U226 O244 2.441 . S
U226 O245 2.420 1_545 S
U226 O246 2.455 . S
U226 O247 2.449 . S
O227 U226 2.454 . S
O227 C229 1.353 . S
O228 U226 2.458 . S
O228 C229 1.286 . S
C229 U226 2.984 . S
C229 O227 1.353 . S
C229 O228 1.286 . S
C229 C231 1.363 . S
C230 C220 1.465 1_545 S
C230 U226 2.847 . S
C230 O244 1.249 . S
C230 O245 1.202 1_545 S
C231 C229 1.363 . S
C231 C233 1.408 . S
C231 C236 1.342 . S
C232 C233 1.310 . S
C232 C235 1.461 . S
C232 H252 0.932 . S
C233 C231 1.408 . S
C233 C232 1.310 . S
C233 H253 0.930 . S
C234 C235 1.474 . S
C234 C236 1.285 . S
C234 H254 0.929 . S
C235 C232 1.461 . S
C235 C234 1.474 . S
C236 C231 1.342 . S
C236 C234 1.285 . S
C236 H255 0.930 . S
C237 C240 1.424 . S
C237 C242 1.245 . S
C237 C243 1.428 . S
C238 C241 1.260 . S
C238 C242 1.477 . S
C238 H256 0.932 . S
C239 C240 1.384 . S
C239 C241 1.479 . S
C239 H257 0.929 . S
C240 C237 1.424 . S
C240 C239 1.384 . S
C240 H258 0.928 . S
C241 C238 1.260 . S
C241 C239 1.479 . S
C242 C237 1.245 . S
C242 C238 1.477 . S
C242 H259 0.932 . S
C243 U226 2.882 . S
C243 C237 1.428 . S
C243 O246 1.301 . S
C243 O247 1.282 . S
O244 U226 2.441 . S
O244 C230 1.249 . S
O245 U226 2.420 1_565 S
O245 C230 1.202 1_565 S
O246 U226 2.455 . S
O246 C243 1.301 . S
O247 U226 2.449 . S
O247 C243 1.282 . S
H248 C221 0.931 . S
H249 C223 0.929 . S
H250 C224 0.930 . S
H251 C225 0.931 . S
H252 C232 0.932 . S
H253 C233 0.930 . S
H254 C234 0.929 . S
H255 C236 0.930 . S
H256 C238 0.932 . S
H257 C239 0.929 . S
H258 C240 0.928 . S
H259 C242 0.932 . S
C260 C261 1.264 . S
C260 C265 1.479 . S
C260 C270 1.465 . S
C261 C260 1.264 . S
C261 C263 1.339 . S
C261 H288 0.931 . S
C262 C263 1.395 . S
C262 C264 1.320 . S
C263 C261 1.339 . S
C263 C262 1.395 . S
C263 H289 0.929 . S
C264 C262 1.320 . S
C264 C265 1.405 . S
C264 H290 0.930 . S
C265 C260 1.479 . S
C265 C264 1.405 . S
C265 H291 0.931 . S
U266 O267 2.454 . S
U266 O268 2.458 . S
U266 C269 2.984 . S
U266 C270 2.847 . S
U266 C283 2.882 . S
U266 O284 2.441 . S
U266 O285 2.420 . S
U266 O286 2.455 . S
U266 O287 2.449 . S
O267 U266 2.454 . S
O267 C269 1.353 . S
O268 U266 2.458 . S
O268 C269 1.286 . S
C269 U266 2.984 . S
C269 O267 1.353 . S
C269 O268 1.286 . S
C269 C271 1.363 . S
C270 C260 1.465 . S
C270 U266 2.847 . S
C270 O284 1.249 . S
C270 O285 1.202 . S
C271 C269 1.363 . S
C271 C273 1.408 . S
C271 C276 1.342 . S
C272 C273 1.310 . S
C272 C275 1.461 . S
C272 H292 0.932 . S
C273 C271 1.408 . S
C273 C272 1.310 . S
C273 H293 0.930 . S
C274 C275 1.474 . S
C274 C276 1.285 . S
C274 H294 0.929 . S
C275 C272 1.461 . S
C275 C274 1.474 . S
C276 C271 1.342 . S
C276 C274 1.285 . S
C276 H295 0.930 . S
C277 C280 1.424 . S
C277 C282 1.245 . S
C277 C283 1.428 . S
C278 C281 1.260 . S
C278 C282 1.477 . S
C278 H296 0.932 . S
C279 C280 1.384 . S
C279 C281 1.479 . S
C279 H297 0.929 . S
C280 C277 1.424 . S
C280 C279 1.384 . S
C280 H298 0.928 . S
C281 C278 1.260 . S
C281 C279 1.479 . S
C282 C277 1.245 . S
C282 C278 1.477 . S
C282 H299 0.932 . S
C283 U266 2.882 . S
C283 C277 1.428 . S
C283 O286 1.301 . S
C283 O287 1.282 . S
O284 U266 2.441 . S
O284 C270 1.249 . S
O285 U266 2.420 . S
O285 C270 1.202 . S
O286 U266 2.455 . S
O286 C283 1.301 . S
O287 U266 2.449 . S
O287 C283 1.282 . S
H288 C261 0.931 . S
H289 C263 0.929 . S
H290 C264 0.930 . S
H291 C265 0.931 . S
H292 C272 0.932 . S
H293 C273 0.930 . S
H294 C274 0.929 . S
H295 C276 0.930 . S
H296 C278 0.932 . S
H297 C279 0.929 . S
H298 C280 0.928 . S
H299 C282 0.932 . S
H300 C318 0.951 . S
H301 C320 0.951 . S
H302 C322 0.950 . S
H303 C323 0.950 . S
H304 C325 0.950 . S
H305 C328 0.950 . S
H306 C329 0.950 . S
H307 C331 0.950 . S
H308 C332 0.950 . S
H309 C333 0.951 . S
H310 C335 0.951 . S
H311 C337 0.950 . S
H312 C338 0.950 . S
H313 C340 0.950 . S
H314 C343 0.950 . S
H315 C344 0.950 . S
H316 C346 0.950 . S
H317 C347 0.950 . S
C318 H300 0.951 . S
C318 C319 1.366 . S
C318 C320 1.388 . S
C319 C318 1.366 . S
C319 C323 1.385 . S
C320 H301 0.951 . S
C320 C318 1.388 . S
C320 C321 1.366 . S
C321 C320 1.366 . S
C321 C322 1.414 . S
C321 C324 1.499 . S
C322 H302 0.950 . S
C322 C321 1.414 . S
C322 C323 1.374 . S
C323 H303 0.950 . S
C323 C319 1.385 . S
C323 C322 1.374 . S
C324 C321 1.499 . S
C324 C325 1.373 . S
C324 C326 1.389 . S
C325 H304 0.950 . S
C325 C324 1.373 . S
C325 C341 1.377 . S
C326 C324 1.389 . S
C326 C327 1.524 . S
C326 C340 1.377 . S
C327 C326 1.524 . S
C327 C328 1.397 . S
C327 C332 1.363 . S
C328 H305 0.950 . S
C328 C327 1.397 . S
C328 C329 1.334 . S
C329 H306 0.950 . S
C329 C328 1.334 . S
C329 C330 1.287 . S
C330 C329 1.287 . S
C330 C331 1.524 . S
C330 H349 0.913 . S
C331 H307 0.950 . S
C331 C330 1.524 . S
C331 C332 1.415 . S
C332 H308 0.950 . S
C332 C327 1.363 . S
C332 C331 1.415 . S
C333 H309 0.951 . S
C333 C334 1.366 . S
C333 C335 1.388 . S
C334 C333 1.366 . S
C334 C338 1.385 . S
C335 H310 0.951 . S
C335 C333 1.388 . S
C335 C336 1.366 . S
C336 C335 1.366 . S
C336 C337 1.414 . S
C336 C339 1.499 . S
C337 H311 0.950 . S
C337 C336 1.414 . S
C337 C338 1.374 . S
C338 H312 0.950 . S
C338 C334 1.385 . S
C338 C337 1.374 . S
C339 C336 1.499 . S
C339 C340 1.373 . S
C339 C341 1.389 . S
C340 H313 0.950 . S
C340 C326 1.377 . S
C340 C339 1.373 . S
C341 C325 1.377 . S
C341 C339 1.389 . S
C341 C342 1.524 . S
C342 C341 1.524 . S
C342 C343 1.397 . S
C342 C347 1.363 . S
C343 H314 0.950 . S
C343 C342 1.397 . S
C343 C344 1.334 . S
C344 H315 0.950 . S
C344 C343 1.334 . S
C344 C345 1.287 . S
C345 C344 1.287 . S
C345 C346 1.524 . S
C345 H348 0.999 . S
C346 H316 0.950 . S
C346 C345 1.524 . S
C346 C347 1.415 . S
C347 H317 0.950 . S
C347 C342 1.363 . S
C347 C346 1.415 . S
H348 C345 0.999 . S
H349 C330 0.913 . S
H350 C368 0.951 . S
H351 C370 0.951 . S
H352 C372 0.950 . S
H353 C373 0.950 . S
H354 C375 0.950 . S
H355 C378 0.950 . S
H356 C379 0.950 . S
H357 C381 0.950 . S
H358 C382 0.950 . S
H359 C383 0.951 . S
H360 C385 0.951 . S
H361 C387 0.950 . S
H362 C388 0.950 . S
H363 C390 0.950 . S
H364 C393 0.950 . S
H365 C394 0.950 . S
H366 C396 0.950 . S
H367 C397 0.950 . S
C368 H350 0.951 . S
C368 C369 1.366 . S
C368 C370 1.388 . S
C369 C368 1.366 . S
C369 C373 1.385 . S
C370 H351 0.951 . S
C370 C368 1.388 . S
C370 C371 1.366 . S
C371 C370 1.366 . S
C371 C372 1.414 . S
C371 C374 1.499 . S
C372 H352 0.950 . S
C372 C371 1.414 . S
C372 C373 1.374 . S
C373 H353 0.950 . S
C373 C369 1.385 . S
C373 C372 1.374 . S
C374 C371 1.499 . S
C374 C375 1.373 . S
C374 C376 1.389 . S
C375 H354 0.950 . S
C375 C374 1.373 . S
C375 C391 1.377 . S
C376 C374 1.389 . S
C376 C377 1.524 . S
C376 C390 1.377 . S
C377 C376 1.524 . S
C377 C378 1.397 . S
C377 C382 1.363 . S
C378 H355 0.950 . S
C378 C377 1.397 . S
C378 C379 1.334 . S
C379 H356 0.950 . S
C379 C378 1.334 . S
C379 C380 1.287 . S
C380 C379 1.287 . S
C380 C381 1.524 . S
C380 H399 0.913 . S
C381 H357 0.950 . S
C381 C380 1.524 . S
C381 C382 1.415 . S
C382 H358 0.950 . S
C382 C377 1.363 . S
C382 C381 1.415 . S
C383 H359 0.951 . S
C383 C384 1.366 . S
C383 C385 1.388 . S
C384 C383 1.366 . S
C384 C388 1.385 . S
C385 H360 0.951 . S
C385 C383 1.388 . S
C385 C386 1.366 . S
C386 C385 1.366 . S
C386 C387 1.414 . S
C386 C389 1.499 . S
C387 H361 0.950 . S
C387 C386 1.414 . S
C387 C388 1.374 . S
C388 H362 0.950 . S
C388 C384 1.385 . S
C388 C387 1.374 . S
C389 C386 1.499 . S
C389 C390 1.373 . S
C389 C391 1.389 . S
C390 H363 0.950 . S
C390 C376 1.377 . S
C390 C389 1.373 . S
C391 C375 1.377 . S
C391 C389 1.389 . S
C391 C392 1.524 . S
C392 C391 1.524 . S
C392 C393 1.397 . S
C392 C397 1.363 . S
C393 H364 0.950 . S
C393 C392 1.397 . S
C393 C394 1.334 . S
C394 H365 0.950 . S
C394 C393 1.334 . S
C394 C395 1.287 . S
C395 C394 1.287 . S
C395 C396 1.524 . S
C395 H398 0.999 . S
C396 H366 0.950 . S
C396 C395 1.524 . S
C396 C397 1.415 . S
C397 H367 0.950 . S
C397 C392 1.363 . S
C397 C396 1.415 . S
H398 C395 0.999 . S
H399 C380 0.913 . S
H400 C418 0.951 . S
H401 C420 0.951 . S
H402 C422 0.950 . S
H403 C423 0.950 . S
H404 C425 0.950 . S
H405 C428 0.950 . S
H406 C429 0.950 . S
H407 C431 0.950 . S
H408 C432 0.950 . S
H409 C433 0.951 . S
H410 C435 0.951 . S
H411 C437 0.950 . S
H412 C438 0.950 . S
H413 C440 0.950 . S
H414 C443 0.950 . S
H415 C444 0.950 . S
H416 C446 0.950 . S
H417 C447 0.950 . S
C418 H400 0.951 . S
C418 C419 1.366 . S
C418 C420 1.388 . S
C419 C418 1.366 . S
C419 C423 1.385 . S
C420 H401 0.951 . S
C420 C418 1.388 . S
C420 C421 1.366 . S
C421 C420 1.366 . S
C421 C422 1.414 . S
C421 C424 1.499 . S
C422 H402 0.950 . S
C422 C421 1.414 . S
C422 C423 1.374 . S
C423 H403 0.950 . S
C423 C419 1.385 . S
C423 C422 1.374 . S
C424 C421 1.499 . S
C424 C425 1.373 . S
C424 C426 1.389 . S
C425 H404 0.950 . S
C425 C424 1.373 . S
C425 C441 1.377 . S
C426 C424 1.389 . S
C426 C427 1.524 . S
C426 C440 1.377 . S
C427 C426 1.524 . S
C427 C428 1.397 . S
C427 C432 1.363 . S
C428 H405 0.950 . S
C428 C427 1.397 . S
C428 C429 1.334 . S
C429 H406 0.950 . S
C429 C428 1.334 . S
C429 C430 1.287 . S
C430 C429 1.287 . S
C430 C431 1.524 . S
C430 H449 0.913 . S
C431 H407 0.950 . S
C431 C430 1.524 . S
C431 C432 1.415 . S
C432 H408 0.950 . S
C432 C427 1.363 . S
C432 C431 1.415 . S
C433 H409 0.951 . S
C433 C434 1.366 . S
C433 C435 1.388 . S
C434 C433 1.366 . S
C434 C438 1.385 . S
C435 H410 0.951 . S
C435 C433 1.388 . S
C435 C436 1.366 . S
C436 C435 1.366 . S
C436 C437 1.414 . S
C436 C439 1.499 . S
C437 H411 0.950 . S
C437 C436 1.414 . S
C437 C438 1.374 . S
C438 H412 0.950 . S
C438 C434 1.385 . S
C438 C437 1.374 . S
C439 C436 1.499 . S
C439 C440 1.373 . S
C439 C441 1.389 . S
C440 H413 0.950 . S
C440 C426 1.377 . S
C440 C439 1.373 . S
C441 C425 1.377 . S
C441 C439 1.389 . S
C441 C442 1.524 . S
C442 C441 1.524 . S
C442 C443 1.397 . S
C442 C447 1.363 . S
C443 H414 0.950 . S
C443 C442 1.397 . S
C443 C444 1.334 . S
C444 H415 0.950 . S
C444 C443 1.334 . S
C444 C445 1.287 . S
C445 C444 1.287 . S
C445 C446 1.524 . S
C445 H448 0.999 . S
C446 H416 0.950 . S
C446 C445 1.524 . S
C446 C447 1.415 . S
C447 H417 0.950 . S
C447 C442 1.363 . S
C447 C446 1.415 . S
H448 C445 0.999 . S
H449 C430 0.913 . S
H450 C468 0.951 . S
H451 C470 0.951 . S
H452 C472 0.950 . S
H453 C473 0.950 . S
H454 C475 0.950 . S
H455 C478 0.950 . S
H456 C479 0.950 . S
H457 C481 0.950 . S
H458 C482 0.950 . S
H459 C483 0.951 . S
H460 C485 0.951 . S
H461 C487 0.950 . S
H462 C488 0.950 . S
H463 C490 0.950 . S
H464 C493 0.950 . S
H465 C494 0.950 . S
H466 C496 0.950 . S
H467 C497 0.950 . S
C468 H450 0.951 . S
C468 C469 1.366 . S
C468 C470 1.388 . S
C469 C468 1.366 . S
C469 C473 1.385 . S
C470 H451 0.951 . S
C470 C468 1.388 . S
C470 C471 1.366 . S
C471 C470 1.366 . S
C471 C472 1.414 . S
C471 C474 1.499 . S
C472 H452 0.950 . S
C472 C471 1.414 . S
C472 C473 1.374 . S
C473 H453 0.950 . S
C473 C469 1.385 . S
C473 C472 1.374 . S
C474 C471 1.499 . S
C474 C475 1.373 . S
C474 C476 1.389 . S
C475 H454 0.950 . S
C475 C474 1.373 . S
C475 C491 1.377 . S
C476 C474 1.389 . S
C476 C477 1.524 . S
C476 C490 1.377 . S
C477 C476 1.524 . S
C477 C478 1.397 . S
C477 C482 1.363 . S
C478 H455 0.950 . S
C478 C477 1.397 . S
C478 C479 1.334 . S
C479 H456 0.950 . S
C479 C478 1.334 . S
C479 C480 1.287 . S
C480 C479 1.287 . S
C480 C481 1.524 . S
C480 H499 0.913 . S
C481 H457 0.950 . S
C481 C480 1.524 . S
C481 C482 1.415 . S
C482 H458 0.950 . S
C482 C477 1.363 . S
C482 C481 1.415 . S
C483 H459 0.951 . S
C483 C484 1.366 . S
C483 C485 1.388 . S
C484 C483 1.366 . S
C484 C488 1.385 . S
C485 H460 0.951 . S
C485 C483 1.388 . S
C485 C486 1.366 . S
C486 C485 1.366 . S
C486 C487 1.414 . S
C486 C489 1.499 . S
C487 H461 0.950 . S
C487 C486 1.414 . S
C487 C488 1.374 . S
C488 H462 0.950 . S
C488 C484 1.385 . S
C488 C487 1.374 . S
C489 C486 1.499 . S
C489 C490 1.373 . S
C489 C491 1.389 . S
C490 H463 0.950 . S
C490 C476 1.377 . S
C490 C489 1.373 . S
C491 C475 1.377 . S
C491 C489 1.389 . S
C491 C492 1.524 . S
C492 C491 1.524 . S
C492 C493 1.397 . S
C492 C497 1.363 . S
C493 H464 0.950 . S
C493 C492 1.397 . S
C493 C494 1.334 . S
C494 H465 0.950 . S
C494 C493 1.334 . S
C494 C495 1.287 . S
C495 C494 1.287 . S
C495 C496 1.524 . S
C495 H498 0.999 . S
C496 H466 0.950 . S
C496 C495 1.524 . S
C496 C497 1.415 . S
C497 H467 0.950 . S
C497 C492 1.363 . S
C497 C496 1.415 . S
H498 C495 0.999 . S
H499 C480 0.913 . S
H500 C518 0.951 . S
H501 C520 0.951 . S
H502 C522 0.950 . S
H503 C523 0.950 . S
H504 C525 0.950 . S
H505 C528 0.950 . S
H506 C529 0.950 . S
H507 C531 0.950 . S
H508 C532 0.950 . S
H509 C533 0.951 . S
H510 C535 0.951 . S
H511 C537 0.950 . S
H512 C538 0.950 . S
H513 C540 0.950 . S
H514 C543 0.950 . S
H515 C544 0.950 . S
H516 C546 0.950 . S
H517 C547 0.950 . S
C518 H500 0.951 . S
C518 C519 1.366 . S
C518 C520 1.388 . S
C519 C518 1.366 . S
C519 C523 1.385 . S
C520 H501 0.951 . S
C520 C518 1.388 . S
C520 C521 1.366 . S
C521 C520 1.366 . S
C521 C522 1.414 . S
C521 C524 1.499 . S
C522 H502 0.950 . S
C522 C521 1.414 . S
C522 C523 1.374 . S
C523 H503 0.950 . S
C523 C519 1.385 . S
C523 C522 1.374 . S
C524 C521 1.499 . S
C524 C525 1.373 . S
C524 C526 1.389 . S
C525 H504 0.950 . S
C525 C524 1.373 . S
C525 C541 1.377 . S
C526 C524 1.389 . S
C526 C527 1.524 . S
C526 C540 1.377 . S
C527 C526 1.524 . S
C527 C528 1.397 . S
C527 C532 1.363 . S
C528 H505 0.950 . S
C528 C527 1.397 . S
C528 C529 1.334 . S
C529 H506 0.950 . S
C529 C528 1.334 . S
C529 C530 1.287 . S
C530 C529 1.287 . S
C530 C531 1.524 . S
C530 H549 0.913 . S
C531 H507 0.950 . S
C531 C530 1.524 . S
C531 C532 1.415 . S
C532 H508 0.950 . S
C532 C527 1.363 . S
C532 C531 1.415 . S
C533 H509 0.951 . S
C533 C534 1.366 . S
C533 C535 1.388 . S
C534 C533 1.366 . S
C534 C538 1.385 . S
C535 H510 0.951 . S
C535 C533 1.388 . S
C535 C536 1.366 . S
C536 C535 1.366 . S
C536 C537 1.414 . S
C536 C539 1.499 . S
C537 H511 0.950 . S
C537 C536 1.414 . S
C537 C538 1.374 . S
C538 H512 0.950 . S
C538 C534 1.385 . S
C538 C537 1.374 . S
C539 C536 1.499 . S
C539 C540 1.373 . S
C539 C541 1.389 . S
C540 H513 0.950 . S
C540 C526 1.377 . S
C540 C539 1.373 . S
C541 C525 1.377 . S
C541 C539 1.389 . S
C541 C542 1.524 . S
C542 C541 1.524 . S
C542 C543 1.397 . S
C542 C547 1.363 . S
C543 H514 0.950 . S
C543 C542 1.397 . S
C543 C544 1.334 . S
C544 H515 0.950 . S
C544 C543 1.334 . S
C544 C545 1.287 . S
C545 C544 1.287 . S
C545 C546 1.524 . S
C545 H548 0.999 . S
C546 H516 0.950 . S
C546 C545 1.524 . S
C546 C547 1.415 . S
C547 H517 0.950 . S
C547 C542 1.363 . S
C547 C546 1.415 . S
H548 C545 0.999 . S
H549 C530 0.913 . S
H550 C568 0.951 . S
H551 C570 0.951 . S
H552 C572 0.950 . S
H553 C573 0.950 . S
H554 C575 0.950 . S
H555 C578 0.950 . S
H556 C579 0.950 . S
H557 C581 0.950 . S
H558 C582 0.950 . S
H559 C583 0.951 . S
H560 C585 0.951 . S
H561 C587 0.950 . S
H562 C588 0.950 . S
H563 C590 0.950 . S
H564 C593 0.950 . S
H565 C594 0.950 . S
H566 C596 0.950 . S
H567 C597 0.950 . S
C568 H550 0.951 . S
C568 C569 1.366 . S
C568 C570 1.388 . S
C569 C568 1.366 . S
C569 C573 1.385 . S
C570 H551 0.951 . S
C570 C568 1.388 . S
C570 C571 1.366 . S
C571 C570 1.366 . S
C571 C572 1.414 . S
C571 C574 1.499 . S
C572 H552 0.950 . S
C572 C571 1.414 . S
C572 C573 1.374 . S
C573 H553 0.950 . S
C573 C569 1.385 . S
C573 C572 1.374 . S
C574 C571 1.499 . S
C574 C575 1.373 . S
C574 C576 1.389 . S
C575 H554 0.950 . S
C575 C574 1.373 . S
C575 C591 1.377 . S
C576 C574 1.389 . S
C576 C577 1.524 . S
C576 C590 1.377 . S
C577 C576 1.524 . S
C577 C578 1.397 . S
C577 C582 1.363 . S
C578 H555 0.950 . S
C578 C577 1.397 . S
C578 C579 1.334 . S
C579 H556 0.950 . S
C579 C578 1.334 . S
C579 C580 1.287 . S
C580 C579 1.287 . S
C580 C581 1.524 . S
C580 H599 0.913 . S
C581 H557 0.950 . S
C581 C580 1.524 . S
C581 C582 1.415 . S
C582 H558 0.950 . S
C582 C577 1.363 . S
C582 C581 1.415 . S
C583 H559 0.951 . S
C583 C584 1.366 . S
C583 C585 1.388 . S
C584 C583 1.366 . S
C584 C588 1.385 . S
C585 H560 0.951 . S
C585 C583 1.388 . S
C585 C586 1.366 . S
C586 C585 1.366 . S
C586 C587 1.414 . S
C586 C589 1.499 . S
C587 H561 0.950 . S
C587 C586 1.414 . S
C587 C588 1.374 . S
C588 H562 0.950 . S
C588 C584 1.385 . S
C588 C587 1.374 . S
C589 C586 1.499 . S
C589 C590 1.373 . S
C589 C591 1.389 . S
C590 H563 0.950 . S
C590 C576 1.377 . S
C590 C589 1.373 . S
C591 C575 1.377 . S
C591 C589 1.389 . S
C591 C592 1.524 . S
C592 C591 1.524 . S
C592 C593 1.397 . S
C592 C597 1.363 . S
C593 H564 0.950 . S
C593 C592 1.397 . S
C593 C594 1.334 . S
C594 H565 0.950 . S
C594 C593 1.334 . S
C594 C595 1.287 . S
C595 C594 1.287 . S
C595 C596 1.524 . S
C595 H598 0.999 . S
C596 H566 0.950 . S
C596 C595 1.524 . S
C596 C597 1.415 . S
C597 H567 0.950 . S
C597 C592 1.363 . S
C597 C596 1.415 . S
H598 C595 0.999 . S
H599 C580 0.913 . S
H600 C618 0.951 . S
H601 C620 0.951 . S
H602 C622 0.950 . S
H603 C623 0.950 . S
H604 C625 0.950 . S
H605 C628 0.950 . S
H606 C629 0.950 . S
H607 C631 0.950 . S
H608 C632 0.950 . S
H609 C633 0.951 . S
H610 C635 0.951 . S
H611 C637 0.950 . S
H612 C638 0.950 . S
H613 C640 0.950 . S
H614 C643 0.950 . S
H615 C644 0.950 . S
H616 C646 0.950 . S
H617 C647 0.950 . S
C618 H600 0.951 . S
C618 C619 1.366 . S
C618 C620 1.388 . S
C619 C618 1.366 . S
C619 C623 1.385 . S
C620 H601 0.951 . S
C620 C618 1.388 . S
C620 C621 1.366 . S
C621 C620 1.366 . S
C621 C622 1.414 . S
C621 C624 1.499 . S
C622 H602 0.950 . S
C622 C621 1.414 . S
C622 C623 1.374 . S
C623 H603 0.950 . S
C623 C619 1.385 . S
C623 C622 1.374 . S
C624 C621 1.499 . S
C624 C625 1.373 . S
C624 C626 1.389 . S
C625 H604 0.950 . S
C625 C624 1.373 . S
C625 C641 1.377 . S
C626 C624 1.389 . S
C626 C627 1.524 . S
C626 C640 1.377 . S
C627 C626 1.524 . S
C627 C628 1.397 . S
C627 C632 1.363 . S
C628 H605 0.950 . S
C628 C627 1.397 . S
C628 C629 1.334 . S
C629 H606 0.950 . S
C629 C628 1.334 . S
C629 C630 1.287 . S
C630 C629 1.287 . S
C630 C631 1.524 . S
C630 H649 0.913 . S
C631 H607 0.950 . S
C631 C630 1.524 . S
C631 C632 1.415 . S
C632 H608 0.950 . S
C632 C627 1.363 . S
C632 C631 1.415 . S
C633 H609 0.951 . S
C633 C634 1.366 . S
C633 C635 1.388 . S
C634 C633 1.366 . S
C634 C638 1.385 . S
C635 H610 0.951 . S
C635 C633 1.388 . S
C635 C636 1.366 . S
C636 C635 1.366 . S
C636 C637 1.414 . S
C636 C639 1.499 . S
C637 H611 0.950 . S
C637 C636 1.414 . S
C637 C638 1.374 . S
C638 H612 0.950 . S
C638 C634 1.385 . S
C638 C637 1.374 . S
C639 C636 1.499 . S
C639 C640 1.373 . S
C639 C641 1.389 . S
C640 H613 0.950 . S
C640 C626 1.377 . S
C640 C639 1.373 . S
C641 C625 1.377 . S
C641 C639 1.389 . S
C641 C642 1.524 . S
C642 C641 1.524 . S
C642 C643 1.397 . S
C642 C647 1.363 . S
C643 H614 0.950 . S
C643 C642 1.397 . S
C643 C644 1.334 . S
C644 H615 0.950 . S
C644 C643 1.334 . S
C644 C645 1.287 . S
C645 C644 1.287 . S
C645 C646 1.524 . S
C645 H648 0.999 . S
C646 H616 0.950 . S
C646 C645 1.524 . S
C646 C647 1.415 . S
C647 H617 0.950 . S
C647 C642 1.363 . S
C647 C646 1.415 . S
H648 C645 0.999 . S
H649 C630 0.913 . S
H650 C668 0.951 . S
H651 C670 0.951 . S
H652 C672 0.950 . S
H653 C673 0.950 . S
H654 C675 0.950 . S
H655 C678 0.950 . S
H656 C679 0.950 . S
H657 C681 0.950 . S
H658 C682 0.950 . S
H659 C683 0.951 . S
H660 C685 0.951 . S
H661 C687 0.950 . S
H662 C688 0.950 . S
H663 C690 0.950 . S
H664 C693 0.950 . S
H665 C694 0.950 . S
H666 C696 0.950 . S
H667 C697 0.950 . S
C668 H650 0.951 . S
C668 C669 1.366 . S
C668 C670 1.388 . S
C669 C668 1.366 . S
C669 C673 1.385 . S
C670 H651 0.951 . S
C670 C668 1.388 . S
C670 C671 1.366 . S
C671 C670 1.366 . S
C671 C672 1.414 . S
C671 C674 1.499 . S
C672 H652 0.950 . S
C672 C671 1.414 . S
C672 C673 1.374 . S
C673 H653 0.950 . S
C673 C669 1.385 . S
C673 C672 1.374 . S
C674 C671 1.499 . S
C674 C675 1.373 . S
C674 C676 1.389 . S
C675 H654 0.950 . S
C675 C674 1.373 . S
C675 C691 1.377 . S
C676 C674 1.389 . S
C676 C677 1.524 . S
C676 C690 1.377 . S
C677 C676 1.524 . S
C677 C678 1.397 . S
C677 C682 1.363 . S
C678 H655 0.950 . S
C678 C677 1.397 . S
C678 C679 1.334 . S
C679 H656 0.950 . S
C679 C678 1.334 . S
C679 C680 1.287 . S
C680 C679 1.287 . S
C680 C681 1.524 . S
C680 H699 0.913 . S
C681 H657 0.950 . S
C681 C680 1.524 . S
C681 C682 1.415 . S
C682 H658 0.950 . S
C682 C677 1.363 . S
C682 C681 1.415 . S
C683 H659 0.951 . S
C683 C684 1.366 . S
C683 C685 1.388 . S
C684 C683 1.366 . S
C684 C688 1.385 . S
C685 H660 0.951 . S
C685 C683 1.388 . S
C685 C686 1.366 . S
C686 C685 1.366 . S
C686 C687 1.414 . S
C686 C689 1.499 . S
C687 H661 0.950 . S
C687 C686 1.414 . S
C687 C688 1.374 . S
C688 H662 0.950 . S
C688 C684 1.385 . S
C688 C687 1.374 . S
C689 C686 1.499 . S
C689 C690 1.373 . S
C689 C691 1.389 . S
C690 H663 0.950 . S
C690 C676 1.377 . S
C690 C689 1.373 . S
C691 C675 1.377 . S
C691 C689 1.389 . S
C691 C692 1.524 . S
C692 C691 1.524 . S
C692 C693 1.397 . S
C692 C697 1.363 . S
C693 H664 0.950 . S
C693 C692 1.397 . S
C693 C694 1.334 . S
C694 H665 0.950 . S
C694 C693 1.334 . S
C694 C695 1.287 . S
C695 C694 1.287 . S
C695 C696 1.524 . S
C695 H698 0.999 . S
C696 H666 0.950 . S
C696 C695 1.524 . S
C696 C697 1.415 . S
C697 H667 0.950 . S
C697 C692 1.363 . S
C697 C696 1.415 . S
H698 C695 0.999 . S
H699 C680 0.913 . S
H700 C718 0.951 . S
H701 C720 0.951 . S
H702 C722 0.950 . S
H703 C723 0.950 . S
H704 C725 0.950 . S
H705 C728 0.950 . S
H706 C729 0.950 . S
H707 C731 0.950 . S
H708 C732 0.950 . S
H709 C733 0.951 . S
H710 C735 0.951 . S
H711 C737 0.950 . S
H712 C738 0.950 . S
H713 C740 0.950 . S
H714 C743 0.950 . S
H715 C744 0.950 . S
H716 C746 0.950 . S
H717 C747 0.950 . S
C718 H700 0.951 . S
C718 C719 1.366 . S
C718 C720 1.388 . S
C719 C718 1.366 . S
C719 C723 1.385 . S
C720 H701 0.951 . S
C720 C718 1.388 . S
C720 C721 1.366 . S
C721 C720 1.366 . S
C721 C722 1.414 . S
C721 C724 1.499 . S
C722 H702 0.950 . S
C722 C721 1.414 . S
C722 C723 1.374 . S
C723 H703 0.950 . S
C723 C719 1.385 . S
C723 C722 1.374 . S
C724 C721 1.499 . S
C724 C725 1.373 . S
C724 C726 1.389 . S
C725 H704 0.950 . S
C725 C724 1.373 . S
C725 C741 1.377 . S
C726 C724 1.389 . S
C726 C727 1.524 . S
C726 C740 1.377 . S
C727 C726 1.524 . S
C727 C728 1.397 . S
C727 C732 1.363 . S
C728 H705 0.950 . S
C728 C727 1.397 . S
C728 C729 1.334 . S
C729 H706 0.950 . S
C729 C728 1.334 . S
C729 C730 1.287 . S
C730 C729 1.287 . S
C730 C731 1.524 . S
C730 H749 0.913 . S
C731 H707 0.950 . S
C731 C730 1.524 . S
C731 C732 1.415 . S
C732 H708 0.950 . S
C732 C727 1.363 . S
C732 C731 1.415 . S
C733 H709 0.951 . S
C733 C734 1.366 . S
C733 C735 1.388 . S
C734 C733 1.366 . S
C734 C738 1.385 . S
C735 H710 0.951 . S
C735 C733 1.388 . S
C735 C736 1.366 . S
C736 C735 1.366 . S
C736 C737 1.414 . S
C736 C739 1.499 . S
C737 H711 0.950 . S
C737 C736 1.414 . S
C737 C738 1.374 . S
C738 H712 0.950 . S
C738 C734 1.385 . S
C738 C737 1.374 . S
C739 C736 1.499 . S
C739 C740 1.373 . S
C739 C741 1.389 . S
C740 H713 0.950 . S
C740 C726 1.377 . S
C740 C739 1.373 . S
C741 C725 1.377 . S
C741 C739 1.389 . S
C741 C742 1.524 . S
C742 C741 1.524 . S
C742 C743 1.397 . S
C742 C747 1.363 . S
C743 H714 0.950 . S
C743 C742 1.397 . S
C743 C744 1.334 . S
C744 H715 0.950 . S
C744 C743 1.334 . S
C744 C745 1.287 . S
C745 C744 1.287 . S
C745 C746 1.524 . S
C745 H748 0.999 . S
C746 H716 0.950 . S
C746 C745 1.524 . S
C746 C747 1.415 . S
C747 H717 0.950 . S
C747 C742 1.363 . S
C747 C746 1.415 . S
H748 C745 0.999 . S
H749 C730 0.913 . S
H750 C768 0.951 . S
H751 C770 0.951 . S
H752 C772 0.950 . S
H753 C773 0.950 . S
H754 C775 0.950 . S
H755 C778 0.950 . S
H756 C779 0.950 . S
H757 C781 0.950 . S
H758 C782 0.950 . S
H759 C783 0.951 . S
H760 C785 0.951 . S
H761 C787 0.950 . S
H762 C788 0.950 . S
H763 C790 0.950 . S
H764 C793 0.950 . S
H765 C794 0.950 . S
H766 C796 0.950 . S
H767 C797 0.950 . S
C768 H750 0.951 . S
C768 C769 1.366 . S
C768 C770 1.388 . S
C769 C768 1.366 . S
C769 C773 1.385 . S
C770 H751 0.951 . S
C770 C768 1.388 . S
C770 C771 1.366 . S
C771 C770 1.366 . S
C771 C772 1.414 . S
C771 C774 1.499 . S
C772 H752 0.950 . S
C772 C771 1.414 . S
C772 C773 1.374 . S
C773 H753 0.950 . S
C773 C769 1.385 . S
C773 C772 1.374 . S
C774 C771 1.499 . S
C774 C775 1.373 . S
C774 C776 1.389 . S
C775 H754 0.950 . S
C775 C774 1.373 . S
C775 C791 1.377 . S
C776 C774 1.389 . S
C776 C777 1.524 . S
C776 C790 1.377 . S
C777 C776 1.524 . S
C777 C778 1.397 . S
C777 C782 1.363 . S
C778 H755 0.950 . S
C778 C777 1.397 . S
C778 C779 1.334 . S
C779 H756 0.950 . S
C779 C778 1.334 . S
C779 C780 1.287 . S
C780 C779 1.287 . S
C780 C781 1.524 . S
C780 H799 0.913 . S
C781 H757 0.950 . S
C781 C780 1.524 . S
C781 C782 1.415 . S
C782 H758 0.950 . S
C782 C777 1.363 . S
C782 C781 1.415 . S
C783 H759 0.951 . S
C783 C784 1.366 . S
C783 C785 1.388 . S
C784 C783 1.366 . S
C784 C788 1.385 . S
C785 H760 0.951 . S
C785 C783 1.388 . S
C785 C786 1.366 . S
C786 C785 1.366 . S
C786 C787 1.414 . S
C786 C789 1.499 . S
C787 H761 0.950 . S
C787 C786 1.414 . S
C787 C788 1.374 . S
C788 H762 0.950 . S
C788 C784 1.385 . S
C788 C787 1.374 . S
C789 C786 1.499 . S
C789 C790 1.373 . S
C789 C791 1.389 . S
C790 H763 0.950 . S
C790 C776 1.377 . S
C790 C789 1.373 . S
C791 C775 1.377 . S
C791 C789 1.389 . S
C791 C792 1.524 . S
C792 C791 1.524 . S
C792 C793 1.397 . S
C792 C797 1.363 . S
C793 H764 0.950 . S
C793 C792 1.397 . S
C793 C794 1.334 . S
C794 H765 0.950 . S
C794 C793 1.334 . S
C794 C795 1.287 . S
C795 C794 1.287 . S
C795 C796 1.524 . S
C795 H798 0.999 . S
C796 H766 0.950 . S
C796 C795 1.524 . S
C796 C797 1.415 . S
C797 H767 0.950 . S
C797 C792 1.363 . S
C797 C796 1.415 . S
H798 C795 0.999 . S
H799 C780 0.913 . S
H800 C818 0.951 . S
H801 C820 0.951 . S
H802 C822 0.950 . S
H803 C823 0.950 . S
H804 C825 0.950 . S
H805 C828 0.950 . S
H806 C829 0.950 . S
H807 C831 0.950 . S
H808 C832 0.950 . S
H809 C833 0.951 . S
H810 C835 0.951 . S
H811 C837 0.950 . S
H812 C838 0.950 . S
H813 C840 0.950 . S
H814 C843 0.950 . S
H815 C844 0.950 . S
H816 C846 0.950 . S
H817 C847 0.950 . S
C818 H800 0.951 . S
C818 C819 1.366 . S
C818 C820 1.388 . S
C819 C818 1.366 . S
C819 C823 1.385 . S
C820 H801 0.951 . S
C820 C818 1.388 . S
C820 C821 1.366 . S
C821 C820 1.366 . S
C821 C822 1.414 . S
C821 C824 1.499 . S
C822 H802 0.950 . S
C822 C821 1.414 . S
C822 C823 1.374 . S
C823 H803 0.950 . S
C823 C819 1.385 . S
C823 C822 1.374 . S
C824 C821 1.499 . S
C824 C825 1.373 . S
C824 C826 1.389 . S
C825 H804 0.950 . S
C825 C824 1.373 . S
C825 C841 1.377 . S
C826 C824 1.389 . S
C826 C827 1.524 . S
C826 C840 1.377 . S
C827 C826 1.524 . S
C827 C828 1.397 . S
C827 C832 1.363 . S
C828 H805 0.950 . S
C828 C827 1.397 . S
C828 C829 1.334 . S
C829 H806 0.950 . S
C829 C828 1.334 . S
C829 C830 1.287 . S
C830 C829 1.287 . S
C830 C831 1.524 . S
C830 H849 0.913 . S
C831 H807 0.950 . S
C831 C830 1.524 . S
C831 C832 1.415 . S
C832 H808 0.950 . S
C832 C827 1.363 . S
C832 C831 1.415 . S
C833 H809 0.951 . S
C833 C834 1.366 . S
C833 C835 1.388 . S
C834 C833 1.366 . S
C834 C838 1.385 . S
C835 H810 0.951 . S
C835 C833 1.388 . S
C835 C836 1.366 . S
C836 C835 1.366 . S
C836 C837 1.414 . S
C836 C839 1.499 . S
C837 H811 0.950 . S
C837 C836 1.414 . S
C837 C838 1.374 . S
C838 H812 0.950 . S
C838 C834 1.385 . S
C838 C837 1.374 . S
C839 C836 1.499 . S
C839 C840 1.373 . S
C839 C841 1.389 . S
C840 H813 0.950 . S
C840 C826 1.377 . S
C840 C839 1.373 . S
C841 C825 1.377 . S
C841 C839 1.389 . S
C841 C842 1.524 . S
C842 C841 1.524 . S
C842 C843 1.397 . S
C842 C847 1.363 . S
C843 H814 0.950 . S
C843 C842 1.397 . S
C843 C844 1.334 . S
C844 H815 0.950 . S
C844 C843 1.334 . S
C844 C845 1.287 . S
C845 C844 1.287 . S
C845 C846 1.524 . S
C845 H848 0.999 . S
C846 H816 0.950 . S
C846 C845 1.524 . S
C846 C847 1.415 . S
C847 H817 0.950 . S
C847 C842 1.363 . S
C847 C846 1.415 . S
H848 C845 0.999 . S
H849 C830 0.913 . S
H850 C868 0.951 . S
H851 C870 0.951 . S
H852 C872 0.950 . S
H853 C873 0.950 . S
H854 C875 0.950 . S
H855 C878 0.950 . S
H856 C879 0.950 . S
H857 C881 0.950 . S
H858 C882 0.950 . S
H859 C883 0.951 . S
H860 C885 0.951 . S
H861 C887 0.950 . S
H862 C888 0.950 . S
H863 C890 0.950 . S
H864 C893 0.950 . S
H865 C894 0.950 . S
H866 C896 0.950 . S
H867 C897 0.950 . S
C868 H850 0.951 . S
C868 C869 1.366 . S
C868 C870 1.388 . S
C869 C868 1.366 . S
C869 C873 1.385 . S
C870 H851 0.951 . S
C870 C868 1.388 . S
C870 C871 1.366 . S
C871 C870 1.366 . S
C871 C872 1.414 . S
C871 C874 1.499 . S
C872 H852 0.950 . S
C872 C871 1.414 . S
C872 C873 1.374 . S
C873 H853 0.950 . S
C873 C869 1.385 . S
C873 C872 1.374 . S
C874 C871 1.499 . S
C874 C875 1.373 . S
C874 C876 1.389 . S
C875 H854 0.950 . S
C875 C874 1.373 . S
C875 C891 1.377 . S
C876 C874 1.389 . S
C876 C877 1.524 . S
C876 C890 1.377 . S
C877 C876 1.524 . S
C877 C878 1.397 . S
C877 C882 1.363 . S
C878 H855 0.950 . S
C878 C877 1.397 . S
C878 C879 1.334 . S
C879 H856 0.950 . S
C879 C878 1.334 . S
C879 C880 1.287 . S
C880 C879 1.287 . S
C880 C881 1.524 . S
C880 H899 0.913 . S
C881 H857 0.950 . S
C881 C880 1.524 . S
C881 C882 1.415 . S
C882 H858 0.950 . S
C882 C877 1.363 . S
C882 C881 1.415 . S
C883 H859 0.951 . S
C883 C884 1.366 . S
C883 C885 1.388 . S
C884 C883 1.366 . S
C884 C888 1.385 . S
C885 H860 0.951 . S
C885 C883 1.388 . S
C885 C886 1.366 . S
C886 C885 1.366 . S
C886 C887 1.414 . S
C886 C889 1.499 . S
C887 H861 0.950 . S
C887 C886 1.414 . S
C887 C888 1.374 . S
C888 H862 0.950 . S
C888 C884 1.385 . S
C888 C887 1.374 . S
C889 C886 1.499 . S
C889 C890 1.373 . S
C889 C891 1.389 . S
C890 H863 0.950 . S
C890 C876 1.377 . S
C890 C889 1.373 . S
C891 C875 1.377 . S
C891 C889 1.389 . S
C891 C892 1.524 . S
C892 C891 1.524 . S
C892 C893 1.397 . S
C892 C897 1.363 . S
C893 H864 0.950 . S
C893 C892 1.397 . S
C893 C894 1.334 . S
C894 H865 0.950 . S
C894 C893 1.334 . S
C894 C895 1.287 . S
C895 C894 1.287 . S
C895 C896 1.524 . S
C895 H898 0.999 . S
C896 H866 0.950 . S
C896 C895 1.524 . S
C896 C897 1.415 . S
C897 H867 0.950 . S
C897 C892 1.363 . S
C897 C896 1.415 . S
H898 C895 0.999 . S
H899 C880 0.913 . S
H900 C918 0.951 1_655 S
H901 C920 0.951 1_655 S
H902 C922 0.950 . S
H903 C923 0.950 . S
H904 C925 0.950 . S
H905 C928 0.950 . S
H906 C929 0.950 . S
H907 C931 0.950 . S
H908 C932 0.950 . S
H909 C933 0.951 . S
H910 C935 0.951 . S
H911 C937 0.950 1_655 S
H912 C938 0.949 1_655 S
H913 C940 0.950 . S
H914 C943 0.950 . S
H915 C944 0.950 . S
H916 C946 0.950 . S
H917 C947 0.950 . S
C918 H900 0.951 1_455 S
C918 C919 1.366 . S
C918 C920 1.388 . S
C919 C918 1.366 . S
C919 C923 1.385 . S
C920 H901 0.951 1_455 S
C920 C918 1.388 . S
C920 C921 1.366 . S
C921 C920 1.366 . S
C921 C922 1.414 . S
C921 C924 1.499 . S
C922 H902 0.950 . S
C922 C921 1.414 . S
C922 C923 1.374 . S
C923 H903 0.950 . S
C923 C919 1.385 . S
C923 C922 1.374 . S
C924 C921 1.499 . S
C924 C925 1.373 . S
C924 C926 1.389 . S
C925 H904 0.950 . S
C925 C924 1.373 . S
C925 C941 1.377 . S
C926 C924 1.389 . S
C926 C927 1.524 . S
C926 C940 1.377 . S
C927 C926 1.524 . S
C927 C928 1.397 . S
C927 C932 1.363 1_455 S
C928 H905 0.950 . S
C928 C927 1.397 . S
C928 C929 1.334 . S
C929 H906 0.950 . S
C929 C928 1.334 . S
C929 C930 1.287 . S
C930 C929 1.287 . S
C930 C931 1.524 1_455 S
C930 H949 0.911 . S
C931 H907 0.950 . S
C931 C930 1.524 1_655 S
C931 C932 1.415 . S
C932 H908 0.950 . S
C932 C927 1.363 1_655 S
C932 C931 1.415 . S
C933 H909 0.951 . S
C933 C934 1.366 . S
C933 C935 1.388 1_556 S
C934 C933 1.366 . S
C934 C938 1.385 . S
C935 H910 0.951 . S
C935 C933 1.388 1_554 S
C935 C936 1.366 . S
C936 C935 1.366 . S
C936 C937 1.414 . S
C936 C939 1.499 . S
C937 H911 0.950 1_455 S
C937 C936 1.414 . S
C937 C938 1.374 1_554 S
C938 H912 0.949 1_455 S
C938 C934 1.385 . S
C938 C937 1.374 1_556 S
C939 C936 1.499 . S
C939 C940 1.373 . S
C939 C941 1.389 . S
C940 H913 0.950 . S
C940 C926 1.377 . S
C940 C939 1.373 . S
C941 C925 1.377 . S
C941 C939 1.389 . S
C941 C942 1.524 . S
C942 C941 1.524 . S
C942 C943 1.397 . S
C942 C947 1.363 . S
C943 H914 0.950 . S
C943 C942 1.397 . S
C943 C944 1.334 . S
C944 H915 0.950 . S
C944 C943 1.334 . S
C944 C945 1.287 . S
C945 C944 1.287 . S
C945 C946 1.524 . S
C945 H948 0.999 . S
C946 H916 0.950 . S
C946 C945 1.524 . S
C946 C947 1.415 . S
C947 H917 0.950 . S
C947 C942 1.363 . S
C947 C946 1.415 . S
H948 C945 0.999 . S
H949 C930 0.911 . S
H950 C968 0.951 . S
H951 C970 0.951 . S
H952 C972 0.950 1_565 S
H953 C973 0.950 1_565 S
H954 C975 0.950 . S
H955 C978 0.950 1_565 S
H956 C979 0.950 1_565 S
H957 C981 0.950 . S
H958 C982 0.950 . S
H959 C983 0.951 . S
H960 C985 0.951 . S
H961 C987 0.950 . S
H962 C988 0.950 . S
H963 C990 0.950 . S
H964 C993 0.950 . S
H965 C994 0.950 . S
H966 C996 0.950 . S
H967 C997 0.950 . S
C968 H950 0.951 . S
C968 C969 1.366 . S
C968 C970 1.388 . S
C969 C968 1.366 . S
C969 C973 1.385 . S
C970 H951 0.951 . S
C970 C968 1.388 . S
C970 C971 1.366 . S
C971 C970 1.366 . S
C971 C972 1.414 . S
C971 C974 1.499 . S
C972 H952 0.950 1_545 S
C972 C971 1.414 . S
C972 C973 1.374 . S
C973 H953 0.950 1_545 S
C973 C969 1.385 . S
C973 C972 1.374 . S
C974 C971 1.499 . S
C974 C975 1.373 . S
C974 C976 1.389 . S
C975 H954 0.950 . S
C975 C974 1.373 . S
C975 C991 1.377 . S
C976 C974 1.389 . S
C976 C977 1.524 . S
C976 C990 1.377 . S
C977 C976 1.524 . S
C977 C978 1.397 . S
C977 C982 1.363 . S
C978 H955 0.950 1_545 S
C978 C977 1.397 . S
C978 C979 1.334 . S
C979 H956 0.950 1_545 S
C979 C978 1.334 . S
C979 C980 1.287 . S
C980 C979 1.287 . S
C980 C981 1.524 . S
C980 H999 0.913 . S
C981 H957 0.950 . S
C981 C980 1.524 . S
C981 C982 1.415 . S
C982 H958 0.950 . S
C982 C977 1.363 . S
C982 C981 1.415 . S
C983 H959 0.951 . S
C983 C984 1.366 1_565 S
C983 C985 1.388 . S
C984 C983 1.366 1_545 S
C984 C988 1.385 . S
C985 H960 0.951 . S
C985 C983 1.388 . S
C985 C986 1.366 1_565 S
C986 C985 1.366 1_545 S
C986 C987 1.414 . S
C986 C989 1.499 . S
C987 H961 0.950 . S
C987 C986 1.414 . S
C987 C988 1.374 . S
C988 H962 0.950 . S
C988 C984 1.385 . S
C988 C987 1.374 . S
C989 C986 1.499 . S
C989 C990 1.373 . S
C989 C991 1.389 . S
C990 H963 0.950 . S
C990 C976 1.377 . S
C990 C989 1.373 . S
C991 C975 1.377 . S
C991 C989 1.389 . S
C991 C992 1.524 . S
C992 C991 1.524 . S
C992 C993 1.397 . S
C992 C997 1.363 1_545 S
C993 H964 0.950 . S
C993 C992 1.397 . S
C993 C994 1.334 . S
C994 H965 0.950 . S
C994 C993 1.334 . S
C994 C995 1.287 . S
C995 C994 1.287 . S
C995 C996 1.524 1_545 S
C995 H998 0.999 . S
C996 H966 0.950 . S
C996 C995 1.524 1_565 S
C996 C997 1.415 . S
C997 H967 0.950 . S
C997 C992 1.363 1_565 S
C997 C996 1.415 . S
H998 C995 0.999 . S
H999 C980 0.913 . S
H1000 C1018 0.951 . S
H1001 C1020 0.951 . S
H1002 C1022 0.950 . S
H1003 C1023 0.950 . S
H1004 C1025 0.950 . S
H1005 C1028 0.950 . S
H1006 C1029 0.950 . S
H1007 C1031 0.950 . S
H1008 C1032 0.950 . S
H1009 C1033 0.951 . S
H1010 C1035 0.951 . S
H1011 C1037 0.950 . S
H1012 C1038 0.950 . S
H1013 C1040 0.950 . S
H1014 C1043 0.950 . S
H1015 C1044 0.950 . S
H1016 C1046 0.950 . S
H1017 C1047 0.950 . S
C1018 H1000 0.951 . S
C1018 C1019 1.366 . S
C1018 C1020 1.388 . S
C1019 C1018 1.366 . S
C1019 C1023 1.385 . S
C1020 H1001 0.951 . S
C1020 C1018 1.388 . S
C1020 C1021 1.366 . S
C1021 C1020 1.366 . S
C1021 C1022 1.414 . S
C1021 C1024 1.499 . S
C1022 H1002 0.950 . S
C1022 C1021 1.414 . S
C1022 C1023 1.374 . S
C1023 H1003 0.950 . S
C1023 C1019 1.385 . S
C1023 C1022 1.374 . S
C1024 C1021 1.499 . S
C1024 C1025 1.373 . S
C1024 C1026 1.389 . S
C1025 H1004 0.950 . S
C1025 C1024 1.373 . S
C1025 C1041 1.377 . S
C1026 C1024 1.389 . S
C1026 C1027 1.524 . S
C1026 C1040 1.377 . S
C1027 C1026 1.524 . S
C1027 C1028 1.397 . S
C1027 C1032 1.363 . S
C1028 H1005 0.950 . S
C1028 C1027 1.397 . S
C1028 C1029 1.334 . S
C1029 H1006 0.950 . S
C1029 C1028 1.334 . S
C1029 C1030 1.287 . S
C1030 C1029 1.287 . S
C1030 C1031 1.524 . S
C1030 H1049 0.913 . S
C1031 H1007 0.950 . S
C1031 C1030 1.524 . S
C1031 C1032 1.415 . S
C1032 H1008 0.950 . S
C1032 C1027 1.363 . S
C1032 C1031 1.415 . S
C1033 H1009 0.951 . S
C1033 C1034 1.366 . S
C1033 C1035 1.388 . S
C1034 C1033 1.366 . S
C1034 C1038 1.385 . S
C1035 H1010 0.951 . S
C1035 C1033 1.388 . S
C1035 C1036 1.366 . S
C1036 C1035 1.366 . S
C1036 C1037 1.414 . S
C1036 C1039 1.499 . S
C1037 H1011 0.950 . S
C1037 C1036 1.414 . S
C1037 C1038 1.374 . S
C1038 H1012 0.950 . S
C1038 C1034 1.385 . S
C1038 C1037 1.374 . S
C1039 C1036 1.499 . S
C1039 C1040 1.373 . S
C1039 C1041 1.389 . S
C1040 H1013 0.950 . S
C1040 C1026 1.377 . S
C1040 C1039 1.373 . S
C1041 C1025 1.377 . S
C1041 C1039 1.389 . S
C1041 C1042 1.524 . S
C1042 C1041 1.524 . S
C1042 C1043 1.397 . S
C1042 C1047 1.363 . S
C1043 H1014 0.950 . S
C1043 C1042 1.397 . S
C1043 C1044 1.334 . S
C1044 H1015 0.950 . S
C1044 C1043 1.334 . S
C1044 C1045 1.287 . S
C1045 C1044 1.287 . S
C1045 C1046 1.524 . S
C1045 H1048 0.999 . S
C1046 H1016 0.950 . S
C1046 C1045 1.524 . S
C1046 C1047 1.415 . S
C1047 H1017 0.950 . S
C1047 C1042 1.363 . S
C1047 C1046 1.415 . S
H1048 C1045 0.999 . S
H1049 C1030 0.913 . S
H1050 C1068 0.951 . S
H1051 C1070 0.951 . S
H1052 C1072 0.950 1_565 S
H1053 C1073 0.950 1_565 S
H1054 C1075 0.950 . S
H1055 C1078 0.950 . S
H1056 C1079 0.950 . S
H1057 C1081 0.950 . S
H1058 C1082 0.950 . S
H1059 C1083 0.951 . S
H1060 C1085 0.951 . S
H1061 C1087 0.950 . S
H1062 C1088 0.950 . S
H1063 C1090 0.950 . S
H1064 C1093 0.950 . S
H1065 C1094 0.950 1_545 S
H1066 C1096 0.950 . S
H1067 C1097 0.950 . S
C1068 H1050 0.951 . S
C1068 C1069 1.366 . S
C1068 C1070 1.388 . S
C1069 C1068 1.366 . S
C1069 C1073 1.385 . S
C1070 H1051 0.951 . S
C1070 C1068 1.388 . S
C1070 C1071 1.366 . S
C1071 C1070 1.366 . S
C1071 C1072 1.414 . S
C1071 C1074 1.499 . S
C1072 H1052 0.950 1_545 S
C1072 C1071 1.414 . S
C1072 C1073 1.374 . S
C1073 H1053 0.950 1_545 S
C1073 C1069 1.385 . S
C1073 C1072 1.374 . S
C1074 C1071 1.499 . S
C1074 C1075 1.373 . S
C1074 C1076 1.389 . S
C1075 H1054 0.950 . S
C1075 C1074 1.373 . S
C1075 C1091 1.377 . S
C1076 C1074 1.389 . S
C1076 C1077 1.524 . S
C1076 C1090 1.377 . S
C1077 C1076 1.524 . S
C1077 C1078 1.397 . S
C1077 C1082 1.363 . S
C1078 H1055 0.950 . S
C1078 C1077 1.397 . S
C1078 C1079 1.334 . S
C1079 H1056 0.950 . S
C1079 C1078 1.334 . S
C1079 C1080 1.287 . S
C1080 C1079 1.287 . S
C1080 C1081 1.524 . S
C1080 H1099 0.913 . S
C1081 H1057 0.950 . S
C1081 C1080 1.524 . S
C1081 C1082 1.415 . S
C1082 H1058 0.950 . S
C1082 C1077 1.363 . S
C1082 C1081 1.415 . S
C1083 H1059 0.951 . S
C1083 C1084 1.366 . S
C1083 C1085 1.388 . S
C1084 C1083 1.366 . S
C1084 C1088 1.385 . S
C1085 H1060 0.951 . S
C1085 C1083 1.388 . S
C1085 C1086 1.366 . S
C1086 C1085 1.366 . S
C1086 C1087 1.414 . S
C1086 C1089 1.499 . S
C1087 H1061 0.950 . S
C1087 C1086 1.414 . S
C1087 C1088 1.374 . S
C1088 H1062 0.950 . S
C1088 C1084 1.385 . S
C1088 C1087 1.374 . S
C1089 C1086 1.499 . S
C1089 C1090 1.373 . S
C1089 C1091 1.389 . S
C1090 H1063 0.950 . S
C1090 C1076 1.377 . S
C1090 C1089 1.373 . S
C1091 C1075 1.377 . S
C1091 C1089 1.389 . S
C1091 C1092 1.524 . S
C1092 C1091 1.524 . S
C1092 C1093 1.397 . S
C1092 C1097 1.363 1_545 S
C1093 H1064 0.950 . S
C1093 C1092 1.397 . S
C1093 C1094 1.334 1_545 S
C1094 H1065 0.950 1_565 S
C1094 C1093 1.334 1_565 S
C1094 C1095 1.287 . S
C1095 C1094 1.287 . S
C1095 C1096 1.524 . S
C1095 H1098 0.999 . S
C1096 H1066 0.950 . S
C1096 C1095 1.524 . S
C1096 C1097 1.415 . S
C1097 H1067 0.950 . S
C1097 C1092 1.363 1_565 S
C1097 C1096 1.415 . S
H1098 C1095 0.999 . S
H1099 C1080 0.913 . S
H1100 C1118 0.951 . S
H1101 C1120 0.951 . S
H1102 C1122 0.950 . S
H1103 C1123 0.950 . S
H1104 C1125 0.950 . S
H1105 C1128 0.950 . S
H1106 C1129 0.950 . S
H1107 C1131 0.950 . S
H1108 C1132 0.950 . S
H1109 C1133 0.951 . S
H1110 C1135 0.951 . S
H1111 C1137 0.950 . S
H1112 C1138 0.950 . S
H1113 C1140 0.950 . S
H1114 C1143 0.950 . S
H1115 C1144 0.950 . S
H1116 C1146 0.950 . S
H1117 C1147 0.950 . S
C1118 H1100 0.951 . S
C1118 C1119 1.366 . S
C1118 C1120 1.388 . S
C1119 C1118 1.366 . S
C1119 C1123 1.385 . S
C1120 H1101 0.951 . S
C1120 C1118 1.388 . S
C1120 C1121 1.366 . S
C1121 C1120 1.366 . S
C1121 C1122 1.414 . S
C1121 C1124 1.499 . S
C1122 H1102 0.950 . S
C1122 C1121 1.414 . S
C1122 C1123 1.374 . S
C1123 H1103 0.950 . S
C1123 C1119 1.385 . S
C1123 C1122 1.374 . S
C1124 C1121 1.499 . S
C1124 C1125 1.373 . S
C1124 C1126 1.389 . S
C1125 H1104 0.950 . S
C1125 C1124 1.373 . S
C1125 C1141 1.377 . S
C1126 C1124 1.389 . S
C1126 C1127 1.524 . S
C1126 C1140 1.377 . S
C1127 C1126 1.524 . S
C1127 C1128 1.397 . S
C1127 C1132 1.363 . S
C1128 H1105 0.950 . S
C1128 C1127 1.397 . S
C1128 C1129 1.334 . S
C1129 H1106 0.950 . S
C1129 C1128 1.334 . S
C1129 C1130 1.287 . S
C1130 C1129 1.287 . S
C1130 C1131 1.524 . S
C1130 H1149 0.913 . S
C1131 H1107 0.950 . S
C1131 C1130 1.524 . S
C1131 C1132 1.415 . S
C1132 H1108 0.950 . S
C1132 C1127 1.363 . S
C1132 C1131 1.415 . S
C1133 H1109 0.951 . S
C1133 C1134 1.366 . S
C1133 C1135 1.388 1_554 S
C1134 C1133 1.366 . S
C1134 C1138 1.385 . S
C1135 H1110 0.951 . S
C1135 C1133 1.388 1_556 S
C1135 C1136 1.366 . S
C1136 C1135 1.366 . S
C1136 C1137 1.414 . S
C1136 C1139 1.499 . S
C1137 H1111 0.950 . S
C1137 C1136 1.414 . S
C1137 C1138 1.374 1_556 S
C1138 H1112 0.950 . S
C1138 C1134 1.385 . S
C1138 C1137 1.374 1_554 S
C1139 C1136 1.499 . S
C1139 C1140 1.373 . S
C1139 C1141 1.389 . S
C1140 H1113 0.950 . S
C1140 C1126 1.377 . S
C1140 C1139 1.373 . S
C1141 C1125 1.377 . S
C1141 C1139 1.389 . S
C1141 C1142 1.524 . S
C1142 C1141 1.524 . S
C1142 C1143 1.397 . S
C1142 C1147 1.363 . S
C1143 H1114 0.950 . S
C1143 C1142 1.397 . S
C1143 C1144 1.334 . S
C1144 H1115 0.950 . S
C1144 C1143 1.334 . S
C1144 C1145 1.287 . S
C1145 C1144 1.287 . S
C1145 C1146 1.524 . S
C1145 H1148 0.999 . S
C1146 H1116 0.950 . S
C1146 C1145 1.524 . S
C1146 C1147 1.415 . S
C1147 H1117 0.950 . S
C1147 C1142 1.363 . S
C1147 C1146 1.415 . S
H1148 C1145 0.999 . S
H1149 C1130 0.913 . S
H1150 C1168 0.951 . S
H1151 C1170 0.951 . S
H1152 C1172 0.950 . S
H1153 C1173 0.950 . S
H1154 C1175 0.950 . S
H1155 C1178 0.950 . S
H1156 C1179 0.950 . S
H1157 C1181 0.950 . S
H1158 C1182 0.950 . S
H1159 C1183 0.951 . S
H1160 C1185 0.951 . S
H1161 C1187 0.950 . S
H1162 C1188 0.950 . S
H1163 C1190 0.950 . S
H1164 C1193 0.950 . S
H1165 C1194 0.950 . S
H1166 C1196 0.950 . S
H1167 C1197 0.950 . S
C1168 H1150 0.951 . S
C1168 C1169 1.366 . S
C1168 C1170 1.388 . S
C1169 C1168 1.366 . S
C1169 C1173 1.385 1_455 S
C1170 H1151 0.951 . S
C1170 C1168 1.388 . S
C1170 C1171 1.366 . S
C1171 C1170 1.366 . S
C1171 C1172 1.414 1_455 S
C1171 C1174 1.499 . S
C1172 H1152 0.950 . S
C1172 C1171 1.414 1_655 S
C1172 C1173 1.374 . S
C1173 H1153 0.950 . S
C1173 C1169 1.385 1_655 S
C1173 C1172 1.374 . S
C1174 C1171 1.499 . S
C1174 C1175 1.373 1_455 S
C1174 C1176 1.389 . S
C1175 H1154 0.950 . S
C1175 C1174 1.373 1_655 S
C1175 C1191 1.377 . S
C1176 C1174 1.389 . S
C1176 C1177 1.524 . S
C1176 C1190 1.377 . S
C1177 C1176 1.524 . S
C1177 C1178 1.397 . S
C1177 C1182 1.363 . S
C1178 H1155 0.950 . S
C1178 C1177 1.397 . S
C1178 C1179 1.334 . S
C1179 H1156 0.950 . S
C1179 C1178 1.334 . S
C1179 C1180 1.287 . S
C1180 C1179 1.287 . S
C1180 C1181 1.524 . S
C1180 H1199 0.913 . S
C1181 H1157 0.950 . S
C1181 C1180 1.524 . S
C1181 C1182 1.415 . S
C1182 H1158 0.950 . S
C1182 C1177 1.363 . S
C1182 C1181 1.415 . S
C1183 H1159 0.951 . S
C1183 C1184 1.366 1_655 S
C1183 C1185 1.388 . S
C1184 C1183 1.366 1_455 S
C1184 C1188 1.385 . S
C1185 H1160 0.951 . S
C1185 C1183 1.388 . S
C1185 C1186 1.366 1_655 S
C1186 C1185 1.366 1_455 S
C1186 C1187 1.414 . S
C1186 C1189 1.499 . S
C1187 H1161 0.950 . S
C1187 C1186 1.414 . S
C1187 C1188 1.374 . S
C1188 H1162 0.950 . S
C1188 C1184 1.385 . S
C1188 C1187 1.374 . S
C1189 C1186 1.499 . S
C1189 C1190 1.373 . S
C1189 C1191 1.389 1_455 S
C1190 H1163 0.950 . S
C1190 C1176 1.377 . S
C1190 C1189 1.373 . S
C1191 C1175 1.377 . S
C1191 C1189 1.389 1_655 S
C1191 C1192 1.524 . S
C1192 C1191 1.524 . S
C1192 C1193 1.397 . S
C1192 C1197 1.363 . S
C1193 H1164 0.950 . S
C1193 C1192 1.397 . S
C1193 C1194 1.334 . S
C1194 H1165 0.950 . S
C1194 C1193 1.334 . S
C1194 C1195 1.287 . S
C1195 C1194 1.287 . S
C1195 C1196 1.524 . S
C1195 H1198 0.999 . S
C1196 H1166 0.950 . S
C1196 C1195 1.524 . S
C1196 C1197 1.415 . S
C1197 H1167 0.950 . S
C1197 C1192 1.363 . S
C1197 C1196 1.415 . S
H1198 C1195 0.999 . S
H1199 C1180 0.913 . S
C319 C2 1.087 . S
C334 C275 1.077 . S
C369 C21 0.979 . S
C384 C182 0.980 . S
C419 C42 1.063 . S
C434 C222 1.058 . S
C469 C1 0.982 . S
C484 C262 0.983 . S
C534 C195 1.081 . S
C519 C22 1.090 . S
C584 C235 1.001 . S
C569 C41 1.004 . S
C619 C38 1.856 . S
C634 C102 1.840 . S
C669 C59 1.943 . S
C684 C142 1.916 . S
C719 C18 1.877 . S
C734 C75 1.848 . S
C784 C115 1.925 . S
C769 C39 1.966 . S
C834 C155 1.852 . S
C819 C58 1.880 . S
C869 C19 1.945 . S
C884 C62 1.917 . S
C934 C161 1.552 . S
C919 C9 1.502 . S
C969 C29 1.501 . S
C984 C81 1.549 . S
C1019 C49 1.503 . S
C1034 C121 1.557 . S
C1084 C241 1.375 . S
C1069 C28 1.355 . S
C1134 C281 1.383 . S
C1119 C48 1.362 . S
C1169 C8 1.360 . S
C1184 C201 1.382 . S
