# Generated by pormake.
# Topology gar, (4,6)-cn, num edge types: 1
# Building blocks:
#     Node 0, Type 0, BuildingBlock: KUFVIS_clean_sbu_0, # of connection points: 4
#     Node 1, Type 0, BuildingBlock: KUFVIS_clean_sbu_0, # of connection points: 4
#     Node 2, Type 0, BuildingBlock: KUFVIS_clean_sbu_0, # of connection points: 4
#     Node 3, Type 0, BuildingBlock: KUFVIS_clean_sbu_0, # of connection points: 4
#     Node 4, Type 0, BuildingBlock: KUFVIS_clean_sbu_0, # of connection points: 4
#     Node 5, Type 0, BuildingBlock: KUFVIS_clean_sbu_0, # of connection points: 4
#     Node 6, Type 0, BuildingBlock: KUFVIS_clean_sbu_0, # of connection points: 4
#     Node 7, Type 0, BuildingBlock: KUFVIS_clean_sbu_0, # of connection points: 4
#     Node 8, Type 0, BuildingBlock: KUFVIS_clean_sbu_0, # of connection points: 4
#     Node 9, Type 0, BuildingBlock: KUFVIS_clean_sbu_0, # of connection points: 4
#     Node 10, Type 0, BuildingBlock: KUFVIS_clean_sbu_0, # of connection points: 4
#     Node 11, Type 0, BuildingBlock: KUFVIS_clean_sbu_0, # of connection points: 4
#     Node 12, Type 0, BuildingBlock: KUFVIS_clean_sbu_0, # of connection points: 4
#     Node 13, Type 0, BuildingBlock: KUFVIS_clean_sbu_0, # of connection points: 4
#     Node 14, Type 0, BuildingBlock: KUFVIS_clean_sbu_0, # of connection points: 4
#     Node 15, Type 0, BuildingBlock: KUFVIS_clean_sbu_0, # of connection points: 4
#     Node 16, Type 0, BuildingBlock: KUFVIS_clean_sbu_0, # of connection points: 4
#     Node 17, Type 0, BuildingBlock: KUFVIS_clean_sbu_0, # of connection points: 4
#     Node 18, Type 0, BuildingBlock: KUFVIS_clean_sbu_0, # of connection points: 4
#     Node 19, Type 0, BuildingBlock: KUFVIS_clean_sbu_0, # of connection points: 4
#     Node 20, Type 0, BuildingBlock: KUFVIS_clean_sbu_0, # of connection points: 4
#     Node 21, Type 0, BuildingBlock: KUFVIS_clean_sbu_0, # of connection points: 4
#     Node 22, Type 0, BuildingBlock: KUFVIS_clean_sbu_0, # of connection points: 4
#     Node 23, Type 0, BuildingBlock: KUFVIS_clean_sbu_0, # of connection points: 4
#     Node 24, Type 1, BuildingBlock: PAMTOO_clean_sbu_0, # of connection points: 6
#     Node 25, Type 1, BuildingBlock: PAMTOO_clean_sbu_0, # of connection points: 6
#     Node 26, Type 1, BuildingBlock: PAMTOO_clean_sbu_0, # of connection points: 6
#     Node 27, Type 1, BuildingBlock: PAMTOO_clean_sbu_0, # of connection points: 6
#     Node 28, Type 1, BuildingBlock: PAMTOO_clean_sbu_0, # of connection points: 6
#     Node 29, Type 1, BuildingBlock: PAMTOO_clean_sbu_0, # of connection points: 6
#     Node 30, Type 1, BuildingBlock: PAMTOO_clean_sbu_0, # of connection points: 6
#     Node 31, Type 1, BuildingBlock: PAMTOO_clean_sbu_0, # of connection points: 6
#     Node 32, Type 1, BuildingBlock: PAMTOO_clean_sbu_0, # of connection points: 6
#     Node 33, Type 1, BuildingBlock: PAMTOO_clean_sbu_0, # of connection points: 6
#     Node 34, Type 1, BuildingBlock: PAMTOO_clean_sbu_0, # of connection points: 6
#     Node 35, Type 1, BuildingBlock: PAMTOO_clean_sbu_0, # of connection points: 6
#     Node 36, Type 1, BuildingBlock: PAMTOO_clean_sbu_0, # of connection points: 6
#     Node 37, Type 1, BuildingBlock: PAMTOO_clean_sbu_0, # of connection points: 6
#     Node 38, Type 1, BuildingBlock: PAMTOO_clean_sbu_0, # of connection points: 6
#     Node 39, Type 1, BuildingBlock: PAMTOO_clean_sbu_0, # of connection points: 6
#     Edge 40, Type (0, 1), None
#     Edge 41, Type (0, 1), None
#     Edge 42, Type (0, 1), None
#     Edge 43, Type (0, 1), None
#     Edge 44, Type (0, 1), None
#     Edge 45, Type (0, 1), None
#     Edge 46, Type (0, 1), None
#     Edge 47, Type (0, 1), None
#     Edge 48, Type (0, 1), None
#     Edge 49, Type (0, 1), None
#     Edge 50, Type (0, 1), None
#     Edge 51, Type (0, 1), None
#     Edge 52, Type (0, 1), None
#     Edge 53, Type (0, 1), None
#     Edge 54, Type (0, 1), None
#     Edge 55, Type (0, 1), None
#     Edge 56, Type (0, 1), None
#     Edge 57, Type (0, 1), None
#     Edge 58, Type (0, 1), None
#     Edge 59, Type (0, 1), None
#     Edge 60, Type (0, 1), None
#     Edge 61, Type (0, 1), None
#     Edge 62, Type (0, 1), None
#     Edge 63, Type (0, 1), None
#     Edge 64, Type (0, 1), None
#     Edge 65, Type (0, 1), None
#     Edge 66, Type (0, 1), None
#     Edge 67, Type (0, 1), None
#     Edge 68, Type (0, 1), None
#     Edge 69, Type (0, 1), None
#     Edge 70, Type (0, 1), None
#     Edge 71, Type (0, 1), None
#     Edge 72, Type (0, 1), None
#     Edge 73, Type (0, 1), None
#     Edge 74, Type (0, 1), None
#     Edge 75, Type (0, 1), None
#     Edge 76, Type (0, 1), None
#     Edge 77, Type (0, 1), None
#     Edge 78, Type (0, 1), None
#     Edge 79, Type (0, 1), None
#     Edge 80, Type (0, 1), None
#     Edge 81, Type (0, 1), None
#     Edge 82, Type (0, 1), None
#     Edge 83, Type (0, 1), None
#     Edge 84, Type (0, 1), None
#     Edge 85, Type (0, 1), None
#     Edge 86, Type (0, 1), None
#     Edge 87, Type (0, 1), None
#     Edge 88, Type (0, 1), None
#     Edge 89, Type (0, 1), None
#     Edge 90, Type (0, 1), None
#     Edge 91, Type (0, 1), None
#     Edge 92, Type (0, 1), None
#     Edge 93, Type (0, 1), None
#     Edge 94, Type (0, 1), None
#     Edge 95, Type (0, 1), None
#     Edge 96, Type (0, 1), None
#     Edge 97, Type (0, 1), None
#     Edge 98, Type (0, 1), None
#     Edge 99, Type (0, 1), None
#     Edge 100, Type (0, 1), None
#     Edge 101, Type (0, 1), None
#     Edge 102, Type (0, 1), None
#     Edge 103, Type (0, 1), None
#     Edge 104, Type (0, 1), None
#     Edge 105, Type (0, 1), None
#     Edge 106, Type (0, 1), None
#     Edge 107, Type (0, 1), None
#     Edge 108, Type (0, 1), None
#     Edge 109, Type (0, 1), None
#     Edge 110, Type (0, 1), None
#     Edge 111, Type (0, 1), None
#     Edge 112, Type (0, 1), None
#     Edge 113, Type (0, 1), None
#     Edge 114, Type (0, 1), None
#     Edge 115, Type (0, 1), None
#     Edge 116, Type (0, 1), None
#     Edge 117, Type (0, 1), None
#     Edge 118, Type (0, 1), None
#     Edge 119, Type (0, 1), None
#     Edge 120, Type (0, 1), None
#     Edge 121, Type (0, 1), None
#     Edge 122, Type (0, 1), None
#     Edge 123, Type (0, 1), None
#     Edge 124, Type (0, 1), None
#     Edge 125, Type (0, 1), None
#     Edge 126, Type (0, 1), None
#     Edge 127, Type (0, 1), None
#     Edge 128, Type (0, 1), None
#     Edge 129, Type (0, 1), None
#     Edge 130, Type (0, 1), None
#     Edge 131, Type (0, 1), None
#     Edge 132, Type (0, 1), None
#     Edge 133, Type (0, 1), None
#     Edge 134, Type (0, 1), None
#     Edge 135, Type (0, 1), None
# Relax obj value: 0.312
# Max RMSD: 0.310
# Mean RMSD: 0.194
data_MOF--net-gar--node1-KUFVIS_clean_sbu_0--node2-PAMTOO_clean_sbu_0--edge1-none
_symmetry_space_group_name_H-M    P1
_symmetry_Int_Tables_number       1
_symmetry_cell_setting            triclinic
loop_
_symmetry_equiv_pos_as_xyz
'x, y, z'
_cell_length_a     28.682076
_cell_length_b     28.89916
_cell_length_c     27.644386
_cell_angle_alpha  98.39784
_cell_angle_beta   98.318675
_cell_angle_gamma 105.92725
loop_
_atom_site_label
_atom_site_type_symbol
_atom_site_fract_x
_atom_site_fract_y
_atom_site_fract_z
_atom_type_partial_charge
Mn0 Mn 0.132 0.37366 0.39572 0.0
Mn1 Mn 0.13194 0.43285 0.30686 0.0
C2 C 1.05176 0.38597 0.36225 0.0
C3 C 0.12568 0.31924 0.44779 0.0
C4 C 0.1492 0.48122 0.41675 0.0
O5 O 0.19505 0.36315 0.37077 0.0
O6 O 0.20232 0.42276 0.32801 0.0
C7 C 0.13717 0.34531 0.23928 0.0
N8 N 0.11613 0.38189 0.24848 0.0
C9 C 1.04545 0.33821 0.18311 0.0
C10 C 0.06563 0.29955 0.17484 0.0
C11 C 0.11208 0.30348 0.20236 0.0
C12 C 0.07123 0.37816 0.22175 0.0
H13 H 0.17197 0.34677 0.26087 0.0
C14 C 0.22155 0.39216 0.34758 0.0
O15 O 0.158 0.36142 0.45967 0.0
O16 O 0.10229 0.30444 0.40156 0.0
N17 N 0.07412 0.4475 0.27777 0.0
C18 C 0.0606 0.48872 0.2899 0.0
C19 C 1.01845 0.49417 0.26142 0.0
C20 C 0.99054 0.45714 0.22065 0.0
C21 C 1.00641 0.41609 0.20751 0.0
C22 C 1.05015 0.41405 0.23597 0.0
H23 H 0.08256 0.51783 0.32019 0.0
O24 O 0.06495 0.37889 0.40617 0.0
O25 O 0.08658 0.38289 0.33588 0.0
O26 O 0.16864 0.4467 0.42072 0.0
O27 O 0.13991 0.48308 0.36918 0.0
C28 C 0.98099 0.37745 0.167 0.0
C29 C 0.99987 0.33783 0.15563 0.0
H30 H 1.04577 0.26668 0.14729 0.0
H31 H 0.12815 0.2739 0.19576 0.0
H32 H 1.00759 0.52688 0.27085 0.0
H33 H 0.95763 0.46104 0.19913 0.0
H34 H 0.94663 0.37751 0.14481 0.0
H35 H 0.97935 0.30753 0.12536 0.0
Mn36 Mn 0.07247 0.78245 0.74551 0.0
Mn37 Mn 0.10598 0.89969 0.80219 0.0
C38 C 0.16812 0.82636 0.77316 0.0
C39 C 0.07317 0.71354 0.67948 0.0
C40 C 0.08483 0.86907 0.69041 0.0
O41 O 1.00411 0.79475 0.76959 0.0
O42 O 1.03056 0.87435 0.79793 0.0
C43 C 0.07815 0.89527 0.90041 0.0
N44 N 0.11405 0.90508 0.87255 0.0
C45 C 0.17369 0.95345 0.94444 0.0
C46 C 0.13804 0.94312 0.9733 0.0
C47 C 0.08958 0.91494 0.95147 0.0
C48 C 0.15969 0.9347 0.89347 0.0
H49 H 1.04076 0.87347 0.88423 0.0
C50 C 0.99471 0.83434 0.78962 0.0
O51 O 1.03384 0.7203 0.69179 0.0
O52 O 0.11313 0.74595 0.70553 0.0
N53 N 0.17357 0.93313 0.81285 0.0
C54 C 0.20361 0.93969 0.77929 0.0
C55 C 0.25373 0.96321 0.79699 0.0
C56 C 0.27055 0.9866 0.84667 0.0
C57 C 0.23947 0.97744 0.88042 0.0
C58 C 0.19126 0.9485 0.86204 0.0
H59 H 0.19009 0.92396 0.74025 0.0
O60 O 0.14708 0.78701 0.7392 0.0
O61 O 0.13098 0.83876 0.79193 0.0
O62 O 0.0703 0.82299 0.68946 0.0
O63 O 0.09885 0.901 0.73061 0.0
C64 C 0.25497 0.99444 0.93159 0.0
C65 C 0.22221 0.98333 0.96411 0.0
H66 H 0.14854 0.9572 1.01206 0.0
H67 H 0.06138 0.90793 0.97389 0.0
H68 H 0.27936 0.96306 0.77288 0.0
H69 H 0.30731 1.01124 0.85834 0.0
H70 H 0.2921 1.015 0.94542 0.0
H71 H 0.23456 0.99768 1.00377 0.0
Mn72 Mn 0.59945 0.89211 0.87386 0.0
Mn73 Mn 0.61991 0.94669 0.81087 0.0
C74 C 0.51688 0.89918 0.83356 0.0
C75 C 0.59607 0.85674 0.94942 0.0
C76 C 0.63963 0.98804 0.93161 0.0
O77 O 0.65861 0.86198 0.85695 0.0
O78 O 0.68601 0.928 0.83019 0.0
C79 C 0.64385 0.88819 0.72499 0.0
N80 N 0.61516 0.9145 0.7436 0.0
C81 C 0.56564 0.90114 0.66216 0.0
C82 C 0.59416 0.87397 0.64288 0.0
C83 C 0.63391 0.86778 0.67414 0.0
C84 C 0.57843 0.92244 0.71282 0.0
H85 H 0.67486 0.88309 0.74776 0.0
C86 C 0.69453 0.8888 0.84117 0.0
O87 O 0.62912 0.89568 0.94752 0.0
O88 O 0.56653 0.8374 0.90826 0.0
N89 N 0.56925 0.97276 0.78241 0.0
C90 C 0.54583 1.00245 0.80483 0.0
C91 C 0.50572 1.01197 0.77661 0.0
C92 C 0.49112 0.99269 0.72567 0.0
C93 C 0.51439 0.96134 0.70362 0.0
C94 C 0.5541 0.95286 0.73312 0.0
H95 H 0.55677 1.01752 0.84385 0.0
O96 O 0.5348 0.91172 0.88077 0.0
O97 O 0.55264 0.89026 0.8106 0.0
O98 O 0.64071 0.94421 0.9355 0.0
O99 O 0.62781 0.98808 0.88292 0.0
C100 C 0.49847 0.93687 0.65367 0.0
C101 C 0.52479 0.90755 0.63265 0.0
H102 H 0.58582 0.85885 0.60378 0.0
H103 H 0.65692 0.84745 0.65924 0.0
H104 H 0.48469 0.03298 0.79341 0.0
H105 H 0.46166 1.0018 0.7038 0.0
H106 H 0.46541 0.93937 0.63155 0.0
H107 H 0.5132 0.88939 0.59403 0.0
Mn108 Mn 0.62863 0.32426 0.2901 0.0
Mn109 Mn 0.52382 0.29157 0.20636 0.0
C110 C 0.61472 0.25497 0.21399 0.0
C111 C 0.72472 0.34076 0.30989 0.0
C112 C 0.51784 0.33799 0.30711 0.0
O113 O 0.6382 0.37447 0.24413 0.0
O114 O 0.55921 0.36244 0.21115 0.0
C115 C 0.57269 0.30305 0.12078 0.0
N116 N 0.53929 0.27589 0.14413 0.0
C117 C 0.52692 0.20439 0.08541 0.0
C118 C 0.56267 0.23021 0.06193 0.0
C119 C 0.58562 0.28026 0.07933 0.0
C120 C 0.51644 0.228 0.12692 0.0
H121 H 0.59004 0.3413 0.13311 0.0
C122 C 0.60479 0.3877 0.21937 0.0
O123 O 0.70118 0.36693 0.33268 0.0
O124 O 0.69381 0.30663 0.27585 0.0
N125 N 0.48826 0.22545 0.20051 0.0
C126 C 0.47441 0.20112 0.2371 0.0
C127 C 0.45087 0.15034 0.22517 0.0
C128 C 0.44522 0.12539 0.1764 0.0
C129 C 0.46651 0.15098 0.14203 0.0
C130 C 0.48774 0.2016 0.15561 0.0
H131 H 0.48336 0.22047 0.27509 0.0
O132 O 0.65722 0.27898 0.24143 0.0
O133 O 0.58165 0.27188 0.23327 0.0
O134 O 0.56745 0.35402 0.32135 0.0
O135 O 0.50044 0.30572 0.26796 0.0
C136 C 0.47081 0.12821 0.09602 0.0
C137 C 0.5007 0.15614 0.06821 0.0
H138 H 0.57004 0.21209 0.02881 0.0
H139 H 0.61214 0.3012 0.06049 0.0
H140 H 0.43873 0.13027 0.25343 0.0
H141 H 0.42765 0.08631 0.1665 0.0
H142 H 0.45278 0.08973 0.08298 0.0
H143 H 0.50079 0.14423 0.03097 0.0
Mn144 Mn 0.17916 0.87815 0.14907 0.0
Mn145 Mn 0.11336 0.86642 0.09126 0.0
C146 C 0.14455 0.78083 0.13044 0.0
C147 C 0.2428 0.88203 0.224 0.0
C148 C 0.09021 0.87189 0.18699 0.0
O149 O 0.17162 0.95121 0.1273 0.0
O150 O 0.10148 0.9268 0.0765 0.0
C151 C 0.20595 0.88582 0.04735 0.0
N152 N 0.15447 0.86499 0.04169 0.0
C153 C 0.14565 0.82413 0.95566 0.0
C154 C 0.19665 0.84466 0.95999 0.0
C155 C 0.22589 0.8747 1.00495 0.0
C156 C 0.12525 0.83406 0.9972 0.0
H157 H 0.17386 0.88061 0.06227 0.0
C158 C 0.13745 0.96319 0.0988 0.0
O159 O 0.23937 0.91961 0.20609 0.0
O160 O 0.21277 0.84205 0.19728 0.0
N161 N 1.05934 0.82881 0.0383 0.0
C162 C 1.01015 0.8165 0.03923 0.0
C163 C 0.97568 0.79089 0.99563 0.0
C164 C 0.99214 0.77781 0.95171 0.0
C165 C 1.04288 0.78979 0.95182 0.0
C166 C 0.07542 0.81631 0.99606 0.0
H167 H 0.9973 0.82712 0.07276 0.0
O168 O 0.18068 0.80823 0.16437 0.0
O169 O 0.12459 0.80652 0.10445 0.0
O170 O 0.13629 0.88251 0.19931 0.0
O171 O 0.07037 0.86421 0.14122 0.0
C172 C 0.06247 0.77847 0.9092 0.0
C173 C 0.11399 0.79525 0.91128 0.0
H174 H 0.21406 0.8381 0.92847 0.0
H175 H 0.26519 0.8902 1.00707 0.0
H176 H 0.93652 0.78195 0.99559 0.0
H177 H 0.96555 0.7601 0.91772 0.0
H178 H 1.03822 0.75781 0.87446 0.0
H179 H 0.12866 0.78701 0.87819 0.0
Mn180 Mn 0.5861 0.82941 0.51761 0.0
Mn181 Mn 0.59157 0.90084 0.41518 0.0
C182 C 0.51115 0.81876 0.44289 0.0
C183 C 0.60131 0.74844 0.54511 0.0
C184 C 0.58793 0.95193 0.52202 0.0
O185 O 0.66 0.85476 0.51983 0.0
O186 O 0.60628 0.8611 0.45984 0.0
C187 C 0.59792 0.80909 0.35471 0.0
N188 N 0.59959 0.85721 0.35913 0.0
C189 C 0.62473 0.86065 0.28006 0.0
C190 C 0.6217 0.81082 0.27406 0.0
C191 C 0.60815 0.78492 0.31153 0.0
C192 C 0.61175 0.88231 0.32282 0.0
H193 H 0.58906 0.7893 0.38407 0.0
C194 C 0.65149 0.86986 0.48014 0.0
O195 O 0.60181 0.78743 0.57474 0.0
O196 O 0.58981 0.75478 0.50023 0.0
N197 N 0.60447 0.95025 0.37526 0.0
C198 C 0.60974 0.99895 0.38849 0.0
C199 C 0.62833 0.03089 0.35737 0.0
C200 C 0.64249 1.01262 0.31374 0.0
C201 C 0.63657 0.96228 0.30078 0.0
C202 C 0.61565 0.93177 0.33195 0.0
H203 H 0.60108 1.01347 0.42318 0.0
O204 O 0.51188 0.80173 0.48498 0.0
O205 O 0.55911 0.84186 0.44663 0.0
O206 O 0.58705 0.91188 0.54258 0.0
O207 O 0.58847 0.94959 0.47492 0.0
C208 C 0.65174 0.94145 0.25869 0.0
C209 C 0.64377 0.89042 0.24716 0.0
H210 H 0.6314 0.79253 0.24168 0.0
H211 H 0.60672 0.74672 0.30766 0.0
H212 H 0.63299 0.06971 0.36768 0.0
H213 H 0.65804 0.03758 0.2905 0.0
H214 H 0.66842 0.96429 0.23419 0.0
H215 H 0.65488 0.87486 0.21426 0.0
Mn216 Mn 0.70427 0.3813 0.65177 0.0
Mn217 Mn 0.60522 0.34481 0.55829 0.0
C218 C 0.66994 0.28844 0.61178 0.0
C219 C 0.76467 0.37777 0.72744 0.0
C220 C 0.59748 0.35748 0.66851 0.0
O221 O 0.68957 0.4498 0.63265 0.0
O222 O 0.6289 0.41884 0.56771 0.0
C223 C 0.67582 0.37058 0.49161 0.0
N224 N 0.63427 0.33967 0.5009 0.0
C225 C 0.62236 0.28427 0.42382 0.0
C226 C 0.66567 0.31418 0.41378 0.0
C227 C 0.69284 0.3577 0.44789 0.0
C228 C 0.61063 0.29652 0.47025 0.0
H229 H 0.69632 0.40393 0.51808 0.0
C230 C 0.65835 0.45694 0.59708 0.0
O231 O 0.75464 0.41672 0.71859 0.0
O232 O 0.73841 0.33952 0.69404 0.0
N233 N 0.56786 0.27803 0.53387 0.0
C234 C 0.52586 0.25537 0.54891 0.0
C235 C 0.48728 0.22034 0.51427 0.0
C236 C 0.49218 0.2091 0.46482 0.0
C237 C 0.53693 0.2291 0.45085 0.0
C238 C 0.57301 0.26575 0.48603 0.0
H239 H 0.52029 0.26745 0.58571 0.0
O240 O 0.7024 0.30681 0.65283 0.0
O241 O 0.66089 0.32605 0.59401 0.0
O242 O 0.64421 0.36936 0.68582 0.0
O243 O 0.57803 0.34928 0.62154 0.0
C244 C 0.5456 0.21728 0.40225 0.0
C245 C 0.58986 0.24333 0.38956 0.0
H246 H 0.67837 0.30314 0.38043 0.0
H247 H 0.72652 0.38113 0.44051 0.0
H248 H 0.45296 0.2031 0.52437 0.0
H249 H 0.46122 0.18478 0.43797 0.0
H250 H 0.51871 0.18849 0.37446 0.0
H251 H 0.59707 0.23346 0.35265 0.0
Mn252 Mn 0.06404 0.33351 0.03727 0.0
Mn253 Mn 1.06004 0.39754 0.93971 0.0
C254 C 0.97441 0.33392 0.96474 0.0
C255 C 0.08372 0.25508 0.05476 0.0
C256 C 0.08423 0.45161 0.05209 0.0
O257 O 0.12346 0.3435 0.99929 0.0
O258 O 0.12175 0.41543 0.98738 0.0
C259 C 0.10976 0.4222 0.8575 0.0
N260 N 0.09547 0.43773 0.90007 0.0
C261 C 0.12113 0.52108 0.88957 0.0
C262 C 0.14355 0.50723 0.85043 0.0
C263 C 0.13472 0.45704 0.83204 0.0
C264 C 0.09554 0.48421 0.91196 0.0
H265 H 0.10195 0.38349 0.84348 0.0
C266 C 0.14335 0.38274 0.98502 0.0
O267 O 0.10221 0.29831 0.08465 0.0
O268 O 1.05379 0.25763 1.01533 0.0
N269 N 1.03625 0.45178 0.95646 0.0
C270 C 0.99871 0.45358 0.98074 0.0
C271 C 0.98275 0.49421 0.98323 0.0
C272 C 1.00838 0.53438 0.96533 0.0
C273 C 1.05158 0.53522 0.94717 0.0
C274 C 0.06193 0.49121 0.94005 0.0
H275 H 0.9806 0.42393 0.99727 0.0
O276 O 1.0209 0.35048 0.97912 0.0
O277 O 1.0218 0.35168 0.97817 0.0
O278 O 0.07676 0.413 0.07372 0.0
O279 O 0.09604 0.4454 1.00797 0.0
C280 C 0.08227 0.5755 0.93165 0.0
C281 C 0.11703 0.56835 0.90247 0.0
H282 H 0.16264 0.53412 0.83081 0.0
H283 H 0.14689 0.44528 0.79839 0.0
H284 H 0.94948 0.49259 0.99652 0.0
H285 H 0.99098 0.56109 0.96109 0.0
H286 H 0.07709 0.61111 0.93753 0.0
H287 H 0.13689 0.59825 0.88668 0.0
Mn288 Mn 0.468 0.06472 0.35005 0.0
Mn289 Mn 0.39987 0.06678 0.44592 0.0
C290 C 0.42276 0.98494 0.39514 0.0
C291 C 0.45956 0.99981 0.28959 0.0
C292 C 0.51184 0.11253 0.45574 0.0
O293 O 0.43706 0.11919 0.35228 0.0
O294 O 0.38138 0.10681 0.40069 0.0
C295 C 0.30054 1.01426 0.38364 0.0
N296 N 0.33379 1.02417 0.42708 0.0
C297 C 0.2753 0.97293 0.4652 0.0
C298 C 0.24035 0.96092 0.4205 0.0
C299 C 0.25317 0.98147 0.37938 0.0
C300 C 0.32286 1.00209 0.46525 0.0
H301 H 0.31079 1.03011 0.35224 0.0
C302 C 0.39801 0.12393 0.36533 0.0
O303 O 0.49172 1.00862 0.33086 0.0
O304 O 0.42678 1.02331 0.28804 0.0
N305 N 0.40763 1.02734 0.49423 0.0
C306 C 0.44867 1.0243 0.52313 0.0
C307 C 0.44336 0.99989 0.56324 0.0
C308 C 0.39646 0.98206 0.57521 0.0
C309 C 0.35452 0.98391 0.54343 0.0
C310 C 0.36199 1.00536 0.50202 0.0
H311 H 0.48484 0.04062 0.51576 0.0
O312 O 0.4244 1.02812 0.39171 0.0
O313 O 0.42323 1.02849 0.39314 0.0
O314 O 0.51768 0.09777 0.41224 0.0
O315 O 0.46979 0.10907 0.46892 0.0
C316 C 0.30545 0.96322 0.54934 0.0
C317 C 0.26574 0.95604 0.50929 0.0
H318 H 0.20358 0.9362 0.41748 0.0
H319 H 0.2265 0.97252 0.34485 0.0
H320 H 0.47576 0.99691 0.58603 0.0
H321 H 0.39299 0.96557 0.60774 0.0
H322 H 0.29802 0.94905 0.5825 0.0
H323 H 0.22865 0.93566 0.51182 0.0
Mn324 Mn 0.31285 0.28328 0.57328 0.0
Mn325 Mn 0.30119 0.19215 0.47838 0.0
C326 C 0.23103 0.22456 0.53866 0.0
C327 C 0.32274 0.31607 0.66239 0.0
C328 C 0.3445 0.29872 0.46924 0.0
O329 O 0.37894 0.26575 0.58555 0.0
O330 O 0.35527 0.19321 0.53117 0.0
C331 C 0.26944 0.10497 0.52222 0.0
N332 N 0.26329 0.12968 0.48496 0.0
C333 C 0.1969 0.06185 0.4361 0.0
C334 C 0.20272 0.03529 0.47368 0.0
C335 C 0.23951 0.05691 0.51682 0.0
C336 C 0.22721 0.11003 0.44426 0.0
H337 H 0.29523 0.12269 0.5565 0.0
C338 C 0.38215 0.22235 0.57101 0.0
O339 O 0.33529 0.3436 0.63051 0.0
O340 O 0.30508 0.26973 0.64316 0.0
N341 N 0.24776 0.18795 0.42632 0.0
C342 C 0.2399 0.22226 0.39987 0.0
C343 C 0.20397 0.2077 0.35609 0.0
C344 C 0.17719 0.15802 0.33965 0.0
C345 C 0.18421 0.1236 0.36863 0.0
C346 C 0.2197 0.1407 0.41251 0.0
H347 H 0.2608 0.26031 0.41151 0.0
O348 O 0.23708 0.26987 0.55857 0.0
O349 O 0.2731 0.21852 0.53306 0.0
O350 O 0.32863 0.3159 0.50775 0.0
O351 O 0.34248 0.25365 0.46165 0.0
C352 C 0.15752 0.07321 0.35633 0.0
C353 C 0.16251 0.04265 0.39093 0.0
H354 H 0.17962 0.9979 0.46922 0.0
H355 H 0.24514 0.03687 0.54603 0.0
H356 H 0.19768 0.23451 0.33445 0.0
H357 H 0.15117 0.14749 0.3051 0.0
H358 H 0.13126 0.05789 0.32169 0.0
H359 H 0.1397 1.00468 0.38255 0.0
Mn360 Mn 0.1942 0.15579 0.81549 0.0
Mn361 Mn 0.29307 0.17452 0.90604 0.0
C362 C 0.2491 0.23847 0.84628 0.0
C363 C 0.15997 0.14035 0.72564 0.0
C364 C 0.18775 0.13261 0.92577 0.0
O365 O 0.21333 0.09213 0.80373 0.0
O366 O 0.28776 0.11681 0.85496 0.0
C367 C 0.37493 0.19591 0.85135 0.0
N368 N 0.35309 0.20911 0.88938 0.0
C369 C 0.42249 0.28016 0.924 0.0
C370 C 0.44699 0.2651 0.88744 0.0
C371 C 0.42326 0.22288 0.85081 0.0
C372 C 0.37554 0.24995 0.92442 0.0
H373 H 0.35558 0.16549 0.82152 0.0
C374 C 0.25804 0.09116 0.81488 0.0
O375 O 0.13294 0.12892 0.75852 0.0
O376 O 0.20621 0.1615 0.74455 0.0
N377 N 0.30308 0.23169 0.9554 0.0
C378 C 0.27416 0.24074 0.98835 0.0
C379 C 0.29484 0.27771 0.03094 0.0
C380 C 0.34446 0.30584 0.03814 0.0
C381 C 0.37161 0.2999 1.00061 0.0
C382 C 0.3496 0.26117 0.96014 0.0
H383 H 0.23648 0.21833 0.98393 0.0
O384 O 0.20252 0.22994 0.8279 0.0
O385 O 0.25896 0.19843 0.85268 0.0
O386 O 0.16624 0.14133 0.88441 0.0
O387 O 0.23421 0.13856 0.93258 0.0
C388 C 0.4198 0.33032 1.00183 0.0
C389 C 0.44427 0.32193 0.96218 0.0
H390 H 0.48452 0.28575 0.88738 0.0
H391 H 0.44191 0.21178 0.82187 0.0
H392 H 0.27304 0.28351 0.05881 0.0
H393 H 0.3609 0.3326 0.07213 0.0
H394 H 0.43918 0.35949 0.03345 0.0
H395 H 0.48087 0.346 0.96312 0.0
Mn396 Mn 0.41912 1.00734 1.01186 0.0
Mn397 Mn 0.41432 0.09635 0.94748 0.0
C398 C 0.48891 0.05206 0.98744 0.0
C399 C 0.43178 0.95924 0.06871 0.0
C400 C 0.3759 0.99047 0.90922 0.0
O401 O 0.3705 0.03175 0.04377 0.0
O402 O 0.35903 0.07707 0.98486 0.0
C403 C 0.41324 0.18176 0.02196 0.0
N404 N 0.4329 0.16249 0.9848 0.0
C405 C 0.49015 0.24184 0.98822 0.0
C406 C 0.47204 0.26103 0.02848 0.0
C407 C 0.43222 0.23133 0.04423 0.0
C408 C 0.4693 0.19189 0.9672 0.0
H409 H 0.38724 0.15917 0.03839 0.0
C410 C 0.3507 0.06143 0.0255 0.0
O411 O 0.39794 0.94302 0.02945 0.0
O412 O 0.45865 1.00489 0.07683 0.0
N413 N 0.46856 0.12076 0.91523 0.0
C414 C 0.48597 0.09611 0.8798 0.0
C415 C 0.52426 0.12226 0.85857 0.0
C416 C 0.54559 0.17279 0.87514 0.0
C417 C 0.52816 0.19717 0.91249 0.0
C418 C 0.4885 0.16982 0.93088 0.0
H419 H 0.47072 0.05689 0.86819 0.0
O420 O 0.47729 1.00436 0.98138 0.0
O421 O 0.45361 0.07017 0.99527 0.0
O422 O 0.36806 0.98421 0.95081 0.0
O423 O 0.39575 0.03265 0.90137 0.0
C424 C 0.54931 0.24749 0.93269 0.0
C425 C 0.53066 0.26978 0.9709 0.0
H426 H 0.48928 0.29851 0.04828 0.0
H427 H 0.4182 0.2459 0.07547 0.0
H428 H 0.53844 0.10409 0.82993 0.0
H429 H 0.5758 0.19235 0.85935 0.0
H430 H 0.57985 0.26948 0.91916 0.0
H431 H 0.54771 0.3084 0.98678 0.0
Mn432 Mn 0.39196 0.45015 0.11149 0.0
Mn433 Mn 0.37028 0.50906 0.0267 0.0
C434 C 0.46498 0.52195 0.10501 0.0
C435 C 0.38652 0.42473 0.19396 0.0
C436 C 0.35279 0.40585 0.99172 0.0
O437 O 0.3182 0.45069 0.10617 0.0
O438 O 0.31713 0.50895 0.06006 0.0
C439 C 0.36092 0.60771 0.04679 0.0
N440 N 0.38852 0.57726 0.03653 0.0
C441 C 0.44802 0.64023 1.01413 0.0
C442 C 0.42229 0.67365 0.02629 0.0
C443 C 0.37763 0.65691 0.04224 0.0
C444 C 0.42781 0.59125 1.01652 0.0
H445 H 0.32553 0.59395 0.05586 0.0
C446 C 0.30015 0.48346 0.09081 0.0
O447 O 0.38005 0.39466 0.15233 0.0
O448 O 0.39911 0.4703 0.18898 0.0
N449 N 0.42687 0.50859 1.00011 0.0
C450 C 0.45339 0.47516 1.00106 0.0
C451 C 0.50312 0.48884 1.00112 0.0
C452 C 0.52493 0.5356 0.99576 0.0
C453 C 0.49831 0.56976 0.99691 0.0
C454 C 0.45004 0.5558 1.00159 0.0
H455 H 0.43949 0.43711 0.99748 0.0
O456 O 0.46938 0.48186 0.11889 0.0
O457 O 0.41691 0.51629 0.09192 0.0
O458 O 0.3804 0.40548 0.03373 0.0
O459 O 0.33429 0.44 0.9954 0.0
C460 C 0.5207 0.61849 1.00635 0.0
C461 C 0.49526 0.65353 1.0048 0.0
H462 H 0.43665 0.71189 0.02408 0.0
H463 H 0.35616 0.6815 0.05066 0.0
H464 H 0.5235 0.46231 1.00106 0.0
H465 H 0.56238 0.54366 0.99239 0.0
H466 H 0.55373 0.62563 0.03255 0.0
H467 H 0.51436 0.69138 1.00476 0.0
Mn468 Mn 0.85872 0.18233 0.15627 0.0
Mn469 Mn 0.77632 0.11448 0.03494 0.0
C470 C 0.77018 0.15974 0.13445 0.0
C471 C 0.8772 0.26159 0.21019 0.0
C472 C 0.84046 0.22451 0.06418 0.0
O473 O 0.90382 0.14639 0.12975 0.0
O474 O 0.82745 0.12005 0.09276 0.0
C475 C 0.74464 1.02255 0.07774 0.0
N476 N 0.74082 0.04559 0.03834 0.0
C477 C 0.64669 0.9879 1.01669 0.0
C478 C 0.65676 0.96775 0.05785 0.0
C479 C 0.70538 0.98376 0.08622 0.0
C480 C 0.69967 1.02767 1.0032 0.0
H481 H 0.77825 0.03467 0.10434 0.0
C482 C 0.87195 0.11879 0.0933 0.0
O483 O 0.91023 0.24056 0.2025 0.0
O484 O 0.83224 0.23543 0.19061 0.0
N485 N 0.7347 0.10373 0.96813 0.0
C486 C 0.73532 0.13245 0.93345 0.0
C487 C 0.69169 0.13107 0.89973 0.0
C488 C 0.64358 0.10193 0.90012 0.0
C489 C 0.6382 0.06724 0.92962 0.0
C490 C 0.69571 0.06489 0.96114 0.0
H491 H 0.7707 0.15451 0.9298 0.0
O492 O 0.79586 0.19719 0.16875 0.0
O493 O 0.79459 0.13538 0.11094 0.0
O494 O 0.86769 0.22338 0.10386 0.0
O495 O 0.80721 0.18675 0.03507 0.0
C496 C 0.58111 1.02741 0.9413 0.0
C497 C 0.58533 0.98613 0.98492 0.0
H498 H 0.62735 0.94235 0.06978 0.0
H499 H 0.71233 0.96805 0.11876 0.0
H500 H 0.69451 0.15502 0.87337 0.0
H501 H 0.61212 0.10558 0.87654 0.0
H502 H 0.5456 1.0283 0.92295 0.0
H503 H 0.55235 0.96305 0.99384 0.0
Mn504 Mn 0.2401 0.62995 0.29215 0.0
Mn505 Mn 0.34309 0.71602 0.38304 0.0
C506 C 0.27705 0.71188 0.29178 0.0
C507 C 0.19495 0.58859 0.21765 0.0
C508 C 0.22739 0.69038 0.37925 0.0
O509 O 0.267 0.57742 0.31682 0.0
O510 O 0.31243 0.65247 0.33719 0.0
C511 C 0.40998 0.70625 0.31156 0.0
N512 N 0.40705 0.72173 0.36007 0.0
C513 C 0.48469 0.79797 0.35765 0.0
C514 C 0.48344 0.77593 0.30933 0.0
C515 C 0.44833 0.73011 0.28824 0.0
C516 C 0.44435 0.75979 0.3886 0.0
H517 H 0.38073 0.67566 0.28847 0.0
C518 C 0.30592 0.60793 0.34358 0.0
O519 O 0.17695 0.58353 0.25759 0.0
O520 O 0.24229 0.6088 0.22211 0.0
N521 N 0.38265 0.7592 0.44682 0.0
C522 C 0.36596 0.7867 0.47898 0.0
C523 C 0.39843 0.82236 0.52034 0.0
C524 C 0.4343 0.86132 0.51139 0.0
C525 C 0.45202 0.84881 0.4701 0.0
C526 C 0.42769 0.78344 0.44177 0.0
H527 H 0.3449 0.80252 0.45494 0.0
O528 O 0.23076 0.69047 0.27228 0.0
O529 O 0.30242 0.68646 0.31322 0.0
O530 O 0.22103 0.64639 0.35878 0.0
O531 O 0.27298 0.71921 0.39712 0.0
C532 C 0.49247 0.89102 0.44012 0.0
C533 C 0.50777 0.86411 0.37992 0.0
H534 H 0.50592 0.79572 0.28631 0.0
H535 H 0.44721 0.71477 0.24979 0.0
H536 H 0.40041 0.81688 0.5582 0.0
H537 H 0.45134 0.89562 0.53745 0.0
H538 H 0.50478 0.88565 0.40863 0.0
H539 H 0.52344 0.88295 0.34872 0.0
Mn540 Mn 0.90018 0.9422 0.61537 0.0
Mn541 Mn 0.88747 1.02654 0.55799 0.0
C542 C 0.97619 1.00992 0.613 0.0
C543 C 0.88037 0.91132 0.69087 0.0
C544 C 0.876 0.9243 0.50276 0.0
O545 O 0.82394 0.93763 0.59506 0.0
O546 O 0.8484 1.01657 0.60882 0.0
C547 C 0.88983 0.12067 0.61707 0.0
N548 N 0.90927 0.09512 0.58417 0.0
C549 C 0.92054 0.15883 0.53592 0.0
C550 C 0.90371 0.18717 0.57101 0.0
C551 C 0.88893 0.16821 0.61227 0.0
C552 C 0.92454 0.11379 0.54511 0.0
H553 H 0.87288 0.10409 0.64528 0.0
C554 C 0.81346 0.97823 0.60121 0.0
O555 O 0.87899 0.88272 0.6495 0.0
O556 O 0.89679 0.95755 0.68977 0.0
N557 N 0.93259 0.03786 0.51769 0.0
C558 C 0.95736 1.00849 0.4975 0.0
C559 C 0.97612 1.01914 0.45653 0.0
C560 C 0.96904 0.05996 0.43976 0.0
C561 C 0.95473 0.09656 0.46952 0.0
C562 C 0.93888 0.08344 0.51103 0.0
H563 H 0.96151 0.97679 0.51149 0.0
O564 O 0.97913 0.97041 0.62911 0.0
O565 O 0.9311 1.00893 0.60412 0.0
O566 O 0.90021 0.91224 0.53921 0.0
O567 O 0.857 0.95845 0.51434 0.0
C568 C 0.94892 0.14106 0.45807 0.0
C569 C 0.93192 0.17217 0.49107 0.0
H570 H 0.90078 0.22281 0.56597 0.0
H571 H 0.87422 0.18899 0.63867 0.0
H572 H 0.99012 0.99346 0.4349 0.0
H573 H 0.96754 0.05583 0.40074 0.0
H574 H 0.95497 0.15105 0.42349 0.0
H575 H 0.92706 0.20574 0.48139 0.0
Mn576 Mn 1.04006 0.07437 0.28802 0.0
Mn577 Mn 0.9488 0.10375 0.32527 0.0
C578 C 0.96891 1.00341 0.29671 0.0
C579 C 0.06634 0.08232 0.20504 0.0
C580 C 1.0499 0.10829 0.39992 0.0
O581 O 0.06373 0.15282 0.30495 0.0
O582 O 0.99009 0.12326 0.27953 0.0
C583 C 0.89417 0.07431 0.22194 0.0
N584 N 0.89591 0.0898 0.27098 0.0
C585 C 0.81452 0.09795 0.25539 0.0
C586 C 0.81211 0.08337 0.20443 0.0
C587 C 0.85143 0.06949 0.18806 0.0
C588 C 0.85718 0.09916 0.28787 0.0
H589 H 0.92479 0.0647 0.2092 0.0
C590 C 1.02398 0.16164 0.29336 0.0
O591 O 0.09573 0.08273 0.24541 0.0
O592 O 1.02121 0.0718 0.21067 0.0
N593 N 0.89348 0.08181 0.36 0.0
C594 C 0.87609 0.0452 0.38513 0.0
C595 C 0.83747 0.047 0.41066 0.0
C596 C 0.80782 0.07633 0.3978 0.0
C597 C 0.81392 0.09691 0.35581 0.0
C598 C 0.85742 0.09826 0.33734 0.0
H599 H 0.89049 1.01467 0.38602 0.0
O600 O 1.0077 0.9982 0.28035 0.0
O601 O 0.96997 0.04841 0.30372 0.0
O602 O 0.06494 0.08281 0.3662 0.0
O603 O 1.01102 0.1232 0.38647 0.0
C604 C 0.77414 0.10558 0.32616 0.0
C605 C 0.77406 0.10519 0.27525 0.0
H606 H 0.77862 0.07918 0.17843 0.0
H607 H 0.84935 0.05432 0.14988 0.0
H608 H 0.82797 1.02232 0.43601 0.0
H609 H 0.77542 0.07552 0.41362 0.0
H610 H 0.74081 0.10574 0.34021 0.0
H611 H 0.74103 0.1058 0.25107 0.0
Mn612 Mn 0.31647 0.67706 0.64034 0.0
Mn613 Mn 0.27441 0.60766 0.52235 0.0
C614 C 0.23377 0.66255 0.5942 0.0
C615 C 0.33008 0.75334 0.69183 0.0
C616 C 0.31795 0.71768 0.55215 0.0
O617 O 0.36451 0.63773 0.63505 0.0
O618 O 0.33512 0.60021 0.55575 0.0
C619 C 0.24541 0.5166 0.5665 0.0
N620 N 0.23971 0.54034 0.5278 0.0
C621 C 0.14997 0.47253 0.49932 0.0
C622 C 0.16249 0.45139 0.53917 0.0
C623 C 0.20947 0.47279 0.57101 0.0
C624 C 0.1988 0.52258 0.49287 0.0
H625 H 0.27753 0.53223 0.59606 0.0
C626 C 0.36468 0.60813 0.59667 0.0
O627 O 0.36323 0.73155 0.69224 0.0
O628 O 0.28724 0.73047 0.66389 0.0
N629 N 0.21687 0.6074 0.47741 0.0
C630 C 0.19715 0.64397 0.4755 0.0
C631 C 0.15285 0.63855 0.44409 0.0
C632 C 0.12431 0.59666 0.40843 0.0
C633 C 0.1311 0.55402 0.41716 0.0
C634 C 0.18979 0.56229 0.45454 0.0
H635 H 0.21157 0.6759 0.50405 0.0
O636 O 0.25453 0.70016 0.62988 0.0
O637 O 0.25973 0.6333 0.58685 0.0
O638 O 0.34449 0.7187 0.59289 0.0
O639 O 0.30468 0.67852 0.51768 0.0
C640 C 0.07812 0.5016 0.4204 0.0
C641 C 0.08857 0.46144 0.46338 0.0
H642 H 0.13569 0.4206 0.54749 0.0
H643 H 0.21749 0.45636 0.60275 0.0
H644 H 0.13822 0.66676 0.45519 0.0
H645 H 0.08835 0.59389 0.38859 0.0
H646 H 1.04093 0.49881 0.40287 0.0
H647 H 1.05731 0.43588 0.47262 0.0
Mn648 Mn 0.53154 0.59699 0.79236 0.0
Mn649 Mn 0.49187 0.60469 0.85866 0.0
C650 C 0.4587 0.51421 0.78742 0.0
C651 C 0.56688 0.60188 0.71362 0.0
C652 C 0.57314 0.64293 0.91852 0.0
O653 O 0.53323 0.67144 0.79357 0.0
O654 O 0.47385 0.65422 0.83293 0.0
C655 C 0.40784 0.63206 0.89291 0.0
N656 N 0.4351 0.60026 0.88651 0.0
C657 C 0.37334 0.53626 0.90431 0.0
C658 C 0.3432 0.56674 0.90993 0.0
C659 C 0.36125 0.61569 0.90533 0.0
C660 C 0.42054 0.55557 0.89533 0.0
H661 H 0.42131 0.66944 0.88841 0.0
C662 C 0.49791 0.68244 0.81037 0.0
O663 O 0.593 0.61121 0.75796 0.0
O664 O 0.51999 0.58694 0.71382 0.0
N665 N 0.49962 0.55028 0.88655 0.0
C666 C 0.53363 0.52491 0.88337 0.0
C667 C 0.52173 0.47656 0.88992 0.0
C668 C 0.47424 0.45426 0.89648 0.0
C669 C 0.44005 0.48071 0.89728 0.0
C670 C 0.45436 0.52907 0.89473 0.0
H671 H 0.56775 0.53884 0.87135 0.0
O672 O 0.50446 0.5179 0.78408 0.0
O673 O 0.4552 0.55841 0.79814 0.0
O674 O 0.57645 0.6185 0.87517 0.0
O675 O 0.53217 0.65079 0.91734 0.0
C676 C 0.39047 0.45943 0.89381 0.0
C677 C 0.35813 0.48671 0.90416 0.0
H678 H 0.30662 0.55317 0.91792 0.0
H679 H 0.33911 0.64028 0.91023 0.0
H680 H 0.54823 0.45624 0.88836 0.0
H681 H 0.4651 0.41814 0.90452 0.0
H682 H 0.37713 0.42451 0.87001 0.0
H683 H 0.32115 0.46942 0.90815 0.0
Mn684 Mn 0.76539 0.15794 0.76655 0.0
Mn685 Mn 0.87294 0.18515 0.83817 0.0
C686 C 0.81906 0.2319 0.76961 0.0
C687 C 0.70982 0.11834 0.69866 0.0
C688 C 0.79398 0.22133 0.87069 0.0
O689 O 0.76688 0.09434 0.78711 0.0
O690 O 0.82219 0.13209 0.85533 0.0
C691 C 0.89025 0.09301 0.79658 0.0
N692 N 0.89637 0.14113 0.79651 0.0
C693 C 0.9479 0.1402 0.73527 0.0
C694 C 0.93627 0.0891 0.73002 0.0
C695 C 0.90844 0.0656 0.76206 0.0
C696 C 0.92615 0.16508 0.76866 0.0
H697 H 0.87427 0.07707 0.82498 0.0
C698 C 0.7872 0.09518 0.83087 0.0
O699 O 0.69525 0.12869 0.74008 0.0
O700 O 0.75666 0.12851 0.69778 0.0
N701 N 0.92806 0.23298 0.82526 0.0
C702 C 0.96269 0.26393 0.86297 0.0
C703 C 1.00838 0.29098 0.85407 0.0
C704 C 1.01983 0.2814 0.80674 0.0
C705 C 0.98855 0.24068 0.77195 0.0
C706 C 0.9439 0.21521 0.78443 0.0
H707 H 0.95643 0.26204 0.89992 0.0
O708 O 0.77333 0.22266 0.7484 0.0
O709 O 0.83315 0.19399 0.77901 0.0
O710 O 0.7628 0.18864 0.83613 0.0
O711 O 0.84184 0.22922 0.87712 0.0
C712 C 1.00577 0.2183 0.7324 0.0
C713 C 0.98492 0.16768 0.71358 0.0
H714 H 0.95226 0.06835 0.70491 0.0
H715 H 0.90304 1.0271 0.76203 0.0
H716 H 1.03578 0.31674 0.88402 0.0
H717 H 1.05575 0.30078 0.80027 0.0
H718 H 1.03891 0.23796 0.72081 0.0
H719 H 1.00149 0.14955 0.68678 0.0
Mn720 Mn 0.82615 0.79087 0.08408 0.0
Mn721 Mn 0.80301 0.68917 0.99487 0.0
C722 C 0.74294 0.73703 0.05585 0.0
C723 C 0.84082 0.82586 0.17467 0.0
C724 C 0.83599 0.79166 0.96822 0.0
O725 O 0.89269 0.77513 0.09413 0.0
O726 O 0.86869 0.70468 0.03772 0.0
C727 C 0.79661 0.62101 0.06573 0.0
N728 N 0.77997 0.63205 0.02165 0.0
C729 C 0.72223 0.55175 0.99375 0.0
C730 C 0.7437 0.53744 0.0357 0.0
C731 C 0.78006 0.57258 0.07272 0.0
C732 C 0.74171 0.6001 0.98846 0.0
H733 H 0.82226 0.64904 0.09499 0.0
C734 C 0.89865 0.73434 0.07546 0.0
O735 O 0.85189 0.85251 0.14151 0.0
O736 O 0.82188 0.77979 0.15576 0.0
N737 N 0.74023 0.66668 0.95095 0.0
C738 C 0.72216 0.6879 0.91474 0.0
C739 C 0.68478 0.65839 0.87492 0.0
C740 C 0.66765 0.60738 0.87216 0.0
C741 C 0.68376 0.58717 0.91196 0.0
C742 C 0.72123 0.6182 0.95026 0.0
H743 H 0.73795 0.72642 0.91483 0.0
O744 O 0.75206 0.78343 0.07345 0.0
O745 O 0.78241 0.72565 0.04922 0.0
O746 O 0.83681 0.81537 1.01283 0.0
O747 O 0.82546 0.74498 0.95985 0.0
C748 C 0.66455 0.53751 0.91516 0.0
C749 C 0.68233 0.52036 0.95717 0.0
H750 H 0.73042 0.50025 0.04153 0.0
H751 H 0.79447 0.56254 0.10672 0.0
H752 H 0.67091 0.67453 0.84517 0.0
H753 H 0.64069 0.58434 0.84014 0.0
H754 H 0.63606 0.51218 0.88578 0.0
H755 H 0.66581 0.48273 0.96035 0.0
Mn756 Mn 0.97783 0.61668 0.87618 0.0
Mn757 Mn 0.88662 0.59151 0.94978 0.0
C758 C 0.89982 0.52677 0.86391 0.0
C759 C 0.985 0.56026 0.8119 0.0
C760 C 0.9987 0.64365 0.99066 0.0
O761 O 0.94242 0.66681 0.87564 0.0
O762 O 0.88311 0.64673 0.9187 0.0
C763 C 0.80458 0.5571 0.86089 0.0
N764 N 0.8241 0.5532 0.90759 0.0
C765 C 0.7578 0.47973 0.90317 0.0
C766 C 0.73548 0.485 0.85662 0.0
C767 C 0.75946 0.52353 0.83499 0.0
C768 C 0.80346 0.51389 0.92653 0.0
H769 H 0.82497 0.58344 0.8421 0.0
C770 C 0.90208 0.66874 0.88687 0.0
O771 O 1.00842 0.56557 0.85694 0.0
O772 O 0.95436 0.58531 0.80472 0.0
N773 N 0.87694 0.53842 0.98541 0.0
C774 C 0.90106 0.5404 0.0322 0.0
C775 C 0.88065 0.50673 0.06102 0.0
C776 C 0.83341 0.47355 0.0433 0.0
C777 C 0.80748 0.47364 0.99638 0.0
C778 C 0.83014 0.50774 0.96918 0.0
H779 H 0.93616 0.5672 0.04731 0.0
O780 O 0.92291 0.56533 0.89565 0.0
O781 O 0.92205 0.56544 0.89745 0.0
O782 O 1.01188 0.64454 0.94875 0.0
O783 O 0.95295 0.62839 0.99519 0.0
C784 C 0.75985 0.44098 0.97548 0.0
C785 C 0.7363 0.44228 0.92761 0.0
H786 H 0.70043 0.45928 0.83688 0.0
H787 H 0.74376 0.52681 0.79809 0.0
H788 H 0.90086 0.50723 0.09743 0.0
H789 H 0.81736 0.44821 0.06596 0.0
H790 H 0.74173 0.41383 0.99539 0.0
H791 H 0.70066 0.41579 0.911 0.0
Mn792 Mn 0.8891 0.44423 0.55393 0.0
Mn793 Mn 0.86392 0.53688 0.51482 0.0
C794 C 0.94858 0.50229 0.52561 0.0
C795 C 0.92014 0.39685 0.60055 0.0
C796 C 0.85298 0.44424 0.45004 0.0
O797 O 0.83452 0.45288 0.59516 0.0
O798 O 0.8141 0.48309 0.5321 0.0
C799 C 0.88686 0.57547 0.6246 0.0
N800 N 0.87734 0.58375 0.5772 0.0
C801 C 0.91667 0.6705 0.60964 0.0
C802 C 0.91379 0.66272 0.65789 0.0
C803 C 0.90125 0.61461 0.66571 0.0
C804 C 0.89926 0.62942 0.57013 0.0
H805 H 0.88488 0.53937 0.63142 0.0
C806 C 0.8076 0.4758 0.57458 0.0
O807 O 0.88334 0.37664 0.56378 0.0
O808 O 0.93492 0.44441 0.6138 0.0
N809 N 0.90586 0.58938 0.49331 0.0
C810 C 0.91799 0.5887 0.44749 0.0
C811 C 0.94449 0.63231 0.43579 0.0
C812 C 0.95902 0.67576 0.47176 0.0
C813 C 0.9432 0.6764 0.51688 0.0
C814 C 0.91457 0.63213 0.52559 0.0
H815 H 0.90791 0.55516 0.42014 0.0
O816 O 0.94695 0.45636 0.51958 0.0
O817 O 0.91519 0.5136 0.54676 0.0
O818 O 0.84244 0.42378 0.48619 0.0
O819 O 0.85965 0.49024 0.45271 0.0
C820 C 0.9569 0.71887 0.55427 0.0
C821 C 0.94318 0.71607 0.60066 0.0
H822 H 0.92721 0.69296 0.68958 0.0
H823 H 0.90463 0.60777 0.70331 0.0
H824 H 0.95559 0.63182 0.40003 0.0
H825 H 0.98403 0.70851 0.46565 0.0
H826 H 0.9803 0.75325 0.54873 0.0
H827 H 0.95666 0.74824 0.63032 0.0
Mn828 Mn 0.70412 0.66505 0.32975 0.0
Mn829 Mn 0.8045 0.67775 0.41863 0.0
C830 C 0.76198 0.74571 0.36411 0.0
C831 C 0.66764 0.6578 0.2413 0.0
C832 C 0.6991 0.64187 0.44059 0.0
O833 O 0.71765 0.59859 0.31354 0.0
O834 O 0.787 0.61483 0.37168 0.0
C835 C 0.87964 0.67962 0.3555 0.0
N836 N 0.86395 0.70131 0.39453 0.0
C837 C 0.94304 0.76252 0.42257 0.0
C838 C 0.96096 0.73885 0.38453 0.0
C839 C 0.92865 0.69838 0.34978 0.0
C840 C 0.89388 0.74194 0.42647 0.0
H841 H 0.85554 0.64727 0.32989 0.0
C842 C 0.7559 0.58819 0.33312 0.0
O843 O 0.64131 0.64454 0.2742 0.0
O844 O 0.71451 0.67485 0.25925 0.0
N845 N 0.82694 0.73795 0.46613 0.0
C846 C 0.80598 0.75161 0.50486 0.0
C847 C 0.83458 0.78923 0.54468 0.0
C848 C 0.8844 0.8122 0.54426 0.0
C849 C 0.90454 0.79928 0.503 0.0
C850 C 0.87461 0.76078 0.46495 0.0
H851 H 0.76837 0.73251 0.5065 0.0
O852 O 0.71547 0.73927 0.34737 0.0
O853 O 0.77109 0.70447 0.36671 0.0
O854 O 0.67703 0.64686 0.39765 0.0
O855 O 0.7462 0.65267 0.45038 0.0
C856 C 0.95395 0.82129 0.49947 0.0
C857 C 0.97316 0.80304 0.45917 0.0
H858 H 0.99947 0.75162 0.38158 0.0
H859 H 0.94199 0.68063 0.31981 0.0
H860 H 0.81872 0.79935 0.57632 0.0
H861 H 0.90723 0.83936 0.57611 0.0
H862 H 0.97782 0.8514 0.52822 0.0
H863 H 1.01159 0.81931 0.4576 0.0
Dy864 Dy 0.17063 0.13909 0.09866 0.0
Dy865 Dy 0.07385 0.08256 0.03297 0.0
C866 C 0.16222 0.12079 0.97202 0.0
O867 O 0.13732 0.20498 0.09306 0.0
O868 O 0.06634 0.16188 0.03838 0.0
O869 O 0.23791 0.20089 0.11628 0.0
O870 O 0.22985 0.14403 0.15929 0.0
O871 O 1.05498 0.08114 0.11226 0.0
O872 O 0.12934 0.1247 0.1613 0.0
O873 O 0.10291 1.01764 0.04909 0.0
O874 O 0.16907 0.0589 0.10965 0.0
O875 O 1.00841 1.02024 0.01889 0.0
O876 O 1.01765 0.06938 0.96711 0.0
C877 C 0.09633 0.20543 0.06318 0.0
O878 O 0.18922 0.13328 1.01816 0.0
O879 O 0.11486 0.0978 0.96777 0.0
C880 C 0.29455 0.15517 0.11721 0.0
C881 C 0.32213 0.08497 0.05547 0.0
C882 C 0.30008 0.1171 0.03509 0.0
C883 C 0.29092 0.15426 0.06602 0.0
C884 C 0.31375 0.12095 0.1378 0.0
C885 C 0.32796 0.08637 0.10715 0.0
C886 C 0.26059 0.17593 0.14153 0.0
C887 C 0.084 0.09633 0.15728 0.0
C888 C 0.13741 1.01585 0.08603 0.0
C889 C 0.94419 0.05204 0.9978 0.0
C890 C 0.88652 0.09297 0.05255 0.0
C891 C 0.9129 0.11992 0.02199 0.0
C892 C 0.94127 0.09933 0.99409 0.0
C893 C 0.91404 1.02376 0.02519 0.0
C894 C 0.88495 0.04414 0.05224 0.0
C895 C 0.98638 0.03763 0.98471 0.0
H896 H 0.29547 0.11735 0.9956 0.0
H897 H 0.27712 0.18017 0.04896 0.0
H898 H 0.31548 0.11946 0.17693 0.0
H899 H 0.34413 0.0614 0.12394 0.0
H900 H 0.91449 0.15793 0.02262 0.0
H901 H 0.96398 0.12202 0.9732 0.0
H902 H 0.91587 0.98739 0.02867 0.0
H903 H 0.86457 1.02302 0.07581 0.0
Dy904 Dy 0.37843 0.8474 0.28151 0.0
Dy905 Dy 0.32457 0.86481 0.37766 0.0
C906 C 0.39687 0.94715 0.35369 0.0
O907 O 0.40392 0.80912 0.33884 0.0
O908 O 0.40377 0.86585 0.40022 0.0
O909 O 0.44539 0.86457 0.25249 0.0
O910 O 0.38203 0.80535 0.21146 0.0
O911 O 0.30786 0.7856 0.35074 0.0
O912 O 0.30874 0.78713 0.26851 0.0
O913 O 0.27132 0.86688 0.30714 0.0
O914 O 0.32657 0.88745 0.25443 0.0
O915 O 0.27039 0.86861 0.4242 0.0
O916 O 0.34733 0.89164 0.45813 0.0
C917 C 0.42663 0.83317 0.38475 0.0
O918 O 0.41919 0.91704 0.33503 0.0
O919 O 0.34988 0.93262 0.35162 0.0
C920 C 0.42523 0.8603 0.16776 0.0
C921 C 0.4324 0.92768 0.10469 0.0
C922 C 0.38921 0.91187 0.12328 0.0
C923 C 0.38567 0.87855 0.15464 0.0
C924 C 0.46763 0.87384 0.14695 0.0
C925 C 0.4711 0.9075 0.11497 0.0
C926 C 0.42474 0.83533 0.20981 0.0
C927 C 0.29538 0.76423 0.30372 0.0
C928 C 0.28236 0.88164 0.26523 0.0
C929 C 0.29194 0.84429 0.50212 0.0
C930 C 0.30021 0.76161 0.54456 0.0
C931 C 0.27114 0.75722 0.49922 0.0
C932 C 0.26802 0.79718 0.47844 0.0
C933 C 0.31429 0.85098 0.55323 0.0
C934 C 0.31657 0.80927 0.57518 0.0
C935 C 0.30248 0.87897 0.46641 0.0
H936 H 0.35833 0.9259 0.114 0.0
H937 H 0.35255 0.86843 0.17004 0.0
H938 H 0.4986 0.86026 0.15717 0.0
H939 H 0.50385 0.91818 0.09897 0.0
H940 H 0.26005 0.72327 0.47449 0.0
H941 H 0.25664 0.79024 0.43861 0.0
H942 H 0.33517 0.88687 0.57427 0.0
H943 H 0.33832 0.81529 0.61218 0.0
Dy944 Dy 0.57923 0.11489 0.60676 0.0
Dy945 Dy 0.66212 0.12422 0.54354 0.0
C946 C 0.55486 0.12565 0.49527 0.0
O947 O 0.56609 1.02946 0.5691 0.0
O948 O 0.63894 0.04044 0.54352 0.0
O949 O 0.50851 0.08649 0.62572 0.0
O950 O 0.56026 0.15174 0.67243 0.0
O951 O 0.68799 0.14172 0.6247 0.0
O952 O 0.6307 0.08672 0.65014 0.0
O953 O 0.66376 0.20687 0.5542 0.0
O954 O 0.6245 0.20028 0.6201 0.0
O955 O 0.74154 0.14806 0.5473 0.0
O956 O 0.69421 0.09336 0.48475 0.0
C957 C 0.59855 1.00866 0.55055 0.0
O958 O 0.5462 0.13463 0.53983 0.0
O959 O 0.59537 0.11591 0.48647 0.0
C960 C 0.47658 0.1516 0.6485 0.0
C961 C 0.4136 0.19995 0.60247 0.0
C962 C 0.40205 0.14838 0.59299 0.0
C963 C 0.43157 0.1248 0.61713 0.0
C964 C 0.48751 0.20319 0.66103 0.0
C965 C 0.45526 0.22701 0.63918 0.0
C966 C 0.51391 0.12542 0.65897 0.0
C967 C 0.67634 0.11028 0.65326 0.0
C968 C 0.64859 0.22963 0.59197 0.0
C969 C 0.75267 0.06882 0.53628 0.0
C970 C 0.76909 0.98733 0.57612 0.0
C971 C 0.75535 1.02392 0.60489 0.0
C972 C 0.7504 0.0651 0.58593 0.0
C973 C 0.76014 1.0296 0.50616 0.0
C974 C 0.76768 0.98929 0.52553 0.0
C975 C 0.73705 0.10827 0.51524 0.0
H976 H 0.37142 0.12526 0.56465 0.0
H977 H 0.42095 0.08524 0.60752 0.0
H978 H 0.52185 0.22523 0.68558 0.0
H979 H 0.46485 0.26645 0.64776 0.0
H980 H 0.75759 1.02537 0.64461 0.0
H981 H 0.74652 0.09515 0.61055 0.0
H982 H 0.75952 1.02977 0.46754 0.0
H983 H 0.77633 0.96135 0.50147 0.0
Dy984 Dy 0.39391 0.35269 0.82784 0.0
Dy985 Dy 0.30996 0.39422 0.81468 0.0
C986 C 0.41731 0.46424 0.79145 0.0
O987 O 0.38728 0.369 0.91536 0.0
O988 O 0.31386 0.38472 0.90018 0.0
O989 O 0.47151 0.35662 0.84709 0.0
O990 O 0.42108 0.29714 0.79106 0.0
O991 O 0.2716 0.31359 0.81221 0.0
O992 O 0.33547 0.2931 0.85161 0.0
O993 O 0.31831 0.37543 0.7343 0.0
O994 O 0.34747 0.31398 0.75095 0.0
O995 O 0.23189 0.37755 0.78424 0.0
O996 O 0.27389 0.45054 0.82654 0.0
C997 C 0.34966 0.37984 0.93442 0.0
O998 O 0.43075 0.42482 0.79894 0.0
O999 O 0.371 0.46192 0.7971 0.0
C1000 C 0.50061 0.33234 0.77434 0.0
C1001 C 0.56429 0.3504 0.70531 0.0
C1002 C 0.51754 0.35766 0.69654 0.0
C1003 C 0.48602 0.34882 0.73081 0.0
C1004 C 0.54755 0.32602 0.78365 0.0
C1005 C 0.57916 0.33516 0.74966 0.0
C1006 C 0.46718 0.32146 0.80995 0.0
C1007 C 0.28724 0.28412 0.83807 0.0
C1008 C 0.32985 0.33605 0.71775 0.0
C1009 C 0.21065 0.40407 0.86083 0.0
C1010 C 0.17618 0.3848 0.94856 0.0
C1011 C 0.16675 0.34631 0.90758 0.0
C1012 C 0.18466 0.35573 0.86415 0.0
C1013 C 0.22245 0.44116 0.90321 0.0
C1014 C 0.20677 0.43127 0.94663 0.0
C1015 C 0.23198 0.41531 0.81676 0.0
H1016 H 0.50512 0.36967 0.663 0.0
H1017 H 0.45 0.35426 0.72299 0.0
H1018 H 0.55962 0.31355 0.81704 0.0
H1019 H 0.61491 0.32916 0.75762 0.0
H1020 H 0.14259 0.31018 0.90759 0.0
H1021 H 0.17615 0.32577 0.8326 0.0
H1022 H 0.24247 0.47856 0.90241 0.0
H1023 H 0.21509 0.46158 0.97712 0.0
Dy1024 Dy 0.12245 0.07423 0.55617 0.0
Dy1025 Dy 0.07517 0.15636 0.5785 0.0
C1026 C 1.01873 0.04909 0.59997 0.0
O1027 O 0.09401 0.0822 0.47436 0.0
O1028 O 1.05928 0.14326 0.49187 0.0
O1029 O 0.10679 0.99924 0.51718 0.0
O1030 O 0.16976 0.03098 0.57777 0.0
O1031 O 0.1513 0.19719 0.56494 0.0
O1032 O 0.18317 0.1362 0.53755 0.0
O1033 O 0.09816 0.14121 0.65506 0.0
O1034 O 0.16143 0.11452 0.63596 0.0
O1035 O 0.08385 0.22432 0.62904 0.0
O1036 O 1.0222 0.19539 0.5672 0.0
C1037 C 0.07111 0.11315 0.45784 0.0
O1038 O 1.0589 0.03852 0.5926 0.0
O1039 O 1.01427 0.09161 0.59137 0.0
C1040 C 0.12166 0.94935 0.57587 0.0
C1041 C 0.09371 0.88758 0.64428 0.0
C1042 C 1.05862 0.90426 0.61706 0.0
C1043 C 0.07226 0.93426 0.58258 0.0
C1044 C 0.15552 0.92913 0.60001 0.0
C1045 C 0.14169 0.89852 0.63382 0.0
C1046 C 0.1396 0.99046 0.54965 0.0
C1047 C 0.18596 0.18348 0.54534 0.0
C1048 C 0.13912 0.13134 0.67008 0.0
C1049 C 0.07054 0.27544 0.57349 0.0
C1050 C 0.10587 0.30115 0.48921 0.0
C1051 C 0.13896 0.30181 0.53175 0.0
C1052 C 0.1217 0.29011 0.57417 0.0
C1053 C 1.03893 0.28442 0.53473 0.0
C1054 C 1.05722 0.2988 0.49334 0.0
C1055 C 1.05097 0.23464 0.5981 0.0
H1056 H 1.02143 0.89623 0.62436 0.0
H1057 H 1.04461 0.94757 0.56316 0.0
H1058 H 0.19341 0.93911 0.5947 0.0
H1059 H 0.16947 0.88591 0.65415 0.0
H1060 H 0.17811 0.3116 0.53191 0.0
H1061 H 0.14795 0.28719 0.60508 0.0
H1062 H 0.99972 0.27635 0.53453 0.0
H1063 H 1.03374 0.30844 0.46477 0.0
Dy1064 Dy 0.34801 0.90181 0.75586 0.0
Dy1065 Dy 0.33865 0.8356 0.83319 0.0
C1066 C 0.36052 0.94782 0.87011 0.0
O1067 O 0.43426 0.90415 0.77573 0.0
O1068 O 0.42547 0.86504 0.84024 0.0
O1069 O 0.38091 0.96323 0.72326 0.0
O1070 O 0.30523 0.92236 0.69491 0.0
O1071 O 0.3082 0.79972 0.75514 0.0
O1072 O 0.36488 0.83882 0.71682 0.0
O1073 O 0.25497 0.83379 0.82709 0.0
O1074 O 0.25912 0.86634 0.75696 0.0
O1075 O 0.31958 0.75765 0.83353 0.0
O1076 O 0.37116 0.80924 0.89579 0.0
C1077 C 0.45651 0.88768 0.81342 0.0
O1078 O 0.3701 0.95415 0.82671 0.0
O1079 O 0.34104 0.90462 0.88049 0.0
C1080 C 0.32444 1.00931 0.71547 0.0
C1081 C 0.28067 0.06565 0.77762 0.0
C1082 C 0.33103 0.06855 0.79013 0.0
C1083 C 0.35285 0.04219 0.75906 0.0
C1084 C 0.27609 1.01124 0.69908 0.0
C1085 C 0.25448 0.03966 0.72971 0.0
C1086 C 0.33892 0.96435 0.69929 0.0
C1087 C 0.33769 0.79816 0.72452 0.0
C1088 C 0.22996 0.84631 0.78857 0.0
C1089 C 0.40124 0.75103 0.84877 0.0
C1090 C 0.48125 0.72615 0.81101 0.0
C1091 C 0.4351 0.71717 0.7798 0.0
C1092 C 0.39521 0.72688 0.79917 0.0
C1093 C 0.44891 0.76606 0.87803 0.0
C1094 C 0.48786 0.75307 0.85973 0.0
C1095 C 0.3596 0.76594 0.86698 0.0
H1096 H 0.35329 0.08812 0.82611 0.0
H1097 H 0.39048 0.04308 0.77289 0.0
H1098 H 0.25336 0.98684 0.66546 0.0
H1099 H 0.21631 0.03798 0.71766 0.0
H1100 H 0.42726 0.69435 0.74304 0.0
H1101 H 0.35885 0.71355 0.7758 0.0
H1102 H 0.45497 0.78436 0.91633 0.0
H1103 H 0.51976 0.75466 0.88684 0.0
Dy1104 Dy 0.6354 0.17646 0.05204 0.0
Dy1105 Dy 0.6102 0.10261 0.12444 0.0
C1106 C 0.63886 0.06459 1.01273 0.0
O1107 O 0.56464 0.11972 1.00849 0.0
O1108 O 0.54198 0.07403 0.06668 0.0
O1109 O 0.62398 0.19671 0.97941 0.0
O1110 O 0.67302 0.24922 0.04139 0.0
O1111 O 0.58666 0.16615 0.16505 0.0
O1112 O 0.63697 0.22243 0.13171 0.0
O1113 O 0.68934 0.143 0.1474 0.0
O1114 O 0.70544 0.16083 0.07293 0.0
O1115 O 0.60462 0.08624 0.19706 0.0
O1116 O 0.60233 1.02881 0.13654 0.0
C1117 C 0.53682 0.08006 0.02031 0.0
O1118 O 0.65598 0.11316 1.01371 0.0
O1119 O 0.6222 0.05664 0.05512 0.0
C1120 C 0.69676 0.24681 0.96315 0.0
C1121 C 0.76972 0.2465 0.9047 0.0
C1122 C 0.77811 0.24148 0.95354 0.0
C1123 C 0.73974 0.23599 0.98012 0.0
C1124 C 0.69015 0.25866 0.91572 0.0
C1125 C 0.7256 0.25657 0.88581 0.0
C1126 C 0.65778 0.2389 0.99318 0.0
C1127 C 0.61052 0.21303 0.16738 0.0
C1128 C 0.71936 0.15283 0.1169 0.0
C1129 C 0.54772 1.01044 0.1905 0.0
C1130 C 0.47342 0.9826 0.24327 0.0
C1131 C 0.46694 1.00914 0.20556 0.0
C1132 C 0.50608 1.0265 0.18218 0.0
C1133 C 0.54688 0.97265 0.21639 0.0
C1134 C 0.51143 0.96067 0.24554 0.0
C1135 C 0.59429 0.03929 0.18112 0.0
H1136 H 0.81041 0.23132 0.96644 0.0
H1137 H 0.74232 0.22114 1.01353 0.0
H1138 H 0.65636 0.26545 0.90035 0.0
H1139 H 0.71728 0.2596 0.84712 0.0
H1140 H 0.4365 1.02434 0.20146 0.0
H1141 H 0.50574 0.05539 0.16135 0.0
H1142 H 0.57598 0.95626 0.21755 0.0
H1143 H 0.51765 0.93993 0.27412 0.0
Dy1144 Dy 0.34391 0.31856 0.30451 0.0
Dy1145 Dy 0.39787 0.41752 0.36609 0.0
C1146 C 0.35851 0.32574 0.42521 0.0
O1147 O 0.27665 0.34195 0.32308 0.0
O1148 O 0.31613 0.42237 0.35156 0.0
O1149 O 0.28505 0.25092 0.29457 0.0
O1150 O 0.32776 0.26336 0.23714 0.0
O1151 O 0.39905 0.43535 0.28732 0.0
O1152 O 0.35162 0.36142 0.24142 0.0
O1153 O 0.47033 0.39281 0.35624 0.0
O1154 O 0.42647 0.31965 0.30695 0.0
O1155 O 0.44184 0.49308 0.37391 0.0
O1156 O 0.41345 0.46761 0.43632 0.0
C1157 C 0.2736 0.38599 0.33962 0.0
O1158 O 0.35706 0.29862 0.38173 0.0
O1159 O 0.3711 0.3739 0.42763 0.0
C1160 C 0.32149 0.19249 0.27031 0.0
C1161 C 0.37065 0.14968 0.33686 0.0
C1162 C 0.39723 0.18643 0.31571 0.0
C1163 C 0.37321 0.20524 0.28024 0.0
C1164 C 0.29414 0.15529 0.29153 0.0
C1165 C 0.31875 0.13355 0.32455 0.0
C1166 C 0.3006 0.23068 0.25762 0.0
C1167 C 0.37864 0.40681 0.24316 0.0
C1168 C 0.47123 0.35133 0.32766 0.0
C1169 C 0.40281 0.54182 0.4175 0.0
C1170 C 0.34001 0.59245 0.37844 0.0
C1171 C 0.39109 0.60933 0.38022 0.0
C1172 C 0.42238 0.58476 0.40024 0.0
C1173 C 0.35266 0.52817 0.42155 0.0
C1174 C 0.32138 0.5532 0.40179 0.0
C1175 C 0.43015 0.50551 0.41654 0.0
H1176 H 0.43687 0.20052 0.32724 0.0
H1177 H 0.39544 0.23337 0.26424 0.0
H1178 H 0.25422 0.14568 0.28531 0.0
H1179 H 0.29734 0.10499 0.3408 0.0
H1180 H 0.40652 0.63722 0.36068 0.0
H1181 H 0.46075 0.59574 0.39637 0.0
H1182 H 0.33651 0.49535 0.43527 0.0
H1183 H 0.28209 0.53937 0.40111 0.0
Dy1184 Dy 0.62884 0.59593 0.07281 0.0
Dy1185 Dy 0.58666 0.68088 0.0942 0.0
C1186 C 0.51363 0.56685 0.10224 0.0
O1187 O 0.61678 0.61186 0.98939 0.0
O1188 O 0.60112 0.68514 1.00937 0.0
O1189 O 0.62239 0.5194 0.04573 0.0
O1190 O 0.68355 0.56465 0.10403 0.0
O1191 O 0.66735 0.71664 0.08992 0.0
O1192 O 0.68886 0.65291 0.05048 0.0
O1193 O 0.6063 0.66429 0.17152 0.0
O1194 O 0.66834 0.63735 0.15144 0.0
O1195 O 0.60458 0.7543 0.13776 0.0
O1196 O 0.53254 0.72057 0.09095 0.0
C1197 C 0.60533 0.64999 0.97328 0.0
O1198 O 0.55474 0.55594 0.0961 0.0
O1199 O 0.51617 0.61418 0.10193 0.0
C1200 C 0.64362 0.48598 0.11751 0.0
C1201 C 0.61899 0.42683 0.18943 0.0
C1202 C 0.58198 0.43627 0.15629 0.0
C1203 C 0.59408 0.46483 0.12058 0.0
C1204 C 0.68086 0.47812 0.15152 0.0
C1205 C 0.66875 0.44871 0.18691 0.0
C1206 C 0.65678 0.52008 0.08273 0.0
C1207 C 0.69727 0.70043 0.06441 0.0
C1208 C 0.64625 0.65247 0.18618 0.0
C1209 C 0.57547 0.79889 0.08114 0.0
C1210 C 0.58956 0.83981 0.99619 0.0
C1211 C 0.63039 0.8383 0.02971 0.0
C1212 C 0.62344 0.81774 0.07179 0.0
C1213 C 0.53543 0.80571 0.05042 0.0
C1214 C 0.54244 0.82575 1.00805 0.0
C1215 C 0.56585 0.76168 0.11282 0.0
H1216 H 0.54322 0.41981 0.15638 0.0
H1217 H 0.56436 0.47001 0.09519 0.0
H1218 H 0.71942 0.49458 0.15052 0.0
H1219 H 0.69832 0.44202 0.21128 0.0
H1220 H 0.66731 0.85049 0.02195 0.0
H1221 H 0.65533 0.81353 0.09484 0.0
H1222 H 0.49827 0.79232 0.05718 0.0
H1223 H 0.51099 0.82966 0.9842 0.0
Dy1224 Dy 0.89208 0.40888 0.30093 0.0
Dy1225 Dy 0.88442 0.32084 0.3565 0.0
C1226 C 0.86815 0.41586 0.41059 0.0
O1227 O 0.97407 0.40157 0.31035 0.0
O1228 O 0.96628 0.36633 0.37795 0.0
O1229 O 0.91775 0.48606 0.29757 0.0
O1230 O 0.86237 0.43576 0.23758 0.0
O1231 O 0.91518 0.30933 0.28874 0.0
O1232 O 0.86395 0.33857 0.24366 0.0
O1233 O 0.80142 0.31284 0.32609 0.0
O1234 O 0.81165 0.39076 0.31338 0.0
O1235 O 0.85634 0.24224 0.34992 0.0
O1236 O 0.91274 0.28629 0.41398 0.0
C1237 C 0.99543 0.38454 0.34766 0.0
O1238 O 0.89502 0.43805 0.38136 0.0
O1239 O 0.85875 0.36875 0.40881 0.0
C1240 C 0.84313 0.50504 0.27535 0.0
C1241 C 0.77274 0.54914 0.30711 0.0
C1242 C 0.79405 0.52227 0.33689 0.0
C1243 C 0.82896 0.50134 0.32152 0.0
C1244 C 0.81911 0.52861 0.24334 0.0
C1245 C 0.78441 0.55097 0.25935 0.0
C1246 C 0.88056 0.48111 0.2616 0.0
C1247 C 0.88841 0.30685 0.2465 0.0
C1248 C 0.78171 0.34871 0.31825 0.0
C1249 C 0.93336 0.22646 0.36071 0.0
C1250 C 1.009 0.20304 0.31622 0.0
C1251 C 0.96687 0.20762 0.28706 0.0
C1252 C 0.92842 0.2158 0.30881 0.0
C1253 C 0.97856 0.22922 0.38995 0.0
C1254 C 1.01608 0.21695 0.36816 0.0
C1255 C 0.89549 0.24429 0.38227 0.0
H1256 H 0.78704 0.52123 0.37429 0.0
H1257 H 0.84623 0.48374 0.34711 0.0
H1258 H 0.82846 0.53137 0.20707 0.0
H1259 H 0.76973 0.57279 0.2361 0.0
H1260 H 0.95982 0.19573 0.24694 0.0
H1261 H 0.89408 0.21245 0.28462 0.0
H1262 H 0.98273 0.23667 0.42976 0.0
H1263 H 1.04787 0.21342 0.39194 0.0
Dy1264 Dy 0.07237 0.63621 0.52061 0.0
Dy1265 Dy 0.0907 0.56532 0.59823 0.0
C1266 C 0.12591 0.5426 0.49699 0.0
O1267 O 1.00029 0.58689 0.53213 0.0
O1268 O 1.03305 0.52563 0.53267 0.0
O1269 O 1.04436 0.63186 0.44118 0.0
O1270 O 0.07296 0.70154 0.48961 0.0
O1271 O 0.07783 0.63181 0.64496 0.0
O1272 O 0.06703 0.68338 0.59078 0.0
O1273 O 0.16569 0.60265 0.59839 0.0
O1274 O 0.15294 0.66506 0.55878 0.0
O1275 O 0.1174 0.54592 0.66719 0.0
O1276 O 1.05656 0.49406 0.61257 0.0
C1277 C 0.99431 0.53952 0.52476 0.0
O1278 O 0.09614 0.57121 0.48869 0.0
O1279 O 0.13752 0.54384 0.54587 0.0
C1280 C 0.08457 0.70038 0.40413 0.0
C1281 C 0.17879 0.70553 0.37821 0.0
C1282 C 0.17031 0.73923 0.41596 0.0
C1283 C 0.12391 0.74288 0.42156 0.0
C1284 C 0.08724 0.67172 0.35897 0.0
C1285 C 0.13423 0.67585 0.34502 0.0
C1286 C 1.05684 0.67905 0.44304 0.0
C1287 C 0.07246 0.67423 0.63629 0.0
C1288 C 0.18135 0.64343 0.58327 0.0
C1289 C 1.04697 0.5078 0.69463 0.0
C1290 C 0.99891 0.53366 0.77012 0.0
C1291 C 0.98337 0.5396 0.72175 0.0
C1292 C 1.00783 0.52754 0.68438 0.0
C1293 C 1.05977 0.49808 0.74175 0.0
C1294 C 1.03537 0.51051 0.77928 0.0
C1295 C 0.07935 0.50671 0.65901 0.0
H1296 H 0.18971 0.745 0.45213 0.0
H1297 H 0.12247 0.76814 0.4541 0.0
H1298 H 1.05559 0.64124 0.33939 0.0
H1299 H 0.13584 0.6495 0.31366 0.0
H1300 H 0.95529 0.55724 0.71368 0.0
H1301 H 0.99818 0.5366 0.64831 0.0
H1302 H 0.09017 0.48339 0.74985 0.0
H1303 H 1.04589 0.50365 0.81588 0.0
Dy1304 Dy 0.90418 0.85502 0.34606 0.0
Dy1305 Dy 0.82537 0.90026 0.32626 0.0
C1306 C 0.93121 0.96237 0.3111 0.0
O1307 O 0.90135 0.87873 0.42934 0.0
O1308 O 0.84613 0.92002 0.41243 0.0
O1309 O 0.98112 0.86212 0.37163 0.0
O1310 O 0.93249 0.79685 0.31979 0.0
O1311 O 0.78841 0.81876 0.32639 0.0
O1312 O 0.84774 0.80118 0.37571 0.0
O1313 O 0.83822 0.88593 0.24722 0.0
O1314 O 0.86283 0.8219 0.26442 0.0
O1315 O 0.7488 0.88808 0.2935 0.0
O1316 O 0.79201 0.95766 0.34148 0.0
C1317 C 0.8738 0.90531 0.44599 0.0
O1318 O 0.94587 0.92795 0.32885 0.0
O1319 O 0.88449 0.96029 0.3062 0.0
C1320 C 1.00692 0.83605 0.29901 0.0
C1321 C 0.06139 0.86116 0.22566 0.0
C1322 C 1.01397 0.8658 0.2217 0.0
C1323 C 0.9871 0.8537 0.25846 0.0
C1324 C 1.05435 0.83155 0.30324 0.0
C1325 C 0.08161 0.84425 0.26681 0.0
C1326 C 0.97795 0.82466 0.3372 0.0
C1327 C 0.80075 0.79137 0.35731 0.0
C1328 C 0.84878 0.84601 0.23069 0.0
C1329 C 0.72408 0.91283 0.36754 0.0
C1330 C 0.68842 0.8901 0.45264 0.0
C1331 C 0.70503 0.85652 0.42414 0.0
C1332 C 0.71964 0.86675 0.38037 0.0
C1333 C 0.71214 0.94821 0.39888 0.0
C1334 C 0.69049 0.93528 0.43892 0.0
C1335 C 0.74867 0.9254 0.32653 0.0
H1336 H 0.99784 0.87881 0.19049 0.0
H1337 H 0.95085 0.85838 0.25521 0.0
H1338 H 0.07021 0.81838 0.33448 0.0
H1339 H 0.11824 0.83995 0.27041 0.0
H1340 H 0.69996 0.81982 0.43163 0.0
H1341 H 0.72418 0.83724 0.35531 0.0
H1342 H 0.71587 0.98417 0.39005 0.0
H1343 H 0.67495 0.96042 0.45905 0.0
Dy1344 Dy 0.92348 0.38556 0.82095 0.0
Dy1345 Dy 0.84471 0.36983 0.88321 0.0
C1346 C 0.89883 0.47756 0.87195 0.0
O1347 O 0.965 0.38047 0.89543 0.0
O1348 O 0.89749 0.32863 0.90867 0.0
O1349 O 0.96178 0.41751 0.76684 0.0
O1350 O 0.98706 0.36576 0.8041 0.0
O1351 O 0.81538 0.30094 0.82625 0.0
O1352 O 0.88781 0.30486 0.79953 0.0
O1353 O 0.79097 0.37275 0.81577 0.0
O1354 O 0.85082 0.38272 0.767 0.0
O1355 O 0.79129 0.34972 0.9305 0.0
O1356 O 0.861 0.40799 0.95895 0.0
C1357 C 0.94525 0.3487 0.92147 0.0
O1358 O 0.93583 0.46165 0.86307 0.0
O1359 O 0.85616 0.44587 0.86948 0.0
C1360 C 0.98593 0.3585 0.71906 0.0
C1361 C 0.94432 0.36747 0.62722 0.0
C1362 C 0.91649 0.33311 0.65072 0.0
C1363 C 0.93836 0.32716 0.69676 0.0
C1364 C 1.01721 0.37921 0.68858 0.0
C1365 C 0.99586 0.38431 0.642 0.0
C1366 C 0.98998 0.38878 0.76734 0.0
C1367 C 0.84209 0.28144 0.79948 0.0
C1368 C 0.80375 0.37745 0.77198 0.0
C1369 C 0.83598 0.35282 1.01171 0.0
C1370 C 0.84485 0.2747 0.05621 0.0
C1371 C 0.88424 0.30041 0.03691 0.0
C1372 C 0.88044 0.34117 1.01707 0.0
C1373 C 0.80244 0.335 0.04171 0.0
C1374 C 0.80874 0.29742 0.06669 0.0
C1375 C 0.8232 0.37702 0.97024 0.0
H1376 H 0.87682 0.31778 0.63836 0.0
H1377 H 0.91467 0.3075 0.71878 0.0
H1378 H 1.05546 0.39974 0.70397 0.0
H1379 H 1.01822 0.4073 0.62128 0.0
H1380 H 0.91581 0.28721 0.03406 0.0
H1381 H 0.91031 0.36163 1.00256 0.0
H1382 H 0.76935 0.34615 0.04176 0.0
H1383 H 0.78086 0.28101 0.08688 0.0
Dy1384 Dy 0.81575 0.80961 0.79442 0.0
Dy1385 Dy 0.87242 0.8987 0.85771 0.0
C1386 C 0.84368 0.81597 0.9212 0.0
O1387 O 0.74646 0.83807 0.79928 0.0
O1388 O 0.78972 0.90069 0.86028 0.0
O1389 O 0.75435 0.74336 0.78227 0.0
O1390 O 0.80229 0.7532 0.72878 0.0
O1391 O 0.88786 0.91537 0.7818 0.0
O1392 O 0.82672 0.85291 0.73245 0.0
O1393 O 0.94199 0.87488 0.84121 0.0
O1394 O 0.89735 0.8066 0.78498 0.0
O1395 O 0.91484 0.97417 0.8605 0.0
O1396 O 0.88458 0.95323 0.92454 0.0
C1397 C 0.74517 0.87486 0.83358 0.0
O1398 O 0.82027 0.79118 0.87532 0.0
O1399 O 0.87432 0.85983 0.92396 0.0
C1400 C 0.79937 0.68823 0.77064 0.0
C1401 C 0.8685 0.68174 0.84977 0.0
C1402 C 0.88295 0.69147 0.80487 0.0
C1403 C 0.84844 0.69365 0.76527 0.0
C1404 C 0.78372 0.67075 0.81182 0.0
C1405 C 0.81825 0.67107 0.85258 0.0
C1406 C 0.7754 0.72204 0.75086 0.0
C1407 C 0.86409 0.8925 0.73667 0.0
C1408 C 0.94249 0.83764 0.80615 0.0
C1409 C 0.85145 1.00425 0.88151 0.0
C1410 C 0.78315 0.04989 0.84943 0.0
C1411 C 0.78824 1.01095 0.81641 0.0
C1412 C 0.82472 0.99007 0.83186 0.0
C1413 C 0.83402 0.03105 0.91651 0.0
C1414 C 0.80088 0.05492 0.90062 0.0
C1415 C 0.89288 0.98588 0.89636 0.0
H1416 H 0.92087 0.6975 0.80014 0.0
H1417 H 0.86141 0.7053 0.73283 0.0
H1418 H 0.74553 0.6635 0.81482 0.0
H1419 H 0.80517 0.66044 0.88531 0.0
H1420 H 0.77307 1.00443 0.77691 0.0
H1421 H 0.83373 0.96528 0.80423 0.0
H1422 H 0.84856 0.03708 0.95542 0.0
H1423 H 0.79899 0.08475 0.92738 0.0
Dy1424 Dy 0.6765 0.63323 0.60922 0.0
Dy1425 Dy 0.58935 0.57659 0.54323 0.0
C1426 C 0.67238 0.62601 0.48425 0.0
O1427 O 0.64861 0.70136 0.59791 0.0
O1428 O 0.5876 0.65588 0.53346 0.0
O1429 O 0.75539 0.67283 0.62217 0.0
O1430 O 0.72474 0.63621 0.67812 0.0
O1431 O 0.57028 0.57839 0.62303 0.0
O1432 O 0.63167 0.64246 0.66881 0.0
O1433 O 0.62526 0.51315 0.54532 0.0
O1434 O 0.66901 0.55111 0.62002 0.0
O1435 O 0.52755 0.51125 0.53601 0.0
O1436 O 0.52222 0.56511 0.49032 0.0
C1437 C 0.61282 0.7003 0.56026 0.0
O1438 O 0.69605 0.64429 0.53132 0.0
O1439 O 0.62889 0.59232 0.47759 0.0
C1440 C 0.77817 0.60319 0.63968 0.0
C1441 C 0.78413 0.50934 0.6008 0.0
C1442 C 0.76428 0.53667 0.5701 0.0
C1443 C 0.76594 0.58399 0.58845 0.0
C1444 C 0.78903 0.5724 0.67231 0.0
C1445 C 0.79362 0.526 0.65291 0.0
C1446 C 0.76213 0.6464 0.65575 0.0
C1447 C 0.58985 0.60856 0.66654 0.0
C1448 C 0.65221 0.50922 0.587 0.0
C1449 C 0.46565 0.54818 0.54288 0.0
C1450 C 0.40306 0.58466 0.59491 0.0
C1451 C 0.45059 0.61466 0.59673 0.0
C1452 C 0.48139 0.59663 0.57028 0.0
C1453 C 0.4207 0.51618 0.54695 0.0
C1454 C 0.38908 0.5346 0.57246 0.0
C1455 C 0.49875 0.53232 0.51326 0.0
H1456 H 0.75313 0.52407 0.53004 0.0
H1457 H 0.7552 0.60456 0.56167 0.0
H1458 H 0.79532 0.58475 0.71227 0.0
H1459 H 0.80807 0.5055 0.67793 0.0
H1460 H 0.46174 0.65337 0.61333 0.0
H1461 H 0.51689 0.62149 0.56976 0.0
H1462 H 0.40901 0.47801 0.52862 0.0
H1463 H 0.35205 0.511 0.57068 0.0
Dy1464 Dy 0.06735 0.60938 0.13404 0.0
Dy1465 Dy 0.14256 0.62358 0.07099 0.0
C1466 C 1.0374 0.6395 0.03097 0.0
O1467 O 0.06708 0.52516 0.11097 0.0
O1468 O 0.10813 0.5403 0.04881 0.0
O1469 O 0.99694 0.58446 0.15583 0.0
O1470 O 1.05314 0.6489 0.20086 0.0
O1471 O 0.17506 0.62707 0.15054 0.0
O1472 O 0.11484 0.57318 0.17277 0.0
O1473 O 0.14338 0.7026 0.07826 0.0
O1474 O 0.11298 0.69432 0.14859 0.0
O1475 O 0.2221 0.65279 0.07867 0.0
O1476 O 0.17828 0.5985 1.01278 0.0
C1477 C 0.08773 0.50762 0.07432 0.0
O1478 O 1.0222 0.61402 0.06396 0.0
O1479 O 0.08395 0.64799 0.02545 0.0
C1480 C 0.97527 0.65821 0.16797 0.0
C1481 C 0.93069 0.71126 0.10562 0.0
C1482 C 0.91626 0.65967 0.097 0.0
C1483 C 0.93381 0.63458 0.13073 0.0
C1484 C 0.99285 0.71021 0.17617 0.0
C1485 C 0.96899 0.73662 0.14672 0.0
C1486 C 1.00569 0.62706 0.18546 0.0
C1487 C 0.16152 0.5914 0.17445 0.0
C1488 C 0.13169 0.72369 0.11809 0.0
C1489 C 0.23333 0.5741 0.07013 0.0
C1490 C 0.26128 0.49941 0.11078 0.0
C1491 C 0.27904 0.54825 0.13744 0.0
C1492 C 0.26622 0.58567 0.11643 0.0
C1493 C 0.20695 0.52434 0.05171 0.0
C1494 C 0.21817 0.48763 0.075 0.0
C1495 C 0.21901 0.61309 0.04703 0.0
H1496 H 0.88952 0.63762 0.06461 0.0
H1497 H 0.91759 0.59539 0.12472 0.0
H1498 H 1.02528 0.73025 0.20443 0.0
H1499 H 0.98146 0.77624 0.15474 0.0
H1500 H 0.31004 0.55871 0.16848 0.0
H1501 H 0.28448 0.62353 0.13462 0.0
H1502 H 0.17858 0.51361 1.01842 0.0
H1503 H 0.20038 0.44971 0.0581 0.0
loop_
_geom_bond_atom_site_label_1
_geom_bond_atom_site_label_2
_geom_bond_distance
_geom_bond_site_symmetry_2
_ccdc_geom_bond_type
Mn0 O5 2.095 . S
Mn0 O15 2.162 . S
Mn0 O16 2.297 . S
Mn0 O24 2.385 1_455 S
Mn0 O25 2.209 . S
Mn0 O26 2.094 . S
Mn1 O6 2.121 . S
Mn1 N8 2.257 . S
Mn1 N17 2.282 1_455 S
Mn1 O25 2.215 . S
Mn1 O27 2.117 . S
C2 O24 1.234 . S
C2 O25 1.283 1_655 S
C3 O15 1.281 . S
C3 O16 1.236 . S
C4 O26 1.240 . S
C4 O27 1.264 . S
O5 Mn0 2.095 . S
O5 C14 1.250 . S
O6 Mn1 2.121 . S
O6 C14 1.258 . S
C7 N8 1.326 . S
C7 C11 1.460 . S
C7 H13 0.929 . S
N8 Mn1 2.257 . S
N8 C7 1.326 . S
N8 C12 1.362 1_455 S
C9 C10 1.258 . S
C9 C12 1.431 . S
C9 C29 1.449 . S
C10 C9 1.258 . S
C10 C11 1.477 1_655 S
C10 H30 0.931 . S
C11 C7 1.460 . S
C11 C10 1.477 1_455 S
C11 H31 0.930 . S
C12 N8 1.362 1_655 S
C12 C9 1.431 . S
C12 C22 1.476 . S
H13 C7 0.929 . S
C14 O5 1.250 . S
C14 O6 1.258 . S
O15 Mn0 2.162 . S
O15 C3 1.281 . S
O16 Mn0 2.297 . S
O16 C3 1.236 . S
N17 Mn1 2.282 1_655 S
N17 C18 1.328 . S
N17 C22 1.318 . S
C18 N17 1.328 . S
C18 C19 1.457 . S
C18 H23 0.929 1_655 S
C19 C18 1.457 . S
C19 C20 1.291 . S
C19 H32 0.931 . S
C20 C19 1.291 . S
C20 C21 1.373 . S
C20 H33 0.929 . S
C21 C20 1.373 . S
C21 C22 1.396 . S
C21 C28 1.403 . S
C22 C12 1.476 . S
C22 N17 1.318 . S
C22 C21 1.396 . S
H23 C18 0.929 1_455 S
O24 Mn0 2.385 1_655 S
O24 C2 1.234 . S
O25 Mn0 2.209 . S
O25 Mn1 2.215 . S
O25 C2 1.283 1_455 S
O26 Mn0 2.094 . S
O26 C4 1.240 . S
O27 Mn1 2.117 . S
O27 C4 1.264 . S
C28 C21 1.403 . S
C28 C29 1.399 . S
C28 H34 0.929 . S
C29 C9 1.449 . S
C29 C28 1.399 . S
C29 H35 0.930 . S
H30 C10 0.931 . S
H31 C11 0.930 . S
H32 C19 0.931 . S
H33 C20 0.929 . S
H34 C28 0.929 . S
H35 C29 0.930 . S
Mn36 O41 2.095 1_455 S
Mn36 O51 2.162 . S
Mn36 O52 2.297 . S
Mn36 O60 2.385 . S
Mn36 O61 2.209 . S
Mn36 O62 2.094 . S
Mn37 O42 2.121 . S
Mn37 N44 2.257 . S
Mn37 N53 2.282 . S
Mn37 O61 2.215 . S
Mn37 O63 2.117 . S
C38 O60 1.234 . S
C38 O61 1.283 . S
C39 O51 1.281 . S
C39 O52 1.236 . S
C40 O62 1.240 . S
C40 O63 1.264 . S
O41 Mn36 2.095 1_655 S
O41 C50 1.250 . S
O42 Mn37 2.121 . S
O42 C50 1.258 1_455 S
C43 N44 1.326 . S
C43 C47 1.460 . S
C43 H49 0.929 . S
N44 Mn37 2.257 . S
N44 C43 1.326 . S
N44 C48 1.362 . S
C45 C46 1.258 1_556 S
C45 C48 1.431 . S
C45 C65 1.449 . S
C46 C45 1.258 1_554 S
C46 C47 1.477 1_554 S
C46 H66 0.931 . S
C47 C43 1.460 . S
C47 C46 1.477 1_556 S
C47 H67 0.930 1_556 S
C48 N44 1.362 . S
C48 C45 1.431 . S
C48 C58 1.476 . S
H49 C43 0.929 . S
C50 O41 1.250 . S
C50 O42 1.258 1_655 S
O51 Mn36 2.162 . S
O51 C39 1.281 . S
O52 Mn36 2.297 . S
O52 C39 1.236 . S
N53 Mn37 2.282 . S
N53 C54 1.328 . S
N53 C58 1.318 . S
C54 N53 1.328 . S
C54 C55 1.457 . S
C54 H59 0.929 . S
C55 C54 1.457 . S
C55 C56 1.291 . S
C55 H68 0.931 . S
C56 C55 1.291 . S
C56 C57 1.373 . S
C56 H69 0.929 . S
C57 C56 1.373 . S
C57 C58 1.396 . S
C57 C64 1.403 . S
C58 C48 1.476 . S
C58 N53 1.318 . S
C58 C57 1.396 . S
H59 C54 0.929 . S
O60 Mn36 2.385 . S
O60 C38 1.234 . S
O61 Mn36 2.209 . S
O61 Mn37 2.215 . S
O61 C38 1.283 . S
O62 Mn36 2.094 . S
O62 C40 1.240 . S
O63 Mn37 2.117 . S
O63 C40 1.264 . S
C64 C57 1.403 . S
C64 C65 1.399 . S
C64 H70 0.929 . S
C65 C45 1.449 . S
C65 C64 1.399 . S
C65 H71 0.930 1_556 S
H66 C46 0.931 . S
H67 C47 0.930 1_554 S
H68 C55 0.931 . S
H69 C56 0.929 . S
H70 C64 0.929 . S
H71 C65 0.930 1_554 S
Mn72 O77 2.095 . S
Mn72 O87 2.162 . S
Mn72 O88 2.297 . S
Mn72 O96 2.385 . S
Mn72 O97 2.209 . S
Mn72 O98 2.094 . S
Mn73 O78 2.121 . S
Mn73 N80 2.257 . S
Mn73 N89 2.282 . S
Mn73 O97 2.215 . S
Mn73 O99 2.117 . S
C74 O96 1.234 . S
C74 O97 1.283 . S
C75 O87 1.281 . S
C75 O88 1.236 . S
C76 O98 1.240 . S
C76 O99 1.264 . S
O77 Mn72 2.095 . S
O77 C86 1.250 . S
O78 Mn73 2.121 . S
O78 C86 1.258 . S
C79 N80 1.326 . S
C79 C83 1.460 . S
C79 H85 0.929 . S
N80 Mn73 2.257 . S
N80 C79 1.326 . S
N80 C84 1.362 . S
C81 C82 1.258 . S
C81 C84 1.431 . S
C81 C101 1.449 . S
C82 C81 1.258 . S
C82 C83 1.477 . S
C82 H102 0.931 . S
C83 C79 1.460 . S
C83 C82 1.477 . S
C83 H103 0.930 . S
C84 N80 1.362 . S
C84 C81 1.431 . S
C84 C94 1.476 . S
H85 C79 0.929 . S
C86 O77 1.250 . S
C86 O78 1.258 . S
O87 Mn72 2.162 . S
O87 C75 1.281 . S
O88 Mn72 2.297 . S
O88 C75 1.236 . S
N89 Mn73 2.282 . S
N89 C90 1.328 . S
N89 C94 1.318 . S
C90 N89 1.328 . S
C90 C91 1.457 . S
C90 H95 0.929 . S
C91 C90 1.457 . S
C91 C92 1.291 . S
C91 H104 0.931 1_565 S
C92 C91 1.291 . S
C92 C93 1.373 . S
C92 H105 0.929 . S
C93 C92 1.373 . S
C93 C94 1.396 . S
C93 C100 1.403 . S
C94 C84 1.476 . S
C94 N89 1.318 . S
C94 C93 1.396 . S
H95 C90 0.929 . S
O96 Mn72 2.385 . S
O96 C74 1.234 . S
O97 Mn72 2.209 . S
O97 Mn73 2.215 . S
O97 C74 1.283 . S
O98 Mn72 2.094 . S
O98 C76 1.240 . S
O99 Mn73 2.117 . S
O99 C76 1.264 . S
C100 C93 1.403 . S
C100 C101 1.399 . S
C100 H106 0.929 . S
C101 C81 1.449 . S
C101 C100 1.399 . S
C101 H107 0.930 . S
H102 C82 0.931 . S
H103 C83 0.930 . S
H104 C91 0.931 1_545 S
H105 C92 0.929 . S
H106 C100 0.929 . S
H107 C101 0.930 . S
Mn108 O113 2.095 . S
Mn108 O123 2.162 . S
Mn108 O124 2.297 . S
Mn108 O132 2.385 . S
Mn108 O133 2.209 . S
Mn108 O134 2.094 . S
Mn109 O114 2.121 . S
Mn109 N116 2.257 . S
Mn109 N125 2.282 . S
Mn109 O133 2.215 . S
Mn109 O135 2.117 . S
C110 O132 1.234 . S
C110 O133 1.283 . S
C111 O123 1.281 . S
C111 O124 1.236 . S
C112 O134 1.240 . S
C112 O135 1.264 . S
O113 Mn108 2.095 . S
O113 C122 1.250 . S
O114 Mn109 2.121 . S
O114 C122 1.258 . S
C115 N116 1.326 . S
C115 C119 1.460 . S
C115 H121 0.929 . S
N116 Mn109 2.257 . S
N116 C115 1.326 . S
N116 C120 1.362 . S
C117 C118 1.258 1_554 S
C117 C120 1.431 . S
C117 C137 1.449 1_554 S
C118 C117 1.258 1_556 S
C118 C119 1.477 1_556 S
C118 H138 0.931 . S
C119 C115 1.460 . S
C119 C118 1.477 1_554 S
C119 H139 0.930 1_554 S
C120 N116 1.362 . S
C120 C117 1.431 . S
C120 C130 1.476 . S
H121 C115 0.929 . S
C122 O113 1.250 . S
C122 O114 1.258 . S
O123 Mn108 2.162 . S
O123 C111 1.281 . S
O124 Mn108 2.297 . S
O124 C111 1.236 . S
N125 Mn109 2.282 . S
N125 C126 1.328 . S
N125 C130 1.318 . S
C126 N125 1.328 . S
C126 C127 1.457 . S
C126 H131 0.929 . S
C127 C126 1.457 . S
C127 C128 1.291 . S
C127 H140 0.931 . S
C128 C127 1.291 . S
C128 C129 1.373 . S
C128 H141 0.929 . S
C129 C128 1.373 . S
C129 C130 1.396 . S
C129 C136 1.403 . S
C130 C120 1.476 . S
C130 N125 1.318 . S
C130 C129 1.396 . S
H131 C126 0.929 . S
O132 Mn108 2.385 . S
O132 C110 1.234 . S
O133 Mn108 2.209 . S
O133 Mn109 2.215 . S
O133 C110 1.283 . S
O134 Mn108 2.094 . S
O134 C112 1.240 . S
O135 Mn109 2.117 . S
O135 C112 1.264 . S
C136 C129 1.403 . S
C136 C137 1.399 1_554 S
C136 H142 0.929 . S
C137 C117 1.449 1_556 S
C137 C136 1.399 1_556 S
C137 H143 0.930 . S
H138 C118 0.931 . S
H139 C119 0.930 1_556 S
H140 C127 0.931 . S
H141 C128 0.929 . S
H142 C136 0.929 . S
H143 C137 0.930 . S
Mn144 O149 2.095 . S
Mn144 O159 2.162 . S
Mn144 O160 2.297 . S
Mn144 O168 2.385 . S
Mn144 O169 2.209 . S
Mn144 O170 2.094 . S
Mn145 O150 2.121 . S
Mn145 N152 2.257 1_554 S
Mn145 N161 2.282 1_455 S
Mn145 O169 2.215 . S
Mn145 O171 2.117 . S
C146 O168 1.234 . S
C146 O169 1.283 . S
C147 O159 1.281 . S
C147 O160 1.236 . S
C148 O170 1.240 . S
C148 O171 1.264 . S
O149 Mn144 2.095 . S
O149 C158 1.250 . S
O150 Mn145 2.121 . S
O150 C158 1.258 . S
C151 N152 1.326 . S
C151 C155 1.460 . S
C151 H157 0.929 . S
N152 Mn145 2.257 1_556 S
N152 C151 1.326 . S
N152 C156 1.362 1_455 S
C153 C154 1.258 . S
C153 C156 1.431 . S
C153 C173 1.449 . S
C154 C153 1.258 . S
C154 C155 1.477 1_655 S
C154 H174 0.931 . S
C155 C151 1.460 . S
C155 C154 1.477 1_455 S
C155 H175 0.930 . S
C156 N152 1.362 1_655 S
C156 C153 1.431 . S
C156 C166 1.476 . S
H157 C151 0.929 . S
C158 O149 1.250 . S
C158 O150 1.258 . S
O159 Mn144 2.162 . S
O159 C147 1.281 . S
O160 Mn144 2.297 . S
O160 C147 1.236 . S
N161 Mn145 2.282 1_655 S
N161 C162 1.328 . S
N161 C166 1.318 1_554 S
C162 N161 1.328 . S
C162 C163 1.457 . S
C162 H167 0.929 . S
C163 C162 1.457 . S
C163 C164 1.291 1_554 S
C163 H176 0.931 . S
C164 C163 1.291 1_556 S
C164 C165 1.373 . S
C164 H177 0.929 . S
C165 C164 1.373 . S
C165 C166 1.396 . S
C165 C172 1.403 . S
C166 C156 1.476 . S
C166 N161 1.318 1_556 S
C166 C165 1.396 . S
H167 C162 0.929 . S
O168 Mn144 2.385 . S
O168 C146 1.234 . S
O169 Mn144 2.209 . S
O169 Mn145 2.215 . S
O169 C146 1.283 . S
O170 Mn144 2.094 . S
O170 C148 1.240 . S
O171 Mn145 2.117 . S
O171 C148 1.264 . S
C172 C165 1.403 . S
C172 C173 1.399 . S
C172 H178 0.929 . S
C173 C153 1.449 . S
C173 C172 1.399 . S
C173 H179 0.930 . S
H174 C154 0.931 . S
H175 C155 0.930 . S
H176 C163 0.931 . S
H177 C164 0.929 . S
H178 C172 0.929 . S
H179 C173 0.930 . S
Mn180 O185 2.095 . S
Mn180 O195 2.162 . S
Mn180 O196 2.297 . S
Mn180 O204 2.385 . S
Mn180 O205 2.209 . S
Mn180 O206 2.094 . S
Mn181 O186 2.121 . S
Mn181 N188 2.257 . S
Mn181 N197 2.282 . S
Mn181 O205 2.215 . S
Mn181 O207 2.117 . S
C182 O204 1.234 . S
C182 O205 1.283 . S
C183 O195 1.281 . S
C183 O196 1.236 . S
C184 O206 1.240 . S
C184 O207 1.264 . S
O185 Mn180 2.095 . S
O185 C194 1.250 . S
O186 Mn181 2.121 . S
O186 C194 1.258 . S
C187 N188 1.326 . S
C187 C191 1.460 . S
C187 H193 0.929 . S
N188 Mn181 2.257 . S
N188 C187 1.326 . S
N188 C192 1.362 . S
C189 C190 1.258 . S
C189 C192 1.431 . S
C189 C209 1.449 . S
C190 C189 1.258 . S
C190 C191 1.477 . S
C190 H210 0.931 . S
C191 C187 1.460 . S
C191 C190 1.477 . S
C191 H211 0.930 . S
C192 N188 1.362 . S
C192 C189 1.431 . S
C192 C202 1.476 . S
H193 C187 0.929 . S
C194 O185 1.250 . S
C194 O186 1.258 . S
O195 Mn180 2.162 . S
O195 C183 1.281 . S
O196 Mn180 2.297 . S
O196 C183 1.236 . S
N197 Mn181 2.282 . S
N197 C198 1.328 . S
N197 C202 1.318 . S
C198 N197 1.328 . S
C198 C199 1.457 . S
C198 H203 0.929 . S
C199 C198 1.457 . S
C199 C200 1.291 . S
C199 H212 0.931 . S
C200 C199 1.291 . S
C200 C201 1.373 . S
C200 H213 0.929 . S
C201 C200 1.373 . S
C201 C202 1.396 . S
C201 C208 1.403 . S
C202 C192 1.476 . S
C202 N197 1.318 . S
C202 C201 1.396 . S
H203 C198 0.929 . S
O204 Mn180 2.385 . S
O204 C182 1.234 . S
O205 Mn180 2.209 . S
O205 Mn181 2.215 . S
O205 C182 1.283 . S
O206 Mn180 2.094 . S
O206 C184 1.240 . S
O207 Mn181 2.117 . S
O207 C184 1.264 . S
C208 C201 1.403 . S
C208 C209 1.399 . S
C208 H214 0.929 . S
C209 C189 1.449 . S
C209 C208 1.399 . S
C209 H215 0.930 . S
H210 C190 0.931 . S
H211 C191 0.930 . S
H212 C199 0.931 . S
H213 C200 0.929 . S
H214 C208 0.929 . S
H215 C209 0.930 . S
Mn216 O221 2.095 . S
Mn216 O231 2.162 . S
Mn216 O232 2.297 . S
Mn216 O240 2.385 . S
Mn216 O241 2.209 . S
Mn216 O242 2.094 . S
Mn217 O222 2.121 . S
Mn217 N224 2.257 . S
Mn217 N233 2.282 . S
Mn217 O241 2.215 . S
Mn217 O243 2.117 . S
C218 O240 1.234 . S
C218 O241 1.283 . S
C219 O231 1.281 . S
C219 O232 1.236 . S
C220 O242 1.240 . S
C220 O243 1.264 . S
O221 Mn216 2.095 . S
O221 C230 1.250 . S
O222 Mn217 2.121 . S
O222 C230 1.258 . S
C223 N224 1.326 . S
C223 C227 1.460 . S
C223 H229 0.929 . S
N224 Mn217 2.257 . S
N224 C223 1.326 . S
N224 C228 1.362 . S
C225 C226 1.258 . S
C225 C228 1.431 . S
C225 C245 1.449 . S
C226 C225 1.258 . S
C226 C227 1.477 . S
C226 H246 0.931 . S
C227 C223 1.460 . S
C227 C226 1.477 . S
C227 H247 0.930 . S
C228 N224 1.362 . S
C228 C225 1.431 . S
C228 C238 1.476 . S
H229 C223 0.929 . S
C230 O221 1.250 . S
C230 O222 1.258 . S
O231 Mn216 2.162 . S
O231 C219 1.281 . S
O232 Mn216 2.297 . S
O232 C219 1.236 . S
N233 Mn217 2.282 . S
N233 C234 1.328 . S
N233 C238 1.318 . S
C234 N233 1.328 . S
C234 C235 1.457 . S
C234 H239 0.929 . S
C235 C234 1.457 . S
C235 C236 1.291 . S
C235 H248 0.931 . S
C236 C235 1.291 . S
C236 C237 1.373 . S
C236 H249 0.929 . S
C237 C236 1.373 . S
C237 C238 1.396 . S
C237 C244 1.403 . S
C238 C228 1.476 . S
C238 N233 1.318 . S
C238 C237 1.396 . S
H239 C234 0.929 . S
O240 Mn216 2.385 . S
O240 C218 1.234 . S
O241 Mn216 2.209 . S
O241 Mn217 2.215 . S
O241 C218 1.283 . S
O242 Mn216 2.094 . S
O242 C220 1.240 . S
O243 Mn217 2.117 . S
O243 C220 1.264 . S
C244 C237 1.403 . S
C244 C245 1.399 . S
C244 H250 0.929 . S
C245 C225 1.449 . S
C245 C244 1.399 . S
C245 H251 0.930 . S
H246 C226 0.931 . S
H247 C227 0.930 . S
H248 C235 0.931 . S
H249 C236 0.929 . S
H250 C244 0.929 . S
H251 C245 0.930 . S
Mn252 O257 2.087 1_654 S
Mn252 O267 2.160 1_655 S
Mn252 O268 2.295 1_554 S
Mn252 O276 2.394 1_554 S
Mn252 O277 2.213 1_554 S
Mn252 O278 2.096 1_655 S
Mn253 O258 2.121 1_655 S
Mn253 N260 2.257 . S
Mn253 N269 2.282 . S
Mn253 O277 2.215 . S
Mn253 O279 2.117 1_656 S
C254 O276 1.234 . S
C254 O277 1.283 . S
C255 O267 1.281 1_655 S
C255 O268 1.236 1_554 S
C256 O278 1.240 . S
C256 O279 1.264 . S
O257 Mn252 2.087 1_456 S
O257 C266 1.250 . S
O258 Mn253 2.121 1_455 S
O258 C266 1.258 . S
C259 N260 1.326 . S
C259 C263 1.460 . S
C259 H265 0.929 1_655 S
N260 Mn253 2.257 . S
N260 C259 1.326 . S
N260 C264 1.362 . S
C261 C262 1.258 . S
C261 C264 1.431 . S
C261 C281 1.449 . S
C262 C261 1.258 . S
C262 C263 1.477 . S
C262 H282 0.931 . S
C263 C259 1.460 . S
C263 C262 1.477 . S
C263 H283 0.930 . S
C264 N260 1.362 . S
C264 C261 1.431 . S
C264 C274 1.476 . S
H265 C259 0.929 1_455 S
C266 O257 1.250 . S
C266 O258 1.258 . S
O267 Mn252 2.160 1_455 S
O267 C255 1.281 1_455 S
O268 Mn252 2.295 1_556 S
O268 C255 1.236 1_556 S
N269 Mn253 2.282 . S
N269 C270 1.328 . S
N269 C274 1.318 . S
C270 N269 1.328 . S
C270 C271 1.457 . S
C270 H275 0.929 . S
C271 C270 1.457 . S
C271 C272 1.291 . S
C271 H284 0.931 . S
C272 C271 1.291 . S
C272 C273 1.373 . S
C272 H285 0.929 . S
C273 C272 1.373 . S
C273 C274 1.396 . S
C273 C280 1.403 . S
C274 C264 1.476 . S
C274 N269 1.318 . S
C274 C273 1.396 . S
H275 C270 0.929 . S
O276 Mn252 2.394 1_556 S
O276 C254 1.234 . S
O277 Mn252 2.213 1_556 S
O277 Mn253 2.215 . S
O277 C254 1.283 . S
O278 Mn252 2.096 1_455 S
O278 C256 1.240 . S
O279 Mn253 2.117 1_454 S
O279 C256 1.264 . S
C280 C273 1.403 . S
C280 C281 1.399 . S
C280 H286 0.929 . S
C281 C261 1.449 . S
C281 C280 1.399 . S
C281 H287 0.930 . S
H282 C262 0.931 . S
H283 C263 0.930 . S
H284 C271 0.931 . S
H285 C272 0.929 . S
H286 C280 0.929 . S
H287 C281 0.930 . S
Mn288 O293 2.095 . S
Mn288 O303 2.162 . S
Mn288 O304 2.297 1_545 S
Mn288 O312 2.385 1_545 S
Mn288 O313 2.209 1_545 S
Mn288 O314 2.094 . S
Mn289 O294 2.121 1_565 S
Mn289 N296 2.257 . S
Mn289 N305 2.282 . S
Mn289 O313 2.215 . S
Mn289 O315 2.117 1_565 S
C290 O312 1.234 . S
C290 O313 1.283 . S
C291 O303 1.281 . S
C291 O304 1.236 1_545 S
C292 O314 1.240 . S
C292 O315 1.264 . S
O293 Mn288 2.095 . S
O293 C302 1.250 . S
O294 Mn289 2.121 1_545 S
O294 C302 1.258 . S
C295 N296 1.326 . S
C295 C299 1.460 . S
C295 H301 0.929 . S
N296 Mn289 2.257 . S
N296 C295 1.326 . S
N296 C300 1.362 . S
C297 C298 1.258 . S
C297 C300 1.431 . S
C297 C317 1.449 . S
C298 C297 1.258 . S
C298 C299 1.477 . S
C298 H318 0.931 . S
C299 C295 1.460 . S
C299 C298 1.477 . S
C299 H319 0.930 . S
C300 N296 1.362 . S
C300 C297 1.431 . S
C300 C310 1.476 . S
H301 C295 0.929 . S
C302 O293 1.250 . S
C302 O294 1.258 . S
O303 Mn288 2.162 . S
O303 C291 1.281 . S
O304 Mn288 2.297 1_565 S
O304 C291 1.236 1_565 S
N305 Mn289 2.282 . S
N305 C306 1.328 . S
N305 C310 1.318 . S
C306 N305 1.328 . S
C306 C307 1.457 . S
C306 H311 0.929 . S
C307 C306 1.457 . S
C307 C308 1.291 . S
C307 H320 0.931 . S
C308 C307 1.291 . S
C308 C309 1.373 . S
C308 H321 0.929 . S
C309 C308 1.373 . S
C309 C310 1.396 . S
C309 C316 1.403 . S
C310 C300 1.476 . S
C310 N305 1.318 . S
C310 C309 1.396 . S
H311 C306 0.929 . S
O312 Mn288 2.385 1_565 S
O312 C290 1.234 . S
O313 Mn288 2.209 1_565 S
O313 Mn289 2.215 . S
O313 C290 1.283 . S
O314 Mn288 2.094 . S
O314 C292 1.240 . S
O315 Mn289 2.117 1_545 S
O315 C292 1.264 . S
C316 C309 1.403 . S
C316 C317 1.399 . S
C316 H322 0.929 . S
C317 C297 1.449 . S
C317 C316 1.399 . S
C317 H323 0.930 . S
H318 C298 0.931 . S
H319 C299 0.930 . S
H320 C307 0.931 . S
H321 C308 0.929 . S
H322 C316 0.929 . S
H323 C317 0.930 . S
Mn324 O329 2.095 . S
Mn324 O339 2.162 . S
Mn324 O340 2.297 . S
Mn324 O348 2.385 . S
Mn324 O349 2.209 . S
Mn324 O350 2.094 . S
Mn325 O330 2.121 . S
Mn325 N332 2.257 . S
Mn325 N341 2.282 . S
Mn325 O349 2.215 . S
Mn325 O351 2.117 . S
C326 O348 1.234 . S
C326 O349 1.283 . S
C327 O339 1.281 . S
C327 O340 1.236 . S
C328 O350 1.240 . S
C328 O351 1.264 . S
O329 Mn324 2.095 . S
O329 C338 1.250 . S
O330 Mn325 2.121 . S
O330 C338 1.258 . S
C331 N332 1.326 . S
C331 C335 1.460 . S
C331 H337 0.929 . S
N332 Mn325 2.257 . S
N332 C331 1.326 . S
N332 C336 1.362 . S
C333 C334 1.254 1_545 S
C333 C336 1.431 . S
C333 C353 1.449 . S
C334 C333 1.254 1_565 S
C334 C335 1.477 1_565 S
C334 H354 0.934 . S
C335 C331 1.460 . S
C335 C334 1.477 1_545 S
C335 H355 0.930 . S
C336 N332 1.362 . S
C336 C333 1.431 . S
C336 C346 1.476 . S
H337 C331 0.929 . S
C338 O329 1.250 . S
C338 O330 1.258 . S
O339 Mn324 2.162 . S
O339 C327 1.281 . S
O340 Mn324 2.297 . S
O340 C327 1.236 . S
N341 Mn325 2.282 . S
N341 C342 1.328 . S
N341 C346 1.318 . S
C342 N341 1.328 . S
C342 C343 1.457 . S
C342 H347 0.929 . S
C343 C342 1.457 . S
C343 C344 1.291 . S
C343 H356 0.931 . S
C344 C343 1.291 . S
C344 C345 1.373 . S
C344 H357 0.929 . S
C345 C344 1.373 . S
C345 C346 1.396 . S
C345 C352 1.403 . S
C346 C336 1.476 . S
C346 N341 1.318 . S
C346 C345 1.396 . S
H347 C342 0.929 . S
O348 Mn324 2.385 . S
O348 C326 1.234 . S
O349 Mn324 2.209 . S
O349 Mn325 2.215 . S
O349 C326 1.283 . S
O350 Mn324 2.094 . S
O350 C328 1.240 . S
O351 Mn325 2.117 . S
O351 C328 1.264 . S
C352 C345 1.403 . S
C352 C353 1.399 . S
C352 H358 0.929 . S
C353 C333 1.449 . S
C353 C352 1.399 . S
C353 H359 0.930 1_545 S
H354 C334 0.934 . S
H355 C335 0.930 . S
H356 C343 0.931 . S
H357 C344 0.929 . S
H358 C352 0.929 . S
H359 C353 0.930 1_565 S
Mn360 O365 2.095 . S
Mn360 O375 2.162 . S
Mn360 O376 2.297 . S
Mn360 O384 2.385 . S
Mn360 O385 2.209 . S
Mn360 O386 2.094 . S
Mn361 O366 2.121 . S
Mn361 N368 2.257 . S
Mn361 N377 2.282 . S
Mn361 O385 2.215 . S
Mn361 O387 2.117 . S
C362 O384 1.234 . S
C362 O385 1.283 . S
C363 O375 1.281 . S
C363 O376 1.236 . S
C364 O386 1.240 . S
C364 O387 1.264 . S
O365 Mn360 2.095 . S
O365 C374 1.250 . S
O366 Mn361 2.121 . S
O366 C374 1.258 . S
C367 N368 1.326 . S
C367 C371 1.460 . S
C367 H373 0.929 . S
N368 Mn361 2.257 . S
N368 C367 1.326 . S
N368 C372 1.362 . S
C369 C370 1.258 . S
C369 C372 1.431 . S
C369 C389 1.449 . S
C370 C369 1.258 . S
C370 C371 1.477 . S
C370 H390 0.931 . S
C371 C367 1.460 . S
C371 C370 1.477 . S
C371 H391 0.930 . S
C372 N368 1.362 . S
C372 C369 1.431 . S
C372 C382 1.476 . S
H373 C367 0.929 . S
C374 O365 1.250 . S
C374 O366 1.258 . S
O375 Mn360 2.162 . S
O375 C363 1.281 . S
O376 Mn360 2.297 . S
O376 C363 1.236 . S
N377 Mn361 2.282 . S
N377 C378 1.328 . S
N377 C382 1.318 . S
C378 N377 1.328 . S
C378 C379 1.457 . S
C378 H383 0.929 . S
C379 C378 1.457 . S
C379 C380 1.291 . S
C379 H392 0.933 . S
C380 C379 1.291 . S
C380 C381 1.373 . S
C380 H393 0.929 1_556 S
C381 C380 1.373 . S
C381 C382 1.396 . S
C381 C388 1.403 . S
C382 C372 1.476 . S
C382 N377 1.318 . S
C382 C381 1.396 . S
H383 C378 0.929 . S
O384 Mn360 2.385 . S
O384 C362 1.234 . S
O385 Mn360 2.209 . S
O385 Mn361 2.215 . S
O385 C362 1.283 . S
O386 Mn360 2.094 . S
O386 C364 1.240 . S
O387 Mn361 2.117 . S
O387 C364 1.264 . S
C388 C381 1.403 . S
C388 C389 1.399 . S
C388 H394 0.929 1_556 S
C389 C369 1.449 . S
C389 C388 1.399 . S
C389 H395 0.930 . S
H390 C370 0.931 . S
H391 C371 0.930 . S
H392 C379 0.933 . S
H393 C380 0.929 1_554 S
H394 C388 0.929 1_554 S
H395 C389 0.930 . S
Mn396 O401 2.095 1_554 S
Mn396 O411 2.162 . S
Mn396 O412 2.297 1_565 S
Mn396 O420 2.385 1_565 S
Mn396 O421 2.209 1_565 S
Mn396 O422 2.094 1_554 S
Mn397 O402 2.121 . S
Mn397 N404 2.257 . S
Mn397 N413 2.282 . S
Mn397 O421 2.215 1_556 S
Mn397 O423 2.117 1_545 S
C398 O420 1.234 . S
C398 O421 1.283 . S
C399 O411 1.281 . S
C399 O412 1.236 1_565 S
C400 O422 1.240 . S
C400 O423 1.264 . S
O401 Mn396 2.095 1_556 S
O401 C410 1.250 1_565 S
O402 Mn397 2.121 . S
O402 C410 1.258 . S
C403 N404 1.326 . S
C403 C407 1.460 1_556 S
C403 H409 0.928 1_556 S
N404 Mn397 2.257 . S
N404 C403 1.326 . S
N404 C408 1.362 . S
C405 C406 1.258 . S
C405 C408 1.431 . S
C405 C425 1.449 . S
C406 C405 1.258 . S
C406 C407 1.477 1_556 S
C406 H426 0.931 . S
C407 C403 1.460 1_554 S
C407 C406 1.477 1_554 S
C407 H427 0.930 . S
C408 N404 1.362 . S
C408 C405 1.431 . S
C408 C418 1.476 . S
H409 C403 0.928 1_554 S
C410 O401 1.250 1_545 S
C410 O402 1.258 . S
O411 Mn396 2.162 . S
O411 C399 1.281 . S
O412 Mn396 2.297 1_545 S
O412 C399 1.236 1_545 S
N413 Mn397 2.282 . S
N413 C414 1.328 . S
N413 C418 1.318 . S
C414 N413 1.328 . S
C414 C415 1.457 . S
C414 H419 0.929 . S
C415 C414 1.457 . S
C415 C416 1.291 . S
C415 H428 0.931 . S
C416 C415 1.291 . S
C416 C417 1.373 . S
C416 H429 0.929 . S
C417 C416 1.373 . S
C417 C418 1.396 . S
C417 C424 1.403 . S
C418 C408 1.476 . S
C418 N413 1.318 . S
C418 C417 1.396 . S
H419 C414 0.929 . S
O420 Mn396 2.385 1_545 S
O420 C398 1.234 . S
O421 Mn396 2.209 1_545 S
O421 Mn397 2.215 1_554 S
O421 C398 1.283 . S
O422 Mn396 2.094 1_556 S
O422 C400 1.240 . S
O423 Mn397 2.117 1_565 S
O423 C400 1.264 . S
C424 C417 1.403 . S
C424 C425 1.399 . S
C424 H430 0.929 . S
C425 C405 1.449 . S
C425 C424 1.399 . S
C425 H431 0.930 . S
H426 C406 0.931 . S
H427 C407 0.930 . S
H428 C415 0.931 . S
H429 C416 0.929 . S
H430 C424 0.929 . S
H431 C425 0.930 . S
Mn432 O437 2.095 . S
Mn432 O447 2.162 . S
Mn432 O448 2.297 . S
Mn432 O456 2.385 . S
Mn432 O457 2.209 . S
Mn432 O458 2.094 1_554 S
Mn433 O438 2.121 . S
Mn433 N440 2.257 . S
Mn433 N449 2.282 1_554 S
Mn433 O457 2.215 . S
Mn433 O459 2.117 1_554 S
C434 O456 1.234 . S
C434 O457 1.283 . S
C435 O447 1.281 . S
C435 O448 1.236 . S
C436 O458 1.240 . S
C436 O459 1.264 . S
O437 Mn432 2.095 . S
O437 C446 1.250 . S
O438 Mn433 2.121 . S
O438 C446 1.258 . S
C439 N440 1.326 . S
C439 C443 1.460 . S
C439 H445 0.929 . S
N440 Mn433 2.257 . S
N440 C439 1.326 . S
N440 C444 1.362 . S
C441 C442 1.258 . S
C441 C444 1.431 . S
C441 C461 1.449 . S
C442 C441 1.258 . S
C442 C443 1.477 . S
C442 H462 0.931 . S
C443 C439 1.460 . S
C443 C442 1.477 . S
C443 H463 0.930 . S
C444 N440 1.362 . S
C444 C441 1.431 . S
C444 C454 1.476 1_554 S
H445 C439 0.929 . S
C446 O437 1.250 . S
C446 O438 1.258 . S
O447 Mn432 2.162 . S
O447 C435 1.281 . S
O448 Mn432 2.297 . S
O448 C435 1.236 . S
N449 Mn433 2.282 1_556 S
N449 C450 1.328 . S
N449 C454 1.318 . S
C450 N449 1.328 . S
C450 C451 1.457 . S
C450 H455 0.929 . S
C451 C450 1.457 . S
C451 C452 1.291 . S
C451 H464 0.931 . S
C452 C451 1.291 . S
C452 C453 1.373 . S
C452 H465 0.929 . S
C453 C452 1.373 . S
C453 C454 1.396 . S
C453 C460 1.403 . S
C454 C444 1.476 1_556 S
C454 N449 1.318 . S
C454 C453 1.396 . S
H455 C450 0.929 . S
O456 Mn432 2.385 . S
O456 C434 1.234 . S
O457 Mn432 2.209 . S
O457 Mn433 2.215 . S
O457 C434 1.283 . S
O458 Mn432 2.094 1_556 S
O458 C436 1.240 . S
O459 Mn433 2.117 1_556 S
O459 C436 1.264 . S
C460 C453 1.403 . S
C460 C461 1.399 1_556 S
C460 H466 0.929 . S
C461 C441 1.449 . S
C461 C460 1.399 1_554 S
C461 H467 0.930 . S
H462 C442 0.931 . S
H463 C443 0.930 . S
H464 C451 0.931 . S
H465 C452 0.929 . S
H466 C460 0.929 . S
H467 C461 0.930 . S
Mn468 O473 2.095 . S
Mn468 O483 2.162 . S
Mn468 O484 2.297 . S
Mn468 O492 2.385 . S
Mn468 O493 2.209 . S
Mn468 O494 2.094 . S
Mn469 O474 2.121 . S
Mn469 N476 2.257 . S
Mn469 N485 2.282 1_554 S
Mn469 O493 2.215 . S
Mn469 O495 2.117 . S
C470 O492 1.234 . S
C470 O493 1.283 . S
C471 O483 1.281 . S
C471 O484 1.236 . S
C472 O494 1.240 . S
C472 O495 1.264 . S
O473 Mn468 2.095 . S
O473 C482 1.250 . S
O474 Mn469 2.121 . S
O474 C482 1.258 . S
C475 N476 1.326 1_565 S
C475 C479 1.460 . S
C475 H481 0.929 1_565 S
N476 Mn469 2.257 . S
N476 C475 1.326 1_545 S
N476 C480 1.362 . S
C477 C478 1.258 1_556 S
C477 C480 1.431 1_566 S
C477 C497 1.449 . S
C478 C477 1.258 1_554 S
C478 C479 1.477 . S
C478 H498 0.931 . S
C479 C475 1.460 . S
C479 C478 1.477 . S
C479 H499 0.930 . S
C480 N476 1.362 . S
C480 C477 1.431 1_544 S
C480 C490 1.476 1_554 S
H481 C475 0.929 1_545 S
C482 O473 1.250 . S
C482 O474 1.258 . S
O483 Mn468 2.162 . S
O483 C471 1.281 . S
O484 Mn468 2.297 . S
O484 C471 1.236 . S
N485 Mn469 2.282 1_556 S
N485 C486 1.328 . S
N485 C490 1.318 . S
C486 N485 1.328 . S
C486 C487 1.457 . S
C486 H491 0.929 . S
C487 C486 1.457 . S
C487 C488 1.291 . S
C487 H500 0.931 . S
C488 C487 1.291 . S
C488 C489 1.373 . S
C488 H501 0.929 . S
C489 C488 1.373 . S
C489 C490 1.396 . S
C489 C496 1.403 1_545 S
C490 C480 1.476 1_556 S
C490 N485 1.318 . S
C490 C489 1.396 . S
H491 C486 0.929 . S
O492 Mn468 2.385 . S
O492 C470 1.234 . S
O493 Mn468 2.209 . S
O493 Mn469 2.215 . S
O493 C470 1.283 . S
O494 Mn468 2.094 . S
O494 C472 1.240 . S
O495 Mn469 2.117 . S
O495 C472 1.264 . S
C496 C489 1.403 1_565 S
C496 C497 1.399 . S
C496 H502 0.929 . S
C497 C477 1.449 . S
C497 C496 1.399 . S
C497 H503 0.930 . S
H498 C478 0.931 . S
H499 C479 0.930 . S
H500 C487 0.931 . S
H501 C488 0.929 . S
H502 C496 0.929 . S
H503 C497 0.930 . S
Mn504 O509 2.095 . S
Mn504 O519 2.162 . S
Mn504 O520 2.297 . S
Mn504 O528 2.385 . S
Mn504 O529 2.209 . S
Mn504 O530 2.094 . S
Mn505 O510 2.121 . S
Mn505 N512 2.257 . S
Mn505 N521 2.282 . S
Mn505 O529 2.215 . S
Mn505 O531 2.117 . S
C506 O528 1.234 . S
C506 O529 1.283 . S
C507 O519 1.281 . S
C507 O520 1.236 . S
C508 O530 1.240 . S
C508 O531 1.264 . S
O509 Mn504 2.095 . S
O509 C518 1.250 . S
O510 Mn505 2.121 . S
O510 C518 1.258 . S
C511 N512 1.326 . S
C511 C515 1.460 . S
C511 H517 0.929 . S
N512 Mn505 2.257 . S
N512 C511 1.326 . S
N512 C516 1.362 . S
C513 C514 1.258 . S
C513 C516 1.431 . S
C513 C533 1.449 . S
C514 C513 1.258 . S
C514 C515 1.477 . S
C514 H534 0.931 . S
C515 C511 1.460 . S
C515 C514 1.477 . S
C515 H535 0.930 . S
C516 N512 1.362 . S
C516 C513 1.431 . S
C516 C526 1.476 . S
H517 C511 0.929 . S
C518 O509 1.250 . S
C518 O510 1.258 . S
O519 Mn504 2.162 . S
O519 C507 1.281 . S
O520 Mn504 2.297 . S
O520 C507 1.236 . S
N521 Mn505 2.282 . S
N521 C522 1.328 . S
N521 C526 1.318 . S
C522 N521 1.328 . S
C522 C523 1.457 . S
C522 H527 0.929 . S
C523 C522 1.457 . S
C523 C524 1.291 . S
C523 H536 0.931 . S
C524 C523 1.291 . S
C524 C525 1.373 . S
C524 H537 0.929 . S
C525 C524 1.373 . S
C525 C526 1.396 . S
C525 C532 1.403 . S
C526 C516 1.476 . S
C526 N521 1.318 . S
C526 C525 1.396 . S
H527 C522 0.929 . S
O528 Mn504 2.385 . S
O528 C506 1.234 . S
O529 Mn504 2.209 . S
O529 Mn505 2.215 . S
O529 C506 1.283 . S
O530 Mn504 2.094 . S
O530 C508 1.240 . S
O531 Mn505 2.117 . S
O531 C508 1.264 . S
C532 C525 1.403 . S
C532 C533 1.399 . S
C532 H538 0.929 . S
C533 C513 1.449 . S
C533 C532 1.399 . S
C533 H539 0.930 . S
H534 C514 0.931 . S
H535 C515 0.930 . S
H536 C523 0.931 . S
H537 C524 0.929 . S
H538 C532 0.929 . S
H539 C533 0.930 . S
Mn540 O545 2.095 . S
Mn540 O555 2.162 . S
Mn540 O556 2.297 . S
Mn540 O564 2.385 . S
Mn540 O565 2.209 . S
Mn540 O566 2.094 . S
Mn541 O546 2.121 . S
Mn541 N548 2.257 1_565 S
Mn541 N557 2.282 . S
Mn541 O565 2.215 . S
Mn541 O567 2.117 . S
C542 O564 1.234 . S
C542 O565 1.283 . S
C543 O555 1.281 . S
C543 O556 1.236 . S
C544 O566 1.240 . S
C544 O567 1.264 . S
O545 Mn540 2.095 . S
O545 C554 1.250 . S
O546 Mn541 2.121 . S
O546 C554 1.258 . S
C547 N548 1.326 . S
C547 C551 1.460 . S
C547 H553 0.929 . S
N548 Mn541 2.257 1_545 S
N548 C547 1.326 . S
N548 C552 1.362 . S
C549 C550 1.258 . S
C549 C552 1.431 . S
C549 C569 1.449 1_655 S
C550 C549 1.258 . S
C550 C551 1.477 . S
C550 H570 0.931 . S
C551 C547 1.460 . S
C551 C550 1.477 . S
C551 H571 0.930 . S
C552 N548 1.362 . S
C552 C549 1.431 . S
C552 C562 1.476 . S
H553 C547 0.929 . S
C554 O545 1.250 . S
C554 O546 1.258 . S
O555 Mn540 2.162 . S
O555 C543 1.281 . S
O556 Mn540 2.297 . S
O556 C543 1.236 . S
N557 Mn541 2.282 . S
N557 C558 1.328 . S
N557 C562 1.318 1_565 S
C558 N557 1.328 . S
C558 C559 1.457 . S
C558 H563 0.929 . S
C559 C558 1.457 . S
C559 C560 1.291 1_665 S
C559 H572 0.931 . S
C560 C559 1.291 1_445 S
C560 C561 1.373 . S
C560 H573 0.929 . S
C561 C560 1.373 . S
C561 C562 1.396 1_455 S
C561 C568 1.403 . S
C562 C552 1.476 . S
C562 N557 1.318 1_545 S
C562 C561 1.396 1_655 S
H563 C558 0.929 . S
O564 Mn540 2.385 . S
O564 C542 1.234 . S
O565 Mn540 2.209 . S
O565 Mn541 2.215 . S
O565 C542 1.283 . S
O566 Mn540 2.094 . S
O566 C544 1.240 . S
O567 Mn541 2.117 . S
O567 C544 1.264 . S
C568 C561 1.403 . S
C568 C569 1.399 . S
C568 H574 0.929 . S
C569 C549 1.449 1_455 S
C569 C568 1.399 . S
C569 H575 0.930 . S
H570 C550 0.931 . S
H571 C551 0.930 . S
H572 C559 0.931 . S
H573 C560 0.929 . S
H574 C568 0.929 . S
H575 C569 0.930 . S
Mn576 O581 2.095 . S
Mn576 O591 2.162 1_655 S
Mn576 O592 2.297 . S
Mn576 O600 2.385 1_545 S
Mn576 O601 2.209 1_545 S
Mn576 O602 2.094 1_655 S
Mn577 O582 2.121 . S
Mn577 N584 2.257 1_545 S
Mn577 N593 2.282 1_545 S
Mn577 O601 2.215 1_545 S
Mn577 O603 2.117 . S
C578 O600 1.234 . S
C578 O601 1.283 . S
C579 O591 1.281 . S
C579 O592 1.236 1_455 S
C580 O602 1.240 . S
C580 O603 1.264 1_455 S
O581 Mn576 2.095 . S
O581 C590 1.250 . S
O582 Mn577 2.121 . S
O582 C590 1.258 . S
C583 N584 1.336 . S
C583 C587 1.461 . S
C583 H589 0.919 1_565 S
N584 Mn577 2.257 1_565 S
N584 C583 1.336 . S
N584 C588 1.362 . S
C585 C586 1.258 . S
C585 C588 1.431 . S
C585 C605 1.449 . S
C586 C585 1.258 . S
C586 C587 1.477 . S
C586 H606 0.931 . S
C587 C583 1.461 . S
C587 C586 1.477 . S
C587 H607 0.930 . S
C588 N584 1.362 . S
C588 C585 1.431 . S
C588 C598 1.476 . S
H589 C583 0.919 1_545 S
C590 O581 1.250 . S
C590 O582 1.258 . S
O591 Mn576 2.162 1_455 S
O591 C579 1.281 . S
O592 Mn576 2.297 . S
O592 C579 1.236 1_655 S
N593 Mn577 2.282 1_565 S
N593 C594 1.328 . S
N593 C598 1.318 . S
C594 N593 1.328 . S
C594 C595 1.457 . S
C594 H599 0.929 . S
C595 C594 1.457 . S
C595 C596 1.291 . S
C595 H608 0.931 . S
C596 C595 1.291 . S
C596 C597 1.373 . S
C596 H609 0.929 . S
C597 C596 1.373 . S
C597 C598 1.396 . S
C597 C604 1.403 . S
C598 C588 1.476 . S
C598 N593 1.318 . S
C598 C597 1.396 . S
H599 C594 0.929 . S
O600 Mn576 2.385 1_565 S
O600 C578 1.234 . S
O601 Mn576 2.209 1_565 S
O601 Mn577 2.215 1_565 S
O601 C578 1.283 . S
O602 Mn576 2.094 1_455 S
O602 C580 1.240 . S
O603 Mn577 2.117 . S
O603 C580 1.264 1_655 S
C604 C597 1.403 . S
C604 C605 1.399 . S
C604 H610 0.929 . S
C605 C585 1.449 . S
C605 C604 1.399 . S
C605 H611 0.930 . S
H606 C586 0.931 . S
H607 C587 0.930 . S
H608 C595 0.931 . S
H609 C596 0.929 . S
H610 C604 0.929 . S
H611 C605 0.930 . S
Mn612 O617 2.095 . S
Mn612 O627 2.162 . S
Mn612 O628 2.297 . S
Mn612 O636 2.385 . S
Mn612 O637 2.209 . S
Mn612 O638 2.094 . S
Mn613 O618 2.121 . S
Mn613 N620 2.257 . S
Mn613 N629 2.282 . S
Mn613 O637 2.215 . S
Mn613 O639 2.117 . S
C614 O636 1.234 . S
C614 O637 1.283 . S
C615 O627 1.281 . S
C615 O628 1.236 . S
C616 O638 1.240 . S
C616 O639 1.264 . S
O617 Mn612 2.095 . S
O617 C626 1.250 . S
O618 Mn613 2.121 . S
O618 C626 1.258 . S
C619 N620 1.326 . S
C619 C623 1.460 . S
C619 H625 0.929 . S
N620 Mn613 2.257 . S
N620 C619 1.326 . S
N620 C624 1.362 . S
C621 C622 1.258 . S
C621 C624 1.431 . S
C621 C641 1.449 . S
C622 C621 1.258 . S
C622 C623 1.477 . S
C622 H642 0.931 . S
C623 C619 1.460 . S
C623 C622 1.477 . S
C623 H643 0.930 . S
C624 N620 1.362 . S
C624 C621 1.431 . S
C624 C634 1.476 . S
H625 C619 0.929 . S
C626 O617 1.250 . S
C626 O618 1.258 . S
O627 Mn612 2.162 . S
O627 C615 1.281 . S
O628 Mn612 2.297 . S
O628 C615 1.236 . S
N629 Mn613 2.282 . S
N629 C630 1.328 . S
N629 C634 1.318 . S
C630 N629 1.328 . S
C630 C631 1.457 . S
C630 H635 0.929 . S
C631 C630 1.457 . S
C631 C632 1.291 . S
C631 H644 0.931 . S
C632 C631 1.291 . S
C632 C633 1.373 . S
C632 H645 0.929 . S
C633 C632 1.373 . S
C633 C634 1.396 . S
C633 C640 1.403 . S
C634 C624 1.476 . S
C634 N629 1.318 . S
C634 C633 1.396 . S
H635 C630 0.929 . S
O636 Mn612 2.385 . S
O636 C614 1.234 . S
O637 Mn612 2.209 . S
O637 Mn613 2.215 . S
O637 C614 1.283 . S
O638 Mn612 2.094 . S
O638 C616 1.240 . S
O639 Mn613 2.117 . S
O639 C616 1.264 . S
C640 C633 1.403 . S
C640 C641 1.399 . S
C640 H646 0.929 1_455 S
C641 C621 1.449 . S
C641 C640 1.399 . S
C641 H647 0.930 . S
H642 C622 0.931 . S
H643 C623 0.930 . S
H644 C631 0.931 . S
H645 C632 0.929 . S
H646 C640 0.929 1_655 S
H647 C641 0.930 . S
Mn648 O653 2.095 . S
Mn648 O663 2.162 . S
Mn648 O664 2.297 . S
Mn648 O672 2.385 . S
Mn648 O673 2.209 . S
Mn648 O674 2.094 . S
Mn649 O654 2.121 . S
Mn649 N656 2.257 . S
Mn649 N665 2.282 . S
Mn649 O673 2.215 . S
Mn649 O675 2.117 . S
C650 O672 1.234 . S
C650 O673 1.283 . S
C651 O663 1.281 . S
C651 O664 1.236 . S
C652 O674 1.240 . S
C652 O675 1.264 . S
O653 Mn648 2.095 . S
O653 C662 1.250 . S
O654 Mn649 2.121 . S
O654 C662 1.258 . S
C655 N656 1.326 . S
C655 C659 1.460 . S
C655 H661 0.929 . S
N656 Mn649 2.257 . S
N656 C655 1.326 . S
N656 C660 1.362 . S
C657 C658 1.258 . S
C657 C660 1.431 . S
C657 C677 1.449 . S
C658 C657 1.258 . S
C658 C659 1.477 . S
C658 H678 0.931 . S
C659 C655 1.460 . S
C659 C658 1.477 . S
C659 H679 0.930 . S
C660 N656 1.362 . S
C660 C657 1.431 . S
C660 C670 1.476 . S
H661 C655 0.929 . S
C662 O653 1.250 . S
C662 O654 1.258 . S
O663 Mn648 2.162 . S
O663 C651 1.281 . S
O664 Mn648 2.297 . S
O664 C651 1.236 . S
N665 Mn649 2.282 . S
N665 C666 1.328 . S
N665 C670 1.318 . S
C666 N665 1.328 . S
C666 C667 1.457 . S
C666 H671 0.929 . S
C667 C666 1.457 . S
C667 C668 1.291 . S
C667 H680 0.931 . S
C668 C667 1.291 . S
C668 C669 1.373 . S
C668 H681 0.929 . S
C669 C668 1.373 . S
C669 C670 1.396 . S
C669 C676 1.403 . S
C670 C660 1.476 . S
C670 N665 1.318 . S
C670 C669 1.396 . S
H671 C666 0.929 . S
O672 Mn648 2.385 . S
O672 C650 1.234 . S
O673 Mn648 2.209 . S
O673 Mn649 2.215 . S
O673 C650 1.283 . S
O674 Mn648 2.094 . S
O674 C652 1.240 . S
O675 Mn649 2.117 . S
O675 C652 1.264 . S
C676 C669 1.403 . S
C676 C677 1.399 . S
C676 H682 0.929 . S
C677 C657 1.449 . S
C677 C676 1.399 . S
C677 H683 0.930 . S
H678 C658 0.931 . S
H679 C659 0.930 . S
H680 C667 0.931 . S
H681 C668 0.929 . S
H682 C676 0.929 . S
H683 C677 0.930 . S
Mn684 O689 2.095 . S
Mn684 O699 2.162 . S
Mn684 O700 2.297 . S
Mn684 O708 2.385 . S
Mn684 O709 2.209 . S
Mn684 O710 2.094 . S
Mn685 O690 2.121 . S
Mn685 N692 2.257 . S
Mn685 N701 2.282 . S
Mn685 O709 2.215 . S
Mn685 O711 2.117 . S
C686 O708 1.234 . S
C686 O709 1.283 . S
C687 O699 1.281 . S
C687 O700 1.236 . S
C688 O710 1.240 . S
C688 O711 1.264 . S
O689 Mn684 2.095 . S
O689 C698 1.250 . S
O690 Mn685 2.121 . S
O690 C698 1.258 . S
C691 N692 1.326 . S
C691 C695 1.460 . S
C691 H697 0.929 . S
N692 Mn685 2.257 . S
N692 C691 1.326 . S
N692 C696 1.362 . S
C693 C694 1.258 . S
C693 C696 1.431 . S
C693 C713 1.449 . S
C694 C693 1.258 . S
C694 C695 1.477 . S
C694 H714 0.931 1_655 S
C695 C691 1.460 . S
C695 C694 1.477 . S
C695 H715 0.930 . S
C696 N692 1.362 . S
C696 C693 1.431 . S
C696 C706 1.476 . S
H697 C691 0.929 . S
C698 O689 1.250 . S
C698 O690 1.258 . S
O699 Mn684 2.162 . S
O699 C687 1.281 . S
O700 Mn684 2.297 . S
O700 C687 1.236 . S
N701 Mn685 2.282 . S
N701 C702 1.328 . S
N701 C706 1.318 . S
C702 N701 1.328 . S
C702 C703 1.457 . S
C702 H707 0.929 . S
C703 C702 1.457 . S
C703 C704 1.291 . S
C703 H716 0.931 . S
C704 C703 1.291 . S
C704 C705 1.373 . S
C704 H717 0.929 . S
C705 C704 1.373 . S
C705 C706 1.396 . S
C705 C712 1.403 . S
C706 C696 1.476 . S
C706 N701 1.318 . S
C706 C705 1.396 . S
H707 C702 0.929 . S
O708 Mn684 2.385 . S
O708 C686 1.234 . S
O709 Mn684 2.209 . S
O709 Mn685 2.215 . S
O709 C686 1.283 . S
O710 Mn684 2.094 . S
O710 C688 1.240 . S
O711 Mn685 2.117 . S
O711 C688 1.264 . S
C712 C705 1.403 . S
C712 C713 1.399 . S
C712 H718 0.929 . S
C713 C693 1.449 . S
C713 C712 1.399 . S
C713 H719 0.930 1_655 S
H714 C694 0.931 1_455 S
H715 C695 0.930 . S
H716 C703 0.931 . S
H717 C704 0.929 . S
H718 C712 0.929 . S
H719 C713 0.930 1_455 S
Mn720 O725 2.095 . S
Mn720 O735 2.162 . S
Mn720 O736 2.297 . S
Mn720 O744 2.385 . S
Mn720 O745 2.209 . S
Mn720 O746 2.094 . S
Mn721 O726 2.121 1_556 S
Mn721 N728 2.257 . S
Mn721 N737 2.282 . S
Mn721 O745 2.215 1_556 S
Mn721 O747 2.117 . S
C722 O744 1.234 . S
C722 O745 1.283 . S
C723 O735 1.281 . S
C723 O736 1.236 . S
C724 O746 1.240 1_556 S
C724 O747 1.264 . S
O725 Mn720 2.095 . S
O725 C734 1.250 . S
O726 Mn721 2.121 1_554 S
O726 C734 1.258 . S
C727 N728 1.326 . S
C727 C731 1.460 . S
C727 H733 0.929 . S
N728 Mn721 2.257 . S
N728 C727 1.326 . S
N728 C732 1.362 . S
C729 C730 1.258 . S
C729 C732 1.431 . S
C729 C749 1.449 . S
C730 C729 1.258 . S
C730 C731 1.477 . S
C730 H750 0.931 . S
C731 C727 1.460 . S
C731 C730 1.477 . S
C731 H751 0.930 . S
C732 N728 1.362 . S
C732 C729 1.431 . S
C732 C742 1.476 . S
H733 C727 0.929 . S
C734 O725 1.250 . S
C734 O726 1.258 . S
O735 Mn720 2.162 . S
O735 C723 1.281 . S
O736 Mn720 2.297 . S
O736 C723 1.236 . S
N737 Mn721 2.282 . S
N737 C738 1.328 . S
N737 C742 1.318 . S
C738 N737 1.328 . S
C738 C739 1.457 . S
C738 H743 0.929 . S
C739 C738 1.457 . S
C739 C740 1.291 . S
C739 H752 0.931 . S
C740 C739 1.291 . S
C740 C741 1.373 . S
C740 H753 0.929 . S
C741 C740 1.373 . S
C741 C742 1.396 . S
C741 C748 1.403 . S
C742 C732 1.476 . S
C742 N737 1.318 . S
C742 C741 1.396 . S
H743 C738 0.929 . S
O744 Mn720 2.385 . S
O744 C722 1.234 . S
O745 Mn720 2.209 . S
O745 Mn721 2.215 1_554 S
O745 C722 1.283 . S
O746 Mn720 2.094 . S
O746 C724 1.240 1_554 S
O747 Mn721 2.117 . S
O747 C724 1.264 . S
C748 C741 1.403 . S
C748 C749 1.399 . S
C748 H754 0.929 . S
C749 C729 1.449 . S
C749 C748 1.399 . S
C749 H755 0.930 . S
H750 C730 0.931 . S
H751 C731 0.930 . S
H752 C739 0.931 . S
H753 C740 0.929 . S
H754 C748 0.929 . S
H755 C749 0.930 . S
Mn756 O761 2.095 . S
Mn756 O771 2.162 . S
Mn756 O772 2.297 . S
Mn756 O780 2.385 . S
Mn756 O781 2.209 . S
Mn756 O782 2.094 . S
Mn757 O762 2.121 . S
Mn757 N764 2.257 . S
Mn757 N773 2.282 . S
Mn757 O781 2.215 . S
Mn757 O783 2.117 . S
C758 O780 1.234 . S
C758 O781 1.283 . S
C759 O771 1.281 . S
C759 O772 1.236 . S
C760 O782 1.240 . S
C760 O783 1.264 . S
O761 Mn756 2.095 . S
O761 C770 1.250 . S
O762 Mn757 2.121 . S
O762 C770 1.258 . S
C763 N764 1.326 . S
C763 C767 1.460 . S
C763 H769 0.929 . S
N764 Mn757 2.257 . S
N764 C763 1.326 . S
N764 C768 1.362 . S
C765 C766 1.258 . S
C765 C768 1.431 . S
C765 C785 1.449 . S
C766 C765 1.258 . S
C766 C767 1.477 . S
C766 H786 0.931 . S
C767 C763 1.460 . S
C767 C766 1.477 . S
C767 H787 0.930 . S
C768 N764 1.362 . S
C768 C765 1.431 . S
C768 C778 1.476 . S
H769 C763 0.929 . S
C770 O761 1.250 . S
C770 O762 1.258 . S
O771 Mn756 2.162 . S
O771 C759 1.281 . S
O772 Mn756 2.297 . S
O772 C759 1.236 . S
N773 Mn757 2.282 . S
N773 C774 1.328 . S
N773 C778 1.318 . S
C774 N773 1.328 . S
C774 C775 1.457 . S
C774 H779 0.929 . S
C775 C774 1.457 . S
C775 C776 1.291 . S
C775 H788 0.931 . S
C776 C775 1.291 . S
C776 C777 1.373 . S
C776 H789 0.929 . S
C777 C776 1.373 . S
C777 C778 1.396 . S
C777 C784 1.403 . S
C778 C768 1.476 . S
C778 N773 1.318 . S
C778 C777 1.396 . S
H779 C774 0.929 . S
O780 Mn756 2.385 . S
O780 C758 1.234 . S
O781 Mn756 2.209 . S
O781 Mn757 2.215 . S
O781 C758 1.283 . S
O782 Mn756 2.094 . S
O782 C760 1.240 . S
O783 Mn757 2.117 . S
O783 C760 1.264 . S
C784 C777 1.403 . S
C784 C785 1.399 . S
C784 H790 0.929 . S
C785 C765 1.449 . S
C785 C784 1.399 . S
C785 H791 0.930 . S
H786 C766 0.931 . S
H787 C767 0.930 . S
H788 C775 0.931 . S
H789 C776 0.929 . S
H790 C784 0.929 . S
H791 C785 0.930 . S
Mn792 O797 2.095 . S
Mn792 O807 2.162 . S
Mn792 O808 2.297 . S
Mn792 O816 2.385 . S
Mn792 O817 2.209 . S
Mn792 O818 2.094 . S
Mn793 O798 2.121 . S
Mn793 N800 2.257 . S
Mn793 N809 2.282 . S
Mn793 O817 2.215 . S
Mn793 O819 2.117 . S
C794 O816 1.234 . S
C794 O817 1.283 . S
C795 O807 1.281 . S
C795 O808 1.236 . S
C796 O818 1.240 . S
C796 O819 1.264 . S
O797 Mn792 2.095 . S
O797 C806 1.250 . S
O798 Mn793 2.121 . S
O798 C806 1.258 . S
C799 N800 1.326 . S
C799 C803 1.460 . S
C799 H805 0.929 . S
N800 Mn793 2.257 . S
N800 C799 1.326 . S
N800 C804 1.362 . S
C801 C802 1.258 1_455 S
C801 C804 1.431 1_455 S
C801 C821 1.449 . S
C802 C801 1.258 1_655 S
C802 C803 1.477 . S
C802 H822 0.931 1_655 S
C803 C799 1.460 . S
C803 C802 1.477 . S
C803 H823 0.930 . S
C804 N800 1.362 . S
C804 C801 1.431 1_655 S
C804 C814 1.476 . S
H805 C799 0.929 . S
C806 O797 1.250 . S
C806 O798 1.258 . S
O807 Mn792 2.162 . S
O807 C795 1.281 . S
O808 Mn792 2.297 . S
O808 C795 1.236 . S
N809 Mn793 2.282 . S
N809 C810 1.328 . S
N809 C814 1.318 . S
C810 N809 1.328 . S
C810 C811 1.457 1_655 S
C810 H815 0.929 . S
C811 C810 1.457 1_455 S
C811 C812 1.291 . S
C811 H824 0.931 . S
C812 C811 1.291 . S
C812 C813 1.373 . S
C812 H825 0.929 . S
C813 C812 1.373 . S
C813 C814 1.396 1_455 S
C813 C820 1.403 . S
C814 C804 1.476 . S
C814 N809 1.318 . S
C814 C813 1.396 1_655 S
H815 C810 0.929 . S
O816 Mn792 2.385 . S
O816 C794 1.234 . S
O817 Mn792 2.209 . S
O817 Mn793 2.215 . S
O817 C794 1.283 . S
O818 Mn792 2.094 . S
O818 C796 1.240 . S
O819 Mn793 2.117 . S
O819 C796 1.264 . S
C820 C813 1.403 . S
C820 C821 1.399 . S
C820 H826 0.929 . S
C821 C801 1.449 . S
C821 C820 1.399 . S
C821 H827 0.930 . S
H822 C802 0.931 1_455 S
H823 C803 0.930 . S
H824 C811 0.931 . S
H825 C812 0.929 . S
H826 C820 0.929 . S
H827 C821 0.930 . S
Mn828 O833 2.095 . S
Mn828 O843 2.162 . S
Mn828 O844 2.297 . S
Mn828 O852 2.385 . S
Mn828 O853 2.209 . S
Mn828 O854 2.094 . S
Mn829 O834 2.121 . S
Mn829 N836 2.257 . S
Mn829 N845 2.282 . S
Mn829 O853 2.215 . S
Mn829 O855 2.117 . S
C830 O852 1.234 . S
C830 O853 1.283 . S
C831 O843 1.281 . S
C831 O844 1.236 . S
C832 O854 1.240 . S
C832 O855 1.264 . S
O833 Mn828 2.095 . S
O833 C842 1.250 . S
O834 Mn829 2.121 . S
O834 C842 1.258 . S
C835 N836 1.326 . S
C835 C839 1.460 . S
C835 H841 0.929 . S
N836 Mn829 2.257 . S
N836 C835 1.326 . S
N836 C840 1.362 . S
C837 C838 1.258 . S
C837 C840 1.431 . S
C837 C857 1.449 . S
C838 C837 1.258 . S
C838 C839 1.477 . S
C838 H858 0.931 . S
C839 C835 1.460 . S
C839 C838 1.477 . S
C839 H859 0.930 . S
C840 N836 1.362 . S
C840 C837 1.431 . S
C840 C850 1.476 . S
H841 C835 0.929 . S
C842 O833 1.250 . S
C842 O834 1.258 . S
O843 Mn828 2.162 . S
O843 C831 1.281 . S
O844 Mn828 2.297 . S
O844 C831 1.236 . S
N845 Mn829 2.282 . S
N845 C846 1.328 . S
N845 C850 1.318 . S
C846 N845 1.328 . S
C846 C847 1.457 . S
C846 H851 0.929 . S
C847 C846 1.457 . S
C847 C848 1.291 . S
C847 H860 0.931 . S
C848 C847 1.291 . S
C848 C849 1.373 . S
C848 H861 0.929 . S
C849 C848 1.373 . S
C849 C850 1.396 . S
C849 C856 1.403 . S
C850 C840 1.476 . S
C850 N845 1.318 . S
C850 C849 1.396 . S
H851 C846 0.929 . S
O852 Mn828 2.385 . S
O852 C830 1.234 . S
O853 Mn828 2.209 . S
O853 Mn829 2.215 . S
O853 C830 1.283 . S
O854 Mn828 2.094 . S
O854 C832 1.240 . S
O855 Mn829 2.117 . S
O855 C832 1.264 . S
C856 C849 1.403 . S
C856 C857 1.399 . S
C856 H862 0.929 . S
C857 C837 1.449 . S
C857 C856 1.399 . S
C857 H863 0.930 . S
H858 C838 0.931 . S
H859 C839 0.930 . S
H860 C847 0.931 . S
H861 C848 0.929 . S
H862 C856 0.929 . S
H863 C857 0.930 . S
Dy864 O867 2.307 . S
Dy864 O869 2.395 . S
Dy864 O870 2.379 . S
Dy864 O872 2.339 . S
Dy864 O874 2.298 . S
Dy864 O878 2.275 . S
Dy864 C886 2.738 . S
Dy865 O868 2.298 1_655 S
Dy865 O871 2.275 1_655 S
Dy865 O873 2.307 1_645 S
Dy865 O875 2.395 . S
Dy865 O876 2.379 1_554 S
Dy865 O879 2.339 1_654 S
Dy865 C895 2.738 . S
C866 O878 1.254 1_556 S
C866 O879 1.257 . S
O867 Dy864 2.307 . S
O867 C877 1.266 . S
O868 Dy865 2.298 1_455 S
O868 C877 1.236 . S
O869 Dy864 2.395 . S
O869 C886 1.255 . S
O870 Dy864 2.379 . S
O870 C886 1.249 . S
O871 Dy865 2.275 1_455 S
O871 C887 1.254 . S
O872 Dy864 2.339 . S
O872 C887 1.257 . S
O873 Dy865 2.307 1_465 S
O873 C888 1.266 . S
O874 Dy864 2.298 . S
O874 C888 1.236 1_545 S
O875 Dy865 2.395 . S
O875 C895 1.255 . S
O876 Dy865 2.379 1_556 S
O876 C895 1.249 1_556 S
C877 O867 1.266 . S
C877 O868 1.236 . S
O878 Dy864 2.275 . S
O878 C866 1.254 1_554 S
O879 Dy865 2.339 1_456 S
O879 C866 1.257 . S
C880 C883 1.344 . S
C880 C884 1.328 . S
C880 C886 1.516 . S
C881 C882 1.304 . S
C881 C885 1.323 . S
C882 C881 1.304 . S
C882 C883 1.371 . S
C882 H896 0.930 . S
C883 C880 1.344 . S
C883 C882 1.371 . S
C883 H897 0.931 . S
C884 C880 1.328 . S
C884 C885 1.433 . S
C884 H898 0.931 . S
C885 C881 1.323 . S
C885 C884 1.433 . S
C885 H899 0.933 . S
C886 Dy864 2.738 . S
C886 O869 1.255 . S
C886 O870 1.249 . S
C886 C880 1.516 . S
C887 O871 1.254 . S
C887 O872 1.257 . S
C888 O873 1.266 . S
C888 O874 1.236 1_565 S
C889 C892 1.344 . S
C889 C893 1.328 1_554 S
C889 C895 1.516 . S
C890 C891 1.304 . S
C890 C894 1.323 1_554 S
C891 C890 1.304 . S
C891 C892 1.371 . S
C891 H900 0.930 . S
C892 C889 1.344 . S
C892 C891 1.371 . S
C892 H901 0.931 . S
C893 C889 1.328 1_556 S
C893 C894 1.433 . S
C893 H902 0.931 . S
C894 C890 1.323 1_556 S
C894 C893 1.433 . S
C894 H903 0.933 . S
C895 Dy865 2.738 . S
C895 O875 1.255 . S
C895 O876 1.249 1_554 S
C895 C889 1.516 . S
H896 C882 0.930 . S
H897 C883 0.931 . S
H898 C884 0.931 . S
H899 C885 0.933 . S
H900 C891 0.930 . S
H901 C892 0.931 . S
H902 C893 0.931 . S
H903 C894 0.933 . S
Dy904 O907 2.307 . S
Dy904 O909 2.395 . S
Dy904 O910 2.379 . S
Dy904 O912 2.339 . S
Dy904 O914 2.298 . S
Dy904 O918 2.275 . S
Dy904 C926 2.738 . S
Dy905 O908 2.298 . S
Dy905 O911 2.275 . S
Dy905 O913 2.307 . S
Dy905 O915 2.395 . S
Dy905 O916 2.379 . S
Dy905 O919 2.339 . S
Dy905 C935 2.738 . S
C906 O918 1.254 . S
C906 O919 1.257 . S
O907 Dy904 2.307 . S
O907 C917 1.266 . S
O908 Dy905 2.298 . S
O908 C917 1.236 . S
O909 Dy904 2.395 . S
O909 C926 1.255 . S
O910 Dy904 2.379 . S
O910 C926 1.249 . S
O911 Dy905 2.275 . S
O911 C927 1.254 . S
O912 Dy904 2.339 . S
O912 C927 1.257 . S
O913 Dy905 2.307 . S
O913 C928 1.266 . S
O914 Dy904 2.298 . S
O914 C928 1.236 . S
O915 Dy905 2.395 . S
O915 C935 1.255 . S
O916 Dy905 2.379 . S
O916 C935 1.249 . S
C917 O907 1.266 . S
C917 O908 1.236 . S
O918 Dy904 2.275 . S
O918 C906 1.254 . S
O919 Dy905 2.339 . S
O919 C906 1.257 . S
C920 C923 1.344 . S
C920 C924 1.328 . S
C920 C926 1.516 . S
C921 C922 1.304 . S
C921 C925 1.323 . S
C922 C921 1.304 . S
C922 C923 1.371 . S
C922 H936 0.930 . S
C923 C920 1.344 . S
C923 C922 1.371 . S
C923 H937 0.931 . S
C924 C920 1.328 . S
C924 C925 1.433 . S
C924 H938 0.931 . S
C925 C921 1.323 . S
C925 C924 1.433 . S
C925 H939 0.933 . S
C926 Dy904 2.738 . S
C926 O909 1.255 . S
C926 O910 1.249 . S
C926 C920 1.516 . S
C927 O911 1.254 . S
C927 O912 1.257 . S
C928 O913 1.266 . S
C928 O914 1.236 . S
C929 C932 1.344 . S
C929 C933 1.328 . S
C929 C935 1.516 . S
C930 C931 1.304 . S
C930 C934 1.323 . S
C931 C930 1.304 . S
C931 C932 1.371 . S
C931 H940 0.930 . S
C932 C929 1.344 . S
C932 C931 1.371 . S
C932 H941 0.931 . S
C933 C929 1.328 . S
C933 C934 1.433 . S
C933 H942 0.931 . S
C934 C930 1.323 . S
C934 C933 1.433 . S
C934 H943 0.933 . S
C935 Dy905 2.738 . S
C935 O915 1.255 . S
C935 O916 1.249 . S
C935 C929 1.516 . S
H936 C922 0.930 . S
H937 C923 0.931 . S
H938 C924 0.931 . S
H939 C925 0.933 . S
H940 C931 0.930 . S
H941 C932 0.931 . S
H942 C933 0.931 . S
H943 C934 0.933 . S
Dy944 O947 2.307 . S
Dy944 O949 2.395 . S
Dy944 O950 2.379 . S
Dy944 O952 2.339 . S
Dy944 O954 2.298 . S
Dy944 O958 2.275 . S
Dy944 C966 2.738 . S
Dy945 O948 2.298 . S
Dy945 O951 2.275 . S
Dy945 O953 2.307 . S
Dy945 O955 2.395 . S
Dy945 O956 2.379 . S
Dy945 O959 2.339 . S
Dy945 C975 2.738 . S
C946 O958 1.254 . S
C946 O959 1.257 . S
O947 Dy944 2.307 . S
O947 C957 1.266 . S
O948 Dy945 2.298 . S
O948 C957 1.236 . S
O949 Dy944 2.395 . S
O949 C966 1.255 . S
O950 Dy944 2.379 . S
O950 C966 1.249 . S
O951 Dy945 2.275 . S
O951 C967 1.254 . S
O952 Dy944 2.339 . S
O952 C967 1.257 . S
O953 Dy945 2.307 . S
O953 C968 1.266 . S
O954 Dy944 2.298 . S
O954 C968 1.236 . S
O955 Dy945 2.395 . S
O955 C975 1.255 . S
O956 Dy945 2.379 . S
O956 C975 1.249 . S
C957 O947 1.266 . S
C957 O948 1.236 . S
O958 Dy944 2.275 . S
O958 C946 1.254 . S
O959 Dy945 2.339 . S
O959 C946 1.257 . S
C960 C963 1.344 . S
C960 C964 1.328 . S
C960 C966 1.516 . S
C961 C962 1.304 . S
C961 C965 1.323 . S
C962 C961 1.304 . S
C962 C963 1.371 . S
C962 H976 0.930 . S
C963 C960 1.344 . S
C963 C962 1.371 . S
C963 H977 0.931 . S
C964 C960 1.328 . S
C964 C965 1.433 . S
C964 H978 0.931 . S
C965 C961 1.323 . S
C965 C964 1.433 . S
C965 H979 0.933 . S
C966 Dy944 2.738 . S
C966 O949 1.255 . S
C966 O950 1.249 . S
C966 C960 1.516 . S
C967 O951 1.254 . S
C967 O952 1.257 . S
C968 O953 1.266 . S
C968 O954 1.236 . S
C969 C972 1.344 . S
C969 C973 1.328 . S
C969 C975 1.516 . S
C970 C971 1.304 . S
C970 C974 1.323 . S
C971 C970 1.304 . S
C971 C972 1.371 1_565 S
C971 H980 0.930 . S
C972 C969 1.344 . S
C972 C971 1.371 1_545 S
C972 H981 0.931 . S
C973 C969 1.328 . S
C973 C974 1.433 1_545 S
C973 H982 0.931 . S
C974 C970 1.323 . S
C974 C973 1.433 1_565 S
C974 H983 0.933 . S
C975 Dy945 2.738 . S
C975 O955 1.255 . S
C975 O956 1.249 . S
C975 C969 1.516 . S
H976 C962 0.930 . S
H977 C963 0.931 . S
H978 C964 0.931 . S
H979 C965 0.933 . S
H980 C971 0.930 . S
H981 C972 0.931 . S
H982 C973 0.931 . S
H983 C974 0.933 . S
Dy984 O987 2.307 . S
Dy984 O989 2.395 . S
Dy984 O990 2.379 . S
Dy984 O992 2.339 . S
Dy984 O994 2.298 . S
Dy984 O998 2.275 . S
Dy984 C1006 2.738 . S
Dy985 O988 2.298 . S
Dy985 O991 2.275 . S
Dy985 O993 2.307 . S
Dy985 O995 2.395 . S
Dy985 O996 2.379 . S
Dy985 O999 2.339 . S
Dy985 C1015 2.738 . S
C986 O998 1.254 . S
C986 O999 1.257 . S
O987 Dy984 2.307 . S
O987 C997 1.266 . S
O988 Dy985 2.298 . S
O988 C997 1.236 . S
O989 Dy984 2.395 . S
O989 C1006 1.255 . S
O990 Dy984 2.379 . S
O990 C1006 1.249 . S
O991 Dy985 2.275 . S
O991 C1007 1.254 . S
O992 Dy984 2.339 . S
O992 C1007 1.257 . S
O993 Dy985 2.307 . S
O993 C1008 1.266 . S
O994 Dy984 2.298 . S
O994 C1008 1.236 . S
O995 Dy985 2.395 . S
O995 C1015 1.255 . S
O996 Dy985 2.379 . S
O996 C1015 1.249 . S
C997 O987 1.266 . S
C997 O988 1.236 . S
O998 Dy984 2.275 . S
O998 C986 1.254 . S
O999 Dy985 2.339 . S
O999 C986 1.257 . S
C1000 C1003 1.344 . S
C1000 C1004 1.328 . S
C1000 C1006 1.516 . S
C1001 C1002 1.304 . S
C1001 C1005 1.323 . S
C1002 C1001 1.304 . S
C1002 C1003 1.371 . S
C1002 H1016 0.930 . S
C1003 C1000 1.344 . S
C1003 C1002 1.371 . S
C1003 H1017 0.931 . S
C1004 C1000 1.328 . S
C1004 C1005 1.433 . S
C1004 H1018 0.931 . S
C1005 C1001 1.323 . S
C1005 C1004 1.433 . S
C1005 H1019 0.933 . S
C1006 Dy984 2.738 . S
C1006 O989 1.255 . S
C1006 O990 1.249 . S
C1006 C1000 1.516 . S
C1007 O991 1.254 . S
C1007 O992 1.257 . S
C1008 O993 1.266 . S
C1008 O994 1.236 . S
C1009 C1012 1.344 . S
C1009 C1013 1.328 . S
C1009 C1015 1.516 . S
C1010 C1011 1.304 . S
C1010 C1014 1.323 . S
C1011 C1010 1.304 . S
C1011 C1012 1.371 . S
C1011 H1020 0.930 . S
C1012 C1009 1.344 . S
C1012 C1011 1.371 . S
C1012 H1021 0.931 . S
C1013 C1009 1.328 . S
C1013 C1014 1.433 . S
C1013 H1022 0.931 . S
C1014 C1010 1.323 . S
C1014 C1013 1.433 . S
C1014 H1023 0.933 . S
C1015 Dy985 2.738 . S
C1015 O995 1.255 . S
C1015 O996 1.249 . S
C1015 C1009 1.516 . S
H1016 C1002 0.930 . S
H1017 C1003 0.931 . S
H1018 C1004 0.931 . S
H1019 C1005 0.933 . S
H1020 C1011 0.930 . S
H1021 C1012 0.931 . S
H1022 C1013 0.931 . S
H1023 C1014 0.933 . S
Dy1024 O1027 2.307 . S
Dy1024 O1029 2.395 1_545 S
Dy1024 O1030 2.379 . S
Dy1024 O1032 2.339 . S
Dy1024 O1034 2.298 . S
Dy1024 O1038 2.275 . S
Dy1024 C1046 2.738 1_545 S
Dy1025 O1028 2.298 . S
Dy1025 O1031 2.275 . S
Dy1025 O1033 2.307 . S
Dy1025 O1035 2.395 . S
Dy1025 O1036 2.379 1_455 S
Dy1025 O1039 2.339 1_455 S
Dy1025 C1055 2.738 . S
C1026 O1038 1.254 1_655 S
C1026 O1039 1.257 . S
O1027 Dy1024 2.307 . S
O1027 C1037 1.266 . S
O1028 Dy1025 2.298 . S
O1028 C1037 1.236 . S
O1029 Dy1024 2.395 1_565 S
O1029 C1046 1.255 . S
O1030 Dy1024 2.379 . S
O1030 C1046 1.249 1_545 S
O1031 Dy1025 2.275 . S
O1031 C1047 1.254 . S
O1032 Dy1024 2.339 . S
O1032 C1047 1.257 . S
O1033 Dy1025 2.307 . S
O1033 C1048 1.266 . S
O1034 Dy1024 2.298 . S
O1034 C1048 1.236 . S
O1035 Dy1025 2.395 . S
O1035 C1055 1.255 . S
O1036 Dy1025 2.379 1_655 S
O1036 C1055 1.249 1_655 S
C1037 O1027 1.266 . S
C1037 O1028 1.236 . S
O1038 Dy1024 2.275 . S
O1038 C1026 1.254 1_455 S
O1039 Dy1025 2.339 1_655 S
O1039 C1026 1.257 . S
C1040 C1043 1.344 . S
C1040 C1044 1.328 . S
C1040 C1046 1.516 . S
C1041 C1042 1.304 . S
C1041 C1045 1.323 . S
C1042 C1041 1.304 . S
C1042 C1043 1.371 . S
C1042 H1056 0.930 . S
C1043 C1040 1.344 . S
C1043 C1042 1.371 . S
C1043 H1057 0.931 . S
C1044 C1040 1.328 . S
C1044 C1045 1.433 . S
C1044 H1058 0.931 . S
C1045 C1041 1.323 . S
C1045 C1044 1.433 . S
C1045 H1059 0.933 . S
C1046 Dy1024 2.738 1_565 S
C1046 O1029 1.255 . S
C1046 O1030 1.249 1_565 S
C1046 C1040 1.516 . S
C1047 O1031 1.254 . S
C1047 O1032 1.257 . S
C1048 O1033 1.266 . S
C1048 O1034 1.236 . S
C1049 C1052 1.344 . S
C1049 C1053 1.328 1_455 S
C1049 C1055 1.516 . S
C1050 C1051 1.304 1_655 S
C1050 C1054 1.323 . S
C1051 C1050 1.304 1_455 S
C1051 C1052 1.371 . S
C1051 H1060 0.930 . S
C1052 C1049 1.344 . S
C1052 C1051 1.371 . S
C1052 H1061 0.931 . S
C1053 C1049 1.328 1_655 S
C1053 C1054 1.433 . S
C1053 H1062 0.931 . S
C1054 C1050 1.323 . S
C1054 C1053 1.433 . S
C1054 H1063 0.933 . S
C1055 Dy1025 2.738 . S
C1055 O1035 1.255 . S
C1055 O1036 1.249 1_455 S
C1055 C1049 1.516 . S
H1056 C1042 0.930 . S
H1057 C1043 0.931 . S
H1058 C1044 0.931 . S
H1059 C1045 0.933 . S
H1060 C1051 0.930 . S
H1061 C1052 0.931 . S
H1062 C1053 0.931 . S
H1063 C1054 0.933 . S
Dy1064 O1067 2.307 . S
Dy1064 O1069 2.395 . S
Dy1064 O1070 2.379 . S
Dy1064 O1072 2.339 . S
Dy1064 O1074 2.298 . S
Dy1064 O1078 2.275 . S
Dy1064 C1086 2.738 . S
Dy1065 O1068 2.298 . S
Dy1065 O1071 2.275 . S
Dy1065 O1073 2.307 . S
Dy1065 O1075 2.395 . S
Dy1065 O1076 2.379 . S
Dy1065 O1079 2.339 . S
Dy1065 C1095 2.738 . S
C1066 O1078 1.254 . S
C1066 O1079 1.257 . S
O1067 Dy1064 2.307 . S
O1067 C1077 1.266 . S
O1068 Dy1065 2.298 . S
O1068 C1077 1.236 . S
O1069 Dy1064 2.395 . S
O1069 C1086 1.255 . S
O1070 Dy1064 2.379 . S
O1070 C1086 1.249 . S
O1071 Dy1065 2.275 . S
O1071 C1087 1.254 . S
O1072 Dy1064 2.339 . S
O1072 C1087 1.257 . S
O1073 Dy1065 2.307 . S
O1073 C1088 1.266 . S
O1074 Dy1064 2.298 . S
O1074 C1088 1.236 . S
O1075 Dy1065 2.395 . S
O1075 C1095 1.255 . S
O1076 Dy1065 2.379 . S
O1076 C1095 1.249 . S
C1077 O1067 1.266 . S
C1077 O1068 1.236 . S
O1078 Dy1064 2.275 . S
O1078 C1066 1.254 . S
O1079 Dy1065 2.339 . S
O1079 C1066 1.257 . S
C1080 C1083 1.354 . S
C1080 C1084 1.328 . S
C1080 C1086 1.516 . S
C1081 C1082 1.304 . S
C1081 C1085 1.323 . S
C1082 C1081 1.304 . S
C1082 C1083 1.350 1_545 S
C1082 H1096 0.930 . S
C1083 C1080 1.354 . S
C1083 C1082 1.350 1_565 S
C1083 H1097 0.942 . S
C1084 C1080 1.328 . S
C1084 C1085 1.433 1_565 S
C1084 H1098 0.931 . S
C1085 C1081 1.323 . S
C1085 C1084 1.433 1_545 S
C1085 H1099 0.933 . S
C1086 Dy1064 2.738 . S
C1086 O1069 1.255 . S
C1086 O1070 1.249 . S
C1086 C1080 1.516 . S
C1087 O1071 1.254 . S
C1087 O1072 1.257 . S
C1088 O1073 1.266 . S
C1088 O1074 1.236 . S
C1089 C1092 1.344 . S
C1089 C1093 1.328 . S
C1089 C1095 1.516 . S
C1090 C1091 1.304 . S
C1090 C1094 1.323 . S
C1091 C1090 1.304 . S
C1091 C1092 1.371 . S
C1091 H1100 0.930 . S
C1092 C1089 1.344 . S
C1092 C1091 1.371 . S
C1092 H1101 0.931 . S
C1093 C1089 1.328 . S
C1093 C1094 1.433 . S
C1093 H1102 0.931 . S
C1094 C1090 1.323 . S
C1094 C1093 1.433 . S
C1094 H1103 0.933 . S
C1095 Dy1065 2.738 . S
C1095 O1075 1.255 . S
C1095 O1076 1.249 . S
C1095 C1089 1.516 . S
H1096 C1082 0.930 . S
H1097 C1083 0.942 . S
H1098 C1084 0.931 . S
H1099 C1085 0.933 . S
H1100 C1091 0.930 . S
H1101 C1092 0.931 . S
H1102 C1093 0.931 . S
H1103 C1094 0.933 . S
Dy1104 O1107 2.307 . S
Dy1104 O1109 2.395 1_554 S
Dy1104 O1110 2.379 1_554 S
Dy1104 O1112 2.339 . S
Dy1104 O1114 2.298 . S
Dy1104 O1118 2.275 . S
Dy1104 C1126 2.738 1_554 S
Dy1105 O1108 2.298 . S
Dy1105 O1111 2.275 . S
Dy1105 O1113 2.307 . S
Dy1105 O1115 2.395 . S
Dy1105 O1116 2.377 . S
Dy1105 O1119 2.339 . S
Dy1105 C1135 2.738 . S
C1106 O1118 1.254 . S
C1106 O1119 1.257 . S
O1107 Dy1104 2.307 . S
O1107 C1117 1.266 . S
O1108 Dy1105 2.298 . S
O1108 C1117 1.236 . S
O1109 Dy1104 2.395 1_556 S
O1109 C1126 1.255 . S
O1110 Dy1104 2.379 1_556 S
O1110 C1126 1.249 . S
O1111 Dy1105 2.275 . S
O1111 C1127 1.254 . S
O1112 Dy1104 2.339 . S
O1112 C1127 1.257 . S
O1113 Dy1105 2.307 . S
O1113 C1128 1.266 . S
O1114 Dy1104 2.298 . S
O1114 C1128 1.236 . S
O1115 Dy1105 2.395 . S
O1115 C1135 1.255 . S
O1116 Dy1105 2.377 . S
O1116 C1135 1.248 . S
C1117 O1107 1.266 . S
C1117 O1108 1.236 . S
O1118 Dy1104 2.275 . S
O1118 C1106 1.254 . S
O1119 Dy1105 2.339 . S
O1119 C1106 1.257 . S
C1120 C1123 1.344 . S
C1120 C1124 1.328 . S
C1120 C1126 1.516 . S
C1121 C1122 1.304 . S
C1121 C1125 1.323 . S
C1122 C1121 1.304 . S
C1122 C1123 1.371 . S
C1122 H1136 0.930 . S
C1123 C1120 1.344 . S
C1123 C1122 1.371 . S
C1123 H1137 0.931 . S
C1124 C1120 1.328 . S
C1124 C1125 1.433 . S
C1124 H1138 0.931 . S
C1125 C1121 1.323 . S
C1125 C1124 1.433 . S
C1125 H1139 0.933 . S
C1126 Dy1104 2.738 1_556 S
C1126 O1109 1.255 . S
C1126 O1110 1.249 . S
C1126 C1120 1.516 . S
C1127 O1111 1.254 . S
C1127 O1112 1.257 . S
C1128 O1113 1.266 . S
C1128 O1114 1.236 . S
C1129 C1132 1.344 . S
C1129 C1133 1.328 1_545 S
C1129 C1135 1.516 . S
C1130 C1131 1.304 1_565 S
C1130 C1134 1.323 . S
C1131 C1130 1.304 1_545 S
C1131 C1132 1.371 . S
C1131 H1140 0.930 . S
C1132 C1129 1.344 . S
C1132 C1131 1.371 . S
C1132 H1141 0.931 . S
C1133 C1129 1.328 1_565 S
C1133 C1134 1.433 . S
C1133 H1142 0.931 . S
C1134 C1130 1.323 . S
C1134 C1133 1.433 . S
C1134 H1143 0.933 . S
C1135 Dy1105 2.738 . S
C1135 O1115 1.255 . S
C1135 O1116 1.248 . S
C1135 C1129 1.516 . S
H1136 C1122 0.930 . S
H1137 C1123 0.931 . S
H1138 C1124 0.931 . S
H1139 C1125 0.933 . S
H1140 C1131 0.930 . S
H1141 C1132 0.931 . S
H1142 C1133 0.931 . S
H1143 C1134 0.933 . S
Dy1144 O1147 2.307 . S
Dy1144 O1149 2.395 . S
Dy1144 O1150 2.379 . S
Dy1144 O1152 2.339 . S
Dy1144 O1154 2.298 . S
Dy1144 O1158 2.275 . S
Dy1144 C1166 2.738 . S
Dy1145 O1148 2.298 . S
Dy1145 O1151 2.275 . S
Dy1145 O1153 2.307 . S
Dy1145 O1155 2.395 . S
Dy1145 O1156 2.379 . S
Dy1145 O1159 2.339 . S
Dy1145 C1175 2.738 . S
C1146 O1158 1.254 . S
C1146 O1159 1.257 . S
O1147 Dy1144 2.307 . S
O1147 C1157 1.266 . S
O1148 Dy1145 2.298 . S
O1148 C1157 1.236 . S
O1149 Dy1144 2.395 . S
O1149 C1166 1.255 . S
O1150 Dy1144 2.379 . S
O1150 C1166 1.249 . S
O1151 Dy1145 2.275 . S
O1151 C1167 1.254 . S
O1152 Dy1144 2.339 . S
O1152 C1167 1.257 . S
O1153 Dy1145 2.307 . S
O1153 C1168 1.266 . S
O1154 Dy1144 2.298 . S
O1154 C1168 1.236 . S
O1155 Dy1145 2.395 . S
O1155 C1175 1.255 . S
O1156 Dy1145 2.379 . S
O1156 C1175 1.249 . S
C1157 O1147 1.266 . S
C1157 O1148 1.236 . S
O1158 Dy1144 2.275 . S
O1158 C1146 1.254 . S
O1159 Dy1145 2.339 . S
O1159 C1146 1.257 . S
C1160 C1163 1.344 . S
C1160 C1164 1.328 . S
C1160 C1166 1.516 . S
C1161 C1162 1.304 . S
C1161 C1165 1.323 . S
C1162 C1161 1.304 . S
C1162 C1163 1.371 . S
C1162 H1176 0.930 . S
C1163 C1160 1.344 . S
C1163 C1162 1.371 . S
C1163 H1177 0.931 . S
C1164 C1160 1.328 . S
C1164 C1165 1.433 . S
C1164 H1178 0.931 . S
C1165 C1161 1.323 . S
C1165 C1164 1.433 . S
C1165 H1179 0.933 . S
C1166 Dy1144 2.738 . S
C1166 O1149 1.255 . S
C1166 O1150 1.249 . S
C1166 C1160 1.516 . S
C1167 O1151 1.254 . S
C1167 O1152 1.257 . S
C1168 O1153 1.266 . S
C1168 O1154 1.236 . S
C1169 C1172 1.344 . S
C1169 C1173 1.328 . S
C1169 C1175 1.516 . S
C1170 C1171 1.304 . S
C1170 C1174 1.323 . S
C1171 C1170 1.304 . S
C1171 C1172 1.371 . S
C1171 H1180 0.930 . S
C1172 C1169 1.344 . S
C1172 C1171 1.371 . S
C1172 H1181 0.931 . S
C1173 C1169 1.328 . S
C1173 C1174 1.433 . S
C1173 H1182 0.931 . S
C1174 C1170 1.323 . S
C1174 C1173 1.433 . S
C1174 H1183 0.933 . S
C1175 Dy1145 2.738 . S
C1175 O1155 1.255 . S
C1175 O1156 1.249 . S
C1175 C1169 1.516 . S
H1176 C1162 0.930 . S
H1177 C1163 0.931 . S
H1178 C1164 0.931 . S
H1179 C1165 0.933 . S
H1180 C1171 0.930 . S
H1181 C1172 0.931 . S
H1182 C1173 0.931 . S
H1183 C1174 0.933 . S
Dy1184 O1187 2.307 1_554 S
Dy1184 O1189 2.395 . S
Dy1184 O1190 2.379 . S
Dy1184 O1192 2.339 . S
Dy1184 O1194 2.298 . S
Dy1184 O1198 2.275 . S
Dy1184 C1206 2.738 . S
Dy1185 O1188 2.298 1_554 S
Dy1185 O1191 2.275 . S
Dy1185 O1193 2.307 . S
Dy1185 O1195 2.395 . S
Dy1185 O1196 2.379 . S
Dy1185 O1199 2.339 . S
Dy1185 C1215 2.738 . S
C1186 O1198 1.254 . S
C1186 O1199 1.257 . S
O1187 Dy1184 2.307 1_556 S
O1187 C1197 1.266 . S
O1188 Dy1185 2.298 1_556 S
O1188 C1197 1.236 . S
O1189 Dy1184 2.395 . S
O1189 C1206 1.255 . S
O1190 Dy1184 2.379 . S
O1190 C1206 1.249 . S
O1191 Dy1185 2.275 . S
O1191 C1207 1.254 . S
O1192 Dy1184 2.339 . S
O1192 C1207 1.257 . S
O1193 Dy1185 2.307 . S
O1193 C1208 1.266 . S
O1194 Dy1184 2.298 . S
O1194 C1208 1.236 . S
O1195 Dy1185 2.395 . S
O1195 C1215 1.255 . S
O1196 Dy1185 2.379 . S
O1196 C1215 1.249 . S
C1197 O1187 1.266 . S
C1197 O1188 1.236 . S
O1198 Dy1184 2.275 . S
O1198 C1186 1.254 . S
O1199 Dy1185 2.339 . S
O1199 C1186 1.257 . S
C1200 C1203 1.344 . S
C1200 C1204 1.328 . S
C1200 C1206 1.516 . S
C1201 C1202 1.304 . S
C1201 C1205 1.323 . S
C1202 C1201 1.304 . S
C1202 C1203 1.371 . S
C1202 H1216 0.930 . S
C1203 C1200 1.344 . S
C1203 C1202 1.371 . S
C1203 H1217 0.931 . S
C1204 C1200 1.328 . S
C1204 C1205 1.433 . S
C1204 H1218 0.931 . S
C1205 C1201 1.323 . S
C1205 C1204 1.433 . S
C1205 H1219 0.933 . S
C1206 Dy1184 2.738 . S
C1206 O1189 1.255 . S
C1206 O1190 1.249 . S
C1206 C1200 1.516 . S
C1207 O1191 1.254 . S
C1207 O1192 1.257 . S
C1208 O1193 1.266 . S
C1208 O1194 1.236 . S
C1209 C1212 1.344 . S
C1209 C1213 1.328 . S
C1209 C1215 1.516 1_556 S
C1210 C1211 1.304 . S
C1210 C1214 1.323 . S
C1211 C1210 1.304 . S
C1211 C1212 1.371 . S
C1211 H1220 0.930 . S
C1212 C1209 1.344 . S
C1212 C1211 1.371 . S
C1212 H1221 0.931 . S
C1213 C1209 1.328 . S
C1213 C1214 1.433 . S
C1213 H1222 0.931 . S
C1214 C1210 1.323 . S
C1214 C1213 1.433 . S
C1214 H1223 0.933 . S
C1215 Dy1185 2.738 . S
C1215 O1195 1.255 . S
C1215 O1196 1.249 . S
C1215 C1209 1.516 1_554 S
H1216 C1202 0.930 . S
H1217 C1203 0.931 . S
H1218 C1204 0.931 . S
H1219 C1205 0.933 . S
H1220 C1211 0.930 . S
H1221 C1212 0.931 . S
H1222 C1213 0.931 . S
H1223 C1214 0.933 . S
Dy1224 O1227 2.307 . S
Dy1224 O1229 2.395 . S
Dy1224 O1230 2.379 . S
Dy1224 O1232 2.339 . S
Dy1224 O1234 2.298 . S
Dy1224 O1238 2.275 . S
Dy1224 C1246 2.738 . S
Dy1225 O1228 2.298 . S
Dy1225 O1231 2.275 . S
Dy1225 O1233 2.307 . S
Dy1225 O1235 2.395 . S
Dy1225 O1236 2.379 . S
Dy1225 O1239 2.339 . S
Dy1225 C1255 2.738 . S
C1226 O1238 1.254 . S
C1226 O1239 1.257 . S
O1227 Dy1224 2.307 . S
O1227 C1237 1.266 . S
O1228 Dy1225 2.298 . S
O1228 C1237 1.236 . S
O1229 Dy1224 2.395 . S
O1229 C1246 1.255 . S
O1230 Dy1224 2.379 . S
O1230 C1246 1.249 . S
O1231 Dy1225 2.275 . S
O1231 C1247 1.254 . S
O1232 Dy1224 2.339 . S
O1232 C1247 1.257 . S
O1233 Dy1225 2.307 . S
O1233 C1248 1.266 . S
O1234 Dy1224 2.298 . S
O1234 C1248 1.236 . S
O1235 Dy1225 2.395 . S
O1235 C1255 1.255 . S
O1236 Dy1225 2.379 . S
O1236 C1255 1.249 . S
C1237 O1227 1.266 . S
C1237 O1228 1.236 . S
O1238 Dy1224 2.275 . S
O1238 C1226 1.254 . S
O1239 Dy1225 2.339 . S
O1239 C1226 1.257 . S
C1240 C1243 1.344 . S
C1240 C1244 1.328 . S
C1240 C1246 1.516 . S
C1241 C1242 1.304 . S
C1241 C1245 1.323 . S
C1242 C1241 1.304 . S
C1242 C1243 1.371 . S
C1242 H1256 0.930 . S
C1243 C1240 1.344 . S
C1243 C1242 1.371 . S
C1243 H1257 0.931 . S
C1244 C1240 1.328 . S
C1244 C1245 1.433 . S
C1244 H1258 0.931 . S
C1245 C1241 1.323 . S
C1245 C1244 1.433 . S
C1245 H1259 0.933 . S
C1246 Dy1224 2.738 . S
C1246 O1229 1.255 . S
C1246 O1230 1.249 . S
C1246 C1240 1.516 . S
C1247 O1231 1.254 . S
C1247 O1232 1.257 . S
C1248 O1233 1.266 . S
C1248 O1234 1.236 . S
C1249 C1252 1.344 . S
C1249 C1253 1.328 . S
C1249 C1255 1.516 . S
C1250 C1251 1.304 . S
C1250 C1254 1.323 . S
C1251 C1250 1.304 . S
C1251 C1252 1.371 . S
C1251 H1260 0.930 . S
C1252 C1249 1.344 . S
C1252 C1251 1.371 . S
C1252 H1261 0.931 . S
C1253 C1249 1.328 . S
C1253 C1254 1.433 . S
C1253 H1262 0.931 . S
C1254 C1250 1.323 . S
C1254 C1253 1.433 . S
C1254 H1263 0.933 . S
C1255 Dy1225 2.738 . S
C1255 O1235 1.255 . S
C1255 O1236 1.249 . S
C1255 C1249 1.516 . S
H1256 C1242 0.930 . S
H1257 C1243 0.931 . S
H1258 C1244 0.931 . S
H1259 C1245 0.933 . S
H1260 C1251 0.930 . S
H1261 C1252 0.931 . S
H1262 C1253 0.931 . S
H1263 C1254 0.933 . S
Dy1264 O1267 2.307 1_455 S
Dy1264 O1269 2.395 . S
Dy1264 O1270 2.379 . S
Dy1264 O1272 2.339 . S
Dy1264 O1274 2.298 . S
Dy1264 O1278 2.275 . S
Dy1264 C1286 2.738 . S
Dy1265 O1268 2.298 1_455 S
Dy1265 O1271 2.275 . S
Dy1265 O1273 2.307 . S
Dy1265 O1275 2.395 . S
Dy1265 O1276 2.379 . S
Dy1265 O1279 2.339 . S
Dy1265 C1295 2.738 . S
C1266 O1278 1.254 . S
C1266 O1279 1.257 . S
O1267 Dy1264 2.307 1_655 S
O1267 C1277 1.266 . S
O1268 Dy1265 2.298 1_655 S
O1268 C1277 1.236 . S
O1269 Dy1264 2.395 . S
O1269 C1286 1.255 . S
O1270 Dy1264 2.379 . S
O1270 C1286 1.249 . S
O1271 Dy1265 2.275 . S
O1271 C1287 1.254 . S
O1272 Dy1264 2.339 . S
O1272 C1287 1.257 . S
O1273 Dy1265 2.307 . S
O1273 C1288 1.266 . S
O1274 Dy1264 2.298 . S
O1274 C1288 1.236 . S
O1275 Dy1265 2.395 . S
O1275 C1295 1.255 . S
O1276 Dy1265 2.379 . S
O1276 C1295 1.249 . S
C1277 O1267 1.266 . S
C1277 O1268 1.236 . S
O1278 Dy1264 2.275 . S
O1278 C1266 1.254 . S
O1279 Dy1265 2.339 . S
O1279 C1266 1.257 . S
C1280 C1283 1.344 . S
C1280 C1284 1.328 . S
C1280 C1286 1.516 . S
C1281 C1282 1.304 . S
C1281 C1285 1.323 . S
C1282 C1281 1.304 . S
C1282 C1283 1.371 . S
C1282 H1296 0.930 . S
C1283 C1280 1.344 . S
C1283 C1282 1.371 . S
C1283 H1297 0.931 . S
C1284 C1280 1.328 . S
C1284 C1285 1.433 . S
C1284 H1298 0.931 . S
C1285 C1281 1.323 . S
C1285 C1284 1.433 . S
C1285 H1299 0.933 . S
C1286 Dy1264 2.738 . S
C1286 O1269 1.255 . S
C1286 O1270 1.249 . S
C1286 C1280 1.516 . S
C1287 O1271 1.254 . S
C1287 O1272 1.257 . S
C1288 O1273 1.266 . S
C1288 O1274 1.236 . S
C1289 C1292 1.344 . S
C1289 C1293 1.328 . S
C1289 C1295 1.516 1_655 S
C1290 C1291 1.304 . S
C1290 C1294 1.323 . S
C1291 C1290 1.304 . S
C1291 C1292 1.371 . S
C1291 H1300 0.930 . S
C1292 C1289 1.344 . S
C1292 C1291 1.371 . S
C1292 H1301 0.931 . S
C1293 C1289 1.328 . S
C1293 C1294 1.433 . S
C1293 H1302 0.931 . S
C1294 C1290 1.323 . S
C1294 C1293 1.433 . S
C1294 H1303 0.933 . S
C1295 Dy1265 2.738 . S
C1295 O1275 1.255 . S
C1295 O1276 1.249 . S
C1295 C1289 1.516 1_455 S
H1296 C1282 0.930 . S
H1297 C1283 0.931 . S
H1298 C1284 0.931 . S
H1299 C1285 0.933 . S
H1300 C1291 0.930 . S
H1301 C1292 0.931 . S
H1302 C1293 0.931 . S
H1303 C1294 0.933 . S
Dy1304 O1307 2.307 . S
Dy1304 O1309 2.395 . S
Dy1304 O1310 2.379 . S
Dy1304 O1312 2.339 . S
Dy1304 O1314 2.298 . S
Dy1304 O1318 2.275 . S
Dy1304 C1326 2.738 . S
Dy1305 O1308 2.298 . S
Dy1305 O1311 2.275 . S
Dy1305 O1313 2.307 . S
Dy1305 O1315 2.395 . S
Dy1305 O1316 2.379 . S
Dy1305 O1319 2.339 . S
Dy1305 C1335 2.738 . S
C1306 O1318 1.254 . S
C1306 O1319 1.257 . S
O1307 Dy1304 2.307 . S
O1307 C1317 1.266 . S
O1308 Dy1305 2.298 . S
O1308 C1317 1.236 . S
O1309 Dy1304 2.395 . S
O1309 C1326 1.255 . S
O1310 Dy1304 2.379 . S
O1310 C1326 1.249 . S
O1311 Dy1305 2.275 . S
O1311 C1327 1.254 . S
O1312 Dy1304 2.339 . S
O1312 C1327 1.257 . S
O1313 Dy1305 2.307 . S
O1313 C1328 1.266 . S
O1314 Dy1304 2.298 . S
O1314 C1328 1.236 . S
O1315 Dy1305 2.395 . S
O1315 C1335 1.255 . S
O1316 Dy1305 2.379 . S
O1316 C1335 1.249 . S
C1317 O1307 1.266 . S
C1317 O1308 1.236 . S
O1318 Dy1304 2.275 . S
O1318 C1306 1.254 . S
O1319 Dy1305 2.339 . S
O1319 C1306 1.257 . S
C1320 C1323 1.344 . S
C1320 C1324 1.328 . S
C1320 C1326 1.516 . S
C1321 C1322 1.304 1_455 S
C1321 C1325 1.323 1_455 S
C1322 C1321 1.304 1_655 S
C1322 C1323 1.371 . S
C1322 H1336 0.930 1_655 S
C1323 C1320 1.344 . S
C1323 C1322 1.371 . S
C1323 H1337 0.931 . S
C1324 C1320 1.328 . S
C1324 C1325 1.433 . S
C1324 H1338 0.931 . S
C1325 C1321 1.323 1_655 S
C1325 C1324 1.433 . S
C1325 H1339 0.933 . S
C1326 Dy1304 2.738 . S
C1326 O1309 1.255 . S
C1326 O1310 1.249 . S
C1326 C1320 1.516 . S
C1327 O1311 1.254 . S
C1327 O1312 1.257 . S
C1328 O1313 1.266 . S
C1328 O1314 1.236 . S
C1329 C1332 1.344 . S
C1329 C1333 1.328 . S
C1329 C1335 1.516 . S
C1330 C1331 1.304 . S
C1330 C1334 1.323 . S
C1331 C1330 1.304 . S
C1331 C1332 1.371 . S
C1331 H1340 0.930 . S
C1332 C1329 1.344 . S
C1332 C1331 1.371 . S
C1332 H1341 0.931 . S
C1333 C1329 1.328 . S
C1333 C1334 1.433 . S
C1333 H1342 0.931 . S
C1334 C1330 1.323 . S
C1334 C1333 1.433 . S
C1334 H1343 0.933 . S
C1335 Dy1305 2.738 . S
C1335 O1315 1.255 . S
C1335 O1316 1.249 . S
C1335 C1329 1.516 . S
H1336 C1322 0.930 1_455 S
H1337 C1323 0.931 . S
H1338 C1324 0.931 . S
H1339 C1325 0.933 . S
H1340 C1331 0.930 . S
H1341 C1332 0.931 . S
H1342 C1333 0.931 . S
H1343 C1334 0.933 . S
Dy1344 O1347 2.307 . S
Dy1344 O1349 2.395 . S
Dy1344 O1350 2.379 . S
Dy1344 O1352 2.339 . S
Dy1344 O1354 2.298 . S
Dy1344 O1358 2.275 . S
Dy1344 C1366 2.738 . S
Dy1345 O1348 2.298 . S
Dy1345 O1351 2.275 . S
Dy1345 O1353 2.307 . S
Dy1345 O1355 2.395 . S
Dy1345 O1356 2.379 . S
Dy1345 O1359 2.339 . S
Dy1345 C1375 2.738 . S
C1346 O1358 1.254 . S
C1346 O1359 1.257 . S
O1347 Dy1344 2.307 . S
O1347 C1357 1.266 . S
O1348 Dy1345 2.298 . S
O1348 C1357 1.236 . S
O1349 Dy1344 2.395 . S
O1349 C1366 1.255 . S
O1350 Dy1344 2.379 . S
O1350 C1366 1.249 . S
O1351 Dy1345 2.275 . S
O1351 C1367 1.254 . S
O1352 Dy1344 2.339 . S
O1352 C1367 1.257 . S
O1353 Dy1345 2.307 . S
O1353 C1368 1.266 . S
O1354 Dy1344 2.298 . S
O1354 C1368 1.236 . S
O1355 Dy1345 2.395 . S
O1355 C1375 1.255 . S
O1356 Dy1345 2.379 . S
O1356 C1375 1.249 . S
C1357 O1347 1.266 . S
C1357 O1348 1.236 . S
O1358 Dy1344 2.275 . S
O1358 C1346 1.254 . S
O1359 Dy1345 2.339 . S
O1359 C1346 1.257 . S
C1360 C1363 1.344 . S
C1360 C1364 1.328 . S
C1360 C1366 1.516 . S
C1361 C1362 1.304 . S
C1361 C1365 1.323 . S
C1362 C1361 1.304 . S
C1362 C1363 1.371 . S
C1362 H1376 0.930 . S
C1363 C1360 1.344 . S
C1363 C1362 1.371 . S
C1363 H1377 0.931 . S
C1364 C1360 1.328 . S
C1364 C1365 1.433 . S
C1364 H1378 0.931 . S
C1365 C1361 1.323 . S
C1365 C1364 1.433 . S
C1365 H1379 0.933 . S
C1366 Dy1344 2.738 . S
C1366 O1349 1.255 . S
C1366 O1350 1.249 . S
C1366 C1360 1.516 . S
C1367 O1351 1.254 . S
C1367 O1352 1.257 . S
C1368 O1353 1.266 . S
C1368 O1354 1.236 . S
C1369 C1372 1.344 . S
C1369 C1373 1.328 1_556 S
C1369 C1375 1.516 . S
C1370 C1371 1.304 . S
C1370 C1374 1.323 . S
C1371 C1370 1.304 . S
C1371 C1372 1.371 1_554 S
C1371 H1380 0.930 . S
C1372 C1369 1.344 . S
C1372 C1371 1.371 1_556 S
C1372 H1381 0.931 . S
C1373 C1369 1.328 1_554 S
C1373 C1374 1.433 . S
C1373 H1382 0.931 . S
C1374 C1370 1.323 . S
C1374 C1373 1.433 . S
C1374 H1383 0.933 . S
C1375 Dy1345 2.738 . S
C1375 O1355 1.255 . S
C1375 O1356 1.249 . S
C1375 C1369 1.516 . S
H1376 C1362 0.930 . S
H1377 C1363 0.931 . S
H1378 C1364 0.931 . S
H1379 C1365 0.933 . S
H1380 C1371 0.930 . S
H1381 C1372 0.931 . S
H1382 C1373 0.931 . S
H1383 C1374 0.933 . S
Dy1384 O1387 2.307 . S
Dy1384 O1389 2.395 . S
Dy1384 O1390 2.379 . S
Dy1384 O1392 2.339 . S
Dy1384 O1394 2.298 . S
Dy1384 O1398 2.275 . S
Dy1384 C1406 2.738 . S
Dy1385 O1388 2.298 . S
Dy1385 O1391 2.275 . S
Dy1385 O1393 2.307 . S
Dy1385 O1395 2.395 . S
Dy1385 O1396 2.379 . S
Dy1385 O1399 2.339 . S
Dy1385 C1415 2.738 . S
C1386 O1398 1.254 . S
C1386 O1399 1.257 . S
O1387 Dy1384 2.307 . S
O1387 C1397 1.266 . S
O1388 Dy1385 2.298 . S
O1388 C1397 1.236 . S
O1389 Dy1384 2.395 . S
O1389 C1406 1.255 . S
O1390 Dy1384 2.379 . S
O1390 C1406 1.249 . S
O1391 Dy1385 2.275 . S
O1391 C1407 1.254 . S
O1392 Dy1384 2.339 . S
O1392 C1407 1.257 . S
O1393 Dy1385 2.307 . S
O1393 C1408 1.266 . S
O1394 Dy1384 2.298 . S
O1394 C1408 1.236 . S
O1395 Dy1385 2.395 . S
O1395 C1415 1.255 . S
O1396 Dy1385 2.379 . S
O1396 C1415 1.249 . S
C1397 O1387 1.266 . S
C1397 O1388 1.236 . S
O1398 Dy1384 2.275 . S
O1398 C1386 1.254 . S
O1399 Dy1385 2.339 . S
O1399 C1386 1.257 . S
C1400 C1403 1.344 . S
C1400 C1404 1.328 . S
C1400 C1406 1.516 . S
C1401 C1402 1.304 . S
C1401 C1405 1.323 . S
C1402 C1401 1.304 . S
C1402 C1403 1.371 . S
C1402 H1416 0.930 . S
C1403 C1400 1.344 . S
C1403 C1402 1.371 . S
C1403 H1417 0.931 . S
C1404 C1400 1.328 . S
C1404 C1405 1.433 . S
C1404 H1418 0.931 . S
C1405 C1401 1.323 . S
C1405 C1404 1.433 . S
C1405 H1419 0.933 . S
C1406 Dy1384 2.738 . S
C1406 O1389 1.255 . S
C1406 O1390 1.249 . S
C1406 C1400 1.516 . S
C1407 O1391 1.254 . S
C1407 O1392 1.257 . S
C1408 O1393 1.266 . S
C1408 O1394 1.236 . S
C1409 C1412 1.344 . S
C1409 C1413 1.328 . S
C1409 C1415 1.516 1_545 S
C1410 C1411 1.304 . S
C1410 C1414 1.323 . S
C1411 C1410 1.304 . S
C1411 C1412 1.371 . S
C1411 H1420 0.930 . S
C1412 C1409 1.344 . S
C1412 C1411 1.371 . S
C1412 H1421 0.931 . S
C1413 C1409 1.328 . S
C1413 C1414 1.433 . S
C1413 H1422 0.931 . S
C1414 C1410 1.323 . S
C1414 C1413 1.433 . S
C1414 H1423 0.933 . S
C1415 Dy1385 2.738 . S
C1415 O1395 1.255 . S
C1415 O1396 1.249 . S
C1415 C1409 1.516 1_565 S
H1416 C1402 0.930 . S
H1417 C1403 0.931 . S
H1418 C1404 0.931 . S
H1419 C1405 0.933 . S
H1420 C1411 0.930 . S
H1421 C1412 0.931 . S
H1422 C1413 0.931 . S
H1423 C1414 0.933 . S
Dy1424 O1427 2.307 . S
Dy1424 O1429 2.395 . S
Dy1424 O1430 2.379 . S
Dy1424 O1432 2.339 . S
Dy1424 O1434 2.298 . S
Dy1424 O1438 2.275 . S
Dy1424 C1446 2.738 . S
Dy1425 O1428 2.298 . S
Dy1425 O1431 2.275 . S
Dy1425 O1433 2.307 . S
Dy1425 O1435 2.395 . S
Dy1425 O1436 2.379 . S
Dy1425 O1439 2.339 . S
Dy1425 C1455 2.738 . S
C1426 O1438 1.254 . S
C1426 O1439 1.257 . S
O1427 Dy1424 2.307 . S
O1427 C1437 1.266 . S
O1428 Dy1425 2.298 . S
O1428 C1437 1.236 . S
O1429 Dy1424 2.395 . S
O1429 C1446 1.255 . S
O1430 Dy1424 2.379 . S
O1430 C1446 1.249 . S
O1431 Dy1425 2.275 . S
O1431 C1447 1.254 . S
O1432 Dy1424 2.339 . S
O1432 C1447 1.257 . S
O1433 Dy1425 2.307 . S
O1433 C1448 1.266 . S
O1434 Dy1424 2.298 . S
O1434 C1448 1.236 . S
O1435 Dy1425 2.395 . S
O1435 C1455 1.255 . S
O1436 Dy1425 2.379 . S
O1436 C1455 1.249 . S
C1437 O1427 1.266 . S
C1437 O1428 1.236 . S
O1438 Dy1424 2.275 . S
O1438 C1426 1.254 . S
O1439 Dy1425 2.339 . S
O1439 C1426 1.257 . S
C1440 C1443 1.344 . S
C1440 C1444 1.328 . S
C1440 C1446 1.516 . S
C1441 C1442 1.304 . S
C1441 C1445 1.323 . S
C1442 C1441 1.304 . S
C1442 C1443 1.371 . S
C1442 H1456 0.930 . S
C1443 C1440 1.344 . S
C1443 C1442 1.371 . S
C1443 H1457 0.931 . S
C1444 C1440 1.328 . S
C1444 C1445 1.433 . S
C1444 H1458 0.931 . S
C1445 C1441 1.323 . S
C1445 C1444 1.433 . S
C1445 H1459 0.933 . S
C1446 Dy1424 2.738 . S
C1446 O1429 1.255 . S
C1446 O1430 1.249 . S
C1446 C1440 1.516 . S
C1447 O1431 1.254 . S
C1447 O1432 1.257 . S
C1448 O1433 1.266 . S
C1448 O1434 1.236 . S
C1449 C1452 1.344 . S
C1449 C1453 1.328 . S
C1449 C1455 1.516 . S
C1450 C1451 1.304 . S
C1450 C1454 1.323 . S
C1451 C1450 1.304 . S
C1451 C1452 1.371 . S
C1451 H1460 0.930 . S
C1452 C1449 1.344 . S
C1452 C1451 1.371 . S
C1452 H1461 0.931 . S
C1453 C1449 1.328 . S
C1453 C1454 1.433 . S
C1453 H1462 0.931 . S
C1454 C1450 1.323 . S
C1454 C1453 1.433 . S
C1454 H1463 0.933 . S
C1455 Dy1425 2.738 . S
C1455 O1435 1.255 . S
C1455 O1436 1.249 . S
C1455 C1449 1.516 . S
H1456 C1442 0.930 . S
H1457 C1443 0.931 . S
H1458 C1444 0.931 . S
H1459 C1445 0.933 . S
H1460 C1451 0.930 . S
H1461 C1452 0.931 . S
H1462 C1453 0.931 . S
H1463 C1454 0.933 . S
Dy1464 O1467 2.307 . S
Dy1464 O1469 2.395 1_455 S
Dy1464 O1470 2.379 1_455 S
Dy1464 O1472 2.339 . S
Dy1464 O1474 2.298 . S
Dy1464 O1478 2.275 . S
Dy1464 C1486 2.738 1_455 S
Dy1465 O1468 2.298 . S
Dy1465 O1471 2.275 . S
Dy1465 O1473 2.307 . S
Dy1465 O1475 2.395 . S
Dy1465 O1476 2.379 1_554 S
Dy1465 O1479 2.339 1_554 S
Dy1465 C1495 2.738 . S
C1466 O1478 1.254 1_556 S
C1466 O1479 1.257 . S
O1467 Dy1464 2.307 . S
O1467 C1477 1.266 . S
O1468 Dy1465 2.298 . S
O1468 C1477 1.236 . S
O1469 Dy1464 2.395 1_655 S
O1469 C1486 1.255 . S
O1470 Dy1464 2.379 1_655 S
O1470 C1486 1.249 . S
O1471 Dy1465 2.275 . S
O1471 C1487 1.254 . S
O1472 Dy1464 2.339 . S
O1472 C1487 1.257 . S
O1473 Dy1465 2.307 . S
O1473 C1488 1.266 . S
O1474 Dy1464 2.298 . S
O1474 C1488 1.236 . S
O1475 Dy1465 2.395 . S
O1475 C1495 1.255 . S
O1476 Dy1465 2.379 1_556 S
O1476 C1495 1.249 1_556 S
C1477 O1467 1.266 . S
C1477 O1468 1.236 . S
O1478 Dy1464 2.275 . S
O1478 C1466 1.254 1_554 S
O1479 Dy1465 2.339 1_556 S
O1479 C1466 1.257 . S
C1480 C1483 1.344 . S
C1480 C1484 1.328 . S
C1480 C1486 1.516 . S
C1481 C1482 1.304 . S
C1481 C1485 1.323 . S
C1482 C1481 1.304 . S
C1482 C1483 1.371 . S
C1482 H1496 0.930 . S
C1483 C1480 1.344 . S
C1483 C1482 1.371 . S
C1483 H1497 0.931 . S
C1484 C1480 1.328 . S
C1484 C1485 1.433 . S
C1484 H1498 0.931 . S
C1485 C1481 1.323 . S
C1485 C1484 1.433 . S
C1485 H1499 0.933 . S
C1486 Dy1464 2.738 1_655 S
C1486 O1469 1.255 . S
C1486 O1470 1.249 . S
C1486 C1480 1.516 . S
C1487 O1471 1.254 . S
C1487 O1472 1.257 . S
C1488 O1473 1.266 . S
C1488 O1474 1.236 . S
C1489 C1492 1.344 . S
C1489 C1493 1.328 1_554 S
C1489 C1495 1.516 . S
C1490 C1491 1.304 1_556 S
C1490 C1494 1.323 . S
C1491 C1490 1.304 1_554 S
C1491 C1492 1.371 . S
C1491 H1500 0.930 . S
C1492 C1489 1.344 . S
C1492 C1491 1.371 . S
C1492 H1501 0.931 . S
C1493 C1489 1.328 1_556 S
C1493 C1494 1.433 . S
C1493 H1502 0.931 . S
C1494 C1490 1.323 . S
C1494 C1493 1.433 . S
C1494 H1503 0.933 . S
C1495 Dy1465 2.738 . S
C1495 O1475 1.255 . S
C1495 O1476 1.249 1_554 S
C1495 C1489 1.516 . S
H1496 C1482 0.930 . S
H1497 C1483 0.931 . S
H1498 C1484 0.931 . S
H1499 C1485 0.933 . S
H1500 C1491 0.930 . S
H1501 C1492 0.931 . S
H1502 C1493 0.931 . S
H1503 C1494 0.933 . S
C255 C877 3.795 1_655 S
C147 C928 3.100 . S
C184 C957 2.325 1_565 S
C1001 C220 2.128 . S
C40 C1041 2.039 . S
C1077 C74 2.433 . S
C1127 C110 3.225 . S
C14 C1157 4.096 . S
C887 C579 3.216 . S
C616 C930 1.154 . S
C967 C687 2.228 . S
C997 C436 1.831 . S
C580 C1037 1.814 . S
C1087 C615 1.673 . S
C1121 C688 1.354 . S
C1167 C435 3.153 . S
C881 C410 3.111 1_554 S
C722 C1207 2.766 . S
C1241 C842 2.647 . S
C1277 C794 0.715 . S
C302 C1161 3.356 . S
C338 C961 2.723 . S
C830 C1327 2.571 . S
C1346 C758 0.441 . S
C888 C158 3.650 . S
C1357 C254 3.071 . S
C218 C968 2.414 . S
C194 C1330 1.837 . S
C1050 C3 2.068 1_655 S
C111 C1248 2.235 . S
C1106 C76 3.205 1_544 S
C1408 C50 3.839 . S
C866 C364 3.233 . S
C1361 C795 1.231 . S
C292 C946 2.429 . S
C723 C1328 1.777 . S
C363 C1048 1.870 . S
C1226 C796 1.920 . S
C291 C1130 1.215 1_545 S
C724 C1386 3.235 . S
C482 C890 2.896 . S
C434 C1186 2.644 . S
C662 C1090 2.134 . S
C614 C1288 0.676 . S
C1410 C698 2.650 . S
C554 C970 2.193 . S
C986 C650 2.666 . S
C927 C506 0.640 . S
C183 C1437 3.782 . S
C1368 C219 3.062 . S
C256 C1477 2.346 . S
C148 C1321 2.127 . S
C122 C1201 2.211 . S
C1237 C2 2.342 . S
C1287 C39 3.109 . S
C1397 C86 4.167 . S
C1447 C651 3.220 . S
C472 C1370 1.060 . S
C1487 C507 2.231 . S
C1317 C544 1.818 . S
C1197 C652 1.797 . S
C471 C1247 1.664 . S
C1281 C508 1.242 . S
C543 C1407 3.176 . S
C1441 C806 3.259 . S
C326 C1047 2.701 . S
C1081 C374 2.549 . S
C1117 C398 0.635 . S
C1401 C770 3.269 . S
C734 C1481 2.688 . S
C1007 C362 2.550 . S
C906 C290 0.403 . S
C230 C1448 3.643 . S
C917 C182 3.135 . S
C146 C1488 2.428 . S
C266 C1010 1.818 . S
C75 C1210 2.056 . S
C1088 C38 2.482 . S
C4 C1266 3.198 . S
C112 C1168 3.851 . S
C1426 C832 3.201 . S
C399 C921 1.317 . S
C1466 C760 2.473 1_455 S
C327 C1008 1.776 . S
C831 C1208 1.895 . S
C1066 C400 2.015 . S
C759 C1290 1.420 . S
C1146 C328 3.201 . S
C1450 C626 2.837 . S
C1026 C542 2.698 1_545 S
C590 C1250 2.079 . S
C1128 C470 0.656 . S
C518 C1170 2.579 . S
C446 C1490 2.198 1_554 S
C1306 C578 2.698 . S
C1367 C686 0.686 . S
