# Generated by pormake.
# Topology nia, (6,6)-cn, num edge types: 1
# Building blocks:
#     Node 0, Type 0, BuildingBlock: KUMBOL_clean_sbu_0, # of connection points: 6
#     Node 1, Type 0, BuildingBlock: KUMBOL_clean_sbu_0, # of connection points: 6
#     Node 2, Type 1, BuildingBlock: MIDCAF_clean_sbu_0, # of connection points: 6
#     Node 3, Type 1, BuildingBlock: MIDCAF_clean_sbu_0, # of connection points: 6
#     Edge 4, Type (0, 1), BuildingBlock: AJUNOK_clean_linker_0, # of connection points: 2
#     Edge 5, Type (0, 1), BuildingBlock: AJUNOK_clean_linker_0, # of connection points: 2
#     Edge 6, Type (0, 1), BuildingBlock: AJUNOK_clean_linker_0, # of connection points: 2
#     Edge 7, Type (0, 1), BuildingBlock: AJUNOK_clean_linker_0, # of connection points: 2
#     Edge 8, Type (0, 1), BuildingBlock: AJUNOK_clean_linker_0, # of connection points: 2
#     Edge 9, Type (0, 1), BuildingBlock: AJUNOK_clean_linker_0, # of connection points: 2
#     Edge 10, Type (0, 1), BuildingBlock: AJUNOK_clean_linker_0, # of connection points: 2
#     Edge 11, Type (0, 1), BuildingBlock: AJUNOK_clean_linker_0, # of connection points: 2
#     Edge 12, Type (0, 1), BuildingBlock: AJUNOK_clean_linker_0, # of connection points: 2
#     Edge 13, Type (0, 1), BuildingBlock: AJUNOK_clean_linker_0, # of connection points: 2
#     Edge 14, Type (0, 1), BuildingBlock: AJUNOK_clean_linker_0, # of connection points: 2
#     Edge 15, Type (0, 1), BuildingBlock: AJUNOK_clean_linker_0, # of connection points: 2
# Relax obj value: 0.175
# Max RMSD: 0.298
# Mean RMSD: 0.209
data_MOF--net-nia--node1-KUMBOL_clean_sbu_0--node2-MIDCAF_clean_sbu_0--edge1-AJUNOK_clean_linker_0
_symmetry_space_group_name_H-M    P1
_symmetry_Int_Tables_number       1
_symmetry_cell_setting            triclinic
loop_
_symmetry_equiv_pos_as_xyz
'x, y, z'
_cell_length_a     21.940657
_cell_length_b     22.007078
_cell_length_c     24.379406
_cell_angle_alpha  90.543803
_cell_angle_beta   89.258712
_cell_angle_gamma 141.11746
loop_
_atom_site_label
_atom_site_type_symbol
_atom_site_fract_x
_atom_site_fract_y
_atom_site_fract_z
_atom_type_partial_charge
Gd0 Gd 0.99478 0.04621 0.97046 0.0
Gd1 Gd 0.02713 0.96454 0.08506 0.0
C2 C 0.76837 0.81573 0.19252 0.0
C3 C 0.82904 0.92965 0.26502 0.0
C4 C 0.94411 0.95843 0.19806 0.0
C5 C 0.86173 0.87878 0.16903 0.0
C6 C 0.92059 0.97664 0.2578 0.0
C7 C 0.75265 0.84695 0.2343 0.0
C8 C 0.69266 0.71841 0.17619 0.0
C9 C 0.71115 0.68536 0.13907 0.0
N10 N 0.87405 0.84752 0.12738 0.0
C11 C 0.80272 0.75163 0.11432 0.0
H12 H 0.816 0.72631 0.08444 0.0
C13 C 0.12362 0.03244 0.21647 0.0
N14 N 0.03501 0.9889 0.18219 0.0
C15 C 0.13939 0.06518 0.28417 0.0
C16 C 0.99463 0.02687 0.31212 0.0
H17 H 0.17765 0.04606 0.1968 0.0
H18 H 0.67927 0.80142 0.24681 0.0
H19 H 0.21472 0.27648 1.00628 0.0
H20 H 0.62067 0.66707 0.19408 0.0
H21 H 0.65393 0.60957 0.12798 0.0
H22 H 0.81505 0.94834 0.29938 0.0
H23 H 0.84469 0.83836 0.88666 0.0
H24 H 0.41729 0.4243 0.87506 0.0
H25 H 0.3728 0.41627 0.96932 0.0
H26 H 0.25411 0.23551 0.69266 0.0
H27 H 0.19998 0.09374 0.30707 0.0
H28 H 0.97432 0.0335 0.35061 0.0
H29 H 0.38455 0.36398 0.77326 0.0
H30 H 0.83746 0.77747 0.78639 0.0
N31 N 0.14591 0.19566 0.93282 0.0
C32 C 0.34218 0.3624 0.88809 0.0
C33 C 0.31636 0.35721 0.94179 0.0
C34 C 0.27176 0.29128 0.85096 0.0
C35 C 0.15301 0.1999 0.87751 0.0
C36 C 0.2225 0.27546 0.96321 0.0
N37 N 0.96781 0.00493 0.87497 0.0
C38 C 0.04568 0.10482 0.8424 0.0
C39 C 0.88487 0.85299 0.79177 0.0
C40 C 0.95323 0.93196 0.73616 0.0
C41 C 0.89505 0.89433 0.85648 0.0
C42 C 0.05711 0.09927 0.76173 0.0
H43 H 0.95987 0.90648 0.70177 0.0
O44 O 0.88411 0.02748 0.99084 0.0
O45 O 0.92751 0.95847 0.04772 0.0
O46 O 0.9383 0.85371 1.01655 0.0
O47 O 0.00081 0.95261 0.94059 0.0
O48 O 0.84201 0.89369 0.97745 0.0
O49 O 0.99118 0.13204 0.93017 0.0
O50 O 0.08675 0.92677 0.05034 0.0
O51 O 0.08994 0.05104 1.00863 0.0
O52 O 0.06227 0.14734 0.04358 0.0
O53 O 0.09647 0.10529 0.11436 0.0
O54 O 0.18743 0.10885 0.06943 0.0
O55 O 0.04012 0.89234 0.13392 0.0
C56 C 0.84093 0.88439 0.02992 0.0
C57 C 0.2244 0.22556 0.73147 0.0
C58 C 0.30796 0.30483 0.78349 0.0
C59 C 0.90879 0.08344 0.95232 0.0
C60 C 0.83057 0.04013 0.91489 0.0
C61 C 0.7675 0.94711 0.89332 0.0
C62 C 0.817 0.09071 0.90154 0.0
C63 C 0.74246 0.05002 0.86553 0.0
C64 C 0.6933 0.9061 0.85798 0.0
C65 C 0.68063 0.95701 0.84421 0.0
C66 C 0.95799 0.8716 0.96337 0.0
C67 C 0.17967 0.11983 1.01888 0.0
C68 C 0.08367 0.89471 0.0959 0.0
C69 C 0.1737 0.9326 0.11147 0.0
C70 C 0.26042 0.03244 0.11876 0.0
C71 C 0.17407 0.86931 0.11836 0.0
C72 C 0.26083 0.90617 0.1317 0.0
C73 C 0.34566 0.0688 0.13298 0.0
C74 C 0.34605 0.00632 0.13947 0.0
C75 C 0.09632 0.16035 0.09277 0.0
H76 H 0.77568 0.90609 0.90331 0.0
H77 H 0.86309 0.16054 0.92035 0.0
H78 H 0.64534 0.83454 0.8413 0.0
H79 H 0.62197 0.92325 0.81721 0.0
H80 H 0.26273 0.0828 0.11406 0.0
H81 H 0.10767 0.79211 0.11274 0.0
H82 H 0.41172 0.14581 0.13911 0.0
H83 H 0.41297 0.03623 0.15125 0.0
Gd84 Gd 0.0701 0.00917 0.47153 0.0
Gd85 Gd 0.95288 0.0138 0.57793 0.0
C86 C 0.13015 0.24191 0.72162 0.0
C87 C 0.17024 0.13966 0.80574 0.0
C88 C 0.0856 0.07685 0.68147 0.0
C89 C 0.09612 0.16351 0.67278 0.0
C90 C 0.12473 0.06153 0.75211 0.0
C91 C 0.16334 0.24869 0.78674 0.0
C92 C 0.12855 0.30102 0.70702 0.0
C93 C 0.09433 0.29075 0.65597 0.0
N94 N 0.05505 0.15633 0.62797 0.0
C95 C 0.05581 0.21841 0.61908 0.0
H96 H 0.02223 0.21078 0.58305 0.0
C97 C 0.90782 -0.00227 0.71752 0.0
N98 N 0.98804 0.03754 0.674 0.0
C99 C 0.90728 0.97534 0.78571 0.0
C100 C 0.0464 0.00704 0.80757 0.0
H101 H 0.84849 0.97909 0.70408 0.0
H102 H 0.18331 0.30362 0.81208 0.0
H103 H 0.8792 0.76589 0.50066 0.0
H104 H 0.15215 0.35413 0.7356 0.0
H105 H 0.09225 0.33685 0.64561 0.0
H106 H 0.20721 0.14378 0.83847 0.0
H107 H 0.19856 0.201 0.38778 0.0
H108 H 0.77809 0.60985 0.35314 0.0
H109 H 0.77816 0.61505 0.45367 0.0
H110 H 0.92034 0.82325 0.20995 0.0
H111 H 0.84666 0.94545 0.81027 0.0
H112 H 0.05475 0.982 0.84241 0.0
H113 H 0.83526 0.69057 0.26614 0.0
H114 H 0.20522 0.26023 0.28989 0.0
N115 N 0.95026 0.85486 0.42848 0.0
C116 C 0.82697 0.6791 0.37357 0.0
C117 C 0.82679 0.68153 0.43034 0.0
C118 C 0.88644 0.76462 0.34366 0.0
C119 C 0.95034 0.8534 0.37248 0.0
C120 C 0.88711 0.76953 0.45709 0.0
N121 N 0.08149 0.03735 0.37578 0.0
C122 C 0.00941 0.93891 0.34383 0.0
C123 C 0.15619 0.18435 0.29573 0.0
C124 C 0.09019 0.10688 0.24221 0.0
C125 C 0.1493 0.14488 0.35755 0.0
C126 C 0.98642 0.9306 0.27569 0.0
H127 H 0.10013 0.13616 0.20375 0.0
O128 O 0.22193 0.11102 0.4541 0.0
O129 O 0.08032 0.05102 0.5576 0.0
O130 O 0.0469 0.14496 0.52261 0.0
O131 O 0.04707 0.08793 0.4427 0.0
O132 O 0.19793 0.15757 0.506 0.0
O133 O 0.12325 0.95763 0.46145 0.0
O134 O 0.80459 0.90574 0.60398 0.0
O135 O 0.94817 0.9746 0.49186 0.0
O136 O 0.0128 0.90585 0.54294 0.0
O137 O 0.93366 0.90544 0.60914 0.0
O138 O 0.82484 0.86885 0.5356 0.0
O139 O 0.87274 0.03794 0.56899 0.0
C140 C 0.16864 0.13642 0.55639 0.0
C141 C 0.9288 0.83812 0.25297 0.0
C142 C 0.88088 0.75946 0.28627 0.0
C143 C 0.21113 0.04395 0.44892 0.0
C144 C 0.26256 0.05371 0.40233 0.0
C145 C 0.33219 0.1397 0.3715 0.0
C146 C 0.25128 0.98215 0.39282 0.0
C147 C 0.31368 -0.00118 0.35609 0.0
C148 C 0.38942 0.15403 0.33244 0.0
C149 C 0.38165 0.08526 0.32537 0.0
C150 C 0.06631 0.15355 0.46996 0.0
C151 C 0.86062 0.89193 0.48676 0.0
C152 C 0.79471 0.95521 0.59207 0.0
C153 C 0.73568 0.94582 0.63188 0.0
C154 C 0.6667 0.86161 0.66466 0.0
C155 C 0.74019 0.01341 0.63509 0.0
C156 C 0.67551 -0.0047 0.67015 0.0
C157 C 0.60484 0.84537 0.7 0.0
C158 C 0.6084 0.91115 0.70231 0.0
C159 C 0.96051 0.87285 0.5891 0.0
H160 H 0.34349 0.19672 0.37789 0.0
H161 H 0.19562 0.91485 0.41541 0.0
H162 H 0.44278 0.22057 0.30897 0.0
H163 H 0.43171 0.10194 0.29716 0.0
H164 H 0.6597 0.80717 0.66279 0.0
H165 H 0.79077 0.07742 0.60936 0.0
H166 H 0.55255 0.7805 0.72492 0.0
H167 H 0.55756 0.89578 0.72882 0.0
Zn168 Zn 0.2773 0.57203 0.10105 0.0
Zn169 Zn 0.41678 0.70875 0.36819 0.0
Zn170 Zn 0.40165 0.6726 0.26873 0.0
C171 C 0.59057 0.80558 0.34646 0.0
C172 C 0.3004 0.51742 0.36458 0.0
O173 O 0.35826 0.72997 0.24323 0.0
O174 O 0.30871 0.64482 0.17041 0.0
C175 C 0.4829 0.69452 0.13272 0.0
O176 O 0.53983 0.74737 0.30573 0.0
O177 O 0.55822 0.82304 0.37614 0.0
O178 O 0.35492 0.58728 0.39774 0.0
O179 O 0.30082 0.53191 0.31335 0.0
O180 O 0.41641 0.64869 0.09648 0.0
O181 O 0.46994 0.69705 0.1848 0.0
O182 O 0.28793 0.51619 0.25791 0.0
O183 O 0.27105 0.55202 0.18236 0.0
C184 C 0.25394 0.49126 0.20946 0.0
O185 O 0.37295 0.75153 0.29638 0.0
O186 O 0.3521 0.73402 0.38611 0.0
C187 C 0.3191 0.70272 0.19592 0.0
C188 C 0.35263 0.76401 0.34229 0.0
Zn189 Zn 0.67901 0.36954 0.86756 0.0
Zn190 Zn 0.65036 0.34998 0.67475 0.0
Zn191 Zn 0.6232 0.34172 0.77248 0.0
C192 C 0.79166 0.53374 0.69658 0.0
C193 C 0.47574 0.28092 0.69265 0.0
O194 O 0.65427 0.2684 0.79662 0.0
O195 O 0.68676 0.29035 0.88545 0.0
C196 C 0.79441 0.54699 0.84034 0.0
O197 O 0.73426 0.49227 0.73871 0.0
O198 O 0.78275 0.48356 0.66287 0.0
O199 O 0.54428 0.32447 0.65903 0.0
O200 O 0.48199 0.26666 0.74238 0.0
O201 O 0.80034 0.50867 0.87382 0.0
O202 O 0.73239 0.496 0.80097 0.0
O203 O 0.49035 0.27177 0.81749 0.0
O204 O 0.5647 0.32427 0.89719 0.0
C205 C 0.49146 0.28274 0.86984 0.0
O206 O 0.64584 0.26167 0.74054 0.0
O207 O 0.62824 0.24951 0.65046 0.0
C208 C 0.67409 0.25353 0.84047 0.0
C209 C 0.64064 0.22948 0.69363 0.0
C210 C 0.20346 0.76757 0.17941 0.0
C211 C 0.26398 0.84178 0.13989 0.0
C212 C 0.21819 0.71846 0.19527 0.0
C213 C 0.29331 0.74159 0.1718 0.0
H214 H 0.14843 0.75155 0.20061 0.0
H215 H 0.17387 0.66564 0.22808 0.0
S216 S 0.46341 0.92088 0.06193 0.0
N217 N 0.39566 0.92903 0.07396 0.0
N218 N 0.42283 0.83652 0.10399 0.0
C219 C 0.34983 0.81066 0.12978 0.0
C220 C 0.33539 0.86101 0.11383 0.0
C221 C 0.22931 0.10989 0.62775 0.0
C222 C 0.24178 0.1733 0.59704 0.0
C223 C 0.30132 0.14527 0.66406 0.0
C224 C 0.39002 0.24518 0.66933 0.0
H225 H 0.16372 0.03235 0.62348 0.0
H226 H 0.28984 0.09404 0.68549 0.0
S227 S 0.4639 0.44063 0.59309 0.0
N228 N 0.35278 0.34019 0.57152 0.0
N229 N 0.48877 0.40639 0.63787 0.0
C230 C 0.40474 0.30877 0.63709 0.0
C231 C 0.33129 0.27298 0.60084 0.0
C232 C 0.2343 0.33763 0.11605 0.0
C233 C 0.13812 0.24376 0.12509 0.0
C234 C 0.27192 0.41776 0.14391 0.0
C235 C 0.21533 0.40626 0.18256 0.0
H236 H 0.2811 0.34965 0.08756 0.0
H237 H 0.34592 0.48888 0.13547 0.0
S238 S 0.96553 0.17547 0.22685 0.0
N239 N 0.99082 0.14403 0.17877 0.0
N240 N 0.06263 0.29434 0.23178 0.0
C241 C 0.12126 0.31294 0.19372 0.0
C242 C 0.08229 0.23178 0.1647 0.0
C243 C 0.74505 0.15082 0.69629 0.0
C244 C 0.6709 0.05884 0.67175 0.0
C245 C 0.73432 0.20556 0.70437 0.0
C246 C 0.64877 0.16918 0.68899 0.0
H247 H 0.8106 0.17963 0.71016 0.0
H248 H 0.79367 0.27725 0.72192 0.0
S249 S 0.43643 0.93502 0.62038 0.0
N250 N 0.51148 0.9359 0.63003 0.0
N251 N 0.49144 0.03841 0.64558 0.0
C252 C 0.57558 0.07858 0.66325 0.0
C253 C 0.58645 0.02327 0.65482 0.0
C254 C 0.66273 0.73945 0.04945 0.0
C255 C 0.75231 0.83725 0.05993 0.0
C256 C 0.57679 0.69281 0.07541 0.0
C257 C 0.57648 0.7429 0.11166 0.0
H258 H 0.65944 0.6981 0.02182 0.0
H259 H 0.50975 0.61695 0.06669 0.0
S260 S 0.78263 0.00551 0.13734 0.0
N261 N 0.83045 0.98672 0.10031 0.0
N262 N 0.66751 0.89874 0.1469 0.0
C263 C 0.66329 0.84204 0.11879 0.0
C264 C 0.75137 0.88956 0.09307 0.0
C265 C 0.84689 0.73695 0.65663 0.0
C266 C 0.92714 0.79309 0.62049 0.0
C267 C 0.81041 0.65936 0.6861 0.0
C268 C 0.84983 0.63169 0.67898 0.0
H269 H 0.80981 0.75134 0.66138 0.0
H270 H 0.74623 0.61645 0.71145 0.0
S271 S 0.06205 0.75516 0.59132 0.0
N272 N 0.04813 0.81806 0.58189 0.0
N273 N 0.97573 0.6681 0.63502 0.0
C274 C 0.93129 0.68795 0.64408 0.0
C275 C 0.97027 0.76897 0.61503 0.0
C276 C 0.33732 0.91925 0.30244 0.0
C277 C 0.31416 0.93106 0.35244 0.0
C278 C 0.34967 0.86555 0.29937 0.0
C279 C 0.33404 0.81641 0.34524 0.0
H280 H 0.34847 0.95369 0.26531 0.0
H281 H 0.37461 0.86527 0.26102 0.0
S282 S 0.27467 0.82478 0.4867 0.0
N283 N 0.28266 0.89337 0.45011 0.0
N284 N 0.29411 0.7836 0.44288 0.0
C285 C 0.30832 0.82537 0.39531 0.0
C286 C 0.30046 0.88394 0.39912 0.0
C287 C 0.23886 0.11612 0.93075 0.0
C288 C 0.25805 0.16611 0.97797 0.0
C289 C 0.3132 0.15498 0.89401 0.0
C290 C 0.41001 0.24714 0.90249 0.0
H291 H 0.16599 0.04546 0.92258 0.0
H292 H 0.29475 0.11171 0.85945 0.0
S293 S 0.50067 0.40745 0.02174 0.0
N294 N 0.38266 0.31033 0.03314 0.0
N295 N 0.52139 0.38752 0.96306 0.0
C296 C 0.43029 0.29816 0.94997 0.0
C297 C 0.35501 0.25667 0.98805 0.0
C298 C 0.22334 0.32361 0.44873 0.0
C299 C 0.12234 0.24423 0.44216 0.0
C300 C 0.28069 0.41043 0.42103 0.0
C301 C 0.23869 0.42087 0.38627 0.0
H302 H 0.25837 0.31823 0.47508 0.0
H303 H 0.35848 0.47046 0.42747 0.0
S304 S 0.97586 0.2386 0.36245 0.0
N305 N 0.98149 0.1826 0.40204 0.0
N306 N 0.08939 0.3481 0.35133 0.0
C307 C 0.13742 0.34263 0.38032 0.0
C308 C 0.07902 0.25356 0.40815 0.0
C309 C 0.63059 0.05172 0.85236 0.0
C310 C 0.72588 0.10211 0.85246 0.0
C311 C 0.61345 0.10057 0.84517 0.0
C312 C 0.691 0.20117 0.83825 0.0
H313 H 0.56887 0.97457 0.86017 0.0
H314 H 0.53959 0.06012 0.84738 0.0
S315 S 0.95227 0.36582 0.8292 0.0
N316 N 0.89772 0.25757 0.8388 0.0
N317 N 0.86501 0.34955 0.82903 0.0
C318 C 0.78593 0.25218 0.83664 0.0
C319 C 0.80352 0.20253 0.84264 0.0
C320 C 0.81107 0.94232 0.43143 0.0
C321 C 0.8025 0.87307 0.44165 0.0
C322 C 0.74633 0.92226 0.39706 0.0
C323 C 0.67156 0.83286 0.36982 0.0
H324 H 0.86412 0.01036 0.45329 0.0
H325 H 0.75261 0.97601 0.3933 0.0
S326 S 0.61481 0.62504 0.38393 0.0
N327 N 0.70994 0.70956 0.4237 0.0
N328 N 0.59207 0.67382 0.3558 0.0
C329 C 0.66403 0.76396 0.37797 0.0
C330 C 0.7283 0.78343 0.41475 0.0
C331 C 0.81805 0.70333 0.92868 0.0
C332 C 0.91828 0.79276 0.92716 0.0
C333 C 0.77683 0.62697 0.89458 0.0
C334 C 0.83467 0.63648 0.85877 0.0
H335 H 0.77121 0.6923 0.95661 0.0
H336 H 0.69991 0.55779 0.89885 0.0
S337 S 0.10053 0.85442 0.83959 0.0
N338 N 0.07408 0.88647 0.88617 0.0
N339 N 0.99628 0.7411 0.82348 0.0
C340 C 0.93443 0.72555 0.85609 0.0
C341 C 0.97639 0.80423 0.89005 0.0
loop_
_geom_bond_atom_site_label_1
_geom_bond_atom_site_label_2
_geom_bond_distance
_geom_bond_site_symmetry_2
_ccdc_geom_bond_type
Gd0 N31 2.661 1_655 S
Gd0 N37 2.601 . S
Gd0 O44 2.545 1_545 S
Gd0 O45 2.606 1_546 S
Gd0 O47 2.429 1_545 S
Gd0 O48 2.545 1_545 S
Gd0 O49 2.412 . S
Gd0 O51 2.362 1_655 S
Gd0 O52 2.324 1_656 S
Gd0 C59 2.828 . S
Gd1 N10 2.661 1_455 S
Gd1 N14 2.601 . S
Gd1 O45 2.362 1_455 S
Gd1 O46 2.324 1_454 S
Gd1 O50 2.545 1_565 S
Gd1 O51 2.606 1_564 S
Gd1 O53 2.429 1_565 S
Gd1 O54 2.545 1_565 S
Gd1 O55 2.412 . S
Gd1 C68 2.828 . S
C2 C5 1.417 . S
C2 C7 1.431 . S
C2 C8 1.412 . S
C3 C6 1.437 . S
C3 C7 1.317 . S
C3 H22 0.929 . S
C4 C5 1.426 . S
C4 C6 1.413 . S
C4 N14 1.359 1_655 S
C5 C2 1.417 . S
C5 C4 1.426 . S
C5 N10 1.350 . S
C6 C3 1.437 . S
C6 C4 1.413 . S
C6 C16 1.391 1_655 S
C7 C2 1.431 . S
C7 C3 1.317 . S
C7 H18 0.930 . S
C8 C2 1.412 . S
C8 C9 1.355 . S
C8 H20 0.930 . S
C9 C8 1.355 . S
C9 C11 1.402 . S
C9 H21 0.930 . S
N10 Gd1 2.661 1_655 S
N10 C5 1.350 . S
N10 C11 1.307 . S
C11 C9 1.402 . S
C11 N10 1.307 . S
C11 H12 0.930 . S
H12 C11 0.930 . S
C13 N14 1.334 1_545 S
C13 C15 1.394 . S
C13 H17 0.930 . S
N14 Gd1 2.601 . S
N14 C4 1.359 1_455 S
N14 C13 1.334 1_565 S
C15 C13 1.394 . S
C15 C16 1.359 1_545 S
C15 H27 0.930 . S
C16 C6 1.391 1_455 S
C16 C15 1.359 1_565 S
C16 H28 0.929 . S
H17 C13 0.930 . S
H18 C7 0.930 . S
H19 C36 0.930 . S
H20 C8 0.930 . S
H21 C9 0.930 . S
H22 C3 0.929 . S
H23 C41 0.930 . S
H24 C32 0.930 . S
H25 C33 0.930 . S
H26 C57 0.929 . S
H27 C15 0.930 . S
H28 C16 0.929 . S
H29 C58 0.930 . S
H30 C39 0.930 . S
N31 Gd0 2.661 1_455 S
N31 C35 1.350 . S
N31 C36 1.307 . S
C32 H24 0.930 . S
C32 C33 1.355 . S
C32 C34 1.412 . S
C33 H25 0.930 . S
C33 C32 1.355 . S
C33 C36 1.402 . S
C34 C32 1.412 . S
C34 C35 1.417 . S
C34 C58 1.431 . S
C35 N31 1.350 . S
C35 C34 1.417 . S
C35 C38 1.426 . S
C36 H19 0.930 . S
C36 N31 1.307 . S
C36 C33 1.402 . S
N37 Gd0 2.601 . S
N37 C38 1.359 1_655 S
N37 C41 1.334 1_545 S
C38 C35 1.426 . S
C38 N37 1.359 1_455 S
C38 C42 1.413 . S
C39 H30 0.930 . S
C39 C40 1.359 1_565 S
C39 C41 1.394 . S
C40 C39 1.359 1_545 S
C40 C42 1.391 1_655 S
C40 H43 0.929 . S
C41 H23 0.930 . S
C41 N37 1.334 1_565 S
C41 C39 1.394 . S
C42 C38 1.413 . S
C42 C40 1.391 1_455 S
C42 C57 1.437 . S
H43 C40 0.929 . S
O44 Gd0 2.545 1_565 S
O44 C59 1.258 1_565 S
O45 Gd0 2.606 1_564 S
O45 Gd1 2.362 1_655 S
O45 C56 1.284 . S
O46 Gd1 2.324 1_656 S
O46 C66 1.254 . S
O47 Gd0 2.429 1_565 S
O47 C66 1.268 . S
O48 Gd0 2.545 1_565 S
O48 C56 1.250 1_556 S
O49 Gd0 2.412 . S
O49 C59 1.252 . S
O50 Gd1 2.545 1_545 S
O50 C68 1.258 1_545 S
O51 Gd0 2.362 1_455 S
O51 Gd1 2.606 1_546 S
O51 C67 1.284 . S
O52 Gd0 2.324 1_454 S
O52 C75 1.254 . S
O53 Gd1 2.429 1_545 S
O53 C75 1.268 . S
O54 Gd1 2.545 1_545 S
O54 C67 1.250 1_554 S
O55 Gd1 2.412 . S
O55 C68 1.252 . S
C56 O45 1.284 . S
C56 O48 1.250 1_554 S
C57 H26 0.929 . S
C57 C42 1.437 . S
C57 C58 1.317 . S
C58 H29 0.930 . S
C58 C34 1.431 . S
C58 C57 1.317 . S
C59 Gd0 2.828 . S
C59 O44 1.258 1_545 S
C59 O49 1.252 . S
C59 C60 1.497 . S
C60 C59 1.497 . S
C60 C61 1.395 . S
C60 C62 1.380 . S
C61 C60 1.395 . S
C61 C64 1.398 . S
C61 H76 0.930 . S
C62 C60 1.380 . S
C62 C63 1.391 . S
C62 H77 0.930 . S
C63 C62 1.391 . S
C63 C65 1.387 . S
C64 C61 1.398 . S
C64 C65 1.380 . S
C64 H78 0.930 . S
C65 C63 1.387 . S
C65 C64 1.380 . S
C65 H79 0.930 . S
C66 O46 1.254 . S
C66 O47 1.268 . S
C67 O51 1.284 . S
C67 O54 1.250 1_556 S
C68 Gd1 2.828 . S
C68 O50 1.258 1_565 S
C68 O55 1.252 . S
C68 C69 1.497 . S
C69 C68 1.497 . S
C69 C70 1.395 . S
C69 C71 1.380 . S
C70 C69 1.395 . S
C70 C73 1.398 . S
C70 H80 0.930 . S
C71 C69 1.380 . S
C71 C72 1.391 . S
C71 H81 0.930 . S
C72 C71 1.391 . S
C72 C74 1.387 . S
C73 C70 1.398 . S
C73 C74 1.380 . S
C73 H82 0.930 . S
C74 C72 1.387 . S
C74 C73 1.380 . S
C74 H83 0.930 . S
C75 O52 1.254 . S
C75 O53 1.268 . S
H76 C61 0.930 . S
H77 C62 0.930 . S
H78 C64 0.930 . S
H79 C65 0.930 . S
H80 C70 0.930 . S
H81 C71 0.930 . S
H82 C73 0.930 . S
H83 C74 0.930 . S
Gd84 N115 2.661 1_455 S
Gd84 N121 2.601 1_565 S
Gd84 O128 2.545 1_565 S
Gd84 O129 2.606 1_565 S
Gd84 O131 2.429 1_565 S
Gd84 O132 2.545 1_565 S
Gd84 O133 2.412 . S
Gd84 O135 2.362 1_455 S
Gd84 O136 2.324 1_455 S
Gd84 C143 2.828 . S
Gd85 N94 2.661 1_655 S
Gd85 N98 2.601 1_655 S
Gd85 O129 2.362 1_655 S
Gd85 O130 2.324 1_655 S
Gd85 O134 2.545 . S
Gd85 O135 2.606 1_545 S
Gd85 O137 2.429 1_545 S
Gd85 O138 2.545 1_545 S
Gd85 O139 2.412 . S
Gd85 C152 2.828 . S
C86 C89 1.417 . S
C86 C91 1.431 . S
C86 C92 1.412 . S
C87 C90 1.437 . S
C87 C91 1.317 . S
C87 H106 0.929 . S
C88 C89 1.426 . S
C88 C90 1.413 . S
C88 N98 1.359 . S
C89 C86 1.417 . S
C89 C88 1.426 . S
C89 N94 1.350 . S
C90 C87 1.437 . S
C90 C88 1.413 . S
C90 C100 1.391 . S
C91 C86 1.431 . S
C91 C87 1.317 . S
C91 H102 0.930 . S
C92 C86 1.412 . S
C92 C93 1.355 . S
C92 H104 0.930 . S
C93 C92 1.355 . S
C93 C95 1.402 . S
C93 H105 0.930 . S
N94 Gd85 2.661 1_455 S
N94 C89 1.350 . S
N94 C95 1.307 . S
C95 C93 1.402 . S
C95 N94 1.307 . S
C95 H96 0.930 . S
H96 C95 0.930 . S
C97 N98 1.334 1_665 S
C97 C99 1.394 . S
C97 H101 0.930 . S
N98 Gd85 2.601 1_455 S
N98 C88 1.359 . S
N98 C97 1.334 1_445 S
C99 C97 1.394 . S
C99 C100 1.359 1_665 S
C99 H111 0.930 . S
C100 C90 1.391 . S
C100 C99 1.359 1_445 S
C100 H112 0.929 . S
H101 C97 0.930 . S
H102 C91 0.930 . S
H103 C120 0.930 . S
H104 C92 0.930 . S
H105 C93 0.930 . S
H106 C87 0.929 . S
H107 C125 0.930 . S
H108 C116 0.930 . S
H109 C117 0.930 . S
H110 C141 0.929 . S
H111 C99 0.930 . S
H112 C100 0.929 . S
H113 C142 0.930 . S
H114 C123 0.930 . S
N115 Gd84 2.661 1_655 S
N115 C119 1.350 . S
N115 C120 1.307 . S
C116 H108 0.930 . S
C116 C117 1.355 . S
C116 C118 1.412 . S
C117 H109 0.930 . S
C117 C116 1.355 . S
C117 C120 1.402 . S
C118 C116 1.412 . S
C118 C119 1.417 . S
C118 C142 1.431 . S
C119 N115 1.350 . S
C119 C118 1.417 . S
C119 C122 1.426 . S
C120 H103 0.930 . S
C120 N115 1.307 . S
C120 C117 1.402 . S
N121 Gd84 2.601 1_545 S
N121 C122 1.359 1_445 S
N121 C125 1.334 . S
C122 C119 1.426 . S
C122 N121 1.359 1_665 S
C122 C126 1.413 . S
C123 H114 0.930 . S
C123 C124 1.359 . S
C123 C125 1.394 . S
C124 C123 1.359 . S
C124 C126 1.391 1_445 S
C124 H127 0.929 . S
C125 H107 0.930 . S
C125 N121 1.334 . S
C125 C123 1.394 . S
C126 C122 1.413 . S
C126 C124 1.391 1_665 S
C126 C141 1.437 . S
H127 C124 0.929 . S
O128 Gd84 2.545 1_545 S
O128 C143 1.258 1_545 S
O129 Gd84 2.606 1_545 S
O129 Gd85 2.362 1_455 S
O129 C140 1.284 . S
O130 Gd85 2.324 1_455 S
O130 C150 1.254 . S
O131 Gd84 2.429 1_545 S
O131 C150 1.268 . S
O132 Gd84 2.545 1_545 S
O132 C140 1.250 . S
O133 Gd84 2.412 . S
O133 C143 1.252 . S
O134 Gd85 2.545 . S
O134 C152 1.258 . S
O135 Gd84 2.362 1_655 S
O135 Gd85 2.606 1_565 S
O135 C151 1.284 . S
O136 Gd84 2.324 1_655 S
O136 C159 1.254 . S
O137 Gd85 2.429 1_565 S
O137 C159 1.268 . S
O138 Gd85 2.545 1_565 S
O138 C151 1.250 . S
O139 Gd85 2.412 . S
O139 C152 1.252 . S
C140 O129 1.284 . S
C140 O132 1.250 . S
C141 H110 0.929 . S
C141 C126 1.437 . S
C141 C142 1.317 . S
C142 H113 0.930 . S
C142 C118 1.431 . S
C142 C141 1.317 . S
C143 Gd84 2.828 . S
C143 O128 1.258 1_565 S
C143 O133 1.252 . S
C143 C144 1.497 . S
C144 C143 1.497 . S
C144 C145 1.395 . S
C144 C146 1.380 . S
C145 C144 1.395 . S
C145 C148 1.398 . S
C145 H160 0.930 1_565 S
C146 C144 1.380 . S
C146 C147 1.391 . S
C146 H161 0.930 . S
C147 C146 1.391 . S
C147 C149 1.387 . S
C148 C145 1.398 . S
C148 C149 1.380 . S
C148 H162 0.930 . S
C149 C147 1.387 . S
C149 C148 1.380 . S
C149 H163 0.930 . S
C150 O130 1.254 . S
C150 O131 1.268 . S
C151 O135 1.284 . S
C151 O138 1.250 . S
C152 Gd85 2.828 . S
C152 O134 1.258 . S
C152 O139 1.252 . S
C152 C153 1.497 . S
C153 C152 1.497 . S
C153 C154 1.395 . S
C153 C155 1.380 . S
C154 C153 1.395 . S
C154 C157 1.398 . S
C154 H164 0.930 . S
C155 C153 1.380 . S
C155 C156 1.391 . S
C155 H165 0.930 . S
C156 C155 1.391 . S
C156 C158 1.387 . S
C157 C154 1.398 . S
C157 C158 1.380 . S
C157 H166 0.930 . S
C158 C156 1.387 . S
C158 C157 1.380 . S
C158 H167 0.930 . S
C159 O136 1.254 . S
C159 O137 1.268 . S
H160 C145 0.930 1_545 S
H161 C146 0.930 . S
H162 C148 0.930 . S
H163 C149 0.930 . S
H164 C154 0.930 . S
H165 C155 0.930 . S
H166 C157 0.930 . S
H167 C158 0.930 . S
Zn168 O174 1.920 . S
Zn168 O180 1.898 . S
Zn168 O183 1.905 . S
Zn169 O177 1.905 . S
Zn169 O178 1.898 . S
Zn169 O186 1.920 . S
Zn170 O173 2.080 . S
Zn170 O176 2.114 . S
Zn170 O179 2.120 . S
Zn170 O181 2.120 . S
Zn170 O182 2.114 . S
Zn170 O185 2.080 . S
C171 O176 1.166 . S
C171 O177 1.182 . S
C172 O178 1.167 . S
C172 O179 1.299 . S
O173 Zn170 2.080 . S
O173 C187 1.305 . S
O174 Zn168 1.920 . S
O174 C187 1.234 . S
C175 O180 1.167 . S
C175 O181 1.299 . S
O176 Zn170 2.114 . S
O176 C171 1.166 . S
O177 Zn169 1.905 . S
O177 C171 1.182 . S
O178 Zn169 1.898 . S
O178 C172 1.167 . S
O179 Zn170 2.120 . S
O179 C172 1.299 . S
O180 Zn168 1.898 . S
O180 C175 1.167 . S
O181 Zn170 2.120 . S
O181 C175 1.299 . S
O182 Zn170 2.114 . S
O182 C184 1.166 . S
O183 Zn168 1.905 . S
O183 C184 1.182 . S
C184 O182 1.166 . S
C184 O183 1.182 . S
O185 Zn170 2.080 . S
O185 C188 1.305 . S
O186 Zn169 1.920 . S
O186 C188 1.234 . S
C187 O173 1.305 . S
C187 O174 1.234 . S
C188 O185 1.305 . S
C188 O186 1.234 . S
Zn189 O195 1.920 . S
Zn189 O201 1.898 . S
Zn189 O204 1.905 . S
Zn190 O198 1.905 . S
Zn190 O199 1.898 . S
Zn190 O207 1.920 . S
Zn191 O194 2.080 . S
Zn191 O197 2.114 . S
Zn191 O200 2.120 . S
Zn191 O202 2.120 . S
Zn191 O203 2.114 . S
Zn191 O206 2.080 . S
C192 O197 1.166 . S
C192 O198 1.182 . S
C193 O199 1.167 . S
C193 O200 1.299 . S
O194 Zn191 2.080 . S
O194 C208 1.305 . S
O195 Zn189 1.920 . S
O195 C208 1.234 . S
C196 O201 1.167 . S
C196 O202 1.299 . S
O197 Zn191 2.114 . S
O197 C192 1.166 . S
O198 Zn190 1.905 . S
O198 C192 1.182 . S
O199 Zn190 1.898 . S
O199 C193 1.167 . S
O200 Zn191 2.120 . S
O200 C193 1.299 . S
O201 Zn189 1.898 . S
O201 C196 1.167 . S
O202 Zn191 2.120 . S
O202 C196 1.299 . S
O203 Zn191 2.114 . S
O203 C205 1.166 . S
O204 Zn189 1.905 . S
O204 C205 1.182 . S
C205 O203 1.166 . S
C205 O204 1.182 . S
O206 Zn191 2.080 . S
O206 C209 1.305 . S
O207 Zn190 1.920 . S
O207 C209 1.234 . S
C208 O194 1.305 . S
C208 O195 1.234 . S
C209 O206 1.305 . S
C209 O207 1.234 . S
C210 C211 1.369 . S
C210 C212 1.419 . S
C210 H214 0.930 . S
C211 C210 1.369 . S
C211 C220 1.429 . S
C212 C210 1.419 . S
C212 C213 1.363 . S
C212 H215 0.929 . S
C213 C212 1.363 . S
C213 C219 1.428 . S
H214 C210 0.930 . S
H215 C212 0.929 . S
S216 N217 1.613 . S
S216 N218 1.610 . S
N217 S216 1.613 . S
N217 C220 1.350 . S
N218 S216 1.610 . S
N218 C219 1.351 . S
C219 C213 1.428 . S
C219 N218 1.351 . S
C219 C220 1.434 . S
C220 C211 1.429 . S
C220 N217 1.350 . S
C220 C219 1.434 . S
C221 C222 1.369 . S
C221 C223 1.419 . S
C221 H225 0.928 1_545 S
C222 C221 1.369 . S
C222 C231 1.429 . S
C223 C221 1.419 . S
C223 C224 1.363 . S
C223 H226 0.929 . S
C224 C223 1.363 . S
C224 C230 1.428 . S
H225 C221 0.928 1_565 S
H226 C223 0.929 . S
S227 N228 1.613 . S
S227 N229 1.610 . S
N228 S227 1.613 . S
N228 C231 1.350 . S
N229 S227 1.610 . S
N229 C230 1.351 . S
C230 C224 1.428 . S
C230 N229 1.351 . S
C230 C231 1.434 . S
C231 C222 1.429 . S
C231 N228 1.350 . S
C231 C230 1.434 . S
C232 C233 1.369 . S
C232 C234 1.419 . S
C232 H236 0.930 . S
C233 C232 1.369 . S
C233 C242 1.429 . S
C234 C232 1.419 . S
C234 C235 1.363 . S
C234 H237 0.929 . S
C235 C234 1.363 . S
C235 C241 1.428 . S
H236 C232 0.930 . S
H237 C234 0.929 . S
S238 N239 1.613 . S
S238 N240 1.610 . S
N239 S238 1.613 . S
N239 C242 1.350 . S
N240 S238 1.610 . S
N240 C241 1.351 . S
C241 C235 1.428 . S
C241 N240 1.351 . S
C241 C242 1.434 . S
C242 C233 1.429 . S
C242 N239 1.350 . S
C242 C241 1.434 . S
C243 C244 1.369 . S
C243 C245 1.419 . S
C243 H247 0.930 . S
C244 C243 1.369 . S
C244 C253 1.429 . S
C245 C243 1.419 . S
C245 C246 1.363 . S
C245 H248 0.929 . S
C246 C245 1.363 . S
C246 C252 1.428 . S
H247 C243 0.930 . S
H248 C245 0.929 . S
S249 N250 1.613 . S
S249 N251 1.610 . S
N250 S249 1.613 . S
N250 C253 1.350 . S
N251 S249 1.610 . S
N251 C252 1.351 . S
C252 C246 1.428 . S
C252 N251 1.351 . S
C252 C253 1.434 . S
C253 C244 1.429 . S
C253 N250 1.350 . S
C253 C252 1.434 . S
C254 C255 1.369 . S
C254 C256 1.419 . S
C254 H258 0.930 . S
C255 C254 1.369 . S
C255 C264 1.429 . S
C256 C254 1.419 . S
C256 C257 1.363 . S
C256 H259 0.929 . S
C257 C256 1.363 . S
C257 C263 1.428 . S
H258 C254 0.930 . S
H259 C256 0.929 . S
S260 N261 1.613 . S
S260 N262 1.610 . S
N261 S260 1.613 . S
N261 C264 1.350 . S
N262 S260 1.610 . S
N262 C263 1.351 . S
C263 C257 1.428 . S
C263 N262 1.351 . S
C263 C264 1.434 . S
C264 C255 1.429 . S
C264 N261 1.350 . S
C264 C263 1.434 . S
C265 C266 1.369 . S
C265 C267 1.419 . S
C265 H269 0.930 . S
C266 C265 1.369 . S
C266 C275 1.429 . S
C267 C265 1.419 . S
C267 C268 1.363 . S
C267 H270 0.929 . S
C268 C267 1.363 . S
C268 C274 1.428 . S
H269 C265 0.930 . S
H270 C267 0.929 . S
S271 N272 1.613 . S
S271 N273 1.610 . S
N272 S271 1.613 . S
N272 C275 1.350 . S
N273 S271 1.610 . S
N273 C274 1.351 . S
C274 C268 1.428 . S
C274 N273 1.351 . S
C274 C275 1.434 . S
C275 C266 1.429 . S
C275 N272 1.350 . S
C275 C274 1.434 . S
C276 C277 1.369 . S
C276 C278 1.419 . S
C276 H280 0.930 . S
C277 C276 1.369 . S
C277 C286 1.429 . S
C278 C276 1.419 . S
C278 C279 1.363 . S
C278 H281 0.929 . S
C279 C278 1.363 . S
C279 C285 1.428 . S
H280 C276 0.930 . S
H281 C278 0.929 . S
S282 N283 1.613 . S
S282 N284 1.610 . S
N283 S282 1.613 . S
N283 C286 1.350 . S
N284 S282 1.610 . S
N284 C285 1.351 . S
C285 C279 1.428 . S
C285 N284 1.351 . S
C285 C286 1.434 . S
C286 C277 1.429 . S
C286 N283 1.350 . S
C286 C285 1.434 . S
C287 C288 1.369 . S
C287 C289 1.419 . S
C287 H291 0.930 . S
C288 C287 1.369 . S
C288 C297 1.429 . S
C289 C287 1.419 . S
C289 C290 1.363 . S
C289 H292 0.929 . S
C290 C289 1.363 . S
C290 C296 1.428 . S
H291 C287 0.930 . S
H292 C289 0.929 . S
S293 N294 1.613 . S
S293 N295 1.610 . S
N294 S293 1.613 . S
N294 C297 1.350 . S
N295 S293 1.610 . S
N295 C296 1.351 . S
C296 C290 1.428 . S
C296 N295 1.351 . S
C296 C297 1.434 . S
C297 C288 1.429 . S
C297 N294 1.350 . S
C297 C296 1.434 . S
C298 C299 1.369 . S
C298 C300 1.419 . S
C298 H302 0.930 . S
C299 C298 1.369 . S
C299 C308 1.429 . S
C300 C298 1.419 . S
C300 C301 1.363 . S
C300 H303 0.929 . S
C301 C300 1.363 . S
C301 C307 1.428 . S
H302 C298 0.930 . S
H303 C300 0.929 . S
S304 N305 1.613 . S
S304 N306 1.610 . S
N305 S304 1.613 . S
N305 C308 1.350 . S
N306 S304 1.610 . S
N306 C307 1.351 . S
C307 C301 1.428 . S
C307 N306 1.351 . S
C307 C308 1.434 . S
C308 C299 1.429 . S
C308 N305 1.350 . S
C308 C307 1.434 . S
C309 C310 1.369 . S
C309 C311 1.419 . S
C309 H313 0.930 . S
C310 C309 1.369 . S
C310 C319 1.429 . S
C311 C309 1.419 . S
C311 C312 1.363 . S
C311 H314 0.929 . S
C312 C311 1.363 . S
C312 C318 1.428 . S
H313 C309 0.930 . S
H314 C311 0.929 . S
S315 N316 1.613 . S
S315 N317 1.610 . S
N316 S315 1.613 . S
N316 C319 1.350 . S
N317 S315 1.610 . S
N317 C318 1.351 . S
C318 C312 1.428 . S
C318 N317 1.351 . S
C318 C319 1.434 . S
C319 C310 1.429 . S
C319 N316 1.350 . S
C319 C318 1.434 . S
C320 C321 1.369 . S
C320 C322 1.419 . S
C320 H324 0.930 . S
C321 C320 1.369 . S
C321 C330 1.429 . S
C322 C320 1.419 . S
C322 C323 1.363 . S
C322 H325 0.929 . S
C323 C322 1.363 . S
C323 C329 1.428 . S
H324 C320 0.930 . S
H325 C322 0.929 . S
S326 N327 1.613 . S
S326 N328 1.610 . S
N327 S326 1.613 . S
N327 C330 1.350 . S
N328 S326 1.610 . S
N328 C329 1.351 . S
C329 C323 1.428 . S
C329 N328 1.351 . S
C329 C330 1.434 . S
C330 C321 1.429 . S
C330 N327 1.350 . S
C330 C329 1.434 . S
C331 C332 1.369 . S
C331 C333 1.419 . S
C331 H335 0.930 . S
C332 C331 1.369 . S
C332 C341 1.429 . S
C333 C331 1.419 . S
C333 C334 1.363 . S
C333 H336 0.929 . S
C334 C333 1.363 . S
C334 C340 1.428 . S
H335 C331 0.930 . S
H336 C333 0.929 . S
S337 N338 1.613 . S
S337 N339 1.610 . S
N338 S337 1.613 . S
N338 C341 1.350 1_455 S
N339 S337 1.610 . S
N339 C340 1.351 1_455 S
C340 C334 1.428 . S
C340 N339 1.351 1_655 S
C340 C341 1.434 . S
C341 C332 1.429 . S
C341 N338 1.350 1_655 S
C341 C340 1.434 . S
C211 C72 1.197 . S
C213 C187 1.286 . S
C222 C140 1.610 . S
C224 C193 1.454 . S
C233 C75 1.578 . S
C235 C184 1.492 . S
C244 C156 1.192 . S
C246 C209 1.286 . S
C255 C56 1.609 . S
C257 C175 1.461 . S
C268 C192 1.483 . S
C266 C159 1.576 . S
C277 C147 1.156 . S
C279 C188 1.293 . S
C290 C205 1.503 . S
C288 C67 1.633 . S
C301 C172 1.431 . S
C299 C150 1.625 . S
C312 C208 1.297 . S
C310 C63 1.146 . S
C323 C171 1.504 . S
C321 C151 1.634 . S
C334 C196 1.438 . S
C332 C66 1.626 . S
