# Generated by pormake.
# Topology csq, (4,8)-cn, num edge types: 1
# Building blocks:
#     Node 0, Type 0, BuildingBlock: KOZSID_clean_sbu_0, # of connection points: 4
#     Node 1, Type 0, BuildingBlock: KOZSID_clean_sbu_0, # of connection points: 4
#     Node 2, Type 0, BuildingBlock: KOZSID_clean_sbu_0, # of connection points: 4
#     Node 3, Type 0, BuildingBlock: KOZSID_clean_sbu_0, # of connection points: 4
#     Node 4, Type 0, BuildingBlock: KOZSID_clean_sbu_0, # of connection points: 4
#     Node 5, Type 0, BuildingBlock: KOZSID_clean_sbu_0, # of connection points: 4
#     Node 6, Type 1, BuildingBlock: TAGTUT_clean_sbu_1, # of connection points: 8
#     Node 7, Type 1, BuildingBlock: TAGTUT_clean_sbu_1, # of connection points: 8
#     Node 8, Type 1, BuildingBlock: TAGTUT_clean_sbu_1, # of connection points: 8
#     Edge 9, Type (0, 1), BuildingBlock: MIFKUJ_clean_linker_0, # of connection points: 2
#     Edge 10, Type (0, 1), BuildingBlock: MIFKUJ_clean_linker_0, # of connection points: 2
#     Edge 11, Type (0, 1), BuildingBlock: MIFKUJ_clean_linker_0, # of connection points: 2
#     Edge 12, Type (0, 1), BuildingBlock: MIFKUJ_clean_linker_0, # of connection points: 2
#     Edge 13, Type (0, 1), BuildingBlock: MIFKUJ_clean_linker_0, # of connection points: 2
#     Edge 14, Type (0, 1), BuildingBlock: MIFKUJ_clean_linker_0, # of connection points: 2
#     Edge 15, Type (0, 1), BuildingBlock: MIFKUJ_clean_linker_0, # of connection points: 2
#     Edge 16, Type (0, 1), BuildingBlock: MIFKUJ_clean_linker_0, # of connection points: 2
#     Edge 17, Type (0, 1), BuildingBlock: MIFKUJ_clean_linker_0, # of connection points: 2
#     Edge 18, Type (0, 1), BuildingBlock: MIFKUJ_clean_linker_0, # of connection points: 2
#     Edge 19, Type (0, 1), BuildingBlock: MIFKUJ_clean_linker_0, # of connection points: 2
#     Edge 20, Type (0, 1), BuildingBlock: MIFKUJ_clean_linker_0, # of connection points: 2
#     Edge 21, Type (0, 1), BuildingBlock: MIFKUJ_clean_linker_0, # of connection points: 2
#     Edge 22, Type (0, 1), BuildingBlock: MIFKUJ_clean_linker_0, # of connection points: 2
#     Edge 23, Type (0, 1), BuildingBlock: MIFKUJ_clean_linker_0, # of connection points: 2
#     Edge 24, Type (0, 1), BuildingBlock: MIFKUJ_clean_linker_0, # of connection points: 2
#     Edge 25, Type (0, 1), BuildingBlock: MIFKUJ_clean_linker_0, # of connection points: 2
#     Edge 26, Type (0, 1), BuildingBlock: MIFKUJ_clean_linker_0, # of connection points: 2
#     Edge 27, Type (0, 1), BuildingBlock: MIFKUJ_clean_linker_0, # of connection points: 2
#     Edge 28, Type (0, 1), BuildingBlock: MIFKUJ_clean_linker_0, # of connection points: 2
#     Edge 29, Type (0, 1), BuildingBlock: MIFKUJ_clean_linker_0, # of connection points: 2
#     Edge 30, Type (0, 1), BuildingBlock: MIFKUJ_clean_linker_0, # of connection points: 2
#     Edge 31, Type (0, 1), BuildingBlock: MIFKUJ_clean_linker_0, # of connection points: 2
#     Edge 32, Type (0, 1), BuildingBlock: MIFKUJ_clean_linker_0, # of connection points: 2
# Relax obj value: 0.034
# Max RMSD: 0.133
# Mean RMSD: 0.042
data_MOF--net-csq--node1-KOZSID_clean_sbu_0--node2-TAGTUT_clean_sbu_1--edge1-MIFKUJ_clean_linker_0
_symmetry_space_group_name_H-M    P1
_symmetry_Int_Tables_number       1
_symmetry_cell_setting            triclinic
loop_
_symmetry_equiv_pos_as_xyz
'x, y, z'
_cell_length_a     71.112536
_cell_length_b     70.214469
_cell_length_c     26.019163
_cell_angle_alpha  88.609661
_cell_angle_beta   95.819323
_cell_angle_gamma 119.84562
loop_
_atom_site_label
_atom_site_type_symbol
_atom_site_fract_x
_atom_site_fract_y
_atom_site_fract_z
_atom_type_partial_charge
C0 C 0.29314 0.51681 0.28052 0.0
C1 C 0.312 0.53524 0.30162 0.0
C2 C 0.31629 0.55185 0.26785 0.0
C3 C 0.29994 0.5427 0.22805 0.0
N4 N 0.28557 0.52142 0.23489 0.0
Co5 Co 0.26003 0.50197 0.18617 0.0
N6 N 0.26037 0.52744 0.15077 0.0
C7 C 0.2772 0.54819 0.1532 0.0
C8 C 0.27243 0.56238 0.12543 0.0
C9 C 0.25136 0.54971 0.10382 0.0
C10 C 0.24452 0.52837 0.11932 0.0
N11 N 0.23459 0.48248 0.13728 0.0
C12 C 0.22112 0.48716 0.10612 0.0
C13 C 0.20582 0.4688 0.07615 0.0
C14 C 0.20997 0.45213 0.08934 0.0
C15 C 0.22753 0.4612 0.12626 0.0
N16 N 0.25977 0.47652 0.22147 0.0
C17 C 0.24971 0.45572 0.20244 0.0
C18 C 0.25196 0.44152 0.23627 0.0
C19 C 0.26438 0.45422 0.27903 0.0
C20 C 0.26921 0.47561 0.26862 0.0
N21 N 0.24031 0.50211 0.23421 0.0
C22 C 0.21126 0.5027 0.30006 0.0
C23 C 0.20759 0.48294 0.27781 0.0
C24 C 0.22219 0.48301 0.2451 0.0
C25 C 0.23007 0.5221 0.28889 0.0
C26 C 0.24431 0.52145 0.25623 0.0
N27 N 0.27969 0.50188 0.13766 0.0
C28 C 0.31126 0.49942 0.1206 0.0
C29 C 0.30767 0.50201 0.06737 0.0
C30 C 0.28967 0.50456 0.05051 0.0
C31 C 0.27601 0.50445 0.08594 0.0
C32 C 0.29715 0.49936 0.15487 0.0
H33 H 0.26246 0.50655 0.07123 0.0
H34 H 0.30039 0.49725 0.19539 0.0
H35 H 0.21868 0.46757 0.22816 0.0
H36 H 0.25853 0.53669 0.24854 0.0
C37 C 0.29557 0.55426 0.18856 0.0
C38 C 0.28425 0.49482 0.3022 0.0
C39 C 0.22366 0.50915 0.10055 0.0
C40 C 0.23549 0.44962 0.15696 0.0
H41 H 0.32181 0.53649 0.33731 0.0
H42 H 0.32937 0.56873 0.27263 0.0
H43 H 0.28269 0.57997 0.12286 0.0
H44 H 0.24218 0.55555 0.07931 0.0
H45 H 0.19317 0.46761 0.04728 0.0
H46 H 0.20084 0.43528 0.07485 0.0
H47 H 0.24476 0.42391 0.23134 0.0
H48 H 0.26943 0.44841 0.31367 0.0
H49 H 0.19326 0.46751 0.28462 0.0
H50 H 0.23395 0.53776 0.30559 0.0
H51 H 0.32471 0.49712 0.13581 0.0
H52 H 0.28625 0.50698 0.01015 0.0
C53 C 0.81841 0.26711 0.08032 0.0
C54 C 0.83536 0.26313 0.07483 0.0
C55 C 0.83177 0.24548 0.10415 0.0
C56 C 0.81287 0.23967 0.12558 0.0
N57 N 0.80392 0.25226 0.1109 0.0
Co58 Co 0.77702 0.25024 0.13462 0.0
N59 N 0.77424 0.2274 0.18602 0.0
C60 C 0.78757 0.2188 0.19456 0.0
C61 C 0.78222 0.20414 0.23361 0.0
C62 C 0.76436 0.20322 0.25108 0.0
C63 C 0.75965 0.21727 0.22115 0.0
N64 N 0.74997 0.24807 0.15803 0.0
C65 C 0.73712 0.23537 0.19438 0.0
C66 C 0.71923 0.23822 0.1964 0.0
C67 C 0.72096 0.25342 0.16072 0.0
C68 C 0.73962 0.25887 0.1386 0.0
N69 N 0.78024 0.27359 0.08416 0.0
C70 C 0.76676 0.28197 0.0746 0.0
C71 C 0.77421 0.29916 0.04164 0.0
C72 C 0.79388 0.30232 0.03037 0.0
C73 C 0.79724 0.28672 0.057 0.0
N74 N 0.75868 0.22683 0.081 0.0
C75 C 0.73101 0.19318 0.00766 0.0
C76 C 0.72941 0.21205 0.01181 0.0
C77 C 0.74325 0.22846 0.04821 0.0
C78 C 0.74718 0.19165 0.0395 0.0
C79 C 0.76073 0.20855 0.07581 0.0
N80 N 0.79531 0.27365 0.18711 0.0
C81 C 0.80742 0.31027 0.21908 0.0
C82 C 0.82665 0.31179 0.24213 0.0
C83 C 0.82921 0.29336 0.24136 0.0
C84 C 0.81334 0.27445 0.2137 0.0
C85 C 0.79181 0.29094 0.19282 0.0
H86 H 0.81638 0.26105 0.21235 0.0
H87 H 0.77747 0.29071 0.17555 0.0
H88 H 0.74087 0.24215 0.04911 0.0
H89 H 0.77247 0.20625 0.09953 0.0
C90 C 0.80493 0.22474 0.16505 0.0
C91 C 0.81739 0.28587 0.05805 0.0
C92 C 0.74096 0.22014 0.22719 0.0
C93 C 0.74815 0.27452 0.10059 0.0
H94 H 0.84928 0.27251 0.05334 0.0
H95 H 0.84231 0.23847 0.11122 0.0
H96 H 0.79036 0.1952 0.24774 0.0
H97 H 0.75575 0.19325 0.28229 0.0
H98 H 0.70616 0.2301 0.22091 0.0
H99 H 0.70994 0.25977 0.15197 0.0
H100 H 0.76671 0.30886 0.02915 0.0
H101 H 0.80483 0.31517 0.00669 0.0
H102 H 0.71737 0.21413 0.98714 0.0
H103 H 0.74896 0.17724 0.03749 0.0
H104 H 0.80466 0.3241 0.22039 0.0
H105 H 0.84385 0.2939 0.25976 0.0
C106 C 0.56476 0.76069 0.12074 0.0
C107 C 0.58551 0.76511 0.14004 0.0
C108 C 0.59986 0.78315 0.11547 0.0
C109 C 0.58714 0.78864 0.08249 0.0
N110 N 0.56549 0.77554 0.08532 0.0
Co111 Co 0.5413 0.77612 0.03941 0.0
N112 N 0.56243 0.80203 0.00149 0.0
C113 C 0.58444 0.81259 0.00988 0.0
C114 C 0.59461 0.83061 0.98016 0.0
C115 C 0.57811 0.83207 0.95215 0.0
C116 C 0.55875 0.81482 0.96667 0.0
N117 N 0.51716 0.77618 0.99224 0.0
C118 C 0.51773 0.79127 0.95774 0.0
C119 C 0.49693 0.78567 0.93576 0.0
C120 C 0.48281 0.76655 0.95729 0.0
C121 C 0.49561 0.76157 0.99138 0.0
N122 N 0.52011 0.75085 0.07889 0.0
C123 C 0.49812 0.74084 0.07158 0.0
C124 C 0.48786 0.72367 0.10362 0.0
C125 C 0.50428 0.72239 0.13259 0.0
C126 C 0.52367 0.73882 0.11618 0.0
N127 N 0.54038 0.79686 0.08746 0.0
C128 C 0.53968 0.83028 0.14245 0.0
C129 C 0.52029 0.81195 0.12255 0.0
C130 C 0.52101 0.79545 0.09564 0.0
C131 C 0.55934 0.83098 0.13701 0.0
C132 C 0.5593 0.81413 0.10991 0.0
N133 N 0.54235 0.75528 0.99149 0.0
C134 C 0.52714 0.71749 0.96379 0.0
C135 C 0.5475 0.72162 0.95153 0.0
C136 C 0.56445 0.7434 0.95335 0.0
C137 C 0.56151 0.75988 0.97312 0.0
C138 C 0.52484 0.73458 0.98231 0.0
H139 H 0.57528 0.77597 0.97509 0.0
H140 H 0.50899 0.73039 0.99148 0.0
H141 H 0.50573 0.78202 0.08067 0.0
H142 H 0.5748 0.81577 0.10619 0.0
C143 C 0.59499 0.80553 0.04722 0.0
C144 C 0.54491 0.74139 0.1347 0.0
C145 C 0.53734 0.81188 0.94801 0.0
C146 C 0.4877 0.74596 0.0296 0.0
H147 H 0.58986 0.75588 0.16783 0.0
H148 H 0.61746 0.79093 0.11994 0.0
H149 H 0.61194 0.84171 0.97994 0.0
H150 H 0.58009 0.84472 0.92503 0.0
H151 H 0.4922 0.7949 0.90893 0.0
H152 H 0.46518 0.75816 0.95154 0.0
H153 H 0.47052 0.71268 0.10402 0.0
H154 H 0.50221 0.7102 0.16114 0.0
H155 H 0.50464 0.81045 0.12719 0.0
H156 H 0.5748 0.84485 0.15192 0.0
H157 H 0.51325 0.70101 0.96187 0.0
H158 H 0.58019 0.74768 0.94133 0.0
C159 C 0.80552 0.54744 0.17589 0.0
C160 C 0.82203 0.56772 0.19605 0.0
C161 C 0.82046 0.58325 0.16641 0.0
C162 C 0.80327 0.57164 0.12981 0.0
N163 N 0.79373 0.5496 0.13407 0.0
Co164 Co 0.7684 0.52669 0.08808 0.0
N165 N 0.76558 0.54967 0.04583 0.0
C166 C 0.7781 0.57172 0.05282 0.0
C167 C 0.77183 0.58338 0.01943 0.0
C168 C 0.75418 0.5679 0.98925 0.0
C169 C 0.7508 0.54756 0.00575 0.0
N170 N 0.74317 0.50379 0.04198 0.0
C171 C 0.73092 0.50597 1.00124 0.0
C172 C 0.71548 0.4857 0.97865 0.0
C173 C 0.71771 0.47017 0.00671 0.0
C174 C 0.73444 0.48175 0.04438 0.0
N175 N 0.77107 0.50372 0.13068 0.0
C176 C 0.75853 0.48166 0.12383 0.0
C177 C 0.76363 0.47002 0.16003 0.0
C178 C 0.78044 0.48552 0.19212 0.0
C179 C 0.78475 0.50585 0.1733 0.0
N180 N 0.74783 0.52651 0.13513 0.0
C181 C 0.71861 0.52613 0.20197 0.0
C182 C 0.71658 0.50658 0.18368 0.0
C183 C 0.7311 0.50713 0.15033 0.0
C184 C 0.73553 0.5459 0.1861 0.0
C185 C 0.74992 0.54572 0.15332 0.0
N186 N 0.78897 0.52682 0.04075 0.0
C187 C 0.80113 0.50716 0.99017 0.0
C188 C 0.81722 0.52671 0.97113 0.0
C189 C 0.81904 0.54636 0.98828 0.0
C190 C 0.80496 0.54605 0.02278 0.0
C191 C 0.78737 0.50759 0.02443 0.0
H192 H 0.80729 0.5616 0.03411 0.0
H193 H 0.77556 0.49208 0.03712 0.0
H194 H 0.72841 0.49165 0.13717 0.0
H195 H 0.76265 0.56133 0.14326 0.0
C196 C 0.79534 0.58098 0.0919 0.0
C197 C 0.8019 0.52664 0.19761 0.0
C198 C 0.73307 0.52674 0.98285 0.0
C199 C 0.74196 0.47237 0.08318 0.0
H200 H 0.83398 0.57099 0.22884 0.0
H201 H 0.83059 0.6009 0.17115 0.0
H202 H 0.77905 0.60104 0.01772 0.0
H203 H 0.74477 0.57129 0.95892 0.0
H204 H 0.70372 0.48243 0.94542 0.0
H205 H 0.70819 0.45253 1.00056 0.0
H206 H 0.75594 0.45236 0.16298 0.0
H207 H 0.78851 0.48221 0.22577 0.0
H208 H 0.70357 0.49084 0.19432 0.0
H209 H 0.73789 0.5615 0.19954 0.0
H210 H 0.79923 0.49147 0.97926 0.0
H211 H 0.83107 0.56201 0.97462 0.0
C212 C 0.27317 0.817 0.16438 0.0
C213 C 0.27053 0.83493 0.1731 0.0
C214 C 0.25363 0.83267 0.13895 0.0
C215 C 0.24687 0.81356 0.1115 0.0
N216 N 0.25837 0.80338 0.12619 0.0
Co217 Co 0.25402 0.77523 0.0961 0.0
N218 N 0.22777 0.77078 0.0494 0.0
C219 C 0.21906 0.78412 0.04591 0.0
C220 C 0.19967 0.77561 0.01524 0.0
C221 C 0.19547 0.75543 0.9989 0.0
C222 C 0.21278 0.75287 0.02012 0.0
N223 N 0.25015 0.74752 0.06495 0.0
C224 C 0.23392 0.73264 0.03124 0.0
C225 C 0.23775 0.71588 0.01833 0.0
C226 C 0.25671 0.71992 0.04636 0.0
C227 C 0.26345 0.73894 0.0742 0.0
N228 N 0.27961 0.77903 0.14437 0.0
C229 C 0.28826 0.76563 0.14778 0.0
C230 C 0.30564 0.7723 0.1847 0.0
C231 C 0.30819 0.79099 0.20657 0.0
C232 C 0.29207 0.79463 0.18172 0.0
N233 N 0.23436 0.75811 0.14869 0.0
C234 C 0.20193 0.73029 0.21101 0.0
C235 C 0.2177 0.72534 0.1985 0.0
C236 C 0.23387 0.73955 0.16798 0.0
C237 C 0.20337 0.74994 0.19416 0.0
C238 C 0.21959 0.76351 0.16334 0.0
N239 N 0.27355 0.7923 0.04246 0.0
C240 C 0.30429 0.8011 0.99481 0.0
C241 C 0.30009 0.81528 0.96347 0.0
C242 C 0.28257 0.81799 0.97291 0.0
C243 C 0.26966 0.80645 0.01209 0.0
C244 C 0.29104 0.79001 0.03385 0.0
H245 H 0.25664 0.80935 0.01686 0.0
H246 H 0.2953 0.77962 0.05625 0.0
H247 H 0.24549 0.73499 0.15935 0.0
H248 H 0.21943 0.77795 0.15054 0.0
C249 C 0.22866 0.8038 0.07489 0.0
C250 C 0.28975 0.81352 0.19392 0.0
C251 C 0.21388 0.73281 0.01366 0.0
C252 C 0.28046 0.74756 0.11391 0.0
H253 H 0.2797 0.84814 0.20166 0.0
H254 H 0.24675 0.84341 0.13539 0.0
H255 H 0.18934 0.78283 0.00747 0.0
H256 H 0.18093 0.74377 0.97539 0.0
H257 H 0.22746 0.70176 0.9928 0.0
H258 H 0.26414 0.70967 0.04807 0.0
H259 H 0.31551 0.76467 0.19404 0.0
H260 H 0.32074 0.80093 0.2369 0.0
H261 H 0.21747 0.71049 0.21182 0.0
H262 H 0.1915 0.75445 0.20298 0.0
H263 H 0.31758 0.79828 0.98897 0.0
H264 H 0.2789 0.82917 0.95059 0.0
C265 C 0.50678 0.23472 0.24379 0.0
C266 C 0.52708 0.23995 0.26826 0.0
C267 C 0.54204 0.25753 0.24346 0.0
C268 C 0.52999 0.26191 0.20543 0.0
N269 N 0.50823 0.24864 0.20553 0.0
Co270 Co 0.48465 0.24721 0.15378 0.0
N271 N 0.50658 0.27049 0.11169 0.0
C272 C 0.52855 0.28108 0.12179 0.0
C273 C 0.5392 0.29759 0.08854 0.0
C274 C 0.52309 0.29799 0.0561 0.0
C275 C 0.50344 0.28152 0.07134 0.0
N276 N 0.46107 0.24537 0.10154 0.0
C277 C 0.46244 0.25839 0.06125 0.0
C278 C 0.44214 0.25205 0.03501 0.0
C279 C 0.42728 0.23479 0.0608 0.0
C280 C 0.43935 0.23154 0.10096 0.0
N281 N 0.46272 0.22429 0.19639 0.0
C282 C 0.44074 0.21446 0.18799 0.0
C283 C 0.43017 0.19835 0.22231 0.0
C284 C 0.44634 0.19745 0.25352 0.0
C285 C 0.46586 0.21312 0.23629 0.0
N286 N 0.48355 0.27062 0.19272 0.0
C287 C 0.48204 0.30561 0.23956 0.0
C288 C 0.46292 0.28659 0.22126 0.0
C289 C 0.46404 0.26944 0.19836 0.0
C290 C 0.5019 0.30656 0.2352 0.0
C291 C 0.50228 0.28902 0.21207 0.0
N292 N 0.48575 0.22382 0.11494 0.0
C293 C 0.46779 0.18657 0.08007 0.0
C294 C 0.48763 0.18888 0.06933 0.0
C295 C 0.50647 0.20917 0.08033 0.0
C296 C 0.50518 0.22627 0.10308 0.0
C297 C 0.4672 0.20414 0.10223 0.0
H298 H 0.52017 0.24119 0.11153 0.0
H299 H 0.45154 0.20128 0.10938 0.0
H300 H 0.44889 0.25559 0.18466 0.0
H301 H 0.51795 0.29087 0.20971 0.0
C302 C 0.53859 0.27656 0.16568 0.0
C303 C 0.48677 0.21513 0.25454 0.0
C304 C 0.48223 0.27821 0.04985 0.0
C305 C 0.43069 0.21795 0.14252 0.0
H306 H 0.53067 0.23127 0.29916 0.0
H307 H 0.55961 0.26534 0.25037 0.0
H308 H 0.55657 0.30875 0.08944 0.0
H309 H 0.52562 0.30972 0.02615 0.0
H310 H 0.43843 0.25983 0.0022 0.0
H311 H 0.40971 0.22647 0.05301 0.0
H312 H 0.41278 0.18748 0.22226 0.0
H313 H 0.44403 0.18579 0.28362 0.0
H314 H 0.44711 0.28507 0.22343 0.0
H315 H 0.51717 0.32077 0.24974 0.0
H316 H 0.45268 0.17129 0.07108 0.0
H317 H 0.52223 0.21172 0.07251 0.0
C318 C 0.98721 0.45368 0.7859 0.0
C319 C 0.05362 0.49186 0.73786 0.0
C320 C 0.03629 0.55847 0.71935 0.0
Mg321 Mg 0.00759 0.46582 0.68099 0.0
O322 O 0.00458 0.49048 0.69168 0.0
Mg323 Mg 0.01732 0.50796 0.75851 0.0
Mg324 Mg 0.01416 0.51487 0.64254 0.0
O325 O 0.02267 0.53939 0.59338 0.0
Mg326 Mg 0.01423 0.56032 0.60599 0.0
Mg327 Mg 0.00879 0.52126 0.5277 0.0
C328 C 0.99125 0.47125 0.56528 0.0
C329 C 0.05044 0.51565 0.57056 0.0
O330 O 0.99742 0.47421 0.79964 0.0
O331 O 0.98827 0.44695 0.74145 0.0
O332 O 0.04699 0.50322 0.75975 0.0
O333 O 0.04139 0.47652 0.70448 0.0
O334 O 0.99496 0.45935 0.59864 0.0
O335 O 0.99482 0.49047 0.57708 0.0
C336 C 0.97834 0.51648 0.71114 0.0
O337 O 0.9843 0.51721 0.66574 0.0
O338 O 0.98826 0.51328 0.75129 0.0
O339 O 0.02507 0.55442 0.48693 0.0
O340 O 0.03017 0.58085 0.54317 0.0
O341 O 0.97744 0.52302 0.527 0.0
C342 C 0.03231 0.5747 0.49911 0.0
O343 O 0.97915 0.54583 0.58742 0.0
O344 O 0.02956 0.56824 0.68608 0.0
C345 C 0.96851 0.53166 0.55057 0.0
O346 O 0.03387 0.53944 0.70946 0.0
O347 O 0.0443 0.51265 0.61662 0.0
O348 O 0.03978 0.51933 0.53276 0.0
C349 C 0.47725 0.02404 0.7427 0.0
C350 C 0.45191 0.96435 0.64818 0.0
C351 C 0.5354 0.98594 0.64567 0.0
Mg352 Mg 0.47032 0.01304 0.62468 0.0
O353 O 0.49878 0.01794 0.64038 0.0
Mg354 Mg 0.50384 0.00039 0.69611 0.0
Mg355 Mg 0.51321 0.01274 0.5853 0.0
O356 O 0.52793 0.00807 0.53011 0.0
Mg357 Mg 0.5569 0.01446 0.54708 0.0
Mg358 Mg 0.52259 0.02586 0.47473 0.0
C359 C 0.49174 0.04046 0.52617 0.0
C360 C 0.47597 0.98271 0.49302 0.0
O361 O 0.48932 0.01511 0.74944 0.0
O362 O 0.46864 0.02529 0.6979 0.0
O363 O 0.46983 0.97028 0.67651 0.0
O364 O 0.4487 0.97801 0.62085 0.0
O365 O 0.47601 0.03273 0.5551 0.0
O366 O 0.50779 0.03683 0.53464 0.0
C367 C 0.55018 0.04291 0.67675 0.0
O368 O 0.54525 0.03958 0.62777 0.0
O369 O 0.53726 0.03067 0.70938 0.0
O370 O 0.5372 0.01156 0.42182 0.0
O371 O 0.55885 0.00259 0.47376 0.0
O372 O 0.55676 0.05628 0.49134 0.0
C373 C 0.55 0.0035 0.42894 0.0
O374 O 0.57869 0.04974 0.54698 0.0
O375 O 0.55136 0.99453 0.61723 0.0
C376 C 0.57516 0.06278 0.51785 0.0
O377 O 0.51889 0.98889 0.63684 0.0
O378 O 0.48106 0.98538 0.54216 0.0
O379 O 0.48897 0.99569 0.4614 0.0
C380 C 0.53659 0.57103 0.47009 0.0
C381 C 0.56226 0.52768 0.51327 0.0
C382 C 0.47908 0.4679 0.54597 0.0
Mg383 Mg 0.55105 0.55716 0.57533 0.0
O384 O 0.5215 0.53554 0.56772 0.0
Mg385 Mg 0.50974 0.51718 0.5021 0.0
Mg386 Mg 0.50894 0.51204 0.61944 0.0
O387 O 0.49567 0.4885 0.67084 0.0
Mg388 Mg 0.46546 0.46838 0.66132 0.0
Mg389 Mg 0.50699 0.50702 0.73603 0.0
C390 C 0.53955 0.55499 0.69319 0.0
C391 C 0.54806 0.50829 0.68724 0.0
O392 O 0.52297 0.55059 0.45875 0.0
O393 O 0.54841 0.57741 0.51372 0.0
O394 O 0.54232 0.51789 0.4938 0.0
O395 O 0.56919 0.54258 0.54883 0.0
O396 O 0.55279 0.56448 0.65848 0.0
O397 O 0.52101 0.53747 0.68367 0.0
C398 C 0.46872 0.51447 0.55432 0.0
O399 O 0.47712 0.51286 0.59903 0.0
O400 O 0.4781 0.51643 0.51344 0.0
O401 O 0.49288 0.47386 0.77841 0.0
O402 O 0.46609 0.44786 0.72392 0.0
O403 O 0.47478 0.50713 0.74387 0.0
C404 C 0.47821 0.45378 0.76712 0.0
O405 O 0.44758 0.48373 0.68757 0.0
O406 O 0.46538 0.45906 0.58013 0.0
C407 C 0.45484 0.49808 0.72467 0.0
O408 O 0.49677 0.48646 0.5546 0.0
O409 O 0.54117 0.51113 0.64164 0.0
O410 O 0.53778 0.50631 0.72642 0.0
H411 H 0.19806 0.53338 0.30403 0.0
H412 H 0.17293 0.53455 0.35944 0.0
H413 H 0.16326 0.47435 0.42876 0.0
H414 H 0.1884 0.47301 0.37301 0.0
H415 H 0.12539 0.47298 0.41369 0.0
H416 H 0.1954 0.52568 0.49299 0.0
H417 H 0.23261 0.55756 0.49752 0.0
H418 H 0.20678 0.59957 0.4485 0.0
H419 H 0.16942 0.56788 0.44296 0.0
H420 H 0.06588 0.48762 0.6043 0.0
H421 H 0.09515 0.48422 0.56935 0.0
H422 H 0.10863 0.53951 0.47294 0.0
H423 H 0.07965 0.54277 0.50702 0.0
H424 H 0.14623 0.54125 0.51302 0.0
H425 H 0.0766 0.48732 0.42569 0.0
H426 H 0.03944 0.45539 0.42238 0.0
H427 H 0.06514 0.41552 0.48957 0.0
H428 H 0.10245 0.44735 0.494 0.0
C429 C 0.19082 0.52047 0.33138 0.0
C430 C 0.19556 0.5032 0.33405 0.0
C431 C 0.17635 0.52115 0.36324 0.0
C432 C 0.16633 0.50476 0.39935 0.0
C433 C 0.17072 0.48727 0.40152 0.0
C434 C 0.18512 0.48651 0.3694 0.0
C435 C 0.15127 0.50591 0.43431 0.0
C436 C 0.13017 0.4878 0.43613 0.0
C437 C 0.15717 0.52522 0.46364 0.0
C438 C 0.17961 0.54436 0.46718 0.0
C439 C 0.19766 0.54169 0.48284 0.0
C440 C 0.21878 0.55973 0.48564 0.0
C441 C 0.22206 0.58057 0.47321 0.0
C442 C 0.20422 0.58342 0.45808 0.0
C443 C 0.18306 0.56543 0.45517 0.0
C444 C 0.07545 0.4993 0.57654 0.0
C445 C 0.0704 0.51544 0.55841 0.0
C446 C 0.09205 0.49725 0.55618 0.0
C447 C 0.10405 0.51147 0.51786 0.0
C448 C 0.09972 0.5283 0.50223 0.0
C449 C 0.08308 0.53013 0.52182 0.0
C450 C 0.12032 0.50852 0.49152 0.0
C451 C 0.14163 0.52633 0.4912 0.0
C452 C 0.11464 0.48892 0.46386 0.0
C453 C 0.09227 0.46976 0.46076 0.0
C454 C 0.0743 0.47179 0.44013 0.0
C455 C 0.05322 0.4537 0.438 0.0
C456 C 0.04993 0.43345 0.4559 0.0
C457 C 0.06772 0.43123 0.47583 0.0
C458 C 0.08883 0.44928 0.47815 0.0
H459 H 0.0336 0.41947 0.45422 0.0
H460 H 0.23843 0.59452 0.47539 0.0
H461 H 0.71484 0.17566 0.22317 0.0
H462 H 0.68832 0.15268 0.28265 0.0
H463 H 0.70386 0.21053 0.37232 0.0
H464 H 0.73124 0.23342 0.31391 0.0
H465 H 0.6975 0.17887 0.43585 0.0
H466 H 0.65769 0.185 0.28417 0.0
H467 H 0.64673 0.1836 0.19073 0.0
H468 H 0.62455 0.11448 0.18402 0.0
H469 H 0.63571 0.11553 0.27731 0.0
H470 H 0.57291 0.09676 0.46991 0.0
H471 H 0.60219 0.12822 0.43156 0.0
H472 H 0.64827 0.1092 0.49814 0.0
H473 H 0.61907 0.07787 0.53752 0.0
H474 H 0.62292 0.12532 0.3593 0.0
H475 H 0.6998 0.15306 0.50829 0.0
H476 H 0.70875 0.15756 0.603 0.0
H477 H 0.65311 0.16493 0.61791 0.0
H478 H 0.64402 0.16082 0.52342 0.0
C479 C 0.71266 0.18339 0.25584 0.0
C480 C 0.72493 0.20627 0.26391 0.0
C481 C 0.69744 0.1703 0.28969 0.0
C482 C 0.69373 0.17985 0.33164 0.0
C483 C 0.70634 0.20273 0.3403 0.0
C484 C 0.72184 0.21581 0.30679 0.0
C485 C 0.67621 0.16597 0.36514 0.0
C486 C 0.68119 0.16716 0.41913 0.0
C487 C 0.65467 0.15116 0.34373 0.0
C488 C 0.64769 0.15039 0.28769 0.0
C489 C 0.65059 0.16952 0.26272 0.0
C490 C 0.64434 0.16879 0.20978 0.0
C491 C 0.63498 0.14897 0.18144 0.0
C492 C 0.63182 0.12982 0.20602 0.0
C493 C 0.63809 0.13048 0.25894 0.0
C494 C 0.58938 0.09958 0.47767 0.0
C495 C 0.59357 0.08462 0.50646 0.0
C496 C 0.60612 0.11755 0.45539 0.0
C497 C 0.62746 0.12104 0.46134 0.0
C498 C 0.632 0.10704 0.49318 0.0
C499 C 0.61525 0.08909 0.51582 0.0
C500 C 0.64429 0.13775 0.42998 0.0
C501 C 0.63919 0.13707 0.37622 0.0
C502 C 0.66542 0.15347 0.45187 0.0
C503 C 0.67111 0.1564 0.50872 0.0
C504 C 0.68954 0.15575 0.53174 0.0
C505 C 0.69463 0.15822 0.58542 0.0
C506 C 0.68145 0.16145 0.61642 0.0
C507 C 0.66324 0.16233 0.59386 0.0
C508 C 0.65811 0.15991 0.54027 0.0
H509 H 0.68534 0.16332 0.6579 0.0
H510 H 0.63016 0.14843 0.14045 0.0
H511 H 0.53405 0.70033 0.10165 0.0
H512 H 0.53425 0.67067 0.15343 0.0
H513 H 0.55821 0.7133 0.28955 0.0
H514 H 0.55815 0.74297 0.23752 0.0
H515 H 0.579 0.68937 0.28478 0.0
H516 H 0.50412 0.67471 0.2643 0.0
H517 H 0.4706 0.66841 0.21144 0.0
H518 H 0.46617 0.61221 0.13689 0.0
H519 H 0.49985 0.61837 0.18883 0.0
H520 H 0.55541 0.61539 0.48747 0.0
H521 H 0.55778 0.64314 0.42631 0.0
H522 H 0.52479 0.59322 0.30493 0.0
H523 H 0.52161 0.56513 0.3667 0.0
H524 H 0.50952 0.61956 0.29523 0.0
H525 H 0.58149 0.63109 0.31485 0.0
H526 H 0.61604 0.63676 0.36083 0.0
H527 H 0.62765 0.69738 0.42814 0.0
H528 H 0.59298 0.69191 0.3832 0.0
C529 C 0.53947 0.7033 0.14259 0.0
C530 C 0.54611 0.72383 0.1658 0.0
C531 C 0.53954 0.68639 0.17215 0.0
C532 C 0.54605 0.68965 0.22559 0.0
C533 C 0.55314 0.71038 0.24847 0.0
C534 C 0.55308 0.72729 0.21888 0.0
C535 C 0.54483 0.67134 0.25812 0.0
C536 C 0.56378 0.67419 0.28753 0.0
C537 C 0.52516 0.65115 0.2602 0.0
C538 C 0.50456 0.64708 0.23019 0.0
C539 C 0.49603 0.66105 0.23652 0.0
C540 C 0.47701 0.65751 0.20672 0.0
C541 C 0.46627 0.63993 0.1708 0.0
C542 C 0.47449 0.62581 0.16474 0.0
C543 C 0.49353 0.62931 0.19438 0.0
C544 C 0.54872 0.61025 0.44773 0.0
C545 C 0.53841 0.58796 0.43209 0.0
C546 C 0.5502 0.62623 0.41257 0.0
C547 C 0.54186 0.62047 0.36047 0.0
C548 C 0.53143 0.59819 0.34476 0.0
C549 C 0.52967 0.58211 0.38016 0.0
C550 C 0.54367 0.63767 0.32296 0.0
C551 C 0.52483 0.63464 0.29248 0.0
C552 C 0.56357 0.65752 0.31909 0.0
C553 C 0.58453 0.66099 0.34596 0.0
C554 C 0.59133 0.64556 0.33973 0.0
C555 C 0.61095 0.64875 0.36557 0.0
C556 C 0.62401 0.6674 0.39746 0.0
C557 C 0.6175 0.68293 0.40346 0.0
C558 C 0.59788 0.67981 0.37777 0.0
H559 H 0.63918 0.66983 0.41745 0.0
H560 H 0.45157 0.63724 0.14771 0.0
H561 H 0.83227 0.51387 0.199 0.0
H562 H 0.85555 0.51254 0.27364 0.0
H563 H 0.82756 0.53804 0.37269 0.0
H564 H 0.80416 0.5393 0.29763 0.0
H565 H 0.87255 0.55796 0.39316 0.0
H566 H 0.81195 0.48541 0.37578 0.0
H567 H 0.7846 0.45088 0.32967 0.0
H568 H 0.83533 0.4389 0.29233 0.0
H569 H 0.86304 0.47359 0.33726 0.0
H570 H 0.94113 0.54349 0.59124 0.0
H571 H 0.90672 0.53917 0.54848 0.0
H572 H 0.91214 0.50536 0.41937 0.0
H573 H 0.94524 0.50832 0.46256 0.0
H574 H 0.8719 0.48809 0.43152 0.0
H575 H 0.93163 0.56489 0.42716 0.0
H576 H 0.95982 0.59967 0.47126 0.0
H577 H 0.91108 0.60304 0.54916 0.0
H578 H 0.88263 0.5682 0.50567 0.0
C579 C 0.83114 0.51916 0.23677 0.0
C580 C 0.81644 0.52655 0.24293 0.0
C581 C 0.84436 0.51836 0.27935 0.0
C582 C 0.84309 0.52492 0.32891 0.0
C583 C 0.82874 0.53282 0.33489 0.0
C584 C 0.81541 0.53351 0.2922 0.0
C585 C 0.8568 0.52336 0.37408 0.0
C586 C 0.87214 0.5426 0.40224 0.0
C587 C 0.85627 0.50333 0.38606 0.0
C588 C 0.83961 0.48222 0.35967 0.0
C589 C 0.8173 0.4755 0.35744 0.0
C590 C 0.80173 0.45588 0.33151 0.0
C591 C 0.80823 0.44272 0.30803 0.0
C592 C 0.83032 0.44912 0.31052 0.0
C593 C 0.84597 0.46876 0.33625 0.0
C594 C 0.93472 0.53481 0.55415 0.0
C595 C 0.94623 0.52667 0.52994 0.0
C596 C 0.91513 0.53248 0.52957 0.0
C597 C 0.90708 0.5225 0.47987 0.0
C598 C 0.91793 0.51324 0.45744 0.0
C599 C 0.93707 0.51509 0.48229 0.0
C600 C 0.88851 0.5229 0.44861 0.0
C601 C 0.87207 0.50338 0.42317 0.0
C602 C 0.88814 0.54268 0.43886 0.0
C603 C 0.90509 0.56394 0.46352 0.0
C604 C 0.92696 0.57309 0.45367 0.0
C605 C 0.94297 0.59278 0.47858 0.0
C606 C 0.93724 0.60354 0.51305 0.0
C607 C 0.91548 0.5947 0.52243 0.0
C608 C 0.89941 0.575 0.49764 0.0
H609 H 0.94967 0.61874 0.53246 0.0
H610 H 0.79614 0.42754 0.28797 0.0
H611 H 0.32144 0.85469 0.17474 0.0
H612 H 0.35071 0.88154 0.23609 0.0
H613 H 0.32449 0.837 0.3603 0.0
H614 H 0.29474 0.81032 0.29876 0.0
H615 H 0.34053 0.87969 0.39267 0.0
H616 H 0.36557 0.83921 0.30617 0.0
H617 H 0.37115 0.82241 0.23135 0.0
H618 H 0.41055 0.88632 0.17154 0.0
H619 H 0.40482 0.9035 0.24549 0.0
H620 H 0.4465 0.94591 0.54142 0.0
H621 H 0.41268 0.91464 0.50121 0.0
H622 H 0.42396 0.94669 0.35486 0.0
H623 H 0.45741 0.97757 0.39415 0.0
H624 H 0.41502 0.90489 0.34514 0.0
H625 H 0.38576 0.94421 0.43132 0.0
H626 H 0.37995 0.95954 0.50857 0.0
H627 H 0.34924 0.89554 0.57363 0.0
H628 H 0.35519 0.8799 0.49711 0.0
C629 C 0.32177 0.85087 0.2153 0.0
C630 C 0.30605 0.83053 0.23226 0.0
C631 C 0.3385 0.8661 0.25027 0.0
C632 C 0.34001 0.86111 0.30266 0.0
C633 C 0.32368 0.84117 0.32009 0.0
C634 C 0.3068 0.82596 0.28505 0.0
C635 C 0.35947 0.87617 0.33792 0.0
C636 C 0.35683 0.88498 0.38275 0.0
C637 C 0.38076 0.88286 0.32537 0.0
C638 C 0.38464 0.87264 0.28128 0.0
C639 C 0.37532 0.84969 0.27693 0.0
C640 C 0.37851 0.84009 0.23465 0.0
C641 C 0.39118 0.85329 0.19669 0.0
C642 C 0.40073 0.87612 0.20098 0.0
C643 C 0.39752 0.8858 0.24309 0.0
C644 C 0.44161 0.94635 0.50084 0.0
C645 C 0.45475 0.96421 0.47101 0.0
C646 C 0.4223 0.92847 0.4779 0.0
C647 C 0.41583 0.9283 0.42491 0.0
C648 C 0.42871 0.94635 0.39565 0.0
C649 C 0.44788 0.96405 0.41831 0.0
C650 C 0.39612 0.90928 0.39846 0.0
C651 C 0.39873 0.89948 0.3554 0.0
C652 C 0.37493 0.90153 0.41318 0.0
C653 C 0.37111 0.91093 0.45875 0.0
C654 C 0.3779 0.93344 0.46226 0.0
C655 C 0.37456 0.94218 0.50589 0.0
C656 C 0.36425 0.92853 0.546 0.0
C657 C 0.35722 0.9061 0.54253 0.0
C658 C 0.36058 0.89729 0.49906 0.0
H659 H 0.36172 0.93533 0.57978 0.0
H660 H 0.39363 0.84583 0.16398 0.0
H661 H 0.45367 0.30395 0.30563 0.0
H662 H 0.45229 0.33466 0.3435 0.0
H663 H 0.50718 0.38033 0.26439 0.0
H664 H 0.50859 0.34964 0.22603 0.0
H665 H 0.51225 0.39299 0.36321 0.0
H666 H 0.45622 0.37103 0.22386 0.0
H667 H 0.42327 0.34528 0.16824 0.0
H668 H 0.38538 0.329 0.29737 0.0
H669 H 0.41818 0.35441 0.35399 0.0
H670 H 0.50356 0.48035 0.46337 0.0
H671 H 0.50285 0.45627 0.39614 0.0
H672 H 0.44751 0.40135 0.45583 0.0
H673 H 0.44764 0.42535 0.5219 0.0
H674 H 0.44428 0.39698 0.35451 0.0
H675 H 0.50189 0.41662 0.49506 0.0
H676 H 0.5352 0.44242 0.54967 0.0
H677 H 0.57083 0.46266 0.41636 0.0
H678 H 0.53755 0.43762 0.36066 0.0
C679 C 0.4653 0.32051 0.29576 0.0
C680 C 0.48122 0.32432 0.26271 0.0
C681 C 0.46448 0.33806 0.31743 0.0
C682 C 0.47945 0.3598 0.30623 0.0
C683 C 0.49545 0.3637 0.2735 0.0
C684 C 0.4963 0.34613 0.25183 0.0
C685 C 0.47883 0.37842 0.33038 0.0
C686 C 0.49752 0.39413 0.36047 0.0
C687 C 0.45954 0.37976 0.32724 0.0
C688 C 0.43972 0.36453 0.29327 0.0
C689 C 0.4409 0.36185 0.2405 0.0
C690 C 0.42224 0.34733 0.20877 0.0
C691 C 0.40225 0.33548 0.22928 0.0
C692 C 0.40088 0.33818 0.28155 0.0
C693 C 0.4195 0.35266 0.31346 0.0
C694 C 0.4909 0.46327 0.46148 0.0
C695 C 0.4759 0.45475 0.49875 0.0
C696 C 0.49059 0.44948 0.4231 0.0
C697 C 0.47552 0.42686 0.42184 0.0
C698 C 0.45943 0.4187 0.45625 0.0
C699 C 0.45956 0.4325 0.49419 0.0
C700 C 0.47755 0.41125 0.38835 0.0
C701 C 0.45912 0.39606 0.35654 0.0
C702 C 0.49712 0.41041 0.38986 0.0
C703 C 0.51712 0.42549 0.42355 0.0
C704 C 0.51676 0.42678 0.47728 0.0
C705 C 0.53563 0.44132 0.50843 0.0
C706 C 0.55508 0.45434 0.48643 0.0
C707 C 0.55571 0.45277 0.43328 0.0
C708 C 0.53683 0.43846 0.40188 0.0
H709 H 0.56969 0.46557 0.51058 0.0
H710 H 0.38782 0.32425 0.20465 0.0
H711 H 0.55111 0.85322 0.98517 0.0
H712 H 0.55043 0.88374 0.93899 0.0
H713 H 0.51882 0.84166 0.80265 0.0
H714 H 0.52109 0.81175 0.84783 0.0
H715 H 0.54652 0.87799 0.77302 0.0
H716 H 0.49198 0.85854 0.89017 0.0
H717 H 0.47805 0.85115 0.97572 0.0
H718 H 0.52481 0.91723 0.02746 0.0
H719 H 0.53921 0.92494 0.94239 0.0
H720 H 0.50129 0.956 0.69767 0.0
H721 H 0.50075 0.92748 0.75477 0.0
H722 H 0.56938 0.95345 0.74458 0.0
H723 H 0.56998 0.98165 0.68701 0.0
H724 H 0.52077 0.92442 0.84676 0.0
H725 H 0.57951 0.91204 0.73136 0.0
H726 H 0.59069 0.917 0.64304 0.0
H727 H 0.52899 0.9098 0.58218 0.0
H728 H 0.51733 0.90449 0.67 0.0
C729 C 0.54399 0.85057 0.94534 0.0
C730 C 0.53578 0.83004 0.92029 0.0
C731 C 0.54341 0.86796 0.91903 0.0
C732 C 0.53409 0.86503 0.86742 0.0
C733 C 0.52598 0.84446 0.84243 0.0
C734 C 0.52706 0.82726 0.86837 0.0
C735 C 0.53344 0.8835 0.83871 0.0
C736 C 0.54083 0.88804 0.78938 0.0
C737 C 0.52583 0.89668 0.85932 0.0
C738 C 0.51679 0.89226 0.91002 0.0
C739 C 0.49934 0.87148 0.91984 0.0
C740 C 0.49137 0.86723 0.96826 0.0
C741 C 0.50058 0.88369 0.00705 0.0
C742 C 0.51771 0.90449 0.99739 0.0
C743 C 0.52576 0.90881 0.94906 0.0
C744 C 0.51636 0.95589 0.7083 0.0
C745 C 0.53562 0.97099 0.68707 0.0
C746 C 0.51602 0.93954 0.74102 0.0
C747 C 0.53492 0.93798 0.7532 0.0
C748 C 0.55447 0.95398 0.73492 0.0
C749 C 0.55479 0.97017 0.70202 0.0
C750 C 0.53401 0.91884 0.78163 0.0
C751 C 0.52639 0.91425 0.83071 0.0
C752 C 0.54091 0.90522 0.76041 0.0
C753 C 0.54765 0.90809 0.70733 0.0
C754 C 0.5683 0.91143 0.6991 0.0
C755 C 0.57472 0.91431 0.64913 0.0
C756 C 0.56058 0.91378 0.60705 0.0
C757 C 0.53995 0.91028 0.61482 0.0
C758 C 0.53344 0.90735 0.66469 0.0
H759 H 0.56559 0.91604 0.56841 0.0
H760 H 0.49444 0.88035 0.04455 0.0
H761 H 0.68987 0.51048 0.98954 0.0
H762 H 0.66215 0.50814 0.92156 0.0
H763 H 0.71157 0.54054 0.81711 0.0
H764 H 0.7393 0.54223 0.88477 0.0
H765 H 0.67725 0.55576 0.82606 0.0
H766 H 0.68583 0.49349 0.78981 0.0
H767 H 0.68924 0.46124 0.81577 0.0
H768 H 0.62583 0.4307 0.86996 0.0
H769 H 0.62222 0.46296 0.84525 0.0
H770 H 0.58613 0.53111 0.64049 0.0
H771 H 0.6216 0.53448 0.67157 0.0
H772 H 0.59117 0.48757 0.78906 0.0
H773 H 0.55618 0.48399 0.75801 0.0
H774 H 0.62145 0.48164 0.75549 0.0
H775 H 0.61547 0.54336 0.81438 0.0
H776 H 0.61032 0.57545 0.80149 0.0
H777 H 0.6661 0.60637 0.7155 0.0
H778 H 0.6715 0.57435 0.72775 0.0
C779 C 0.69477 0.51713 0.95208 0.0
C780 C 0.71662 0.52652 0.94218 0.0
C781 C 0.67901 0.51585 0.91343 0.0
C782 C 0.68487 0.52419 0.86444 0.0
C783 C 0.70679 0.53412 0.85478 0.0
C784 C 0.72254 0.53505 0.89326 0.0
C785 C 0.6677 0.52148 0.82312 0.0
C786 C 0.66535 0.53969 0.80939 0.0
C787 C 0.65198 0.50042 0.80245 0.0
C788 C 0.65382 0.48071 0.81593 0.0
C789 C 0.67267 0.47995 0.80755 0.0
C790 C 0.67464 0.46167 0.82203 0.0
C791 C 0.65778 0.44395 0.84457 0.0
C792 C 0.63888 0.44444 0.8525 0.0
C793 C 0.63686 0.46271 0.83821 0.0
C794 C 0.58702 0.52111 0.67193 0.0
C795 C 0.56848 0.50748 0.69721 0.0
C796 C 0.60727 0.52316 0.68995 0.0
C797 C 0.60913 0.51152 0.73325 0.0
C798 C 0.59025 0.49675 0.75573 0.0
C799 C 0.57022 0.4948 0.73806 0.0
C800 C 0.63061 0.51586 0.75904 0.0
C801 C 0.63374 0.4979 0.77037 0.0
C802 C 0.64678 0.53708 0.77843 0.0
C803 C 0.64373 0.5564 0.77142 0.0
C804 C 0.62656 0.55697 0.79248 0.0
C805 C 0.6236 0.57513 0.78532 0.0
C806 C 0.6378 0.5929 0.75745 0.0
C807 C 0.65507 0.59257 0.73695 0.0
C808 C 0.65811 0.57443 0.74404 0.0
H809 H 0.63546 0.60694 0.7519 0.0
H810 H 0.65934 0.42982 0.8558 0.0
H811 H 0.19257 0.72496 0.91616 0.0
H812 H 0.16045 0.69073 0.88115 0.0
H813 H 0.16124 0.65938 0.02522 0.0
H814 H 0.1925 0.69399 0.06149 0.0
H815 H 0.15734 0.64 0.89859 0.0
H816 H 0.12811 0.66317 0.03478 0.0
H817 H 0.12651 0.69379 0.07427 0.0
H818 H 0.09745 0.70325 0.93025 0.0
H819 H 0.1003 0.67365 0.88892 0.0
H820 H 0.05883 0.54733 0.79576 0.0
H821 H 0.08657 0.57207 0.86309 0.0
H822 H 0.07299 0.62363 0.81463 0.0
H823 H 0.04476 0.59896 0.75022 0.0
H824 H 0.08352 0.62955 0.90875 0.0
H825 H 0.11282 0.61299 0.76884 0.0
H826 H 0.12006 0.59023 0.71223 0.0
H827 H 0.15178 0.57476 0.84232 0.0
H828 H 0.14419 0.59693 0.89992 0.0
C829 C 0.1856 0.71085 0.94053 0.0
C830 C 0.19453 0.71216 0.99184 0.0
C831 C 0.16749 0.69132 0.92042 0.0
C832 C 0.15846 0.6727 0.95088 0.0
C833 C 0.16792 0.67368 0.0014 0.0
C834 C 0.18566 0.69338 0.022 0.0
C835 C 0.13869 0.65248 0.93003 0.0
C836 C 0.14108 0.63727 0.90168 0.0
C837 C 0.11772 0.64961 0.93282 0.0
C838 C 0.11473 0.66639 0.95859 0.0
C839 C 0.1217 0.67199 0.0113 0.0
C840 C 0.1206 0.6892 0.03401 0.0
C841 C 0.11181 0.70041 0.00487 0.0
C842 C 0.10425 0.69454 0.95281 0.0
C843 C 0.10575 0.67765 0.92963 0.0
C844 C 0.06135 0.56375 0.80052 0.0
C845 C 0.04978 0.57123 0.76683 0.0
C846 C 0.07737 0.57796 0.83879 0.0
C847 C 0.08238 0.59999 0.8432 0.0
C848 C 0.06964 0.60682 0.81217 0.0
C849 C 0.05347 0.59262 0.77485 0.0
C850 C 0.10188 0.61669 0.87629 0.0
C851 C 0.09957 0.63156 0.90678 0.0
C852 C 0.12306 0.61969 0.87371 0.0
C853 C 0.12737 0.60612 0.839 0.0
C854 C 0.12101 0.60444 0.78555 0.0
C855 C 0.12521 0.59167 0.75323 0.0
C856 C 0.13618 0.58088 0.77373 0.0
C857 C 0.14307 0.58293 0.82654 0.0
C858 C 0.13873 0.59551 0.85908 0.0
H859 H 0.13946 0.57103 0.74864 0.0
H860 H 0.11084 0.71364 0.02264 0.0
H861 H 0.50972 0.18963 0.98852 0.0
H862 H 0.50831 0.15828 0.94542 0.0
H863 H 0.46639 0.11482 0.05527 0.0
H864 H 0.46748 0.14609 0.09799 0.0
H865 H 0.51863 0.12727 0.96957 0.0
H866 H 0.42803 0.06738 0.99258 0.0
H867 H 0.39464 0.06837 0.00583 0.0
H868 H 0.41941 0.13043 0.9318 0.0
H869 H 0.45279 0.12964 0.91751 0.0
H870 H 0.4945 0.02767 0.84407 0.0
H871 H 0.4954 0.05151 0.91258 0.0
H872 H 0.45687 0.07084 0.80911 0.0
H873 H 0.45528 0.04672 0.74151 0.0
H874 H 0.44513 0.06804 0.90105 0.0
H875 H 0.51414 0.10102 0.82687 0.0
H876 H 0.54737 0.1018 0.80404 0.0
H877 H 0.56607 0.0976 0.96423 0.0
H878 H 0.53279 0.0965 0.98793 0.0
C879 C 0.50046 0.17343 0.00388 0.0
C880 C 0.48846 0.17024 0.04613 0.0
C881 C 0.49969 0.15553 0.9793 0.0
C882 C 0.487 0.13415 0.99666 0.0
C883 C 0.47596 0.1311 0.0406 0.0
C884 C 0.47654 0.14896 0.06486 0.0
C885 C 0.48407 0.11501 0.96642 0.0
C886 C 0.50256 0.11422 0.95497 0.0
C887 C 0.46312 0.09806 0.94686 0.0
C888 C 0.44299 0.09856 0.95461 0.0
C889 C 0.4263 0.08119 0.97903 0.0
C890 C 0.40739 0.08172 0.98671 0.0
C891 C 0.40494 0.09949 0.96985 0.0
C892 C 0.42136 0.11672 0.94503 0.0
C893 C 0.44028 0.11625 0.93717 0.0
C894 C 0.48587 0.03667 0.83624 0.0
C895 C 0.47509 0.03549 0.78695 0.0
C896 C 0.4865 0.0504 0.87538 0.0
C897 C 0.4766 0.06334 0.86566 0.0
C898 C 0.46472 0.0611 0.81758 0.0
C899 C 0.4639 0.0473 0.77876 0.0
C900 C 0.47968 0.0804 0.90357 0.0
C901 C 0.4612 0.08083 0.91654 0.0
C902 C 0.50066 0.09732 0.92322 0.0
C903 C 0.52088 0.09845 0.90911 0.0
C904 C 0.5253 0.10017 0.85719 0.0
C905 C 0.54413 0.10066 0.84409 0.0
C906 C 0.55878 0.09969 0.88265 0.0
C907 C 0.55468 0.09831 0.9344 0.0
C908 C 0.53584 0.09776 0.9477 0.0
H909 H 0.57334 0.10007 0.87244 0.0
H910 H 0.3903 0.09988 0.97589 0.0
H911 H 0.29679 0.4847 0.96767 0.0
H912 H 0.32089 0.48571 0.90581 0.0
H913 H 0.37631 0.52003 0.01921 0.0
H914 H 0.35237 0.51976 0.08084 0.0
H915 H 0.38622 0.53802 0.92764 0.0
H916 H 0.35371 0.46428 0.98801 0.0
H917 H 0.32355 0.42779 0.00662 0.0
H918 H 0.29942 0.41668 0.84577 0.0
H919 H 0.3293 0.45326 0.82628 0.0
H920 H 0.46375 0.52184 0.81448 0.0
H921 H 0.43832 0.52357 0.86707 0.0
H922 H 0.38525 0.48531 0.75078 0.0
H923 H 0.41075 0.48265 0.69842 0.0
H924 H 0.37298 0.46988 0.83995 0.0
H925 H 0.40696 0.54337 0.77906 0.0
H926 H 0.43775 0.57959 0.76128 0.0
H927 H 0.45953 0.59128 0.92334 0.0
H928 H 0.42904 0.55499 0.94208 0.0
C929 C 0.31412 0.49265 0.97954 0.0
C930 C 0.32249 0.50214 0.02968 0.0
C931 C 0.32793 0.49302 0.94407 0.0
C932 C 0.35054 0.50274 0.95766 0.0
C933 C 0.35898 0.51236 0.00752 0.0
C934 C 0.34517 0.51199 0.04306 0.0
C935 C 0.36535 0.50295 0.91999 0.0
C936 C 0.38343 0.52307 0.90891 0.0
C937 C 0.36156 0.4836 0.89417 0.0
C938 C 0.3436 0.4616 0.90578 0.0
C939 C 0.34187 0.45413 0.95667 0.0
C940 C 0.32485 0.43342 0.96736 0.0
C941 C 0.30954 0.41995 0.92743 0.0
C942 C 0.31127 0.42715 0.87668 0.0
C943 C 0.32825 0.44786 0.86578 0.0
C944 C 0.44674 0.51405 0.79933 0.0
C945 C 0.43944 0.50209 0.75181 0.0
C946 C 0.4321 0.51516 0.82967 0.0
C947 C 0.40969 0.50484 0.81309 0.0
C948 C 0.40239 0.49345 0.76481 0.0
C949 C 0.41706 0.49207 0.73459 0.0
C950 C 0.39395 0.50497 0.84753 0.0
C951 C 0.3757 0.48489 0.85818 0.0
C952 C 0.39761 0.52438 0.87297 0.0
C953 C 0.41578 0.54637 0.86191 0.0
C954 C 0.41838 0.55361 0.81089 0.0
C955 C 0.43578 0.57416 0.80065 0.0
C956 C 0.45062 0.5877 0.84115 0.0
C957 C 0.44804 0.58075 0.89202 0.0
C958 C 0.43068 0.56021 0.90248 0.0
H959 H 0.4641 0.60359 0.83315 0.0
H960 H 0.29638 0.40392 0.93578 0.0
H961 H 0.85527 0.31734 0.10958 0.0
H962 H 0.88751 0.34646 0.07246 0.0
H963 H 0.85498 0.32321 0.91905 0.0
H964 H 0.82299 0.29399 0.95629 0.0
H965 H 0.89739 0.33185 0.92795 0.0
H966 H 0.85853 0.36887 0.9786 0.0
H967 H 0.84278 0.37941 0.04522 0.0
H968 H 0.90538 0.41298 0.13396 0.0
H969 H 0.92146 0.40254 0.06786 0.0
H970 H 0.95166 0.41417 0.75771 0.0
H971 H 0.92605 0.38706 0.81218 0.0
H972 H 0.96313 0.42778 0.94751 0.0
H973 H 0.9884 0.45582 0.89213 0.0
H974 H 0.92299 0.41076 0.96082 0.0
H975 H 0.96383 0.37893 0.91402 0.0
H976 H 0.98207 0.36683 0.8579 0.0
H977 H 0.92034 0.32231 0.77507 0.0
H978 H 0.90174 0.33436 0.83021 0.0
C979 C 0.85512 0.31859 0.06797 0.0
C980 C 0.83671 0.30372 0.03558 0.0
C981 C 0.87345 0.3352 0.04681 0.0
C982 C 0.87359 0.33719 0.99291 0.0
C983 C 0.85524 0.32205 0.96069 0.0
C984 C 0.83696 0.30547 0.98184 0.0
C985 C 0.89269 0.35499 0.96951 0.0
C986 C 0.90289 0.34911 0.93471 0.0
C987 C 0.90065 0.37754 0.98049 0.0
C988 C 0.89116 0.38478 0.01858 0.0
C989 C 0.86893 0.3785 0.01232 0.0
C990 C 0.85994 0.38445 0.04998 0.0
C991 C 0.87306 0.39681 0.09387 0.0
C992 C 0.89524 0.4034 0.09997 0.0
C993 C 0.9043 0.39752 0.06238 0.0
C994 C 0.95454 0.41736 0.79911 0.0
C995 C 0.97228 0.43708 0.82058 0.0
C996 C 0.93987 0.40171 0.83041 0.0
C997 C 0.94287 0.40492 0.88439 0.0
C998 C 0.96047 0.42474 0.90608 0.0
C999 C 0.97497 0.44075 0.87444 0.0
C1000 C 0.92723 0.38763 0.91725 0.0
C1001 C 0.91773 0.39356 0.95411 0.0
C1002 C 0.92032 0.36506 0.90937 0.0
C1003 C 0.9314 0.35767 0.8761 0.0
C1004 C 0.95415 0.36666 0.88363 0.0
C1005 C 0.96456 0.35979 0.85201 0.0
C1006 C 0.95238 0.34384 0.81289 0.0
C1007 C 0.92976 0.33468 0.80538 0.0
C1008 C 0.91927 0.34149 0.83687 0.0
H1009 H 0.96047 0.33855 0.78845 0.0
H1010 H 0.86605 0.4013 0.12311 0.0
H1011 H 0.80721 0.49679 0.892 0.0
H1012 H 0.83165 0.49551 0.83437 0.0
H1013 H 0.88503 0.55496 0.90717 0.0
H1014 H 0.86082 0.55619 0.96573 0.0
H1015 H 0.88549 0.55532 0.80164 0.0
H1016 H 0.87943 0.50574 0.93871 0.0
H1017 H 0.86013 0.47443 0.99464 0.0
H1018 H 0.83277 0.43056 0.86161 0.0
H1019 H 0.85168 0.4617 0.80479 0.0
H1020 H 0.9794 0.54574 0.77803 0.0
H1021 H 0.94858 0.54821 0.80423 0.0
H1022 H 0.90505 0.49696 0.69242 0.0
H1023 H 0.93626 0.49504 0.66454 0.0
H1024 H 0.89579 0.4904 0.80424 0.0
H1025 H 0.90635 0.53975 0.66816 0.0
H1026 H 0.92684 0.57121 0.61369 0.0
H1027 H 0.94668 0.61546 0.74459 0.0
H1028 H 0.92659 0.58425 0.80018 0.0
C1029 C 0.82418 0.50955 0.89618 0.0
C1030 C 0.83198 0.52649 0.93413 0.0
C1031 C 0.83813 0.50884 0.86286 0.0
C1032 C 0.86027 0.52504 0.86657 0.0
C1033 C 0.86801 0.54231 0.90333 0.0
C1034 C 0.85408 0.543 0.93681 0.0
C1035 C 0.87555 0.52351 0.83369 0.0
C1036 C 0.88781 0.54117 0.80239 0.0
C1037 C 0.87819 0.50479 0.83339 0.0
C1038 C 0.86674 0.48608 0.86746 0.0
C1039 C 0.86913 0.48945 0.92134 0.0
C1040 C 0.85829 0.47173 0.95321 0.0
C1041 C 0.84517 0.45053 0.93168 0.0
C1042 C 0.8429 0.447 0.87822 0.0
C1043 C 0.85367 0.46467 0.84617 0.0
C1044 C 0.96333 0.53541 0.75809 0.0
C1045 C 0.96016 0.52023 0.71929 0.0
C1046 C 0.94575 0.53682 0.77308 0.0
C1047 C 0.92452 0.52274 0.75041 0.0
C1048 C 0.92133 0.50801 0.7103 0.0
C1049 C 0.93912 0.507 0.69425 0.0
C1050 C 0.90585 0.52227 0.77275 0.0
C1051 C 0.89311 0.50433 0.80254 0.0
C1052 C 0.90283 0.54072 0.77169 0.0
C1053 C 0.91507 0.5596 0.73852 0.0
C1054 C 0.91525 0.55616 0.68552 0.0
C1055 C 0.92675 0.57395 0.65438 0.0
C1056 C 0.93807 0.5953 0.67566 0.0
C1057 C 0.9379 0.5989 0.72815 0.0
C1058 C 0.92643 0.58117 0.75951 0.0
H1059 H 0.94693 0.60905 0.65144 0.0
H1060 H 0.83682 0.43683 0.95642 0.0
H1061 H 0.28743 0.82452 0.86729 0.0
H1062 H 0.31062 0.8459 0.80071 0.0
H1063 H 0.36724 0.85392 0.89745 0.0
H1064 H 0.34436 0.83363 0.96526 0.0
H1065 H 0.37509 0.89147 0.85951 0.0
H1066 H 0.34413 0.81808 0.78906 0.0
H1067 H 0.31457 0.78128 0.75855 0.0
H1068 H 0.29018 0.81025 0.64233 0.0
H1069 H 0.31944 0.84726 0.67263 0.0
H1070 H 0.45369 0.92987 0.69388 0.0
H1071 H 0.42368 0.8986 0.73045 0.0
H1072 H 0.37842 0.91691 0.6553 0.0
H1073 H 0.4084 0.94843 0.61818 0.0
H1074 H 0.36319 0.86607 0.67646 0.0
H1075 H 0.39304 0.93971 0.75402 0.0
H1076 H 0.42445 0.976 0.7814 0.0
H1077 H 0.45178 0.94514 0.88384 0.0
H1078 H 0.42071 0.90862 0.85619 0.0
C1079 C 0.30484 0.83097 0.8746 0.0
C1080 C 0.31401 0.82738 0.92179 0.0
C1081 C 0.31805 0.84294 0.83615 0.0
C1082 C 0.34066 0.85131 0.84379 0.0
C1083 C 0.34982 0.84756 0.8906 0.0
C1084 C 0.33667 0.83577 0.9292 0.0
C1085 C 0.35499 0.86486 0.80423 0.0
C1086 C 0.37249 0.88573 0.81969 0.0
C1087 C 0.35141 0.85768 0.75181 0.0
C1088 C 0.33384 0.83545 0.73349 0.0
C1089 C 0.33236 0.81661 0.75728 0.0
C1090 C 0.31567 0.79572 0.73997 0.0
C1091 C 0.30047 0.79343 0.69863 0.0
C1092 C 0.30195 0.81205 0.67441 0.0
C1093 C 0.31859 0.83299 0.69161 0.0
C1094 C 0.43727 0.92685 0.6834 0.0
C1095 C 0.4335 0.94202 0.65449 0.0
C1096 C 0.42013 0.90886 0.70411 0.0
C1097 C 0.39899 0.90574 0.69603 0.0
C1098 C 0.39467 0.91909 0.66164 0.0
C1099 C 0.41187 0.93717 0.64077 0.0
C1100 C 0.38311 0.89224 0.73238 0.0
C1101 C 0.36548 0.87162 0.71633 0.0
C1102 C 0.38648 0.89952 0.7844 0.0
C1103 C 0.40468 0.92146 0.80272 0.0
C1104 C 0.40582 0.94067 0.78216 0.0
C1105 C 0.42355 0.96128 0.79771 0.0
C1106 C 0.44013 0.96287 0.83425 0.0
C1107 C 0.43894 0.94387 0.85549 0.0
C1108 C 0.42127 0.92322 0.83992 0.0
H1109 H 0.45386 0.97884 0.84616 0.0
H1110 H 0.28756 0.77724 0.68528 0.0
H1111 H 0.46552 0.30201 0.08538 0.0
H1112 H 0.46145 0.33129 0.04164 0.0
H1113 H 0.49153 0.32454 0.91236 0.0
H1114 H 0.49446 0.29449 0.95506 0.0
H1115 H 0.48831 0.36981 0.0134 0.0
H1116 H 0.47211 0.33614 0.80124 0.0
H1117 H 0.45449 0.30031 0.75442 0.0
H1118 H 0.4144 0.26991 0.87768 0.0
H1119 H 0.43151 0.30559 0.92485 0.0
H1120 H 0.50973 0.45459 0.83756 0.0
H1121 H 0.50755 0.42459 0.89073 0.0
H1122 H 0.43973 0.38427 0.83347 0.0
H1123 H 0.44222 0.41391 0.77811 0.0
H1124 H 0.45714 0.36103 0.83045 0.0
H1125 H 0.45805 0.40688 0.96269 0.0
H1126 H 0.47066 0.4409 0.01412 0.0
H1127 H 0.53194 0.44391 0.05838 0.0
H1128 H 0.51982 0.41007 0.00663 0.0
C1129 C 0.47112 0.30681 0.04747 0.0
C1130 C 0.48042 0.29626 0.02347 0.0
C1131 C 0.46891 0.32355 0.02266 0.0
C1132 C 0.47599 0.33002 0.97346 0.0
C1133 C 0.48556 0.31959 0.94985 0.0
C1134 C 0.48746 0.30262 0.97435 0.0
C1135 C 0.47349 0.34773 0.94691 0.0
C1136 C 0.48143 0.36789 0.97344 0.0
C1137 C 0.46389 0.34503 0.8953 0.0
C1138 C 0.45325 0.32353 0.86677 0.0
C1139 C 0.45946 0.32184 0.81823 0.0
C1140 C 0.44957 0.30154 0.79164 0.0
C1141 C 0.43338 0.28283 0.81312 0.0
C1142 C 0.42698 0.28439 0.86115 0.0
C1143 C 0.43679 0.30465 0.88784 0.0
C1144 C 0.49428 0.43944 0.83689 0.0
C1145 C 0.47614 0.43657 0.80369 0.0
C1146 C 0.493 0.42229 0.86753 0.0
C1147 C 0.47339 0.40216 0.86672 0.0
C1148 C 0.45507 0.39957 0.83471 0.0
C1149 C 0.45648 0.41654 0.80321 0.0
C1150 C 0.4724 0.38338 0.89652 0.0
C1151 C 0.46385 0.36298 0.87055 0.0
C1152 C 0.48068 0.38563 0.94926 0.0
C1153 C 0.48807 0.40602 0.98042 0.0
C1154 C 0.47427 0.41488 0.98307 0.0
C1155 C 0.48132 0.43412 0.01234 0.0
C1156 C 0.5021 0.44458 0.03941 0.0
C1157 C 0.51585 0.4358 0.03736 0.0
C1158 C 0.50889 0.41657 0.00811 0.0
H1159 H 0.50753 0.45948 0.06205 0.0
H1160 H 0.42577 0.26714 0.79251 0.0
H1161 H 0.18165 0.49756 0.10991 0.0
H1162 H 0.15466 0.49647 0.04144 0.0
H1163 H 0.20448 0.52504 0.93654 0.0
H1164 H 0.2311 0.52518 0.00421 0.0
H1165 H 0.14922 0.52494 0.98392 0.0
H1166 H 0.18326 0.50152 0.81706 0.0
H1167 H 0.20431 0.4829 0.80578 0.0
H1168 H 0.18203 0.44685 0.94331 0.0
H1169 H 0.16054 0.46491 0.95484 0.0
H1170 H 0.09025 0.53076 0.76356 0.0
H1171 H 0.12308 0.53583 0.81574 0.0
H1172 H 0.09782 0.46583 0.81073 0.0
H1173 H 0.06541 0.46076 0.7562 0.0
H1174 H 0.14047 0.48606 0.81865 0.0
H1175 H 0.08684 0.49068 0.90536 0.0
H1176 H 0.06201 0.50443 0.92101 0.0
H1177 H 0.11667 0.56905 0.9549 0.0
H1178 H 0.14187 0.55583 0.93802 0.0
C1179 C 0.18677 0.50393 0.0724 0.0
C1180 C 0.20835 0.51175 0.06218 0.0
C1181 C 0.17144 0.50332 0.03343 0.0
C1182 C 0.17754 0.51046 0.98377 0.0
C1183 C 0.19938 0.51919 0.97436 0.0
C1184 C 0.2146 0.51952 0.01306 0.0
C1185 C 0.16085 0.50769 0.94114 0.0
C1186 C 0.14739 0.51655 0.9477 0.0
C1187 C 0.15806 0.49617 0.89445 0.0
C1188 C 0.17048 0.48477 0.88707 0.0
C1189 C 0.18276 0.48952 0.84471 0.0
C1190 C 0.19477 0.47907 0.83829 0.0
C1191 C 0.19456 0.46376 0.87389 0.0
C1192 C 0.18223 0.45876 0.91583 0.0
C1193 C 0.17013 0.4691 0.92232 0.0
C1194 C 0.0921 0.51656 0.7721 0.0
C1195 C 0.07529 0.49534 0.75663 0.0
C1196 C 0.11077 0.51947 0.80204 0.0
C1197 C 0.11252 0.50119 0.8185 0.0
C1198 C 0.09671 0.48016 0.79884 0.0
C1199 C 0.07822 0.47727 0.76768 0.0
C1200 C 0.12915 0.50371 0.86105 0.0
C1201 C 0.14251 0.49469 0.85462 0.0
C1202 C 0.13126 0.51432 0.90873 0.0
C1203 C 0.11623 0.5223 0.91985 0.0
C1204 C 0.09357 0.50786 0.91576 0.0
C1205 C 0.07944 0.51557 0.92476 0.0
C1206 C 0.08777 0.53763 0.93867 0.0
C1207 C 0.11027 0.552 0.94382 0.0
C1208 C 0.12448 0.54441 0.9345 0.0
H1209 H 0.07681 0.54358 0.94562 0.0
H1210 H 0.20392 0.45573 0.86892 0.0
H1211 H 0.73894 0.1698 0.93819 0.0
H1212 H 0.71209 0.14155 0.87463 0.0
H1213 H 0.66084 0.14823 0.93264 0.0
H1214 H 0.68725 0.17581 0.9962 0.0
H1215 H 0.6492 0.10575 0.91766 0.0
H1216 H 0.68421 0.17445 0.82207 0.0
H1217 H 0.71619 0.20546 0.78787 0.0
H1218 H 0.72818 0.16026 0.70839 0.0
H1219 H 0.69629 0.12899 0.74233 0.0
H1220 H 0.55827 0.07304 0.75047 0.0
H1221 H 0.59351 0.09795 0.7976 0.0
H1222 H 0.62534 0.07654 0.69959 0.0
H1223 H 0.58996 0.05213 0.65074 0.0
H1224 H 0.65128 0.12038 0.73005 0.0
H1225 H 0.61154 0.05191 0.81125 0.0
H1226 H 0.57884 0.02108 0.84325 0.0
H1227 H 0.5762 0.0649 0.95082 0.0
H1228 H 0.6087 0.09605 0.919 0.0
C1229 C 0.72188 0.16495 0.93758 0.0
C1230 C 0.71514 0.17508 0.97163 0.0
C1231 C 0.70664 0.149 0.90115 0.0
C1232 C 0.68454 0.14299 0.8987 0.0
C1233 C 0.67781 0.15265 0.93383 0.0
C1234 C 0.69293 0.16851 0.96988 0.0
C1235 C 0.66803 0.12703 0.85936 0.0
C1236 C 0.64968 0.10889 0.87663 0.0
C1237 C 0.66905 0.13068 0.80571 0.0
C1238 C 0.68807 0.14944 0.78515 0.0
C1239 C 0.69376 0.17115 0.79753 0.0
C1240 C 0.71183 0.18876 0.77813 0.0
C1241 C 0.72426 0.18483 0.74614 0.0
C1242 C 0.7186 0.16328 0.73335 0.0
C1243 C 0.7005 0.14562 0.75253 0.0
C1244 C 0.57289 0.07414 0.73814 0.0
C1245 C 0.57158 0.06076 0.69733 0.0
C1246 C 0.59295 0.08824 0.76514 0.0
C1247 C 0.61188 0.08855 0.75298 0.0
C1248 C 0.61086 0.07639 0.70972 0.0
C1249 C 0.59073 0.06256 0.68181 0.0
C1250 C 0.632 0.0999 0.78887 0.0
C1251 C 0.65101 0.11692 0.77093 0.0
C1252 C 0.6317 0.09517 0.84209 0.0
C1253 C 0.61256 0.07633 0.86263 0.0
C1254 C 0.60397 0.05498 0.84168 0.0
C1255 C 0.58546 0.03745 0.85976 0.0
C1256 C 0.57545 0.04103 0.89905 0.0
C1257 C 0.58399 0.06214 0.92046 0.0
C1258 C 0.60249 0.07974 0.9025 0.0
H1259 H 0.56109 0.02745 0.91291 0.0
H1260 H 0.73824 0.19848 0.73113 0.0
H1261 H 0.51935 0.68273 0.89865 0.0
H1262 H 0.52538 0.65213 0.88345 0.0
H1263 H 0.59054 0.68864 0.96013 0.0
H1264 H 0.58435 0.71893 0.97854 0.0
H1265 H 0.58346 0.66971 0.85157 0.0
H1266 H 0.56336 0.65047 0.02253 0.0
H1267 H 0.54095 0.64468 0.09395 0.0
H1268 H 0.48511 0.59335 0.00482 0.0
H1269 H 0.50705 0.59911 0.93238 0.0
H1270 H 0.57997 0.57917 0.7454 0.0
H1271 H 0.58928 0.60363 0.82072 0.0
H1272 H 0.52085 0.58043 0.82856 0.0
H1273 H 0.51157 0.55491 0.75644 0.0
H1274 H 0.54032 0.59492 0.91864 0.0
H1275 H 0.55391 0.62363 0.74397 0.0
H1276 H 0.57165 0.63011 0.66353 0.0
H1277 H 0.63462 0.6639 0.75065 0.0
H1278 H 0.61719 0.65743 0.83163 0.0
C1279 C 0.53484 0.68419 0.91321 0.0
C1280 C 0.55136 0.70336 0.93975 0.0
C1281 C 0.53824 0.6667 0.90441 0.0
C1282 C 0.55828 0.66818 0.92134 0.0
C1283 C 0.57493 0.68727 0.94721 0.0
C1284 C 0.57142 0.70464 0.95694 0.0
C1285 C 0.56207 0.65024 0.90799 0.0
C1286 C 0.57466 0.65346 0.86728 0.0
C1287 C 0.55014 0.62912 0.92812 0.0
C1288 C 0.53689 0.62528 0.97191 0.0
C1289 C 0.54627 0.63804 0.01798 0.0
C1290 C 0.53364 0.63476 0.05867 0.0
C1291 C 0.51161 0.61868 0.05387 0.0
C1292 C 0.50218 0.60581 0.00843 0.0
C1293 C 0.51472 0.60905 0.96757 0.0
C1294 C 0.56698 0.57881 0.76458 0.0
C1295 C 0.54512 0.56568 0.74457 0.0
C1296 C 0.57227 0.59277 0.80748 0.0
C1297 C 0.55581 0.59451 0.82893 0.0
C1298 C 0.53389 0.57957 0.81246 0.0
C1299 C 0.52858 0.56508 0.77088 0.0
C1300 C 0.56094 0.61414 0.86037 0.0
C1301 C 0.54998 0.6113 0.9044 0.0
C1302 C 0.57381 0.63563 0.84228 0.0
C1303 C 0.58429 0.63984 0.79372 0.0
C1304 C 0.57154 0.6324 0.74587 0.0
C1305 C 0.58152 0.63605 0.70025 0.0
C1306 C 0.60425 0.64735 0.702 0.0
C1307 C 0.61702 0.6551 0.74938 0.0
C1308 C 0.60711 0.65145 0.79513 0.0
H1309 H 0.61195 0.65014 0.66665 0.0
H1310 H 0.50186 0.61618 0.08538 0.0
H1311 H 0.48448 0.20187 0.35382 0.0
H1312 H 0.48724 0.17032 0.38798 0.0
H1313 H 0.49433 0.15392 0.23494 0.0
H1314 H 0.49134 0.1854 0.20088 0.0
H1315 H 0.46698 0.1176 0.28393 0.0
H1316 H 0.53813 0.17876 0.31993 0.0
H1317 H 0.56564 0.21615 0.35197 0.0
H1318 H 0.54825 0.19865 0.50639 0.0
H1319 H 0.52033 0.16126 0.47513 0.0
H1320 H 0.52552 0.06766 0.4705 0.0
H1321 H 0.52666 0.09516 0.40939 0.0
H1322 H 0.4594 0.07405 0.42644 0.0
H1323 H 0.45803 0.04642 0.48675 0.0
H1324 H 0.5219 0.12912 0.43157 0.0
H1325 H 0.43507 0.08323 0.3186 0.0
H1326 H 0.40906 0.04611 0.28211 0.0
H1327 H 0.46156 0.03308 0.27268 0.0
H1328 H 0.48794 0.07022 0.30834 0.0
C1329 C 0.48654 0.1914 0.32775 0.0
C1330 C 0.48775 0.19582 0.27508 0.0
C1331 C 0.4882 0.17351 0.34712 0.0
C1332 C 0.49125 0.15995 0.31404 0.0
C1333 C 0.49203 0.1642 0.26107 0.0
C1334 C 0.49039 0.18211 0.24174 0.0
C1335 C 0.49381 0.14148 0.33516 0.0
C1336 C 0.47903 0.12008 0.31605 0.0
C1337 C 0.51001 0.14484 0.37591 0.0
C1338 C 0.52703 0.16722 0.3951 0.0
C1339 C 0.54007 0.18292 0.36068 0.0
C1340 C 0.55575 0.20411 0.3787 0.0
C1341 C 0.55868 0.20977 0.43118 0.0
C1342 C 0.54596 0.19423 0.46575 0.0
C1343 C 0.53022 0.17303 0.4479 0.0
C1344 C 0.51083 0.06851 0.46032 0.0
C1345 C 0.49171 0.05489 0.48372 0.0
C1346 C 0.51155 0.08432 0.42557 0.0
C1347 C 0.49311 0.08662 0.4132 0.0
C1348 C 0.47375 0.0724 0.43481 0.0
C1349 C 0.47304 0.05667 0.4696 0.0
C1350 C 0.49447 0.1051 0.38181 0.0
C1351 C 0.51002 0.12659 0.39899 0.0
C1352 C 0.47924 0.1018 0.33865 0.0
C1353 C 0.46348 0.0795 0.31653 0.0
C1354 C 0.4411 0.0725 0.30848 0.0
C1355 C 0.42628 0.05144 0.28799 0.0
C1356 C 0.43365 0.03723 0.27521 0.0
C1357 C 0.45586 0.04408 0.28276 0.0
C1358 C 0.47075 0.06513 0.30318 0.0
H1359 H 0.42214 0.02093 0.25939 0.0
H1360 H 0.57082 0.22619 0.44506 0.0
H1361 H 0.28514 0.50534 0.40332 0.0
H1362 H 0.31017 0.50572 0.4767 0.0
H1363 H 0.33717 0.47982 0.37566 0.0
H1364 H 0.31251 0.47964 0.30308 0.0
H1365 H 0.33282 0.46122 0.47086 0.0
H1366 H 0.36113 0.53549 0.39821 0.0
H1367 H 0.35874 0.56883 0.37823 0.0
H1368 H 0.35169 0.57622 0.53735 0.0
H1369 H 0.3541 0.54293 0.55818 0.0
H1370 H 0.44189 0.50585 0.46572 0.0
H1371 H 0.40515 0.50027 0.45516 0.0
H1372 H 0.40887 0.51293 0.61825 0.0
H1373 H 0.44612 0.51851 0.62959 0.0
H1374 H 0.39139 0.53588 0.53112 0.0
H1375 H 0.37792 0.46791 0.60301 0.0
H1376 H 0.38406 0.43648 0.6166 0.0
H1377 H 0.36412 0.41731 0.45608 0.0
H1378 H 0.35824 0.44886 0.44126 0.0
C1379 C 0.29611 0.49925 0.39751 0.0
C1380 C 0.29675 0.49208 0.34814 0.0
C1381 C 0.31039 0.49953 0.43916 0.0
C1382 C 0.32547 0.49272 0.43161 0.0
C1383 C 0.32547 0.48485 0.38255 0.0
C1384 C 0.31139 0.48471 0.34113 0.0
C1385 C 0.34289 0.49567 0.47241 0.0
C1386 C 0.34542 0.47747 0.48506 0.0
C1387 C 0.35904 0.51678 0.49218 0.0
C1388 C 0.35754 0.53667 0.4796 0.0
C1389 C 0.35897 0.5442 0.42883 0.0
C1390 C 0.35766 0.56309 0.41739 0.0
C1391 C 0.35496 0.57457 0.45644 0.0
C1392 C 0.35371 0.56727 0.5071 0.0
C1393 C 0.3551 0.54843 0.51878 0.0
C1394 C 0.4351 0.50766 0.49949 0.0
C1395 C 0.44693 0.51254 0.54859 0.0
C1396 C 0.41405 0.50438 0.49334 0.0
C1397 C 0.40435 0.50605 0.53595 0.0
C1398 C 0.41616 0.51152 0.58501 0.0
C1399 C 0.43733 0.51459 0.59138 0.0
C1400 C 0.38168 0.50158 0.52728 0.0
C1401 C 0.37821 0.51946 0.51998 0.0
C1402 C 0.36469 0.48018 0.5123 0.0
C1403 C 0.36764 0.46079 0.52105 0.0
C1404 C 0.37493 0.45705 0.57053 0.0
C1405 C 0.37837 0.43921 0.57846 0.0
C1406 C 0.37447 0.4249 0.53723 0.0
C1407 C 0.36709 0.42839 0.48801 0.0
C1408 C 0.36365 0.44623 0.47984 0.0
H1409 H 0.37717 0.41111 0.54343 0.0
H1410 H 0.35389 0.58916 0.44749 0.0
H1411 H 0.84686 0.35067 0.19428 0.0
H1412 H 0.87778 0.38545 0.23094 0.0
H1413 H 0.87679 0.35464 0.37698 0.0
H1414 H 0.84627 0.31983 0.34022 0.0
H1415 H 0.87976 0.39872 0.37886 0.0
H1416 H 0.9099 0.35659 0.30346 0.0
H1417 H 0.91415 0.33918 0.22762 0.0
H1418 H 0.94173 0.40085 0.15156 0.0
H1419 H 0.93709 0.41849 0.22642 0.0
H1420 H 0.98463 0.43297 0.52218 0.0
H1421 H 0.96096 0.41401 0.444 0.0
H1422 H 0.95181 0.4695 0.41092 0.0
H1423 H 0.97508 0.4884 0.48917 0.0
H1424 H 0.95406 0.42051 0.33473 0.0
H1425 H 0.89539 0.44625 0.39109 0.0
H1426 H 0.8899 0.46476 0.46281 0.0
H1427 H 0.91896 0.43769 0.57217 0.0
H1428 H 0.92402 0.4185 0.5012 0.0
C1429 C 0.8532 0.35151 0.23435 0.0
C1430 C 0.84436 0.33281 0.26479 0.0
C1431 C 0.87075 0.37126 0.25506 0.0
C1432 C 0.87933 0.37246 0.30653 0.0
C1433 C 0.87017 0.35391 0.33721 0.0
C1434 C 0.85292 0.33411 0.3163 0.0
C1435 C 0.89857 0.3926 0.32863 0.0
C1436 C 0.89599 0.40381 0.36861 0.0
C1437 C 0.91959 0.39933 0.31441 0.0
C1438 C 0.92293 0.38879 0.27025 0.0
C1439 C 0.9167 0.36639 0.27038 0.0
C1440 C 0.91915 0.35647 0.22754 0.0
C1441 C 0.92807 0.36887 0.18463 0.0
C1442 C 0.93469 0.39124 0.18464 0.0
C1443 C 0.93214 0.40119 0.22725 0.0
C1444 C 0.97807 0.44141 0.49763 0.0
C1445 C 0.98132 0.462 0.51269 0.0
C1446 C 0.96475 0.43064 0.45262 0.0
C1447 C 0.95448 0.4403 0.42227 0.0
C1448 C 0.95958 0.4618 0.43407 0.0
C1449 C 0.97285 0.47255 0.47909 0.0
C1450 C 0.93528 0.42617 0.38613 0.0
C1451 C 0.93781 0.41603 0.34367 0.0
C1452 C 0.9141 0.4206 0.3975 0.0
C1453 C 0.91036 0.43124 0.44082 0.0
C1454 C 0.9005 0.44418 0.43048 0.0
C1455 C 0.89747 0.45478 0.47098 0.0
C1456 C 0.90427 0.45258 0.52197 0.0
C1457 C 0.91381 0.43949 0.53264 0.0
C1458 C 0.9167 0.42869 0.49231 0.0
H1459 H 0.90206 0.46095 0.55322 0.0
H1460 H 0.92993 0.36117 0.15147 0.0
H1461 H 0.56457 0.85382 0.22929 0.0
H1462 H 0.56572 0.88566 0.26803 0.0
H1463 H 0.51529 0.8803 0.15196 0.0
H1464 H 0.51478 0.84893 0.11137 0.0
H1465 H 0.54661 0.92212 0.16771 0.0
H1466 H 0.50323 0.86358 0.27345 0.0
H1467 H 0.49292 0.831 0.32675 0.0
H1468 H 0.54905 0.86843 0.43519 0.0
H1469 H 0.5599 0.90117 0.38213 0.0
H1470 H 0.52481 0.98965 0.33596 0.0
H1471 H 0.52391 0.96334 0.27438 0.0
H1472 H 0.57989 0.96567 0.36197 0.0
H1473 H 0.58096 0.99185 0.42355 0.0
H1474 H 0.54133 0.92442 0.35584 0.0
H1475 H 0.58432 0.98331 0.24476 0.0
H1476 H 0.59232 0.01521 0.1905 0.0
H1477 H 0.53333 0.97616 0.09163 0.0
H1478 H 0.52479 0.94409 0.1458 0.0
C1479 C 0.55382 0.85948 0.21181 0.0
C1480 C 0.53953 0.84884 0.16748 0.0
C1481 C 0.55435 0.87755 0.23423 0.0
C1482 C 0.54035 0.88509 0.21327 0.0
C1483 C 0.52612 0.87461 0.16884 0.0
C1484 C 0.52568 0.85657 0.14612 0.0
C1485 C 0.54084 0.90402 0.23804 0.0
C1486 C 0.54511 0.92255 0.2087 0.0
C1487 C 0.5389 0.90449 0.29146 0.0
C1488 C 0.53247 0.8848 0.32354 0.0
C1489 C 0.51348 0.86483 0.30844 0.0
C1490 C 0.50752 0.84633 0.33865 0.0
C1491 C 0.52035 0.84763 0.38427 0.0
C1492 C 0.53914 0.86744 0.39982 0.0
C1493 C 0.54519 0.88598 0.36971 0.0
C1494 C 0.53736 0.98512 0.34116 0.0
C1495 C 0.55267 0.99241 0.3852 0.0
C1496 C 0.53683 0.97013 0.30589 0.0
C1497 C 0.55169 0.96248 0.3142 0.0
C1498 C 0.56822 0.97135 0.35531 0.0
C1499 C 0.56875 0.98624 0.39049 0.0
C1500 C 0.54796 0.94278 0.28602 0.0
C1501 C 0.54276 0.92397 0.31481 0.0
C1502 C 0.54868 0.94202 0.23212 0.0
C1503 C 0.55377 0.96136 0.19979 0.0
C1504 C 0.57291 0.98158 0.21183 0.0
C1505 C 0.57758 0.99968 0.18099 0.0
C1506 C 0.5633 0.99774 0.13776 0.0
C1507 C 0.54435 0.97766 0.1252 0.0
C1508 C 0.5396 0.95951 0.15596 0.0
H1509 H 0.56696 0.01177 0.1139 0.0
H1510 H 0.5157 0.83329 0.40762 0.0
H1511 H 0.70418 0.5013 0.28725 0.0
H1512 H 0.6784 0.50052 0.34397 0.0
H1513 H 0.67165 0.54909 0.25169 0.0
H1514 H 0.69798 0.55041 0.19598 0.0
H1515 H 0.6724 0.55862 0.34562 0.0
H1516 H 0.6323 0.49196 0.24444 0.0
H1517 H 0.62433 0.45652 0.20666 0.0
H1518 H 0.6237 0.43106 0.3586 0.0
H1519 H 0.63198 0.46647 0.39733 0.0
H1520 H 0.55478 0.50274 0.4262 0.0
H1521 H 0.5817 0.50155 0.37752 0.0
H1522 H 0.63271 0.54194 0.49585 0.0
H1523 H 0.60589 0.54392 0.54411 0.0
H1524 H 0.60948 0.48778 0.38863 0.0
H1525 H 0.67866 0.57693 0.44086 0.0
H1526 H 0.68283 0.61258 0.4664 0.0
H1527 H 0.61905 0.59338 0.39148 0.0
H1528 H 0.61461 0.55776 0.36498 0.0
C1529 C 0.69715 0.51177 0.27901 0.0
C1530 C 0.70308 0.52585 0.23694 0.0
C1531 C 0.68233 0.51128 0.31142 0.0
C1532 C 0.67267 0.52447 0.30188 0.0
C1533 C 0.67881 0.53874 0.26017 0.0
C1534 C 0.69388 0.53949 0.22824 0.0
C1535 C 0.65618 0.52341 0.33512 0.0
C1536 C 0.65871 0.54308 0.35508 0.0
C1537 C 0.63793 0.50324 0.34691 0.0
C1538 C 0.63301 0.48195 0.32378 0.0
C1539 C 0.63064 0.47886 0.26981 0.0
C1540 C 0.62604 0.45877 0.24822 0.0
C1541 C 0.62358 0.44157 0.28022 0.0
C1542 C 0.62566 0.44441 0.33387 0.0
C1543 C 0.6303 0.46448 0.35566 0.0
C1544 C 0.57168 0.51121 0.44237 0.0
C1545 C 0.57814 0.52371 0.4889 0.0
C1546 C 0.58711 0.51046 0.41437 0.0
C1547 C 0.60937 0.52198 0.43234 0.0
C1548 C 0.61572 0.5333 0.48047 0.0
C1549 C 0.60031 0.53429 0.50827 0.0
C1550 C 0.62587 0.52294 0.39944 0.0
C1551 C 0.62331 0.50327 0.37953 0.0
C1552 C 0.64363 0.54314 0.38608 0.0
C1553 C 0.64623 0.56459 0.4015 0.0
C1554 C 0.66556 0.58035 0.42975 0.0
C1555 C 0.66796 0.60054 0.4444 0.0
C1556 C 0.65119 0.6052 0.43074 0.0
C1557 C 0.632 0.58971 0.40223 0.0
C1558 C 0.62952 0.56951 0.38744 0.0
H1559 H 0.65308 0.62083 0.44213 0.0
H1560 H 0.62 0.42602 0.26343 0.0
H1561 H 0.17654 0.68594 0.19498 0.0
H1562 H 0.14531 0.66056 0.24042 0.0
H1563 H 0.15431 0.7144 0.33604 0.0
H1564 H 0.18575 0.73979 0.29132 0.0
H1565 H 0.14859 0.67921 0.39228 0.0
H1566 H 0.11257 0.69246 0.24017 0.0
H1567 H 0.10179 0.69376 0.14756 0.0
H1568 H 0.0797 0.62501 0.12826 0.0
H1569 H 0.09044 0.62331 0.22069 0.0
H1570 H 0.05167 0.61945 0.51095 0.0
H1571 H 0.07828 0.64709 0.4583 0.0
H1572 H 0.07048 0.59603 0.35474 0.0
H1573 H 0.04361 0.56832 0.40634 0.0
H1574 H 0.07493 0.63099 0.3024 0.0
H1575 H 0.11195 0.6173 0.45084 0.0
H1576 H 0.12054 0.61424 0.54384 0.0
H1577 H 0.14105 0.68233 0.56938 0.0
H1578 H 0.13228 0.6857 0.47655 0.0
C1579 C 0.17196 0.6923 0.22602 0.0
C1580 C 0.18359 0.7148 0.23979 0.0
C1581 C 0.15398 0.67785 0.25147 0.0
C1582 C 0.14735 0.68568 0.29109 0.0
C1583 C 0.1591 0.70808 0.30532 0.0
C1584 C 0.177 0.72255 0.27972 0.0
C1585 C 0.1287 0.67036 0.31916 0.0
C1586 C 0.1324 0.66892 0.37275 0.0
C1587 C 0.10775 0.6565 0.29339 0.0
C1588 C 0.10246 0.6578 0.23727 0.0
C1589 C 0.10567 0.67769 0.21605 0.0
C1590 C 0.09946 0.67846 0.16365 0.0
C1591 C 0.09001 0.65946 0.13212 0.0
C1592 C 0.08697 0.6397 0.15277 0.0
C1593 C 0.09308 0.63881 0.20515 0.0
C1594 C 0.05532 0.61409 0.4765 0.0
C1595 C 0.04569 0.59162 0.46327 0.0
C1596 C 0.07062 0.62992 0.44662 0.0
C1597 C 0.07667 0.62354 0.40332 0.0
C1598 C 0.06612 0.60127 0.38821 0.0
C1599 C 0.05077 0.58545 0.41788 0.0
C1600 C 0.09484 0.63987 0.37536 0.0
C1601 C 0.0911 0.64141 0.3219 0.0
C1602 C 0.11583 0.65364 0.40109 0.0
C1603 C 0.12123 0.65169 0.45686 0.0
C1604 C 0.11813 0.63157 0.47635 0.0
C1605 C 0.12306 0.62979 0.52902 0.0
C1606 C 0.13127 0.64806 0.56253 0.0
C1607 C 0.13464 0.66818 0.54339 0.0
C1608 C 0.12971 0.67004 0.49076 0.0
H1609 H 0.13508 0.64665 0.60329 0.0
H1610 H 0.08496 0.66001 0.09172 0.0
loop_
_geom_bond_atom_site_label_1
_geom_bond_atom_site_label_2
_geom_bond_distance
_geom_bond_site_symmetry_2
_ccdc_geom_bond_type
C0 C1 1.443 . S
C0 N4 1.376 . S
C0 C38 1.389 . S
C1 C0 1.443 . S
C1 C2 1.340 . S
C1 H41 0.951 . S
C2 C1 1.340 . S
C2 C3 1.439 . S
C2 H42 0.950 . S
C3 C2 1.439 . S
C3 N4 1.374 . S
C3 C37 1.395 . S
N4 C0 1.376 . S
N4 C3 1.374 . S
N4 Co5 2.008 . S
Co5 N4 2.008 . S
Co5 N6 1.995 . S
Co5 N11 2.008 . S
Co5 N16 1.995 . S
Co5 N21 2.282 . S
Co5 N27 2.282 . S
N6 Co5 1.995 . S
N6 C7 1.376 . S
N6 C10 1.383 . S
C7 N6 1.376 . S
C7 C8 1.446 . S
C7 C37 1.391 . S
C8 C7 1.446 . S
C8 C9 1.339 . S
C8 H43 0.949 . S
C9 C8 1.339 . S
C9 C10 1.439 . S
C9 H44 0.950 . S
C10 N6 1.383 . S
C10 C9 1.439 . S
C10 C39 1.392 . S
N11 Co5 2.008 . S
N11 C12 1.376 . S
N11 C15 1.374 . S
C12 N11 1.376 . S
C12 C13 1.443 . S
C12 C39 1.389 . S
C13 C12 1.443 . S
C13 C14 1.340 . S
C13 H45 0.951 . S
C14 C13 1.340 . S
C14 C15 1.439 . S
C14 H46 0.950 . S
C15 N11 1.374 . S
C15 C14 1.439 . S
C15 C40 1.395 . S
N16 Co5 1.995 . S
N16 C17 1.376 . S
N16 C20 1.383 . S
C17 N16 1.376 . S
C17 C18 1.446 . S
C17 C40 1.391 . S
C18 C17 1.446 . S
C18 C19 1.339 . S
C18 H47 0.949 . S
C19 C18 1.339 . S
C19 C20 1.439 . S
C19 H48 0.950 . S
C20 N16 1.383 . S
C20 C19 1.439 . S
C20 C38 1.392 . S
N21 Co5 2.282 . S
N21 C24 1.332 . S
N21 C26 1.332 . S
C22 C23 1.386 . S
C22 C25 1.388 . S
C23 C22 1.386 . S
C23 C24 1.382 . S
C23 H49 0.950 . S
C24 N21 1.332 . S
C24 C23 1.382 . S
C24 H35 0.952 . S
C25 C22 1.388 . S
C25 C26 1.382 . S
C25 H50 0.950 . S
C26 N21 1.332 . S
C26 C25 1.382 . S
C26 H36 0.948 . S
N27 Co5 2.282 . S
N27 C31 1.332 . S
N27 C32 1.332 . S
C28 C29 1.388 . S
C28 C32 1.382 . S
C28 H51 0.950 . S
C29 C28 1.388 . S
C29 C30 1.386 . S
C30 C29 1.386 . S
C30 C31 1.382 . S
C30 H52 0.950 . S
C31 N27 1.332 . S
C31 C30 1.382 . S
C31 H33 0.952 . S
C32 N27 1.332 . S
C32 C28 1.382 . S
C32 H34 0.948 . S
H33 C31 0.952 . S
H34 C32 0.948 . S
H35 C24 0.952 . S
H36 C26 0.948 . S
C37 C3 1.395 . S
C37 C7 1.391 . S
C38 C0 1.389 . S
C38 C20 1.392 . S
C39 C10 1.392 . S
C39 C12 1.389 . S
C40 C15 1.395 . S
C40 C17 1.391 . S
H41 C1 0.951 . S
H42 C2 0.950 . S
H43 C8 0.949 . S
H44 C9 0.950 . S
H45 C13 0.951 . S
H46 C14 0.950 . S
H47 C18 0.949 . S
H48 C19 0.950 . S
H49 C23 0.950 . S
H50 C25 0.950 . S
H51 C28 0.950 . S
H52 C30 0.950 . S
C53 C54 1.443 . S
C53 N57 1.376 . S
C53 C91 1.389 . S
C54 C53 1.443 . S
C54 C55 1.340 . S
C54 H94 0.951 . S
C55 C54 1.340 . S
C55 C56 1.439 . S
C55 H95 0.950 . S
C56 C55 1.439 . S
C56 N57 1.374 . S
C56 C90 1.395 . S
N57 C53 1.376 . S
N57 C56 1.374 . S
N57 Co58 2.008 . S
Co58 N57 2.008 . S
Co58 N59 1.995 . S
Co58 N64 2.008 . S
Co58 N69 1.995 . S
Co58 N74 2.282 . S
Co58 N80 2.282 . S
N59 Co58 1.995 . S
N59 C60 1.376 . S
N59 C63 1.383 . S
C60 N59 1.376 . S
C60 C61 1.446 . S
C60 C90 1.391 . S
C61 C60 1.446 . S
C61 C62 1.339 . S
C61 H96 0.949 . S
C62 C61 1.339 . S
C62 C63 1.439 . S
C62 H97 0.950 . S
C63 N59 1.383 . S
C63 C62 1.439 . S
C63 C92 1.392 . S
N64 Co58 2.008 . S
N64 C65 1.376 . S
N64 C68 1.374 . S
C65 N64 1.376 . S
C65 C66 1.443 . S
C65 C92 1.389 . S
C66 C65 1.443 . S
C66 C67 1.340 . S
C66 H98 0.951 . S
C67 C66 1.340 . S
C67 C68 1.439 . S
C67 H99 0.950 . S
C68 N64 1.374 . S
C68 C67 1.439 . S
C68 C93 1.395 . S
N69 Co58 1.995 . S
N69 C70 1.376 . S
N69 C73 1.383 . S
C70 N69 1.376 . S
C70 C71 1.446 . S
C70 C93 1.391 . S
C71 C70 1.446 . S
C71 C72 1.339 . S
C71 H100 0.949 . S
C72 C71 1.339 . S
C72 C73 1.439 . S
C72 H101 0.950 . S
C73 N69 1.383 . S
C73 C72 1.439 . S
C73 C91 1.392 . S
N74 Co58 2.282 . S
N74 C77 1.332 . S
N74 C79 1.332 . S
C75 C76 1.386 . S
C75 C78 1.388 . S
C76 C75 1.386 . S
C76 C77 1.382 . S
C76 H102 0.950 . S
C77 N74 1.332 . S
C77 C76 1.382 . S
C77 H88 0.952 . S
C78 C75 1.388 . S
C78 C79 1.382 . S
C78 H103 0.950 . S
C79 N74 1.332 . S
C79 C78 1.382 . S
C79 H89 0.948 . S
N80 Co58 2.282 . S
N80 C84 1.332 . S
N80 C85 1.332 . S
C81 C82 1.388 . S
C81 C85 1.382 . S
C81 H104 0.950 . S
C82 C81 1.388 . S
C82 C83 1.386 . S
C83 C82 1.386 . S
C83 C84 1.382 . S
C83 H105 0.950 . S
C84 N80 1.332 . S
C84 C83 1.382 . S
C84 H86 0.952 . S
C85 N80 1.332 . S
C85 C81 1.382 . S
C85 H87 0.948 . S
H86 C84 0.952 . S
H87 C85 0.948 . S
H88 C77 0.952 . S
H89 C79 0.948 . S
C90 C56 1.395 . S
C90 C60 1.391 . S
C91 C53 1.389 . S
C91 C73 1.392 . S
C92 C63 1.392 . S
C92 C65 1.389 . S
C93 C68 1.395 . S
C93 C70 1.391 . S
H94 C54 0.951 . S
H95 C55 0.950 . S
H96 C61 0.949 . S
H97 C62 0.950 . S
H98 C66 0.951 . S
H99 C67 0.950 . S
H100 C71 0.949 . S
H101 C72 0.950 . S
H102 C76 0.950 . S
H103 C78 0.950 . S
H104 C81 0.950 . S
H105 C83 0.950 . S
C106 C107 1.443 . S
C106 N110 1.376 . S
C106 C144 1.389 . S
C107 C106 1.443 . S
C107 C108 1.340 . S
C107 H147 0.951 . S
C108 C107 1.340 . S
C108 C109 1.439 . S
C108 H148 0.950 . S
C109 C108 1.439 . S
C109 N110 1.374 . S
C109 C143 1.395 . S
N110 C106 1.376 . S
N110 C109 1.374 . S
N110 Co111 2.008 . S
Co111 N110 2.008 . S
Co111 N112 1.995 1_554 S
Co111 N117 2.008 1_554 S
Co111 N122 1.995 . S
Co111 N127 2.282 . S
Co111 N133 2.282 1_554 S
N112 Co111 1.995 1_556 S
N112 C113 1.376 . S
N112 C116 1.383 . S
C113 N112 1.376 . S
C113 C114 1.446 . S
C113 C143 1.391 1_556 S
C114 C113 1.446 . S
C114 C115 1.339 . S
C114 H149 0.949 . S
C115 C114 1.339 . S
C115 C116 1.439 . S
C115 H150 0.950 . S
C116 N112 1.383 . S
C116 C115 1.439 . S
C116 C145 1.392 . S
N117 Co111 2.008 1_556 S
N117 C118 1.376 . S
N117 C121 1.374 . S
C118 N117 1.376 . S
C118 C119 1.443 . S
C118 C145 1.389 . S
C119 C118 1.443 . S
C119 C120 1.340 . S
C119 H151 0.951 . S
C120 C119 1.340 . S
C120 C121 1.439 . S
C120 H152 0.950 . S
C121 N117 1.374 . S
C121 C120 1.439 . S
C121 C146 1.395 1_556 S
N122 Co111 1.995 . S
N122 C123 1.376 . S
N122 C126 1.383 . S
C123 N122 1.376 . S
C123 C124 1.446 . S
C123 C146 1.391 . S
C124 C123 1.446 . S
C124 C125 1.339 . S
C124 H153 0.949 . S
C125 C124 1.339 . S
C125 C126 1.439 . S
C125 H154 0.950 . S
C126 N122 1.383 . S
C126 C125 1.439 . S
C126 C144 1.392 . S
N127 Co111 2.282 . S
N127 C130 1.332 . S
N127 C132 1.332 . S
C128 C129 1.386 . S
C128 C131 1.388 . S
C129 C128 1.386 . S
C129 C130 1.382 . S
C129 H155 0.950 . S
C130 N127 1.332 . S
C130 C129 1.382 . S
C130 H141 0.952 . S
C131 C128 1.388 . S
C131 C132 1.382 . S
C131 H156 0.950 . S
C132 N127 1.332 . S
C132 C131 1.382 . S
C132 H142 0.948 . S
N133 Co111 2.282 1_556 S
N133 C137 1.332 . S
N133 C138 1.332 . S
C134 C135 1.388 . S
C134 C138 1.382 . S
C134 H157 0.950 . S
C135 C134 1.388 . S
C135 C136 1.386 . S
C136 C135 1.386 . S
C136 C137 1.382 . S
C136 H158 0.950 . S
C137 N133 1.332 . S
C137 C136 1.382 . S
C137 H139 0.952 . S
C138 N133 1.332 . S
C138 C134 1.382 . S
C138 H140 0.948 . S
H139 C137 0.952 . S
H140 C138 0.948 . S
H141 C130 0.952 . S
H142 C132 0.948 . S
C143 C109 1.395 . S
C143 C113 1.391 1_554 S
C144 C106 1.389 . S
C144 C126 1.392 . S
C145 C116 1.392 . S
C145 C118 1.389 . S
C146 C121 1.395 1_554 S
C146 C123 1.391 . S
H147 C107 0.951 . S
H148 C108 0.950 . S
H149 C114 0.949 . S
H150 C115 0.950 . S
H151 C119 0.951 . S
H152 C120 0.950 . S
H153 C124 0.949 . S
H154 C125 0.950 . S
H155 C129 0.950 . S
H156 C131 0.950 . S
H157 C134 0.950 . S
H158 C136 0.950 . S
C159 C160 1.443 . S
C159 N163 1.376 . S
C159 C197 1.389 . S
C160 C159 1.443 . S
C160 C161 1.340 . S
C160 H200 0.951 . S
C161 C160 1.340 . S
C161 C162 1.439 . S
C161 H201 0.950 . S
C162 C161 1.439 . S
C162 N163 1.374 . S
C162 C196 1.395 . S
N163 C159 1.376 . S
N163 C162 1.374 . S
N163 Co164 2.008 . S
Co164 N163 2.008 . S
Co164 N165 1.995 . S
Co164 N170 2.008 . S
Co164 N175 1.995 . S
Co164 N180 2.282 . S
Co164 N186 2.282 . S
N165 Co164 1.995 . S
N165 C166 1.376 . S
N165 C169 1.383 . S
C166 N165 1.376 . S
C166 C167 1.446 . S
C166 C196 1.391 . S
C167 C166 1.446 . S
C167 C168 1.339 1_554 S
C167 H202 0.949 . S
C168 C167 1.339 1_556 S
C168 C169 1.439 1_556 S
C168 H203 0.950 . S
C169 N165 1.383 . S
C169 C168 1.439 1_554 S
C169 C198 1.392 1_554 S
N170 Co164 2.008 . S
N170 C171 1.376 . S
N170 C174 1.374 . S
C171 N170 1.376 . S
C171 C172 1.443 1_554 S
C171 C198 1.389 1_554 S
C172 C171 1.443 1_556 S
C172 C173 1.340 1_556 S
C172 H204 0.951 . S
C173 C172 1.340 1_554 S
C173 C174 1.439 . S
C173 H205 0.950 . S
C174 N170 1.374 . S
C174 C173 1.439 . S
C174 C199 1.395 . S
N175 Co164 1.995 . S
N175 C176 1.376 . S
N175 C179 1.383 . S
C176 N175 1.376 . S
C176 C177 1.446 . S
C176 C199 1.391 . S
C177 C176 1.446 . S
C177 C178 1.339 . S
C177 H206 0.949 . S
C178 C177 1.339 . S
C178 C179 1.439 . S
C178 H207 0.950 . S
C179 N175 1.383 . S
C179 C178 1.439 . S
C179 C197 1.392 . S
N180 Co164 2.282 . S
N180 C183 1.332 . S
N180 C185 1.332 . S
C181 C182 1.386 . S
C181 C184 1.388 . S
C182 C181 1.386 . S
C182 C183 1.382 . S
C182 H208 0.950 . S
C183 N180 1.332 . S
C183 C182 1.382 . S
C183 H194 0.952 . S
C184 C181 1.388 . S
C184 C185 1.382 . S
C184 H209 0.950 . S
C185 N180 1.332 . S
C185 C184 1.382 . S
C185 H195 0.948 . S
N186 Co164 2.282 . S
N186 C190 1.332 1_554 S
N186 C191 1.332 . S
C187 C188 1.388 . S
C187 C191 1.382 1_556 S
C187 H210 0.950 . S
C188 C187 1.388 . S
C188 C189 1.386 . S
C189 C188 1.386 . S
C189 C190 1.382 . S
C189 H211 0.950 . S
C190 N186 1.332 1_556 S
C190 C189 1.382 . S
C190 H192 0.952 1_556 S
C191 N186 1.332 . S
C191 C187 1.382 1_554 S
C191 H193 0.948 . S
H192 C190 0.952 1_554 S
H193 C191 0.948 . S
H194 C183 0.952 . S
H195 C185 0.948 . S
C196 C162 1.395 . S
C196 C166 1.391 . S
C197 C159 1.389 . S
C197 C179 1.392 . S
C198 C169 1.392 1_556 S
C198 C171 1.389 1_556 S
C199 C174 1.395 . S
C199 C176 1.391 . S
H200 C160 0.951 . S
H201 C161 0.950 . S
H202 C167 0.949 . S
H203 C168 0.950 . S
H204 C172 0.951 . S
H205 C173 0.950 . S
H206 C177 0.949 . S
H207 C178 0.950 . S
H208 C182 0.950 . S
H209 C184 0.950 . S
H210 C187 0.950 . S
H211 C189 0.950 . S
C212 C213 1.443 . S
C212 N216 1.376 . S
C212 C250 1.389 . S
C213 C212 1.443 . S
C213 C214 1.340 . S
C213 H253 0.951 . S
C214 C213 1.340 . S
C214 C215 1.439 . S
C214 H254 0.950 . S
C215 C214 1.439 . S
C215 N216 1.374 . S
C215 C249 1.395 . S
N216 C212 1.376 . S
N216 C215 1.374 . S
N216 Co217 2.008 . S
Co217 N216 2.008 . S
Co217 N218 1.995 . S
Co217 N223 2.008 . S
Co217 N228 1.995 . S
Co217 N233 2.282 . S
Co217 N239 2.282 . S
N218 Co217 1.995 . S
N218 C219 1.376 . S
N218 C222 1.383 . S
C219 N218 1.376 . S
C219 C220 1.446 . S
C219 C249 1.391 . S
C220 C219 1.446 . S
C220 C221 1.339 1_554 S
C220 H255 0.949 1_554 S
C221 C220 1.339 1_556 S
C221 C222 1.439 1_556 S
C221 H256 0.950 . S
C222 N218 1.383 . S
C222 C221 1.439 1_554 S
C222 C251 1.392 . S
N223 Co217 2.008 . S
N223 C224 1.376 . S
N223 C227 1.374 . S
C224 N223 1.376 . S
C224 C225 1.443 . S
C224 C251 1.389 . S
C225 C224 1.443 . S
C225 C226 1.340 . S
C225 H257 0.943 1_554 S
C226 C225 1.340 . S
C226 C227 1.439 . S
C226 H258 0.950 . S
C227 N223 1.374 . S
C227 C226 1.439 . S
C227 C252 1.395 . S
N228 Co217 1.995 . S
N228 C229 1.376 . S
N228 C232 1.383 . S
C229 N228 1.376 . S
C229 C230 1.446 . S
C229 C252 1.391 . S
C230 C229 1.446 . S
C230 C231 1.339 . S
C230 H259 0.949 . S
C231 C230 1.339 . S
C231 C232 1.439 . S
C231 H260 0.950 . S
C232 N228 1.383 . S
C232 C231 1.439 . S
C232 C250 1.392 . S
N233 Co217 2.282 . S
N233 C236 1.332 . S
N233 C238 1.332 . S
C234 C235 1.386 . S
C234 C237 1.388 . S
C235 C234 1.386 . S
C235 C236 1.382 . S
C235 H261 0.950 . S
C236 N233 1.332 . S
C236 C235 1.382 . S
C236 H247 0.952 . S
C237 C234 1.388 . S
C237 C238 1.382 . S
C237 H262 0.950 . S
C238 N233 1.332 . S
C238 C237 1.382 . S
C238 H248 0.948 . S
N239 Co217 2.282 . S
N239 C243 1.332 1_554 S
N239 C244 1.332 . S
C240 C241 1.388 . S
C240 C244 1.382 1_556 S
C240 H263 0.950 . S
C241 C240 1.388 . S
C241 C242 1.386 . S
C242 C241 1.386 . S
C242 C243 1.382 . S
C242 H264 0.950 . S
C243 N239 1.332 1_556 S
C243 C242 1.382 . S
C243 H245 0.952 . S
C244 N239 1.332 . S
C244 C240 1.382 1_554 S
C244 H246 0.948 . S
H245 C243 0.952 . S
H246 C244 0.948 . S
H247 C236 0.952 . S
H248 C238 0.948 . S
C249 C215 1.395 . S
C249 C219 1.391 . S
C250 C212 1.389 . S
C250 C232 1.392 . S
C251 C222 1.392 . S
C251 C224 1.389 . S
C252 C227 1.395 . S
C252 C229 1.391 . S
H253 C213 0.951 . S
H254 C214 0.950 . S
H255 C220 0.949 1_556 S
H256 C221 0.950 . S
H257 C225 0.943 1_556 S
H258 C226 0.950 . S
H259 C230 0.949 . S
H260 C231 0.950 . S
H261 C235 0.950 . S
H262 C237 0.950 . S
H263 C240 0.950 . S
H264 C242 0.950 . S
C265 C266 1.443 . S
C265 N269 1.376 . S
C265 C303 1.389 . S
C266 C265 1.443 . S
C266 C267 1.340 . S
C266 H306 0.951 . S
C267 C266 1.340 . S
C267 C268 1.439 . S
C267 H307 0.950 . S
C268 C267 1.439 . S
C268 N269 1.374 . S
C268 C302 1.395 . S
N269 C265 1.376 . S
N269 C268 1.374 . S
N269 Co270 2.008 . S
Co270 N269 2.008 . S
Co270 N271 1.995 . S
Co270 N276 2.008 . S
Co270 N281 1.995 . S
Co270 N286 2.282 . S
Co270 N292 2.282 . S
N271 Co270 1.995 . S
N271 C272 1.376 . S
N271 C275 1.383 . S
C272 N271 1.376 . S
C272 C273 1.446 . S
C272 C302 1.391 . S
C273 C272 1.446 . S
C273 C274 1.339 . S
C273 H308 0.949 . S
C274 C273 1.339 . S
C274 C275 1.439 . S
C274 H309 0.950 . S
C275 N271 1.383 . S
C275 C274 1.439 . S
C275 C304 1.392 . S
N276 Co270 2.008 . S
N276 C277 1.376 . S
N276 C280 1.374 . S
C277 N276 1.376 . S
C277 C278 1.443 . S
C277 C304 1.389 . S
C278 C277 1.443 . S
C278 C279 1.340 . S
C278 H310 0.951 . S
C279 C278 1.340 . S
C279 C280 1.439 . S
C279 H311 0.950 . S
C280 N276 1.374 . S
C280 C279 1.439 . S
C280 C305 1.395 . S
N281 Co270 1.995 . S
N281 C282 1.376 . S
N281 C285 1.383 . S
C282 N281 1.376 . S
C282 C283 1.446 . S
C282 C305 1.391 . S
C283 C282 1.446 . S
C283 C284 1.339 . S
C283 H312 0.949 . S
C284 C283 1.339 . S
C284 C285 1.439 . S
C284 H313 0.950 . S
C285 N281 1.383 . S
C285 C284 1.439 . S
C285 C303 1.392 . S
N286 Co270 2.282 . S
N286 C289 1.332 . S
N286 C291 1.332 . S
C287 C288 1.386 . S
C287 C290 1.388 . S
C288 C287 1.386 . S
C288 C289 1.382 . S
C288 H314 0.950 . S
C289 N286 1.332 . S
C289 C288 1.382 . S
C289 H300 0.952 . S
C290 C287 1.388 . S
C290 C291 1.382 . S
C290 H315 0.950 . S
C291 N286 1.332 . S
C291 C290 1.382 . S
C291 H301 0.948 . S
N292 Co270 2.282 . S
N292 C296 1.332 . S
N292 C297 1.332 . S
C293 C294 1.388 . S
C293 C297 1.382 . S
C293 H316 0.950 . S
C294 C293 1.388 . S
C294 C295 1.386 . S
C295 C294 1.386 . S
C295 C296 1.382 . S
C295 H317 0.950 . S
C296 N292 1.332 . S
C296 C295 1.382 . S
C296 H298 0.952 . S
C297 N292 1.332 . S
C297 C293 1.382 . S
C297 H299 0.948 . S
H298 C296 0.952 . S
H299 C297 0.948 . S
H300 C289 0.952 . S
H301 C291 0.948 . S
C302 C268 1.395 . S
C302 C272 1.391 . S
C303 C265 1.389 . S
C303 C285 1.392 . S
C304 C275 1.392 . S
C304 C277 1.389 . S
C305 C280 1.395 . S
C305 C282 1.391 . S
H306 C266 0.951 . S
H307 C267 0.950 . S
H308 C273 0.949 . S
H309 C274 0.950 . S
H310 C278 0.951 . S
H311 C279 0.950 . S
H312 C283 0.949 . S
H313 C284 0.950 . S
H314 C288 0.950 . S
H315 C290 0.950 . S
H316 C293 0.950 . S
H317 C295 0.950 . S
C318 O330 1.241 . S
C318 O331 1.280 . S
C319 O332 1.277 . S
C319 O333 1.245 . S
C320 O344 1.247 . S
C320 O346 1.289 . S
Mg321 O322 1.926 . S
Mg321 O331 1.984 1_455 S
Mg321 O333 1.988 . S
Mg321 O334 2.061 1_455 S
O322 Mg321 1.926 . S
O322 Mg323 1.986 . S
O322 Mg324 1.917 . S
Mg323 O322 1.986 . S
Mg323 O330 2.042 1_455 S
Mg323 O332 2.041 . S
Mg323 O338 2.038 1_455 S
Mg323 O346 2.238 . S
Mg324 O322 1.917 . S
Mg324 O325 1.917 . S
Mg324 O335 2.106 1_455 S
Mg324 O337 2.079 1_455 S
Mg324 O346 2.106 . S
Mg324 O347 2.079 . S
O325 Mg324 1.917 . S
O325 Mg326 1.926 . S
O325 Mg327 1.986 . S
Mg326 O325 1.926 . S
Mg326 O340 1.984 . S
Mg326 O343 1.988 1_455 S
Mg326 O344 2.061 . S
Mg327 O325 1.986 . S
Mg327 O335 2.238 1_455 S
Mg327 O339 2.042 . S
Mg327 O341 2.041 1_455 S
Mg327 O348 2.038 . S
C328 O334 1.247 . S
C328 O335 1.289 . S
C329 O347 1.245 . S
C329 O348 1.274 . S
O330 C318 1.241 . S
O330 Mg323 2.042 1_655 S
O331 C318 1.280 . S
O331 Mg321 1.984 1_655 S
O332 C319 1.277 . S
O332 Mg323 2.041 . S
O333 C319 1.245 . S
O333 Mg321 1.988 . S
O334 Mg321 2.061 1_655 S
O334 C328 1.247 . S
O335 Mg324 2.106 1_655 S
O335 Mg327 2.238 1_655 S
O335 C328 1.289 . S
C336 O337 1.245 . S
C336 O338 1.274 . S
O337 Mg324 2.079 1_655 S
O337 C336 1.245 . S
O338 Mg323 2.038 1_655 S
O338 C336 1.274 . S
O339 Mg327 2.042 . S
O339 C342 1.241 . S
O340 Mg326 1.984 . S
O340 C342 1.280 . S
O341 Mg327 2.041 1_655 S
O341 C345 1.277 . S
C342 O339 1.241 . S
C342 O340 1.280 . S
O343 Mg326 1.988 1_655 S
O343 C345 1.245 . S
O344 C320 1.247 . S
O344 Mg326 2.061 . S
C345 O341 1.277 . S
C345 O343 1.245 . S
O346 C320 1.289 . S
O346 Mg323 2.238 . S
O346 Mg324 2.106 . S
O347 Mg324 2.079 . S
O347 C329 1.245 . S
O348 Mg327 2.038 . S
O348 C329 1.274 . S
C349 O361 1.241 . S
C349 O362 1.280 . S
C350 O363 1.277 . S
C350 O364 1.245 . S
C351 O375 1.247 . S
C351 O377 1.289 . S
Mg352 O353 1.926 . S
Mg352 O362 1.984 . S
Mg352 O364 1.988 1_545 S
Mg352 O365 2.061 . S
O353 Mg352 1.926 . S
O353 Mg354 1.986 . S
O353 Mg355 1.917 . S
Mg354 O353 1.986 . S
Mg354 O361 2.042 . S
Mg354 O363 2.041 1_545 S
Mg354 O369 2.038 . S
Mg354 O377 2.238 1_545 S
Mg355 O353 1.917 . S
Mg355 O356 1.917 . S
Mg355 O366 2.106 . S
Mg355 O368 2.079 . S
Mg355 O377 2.106 1_545 S
Mg355 O378 2.079 1_545 S
O356 Mg355 1.917 . S
O356 Mg357 1.926 . S
O356 Mg358 1.986 . S
Mg357 O356 1.926 . S
Mg357 O371 1.984 1_545 S
Mg357 O374 1.988 . S
Mg357 O375 2.061 1_545 S
Mg358 O356 1.986 . S
Mg358 O366 2.238 . S
Mg358 O370 2.042 1_545 S
Mg358 O372 2.041 . S
Mg358 O379 2.038 1_545 S
C359 O365 1.247 . S
C359 O366 1.289 . S
C360 O378 1.245 . S
C360 O379 1.274 . S
O361 C349 1.241 . S
O361 Mg354 2.042 . S
O362 C349 1.280 . S
O362 Mg352 1.984 . S
O363 C350 1.277 . S
O363 Mg354 2.041 1_565 S
O364 C350 1.245 . S
O364 Mg352 1.988 1_565 S
O365 Mg352 2.061 . S
O365 C359 1.247 . S
O366 Mg355 2.106 . S
O366 Mg358 2.238 . S
O366 C359 1.289 . S
C367 O368 1.245 . S
C367 O369 1.274 . S
O368 Mg355 2.079 . S
O368 C367 1.245 . S
O369 Mg354 2.038 . S
O369 C367 1.274 . S
O370 Mg358 2.042 1_565 S
O370 C373 1.241 . S
O371 Mg357 1.984 1_565 S
O371 C373 1.280 . S
O372 Mg358 2.041 . S
O372 C376 1.277 . S
C373 O370 1.241 . S
C373 O371 1.280 . S
O374 Mg357 1.988 . S
O374 C376 1.245 . S
O375 C351 1.247 . S
O375 Mg357 2.061 1_565 S
C376 O372 1.277 . S
C376 O374 1.245 . S
O377 C351 1.289 . S
O377 Mg354 2.238 1_565 S
O377 Mg355 2.106 1_565 S
O378 Mg355 2.079 1_565 S
O378 C360 1.245 . S
O379 Mg358 2.038 1_565 S
O379 C360 1.274 . S
C380 O392 1.241 . S
C380 O393 1.280 . S
C381 O394 1.277 . S
C381 O395 1.245 . S
C382 O406 1.247 . S
C382 O408 1.289 . S
Mg383 O384 1.926 . S
Mg383 O393 1.984 . S
Mg383 O395 1.988 . S
Mg383 O396 2.061 . S
O384 Mg383 1.926 . S
O384 Mg385 1.986 . S
O384 Mg386 1.917 . S
Mg385 O384 1.986 . S
Mg385 O392 2.042 . S
Mg385 O394 2.041 . S
Mg385 O400 2.038 . S
Mg385 O408 2.238 . S
Mg386 O384 1.917 . S
Mg386 O387 1.917 . S
Mg386 O397 2.106 . S
Mg386 O399 2.079 . S
Mg386 O408 2.106 . S
Mg386 O409 2.079 . S
O387 Mg386 1.917 . S
O387 Mg388 1.926 . S
O387 Mg389 1.986 . S
Mg388 O387 1.926 . S
Mg388 O402 1.984 . S
Mg388 O405 1.988 . S
Mg388 O406 2.061 . S
Mg389 O387 1.986 . S
Mg389 O397 2.238 . S
Mg389 O401 2.042 . S
Mg389 O403 2.041 . S
Mg389 O410 2.038 . S
C390 O396 1.247 . S
C390 O397 1.289 . S
C391 O409 1.245 . S
C391 O410 1.274 . S
O392 C380 1.241 . S
O392 Mg385 2.042 . S
O393 C380 1.280 . S
O393 Mg383 1.984 . S
O394 C381 1.277 . S
O394 Mg385 2.041 . S
O395 C381 1.245 . S
O395 Mg383 1.988 . S
O396 Mg383 2.061 . S
O396 C390 1.247 . S
O397 Mg386 2.106 . S
O397 Mg389 2.238 . S
O397 C390 1.289 . S
C398 O399 1.245 . S
C398 O400 1.274 . S
O399 Mg386 2.079 . S
O399 C398 1.245 . S
O400 Mg385 2.038 . S
O400 C398 1.274 . S
O401 Mg389 2.042 . S
O401 C404 1.241 . S
O402 Mg388 1.984 . S
O402 C404 1.280 . S
O403 Mg389 2.041 . S
O403 C407 1.277 . S
C404 O401 1.241 . S
C404 O402 1.280 . S
O405 Mg388 1.988 . S
O405 C407 1.245 . S
O406 C382 1.247 . S
O406 Mg388 2.061 . S
C407 O403 1.277 . S
C407 O405 1.245 . S
O408 C382 1.289 . S
O408 Mg385 2.238 . S
O408 Mg386 2.106 . S
O409 Mg386 2.079 . S
O409 C391 1.245 . S
O410 Mg389 2.038 . S
O410 C391 1.274 . S
H411 C429 0.951 . S
H412 C431 0.951 . S
H413 C433 0.950 . S
H414 C434 0.950 . S
H415 C436 0.950 . S
H416 C439 0.950 . S
H417 C440 0.950 . S
H418 C442 0.950 . S
H419 C443 0.950 . S
H420 C444 0.951 . S
H421 C446 0.951 . S
H422 C448 0.950 . S
H423 C449 0.950 . S
H424 C451 0.950 . S
H425 C454 0.950 . S
H426 C455 0.950 . S
H427 C457 0.950 . S
H428 C458 0.950 . S
C429 H411 0.951 . S
C429 C430 1.366 . S
C429 C431 1.388 . S
C430 C429 1.366 . S
C430 C434 1.385 . S
C431 H412 0.951 . S
C431 C429 1.388 . S
C431 C432 1.366 . S
C432 C431 1.366 . S
C432 C433 1.414 . S
C432 C435 1.499 . S
C433 H413 0.950 . S
C433 C432 1.414 . S
C433 C434 1.374 . S
C434 H414 0.950 . S
C434 C430 1.385 . S
C434 C433 1.374 . S
C435 C432 1.499 . S
C435 C436 1.373 . S
C435 C437 1.389 . S
C436 H415 0.950 . S
C436 C435 1.373 . S
C436 C452 1.377 . S
C437 C435 1.389 . S
C437 C438 1.524 . S
C437 C451 1.377 . S
C438 C437 1.524 . S
C438 C439 1.397 . S
C438 C443 1.363 . S
C439 H416 0.950 . S
C439 C438 1.397 . S
C439 C440 1.334 . S
C440 H417 0.950 . S
C440 C439 1.334 . S
C440 C441 1.287 . S
C441 C440 1.287 . S
C441 C442 1.524 . S
C441 H460 0.913 . S
C442 H418 0.950 . S
C442 C441 1.524 . S
C442 C443 1.415 . S
C443 H419 0.950 . S
C443 C438 1.363 . S
C443 C442 1.415 . S
C444 H420 0.951 . S
C444 C445 1.366 . S
C444 C446 1.388 . S
C445 C444 1.366 . S
C445 C449 1.385 . S
C446 H421 0.951 . S
C446 C444 1.388 . S
C446 C447 1.366 . S
C447 C446 1.366 . S
C447 C448 1.414 . S
C447 C450 1.499 . S
C448 H422 0.950 . S
C448 C447 1.414 . S
C448 C449 1.374 . S
C449 H423 0.950 . S
C449 C445 1.385 . S
C449 C448 1.374 . S
C450 C447 1.499 . S
C450 C451 1.373 . S
C450 C452 1.389 . S
C451 H424 0.950 . S
C451 C437 1.377 . S
C451 C450 1.373 . S
C452 C436 1.377 . S
C452 C450 1.389 . S
C452 C453 1.524 . S
C453 C452 1.524 . S
C453 C454 1.397 . S
C453 C458 1.363 . S
C454 H425 0.950 . S
C454 C453 1.397 . S
C454 C455 1.334 . S
C455 H426 0.950 . S
C455 C454 1.334 . S
C455 C456 1.287 . S
C456 C455 1.287 . S
C456 C457 1.524 . S
C456 H459 0.999 . S
C457 H427 0.950 . S
C457 C456 1.524 . S
C457 C458 1.415 . S
C458 H428 0.950 . S
C458 C453 1.363 . S
C458 C457 1.415 . S
H459 C456 0.999 . S
H460 C441 0.913 . S
H461 C479 0.951 . S
H462 C481 0.951 . S
H463 C483 0.950 . S
H464 C484 0.950 . S
H465 C486 0.950 . S
H466 C489 0.950 . S
H467 C490 0.950 . S
H468 C492 0.950 . S
H469 C493 0.950 . S
H470 C494 0.951 . S
H471 C496 0.951 . S
H472 C498 0.950 . S
H473 C499 0.950 . S
H474 C501 0.950 . S
H475 C504 0.950 . S
H476 C505 0.950 . S
H477 C507 0.950 . S
H478 C508 0.950 . S
C479 H461 0.951 . S
C479 C480 1.366 . S
C479 C481 1.388 . S
C480 C479 1.366 . S
C480 C484 1.385 . S
C481 H462 0.951 . S
C481 C479 1.388 . S
C481 C482 1.366 . S
C482 C481 1.366 . S
C482 C483 1.414 . S
C482 C485 1.499 . S
C483 H463 0.950 . S
C483 C482 1.414 . S
C483 C484 1.374 . S
C484 H464 0.950 . S
C484 C480 1.385 . S
C484 C483 1.374 . S
C485 C482 1.499 . S
C485 C486 1.373 . S
C485 C487 1.389 . S
C486 H465 0.950 . S
C486 C485 1.373 . S
C486 C502 1.377 . S
C487 C485 1.389 . S
C487 C488 1.524 . S
C487 C501 1.377 . S
C488 C487 1.524 . S
C488 C489 1.397 . S
C488 C493 1.363 . S
C489 H466 0.950 . S
C489 C488 1.397 . S
C489 C490 1.334 . S
C490 H467 0.950 . S
C490 C489 1.334 . S
C490 C491 1.287 . S
C491 C490 1.287 . S
C491 C492 1.524 . S
C491 H510 0.913 . S
C492 H468 0.950 . S
C492 C491 1.524 . S
C492 C493 1.415 . S
C493 H469 0.950 . S
C493 C488 1.363 . S
C493 C492 1.415 . S
C494 H470 0.951 . S
C494 C495 1.366 . S
C494 C496 1.388 . S
C495 C494 1.366 . S
C495 C499 1.385 . S
C496 H471 0.951 . S
C496 C494 1.388 . S
C496 C497 1.366 . S
C497 C496 1.366 . S
C497 C498 1.414 . S
C497 C500 1.499 . S
C498 H472 0.950 . S
C498 C497 1.414 . S
C498 C499 1.374 . S
C499 H473 0.950 . S
C499 C495 1.385 . S
C499 C498 1.374 . S
C500 C497 1.499 . S
C500 C501 1.373 . S
C500 C502 1.389 . S
C501 H474 0.950 . S
C501 C487 1.377 . S
C501 C500 1.373 . S
C502 C486 1.377 . S
C502 C500 1.389 . S
C502 C503 1.524 . S
C503 C502 1.524 . S
C503 C504 1.397 . S
C503 C508 1.363 . S
C504 H475 0.950 . S
C504 C503 1.397 . S
C504 C505 1.334 . S
C505 H476 0.950 . S
C505 C504 1.334 . S
C505 C506 1.287 . S
C506 C505 1.287 . S
C506 C507 1.524 . S
C506 H509 0.999 . S
C507 H477 0.950 . S
C507 C506 1.524 . S
C507 C508 1.415 . S
C508 H478 0.950 . S
C508 C503 1.363 . S
C508 C507 1.415 . S
H509 C506 0.999 . S
H510 C491 0.913 . S
H511 C529 0.951 . S
H512 C531 0.951 . S
H513 C533 0.950 . S
H514 C534 0.950 . S
H515 C536 0.950 . S
H516 C539 0.950 . S
H517 C540 0.950 . S
H518 C542 0.950 . S
H519 C543 0.950 . S
H520 C544 0.951 . S
H521 C546 0.951 . S
H522 C548 0.950 . S
H523 C549 0.950 . S
H524 C551 0.950 . S
H525 C554 0.950 . S
H526 C555 0.950 . S
H527 C557 0.950 . S
H528 C558 0.950 . S
C529 H511 0.951 . S
C529 C530 1.366 . S
C529 C531 1.388 . S
C530 C529 1.366 . S
C530 C534 1.385 . S
C531 H512 0.951 . S
C531 C529 1.388 . S
C531 C532 1.366 . S
C532 C531 1.366 . S
C532 C533 1.414 . S
C532 C535 1.499 . S
C533 H513 0.950 . S
C533 C532 1.414 . S
C533 C534 1.374 . S
C534 H514 0.950 . S
C534 C530 1.385 . S
C534 C533 1.374 . S
C535 C532 1.499 . S
C535 C536 1.373 . S
C535 C537 1.389 . S
C536 H515 0.950 . S
C536 C535 1.373 . S
C536 C552 1.377 . S
C537 C535 1.389 . S
C537 C538 1.524 . S
C537 C551 1.377 . S
C538 C537 1.524 . S
C538 C539 1.397 . S
C538 C543 1.363 . S
C539 H516 0.950 . S
C539 C538 1.397 . S
C539 C540 1.334 . S
C540 H517 0.950 . S
C540 C539 1.334 . S
C540 C541 1.287 . S
C541 C540 1.287 . S
C541 C542 1.524 . S
C541 H560 0.913 . S
C542 H518 0.950 . S
C542 C541 1.524 . S
C542 C543 1.415 . S
C543 H519 0.950 . S
C543 C538 1.363 . S
C543 C542 1.415 . S
C544 H520 0.951 . S
C544 C545 1.366 . S
C544 C546 1.388 . S
C545 C544 1.366 . S
C545 C549 1.385 . S
C546 H521 0.951 . S
C546 C544 1.388 . S
C546 C547 1.366 . S
C547 C546 1.366 . S
C547 C548 1.414 . S
C547 C550 1.499 . S
C548 H522 0.950 . S
C548 C547 1.414 . S
C548 C549 1.374 . S
C549 H523 0.950 . S
C549 C545 1.385 . S
C549 C548 1.374 . S
C550 C547 1.499 . S
C550 C551 1.373 . S
C550 C552 1.389 . S
C551 H524 0.950 . S
C551 C537 1.377 . S
C551 C550 1.373 . S
C552 C536 1.377 . S
C552 C550 1.389 . S
C552 C553 1.524 . S
C553 C552 1.524 . S
C553 C554 1.397 . S
C553 C558 1.363 . S
C554 H525 0.950 . S
C554 C553 1.397 . S
C554 C555 1.334 . S
C555 H526 0.950 . S
C555 C554 1.334 . S
C555 C556 1.287 . S
C556 C555 1.287 . S
C556 C557 1.524 . S
C556 H559 0.999 . S
C557 H527 0.950 . S
C557 C556 1.524 . S
C557 C558 1.415 . S
C558 H528 0.950 . S
C558 C553 1.363 . S
C558 C557 1.415 . S
H559 C556 0.999 . S
H560 C541 0.913 . S
H561 C579 0.951 . S
H562 C581 0.951 . S
H563 C583 0.950 . S
H564 C584 0.950 . S
H565 C586 0.950 . S
H566 C589 0.950 . S
H567 C590 0.950 . S
H568 C592 0.950 . S
H569 C593 0.950 . S
H570 C594 0.951 . S
H571 C596 0.951 . S
H572 C598 0.950 . S
H573 C599 0.950 . S
H574 C601 0.950 . S
H575 C604 0.950 . S
H576 C605 0.950 . S
H577 C607 0.950 . S
H578 C608 0.950 . S
C579 H561 0.951 . S
C579 C580 1.366 . S
C579 C581 1.388 . S
C580 C579 1.366 . S
C580 C584 1.385 . S
C581 H562 0.951 . S
C581 C579 1.388 . S
C581 C582 1.366 . S
C582 C581 1.366 . S
C582 C583 1.414 . S
C582 C585 1.499 . S
C583 H563 0.950 . S
C583 C582 1.414 . S
C583 C584 1.374 . S
C584 H564 0.950 . S
C584 C580 1.385 . S
C584 C583 1.374 . S
C585 C582 1.499 . S
C585 C586 1.373 . S
C585 C587 1.389 . S
C586 H565 0.950 . S
C586 C585 1.373 . S
C586 C602 1.377 . S
C587 C585 1.389 . S
C587 C588 1.524 . S
C587 C601 1.377 . S
C588 C587 1.524 . S
C588 C589 1.397 . S
C588 C593 1.363 . S
C589 H566 0.950 . S
C589 C588 1.397 . S
C589 C590 1.334 . S
C590 H567 0.950 . S
C590 C589 1.334 . S
C590 C591 1.287 . S
C591 C590 1.287 . S
C591 C592 1.524 . S
C591 H610 0.913 . S
C592 H568 0.950 . S
C592 C591 1.524 . S
C592 C593 1.415 . S
C593 H569 0.950 . S
C593 C588 1.363 . S
C593 C592 1.415 . S
C594 H570 0.951 . S
C594 C595 1.366 . S
C594 C596 1.388 . S
C595 C594 1.366 . S
C595 C599 1.385 . S
C596 H571 0.951 . S
C596 C594 1.388 . S
C596 C597 1.366 . S
C597 C596 1.366 . S
C597 C598 1.414 . S
C597 C600 1.499 . S
C598 H572 0.950 . S
C598 C597 1.414 . S
C598 C599 1.374 . S
C599 H573 0.950 . S
C599 C595 1.385 . S
C599 C598 1.374 . S
C600 C597 1.499 . S
C600 C601 1.373 . S
C600 C602 1.389 . S
C601 H574 0.950 . S
C601 C587 1.377 . S
C601 C600 1.373 . S
C602 C586 1.377 . S
C602 C600 1.389 . S
C602 C603 1.524 . S
C603 C602 1.524 . S
C603 C604 1.397 . S
C603 C608 1.363 . S
C604 H575 0.950 . S
C604 C603 1.397 . S
C604 C605 1.334 . S
C605 H576 0.950 . S
C605 C604 1.334 . S
C605 C606 1.287 . S
C606 C605 1.287 . S
C606 C607 1.524 . S
C606 H609 0.999 . S
C607 H577 0.950 . S
C607 C606 1.524 . S
C607 C608 1.415 . S
C608 H578 0.950 . S
C608 C603 1.363 . S
C608 C607 1.415 . S
H609 C606 0.999 . S
H610 C591 0.913 . S
H611 C629 0.951 . S
H612 C631 0.951 . S
H613 C633 0.950 . S
H614 C634 0.950 . S
H615 C636 0.950 . S
H616 C639 0.950 . S
H617 C640 0.950 . S
H618 C642 0.950 . S
H619 C643 0.950 . S
H620 C644 0.951 . S
H621 C646 0.951 . S
H622 C648 0.950 . S
H623 C649 0.950 . S
H624 C651 0.950 . S
H625 C654 0.950 . S
H626 C655 0.950 . S
H627 C657 0.950 . S
H628 C658 0.950 . S
C629 H611 0.951 . S
C629 C630 1.366 . S
C629 C631 1.388 . S
C630 C629 1.366 . S
C630 C634 1.385 . S
C631 H612 0.951 . S
C631 C629 1.388 . S
C631 C632 1.366 . S
C632 C631 1.366 . S
C632 C633 1.414 . S
C632 C635 1.499 . S
C633 H613 0.950 . S
C633 C632 1.414 . S
C633 C634 1.374 . S
C634 H614 0.950 . S
C634 C630 1.385 . S
C634 C633 1.374 . S
C635 C632 1.499 . S
C635 C636 1.373 . S
C635 C637 1.389 . S
C636 H615 0.950 . S
C636 C635 1.373 . S
C636 C652 1.377 . S
C637 C635 1.389 . S
C637 C638 1.524 . S
C637 C651 1.377 . S
C638 C637 1.524 . S
C638 C639 1.397 . S
C638 C643 1.363 . S
C639 H616 0.950 . S
C639 C638 1.397 . S
C639 C640 1.334 . S
C640 H617 0.950 . S
C640 C639 1.334 . S
C640 C641 1.287 . S
C641 C640 1.287 . S
C641 C642 1.524 . S
C641 H660 0.913 . S
C642 H618 0.950 . S
C642 C641 1.524 . S
C642 C643 1.415 . S
C643 H619 0.950 . S
C643 C638 1.363 . S
C643 C642 1.415 . S
C644 H620 0.951 . S
C644 C645 1.366 . S
C644 C646 1.388 . S
C645 C644 1.366 . S
C645 C649 1.385 . S
C646 H621 0.951 . S
C646 C644 1.388 . S
C646 C647 1.366 . S
C647 C646 1.366 . S
C647 C648 1.414 . S
C647 C650 1.499 . S
C648 H622 0.950 . S
C648 C647 1.414 . S
C648 C649 1.374 . S
C649 H623 0.950 . S
C649 C645 1.385 . S
C649 C648 1.374 . S
C650 C647 1.499 . S
C650 C651 1.373 . S
C650 C652 1.389 . S
C651 H624 0.950 . S
C651 C637 1.377 . S
C651 C650 1.373 . S
C652 C636 1.377 . S
C652 C650 1.389 . S
C652 C653 1.524 . S
C653 C652 1.524 . S
C653 C654 1.397 . S
C653 C658 1.363 . S
C654 H625 0.950 . S
C654 C653 1.397 . S
C654 C655 1.334 . S
C655 H626 0.950 . S
C655 C654 1.334 . S
C655 C656 1.287 . S
C656 C655 1.287 . S
C656 C657 1.524 . S
C656 H659 0.999 . S
C657 H627 0.950 . S
C657 C656 1.524 . S
C657 C658 1.415 . S
C658 H628 0.950 . S
C658 C653 1.363 . S
C658 C657 1.415 . S
H659 C656 0.999 . S
H660 C641 0.913 . S
H661 C679 0.951 . S
H662 C681 0.951 . S
H663 C683 0.950 . S
H664 C684 0.950 . S
H665 C686 0.950 . S
H666 C689 0.950 . S
H667 C690 0.950 . S
H668 C692 0.950 . S
H669 C693 0.950 . S
H670 C694 0.951 . S
H671 C696 0.951 . S
H672 C698 0.950 . S
H673 C699 0.950 . S
H674 C701 0.950 . S
H675 C704 0.950 . S
H676 C705 0.950 . S
H677 C707 0.950 . S
H678 C708 0.950 . S
C679 H661 0.951 . S
C679 C680 1.366 . S
C679 C681 1.388 . S
C680 C679 1.366 . S
C680 C684 1.385 . S
C681 H662 0.951 . S
C681 C679 1.388 . S
C681 C682 1.366 . S
C682 C681 1.366 . S
C682 C683 1.414 . S
C682 C685 1.499 . S
C683 H663 0.950 . S
C683 C682 1.414 . S
C683 C684 1.374 . S
C684 H664 0.950 . S
C684 C680 1.385 . S
C684 C683 1.374 . S
C685 C682 1.499 . S
C685 C686 1.373 . S
C685 C687 1.389 . S
C686 H665 0.950 . S
C686 C685 1.373 . S
C686 C702 1.377 . S
C687 C685 1.389 . S
C687 C688 1.524 . S
C687 C701 1.377 . S
C688 C687 1.524 . S
C688 C689 1.397 . S
C688 C693 1.363 . S
C689 H666 0.950 . S
C689 C688 1.397 . S
C689 C690 1.334 . S
C690 H667 0.950 . S
C690 C689 1.334 . S
C690 C691 1.287 . S
C691 C690 1.287 . S
C691 C692 1.524 . S
C691 H710 0.913 . S
C692 H668 0.950 . S
C692 C691 1.524 . S
C692 C693 1.415 . S
C693 H669 0.950 . S
C693 C688 1.363 . S
C693 C692 1.415 . S
C694 H670 0.951 . S
C694 C695 1.366 . S
C694 C696 1.388 . S
C695 C694 1.366 . S
C695 C699 1.385 . S
C696 H671 0.951 . S
C696 C694 1.388 . S
C696 C697 1.366 . S
C697 C696 1.366 . S
C697 C698 1.414 . S
C697 C700 1.499 . S
C698 H672 0.950 . S
C698 C697 1.414 . S
C698 C699 1.374 . S
C699 H673 0.950 . S
C699 C695 1.385 . S
C699 C698 1.374 . S
C700 C697 1.499 . S
C700 C701 1.373 . S
C700 C702 1.389 . S
C701 H674 0.950 . S
C701 C687 1.377 . S
C701 C700 1.373 . S
C702 C686 1.377 . S
C702 C700 1.389 . S
C702 C703 1.524 . S
C703 C702 1.524 . S
C703 C704 1.397 . S
C703 C708 1.363 . S
C704 H675 0.950 . S
C704 C703 1.397 . S
C704 C705 1.334 . S
C705 H676 0.950 . S
C705 C704 1.334 . S
C705 C706 1.287 . S
C706 C705 1.287 . S
C706 C707 1.524 . S
C706 H709 0.999 . S
C707 H677 0.950 . S
C707 C706 1.524 . S
C707 C708 1.415 . S
C708 H678 0.950 . S
C708 C703 1.363 . S
C708 C707 1.415 . S
H709 C706 0.999 . S
H710 C691 0.913 . S
H711 C729 0.951 . S
H712 C731 0.951 . S
H713 C733 0.950 . S
H714 C734 0.950 . S
H715 C736 0.950 . S
H716 C739 0.950 . S
H717 C740 0.950 1_554 S
H718 C742 0.950 . S
H719 C743 0.950 . S
H720 C744 0.951 . S
H721 C746 0.951 . S
H722 C748 0.950 . S
H723 C749 0.950 . S
H724 C751 0.950 . S
H725 C754 0.950 . S
H726 C755 0.950 . S
H727 C757 0.950 . S
H728 C758 0.950 . S
C729 H711 0.951 . S
C729 C730 1.366 . S
C729 C731 1.388 . S
C730 C729 1.366 . S
C730 C734 1.385 . S
C731 H712 0.951 . S
C731 C729 1.388 . S
C731 C732 1.366 . S
C732 C731 1.366 . S
C732 C733 1.414 . S
C732 C735 1.499 . S
C733 H713 0.950 . S
C733 C732 1.414 . S
C733 C734 1.374 . S
C734 H714 0.950 . S
C734 C730 1.385 . S
C734 C733 1.374 . S
C735 C732 1.499 . S
C735 C736 1.373 . S
C735 C737 1.389 . S
C736 H715 0.950 . S
C736 C735 1.373 . S
C736 C752 1.377 . S
C737 C735 1.389 . S
C737 C738 1.524 . S
C737 C751 1.377 . S
C738 C737 1.524 . S
C738 C739 1.397 . S
C738 C743 1.363 . S
C739 H716 0.950 . S
C739 C738 1.397 . S
C739 C740 1.334 . S
C740 H717 0.950 1_556 S
C740 C739 1.334 . S
C740 C741 1.287 . S
C741 C740 1.287 . S
C741 C742 1.524 . S
C741 H760 0.913 1_556 S
C742 H718 0.950 . S
C742 C741 1.524 . S
C742 C743 1.415 . S
C743 H719 0.950 . S
C743 C738 1.363 . S
C743 C742 1.415 . S
C744 H720 0.951 . S
C744 C745 1.366 . S
C744 C746 1.388 . S
C745 C744 1.366 . S
C745 C749 1.385 . S
C746 H721 0.951 . S
C746 C744 1.388 . S
C746 C747 1.366 . S
C747 C746 1.366 . S
C747 C748 1.414 . S
C747 C750 1.499 . S
C748 H722 0.950 . S
C748 C747 1.414 . S
C748 C749 1.374 . S
C749 H723 0.950 . S
C749 C745 1.385 . S
C749 C748 1.374 . S
C750 C747 1.499 . S
C750 C751 1.373 . S
C750 C752 1.389 . S
C751 H724 0.950 . S
C751 C737 1.377 . S
C751 C750 1.373 . S
C752 C736 1.377 . S
C752 C750 1.389 . S
C752 C753 1.524 . S
C753 C752 1.524 . S
C753 C754 1.397 . S
C753 C758 1.363 . S
C754 H725 0.950 . S
C754 C753 1.397 . S
C754 C755 1.334 . S
C755 H726 0.950 . S
C755 C754 1.334 . S
C755 C756 1.287 . S
C756 C755 1.287 . S
C756 C757 1.524 . S
C756 H759 0.999 . S
C757 H727 0.950 . S
C757 C756 1.524 . S
C757 C758 1.415 . S
C758 H728 0.950 . S
C758 C753 1.363 . S
C758 C757 1.415 . S
H759 C756 0.999 . S
H760 C741 0.913 1_554 S
H761 C779 0.951 1_554 S
H762 C781 0.951 . S
H763 C783 0.950 . S
H764 C784 0.950 . S
H765 C786 0.950 . S
H766 C789 0.950 . S
H767 C790 0.950 . S
H768 C792 0.950 . S
H769 C793 0.950 . S
H770 C794 0.951 . S
H771 C796 0.951 . S
H772 C798 0.950 . S
H773 C799 0.950 . S
H774 C801 0.950 . S
H775 C804 0.950 . S
H776 C805 0.950 . S
H777 C807 0.950 . S
H778 C808 0.950 . S
C779 H761 0.951 1_556 S
C779 C780 1.366 . S
C779 C781 1.388 . S
C780 C779 1.366 . S
C780 C784 1.385 . S
C781 H762 0.951 . S
C781 C779 1.388 . S
C781 C782 1.366 . S
C782 C781 1.366 . S
C782 C783 1.414 . S
C782 C785 1.499 . S
C783 H763 0.950 . S
C783 C782 1.414 . S
C783 C784 1.374 . S
C784 H764 0.950 . S
C784 C780 1.385 . S
C784 C783 1.374 . S
C785 C782 1.499 . S
C785 C786 1.373 . S
C785 C787 1.389 . S
C786 H765 0.950 . S
C786 C785 1.373 . S
C786 C802 1.377 . S
C787 C785 1.389 . S
C787 C788 1.524 . S
C787 C801 1.377 . S
C788 C787 1.524 . S
C788 C789 1.397 . S
C788 C793 1.363 . S
C789 H766 0.950 . S
C789 C788 1.397 . S
C789 C790 1.334 . S
C790 H767 0.950 . S
C790 C789 1.334 . S
C790 C791 1.287 . S
C791 C790 1.287 . S
C791 C792 1.524 . S
C791 H810 0.913 . S
C792 H768 0.950 . S
C792 C791 1.524 . S
C792 C793 1.415 . S
C793 H769 0.950 . S
C793 C788 1.363 . S
C793 C792 1.415 . S
C794 H770 0.951 . S
C794 C795 1.366 . S
C794 C796 1.388 . S
C795 C794 1.366 . S
C795 C799 1.385 . S
C796 H771 0.951 . S
C796 C794 1.388 . S
C796 C797 1.366 . S
C797 C796 1.366 . S
C797 C798 1.414 . S
C797 C800 1.499 . S
C798 H772 0.950 . S
C798 C797 1.414 . S
C798 C799 1.374 . S
C799 H773 0.950 . S
C799 C795 1.385 . S
C799 C798 1.374 . S
C800 C797 1.499 . S
C800 C801 1.373 . S
C800 C802 1.389 . S
C801 H774 0.950 . S
C801 C787 1.377 . S
C801 C800 1.373 . S
C802 C786 1.377 . S
C802 C800 1.389 . S
C802 C803 1.524 . S
C803 C802 1.524 . S
C803 C804 1.397 . S
C803 C808 1.363 . S
C804 H775 0.950 . S
C804 C803 1.397 . S
C804 C805 1.334 . S
C805 H776 0.950 . S
C805 C804 1.334 . S
C805 C806 1.287 . S
C806 C805 1.287 . S
C806 C807 1.524 . S
C806 H809 0.999 . S
C807 H777 0.950 . S
C807 C806 1.524 . S
C807 C808 1.415 . S
C808 H778 0.950 . S
C808 C803 1.363 . S
C808 C807 1.415 . S
H809 C806 0.999 . S
H810 C791 0.913 . S
H811 C829 0.951 . S
H812 C831 0.951 . S
H813 C833 0.950 . S
H814 C834 0.950 1_554 S
H815 C836 0.950 . S
H816 C839 0.950 . S
H817 C840 0.950 . S
H818 C842 0.950 . S
H819 C843 0.950 . S
H820 C844 0.951 . S
H821 C846 0.951 . S
H822 C848 0.950 . S
H823 C849 0.950 . S
H824 C851 0.950 . S
H825 C854 0.950 . S
H826 C855 0.950 . S
H827 C857 0.950 . S
H828 C858 0.950 . S
C829 H811 0.951 . S
C829 C830 1.366 . S
C829 C831 1.388 . S
C830 C829 1.366 . S
C830 C834 1.385 . S
C831 H812 0.951 . S
C831 C829 1.388 . S
C831 C832 1.366 . S
C832 C831 1.366 . S
C832 C833 1.414 . S
C832 C835 1.499 . S
C833 H813 0.950 . S
C833 C832 1.414 . S
C833 C834 1.374 . S
C834 H814 0.950 1_556 S
C834 C830 1.385 . S
C834 C833 1.374 . S
C835 C832 1.499 . S
C835 C836 1.373 . S
C835 C837 1.389 . S
C836 H815 0.950 . S
C836 C835 1.373 . S
C836 C852 1.377 . S
C837 C835 1.389 . S
C837 C838 1.524 . S
C837 C851 1.377 . S
C838 C837 1.524 . S
C838 C839 1.397 . S
C838 C843 1.363 . S
C839 H816 0.950 . S
C839 C838 1.397 . S
C839 C840 1.334 . S
C840 H817 0.950 . S
C840 C839 1.334 . S
C840 C841 1.287 . S
C841 C840 1.287 . S
C841 C842 1.524 . S
C841 H860 0.913 . S
C842 H818 0.950 . S
C842 C841 1.524 . S
C842 C843 1.415 . S
C843 H819 0.950 . S
C843 C838 1.363 . S
C843 C842 1.415 . S
C844 H820 0.951 . S
C844 C845 1.366 . S
C844 C846 1.388 . S
C845 C844 1.366 . S
C845 C849 1.385 . S
C846 H821 0.951 . S
C846 C844 1.388 . S
C846 C847 1.366 . S
C847 C846 1.366 . S
C847 C848 1.414 . S
C847 C850 1.499 . S
C848 H822 0.950 . S
C848 C847 1.414 . S
C848 C849 1.374 . S
C849 H823 0.950 . S
C849 C845 1.385 . S
C849 C848 1.374 . S
C850 C847 1.499 . S
C850 C851 1.373 . S
C850 C852 1.389 . S
C851 H824 0.950 . S
C851 C837 1.377 . S
C851 C850 1.373 . S
C852 C836 1.377 . S
C852 C850 1.389 . S
C852 C853 1.524 . S
C853 C852 1.524 . S
C853 C854 1.397 . S
C853 C858 1.363 . S
C854 H825 0.950 . S
C854 C853 1.397 . S
C854 C855 1.334 . S
C855 H826 0.950 . S
C855 C854 1.334 . S
C855 C856 1.287 . S
C856 C855 1.287 . S
C856 C857 1.524 . S
C856 H859 0.999 . S
C857 H827 0.950 . S
C857 C856 1.524 . S
C857 C858 1.415 . S
C858 H828 0.950 . S
C858 C853 1.363 . S
C858 C857 1.415 . S
H859 C856 0.999 . S
H860 C841 0.913 . S
H861 C879 0.951 . S
H862 C881 0.951 . S
H863 C883 0.950 . S
H864 C884 0.950 . S
H865 C886 0.950 . S
H866 C889 0.950 . S
H867 C890 0.950 . S
H868 C892 0.950 . S
H869 C893 0.950 . S
H870 C894 0.951 . S
H871 C896 0.951 . S
H872 C898 0.950 . S
H873 C899 0.950 . S
H874 C901 0.950 . S
H875 C904 0.950 . S
H876 C905 0.950 . S
H877 C907 0.950 . S
H878 C908 0.950 1_554 S
C879 H861 0.951 . S
C879 C880 1.366 1_556 S
C879 C881 1.388 . S
C880 C879 1.366 1_554 S
C880 C884 1.385 . S
C881 H862 0.951 . S
C881 C879 1.388 . S
C881 C882 1.366 . S
C882 C881 1.366 . S
C882 C883 1.414 1_556 S
C882 C885 1.499 . S
C883 H863 0.950 . S
C883 C882 1.414 1_554 S
C883 C884 1.374 . S
C884 H864 0.950 . S
C884 C880 1.385 . S
C884 C883 1.374 . S
C885 C882 1.499 . S
C885 C886 1.373 . S
C885 C887 1.389 . S
C886 H865 0.950 . S
C886 C885 1.373 . S
C886 C902 1.377 . S
C887 C885 1.389 . S
C887 C888 1.524 . S
C887 C901 1.377 . S
C888 C887 1.524 . S
C888 C889 1.397 . S
C888 C893 1.363 . S
C889 H866 0.950 . S
C889 C888 1.397 . S
C889 C890 1.334 . S
C890 H867 0.950 . S
C890 C889 1.334 . S
C890 C891 1.287 . S
C891 C890 1.287 . S
C891 C892 1.524 . S
C891 H910 0.913 . S
C892 H868 0.950 . S
C892 C891 1.524 . S
C892 C893 1.415 . S
C893 H869 0.950 . S
C893 C888 1.363 . S
C893 C892 1.415 . S
C894 H870 0.951 . S
C894 C895 1.366 . S
C894 C896 1.388 . S
C895 C894 1.366 . S
C895 C899 1.385 . S
C896 H871 0.951 . S
C896 C894 1.388 . S
C896 C897 1.366 . S
C897 C896 1.366 . S
C897 C898 1.414 . S
C897 C900 1.499 . S
C898 H872 0.950 . S
C898 C897 1.414 . S
C898 C899 1.374 . S
C899 H873 0.950 . S
C899 C895 1.385 . S
C899 C898 1.374 . S
C900 C897 1.499 . S
C900 C901 1.373 . S
C900 C902 1.389 . S
C901 H874 0.950 . S
C901 C887 1.377 . S
C901 C900 1.373 . S
C902 C886 1.377 . S
C902 C900 1.389 . S
C902 C903 1.524 . S
C903 C902 1.524 . S
C903 C904 1.397 . S
C903 C908 1.363 . S
C904 H875 0.950 . S
C904 C903 1.397 . S
C904 C905 1.334 . S
C905 H876 0.950 . S
C905 C904 1.334 . S
C905 C906 1.287 . S
C906 C905 1.287 . S
C906 C907 1.524 1_556 S
C906 H909 0.999 . S
C907 H877 0.950 . S
C907 C906 1.524 1_554 S
C907 C908 1.415 1_554 S
C908 H878 0.950 1_556 S
C908 C903 1.363 . S
C908 C907 1.415 1_556 S
H909 C906 0.999 . S
H910 C891 0.913 . S
H911 C929 0.951 . S
H912 C931 0.951 . S
H913 C933 0.950 . S
H914 C934 0.950 . S
H915 C936 0.950 . S
H916 C939 0.950 . S
H917 C940 0.950 . S
H918 C942 0.950 . S
H919 C943 0.950 . S
H920 C944 0.951 . S
H921 C946 0.951 . S
H922 C948 0.950 . S
H923 C949 0.950 . S
H924 C951 0.950 . S
H925 C954 0.950 . S
H926 C955 0.950 . S
H927 C957 0.950 1_554 S
H928 C958 0.950 . S
C929 H911 0.951 . S
C929 C930 1.366 1_556 S
C929 C931 1.388 . S
C930 C929 1.366 1_554 S
C930 C934 1.385 . S
C931 H912 0.951 . S
C931 C929 1.388 . S
C931 C932 1.366 . S
C932 C931 1.366 . S
C932 C933 1.414 1_556 S
C932 C935 1.499 . S
C933 H913 0.950 . S
C933 C932 1.414 1_554 S
C933 C934 1.374 . S
C934 H914 0.950 . S
C934 C930 1.385 . S
C934 C933 1.374 . S
C935 C932 1.499 . S
C935 C936 1.373 . S
C935 C937 1.389 . S
C936 H915 0.950 . S
C936 C935 1.373 . S
C936 C952 1.377 . S
C937 C935 1.389 . S
C937 C938 1.524 . S
C937 C951 1.377 . S
C938 C937 1.524 . S
C938 C939 1.397 . S
C938 C943 1.363 . S
C939 H916 0.950 . S
C939 C938 1.397 . S
C939 C940 1.334 . S
C940 H917 0.950 . S
C940 C939 1.334 . S
C940 C941 1.287 . S
C941 C940 1.287 . S
C941 C942 1.524 . S
C941 H960 0.913 . S
C942 H918 0.950 . S
C942 C941 1.524 . S
C942 C943 1.415 . S
C943 H919 0.950 . S
C943 C938 1.363 . S
C943 C942 1.415 . S
C944 H920 0.951 . S
C944 C945 1.366 . S
C944 C946 1.388 . S
C945 C944 1.366 . S
C945 C949 1.385 . S
C946 H921 0.951 . S
C946 C944 1.388 . S
C946 C947 1.366 . S
C947 C946 1.366 . S
C947 C948 1.414 . S
C947 C950 1.499 . S
C948 H922 0.950 . S
C948 C947 1.414 . S
C948 C949 1.374 . S
C949 H923 0.950 . S
C949 C945 1.385 . S
C949 C948 1.374 . S
C950 C947 1.499 . S
C950 C951 1.373 . S
C950 C952 1.389 . S
C951 H924 0.950 . S
C951 C937 1.377 . S
C951 C950 1.373 . S
C952 C936 1.377 . S
C952 C950 1.389 . S
C952 C953 1.524 . S
C953 C952 1.524 . S
C953 C954 1.397 . S
C953 C958 1.363 . S
C954 H925 0.950 . S
C954 C953 1.397 . S
C954 C955 1.334 . S
C955 H926 0.950 . S
C955 C954 1.334 . S
C955 C956 1.287 . S
C956 C955 1.287 . S
C956 C957 1.524 . S
C956 H959 0.999 . S
C957 H927 0.950 1_556 S
C957 C956 1.524 . S
C957 C958 1.415 . S
C958 H928 0.950 . S
C958 C953 1.363 . S
C958 C957 1.415 . S
H959 C956 0.999 . S
H960 C941 0.913 . S
H961 C979 0.951 . S
H962 C981 0.951 . S
H963 C983 0.950 . S
H964 C984 0.952 . S
H965 C986 0.950 . S
H966 C989 0.950 . S
H967 C990 0.950 . S
H968 C992 0.950 . S
H969 C993 0.950 . S
H970 C994 0.951 . S
H971 C996 0.951 . S
H972 C998 0.950 . S
H973 C999 0.950 . S
H974 C1001 0.950 . S
H975 C1004 0.950 . S
H976 C1005 0.950 . S
H977 C1007 0.950 . S
H978 C1008 0.950 . S
C979 H961 0.951 . S
C979 C980 1.366 . S
C979 C981 1.388 . S
C980 C979 1.366 . S
C980 C984 1.371 1_554 S
C981 H962 0.951 . S
C981 C979 1.388 . S
C981 C982 1.366 1_554 S
C982 C981 1.366 1_556 S
C982 C983 1.414 . S
C982 C985 1.499 . S
C983 H963 0.950 . S
C983 C982 1.414 . S
C983 C984 1.386 . S
C984 H964 0.952 . S
C984 C980 1.371 1_556 S
C984 C983 1.386 . S
C985 C982 1.499 . S
C985 C986 1.373 . S
C985 C987 1.389 . S
C986 H965 0.950 . S
C986 C985 1.373 . S
C986 C1002 1.377 . S
C987 C985 1.389 . S
C987 C988 1.524 1_556 S
C987 C1001 1.377 . S
C988 C987 1.524 1_554 S
C988 C989 1.397 . S
C988 C993 1.363 . S
C989 H966 0.950 . S
C989 C988 1.397 . S
C989 C990 1.334 . S
C990 H967 0.950 . S
C990 C989 1.334 . S
C990 C991 1.287 . S
C991 C990 1.287 . S
C991 C992 1.524 . S
C991 H1010 0.913 . S
C992 H968 0.950 . S
C992 C991 1.524 . S
C992 C993 1.415 . S
C993 H969 0.950 . S
C993 C988 1.363 . S
C993 C992 1.415 . S
C994 H970 0.951 . S
C994 C995 1.366 . S
C994 C996 1.388 . S
C995 C994 1.366 . S
C995 C999 1.385 . S
C996 H971 0.951 . S
C996 C994 1.388 . S
C996 C997 1.366 . S
C997 C996 1.366 . S
C997 C998 1.414 . S
C997 C1000 1.499 . S
C998 H972 0.950 . S
C998 C997 1.414 . S
C998 C999 1.374 . S
C999 H973 0.950 . S
C999 C995 1.385 . S
C999 C998 1.374 . S
C1000 C997 1.499 . S
C1000 C1001 1.373 . S
C1000 C1002 1.389 . S
C1001 H974 0.950 . S
C1001 C987 1.377 . S
C1001 C1000 1.373 . S
C1002 C986 1.377 . S
C1002 C1000 1.389 . S
C1002 C1003 1.524 . S
C1003 C1002 1.524 . S
C1003 C1004 1.397 . S
C1003 C1008 1.363 . S
C1004 H975 0.950 . S
C1004 C1003 1.397 . S
C1004 C1005 1.334 . S
C1005 H976 0.950 . S
C1005 C1004 1.334 . S
C1005 C1006 1.287 . S
C1006 C1005 1.287 . S
C1006 C1007 1.524 . S
C1006 H1009 0.999 . S
C1007 H977 0.950 . S
C1007 C1006 1.524 . S
C1007 C1008 1.415 . S
C1008 H978 0.950 . S
C1008 C1003 1.363 . S
C1008 C1007 1.415 . S
H1009 C1006 0.999 . S
H1010 C991 0.913 . S
H1011 C1029 0.951 . S
H1012 C1031 0.951 . S
H1013 C1033 0.950 . S
H1014 C1034 0.950 . S
H1015 C1036 0.950 . S
H1016 C1039 0.950 . S
H1017 C1040 0.950 1_554 S
H1018 C1042 0.950 . S
H1019 C1043 0.950 . S
H1020 C1044 0.951 . S
H1021 C1046 0.951 . S
H1022 C1048 0.950 . S
H1023 C1049 0.950 . S
H1024 C1051 0.950 . S
H1025 C1054 0.950 . S
H1026 C1055 0.950 . S
H1027 C1057 0.950 . S
H1028 C1058 0.950 . S
C1029 H1011 0.951 . S
C1029 C1030 1.366 . S
C1029 C1031 1.388 . S
C1030 C1029 1.366 . S
C1030 C1034 1.385 . S
C1031 H1012 0.951 . S
C1031 C1029 1.388 . S
C1031 C1032 1.366 . S
C1032 C1031 1.366 . S
C1032 C1033 1.414 . S
C1032 C1035 1.499 . S
C1033 H1013 0.950 . S
C1033 C1032 1.414 . S
C1033 C1034 1.374 . S
C1034 H1014 0.950 . S
C1034 C1030 1.385 . S
C1034 C1033 1.374 . S
C1035 C1032 1.499 . S
C1035 C1036 1.373 . S
C1035 C1037 1.389 . S
C1036 H1015 0.950 . S
C1036 C1035 1.373 . S
C1036 C1052 1.377 . S
C1037 C1035 1.389 . S
C1037 C1038 1.524 . S
C1037 C1051 1.377 . S
C1038 C1037 1.524 . S
C1038 C1039 1.397 . S
C1038 C1043 1.363 . S
C1039 H1016 0.950 . S
C1039 C1038 1.397 . S
C1039 C1040 1.334 . S
C1040 H1017 0.950 1_556 S
C1040 C1039 1.334 . S
C1040 C1041 1.287 . S
C1041 C1040 1.287 . S
C1041 C1042 1.524 . S
C1041 H1060 0.913 . S
C1042 H1018 0.950 . S
C1042 C1041 1.524 . S
C1042 C1043 1.415 . S
C1043 H1019 0.950 . S
C1043 C1038 1.363 . S
C1043 C1042 1.415 . S
C1044 H1020 0.951 . S
C1044 C1045 1.366 . S
C1044 C1046 1.388 . S
C1045 C1044 1.366 . S
C1045 C1049 1.385 . S
C1046 H1021 0.951 . S
C1046 C1044 1.388 . S
C1046 C1047 1.366 . S
C1047 C1046 1.366 . S
C1047 C1048 1.414 . S
C1047 C1050 1.499 . S
C1048 H1022 0.950 . S
C1048 C1047 1.414 . S
C1048 C1049 1.374 . S
C1049 H1023 0.950 . S
C1049 C1045 1.385 . S
C1049 C1048 1.374 . S
C1050 C1047 1.499 . S
C1050 C1051 1.373 . S
C1050 C1052 1.389 . S
C1051 H1024 0.950 . S
C1051 C1037 1.377 . S
C1051 C1050 1.373 . S
C1052 C1036 1.377 . S
C1052 C1050 1.389 . S
C1052 C1053 1.524 . S
C1053 C1052 1.524 . S
C1053 C1054 1.397 . S
C1053 C1058 1.363 . S
C1054 H1025 0.950 . S
C1054 C1053 1.397 . S
C1054 C1055 1.334 . S
C1055 H1026 0.950 . S
C1055 C1054 1.334 . S
C1055 C1056 1.287 . S
C1056 C1055 1.287 . S
C1056 C1057 1.524 . S
C1056 H1059 0.999 . S
C1057 H1027 0.950 . S
C1057 C1056 1.524 . S
C1057 C1058 1.415 . S
C1058 H1028 0.950 . S
C1058 C1053 1.363 . S
C1058 C1057 1.415 . S
H1059 C1056 0.999 . S
H1060 C1041 0.913 . S
H1061 C1079 0.951 . S
H1062 C1081 0.951 . S
H1063 C1083 0.950 . S
H1064 C1084 0.950 . S
H1065 C1086 0.950 . S
H1066 C1089 0.950 . S
H1067 C1090 0.950 . S
H1068 C1092 0.950 . S
H1069 C1093 0.950 . S
H1070 C1094 0.951 . S
H1071 C1096 0.951 . S
H1072 C1098 0.950 . S
H1073 C1099 0.950 . S
H1074 C1101 0.950 . S
H1075 C1104 0.950 . S
H1076 C1105 0.950 1_545 S
H1077 C1107 0.950 . S
H1078 C1108 0.950 . S
C1079 H1061 0.951 . S
C1079 C1080 1.366 . S
C1079 C1081 1.388 . S
C1080 C1079 1.366 . S
C1080 C1084 1.385 . S
C1081 H1062 0.951 . S
C1081 C1079 1.388 . S
C1081 C1082 1.366 . S
C1082 C1081 1.366 . S
C1082 C1083 1.414 . S
C1082 C1085 1.499 . S
C1083 H1063 0.950 . S
C1083 C1082 1.414 . S
C1083 C1084 1.374 . S
C1084 H1064 0.950 . S
C1084 C1080 1.385 . S
C1084 C1083 1.374 . S
C1085 C1082 1.499 . S
C1085 C1086 1.373 . S
C1085 C1087 1.389 . S
C1086 H1065 0.950 . S
C1086 C1085 1.373 . S
C1086 C1102 1.377 . S
C1087 C1085 1.389 . S
C1087 C1088 1.524 . S
C1087 C1101 1.377 . S
C1088 C1087 1.524 . S
C1088 C1089 1.397 . S
C1088 C1093 1.363 . S
C1089 H1066 0.950 . S
C1089 C1088 1.397 . S
C1089 C1090 1.334 . S
C1090 H1067 0.950 . S
C1090 C1089 1.334 . S
C1090 C1091 1.287 . S
C1091 C1090 1.287 . S
C1091 C1092 1.524 . S
C1091 H1110 0.913 . S
C1092 H1068 0.950 . S
C1092 C1091 1.524 . S
C1092 C1093 1.415 . S
C1093 H1069 0.950 . S
C1093 C1088 1.363 . S
C1093 C1092 1.415 . S
C1094 H1070 0.951 . S
C1094 C1095 1.366 . S
C1094 C1096 1.388 . S
C1095 C1094 1.366 . S
C1095 C1099 1.385 . S
C1096 H1071 0.951 . S
C1096 C1094 1.388 . S
C1096 C1097 1.366 . S
C1097 C1096 1.366 . S
C1097 C1098 1.414 . S
C1097 C1100 1.499 . S
C1098 H1072 0.950 . S
C1098 C1097 1.414 . S
C1098 C1099 1.374 . S
C1099 H1073 0.950 . S
C1099 C1095 1.385 . S
C1099 C1098 1.374 . S
C1100 C1097 1.499 . S
C1100 C1101 1.373 . S
C1100 C1102 1.389 . S
C1101 H1074 0.950 . S
C1101 C1087 1.377 . S
C1101 C1100 1.373 . S
C1102 C1086 1.377 . S
C1102 C1100 1.389 . S
C1102 C1103 1.524 . S
C1103 C1102 1.524 . S
C1103 C1104 1.397 . S
C1103 C1108 1.363 . S
C1104 H1075 0.950 . S
C1104 C1103 1.397 . S
C1104 C1105 1.334 . S
C1105 H1076 0.950 1_565 S
C1105 C1104 1.334 . S
C1105 C1106 1.287 1_565 S
C1106 C1105 1.287 1_545 S
C1106 C1107 1.526 1_545 S
C1106 H1109 0.996 . S
C1107 H1077 0.950 . S
C1107 C1106 1.526 1_565 S
C1107 C1108 1.415 . S
C1108 H1078 0.950 . S
C1108 C1103 1.363 . S
C1108 C1107 1.415 . S
H1109 C1106 0.996 . S
H1110 C1091 0.913 . S
H1111 C1129 0.951 . S
H1112 C1131 0.951 . S
H1113 C1133 0.950 . S
H1114 C1134 0.950 . S
H1115 C1136 0.950 1_554 S
H1116 C1139 0.950 . S
H1117 C1140 0.950 . S
H1118 C1142 0.950 . S
H1119 C1143 0.950 . S
H1120 C1144 0.951 . S
H1121 C1146 0.951 . S
H1122 C1148 0.950 . S
H1123 C1149 0.950 . S
H1124 C1151 0.950 . S
H1125 C1154 0.950 . S
H1126 C1155 0.950 . S
H1127 C1157 0.950 1_554 S
H1128 C1158 0.950 . S
C1129 H1111 0.951 . S
C1129 C1130 1.366 . S
C1129 C1131 1.388 . S
C1130 C1129 1.366 . S
C1130 C1134 1.385 . S
C1131 H1112 0.951 . S
C1131 C1129 1.388 . S
C1131 C1132 1.366 1_554 S
C1132 C1131 1.366 1_556 S
C1132 C1133 1.414 1_556 S
C1132 C1135 1.499 . S
C1133 H1113 0.950 . S
C1133 C1132 1.414 1_554 S
C1133 C1134 1.374 . S
C1134 H1114 0.950 . S
C1134 C1130 1.385 . S
C1134 C1133 1.374 . S
C1135 C1132 1.499 . S
C1135 C1136 1.373 . S
C1135 C1137 1.389 . S
C1136 H1115 0.950 1_556 S
C1136 C1135 1.373 . S
C1136 C1152 1.377 . S
C1137 C1135 1.389 . S
C1137 C1138 1.524 . S
C1137 C1151 1.377 . S
C1138 C1137 1.524 . S
C1138 C1139 1.397 . S
C1138 C1143 1.363 . S
C1139 H1116 0.950 . S
C1139 C1138 1.397 . S
C1139 C1140 1.334 . S
C1140 H1117 0.950 . S
C1140 C1139 1.334 . S
C1140 C1141 1.287 . S
C1141 C1140 1.287 . S
C1141 C1142 1.524 . S
C1141 H1160 0.913 . S
C1142 H1118 0.950 . S
C1142 C1141 1.524 . S
C1142 C1143 1.415 . S
C1143 H1119 0.950 . S
C1143 C1138 1.363 . S
C1143 C1142 1.415 . S
C1144 H1120 0.951 . S
C1144 C1145 1.366 . S
C1144 C1146 1.388 . S
C1145 C1144 1.366 . S
C1145 C1149 1.385 . S
C1146 H1121 0.951 . S
C1146 C1144 1.388 . S
C1146 C1147 1.366 . S
C1147 C1146 1.366 . S
C1147 C1148 1.414 . S
C1147 C1150 1.499 . S
C1148 H1122 0.950 . S
C1148 C1147 1.414 . S
C1148 C1149 1.374 . S
C1149 H1123 0.950 . S
C1149 C1145 1.385 . S
C1149 C1148 1.374 . S
C1150 C1147 1.499 . S
C1150 C1151 1.373 . S
C1150 C1152 1.389 . S
C1151 H1124 0.950 . S
C1151 C1137 1.377 . S
C1151 C1150 1.373 . S
C1152 C1136 1.377 . S
C1152 C1150 1.389 . S
C1152 C1153 1.524 . S
C1153 C1152 1.524 . S
C1153 C1154 1.397 . S
C1153 C1158 1.363 . S
C1154 H1125 0.950 . S
C1154 C1153 1.397 . S
C1154 C1155 1.334 . S
C1155 H1126 0.950 . S
C1155 C1154 1.334 . S
C1155 C1156 1.287 1_556 S
C1156 C1155 1.287 1_554 S
C1156 C1157 1.524 1_554 S
C1156 H1159 0.999 . S
C1157 H1127 0.950 1_556 S
C1157 C1156 1.524 1_556 S
C1157 C1158 1.415 . S
C1158 H1128 0.950 . S
C1158 C1153 1.363 . S
C1158 C1157 1.415 . S
H1159 C1156 0.999 . S
H1160 C1141 0.913 . S
H1161 C1179 0.951 . S
H1162 C1181 0.951 . S
H1163 C1183 0.950 1_556 S
H1164 C1184 0.950 . S
H1165 C1186 0.950 . S
H1166 C1189 0.950 . S
H1167 C1190 0.950 . S
H1168 C1192 0.950 . S
H1169 C1193 0.950 . S
H1170 C1194 0.951 . S
H1171 C1196 0.951 . S
H1172 C1198 0.950 . S
H1173 C1199 0.950 . S
H1174 C1201 0.950 . S
H1175 C1204 0.950 . S
H1176 C1205 0.950 . S
H1177 C1207 0.950 . S
H1178 C1208 0.950 . S
C1179 H1161 0.951 . S
C1179 C1180 1.366 . S
C1179 C1181 1.388 . S
C1180 C1179 1.366 . S
C1180 C1184 1.385 . S
C1181 H1162 0.951 . S
C1181 C1179 1.388 . S
C1181 C1182 1.366 1_554 S
C1182 C1181 1.366 1_556 S
C1182 C1183 1.414 1_556 S
C1182 C1185 1.499 . S
C1183 H1163 0.950 1_554 S
C1183 C1182 1.414 1_554 S
C1183 C1184 1.374 . S
C1184 H1164 0.950 . S
C1184 C1180 1.385 . S
C1184 C1183 1.374 . S
C1185 C1182 1.499 . S
C1185 C1186 1.373 . S
C1185 C1187 1.389 . S
C1186 H1165 0.950 . S
C1186 C1185 1.373 . S
C1186 C1202 1.377 . S
C1187 C1185 1.389 . S
C1187 C1188 1.524 . S
C1187 C1201 1.377 . S
C1188 C1187 1.524 . S
C1188 C1189 1.397 . S
C1188 C1193 1.363 . S
C1189 H1166 0.950 . S
C1189 C1188 1.397 . S
C1189 C1190 1.334 . S
C1190 H1167 0.950 . S
C1190 C1189 1.334 . S
C1190 C1191 1.287 . S
C1191 C1190 1.287 . S
C1191 C1192 1.524 . S
C1191 H1210 0.913 . S
C1192 H1168 0.950 . S
C1192 C1191 1.524 . S
C1192 C1193 1.415 . S
C1193 H1169 0.950 . S
C1193 C1188 1.363 . S
C1193 C1192 1.415 . S
C1194 H1170 0.951 . S
C1194 C1195 1.366 . S
C1194 C1196 1.388 . S
C1195 C1194 1.366 . S
C1195 C1199 1.385 . S
C1196 H1171 0.951 . S
C1196 C1194 1.388 . S
C1196 C1197 1.366 . S
C1197 C1196 1.366 . S
C1197 C1198 1.414 . S
C1197 C1200 1.499 . S
C1198 H1172 0.950 . S
C1198 C1197 1.414 . S
C1198 C1199 1.374 . S
C1199 H1173 0.950 . S
C1199 C1195 1.385 . S
C1199 C1198 1.374 . S
C1200 C1197 1.499 . S
C1200 C1201 1.373 . S
C1200 C1202 1.389 . S
C1201 H1174 0.950 . S
C1201 C1187 1.377 . S
C1201 C1200 1.373 . S
C1202 C1186 1.377 . S
C1202 C1200 1.389 . S
C1202 C1203 1.524 . S
C1203 C1202 1.524 . S
C1203 C1204 1.397 . S
C1203 C1208 1.363 . S
C1204 H1175 0.950 . S
C1204 C1203 1.397 . S
C1204 C1205 1.334 . S
C1205 H1176 0.950 . S
C1205 C1204 1.334 . S
C1205 C1206 1.287 . S
C1206 C1205 1.287 . S
C1206 C1207 1.524 . S
C1206 H1209 0.999 . S
C1207 H1177 0.950 . S
C1207 C1206 1.524 . S
C1207 C1208 1.415 . S
C1208 H1178 0.950 . S
C1208 C1203 1.363 . S
C1208 C1207 1.415 . S
H1209 C1206 0.999 . S
H1210 C1191 0.913 . S
H1211 C1229 0.951 . S
H1212 C1231 0.951 . S
H1213 C1233 0.950 . S
H1214 C1234 0.950 1_554 S
H1215 C1236 0.950 . S
H1216 C1239 0.950 . S
H1217 C1240 0.950 . S
H1218 C1242 0.950 . S
H1219 C1243 0.950 . S
H1220 C1244 0.951 . S
H1221 C1246 0.951 . S
H1222 C1248 0.950 . S
H1223 C1249 0.950 . S
H1224 C1251 0.950 . S
H1225 C1254 0.950 . S
H1226 C1255 0.950 . S
H1227 C1257 0.950 . S
H1228 C1258 0.950 . S
C1229 H1211 0.951 . S
C1229 C1230 1.366 . S
C1229 C1231 1.388 . S
C1230 C1229 1.366 . S
C1230 C1234 1.385 . S
C1231 H1212 0.951 . S
C1231 C1229 1.388 . S
C1231 C1232 1.366 . S
C1232 C1231 1.366 . S
C1232 C1233 1.414 . S
C1232 C1235 1.499 . S
C1233 H1213 0.950 . S
C1233 C1232 1.414 . S
C1233 C1234 1.374 . S
C1234 H1214 0.950 1_556 S
C1234 C1230 1.385 . S
C1234 C1233 1.374 . S
C1235 C1232 1.499 . S
C1235 C1236 1.373 . S
C1235 C1237 1.389 . S
C1236 H1215 0.950 . S
C1236 C1235 1.373 . S
C1236 C1252 1.377 . S
C1237 C1235 1.389 . S
C1237 C1238 1.524 . S
C1237 C1251 1.377 . S
C1238 C1237 1.524 . S
C1238 C1239 1.397 . S
C1238 C1243 1.363 . S
C1239 H1216 0.950 . S
C1239 C1238 1.397 . S
C1239 C1240 1.334 . S
C1240 H1217 0.950 . S
C1240 C1239 1.334 . S
C1240 C1241 1.287 . S
C1241 C1240 1.287 . S
C1241 C1242 1.524 . S
C1241 H1260 0.913 . S
C1242 H1218 0.950 . S
C1242 C1241 1.524 . S
C1242 C1243 1.415 . S
C1243 H1219 0.950 . S
C1243 C1238 1.363 . S
C1243 C1242 1.415 . S
C1244 H1220 0.951 . S
C1244 C1245 1.366 . S
C1244 C1246 1.388 . S
C1245 C1244 1.366 . S
C1245 C1249 1.385 . S
C1246 H1221 0.951 . S
C1246 C1244 1.388 . S
C1246 C1247 1.366 . S
C1247 C1246 1.366 . S
C1247 C1248 1.414 . S
C1247 C1250 1.499 . S
C1248 H1222 0.950 . S
C1248 C1247 1.414 . S
C1248 C1249 1.374 . S
C1249 H1223 0.950 . S
C1249 C1245 1.385 . S
C1249 C1248 1.374 . S
C1250 C1247 1.499 . S
C1250 C1251 1.373 . S
C1250 C1252 1.389 . S
C1251 H1224 0.950 . S
C1251 C1237 1.377 . S
C1251 C1250 1.373 . S
C1252 C1236 1.377 . S
C1252 C1250 1.389 . S
C1252 C1253 1.524 . S
C1253 C1252 1.524 . S
C1253 C1254 1.397 . S
C1253 C1258 1.363 . S
C1254 H1225 0.950 . S
C1254 C1253 1.397 . S
C1254 C1255 1.334 . S
C1255 H1226 0.950 . S
C1255 C1254 1.334 . S
C1255 C1256 1.287 . S
C1256 C1255 1.287 . S
C1256 C1257 1.524 . S
C1256 H1259 0.999 . S
C1257 H1227 0.950 . S
C1257 C1256 1.524 . S
C1257 C1258 1.415 . S
C1258 H1228 0.950 . S
C1258 C1253 1.363 . S
C1258 C1257 1.415 . S
H1259 C1256 0.999 . S
H1260 C1241 0.913 . S
H1261 C1279 0.951 . S
H1262 C1281 0.951 . S
H1263 C1283 0.950 . S
H1264 C1284 0.950 . S
H1265 C1286 0.950 . S
H1266 C1289 0.950 . S
H1267 C1290 0.950 . S
H1268 C1292 0.950 . S
H1269 C1293 0.950 . S
H1270 C1294 0.951 . S
H1271 C1296 0.951 . S
H1272 C1298 0.950 . S
H1273 C1299 0.950 . S
H1274 C1301 0.950 . S
H1275 C1304 0.950 . S
H1276 C1305 0.950 . S
H1277 C1307 0.950 . S
H1278 C1308 0.950 . S
C1279 H1261 0.951 . S
C1279 C1280 1.366 . S
C1279 C1281 1.388 . S
C1280 C1279 1.366 . S
C1280 C1284 1.385 . S
C1281 H1262 0.951 . S
C1281 C1279 1.388 . S
C1281 C1282 1.366 . S
C1282 C1281 1.366 . S
C1282 C1283 1.414 . S
C1282 C1285 1.499 . S
C1283 H1263 0.950 . S
C1283 C1282 1.414 . S
C1283 C1284 1.374 . S
C1284 H1264 0.950 . S
C1284 C1280 1.385 . S
C1284 C1283 1.374 . S
C1285 C1282 1.499 . S
C1285 C1286 1.373 . S
C1285 C1287 1.389 . S
C1286 H1265 0.950 . S
C1286 C1285 1.373 . S
C1286 C1302 1.377 . S
C1287 C1285 1.389 . S
C1287 C1288 1.524 . S
C1287 C1301 1.377 . S
C1288 C1287 1.524 . S
C1288 C1289 1.397 . S
C1288 C1293 1.363 . S
C1289 H1266 0.950 . S
C1289 C1288 1.397 . S
C1289 C1290 1.334 . S
C1290 H1267 0.950 . S
C1290 C1289 1.334 . S
C1290 C1291 1.287 . S
C1291 C1290 1.287 . S
C1291 C1292 1.524 . S
C1291 H1310 0.913 . S
C1292 H1268 0.950 . S
C1292 C1291 1.524 . S
C1292 C1293 1.415 . S
C1293 H1269 0.950 . S
C1293 C1288 1.363 . S
C1293 C1292 1.415 . S
C1294 H1270 0.951 . S
C1294 C1295 1.366 . S
C1294 C1296 1.388 . S
C1295 C1294 1.366 . S
C1295 C1299 1.385 . S
C1296 H1271 0.951 . S
C1296 C1294 1.388 . S
C1296 C1297 1.366 . S
C1297 C1296 1.366 . S
C1297 C1298 1.414 . S
C1297 C1300 1.499 . S
C1298 H1272 0.950 . S
C1298 C1297 1.414 . S
C1298 C1299 1.374 . S
C1299 H1273 0.950 . S
C1299 C1295 1.385 . S
C1299 C1298 1.374 . S
C1300 C1297 1.499 . S
C1300 C1301 1.373 . S
C1300 C1302 1.389 . S
C1301 H1274 0.950 . S
C1301 C1287 1.377 . S
C1301 C1300 1.373 . S
C1302 C1286 1.377 . S
C1302 C1300 1.389 . S
C1302 C1303 1.524 . S
C1303 C1302 1.524 . S
C1303 C1304 1.397 . S
C1303 C1308 1.363 . S
C1304 H1275 0.950 . S
C1304 C1303 1.397 . S
C1304 C1305 1.334 . S
C1305 H1276 0.950 . S
C1305 C1304 1.334 . S
C1305 C1306 1.287 . S
C1306 C1305 1.287 . S
C1306 C1307 1.524 . S
C1306 H1309 0.999 . S
C1307 H1277 0.950 . S
C1307 C1306 1.524 . S
C1307 C1308 1.415 . S
C1308 H1278 0.950 . S
C1308 C1303 1.363 . S
C1308 C1307 1.415 . S
H1309 C1306 0.999 . S
H1310 C1291 0.913 . S
H1311 C1329 0.951 . S
H1312 C1331 0.951 . S
H1313 C1333 0.950 . S
H1314 C1334 0.950 . S
H1315 C1336 0.950 . S
H1316 C1339 0.950 . S
H1317 C1340 0.950 . S
H1318 C1342 0.950 . S
H1319 C1343 0.950 . S
H1320 C1344 0.951 . S
H1321 C1346 0.951 . S
H1322 C1348 0.950 . S
H1323 C1349 0.950 . S
H1324 C1351 0.950 . S
H1325 C1354 0.950 . S
H1326 C1355 0.950 . S
H1327 C1357 0.950 . S
H1328 C1358 0.950 . S
C1329 H1311 0.951 . S
C1329 C1330 1.366 . S
C1329 C1331 1.388 . S
C1330 C1329 1.366 . S
C1330 C1334 1.385 . S
C1331 H1312 0.951 . S
C1331 C1329 1.388 . S
C1331 C1332 1.366 . S
C1332 C1331 1.366 . S
C1332 C1333 1.414 . S
C1332 C1335 1.499 . S
C1333 H1313 0.950 . S
C1333 C1332 1.414 . S
C1333 C1334 1.374 . S
C1334 H1314 0.950 . S
C1334 C1330 1.385 . S
C1334 C1333 1.374 . S
C1335 C1332 1.499 . S
C1335 C1336 1.373 . S
C1335 C1337 1.389 . S
C1336 H1315 0.950 . S
C1336 C1335 1.373 . S
C1336 C1352 1.377 . S
C1337 C1335 1.389 . S
C1337 C1338 1.524 . S
C1337 C1351 1.377 . S
C1338 C1337 1.524 . S
C1338 C1339 1.397 . S
C1338 C1343 1.363 . S
C1339 H1316 0.950 . S
C1339 C1338 1.397 . S
C1339 C1340 1.334 . S
C1340 H1317 0.950 . S
C1340 C1339 1.334 . S
C1340 C1341 1.287 . S
C1341 C1340 1.287 . S
C1341 C1342 1.524 . S
C1341 H1360 0.913 . S
C1342 H1318 0.950 . S
C1342 C1341 1.524 . S
C1342 C1343 1.415 . S
C1343 H1319 0.950 . S
C1343 C1338 1.363 . S
C1343 C1342 1.415 . S
C1344 H1320 0.951 . S
C1344 C1345 1.366 . S
C1344 C1346 1.388 . S
C1345 C1344 1.366 . S
C1345 C1349 1.385 . S
C1346 H1321 0.951 . S
C1346 C1344 1.388 . S
C1346 C1347 1.366 . S
C1347 C1346 1.366 . S
C1347 C1348 1.414 . S
C1347 C1350 1.499 . S
C1348 H1322 0.950 . S
C1348 C1347 1.414 . S
C1348 C1349 1.374 . S
C1349 H1323 0.950 . S
C1349 C1345 1.385 . S
C1349 C1348 1.374 . S
C1350 C1347 1.499 . S
C1350 C1351 1.373 . S
C1350 C1352 1.389 . S
C1351 H1324 0.950 . S
C1351 C1337 1.377 . S
C1351 C1350 1.373 . S
C1352 C1336 1.377 . S
C1352 C1350 1.389 . S
C1352 C1353 1.524 . S
C1353 C1352 1.524 . S
C1353 C1354 1.397 . S
C1353 C1358 1.363 . S
C1354 H1325 0.950 . S
C1354 C1353 1.397 . S
C1354 C1355 1.334 . S
C1355 H1326 0.950 . S
C1355 C1354 1.334 . S
C1355 C1356 1.287 . S
C1356 C1355 1.287 . S
C1356 C1357 1.524 . S
C1356 H1359 0.999 . S
C1357 H1327 0.950 . S
C1357 C1356 1.524 . S
C1357 C1358 1.415 . S
C1358 H1328 0.950 . S
C1358 C1353 1.363 . S
C1358 C1357 1.415 . S
H1359 C1356 0.999 . S
H1360 C1341 0.913 . S
H1361 C1379 0.951 . S
H1362 C1381 0.951 . S
H1363 C1383 0.950 . S
H1364 C1384 0.950 . S
H1365 C1386 0.950 . S
H1366 C1389 0.950 . S
H1367 C1390 0.950 . S
H1368 C1392 0.950 . S
H1369 C1393 0.950 . S
H1370 C1394 0.951 . S
H1371 C1396 0.951 . S
H1372 C1398 0.950 . S
H1373 C1399 0.950 . S
H1374 C1401 0.950 . S
H1375 C1404 0.950 . S
H1376 C1405 0.950 . S
H1377 C1407 0.950 . S
H1378 C1408 0.950 . S
C1379 H1361 0.951 . S
C1379 C1380 1.366 . S
C1379 C1381 1.388 . S
C1380 C1379 1.366 . S
C1380 C1384 1.385 . S
C1381 H1362 0.951 . S
C1381 C1379 1.388 . S
C1381 C1382 1.366 . S
C1382 C1381 1.366 . S
C1382 C1383 1.414 . S
C1382 C1385 1.499 . S
C1383 H1363 0.950 . S
C1383 C1382 1.414 . S
C1383 C1384 1.374 . S
C1384 H1364 0.950 . S
C1384 C1380 1.385 . S
C1384 C1383 1.374 . S
C1385 C1382 1.499 . S
C1385 C1386 1.373 . S
C1385 C1387 1.389 . S
C1386 H1365 0.950 . S
C1386 C1385 1.373 . S
C1386 C1402 1.377 . S
C1387 C1385 1.389 . S
C1387 C1388 1.524 . S
C1387 C1401 1.377 . S
C1388 C1387 1.524 . S
C1388 C1389 1.397 . S
C1388 C1393 1.363 . S
C1389 H1366 0.950 . S
C1389 C1388 1.397 . S
C1389 C1390 1.334 . S
C1390 H1367 0.950 . S
C1390 C1389 1.334 . S
C1390 C1391 1.287 . S
C1391 C1390 1.287 . S
C1391 C1392 1.524 . S
C1391 H1410 0.913 . S
C1392 H1368 0.950 . S
C1392 C1391 1.524 . S
C1392 C1393 1.415 . S
C1393 H1369 0.950 . S
C1393 C1388 1.363 . S
C1393 C1392 1.415 . S
C1394 H1370 0.951 . S
C1394 C1395 1.366 . S
C1394 C1396 1.388 . S
C1395 C1394 1.366 . S
C1395 C1399 1.385 . S
C1396 H1371 0.951 . S
C1396 C1394 1.388 . S
C1396 C1397 1.366 . S
C1397 C1396 1.366 . S
C1397 C1398 1.414 . S
C1397 C1400 1.499 . S
C1398 H1372 0.950 . S
C1398 C1397 1.414 . S
C1398 C1399 1.374 . S
C1399 H1373 0.950 . S
C1399 C1395 1.385 . S
C1399 C1398 1.374 . S
C1400 C1397 1.499 . S
C1400 C1401 1.373 . S
C1400 C1402 1.389 . S
C1401 H1374 0.950 . S
C1401 C1387 1.377 . S
C1401 C1400 1.373 . S
C1402 C1386 1.377 . S
C1402 C1400 1.389 . S
C1402 C1403 1.524 . S
C1403 C1402 1.524 . S
C1403 C1404 1.397 . S
C1403 C1408 1.363 . S
C1404 H1375 0.950 . S
C1404 C1403 1.397 . S
C1404 C1405 1.334 . S
C1405 H1376 0.950 . S
C1405 C1404 1.334 . S
C1405 C1406 1.287 . S
C1406 C1405 1.287 . S
C1406 C1407 1.524 . S
C1406 H1409 0.999 . S
C1407 H1377 0.950 . S
C1407 C1406 1.524 . S
C1407 C1408 1.415 . S
C1408 H1378 0.950 . S
C1408 C1403 1.363 . S
C1408 C1407 1.415 . S
H1409 C1406 0.999 . S
H1410 C1391 0.913 . S
H1411 C1429 0.951 . S
H1412 C1431 0.951 . S
H1413 C1433 0.950 . S
H1414 C1434 0.950 . S
H1415 C1436 0.950 . S
H1416 C1439 0.950 . S
H1417 C1440 0.950 . S
H1418 C1442 0.950 . S
H1419 C1443 0.950 . S
H1420 C1444 0.951 . S
H1421 C1446 0.951 . S
H1422 C1448 0.950 . S
H1423 C1449 0.950 . S
H1424 C1451 0.950 . S
H1425 C1454 0.950 . S
H1426 C1455 0.950 . S
H1427 C1457 0.950 . S
H1428 C1458 0.950 . S
C1429 H1411 0.951 . S
C1429 C1430 1.366 . S
C1429 C1431 1.388 . S
C1430 C1429 1.366 . S
C1430 C1434 1.385 . S
C1431 H1412 0.951 . S
C1431 C1429 1.388 . S
C1431 C1432 1.366 . S
C1432 C1431 1.366 . S
C1432 C1433 1.414 . S
C1432 C1435 1.499 . S
C1433 H1413 0.950 . S
C1433 C1432 1.414 . S
C1433 C1434 1.374 . S
C1434 H1414 0.950 . S
C1434 C1430 1.385 . S
C1434 C1433 1.374 . S
C1435 C1432 1.499 . S
C1435 C1436 1.373 . S
C1435 C1437 1.389 . S
C1436 H1415 0.950 . S
C1436 C1435 1.373 . S
C1436 C1452 1.377 . S
C1437 C1435 1.389 . S
C1437 C1438 1.524 . S
C1437 C1451 1.377 . S
C1438 C1437 1.524 . S
C1438 C1439 1.397 . S
C1438 C1443 1.363 . S
C1439 H1416 0.950 . S
C1439 C1438 1.397 . S
C1439 C1440 1.334 . S
C1440 H1417 0.950 . S
C1440 C1439 1.334 . S
C1440 C1441 1.287 . S
C1441 C1440 1.287 . S
C1441 C1442 1.524 . S
C1441 H1460 0.913 . S
C1442 H1418 0.950 . S
C1442 C1441 1.524 . S
C1442 C1443 1.415 . S
C1443 H1419 0.950 . S
C1443 C1438 1.363 . S
C1443 C1442 1.415 . S
C1444 H1420 0.951 . S
C1444 C1445 1.366 . S
C1444 C1446 1.388 . S
C1445 C1444 1.366 . S
C1445 C1449 1.385 . S
C1446 H1421 0.951 . S
C1446 C1444 1.388 . S
C1446 C1447 1.366 . S
C1447 C1446 1.366 . S
C1447 C1448 1.414 . S
C1447 C1450 1.499 . S
C1448 H1422 0.950 . S
C1448 C1447 1.414 . S
C1448 C1449 1.374 . S
C1449 H1423 0.950 . S
C1449 C1445 1.385 . S
C1449 C1448 1.374 . S
C1450 C1447 1.499 . S
C1450 C1451 1.373 . S
C1450 C1452 1.389 . S
C1451 H1424 0.950 . S
C1451 C1437 1.377 . S
C1451 C1450 1.373 . S
C1452 C1436 1.377 . S
C1452 C1450 1.389 . S
C1452 C1453 1.524 . S
C1453 C1452 1.524 . S
C1453 C1454 1.397 . S
C1453 C1458 1.363 . S
C1454 H1425 0.950 . S
C1454 C1453 1.397 . S
C1454 C1455 1.334 . S
C1455 H1426 0.950 . S
C1455 C1454 1.334 . S
C1455 C1456 1.287 . S
C1456 C1455 1.287 . S
C1456 C1457 1.524 . S
C1456 H1459 0.999 . S
C1457 H1427 0.950 . S
C1457 C1456 1.524 . S
C1457 C1458 1.415 . S
C1458 H1428 0.950 . S
C1458 C1453 1.363 . S
C1458 C1457 1.415 . S
H1459 C1456 0.999 . S
H1460 C1441 0.913 . S
H1461 C1479 0.951 . S
H1462 C1481 0.951 . S
H1463 C1483 0.950 . S
H1464 C1484 0.950 . S
H1465 C1486 0.950 . S
H1466 C1489 0.950 . S
H1467 C1490 0.950 . S
H1468 C1492 0.950 . S
H1469 C1493 0.950 . S
H1470 C1494 0.951 . S
H1471 C1496 0.951 . S
H1472 C1498 0.950 . S
H1473 C1499 0.950 . S
H1474 C1501 0.950 . S
H1475 C1504 0.950 . S
H1476 C1505 0.950 1_545 S
H1477 C1507 0.950 . S
H1478 C1508 0.950 . S
C1479 H1461 0.951 . S
C1479 C1480 1.366 . S
C1479 C1481 1.388 . S
C1480 C1479 1.366 . S
C1480 C1484 1.385 . S
C1481 H1462 0.951 . S
C1481 C1479 1.388 . S
C1481 C1482 1.366 . S
C1482 C1481 1.366 . S
C1482 C1483 1.414 . S
C1482 C1485 1.499 . S
C1483 H1463 0.950 . S
C1483 C1482 1.414 . S
C1483 C1484 1.374 . S
C1484 H1464 0.950 . S
C1484 C1480 1.385 . S
C1484 C1483 1.374 . S
C1485 C1482 1.499 . S
C1485 C1486 1.373 . S
C1485 C1487 1.389 . S
C1486 H1465 0.950 . S
C1486 C1485 1.373 . S
C1486 C1502 1.377 . S
C1487 C1485 1.389 . S
C1487 C1488 1.524 . S
C1487 C1501 1.377 . S
C1488 C1487 1.524 . S
C1488 C1489 1.397 . S
C1488 C1493 1.363 . S
C1489 H1466 0.950 . S
C1489 C1488 1.397 . S
C1489 C1490 1.334 . S
C1490 H1467 0.950 . S
C1490 C1489 1.334 . S
C1490 C1491 1.287 . S
C1491 C1490 1.287 . S
C1491 C1492 1.524 . S
C1491 H1510 0.913 . S
C1492 H1468 0.950 . S
C1492 C1491 1.524 . S
C1492 C1493 1.415 . S
C1493 H1469 0.950 . S
C1493 C1488 1.363 . S
C1493 C1492 1.415 . S
C1494 H1470 0.951 . S
C1494 C1495 1.366 . S
C1494 C1496 1.388 . S
C1495 C1494 1.366 . S
C1495 C1499 1.385 . S
C1496 H1471 0.951 . S
C1496 C1494 1.388 . S
C1496 C1497 1.366 . S
C1497 C1496 1.366 . S
C1497 C1498 1.414 . S
C1497 C1500 1.499 . S
C1498 H1472 0.950 . S
C1498 C1497 1.414 . S
C1498 C1499 1.374 . S
C1499 H1473 0.950 . S
C1499 C1495 1.385 . S
C1499 C1498 1.374 . S
C1500 C1497 1.499 . S
C1500 C1501 1.373 . S
C1500 C1502 1.389 . S
C1501 H1474 0.950 . S
C1501 C1487 1.377 . S
C1501 C1500 1.373 . S
C1502 C1486 1.377 . S
C1502 C1500 1.389 . S
C1502 C1503 1.524 . S
C1503 C1502 1.524 . S
C1503 C1504 1.397 . S
C1503 C1508 1.363 . S
C1504 H1475 0.950 . S
C1504 C1503 1.397 . S
C1504 C1505 1.334 . S
C1505 H1476 0.950 1_565 S
C1505 C1504 1.334 . S
C1505 C1506 1.287 . S
C1506 C1505 1.287 . S
C1506 C1507 1.524 . S
C1506 H1509 0.999 1_565 S
C1507 H1477 0.950 . S
C1507 C1506 1.524 . S
C1507 C1508 1.415 . S
C1508 H1478 0.950 . S
C1508 C1503 1.363 . S
C1508 C1507 1.415 . S
H1509 C1506 0.999 1_545 S
H1510 C1491 0.913 . S
H1511 C1529 0.951 . S
H1512 C1531 0.951 . S
H1513 C1533 0.950 . S
H1514 C1534 0.950 . S
H1515 C1536 0.950 . S
H1516 C1539 0.950 . S
H1517 C1540 0.950 . S
H1518 C1542 0.950 . S
H1519 C1543 0.950 . S
H1520 C1544 0.951 . S
H1521 C1546 0.951 . S
H1522 C1548 0.950 . S
H1523 C1549 0.950 . S
H1524 C1551 0.950 . S
H1525 C1554 0.950 . S
H1526 C1555 0.950 . S
H1527 C1557 0.950 . S
H1528 C1558 0.950 . S
C1529 H1511 0.951 . S
C1529 C1530 1.366 . S
C1529 C1531 1.388 . S
C1530 C1529 1.366 . S
C1530 C1534 1.385 . S
C1531 H1512 0.951 . S
C1531 C1529 1.388 . S
C1531 C1532 1.366 . S
C1532 C1531 1.366 . S
C1532 C1533 1.414 . S
C1532 C1535 1.499 . S
C1533 H1513 0.950 . S
C1533 C1532 1.414 . S
C1533 C1534 1.374 . S
C1534 H1514 0.950 . S
C1534 C1530 1.385 . S
C1534 C1533 1.374 . S
C1535 C1532 1.499 . S
C1535 C1536 1.373 . S
C1535 C1537 1.389 . S
C1536 H1515 0.950 . S
C1536 C1535 1.373 . S
C1536 C1552 1.377 . S
C1537 C1535 1.389 . S
C1537 C1538 1.524 . S
C1537 C1551 1.377 . S
C1538 C1537 1.524 . S
C1538 C1539 1.397 . S
C1538 C1543 1.363 . S
C1539 H1516 0.950 . S
C1539 C1538 1.397 . S
C1539 C1540 1.334 . S
C1540 H1517 0.950 . S
C1540 C1539 1.334 . S
C1540 C1541 1.287 . S
C1541 C1540 1.287 . S
C1541 C1542 1.524 . S
C1541 H1560 0.913 . S
C1542 H1518 0.950 . S
C1542 C1541 1.524 . S
C1542 C1543 1.415 . S
C1543 H1519 0.950 . S
C1543 C1538 1.363 . S
C1543 C1542 1.415 . S
C1544 H1520 0.951 . S
C1544 C1545 1.366 . S
C1544 C1546 1.388 . S
C1545 C1544 1.366 . S
C1545 C1549 1.385 . S
C1546 H1521 0.951 . S
C1546 C1544 1.388 . S
C1546 C1547 1.366 . S
C1547 C1546 1.366 . S
C1547 C1548 1.414 . S
C1547 C1550 1.499 . S
C1548 H1522 0.950 . S
C1548 C1547 1.414 . S
C1548 C1549 1.374 . S
C1549 H1523 0.950 . S
C1549 C1545 1.385 . S
C1549 C1548 1.374 . S
C1550 C1547 1.499 . S
C1550 C1551 1.373 . S
C1550 C1552 1.389 . S
C1551 H1524 0.950 . S
C1551 C1537 1.377 . S
C1551 C1550 1.373 . S
C1552 C1536 1.377 . S
C1552 C1550 1.389 . S
C1552 C1553 1.524 . S
C1553 C1552 1.524 . S
C1553 C1554 1.397 . S
C1553 C1558 1.363 . S
C1554 H1525 0.950 . S
C1554 C1553 1.397 . S
C1554 C1555 1.334 . S
C1555 H1526 0.950 . S
C1555 C1554 1.334 . S
C1555 C1556 1.287 . S
C1556 C1555 1.287 . S
C1556 C1557 1.524 . S
C1556 H1559 0.999 . S
C1557 H1527 0.950 . S
C1557 C1556 1.524 . S
C1557 C1558 1.415 . S
C1558 H1528 0.950 . S
C1558 C1553 1.363 . S
C1558 C1557 1.415 . S
H1559 C1556 0.999 . S
H1560 C1541 0.913 . S
H1561 C1579 0.951 . S
H1562 C1581 0.951 . S
H1563 C1583 0.950 . S
H1564 C1584 0.950 . S
H1565 C1586 0.950 . S
H1566 C1589 0.950 . S
H1567 C1590 0.950 . S
H1568 C1592 0.950 . S
H1569 C1593 0.950 . S
H1570 C1594 0.951 . S
H1571 C1596 0.951 . S
H1572 C1598 0.950 . S
H1573 C1599 0.950 . S
H1574 C1601 0.950 . S
H1575 C1604 0.950 . S
H1576 C1605 0.950 . S
H1577 C1607 0.950 . S
H1578 C1608 0.950 . S
C1579 H1561 0.951 . S
C1579 C1580 1.366 . S
C1579 C1581 1.388 . S
C1580 C1579 1.366 . S
C1580 C1584 1.385 . S
C1581 H1562 0.951 . S
C1581 C1579 1.388 . S
C1581 C1582 1.366 . S
C1582 C1581 1.366 . S
C1582 C1583 1.414 . S
C1582 C1585 1.499 . S
C1583 H1563 0.950 . S
C1583 C1582 1.414 . S
C1583 C1584 1.374 . S
C1584 H1564 0.950 . S
C1584 C1580 1.385 . S
C1584 C1583 1.374 . S
C1585 C1582 1.499 . S
C1585 C1586 1.373 . S
C1585 C1587 1.389 . S
C1586 H1565 0.950 . S
C1586 C1585 1.373 . S
C1586 C1602 1.377 . S
C1587 C1585 1.389 . S
C1587 C1588 1.524 . S
C1587 C1601 1.377 . S
C1588 C1587 1.524 . S
C1588 C1589 1.397 . S
C1588 C1593 1.363 . S
C1589 H1566 0.950 . S
C1589 C1588 1.397 . S
C1589 C1590 1.334 . S
C1590 H1567 0.950 . S
C1590 C1589 1.334 . S
C1590 C1591 1.287 . S
C1591 C1590 1.287 . S
C1591 C1592 1.524 . S
C1591 H1610 0.913 . S
C1592 H1568 0.950 . S
C1592 C1591 1.524 . S
C1592 C1593 1.415 . S
C1593 H1569 0.950 . S
C1593 C1588 1.363 . S
C1593 C1592 1.415 . S
C1594 H1570 0.951 . S
C1594 C1595 1.366 . S
C1594 C1596 1.388 . S
C1595 C1594 1.366 . S
C1595 C1599 1.385 . S
C1596 H1571 0.951 . S
C1596 C1594 1.388 . S
C1596 C1597 1.366 . S
C1597 C1596 1.366 . S
C1597 C1598 1.414 . S
C1597 C1600 1.499 . S
C1598 H1572 0.950 . S
C1598 C1597 1.414 . S
C1598 C1599 1.374 . S
C1599 H1573 0.950 . S
C1599 C1595 1.385 . S
C1599 C1598 1.374 . S
C1600 C1597 1.499 . S
C1600 C1601 1.373 . S
C1600 C1602 1.389 . S
C1601 H1574 0.950 . S
C1601 C1587 1.377 . S
C1601 C1600 1.373 . S
C1602 C1586 1.377 . S
C1602 C1600 1.389 . S
C1602 C1603 1.524 . S
C1603 C1602 1.524 . S
C1603 C1604 1.397 . S
C1603 C1608 1.363 . S
C1604 H1575 0.950 . S
C1604 C1603 1.397 . S
C1604 C1605 1.334 . S
C1605 H1576 0.950 . S
C1605 C1604 1.334 . S
C1605 C1606 1.287 . S
C1606 C1605 1.287 . S
C1606 C1607 1.524 . S
C1606 H1609 0.999 . S
C1607 H1577 0.950 . S
C1607 C1606 1.524 . S
C1607 C1608 1.415 . S
C1608 H1578 0.950 . S
C1608 C1603 1.363 . S
C1608 C1607 1.415 . S
H1609 C1606 0.999 . S
H1610 C1591 0.913 . S
C430 C22 1.873 . S
C445 C329 1.799 . S
C480 C92 1.885 . S
C495 C376 1.851 . S
C545 C380 2.020 . S
C530 C144 2.084 . S
C595 C345 1.703 . S
C580 C197 1.740 . S
C630 C250 1.994 . S
C645 C360 1.927 . S
C695 C382 0.958 . S
C680 C287 0.981 . S
C745 C351 1.484 . S
C730 C145 1.538 . S
C780 C198 1.510 . S
C795 C391 1.460 . S
C845 C320 1.432 . S
C830 C251 1.491 1_556 S
C880 C294 1.515 . S
C895 C349 1.471 . S
C930 C29 2.023 . S
C945 C407 1.972 . S
C995 C318 1.777 . S
C980 C91 1.818 . S
C1045 C336 1.626 . S
C1030 C188 1.688 . S
C1095 C350 1.390 . S
C1080 C241 1.424 . S
C1145 C404 1.852 . S
C1130 C304 1.913 . S
C1195 C319 1.530 . S
C1180 C39 1.561 . S
C1245 C367 1.476 . S
C1230 C75 1.544 1_556 S
C1280 C135 0.786 . S
C1295 C390 0.782 . S
C1345 C359 1.292 . S
C1330 C303 1.340 . S
C1395 C398 1.282 . S
C1380 C38 1.319 . S
C1445 C328 1.037 . S
C1430 C82 1.074 . S
C1495 C373 1.305 . S
C1480 C128 1.343 . S
C1530 C181 1.847 . S
C1545 C381 1.803 . S
C1580 C234 1.368 . S
C1595 C342 1.331 . S
