# Generated by pormake.
# Topology apo, (3,6)-cn, num edge types: 1
# Building blocks:
#     Node 0, Type 0, BuildingBlock: WUSLED_clean_sbu_0, # of connection points: 3
#     Node 1, Type 0, BuildingBlock: WUSLED_clean_sbu_0, # of connection points: 3
#     Node 2, Type 0, BuildingBlock: WUSLED_clean_sbu_0, # of connection points: 3
#     Node 3, Type 0, BuildingBlock: WUSLED_clean_sbu_0, # of connection points: 3
#     Node 4, Type 0, BuildingBlock: WUSLED_clean_sbu_0, # of connection points: 3
#     Node 5, Type 0, BuildingBlock: WUSLED_clean_sbu_0, # of connection points: 3
#     Node 6, Type 0, BuildingBlock: WUSLED_clean_sbu_0, # of connection points: 3
#     Node 7, Type 0, BuildingBlock: WUSLED_clean_sbu_0, # of connection points: 3
#     Node 8, Type 1, BuildingBlock: MIDCAF_clean_sbu_0, # of connection points: 6
#     Node 9, Type 1, BuildingBlock: MIDCAF_clean_sbu_0, # of connection points: 6
#     Node 10, Type 1, BuildingBlock: MIDCAF_clean_sbu_0, # of connection points: 6
#     Node 11, Type 1, BuildingBlock: MIDCAF_clean_sbu_0, # of connection points: 6
#     Edge 12, Type (0, 1), BuildingBlock: EYOCIG_clean_linker_4, # of connection points: 2
#     Edge 13, Type (0, 1), BuildingBlock: EYOCIG_clean_linker_4, # of connection points: 2
#     Edge 14, Type (0, 1), BuildingBlock: EYOCIG_clean_linker_4, # of connection points: 2
#     Edge 15, Type (0, 1), BuildingBlock: EYOCIG_clean_linker_4, # of connection points: 2
#     Edge 16, Type (0, 1), BuildingBlock: EYOCIG_clean_linker_4, # of connection points: 2
#     Edge 17, Type (0, 1), BuildingBlock: EYOCIG_clean_linker_4, # of connection points: 2
#     Edge 18, Type (0, 1), BuildingBlock: EYOCIG_clean_linker_4, # of connection points: 2
#     Edge 19, Type (0, 1), BuildingBlock: EYOCIG_clean_linker_4, # of connection points: 2
#     Edge 20, Type (0, 1), BuildingBlock: EYOCIG_clean_linker_4, # of connection points: 2
#     Edge 21, Type (0, 1), BuildingBlock: EYOCIG_clean_linker_4, # of connection points: 2
#     Edge 22, Type (0, 1), BuildingBlock: EYOCIG_clean_linker_4, # of connection points: 2
#     Edge 23, Type (0, 1), BuildingBlock: EYOCIG_clean_linker_4, # of connection points: 2
#     Edge 24, Type (0, 1), BuildingBlock: EYOCIG_clean_linker_4, # of connection points: 2
#     Edge 25, Type (0, 1), BuildingBlock: EYOCIG_clean_linker_4, # of connection points: 2
#     Edge 26, Type (0, 1), BuildingBlock: EYOCIG_clean_linker_4, # of connection points: 2
#     Edge 27, Type (0, 1), BuildingBlock: EYOCIG_clean_linker_4, # of connection points: 2
#     Edge 28, Type (0, 1), BuildingBlock: EYOCIG_clean_linker_4, # of connection points: 2
#     Edge 29, Type (0, 1), BuildingBlock: EYOCIG_clean_linker_4, # of connection points: 2
#     Edge 30, Type (0, 1), BuildingBlock: EYOCIG_clean_linker_4, # of connection points: 2
#     Edge 31, Type (0, 1), BuildingBlock: EYOCIG_clean_linker_4, # of connection points: 2
#     Edge 32, Type (0, 1), BuildingBlock: EYOCIG_clean_linker_4, # of connection points: 2
#     Edge 33, Type (0, 1), BuildingBlock: EYOCIG_clean_linker_4, # of connection points: 2
#     Edge 34, Type (0, 1), BuildingBlock: EYOCIG_clean_linker_4, # of connection points: 2
#     Edge 35, Type (0, 1), BuildingBlock: EYOCIG_clean_linker_4, # of connection points: 2
# Relax obj value: 0.081
# Max RMSD: 0.098
# Mean RMSD: 0.087
data_MOF--net-apo--node1-WUSLED_clean_sbu_0--node2-MIDCAF_clean_sbu_0--edge1-EYOCIG_clean_linker_4
_symmetry_space_group_name_H-M    P1
_symmetry_Int_Tables_number       1
_symmetry_cell_setting            triclinic
loop_
_symmetry_equiv_pos_as_xyz
'x, y, z'
_cell_length_a     38.424502
_cell_length_b     45.91293
_cell_length_c     40.576598
_cell_angle_alpha  90.63079
_cell_angle_beta   90.058321
_cell_angle_gamma 90.202426
loop_
_atom_site_label
_atom_site_type_symbol
_atom_site_fract_x
_atom_site_fract_y
_atom_site_fract_z
_atom_type_partial_charge
C0 C 0.35098 0.41968 0.34543 0.0
C1 C 0.37486 0.43456 0.3659 0.0
C2 C 0.39291 0.46431 0.31946 0.0
C3 C 0.39567 0.45693 0.35289 0.0
C4 C 0.36876 0.44979 0.29939 0.0
C5 C 0.34797 0.42773 0.31232 0.0
U6 U 0.31729 0.35457 0.40061 0.0
O7 O 0.26429 0.33612 0.39973 0.0
O8 O 0.30838 0.30981 0.38184 0.0
C9 C 0.27483 0.31085 0.38797 0.0
C10 C 0.33036 0.39423 0.35593 0.0
C11 C 0.25072 0.29377 0.36693 0.0
C12 C 0.2144 0.28629 0.31838 0.0
C13 C 0.23948 0.30278 0.33571 0.0
C14 C 0.21208 0.2517 0.36297 0.0
C15 C 0.20038 0.26085 0.33211 0.0
C16 C 0.23713 0.268 0.38012 0.0
C17 C 0.35948 0.34635 0.49019 0.0
C18 C 0.35454 0.31416 0.53732 0.0
C19 C 0.39847 0.35214 0.53698 0.0
C20 C 0.38733 0.36059 0.50586 0.0
C21 C 0.38187 0.32923 0.55314 0.0
C22 C 0.34324 0.32272 0.50584 0.0
C23 C 0.34937 0.35756 0.45767 0.0
O24 O 0.34693 0.36935 0.35768 0.0
O25 O 0.30643 0.39763 0.37882 0.0
O26 O 0.31779 0.36777 0.45318 0.0
O27 O 0.36288 0.34509 0.43142 0.0
H28 H 0.37777 0.42863 0.39151 0.0
H29 H 0.41413 0.46821 0.36874 0.0
H30 H 0.36612 0.45532 0.27361 0.0
H31 H 0.32985 0.41644 0.29614 0.0
H32 H 0.20558 0.29358 0.29449 0.0
H33 H 0.24957 0.32261 0.32506 0.0
H34 H 0.20161 0.23216 0.37402 0.0
H35 H 0.24545 0.26074 0.40419 0.0
H36 H 0.34156 0.2963 0.54955 0.0
H37 H 0.41966 0.36397 0.5487 0.0
H38 H 0.40032 0.37868 0.49406 0.0
H39 H 0.32186 0.31123 0.49404 0.0
C40 C 0.13091 0.18261 0.98529 0.0
C41 C 0.10584 0.16161 0.9937 0.0
C42 C 0.10858 0.17852 0.05073 0.0
C43 C 0.09449 0.15971 0.02654 0.0
C44 C 0.13262 0.19986 0.04185 0.0
C45 C 0.14357 0.20193 0.00937 0.0
U46 U 0.16639 0.16559 0.89458 0.0
O47 O 0.18676 0.20105 0.86377 0.0
O48 O 0.22294 0.16836 0.88503 0.0
C49 C 0.2189 0.1918 0.86717 0.0
C50 C 0.14867 0.18339 0.95349 0.0
C51 C 0.24858 0.20874 0.85502 0.0
C52 C 0.28952 0.24929 0.85803 0.0
C53 C 0.26195 0.2333 0.87184 0.0
C54 C 0.29037 0.21606 0.81121 0.0
C55 C 0.30354 0.24075 0.82741 0.0
C56 C 0.26319 0.20016 0.82495 0.0
C57 C 0.12525 0.09582 0.84626 0.0
C58 C 0.12976 0.06479 0.79737 0.0
C59 C 0.09293 0.05042 0.84287 0.0
C60 C 0.10212 0.07572 0.85996 0.0
C61 C 0.10651 0.04476 0.81155 0.0
C62 C 0.13922 0.09036 0.81477 0.0
C63 C 0.13538 0.12066 0.86739 0.0
O64 O 0.17284 0.16383 0.94804 0.0
O65 O 0.13239 0.19228 0.92691 0.0
O66 O 0.12693 0.14758 0.86001 0.0
O67 O 0.16157 0.11812 0.88792 0.0
H68 H 0.09605 0.14633 0.97536 0.0
H69 H 0.07565 0.14318 0.03319 0.0
H70 H 0.14363 0.21453 0.06022 0.0
H71 H 0.16319 0.21801 1.00328 0.0
H72 H 0.29957 0.26832 0.87094 0.0
H73 H 0.25097 0.24019 0.89524 0.0
H74 H 0.30091 0.20915 0.78766 0.0
H75 H 0.25317 0.18127 0.81176 0.0
H76 H 0.14061 0.06061 0.77315 0.0
H77 H 0.07514 0.03518 0.85426 0.0
H78 H 0.09141 0.07941 0.88434 0.0
H79 H 0.15748 0.10552 0.80395 0.0
C80 C 0.84624 0.07339 0.67108 0.0
C81 C 0.87006 0.05846 0.6508 0.0
C82 C 0.88759 0.0288 0.69743 0.0
C83 C 0.89057 0.0361 0.664 0.0
C84 C 0.86343 0.04331 0.71731 0.0
C85 C 0.84293 0.06537 0.70418 0.0
U86 U 0.81322 0.13857 0.61571 0.0
O87 O 0.76026 0.15687 0.61677 0.0
O88 O 0.80456 0.18327 0.6346 0.0
C89 C 0.77097 0.18214 0.62857 0.0
C90 C 0.82599 0.09887 0.66037 0.0
C91 C 0.74703 0.19933 0.64953 0.0
C92 C 0.71116 0.20738 0.69823 0.0
C93 C 0.7357 0.19051 0.68082 0.0
C94 C 0.70944 0.24185 0.65353 0.0
C95 C 0.69777 0.23302 0.68452 0.0
C96 C 0.73392 0.22519 0.63631 0.0
C97 C 0.85553 0.14683 0.52599 0.0
C98 C 0.85127 0.17888 0.47863 0.0
C99 C 0.89483 0.1409 0.47951 0.0
C100 C 0.88333 0.13253 0.51057 0.0
C101 C 0.87866 0.16382 0.4631 0.0
C102 C 0.83961 0.1704 0.51006 0.0
C103 C 0.84519 0.13579 0.5586 0.0
O104 O 0.84283 0.12373 0.65862 0.0
O105 O 0.80207 0.09546 0.63741 0.0
O106 O 0.81356 0.1255 0.56307 0.0
O107 O 0.8588 0.14825 0.58489 0.0
H108 H 0.87319 0.06435 0.62521 0.0
H109 H 0.90907 0.02483 0.64831 0.0
H110 H 0.86065 0.03785 0.74309 0.0
H111 H 0.82483 0.07671 0.72022 0.0
H112 H 0.70237 0.20027 0.72221 0.0
H113 H 0.74541 0.17061 0.6915 0.0
H114 H 0.69946 0.26151 0.64249 0.0
H115 H 0.74227 0.23232 0.61219 0.0
H116 H 0.83858 0.19674 0.46625 0.0
H117 H 0.91605 0.12906 0.46805 0.0
H118 H 0.89609 0.11446 0.52254 0.0
H119 H 0.81826 0.18194 0.52163 0.0
C120 C 0.63464 0.31661 0.03128 0.0
C121 C 0.60958 0.33765 0.02341 0.0
C122 C 0.61139 0.32135 0.96611 0.0
C123 C 0.59777 0.33988 0.99072 0.0
C124 C 0.63552 0.30003 0.97443 0.0
C125 C 0.64694 0.29764 1.00676 0.0
U126 U 0.67005 0.33347 0.12199 0.0
O127 O 0.69037 0.29844 0.15329 0.0
O128 O 0.72651 0.3313 0.13203 0.0
C129 C 0.72244 0.30814 0.15037 0.0
C130 C 0.65268 0.31535 0.06298 0.0
C131 C 0.75217 0.29101 0.16179 0.0
C132 C 0.79286 0.2506 0.15795 0.0
C133 C 0.7652 0.26664 0.14454 0.0
C134 C 0.79445 0.28341 0.20514 0.0
C135 C 0.80728 0.2589 0.18854 0.0
C136 C 0.7672 0.29934 0.19182 0.0
C137 C 0.62929 0.40309 0.17003 0.0
C138 C 0.63436 0.43395 0.21906 0.0
C139 C 0.59754 0.44852 0.17365 0.0
C140 C 0.60637 0.42329 0.15645 0.0
C141 C 0.61123 0.45402 0.20499 0.0
C142 C 0.64349 0.40841 0.20152 0.0
C143 C 0.63881 0.3783 0.14871 0.0
O144 O 0.67692 0.33496 0.06859 0.0
O145 O 0.63629 0.30643 0.08951 0.0
O146 O 0.63042 0.35136 0.15625 0.0
O147 O 0.66501 0.38089 0.12823 0.0
H148 H 0.60007 0.35268 0.04207 0.0
H149 H 0.57886 0.3564 0.98452 0.0
H150 H 0.64618 0.28556 0.95576 0.0
H151 H 0.66655 0.28153 0.01242 0.0
H152 H 0.80262 0.23166 0.14477 0.0
H153 H 0.75389 0.25994 0.12119 0.0
H154 H 0.80526 0.2901 0.2287 0.0
H155 H 0.75743 0.31807 0.20534 0.0
H156 H 0.64528 0.43802 0.24331 0.0
H157 H 0.57983 0.46381 0.16235 0.0
H158 H 0.5955 0.41971 0.13208 0.0
H159 H 0.6616 0.39317 0.21225 0.0
C160 C 0.63991 0.59347 0.67999 0.0
C161 C 0.61314 0.58059 0.66111 0.0
C162 C 0.60897 0.54096 0.70052 0.0
C163 C 0.5977 0.5544 0.67145 0.0
C164 C 0.63559 0.55383 0.71917 0.0
C165 C 0.6508 0.57988 0.709 0.0
U166 U 0.67354 0.65878 0.62486 0.0
O167 O 0.69389 0.7008 0.64362 0.0
O168 O 0.7291 0.66988 0.61877 0.0
C169 C 0.72557 0.69561 0.63286 0.0
C170 C 0.65942 0.61971 0.66996 0.0
C171 C 0.75544 0.70835 0.65106 0.0
C172 C 0.79237 0.71503 0.69946 0.0
C173 C 0.76448 0.70076 0.68343 0.0
C174 C 0.80244 0.74417 0.65102 0.0
C175 C 0.8113 0.73695 0.68337 0.0
C176 C 0.77484 0.72995 0.63506 0.0
C177 C 0.63039 0.66692 0.53547 0.0
C178 C 0.64133 0.69402 0.48517 0.0
C179 C 0.60229 0.65248 0.48412 0.0
C180 C 0.60769 0.64865 0.51775 0.0
C181 C 0.61939 0.67487 0.46749 0.0
C182 C 0.64699 0.69003 0.51916 0.0
C183 C 0.63752 0.65853 0.56981 0.0
O184 O 0.683 0.61608 0.64693 0.0
O185 O 0.6432 0.64486 0.66837 0.0
O186 O 0.63073 0.67655 0.59439 0.0
O187 O 0.6644 0.64162 0.57494 0.0
H188 H 0.60455 0.59049 0.63843 0.0
H189 H 0.57715 0.54456 0.65673 0.0
H190 H 0.64474 0.54372 0.74156 0.0
H191 H 0.67164 0.58929 0.72369 0.0
H192 H 0.79893 0.70917 0.7245 0.0
H193 H 0.7499 0.68418 0.69631 0.0
H194 H 0.81666 0.76098 0.63812 0.0
H195 H 0.76828 0.73615 0.61013 0.0
H196 H 0.65452 0.7116 0.47262 0.0
H197 H 0.58514 0.63757 0.471 0.0
H198 H 0.59475 0.63069 0.52985 0.0
H199 H 0.66473 0.70437 0.53234 0.0
C200 C 0.85918 0.83005 0.01785 0.0
C201 C 0.88206 0.85249 0.00875 0.0
C202 C 0.89349 0.8266 0.9573 0.0
C203 C 0.89927 0.85072 0.97827 0.0
C204 C 0.87162 0.80403 0.96713 0.0
C205 C 0.85453 0.80582 0.99715 0.0
U206 U 0.82348 0.84704 0.1081 0.0
O207 O 0.77005 0.83473 0.12192 0.0
O208 O 0.81533 0.81097 0.14292 0.0
C209 C 0.78139 0.814 0.14123 0.0
C210 C 0.84 0.82958 0.04882 0.0
C211 C 0.7574 0.79287 0.1557 0.0
C212 C 0.71752 0.75163 0.15272 0.0
C213 C 0.74233 0.76971 0.13765 0.0
C214 C 0.72349 0.77957 0.20347 0.0
C215 C 0.7078 0.75688 0.18567 0.0
C216 C 0.74817 0.79732 0.18864 0.0
C217 C 0.86383 0.91727 0.15584 0.0
C218 C 0.86527 0.94378 0.20816 0.0
C219 C 0.90613 0.95583 0.1649 0.0
C220 C 0.89153 0.93439 0.14473 0.0
C221 C 0.89329 0.96066 0.19666 0.0
C222 C 0.85051 0.92198 0.18773 0.0
C223 C 0.85195 0.8939 0.13347 0.0
O224 O 0.85677 0.82127 0.07524 0.0
O225 O 0.81522 0.84873 0.0543 0.0
O226 O 0.82067 0.89415 0.12024 0.0
O227 O 0.86683 0.86824 0.13453 0.0
H228 H 0.88625 0.87118 0.02481 0.0
H229 H 0.91637 0.86828 0.97082 0.0
H230 H 0.86708 0.78527 0.95124 0.0
H231 H 0.83728 0.7882 1.00415 0.0
H232 H 0.70558 0.73405 0.13866 0.0
H233 H 0.74927 0.76596 0.11208 0.0
H234 H 0.71627 0.78389 0.22886 0.0
H235 H 0.75957 0.8151 0.20279 0.0
H236 H 0.85492 0.94743 0.23268 0.0
H237 H 0.92762 0.9687 0.15559 0.0
H238 H 0.90226 0.93092 0.12031 0.0
H239 H 0.82921 0.90881 0.1968 0.0
C240 C 0.14426 0.90574 0.3315 0.0
C241 C 0.11759 0.91873 0.35021 0.0
C242 C 0.1138 0.95802 0.31042 0.0
C243 C 0.10238 0.94482 0.33958 0.0
C244 C 0.14037 0.9451 0.29197 0.0
C245 C 0.15535 0.91914 0.30242 0.0
U246 U 0.17745 0.84064 0.38697 0.0
O247 O 0.19742 0.79867 0.36807 0.0
O248 O 0.233 0.82966 0.39281 0.0
C249 C 0.22918 0.80393 0.37874 0.0
C250 C 0.16346 0.87958 0.3418 0.0
C251 C 0.2589 0.79099 0.36072 0.0
C252 C 0.29575 0.78378 0.31248 0.0
C253 C 0.26818 0.7984 0.32836 0.0
C254 C 0.30506 0.75471 0.36109 0.0
C255 C 0.31408 0.76168 0.3287 0.0
C256 C 0.2778 0.76929 0.3769 0.0
C257 C 0.13444 0.83218 0.47645 0.0
C258 C 0.1443 0.80445 0.52651 0.0
C259 C 0.10565 0.846 0.52758 0.0
C260 C 0.11169 0.85028 0.49412 0.0
C261 C 0.12214 0.82333 0.54412 0.0
C262 C 0.15058 0.80888 0.49268 0.0
C263 C 0.14172 0.8407 0.44214 0.0
O264 O 0.18707 0.88333 0.36485 0.0
O265 O 0.14699 0.85446 0.34351 0.0
O266 O 0.13465 0.82279 0.41748 0.0
O267 O 0.1687 0.85764 0.43704 0.0
H268 H 0.10887 0.90897 0.37294 0.0
H269 H 0.08186 0.95474 0.35413 0.0
H270 H 0.1496 0.95505 0.2695 0.0
H271 H 0.17613 0.90962 0.28788 0.0
H272 H 0.30246 0.78945 0.28742 0.0
H273 H 0.25399 0.81506 0.31535 0.0
H274 H 0.31882 0.73777 0.3741 0.0
H275 H 0.27104 0.76325 0.40184 0.0
H276 H 0.15707 0.78668 0.53898 0.0
H277 H 0.08837 0.86073 0.54062 0.0
H278 H 0.09909 0.86839 0.4821 0.0
H279 H 0.16834 0.79465 0.47955 0.0
C280 C 0.35594 0.66523 0.99219 0.0
C281 C 0.37796 0.64224 1.00125 0.0
C282 C 0.38877 0.66668 0.05392 0.0
C283 C 0.39447 0.64304 0.03223 0.0
C284 C 0.36746 0.6896 0.0443 0.0
C285 C 0.35124 0.68886 0.01371 0.0
U286 U 0.31911 0.64545 0.90332 0.0
O287 O 0.26511 0.6577 0.89154 0.0
O288 O 0.309 0.67609 0.86294 0.0
C289 C 0.27516 0.67442 0.8672 0.0
C290 C 0.33587 0.66597 0.9615 0.0
C291 C 0.25247 0.69778 0.85519 0.0
C292 C 0.21547 0.74062 0.86067 0.0
C293 C 0.2387 0.72051 0.8748 0.0
C294 C 0.22051 0.71554 0.80805 0.0
C295 C 0.20601 0.73774 0.82722 0.0
C296 C 0.24347 0.69585 0.82188 0.0
C297 C 0.35981 0.57505 0.85822 0.0
C298 C 0.36202 0.5505 0.80467 0.0
C299 C 0.40379 0.53852 0.84714 0.0
C300 C 0.38853 0.55873 0.86823 0.0
C301 C 0.39064 0.53402 0.81543 0.0
C302 C 0.34658 0.57119 0.82608 0.0
C303 C 0.34767 0.59702 0.8822 0.0
O304 O 0.35197 0.67388 0.93444 0.0
O305 O 0.3112 0.6464 0.95692 0.0
O306 O 0.31517 0.59793 0.89241 0.0
O307 O 0.3636 0.62229 0.88226 0.0
H308 H 0.3819 0.62378 0.98483 0.0
H309 H 0.41103 0.62514 0.03945 0.0
H310 H 0.36284 0.70796 0.06071 0.0
H311 H 0.33434 0.70671 1.00704 0.0
H312 H 0.20441 0.75782 0.87583 0.0
H313 H 0.24537 0.72242 0.90068 0.0
H314 H 0.21352 0.71297 0.7823 0.0
H315 H 0.25376 0.6785 0.80646 0.0
H316 H 0.35155 0.54722 0.7801 0.0
H317 H 0.42585 0.5261 0.85585 0.0
H318 H 0.39948 0.56177 0.89266 0.0
H319 H 0.32476 0.58399 0.81766 0.0
Zn320 Zn 0.03269 0.13951 0.31729 0.0
Zn321 Zn 0.97358 0.13679 0.20262 0.0
Zn322 Zn 0.0035 0.14336 0.25993 0.0
C323 C 0.0403 0.15941 0.19299 0.0
C324 C 0.96928 0.08315 0.2291 0.0
O325 O 0.96621 0.16299 0.29586 0.0
O326 O 0.98983 0.14715 0.34222 0.0
C327 C 0.0711 0.17959 0.28152 0.0
O328 O 0.03961 0.16357 0.22443 0.0
O329 O 0.01617 0.14584 0.17834 0.0
O330 O 0.95615 0.09651 0.20522 0.0
O331 O 0.98988 0.09645 0.24951 0.0
O332 O 0.06529 0.17168 0.31061 0.0
O333 O 0.05253 0.16966 0.25733 0.0
O334 O 0.01872 0.09754 0.26957 0.0
O335 O 0.05233 0.10011 0.31391 0.0
C336 C 0.04033 0.08582 0.28981 0.0
O337 O 0.95453 0.16919 0.26263 0.0
O338 O 0.94034 0.16839 0.20962 0.0
C339 C 0.96524 0.15953 0.32738 0.0
C340 C 0.93549 0.17789 0.23847 0.0
Zn341 Zn 0.53348 0.35659 0.69848 0.0
Zn342 Zn 0.47342 0.35926 0.81293 0.0
Zn343 Zn 0.50398 0.35303 0.75618 0.0
C344 C 0.46908 0.41284 0.78548 0.0
C345 C 0.43497 0.31844 0.77759 0.0
O346 O 0.55304 0.32692 0.75941 0.0
O347 O 0.56647 0.32511 0.70628 0.0
C348 C 0.53965 0.41099 0.72417 0.0
O349 O 0.49025 0.39983 0.76552 0.0
O350 O 0.45582 0.39936 0.80924 0.0
O351 O 0.43989 0.32765 0.80656 0.0
O352 O 0.45448 0.32708 0.75369 0.0
O353 O 0.55197 0.39652 0.70043 0.0
O354 O 0.51873 0.39904 0.74497 0.0
O355 O 0.46707 0.33235 0.72082 0.0
O356 O 0.49059 0.3475 0.67408 0.0
C357 C 0.46614 0.33512 0.68923 0.0
O358 O 0.54029 0.3339 0.79233 0.0
O359 O 0.51565 0.35098 0.83804 0.0
C360 C 0.57189 0.31713 0.73541 0.0
C361 C 0.54044 0.33813 0.82378 0.0
Zn362 Zn 0.04237 0.85934 0.81086 0.0
Zn363 Zn 0.98162 0.85745 0.6967 0.0
Zn364 Zn 0.01204 0.8529 0.75345 0.0
C365 C 0.97532 0.91107 0.72488 0.0
C366 C 0.94361 0.8167 0.73191 0.0
O367 O 0.06137 0.82772 0.74999 0.0
O368 O 0.07611 0.82843 0.80288 0.0
C369 C 0.04578 0.91322 0.78567 0.0
O370 O 0.99691 0.89891 0.74477 0.0
O371 O 0.96271 0.89709 0.70083 0.0
O372 O 0.94856 0.82546 0.70299 0.0
O373 O 0.96293 0.82603 0.75591 0.0
O374 O 0.05912 0.89987 0.80944 0.0
O375 O 0.02552 0.89978 0.76504 0.0
O376 O 0.9767 0.83181 0.78859 0.0
O377 O 1.00007 0.84917 0.83492 0.0
C378 C 0.97622 0.83539 0.8201 0.0
O379 O 0.04892 0.83381 0.71698 0.0
O380 O 0.02414 0.84962 0.67116 0.0
C381 C 0.08089 0.81924 0.7739 0.0
C382 C 0.04917 0.83735 0.68548 0.0
Zn383 Zn 0.54078 0.63712 0.201 0.0
Zn384 Zn 0.48109 0.63836 0.3157 0.0
Zn385 Zn 0.51107 0.64308 0.25836 0.0
C386 C 0.54876 0.65944 0.32582 0.0
C387 C 0.47606 0.5843 0.28881 0.0
O388 O 0.47474 0.66309 0.2227 0.0
O389 O 0.49832 0.64599 0.17649 0.0
C390 C 0.57951 0.67746 0.23739 0.0
O391 O 0.54808 0.66291 0.29432 0.0
O392 O 0.524 0.647 0.34045 0.0
O393 O 0.46307 0.5983 0.31259 0.0
O394 O 0.49688 0.59684 0.26841 0.0
O395 O 0.57423 0.66864 0.20833 0.0
O396 O 0.56034 0.66862 0.26137 0.0
O397 O 0.52516 0.59654 0.24779 0.0
O398 O 0.55864 0.59701 0.20339 0.0
C399 C 0.54592 0.58355 0.22743 0.0
O400 O 0.46211 0.66962 0.2558 0.0
O401 O 0.44799 0.67004 0.30879 0.0
C402 C 0.4741 0.65922 0.19119 0.0
C403 C 0.44305 0.67892 0.27991 0.0
C404 C 0.08403 0.00688 0.29129 0.0
C405 C 0.09814 0.98465 0.29929 0.0
C406 C 0.06648 0.03325 0.28546 0.0
C407 C 0.05262 0.05672 0.28475 0.0
C408 C 0.42376 0.49117 0.7856 0.0
C409 C 0.40635 0.5112 0.7958 0.0
C410 C 0.44373 0.46571 0.78014 0.0
C411 C 0.45758 0.44213 0.77972 0.0
C412 C 0.5797 0.49159 0.71956 0.0
C413 C 0.59335 0.51406 0.7113 0.0
C414 C 0.56327 0.46472 0.72622 0.0
C415 C 0.55058 0.44074 0.72798 0.0
C416 C 0.9259 0.00395 0.22677 0.0
C417 C 0.90897 0.98376 0.21602 0.0
C418 C 0.94525 0.02967 0.2332 0.0
C419 C 0.9585 0.05354 0.23428 0.0
C420 C 0.92795 0.9876 0.72156 0.0
C421 C 0.90919 0.00646 0.71135 0.0
C422 C 0.94874 0.96331 0.72911 0.0
C423 C 0.96337 0.94021 0.73048 0.0
C424 C 0.58721 0.50319 0.2297 0.0
C425 C 0.60036 0.48034 0.22171 0.0
C426 C 0.57015 0.53028 0.23347 0.0
C427 C 0.55734 0.55425 0.23304 0.0
C428 C 0.43278 0.506 0.29514 0.0
C429 C 0.41438 0.48695 0.30574 0.0
C430 C 0.45242 0.53083 0.28669 0.0
C431 C 0.46571 0.55451 0.28433 0.0
C432 C 0.08308 0.99523 0.78645 0.0
C433 C 0.09571 0.01824 0.79498 0.0
C434 C 0.06716 0.96765 0.78156 0.0
C435 C 0.05556 0.94316 0.78099 0.0
C436 C 0.09359 0.17521 0.11403 0.0
C437 C 0.09969 0.17595 0.08496 0.0
C438 C 0.08335 0.17383 0.14731 0.0
C439 C 0.06786 0.16977 0.1726 0.0
C440 C 0.40327 0.3201 0.61419 0.0
C441 C 0.39201 0.32279 0.58657 0.0
C442 C 0.4192 0.32082 0.64565 0.0
C443 C 0.43731 0.32529 0.66951 0.0
C444 C 0.59493 0.3247 0.90307 0.0
C445 C 0.60165 0.32399 0.93206 0.0
C446 C 0.58404 0.32564 0.86991 0.0
C447 C 0.56828 0.32896 0.84458 0.0
C448 C 0.90143 0.17312 0.40243 0.0
C449 C 0.88953 0.17038 0.42984 0.0
C450 C 0.91801 0.17266 0.37121 0.0
C451 C 0.93634 0.16868 0.34739 0.0
C452 C 0.91854 0.8225 0.89707 0.0
C453 C 0.9077 0.82526 0.92469 0.0
C454 C 0.93202 0.82144 0.86491 0.0
C455 C 0.94844 0.82512 0.84013 0.0
C456 C 0.60721 0.67689 0.40325 0.0
C457 C 0.61417 0.67748 0.43233 0.0
C458 C 0.59419 0.67412 0.37068 0.0
C459 C 0.57707 0.66939 0.3462 0.0
C460 C 0.41441 0.67003 0.11429 0.0
C461 C 0.4033 0.66758 0.0866 0.0
C462 C 0.42875 0.67133 0.14629 0.0
C463 C 0.44574 0.66837 0.17098 0.0
C464 C 0.10815 0.82043 0.608 0.0
C465 C 0.11598 0.82015 0.57911 0.0
C466 C 0.09448 0.82304 0.64035 0.0
C467 C 0.07728 0.82769 0.66477 0.0
C468 C 0.15124 0.23108 0.30011 0.0
C469 C 0.1736 0.24451 0.31484 0.0
C470 C 0.12406 0.21488 0.28483 0.0
C471 C 0.09969 0.19944 0.27741 0.0
C472 C 0.35402 0.26917 0.79688 0.0
C473 C 0.33108 0.257 0.81179 0.0
C474 C 0.38162 0.28388 0.78093 0.0
C475 C 0.40633 0.29863 0.77327 0.0
C476 C 0.65018 0.26401 0.71689 0.0
C477 C 0.67184 0.25004 0.70197 0.0
C478 C 0.62379 0.28096 0.7322 0.0
C479 C 0.59991 0.29683 0.73963 0.0
C480 C 0.85734 0.22981 0.21855 0.0
C481 C 0.83457 0.24234 0.20393 0.0
C482 C 0.88418 0.21423 0.23442 0.0
C483 C 0.90794 0.19863 0.24226 0.0
C484 C 0.86284 0.765 0.71425 0.0
C485 C 0.8394 0.75229 0.7001 0.0
C486 C 0.89072 0.78099 0.72887 0.0
C487 C 0.91524 0.79648 0.73599 0.0
C488 C 0.65928 0.72723 0.21723 0.0
C489 C 0.68117 0.73999 0.20166 0.0
C490 C 0.6325 0.71215 0.23379 0.0
C491 C 0.60806 0.69726 0.2417 0.0
C492 C 0.36445 0.73242 0.29799 0.0
C493 C 0.34153 0.74572 0.31199 0.0
C494 C 0.39153 0.71569 0.28335 0.0
C495 C 0.41537 0.69968 0.2761 0.0
C496 C 0.15923 0.76921 0.79583 0.0
C497 C 0.18022 0.75596 0.81195 0.0
C498 C 0.13313 0.78426 0.77833 0.0
C499 C 0.10902 0.79916 0.76977 0.0
loop_
_geom_bond_atom_site_label_1
_geom_bond_atom_site_label_2
_geom_bond_distance
_geom_bond_site_symmetry_2
_ccdc_geom_bond_type
C0 C1 1.264 . S
C0 C5 1.479 . S
C0 C10 1.465 . S
C1 C0 1.264 . S
C1 C3 1.339 . S
C1 H28 0.931 . S
C2 C3 1.395 . S
C2 C4 1.320 . S
C3 C1 1.339 . S
C3 C2 1.395 . S
C3 H29 0.929 . S
C4 C2 1.320 . S
C4 C5 1.405 . S
C4 H30 0.930 . S
C5 C0 1.479 . S
C5 C4 1.405 . S
C5 H31 0.931 . S
U6 O7 2.454 . S
U6 O8 2.458 . S
U6 C9 2.984 . S
U6 C10 2.847 . S
U6 C23 2.882 . S
U6 O24 2.441 . S
U6 O25 2.420 . S
U6 O26 2.455 . S
U6 O27 2.449 . S
O7 U6 2.454 . S
O7 C9 1.353 . S
O8 U6 2.458 . S
O8 C9 1.286 . S
C9 U6 2.984 . S
C9 O7 1.353 . S
C9 O8 1.286 . S
C9 C11 1.363 . S
C10 C0 1.465 . S
C10 U6 2.847 . S
C10 O24 1.249 . S
C10 O25 1.202 . S
C11 C9 1.363 . S
C11 C13 1.408 . S
C11 C16 1.342 . S
C12 C13 1.310 . S
C12 C15 1.461 . S
C12 H32 0.932 . S
C13 C11 1.408 . S
C13 C12 1.310 . S
C13 H33 0.930 . S
C14 C15 1.474 . S
C14 C16 1.285 . S
C14 H34 0.929 . S
C15 C12 1.461 . S
C15 C14 1.474 . S
C16 C11 1.342 . S
C16 C14 1.285 . S
C16 H35 0.930 . S
C17 C20 1.424 . S
C17 C22 1.245 . S
C17 C23 1.428 . S
C18 C21 1.260 . S
C18 C22 1.477 . S
C18 H36 0.932 . S
C19 C20 1.384 . S
C19 C21 1.479 . S
C19 H37 0.929 . S
C20 C17 1.424 . S
C20 C19 1.384 . S
C20 H38 0.928 . S
C21 C18 1.260 . S
C21 C19 1.479 . S
C22 C17 1.245 . S
C22 C18 1.477 . S
C22 H39 0.932 . S
C23 U6 2.882 . S
C23 C17 1.428 . S
C23 O26 1.301 . S
C23 O27 1.282 . S
O24 U6 2.441 . S
O24 C10 1.249 . S
O25 U6 2.420 . S
O25 C10 1.202 . S
O26 U6 2.455 . S
O26 C23 1.301 . S
O27 U6 2.449 . S
O27 C23 1.282 . S
H28 C1 0.931 . S
H29 C3 0.929 . S
H30 C4 0.930 . S
H31 C5 0.931 . S
H32 C12 0.932 . S
H33 C13 0.930 . S
H34 C14 0.929 . S
H35 C16 0.930 . S
H36 C18 0.932 . S
H37 C19 0.929 . S
H38 C20 0.928 . S
H39 C22 0.932 . S
C40 C41 1.264 . S
C40 C45 1.479 1_556 S
C40 C50 1.465 . S
C41 C40 1.264 . S
C41 C43 1.339 1_556 S
C41 H68 0.931 . S
C42 C43 1.395 . S
C42 C44 1.320 . S
C43 C41 1.339 1_554 S
C43 C42 1.395 . S
C43 H69 0.929 . S
C44 C42 1.320 . S
C44 C45 1.405 . S
C44 H70 0.930 . S
C45 C40 1.479 1_554 S
C45 C44 1.405 . S
C45 H71 0.931 1_554 S
U46 O47 2.454 . S
U46 O48 2.458 . S
U46 C49 2.984 . S
U46 C50 2.847 . S
U46 C63 2.882 . S
U46 O64 2.441 . S
U46 O65 2.420 . S
U46 O66 2.455 . S
U46 O67 2.449 . S
O47 U46 2.454 . S
O47 C49 1.353 . S
O48 U46 2.458 . S
O48 C49 1.286 . S
C49 U46 2.984 . S
C49 O47 1.353 . S
C49 O48 1.286 . S
C49 C51 1.363 . S
C50 C40 1.465 . S
C50 U46 2.847 . S
C50 O64 1.249 . S
C50 O65 1.202 . S
C51 C49 1.363 . S
C51 C53 1.408 . S
C51 C56 1.342 . S
C52 C53 1.310 . S
C52 C55 1.461 . S
C52 H72 0.932 . S
C53 C51 1.408 . S
C53 C52 1.310 . S
C53 H73 0.930 . S
C54 C55 1.474 . S
C54 C56 1.285 . S
C54 H74 0.929 . S
C55 C52 1.461 . S
C55 C54 1.474 . S
C56 C51 1.342 . S
C56 C54 1.285 . S
C56 H75 0.930 . S
C57 C60 1.424 . S
C57 C62 1.245 . S
C57 C63 1.428 . S
C58 C61 1.260 . S
C58 C62 1.477 . S
C58 H76 0.932 . S
C59 C60 1.384 . S
C59 C61 1.479 . S
C59 H77 0.929 . S
C60 C57 1.424 . S
C60 C59 1.384 . S
C60 H78 0.928 . S
C61 C58 1.260 . S
C61 C59 1.479 . S
C62 C57 1.245 . S
C62 C58 1.477 . S
C62 H79 0.932 . S
C63 U46 2.882 . S
C63 C57 1.428 . S
C63 O66 1.301 . S
C63 O67 1.282 . S
O64 U46 2.441 . S
O64 C50 1.249 . S
O65 U46 2.420 . S
O65 C50 1.202 . S
O66 U46 2.455 . S
O66 C63 1.301 . S
O67 U46 2.449 . S
O67 C63 1.282 . S
H68 C41 0.931 . S
H69 C43 0.929 . S
H70 C44 0.930 . S
H71 C45 0.931 1_556 S
H72 C52 0.932 . S
H73 C53 0.930 . S
H74 C54 0.929 . S
H75 C56 0.930 . S
H76 C58 0.932 . S
H77 C59 0.929 . S
H78 C60 0.928 . S
H79 C62 0.932 . S
C80 C81 1.264 . S
C80 C85 1.479 . S
C80 C90 1.465 . S
C81 C80 1.264 . S
C81 C83 1.339 . S
C81 H108 0.931 . S
C82 C83 1.395 . S
C82 C84 1.320 . S
C83 C81 1.339 . S
C83 C82 1.395 . S
C83 H109 0.929 . S
C84 C82 1.320 . S
C84 C85 1.405 . S
C84 H110 0.930 . S
C85 C80 1.479 . S
C85 C84 1.405 . S
C85 H111 0.931 . S
U86 O87 2.454 . S
U86 O88 2.458 . S
U86 C89 2.984 . S
U86 C90 2.847 . S
U86 C103 2.882 . S
U86 O104 2.441 . S
U86 O105 2.420 . S
U86 O106 2.455 . S
U86 O107 2.449 . S
O87 U86 2.454 . S
O87 C89 1.353 . S
O88 U86 2.458 . S
O88 C89 1.286 . S
C89 U86 2.984 . S
C89 O87 1.353 . S
C89 O88 1.286 . S
C89 C91 1.363 . S
C90 C80 1.465 . S
C90 U86 2.847 . S
C90 O104 1.249 . S
C90 O105 1.202 . S
C91 C89 1.363 . S
C91 C93 1.408 . S
C91 C96 1.342 . S
C92 C93 1.310 . S
C92 C95 1.461 . S
C92 H112 0.932 . S
C93 C91 1.408 . S
C93 C92 1.310 . S
C93 H113 0.930 . S
C94 C95 1.474 . S
C94 C96 1.285 . S
C94 H114 0.929 . S
C95 C92 1.461 . S
C95 C94 1.474 . S
C96 C91 1.342 . S
C96 C94 1.285 . S
C96 H115 0.930 . S
C97 C100 1.424 . S
C97 C102 1.245 . S
C97 C103 1.428 . S
C98 C101 1.260 . S
C98 C102 1.477 . S
C98 H116 0.932 . S
C99 C100 1.384 . S
C99 C101 1.479 . S
C99 H117 0.929 . S
C100 C97 1.424 . S
C100 C99 1.384 . S
C100 H118 0.928 . S
C101 C98 1.260 . S
C101 C99 1.479 . S
C102 C97 1.245 . S
C102 C98 1.477 . S
C102 H119 0.932 . S
C103 U86 2.882 . S
C103 C97 1.428 . S
C103 O106 1.301 . S
C103 O107 1.282 . S
O104 U86 2.441 . S
O104 C90 1.249 . S
O105 U86 2.420 . S
O105 C90 1.202 . S
O106 U86 2.455 . S
O106 C103 1.301 . S
O107 U86 2.449 . S
O107 C103 1.282 . S
H108 C81 0.931 . S
H109 C83 0.929 . S
H110 C84 0.930 . S
H111 C85 0.931 . S
H112 C92 0.932 . S
H113 C93 0.930 . S
H114 C94 0.929 . S
H115 C96 0.930 . S
H116 C98 0.932 . S
H117 C99 0.929 . S
H118 C100 0.928 . S
H119 C102 0.932 . S
C120 C121 1.264 . S
C120 C125 1.479 1_554 S
C120 C130 1.465 . S
C121 C120 1.264 . S
C121 C123 1.339 1_554 S
C121 H148 0.931 . S
C122 C123 1.395 . S
C122 C124 1.320 . S
C123 C121 1.339 1_556 S
C123 C122 1.395 . S
C123 H149 0.929 . S
C124 C122 1.320 . S
C124 C125 1.405 . S
C124 H150 0.930 . S
C125 C120 1.479 1_556 S
C125 C124 1.405 . S
C125 H151 0.931 1_556 S
U126 O127 2.454 . S
U126 O128 2.458 . S
U126 C129 2.984 . S
U126 C130 2.847 . S
U126 C143 2.882 . S
U126 O144 2.441 . S
U126 O145 2.420 . S
U126 O146 2.455 . S
U126 O147 2.449 . S
O127 U126 2.454 . S
O127 C129 1.353 . S
O128 U126 2.458 . S
O128 C129 1.286 . S
C129 U126 2.984 . S
C129 O127 1.353 . S
C129 O128 1.286 . S
C129 C131 1.363 . S
C130 C120 1.465 . S
C130 U126 2.847 . S
C130 O144 1.249 . S
C130 O145 1.202 . S
C131 C129 1.363 . S
C131 C133 1.408 . S
C131 C136 1.342 . S
C132 C133 1.310 . S
C132 C135 1.461 . S
C132 H152 0.932 . S
C133 C131 1.408 . S
C133 C132 1.310 . S
C133 H153 0.930 . S
C134 C135 1.474 . S
C134 C136 1.285 . S
C134 H154 0.929 . S
C135 C132 1.461 . S
C135 C134 1.474 . S
C136 C131 1.342 . S
C136 C134 1.285 . S
C136 H155 0.930 . S
C137 C140 1.424 . S
C137 C142 1.245 . S
C137 C143 1.428 . S
C138 C141 1.260 . S
C138 C142 1.477 . S
C138 H156 0.932 . S
C139 C140 1.384 . S
C139 C141 1.479 . S
C139 H157 0.929 . S
C140 C137 1.424 . S
C140 C139 1.384 . S
C140 H158 0.928 . S
C141 C138 1.260 . S
C141 C139 1.479 . S
C142 C137 1.245 . S
C142 C138 1.477 . S
C142 H159 0.932 . S
C143 U126 2.882 . S
C143 C137 1.428 . S
C143 O146 1.301 . S
C143 O147 1.282 . S
O144 U126 2.441 . S
O144 C130 1.249 . S
O145 U126 2.420 . S
O145 C130 1.202 . S
O146 U126 2.455 . S
O146 C143 1.301 . S
O147 U126 2.449 . S
O147 C143 1.282 . S
H148 C121 0.931 . S
H149 C123 0.929 . S
H150 C124 0.930 . S
H151 C125 0.931 1_554 S
H152 C132 0.932 . S
H153 C133 0.930 . S
H154 C134 0.929 . S
H155 C136 0.930 . S
H156 C138 0.932 . S
H157 C139 0.929 . S
H158 C140 0.928 . S
H159 C142 0.932 . S
C160 C161 1.264 . S
C160 C165 1.479 . S
C160 C170 1.465 . S
C161 C160 1.264 . S
C161 C163 1.339 . S
C161 H188 0.931 . S
C162 C163 1.395 . S
C162 C164 1.320 . S
C163 C161 1.339 . S
C163 C162 1.395 . S
C163 H189 0.929 . S
C164 C162 1.320 . S
C164 C165 1.405 . S
C164 H190 0.930 . S
C165 C160 1.479 . S
C165 C164 1.405 . S
C165 H191 0.931 . S
U166 O167 2.454 . S
U166 O168 2.458 . S
U166 C169 2.984 . S
U166 C170 2.847 . S
U166 C183 2.882 . S
U166 O184 2.441 . S
U166 O185 2.420 . S
U166 O186 2.455 . S
U166 O187 2.449 . S
O167 U166 2.454 . S
O167 C169 1.353 . S
O168 U166 2.458 . S
O168 C169 1.286 . S
C169 U166 2.984 . S
C169 O167 1.353 . S
C169 O168 1.286 . S
C169 C171 1.363 . S
C170 C160 1.465 . S
C170 U166 2.847 . S
C170 O184 1.249 . S
C170 O185 1.202 . S
C171 C169 1.363 . S
C171 C173 1.408 . S
C171 C176 1.342 . S
C172 C173 1.310 . S
C172 C175 1.461 . S
C172 H192 0.932 . S
C173 C171 1.408 . S
C173 C172 1.310 . S
C173 H193 0.930 . S
C174 C175 1.474 . S
C174 C176 1.285 . S
C174 H194 0.929 . S
C175 C172 1.461 . S
C175 C174 1.474 . S
C176 C171 1.342 . S
C176 C174 1.285 . S
C176 H195 0.930 . S
C177 C180 1.424 . S
C177 C182 1.245 . S
C177 C183 1.428 . S
C178 C181 1.260 . S
C178 C182 1.477 . S
C178 H196 0.932 . S
C179 C180 1.384 . S
C179 C181 1.479 . S
C179 H197 0.929 . S
C180 C177 1.424 . S
C180 C179 1.384 . S
C180 H198 0.928 . S
C181 C178 1.260 . S
C181 C179 1.479 . S
C182 C177 1.245 . S
C182 C178 1.477 . S
C182 H199 0.932 . S
C183 U166 2.882 . S
C183 C177 1.428 . S
C183 O186 1.301 . S
C183 O187 1.282 . S
O184 U166 2.441 . S
O184 C170 1.249 . S
O185 U166 2.420 . S
O185 C170 1.202 . S
O186 U166 2.455 . S
O186 C183 1.301 . S
O187 U166 2.449 . S
O187 C183 1.282 . S
H188 C161 0.931 . S
H189 C163 0.929 . S
H190 C164 0.930 . S
H191 C165 0.931 . S
H192 C172 0.932 . S
H193 C173 0.930 . S
H194 C174 0.929 . S
H195 C176 0.930 . S
H196 C178 0.932 . S
H197 C179 0.929 . S
H198 C180 0.928 . S
H199 C182 0.932 . S
C200 C201 1.264 1_554 S
C200 C205 1.479 1_554 S
C200 C210 1.465 . S
C201 C200 1.264 1_556 S
C201 C203 1.339 . S
C201 H228 0.931 1_556 S
C202 C203 1.395 . S
C202 C204 1.320 . S
C203 C201 1.339 . S
C203 C202 1.395 . S
C203 H229 0.929 . S
C204 C202 1.320 . S
C204 C205 1.405 . S
C204 H230 0.930 . S
C205 C200 1.479 1_556 S
C205 C204 1.405 . S
C205 H231 0.931 . S
U206 O207 2.454 . S
U206 O208 2.458 . S
U206 C209 2.984 . S
U206 C210 2.847 . S
U206 C223 2.882 . S
U206 O224 2.441 . S
U206 O225 2.420 . S
U206 O226 2.455 . S
U206 O227 2.449 . S
O207 U206 2.454 . S
O207 C209 1.353 . S
O208 U206 2.458 . S
O208 C209 1.286 . S
C209 U206 2.984 . S
C209 O207 1.353 . S
C209 O208 1.286 . S
C209 C211 1.363 . S
C210 C200 1.465 . S
C210 U206 2.847 . S
C210 O224 1.249 . S
C210 O225 1.202 . S
C211 C209 1.363 . S
C211 C213 1.408 . S
C211 C216 1.342 . S
C212 C213 1.310 . S
C212 C215 1.461 . S
C212 H232 0.932 . S
C213 C211 1.408 . S
C213 C212 1.310 . S
C213 H233 0.930 . S
C214 C215 1.474 . S
C214 C216 1.285 . S
C214 H234 0.929 . S
C215 C212 1.461 . S
C215 C214 1.474 . S
C216 C211 1.342 . S
C216 C214 1.285 . S
C216 H235 0.930 . S
C217 C220 1.424 . S
C217 C222 1.245 . S
C217 C223 1.428 . S
C218 C221 1.260 . S
C218 C222 1.477 . S
C218 H236 0.932 . S
C219 C220 1.384 . S
C219 C221 1.479 . S
C219 H237 0.929 . S
C220 C217 1.424 . S
C220 C219 1.384 . S
C220 H238 0.928 . S
C221 C218 1.260 . S
C221 C219 1.479 . S
C222 C217 1.245 . S
C222 C218 1.477 . S
C222 H239 0.932 . S
C223 U206 2.882 . S
C223 C217 1.428 . S
C223 O226 1.301 . S
C223 O227 1.282 . S
O224 U206 2.441 . S
O224 C210 1.249 . S
O225 U206 2.420 . S
O225 C210 1.202 . S
O226 U206 2.455 . S
O226 C223 1.301 . S
O227 U206 2.449 . S
O227 C223 1.282 . S
H228 C201 0.931 1_554 S
H229 C203 0.929 . S
H230 C204 0.930 . S
H231 C205 0.931 . S
H232 C212 0.932 . S
H233 C213 0.930 . S
H234 C214 0.929 . S
H235 C216 0.930 . S
H236 C218 0.932 . S
H237 C219 0.929 . S
H238 C220 0.928 . S
H239 C222 0.932 . S
C240 C241 1.264 . S
C240 C245 1.479 . S
C240 C250 1.465 . S
C241 C240 1.264 . S
C241 C243 1.339 . S
C241 H268 0.931 . S
C242 C243 1.395 . S
C242 C244 1.320 . S
C243 C241 1.339 . S
C243 C242 1.395 . S
C243 H269 0.929 . S
C244 C242 1.320 . S
C244 C245 1.405 . S
C244 H270 0.930 . S
C245 C240 1.479 . S
C245 C244 1.405 . S
C245 H271 0.931 . S
U246 O247 2.454 . S
U246 O248 2.458 . S
U246 C249 2.984 . S
U246 C250 2.847 . S
U246 C263 2.882 . S
U246 O264 2.441 . S
U246 O265 2.420 . S
U246 O266 2.455 . S
U246 O267 2.449 . S
O247 U246 2.454 . S
O247 C249 1.353 . S
O248 U246 2.458 . S
O248 C249 1.286 . S
C249 U246 2.984 . S
C249 O247 1.353 . S
C249 O248 1.286 . S
C249 C251 1.363 . S
C250 C240 1.465 . S
C250 U246 2.847 . S
C250 O264 1.249 . S
C250 O265 1.202 . S
C251 C249 1.363 . S
C251 C253 1.408 . S
C251 C256 1.342 . S
C252 C253 1.310 . S
C252 C255 1.461 . S
C252 H272 0.932 . S
C253 C251 1.408 . S
C253 C252 1.310 . S
C253 H273 0.930 . S
C254 C255 1.474 . S
C254 C256 1.285 . S
C254 H274 0.929 . S
C255 C252 1.461 . S
C255 C254 1.474 . S
C256 C251 1.342 . S
C256 C254 1.285 . S
C256 H275 0.930 . S
C257 C260 1.424 . S
C257 C262 1.245 . S
C257 C263 1.428 . S
C258 C261 1.260 . S
C258 C262 1.477 . S
C258 H276 0.932 . S
C259 C260 1.384 . S
C259 C261 1.479 . S
C259 H277 0.929 . S
C260 C257 1.424 . S
C260 C259 1.384 . S
C260 H278 0.928 . S
C261 C258 1.260 . S
C261 C259 1.479 . S
C262 C257 1.245 . S
C262 C258 1.477 . S
C262 H279 0.932 . S
C263 U246 2.882 . S
C263 C257 1.428 . S
C263 O266 1.301 . S
C263 O267 1.282 . S
O264 U246 2.441 . S
O264 C250 1.249 . S
O265 U246 2.420 . S
O265 C250 1.202 . S
O266 U246 2.455 . S
O266 C263 1.301 . S
O267 U246 2.449 . S
O267 C263 1.282 . S
H268 C241 0.931 . S
H269 C243 0.929 . S
H270 C244 0.930 . S
H271 C245 0.931 . S
H272 C252 0.932 . S
H273 C253 0.930 . S
H274 C254 0.929 . S
H275 C256 0.930 . S
H276 C258 0.932 . S
H277 C259 0.929 . S
H278 C260 0.928 . S
H279 C262 0.932 . S
C280 C281 1.264 1_556 S
C280 C285 1.479 1_556 S
C280 C290 1.465 . S
C281 C280 1.264 1_554 S
C281 C283 1.339 . S
C281 H308 0.931 1_554 S
C282 C283 1.395 . S
C282 C284 1.320 . S
C283 C281 1.339 . S
C283 C282 1.395 . S
C283 H309 0.929 . S
C284 C282 1.320 . S
C284 C285 1.405 . S
C284 H310 0.930 . S
C285 C280 1.479 1_554 S
C285 C284 1.405 . S
C285 H311 0.931 . S
U286 O287 2.454 . S
U286 O288 2.458 . S
U286 C289 2.984 . S
U286 C290 2.847 . S
U286 C303 2.882 . S
U286 O304 2.441 . S
U286 O305 2.420 . S
U286 O306 2.455 . S
U286 O307 2.449 . S
O287 U286 2.454 . S
O287 C289 1.353 . S
O288 U286 2.458 . S
O288 C289 1.286 . S
C289 U286 2.984 . S
C289 O287 1.353 . S
C289 O288 1.286 . S
C289 C291 1.363 . S
C290 C280 1.465 . S
C290 U286 2.847 . S
C290 O304 1.249 . S
C290 O305 1.202 . S
C291 C289 1.363 . S
C291 C293 1.408 . S
C291 C296 1.342 . S
C292 C293 1.310 . S
C292 C295 1.461 . S
C292 H312 0.932 . S
C293 C291 1.408 . S
C293 C292 1.310 . S
C293 H313 0.930 . S
C294 C295 1.474 . S
C294 C296 1.285 . S
C294 H314 0.929 . S
C295 C292 1.461 . S
C295 C294 1.474 . S
C296 C291 1.342 . S
C296 C294 1.285 . S
C296 H315 0.930 . S
C297 C300 1.424 . S
C297 C302 1.245 . S
C297 C303 1.428 . S
C298 C301 1.260 . S
C298 C302 1.477 . S
C298 H316 0.932 . S
C299 C300 1.384 . S
C299 C301 1.479 . S
C299 H317 0.929 . S
C300 C297 1.424 . S
C300 C299 1.384 . S
C300 H318 0.928 . S
C301 C298 1.260 . S
C301 C299 1.479 . S
C302 C297 1.245 . S
C302 C298 1.477 . S
C302 H319 0.932 . S
C303 U286 2.882 . S
C303 C297 1.428 . S
C303 O306 1.301 . S
C303 O307 1.282 . S
O304 U286 2.441 . S
O304 C290 1.249 . S
O305 U286 2.420 . S
O305 C290 1.202 . S
O306 U286 2.455 . S
O306 C303 1.301 . S
O307 U286 2.449 . S
O307 C303 1.282 . S
H308 C281 0.931 1_556 S
H309 C283 0.929 . S
H310 C284 0.930 . S
H311 C285 0.931 . S
H312 C292 0.932 . S
H313 C293 0.930 . S
H314 C294 0.929 . S
H315 C296 0.930 . S
H316 C298 0.932 . S
H317 C299 0.929 . S
H318 C300 0.928 . S
H319 C302 0.932 . S
Zn320 O326 1.920 1_455 S
Zn320 O332 1.898 . S
Zn320 O335 1.905 . S
Zn321 O329 1.905 1_655 S
Zn321 O330 1.898 . S
Zn321 O338 1.920 . S
Zn322 O325 2.080 1_455 S
Zn322 O328 2.114 . S
Zn322 O331 2.120 1_455 S
Zn322 O333 2.120 . S
Zn322 O334 2.114 . S
Zn322 O337 2.080 1_455 S
C323 O328 1.166 . S
C323 O329 1.182 . S
C324 O330 1.167 . S
C324 O331 1.299 . S
O325 Zn322 2.080 1_655 S
O325 C339 1.305 . S
O326 Zn320 1.920 1_655 S
O326 C339 1.234 . S
C327 O332 1.167 . S
C327 O333 1.299 . S
O328 Zn322 2.114 . S
O328 C323 1.166 . S
O329 Zn321 1.905 1_455 S
O329 C323 1.182 . S
O330 Zn321 1.898 . S
O330 C324 1.167 . S
O331 Zn322 2.120 1_655 S
O331 C324 1.299 . S
O332 Zn320 1.898 . S
O332 C327 1.167 . S
O333 Zn322 2.120 . S
O333 C327 1.299 . S
O334 Zn322 2.114 . S
O334 C336 1.166 . S
O335 Zn320 1.905 . S
O335 C336 1.182 . S
C336 O334 1.166 . S
C336 O335 1.182 . S
O337 Zn322 2.080 1_655 S
O337 C340 1.305 . S
O338 Zn321 1.920 . S
O338 C340 1.234 . S
C339 O325 1.305 . S
C339 O326 1.234 . S
C340 O337 1.305 . S
C340 O338 1.234 . S
Zn341 O347 1.920 . S
Zn341 O353 1.898 . S
Zn341 O356 1.905 . S
Zn342 O350 1.905 . S
Zn342 O351 1.898 . S
Zn342 O359 1.920 . S
Zn343 O346 2.080 . S
Zn343 O349 2.114 . S
Zn343 O352 2.120 . S
Zn343 O354 2.120 . S
Zn343 O355 2.114 . S
Zn343 O358 2.080 . S
C344 O349 1.166 . S
C344 O350 1.182 . S
C345 O351 1.167 . S
C345 O352 1.299 . S
O346 Zn343 2.080 . S
O346 C360 1.305 . S
O347 Zn341 1.920 . S
O347 C360 1.234 . S
C348 O353 1.167 . S
C348 O354 1.299 . S
O349 Zn343 2.114 . S
O349 C344 1.166 . S
O350 Zn342 1.905 . S
O350 C344 1.182 . S
O351 Zn342 1.898 . S
O351 C345 1.167 . S
O352 Zn343 2.120 . S
O352 C345 1.299 . S
O353 Zn341 1.898 . S
O353 C348 1.167 . S
O354 Zn343 2.120 . S
O354 C348 1.299 . S
O355 Zn343 2.114 . S
O355 C357 1.166 . S
O356 Zn341 1.905 . S
O356 C357 1.182 . S
C357 O355 1.166 . S
C357 O356 1.182 . S
O358 Zn343 2.080 . S
O358 C361 1.305 . S
O359 Zn342 1.920 . S
O359 C361 1.234 . S
C360 O346 1.305 . S
C360 O347 1.234 . S
C361 O358 1.305 . S
C361 O359 1.234 . S
Zn362 O368 1.920 . S
Zn362 O374 1.898 . S
Zn362 O377 1.905 . S
Zn363 O371 1.905 . S
Zn363 O372 1.898 . S
Zn363 O380 1.920 1_655 S
Zn364 O367 2.080 . S
Zn364 O370 2.114 1_455 S
Zn364 O373 2.120 1_455 S
Zn364 O375 2.120 . S
Zn364 O376 2.114 1_455 S
Zn364 O379 2.080 . S
C365 O370 1.166 . S
C365 O371 1.182 . S
C366 O372 1.167 . S
C366 O373 1.299 . S
O367 Zn364 2.080 . S
O367 C381 1.305 . S
O368 Zn362 1.920 . S
O368 C381 1.234 . S
C369 O374 1.167 . S
C369 O375 1.299 . S
O370 Zn364 2.114 1_655 S
O370 C365 1.166 . S
O371 Zn363 1.905 . S
O371 C365 1.182 . S
O372 Zn363 1.898 . S
O372 C366 1.167 . S
O373 Zn364 2.120 1_655 S
O373 C366 1.299 . S
O374 Zn362 1.898 . S
O374 C369 1.167 . S
O375 Zn364 2.120 . S
O375 C369 1.299 . S
O376 Zn364 2.114 1_655 S
O376 C378 1.166 . S
O377 Zn362 1.905 . S
O377 C378 1.182 1_455 S
C378 O376 1.166 . S
C378 O377 1.182 1_655 S
O379 Zn364 2.080 . S
O379 C382 1.305 . S
O380 Zn363 1.920 1_455 S
O380 C382 1.234 . S
C381 O367 1.305 . S
C381 O368 1.234 . S
C382 O379 1.305 . S
C382 O380 1.234 . S
Zn383 O389 1.920 . S
Zn383 O395 1.898 . S
Zn383 O398 1.905 . S
Zn384 O392 1.905 . S
Zn384 O393 1.898 . S
Zn384 O401 1.920 . S
Zn385 O388 2.080 . S
Zn385 O391 2.114 . S
Zn385 O394 2.120 . S
Zn385 O396 2.120 . S
Zn385 O397 2.114 . S
Zn385 O400 2.080 . S
C386 O391 1.166 . S
C386 O392 1.182 . S
C387 O393 1.167 . S
C387 O394 1.299 . S
O388 Zn385 2.080 . S
O388 C402 1.305 . S
O389 Zn383 1.920 . S
O389 C402 1.234 . S
C390 O395 1.167 . S
C390 O396 1.299 . S
O391 Zn385 2.114 . S
O391 C386 1.166 . S
O392 Zn384 1.905 . S
O392 C386 1.182 . S
O393 Zn384 1.898 . S
O393 C387 1.167 . S
O394 Zn385 2.120 . S
O394 C387 1.299 . S
O395 Zn383 1.898 . S
O395 C390 1.167 . S
O396 Zn385 2.120 . S
O396 C390 1.299 . S
O397 Zn385 2.114 . S
O397 C399 1.166 . S
O398 Zn383 1.905 . S
O398 C399 1.182 . S
C399 O397 1.166 . S
C399 O398 1.182 . S
O400 Zn385 2.080 . S
O400 C403 1.305 . S
O401 Zn384 1.920 . S
O401 C403 1.234 . S
C402 O388 1.305 . S
C402 O389 1.234 . S
C403 O400 1.305 . S
C403 O401 1.234 . S
C404 C405 1.170 1_545 S
C404 C406 1.380 . S
C405 C404 1.170 1_565 S
C406 C404 1.380 . S
C406 C407 1.170 . S
C407 C406 1.170 . S
C408 C409 1.170 . S
C408 C410 1.380 . S
C409 C408 1.170 . S
C410 C408 1.380 . S
C410 C411 1.170 . S
C411 C410 1.170 . S
C412 C413 1.170 . S
C412 C414 1.380 . S
C413 C412 1.170 . S
C414 C412 1.380 . S
C414 C415 1.170 . S
C415 C414 1.170 . S
C416 C417 1.170 1_545 S
C416 C418 1.380 . S
C417 C416 1.170 1_565 S
C418 C416 1.380 . S
C418 C419 1.170 . S
C419 C418 1.170 . S
C420 C421 1.170 1_565 S
C420 C422 1.380 . S
C421 C420 1.170 1_545 S
C422 C420 1.380 . S
C422 C423 1.170 . S
C423 C422 1.170 . S
C424 C425 1.170 . S
C424 C426 1.380 . S
C425 C424 1.170 . S
C426 C424 1.380 . S
C426 C427 1.170 . S
C427 C426 1.170 . S
C428 C429 1.170 . S
C428 C430 1.380 . S
C429 C428 1.170 . S
C430 C428 1.380 . S
C430 C431 1.170 . S
C431 C430 1.170 . S
C432 C433 1.170 1_565 S
C432 C434 1.380 . S
C433 C432 1.170 1_545 S
C434 C432 1.380 . S
C434 C435 1.170 . S
C435 C434 1.170 . S
C436 C437 1.170 . S
C436 C438 1.380 . S
C437 C436 1.170 . S
C438 C436 1.380 . S
C438 C439 1.170 . S
C439 C438 1.170 . S
C440 C441 1.170 . S
C440 C442 1.380 . S
C441 C440 1.170 . S
C442 C440 1.380 . S
C442 C443 1.170 . S
C443 C442 1.170 . S
C444 C445 1.170 . S
C444 C446 1.380 . S
C445 C444 1.170 . S
C446 C444 1.380 . S
C446 C447 1.170 . S
C447 C446 1.170 . S
C448 C449 1.170 . S
C448 C450 1.380 . S
C449 C448 1.170 . S
C450 C448 1.380 . S
C450 C451 1.170 . S
C451 C450 1.170 . S
C452 C453 1.170 . S
C452 C454 1.380 . S
C453 C452 1.170 . S
C454 C452 1.380 . S
C454 C455 1.170 . S
C455 C454 1.170 . S
C456 C457 1.170 . S
C456 C458 1.380 . S
C457 C456 1.170 . S
C458 C456 1.380 . S
C458 C459 1.170 . S
C459 C458 1.170 . S
C460 C461 1.170 . S
C460 C462 1.380 . S
C461 C460 1.170 . S
C462 C460 1.380 . S
C462 C463 1.170 . S
C463 C462 1.170 . S
C464 C465 1.170 . S
C464 C466 1.380 . S
C465 C464 1.170 . S
C466 C464 1.380 . S
C466 C467 1.170 . S
C467 C466 1.170 . S
C468 C469 1.170 . S
C468 C470 1.380 . S
C469 C468 1.170 . S
C470 C468 1.380 . S
C470 C471 1.170 . S
C471 C470 1.170 . S
C472 C473 1.170 . S
C472 C474 1.380 . S
C473 C472 1.170 . S
C474 C472 1.380 . S
C474 C475 1.170 . S
C475 C474 1.170 . S
C476 C477 1.170 . S
C476 C478 1.380 . S
C477 C476 1.170 . S
C478 C476 1.380 . S
C478 C479 1.170 . S
C479 C478 1.170 . S
C480 C481 1.170 . S
C480 C482 1.380 . S
C481 C480 1.170 . S
C482 C480 1.380 . S
C482 C483 1.170 . S
C483 C482 1.170 . S
C484 C485 1.170 . S
C484 C486 1.380 . S
C485 C484 1.170 . S
C486 C484 1.380 . S
C486 C487 1.170 . S
C487 C486 1.170 . S
C488 C489 1.170 . S
C488 C490 1.380 . S
C489 C488 1.170 . S
C490 C488 1.380 . S
C490 C491 1.170 . S
C491 C490 1.170 . S
C492 C493 1.170 . S
C492 C494 1.380 . S
C493 C492 1.170 . S
C494 C492 1.380 . S
C494 C495 1.170 . S
C495 C494 1.170 . S
C496 C497 1.170 . S
C496 C498 1.380 . S
C497 C496 1.170 . S
C498 C496 1.380 . S
C498 C499 1.170 . S
C499 C498 1.170 . S
C405 C242 1.515 . S
C407 C336 1.461 . S
C411 C344 1.514 . S
C409 C301 1.494 . S
C415 C348 1.439 . S
C413 C162 1.483 . S
C417 C221 1.468 . S
C419 C324 1.481 . S
C423 C365 1.482 . S
C421 C82 1.478 . S
C427 C399 1.527 . S
C425 C141 1.528 . S
C429 C2 1.470 . S
C431 C387 1.459 . S
C433 C61 1.507 . S
C435 C369 1.505 . S
C439 C323 1.377 . S
C437 C42 1.504 . S
C443 C357 1.380 . S
C441 C21 1.466 . S
C447 C361 1.318 . S
C445 C122 1.492 . S
C451 C339 1.383 . S
C449 C101 1.466 . S
C455 C378 1.318 . S
C453 C202 1.485 . S
C457 C181 1.482 . S
C459 C386 1.383 . S
C463 C402 1.381 . S
C461 C282 1.461 . S
C465 C261 1.485 . S
C467 C382 1.356 . S
C471 C327 1.323 . S
C469 C15 1.504 . S
C475 C345 1.356 . S
C473 C55 1.518 . S
C477 C95 1.499 . S
C479 C360 1.292 . S
C483 C340 1.286 . S
C481 C135 1.496 . S
C487 C366 1.353 . S
C485 C175 1.507 . S
C489 C215 1.511 . S
C491 C390 1.351 . S
C493 C255 1.501 . S
C495 C403 1.277 . S
C497 C295 1.501 . S
C499 C381 1.322 . S
