# Generated by pormake.
# Topology zzz, (3,6)-cn, num edge types: 1
# Building blocks:
#     Node 0, Type 0, BuildingBlock: OLANEW_clean_sbu_2, # of connection points: 3
#     Node 1, Type 0, BuildingBlock: OLANEW_clean_sbu_2, # of connection points: 3
#     Node 2, Type 0, BuildingBlock: OLANEW_clean_sbu_2, # of connection points: 3
#     Node 3, Type 0, BuildingBlock: OLANEW_clean_sbu_2, # of connection points: 3
#     Node 4, Type 0, BuildingBlock: OLANEW_clean_sbu_2, # of connection points: 3
#     Node 5, Type 0, BuildingBlock: OLANEW_clean_sbu_2, # of connection points: 3
#     Node 6, Type 0, BuildingBlock: OLANEW_clean_sbu_2, # of connection points: 3
#     Node 7, Type 0, BuildingBlock: OLANEW_clean_sbu_2, # of connection points: 3
#     Node 8, Type 1, BuildingBlock: MIFKUJ_clean_sbu_0, # of connection points: 6
#     Node 9, Type 1, BuildingBlock: MIFKUJ_clean_sbu_0, # of connection points: 6
#     Node 10, Type 1, BuildingBlock: MIFKUJ_clean_sbu_0, # of connection points: 6
#     Node 11, Type 1, BuildingBlock: MIFKUJ_clean_sbu_0, # of connection points: 6
#     Edge 12, Type (0, 1), BuildingBlock: AJUNOK_clean_linker_0, # of connection points: 2
#     Edge 13, Type (0, 1), BuildingBlock: AJUNOK_clean_linker_0, # of connection points: 2
#     Edge 14, Type (0, 1), BuildingBlock: AJUNOK_clean_linker_0, # of connection points: 2
#     Edge 15, Type (0, 1), BuildingBlock: AJUNOK_clean_linker_0, # of connection points: 2
#     Edge 16, Type (0, 1), BuildingBlock: AJUNOK_clean_linker_0, # of connection points: 2
#     Edge 17, Type (0, 1), BuildingBlock: AJUNOK_clean_linker_0, # of connection points: 2
#     Edge 18, Type (0, 1), BuildingBlock: AJUNOK_clean_linker_0, # of connection points: 2
#     Edge 19, Type (0, 1), BuildingBlock: AJUNOK_clean_linker_0, # of connection points: 2
#     Edge 20, Type (0, 1), BuildingBlock: AJUNOK_clean_linker_0, # of connection points: 2
#     Edge 21, Type (0, 1), BuildingBlock: AJUNOK_clean_linker_0, # of connection points: 2
#     Edge 22, Type (0, 1), BuildingBlock: AJUNOK_clean_linker_0, # of connection points: 2
#     Edge 23, Type (0, 1), BuildingBlock: AJUNOK_clean_linker_0, # of connection points: 2
#     Edge 24, Type (0, 1), BuildingBlock: AJUNOK_clean_linker_0, # of connection points: 2
#     Edge 25, Type (0, 1), BuildingBlock: AJUNOK_clean_linker_0, # of connection points: 2
#     Edge 26, Type (0, 1), BuildingBlock: AJUNOK_clean_linker_0, # of connection points: 2
#     Edge 27, Type (0, 1), BuildingBlock: AJUNOK_clean_linker_0, # of connection points: 2
#     Edge 28, Type (0, 1), BuildingBlock: AJUNOK_clean_linker_0, # of connection points: 2
#     Edge 29, Type (0, 1), BuildingBlock: AJUNOK_clean_linker_0, # of connection points: 2
#     Edge 30, Type (0, 1), BuildingBlock: AJUNOK_clean_linker_0, # of connection points: 2
#     Edge 31, Type (0, 1), BuildingBlock: AJUNOK_clean_linker_0, # of connection points: 2
#     Edge 32, Type (0, 1), BuildingBlock: AJUNOK_clean_linker_0, # of connection points: 2
#     Edge 33, Type (0, 1), BuildingBlock: AJUNOK_clean_linker_0, # of connection points: 2
#     Edge 34, Type (0, 1), BuildingBlock: AJUNOK_clean_linker_0, # of connection points: 2
#     Edge 35, Type (0, 1), BuildingBlock: AJUNOK_clean_linker_0, # of connection points: 2
# Relax obj value: 0.120
# Max RMSD: 0.127
# Mean RMSD: 0.088
data_MOF--net-zzz--node1-OLANEW_clean_sbu_2--node2-MIFKUJ_clean_sbu_0--edge1-AJUNOK_clean_linker_0
_symmetry_space_group_name_H-M    P1
_symmetry_Int_Tables_number       1
_symmetry_cell_setting            triclinic
loop_
_symmetry_equiv_pos_as_xyz
'x, y, z'
_cell_length_a     39.914025
_cell_length_b     40.416069
_cell_length_c     13.565392
_cell_angle_alpha  89.889668
_cell_angle_beta   89.899531
_cell_angle_gamma 90.132604
loop_
_atom_site_label
_atom_site_type_symbol
_atom_site_fract_x
_atom_site_fract_y
_atom_site_fract_z
_atom_type_partial_charge
O0 O 0.76768 0.6446 0.78213 0.0
Cd1 Cd 0.7136 0.67127 0.80653 0.0
O2 O 0.76522 0.6242 0.93199 0.0
Cd3 Cd 0.78854 0.59809 0.05479 0.0
O4 O 0.81573 0.57313 0.17211 0.0
C5 C 0.84757 0.57206 0.17222 0.0
O6 O 0.86411 0.58591 0.09914 0.0
C7 C 0.78035 0.62691 0.8499 0.0
C8 C 0.66212 0.62597 0.77299 0.0
O9 O 0.67459 0.64318 0.70242 0.0
O10 O 0.67376 0.63058 0.85992 0.0
O11 O 0.11049 0.77257 0.78061 0.0
Cd12 Cd 0.13587 0.71922 0.81902 0.0
O13 O 0.10467 0.78267 0.93874 0.0
Cd14 Cd 0.08423 0.81365 0.05577 0.0
O15 O 0.0656 0.84954 0.1621 0.0
C16 C 0.08681 0.86885 0.20141 0.0
O17 O 0.11853 0.8658 0.17705 0.0
C18 C 0.10115 0.79166 0.84961 0.0
C19 C 0.09276 0.66685 0.77453 0.0
O20 O 0.09231 0.68068 0.85943 0.0
O21 O 0.11374 0.67783 0.71064 0.0
O22 O 0.72885 0.87347 0.80103 0.0
Cd23 Cd 0.78413 0.84974 0.8308 0.0
O24 O 0.72839 0.89713 0.94657 0.0
Cd25 Cd 0.70225 0.92446 0.06215 0.0
O26 O 0.67285 0.95024 0.17352 0.0
C27 C 0.6427 0.94197 0.19135 0.0
O28 O 0.62927 0.91747 0.14146 0.0
C29 C 0.71407 0.89119 0.8649 0.0
C30 C 0.83632 0.89195 0.77508 0.0
O31 O 0.82301 0.87201 0.71304 0.0
O32 O 0.82474 0.892 0.8633 0.0
O33 O 0.39094 0.73209 0.80094 0.0
Cd34 Cd 0.3615 0.78353 0.83685 0.0
O35 O 0.3907 0.72027 0.95887 0.0
Cd36 Cd 0.40602 0.68919 0.0825 0.0
O37 O 0.41575 0.6531 0.19823 0.0
C38 C 0.4427 0.63645 0.20274 0.0
O39 O 0.46591 0.64108 0.13532 0.0
C40 C 0.39832 0.71252 0.87094 0.0
C41 C 0.40122 0.83861 0.79401 0.0
O42 O 0.40226 0.82461 0.87878 0.0
O43 O 0.3812 0.82656 0.72952 0.0
O44 O 0.22053 0.41159 0.45663 0.0
Cd45 Cd 0.27431 0.40191 0.37589 0.0
O46 O 0.19865 0.38762 0.32697 0.0
Cd47 Cd 0.15533 0.38024 0.23194 0.0
O48 O 0.11796 0.39713 0.12709 0.0
C49 C 0.11511 0.42834 0.11993 0.0
O50 O 0.13354 0.44717 0.1773 0.0
C51 C 0.19484 0.40253 0.40853 0.0
C52 C 0.33044 0.4211 0.48316 0.0
O53 O 0.31231 0.44259 0.43888 0.0
O54 O 0.32164 0.39062 0.47896 0.0
O55 O 0.87294 0.22347 0.48147 0.0
Cd56 Cd 0.8433 0.27511 0.44879 0.0
O57 O 0.89644 0.22681 0.33534 0.0
Cd58 Cd 0.92593 0.20345 0.21921 0.0
O59 O 0.94241 0.16736 0.11053 0.0
C60 C 0.92797 0.1393 0.11178 0.0
O61 O 0.90516 0.13348 0.17961 0.0
C62 C 0.89245 0.21158 0.41655 0.0
C63 C 0.87985 0.3304 0.50957 0.0
O64 O 0.85915 0.31595 0.56785 0.0
O65 O 0.88328 0.31853 0.42257 0.0
O66 O 0.28054 0.12928 0.52327 0.0
Cd67 Cd 0.22636 0.1564 0.50192 0.0
O68 O 0.29507 0.14169 0.37118 0.0
Cd69 Cd 0.33094 0.13586 0.25054 0.0
O70 O 0.36616 0.11644 0.14213 0.0
C71 C 0.36961 0.08522 0.13803 0.0
O72 O 0.35225 0.06661 0.19917 0.0
C73 C 0.30204 0.12879 0.4541 0.0
C74 C 0.17174 0.11459 0.53691 0.0
O75 O 0.18416 0.11798 0.45028 0.0
O76 O 0.18551 0.13072 0.6074 0.0
O77 O 0.63719 0.27639 0.5215 0.0
Cd78 Cd 0.66305 0.22352 0.48086 0.0
O79 O 0.61034 0.27516 0.38029 0.0
Cd80 Cd 0.57858 0.30086 0.27387 0.0
O81 O 0.56173 0.33777 0.16741 0.0
C82 C 0.57549 0.36614 0.17058 0.0
O83 O 0.59777 0.372 0.23962 0.0
C84 C 0.61667 0.28942 0.46154 0.0
C85 C 0.62009 0.17133 0.52912 0.0
O86 O 0.64175 0.18204 0.59105 0.0
O87 O 0.61904 0.18519 0.44415 0.0
Zn88 Zn 0.98137 0.03129 0.60077 0.0
Zn89 Zn 0.02177 0.9792 0.69529 0.0
C90 C 0.95064 0.0532 0.77697 0.0
O91 O 0.92415 0.04357 0.72728 0.0
C92 C 0.05379 0.95661 0.52552 0.0
O93 O 0.07904 0.96463 0.58279 0.0
O94 O 0.95482 0.06518 0.52578 0.0
O95 O 0.02921 0.03362 0.55356 0.0
O96 O 0.04848 0.02174 0.70096 0.0
C97 C 0.96798 0.09343 0.51127 0.0
O98 O 0.99946 0.0982 0.5357 0.0
O99 O 0.9795 0.04938 0.73898 0.0
C100 C 0.0337 0.91427 0.7492 0.0
O101 O 0.00669 0.91231 0.6942 0.0
O102 O 0.04572 0.94277 0.76805 0.0
O103 O 0.97418 0.97763 0.74436 0.0
O104 O 0.95591 0.988 0.59548 0.0
O105 O 0.02418 0.96248 0.55535 0.0
C106 C 0.05221 0.03598 0.61789 0.0
C107 C 0.95198 0.9739 0.67844 0.0
Zn108 Zn 0.474 0.02201 0.62603 0.0
Zn109 Zn 0.53864 0.99543 0.71097 0.0
C110 C 0.43722 0.026 0.80338 0.0
O111 O 0.4193 0.00416 0.75476 0.0
C112 C 0.57675 0.9944 0.53891 0.0
O113 O 0.59459 0.01305 0.5983 0.0
O114 O 0.43361 0.03843 0.55288 0.0
O115 O 0.51407 0.04713 0.57507 0.0
O116 O 0.53923 0.04528 0.7185 0.0
C117 C 0.43052 0.06951 0.54219 0.0
O118 O 0.45478 0.08902 0.57231 0.0
O119 O 0.46421 0.03672 0.76495 0.0
C120 C 0.58406 0.9469 0.76801 0.0
O121 O 0.56216 0.93016 0.71574 0.0
O122 O 0.57872 0.97749 0.78301 0.0
O123 O 0.49904 0.96971 0.76194 0.0
O124 O 0.47312 0.97216 0.62007 0.0
O125 O 0.54882 0.98313 0.56966 0.0
C126 C 0.53432 0.05983 0.63657 0.0
C127 C 0.47886 0.95703 0.70041 0.0
Zn128 Zn 0.52781 0.4699 0.64812 0.0
Zn129 Zn 0.4852 0.52775 0.72276 0.0
C130 C 0.5556 0.45226 0.83333 0.0
O131 O 0.58274 0.46261 0.78772 0.0
C132 C 0.45825 0.55191 0.54696 0.0
O133 O 0.43144 0.54668 0.60115 0.0
O134 O 0.5556 0.4355 0.57979 0.0
O135 O 0.48114 0.46628 0.59362 0.0
O136 O 0.4561 0.48687 0.72464 0.0
C137 C 0.54435 0.40613 0.58463 0.0
O138 O 0.51559 0.40066 0.62893 0.0
O139 O 0.52757 0.45435 0.78946 0.0
C140 C 0.47256 0.59324 0.77693 0.0
O141 O 0.50025 0.5962 0.72506 0.0
O142 O 0.46073 0.56443 0.79213 0.0
O143 O 0.53194 0.52813 0.77851 0.0
O144 O 0.55219 0.51338 0.6353 0.0
O145 O 0.48662 0.54389 0.58193 0.0
C146 C 0.45522 0.46903 0.64753 0.0
C147 C 0.55454 0.53064 0.71301 0.0
Zn148 Zn 0.0132 0.48882 0.60104 0.0
Zn149 Zn 0.95048 0.51406 0.69214 0.0
C150 C 0.05018 0.4851 0.77791 0.0
O151 O 0.06854 0.50639 0.7281 0.0
C152 C 0.91107 0.51793 0.52286 0.0
O153 O 0.89261 0.49981 0.58252 0.0
O154 O 0.05417 0.47398 0.52763 0.0
O155 O 0.9738 0.4622 0.55265 0.0
O156 O 0.94977 0.46425 0.69815 0.0
C157 C 0.0619 0.44352 0.53056 0.0
O158 O 0.04143 0.42258 0.57412 0.0
O159 O 0.02317 0.47447 0.73995 0.0
C160 C 0.90653 0.56285 0.75745 0.0
O161 O 0.92885 0.58005 0.70757 0.0
O162 O 0.911 0.53188 0.76726 0.0
O163 O 0.99037 0.53935 0.74176 0.0
O164 O 0.01306 0.53877 0.5951 0.0
O165 O 0.93988 0.52718 0.55196 0.0
C166 C 0.95432 0.44941 0.61665 0.0
C167 C 0.00919 0.55289 0.67789 0.0
C168 C 0.13152 0.08672 0.65259 0.0
C169 C 0.14196 0.0933 0.55522 0.0
C170 C 0.10286 0.06766 0.67226 0.0
C171 C 0.08323 0.05476 0.59535 0.0
H172 H 0.1455 0.09649 0.71446 0.0
H173 H 0.09569 0.06358 0.74838 0.0
S174 S 0.10034 0.0633 0.32735 0.0
N175 N 0.13086 0.08418 0.3809 0.0
N176 N 0.07695 0.04867 0.41797 0.0
C177 C 0.0936 0.06067 0.49766 0.0
C178 C 0.12296 0.07982 0.47758 0.0
C179 C 0.60138 0.1267 0.64522 0.0
C180 C 0.59721 0.14361 0.55527 0.0
C181 C 0.58064 0.10007 0.67143 0.0
C182 C 0.55479 0.08918 0.60886 0.0
H183 H 0.62108 0.13383 0.69578 0.0
H184 H 0.58528 0.0877 0.74098 0.0
S185 S 0.53217 0.12601 0.36674 0.0
N186 N 0.56441 0.14818 0.40473 0.0
N187 N 0.52546 0.09823 0.45387 0.0
C188 C 0.54994 0.1062 0.51926 0.0
C189 C 0.57112 0.13334 0.49251 0.0
C190 C 0.36277 0.46036 0.58866 0.0
C191 C 0.36169 0.43115 0.53264 0.0
C192 C 0.3929 0.47156 0.63018 0.0
C193 C 0.42315 0.45458 0.61391 0.0
H194 H 0.34022 0.47474 0.5999 0.0
H195 H 0.39269 0.49438 0.67192 0.0
S196 S 0.43342 0.37658 0.47328 0.0
N197 N 0.393 0.38483 0.4659 0.0
N198 N 0.44987 0.40671 0.53958 0.0
C199 C 0.42222 0.42513 0.55892 0.0
C200 C 0.39141 0.4132 0.51938 0.0
C201 C 0.92214 0.37477 0.4753 0.0
C202 C 0.89903 0.36014 0.54073 0.0
C203 C 0.94009 0.40327 0.50113 0.0
C204 C 0.93571 0.41849 0.59352 0.0
H205 H 0.92637 0.36428 0.40294 0.0
H206 H 0.95737 0.41355 0.4475 0.0
S207 S 0.87872 0.38969 0.79303 0.0
N208 N 0.87315 0.36277 0.70317 0.0
N209 N 0.90682 0.41633 0.75166 0.0
C210 C 0.91295 0.40393 0.66033 0.0
C211 C 0.89466 0.37481 0.63399 0.0
C212 C 0.88331 0.92988 0.82109 0.0
C213 C 0.86488 0.91364 0.74711 0.0
C214 C 0.91127 0.94941 0.79794 0.0
C215 C 0.92172 0.95388 0.69974 0.0
H216 H 0.87646 0.92712 0.89798 0.0
H217 H 0.92476 0.96116 0.85768 0.0
S218 S 0.88192 0.91748 0.47795 0.0
N219 N 0.85897 0.90378 0.57091 0.0
N220 N 0.91138 0.94081 0.52761 0.0
C221 C 0.90327 0.93833 0.62471 0.0
C222 C 0.87494 0.9181 0.64833 0.0
C223 C 0.41646 0.88608 0.68384 0.0
C224 C 0.42209 0.86812 0.77123 0.0
C225 C 0.43514 0.9145 0.66121 0.0
C226 C 0.46034 0.92615 0.72488 0.0
H227 H 0.39716 0.8784 0.63267 0.0
H228 H 0.42946 0.92758 0.59354 0.0
S229 S 0.48635 0.88709 0.96082 0.0
N230 N 0.45561 0.8634 0.92031 0.0
N231 N 0.4908 0.91665 0.87772 0.0
C232 C 0.46668 0.90809 0.81181 0.0
C233 C 0.44756 0.87917 0.83499 0.0
C234 C 0.61718 0.58804 0.83539 0.0
C235 C 0.63505 0.6015 0.75516 0.0
C236 C 0.59127 0.56512 0.82102 0.0
C237 C 0.58249 0.55436 0.72595 0.0
H238 H 0.62299 0.59548 0.91011 0.0
H239 H 0.57814 0.55562 0.88511 0.0
S240 S 0.62141 0.58181 0.49081 0.0
N241 N 0.64201 0.60229 0.57679 0.0
N242 N 0.59355 0.55899 0.55006 0.0
C243 C 0.60028 0.56737 0.64501 0.0
C244 C 0.62644 0.59101 0.65952 0.0
C245 C 0.07337 0.62227 0.6599 0.0
C246 C 0.0702 0.63867 0.75091 0.0
C247 C 0.0532 0.59499 0.6364 0.0
C248 C 0.02896 0.58291 0.70286 0.0
H249 H 0.09188 0.63028 0.60642 0.0
H250 H 0.05705 0.58304 0.56588 0.0
S251 S 0.0093 0.61798 0.94929 0.0
N252 N 0.03996 0.64147 0.9067 0.0
N253 N 0.00205 0.59033 0.86254 0.0
C254 C 0.02502 0.59946 0.79348 0.0
C255 C 0.04562 0.62726 0.81748 0.0
C256 C 0.9447 0.178 0.41253 0.0
C257 C 0.91044 0.18037 0.43538 0.0
C258 C 0.96289 0.14934 0.43471 0.0
C259 C 0.94737 0.12185 0.47938 0.0
H260 H 0.95783 0.19885 0.38013 0.0
H261 H 0.98944 0.14892 0.41801 0.0
S262 S 0.8578 0.11542 0.55148 0.0
N263 N 0.86145 0.15286 0.50353 0.0
N264 N 0.89542 0.09866 0.54407 0.0
C265 C 0.91286 0.12363 0.50037 0.0
C266 C 0.89448 0.15304 0.47907 0.0
C267 C 0.33698 0.08146 0.51127 0.0
C268 C 0.33495 0.11329 0.47015 0.0
C269 C 0.36813 0.06677 0.53005 0.0
C270 C 0.39825 0.08379 0.51043 0.0
H271 H 0.31434 0.06787 0.52929 0.0
H272 H 0.36857 0.04241 0.56348 0.0
S273 S 0.40619 0.16786 0.40262 0.0
N274 N 0.36539 0.16139 0.40995 0.0
N275 N 0.42397 0.13395 0.44576 0.0
C276 C 0.39645 0.11554 0.46833 0.0
C277 C 0.36477 0.13027 0.4481 0.0
C278 C 0.5644 0.32223 0.47755 0.0
C279 C 0.59938 0.32036 0.48731 0.0
C280 C 0.54687 0.35043 0.50762 0.0
C281 C 0.56382 0.37799 0.54644 0.0
H282 H 0.55036 0.30133 0.4493 0.0
H283 H 0.51981 0.35057 0.50108 0.0
S284 S 0.6555 0.38577 0.58402 0.0
N285 N 0.65047 0.34837 0.53722 0.0
N286 N 0.61761 0.40197 0.59121 0.0
C287 C 0.59892 0.37679 0.55403 0.0
C288 C 0.61668 0.34775 0.52541 0.0
C289 C 0.15455 0.44505 0.46781 0.0
C290 C 0.16105 0.41211 0.44144 0.0
C291 C 0.12217 0.45517 0.49392 0.0
C292 C 0.0953 0.43252 0.49648 0.0
H293 H 0.17452 0.46325 0.46657 0.0
H294 H 0.11832 0.48082 0.51395 0.0
S295 S 0.09978 0.34312 0.43628 0.0
N296 N 0.13848 0.35674 0.42065 0.0
N297 N 0.0776 0.37554 0.47089 0.0
C298 C 0.10165 0.3994 0.47113 0.0
C299 C 0.13454 0.38924 0.44329 0.0
C300 C 0.05761 0.82358 0.76029 0.0
C301 C 0.08463 0.82323 0.82612 0.0
C302 C 0.04098 0.85309 0.73786 0.0
C303 C 0.05114 0.8835 0.7791 0.0
H304 H 0.04899 0.80079 0.72674 0.0
H305 H 0.02024 0.85198 0.68659 0.0
S306 S 0.12234 0.89576 0.9509 0.0
N307 N 0.12191 0.85553 0.92959 0.0
N308 N 0.09091 0.91129 0.8869 0.0
C309 C 0.07856 0.88345 0.84422 0.0
C310 C 0.09524 0.85323 0.86786 0.0
C311 C 0.6721 0.93698 0.87006 0.0
C312 C 0.68028 0.9043 0.84449 0.0
C313 C 0.64059 0.95027 0.84765 0.0
C314 C 0.61609 0.93136 0.79861 0.0
H315 H 0.69052 0.95278 0.90495 0.0
H316 H 0.63576 0.9758 0.8671 0.0
S317 S 0.62491 0.84368 0.72023 0.0
N318 N 0.66132 0.85292 0.77081 0.0
N319 N 0.60206 0.87755 0.72867 0.0
C320 C 0.62384 0.89831 0.77453 0.0
C321 C 0.65599 0.88492 0.79705 0.0
C322 C 0.44494 0.68287 0.78787 0.0
C323 C 0.41689 0.68182 0.85024 0.0
C324 C 0.46322 0.65421 0.76701 0.0
C325 C 0.45383 0.62327 0.80657 0.0
H326 H 0.45297 0.70611 0.75546 0.0
H327 H 0.48456 0.65635 0.71797 0.0
S328 S 0.38112 0.60735 0.97123 0.0
N329 N 0.37964 0.64749 0.94881 0.0
N330 N 0.41421 0.59349 0.91094 0.0
C331 C 0.42565 0.62193 0.86906 0.0
C332 C 0.40711 0.65124 0.8905 0.0
C333 C 0.83905 0.62793 0.78834 0.0
C334 C 0.81278 0.61042 0.83341 0.0
C335 C 0.86966 0.61257 0.76773 0.0
C336 C 0.87503 0.57892 0.79011 0.0
H337 H 0.83588 0.65371 0.76848 0.0
H338 H 0.88897 0.62713 0.73185 0.0
S339 S 0.81335 0.52197 0.90644 0.0
N340 N 0.79343 0.55761 0.89794 0.0
N341 N 0.85114 0.52866 0.86078 0.0
C342 C 0.84893 0.56122 0.83641 0.0
C343 C 0.81774 0.57697 0.8575 0.0
C344 C 0.96377 0.11808 0.97419 0.0
C345 C 0.93494 0.11472 0.03337 0.0
C346 C 0.96956 0.09693 0.89418 0.0
C347 C 0.94646 0.07201 0.8694 0.0
H348 H 0.98176 0.13758 0.98857 0.0
H349 H 0.9916 0.10109 0.84902 0.0
S350 S 0.86851 0.0509 0.00496 0.0
N351 N 0.88419 0.08281 0.06527 0.0
N352 N 0.89492 0.04354 0.91387 0.0
C353 C 0.9182 0.06754 0.92987 0.0
C354 C 0.9125 0.08874 0.0122 0.0
C355 C 0.38318 0.03703 0.03046 0.0
C356 C 0.38999 0.06979 0.05919 0.0
C357 C 0.39952 0.02272 0.94973 0.0
C358 C 0.42376 0.04038 0.89554 0.0
H359 H 0.36414 0.02263 0.06819 0.0
H360 H 0.39257 0.99781 0.92843 0.0
S361 S 0.45312 0.12587 0.94631 0.0
N362 N 0.42422 0.1188 0.03108 0.0
N363 N 0.45535 0.0917 0.8801 0.0
C364 C 0.43208 0.07258 0.92643 0.0
C365 C 0.41506 0.08735 0.00794 0.0
C366 C 0.54111 0.38678 0.02904 0.0
C367 C 0.56875 0.39095 0.09222 0.0
C368 C 0.53596 0.40792 0.94841 0.0
C369 C 0.55855 0.43372 0.927 0.0
H370 H 0.52366 0.36657 0.04051 0.0
H371 H 0.51498 0.40302 0.89999 0.0
S372 S 0.63307 0.45732 0.07404 0.0
N373 N 0.61756 0.42469 0.13176 0.0
N374 N 0.60808 0.46394 0.97925 0.0
C375 C 0.58545 0.43908 0.99169 0.0
C376 C 0.59048 0.41786 0.07461 0.0
C377 C 0.10248 0.47575 0.00831 0.0
C378 C 0.09505 0.44337 0.03989 0.0
C379 C 0.0869 0.48942 0.92544 0.0
C380 C 0.06287 0.47149 0.87186 0.0
H381 H 0.12149 0.49028 0.04535 0.0
H382 H 0.09431 0.51402 0.902 0.0
S383 S 0.03191 0.38698 0.92978 0.0
N384 N 0.06032 0.39454 0.01521 0.0
N385 N 0.03061 0.42048 0.86006 0.0
C386 C 0.05382 0.43976 0.90562 0.0
C387 C 0.07006 0.42562 0.98939 0.0
C388 C 0.10122 0.91308 0.3223 0.0
C389 C 0.0766 0.8933 0.2772 0.0
C390 C 0.09319 0.93452 0.39952 0.0
C391 C 0.06017 0.93723 0.43491 0.0
H392 H 0.1272 0.91149 0.29963 0.0
H393 H 0.11331 0.94849 0.43327 0.0
S394 S 0.98568 0.89311 0.33696 0.0
N395 N 0.01721 0.87948 0.26944 0.0
N396 N 0.00216 0.91987 0.41494 0.0
C397 C 0.03493 0.91881 0.38768 0.0
C398 C 0.04314 0.8968 0.30888 0.0
C399 C 0.59553 0.94214 0.31349 0.0
C400 C 0.62395 0.95784 0.27303 0.0
C401 C 0.57937 0.95489 0.39708 0.0
C402 C 0.59102 0.98385 0.44321 0.0
H403 H 0.58634 0.91914 0.28268 0.0
H404 H 0.55845 0.94121 0.42792 0.0
S405 S 0.66114 0.03718 0.35731 0.0
N406 N 0.66074 0.00589 0.27928 0.0
N407 N 0.63033 0.02989 0.43573 0.0
C408 C 0.61817 0.00083 0.4001 0.0
C409 C 0.63465 0.98782 0.31524 0.0
C410 C 0.4199 0.60287 0.34191 0.0
C411 C 0.44766 0.61271 0.28493 0.0
C412 C 0.42361 0.58223 0.4239 0.0
C413 C 0.45529 0.57066 0.45325 0.0
H414 H 0.39496 0.61149 0.32389 0.0
H415 H 0.40136 0.57601 0.46593 0.0
S416 S 0.53602 0.58766 0.32615 0.0
N417 N 0.50792 0.60805 0.26082 0.0
N418 N 0.51496 0.56936 0.4159 0.0
C419 C 0.48326 0.5794 0.39526 0.0
C420 C 0.47943 0.60037 0.31093 0.0
C421 C 0.84704 0.53826 0.32632 0.0
C422 C 0.86539 0.55665 0.25651 0.0
C423 C 0.86237 0.52509 0.41021 0.0
C424 C 0.89672 0.52991 0.4286 0.0
H425 H 0.82038 0.53427 0.31704 0.0
H426 H 0.84679 0.51168 0.46222 0.0
S427 S 0.95672 0.57436 0.26585 0.0
N428 N 0.92036 0.57757 0.20879 0.0
N429 N 0.94915 0.55295 0.3673 0.0
C430 C 0.9157 0.54741 0.35812 0.0
C431 C 0.90007 0.5607 0.27192 0.0
loop_
_geom_bond_atom_site_label_1
_geom_bond_atom_site_label_2
_geom_bond_distance
_geom_bond_site_symmetry_2
_ccdc_geom_bond_type
O0 Cd1 2.300 . S
O0 C7 1.275 . S
Cd1 O0 2.300 . S
Cd1 O9 2.381 . S
Cd1 O10 2.378 1_556 S
O2 Cd3 2.391 . S
O2 C7 1.250 1_554 S
Cd3 O2 2.391 . S
Cd3 O4 2.317 . S
O4 Cd3 2.317 . S
O4 C5 1.232 . S
C5 O4 1.232 . S
C5 O6 1.218 . S
O6 C5 1.218 . S
C7 O0 1.275 . S
C7 O2 1.250 1_556 S
C8 O9 1.258 . S
C8 O10 1.256 1_556 S
O9 Cd1 2.381 . S
O9 C8 1.258 . S
O10 Cd1 2.378 1_554 S
O10 C8 1.256 1_554 S
O11 Cd12 2.300 1_656 S
O11 C18 1.275 1_655 S
Cd12 O11 2.300 1_454 S
Cd12 O20 2.381 1_454 S
Cd12 O21 2.378 . S
O13 Cd14 2.385 . S
O13 C18 1.255 1_554 S
Cd14 O13 2.385 . S
Cd14 O15 2.317 . S
O15 Cd14 2.317 . S
O15 C16 1.232 . S
C16 O15 1.232 . S
C16 O17 1.218 . S
O17 C16 1.218 . S
C18 O11 1.275 1_455 S
C18 O13 1.255 1_556 S
C19 O20 1.258 1_455 S
C19 O21 1.256 1_556 S
O20 Cd12 2.381 1_656 S
O20 C19 1.258 1_655 S
O21 Cd12 2.378 . S
O21 C19 1.256 1_554 S
O22 Cd23 2.300 . S
O22 C29 1.275 . S
Cd23 O22 2.300 . S
Cd23 O31 2.381 . S
Cd23 O32 2.378 1_556 S
O24 Cd25 2.385 1_565 S
O24 C29 1.255 1_554 S
Cd25 O24 2.385 1_545 S
Cd25 O26 2.317 1_545 S
O26 Cd25 2.317 1_565 S
O26 C27 1.232 . S
C27 O26 1.232 . S
C27 O28 1.218 . S
O28 C27 1.218 . S
C29 O22 1.275 . S
C29 O24 1.255 1_556 S
C30 O31 1.258 . S
C30 O32 1.256 1_556 S
O31 Cd23 2.381 . S
O31 C30 1.258 . S
O32 Cd23 2.378 1_554 S
O32 C30 1.256 1_554 S
O33 Cd34 2.300 1_556 S
O33 C40 1.275 . S
Cd34 O33 2.300 1_554 S
Cd34 O42 2.381 1_554 S
Cd34 O43 2.378 . S
O35 Cd36 2.385 . S
O35 C40 1.255 1_554 S
Cd36 O35 2.385 . S
Cd36 O37 2.317 . S
O37 Cd36 2.317 . S
O37 C38 1.232 . S
C38 O37 1.232 . S
C38 O39 1.218 . S
O39 C38 1.218 . S
C40 O33 1.275 . S
C40 O35 1.255 1_556 S
C41 O42 1.258 . S
C41 O43 1.256 1_556 S
O42 Cd34 2.381 1_556 S
O42 C41 1.258 . S
O43 Cd34 2.378 . S
O43 C41 1.256 1_554 S
O44 Cd45 2.300 . S
O44 C51 1.275 . S
Cd45 O44 2.300 . S
Cd45 O53 2.381 . S
Cd45 O54 2.378 . S
O46 Cd47 2.385 . S
O46 C51 1.255 . S
Cd47 O46 2.385 . S
Cd47 O48 2.317 . S
O48 Cd47 2.317 . S
O48 C49 1.232 . S
C49 O48 1.232 . S
C49 O50 1.218 . S
O50 C49 1.218 . S
C51 O44 1.275 . S
C51 O46 1.255 . S
C52 O53 1.258 . S
C52 O54 1.256 . S
O53 Cd45 2.381 . S
O53 C52 1.258 . S
O54 Cd45 2.378 . S
O54 C52 1.256 . S
O55 Cd56 2.300 1_655 S
O55 C62 1.275 1_655 S
Cd56 O55 2.300 1_455 S
Cd56 O64 2.381 1_455 S
Cd56 O65 2.378 . S
O57 Cd58 2.385 . S
O57 C62 1.255 . S
Cd58 O57 2.385 . S
Cd58 O59 2.317 . S
O59 Cd58 2.317 . S
O59 C60 1.232 . S
C60 O59 1.232 . S
C60 O61 1.218 . S
O61 C60 1.218 . S
C62 O55 1.275 1_455 S
C62 O57 1.255 . S
C63 O64 1.258 1_455 S
C63 O65 1.256 . S
O64 Cd56 2.381 1_655 S
O64 C63 1.258 1_655 S
O65 Cd56 2.378 . S
O65 C63 1.256 . S
O66 Cd67 2.300 . S
O66 C73 1.275 . S
Cd67 O66 2.300 . S
Cd67 O75 2.381 . S
Cd67 O76 2.378 . S
O68 Cd69 2.385 . S
O68 C73 1.255 . S
Cd69 O68 2.385 . S
Cd69 O70 2.317 . S
O70 Cd69 2.317 . S
O70 C71 1.232 . S
C71 O70 1.232 . S
C71 O72 1.218 . S
O72 C71 1.218 . S
C73 O66 1.275 . S
C73 O68 1.255 . S
C74 O75 1.258 . S
C74 O76 1.256 . S
O75 Cd67 2.381 . S
O75 C74 1.258 . S
O76 Cd67 2.378 . S
O76 C74 1.256 . S
O77 Cd78 2.300 . S
O77 C84 1.275 . S
Cd78 O77 2.300 . S
Cd78 O86 2.381 . S
Cd78 O87 2.378 . S
O79 Cd80 2.385 . S
O79 C84 1.255 . S
Cd80 O79 2.385 . S
Cd80 O81 2.317 . S
O81 Cd80 2.317 . S
O81 C82 1.232 . S
C82 O81 1.232 . S
C82 O83 1.218 . S
O83 C82 1.218 . S
C84 O77 1.275 . S
C84 O79 1.255 . S
C85 O86 1.258 . S
C85 O87 1.256 . S
O86 Cd78 2.381 . S
O86 C85 1.258 . S
O87 Cd78 2.378 . S
O87 C85 1.256 . S
Zn88 O94 1.969 . S
Zn88 O95 1.965 1_655 S
Zn88 O99 2.024 1_655 S
Zn88 O104 1.969 . S
Zn89 O96 1.969 . S
Zn89 O102 1.969 . S
Zn89 O103 1.965 1_455 S
Zn89 O105 2.024 1_455 S
C90 O91 1.229 1_455 S
C90 O99 1.058 . S
O91 C90 1.229 1_655 S
C92 O93 1.229 1_655 S
C92 O105 1.058 . S
O93 C92 1.229 1_455 S
O94 Zn88 1.969 . S
O94 C97 1.267 . S
O95 Zn88 1.965 1_455 S
O95 C106 1.260 . S
O96 Zn89 1.969 . S
O96 C106 1.258 1_565 S
C97 O94 1.267 . S
C97 O98 1.228 1_655 S
O98 C97 1.228 1_455 S
O99 Zn88 2.024 1_455 S
O99 C90 1.058 . S
C100 O101 1.228 1_455 S
C100 O102 1.267 . S
O101 C100 1.228 1_655 S
O102 Zn89 1.969 . S
O102 C100 1.267 . S
O103 Zn89 1.965 1_655 S
O103 C107 1.260 1_565 S
O104 Zn88 1.969 . S
O104 C107 1.258 . S
O105 Zn89 2.024 1_655 S
O105 C92 1.058 . S
C106 O95 1.260 . S
C106 O96 1.258 1_545 S
C107 O103 1.260 1_545 S
C107 O104 1.258 . S
Zn108 O114 1.969 1_545 S
Zn108 O115 1.965 . S
Zn108 O119 2.024 . S
Zn108 O124 1.969 1_545 S
Zn109 O116 1.969 1_565 S
Zn109 O122 1.969 1_565 S
Zn109 O123 1.965 . S
Zn109 O125 2.024 . S
C110 O111 1.229 . S
C110 O119 1.058 . S
O111 C110 1.229 . S
C112 O113 1.229 1_565 S
C112 O125 1.058 . S
O113 C112 1.229 1_545 S
O114 Zn108 1.969 1_565 S
O114 C117 1.267 1_565 S
O115 Zn108 1.965 . S
O115 C126 1.260 . S
O116 Zn109 1.969 1_545 S
O116 C126 1.258 . S
C117 O114 1.267 1_545 S
C117 O118 1.228 . S
O118 C117 1.228 . S
O119 Zn108 2.024 . S
O119 C110 1.058 . S
C120 O121 1.228 . S
C120 O122 1.267 1_565 S
O121 C120 1.228 . S
O122 Zn109 1.969 1_545 S
O122 C120 1.267 1_545 S
O123 Zn109 1.965 . S
O123 C127 1.260 . S
O124 Zn108 1.969 1_565 S
O124 C127 1.258 . S
O125 Zn109 2.024 . S
O125 C112 1.058 . S
C126 O115 1.260 . S
C126 O116 1.258 . S
C127 O123 1.260 . S
C127 O124 1.258 . S
Zn128 O134 1.969 . S
Zn128 O135 1.965 . S
Zn128 O139 2.024 . S
Zn128 O144 1.969 . S
Zn129 O136 1.969 . S
Zn129 O142 1.969 . S
Zn129 O143 1.965 . S
Zn129 O145 2.024 . S
C130 O131 1.229 . S
C130 O139 1.058 . S
O131 C130 1.229 . S
C132 O133 1.229 . S
C132 O145 1.058 . S
O133 C132 1.229 . S
O134 Zn128 1.969 . S
O134 C137 1.267 . S
O135 Zn128 1.965 . S
O135 C146 1.260 . S
O136 Zn129 1.969 . S
O136 C146 1.258 . S
C137 O134 1.267 . S
C137 O138 1.228 . S
O138 C137 1.228 . S
O139 Zn128 2.024 . S
O139 C130 1.058 . S
C140 O141 1.228 . S
C140 O142 1.267 . S
O141 C140 1.228 . S
O142 Zn129 1.969 . S
O142 C140 1.267 . S
O143 Zn129 1.965 . S
O143 C147 1.260 . S
O144 Zn128 1.969 . S
O144 C147 1.258 . S
O145 Zn129 2.024 . S
O145 C132 1.058 . S
C146 O135 1.260 . S
C146 O136 1.258 . S
C147 O143 1.260 . S
C147 O144 1.258 . S
Zn148 O154 1.969 . S
Zn148 O155 1.965 . S
Zn148 O159 2.024 . S
Zn148 O164 1.969 . S
Zn149 O156 1.969 . S
Zn149 O162 1.969 . S
Zn149 O163 1.965 . S
Zn149 O165 2.024 . S
C150 O151 1.229 . S
C150 O159 1.058 . S
O151 C150 1.229 . S
C152 O153 1.229 . S
C152 O165 1.058 . S
O153 C152 1.229 . S
O154 Zn148 1.969 . S
O154 C157 1.267 . S
O155 Zn148 1.965 . S
O155 C166 1.260 1_455 S
O156 Zn149 1.969 . S
O156 C166 1.258 . S
C157 O154 1.267 . S
C157 O158 1.228 . S
O158 C157 1.228 . S
O159 Zn148 2.024 . S
O159 C150 1.058 . S
C160 O161 1.228 . S
C160 O162 1.267 . S
O161 C160 1.228 . S
O162 Zn149 1.969 . S
O162 C160 1.267 . S
O163 Zn149 1.965 . S
O163 C167 1.260 1_655 S
O164 Zn148 1.969 . S
O164 C167 1.258 . S
O165 Zn149 2.024 . S
O165 C152 1.058 . S
C166 O155 1.260 1_655 S
C166 O156 1.258 . S
C167 O163 1.260 1_455 S
C167 O164 1.258 . S
C168 C169 1.369 . S
C168 C170 1.419 . S
C168 H172 0.930 . S
C169 C168 1.369 . S
C169 C178 1.429 . S
C170 C168 1.419 . S
C170 C171 1.363 . S
C170 H173 0.929 . S
C171 C170 1.363 . S
C171 C177 1.428 . S
H172 C168 0.930 . S
H173 C170 0.929 . S
S174 N175 1.613 . S
S174 N176 1.610 . S
N175 S174 1.613 . S
N175 C178 1.350 . S
N176 S174 1.610 . S
N176 C177 1.352 . S
C177 C171 1.428 . S
C177 N176 1.352 . S
C177 C178 1.434 . S
C178 C169 1.429 . S
C178 N175 1.350 . S
C178 C177 1.434 . S
C179 C180 1.369 . S
C179 C181 1.419 . S
C179 H183 0.930 . S
C180 C179 1.369 . S
C180 C189 1.429 . S
C181 C179 1.419 . S
C181 C182 1.363 . S
C181 H184 0.929 . S
C182 C181 1.363 . S
C182 C188 1.428 . S
H183 C179 0.930 . S
H184 C181 0.929 . S
S185 N186 1.613 . S
S185 N187 1.610 . S
N186 S185 1.613 . S
N186 C189 1.350 . S
N187 S185 1.610 . S
N187 C188 1.351 . S
C188 C182 1.428 . S
C188 N187 1.351 . S
C188 C189 1.434 . S
C189 C180 1.429 . S
C189 N186 1.350 . S
C189 C188 1.434 . S
C190 C191 1.369 . S
C190 C192 1.419 . S
C190 H194 0.930 . S
C191 C190 1.369 . S
C191 C200 1.429 . S
C192 C190 1.419 . S
C192 C193 1.363 . S
C192 H195 0.929 . S
C193 C192 1.363 . S
C193 C199 1.428 . S
H194 C190 0.930 . S
H195 C192 0.929 . S
S196 N197 1.613 . S
S196 N198 1.610 . S
N197 S196 1.613 . S
N197 C200 1.350 . S
N198 S196 1.610 . S
N198 C199 1.351 . S
C199 C193 1.428 . S
C199 N198 1.351 . S
C199 C200 1.434 . S
C200 C191 1.429 . S
C200 N197 1.350 . S
C200 C199 1.434 . S
C201 C202 1.357 1_455 S
C201 C203 1.419 . S
C201 H205 0.930 . S
C202 C201 1.357 1_655 S
C202 C211 1.443 . S
C203 C201 1.419 . S
C203 C204 1.363 1_455 S
C203 H206 0.929 . S
C204 C203 1.363 1_655 S
C204 C210 1.428 . S
H205 C201 0.930 . S
H206 C203 0.929 . S
S207 N208 1.613 . S
S207 N209 1.610 . S
N208 S207 1.613 . S
N208 C211 1.350 . S
N209 S207 1.610 . S
N209 C210 1.351 . S
C210 C204 1.428 . S
C210 N209 1.351 . S
C210 C211 1.434 . S
C211 C202 1.443 . S
C211 N208 1.350 . S
C211 C210 1.434 . S
C212 C213 1.369 . S
C212 C214 1.419 1_565 S
C212 H216 0.930 1_565 S
C213 C212 1.369 . S
C213 C222 1.429 . S
C214 C212 1.419 1_545 S
C214 C215 1.363 1_545 S
C214 H217 0.929 . S
C215 C214 1.363 1_565 S
C215 C221 1.428 . S
H216 C212 0.930 1_545 S
H217 C214 0.929 . S
S218 N219 1.613 . S
S218 N220 1.610 . S
N219 S218 1.613 . S
N219 C222 1.350 . S
N220 S218 1.610 . S
N220 C221 1.351 . S
C221 C215 1.428 . S
C221 N220 1.351 . S
C221 C222 1.434 . S
C222 C213 1.429 . S
C222 N219 1.350 . S
C222 C221 1.434 . S
C223 C224 1.369 . S
C223 C225 1.419 . S
C223 H227 0.930 . S
C224 C223 1.369 . S
C224 C233 1.429 . S
C225 C223 1.419 . S
C225 C226 1.363 . S
C225 H228 0.929 . S
C226 C225 1.363 . S
C226 C232 1.428 . S
H227 C223 0.930 . S
H228 C225 0.929 . S
S229 N230 1.613 . S
S229 N231 1.610 1_554 S
N230 S229 1.613 . S
N230 C233 1.350 1_554 S
N231 S229 1.610 1_556 S
N231 C232 1.351 . S
C232 C226 1.428 . S
C232 N231 1.351 . S
C232 C233 1.434 . S
C233 C224 1.429 . S
C233 N230 1.350 1_556 S
C233 C232 1.434 . S
C234 C235 1.369 . S
C234 C236 1.419 . S
C234 H238 0.930 . S
C235 C234 1.369 . S
C235 C244 1.429 . S
C236 C234 1.419 . S
C236 C237 1.363 . S
C236 H239 0.929 . S
C237 C236 1.363 . S
C237 C243 1.428 . S
H238 C234 0.930 . S
H239 C236 0.929 . S
S240 N241 1.613 . S
S240 N242 1.610 . S
N241 S240 1.613 . S
N241 C244 1.350 . S
N242 S240 1.610 . S
N242 C243 1.351 . S
C243 C237 1.428 . S
C243 N242 1.351 . S
C243 C244 1.434 . S
C244 C235 1.429 . S
C244 N241 1.350 . S
C244 C243 1.434 . S
C245 C246 1.374 . S
C245 C247 1.419 . S
C245 H249 0.930 . S
C246 C245 1.374 . S
C246 C255 1.424 1_455 S
C247 C245 1.419 . S
C247 C248 1.363 . S
C247 H250 0.929 . S
C248 C247 1.363 . S
C248 C254 1.428 1_455 S
H249 C245 0.930 . S
H250 C247 0.929 . S
S251 N252 1.613 . S
S251 N253 1.610 1_554 S
N252 S251 1.613 . S
N252 C255 1.350 1_554 S
N253 S251 1.610 1_556 S
N253 C254 1.351 . S
C254 C248 1.428 1_655 S
C254 N253 1.351 . S
C254 C255 1.434 . S
C255 C246 1.424 1_655 S
C255 N252 1.350 1_556 S
C255 C254 1.434 . S
C256 C257 1.369 1_455 S
C256 C258 1.419 . S
C256 H260 0.930 . S
C257 C256 1.369 1_655 S
C257 C266 1.429 . S
C258 C256 1.419 . S
C258 C259 1.363 1_455 S
C258 H261 0.929 . S
C259 C258 1.363 1_655 S
C259 C265 1.428 . S
H260 C256 0.930 . S
H261 C258 0.929 . S
S262 N263 1.613 . S
S262 N264 1.610 . S
N263 S262 1.613 . S
N263 C266 1.350 . S
N264 S262 1.610 . S
N264 C265 1.351 . S
C265 C259 1.428 . S
C265 N264 1.351 . S
C265 C266 1.434 . S
C266 C257 1.429 . S
C266 N263 1.350 . S
C266 C265 1.434 . S
C267 C268 1.369 . S
C267 C269 1.419 . S
C267 H271 0.930 . S
C268 C267 1.369 . S
C268 C277 1.429 . S
C269 C267 1.419 . S
C269 C270 1.363 . S
C269 H272 0.929 1_545 S
C270 C269 1.363 . S
C270 C276 1.428 . S
H271 C267 0.930 . S
H272 C269 0.929 1_565 S
S273 N274 1.613 . S
S273 N275 1.610 . S
N274 S273 1.613 . S
N274 C277 1.350 . S
N275 S273 1.610 . S
N275 C276 1.351 . S
C276 C270 1.428 . S
C276 N275 1.351 . S
C276 C277 1.434 . S
C277 C268 1.429 . S
C277 N274 1.350 . S
C277 C276 1.434 . S
C278 C279 1.369 . S
C278 C280 1.419 . S
C278 H282 0.930 . S
C279 C278 1.369 . S
C279 C288 1.429 . S
C280 C278 1.419 . S
C280 C281 1.363 . S
C280 H283 0.929 . S
C281 C280 1.363 . S
C281 C287 1.428 . S
H282 C278 0.930 . S
H283 C280 0.929 . S
S284 N285 1.613 . S
S284 N286 1.610 . S
N285 S284 1.613 . S
N285 C288 1.350 . S
N286 S284 1.610 . S
N286 C287 1.351 . S
C287 C281 1.428 . S
C287 N286 1.351 . S
C287 C288 1.434 . S
C288 C279 1.429 . S
C288 N285 1.350 . S
C288 C287 1.434 . S
C289 C290 1.369 . S
C289 C291 1.419 . S
C289 H293 0.930 . S
C290 C289 1.369 . S
C290 C299 1.429 . S
C291 C289 1.419 . S
C291 C292 1.363 . S
C291 H294 0.929 . S
C292 C291 1.363 . S
C292 C298 1.428 . S
H293 C289 0.930 . S
H294 C291 0.929 . S
S295 N296 1.613 . S
S295 N297 1.610 . S
N296 S295 1.613 . S
N296 C299 1.350 . S
N297 S295 1.610 . S
N297 C298 1.351 . S
C298 C292 1.428 . S
C298 N297 1.351 . S
C298 C299 1.434 . S
C299 C290 1.429 . S
C299 N296 1.350 . S
C299 C298 1.434 . S
C300 C301 1.369 1_655 S
C300 C302 1.419 . S
C300 H304 0.930 . S
C301 C300 1.369 1_455 S
C301 C310 1.429 . S
C302 C300 1.419 . S
C302 C303 1.363 1_655 S
C302 H305 0.929 . S
C303 C302 1.363 1_455 S
C303 C309 1.428 . S
H304 C300 0.930 . S
H305 C302 0.929 . S
S306 N307 1.613 . S
S306 N308 1.610 1_554 S
N307 S306 1.613 . S
N307 C310 1.350 1_554 S
N308 S306 1.610 1_556 S
N308 C309 1.351 . S
C309 C303 1.428 . S
C309 N308 1.351 . S
C309 C310 1.434 . S
C310 C301 1.429 . S
C310 N307 1.350 1_556 S
C310 C309 1.434 . S
C311 C312 1.369 . S
C311 C313 1.419 . S
C311 H315 0.930 . S
C312 C311 1.369 . S
C312 C321 1.429 . S
C313 C311 1.419 . S
C313 C314 1.363 . S
C313 H316 0.929 . S
C314 C313 1.363 . S
C314 C320 1.428 . S
H315 C311 0.930 . S
H316 C313 0.929 . S
S317 N318 1.613 . S
S317 N319 1.610 1_554 S
N318 S317 1.613 . S
N318 C321 1.350 1_554 S
N319 S317 1.610 1_556 S
N319 C320 1.351 . S
C320 C314 1.428 . S
C320 N319 1.351 . S
C320 C321 1.434 . S
C321 C312 1.429 . S
C321 N318 1.350 1_556 S
C321 C320 1.434 . S
C322 C323 1.369 . S
C322 C324 1.419 . S
C322 H326 0.930 . S
C323 C322 1.369 . S
C323 C332 1.429 . S
C324 C322 1.419 . S
C324 C325 1.363 . S
C324 H327 0.929 . S
C325 C324 1.363 . S
C325 C331 1.428 . S
H326 C322 0.930 . S
H327 C324 0.929 . S
S328 N329 1.613 . S
S328 N330 1.610 . S
N329 S328 1.613 . S
N329 C332 1.350 1_554 S
N330 S328 1.610 . S
N330 C331 1.351 1_554 S
C331 C325 1.428 . S
C331 N330 1.351 1_556 S
C331 C332 1.434 . S
C332 C323 1.429 . S
C332 N329 1.350 1_556 S
C332 C331 1.434 . S
C333 C334 1.369 . S
C333 C335 1.419 . S
C333 H337 0.930 . S
C334 C333 1.369 . S
C334 C343 1.429 . S
C335 C333 1.419 . S
C335 C336 1.363 . S
C335 H338 0.929 . S
C336 C335 1.363 . S
C336 C342 1.428 . S
H337 C333 0.930 . S
H338 C335 0.929 . S
S339 N340 1.613 . S
S339 N341 1.610 . S
N340 S339 1.613 . S
N340 C343 1.350 . S
N341 S339 1.610 . S
N341 C342 1.351 . S
C342 C336 1.428 . S
C342 N341 1.351 . S
C342 C343 1.434 . S
C343 C334 1.429 . S
C343 N340 1.350 . S
C343 C342 1.434 . S
C344 C345 1.369 . S
C344 C346 1.419 . S
C344 H348 0.930 . S
C345 C344 1.369 . S
C345 C354 1.429 1_455 S
C346 C344 1.419 . S
C346 C347 1.363 . S
C346 H349 0.929 . S
C347 C346 1.363 . S
C347 C353 1.428 1_455 S
H348 C344 0.930 . S
H349 C346 0.929 . S
S350 N351 1.613 . S
S350 N352 1.610 1_554 S
N351 S350 1.613 . S
N351 C354 1.350 1_554 S
N352 S350 1.610 1_556 S
N352 C353 1.351 . S
C353 C347 1.428 1_655 S
C353 N352 1.351 . S
C353 C354 1.434 . S
C354 C345 1.429 1_655 S
C354 N351 1.350 1_556 S
C354 C353 1.434 . S
C355 C356 1.369 . S
C355 C357 1.419 . S
C355 H359 0.930 . S
C356 C355 1.369 . S
C356 C365 1.429 1_556 S
C357 C355 1.419 . S
C357 C358 1.363 . S
C357 H360 0.929 . S
C358 C357 1.363 . S
C358 C364 1.428 . S
H359 C355 0.930 . S
H360 C357 0.929 . S
S361 N362 1.613 . S
S361 N363 1.610 . S
N362 S361 1.613 . S
N362 C365 1.350 . S
N363 S361 1.610 . S
N363 C364 1.351 1_554 S
C364 C358 1.428 . S
C364 N363 1.351 1_556 S
C364 C365 1.434 1_556 S
C365 C356 1.429 1_554 S
C365 N362 1.350 . S
C365 C364 1.434 1_554 S
C366 C367 1.369 . S
C366 C368 1.419 . S
C366 H370 0.930 . S
C367 C366 1.369 . S
C367 C376 1.429 . S
C368 C366 1.419 . S
C368 C369 1.363 . S
C368 H371 0.929 . S
C369 C368 1.363 . S
C369 C375 1.428 . S
H370 C366 0.930 . S
H371 C368 0.929 . S
S372 N373 1.613 . S
S372 N374 1.610 1_554 S
N373 S372 1.613 . S
N373 C376 1.350 1_554 S
N374 S372 1.610 1_556 S
N374 C375 1.351 . S
C375 C369 1.428 . S
C375 N374 1.351 . S
C375 C376 1.434 . S
C376 C367 1.429 . S
C376 N373 1.350 1_556 S
C376 C375 1.434 . S
C377 C378 1.369 . S
C377 C379 1.419 . S
C377 H381 0.930 1_556 S
C378 C377 1.369 . S
C378 C387 1.429 . S
C379 C377 1.419 . S
C379 C380 1.363 . S
C379 H382 0.929 . S
C380 C379 1.363 . S
C380 C386 1.428 . S
H381 C377 0.930 1_554 S
H382 C379 0.929 . S
S383 N384 1.613 . S
S383 N385 1.610 . S
N384 S383 1.613 . S
N384 C387 1.350 . S
N385 S383 1.610 . S
N385 C386 1.351 . S
C386 C380 1.428 . S
C386 N385 1.351 . S
C386 C387 1.434 . S
C387 C378 1.429 . S
C387 N384 1.350 . S
C387 C386 1.434 . S
C388 C389 1.369 . S
C388 C390 1.419 . S
C388 H392 0.930 . S
C389 C388 1.369 . S
C389 C398 1.427 1_655 S
C390 C388 1.419 . S
C390 C391 1.363 . S
C390 H393 0.929 . S
C391 C390 1.363 . S
C391 C397 1.428 . S
H392 C388 0.930 . S
H393 C390 0.929 . S
S394 N395 1.613 . S
S394 N396 1.610 . S
N395 S394 1.613 . S
N395 C398 1.355 . S
N396 S394 1.610 . S
N396 C397 1.351 1_455 S
C397 C391 1.428 . S
C397 N396 1.351 1_655 S
C397 C398 1.432 1_655 S
C398 C389 1.427 1_455 S
C398 N395 1.355 . S
C398 C397 1.432 1_455 S
C399 C400 1.369 . S
C399 C401 1.419 . S
C399 H403 0.930 . S
C400 C399 1.369 . S
C400 C409 1.429 . S
C401 C399 1.419 . S
C401 C402 1.363 . S
C401 H404 0.929 . S
C402 C401 1.363 . S
C402 C408 1.428 . S
H403 C399 0.930 . S
H404 C401 0.929 . S
S405 N406 1.613 . S
S405 N407 1.610 . S
N406 S405 1.613 . S
N406 C409 1.350 1_545 S
N407 S405 1.610 . S
N407 C408 1.351 1_545 S
C408 C402 1.428 . S
C408 N407 1.351 1_565 S
C408 C409 1.434 . S
C409 C400 1.429 . S
C409 N406 1.350 1_565 S
C409 C408 1.434 . S
C410 C411 1.369 . S
C410 C412 1.419 . S
C410 H414 0.930 . S
C411 C410 1.369 . S
C411 C420 1.429 . S
C412 C410 1.419 . S
C412 C413 1.363 . S
C412 H415 0.929 . S
C413 C412 1.363 . S
C413 C419 1.428 . S
H414 C410 0.930 . S
H415 C412 0.929 . S
S416 N417 1.613 . S
S416 N418 1.610 . S
N417 S416 1.613 . S
N417 C420 1.350 . S
N418 S416 1.610 . S
N418 C419 1.351 . S
C419 C413 1.428 . S
C419 N418 1.351 . S
C419 C420 1.434 . S
C420 C411 1.429 . S
C420 N417 1.350 . S
C420 C419 1.434 . S
C421 C422 1.369 . S
C421 C423 1.419 . S
C421 H425 0.930 . S
C422 C421 1.369 . S
C422 C431 1.429 . S
C423 C421 1.419 . S
C423 C424 1.363 . S
C423 H426 0.929 . S
C424 C423 1.363 . S
C424 C430 1.428 . S
H425 C421 0.930 . S
H426 C423 0.929 . S
S427 N428 1.613 . S
S427 N429 1.610 . S
N428 S427 1.613 . S
N428 C431 1.350 . S
N429 S427 1.610 . S
N429 C430 1.351 . S
C430 C424 1.428 . S
C430 N429 1.351 . S
C430 C431 1.434 . S
C431 C422 1.429 . S
C431 N428 1.350 . S
C431 C430 1.434 . S
C169 C74 1.606 . S
C171 C106 1.585 . S
C182 C126 1.435 . S
C180 C85 1.446 . S
C193 C146 1.582 . S
C191 C52 1.596 . S
C204 C166 1.440 . S
C202 C63 1.455 1_655 S
C215 C107 1.591 1_565 S
C213 C30 1.543 . S
C224 C41 1.459 . S
C226 C127 1.427 . S
C235 C8 1.527 . S
C237 C147 1.586 . S
C246 C19 1.461 . S
C248 C167 1.436 . S
C259 C97 1.033 . S
C257 C62 1.091 1_655 S
C270 C117 1.082 . S
C268 C73 1.179 . S
C281 C137 1.035 . S
C279 C84 1.087 . S
C290 C51 1.174 . S
C292 C157 1.069 . S
C301 C18 1.059 . S
C303 C100 1.032 . S
C314 C120 1.085 . S
C312 C29 1.093 . S
C325 C140 1.038 . S
C323 C40 1.071 . S
C334 C7 1.070 . S
C336 C160 1.082 . S
C345 C60 1.272 1_556 S
C347 C90 1.471 . S
C356 C71 1.418 1_556 S
C358 C110 1.529 . S
C369 C130 1.458 . S
C367 C82 1.243 1_556 S
C380 C150 1.535 . S
C378 C49 1.436 1_556 S
C389 C16 1.338 1_655 S
C391 C92 1.474 . S
C402 C112 1.520 . S
C400 C27 1.254 . S
C413 C132 1.462 . S
C411 C38 1.351 . S
C422 C5 1.274 . S
C424 C152 1.540 . S
