# Generated by pormake.
# Topology apo, (3,6)-cn, num edge types: 1
# Building blocks:
#     Node 0, Type 0, BuildingBlock: WUSLED_clean_sbu_0, # of connection points: 3
#     Node 1, Type 0, BuildingBlock: WUSLED_clean_sbu_0, # of connection points: 3
#     Node 2, Type 0, BuildingBlock: WUSLED_clean_sbu_0, # of connection points: 3
#     Node 3, Type 0, BuildingBlock: WUSLED_clean_sbu_0, # of connection points: 3
#     Node 4, Type 0, BuildingBlock: WUSLED_clean_sbu_0, # of connection points: 3
#     Node 5, Type 0, BuildingBlock: WUSLED_clean_sbu_0, # of connection points: 3
#     Node 6, Type 0, BuildingBlock: WUSLED_clean_sbu_0, # of connection points: 3
#     Node 7, Type 0, BuildingBlock: WUSLED_clean_sbu_0, # of connection points: 3
#     Node 8, Type 1, BuildingBlock: MIDCAF_clean_sbu_0, # of connection points: 6
#     Node 9, Type 1, BuildingBlock: MIDCAF_clean_sbu_0, # of connection points: 6
#     Node 10, Type 1, BuildingBlock: MIDCAF_clean_sbu_0, # of connection points: 6
#     Node 11, Type 1, BuildingBlock: MIDCAF_clean_sbu_0, # of connection points: 6
#     Edge 12, Type (0, 1), BuildingBlock: KIFKEQ_clean_linker_1, # of connection points: 2
#     Edge 13, Type (0, 1), BuildingBlock: KIFKEQ_clean_linker_1, # of connection points: 2
#     Edge 14, Type (0, 1), BuildingBlock: KIFKEQ_clean_linker_1, # of connection points: 2
#     Edge 15, Type (0, 1), BuildingBlock: KIFKEQ_clean_linker_1, # of connection points: 2
#     Edge 16, Type (0, 1), BuildingBlock: KIFKEQ_clean_linker_1, # of connection points: 2
#     Edge 17, Type (0, 1), BuildingBlock: KIFKEQ_clean_linker_1, # of connection points: 2
#     Edge 18, Type (0, 1), BuildingBlock: KIFKEQ_clean_linker_1, # of connection points: 2
#     Edge 19, Type (0, 1), BuildingBlock: KIFKEQ_clean_linker_1, # of connection points: 2
#     Edge 20, Type (0, 1), BuildingBlock: KIFKEQ_clean_linker_1, # of connection points: 2
#     Edge 21, Type (0, 1), BuildingBlock: KIFKEQ_clean_linker_1, # of connection points: 2
#     Edge 22, Type (0, 1), BuildingBlock: KIFKEQ_clean_linker_1, # of connection points: 2
#     Edge 23, Type (0, 1), BuildingBlock: KIFKEQ_clean_linker_1, # of connection points: 2
#     Edge 24, Type (0, 1), BuildingBlock: KIFKEQ_clean_linker_1, # of connection points: 2
#     Edge 25, Type (0, 1), BuildingBlock: KIFKEQ_clean_linker_1, # of connection points: 2
#     Edge 26, Type (0, 1), BuildingBlock: KIFKEQ_clean_linker_1, # of connection points: 2
#     Edge 27, Type (0, 1), BuildingBlock: KIFKEQ_clean_linker_1, # of connection points: 2
#     Edge 28, Type (0, 1), BuildingBlock: KIFKEQ_clean_linker_1, # of connection points: 2
#     Edge 29, Type (0, 1), BuildingBlock: KIFKEQ_clean_linker_1, # of connection points: 2
#     Edge 30, Type (0, 1), BuildingBlock: KIFKEQ_clean_linker_1, # of connection points: 2
#     Edge 31, Type (0, 1), BuildingBlock: KIFKEQ_clean_linker_1, # of connection points: 2
#     Edge 32, Type (0, 1), BuildingBlock: KIFKEQ_clean_linker_1, # of connection points: 2
#     Edge 33, Type (0, 1), BuildingBlock: KIFKEQ_clean_linker_1, # of connection points: 2
#     Edge 34, Type (0, 1), BuildingBlock: KIFKEQ_clean_linker_1, # of connection points: 2
#     Edge 35, Type (0, 1), BuildingBlock: KIFKEQ_clean_linker_1, # of connection points: 2
# Relax obj value: 0.081
# Max RMSD: 0.098
# Mean RMSD: 0.087
data_MOF--net-apo--node1-WUSLED_clean_sbu_0--node2-MIDCAF_clean_sbu_0--edge1-KIFKEQ_clean_linker_1
_symmetry_space_group_name_H-M    P1
_symmetry_Int_Tables_number       1
_symmetry_cell_setting            triclinic
loop_
_symmetry_equiv_pos_as_xyz
'x, y, z'
_cell_length_a     45.556616
_cell_length_b     54.411558
_cell_length_c     47.27598
_cell_angle_alpha  90.255171
_cell_angle_beta   90.196802
_cell_angle_gamma 90.421832
loop_
_atom_site_label
_atom_site_type_symbol
_atom_site_fract_x
_atom_site_fract_y
_atom_site_fract_z
_atom_type_partial_charge
C0 C 0.3611 0.38921 0.35004 0.0
C1 C 0.37879 0.40088 0.37048 0.0
C2 C 0.39674 0.4298 0.33513 0.0
C3 C 0.39642 0.421 0.36311 0.0
C4 C 0.37907 0.41786 0.31471 0.0
C5 C 0.36143 0.39775 0.32213 0.0
U6 U 0.33508 0.34221 0.40386 0.0
O7 O 0.29095 0.32766 0.41283 0.0
O8 O 0.32562 0.30267 0.39875 0.0
C9 C 0.29763 0.30528 0.40458 0.0
C10 C 0.34237 0.36814 0.35766 0.0
C11 C 0.27696 0.29359 0.38453 0.0
C12 C 0.24711 0.29446 0.34175 0.0
C13 C 0.26771 0.30563 0.35989 0.0
C14 C 0.24543 0.25891 0.37239 0.0
C15 C 0.23558 0.27099 0.34789 0.0
C16 C 0.26589 0.27011 0.39049 0.0
C17 C 0.37144 0.34574 0.47837 0.0
C18 C 0.35417 0.33456 0.52536 0.0
C19 C 0.40615 0.3403 0.51694 0.0
C20 C 0.40033 0.34563 0.48862 0.0
C21 C 0.38317 0.33493 0.5358 0.0
C22 C 0.34834 0.33986 0.49686 0.0
C23 C 0.36636 0.35363 0.4489 0.0
O24 O 0.35639 0.34759 0.36263 0.0
O25 O 0.32186 0.37276 0.37639 0.0
O26 O 0.34087 0.36364 0.44307 0.0
O27 O 0.37568 0.33872 0.42897 0.0
H28 H 0.37879 0.39452 0.39217 0.0
H29 H 0.40937 0.42994 0.37947 0.0
H30 H 0.37902 0.42395 0.29294 0.0
H31 H 0.348 0.38886 0.30607 0.0
H32 H 0.24017 0.30419 0.32298 0.0
H33 H 0.27617 0.32375 0.35485 0.0
H34 H 0.23669 0.24104 0.37806 0.0
H35 H 0.27274 0.26056 0.40943 0.0
H36 H 0.33598 0.33033 0.53924 0.0
H37 H 0.42869 0.34126 0.52425 0.0
H38 H 0.41846 0.35031 0.47482 0.0
H39 H 0.32582 0.33978 0.48945 0.0
C40 C 0.19378 0.19849 0.99906 0.0
C41 C 0.16877 0.18383 1.00343 0.0
C42 C 0.16607 0.19782 0.05244 0.0
C43 C 0.15502 0.18354 0.02982 0.0
C44 C 0.19158 0.21203 0.04814 0.0
C45 C 0.20526 0.21241 1.02162 0.0
U46 U 0.20218 0.17282 0.92476 0.0
O47 O 0.20649 0.1914 0.88367 0.0
O48 O 0.24146 0.16714 0.89866 0.0
C49 C 0.23301 0.18286 0.87927 0.0
C50 C 0.20774 0.19942 0.97102 0.0
C51 C 0.25518 0.20109 0.87043 0.0
C52 C 0.29031 0.23373 0.88112 0.0
C53 C 0.26893 0.21684 0.89006 0.0
C54 C 0.28416 0.21945 0.83285 0.0
C55 C 0.29831 0.23518 0.85239 0.0
C56 C 0.26284 0.20259 0.84181 0.0
C57 C 0.15498 0.11516 0.90628 0.0
C58 C 0.13268 0.09962 0.8627 0.0
C59 C 0.14422 0.07156 0.90069 0.0
C60 C 0.15509 0.09114 0.91689 0.0
C61 C 0.13282 0.07551 0.87341 0.0
C62 C 0.14375 0.11927 0.87895 0.0
C63 C 0.16536 0.13539 0.92487 0.0
O64 O 0.22495 0.18086 0.96498 0.0
O65 O 0.19022 0.20527 0.94998 0.0
O66 O 0.15761 0.15788 0.91821 0.0
O67 O 0.19265 0.13391 0.93377 0.0
H68 H 0.15975 0.17276 0.98635 0.0
H69 H 0.1357 0.17208 0.03254 0.0
H70 H 0.20053 0.22332 0.06506 0.0
H71 H 0.22463 0.22377 1.01864 0.0
H72 H 0.30095 0.24533 0.89681 0.0
H73 H 0.26327 0.21593 0.91227 0.0
H74 H 0.28936 0.22028 0.81054 0.0
H75 H 0.25235 0.19065 0.82634 0.0
H76 H 0.12423 0.10324 0.8417 0.0
H77 H 0.14422 0.05334 0.90981 0.0
H78 H 0.16331 0.08753 0.938 0.0
H79 H 0.14334 0.13763 0.87021 0.0
C80 C 0.86269 0.11926 0.69171 0.0
C81 C 0.88022 0.10737 0.6716 0.0
C82 C 0.89991 0.08048 0.70813 0.0
C83 C 0.89865 0.08815 0.67973 0.0
C84 C 0.88232 0.0926 0.72818 0.0
C85 C 0.8639 0.11181 0.72002 0.0
U86 U 0.83265 0.16312 0.63616 0.0
O87 O 0.788 0.17708 0.62938 0.0
O88 O 0.82405 0.20283 0.63909 0.0
C89 C 0.79562 0.19987 0.63545 0.0
C90 C 0.84333 0.13956 0.68346 0.0
C91 C 0.77669 0.21338 0.65541 0.0
C92 C 0.74076 0.21477 0.69345 0.0
C93 C 0.75955 0.20132 0.67585 0.0
C94 C 0.75662 0.25243 0.67086 0.0
C95 C 0.73899 0.24051 0.69106 0.0
C96 C 0.77519 0.23901 0.65326 0.0
C97 C 0.86345 0.1579 0.56002 0.0
C98 C 0.84279 0.16833 0.51398 0.0
C99 C 0.89545 0.16541 0.5199 0.0
C100 C 0.89163 0.15953 0.54837 0.0
C101 C 0.87112 0.16978 0.50225 0.0
C102 C 0.83897 0.16252 0.54266 0.0
C103 C 0.86061 0.15036 0.5899 0.0
O104 O 0.85685 0.16001 0.67632 0.0
O105 O 0.82171 0.13364 0.66618 0.0
O106 O 0.83556 0.14035 0.59767 0.0
O107 O 0.87153 0.16574 0.60877 0.0
H108 H 0.87955 0.11289 0.64962 0.0
H109 H 0.91152 0.07903 0.66364 0.0
H110 H 0.88296 0.08739 0.75025 0.0
H111 H 0.85062 0.12088 0.73584 0.0
H112 H 0.72763 0.20505 0.7089 0.0
H113 H 0.76043 0.18153 0.67805 0.0
H114 H 0.75546 0.27214 0.66805 0.0
H115 H 0.78812 0.24867 0.63757 0.0
H116 H 0.8236 0.17171 0.50103 0.0
H117 H 0.91755 0.16587 0.51154 0.0
H118 H 0.91081 0.15586 0.56126 0.0
H119 H 0.81695 0.16143 0.55113 0.0
C120 C 0.67722 0.31872 0.05766 0.0
C121 C 0.64682 0.32198 0.05454 0.0
C122 C 0.65139 0.32066 1.00317 0.0
C123 C 0.63404 0.32279 0.02762 0.0
C124 C 0.68189 0.3178 1.00632 0.0
C125 C 0.69466 0.31673 0.03333 0.0
U126 U 0.68142 0.34117 0.13381 0.0
O127 O 0.68616 0.32148 0.17401 0.0
O128 O 0.71936 0.34881 0.16176 0.0
C129 C 0.71179 0.3316 0.17983 0.0
C130 C 0.69094 0.31776 0.08606 0.0
C131 C 0.73521 0.31456 0.18856 0.0
C132 C 0.75928 0.27488 0.18573 0.0
C133 C 0.73773 0.29114 0.17628 0.0
C134 C 0.77648 0.30531 0.21954 0.0
C135 C 0.77899 0.28171 0.2075 0.0
C136 C 0.75479 0.32153 0.21016 0.0
C137 C 0.62515 0.39219 0.1524 0.0
C138 C 0.62169 0.41598 0.19595 0.0
C139 C 0.58638 0.4221 0.15825 0.0
C140 C 0.60031 0.4042 0.14203 0.0
C141 C 0.59691 0.42838 0.18538 0.0
C142 C 0.63571 0.39799 0.17956 0.0
C143 C 0.63983 0.37441 0.1338 0.0
O144 O 0.70579 0.33749 0.09376 0.0
O145 O 0.67437 0.3089 0.1064 0.0
O146 O 0.63495 0.35105 0.13905 0.0
O147 O 0.66729 0.3793 0.12734 0.0
H148 H 0.63288 0.32394 0.07292 0.0
H149 H 0.61056 0.32543 0.02593 0.0
H150 H 0.69582 0.31603 0.98792 0.0
H151 H 0.71817 0.31434 0.03523 0.0
H152 H 0.76017 0.25677 0.1762 0.0
H153 H 0.72284 0.28532 0.1596 0.0
H154 H 0.79146 0.3114 0.236 0.0
H155 H 0.75324 0.33954 0.2199 0.0
H156 H 0.6303 0.42023 0.21679 0.0
H157 H 0.56783 0.43156 0.14907 0.0
H158 H 0.59196 0.40005 0.12104 0.0
H159 H 0.65491 0.38884 0.1879 0.0
C160 C 0.66405 0.62288 0.70291 0.0
C161 C 0.64086 0.61371 0.68627 0.0
C162 C 0.62676 0.58553 0.72402 0.0
C163 C 0.62234 0.59522 0.69675 0.0
C164 C 0.64998 0.59498 0.74061 0.0
C165 C 0.66841 0.61348 0.73013 0.0
U166 U 0.69288 0.66535 0.64434 0.0
O167 O 0.70623 0.7042 0.64699 0.0
O168 O 0.7385 0.67634 0.63487 0.0
C169 C 0.73399 0.69938 0.64202 0.0
C170 C 0.68397 0.64215 0.69228 0.0
C171 C 0.75568 0.71044 0.66176 0.0
C172 C 0.76911 0.72753 0.70781 0.0
C173 C 0.74857 0.71586 0.69003 0.0
C174 C 0.80442 0.72776 0.66967 0.0
C175 C 0.79724 0.73378 0.69779 0.0
C176 C 0.78384 0.71629 0.65188 0.0
C177 C 0.6549 0.66144 0.57031 0.0
C178 C 0.67164 0.67371 0.52345 0.0
C179 C 0.62004 0.66566 0.53163 0.0
C180 C 0.62611 0.66026 0.55989 0.0
C181 C 0.64265 0.67246 0.51295 0.0
C182 C 0.67771 0.66831 0.55193 0.0
C183 C 0.66008 0.65438 0.60008 0.0
O184 O 0.7032 0.63503 0.67334 0.0
O185 O 0.67163 0.66319 0.68599 0.0
O186 O 0.65246 0.67053 0.6194 0.0
O187 O 0.6848 0.64314 0.606 0.0
H188 H 0.63722 0.62072 0.66514 0.0
H189 H 0.60496 0.58814 0.68324 0.0
H190 H 0.65385 0.58815 0.76177 0.0
H191 H 0.68616 0.62041 0.74331 0.0
H192 H 0.76296 0.7317 0.72941 0.0
H193 H 0.72705 0.71135 0.69829 0.0
H194 H 0.8257 0.7326 0.66111 0.0
H195 H 0.7898 0.7123 0.63017 0.0
H196 H 0.68956 0.67901 0.50973 0.0
H197 H 0.59757 0.66396 0.52429 0.0
H198 H 0.60822 0.6548 0.5736 0.0
H199 H 0.70016 0.66934 0.5595 0.0
C200 C 0.83627 0.81619 0.05327 0.0
C201 C 0.84697 0.83914 0.04438 0.0
C202 C 0.85726 0.82252 0.99746 0.0
C203 C 0.85722 0.8423 1.01677 0.0
C204 C 0.84685 0.79945 1.00655 0.0
C205 C 0.83635 0.79636 0.03419 0.0
U206 U 0.83498 0.83618 0.13031 0.0
O207 O 0.79845 0.84129 0.15995 0.0
O208 O 0.83332 0.81505 0.17003 0.0
C209 C 0.80786 0.82429 0.1774 0.0
C210 C 0.82519 0.81287 0.08236 0.0
C211 C 0.78574 0.80684 0.18855 0.0
C212 C 0.73723 0.78773 0.18746 0.0
C213 C 0.75861 0.8028 0.175 0.0
C214 C 0.76994 0.7801 0.22686 0.0
C215 C 0.74256 0.77632 0.21365 0.0
C216 C 0.79122 0.79524 0.21447 0.0
C217 C 0.88483 0.89159 0.15069 0.0
C218 C 0.8801 0.93017 0.17653 0.0
C219 C 0.92777 0.9112 0.1722 0.0
C220 C 0.91505 0.8918 0.15681 0.0
C221 C 0.91055 0.93096 0.18149 0.0
C222 C 0.86736 0.91071 0.16133 0.0
C223 C 0.8727 0.87294 0.13081 0.0
O224 O 0.84465 0.80558 0.10106 0.0
O225 O 0.80839 0.83061 0.09189 0.0
O226 O 0.84499 0.87522 0.12346 0.0
O227 O 0.88041 0.85 0.13501 0.0
H228 H 0.84743 0.85466 0.05883 0.0
H229 H 0.86559 0.86018 1.01068 0.0
H230 H 0.8465 0.78388 0.99221 0.0
H231 H 0.82826 0.77848 0.04066 0.0
H232 H 0.71656 0.78491 0.1765 0.0
H233 H 0.75377 0.81149 0.15496 0.0
H234 H 0.7747 0.77179 0.24712 0.0
H235 H 0.81186 0.79826 0.22545 0.0
H236 H 0.86623 0.94503 0.18366 0.0
H237 H 0.95132 0.91141 0.17545 0.0
H238 H 0.92908 0.87742 0.14869 0.0
H239 H 0.84399 0.91116 0.1571 0.0
C240 C 0.16749 0.89743 0.3531 0.0
C241 C 0.15056 0.90965 0.37343 0.0
C242 C 0.13109 0.93692 0.33713 0.0
C243 C 0.13256 0.92923 0.36553 0.0
C244 C 0.14806 0.92445 0.31687 0.0
C245 C 0.16607 0.90491 0.32481 0.0
U246 U 0.19512 0.85054 0.40685 0.0
O247 O 0.20414 0.8111 0.401 0.0
O248 O 0.23955 0.83627 0.4142 0.0
C249 C 0.23243 0.81397 0.40564 0.0
C250 C 0.18641 0.87672 0.361 0.0
C251 C 0.25214 0.80216 0.38483 0.0
C252 C 0.29156 0.8038 0.35007 0.0
C253 C 0.27218 0.81578 0.36847 0.0
C254 C 0.27065 0.76456 0.36352 0.0
C255 C 0.29113 0.77801 0.34748 0.0
C256 C 0.25148 0.77649 0.38199 0.0
C257 C 0.15973 0.85277 0.482 0.0
C258 C 0.17652 0.83979 0.52863 0.0
C259 C 0.12488 0.84719 0.52031 0.0
C260 C 0.13092 0.85323 0.49225 0.0
C261 C 0.14754 0.84046 0.53899 0.0
C262 C 0.18256 0.84586 0.50035 0.0
C263 C 0.16491 0.86096 0.45263 0.0
O264 O 0.20717 0.88171 0.37959 0.0
O265 O 0.17259 0.85595 0.36612 0.0
O266 O 0.15509 0.84635 0.43246 0.0
O267 O 0.19053 0.87103 0.44686 0.0
H268 H 0.15137 0.9041 0.3954 0.0
H269 H 0.12017 0.9386 0.38178 0.0
H270 H 0.14722 0.92963 0.29479 0.0
H271 H 0.17886 0.89557 0.3088 0.0
H272 H 0.30689 0.81473 0.33789 0.0
H273 H 0.27311 0.83563 0.37008 0.0
H274 H 0.27 0.74468 0.36247 0.0
H275 H 0.23635 0.76558 0.39445 0.0
H276 H 0.19448 0.83456 0.54234 0.0
H277 H 0.10242 0.84847 0.52755 0.0
H278 H 0.11301 0.85875 0.47859 0.0
H279 H 0.20503 0.84538 0.49295 0.0
C280 C 0.33441 0.69707 0.99682 0.0
C281 C 0.3606 0.70976 1.00337 0.0
C282 C 0.3569 0.69778 0.05297 0.0
C283 C 0.37171 0.71005 0.03103 0.0
C284 C 0.33049 0.68538 0.04651 0.0
C285 C 0.31933 0.68513 1.01884 0.0
U286 U 0.33139 0.67043 0.92149 0.0
O287 O 0.29367 0.66214 0.89363 0.0
O288 O 0.32752 0.68842 0.88005 0.0
C289 C 0.30207 0.67794 0.87429 0.0
C290 C 0.32247 0.69671 0.96743 0.0
C291 C 0.27899 0.69394 0.86267 0.0
C292 C 0.25138 0.73208 0.86205 0.0
C293 C 0.27327 0.71732 0.87399 0.0
C294 C 0.24072 0.70024 0.82749 0.0
C295 C 0.23474 0.72367 0.83869 0.0
C296 C 0.2626 0.68559 0.83935 0.0
C297 C 0.38253 0.61486 0.90598 0.0
C298 C 0.41918 0.59969 0.87274 0.0
C299 C 0.38828 0.57093 0.89799 0.0
C300 C 0.3741 0.59044 0.91134 0.0
C301 C 0.4115 0.57526 0.87909 0.0
C302 C 0.40495 0.61931 0.88617 0.0
C303 C 0.37016 0.6349 0.92363 0.0
O304 O 0.34047 0.70351 0.94715 0.0
O305 O 0.30626 0.67753 0.96037 0.0
O306 O 0.34268 0.63224 0.93155 0.0
O307 O 0.37697 0.65769 0.917 0.0
H308 H 0.37271 0.71939 0.98711 0.0
H309 H 0.3923 0.71954 0.03507 0.0
H310 H 0.31827 0.676 0.0629 0.0
H311 H 0.29884 0.67552 1.01469 0.0
H312 H 0.24711 0.74988 0.87144 0.0
H313 H 0.28564 0.7241 0.89206 0.0
H314 H 0.22861 0.69327 0.80936 0.0
H315 H 0.26678 0.66766 0.83021 0.0
H316 H 0.43709 0.60364 0.85842 0.0
H317 H 0.3815 0.55233 0.90303 0.0
H318 H 0.35712 0.58632 0.92664 0.0
H319 H 0.41224 0.63789 0.88174 0.0
Zn320 Zn 0.02366 0.14564 0.32138 0.0
Zn321 Zn 0.98653 0.14311 0.21813 0.0
Zn322 Zn 1.00546 0.14436 0.26921 0.0
C323 C 0.03732 0.17078 0.21568 0.0
C324 C 0.99478 0.09448 0.23215 0.0
O325 O 0.9695 0.15963 0.29639 0.0
O326 O 0.98711 0.15544 0.33981 0.0
C327 C 0.06051 0.17708 0.29155 0.0
O328 O 0.0376 0.16495 0.24212 0.0
O329 O 0.01618 0.16421 0.20006 0.0
O330 O 0.9884 0.1075 0.21103 0.0
O331 O 1.00177 0.10486 0.25587 0.0
O332 O 0.05405 0.17132 0.3166 0.0
O333 O 0.04596 0.16782 0.27055 0.0
O334 O 0.01694 0.10607 0.2818 0.0
O335 O 0.03552 0.11083 0.32477 0.0
C336 C 0.02932 0.09704 0.30402 0.0
O337 O 0.96102 0.16236 0.26808 0.0
O338 O 0.94732 0.15709 0.22356 0.0
C339 C 0.96651 0.16145 0.32346 0.0
C340 C 0.94196 0.1651 0.24805 0.0
Zn341 Zn 0.53488 0.38111 0.72415 0.0
Zn342 Zn 0.4876 0.3683 0.85606 0.0
Zn343 Zn 0.51681 0.37123 0.77309 0.0
C344 C 0.49921 0.41605 0.82458 0.0
C345 C 0.46599 0.34748 0.79576 0.0
O346 O 0.55981 0.35197 0.76917 0.0
O347 O 0.57291 0.36336 0.7262 0.0
C348 C 0.5287 0.42597 0.75273 0.0
O349 O 0.50681 0.40506 0.8011 0.0
O350 O 0.49218 0.40469 0.84736 0.0
O351 O 0.48126 0.3579 0.81484 0.0
O352 O 0.47574 0.34995 0.77067 0.0
O353 O 0.53518 0.41725 0.72878 0.0
O354 O 0.52109 0.41151 0.77291 0.0
O355 O 0.48296 0.35608 0.74303 0.0
O356 O 0.50226 0.36645 0.70185 0.0
C357 C 0.48183 0.35654 0.71579 0.0
O358 O 0.54936 0.34965 0.79651 0.0
O359 O 0.51388 0.35687 0.82472 0.0
C360 C 0.57824 0.35151 0.74853 0.0
C361 C 0.53944 0.34854 0.82163 0.0
Zn362 Zn 0.03856 0.87244 0.82114 0.0
Zn363 Zn 0.99525 0.87129 0.72459 0.0
Zn364 Zn 0.01721 0.8707 0.77514 0.0
C365 C 0.99898 0.92011 0.74019 0.0
C366 C 0.95527 0.84513 0.75786 0.0
O367 O 0.05761 0.84735 0.77481 0.0
O368 O 0.05876 0.84039 0.82067 0.0
C369 C 0.04976 0.91752 0.80177 0.0
O370 O 1.00957 0.90984 0.76257 0.0
O371 O 0.99144 0.90712 0.7192 0.0
O372 O 0.95902 0.85256 0.73288 0.0
O373 O 0.97448 0.85013 0.77722 0.0
O374 O 0.06294 0.90266 0.81766 0.0
O375 O 0.02837 0.90978 0.78607 0.0
O376 O 0.98396 0.8554 0.80523 0.0
O377 O 1.00152 0.87461 0.84282 0.0
C378 C 0.98113 0.86238 0.8312 0.0
O379 O 0.04969 0.85226 0.74661 0.0
O380 O 0.02756 0.85443 0.70492 0.0
C381 C 0.0677 0.83529 0.79614 0.0
C382 C 0.04937 0.84821 0.71967 0.0
Zn383 Zn 0.53496 0.6411 0.22402 0.0
Zn384 Zn 0.48991 0.64276 0.32506 0.0
Zn385 Zn 0.51245 0.64365 0.27431 0.0
C386 C 0.54439 0.6656 0.33085 0.0
C387 C 0.4921 0.59427 0.3091 0.0
O388 O 0.48216 0.66354 0.24482 0.0
O389 O 0.50633 0.66209 0.20436 0.0
C390 C 0.57699 0.6645 0.25779 0.0
O391 O 0.54531 0.6606 0.30415 0.0
O392 O 0.52178 0.66051 0.34505 0.0
O393 O 0.48622 0.60686 0.33079 0.0
O394 O 0.50193 0.60493 0.28665 0.0
O395 O 0.57365 0.65555 0.23332 0.0
O396 O 0.55634 0.66241 0.27628 0.0
O397 O 0.51803 0.60435 0.26129 0.0
O398 O 0.5333 0.60531 0.21696 0.0
C399 C 0.52608 0.59314 0.2385 0.0
O400 O 0.47092 0.66538 0.27252 0.0
O401 O 0.45364 0.66069 0.31588 0.0
C402 C 0.48426 0.66891 0.21831 0.0
C403 C 0.45096 0.66932 0.29129 0.0
H404 H 0.14377 0.97363 0.29934 0.0
H405 H 0.07593 0.94832 0.35605 0.0
H406 H 0.11459 0.00969 0.28815 0.0
H407 H 0.04684 0.9845 0.34496 0.0
H408 H 0.03084 0.06872 0.35088 0.0
H409 H 0.05203 0.0281 0.35603 0.0
H410 H 0.06906 0.02554 0.26622 0.0
H411 H 0.04818 0.06674 0.26123 0.0
C412 C 0.12242 0.97551 0.30907 0.0
C413 C 0.11238 0.95812 0.32884 0.0
C414 C 0.10563 0.99619 0.30258 0.0
C415 C 0.07841 1.00006 0.31573 0.0
C416 C 0.06791 0.98227 0.33476 0.0
C417 C 0.08466 0.96157 0.34121 0.0
C418 C 0.03865 0.05932 0.33213 0.0
C419 C 0.03776 0.07087 0.30563 0.0
C420 C 0.05065 0.03594 0.33505 0.0
C421 C 0.06235 0.02355 0.31157 0.0
C422 C 0.06044 0.03469 0.28478 0.0
C423 C 0.04818 0.05814 0.28183 0.0
H424 H 0.43082 0.53564 0.90832 0.0
H425 H 0.43173 0.56744 0.82481 0.0
H426 H 0.45759 0.50041 0.8909 0.0
H427 H 0.45957 0.532 0.80725 0.0
H428 H 0.4686 0.44536 0.78827 0.0
H429 H 0.45151 0.48709 0.79858 0.0
H430 H 0.50544 0.48881 0.87392 0.0
H431 H 0.52154 0.44704 0.86402 0.0
C432 C 0.43678 0.53511 0.88616 0.0
C433 C 0.42883 0.55425 0.86791 0.0
C434 C 0.45259 0.51503 0.87622 0.0
C435 C 0.46107 0.51344 0.8477 0.0
C436 C 0.45337 0.53266 0.82933 0.0
C437 C 0.43757 0.55298 0.8394 0.0
C438 C 0.47748 0.45508 0.80647 0.0
C439 C 0.49614 0.44302 0.82553 0.0
C440 C 0.46769 0.47894 0.81243 0.0
C441 C 0.4765 0.49103 0.8375 0.0
C442 C 0.49757 0.47976 0.85486 0.0
C443 C 0.50703 0.45594 0.84909 0.0
H444 H 0.56705 0.57988 0.71871 0.0
H445 H 0.64376 0.5448 0.7535 0.0
H446 H 0.53699 0.54467 0.73271 0.0
H447 H 0.61388 0.50963 0.76728 0.0
H448 H 0.55549 0.44989 0.79703 0.0
H449 H 0.57493 0.49205 0.79613 0.0
H450 H 0.53283 0.50337 0.71521 0.0
H451 H 0.51318 0.46181 0.71659 0.0
C452 C 0.57749 0.56471 0.72944 0.0
C453 C 0.6079 0.56509 0.7347 0.0
C454 C 0.56024 0.54456 0.73758 0.0
C455 C 0.57297 0.52422 0.75108 0.0
C456 C 0.60316 0.5251 0.7574 0.0
C457 C 0.62038 0.54526 0.74934 0.0
C458 C 0.54944 0.46183 0.77972 0.0
C459 C 0.53287 0.45267 0.75688 0.0
C460 C 0.5609 0.48584 0.77896 0.0
C461 C 0.55589 0.50102 0.75535 0.0
C462 C 0.53707 0.4924 0.73381 0.0
C463 C 0.52581 0.4685 0.73454 0.0
H464 H 0.95336 0.93475 0.22271 0.0
H465 H 0.89999 0.97811 0.16641 0.0
H466 H 0.97884 0.97244 0.23882 0.0
H467 H 0.92536 0.01525 0.18228 0.0
H468 H 1.00158 0.06757 0.18449 0.0
H469 H 0.98361 0.02601 0.17563 0.0
H470 H 0.96106 0.01857 0.26371 0.0
H471 H 0.97878 0.06075 0.27272 0.0
C472 C 0.94695 0.95229 0.21398 0.0
C473 C 0.92461 0.9535 0.19336 0.0
C474 C 0.96141 0.97375 0.22327 0.0
C475 C 0.95412 0.9966 0.2116 0.0
C476 C 0.93147 0.9978 0.19147 0.0
C477 C 0.9168 0.97656 0.18256 0.0
C478 C 0.99347 0.05693 0.20217 0.0
C479 C 0.99128 0.06752 0.22924 0.0
C480 C 0.98316 0.03316 0.19705 0.0
C481 C 0.97058 0.01934 0.21889 0.0
C482 C 0.97071 0.02895 0.24655 0.0
C483 C 0.98093 0.053 0.2517 0.0
H484 H 0.95574 0.07016 0.69022 0.0
H485 H 0.88723 0.04333 0.74524 0.0
H486 H 0.98534 0.03426 0.70141 0.0
H487 H 0.91682 0.00755 0.75646 0.0
H488 H 0.9809 0.95001 0.78324 0.0
H489 H 0.96148 0.99171 0.77891 0.0
H490 H 0.98159 0.99085 0.68966 0.0
H491 H 1.00155 0.94971 0.69429 0.0
C492 C 0.947 0.05664 0.70474 0.0
C493 C 0.91895 0.05956 0.71661 0.0
C494 C 0.96402 0.03611 0.71124 0.0
C495 C 0.95346 0.01797 0.72979 0.0
C496 C 0.92587 0.02134 0.74245 0.0
C497 C 0.90884 0.04186 0.73593 0.0
C498 C 0.98222 0.9592 0.76302 0.0
C499 C 0.99299 0.94676 0.73919 0.0
C500 C 0.97066 0.9829 0.7604 0.0
C501 C 0.96973 0.99458 0.73387 0.0
C502 C 0.98217 0.98259 0.71045 0.0
C503 C 0.99353 0.95894 0.71306 0.0
H504 H 0.62366 0.46428 0.21767 0.0
H505 H 0.53826 0.43901 0.18942 0.0
H506 H 0.60138 0.50133 0.23709 0.0
H507 H 0.51628 0.47644 0.20811 0.0
H508 H 0.51098 0.56298 0.19515 0.0
H509 H 0.5243 0.51998 0.18891 0.0
H510 H 0.56311 0.51966 0.27236 0.0
H511 H 0.54914 0.56289 0.27879 0.0
C512 C 0.60008 0.46626 0.21621 0.0
C513 C 0.58288 0.4488 0.20147 0.0
C514 C 0.58731 0.48754 0.22736 0.0
C515 C 0.55714 0.49187 0.22384 0.0
C516 C 0.53965 0.4737 0.21081 0.0
C517 C 0.55232 0.45235 0.19994 0.0
C518 C 0.52165 0.55352 0.21244 0.0
C519 C 0.52905 0.56617 0.23742 0.0
C520 C 0.52919 0.52889 0.20894 0.0
C521 C 0.54486 0.5165 0.23011 0.0
C522 C 0.55112 0.52882 0.25568 0.0
C523 C 0.54299 0.55344 0.25942 0.0
H524 H 0.45255 0.44152 0.35289 0.0
H525 H 0.38187 0.46787 0.30024 0.0
H526 H 0.48052 0.47898 0.34334 0.0
H527 H 0.40987 0.50518 0.29062 0.0
H528 H 0.47234 0.56537 0.26538 0.0
H529 H 0.45363 0.52318 0.26831 0.0
H530 H 0.47543 0.52188 0.35731 0.0
H531 H 0.49482 0.56358 0.35408 0.0
C532 C 0.44298 0.45526 0.33924 0.0
C533 C 0.41482 0.45174 0.32755 0.0
C534 C 0.45907 0.47669 0.33369 0.0
C535 C 0.44743 0.49513 0.31627 0.0
C536 C 0.41972 0.49122 0.30377 0.0
C537 C 0.40361 0.4698 0.30935 0.0
C538 C 0.47403 0.55572 0.28529 0.0
C539 C 0.48528 0.56766 0.30943 0.0
C540 C 0.46293 0.5317 0.28709 0.0
C541 C 0.46283 0.51919 0.3131 0.0
C542 C 0.47542 0.53081 0.33688 0.0
C543 C 0.4864 0.55478 0.33508 0.0
H544 H 0.08228 0.07332 0.84142 0.0
H545 H 0.15639 0.02984 0.86759 0.0
H546 H 0.06128 0.03742 0.81706 0.0
H547 H 0.13514 0.99403 0.84434 0.0
H548 H 0.10347 0.93498 0.78863 0.0
H549 H 0.12358 0.97557 0.79982 0.0
H550 H 0.03849 0.99827 0.83003 0.0
H551 H 0.01846 0.95766 0.8181 0.0
C552 C 0.09424 0.0562 0.8417 0.0
C553 C 0.12093 0.05441 0.85662 0.0
C554 C 0.08208 0.03558 0.82797 0.0
C555 C 0.09647 0.01278 0.82867 0.0
C556 C 0.12358 0.0113 0.84291 0.0
C557 C 0.13563 0.03181 0.85662 0.0
C558 C 0.08893 0.94898 0.79679 0.0
C559 C 0.05937 0.94342 0.80213 0.0
C560 C 0.10046 0.97214 0.80351 0.0
C561 C 0.08281 0.99012 0.81632 0.0
C562 C 0.05269 0.985 0.81997 0.0
C563 C 0.04109 0.96179 0.81297 0.0
H564 H 0.10718 0.2012 0.061 0.0
H565 H 0.18934 0.19569 0.10623 0.0
H566 H 0.08066 0.19999 0.1054 0.0
H567 H 0.16262 0.19507 0.15121 0.0
H568 H 0.09408 0.1556 0.21373 0.0
H569 H 0.12922 0.16648 0.17666 0.0
H570 H 0.07089 0.22344 0.1478 0.0
H571 H 0.03569 0.21199 0.18426 0.0
C572 C 0.11961 0.19983 0.08049 0.0
C573 C 0.15036 0.19833 0.08002 0.0
C574 C 0.10442 0.19951 0.10607 0.0
C575 C 0.1195 0.19768 0.13199 0.0
C576 C 0.15034 0.19648 0.13163 0.0
C577 C 0.16563 0.19697 0.1059 0.0
C578 C 0.08954 0.1712 0.2003 0.0
C579 C 0.06232 0.18304 0.20183 0.0
C580 C 0.10953 0.17734 0.1789 0.0
C581 C 0.1025 0.19541 0.15878 0.0
C582 C 0.07665 0.20901 0.16247 0.0
C583 C 0.05665 0.20271 0.18359 0.0
H584 H 0.35267 0.35217 0.58178 0.0
H585 H 0.42875 0.30952 0.55933 0.0
H586 H 0.36787 0.35154 0.63131 0.0
H587 H 0.44474 0.30996 0.60832 0.0
H588 H 0.47191 0.31003 0.6966 0.0
H589 H 0.44014 0.29897 0.65656 0.0
H590 H 0.40555 0.37277 0.65637 0.0
H591 H 0.43655 0.3832 0.69671 0.0
C592 C 0.37234 0.34226 0.58744 0.0
C593 C 0.38974 0.33125 0.56644 0.0
C594 C 0.38124 0.3421 0.61585 0.0
C595 C 0.40779 0.331 0.62394 0.0
C596 C 0.42406 0.31855 0.60314 0.0
C597 C 0.41511 0.31862 0.57484 0.0
C598 C 0.45637 0.32339 0.68878 0.0
C599 C 0.45628 0.34733 0.69982 0.0
C600 C 0.43851 0.31724 0.66556 0.0
C601 C 0.42062 0.3351 0.65274 0.0
C602 C 0.41873 0.3584 0.66565 0.0
C603 C 0.43646 0.36445 0.68888 0.0
H604 H 0.60178 0.29676 0.98526 0.0
H605 H 0.66955 0.34643 0.95649 0.0
H606 H 0.57678 0.30025 0.93988 0.0
H607 H 0.64414 0.35047 0.9111 0.0
H608 H 0.59915 0.34096 0.82464 0.0
H609 H 0.62817 0.33145 0.86698 0.0
H610 H 0.54876 0.33053 0.91672 0.0
H611 H 0.52013 0.33895 0.87474 0.0
C612 C 0.6113 0.3085 0.96922 0.0
C613 C 0.63746 0.32154 0.97462 0.0
C614 C 0.59694 0.31055 0.94317 0.0
C615 C 0.60816 0.32593 0.92184 0.0
C616 C 0.63495 0.33829 0.92687 0.0
C617 C 0.64948 0.33606 0.95294 0.0
C618 C 0.58798 0.33842 0.84461 0.0
C619 C 0.55735 0.34102 0.84636 0.0
C620 C 0.6046 0.33317 0.86892 0.0
C621 C 0.59088 0.33025 0.8954 0.0
C622 C 0.56017 0.33229 0.89677 0.0
C623 C 0.54369 0.33747 0.87263 0.0
H624 H 0.91292 0.19925 0.47828 0.0
H625 H 0.83993 0.15163 0.45671 0.0
H626 H 0.92621 0.20186 0.4288 0.0
H627 H 0.85237 0.15518 0.40665 0.0
H628 H 0.92207 0.13137 0.33812 0.0
H629 H 0.89029 0.1382 0.37856 0.0
H630 H 0.91825 0.21427 0.38171 0.0
H631 H 0.95103 0.20681 0.34181 0.0
C632 C 0.89935 0.18968 0.46286 0.0
C633 C 0.87573 0.17482 0.47158 0.0
C634 C 0.90669 0.19149 0.43428 0.0
C635 C 0.8905 0.17861 0.41348 0.0
C636 C 0.8656 0.16509 0.42204 0.0
C637 C 0.8583 0.16322 0.45076 0.0
C638 C 0.92016 0.14985 0.34654 0.0
C639 C 0.93878 0.1686 0.33683 0.0
C640 C 0.90203 0.15381 0.36992 0.0
C641 C 0.90222 0.17666 0.38404 0.0
C642 C 0.91813 0.19625 0.37189 0.0
C643 C 0.9365 0.19217 0.34868 0.0
H644 H 0.89355 0.79223 0.96705 0.0
H645 H 0.84693 0.86085 0.96164 0.0
H646 H 0.91702 0.80073 0.92168 0.0
H647 H 0.8701 0.86923 0.91626 0.0
H648 H 0.95533 0.89188 0.86933 0.0
H649 H 0.92008 0.88062 0.90538 0.0
H650 H 0.91332 0.80756 0.86962 0.0
H651 H 0.94928 0.8191 0.83314 0.0
C652 C 0.88781 0.80887 0.95589 0.0
C653 C 0.86875 0.82607 0.96823 0.0
C654 C 0.90118 0.81369 0.92979 0.0
C655 C 0.89572 0.8358 0.91542 0.0
C656 C 0.87526 0.85224 0.92699 0.0
C657 C 0.86203 0.84748 0.95306 0.0
C658 C 0.9458 0.87357 0.8687 0.0
C659 C 0.95507 0.85635 0.84848 0.0
C660 C 0.92543 0.86712 0.88934 0.0
C661 C 0.91387 0.84313 0.89056 0.0
C662 C 0.92199 0.82615 0.8694 0.0
C663 C 0.94228 0.83278 0.84834 0.0
H664 H 0.67354 0.65917 0.46522 0.0
H665 H 0.59561 0.69741 0.49186 0.0
H666 H 0.65844 0.66359 0.41584 0.0
H667 H 0.57971 0.70056 0.44319 0.0
H668 H 0.55205 0.70955 0.35711 0.0
H669 H 0.58363 0.71679 0.39813 0.0
H670 H 0.62348 0.64577 0.38501 0.0
H671 H 0.59308 0.63956 0.34303 0.0
C672 C 0.65339 0.66881 0.46057 0.0
C673 C 0.63559 0.6776 0.48264 0.0
C674 C 0.64454 0.67112 0.43221 0.0
C675 C 0.61767 0.6823 0.42521 0.0
C676 C 0.60073 0.69215 0.44735 0.0
C677 C 0.60962 0.68996 0.47552 0.0
C678 C 0.56873 0.69616 0.3622 0.0
C679 C 0.57035 0.67411 0.34685 0.0
C680 C 0.58645 0.70002 0.38608 0.0
C681 C 0.6055 0.6815 0.39569 0.0
C682 C 0.60921 0.66053 0.37847 0.0
C683 C 0.59188 0.65696 0.3542 0.0
H684 H 0.38381 0.73551 0.08212 0.0
H685 H 0.35867 0.65917 0.09018 0.0
H686 H 0.40913 0.73362 0.12761 0.0
H687 H 0.38393 0.65733 0.13566 0.0
H688 H 0.42489 0.66048 0.22193 0.0
H689 H 0.38838 0.67103 0.18565 0.0
H690 H 0.45421 0.71353 0.14157 0.0
H691 H 0.49014 0.70304 0.1775 0.0
C692 C 0.38353 0.71834 0.09364 0.0
C693 C 0.36952 0.6974 0.0822 0.0
C694 C 0.39794 0.7173 0.11981 0.0
C695 C 0.39876 0.69528 0.13528 0.0
C696 C 0.38344 0.67469 0.12456 0.0
C697 C 0.36902 0.67573 0.09836 0.0
C698 C 0.4311 0.67283 0.20504 0.0
C699 C 0.46032 0.6809 0.20244 0.0
C700 C 0.41035 0.67862 0.18406 0.0
C701 C 0.41843 0.69287 0.16044 0.0
C702 C 0.44704 0.70267 0.15944 0.0
C703 C 0.46772 0.69665 0.18007 0.0
H704 H 0.10039 0.81501 0.55976 0.0
H705 H 0.17878 0.85359 0.58688 0.0
H706 H 0.08448 0.81181 0.60834 0.0
H707 H 0.16372 0.84905 0.63613 0.0
H708 H 0.09879 0.87375 0.70792 0.0
H709 H 0.12922 0.86701 0.66641 0.0
H710 H 0.08766 0.79609 0.65362 0.0
H711 H 0.05603 0.80388 0.69419 0.0
C712 C 0.11452 0.8225 0.57618 0.0
C713 C 0.14059 0.83502 0.56922 0.0
C714 C 0.10561 0.82028 0.60431 0.0
C715 C 0.12267 0.83024 0.62653 0.0
C716 C 0.14971 0.84146 0.61969 0.0
C717 C 0.15854 0.84384 0.59139 0.0
C718 C 0.09721 0.85625 0.69696 0.0
C719 C 0.07523 0.83927 0.70427 0.0
C720 C 0.11458 0.85237 0.67295 0.0
C721 C 0.11042 0.83127 0.65593 0.0
C722 C 0.09086 0.81294 0.66553 0.0
C723 C 0.07311 0.8171 0.68916 0.0
H724 H 0.23008 0.22276 0.33149 0.0
H725 H 0.18795 0.29326 0.3237 0.0
H726 H 0.18797 0.20298 0.30878 0.0
H727 H 0.14624 0.27357 0.30007 0.0
H728 H 0.06424 0.22219 0.3145 0.0
H729 H 0.10819 0.2474 0.31992 0.0
H730 H 0.15607 0.1967 0.26705 0.0
H731 H 0.11154 0.17127 0.2619 0.0
C732 C 0.21204 0.2341 0.3245 0.0
C733 C 0.21221 0.25955 0.32989 0.0
C734 C 0.18804 0.22279 0.31108 0.0
C735 C 0.16357 0.23665 0.30276 0.0
C736 C 0.16458 0.26232 0.30649 0.0
C737 C 0.18862 0.27364 0.31987 0.0
C738 C 0.08391 0.21694 0.3032 0.0
C739 C 0.08455 0.19496 0.28762 0.0
C740 C 0.10913 0.2314 0.30624 0.0
C741 C 0.13579 0.22402 0.29409 0.0
C742 C 0.13593 0.2028 0.27685 0.0
C743 C 0.11042 0.18841 0.27356 0.0
H744 H 0.34139 0.22758 0.81293 0.0
H745 H 0.30788 0.28272 0.8701 0.0
H746 H 0.37981 0.25599 0.79789 0.0
H747 H 0.34643 0.31111 0.85512 0.0
H748 H 0.44072 0.34167 0.84744 0.0
H749 H 0.39923 0.31557 0.85993 0.0
H750 H 0.38901 0.29428 0.77228 0.0
H751 H 0.43105 0.32029 0.75979 0.0
C752 C 0.34196 0.24586 0.82207 0.0
C753 C 0.3215 0.25278 0.84282 0.0
C754 C 0.36402 0.26219 0.81339 0.0
C755 C 0.36627 0.28586 0.82528 0.0
C756 C 0.34562 0.2929 0.8458 0.0
C757 C 0.32353 0.27658 0.85445 0.0
C758 C 0.4295 0.33161 0.83075 0.0
C759 C 0.43924 0.33304 0.80262 0.0
C760 C 0.40556 0.3167 0.83791 0.0
C761 C 0.39074 0.30276 0.81715 0.0
C762 C 0.40014 0.30455 0.78887 0.0
C763 C 0.42409 0.31957 0.78166 0.0
H764 H 0.7483 0.28506 0.71684 0.0
H765 H 0.68194 0.22892 0.70436 0.0
H766 H 0.71186 0.31175 0.7385 0.0
H767 H 0.6455 0.25563 0.72622 0.0
H768 H 0.5869 0.30768 0.77605 0.0
H769 H 0.6282 0.27942 0.76923 0.0
H770 H 0.67052 0.33288 0.71545 0.0
H771 H 0.62966 0.36068 0.72209 0.0
C772 C 0.726 0.2783 0.71899 0.0
C773 C 0.71795 0.25501 0.70838 0.0
C774 C 0.70515 0.29356 0.73151 0.0
C775 C 0.67571 0.28592 0.7338 0.0
C776 C 0.66804 0.26199 0.72499 0.0
C777 C 0.68894 0.24669 0.7124 0.0
C778 C 0.60542 0.31352 0.76337 0.0
C779 C 0.60502 0.33629 0.74945 0.0
C780 C 0.62891 0.29731 0.75929 0.0
C781 C 0.65259 0.30387 0.7417 0.0
C782 C 0.65285 0.3273 0.72934 0.0
C783 C 0.62932 0.34322 0.73303 0.0
H784 H 0.81139 0.25002 0.17539 0.0
H785 H 0.79955 0.2741 0.26181 0.0
H786 H 0.84784 0.22069 0.19096 0.0
H787 H 0.8368 0.24478 0.27735 0.0
H788 H 0.93284 0.20738 0.27894 0.0
H789 H 0.89156 0.23576 0.27257 0.0
H790 H 0.8483 0.1824 0.21858 0.0
H791 H 0.88938 0.1546 0.22448 0.0
C792 C 0.81629 0.24892 0.19778 0.0
C793 C 0.80212 0.26431 0.21731 0.0
C794 C 0.83729 0.23207 0.20673 0.0
C795 C 0.84493 0.2301 0.23549 0.0
C796 C 0.8314 0.24585 0.25507 0.0
C797 C 0.81013 0.2627 0.24609 0.0
C798 C 0.91401 0.2015 0.26652 0.0
C799 C 0.91442 0.17896 0.2519 0.0
C800 C 0.89046 0.21777 0.26274 0.0
C801 C 0.86706 0.21159 0.24438 0.0
C802 C 0.86636 0.18802 0.23217 0.0
C803 C 0.88977 0.17198 0.23578 0.0
H804 H 0.78646 0.77274 0.73311 0.0
H805 H 0.85646 0.72637 0.70328 0.0
H806 H 0.82226 0.79861 0.75802 0.0
H807 H 0.89227 0.75252 0.72763 0.0
H808 H 0.95299 0.79871 0.7796 0.0
H809 H 0.91231 0.76932 0.77294 0.0
H810 H 0.85879 0.82746 0.73897 0.0
H811 H 0.89924 0.85639 0.74552 0.0
C812 C 0.80942 0.76776 0.73232 0.0
C813 C 0.8186 0.74763 0.7159 0.0
C814 C 0.82996 0.78268 0.74648 0.0
C815 C 0.86018 0.77774 0.74473 0.0
C816 C 0.86919 0.75676 0.72969 0.0
C817 C 0.84867 0.74194 0.71539 0.0
C818 C 0.93206 0.80529 0.77189 0.0
C819 C 0.92909 0.82978 0.76321 0.0
C820 C 0.90891 0.78845 0.76771 0.0
C821 C 0.88238 0.79597 0.7551 0.0
C822 C 0.87873 0.82101 0.74893 0.0
C823 C 0.9019 0.83765 0.75272 0.0
H824 H 0.74997 0.73214 0.24028 0.0
H825 H 0.68342 0.7847 0.21762 0.0
H826 H 0.71227 0.7052 0.26007 0.0
H827 H 0.64565 0.75748 0.23681 0.0
H828 H 0.58291 0.70908 0.28458 0.0
H829 H 0.62507 0.73727 0.2802 0.0
H830 H 0.67358 0.68043 0.23718 0.0
H831 H 0.63177 0.65271 0.24143 0.0
C832 C 0.72735 0.7381 0.23983 0.0
C833 C 0.71971 0.76049 0.22709 0.0
C834 C 0.70572 0.7226 0.25108 0.0
C835 C 0.67592 0.72916 0.25003 0.0
C836 C 0.6684 0.75198 0.23829 0.0
C837 C 0.69002 0.76741 0.22687 0.0
C838 C 0.60302 0.70245 0.27516 0.0
C839 C 0.60413 0.67879 0.26325 0.0
C840 C 0.62699 0.71863 0.27232 0.0
C841 C 0.65256 0.71119 0.25801 0.0
C842 C 0.65439 0.68677 0.24845 0.0
C843 C 0.6304 0.67085 0.25087 0.0
H844 H 0.28145 0.73843 0.3125 0.0
H845 H 0.34999 0.78771 0.34157 0.0
H846 H 0.31799 0.71327 0.28861 0.0
H847 H 0.38653 0.76252 0.31778 0.0
H848 H 0.44885 0.71565 0.26879 0.0
H849 H 0.40795 0.74455 0.27418 0.0
H850 H 0.35441 0.68612 0.30865 0.0
H851 H 0.39493 0.65776 0.30333 0.0
C852 C 0.30429 0.74404 0.31357 0.0
C853 C 0.3128 0.76488 0.32937 0.0
C854 C 0.32523 0.72966 0.29978 0.0
C855 C 0.35527 0.73569 0.30148 0.0
C856 C 0.36359 0.75744 0.31572 0.0
C857 C 0.3426 0.77187 0.32949 0.0
C858 C 0.4279 0.70892 0.27644 0.0
C859 C 0.42494 0.68455 0.28568 0.0
C860 C 0.40462 0.72548 0.27987 0.0
C861 C 0.37796 0.71775 0.29217 0.0
C862 C 0.37441 0.69277 0.29891 0.0
C863 C 0.39766 0.67645 0.29587 0.0
H864 H 0.23469 0.77338 0.8284 0.0
H865 H 0.18018 0.70834 0.82142 0.0
H866 H 0.19393 0.79839 0.81125 0.0
H867 H 0.13984 0.73321 0.80377 0.0
H868 H 0.06817 0.79199 0.82326 0.0
H869 H 0.10895 0.76378 0.82824 0.0
H870 H 0.15973 0.80712 0.76948 0.0
H871 H 0.11818 0.83552 0.76426 0.0
C872 C 0.21411 0.76439 0.82302 0.0
C873 C 0.21068 0.73886 0.82653 0.0
C874 C 0.1909 0.77868 0.81281 0.0
C875 C 0.16364 0.76779 0.80612 0.0
C876 C 0.16052 0.74218 0.80883 0.0
C877 C 0.18372 0.7279 0.81884 0.0
C878 C 0.08774 0.79513 0.81078 0.0
C879 C 0.09005 0.81589 0.79337 0.0
C880 C 0.11113 0.77894 0.8136 0.0
C881 C 0.13769 0.78327 0.79942 0.0
C882 C 0.13959 0.80343 0.78084 0.0
C883 C 0.11578 0.8195 0.7776 0.0
loop_
_geom_bond_atom_site_label_1
_geom_bond_atom_site_label_2
_geom_bond_distance
_geom_bond_site_symmetry_2
_ccdc_geom_bond_type
C0 C1 1.264 . S
C0 C5 1.479 . S
C0 C10 1.465 . S
C1 C0 1.264 . S
C1 C3 1.339 . S
C1 H28 0.931 . S
C2 C3 1.395 . S
C2 C4 1.320 . S
C3 C1 1.339 . S
C3 C2 1.395 . S
C3 H29 0.929 . S
C4 C2 1.320 . S
C4 C5 1.405 . S
C4 H30 0.930 . S
C5 C0 1.479 . S
C5 C4 1.405 . S
C5 H31 0.931 . S
U6 O7 2.454 . S
U6 O8 2.458 . S
U6 C9 2.984 . S
U6 C10 2.847 . S
U6 C23 2.882 . S
U6 O24 2.441 . S
U6 O25 2.420 . S
U6 O26 2.455 . S
U6 O27 2.449 . S
O7 U6 2.454 . S
O7 C9 1.353 . S
O8 U6 2.458 . S
O8 C9 1.286 . S
C9 U6 2.984 . S
C9 O7 1.353 . S
C9 O8 1.286 . S
C9 C11 1.363 . S
C10 C0 1.465 . S
C10 U6 2.847 . S
C10 O24 1.249 . S
C10 O25 1.202 . S
C11 C9 1.363 . S
C11 C13 1.408 . S
C11 C16 1.342 . S
C12 C13 1.310 . S
C12 C15 1.461 . S
C12 H32 0.932 . S
C13 C11 1.408 . S
C13 C12 1.310 . S
C13 H33 0.930 . S
C14 C15 1.474 . S
C14 C16 1.285 . S
C14 H34 0.929 . S
C15 C12 1.461 . S
C15 C14 1.474 . S
C16 C11 1.342 . S
C16 C14 1.285 . S
C16 H35 0.930 . S
C17 C20 1.424 . S
C17 C22 1.245 . S
C17 C23 1.428 . S
C18 C21 1.260 . S
C18 C22 1.477 . S
C18 H36 0.932 . S
C19 C20 1.384 . S
C19 C21 1.479 . S
C19 H37 0.929 . S
C20 C17 1.424 . S
C20 C19 1.384 . S
C20 H38 0.928 . S
C21 C18 1.260 . S
C21 C19 1.479 . S
C22 C17 1.245 . S
C22 C18 1.477 . S
C22 H39 0.932 . S
C23 U6 2.882 . S
C23 C17 1.428 . S
C23 O26 1.301 . S
C23 O27 1.282 . S
O24 U6 2.441 . S
O24 C10 1.249 . S
O25 U6 2.420 . S
O25 C10 1.202 . S
O26 U6 2.455 . S
O26 C23 1.301 . S
O27 U6 2.449 . S
O27 C23 1.282 . S
H28 C1 0.931 . S
H29 C3 0.929 . S
H30 C4 0.930 . S
H31 C5 0.931 . S
H32 C12 0.932 . S
H33 C13 0.930 . S
H34 C14 0.929 . S
H35 C16 0.930 . S
H36 C18 0.932 . S
H37 C19 0.929 . S
H38 C20 0.928 . S
H39 C22 0.932 . S
C40 C41 1.264 . S
C40 C45 1.479 . S
C40 C50 1.465 . S
C41 C40 1.264 . S
C41 C43 1.339 1_556 S
C41 H68 0.931 . S
C42 C43 1.395 . S
C42 C44 1.320 . S
C43 C41 1.339 1_554 S
C43 C42 1.395 . S
C43 H69 0.929 . S
C44 C42 1.320 . S
C44 C45 1.405 1_554 S
C44 H70 0.930 . S
C45 C40 1.479 . S
C45 C44 1.405 1_556 S
C45 H71 0.931 . S
U46 O47 2.454 . S
U46 O48 2.458 . S
U46 C49 2.984 . S
U46 C50 2.847 . S
U46 C63 2.882 . S
U46 O64 2.441 . S
U46 O65 2.420 . S
U46 O66 2.455 . S
U46 O67 2.449 . S
O47 U46 2.454 . S
O47 C49 1.353 . S
O48 U46 2.458 . S
O48 C49 1.286 . S
C49 U46 2.984 . S
C49 O47 1.353 . S
C49 O48 1.286 . S
C49 C51 1.363 . S
C50 C40 1.465 . S
C50 U46 2.847 . S
C50 O64 1.249 . S
C50 O65 1.202 . S
C51 C49 1.363 . S
C51 C53 1.408 . S
C51 C56 1.342 . S
C52 C53 1.310 . S
C52 C55 1.461 . S
C52 H72 0.932 . S
C53 C51 1.408 . S
C53 C52 1.310 . S
C53 H73 0.930 . S
C54 C55 1.474 . S
C54 C56 1.285 . S
C54 H74 0.929 . S
C55 C52 1.461 . S
C55 C54 1.474 . S
C56 C51 1.342 . S
C56 C54 1.285 . S
C56 H75 0.930 . S
C57 C60 1.424 . S
C57 C62 1.245 . S
C57 C63 1.428 . S
C58 C61 1.260 . S
C58 C62 1.477 . S
C58 H76 0.932 . S
C59 C60 1.384 . S
C59 C61 1.479 . S
C59 H77 0.929 . S
C60 C57 1.424 . S
C60 C59 1.384 . S
C60 H78 0.928 . S
C61 C58 1.260 . S
C61 C59 1.479 . S
C62 C57 1.245 . S
C62 C58 1.477 . S
C62 H79 0.932 . S
C63 U46 2.882 . S
C63 C57 1.428 . S
C63 O66 1.301 . S
C63 O67 1.282 . S
O64 U46 2.441 . S
O64 C50 1.249 . S
O65 U46 2.420 . S
O65 C50 1.202 . S
O66 U46 2.455 . S
O66 C63 1.301 . S
O67 U46 2.449 . S
O67 C63 1.282 . S
H68 C41 0.931 . S
H69 C43 0.929 . S
H70 C44 0.930 . S
H71 C45 0.931 . S
H72 C52 0.932 . S
H73 C53 0.930 . S
H74 C54 0.929 . S
H75 C56 0.930 . S
H76 C58 0.932 . S
H77 C59 0.929 . S
H78 C60 0.928 . S
H79 C62 0.932 . S
C80 C81 1.264 . S
C80 C85 1.479 . S
C80 C90 1.465 . S
C81 C80 1.264 . S
C81 C83 1.339 . S
C81 H108 0.931 . S
C82 C83 1.395 . S
C82 C84 1.320 . S
C83 C81 1.339 . S
C83 C82 1.395 . S
C83 H109 0.929 . S
C84 C82 1.320 . S
C84 C85 1.405 . S
C84 H110 0.930 . S
C85 C80 1.479 . S
C85 C84 1.405 . S
C85 H111 0.931 . S
U86 O87 2.454 . S
U86 O88 2.458 . S
U86 C89 2.984 . S
U86 C90 2.847 . S
U86 C103 2.882 . S
U86 O104 2.441 . S
U86 O105 2.420 . S
U86 O106 2.455 . S
U86 O107 2.449 . S
O87 U86 2.454 . S
O87 C89 1.353 . S
O88 U86 2.458 . S
O88 C89 1.286 . S
C89 U86 2.984 . S
C89 O87 1.353 . S
C89 O88 1.286 . S
C89 C91 1.363 . S
C90 C80 1.465 . S
C90 U86 2.847 . S
C90 O104 1.249 . S
C90 O105 1.202 . S
C91 C89 1.363 . S
C91 C93 1.408 . S
C91 C96 1.342 . S
C92 C93 1.310 . S
C92 C95 1.461 . S
C92 H112 0.932 . S
C93 C91 1.408 . S
C93 C92 1.310 . S
C93 H113 0.930 . S
C94 C95 1.474 . S
C94 C96 1.285 . S
C94 H114 0.929 . S
C95 C92 1.461 . S
C95 C94 1.474 . S
C96 C91 1.342 . S
C96 C94 1.285 . S
C96 H115 0.930 . S
C97 C100 1.424 . S
C97 C102 1.245 . S
C97 C103 1.428 . S
C98 C101 1.260 . S
C98 C102 1.477 . S
C98 H116 0.932 . S
C99 C100 1.384 . S
C99 C101 1.479 . S
C99 H117 0.929 . S
C100 C97 1.424 . S
C100 C99 1.384 . S
C100 H118 0.928 . S
C101 C98 1.260 . S
C101 C99 1.479 . S
C102 C97 1.245 . S
C102 C98 1.477 . S
C102 H119 0.932 . S
C103 U86 2.882 . S
C103 C97 1.428 . S
C103 O106 1.301 . S
C103 O107 1.282 . S
O104 U86 2.441 . S
O104 C90 1.249 . S
O105 U86 2.420 . S
O105 C90 1.202 . S
O106 U86 2.455 . S
O106 C103 1.301 . S
O107 U86 2.449 . S
O107 C103 1.282 . S
H108 C81 0.931 . S
H109 C83 0.929 . S
H110 C84 0.930 . S
H111 C85 0.931 . S
H112 C92 0.932 . S
H113 C93 0.930 . S
H114 C94 0.929 . S
H115 C96 0.930 . S
H116 C98 0.932 . S
H117 C99 0.929 . S
H118 C100 0.928 . S
H119 C102 0.932 . S
C120 C121 1.264 . S
C120 C125 1.479 . S
C120 C130 1.465 . S
C121 C120 1.264 . S
C121 C123 1.380 . S
C121 H148 0.931 . S
C122 C123 1.366 1_556 S
C122 C124 1.320 . S
C123 C121 1.380 . S
C123 C122 1.366 1_554 S
C123 H149 0.917 1_554 S
C124 C122 1.320 . S
C124 C125 1.405 1_556 S
C124 H150 0.930 . S
C125 C120 1.479 . S
C125 C124 1.405 1_554 S
C125 H151 0.931 . S
U126 O127 2.454 . S
U126 O128 2.458 . S
U126 C129 2.984 . S
U126 C130 2.847 . S
U126 C143 2.882 . S
U126 O144 2.441 . S
U126 O145 2.420 . S
U126 O146 2.455 . S
U126 O147 2.449 . S
O127 U126 2.454 . S
O127 C129 1.353 . S
O128 U126 2.458 . S
O128 C129 1.286 . S
C129 U126 2.984 . S
C129 O127 1.353 . S
C129 O128 1.286 . S
C129 C131 1.363 . S
C130 C120 1.465 . S
C130 U126 2.847 . S
C130 O144 1.249 . S
C130 O145 1.202 . S
C131 C129 1.363 . S
C131 C133 1.408 . S
C131 C136 1.342 . S
C132 C133 1.310 . S
C132 C135 1.461 . S
C132 H152 0.932 . S
C133 C131 1.408 . S
C133 C132 1.310 . S
C133 H153 0.930 . S
C134 C135 1.474 . S
C134 C136 1.285 . S
C134 H154 0.929 . S
C135 C132 1.461 . S
C135 C134 1.474 . S
C136 C131 1.342 . S
C136 C134 1.285 . S
C136 H155 0.930 . S
C137 C140 1.424 . S
C137 C142 1.245 . S
C137 C143 1.428 . S
C138 C141 1.260 . S
C138 C142 1.477 . S
C138 H156 0.932 . S
C139 C140 1.384 . S
C139 C141 1.479 . S
C139 H157 0.929 . S
C140 C137 1.424 . S
C140 C139 1.384 . S
C140 H158 0.928 . S
C141 C138 1.260 . S
C141 C139 1.479 . S
C142 C137 1.245 . S
C142 C138 1.477 . S
C142 H159 0.932 . S
C143 U126 2.882 . S
C143 C137 1.428 . S
C143 O146 1.301 . S
C143 O147 1.282 . S
O144 U126 2.441 . S
O144 C130 1.249 . S
O145 U126 2.420 . S
O145 C130 1.202 . S
O146 U126 2.455 . S
O146 C143 1.301 . S
O147 U126 2.449 . S
O147 C143 1.282 . S
H148 C121 0.931 . S
H149 C123 0.917 1_556 S
H150 C124 0.930 . S
H151 C125 0.931 . S
H152 C132 0.932 . S
H153 C133 0.930 . S
H154 C134 0.929 . S
H155 C136 0.930 . S
H156 C138 0.932 . S
H157 C139 0.929 . S
H158 C140 0.928 . S
H159 C142 0.932 . S
C160 C161 1.264 . S
C160 C165 1.479 . S
C160 C170 1.465 . S
C161 C160 1.264 . S
C161 C163 1.339 . S
C161 H188 0.931 . S
C162 C163 1.395 . S
C162 C164 1.320 . S
C163 C161 1.339 . S
C163 C162 1.395 . S
C163 H189 0.929 . S
C164 C162 1.320 . S
C164 C165 1.405 . S
C164 H190 0.930 . S
C165 C160 1.479 . S
C165 C164 1.405 . S
C165 H191 0.931 . S
U166 O167 2.454 . S
U166 O168 2.458 . S
U166 C169 2.984 . S
U166 C170 2.847 . S
U166 C183 2.882 . S
U166 O184 2.441 . S
U166 O185 2.420 . S
U166 O186 2.455 . S
U166 O187 2.449 . S
O167 U166 2.454 . S
O167 C169 1.353 . S
O168 U166 2.458 . S
O168 C169 1.286 . S
C169 U166 2.984 . S
C169 O167 1.353 . S
C169 O168 1.286 . S
C169 C171 1.363 . S
C170 C160 1.465 . S
C170 U166 2.847 . S
C170 O184 1.249 . S
C170 O185 1.202 . S
C171 C169 1.363 . S
C171 C173 1.408 . S
C171 C176 1.342 . S
C172 C173 1.310 . S
C172 C175 1.461 . S
C172 H192 0.932 . S
C173 C171 1.408 . S
C173 C172 1.310 . S
C173 H193 0.930 . S
C174 C175 1.474 . S
C174 C176 1.285 . S
C174 H194 0.929 . S
C175 C172 1.461 . S
C175 C174 1.474 . S
C176 C171 1.342 . S
C176 C174 1.285 . S
C176 H195 0.930 . S
C177 C180 1.424 . S
C177 C182 1.245 . S
C177 C183 1.428 . S
C178 C181 1.260 . S
C178 C182 1.477 . S
C178 H196 0.932 . S
C179 C180 1.384 . S
C179 C181 1.479 . S
C179 H197 0.929 . S
C180 C177 1.424 . S
C180 C179 1.384 . S
C180 H198 0.928 . S
C181 C178 1.260 . S
C181 C179 1.479 . S
C182 C177 1.245 . S
C182 C178 1.477 . S
C182 H199 0.932 . S
C183 U166 2.882 . S
C183 C177 1.428 . S
C183 O186 1.301 . S
C183 O187 1.282 . S
O184 U166 2.441 . S
O184 C170 1.249 . S
O185 U166 2.420 . S
O185 C170 1.202 . S
O186 U166 2.455 . S
O186 C183 1.301 . S
O187 U166 2.449 . S
O187 C183 1.282 . S
H188 C161 0.931 . S
H189 C163 0.929 . S
H190 C164 0.930 . S
H191 C165 0.931 . S
H192 C172 0.932 . S
H193 C173 0.930 . S
H194 C174 0.929 . S
H195 C176 0.930 . S
H196 C178 0.932 . S
H197 C179 0.929 . S
H198 C180 0.928 . S
H199 C182 0.932 . S
C200 C201 1.264 . S
C200 C205 1.479 . S
C200 C210 1.465 . S
C201 C200 1.264 . S
C201 C203 1.339 1_554 S
C201 H228 0.931 . S
C202 C203 1.395 . S
C202 C204 1.320 . S
C203 C201 1.339 1_556 S
C203 C202 1.395 . S
C203 H229 0.929 . S
C204 C202 1.320 . S
C204 C205 1.405 1_556 S
C204 H230 0.930 . S
C205 C200 1.479 . S
C205 C204 1.405 1_554 S
C205 H231 0.931 . S
U206 O207 2.454 . S
U206 O208 2.458 . S
U206 C209 2.984 . S
U206 C210 2.847 . S
U206 C223 2.882 . S
U206 O224 2.441 . S
U206 O225 2.420 . S
U206 O226 2.455 . S
U206 O227 2.449 . S
O207 U206 2.454 . S
O207 C209 1.353 . S
O208 U206 2.458 . S
O208 C209 1.286 . S
C209 U206 2.984 . S
C209 O207 1.353 . S
C209 O208 1.286 . S
C209 C211 1.363 . S
C210 C200 1.465 . S
C210 U206 2.847 . S
C210 O224 1.249 . S
C210 O225 1.202 . S
C211 C209 1.363 . S
C211 C213 1.408 . S
C211 C216 1.342 . S
C212 C213 1.310 . S
C212 C215 1.461 . S
C212 H232 0.932 . S
C213 C211 1.408 . S
C213 C212 1.310 . S
C213 H233 0.930 . S
C214 C215 1.474 . S
C214 C216 1.285 . S
C214 H234 0.929 . S
C215 C212 1.461 . S
C215 C214 1.474 . S
C216 C211 1.342 . S
C216 C214 1.285 . S
C216 H235 0.930 . S
C217 C220 1.424 . S
C217 C222 1.245 . S
C217 C223 1.428 . S
C218 C221 1.260 . S
C218 C222 1.477 . S
C218 H236 0.932 . S
C219 C220 1.384 . S
C219 C221 1.479 . S
C219 H237 0.929 . S
C220 C217 1.424 . S
C220 C219 1.384 . S
C220 H238 0.928 . S
C221 C218 1.260 . S
C221 C219 1.479 . S
C222 C217 1.245 . S
C222 C218 1.477 . S
C222 H239 0.932 . S
C223 U206 2.882 . S
C223 C217 1.428 . S
C223 O226 1.301 . S
C223 O227 1.282 . S
O224 U206 2.441 . S
O224 C210 1.249 . S
O225 U206 2.420 . S
O225 C210 1.202 . S
O226 U206 2.455 . S
O226 C223 1.301 . S
O227 U206 2.449 . S
O227 C223 1.282 . S
H228 C201 0.931 . S
H229 C203 0.929 . S
H230 C204 0.930 . S
H231 C205 0.931 . S
H232 C212 0.932 . S
H233 C213 0.930 . S
H234 C214 0.929 . S
H235 C216 0.930 . S
H236 C218 0.932 . S
H237 C219 0.929 . S
H238 C220 0.928 . S
H239 C222 0.932 . S
C240 C241 1.264 . S
C240 C245 1.479 . S
C240 C250 1.465 . S
C241 C240 1.264 . S
C241 C243 1.339 . S
C241 H268 0.931 . S
C242 C243 1.395 . S
C242 C244 1.320 . S
C243 C241 1.339 . S
C243 C242 1.395 . S
C243 H269 0.929 . S
C244 C242 1.320 . S
C244 C245 1.405 . S
C244 H270 0.930 . S
C245 C240 1.479 . S
C245 C244 1.405 . S
C245 H271 0.931 . S
U246 O247 2.454 . S
U246 O248 2.458 . S
U246 C249 2.984 . S
U246 C250 2.847 . S
U246 C263 2.882 . S
U246 O264 2.441 . S
U246 O265 2.420 . S
U246 O266 2.455 . S
U246 O267 2.449 . S
O247 U246 2.454 . S
O247 C249 1.353 . S
O248 U246 2.458 . S
O248 C249 1.286 . S
C249 U246 2.984 . S
C249 O247 1.353 . S
C249 O248 1.286 . S
C249 C251 1.363 . S
C250 C240 1.465 . S
C250 U246 2.847 . S
C250 O264 1.249 . S
C250 O265 1.202 . S
C251 C249 1.363 . S
C251 C253 1.408 . S
C251 C256 1.342 . S
C252 C253 1.310 . S
C252 C255 1.461 . S
C252 H272 0.932 . S
C253 C251 1.408 . S
C253 C252 1.310 . S
C253 H273 0.930 . S
C254 C255 1.474 . S
C254 C256 1.285 . S
C254 H274 0.929 . S
C255 C252 1.461 . S
C255 C254 1.474 . S
C256 C251 1.342 . S
C256 C254 1.285 . S
C256 H275 0.930 . S
C257 C260 1.424 . S
C257 C262 1.245 . S
C257 C263 1.428 . S
C258 C261 1.260 . S
C258 C262 1.477 . S
C258 H276 0.932 . S
C259 C260 1.384 . S
C259 C261 1.479 . S
C259 H277 0.929 . S
C260 C257 1.424 . S
C260 C259 1.384 . S
C260 H278 0.928 . S
C261 C258 1.260 . S
C261 C259 1.479 . S
C262 C257 1.245 . S
C262 C258 1.477 . S
C262 H279 0.932 . S
C263 U246 2.882 . S
C263 C257 1.428 . S
C263 O266 1.301 . S
C263 O267 1.282 . S
O264 U246 2.441 . S
O264 C250 1.249 . S
O265 U246 2.420 . S
O265 C250 1.202 . S
O266 U246 2.455 . S
O266 C263 1.301 . S
O267 U246 2.449 . S
O267 C263 1.282 . S
H268 C241 0.931 . S
H269 C243 0.929 . S
H270 C244 0.930 . S
H271 C245 0.931 . S
H272 C252 0.932 . S
H273 C253 0.930 . S
H274 C254 0.929 . S
H275 C256 0.930 . S
H276 C258 0.932 . S
H277 C259 0.929 . S
H278 C260 0.928 . S
H279 C262 0.932 . S
C280 C281 1.264 . S
C280 C285 1.479 . S
C280 C290 1.465 . S
C281 C280 1.264 . S
C281 C283 1.339 1_556 S
C281 H308 0.931 . S
C282 C283 1.395 . S
C282 C284 1.320 . S
C283 C281 1.339 1_554 S
C283 C282 1.395 . S
C283 H309 0.929 . S
C284 C282 1.320 . S
C284 C285 1.405 1_554 S
C284 H310 0.930 . S
C285 C280 1.479 . S
C285 C284 1.405 1_556 S
C285 H311 0.931 . S
U286 O287 2.454 . S
U286 O288 2.458 . S
U286 C289 2.984 . S
U286 C290 2.847 . S
U286 C303 2.882 . S
U286 O304 2.441 . S
U286 O305 2.420 . S
U286 O306 2.455 . S
U286 O307 2.449 . S
O287 U286 2.454 . S
O287 C289 1.353 . S
O288 U286 2.458 . S
O288 C289 1.286 . S
C289 U286 2.984 . S
C289 O287 1.353 . S
C289 O288 1.286 . S
C289 C291 1.363 . S
C290 C280 1.465 . S
C290 U286 2.847 . S
C290 O304 1.249 . S
C290 O305 1.202 . S
C291 C289 1.363 . S
C291 C293 1.408 . S
C291 C296 1.342 . S
C292 C293 1.310 . S
C292 C295 1.461 . S
C292 H312 0.932 . S
C293 C291 1.408 . S
C293 C292 1.310 . S
C293 H313 0.930 . S
C294 C295 1.474 . S
C294 C296 1.285 . S
C294 H314 0.929 . S
C295 C292 1.461 . S
C295 C294 1.474 . S
C296 C291 1.342 . S
C296 C294 1.285 . S
C296 H315 0.930 . S
C297 C300 1.424 . S
C297 C302 1.245 . S
C297 C303 1.428 . S
C298 C301 1.260 . S
C298 C302 1.477 . S
C298 H316 0.932 . S
C299 C300 1.384 . S
C299 C301 1.479 . S
C299 H317 0.929 . S
C300 C297 1.424 . S
C300 C299 1.384 . S
C300 H318 0.928 . S
C301 C298 1.260 . S
C301 C299 1.479 . S
C302 C297 1.245 . S
C302 C298 1.477 . S
C302 H319 0.932 . S
C303 U286 2.882 . S
C303 C297 1.428 . S
C303 O306 1.301 . S
C303 O307 1.282 . S
O304 U286 2.441 . S
O304 C290 1.249 . S
O305 U286 2.420 . S
O305 C290 1.202 . S
O306 U286 2.455 . S
O306 C303 1.301 . S
O307 U286 2.449 . S
O307 C303 1.282 . S
H308 C281 0.931 . S
H309 C283 0.929 . S
H310 C284 0.930 . S
H311 C285 0.931 . S
H312 C292 0.932 . S
H313 C293 0.930 . S
H314 C294 0.929 . S
H315 C296 0.930 . S
H316 C298 0.932 . S
H317 C299 0.929 . S
H318 C300 0.928 . S
H319 C302 0.932 . S
Zn320 O326 1.920 1_455 S
Zn320 O332 1.898 . S
Zn320 O335 1.905 . S
Zn321 O329 1.905 1_655 S
Zn321 O330 1.898 . S
Zn321 O338 1.920 . S
Zn322 O325 2.080 1_455 S
Zn322 O328 2.114 . S
Zn322 O331 2.120 1_455 S
Zn322 O333 2.120 . S
Zn322 O334 2.114 . S
Zn322 O337 2.080 1_455 S
C323 O328 1.166 . S
C323 O329 1.182 . S
C324 O330 1.167 . S
C324 O331 1.299 . S
O325 Zn322 2.080 1_655 S
O325 C339 1.305 . S
O326 Zn320 1.920 1_655 S
O326 C339 1.234 . S
C327 O332 1.167 . S
C327 O333 1.299 . S
O328 Zn322 2.114 . S
O328 C323 1.166 . S
O329 Zn321 1.905 1_455 S
O329 C323 1.182 . S
O330 Zn321 1.898 . S
O330 C324 1.167 . S
O331 Zn322 2.120 1_655 S
O331 C324 1.299 . S
O332 Zn320 1.898 . S
O332 C327 1.167 . S
O333 Zn322 2.120 . S
O333 C327 1.299 . S
O334 Zn322 2.114 . S
O334 C336 1.166 . S
O335 Zn320 1.905 . S
O335 C336 1.182 . S
C336 O334 1.166 . S
C336 O335 1.182 . S
O337 Zn322 2.080 1_655 S
O337 C340 1.305 . S
O338 Zn321 1.920 . S
O338 C340 1.234 . S
C339 O325 1.305 . S
C339 O326 1.234 . S
C340 O337 1.305 . S
C340 O338 1.234 . S
Zn341 O347 1.920 . S
Zn341 O353 1.898 . S
Zn341 O356 1.905 . S
Zn342 O350 1.905 . S
Zn342 O351 1.898 . S
Zn342 O359 1.920 . S
Zn343 O346 2.080 . S
Zn343 O349 2.114 . S
Zn343 O352 2.120 . S
Zn343 O354 2.120 . S
Zn343 O355 2.114 . S
Zn343 O358 2.080 . S
C344 O349 1.166 . S
C344 O350 1.182 . S
C345 O351 1.167 . S
C345 O352 1.299 . S
O346 Zn343 2.080 . S
O346 C360 1.305 . S
O347 Zn341 1.920 . S
O347 C360 1.234 . S
C348 O353 1.167 . S
C348 O354 1.299 . S
O349 Zn343 2.114 . S
O349 C344 1.166 . S
O350 Zn342 1.905 . S
O350 C344 1.182 . S
O351 Zn342 1.898 . S
O351 C345 1.167 . S
O352 Zn343 2.120 . S
O352 C345 1.299 . S
O353 Zn341 1.898 . S
O353 C348 1.167 . S
O354 Zn343 2.120 . S
O354 C348 1.299 . S
O355 Zn343 2.114 . S
O355 C357 1.166 . S
O356 Zn341 1.905 . S
O356 C357 1.182 . S
C357 O355 1.166 . S
C357 O356 1.182 . S
O358 Zn343 2.080 . S
O358 C361 1.305 . S
O359 Zn342 1.920 . S
O359 C361 1.234 . S
C360 O346 1.305 . S
C360 O347 1.234 . S
C361 O358 1.305 . S
C361 O359 1.234 . S
Zn362 O368 1.920 . S
Zn362 O374 1.898 . S
Zn362 O377 1.905 . S
Zn363 O371 1.905 . S
Zn363 O372 1.898 . S
Zn363 O380 1.920 1_655 S
Zn364 O367 2.080 . S
Zn364 O370 2.114 1_455 S
Zn364 O373 2.120 1_455 S
Zn364 O375 2.120 . S
Zn364 O376 2.114 1_455 S
Zn364 O379 2.080 . S
C365 O370 1.166 . S
C365 O371 1.182 . S
C366 O372 1.167 . S
C366 O373 1.299 . S
O367 Zn364 2.080 . S
O367 C381 1.305 . S
O368 Zn362 1.920 . S
O368 C381 1.234 . S
C369 O374 1.167 . S
C369 O375 1.299 . S
O370 Zn364 2.114 1_655 S
O370 C365 1.166 . S
O371 Zn363 1.905 . S
O371 C365 1.182 . S
O372 Zn363 1.898 . S
O372 C366 1.167 . S
O373 Zn364 2.120 1_655 S
O373 C366 1.299 . S
O374 Zn362 1.898 . S
O374 C369 1.167 . S
O375 Zn364 2.120 . S
O375 C369 1.299 . S
O376 Zn364 2.114 1_655 S
O376 C378 1.166 . S
O377 Zn362 1.905 . S
O377 C378 1.182 1_455 S
C378 O376 1.166 . S
C378 O377 1.182 1_655 S
O379 Zn364 2.080 . S
O379 C382 1.305 . S
O380 Zn363 1.920 1_455 S
O380 C382 1.234 . S
C381 O367 1.305 . S
C381 O368 1.234 . S
C382 O379 1.305 . S
C382 O380 1.234 . S
Zn383 O389 1.920 . S
Zn383 O395 1.898 . S
Zn383 O398 1.905 . S
Zn384 O392 1.905 . S
Zn384 O393 1.898 . S
Zn384 O401 1.920 . S
Zn385 O388 2.080 . S
Zn385 O391 2.114 . S
Zn385 O394 2.120 . S
Zn385 O396 2.120 . S
Zn385 O397 2.114 . S
Zn385 O400 2.080 . S
C386 O391 1.166 . S
C386 O392 1.182 . S
C387 O393 1.167 . S
C387 O394 1.299 . S
O388 Zn385 2.080 . S
O388 C402 1.305 . S
O389 Zn383 1.920 . S
O389 C402 1.234 . S
C390 O395 1.167 . S
C390 O396 1.299 . S
O391 Zn385 2.114 . S
O391 C386 1.166 . S
O392 Zn384 1.905 . S
O392 C386 1.182 . S
O393 Zn384 1.898 . S
O393 C387 1.167 . S
O394 Zn385 2.120 . S
O394 C387 1.299 . S
O395 Zn383 1.898 . S
O395 C390 1.167 . S
O396 Zn385 2.120 . S
O396 C390 1.299 . S
O397 Zn385 2.114 . S
O397 C399 1.166 . S
O398 Zn383 1.905 . S
O398 C399 1.182 . S
C399 O397 1.166 . S
C399 O398 1.182 . S
O400 Zn385 2.080 . S
O400 C403 1.305 . S
O401 Zn384 1.920 . S
O401 C403 1.234 . S
C402 O388 1.305 . S
C402 O389 1.234 . S
C403 O400 1.305 . S
C403 O401 1.234 . S
H404 C412 0.950 . S
H405 C417 0.950 . S
H406 C414 0.950 . S
H407 C416 0.953 . S
H408 C418 0.950 . S
H409 C420 0.950 . S
H410 C422 0.950 . S
H411 C423 0.950 . S
C412 H404 0.950 . S
C412 C413 1.386 . S
C412 C414 1.391 1_565 S
C413 C412 1.386 . S
C413 C417 1.393 . S
C414 H406 0.950 . S
C414 C412 1.391 1_545 S
C414 C415 1.400 . S
C415 C414 1.400 . S
C415 C416 1.398 1_545 S
C415 C421 1.491 . S
C416 H407 0.953 . S
C416 C415 1.398 1_565 S
C416 C417 1.391 . S
C417 H405 0.950 . S
C417 C413 1.393 . S
C417 C416 1.391 . S
C418 H408 0.950 . S
C418 C419 1.386 . S
C418 C420 1.391 . S
C419 C418 1.386 . S
C419 C423 1.393 . S
C420 H409 0.950 . S
C420 C418 1.391 . S
C420 C421 1.400 . S
C421 C415 1.491 . S
C421 C420 1.400 . S
C421 C422 1.398 . S
C422 H410 0.950 . S
C422 C421 1.398 . S
C422 C423 1.391 . S
C423 H411 0.950 . S
C423 C419 1.393 . S
C423 C422 1.391 . S
H424 C432 0.950 . S
H425 C437 0.950 . S
H426 C434 0.950 . S
H427 C436 0.950 . S
H428 C438 0.950 . S
H429 C440 0.950 . S
H430 C442 0.950 . S
H431 C443 0.950 . S
C432 H424 0.950 . S
C432 C433 1.386 . S
C432 C434 1.391 . S
C433 C432 1.386 . S
C433 C437 1.393 . S
C434 H426 0.950 . S
C434 C432 1.391 . S
C434 C435 1.400 . S
C435 C434 1.400 . S
C435 C436 1.398 . S
C435 C441 1.491 . S
C436 H427 0.950 . S
C436 C435 1.398 . S
C436 C437 1.391 . S
C437 H425 0.950 . S
C437 C433 1.393 . S
C437 C436 1.391 . S
C438 H428 0.950 . S
C438 C439 1.386 . S
C438 C440 1.391 . S
C439 C438 1.386 . S
C439 C443 1.393 . S
C440 H429 0.950 . S
C440 C438 1.391 . S
C440 C441 1.400 . S
C441 C435 1.491 . S
C441 C440 1.400 . S
C441 C442 1.398 . S
C442 H430 0.950 . S
C442 C441 1.398 . S
C442 C443 1.391 . S
C443 H431 0.950 . S
C443 C439 1.393 . S
C443 C442 1.391 . S
H444 C452 0.950 . S
H445 C457 0.950 . S
H446 C454 0.950 . S
H447 C456 0.950 . S
H448 C458 0.950 . S
H449 C460 0.950 . S
H450 C462 0.950 . S
H451 C463 0.950 . S
C452 H444 0.950 . S
C452 C453 1.386 . S
C452 C454 1.391 . S
C453 C452 1.386 . S
C453 C457 1.393 . S
C454 H446 0.950 . S
C454 C452 1.391 . S
C454 C455 1.400 . S
C455 C454 1.400 . S
C455 C456 1.398 . S
C455 C461 1.491 . S
C456 H447 0.950 . S
C456 C455 1.398 . S
C456 C457 1.391 . S
C457 H445 0.950 . S
C457 C453 1.393 . S
C457 C456 1.391 . S
C458 H448 0.950 . S
C458 C459 1.386 . S
C458 C460 1.391 . S
C459 C458 1.386 . S
C459 C463 1.393 . S
C460 H449 0.950 . S
C460 C458 1.391 . S
C460 C461 1.400 . S
C461 C455 1.491 . S
C461 C460 1.400 . S
C461 C462 1.398 . S
C462 H450 0.950 . S
C462 C461 1.398 . S
C462 C463 1.391 . S
C463 H451 0.950 . S
C463 C459 1.393 . S
C463 C462 1.391 . S
H464 C472 0.950 . S
H465 C477 0.950 . S
H466 C474 0.950 . S
H467 C476 0.950 . S
H468 C478 0.950 . S
H469 C480 0.950 . S
H470 C482 0.950 . S
H471 C483 0.950 . S
C472 H464 0.950 . S
C472 C473 1.386 . S
C472 C474 1.391 . S
C473 C472 1.386 . S
C473 C477 1.393 . S
C474 H466 0.950 . S
C474 C472 1.391 . S
C474 C475 1.400 1_565 S
C475 C474 1.400 1_545 S
C475 C476 1.398 . S
C475 C481 1.491 . S
C476 H467 0.950 . S
C476 C475 1.398 . S
C476 C477 1.391 1_545 S
C477 H465 0.950 . S
C477 C473 1.393 . S
C477 C476 1.391 1_565 S
C478 H468 0.950 . S
C478 C479 1.386 . S
C478 C480 1.391 . S
C479 C478 1.386 . S
C479 C483 1.393 . S
C480 H469 0.950 . S
C480 C478 1.391 . S
C480 C481 1.400 . S
C481 C475 1.491 . S
C481 C480 1.400 . S
C481 C482 1.398 . S
C482 H470 0.950 . S
C482 C481 1.398 . S
C482 C483 1.391 . S
C483 H471 0.950 . S
C483 C479 1.393 . S
C483 C482 1.391 . S
H484 C492 0.950 . S
H485 C497 0.950 . S
H486 C494 0.950 . S
H487 C496 0.950 . S
H488 C498 0.950 . S
H489 C500 0.950 . S
H490 C502 0.950 . S
H491 C503 0.920 1_455 S
C492 H484 0.950 . S
C492 C493 1.386 . S
C492 C494 1.391 . S
C493 C492 1.386 . S
C493 C497 1.393 . S
C494 H486 0.950 . S
C494 C492 1.391 . S
C494 C495 1.400 1_545 S
C495 C494 1.400 1_565 S
C495 C496 1.398 . S
C495 C501 1.491 . S
C496 H487 0.950 . S
C496 C495 1.398 . S
C496 C497 1.391 1_565 S
C497 H485 0.950 . S
C497 C493 1.393 . S
C497 C496 1.391 1_545 S
C498 H488 0.950 . S
C498 C499 1.386 . S
C498 C500 1.391 . S
C499 C498 1.386 . S
C499 C503 1.393 . S
C500 H489 0.950 . S
C500 C498 1.391 . S
C500 C501 1.400 . S
C501 C495 1.491 . S
C501 C500 1.400 . S
C501 C502 1.398 . S
C502 H490 0.950 . S
C502 C501 1.398 . S
C502 C503 1.391 . S
C503 H491 0.920 1_655 S
C503 C499 1.393 . S
C503 C502 1.391 . S
H504 C512 0.950 . S
H505 C517 0.950 . S
H506 C514 0.950 . S
H507 C516 0.950 . S
H508 C518 0.950 . S
H509 C520 0.950 . S
H510 C522 0.950 . S
H511 C523 0.950 . S
C512 H504 0.950 . S
C512 C513 1.386 . S
C512 C514 1.391 . S
C513 C512 1.386 . S
C513 C517 1.393 . S
C514 H506 0.950 . S
C514 C512 1.391 . S
C514 C515 1.400 . S
C515 C514 1.400 . S
C515 C516 1.398 . S
C515 C521 1.491 . S
C516 H507 0.950 . S
C516 C515 1.398 . S
C516 C517 1.391 . S
C517 H505 0.950 . S
C517 C513 1.393 . S
C517 C516 1.391 . S
C518 H508 0.950 . S
C518 C519 1.386 . S
C518 C520 1.391 . S
C519 C518 1.386 . S
C519 C523 1.393 . S
C520 H509 0.950 . S
C520 C518 1.391 . S
C520 C521 1.400 . S
C521 C515 1.491 . S
C521 C520 1.400 . S
C521 C522 1.398 . S
C522 H510 0.950 . S
C522 C521 1.398 . S
C522 C523 1.391 . S
C523 H511 0.950 . S
C523 C519 1.393 . S
C523 C522 1.391 . S
H524 C532 0.950 . S
H525 C537 0.950 . S
H526 C534 0.950 . S
H527 C536 0.950 . S
H528 C538 0.950 . S
H529 C540 0.950 . S
H530 C542 0.950 . S
H531 C543 0.950 . S
C532 H524 0.950 . S
C532 C533 1.386 . S
C532 C534 1.391 . S
C533 C532 1.386 . S
C533 C537 1.393 . S
C534 H526 0.950 . S
C534 C532 1.391 . S
C534 C535 1.400 . S
C535 C534 1.400 . S
C535 C536 1.398 . S
C535 C541 1.491 . S
C536 H527 0.950 . S
C536 C535 1.398 . S
C536 C537 1.391 . S
C537 H525 0.950 . S
C537 C533 1.393 . S
C537 C536 1.391 . S
C538 H528 0.950 . S
C538 C539 1.386 . S
C538 C540 1.391 . S
C539 C538 1.386 . S
C539 C543 1.393 . S
C540 H529 0.950 . S
C540 C538 1.391 . S
C540 C541 1.400 . S
C541 C535 1.491 . S
C541 C540 1.400 . S
C541 C542 1.398 . S
C542 H530 0.950 . S
C542 C541 1.398 . S
C542 C543 1.391 . S
C543 H531 0.950 . S
C543 C539 1.393 . S
C543 C542 1.391 . S
H544 C552 0.950 . S
H545 C557 0.950 . S
H546 C554 0.950 . S
H547 C556 0.950 . S
H548 C558 0.950 . S
H549 C560 0.950 . S
H550 C562 0.950 . S
H551 C563 0.950 . S
C552 H544 0.950 . S
C552 C553 1.386 . S
C552 C554 1.391 . S
C553 C552 1.386 . S
C553 C557 1.393 . S
C554 H546 0.950 . S
C554 C552 1.391 . S
C554 C555 1.400 1_545 S
C555 C554 1.400 1_565 S
C555 C556 1.398 . S
C555 C561 1.491 . S
C556 H547 0.950 . S
C556 C555 1.398 . S
C556 C557 1.391 1_565 S
C557 H545 0.950 . S
C557 C553 1.393 . S
C557 C556 1.391 1_545 S
C558 H548 0.950 . S
C558 C559 1.386 . S
C558 C560 1.391 . S
C559 C558 1.386 . S
C559 C563 1.393 . S
C560 H549 0.950 . S
C560 C558 1.391 . S
C560 C561 1.400 . S
C561 C555 1.491 . S
C561 C560 1.400 . S
C561 C562 1.398 . S
C562 H550 0.950 . S
C562 C561 1.398 . S
C562 C563 1.391 . S
C563 H551 0.950 . S
C563 C559 1.393 . S
C563 C562 1.391 . S
H564 C572 0.950 . S
H565 C577 0.950 . S
H566 C574 0.950 . S
H567 C576 0.950 . S
H568 C578 0.950 . S
H569 C580 0.950 . S
H570 C582 0.950 . S
H571 C583 0.950 . S
C572 H564 0.950 . S
C572 C573 1.386 . S
C572 C574 1.391 . S
C573 C572 1.386 . S
C573 C577 1.393 . S
C574 H566 0.950 . S
C574 C572 1.391 . S
C574 C575 1.400 . S
C575 C574 1.400 . S
C575 C576 1.398 . S
C575 C581 1.491 . S
C576 H567 0.950 . S
C576 C575 1.398 . S
C576 C577 1.391 . S
C577 H565 0.950 . S
C577 C573 1.393 . S
C577 C576 1.391 . S
C578 H568 0.950 . S
C578 C579 1.386 . S
C578 C580 1.391 . S
C579 C578 1.386 . S
C579 C583 1.393 . S
C580 H569 0.950 . S
C580 C578 1.391 . S
C580 C581 1.400 . S
C581 C575 1.491 . S
C581 C580 1.400 . S
C581 C582 1.398 . S
C582 H570 0.950 . S
C582 C581 1.398 . S
C582 C583 1.391 . S
C583 H571 0.950 . S
C583 C579 1.393 . S
C583 C582 1.391 . S
H584 C592 0.950 . S
H585 C597 0.950 . S
H586 C594 0.950 . S
H587 C596 0.950 . S
H588 C598 0.950 . S
H589 C600 0.950 . S
H590 C602 0.950 . S
H591 C603 0.950 . S
C592 H584 0.950 . S
C592 C593 1.386 . S
C592 C594 1.391 . S
C593 C592 1.386 . S
C593 C597 1.393 . S
C594 H586 0.950 . S
C594 C592 1.391 . S
C594 C595 1.400 . S
C595 C594 1.400 . S
C595 C596 1.398 . S
C595 C601 1.491 . S
C596 H587 0.950 . S
C596 C595 1.398 . S
C596 C597 1.391 . S
C597 H585 0.950 . S
C597 C593 1.393 . S
C597 C596 1.391 . S
C598 H588 0.950 . S
C598 C599 1.386 . S
C598 C600 1.391 . S
C599 C598 1.386 . S
C599 C603 1.393 . S
C600 H589 0.950 . S
C600 C598 1.391 . S
C600 C601 1.400 . S
C601 C595 1.491 . S
C601 C600 1.400 . S
C601 C602 1.398 . S
C602 H590 0.950 . S
C602 C601 1.398 . S
C602 C603 1.391 . S
C603 H591 0.950 . S
C603 C599 1.393 . S
C603 C602 1.391 . S
H604 C612 0.950 . S
H605 C617 0.950 . S
H606 C614 0.950 . S
H607 C616 0.950 . S
H608 C618 0.950 . S
H609 C620 0.950 . S
H610 C622 0.950 . S
H611 C623 0.950 . S
C612 H604 0.950 . S
C612 C613 1.386 . S
C612 C614 1.391 . S
C613 C612 1.386 . S
C613 C617 1.393 . S
C614 H606 0.950 . S
C614 C612 1.391 . S
C614 C615 1.400 . S
C615 C614 1.400 . S
C615 C616 1.398 . S
C615 C621 1.491 . S
C616 H607 0.950 . S
C616 C615 1.398 . S
C616 C617 1.391 . S
C617 H605 0.950 . S
C617 C613 1.393 . S
C617 C616 1.391 . S
C618 H608 0.950 . S
C618 C619 1.386 . S
C618 C620 1.391 . S
C619 C618 1.386 . S
C619 C623 1.393 . S
C620 H609 0.950 . S
C620 C618 1.391 . S
C620 C621 1.400 . S
C621 C615 1.491 . S
C621 C620 1.400 . S
C621 C622 1.398 . S
C622 H610 0.950 . S
C622 C621 1.398 . S
C622 C623 1.391 . S
C623 H611 0.950 . S
C623 C619 1.393 . S
C623 C622 1.391 . S
H624 C632 0.950 . S
H625 C637 0.950 . S
H626 C634 0.950 . S
H627 C636 0.950 . S
H628 C638 0.950 . S
H629 C640 0.950 . S
H630 C642 0.950 . S
H631 C643 0.950 . S
C632 H624 0.950 . S
C632 C633 1.386 . S
C632 C634 1.391 . S
C633 C632 1.386 . S
C633 C637 1.393 . S
C634 H626 0.950 . S
C634 C632 1.391 . S
C634 C635 1.400 . S
C635 C634 1.400 . S
C635 C636 1.398 . S
C635 C641 1.491 . S
C636 H627 0.950 . S
C636 C635 1.398 . S
C636 C637 1.391 . S
C637 H625 0.950 . S
C637 C633 1.393 . S
C637 C636 1.391 . S
C638 H628 0.950 . S
C638 C639 1.386 . S
C638 C640 1.391 . S
C639 C638 1.386 . S
C639 C643 1.393 . S
C640 H629 0.950 . S
C640 C638 1.391 . S
C640 C641 1.400 . S
C641 C635 1.491 . S
C641 C640 1.400 . S
C641 C642 1.398 . S
C642 H630 0.950 . S
C642 C641 1.398 . S
C642 C643 1.391 . S
C643 H631 0.950 . S
C643 C639 1.393 . S
C643 C642 1.391 . S
H644 C652 0.950 . S
H645 C657 0.950 . S
H646 C654 0.950 . S
H647 C656 0.950 . S
H648 C658 0.950 . S
H649 C660 0.950 . S
H650 C662 0.950 . S
H651 C663 0.950 . S
C652 H644 0.950 . S
C652 C653 1.386 . S
C652 C654 1.391 . S
C653 C652 1.386 . S
C653 C657 1.393 . S
C654 H646 0.950 . S
C654 C652 1.391 . S
C654 C655 1.400 . S
C655 C654 1.400 . S
C655 C656 1.398 . S
C655 C661 1.491 . S
C656 H647 0.950 . S
C656 C655 1.398 . S
C656 C657 1.391 . S
C657 H645 0.950 . S
C657 C653 1.393 . S
C657 C656 1.391 . S
C658 H648 0.950 . S
C658 C659 1.386 . S
C658 C660 1.391 . S
C659 C658 1.386 . S
C659 C663 1.393 . S
C660 H649 0.950 . S
C660 C658 1.391 . S
C660 C661 1.400 . S
C661 C655 1.491 . S
C661 C660 1.400 . S
C661 C662 1.398 . S
C662 H650 0.950 . S
C662 C661 1.398 . S
C662 C663 1.391 . S
C663 H651 0.950 . S
C663 C659 1.393 . S
C663 C662 1.391 . S
H664 C672 0.950 . S
H665 C677 0.950 . S
H666 C674 0.950 . S
H667 C676 0.950 . S
H668 C678 0.950 . S
H669 C680 0.950 . S
H670 C682 0.950 . S
H671 C683 0.950 . S
C672 H664 0.950 . S
C672 C673 1.386 . S
C672 C674 1.391 . S
C673 C672 1.386 . S
C673 C677 1.393 . S
C674 H666 0.950 . S
C674 C672 1.391 . S
C674 C675 1.400 . S
C675 C674 1.400 . S
C675 C676 1.398 . S
C675 C681 1.491 . S
C676 H667 0.950 . S
C676 C675 1.398 . S
C676 C677 1.391 . S
C677 H665 0.950 . S
C677 C673 1.393 . S
C677 C676 1.391 . S
C678 H668 0.950 . S
C678 C679 1.386 . S
C678 C680 1.391 . S
C679 C678 1.386 . S
C679 C683 1.393 . S
C680 H669 0.950 . S
C680 C678 1.391 . S
C680 C681 1.400 . S
C681 C675 1.491 . S
C681 C680 1.400 . S
C681 C682 1.398 . S
C682 H670 0.950 . S
C682 C681 1.398 . S
C682 C683 1.391 . S
C683 H671 0.950 . S
C683 C679 1.393 . S
C683 C682 1.391 . S
H684 C692 0.950 . S
H685 C697 0.950 . S
H686 C694 0.950 . S
H687 C696 0.950 . S
H688 C698 0.950 . S
H689 C700 0.950 . S
H690 C702 0.950 . S
H691 C703 0.950 . S
C692 H684 0.950 . S
C692 C693 1.386 . S
C692 C694 1.391 . S
C693 C692 1.386 . S
C693 C697 1.393 . S
C694 H686 0.950 . S
C694 C692 1.391 . S
C694 C695 1.400 . S
C695 C694 1.400 . S
C695 C696 1.398 . S
C695 C701 1.491 . S
C696 H687 0.950 . S
C696 C695 1.398 . S
C696 C697 1.391 . S
C697 H685 0.950 . S
C697 C693 1.393 . S
C697 C696 1.391 . S
C698 H688 0.950 . S
C698 C699 1.386 . S
C698 C700 1.391 . S
C699 C698 1.386 . S
C699 C703 1.393 . S
C700 H689 0.950 . S
C700 C698 1.391 . S
C700 C701 1.400 . S
C701 C695 1.491 . S
C701 C700 1.400 . S
C701 C702 1.398 . S
C702 H690 0.950 . S
C702 C701 1.398 . S
C702 C703 1.391 . S
C703 H691 0.950 . S
C703 C699 1.393 . S
C703 C702 1.391 . S
H704 C712 0.950 . S
H705 C717 0.950 . S
H706 C714 0.950 . S
H707 C716 0.950 . S
H708 C718 0.950 . S
H709 C720 0.950 . S
H710 C722 0.950 . S
H711 C723 0.950 . S
C712 H704 0.950 . S
C712 C713 1.386 . S
C712 C714 1.391 . S
C713 C712 1.386 . S
C713 C717 1.393 . S
C714 H706 0.950 . S
C714 C712 1.391 . S
C714 C715 1.400 . S
C715 C714 1.400 . S
C715 C716 1.398 . S
C715 C721 1.491 . S
C716 H707 0.950 . S
C716 C715 1.398 . S
C716 C717 1.391 . S
C717 H705 0.950 . S
C717 C713 1.393 . S
C717 C716 1.391 . S
C718 H708 0.950 . S
C718 C719 1.386 . S
C718 C720 1.391 . S
C719 C718 1.386 . S
C719 C723 1.393 . S
C720 H709 0.950 . S
C720 C718 1.391 . S
C720 C721 1.400 . S
C721 C715 1.491 . S
C721 C720 1.400 . S
C721 C722 1.398 . S
C722 H710 0.950 . S
C722 C721 1.398 . S
C722 C723 1.391 . S
C723 H711 0.950 . S
C723 C719 1.393 . S
C723 C722 1.391 . S
H724 C732 0.950 . S
H725 C737 0.950 . S
H726 C734 0.950 . S
H727 C736 0.950 . S
H728 C738 0.950 . S
H729 C740 0.950 . S
H730 C742 0.950 . S
H731 C743 0.950 . S
C732 H724 0.950 . S
C732 C733 1.386 . S
C732 C734 1.391 . S
C733 C732 1.386 . S
C733 C737 1.393 . S
C734 H726 0.950 . S
C734 C732 1.391 . S
C734 C735 1.400 . S
C735 C734 1.400 . S
C735 C736 1.398 . S
C735 C741 1.491 . S
C736 H727 0.950 . S
C736 C735 1.398 . S
C736 C737 1.391 . S
C737 H725 0.950 . S
C737 C733 1.393 . S
C737 C736 1.391 . S
C738 H728 0.950 . S
C738 C739 1.386 . S
C738 C740 1.391 . S
C739 C738 1.386 . S
C739 C743 1.393 . S
C740 H729 0.950 . S
C740 C738 1.391 . S
C740 C741 1.400 . S
C741 C735 1.491 . S
C741 C740 1.400 . S
C741 C742 1.398 . S
C742 H730 0.950 . S
C742 C741 1.398 . S
C742 C743 1.391 . S
C743 H731 0.950 . S
C743 C739 1.393 . S
C743 C742 1.391 . S
H744 C752 0.950 . S
H745 C757 0.950 . S
H746 C754 0.950 . S
H747 C756 0.950 . S
H748 C758 0.950 . S
H749 C760 0.950 . S
H750 C762 0.950 . S
H751 C763 0.950 . S
C752 H744 0.950 . S
C752 C753 1.386 . S
C752 C754 1.391 . S
C753 C752 1.386 . S
C753 C757 1.393 . S
C754 H746 0.950 . S
C754 C752 1.391 . S
C754 C755 1.400 . S
C755 C754 1.400 . S
C755 C756 1.398 . S
C755 C761 1.491 . S
C756 H747 0.950 . S
C756 C755 1.398 . S
C756 C757 1.391 . S
C757 H745 0.950 . S
C757 C753 1.393 . S
C757 C756 1.391 . S
C758 H748 0.950 . S
C758 C759 1.386 . S
C758 C760 1.391 . S
C759 C758 1.386 . S
C759 C763 1.393 . S
C760 H749 0.950 . S
C760 C758 1.391 . S
C760 C761 1.400 . S
C761 C755 1.491 . S
C761 C760 1.400 . S
C761 C762 1.398 . S
C762 H750 0.950 . S
C762 C761 1.398 . S
C762 C763 1.391 . S
C763 H751 0.950 . S
C763 C759 1.393 . S
C763 C762 1.391 . S
H764 C772 0.950 . S
H765 C777 0.950 . S
H766 C774 0.950 . S
H767 C776 0.950 . S
H768 C778 0.950 . S
H769 C780 0.950 . S
H770 C782 0.950 . S
H771 C783 0.950 . S
C772 H764 0.950 . S
C772 C773 1.386 . S
C772 C774 1.391 . S
C773 C772 1.386 . S
C773 C777 1.393 . S
C774 H766 0.950 . S
C774 C772 1.391 . S
C774 C775 1.400 . S
C775 C774 1.400 . S
C775 C776 1.398 . S
C775 C781 1.491 . S
C776 H767 0.950 . S
C776 C775 1.398 . S
C776 C777 1.391 . S
C777 H765 0.950 . S
C777 C773 1.393 . S
C777 C776 1.391 . S
C778 H768 0.950 . S
C778 C779 1.386 . S
C778 C780 1.391 . S
C779 C778 1.386 . S
C779 C783 1.393 . S
C780 H769 0.950 . S
C780 C778 1.391 . S
C780 C781 1.400 . S
C781 C775 1.491 . S
C781 C780 1.400 . S
C781 C782 1.398 . S
C782 H770 0.950 . S
C782 C781 1.398 . S
C782 C783 1.391 . S
C783 H771 0.950 . S
C783 C779 1.393 . S
C783 C782 1.391 . S
H784 C792 0.950 . S
H785 C797 0.950 . S
H786 C794 0.950 . S
H787 C796 0.950 . S
H788 C798 0.950 . S
H789 C800 0.950 . S
H790 C802 0.950 . S
H791 C803 0.950 . S
C792 H784 0.950 . S
C792 C793 1.386 . S
C792 C794 1.391 . S
C793 C792 1.386 . S
C793 C797 1.393 . S
C794 H786 0.950 . S
C794 C792 1.391 . S
C794 C795 1.400 . S
C795 C794 1.400 . S
C795 C796 1.398 . S
C795 C801 1.491 . S
C796 H787 0.950 . S
C796 C795 1.398 . S
C796 C797 1.391 . S
C797 H785 0.950 . S
C797 C793 1.393 . S
C797 C796 1.391 . S
C798 H788 0.950 . S
C798 C799 1.386 . S
C798 C800 1.391 . S
C799 C798 1.386 . S
C799 C803 1.393 . S
C800 H789 0.950 . S
C800 C798 1.391 . S
C800 C801 1.400 . S
C801 C795 1.491 . S
C801 C800 1.400 . S
C801 C802 1.398 . S
C802 H790 0.950 . S
C802 C801 1.398 . S
C802 C803 1.391 . S
C803 H791 0.950 . S
C803 C799 1.393 . S
C803 C802 1.391 . S
H804 C812 0.950 . S
H805 C817 0.950 . S
H806 C814 0.950 . S
H807 C816 0.950 . S
H808 C818 0.950 . S
H809 C820 0.950 . S
H810 C822 0.950 . S
H811 C823 0.950 . S
C812 H804 0.950 . S
C812 C813 1.386 . S
C812 C814 1.391 . S
C813 C812 1.386 . S
C813 C817 1.393 . S
C814 H806 0.950 . S
C814 C812 1.391 . S
C814 C815 1.400 . S
C815 C814 1.400 . S
C815 C816 1.398 . S
C815 C821 1.491 . S
C816 H807 0.950 . S
C816 C815 1.398 . S
C816 C817 1.391 . S
C817 H805 0.950 . S
C817 C813 1.393 . S
C817 C816 1.391 . S
C818 H808 0.950 . S
C818 C819 1.386 . S
C818 C820 1.391 . S
C819 C818 1.386 . S
C819 C823 1.393 . S
C820 H809 0.950 . S
C820 C818 1.391 . S
C820 C821 1.400 . S
C821 C815 1.491 . S
C821 C820 1.400 . S
C821 C822 1.398 . S
C822 H810 0.950 . S
C822 C821 1.398 . S
C822 C823 1.391 . S
C823 H811 0.950 . S
C823 C819 1.393 . S
C823 C822 1.391 . S
H824 C832 0.950 . S
H825 C837 0.950 . S
H826 C834 0.950 . S
H827 C836 0.950 . S
H828 C838 0.950 . S
H829 C840 0.950 . S
H830 C842 0.950 . S
H831 C843 0.950 . S
C832 H824 0.950 . S
C832 C833 1.386 . S
C832 C834 1.391 . S
C833 C832 1.386 . S
C833 C837 1.393 . S
C834 H826 0.950 . S
C834 C832 1.391 . S
C834 C835 1.400 . S
C835 C834 1.400 . S
C835 C836 1.398 . S
C835 C841 1.491 . S
C836 H827 0.950 . S
C836 C835 1.398 . S
C836 C837 1.391 . S
C837 H825 0.950 . S
C837 C833 1.393 . S
C837 C836 1.391 . S
C838 H828 0.950 . S
C838 C839 1.386 . S
C838 C840 1.391 . S
C839 C838 1.386 . S
C839 C843 1.393 . S
C840 H829 0.950 . S
C840 C838 1.391 . S
C840 C841 1.400 . S
C841 C835 1.491 . S
C841 C840 1.400 . S
C841 C842 1.398 . S
C842 H830 0.950 . S
C842 C841 1.398 . S
C842 C843 1.391 . S
C843 H831 0.950 . S
C843 C839 1.393 . S
C843 C842 1.391 . S
H844 C852 0.950 . S
H845 C857 0.950 . S
H846 C854 0.950 . S
H847 C856 0.950 . S
H848 C858 0.950 . S
H849 C860 0.950 . S
H850 C862 0.950 . S
H851 C863 0.950 . S
C852 H844 0.950 . S
C852 C853 1.386 . S
C852 C854 1.391 . S
C853 C852 1.386 . S
C853 C857 1.393 . S
C854 H846 0.950 . S
C854 C852 1.391 . S
C854 C855 1.400 . S
C855 C854 1.400 . S
C855 C856 1.398 . S
C855 C861 1.491 . S
C856 H847 0.950 . S
C856 C855 1.398 . S
C856 C857 1.391 . S
C857 H845 0.950 . S
C857 C853 1.393 . S
C857 C856 1.391 . S
C858 H848 0.950 . S
C858 C859 1.386 . S
C858 C860 1.391 . S
C859 C858 1.386 . S
C859 C863 1.393 . S
C860 H849 0.950 . S
C860 C858 1.391 . S
C860 C861 1.400 . S
C861 C855 1.491 . S
C861 C860 1.400 . S
C861 C862 1.398 . S
C862 H850 0.950 . S
C862 C861 1.398 . S
C862 C863 1.391 . S
C863 H851 0.950 . S
C863 C859 1.393 . S
C863 C862 1.391 . S
H864 C872 0.950 . S
H865 C877 0.950 . S
H866 C874 0.950 . S
H867 C876 0.950 . S
H868 C878 0.950 . S
H869 C880 0.950 . S
H870 C882 0.950 . S
H871 C883 0.950 . S
C872 H864 0.950 . S
C872 C873 1.386 . S
C872 C874 1.391 . S
C873 C872 1.386 . S
C873 C877 1.393 . S
C874 H866 0.950 . S
C874 C872 1.391 . S
C874 C875 1.400 . S
C875 C874 1.400 . S
C875 C876 1.398 . S
C875 C881 1.491 . S
C876 H867 0.950 . S
C876 C875 1.398 . S
C876 C877 1.391 . S
C877 H865 0.950 . S
C877 C873 1.393 . S
C877 C876 1.391 . S
C878 H868 0.950 . S
C878 C879 1.386 . S
C878 C880 1.391 . S
C879 C878 1.386 . S
C879 C883 1.393 . S
C880 H869 0.950 . S
C880 C878 1.391 . S
C880 C881 1.400 . S
C881 C875 1.491 . S
C881 C880 1.400 . S
C881 C882 1.398 . S
C882 H870 0.950 . S
C882 C881 1.398 . S
C882 C883 1.391 . S
C883 H871 0.950 . S
C883 C879 1.393 . S
C883 C882 1.391 . S
C413 C242 1.429 . S
C419 C336 1.357 . S
C439 C344 1.428 . S
C433 C301 1.409 . S
C459 C348 1.368 . S
C453 C162 1.416 . S
C473 C221 1.410 . S
C479 C324 1.392 . S
C499 C365 1.360 . S
C493 C82 1.418 . S
C519 C399 1.429 . S
C513 C141 1.447 . S
C533 C2 1.404 . S
C539 C387 1.336 . S
C553 C61 1.451 . S
C559 C369 1.397 . S
C579 C323 1.322 . S
C573 C42 1.463 . S
C599 C357 1.291 . S
C593 C21 1.428 . S
C619 C361 1.305 . S
C613 C122 1.465 . S
C639 C339 1.336 . S
C633 C101 1.428 . S
C659 C378 1.292 . S
C653 C202 1.442 . S
C673 C181 1.437 . S
C679 C386 1.334 . S
C699 C402 1.303 . S
C693 C282 1.451 . S
C713 C261 1.453 . S
C719 C382 1.298 . S
C739 C327 1.332 . S
C733 C15 1.501 . S
C759 C345 1.317 . S
C753 C55 1.510 . S
C773 C95 1.486 . S
C779 C360 1.317 . S
C799 C340 1.307 . S
C793 C135 1.489 . S
C819 C366 1.300 . S
C813 C175 1.502 . S
C833 C215 1.501 . S
C839 C390 1.320 . S
C853 C255 1.491 . S
C859 C403 1.299 . S
C873 C295 1.492 . S
C879 C381 1.299 . S
