# Generated by pormake.
# Topology ctn, (3,4)-cn, num edge types: 1
# Building blocks:
#     Node 0, Type 0, BuildingBlock: WUSLED_clean_sbu_0, # of connection points: 3
#     Node 1, Type 0, BuildingBlock: WUSLED_clean_sbu_0, # of connection points: 3
#     Node 2, Type 0, BuildingBlock: WUSLED_clean_sbu_0, # of connection points: 3
#     Node 3, Type 0, BuildingBlock: WUSLED_clean_sbu_0, # of connection points: 3
#     Node 4, Type 0, BuildingBlock: WUSLED_clean_sbu_0, # of connection points: 3
#     Node 5, Type 0, BuildingBlock: WUSLED_clean_sbu_0, # of connection points: 3
#     Node 6, Type 0, BuildingBlock: WUSLED_clean_sbu_0, # of connection points: 3
#     Node 7, Type 0, BuildingBlock: WUSLED_clean_sbu_0, # of connection points: 3
#     Node 8, Type 0, BuildingBlock: WUSLED_clean_sbu_0, # of connection points: 3
#     Node 9, Type 0, BuildingBlock: WUSLED_clean_sbu_0, # of connection points: 3
#     Node 10, Type 0, BuildingBlock: WUSLED_clean_sbu_0, # of connection points: 3
#     Node 11, Type 0, BuildingBlock: WUSLED_clean_sbu_0, # of connection points: 3
#     Node 12, Type 0, BuildingBlock: WUSLED_clean_sbu_0, # of connection points: 3
#     Node 13, Type 0, BuildingBlock: WUSLED_clean_sbu_0, # of connection points: 3
#     Node 14, Type 0, BuildingBlock: WUSLED_clean_sbu_0, # of connection points: 3
#     Node 15, Type 0, BuildingBlock: WUSLED_clean_sbu_0, # of connection points: 3
#     Node 16, Type 1, BuildingBlock: KUFVIS_clean_sbu_0, # of connection points: 4
#     Node 17, Type 1, BuildingBlock: KUFVIS_clean_sbu_0, # of connection points: 4
#     Node 18, Type 1, BuildingBlock: KUFVIS_clean_sbu_0, # of connection points: 4
#     Node 19, Type 1, BuildingBlock: KUFVIS_clean_sbu_0, # of connection points: 4
#     Node 20, Type 1, BuildingBlock: KUFVIS_clean_sbu_0, # of connection points: 4
#     Node 21, Type 1, BuildingBlock: KUFVIS_clean_sbu_0, # of connection points: 4
#     Node 22, Type 1, BuildingBlock: KUFVIS_clean_sbu_0, # of connection points: 4
#     Node 23, Type 1, BuildingBlock: KUFVIS_clean_sbu_0, # of connection points: 4
#     Node 24, Type 1, BuildingBlock: KUFVIS_clean_sbu_0, # of connection points: 4
#     Node 25, Type 1, BuildingBlock: KUFVIS_clean_sbu_0, # of connection points: 4
#     Node 26, Type 1, BuildingBlock: KUFVIS_clean_sbu_0, # of connection points: 4
#     Node 27, Type 1, BuildingBlock: KUFVIS_clean_sbu_0, # of connection points: 4
#     Edge 28, Type (0, 1), BuildingBlock: UVAHIK_clean_linker_0, # of connection points: 2
#     Edge 29, Type (0, 1), BuildingBlock: UVAHIK_clean_linker_0, # of connection points: 2
#     Edge 30, Type (0, 1), BuildingBlock: UVAHIK_clean_linker_0, # of connection points: 2
#     Edge 31, Type (0, 1), BuildingBlock: UVAHIK_clean_linker_0, # of connection points: 2
#     Edge 32, Type (0, 1), BuildingBlock: UVAHIK_clean_linker_0, # of connection points: 2
#     Edge 33, Type (0, 1), BuildingBlock: UVAHIK_clean_linker_0, # of connection points: 2
#     Edge 34, Type (0, 1), BuildingBlock: UVAHIK_clean_linker_0, # of connection points: 2
#     Edge 35, Type (0, 1), BuildingBlock: UVAHIK_clean_linker_0, # of connection points: 2
#     Edge 36, Type (0, 1), BuildingBlock: UVAHIK_clean_linker_0, # of connection points: 2
#     Edge 37, Type (0, 1), BuildingBlock: UVAHIK_clean_linker_0, # of connection points: 2
#     Edge 38, Type (0, 1), BuildingBlock: UVAHIK_clean_linker_0, # of connection points: 2
#     Edge 39, Type (0, 1), BuildingBlock: UVAHIK_clean_linker_0, # of connection points: 2
#     Edge 40, Type (0, 1), BuildingBlock: UVAHIK_clean_linker_0, # of connection points: 2
#     Edge 41, Type (0, 1), BuildingBlock: UVAHIK_clean_linker_0, # of connection points: 2
#     Edge 42, Type (0, 1), BuildingBlock: UVAHIK_clean_linker_0, # of connection points: 2
#     Edge 43, Type (0, 1), BuildingBlock: UVAHIK_clean_linker_0, # of connection points: 2
#     Edge 44, Type (0, 1), BuildingBlock: UVAHIK_clean_linker_0, # of connection points: 2
#     Edge 45, Type (0, 1), BuildingBlock: UVAHIK_clean_linker_0, # of connection points: 2
#     Edge 46, Type (0, 1), BuildingBlock: UVAHIK_clean_linker_0, # of connection points: 2
#     Edge 47, Type (0, 1), BuildingBlock: UVAHIK_clean_linker_0, # of connection points: 2
#     Edge 48, Type (0, 1), BuildingBlock: UVAHIK_clean_linker_0, # of connection points: 2
#     Edge 49, Type (0, 1), BuildingBlock: UVAHIK_clean_linker_0, # of connection points: 2
#     Edge 50, Type (0, 1), BuildingBlock: UVAHIK_clean_linker_0, # of connection points: 2
#     Edge 51, Type (0, 1), BuildingBlock: UVAHIK_clean_linker_0, # of connection points: 2
#     Edge 52, Type (0, 1), BuildingBlock: UVAHIK_clean_linker_0, # of connection points: 2
#     Edge 53, Type (0, 1), BuildingBlock: UVAHIK_clean_linker_0, # of connection points: 2
#     Edge 54, Type (0, 1), BuildingBlock: UVAHIK_clean_linker_0, # of connection points: 2
#     Edge 55, Type (0, 1), BuildingBlock: UVAHIK_clean_linker_0, # of connection points: 2
#     Edge 56, Type (0, 1), BuildingBlock: UVAHIK_clean_linker_0, # of connection points: 2
#     Edge 57, Type (0, 1), BuildingBlock: UVAHIK_clean_linker_0, # of connection points: 2
#     Edge 58, Type (0, 1), BuildingBlock: UVAHIK_clean_linker_0, # of connection points: 2
#     Edge 59, Type (0, 1), BuildingBlock: UVAHIK_clean_linker_0, # of connection points: 2
#     Edge 60, Type (0, 1), BuildingBlock: UVAHIK_clean_linker_0, # of connection points: 2
#     Edge 61, Type (0, 1), BuildingBlock: UVAHIK_clean_linker_0, # of connection points: 2
#     Edge 62, Type (0, 1), BuildingBlock: UVAHIK_clean_linker_0, # of connection points: 2
#     Edge 63, Type (0, 1), BuildingBlock: UVAHIK_clean_linker_0, # of connection points: 2
#     Edge 64, Type (0, 1), BuildingBlock: UVAHIK_clean_linker_0, # of connection points: 2
#     Edge 65, Type (0, 1), BuildingBlock: UVAHIK_clean_linker_0, # of connection points: 2
#     Edge 66, Type (0, 1), BuildingBlock: UVAHIK_clean_linker_0, # of connection points: 2
#     Edge 67, Type (0, 1), BuildingBlock: UVAHIK_clean_linker_0, # of connection points: 2
#     Edge 68, Type (0, 1), BuildingBlock: UVAHIK_clean_linker_0, # of connection points: 2
#     Edge 69, Type (0, 1), BuildingBlock: UVAHIK_clean_linker_0, # of connection points: 2
#     Edge 70, Type (0, 1), BuildingBlock: UVAHIK_clean_linker_0, # of connection points: 2
#     Edge 71, Type (0, 1), BuildingBlock: UVAHIK_clean_linker_0, # of connection points: 2
#     Edge 72, Type (0, 1), BuildingBlock: UVAHIK_clean_linker_0, # of connection points: 2
#     Edge 73, Type (0, 1), BuildingBlock: UVAHIK_clean_linker_0, # of connection points: 2
#     Edge 74, Type (0, 1), BuildingBlock: UVAHIK_clean_linker_0, # of connection points: 2
#     Edge 75, Type (0, 1), BuildingBlock: UVAHIK_clean_linker_0, # of connection points: 2
# Relax obj value: 0.012
# Max RMSD: 0.064
# Mean RMSD: 0.032
data_MOF--net-ctn--node1-WUSLED_clean_sbu_0--node2-KUFVIS_clean_sbu_0--edge1-UVAHIK_clean_linker_0
_symmetry_space_group_name_H-M    P1
_symmetry_Int_Tables_number       1
_symmetry_cell_setting            triclinic
loop_
_symmetry_equiv_pos_as_xyz
'x, y, z'
_cell_length_a     86.894767
_cell_length_b     87.161167
_cell_length_c     87.495341
_cell_angle_alpha  91.507021
_cell_angle_beta   90.214362
_cell_angle_gamma 91.269959
loop_
_atom_site_label
_atom_site_type_symbol
_atom_site_fract_x
_atom_site_fract_y
_atom_site_fract_z
_atom_type_partial_charge
C0 C 0.01977 0.05183 0.08219 0.0
C1 C 0.01327 0.03695 0.08313 0.0
C2 C 1.0029 0.04309 0.10848 0.0
C3 C 1.00495 0.03264 0.09612 0.0
C4 C 0.00976 0.05784 0.10761 0.0
C5 C 0.01802 0.06214 0.09463 0.0
U6 U 0.05031 0.05025 0.04977 0.0
O7 O 0.04753 0.0549 0.02531 0.0
O8 O 0.06318 0.06945 0.03943 0.0
C9 C 0.05645 0.06729 0.02603 0.0
C10 C 0.0274 0.0573 0.06809 0.0
C11 C 0.05091 0.08121 0.01839 0.0
C12 C 0.03186 0.09444 1.00326 0.0
C13 C 0.03618 0.08173 0.0117 0.0
C14 C 0.05675 0.10651 0.0083 0.0
C15 C 0.04217 0.10694 1.00126 0.0
C16 C 0.06106 0.09382 0.01669 0.0
C17 C 0.08021 0.01742 0.04977 0.0
C18 C 0.10525 0.01585 0.03741 0.0
C19 C 0.09385 0.99332 0.04881 0.0
C20 C 0.08102 1.00181 0.05309 0.0
C21 C 0.10626 1.00024 0.04108 0.0
C22 C 0.09236 0.02437 0.04175 0.0
C23 C 0.06694 0.02616 0.0556 0.0
O24 O 0.04138 0.06321 0.06972 0.0
O25 O 0.0257 0.04873 0.05558 0.0
O26 O 0.05428 0.02537 0.04732 0.0
O27 O 0.0699 0.03997 0.06142 0.0
H28 H 0.01433 0.02872 0.07372 0.0
H29 H 0.99974 0.02125 0.09626 0.0
H30 H 0.00871 0.06613 0.11696 0.0
H31 H 0.02286 0.07369 0.09421 0.0
H32 H 0.0206 0.09423 0.9979 0.0
H33 H 0.02808 0.07219 0.01267 0.0
H34 H 0.06492 0.11599 0.00728 0.0
H35 H 0.07251 0.09373 0.02163 0.0
H36 H 0.11461 0.02158 0.03155 0.0
H37 H 0.09404 0.98129 0.05158 0.0
H38 H 0.07177 0.9962 0.05924 0.0
H39 H 0.09201 0.03643 0.03907 0.0
C40 C 0.29543 0.73302 0.17543 0.0
C41 C 0.30851 0.73679 0.16675 0.0
C42 C 0.29436 0.75654 0.15362 0.0
C43 C 0.30796 0.74839 0.15594 0.0
C44 C 0.28138 0.75285 0.1625 0.0
C45 C 0.28191 0.74122 0.17322 0.0
U46 U 0.31187 0.71038 0.2091 0.0
O47 O 0.29965 0.69943 0.22808 0.0
O48 O 0.31296 0.68538 0.21196 0.0
C49 C 0.30372 0.68553 0.22382 0.0
C50 C 0.29525 0.7202 0.18628 0.0
C51 C 0.29155 0.67345 0.22404 0.0
C52 C 0.26723 0.66191 0.21514 0.0
C53 C 0.27872 0.67345 0.21423 0.0
C54 C 0.28138 0.65027 0.23554 0.0
C55 C 0.26835 0.65023 0.22593 0.0
C56 C 0.29281 0.66174 0.2346 0.0
C57 C 0.34944 0.72501 0.22901 0.0
C58 C 0.36091 0.71408 0.25161 0.0
C59 C 0.37386 0.73512 0.23905 0.0
C60 C 0.36196 0.73537 0.22827 0.0
C61 C 0.37355 0.72447 0.25088 0.0
C62 C 0.34897 0.71433 0.24075 0.0
C63 C 0.33704 0.72579 0.2175 0.0
O64 O 0.30597 0.70987 0.1846 0.0
O65 O 0.29254 0.72388 0.20067 0.0
O66 O 0.32329 0.72894 0.22276 0.0
O67 O 0.33679 0.71496 0.20676 0.0
H68 H 0.31913 0.73072 0.16821 0.0
H69 H 0.31822 0.75104 0.14944 0.0
H70 H 0.27065 0.7587 0.16091 0.0
H71 H 0.27164 0.73847 0.17967 0.0
H72 H 0.25732 0.6623 0.20763 0.0
H73 H 0.27754 0.68243 0.206 0.0
H74 H 0.28281 0.64135 0.24378 0.0
H75 H 0.30265 0.66149 0.24222 0.0
H76 H 0.36033 0.70564 0.26047 0.0
H77 H 0.38321 0.74348 0.23825 0.0
H78 H 0.36249 0.74375 0.21935 0.0
H79 H 0.3394 0.70621 0.24151 0.0
C80 C 0.97345 0.44206 0.01325 0.0
C81 C 0.97652 0.4287 0.02129 0.0
C82 C 0.98342 0.41516 0.99754 0.0
C83 C 0.98141 0.4154 0.01352 0.0
C84 C 0.98076 0.42871 0.98961 0.0
C85 C 0.97579 0.44196 0.99738 0.0
U86 U 0.97181 0.47352 0.04537 0.0
O87 O 0.96663 0.49804 0.04369 0.0
O88 O 0.95157 0.48304 0.05711 0.0
C89 C 0.95392 0.49683 0.05173 0.0
C90 C 0.9669 0.45586 0.02087 0.0
C91 C 0.94018 0.50483 0.04614 0.0
C92 C 0.92502 0.51617 0.02595 0.0
C93 C 0.93755 0.50741 0.03055 0.0
C94 C 0.91746 0.51957 0.05239 0.0
C95 C 0.91495 0.52259 0.03686 0.0
C96 C 0.9299 0.51083 0.05694 0.0
C97 C 1.00207 0.47314 0.07845 0.0
C98 C 0.01646 0.49257 0.09358 0.0
C99 C 0.01229 0.46722 0.10358 0.0
C100 C 1.00411 0.4628 0.0903 0.0
C101 C 0.01876 0.48211 0.10534 0.0
C102 C 0.00821 0.48815 0.0803 0.0
C103 C 0.99471 0.46751 0.06394 0.0
O104 O 0.95987 0.45383 0.03397 0.0
O105 O 0.97541 0.46853 0.02077 0.0
O106 O 0.99623 0.47616 0.05192 0.0
O107 O 0.98094 0.4611 0.06499 0.0
H108 H 0.97491 0.42842 0.03355 0.0
H109 H 0.98355 0.40526 0.02003 0.0
H110 H 0.982 0.42893 0.97731 0.0
H111 H 0.97343 0.45207 0.99089 0.0
H112 H 0.92349 0.51829 0.01391 0.0
H113 H 0.94532 0.50291 0.02196 0.0
H114 H 0.90981 0.52403 0.0611 0.0
H115 H 0.93166 0.50898 0.06902 0.0
H116 H 0.0211 0.50419 0.0946 0.0
H117 H 0.01397 0.45878 0.11226 0.0
H118 H 0.99967 0.45111 0.08913 0.0
H119 H 0.00688 0.49642 0.07138 0.0
C120 C 0.70711 0.77798 0.17876 0.0
C121 C 0.7073 0.78454 0.16423 0.0
C122 C 0.71496 0.76018 0.15238 0.0
C123 C 0.71115 0.77573 0.1512 0.0
C124 C 0.71495 0.75373 0.16696 0.0
C125 C 0.71102 0.76251 0.17995 0.0
U126 U 0.71067 0.81147 0.20861 0.0
O127 O 0.6926 0.82497 0.21983 0.0
O128 O 0.70789 0.81116 0.23365 0.0
C129 C 0.69583 0.81999 0.23351 0.0
C130 C 0.70213 0.78669 0.19266 0.0
C131 C 0.68263 0.81521 0.24303 0.0
C132 C 0.65796 0.80194 0.24656 0.0
C133 C 0.67059 0.80569 0.23727 0.0
C134 C 0.6694 0.817 0.26746 0.0
C135 C 0.65714 0.80767 0.26176 0.0
C136 C 0.68196 0.82072 0.2582 0.0
C137 C 0.74398 0.84143 0.20391 0.0
C138 C 0.7499 0.86331 0.22098 0.0
C139 C 0.7659 0.85835 0.19888 0.0
C140 C 0.75663 0.84554 0.1949 0.0
C141 C 0.76274 0.86739 0.21201 0.0
C142 C 0.74061 0.85041 0.21698 0.0
C143 C 0.73472 0.82763 0.19942 0.0
O144 O 0.71139 0.78641 0.20457 0.0
O145 O 0.6962 0.80025 0.19069 0.0
O146 O 0.7206 0.82992 0.1947 0.0
O147 O 0.73572 0.81586 0.20842 0.0
H148 H 0.70435 0.79643 0.16286 0.0
H149 H 0.71119 0.78112 0.14019 0.0
H150 H 0.71761 0.74176 0.16831 0.0
H151 H 0.71083 0.7571 0.19096 0.0
H152 H 0.6487 0.79482 0.24173 0.0
H153 H 0.67087 0.80131 0.22557 0.0
H154 H 0.66937 0.82138 0.27915 0.0
H155 H 0.69116 0.82803 0.26289 0.0
H156 H 0.74718 0.86992 0.23123 0.0
H157 H 0.77549 0.86126 0.19155 0.0
H158 H 0.75939 0.83878 0.18474 0.0
H159 H 0.7309 0.84739 0.2241 0.0
C160 C 0.01464 0.97242 0.44217 0.0
C161 C 0.02266 0.97626 0.42881 0.0
C162 C 0.99861 0.98283 0.41619 0.0
C163 C 0.01472 0.98135 0.41596 0.0
C164 C 0.99069 0.97932 0.42971 0.0
C165 C 0.99862 0.97414 0.44251 0.0
U166 U 0.04744 0.97137 0.47219 0.0
O167 O 0.04636 0.96614 0.49665 0.0
O168 O 0.05966 0.95149 0.48104 0.0
C169 C 0.05455 0.9537 0.49503 0.0
C170 C 0.02251 0.9659 0.45554 0.0
C171 C 0.0492 0.93988 0.50318 0.0
C172 C 0.02917 0.92417 0.51501 0.0
C173 C 0.03356 0.93671 0.50609 0.0
C174 C 0.05592 0.91765 0.51791 0.0
C175 C 0.04033 0.91462 0.52126 0.0
C176 C 0.06027 0.93011 0.50902 0.0
C177 C 0.08009 1.0027 0.47042 0.0
C178 C 0.09892 0.01088 0.48989 0.0
C179 C 0.10155 0.01971 0.46402 0.0
C180 C 0.08829 0.01128 0.45971 0.0
C181 C 0.10696 0.01983 0.47921 0.0
C182 C 0.08557 1.00241 0.48555 0.0
C183 C 0.06558 0.99483 0.46549 0.0
O184 O 0.03571 0.95922 0.45295 0.0
O185 O 0.02255 0.97426 0.46827 0.0
O186 O 0.0538 0.99588 0.47482 0.0
O187 O 0.0668 0.98111 0.45908 0.0
H188 H 0.03503 0.97514 0.4282 0.0
H189 H 0.02122 0.98414 0.40583 0.0
H190 H 0.97829 0.98014 0.43028 0.0
H191 H 0.99215 0.97119 0.45262 0.0
H192 H 0.01707 0.92225 0.51739 0.0
H193 H 0.02478 0.94408 0.50173 0.0
H194 H 0.06483 0.91041 0.52225 0.0
H195 H 0.0724 0.93229 0.50692 0.0
H196 H 0.1027 0.01073 0.50169 0.0
H197 H 0.10757 0.02618 0.4554 0.0
H198 H 0.08431 0.01162 0.44797 0.0
H199 H 0.07942 0.99586 0.49402 0.0
C200 C 0.20585 0.74359 0.84073 0.0
C201 C 0.21853 0.74008 0.8499 0.0
C202 C 0.21329 0.76198 0.86703 0.0
C203 C 0.2222 0.74918 0.86295 0.0
C204 C 0.20057 0.76532 0.85778 0.0
C205 C 0.19692 0.75623 0.8448 0.0
U206 U 0.21124 0.7104 0.81098 0.0
O207 O 0.19338 0.69562 0.79975 0.0
O208 O 0.208 0.71073 0.78604 0.0
C209 C 0.19605 0.70121 0.78619 0.0
C210 C 0.20164 0.73438 0.82689 0.0
C211 C 0.18237 0.7057 0.77738 0.0
C212 C 0.16462 0.72486 0.7685 0.0
C213 C 0.17734 0.72091 0.77741 0.0
C214 C 0.16168 0.69842 0.75961 0.0
C215 C 0.15663 0.71366 0.75944 0.0
C216 C 0.17439 0.69452 0.76846 0.0
C217 C 0.24539 0.68271 0.81537 0.0
C218 C 0.24892 0.65781 0.80268 0.0
C219 C 0.26981 0.66974 0.81737 0.0
C220 C 0.26056 0.68229 0.82083 0.0
C221 C 0.26411 0.65724 0.80836 0.0
C222 C 0.23964 0.67042 0.80616 0.0
C223 C 0.23584 0.69588 0.81992 0.0
O224 O 0.21112 0.73541 0.81527 0.0
O225 O 0.19662 0.72028 0.82907 0.0
O226 O 0.22185 0.69265 0.82474 0.0
O227 O 0.23644 0.7078 0.81102 0.0
H228 H 0.22559 0.73036 0.84693 0.0
H229 H 0.23215 0.74634 0.86971 0.0
H230 H 0.19328 0.77488 0.86066 0.0
H231 H 0.18704 0.75909 0.83791 0.0
H232 H 0.16097 0.73666 0.7688 0.0
H233 H 0.18327 0.72974 0.78427 0.0
H234 H 0.15599 0.68952 0.75265 0.0
H235 H 0.1781 0.68273 0.76822 0.0
H236 H 0.24408 0.64837 0.7958 0.0
H237 H 0.2815 0.6699 0.8217 0.0
H238 H 0.26525 0.69167 0.8279 0.0
H239 H 0.22795 0.67051 0.80183 0.0
C240 C 0.97529 0.57959 0.50446 0.0
C241 C 0.98981 0.5863 0.50161 0.0
C242 C 0.98454 0.60736 0.51979 0.0
C243 C 0.9944 0.60006 0.50923 0.0
C244 C 0.97002 0.6005 0.52251 0.0
C245 C 0.96548 0.58681 0.51493 0.0
U246 U 0.9767 0.54597 0.47421 0.0
O247 O 0.97184 0.52137 0.47792 0.0
O248 O 0.95718 0.53415 0.46251 0.0
C249 C 0.95927 0.52119 0.46952 0.0
C250 C 0.97006 0.56496 0.49704 0.0
C251 C 0.94543 0.51365 0.47611 0.0
C252 C 0.91887 0.51422 0.485 0.0
C253 C 0.93222 0.5219 0.47999 0.0
C254 C 0.93187 0.49 0.48284 0.0
C255 C 0.91846 0.49814 0.48632 0.0
C256 C 0.94516 0.49767 0.47776 0.0
C257 C 0.00797 0.54467 0.44256 0.0
C258 C 0.00783 0.53618 0.41575 0.0
C259 C 0.0318 0.53743 0.4299 0.0
C260 C 0.02394 0.54256 0.44296 0.0
C261 C 0.0239 0.53437 0.41605 0.0
C262 C 0.99995 0.54124 0.42885 0.0
C263 C 1.00026 0.5515 0.45618 0.0
O264 O 0.96401 0.56583 0.48331 0.0
O265 O 0.97909 0.55317 0.49843 0.0
O266 O 1.00145 0.5441 0.46902 0.0
O267 O 0.98652 0.55716 0.45411 0.0
H268 H 0.99756 0.5809 0.49354 0.0
H269 H 1.0056 0.60506 0.50673 0.0
H270 H 0.96222 0.60556 0.53073 0.0
H271 H 0.95427 0.58178 0.51737 0.0
H272 H 0.90884 0.52088 0.48776 0.0
H273 H 0.93209 0.53425 0.47892 0.0
H274 H 0.93196 0.47762 0.48354 0.0
H275 H 0.95517 0.49104 0.47479 0.0
H276 H 1.00132 0.53374 0.40535 0.0
H277 H 0.04418 0.53635 0.43055 0.0
H278 H 0.03043 0.54524 0.45332 0.0
H279 H 0.98762 0.54271 0.42813 0.0
C280 C 0.80113 0.79192 0.84772 0.0
C281 C 0.80072 0.77631 0.84315 0.0
C282 C 0.80102 0.7686 0.86983 0.0
C283 C 0.80064 0.76481 0.85408 0.0
C284 C 0.80183 0.78422 0.87434 0.0
C285 C 0.80182 0.79571 0.86342 0.0
U286 U 0.81443 0.81452 0.81233 0.0
O287 O 0.80063 0.82445 0.79407 0.0
O288 O 0.81502 0.83954 0.80897 0.0
C289 C 0.80478 0.83865 0.79787 0.0
C290 C 0.79986 0.80437 0.83651 0.0
C291 C 0.79248 0.85013 0.79832 0.0
C292 C 0.7661 0.85778 0.80334 0.0
C293 C 0.77775 0.84688 0.80416 0.0
C294 C 0.78387 0.87536 0.79118 0.0
C295 C 0.76896 0.87209 0.79662 0.0
C296 C 0.79545 0.86451 0.79202 0.0
C297 C 0.85131 0.80114 0.79091 0.0
C298 C 0.85971 0.80388 0.76451 0.0
C299 C 0.87795 0.79671 0.78388 0.0
C300 C 0.86638 0.79741 0.79492 0.0
C301 C 0.87475 0.79967 0.76847 0.0
C302 C 0.84808 0.80458 0.77563 0.0
C303 C 0.83923 0.80039 0.80279 0.0
O304 O 0.81053 0.81529 0.83725 0.0
O305 O 0.79604 0.8003 0.82239 0.0
O306 O 0.82521 0.79641 0.7983 0.0
O307 O 0.83954 0.8114 0.81335 0.0
H308 H 0.80023 0.77295 0.83116 0.0
H309 H 0.80022 0.75291 0.85017 0.0
H310 H 0.80196 0.7876 0.88634 0.0
H311 H 0.80202 0.80763 0.86728 0.0
H312 H 0.75475 0.85482 0.80756 0.0
H313 H 0.77518 0.83585 0.80908 0.0
H314 H 0.78661 0.88633 0.78621 0.0
H315 H 0.80674 0.86729 0.7875 0.0
H316 H 0.8568 0.80618 0.75276 0.0
H317 H 0.88943 0.79373 0.78743 0.0
H318 H 0.86917 0.79475 0.80663 0.0
H319 H 0.83653 0.8075 0.77222 0.0
C320 C 0.30195 0.2936 0.34929 0.0
C321 C 0.30215 0.27804 0.34459 0.0
C322 C 0.30182 0.27011 0.37119 0.0
C323 C 0.30205 0.26645 0.35541 0.0
C324 C 0.30206 0.28569 0.37584 0.0
C325 C 0.30206 0.29728 0.36502 0.0
U326 U 0.31448 0.31547 0.31324 0.0
O327 O 0.30019 0.32521 0.29526 0.0
O328 O 0.31534 0.34039 0.30929 0.0
C329 C 0.30467 0.33942 0.2986 0.0
C330 C 0.30063 0.30608 0.33814 0.0
C331 C 0.29254 0.35109 0.29924 0.0
C332 C 0.2662 0.35893 0.30415 0.0
C333 C 0.27774 0.34793 0.30496 0.0
C334 C 0.28422 0.37647 0.29228 0.0
C335 C 0.26923 0.37328 0.29756 0.0
C336 C 0.29569 0.36551 0.29311 0.0
C337 C 0.34959 0.30012 0.29028 0.0
C338 C 0.36483 0.31265 0.27062 0.0
C339 C 0.36779 0.28557 0.275 0.0
C340 C 0.35673 0.28628 0.28654 0.0
C341 C 0.37201 0.29871 0.26683 0.0
C342 C 0.35368 0.31334 0.28223 0.0
C343 C 0.33833 0.30029 0.30291 0.0
O344 O 0.31171 0.31661 0.33834 0.0
O345 O 0.29607 0.30206 0.32422 0.0
O346 O 0.32403 0.29654 0.29928 0.0
O347 O 0.33946 0.31176 0.31294 0.0
H348 H 0.30214 0.27479 0.33256 0.0
H349 H 0.30208 0.25459 0.35141 0.0
H350 H 0.30173 0.28895 0.38786 0.0
H351 H 0.30181 0.30916 0.36896 0.0
H352 H 0.25479 0.35602 0.30825 0.0
H353 H 0.27502 0.33686 0.30975 0.0
H354 H 0.28709 0.38746 0.28741 0.0
H355 H 0.30703 0.36823 0.28866 0.0
H356 H 0.36769 0.32296 0.26452 0.0
H357 H 0.37324 0.2747 0.27268 0.0
H358 H 0.35384 0.27598 0.29267 0.0
H359 H 0.34831 0.32417 0.28494 0.0
C360 C 0.47073 0.94096 0.51417 0.0
C361 C 0.4864 0.93868 0.51103 0.0
C362 C 0.48023 0.91391 0.49841 0.0
C363 C 0.49109 0.92531 0.50319 0.0
C364 C 0.46459 0.91624 0.50171 0.0
C365 C 0.45993 0.92958 0.50946 0.0
U366 U 0.47117 0.97336 0.54558 0.0
O367 O 0.46643 0.99795 0.54341 0.0
O368 O 0.45146 0.98361 0.55758 0.0
C369 C 0.45386 0.99717 0.55171 0.0
C370 C 0.46511 0.95524 0.52166 0.0
C371 C 0.44008 1.005 0.54598 0.0
C372 C 0.42455 0.01535 0.52552 0.0
C373 C 0.43734 0.00709 0.53033 0.0
C374 C 0.41699 0.01933 0.55188 0.0
C375 C 0.41422 0.02164 0.53625 0.0
C376 C 0.42973 0.01113 0.55665 0.0
C377 C 0.50185 0.97281 0.57827 0.0
C378 C 0.51668 0.99217 0.59307 0.0
C379 C 0.51206 0.96705 0.60344 0.0
C380 C 0.50374 0.9626 0.59025 0.0
C381 C 0.5188 0.98184 0.60498 0.0
C382 C 0.50829 0.98772 0.57987 0.0
C383 C 0.4942 0.96714 0.56392 0.0
O384 O 0.45839 0.95367 0.53498 0.0
O385 O 0.47404 0.96759 0.5211 0.0
O386 O 0.49575 0.97555 0.55173 0.0
O387 O 0.4803 0.96108 0.56527 0.0
H388 H 0.495 0.94725 0.51453 0.0
H389 H 0.50323 0.92386 0.50098 0.0
H390 H 0.45586 0.90789 0.49801 0.0
H391 H 0.44778 0.93111 0.51161 0.0
H392 H 0.42273 0.01675 0.51339 0.0
H393 H 0.44512 1.00246 0.52183 0.0
H394 H 0.4095 0.02418 0.56052 0.0
H395 H 0.43165 0.00978 0.56878 0.0
H396 H 0.52153 1.00372 0.59392 0.0
H397 H 0.51359 0.95869 0.61223 0.0
H398 H 0.49906 0.95099 0.58927 0.0
H399 H 0.50708 0.99588 0.57085 0.0
C400 C 0.20471 0.27915 0.67664 0.0
C401 C 0.22016 0.27822 0.67207 0.0
C402 C 0.21266 0.26176 0.65009 0.0
C403 C 0.2241 0.26957 0.65895 0.0
C404 C 0.19721 0.26292 0.65468 0.0
C405 C 0.19331 0.2715 0.66779 0.0
U406 U 0.209 0.31198 0.70718 0.0
O407 O 0.19081 0.32551 0.71833 0.0
O408 O 0.20576 0.31128 0.73209 0.0
C409 C 0.19361 0.32001 0.73188 0.0
C410 C 0.20013 0.28763 0.69073 0.0
C411 C 0.18002 0.31494 0.74083 0.0
C412 C 0.16582 0.29572 0.75527 0.0
C413 C 0.17817 0.29978 0.74578 0.0
C414 C 0.15676 0.32174 0.75471 0.0
C415 C 0.15502 0.30668 0.75998 0.0
C416 C 0.16912 0.3258 0.74531 0.0
C417 C 0.24232 0.34205 0.70322 0.0
C418 C 0.24711 0.36461 0.71972 0.0
C419 C 0.26447 0.35891 0.69886 0.0
C420 C 0.25554 0.34585 0.69489 0.0
C421 C 0.26037 0.36853 0.7113 0.0
C422 C 0.23815 0.35149 0.7157 0.0
C423 C 0.23317 0.32825 0.69849 0.0
O424 O 0.2095 0.28706 0.70252 0.0
O425 O 0.19453 0.30134 0.68885 0.0
O426 O 0.21911 0.33058 0.69363 0.0
O427 O 0.23408 0.31637 0.70736 0.0
H428 H 0.22917 0.2841 0.67868 0.0
H429 H 0.23609 0.26908 0.65569 0.0
H430 H 0.18811 0.25691 0.64831 0.0
H431 H 0.18133 0.27201 0.67112 0.0
H432 H 0.16475 0.28397 0.75892 0.0
H433 H 0.18635 0.29111 0.7425 0.0
H434 H 0.14881 0.33054 0.75823 0.0
H435 H 0.17034 0.33759 0.74176 0.0
H436 H 0.24352 0.3718 0.72928 0.0
H437 H 0.27472 0.36134 0.69228 0.0
H438 H 0.259 0.33868 0.68525 0.0
H439 H 0.22795 0.34876 0.72227 0.0
C440 C 0.79641 0.23428 0.67513 0.0
C441 C 0.80934 0.23746 0.66602 0.0
C442 C 0.79564 0.25778 0.65329 0.0
C443 C 0.80894 0.24907 0.6552 0.0
C444 C 0.78283 0.25467 0.6626 0.0
C445 C 0.78321 0.24306 0.67334 0.0
U446 U 0.81181 0.2112 0.70913 0.0
O447 O 0.79882 0.20061 0.72784 0.0
O448 O 0.81209 0.18617 0.71204 0.0
C449 C 0.8022 0.18656 0.72339 0.0
C450 C 0.79597 0.22143 0.68596 0.0
C451 C 0.78933 0.17497 0.72304 0.0
C452 C 0.76662 0.16393 0.73528 0.0
C453 C 0.77787 0.17561 0.73432 0.0
C454 C 0.77782 0.15071 0.71353 0.0
C455 C 0.76657 0.15119 0.72506 0.0
C456 C 0.7891 0.16242 0.71256 0.0
C457 C 0.84915 0.22562 0.72998 0.0
C458 C 0.86036 0.21497 0.75286 0.0
C459 C 0.87268 0.2368 0.74102 0.0
C460 C 0.86121 0.23655 0.72977 0.0
C461 C 0.87237 0.22612 0.75282 0.0
C462 C 0.84881 0.21475 0.74155 0.0
C463 C 0.83701 0.22619 0.71818 0.0
O464 O 0.80659 0.21098 0.68448 0.0
O465 O 0.79298 0.22508 0.70029 0.0
O466 O 0.82318 0.22959 0.72304 0.0
O467 O 0.8369 0.2152 0.7076 0.0
H468 H 0.81972 0.23091 0.66712 0.0
H469 H 0.81908 0.25124 0.64835 0.0
H470 H 0.77231 0.26096 0.66134 0.0
H471 H 0.77304 0.24076 0.68011 0.0
H472 H 0.75801 0.16484 0.74416 0.0
H473 H 0.77779 0.185 0.74268 0.0
H474 H 0.77827 0.14102 0.70556 0.0
H475 H 0.79785 0.16141 0.70384 0.0
H476 H 0.8597 0.20663 0.7618 0.0
H477 H 0.88187 0.24536 0.74042 0.0
H478 H 0.86171 0.24499 0.72091 0.0
H479 H 0.83956 0.20623 0.74191 0.0
C480 C 0.51945 0.55223 0.58204 0.0
C481 C 0.5136 0.53709 0.58288 0.0
C482 C 0.50281 0.54269 0.60816 0.0
C483 C 0.50536 0.53239 0.59578 0.0
C484 C 0.50893 0.55773 0.60736 0.0
C485 C 0.51709 0.56243 0.59446 0.0
U486 U 0.55066 0.55211 0.55022 0.0
O487 O 0.54823 0.55683 0.52573 0.0
O488 O 0.56294 0.57189 0.54031 0.0
C489 C 0.55668 0.56953 0.52672 0.0
C490 C 0.52706 0.55803 0.56806 0.0
C491 C 0.5509 0.58326 0.51893 0.0
C492 C 0.5319 0.5959 0.50325 0.0
C493 C 0.53633 0.58335 0.51186 0.0
C494 C 0.55635 0.60864 0.50886 0.0
C495 C 0.54194 0.60865 0.50144 0.0
C496 C 0.56077 0.59611 0.51743 0.0
C497 C 0.58259 0.52124 0.55068 0.0
C498 C 0.59601 0.50513 0.53201 0.0
C499 C 0.60809 0.51163 0.55634 0.0
C500 C 0.59527 0.52019 0.56057 0.0
C501 C 0.60857 0.50376 0.54209 0.0
C502 C 0.58317 0.51374 0.53626 0.0
C503 C 0.56854 0.529 0.55629 0.0
O504 O 0.54071 0.56462 0.56995 0.0
O505 O 0.52601 0.54938 0.55554 0.0
O506 O 0.556 0.52758 0.54785 0.0
O507 O 0.5705 0.54282 0.56246 0.0
H508 H 0.51519 0.52892 0.57352 0.0
H509 H 0.50099 0.52067 0.59606 0.0
H510 H 0.50704 0.56606 0.61653 0.0
H511 H 0.52132 0.57421 0.59406 0.0
H512 H 0.52078 0.59539 0.49761 0.0
H513 H 0.52846 0.5736 0.51268 0.0
H514 H 0.5643 0.61832 0.50799 0.0
H515 H 0.5721 0.59635 0.52265 0.0
H516 H 0.59587 0.49915 0.52101 0.0
H517 H 0.61761 0.5111 0.56431 0.0
H518 H 0.59513 0.52576 0.57179 0.0
H519 H 0.57356 0.5142 0.52837 0.0
C520 C 0.514 0.47317 0.94262 0.0
C521 C 0.52145 0.4754 0.92857 0.0
C522 C 0.49742 0.48355 0.91692 0.0
C523 C 0.51326 0.48051 0.91589 0.0
C524 C 0.49013 0.48165 0.93112 0.0
C525 C 0.49831 0.47649 0.94376 0.0
U526 U 0.54695 0.47191 0.97258 0.0
O527 O 0.54587 0.46658 0.99701 0.0
O528 O 0.55911 0.45195 0.98133 0.0
C529 C 0.55403 0.45412 0.99533 0.0
C530 C 0.522 0.46658 0.95592 0.0
C531 C 0.54865 0.4403 1.00345 0.0
C532 C 0.52854 0.42445 0.01497 0.0
C533 C 0.53299 0.43701 0.00609 0.0
C534 C 0.55529 0.41816 0.01836 0.0
C535 C 0.53967 0.415 0.02144 0.0
C536 C 0.5597 0.43063 0.0095 0.0
C537 C 0.57962 0.50323 0.97095 0.0
C538 C 0.59849 0.51127 0.99044 0.0
C539 C 0.60107 0.5203 0.96463 0.0
C540 C 0.5878 0.51189 0.96029 0.0
C541 C 0.60651 0.5203 0.9798 0.0
C542 C 0.58514 0.50284 0.98606 0.0
C543 C 0.56511 0.49539 0.966 0.0
O544 O 0.53518 0.45991 0.95325 0.0
O545 O 0.52205 0.47483 0.96872 0.0
O546 O 0.55334 0.49641 0.97533 0.0
O547 O 0.56632 0.4817 0.95951 0.0
H548 H 0.53354 0.47292 0.92727 0.0
H549 H 0.51928 0.48165 0.90515 0.0
H550 H 0.47806 0.48412 0.93251 0.0
H551 H 0.49227 0.47487 0.95443 0.0
H552 H 0.51641 0.42243 0.01715 0.0
H553 H 0.52422 0.44429 1.00156 0.0
H554 H 0.56418 0.41101 0.02287 0.0
H555 H 0.57185 0.43291 0.0076 0.0
H556 H 0.60231 0.51105 1.00222 0.0
H557 H 0.60707 0.52682 0.95604 0.0
H558 H 0.5838 0.51231 0.94856 0.0
H559 H 0.57901 0.49622 0.9945 0.0
C560 C 0.70522 0.24296 0.34188 0.0
C561 C 0.71743 0.23868 0.35128 0.0
C562 C 0.71254 0.26031 0.36888 0.0
C563 C 0.72107 0.24729 0.36467 0.0
C564 C 0.70033 0.26447 0.35932 0.0
C565 C 0.69672 0.25589 0.34601 0.0
U566 U 0.71068 0.21084 0.311 0.0
O567 O 0.69298 0.1967 0.29887 0.0
O568 O 0.70785 0.21235 0.28601 0.0
C569 C 0.69572 0.20306 0.28565 0.0
C570 C 0.70109 0.23431 0.32767 0.0
C571 C 0.6822 0.20821 0.27683 0.0
C572 C 0.65464 0.21233 0.27416 0.0
C573 C 0.66732 0.20842 0.28311 0.0
C574 C 0.67146 0.21624 0.25258 0.0
C575 C 0.65651 0.21619 0.25874 0.0
C576 C 0.68411 0.21224 0.2615 0.0
C577 C 0.74469 0.18278 0.31497 0.0
C578 C 0.74835 0.15787 0.30233 0.0
C579 C 0.76927 0.17006 0.31677 0.0
C580 C 0.75992 0.18253 0.32026 0.0
C581 C 0.76359 0.15746 0.30789 0.0
C582 C 0.73897 0.1704 0.30585 0.0
C583 C 0.73502 0.1958 0.31972 0.0
O584 O 0.71074 0.2357 0.31624 0.0
O585 O 0.6959 0.22017 0.32925 0.0
O586 O 0.72093 0.19244 0.32415 0.0
O587 O 0.73586 0.20805 0.31129 0.0
H588 H 0.72413 0.22872 0.34828 0.0
H589 H 0.73046 0.24364 0.37179 0.0
H590 H 0.69367 0.27455 0.36198 0.0
H591 H 0.6873 0.25943 0.33886 0.0
H592 H 0.64334 0.21235 0.27934 0.0
H593 H 0.66541 0.2054 0.29489 0.0
H594 H 0.67334 0.21896 0.24072 0.0
H595 H 0.69541 0.21206 0.25631 0.0
H596 H 0.74354 0.14835 0.29554 0.0
H597 H 0.781 0.17034 0.32101 0.0
H598 H 0.76459 0.19197 0.32728 0.0
H599 H 0.72723 0.17034 0.30164 0.0
C600 C 0.47554 0.07884 1.00388 0.0
C601 C 0.49095 0.08405 1.00338 0.0
C602 C 0.48499 0.10599 0.02019 0.0
C603 C 0.49563 0.09754 0.01144 0.0
C604 C 0.46952 0.10085 0.02027 0.0
C605 C 0.46488 0.08745 0.01223 0.0
U606 U 0.47669 0.04483 0.97397 0.0
O607 O 0.47171 0.02031 0.97798 0.0
O608 O 0.45711 0.03297 0.96242 0.0
C609 C 0.45913 0.02009 0.96958 0.0
C610 C 0.47023 0.06417 0.99654 0.0
C611 C 0.44526 0.01263 0.97623 0.0
C612 C 0.41844 0.0131 0.98434 0.0
C613 C 0.4318 0.02078 0.97937 0.0
C614 C 0.4319 0.98909 0.98363 0.0
C615 C 0.41825 0.9971 0.98635 0.0
C616 C 0.44521 0.99676 0.97859 0.0
C617 C 0.50814 0.04304 0.94238 0.0
C618 C 0.50917 0.03663 0.91506 0.0
C619 C 0.53178 0.03369 0.93081 0.0
C620 C 0.52359 0.03882 0.94366 0.0
C621 C 0.52477 0.03274 0.91627 0.0
C622 C 0.50096 0.04173 0.92794 0.0
C623 C 0.5003 0.05002 0.95588 0.0
O624 O 0.46416 0.06492 0.98281 0.0
O625 O 0.47911 0.05229 0.9981 0.0
O626 O 0.50144 0.0428 0.96884 0.0
O627 O 0.48658 0.05567 0.95369 0.0
H628 H 0.49939 0.07757 0.997 0.0
H629 H 0.50763 0.10113 0.01116 0.0
H630 H 0.46093 0.10718 0.0266 0.0
H631 H 0.45293 0.08368 0.01273 0.0
H632 H 0.40822 0.01968 0.98652 0.0
H633 H 0.43149 0.03305 0.97773 0.0
H634 H 0.43217 0.97677 0.98487 0.0
H635 H 0.4554 0.99019 0.97618 0.0
H636 H 0.5034 0.03623 0.90407 0.0
H637 H 0.54368 0.03057 0.93229 0.0
H638 H 0.52947 0.0398 0.95459 0.0
H639 H 0.4891 0.04498 0.92647 0.0
Mn640 Mn 0.25858 0.8798 0.01518 0.0
Mn641 Mn 0.25729 0.89273 0.97907 0.0
C642 C 0.24707 0.8649 0.9956 0.0
C643 C 0.26973 0.86631 0.03518 0.0
C644 C 0.23636 0.90443 1.00425 0.0
O645 O 0.27556 0.89667 0.0155 0.0
O646 O 0.27366 0.90399 0.99101 0.0
C647 C 0.28759 0.88184 0.9685 0.0
N648 N 0.27202 0.88214 0.96679 0.0
C649 C 0.27297 0.86589 0.94416 0.0
C650 C 0.28903 0.86548 0.94563 0.0
C651 C 0.29637 0.87347 0.95788 0.0
C652 C 0.26484 0.87445 0.95508 0.0
H653 H 0.29328 0.88794 0.97792 0.0
C654 C 0.27984 0.90498 1.00434 0.0
O655 O 0.25999 0.87713 0.03771 0.0
O656 O 0.27362 0.86379 0.02103 0.0
N657 N 0.24209 0.88273 0.96618 0.0
C658 C 0.22647 0.88372 0.96679 0.0
C659 C 0.21738 0.87614 0.9555 0.0
C660 C 0.22444 0.86773 0.94365 0.0
C661 C 0.24053 0.86697 0.94319 0.0
C662 C 0.249 0.87487 0.95469 0.0
H663 H 0.22098 0.8902 0.97585 0.0
O664 O 0.2432 0.86292 0.00974 0.0
O665 O 0.2573 0.87568 0.99333 0.0
O666 O 0.24168 0.89598 0.01463 0.0
O667 O 0.24144 0.90416 0.99057 0.0
C668 C 0.24849 0.8585 0.93193 0.0
C669 C 0.2647 0.85792 0.93244 0.0
H670 H 0.29584 0.85899 0.9375 0.0
H671 H 0.30875 0.87315 0.95913 0.0
H672 H 0.20497 0.87677 0.95594 0.0
H673 H 0.21738 0.86182 0.93502 0.0
H674 H 0.24224 0.85219 0.92296 0.0
H675 H 0.27067 0.85118 0.92384 0.0
Mn676 Mn 0.14127 0.50816 0.25939 0.0
Mn677 Mn 0.12698 0.54396 0.25951 0.0
C678 C 0.1554 0.52843 0.24907 0.0
C679 C 0.15549 0.48837 0.27002 0.0
C680 C 0.11604 0.51867 0.23733 0.0
O681 O 0.12445 0.50706 0.27586 0.0
O682 O 0.11624 0.53142 0.27504 0.0
C683 C 0.13773 0.55449 0.29027 0.0
N684 N 0.13725 0.5564 0.27488 0.0
C685 C 0.15242 0.57979 0.27716 0.0
C686 C 0.153 0.57812 0.29304 0.0
C687 C 0.14567 0.56538 0.29962 0.0
C688 C 0.14436 0.56855 0.26842 0.0
H689 H 0.1321 0.54472 0.29537 0.0
C690 C 0.11578 0.51792 0.28053 0.0
O691 O 0.14475 0.48562 0.25993 0.0
O692 O 0.15758 0.5026 0.27447 0.0
N693 N 0.1364 0.55741 0.24518 0.0
C694 C 0.13534 0.55696 0.22963 0.0
C695 C 0.14239 0.56869 0.22125 0.0
C696 C 0.1503 0.58083 0.22895 0.0
C697 C 0.15108 0.58114 0.24497 0.0
C698 C 0.14382 0.56915 0.2527 0.0
H699 H 0.12922 0.54769 0.22365 0.0
O700 O 0.15791 0.51436 0.2447 0.0
O701 O 0.14461 0.53022 0.25915 0.0
O702 O 0.12491 0.50842 0.24229 0.0
O703 O 0.11583 0.53229 0.24305 0.0
C704 C 0.15891 0.59279 0.25355 0.0
C705 C 0.15965 0.59208 0.26963 0.0
H706 H 0.15913 0.58649 0.30029 0.0
H707 H 0.14612 0.56398 0.31186 0.0
H708 H 0.14174 0.56837 0.2089 0.0
H709 H 0.1558 0.58981 0.22245 0.0
H710 H 0.16461 0.60223 0.24788 0.0
H711 H 0.16593 0.60097 0.27608 0.0
Mn712 Mn 0.76293 0.63379 0.00725 0.0
Mn713 Mn 0.72994 0.64612 0.99155 0.0
C714 C 0.7402 0.61897 0.00855 0.0
C715 C 0.78626 0.62054 0.00647 0.0
C716 C 0.74331 0.65934 0.02137 0.0
O717 O 0.77062 0.65044 0.99252 0.0
O718 O 0.74792 0.65598 0.98156 0.0
C719 C 0.73323 0.63222 0.96051 0.0
N720 N 0.72489 0.63415 0.97354 0.0
C721 C 0.70396 0.61856 0.96321 0.0
C722 C 0.71221 0.61659 0.94958 0.0
C723 C 0.72696 0.62336 0.94827 0.0
C724 C 0.71084 0.62742 0.97504 0.0
H725 H 0.74459 0.63734 0.9595 0.0
C726 C 0.7626 0.65743 0.98264 0.0
O727 O 0.78381 0.63157 0.01632 0.0
O728 O 0.77536 0.61756 0.99654 0.0
N729 N 0.71156 0.63735 0.99998 0.0
C730 C 0.70548 0.63967 0.01417 0.0
C731 C 0.691 0.63317 0.01757 0.0
C732 C 0.68284 0.62454 0.00629 0.0
C733 C 0.68925 0.62248 0.99172 0.0
C734 C 0.70373 0.6292 0.98901 0.0
H735 H 0.71162 0.64641 0.02284 0.0
O736 O 0.75127 0.61714 0.01828 0.0
O737 O 0.74273 0.62936 0.99847 0.0
O738 O 0.75458 0.65027 0.02197 0.0
O739 O 0.73373 0.65909 0.01024 0.0
C740 C 0.68189 0.61392 0.97982 0.0
C741 C 0.68926 0.61192 0.96558 0.0
H742 H 0.70741 0.60978 0.94011 0.0
H743 H 0.73347 0.62177 0.93785 0.0
H744 H 0.68612 0.63483 0.02884 0.0
H745 H 0.67169 0.6195 0.00897 0.0
H746 H 0.67066 0.60862 0.98156 0.0
H747 H 0.6836 0.60507 0.95661 0.0
Mn748 Mn 0.88185 0.01429 0.26054 0.0
Mn749 Mn 0.89527 0.97815 0.25807 0.0
C750 C 0.86724 0.99462 0.24869 0.0
C751 C 0.86797 0.03421 0.27225 0.0
C752 C 0.90681 1.00366 0.23786 0.0
O753 O 0.89859 0.0146 0.27726 0.0
O754 O 0.90635 0.99012 0.27455 0.0
C755 C 0.88434 0.96726 0.288 0.0
N756 N 0.88471 0.96566 0.27248 0.0
C757 C 0.86856 0.94288 0.27299 0.0
C758 C 0.86808 0.94424 0.28898 0.0
C759 C 0.87598 0.9565 0.29651 0.0
C760 C 0.87712 0.95393 0.26512 0.0
H761 H 0.89035 0.97669 0.29384 0.0
C762 C 0.90706 1.00346 0.28111 0.0
O763 O 0.87892 0.03687 0.26258 0.0
O764 O 0.86556 0.01997 0.27575 0.0
N765 N 0.88544 0.96525 0.24273 0.0
C766 C 0.88648 0.96598 0.22723 0.0
C767 C 0.87896 0.95471 0.21798 0.0
C768 C 0.87055 0.94276 0.22475 0.0
C769 C 0.86977 0.94216 0.24073 0.0
C770 C 0.8776 0.95364 0.24936 0.0
H771 H 0.89293 0.97514 0.22195 0.0
O772 O 0.86514 0.00882 0.24525 0.0
O773 O 0.87798 0.99233 0.25868 0.0
O774 O 0.89824 0.01398 0.24362 0.0
O775 O 0.90667 0.98988 0.24248 0.0
C776 C 0.86129 0.93078 0.24842 0.0
C777 C 0.86066 0.93116 0.26454 0.0
H778 H 0.86159 0.93601 0.29559 0.0
H779 H 0.87561 0.95767 0.30885 0.0
H780 H 0.87961 0.95526 0.20566 0.0
H781 H 0.86467 0.93416 0.21758 0.0
H782 H 0.85504 0.92182 0.24204 0.0
H783 H 0.85394 0.92247 0.27031 0.0
Mn784 Mn 0.26301 0.13383 0.50701 0.0
Mn785 Mn 0.23016 0.14601 0.49091 0.0
C786 C 0.24029 0.11896 0.50816 0.0
C787 C 0.28633 0.12058 0.50635 0.0
C788 C 0.24324 0.15941 0.5208 0.0
O789 O 0.27079 0.15047 0.49233 0.0
O790 O 0.24821 0.15585 0.48103 0.0
C791 C 0.23373 0.13194 0.45999 0.0
N792 N 0.22528 0.13393 0.47293 0.0
C793 C 0.20447 0.11823 0.46251 0.0
C794 C 0.21284 0.1162 0.44897 0.0
C795 C 0.22759 0.123 0.44775 0.0
C796 C 0.21122 0.12719 0.47435 0.0
H797 H 0.24509 0.13708 0.45904 0.0
C798 C 0.26287 0.15738 0.48231 0.0
O799 O 0.28385 0.1316 0.51621 0.0
O800 O 0.27548 0.11761 0.49638 0.0
N801 N 0.21172 0.13726 0.49924 0.0
C802 C 0.20551 0.13965 0.51337 0.0
C803 C 0.19101 0.13313 0.51668 0.0
C804 C 0.18297 0.12443 0.50539 0.0
C805 C 0.1895 0.12229 0.49088 0.0
C806 C 0.20399 0.12904 0.48825 0.0
H807 H 0.21157 0.14645 0.52205 0.0
O808 O 0.25129 0.11718 0.51799 0.0
O809 O 0.2429 0.12933 0.49807 0.0
O810 O 0.25451 0.15036 0.52161 0.0
O811 O 0.23379 0.15907 0.50957 0.0
C812 C 0.18226 0.11365 0.47896 0.0
C813 C 0.18976 0.11157 0.46481 0.0
H814 H 0.20814 0.10932 0.4395 0.0
H815 H 0.23419 0.12136 0.43739 0.0
H816 H 0.18604 0.13485 0.5279 0.0
H817 H 0.17181 0.11938 0.508 0.0
H818 H 0.17103 0.10833 0.48065 0.0
H819 H 0.1842 0.10466 0.45583 0.0
Mn820 Mn 0.38183 0.51375 0.76028 0.0
Mn821 Mn 0.39559 0.47776 0.758 0.0
C822 C 0.36731 0.49382 0.74867 0.0
C823 C 0.36789 0.53365 0.77196 0.0
C824 C 0.40678 0.50323 0.73757 0.0
O825 O 0.3987 0.51434 0.7769 0.0
O826 O 0.40656 0.48989 0.77441 0.0
C827 C 0.3849 0.46683 0.788 0.0
N828 N 0.38523 0.4652 0.77249 0.0
C829 C 0.36967 0.44204 0.77312 0.0
C830 C 0.36924 0.44342 0.78912 0.0
C831 C 0.37685 0.4559 0.79658 0.0
C832 C 0.37786 0.45329 0.76518 0.0
H833 H 0.39074 0.47639 0.79379 0.0
C834 C 0.40722 0.50328 0.78086 0.0
O835 O 0.37873 0.53631 0.76217 0.0
O836 O 0.3656 0.51942 0.77558 0.0
N837 N 0.38585 0.46471 0.74273 0.0
C838 C 0.38676 0.46546 0.72722 0.0
C839 C 0.37941 0.45404 0.71803 0.0
C840 C 0.37134 0.44189 0.72487 0.0
C841 C 0.37072 0.44128 0.74085 0.0
C842 C 0.37828 0.45298 0.74943 0.0
H843 H 0.39298 0.47474 0.7219 0.0
O844 O 0.36504 0.50797 0.74515 0.0
O845 O 0.37815 0.49174 0.75862 0.0
O846 O 0.39808 0.51349 0.74324 0.0
O847 O 0.40684 0.48952 0.74234 0.0
C848 C 0.36272 0.42963 0.74861 0.0
C849 C 0.36214 0.43004 0.76473 0.0
H850 H 0.36302 0.43503 0.79577 0.0
H851 H 0.37652 0.45708 0.80892 0.0
H852 H 0.37994 0.4546 0.7057 0.0
H853 H 0.36561 0.43315 0.71775 0.0
H854 H 0.35679 0.42042 0.74229 0.0
H855 H 0.35575 0.42115 0.77056 0.0
Mn856 Mn 0.75898 0.38084 0.51491 0.0
Mn857 Mn 0.75773 0.39431 0.47902 0.0
C858 C 0.74768 0.36615 0.49504 0.0
C859 C 0.77015 0.36719 0.53478 0.0
C860 C 0.73654 0.4054 0.50423 0.0
O861 O 0.77584 0.3978 0.51556 0.0
O862 O 0.77385 0.40563 0.49124 0.0
C863 C 0.78829 0.38411 0.46849 0.0
N864 N 0.77271 0.38417 0.4667 0.0
C865 C 0.7741 0.36863 0.44362 0.0
C866 C 0.79016 0.36846 0.44518 0.0
C867 C 0.79728 0.3762 0.4577 0.0
C868 C 0.76574 0.37667 0.45475 0.0
H869 H 0.79381 0.39005 0.47809 0.0
C870 C 0.78002 0.4064 0.50458 0.0
O871 O 0.7603 0.37789 0.53739 0.0
O872 O 0.7741 0.36484 0.52061 0.0
N873 N 0.74276 0.38429 0.46588 0.0
C874 C 0.72712 0.38497 0.46643 0.0
C875 C 0.71823 0.37748 0.45493 0.0
C876 C 0.72552 0.36954 0.4429 0.0
C877 C 0.74163 0.36915 0.44249 0.0
C878 C 0.74989 0.37683 0.45426 0.0
H879 H 0.72146 0.39112 0.47561 0.0
O880 O 0.74373 0.36394 0.50912 0.0
O881 O 0.75785 0.37703 0.49299 0.0
O882 O 0.74199 0.39695 0.51454 0.0
O883 O 0.74161 0.40531 0.49055 0.0
C884 C 0.74982 0.36132 0.43094 0.0
C885 C 0.76604 0.36099 0.43155 0.0
H886 H 0.79713 0.36237 0.43689 0.0
H887 H 0.80966 0.37607 0.45902 0.0
H888 H 0.7058 0.37783 0.45533 0.0
H889 H 0.71862 0.36371 0.43409 0.0
H890 H 0.74375 0.35532 0.42167 0.0
H891 H 0.77219 0.35471 0.42274 0.0
Mn892 Mn 0.64136 0.00731 0.75901 0.0
Mn893 Mn 0.62739 0.04324 0.75908 0.0
C894 C 0.65573 0.02747 0.74876 0.0
C895 C 0.65538 0.98742 0.76971 0.0
C896 C 0.6163 0.018 0.73688 0.0
O897 O 0.62445 1.00636 0.7754 0.0
O898 O 0.61656 0.03082 0.77464 0.0
C899 C 0.63817 0.0538 0.78982 0.0
N900 N 0.63774 0.05565 0.77441 0.0
C901 C 0.65305 0.07895 0.77663 0.0
C902 C 0.65359 0.07734 0.79253 0.0
C903 C 0.64616 0.06467 0.79914 0.0
C904 C 0.64494 0.06773 0.76793 0.0
H905 H 0.63245 0.04409 0.79494 0.0
C906 C 0.61592 0.01732 0.78011 0.0
O907 O 0.64467 0.98475 0.75957 0.0
O908 O 0.65755 1.00164 0.77417 0.0
N909 N 0.63695 0.05656 0.7447 0.0
C910 C 0.63593 0.05605 0.72915 0.0
C911 C 0.64308 0.0677 0.72075 0.0
C912 C 0.65106 0.07982 0.72842 0.0
C913 C 0.65179 0.08018 0.74443 0.0
C914 C 0.64443 0.06827 0.7522 0.0
H915 H 0.62975 0.0468 0.72319 0.0
O916 O 0.65814 0.01338 0.74441 0.0
O917 O 0.64489 0.02935 0.75878 0.0
O918 O 0.62511 0.0077 0.74183 0.0
O919 O 0.61616 0.03161 0.74263 0.0
C920 C 0.65968 0.09181 0.75299 0.0
C921 C 0.66038 0.09116 0.76907 0.0
H922 H 0.65975 0.0857 0.79976 0.0
H923 H 0.64657 0.06332 0.81139 0.0
H924 H 0.64246 0.06733 0.70839 0.0
H925 H 0.65663 0.08874 0.7219 0.0
H926 H 0.66546 0.10119 0.7473 0.0
H927 H 0.6667 0.10004 0.77551 0.0
Mn928 Mn 0.01355 0.25626 0.88017 0.0
Mn929 Mn 0.97718 0.25382 0.89371 0.0
C930 C 0.99388 0.24467 0.86546 0.0
C931 C 0.0336 0.26814 0.86653 0.0
C932 C 1.00268 0.23341 0.90445 0.0
O933 O 0.01369 0.27293 0.8973 0.0
O934 O 0.98903 0.27027 0.90508 0.0
C935 C 0.9663 0.28397 0.88383 0.0
N936 N 0.96476 0.26838 0.8837 0.0
C937 C 0.94231 0.26903 0.86755 0.0
C938 C 0.9436 0.2851 0.86759 0.0
C939 C 0.95566 0.29259 0.87575 0.0
C940 C 0.95321 0.26106 0.87587 0.0
H941 H 0.97558 0.28978 0.89004 0.0
C942 C 1.0024 0.27679 0.90588 0.0
O943 O 0.03622 0.25828 0.87703 0.0
O944 O 0.01932 0.2717 0.86444 0.0
N945 N 0.96446 0.23851 0.88352 0.0
C946 C 0.96528 0.22293 0.88402 0.0
C947 C 0.95423 0.21371 0.87615 0.0
C948 C 0.94243 0.22058 0.86792 0.0
C949 C 0.94175 0.23663 0.86767 0.0
C950 C 0.95299 0.24523 0.87585 0.0
H951 H 0.97433 0.21758 0.8903 0.0
O952 O 0.00812 0.24111 0.86311 0.0
O953 O 0.9916 0.25456 0.87652 0.0
O954 O 0.0131 0.23915 0.89595 0.0
O955 O 0.98885 0.23809 0.90454 0.0
C956 C 0.93052 0.24443 0.85942 0.0
C957 C 0.93082 0.26062 0.85934 0.0
H958 H 0.93548 0.29179 0.8613 0.0
H959 H 0.95678 0.30498 0.87578 0.0
H960 H 0.95485 0.20133 0.87637 0.0
H961 H 0.93403 0.21343 0.86174 0.0
H962 H 0.92174 0.23808 0.85292 0.0
H963 H 0.92225 0.26647 0.85278 0.0
Mn964 Mn 0.51332 0.75698 0.37917 0.0
Mn965 Mn 0.47689 0.75439 0.39251 0.0
C966 C 0.49381 0.74518 0.36441 0.0
C967 C 0.53335 0.7689 0.36555 0.0
C968 C 0.50242 0.73415 0.40347 0.0
O969 O 0.5133 0.77371 0.39624 0.0
O970 O 0.48863 0.77088 0.4039 0.0
C971 C 0.46598 0.78447 0.38248 0.0
N972 N 0.46449 0.76888 0.38238 0.0
C973 C 0.44213 0.76942 0.36609 0.0
C974 C 0.44338 0.78549 0.36609 0.0
C975 C 0.45537 0.79304 0.3743 0.0
C976 C 0.453 0.7615 0.3745 0.0
H977 H 0.47521 0.79033 0.38872 0.0
C978 C 0.50196 0.77749 0.40477 0.0
O979 O 0.53601 0.75914 0.37612 0.0
O980 O 0.51905 0.77236 0.36338 0.0
N981 N 0.46425 0.73901 0.38229 0.0
C982 C 0.46508 0.72344 0.38289 0.0
C983 C 0.45408 0.71416 0.37502 0.0
C984 C 0.44232 0.72098 0.36668 0.0
C985 C 0.44163 0.73702 0.36635 0.0
C986 C 0.45282 0.74568 0.37453 0.0
H987 H 0.4741 0.71813 0.38927 0.0
O988 O 0.50809 0.74171 0.36216 0.0
O989 O 0.4914 0.75512 0.37539 0.0
O990 O 0.51289 0.73995 0.39505 0.0
O991 O 0.48856 0.73873 0.40342 0.0
C992 C 0.43043 0.74476 0.358 0.0
C993 C 0.4307 0.76095 0.35785 0.0
H994 H 0.43527 0.79214 0.35974 0.0
H995 H 0.45645 0.80543 0.3743 0.0
H996 H 0.45471 0.70179 0.37532 0.0
H997 H 0.43395 0.71379 0.36051 0.0
H998 H 0.42169 0.73837 0.35149 0.0
H999 H 0.42215 0.76676 0.35122 0.0
Mn1000 Mn 0.01446 0.76265 0.63278 0.0
Mn1001 Mn 0.999 0.72925 0.64524 0.0
C1002 C 0.01574 0.74019 0.61776 0.0
C1003 C 0.01336 0.78588 0.61971 0.0
C1004 C 0.02934 0.74272 0.6572 0.0
O1005 O 0.99976 0.76998 0.64972 0.0
O1006 O 0.99009 0.74695 0.65661 0.0
C1007 C 0.96715 0.73321 0.63413 0.0
N1008 N 0.98016 0.72481 0.63452 0.0
C1009 C 0.96866 0.70501 0.61823 0.0
C1010 C 0.95509 0.71341 0.61773 0.0
C1011 C 0.95436 0.72759 0.62568 0.0
C1012 C 0.98103 0.7112 0.62683 0.0
H1013 H 0.96654 0.74412 0.64022 0.0
C1014 C 0.99089 0.76163 0.6579 0.0
O1015 O 0.02344 0.78372 0.63037 0.0
O1016 O 1.00346 0.77474 0.61701 0.0
N1017 N 0.00645 0.7111 0.63526 0.0
C1018 C 0.02054 0.70467 0.63651 0.0
C1019 C 0.02324 0.6905 0.62912 0.0
C1020 C 0.0114 0.68302 0.62064 0.0
C1021 C 0.99696 0.68978 0.61963 0.0
C1022 C 0.9949 0.70385 0.62737 0.0
H1023 H 0.02966 0.71033 0.64309 0.0
O1024 O 0.02555 0.75141 0.61587 0.0
O1025 O 1.00559 0.74236 0.62842 0.0
O1026 O 0.02941 0.75454 0.64888 0.0
O1027 O 0.0185 0.73258 0.65674 0.0
C1028 C 0.98458 0.68321 0.6111 0.0
C1029 C 0.97046 0.69085 0.61035 0.0
H1030 H 0.94521 0.70913 0.6112 0.0
H1031 H 0.94395 0.73417 0.6253 0.0
H1032 H 0.03442 0.68534 0.62995 0.0
H1033 H 0.01355 0.67211 0.61491 0.0
H1034 H 0.98587 0.67239 0.60491 0.0
H1035 H 0.9611 0.68579 0.6036 0.0
Mn1036 Mn 0.51356 0.26264 0.13236 0.0
Mn1037 Mn 0.49813 0.22911 0.14442 0.0
C1038 C 0.51525 0.24013 0.11728 0.0
C1039 C 0.51234 0.2859 0.11935 0.0
C1040 C 0.52792 0.24322 0.1573 0.0
O1041 O 0.49848 0.26974 0.14923 0.0
O1042 O 0.48798 0.24664 0.15471 0.0
C1043 C 0.46678 0.23166 0.13148 0.0
N1044 N 0.48004 0.22375 0.13283 0.0
C1045 C 0.46978 0.20277 0.11723 0.0
C1046 C 0.45596 0.21062 0.11579 0.0
C1047 C 0.45449 0.22517 0.12287 0.0
C1048 C 0.48167 0.20988 0.12584 0.0
H1049 H 0.4656 0.24283 0.13692 0.0
C1050 C 0.4887 0.2613 0.15631 0.0
O1051 O 0.52231 0.28382 0.13011 0.0
O1052 O 0.50259 0.27466 0.11651 0.0
N1053 N 0.50677 0.21112 0.13521 0.0
C1054 C 0.52107 0.20535 0.13719 0.0
C1055 C 0.52459 0.19105 0.13046 0.0
C1056 C 0.5133 0.18273 0.12198 0.0
C1057 C 0.49861 0.18881 0.12028 0.0
C1058 C 0.49579 0.20313 0.12719 0.0
H1059 H 0.52974 0.21161 0.14385 0.0
O1060 O 0.52492 0.25149 0.11545 0.0
O1061 O 0.50503 0.24226 0.12783 0.0
O1062 O 0.52842 0.25467 0.14852 0.0
O1063 O 0.51689 0.23327 0.15695 0.0
C1064 C 0.48666 0.18124 0.11194 0.0
C1065 C 0.47227 0.18824 0.11037 0.0
H1066 H 0.44643 0.20564 0.1092 0.0
H1067 H 0.44389 0.23134 0.12174 0.0
H1068 H 0.53595 0.18643 0.13186 0.0
H1069 H 0.51606 0.17172 0.11678 0.0
H1070 H 0.48848 0.17013 0.10649 0.0
H1071 H 0.46325 0.18241 0.10373 0.0
C1072 C 0.21567 0.78791 0.8804 0.0
C1073 C 0.21714 0.77187 0.8808 0.0
C1074 C 0.21872 0.79721 0.89339 0.0
C1075 C 0.23874 0.79795 0.93098 0.0
H1076 H 0.21261 0.83261 0.93945 0.0
C1077 C 0.25494 0.84608 0.97536 0.0
C1078 C 0.24314 0.85306 0.98374 0.0
C1079 C 0.25149 0.83519 0.96376 0.0
C1080 C 0.21994 0.8229 0.93737 0.0
H1081 H 0.22306 0.75312 0.89536 0.0
H1082 H 0.2284 0.76934 0.91804 0.0
H1083 H 0.20717 0.81574 0.91736 0.0
H1084 H 0.21859 0.85325 0.98758 0.0
H1085 H 0.2124 0.83421 0.96716 0.0
H1086 H 0.25142 0.80503 0.95109 0.0
C1087 C 0.22503 0.77475 0.90758 0.0
C1088 C 0.21694 0.81332 0.92455 0.0
C1089 C 0.22197 0.76543 0.89455 0.0
C1090 C 0.22785 0.84827 0.98099 0.0
C1091 C 0.22434 0.83744 0.96927 0.0
C1092 C 0.24177 0.80756 0.94378 0.0
C1093 C 0.22334 0.79077 0.90721 0.0
C1094 C 0.22635 0.80075 0.92111 0.0
C1095 C 0.23612 0.83094 0.96032 0.0
C1096 C 0.23246 0.82022 0.94711 0.0
H1097 H 0.21227 0.79334 0.86996 0.0
H1098 H 0.2176 0.80951 0.89255 0.0
H1099 H 0.24632 0.78848 0.92866 0.0
H1100 H 0.26687 0.84928 0.9776 0.0
H1101 H 0.26087 0.83054 0.95712 0.0
C1102 C 0.02871 0.53622 0.38774 0.0
C1103 C 0.03247 0.5299 0.40187 0.0
C1104 C 0.03712 0.5326 0.37455 0.0
C1105 C 0.07484 0.5174 0.36178 0.0
H1106 H 0.05451 0.51522 0.32225 0.0
C1107 C 0.10802 0.50512 0.30505 0.0
C1108 C 0.10492 0.51545 0.2934 0.0
C1109 C 0.09869 0.5046 0.31814 0.0
C1110 C 0.06039 0.51581 0.3332 0.0
H1111 H 0.0479 0.51444 0.413 0.0
H1112 H 0.06245 0.50798 0.38999 0.0
H1113 H 0.03928 0.51871 0.34535 0.0
H1114 H 0.08915 0.53278 0.28609 0.0
H1115 H 0.07291 0.53171 0.30859 0.0
H1116 H 0.09598 0.51459 0.3495 0.0
C1117 C 0.05316 0.516 0.38915 0.0
C1118 C 0.05165 0.5179 0.34648 0.0
C1119 C 0.04478 0.51969 0.40237 0.0
C1120 C 0.09192 0.52471 0.29484 0.0
C1121 C 0.08252 0.52404 0.30774 0.0
C1122 C 0.08358 0.51522 0.34847 0.0
C1123 C 0.04952 0.52247 0.37504 0.0
C1124 C 0.05876 0.51903 0.36097 0.0
C1125 C 0.08591 0.5142 0.31971 0.0
C1126 C 0.0765 0.5147 0.33398 0.0
H1127 H 0.0195 0.54433 0.38693 0.0
H1128 H 0.03411 0.53808 0.36402 0.0
H1129 H 0.0808 0.51838 0.37266 0.0
H1130 H 0.118 0.49791 0.30435 0.0
H1131 H 0.10155 0.49682 0.32711 0.0
C1132 C 0.78968 0.7438 0.87935 0.0
C1133 C 0.79995 0.75637 0.88149 0.0
C1134 C 0.7882 0.73257 0.89044 0.0
C1135 C 0.79559 0.7255 0.93164 0.0
H1136 H 0.78588 0.68347 0.91886 0.0
C1137 C 0.78424 0.67541 0.97425 0.0
C1138 C 0.77018 0.66753 0.97127 0.0
C1139 C 0.79033 0.68575 0.9636 0.0
C1140 C 0.78864 0.69515 0.92263 0.0
H1141 H 0.81696 0.76675 0.89697 0.0
H1142 H 0.81455 0.74705 0.91623 0.0
H1143 H 0.79188 0.70244 0.8997 0.0
H1144 H 0.75184 0.66409 0.9545 0.0
H1145 H 0.76257 0.68152 0.93608 0.0
H1146 H 0.79222 0.71803 0.95464 0.0
C1147 C 0.8074 0.74601 0.90608 0.0
C1148 C 0.79197 0.70609 0.91162 0.0
C1149 C 0.80881 0.75732 0.895 0.0
C1150 C 0.76268 0.6699 0.95726 0.0
C1151 C 0.76887 0.67988 0.9466 0.0
C1152 C 0.79238 0.71448 0.94269 0.0
C1153 C 0.79703 0.73347 0.90399 0.0
C1154 C 0.79508 0.72153 0.91591 0.0
C1155 C 0.78267 0.68807 0.94964 0.0
C1156 C 0.78847 0.69926 0.93827 0.0
H1157 H 0.78244 0.74282 0.86925 0.0
H1158 H 0.77982 0.72334 0.88849 0.0
H1159 H 0.79782 0.73726 0.93544 0.0
H1160 H 0.79026 0.67393 0.98495 0.0
H1161 H 0.80101 0.6919 0.96624 0.0
C1162 C 0.9776 0.99759 0.40343 0.0
C1163 C 0.99001 0.98753 0.40227 0.0
C1164 C 0.96926 1.00157 0.3904 0.0
C1165 C 0.97101 1.00081 0.34761 0.0
H1166 H 0.92669 1.00427 0.35043 0.0
C1167 C 0.93079 0.9959 0.29505 0.0
C1168 C 0.91792 1.00537 0.29426 0.0
C1169 C 0.94016 0.99604 0.30808 0.0
C1170 C 0.93908 1.00358 0.34948 0.0
H1171 H 1.00322 0.97366 0.38637 0.0
H1172 H 0.98865 0.98037 0.36379 0.0
H1173 H 0.94175 0.99973 0.37341 0.0
H1174 H 0.90505 0.02272 0.30654 0.0
H1175 H 0.92143 0.02288 0.32951 0.0
H1176 H 0.96824 1.00417 0.32358 0.0
C1177 C 0.98553 0.98553 0.3747 0.0
C1178 C 0.94776 1.00098 0.36269 0.0
C1179 C 0.99391 0.98164 0.3877 0.0
C1180 C 0.91493 0.01537 0.30673 0.0
C1181 C 0.92422 0.01535 0.31993 0.0
C1182 C 0.96233 1.0033 0.33441 0.0
C1183 C 0.97303 0.99553 0.37583 0.0
C1184 C 0.96384 0.99932 0.36192 0.0
C1185 C 0.93686 1.00554 0.32082 0.0
C1186 C 0.94622 1.0045 0.33512 0.0
H1187 H 0.97438 1.00252 0.41442 0.0
H1188 H 0.95991 0.00949 0.39177 0.0
H1189 H 0.98337 0.99998 0.34654 0.0
H1190 H 0.93347 0.98806 0.28566 0.0
H1191 H 0.94967 0.98823 0.30837 0.0
C1192 C 0.20739 0.25211 0.62309 0.0
C1193 C 0.21673 0.25223 0.63628 0.0
C1194 C 0.21071 0.24263 0.61041 0.0
C1195 C 0.24176 0.2198 0.59225 0.0
H1196 H 0.20763 0.19893 0.57124 0.0
C1197 C 0.25063 0.17131 0.54649 0.0
C1198 C 0.24074 0.17065 0.53369 0.0
C1199 C 0.24803 0.18158 0.55876 0.0
C1200 C 0.21731 0.2048 0.57682 0.0
H1201 H 0.23703 0.24243 0.64628 0.0
H1202 H 0.24281 0.2259 0.62419 0.0
H1203 H 0.20264 0.21621 0.59287 0.0
H1204 H 0.22038 0.18055 0.52385 0.0
H1205 H 0.21599 0.19851 0.54509 0.0
H1206 H 0.25643 0.20832 0.5762 0.0
C1207 C 0.23299 0.23329 0.62359 0.0
C1208 C 0.21444 0.21475 0.58927 0.0
C1209 C 0.22968 0.2428 0.63628 0.0
C1210 C 0.22825 0.18066 0.53348 0.0
C1211 C 0.22565 0.19092 0.54576 0.0
C1212 C 0.24464 0.20984 0.57978 0.0
C1213 C 0.22347 0.23296 0.61052 0.0
C1214 C 0.22661 0.22241 0.59717 0.0
C1215 C 0.23546 0.19148 0.55862 0.0
C1216 C 0.23245 0.2022 0.57188 0.0
H1217 H 0.19749 0.25941 0.62253 0.0
H1218 H 0.20328 0.24295 0.60046 0.0
H1219 H 0.25143 0.22564 0.5979 0.0
H1220 H 0.26035 0.16378 0.54713 0.0
H1221 H 0.25573 0.18152 0.56852 0.0
C1222 C 0.49769 0.5429 0.63657 0.0
C1223 C 0.49347 0.53796 0.62166 0.0
C1224 C 0.48865 0.53895 0.64917 0.0
C1225 C 0.45787 0.51151 0.66154 0.0
H1226 H 0.45242 0.54168 0.69431 0.0
C1227 C 0.42682 0.49629 0.71791 0.0
C1228 C 0.41711 0.50729 0.7246 0.0
C1229 C 0.43628 0.49998 0.70553 0.0
C1230 C 0.45369 0.53314 0.68522 0.0
H1231 H 0.47626 0.52499 0.60843 0.0
H1232 H 0.46048 0.51816 0.63031 0.0
H1233 H 0.46829 0.54812 0.6724 0.0
H1234 H 0.40988 0.5309 0.72333 0.0
H1235 H 0.4262 0.53724 0.7017 0.0
H1236 H 0.44296 0.49667 0.67418 0.0
C1237 C 0.47095 0.52489 0.63233 0.0
C1238 C 0.46299 0.53677 0.67271 0.0
C1239 C 0.48002 0.52882 0.61974 0.0
C1240 C 0.41721 0.52212 0.71857 0.0
C1241 C 0.42667 0.52579 0.70617 0.0
C1242 C 0.44856 0.50788 0.67405 0.0
C1243 C 0.47508 0.52996 0.64724 0.0
C1244 C 0.46522 0.52602 0.66066 0.0
C1245 C 0.43633 0.51477 0.69944 0.0
C1246 C 0.44632 0.51864 0.68609 0.0
H1247 H 0.50809 0.54976 0.63855 0.0
H1248 H 0.4924 0.54283 0.66046 0.0
H1249 H 0.4594 0.50285 0.65261 0.0
H1250 H 0.42712 0.48476 0.7222 0.0
H1251 H 0.4437 0.49123 0.70084 0.0
C1252 C 0.78749 0.28376 0.6446 0.0
C1253 C 0.7949 0.26985 0.64147 0.0
C1254 C 0.78605 0.29475 0.63331 0.0
C1255 C 0.80129 0.30675 0.59555 0.0
H1256 H 0.76246 0.32761 0.59315 0.0
C1257 C 0.78409 0.34413 0.54411 0.0
C1258 C 0.77544 0.35728 0.54727 0.0
C1259 C 0.78757 0.33394 0.55574 0.0
C1260 C 0.77347 0.32208 0.59375 0.0
H1261 H 0.80675 0.25673 0.6239 0.0
H1262 H 0.80419 0.27585 0.6042 0.0
H1263 H 0.76639 0.30908 0.61299 0.0
H1264 H 0.76422 0.37033 0.56531 0.0
H1265 H 0.77046 0.35281 0.58553 0.0
H1266 H 0.80828 0.31972 0.57616 0.0
C1267 C 0.79965 0.27837 0.61548 0.0
C1268 C 0.77573 0.3114 0.60518 0.0
C1269 C 0.80112 0.26737 0.6268 0.0
C1270 C 0.77083 0.36028 0.56242 0.0
C1271 C 0.7743 0.35014 0.57402 0.0
C1272 C 0.79902 0.31744 0.58408 0.0
C1273 C 0.79194 0.29215 0.61853 0.0
C1274 C 0.78968 0.30359 0.60629 0.0
C1275 C 0.78247 0.33667 0.57082 0.0
C1276 C 0.78508 0.3253 0.58305 0.0
H1277 H 0.7828 0.28621 0.65583 0.0
H1278 H 0.78033 0.30534 0.63622 0.0
H1279 H 0.81225 0.30111 0.59613 0.0
H1280 H 0.78778 0.34143 0.53255 0.0
H1281 H 0.79378 0.32366 0.55279 0.0
C1282 C 0.52404 0.98142 0.6334 0.0
C1283 C 0.52835 0.98623 0.61876 0.0
C1284 C 0.53331 0.98499 0.64621 0.0
C1285 C 0.56504 0.01128 0.66014 0.0
H1286 H 0.56981 0.98074 0.69113 0.0
C1287 C 0.59636 0.02537 0.71755 0.0
C1288 C 0.60592 0.01417 0.72361 0.0
C1289 C 0.58684 0.02195 0.7049 0.0
C1290 C 0.56872 0.98938 0.68254 0.0
H1291 H 0.54597 0.99857 0.60624 0.0
H1292 H 0.56211 1.00476 0.6285 0.0
H1293 H 0.55362 0.9749 0.66882 0.0
H1294 H 0.61279 0.99047 0.72093 0.0
H1295 H 0.5963 0.98457 0.69884 0.0
H1296 H 0.5804 0.02563 0.67368 0.0
C1297 C 0.55142 0.99841 0.63014 0.0
C1298 C 0.55925 0.98609 0.66981 0.0
C1299 C 0.54213 0.99487 0.61734 0.0
C1300 C 0.60559 0.99941 0.71666 0.0
C1301 C 0.59604 0.99598 0.704 0.0
C1302 C 0.5745 0.01457 0.67287 0.0
C1303 C 0.54719 0.99346 0.64477 0.0
C1304 C 0.55726 0.997 0.65841 0.0
C1305 C 0.58656 0.00723 0.6979 0.0
C1306 C 0.57648 1.00367 0.68428 0.0
H1307 H 0.5134 0.97497 0.63501 0.0
H1308 H 0.5295 0.98121 0.65729 0.0
H1309 H 0.5637 0.02004 0.65171 0.0
H1310 H 0.59624 0.03687 0.72254 0.0
H1311 H 0.57955 0.03086 0.70072 0.0
C1312 C 0.88983 0.24119 0.77095 0.0
C1313 C 0.8845 0.22688 0.765 0.0
C1314 C 0.90177 0.24215 0.78172 0.0
C1315 C 0.9235 0.21994 0.80997 0.0
H1316 H 0.95394 0.25263 0.80511 0.0
C1317 C 0.97883 0.22652 0.8479 0.0
C1318 C 0.98211 0.24148 0.85348 0.0
C1319 C 0.96732 0.22386 0.83675 0.0
C1320 C 0.94549 0.2435 0.80673 0.0
H1321 H 0.88741 0.2023 0.76611 0.0
H1322 H 0.90831 0.20397 0.78496 0.0
H1323 H 0.93284 0.2496 0.78687 0.0
H1324 H 0.97699 0.26547 0.85102 0.0
H1325 H 0.95704 0.26093 0.83168 0.0
H1326 H 0.93625 0.21395 0.82995 0.0
C1327 C 0.90315 0.21447 0.78131 0.0
C1328 C 0.93334 0.24177 0.79626 0.0
C1329 C 0.89115 0.21351 0.7705 0.0
C1330 C 0.97439 0.25378 0.84715 0.0
C1331 C 0.96307 0.25118 0.83595 0.0
C1332 C 0.93571 0.22167 0.82048 0.0
C1333 C 0.90877 0.22883 0.7869 0.0
C1334 C 0.92205 0.2301 0.79782 0.0
C1335 C 0.95924 0.23618 0.8307 0.0
C1336 C 0.94677 0.23359 0.81907 0.0
H1337 H 0.88476 0.25173 0.7673 0.0
H1338 H 0.90549 0.25339 0.78603 0.0
H1339 H 0.91496 0.2109 0.81162 0.0
H1340 H 0.98487 0.21688 0.85243 0.0
H1341 H 0.96481 0.21219 0.83282 0.0
C1342 C 0.47781 0.88546 0.49275 0.0
C1343 C 0.48498 0.89971 0.48983 0.0
C1344 C 0.48135 0.87231 0.48406 0.0
C1345 C 0.50986 0.85527 0.45731 0.0
H1346 H 0.47501 0.82915 0.44524 0.0
C1347 C 0.51323 0.80341 0.41318 0.0
C1348 C 0.50353 0.79064 0.41591 0.0
C1349 C 0.5125 0.81675 0.42258 0.0
C1350 C 0.48494 0.83615 0.44865 0.0
H1351 H 0.50187 0.91108 0.47559 0.0
H1352 H 0.50807 0.88808 0.46041 0.0
H1353 H 0.47088 0.85212 0.46079 0.0
H1354 H 0.48634 0.78148 0.43131 0.0
H1355 H 0.48541 0.80428 0.44776 0.0
H1356 H 0.52391 0.83915 0.44504 0.0
C1357 C 0.49975 0.8871 0.46953 0.0
C1358 C 0.48255 0.84939 0.4576 0.0
C1359 C 0.4962 0.9003 0.47826 0.0
C1360 C 0.49382 0.79118 0.42872 0.0
C1361 C 0.49319 0.80434 0.43811 0.0
C1362 C 0.51228 0.84192 0.44833 0.0
C1363 C 0.49216 0.87297 0.47214 0.0
C1364 C 0.49496 0.85907 0.46222 0.0
C1365 C 0.50212 0.81752 0.43492 0.0
C1366 C 0.49984 0.83207 0.44404 0.0
H1367 H 0.46938 0.88444 0.50178 0.0
H1368 H 0.47553 0.86158 0.48666 0.0
H1369 H 0.5197 0.86243 0.46068 0.0
H1370 H 0.52078 0.8034 0.40336 0.0
H1371 H 0.51956 0.82666 0.41976 0.0
C1372 C 0.14489 0.29314 0.78316 0.0
C1373 C 0.14225 0.30261 0.77068 0.0
C1374 C 0.1331 0.28977 0.79351 0.0
C1375 C 0.0951 0.30345 0.80728 0.0
H1376 H 0.09198 0.26297 0.82445 0.0
C1377 C 0.04308 0.28324 0.84411 0.0
C1378 C 0.04619 0.27387 0.85655 0.0
C1379 C 0.05477 0.28733 0.83387 0.0
C1380 C 0.09278 0.27441 0.81992 0.0
H1381 H 0.12488 0.31562 0.75918 0.0
H1382 H 0.10432 0.30964 0.77711 0.0
H1383 H 0.11211 0.26859 0.80601 0.0
H1384 H 0.06422 0.26185 0.86818 0.0
H1385 H 0.08455 0.26909 0.8505 0.0
H1386 H 0.07566 0.3092 0.82116 0.0
C1387 C 0.11561 0.30506 0.7791 0.0
C1388 C 0.10436 0.27764 0.80931 0.0
C1389 C 0.12742 0.30847 0.76877 0.0
C1390 C 0.06137 0.26904 0.85872 0.0
C1391 C 0.07303 0.27309 0.84848 0.0
C1392 C 0.08348 0.3002 0.81787 0.0
C1393 C 0.11829 0.29571 0.79167 0.0
C1394 C 0.10574 0.29223 0.80286 0.0
C1395 C 0.06987 0.2821 0.83577 0.0
C1396 C 0.08219 0.28565 0.8244 0.0
H1397 H 0.15621 0.28862 0.78517 0.0
H1398 H 0.13572 0.28274 0.80317 0.0
H1399 H 0.0959 0.31489 0.80276 0.0
H1400 H 0.03151 0.2871 0.84206 0.0
H1401 H 0.05186 0.29419 0.82417 0.0
C1402 C 0.52252 0.62706 0.49115 0.0
C1403 C 0.53767 0.62166 0.49151 0.0
C1404 C 0.5186 0.63919 0.48174 0.0
C1405 C 0.53195 0.66031 0.44756 0.0
H1406 H 0.50378 0.69126 0.46212 0.0
C1407 C 0.52159 0.71594 0.41435 0.0
C1408 C 0.50646 0.72137 0.4137 0.0
C1409 C 0.52531 0.70384 0.42386 0.0
C1410 C 0.51154 0.68264 0.45778 0.0
H1411 H 0.56048 0.62481 0.48193 0.0
H1412 H 0.55376 0.64606 0.4659 0.0
H1413 H 0.51029 0.67015 0.47853 0.0
H1414 H 0.4834 0.71811 0.42268 0.0
H1415 H 0.48986 0.69703 0.43909 0.0
H1416 H 0.53322 0.6728 0.42682 0.0
C1417 C 0.54483 0.64084 0.47277 0.0
C1418 C 0.51527 0.67049 0.46722 0.0
C1419 C 0.54875 0.62874 0.48217 0.0
C1420 C 0.49519 0.71434 0.42288 0.0
C1421 C 0.49892 0.70226 0.43239 0.0
C1422 C 0.52823 0.67246 0.43813 0.0
C1423 C 0.5297 0.64625 0.47239 0.0
C1424 C 0.52556 0.65915 0.46227 0.0
C1425 C 0.51403 0.69681 0.43301 0.0
C1426 C 0.51798 0.68382 0.4431 0.0
H1427 H 0.51368 0.62201 0.49825 0.0
H1428 H 0.50679 0.6429 0.48167 0.0
H1429 H 0.53969 0.65169 0.44321 0.0
H1430 H 0.53062 0.72103 0.40751 0.0
H1431 H 0.53711 0.70012 0.42416 0.0
C1432 C 0.88881 0.80819 0.74469 0.0
C1433 C 0.88701 0.7978 0.75664 0.0
C1434 C 0.90068 0.80647 0.73394 0.0
C1435 C 0.93829 0.78724 0.72866 0.0
H1436 H 0.93147 0.79335 0.68544 0.0
C1437 C 0.97645 0.76029 0.68243 0.0
C1438 C 0.98081 0.76881 0.66965 0.0
C1439 C 0.96601 0.76606 0.69309 0.0
C1440 C 0.93363 0.79184 0.6975 0.0
H1441 H 0.89594 0.77703 0.76613 0.0
H1442 H 0.91638 0.77401 0.74754 0.0
H1443 H 0.91094 0.7989 0.70375 0.0
H1444 H 0.97767 0.79024 0.65818 0.0
H1445 H 0.95908 0.80035 0.67689 0.0
H1446 H 0.96076 0.77975 0.72241 0.0
C1447 C 0.90896 0.78377 0.74665 0.0
C1448 C 0.92186 0.79501 0.70802 0.0
C1449 C 0.89717 0.7855 0.75735 0.0
C1450 C 0.97462 0.78345 0.66795 0.0
C1451 C 0.9639 0.78917 0.67858 0.0
C1452 C 0.94997 0.78402 0.71818 0.0
C1453 C 0.91102 0.79431 0.73487 0.0
C1454 C 0.92391 0.79239 0.72371 0.0
C1455 C 0.95945 0.78048 0.69126 0.0
C1456 C 0.94769 0.78593 0.70244 0.0
H1457 H 0.88126 0.81785 0.74382 0.0
H1458 H 0.90194 0.81486 0.72509 0.0
H1459 H 0.94049 0.78548 0.74067 0.0
H1460 H 0.981 0.74899 0.68415 0.0
H1461 H 0.96274 0.75898 0.70259 0.0
C1462 C 0.04485 0.89905 0.54466 0.0
C1463 C 0.03594 0.90183 0.5316 0.0
C1464 C 0.04102 0.88701 0.55432 0.0
C1465 C 0.01951 0.84987 0.55554 0.0
H1466 H 0.02443 0.85583 0.59936 0.0
C1467 C 1.00375 0.80178 0.59809 0.0
C1468 C 0.01393 0.79996 0.61042 0.0
C1469 C 1.00513 0.81457 0.58872 0.0
C1470 C 0.02312 0.85388 0.58715 0.0
H1471 H 0.01589 0.89397 0.51855 0.0
H1472 H 0.0091 0.87298 0.5355 0.0
H1473 H 0.02926 0.87724 0.58258 0.0
H1474 H 0.03343 0.81035 0.62264 0.0
H1475 H 0.03593 0.83244 0.60634 0.0
H1476 H 0.01359 0.82643 0.56011 0.0
C1477 C 0.01917 0.88011 0.53819 0.0
C1478 C 0.02589 0.8662 0.5775 0.0
C1479 C 0.02297 0.89225 0.52854 0.0
C1480 C 0.02532 0.81139 0.61331 0.0
C1481 C 0.02671 0.82415 0.60396 0.0
C1482 C 0.01677 0.8375 0.56521 0.0
C1483 C 0.02815 0.87733 0.55123 0.0
C1484 C 0.02431 0.86434 0.56153 0.0
C1485 C 0.01672 0.8259 0.59145 0.0
C1486 C 0.01872 0.83928 0.58115 0.0
H1487 H 0.05479 0.90628 0.54753 0.0
H1488 H 0.04832 0.88515 0.56412 0.0
H1489 H 0.01832 0.84794 0.54331 0.0
H1490 H 0.99484 0.7932 0.59553 0.0
H1491 H 0.9971 0.81559 0.57933 0.0
C1492 C 0.13024 0.70787 0.74833 0.0
C1493 C 0.14321 0.71777 0.74971 0.0
C1494 C 0.11789 0.71137 0.73879 0.0
C1495 C 0.10783 0.73465 0.70541 0.0
H1496 H 0.06593 0.72521 0.71769 0.0
C1497 C 0.05474 0.75133 0.66917 0.0
C1498 C 0.04246 0.74054 0.66795 0.0
C1499 C 0.06699 0.74919 0.67934 0.0
C1500 C 0.07756 0.72778 0.71399 0.0
H1501 H 0.15322 0.73923 0.74208 0.0
H1502 H 0.13159 0.74547 0.72562 0.0
H1503 H 0.08715 0.72049 0.73511 0.0
H1504 H 0.03366 0.71892 0.67655 0.0
H1505 H 0.05495 0.71518 0.69406 0.0
H1506 H 0.09822 0.74187 0.68424 0.0
C1507 C 0.13104 0.73488 0.73182 0.0
C1508 C 0.08976 0.72507 0.72401 0.0
C1509 C 0.14339 0.73139 0.74141 0.0
C1510 C 0.04282 0.72755 0.67717 0.0
C1511 C 0.05503 0.72543 0.68733 0.0
C1512 C 0.09562 0.73737 0.69538 0.0
C1513 C 0.11814 0.72488 0.73032 0.0
C1514 C 0.10509 0.72835 0.71983 0.0
C1515 C 0.06729 0.73622 0.6886 0.0
C1516 C 0.08031 0.73385 0.69948 0.0
H1517 H 0.12958 0.69736 0.75466 0.0
H1518 H 0.10825 0.7033 0.73784 0.0
H1519 H 0.11947 0.73714 0.70169 0.0
H1520 H 0.05489 0.76149 0.6623 0.0
H1521 H 0.07613 0.75782 0.68009 0.0
C1522 C 1.00435 0.62433 0.5337 0.0
C1523 C 0.98926 0.62197 0.5281 0.0
C1524 C 0.00844 0.6377 0.5422 0.0
C1525 C 0.99546 0.67747 0.5514 0.0
H1526 H 0.02165 0.67412 0.58706 0.0
C1527 C 0.99996 0.72489 0.59876 0.0
C1528 C 0.01416 0.72762 0.60614 0.0
C1529 C 0.99808 0.71278 0.58805 0.0
C1530 C 0.01447 0.67532 0.57704 0.0
H1531 H 0.9668 0.63224 0.52666 0.0
H1532 H 0.97376 0.65521 0.54167 0.0
H1533 H 0.01614 0.65148 0.57083 0.0
H1534 H 0.03788 0.72076 0.60726 0.0
H1535 H 0.03463 0.69936 0.58861 0.0
H1536 H 0.99355 0.70124 0.55779 0.0
C1537 C 0.98254 0.64683 0.53943 0.0
C1538 C 0.01132 0.66231 0.56769 0.0
C1539 C 0.97847 0.6335 0.53095 0.0
C1540 C 0.02673 0.71862 0.60195 0.0
C1541 C 0.02483 0.70636 0.59134 0.0
C1542 C 0.99855 0.69045 0.56079 0.0
C1543 C 0.99755 0.6491 0.54528 0.0
C1544 C 1.00163 0.66315 0.55481 0.0
C1545 C 0.0104 0.70314 0.5844 0.0
C1546 C 0.00796 0.68953 0.57384 0.0
H1547 H 0.01295 0.61568 0.53185 0.0
H1548 H 0.02016 0.63909 0.54634 0.0
H1549 H 0.98822 0.6787 0.54143 0.0
H1550 H 0.9902 0.73196 0.6015 0.0
H1551 H 0.9868 0.71065 0.58305 0.0
C1552 C 0.78896 0.88021 0.21446 0.0
C1553 C 0.77289 0.88094 0.21624 0.0
C1554 C 0.79851 0.89299 0.21787 0.0
C1555 C 0.79986 0.93039 0.23926 0.0
H1556 H 0.83487 0.93858 0.21313 0.0
C1557 C 0.85074 0.98009 0.22937 0.0
C1558 C 0.85549 0.98268 0.24457 0.0
C1559 C 0.83989 0.96839 0.22568 0.0
C1560 C 0.82506 0.93658 0.22047 0.0
H1561 H 0.75436 0.89583 0.22311 0.0
H1562 H 0.77101 0.91815 0.22905 0.0
H1563 H 0.81762 0.91681 0.20715 0.0
H1564 H 0.85164 0.97627 0.26799 0.0
H1565 H 0.83287 0.95583 0.26164 0.0
H1566 H 0.80721 0.95028 0.25247 0.0
C1567 C 0.77625 0.9076 0.22516 0.0
C1568 C 0.81526 0.92394 0.21715 0.0
C1569 C 0.76667 0.89478 0.22176 0.0
C1570 C 0.84847 0.97415 0.25612 0.0
C1571 C 0.83757 0.96257 0.25248 0.0
C1572 C 0.80968 0.94302 0.24259 0.0
C1573 C 0.7923 0.90692 0.22317 0.0
C1574 C 0.80255 0.92061 0.22655 0.0
C1575 C 0.83332 0.95933 0.23718 0.0
C1576 C 0.82246 0.94625 0.23328 0.0
H1577 H 0.79421 0.86967 0.21054 0.0
H1578 H 0.81082 0.89189 0.2165 0.0
H1579 H 0.79029 0.92814 0.24684 0.0
H1580 H 0.85574 0.98679 0.22032 0.0
H1581 H 0.83668 0.96643 0.21381 0.0
C1582 C 0.77349 0.13651 0.29019 0.0
C1583 C 0.77357 0.14398 0.30464 0.0
C1584 C 0.78328 0.12423 0.28709 0.0
C1585 C 0.80741 0.09525 0.30596 0.0
H1586 H 0.82773 0.0931 0.26664 0.0
C1587 C 0.84463 0.04352 0.28647 0.0
C1588 C 0.85785 0.04673 0.27779 0.0
C1589 C 0.8343 0.05517 0.29027 0.0
C1590 C 0.82226 0.09357 0.27774 0.0
H1591 H 0.78376 0.14391 0.32732 0.0
H1592 H 0.80095 0.12282 0.32185 0.0
H1593 H 0.80976 0.11356 0.27208 0.0
H1594 H 0.87081 0.06485 0.26676 0.0
H1595 H 0.85304 0.0851 0.27358 0.0
H1596 H 0.82019 0.07543 0.31172 0.0
C1597 C 0.79326 0.12636 0.3129 0.0
C1598 C 0.81176 0.10521 0.28079 0.0
C1599 C 0.78351 0.13863 0.31598 0.0
C1600 C 0.86072 0.06193 0.2734 0.0
C1601 C 0.85043 0.07355 0.27721 0.0
C1602 C 0.81791 0.08357 0.3029 0.0
C1603 C 0.79338 0.11903 0.29837 0.0
C1604 C 0.80423 0.10628 0.29497 0.0
C1605 C 0.83694 0.07031 0.28548 0.0
C1606 C 0.82556 0.08262 0.28877 0.0
H1607 H 0.76608 0.14034 0.28114 0.0
H1608 H 0.78289 0.11877 0.27583 0.0
H1609 H 0.80172 0.09557 0.31695 0.0
H1610 H 0.84202 0.03193 0.28996 0.0
H1611 H 0.824 0.05218 0.29656 0.0
C1612 C 0.38963 0.99239 0.98375 0.0
C1613 C 0.40374 0.98868 0.99051 0.0
C1614 C 0.37618 0.98389 0.9868 0.0
C1615 C 0.35809 0.95668 0.01374 0.0
H1616 H 0.33219 0.94586 0.97878 0.0
C1617 C 0.30564 0.91315 0.01576 0.0
C1618 C 0.29305 0.91604 0.00619 0.0
C1619 C 0.31907 0.92248 0.01528 0.0
C1620 C 0.33911 0.94894 0.98876 0.0
H1621 H 0.41452 0.97337 0.00628 0.0
H1622 H 0.39102 0.95848 0.01153 0.0
H1623 H 0.35548 0.96121 0.97526 0.0
H1624 H 0.28426 0.93162 0.98951 0.0
H1625 H 0.30718 0.94799 0.98907 0.0
H1626 H 0.34157 0.94436 0.02724 0.0
C1627 C 0.3904 0.968 1.00386 0.0
C1628 C 0.35254 0.95777 0.98671 0.0
C1629 C 0.40391 0.97646 1.00073 0.0
C1630 C 0.29383 0.92893 0.99687 0.0
C1631 C 0.30707 0.93827 0.99652 0.0
C1632 C 0.34454 0.94787 0.01582 0.0
C1633 C 0.37639 0.97146 0.99675 0.0
C1634 C 0.36217 0.96187 0.99916 0.0
C1635 C 0.3201 0.93492 1.00531 0.0
C1636 C 0.33478 0.944 1.00336 0.0
H1637 H 0.38905 1.0016 0.97572 0.0
H1638 H 0.36557 0.98702 0.98126 0.0
H1639 H 0.3652 0.95968 0.02361 0.0
H1640 H 0.30544 0.90326 0.02299 0.0
H1641 H 0.32885 0.91952 0.02222 0.0
C1642 C 0.25582 0.39311 0.2822 0.0
C1643 C 0.2568 0.38472 0.29569 0.0
C1644 C 0.24431 0.40389 0.28032 0.0
C1645 C 0.21678 0.42824 0.30165 0.0
H1646 H 0.19747 0.43112 0.26185 0.0
C1647 C 0.17839 0.47922 0.28478 0.0
C1648 C 0.16566 0.47596 0.27516 0.0
C1649 C 0.18878 0.46771 0.28832 0.0
C1650 C 0.20261 0.43041 0.27309 0.0
H1651 H 0.24631 0.38125 0.31781 0.0
H1652 H 0.22608 0.39998 0.31444 0.0
H1653 H 0.21666 0.41171 0.26592 0.0
H1654 H 0.15362 0.45783 0.26219 0.0
H1655 H 0.17154 0.43783 0.26846 0.0
H1656 H 0.20259 0.44693 0.30882 0.0
C1657 C 0.23436 0.39827 0.30537 0.0
C1658 C 0.21379 0.41936 0.27538 0.0
C1659 C 0.24587 0.38741 0.30723 0.0
C1660 C 0.16332 0.4608 0.26957 0.0
C1661 C 0.17369 0.44932 0.27309 0.0
C1662 C 0.20562 0.43936 0.29934 0.0
C1663 C 0.2334 0.40664 0.29185 0.0
C1664 C 0.2211 0.41816 0.28966 0.0
C1665 C 0.18672 0.45266 0.28229 0.0
C1666 C 0.19839 0.44062 0.28501 0.0
H1667 H 0.26388 0.39124 0.27297 0.0
H1668 H 0.24408 0.4102 0.26983 0.0
H1669 H 0.22224 0.42774 0.31277 0.0
H1670 H 0.18057 0.49078 0.28925 0.0
H1671 H 0.19872 0.47076 0.29535 0.0
C1672 C 0.12282 0.04427 0.47782 0.0
C1673 C 0.12074 0.02952 0.48376 0.0
C1674 C 0.13599 0.05319 0.48135 0.0
C1675 C 0.16891 0.05789 0.50849 0.0
H1676 H 0.18673 0.08066 0.47526 0.0
C1677 C 0.21765 0.10414 0.51855 0.0
C1678 C 0.22761 0.10743 0.50643 0.0
C1679 C 0.20523 0.0937 0.51639 0.0
C1680 C 0.18208 0.07439 0.48474 0.0
H1681 H 0.1309 0.01281 0.49844 0.0
H1682 H 0.15398 0.0284 0.50461 0.0
H1683 H 0.16404 0.0647 0.47064 0.0
H1684 H 0.23349 0.1013 0.48312 0.0
H1685 H 0.2125 0.08262 0.47947 0.0
H1686 H 0.18719 0.06738 0.52253 0.0
C1687 C 0.1453 0.03309 0.49726 0.0
C1688 C 0.16885 0.06529 0.48208 0.0
C1689 C 0.13206 0.02413 0.49372 0.0
C1690 C 0.22566 0.0993 0.4925 0.0
C1691 C 0.21351 0.08864 0.49041 0.0
C1692 C 0.18219 0.06708 0.51118 0.0
C1693 C 0.14755 0.04766 0.49094 0.0
C1694 C 0.16196 0.05701 0.49392 0.0
C1695 C 0.20281 0.08594 0.50217 0.0
C1696 C 0.18894 0.0756 0.49936 0.0
H1697 H 0.1142 0.04898 0.47042 0.0
H1698 H 0.1371 0.06449 0.47656 0.0
H1699 H 0.16393 0.0517 0.5179 0.0
H1700 H 0.21909 0.11012 0.52949 0.0
H1701 H 0.19728 0.09214 0.52573 0.0
C1702 C 0.74837 0.13063 0.71402 0.0
C1703 C 0.75518 0.13823 0.72683 0.0
C1704 C 0.7377 0.1185 0.71583 0.0
C1705 C 0.71124 0.10166 0.74452 0.0
H1706 H 0.71161 0.06554 0.71774 0.0
C1707 C 0.67418 0.04805 0.7578 0.0
C1708 C 0.66723 0.03973 0.74559 0.0
C1709 C 0.68508 0.0597 0.7551 0.0
C1710 C 0.71117 0.07561 0.72522 0.0
H1711 H 0.75635 0.13854 0.75161 0.0
H1712 H 0.73785 0.11754 0.75474 0.0
H1713 H 0.72999 0.08659 0.71369 0.0
H1714 H 0.66689 0.03629 0.72104 0.0
H1715 H 0.68558 0.05706 0.71615 0.0
H1716 H 0.69263 0.09078 0.75616 0.0
C1717 C 0.74048 0.12115 0.74328 0.0
C1718 C 0.72176 0.08772 0.72289 0.0
C1719 C 0.75112 0.13324 0.74147 0.0
C1720 C 0.67192 0.04276 0.73062 0.0
C1721 C 0.68271 0.05459 0.72787 0.0
C1722 C 0.7007 0.08959 0.74686 0.0
C1723 C 0.73355 0.11364 0.7305 0.0
C1724 C 0.72201 0.10087 0.73258 0.0
C1725 C 0.68934 0.06336 0.74009 0.0
C1726 C 0.70052 0.07633 0.7373 0.0
H1727 H 0.75109 0.13423 0.70257 0.0
H1728 H 0.73249 0.11312 0.70572 0.0
H1729 H 0.71085 0.1117 0.75205 0.0
H1730 H 0.67112 0.04556 0.76948 0.0
H1731 H 0.69018 0.06581 0.76486 0.0
C1732 C 0.38661 0.02971 0.53908 0.0
C1733 C 0.40077 0.03085 0.53137 0.0
C1734 C 0.37433 0.03905 0.53531 0.0
C1735 C 0.35908 0.06417 0.50528 0.0
H1736 H 0.33609 0.08176 0.53908 0.0
C1737 C 0.30251 0.09832 0.49753 0.0
C1738 C 0.30036 0.11112 0.50737 0.0
C1739 C 0.31508 0.08868 0.49954 0.0
C1740 C 0.34243 0.07705 0.52948 0.0
H1741 H 0.41283 0.04267 0.51332 0.0
H1742 H 0.39137 0.05892 0.50669 0.0
H1743 H 0.35711 0.0646 0.54418 0.0
H1744 H 0.3101 0.12405 0.52674 0.0
H1745 H 0.33193 0.10742 0.53014 0.0
H1746 H 0.34442 0.07684 0.4906 0.0
C1747 C 0.38976 0.05067 0.51562 0.0
C1748 C 0.3544 0.06703 0.53241 0.0
C1749 C 0.40209 0.04132 0.51943 0.0
C1750 C 0.31132 0.11427 0.51897 0.0
C1751 C 0.32381 0.10465 0.521 0.0
C1752 C 0.34701 0.07416 0.50234 0.0
C1753 C 0.37578 0.04983 0.52368 0.0
C1754 C 0.36292 0.06044 0.52037 0.0
C1755 C 0.32575 0.09157 0.51148 0.0
C1756 C 0.33856 0.0808 0.51442 0.0
H1757 H 0.385 0.02157 0.54811 0.0
H1758 H 0.36365 0.03782 0.54155 0.0
H1759 H 0.36529 0.05924 0.49571 0.0
H1760 H 0.29428 0.09552 0.4885 0.0
H1761 H 0.31614 0.07869 0.49203 0.0
C1762 C 0.62772 0.49313 0.52304 0.0
C1763 C 0.62189 0.49384 0.53803 0.0
C1764 C 0.64016 0.48376 0.51932 0.0
C1765 C 0.67272 0.46328 0.53687 0.0
H1766 H 0.67286 0.44051 0.49822 0.0
C1767 C 0.71769 0.41663 0.52315 0.0
C1768 C 0.72356 0.41572 0.50818 0.0
C1769 C 0.7054 0.42623 0.52676 0.0
C1770 C 0.67313 0.44692 0.509 0.0
H1771 H 0.62451 0.48482 0.56075 0.0
H1772 H 0.6461 0.46859 0.5543 0.0
H1773 H 0.65141 0.4571 0.50444 0.0
H1774 H 0.72095 0.42439 0.4853 0.0
H1775 H 0.69975 0.44116 0.49162 0.0
H1776 H 0.69442 0.4531 0.54144 0.0
C1777 C 0.64126 0.47551 0.54545 0.0
C1778 C 0.66079 0.45646 0.51256 0.0
C1779 C 0.62884 0.48486 0.54916 0.0
C1780 C 0.71679 0.42472 0.49695 0.0
C1781 C 0.7045 0.4343 0.50056 0.0
C1782 C 0.68506 0.45374 0.5333 0.0
C1783 C 0.64712 0.47482 0.53048 0.0
C1784 C 0.66039 0.46477 0.52657 0.0
C1785 C 0.69861 0.4352 0.51551 0.0
C1786 C 0.68544 0.4454 0.51932 0.0
H1787 H 0.62282 0.50001 0.51419 0.0
H1788 H 0.64446 0.48371 0.50772 0.0
H1789 H 0.67298 0.46967 0.54766 0.0
H1790 H 0.72253 0.40987 0.53212 0.0
H1791 H 0.70108 0.42645 0.53835 0.0
C1792 C 0.70462 0.27604 0.39206 0.0
C1793 C 0.71637 0.26969 0.383 0.0
C1794 C 0.70815 0.2855 0.40483 0.0
C1795 C 0.73965 0.31023 0.42136 0.0
H1796 H 0.71469 0.3093 0.45796 0.0
C1797 C 0.75591 0.34761 0.47469 0.0
C1798 C 0.74397 0.3544 0.48301 0.0
C1799 C 0.7527 0.33651 0.46321 0.0
C1800 C 0.72169 0.30988 0.44778 0.0
H1801 H 0.74113 0.26824 0.38059 0.0
H1802 H 0.74728 0.28442 0.40304 0.0
H1803 H 0.70894 0.29134 0.43679 0.0
H1804 H 0.71939 0.3543 0.48663 0.0
H1805 H 0.71357 0.33529 0.46617 0.0
H1806 H 0.75247 0.32861 0.43227 0.0
C1807 C 0.7353 0.28228 0.40011 0.0
C1808 C 0.71839 0.29952 0.4356 0.0
C1809 C 0.73176 0.27281 0.38732 0.0
C1810 C 0.72876 0.34938 0.48017 0.0
C1811 C 0.72549 0.3384 0.46852 0.0
C1812 C 0.74297 0.32053 0.43353 0.0
C1813 C 0.72354 0.28889 0.40897 0.0
C1814 C 0.72729 0.2996 0.42218 0.0
C1815 C 0.73741 0.3319 0.45975 0.0
C1816 C 0.73399 0.32061 0.4469 0.0
H1817 H 0.69263 0.27373 0.38926 0.0
H1818 H 0.69877 0.29046 0.41125 0.0
H1819 H 0.74662 0.31085 0.41115 0.0
H1820 H 0.7678 0.35093 0.47704 0.0
H1821 H 0.76225 0.33155 0.45708 0.0
C1822 C 0.54927 0.03332 0.90082 0.0
C1823 C 0.53386 0.02828 0.90238 0.0
C1824 C 0.55768 0.02963 0.88764 0.0
C1825 C 0.55252 0.01848 0.84682 0.0
H1826 H 0.59615 0.01027 0.84895 0.0
C1827 C 0.59286 0.02513 0.79524 0.0
C1828 C 0.60507 0.01496 0.79303 0.0
C1829 C 0.58353 0.02438 0.80818 0.0
C1830 C 0.58393 0.01234 0.84813 0.0
H1831 H 0.51541 0.01501 0.89123 0.0
H1832 H 0.53003 0.00868 0.86823 0.0
H1833 H 0.58138 0.0133 0.87251 0.0
H1834 H 0.61672 0.99571 0.80266 0.0
H1835 H 0.60034 0.99439 0.82542 0.0
H1836 H 0.55507 0.01763 0.82247 0.0
C1837 C 0.53556 0.01565 0.87718 0.0
C1838 C 0.57549 0.01427 0.86166 0.0
C1839 C 0.52716 0.01931 0.89039 0.0
C1840 C 0.60738 1.00366 0.80395 0.0
C1841 C 0.59808 1.00301 0.81706 0.0
C1842 C 0.56096 0.01661 0.83331 0.0
C1843 C 0.55092 0.02083 0.87558 0.0
C1844 C 0.55971 0.01761 0.8612 0.0
C1845 C 0.58614 0.01349 0.81941 0.0
C1846 C 0.57684 0.01377 0.83377 0.0
H1847 H 0.55479 0.04049 0.90963 0.0
H1848 H 0.56937 0.03407 0.88674 0.0
H1849 H 0.54043 0.02114 0.84596 0.0
H1850 H 0.59067 0.03397 0.78708 0.0
H1851 H 0.5746 0.03276 0.80963 0.0
C1852 C 0.30914 0.25876 0.39647 0.0
C1853 C 0.30069 0.25774 0.3827 0.0
C1854 C 0.30767 0.24731 0.40739 0.0
C1855 C 0.29291 0.207 0.41217 0.0
H1856 H 0.29187 0.21853 0.45526 0.0
C1857 C 0.26338 0.16974 0.45688 0.0
C1858 C 0.27057 0.16755 0.47108 0.0
C1859 C 0.2696 0.1799 0.44639 0.0
C1860 C 0.29239 0.2151 0.44329 0.0
H1861 H 0.28384 0.24392 0.36985 0.0
H1862 H 0.28109 0.2242 0.38883 0.0
H1863 H 0.29754 0.23805 0.43638 0.0
H1864 H 0.29014 0.1744 0.48528 0.0
H1865 H 0.30095 0.19265 0.46688 0.0
H1866 H 0.28711 0.18419 0.41906 0.0
C1867 C 0.28921 0.23359 0.3911 0.0
C1868 C 0.29564 0.22629 0.43243 0.0
C1869 C 0.29076 0.24496 0.38016 0.0
C1870 C 0.28436 0.17575 0.47443 0.0
C1871 C 0.29049 0.18624 0.46394 0.0
C1872 C 0.28953 0.19589 0.42299 0.0
C1873 C 0.29764 0.23456 0.4049 0.0
C1874 C 0.29561 0.22247 0.41666 0.0
C1875 C 0.28312 0.18842 0.4498 0.0
C1876 C 0.28891 0.19984 0.43866 0.0
H1877 H 0.31701 0.26835 0.39875 0.0
H1878 H 0.31451 0.2484 0.41775 0.0
H1879 H 0.29319 0.20346 0.40022 0.0
H1880 H 0.25274 0.16368 0.45385 0.0
H1881 H 0.26353 0.18141 0.43572 0.0
C1882 C 0.49504 0.49796 0.89226 0.0
C1883 C 0.48845 0.48824 0.90319 0.0
C1884 C 0.48673 0.50196 0.87923 0.0
C1885 C 0.44698 0.50306 0.86306 0.0
H1886 H 0.46792 0.50219 0.82402 0.0
C1887 C 0.41545 0.51602 0.80603 0.0
C1888 C 0.41805 0.50532 0.79405 0.0
C1889 C 0.42465 0.5162 0.81931 0.0
C1890 C 0.46188 0.50252 0.83482 0.0
H1891 H 0.46781 0.47506 0.90868 0.0
H1892 H 0.45338 0.48211 0.88614 0.0
H1893 H 0.48238 0.49782 0.84737 0.0
H1894 H 0.43286 0.48694 0.78641 0.0
H1895 H 0.44878 0.48736 0.80926 0.0
H1896 H 0.42637 0.50728 0.8504 0.0
C1897 C 0.46491 0.48684 0.88775 0.0
C1898 C 0.47022 0.50014 0.84826 0.0
C1899 C 0.47323 0.4828 0.90074 0.0
C1900 C 0.43046 0.49532 0.7954 0.0
C1901 C 0.43969 0.49562 0.80852 0.0
C1902 C 0.43865 0.50552 0.8496 0.0
C1903 C 0.47156 0.49641 0.87675 0.0
C1904 C 0.46285 0.50011 0.86256 0.0
C1905 C 0.43678 0.50585 0.8208 0.0
C1906 C 0.44593 0.505 0.83527 0.0
H1907 H 0.50662 0.5026 0.89381 0.0
H1908 H 0.49217 0.50951 0.87112 0.0
H1909 H 0.44094 0.50333 0.87386 0.0
H1910 H 0.40595 0.52382 0.80542 0.0
H1911 H 0.42215 0.52433 0.8285 0.0
C1912 C 0.70995 0.75175 0.12495 0.0
C1913 C 0.7186 0.7506 0.13848 0.0
C1914 C 0.71299 0.74234 0.11211 0.0
C1915 C 0.73193 0.70583 0.10081 0.0
H1916 H 0.7281 0.72125 0.05984 0.0
C1917 C 0.75067 0.67047 0.04735 0.0
C1918 C 0.74098 0.67043 0.03441 0.0
C1919 C 0.74822 0.68052 0.05981 0.0
C1920 C 0.72908 0.71671 0.07119 0.0
H1921 H 0.73758 0.7389 0.14888 0.0
H1922 H 0.74299 0.72266 0.12653 0.0
H1923 H 0.72352 0.73828 0.08185 0.0
H1924 H 0.7211 0.6812 0.02455 0.0
H1925 H 0.71685 0.6987 0.04628 0.0
H1926 H 0.73757 0.68429 0.09014 0.0
C1927 C 0.7336 0.73059 0.1259 0.0
C1928 C 0.72643 0.72649 0.08385 0.0
C1929 C 0.73052 0.73994 0.13875 0.0
C1930 C 0.72885 0.68089 0.03426 0.0
C1931 C 0.72644 0.691 0.04671 0.0
C1932 C 0.73464 0.69609 0.08816 0.0
C1933 C 0.7248 0.73155 0.11242 0.0
C1934 C 0.7278 0.72119 0.09886 0.0
C1935 C 0.73603 0.69089 0.05971 0.0
C1936 C 0.73324 0.70137 0.07317 0.0
H1937 H 0.70055 0.75967 0.12438 0.0
H1938 H 0.7058 0.7433 0.10206 0.0
H1939 H 0.73281 0.7012 0.11213 0.0
H1940 H 0.76015 0.66264 0.04793 0.0
H1941 H 0.75597 0.68024 0.06952 0.0
C1942 C 0.99368 0.02397 0.12794 0.0
C1943 C 0.99337 0.03884 0.12203 0.0
C1944 C 0.98466 0.02006 0.14058 0.0
C1945 C 0.96351 0.0373 0.17349 0.0
H1946 H 0.94266 0.99756 0.17421 0.0
C1947 C 0.91765 0.02267 0.21921 0.0
C1948 C 0.91722 0.00773 0.22495 0.0
C1949 C 0.92717 0.02638 0.20687 0.0
C1950 C 0.94855 0.00864 0.17433 0.0
H1951 H 0.98289 0.06111 0.12478 0.0
H1952 H 0.96732 0.05434 0.14676 0.0
H1953 H 0.95879 1.00406 0.15248 0.0
H1954 H 0.92669 0.985 0.22208 0.0
H1955 H 0.94337 0.99151 0.2008 0.0
H1956 H 0.9533 0.04189 0.19533 0.0
C1957 C 0.97475 0.04575 0.14179 0.0
C1958 C 0.95782 0.01237 0.16182 0.0
C1959 C 0.98373 0.04965 0.12914 0.0
C1960 C 0.92665 0.99663 0.21802 0.0
C1961 C 0.93618 1.00034 0.20569 0.0
C1962 C 0.95427 0.03356 0.18601 0.0
C1963 C 0.97507 0.03091 0.1477 0.0
C1964 C 0.9654 0.02678 0.16119 0.0
C1965 C 0.93655 0.01526 0.1999 0.0
C1966 C 0.9466 0.01919 0.1866 0.0
H1967 H 1.00109 0.01539 0.12293 0.0
H1968 H 0.98538 0.00858 0.14492 0.0
H1969 H 0.96936 0.04841 0.17356 0.0
H1970 H 0.91053 0.03154 0.22415 0.0
H1971 H 0.92695 0.03793 0.20263 0.0
C1972 C 0.28556 0.78225 0.1448 0.0
C1973 C 0.29353 0.76863 0.14183 0.0
C1974 C 0.28416 0.79329 0.13356 0.0
C1975 C 0.30034 0.80601 0.09637 0.0
H1976 H 0.26122 0.8262 0.09305 0.0
C1977 C 0.28374 0.84336 0.0447 0.0
C1978 C 0.27491 0.85642 0.04774 0.0
C1979 C 0.2871 0.83317 0.05636 0.0
C1980 C 0.27231 0.82084 0.09391 0.0
H1981 H 0.30635 0.75605 0.12458 0.0
H1982 H 0.30383 0.77523 0.10495 0.0
H1983 H 0.26491 0.80754 0.11284 0.0
H1984 H 0.26321 0.86927 0.06562 0.0
H1985 H 0.26921 0.8517 0.08587 0.0
H1986 H 0.30763 0.81925 0.07726 0.0
C1987 C 0.29885 0.77751 0.11608 0.0
C1988 C 0.27444 0.81011 0.10531 0.0
C1989 C 0.30029 0.76648 0.12736 0.0
C1990 C 0.26998 0.8593 0.06282 0.0
C1991 C 0.27332 0.84913 0.07444 0.0
C1992 C 0.29819 0.81675 0.08492 0.0
C1993 C 0.29063 0.79102 0.11896 0.0
C1994 C 0.28849 0.80254 0.10676 0.0
C1995 C 0.28167 0.83576 0.07134 0.0
C1996 C 0.28415 0.82435 0.08356 0.0
H1997 H 0.28044 0.78445 0.15589 0.0
H1998 H 0.27803 0.80367 0.13636 0.0
H1999 H 0.31139 0.80058 0.09721 0.0
H2000 H 0.28767 0.84076 0.03321 0.0
H2001 H 0.29348 0.82296 0.0535 0.0
C2002 C 0.0419 0.49536 0.11782 0.0
C2003 C 0.02827 0.48648 0.11916 0.0
C2004 C 0.05115 0.49892 0.13065 0.0
C2005 C 0.05923 0.48636 0.17019 0.0
H2006 H 0.07978 0.52618 0.17433 0.0
C2007 C 0.10548 0.50003 0.21706 0.0
C2008 C 0.10565 0.51476 0.22407 0.0
C2009 C 0.09594 0.49655 0.20442 0.0
C2010 C 0.07404 0.51504 0.17346 0.0
H2011 H 0.01354 0.47476 0.13528 0.0
H2012 H 0.02956 0.48104 0.15762 0.0
H2013 H 0.06312 0.52052 0.15237 0.0
H2014 H 0.09566 0.53733 0.22316 0.0
H2015 H 0.07897 0.53121 0.20136 0.0
H2016 H 0.06992 0.48101 0.19145 0.0
C2017 C 0.03329 0.48501 0.14658 0.0
C2018 C 0.06461 0.51171 0.16072 0.0
C2019 C 0.02406 0.48142 0.13374 0.0
C2020 C 0.09592 0.52586 0.21811 0.0
C2021 C 0.08639 0.52238 0.20548 0.0
C2022 C 0.06867 0.48969 0.18294 0.0
C2023 C 0.04702 0.49374 0.14522 0.0
C2024 C 0.05705 0.49732 0.15888 0.0
C2025 C 0.08629 0.50769 0.1984 0.0
C2026 C 0.07622 0.50409 0.18477 0.0
H2027 H 0.04567 0.49925 0.10676 0.0
H2028 H 0.06173 0.50546 0.12906 0.0
H2029 H 0.05377 0.47509 0.16913 0.0
H2030 H 0.11282 0.49117 0.22126 0.0
H2031 H 0.09633 0.48516 0.19919 0.0
C2032 C 0.40168 0.72703 0.25784 0.0
C2033 C 0.38634 0.72442 0.26238 0.0
C2034 C 0.41361 0.72802 0.26863 0.0
C2035 C 0.42423 0.719 0.30854 0.0
H2036 H 0.45459 0.75172 0.30343 0.0
C2037 C 0.47433 0.7539 0.34587 0.0
C2038 C 0.48212 0.74175 0.35242 0.0
C2039 C 0.46312 0.75105 0.3346 0.0
C2040 C 0.4462 0.74254 0.30506 0.0
H2041 H 0.37168 0.72045 0.28195 0.0
H2042 H 0.39253 0.72214 0.30079 0.0
H2043 H 0.43395 0.74796 0.28473 0.0
H2044 H 0.4851 0.71718 0.35172 0.0
H2045 H 0.46521 0.71206 0.33203 0.0
H2046 H 0.43644 0.71381 0.3291 0.0
C2047 C 0.39532 0.72331 0.28882 0.0
C2048 C 0.43443 0.74028 0.29424 0.0
C2049 C 0.38335 0.72234 0.278 0.0
C2050 C 0.479 0.7267 0.34702 0.0
C2051 C 0.4676 0.72379 0.33583 0.0
C2052 C 0.43611 0.72121 0.31935 0.0
C2053 C 0.41058 0.72641 0.28429 0.0
C2054 C 0.42325 0.72851 0.29582 0.0
C2055 C 0.45947 0.73595 0.32954 0.0
C2056 C 0.44719 0.73307 0.31778 0.0
H2057 H 0.4045 0.72834 0.24589 0.0
H2058 H 0.42524 0.73008 0.26467 0.0
H2059 H 0.41589 0.70976 0.31008 0.0
H2060 H 0.4768 0.76565 0.3496 0.0
H2061 H 0.45705 0.76068 0.33011 0.0
C2062 C 0.98068 0.38656 0.99291 0.0
C2063 C 0.98755 0.4007 0.98906 0.0
C2064 C 0.98376 0.37313 0.98445 0.0
C2065 C 0.01113 0.35532 0.95707 0.0
H2066 H 0.97607 0.32869 0.94693 0.0
C2067 C 0.01375 0.30276 0.91394 0.0
C2068 C 1.0041 0.29002 0.9169 0.0
C2069 C 0.01313 0.31618 0.92321 0.0
C2070 C 0.98608 0.33582 0.94983 0.0
H2071 H 1.00351 0.41158 0.97349 0.0
H2072 H 0.00883 0.38812 0.95866 0.0
H2073 H 0.97235 0.35199 0.96215 0.0
H2074 H 0.98707 0.28103 0.93256 0.0
H2075 H 0.98637 0.30397 0.94884 0.0
H2076 H 0.02486 0.33901 0.94472 0.0
C2077 C 1.00106 0.38745 0.96828 0.0
C2078 C 0.98391 0.34925 0.95857 0.0
C2079 C 0.99789 0.40094 0.9767 0.0
C2080 C 0.99452 0.2907 0.92981 0.0
C2081 C 0.99401 0.30395 0.9391 0.0
C2082 C 0.01332 0.34177 0.94836 0.0
C2083 C 0.99387 0.3734 0.97191 0.0
C2084 C 0.99639 0.35916 0.96241 0.0
C2085 C 1.00291 0.31709 0.93568 0.0
C2086 C 1.00082 0.33174 0.94472 0.0
H2087 H 0.97255 0.38592 1.00224 0.0
H2088 H 0.97816 0.36249 0.98771 0.0
H2089 H 0.02102 0.36264 0.95988 0.0
H2090 H 0.02118 0.30265 0.90403 0.0
H2091 H 0.02015 0.32605 0.92018 0.0
C2092 C 0.63776 0.81532 0.28182 0.0
C2093 C 0.6436 0.80407 0.2717 0.0
C2094 C 0.62547 0.8119 0.29156 0.0
C2095 C 0.60508 0.7791 0.30945 0.0
H2096 H 0.57426 0.80939 0.31883 0.0
C2097 C 0.56122 0.77044 0.35813 0.0
C2098 C 0.54592 0.77465 0.35555 0.0
C2099 C 0.57291 0.77451 0.34793 0.0
C2100 C 0.58269 0.80074 0.31627 0.0
H2101 H 0.64081 0.78036 0.26387 0.0
H2102 H 0.61919 0.77447 0.28064 0.0
H2103 H 0.59445 0.81516 0.30043 0.0
H2104 H 0.53101 0.78678 0.3403 0.0
H2105 H 0.55137 0.79382 0.32244 0.0
H2106 H 0.59317 0.76457 0.32505 0.0
C2107 C 0.62428 0.78592 0.28119 0.0
C2108 C 0.59441 0.80412 0.30582 0.0
C2109 C 0.63659 0.78935 0.27142 0.0
C2110 C 0.54268 0.78341 0.34269 0.0
C2111 C 0.55439 0.78748 0.33246 0.0
C2112 C 0.59338 0.77573 0.3199 0.0
C2113 C 0.6186 0.79712 0.29148 0.0
C2114 C 0.60582 0.79337 0.3023 0.0
C2115 C 0.56964 0.78289 0.33481 0.0
C2116 C 0.58205 0.78652 0.32353 0.0
H2117 H 0.64267 0.82685 0.28223 0.0
H2118 H 0.62155 0.8208 0.29939 0.0
H2119 H 0.61372 0.77058 0.30719 0.0
H2120 H 0.56416 0.76373 0.36793 0.0
H2121 H 0.58454 0.77103 0.35033 0.0
C2122 C 0.02292 0.12584 0.99153 0.0
C2123 C 0.03795 0.12013 0.99153 0.0
C2124 C 0.01902 0.13808 0.98227 0.0
C2125 C 0.03204 0.1591 0.94788 0.0
H2126 H 1.00453 0.19039 0.96301 0.0
C2127 C 0.0218 0.21496 0.91501 0.0
C2128 C 0.00673 0.22056 0.9146 0.0
C2129 C 0.02553 0.20279 0.92443 0.0
C2130 C 0.0121 0.18167 0.95852 0.0
H2131 H 0.0606 0.12291 0.98147 0.0
H2132 H 0.05394 0.14437 0.9657 0.0
H2133 H 0.01107 0.16915 0.97926 0.0
H2134 H 0.98378 0.21754 0.92393 0.0
H2135 H 0.99026 0.19636 0.94021 0.0
H2136 H 0.03309 0.17163 0.92715 0.0
C2137 C 0.04507 0.13929 0.97274 0.0
C2138 C 0.01585 0.16945 0.96786 0.0
C2139 C 0.04896 0.12706 0.98198 0.0
C2140 C 0.99552 0.21364 0.92394 0.0
C2141 C 0.99927 0.2015 0.93337 0.0
C2142 C 0.0283 0.17133 0.93855 0.0
C2143 C 0.03003 0.14498 0.9727 0.0
C2144 C 0.0259 0.15798 0.9627 0.0
C2145 C 0.01432 0.19587 0.93374 0.0
C2146 C 0.01829 0.18281 0.94373 0.0
H2147 H 0.01414 0.12093 0.9988 0.0
H2148 H 0.00728 0.142 0.98246 0.0
H2149 H 0.03958 0.15038 0.94335 0.0
H2150 H 0.03077 0.21997 0.90804 0.0
H2151 H 0.03729 0.19894 0.92453 0.0
C2152 C 0.39531 0.3092 0.25279 0.0
C2153 C 0.38391 0.29763 0.25454 0.0
C2154 C 0.4072 0.30735 0.24208 0.0
C2155 C 0.42799 0.27646 0.22213 0.0
H2156 H 0.44217 0.30731 0.19396 0.0
C2157 C 0.4641 0.25933 0.17082 0.0
C2158 C 0.47714 0.26822 0.16686 0.0
C2159 C 0.45354 0.2647 0.1815 0.0
C2160 C 0.43849 0.29867 0.20191 0.0
H2161 H 0.3756 0.27553 0.24555 0.0
H2162 H 0.39626 0.27226 0.22718 0.0
H2163 H 0.42193 0.31348 0.21259 0.0
H2164 H 0.4888 0.29022 0.17073 0.0
H2165 H 0.47016 0.29969 0.18977 0.0
H2166 H 0.44432 0.26162 0.21164 0.0
C2167 C 0.39623 0.28263 0.23429 0.0
C2168 C 0.42688 0.30218 0.21255 0.0
C2169 C 0.38437 0.2845 0.24487 0.0
C2170 C 0.47895 0.28304 0.17354 0.0
C2171 C 0.46826 0.28846 0.18442 0.0
C2172 C 0.43954 0.273 0.21164 0.0
C2173 C 0.40798 0.29386 0.23295 0.0
C2174 C 0.42122 0.29095 0.2225 0.0
C2175 C 0.45562 0.27914 0.18877 0.0
C2176 C 0.44467 0.28387 0.20108 0.0
H2177 H 0.39538 0.31944 0.26007 0.0
H2178 H 0.41608 0.31621 0.24134 0.0
H2179 H 0.42422 0.26767 0.22989 0.0
H2180 H 0.46203 0.24799 0.16576 0.0
H2181 H 0.44372 0.25738 0.18417 0.0
C2182 C 0.52237 0.39249 0.02845 0.0
C2183 C 0.5352 0.40219 0.03172 0.0
C2184 C 0.51851 0.38032 0.03803 0.0
C2185 C 0.5247 0.36643 0.07744 0.0
H2186 H 0.51306 0.32657 0.05983 0.0
C2187 C 0.5241 0.31157 0.11318 0.0
C2188 C 0.51288 0.30002 0.1101 0.0
C2189 C 0.5255 0.32435 0.10388 0.0
C2190 C 0.51606 0.33767 0.06498 0.0
H2191 H 0.55374 0.40682 0.04798 0.0
H2192 H 0.54717 0.38563 0.06446 0.0
H2193 H 0.51786 0.34814 0.04313 0.0
H2194 H 0.4941 0.29307 0.09489 0.0
H2195 H 0.49638 0.31551 0.07877 0.0
H2196 H 0.52298 0.35601 0.09927 0.0
C2197 C 0.54001 0.38742 0.05454 0.0
C2198 C 0.51883 0.35007 0.05537 0.0
C2199 C 0.54391 0.39949 0.04494 0.0
C2200 C 0.50288 0.30174 0.09761 0.0
C2201 C 0.50427 0.31457 0.08828 0.0
C2202 C 0.52189 0.35407 0.08704 0.0
C2203 C 0.52729 0.37761 0.05123 0.0
C2204 C 0.5234 0.36458 0.06146 0.0
C2205 C 0.5157 0.32602 0.09121 0.0
C2206 C 0.51772 0.33943 0.08096 0.0
H2207 H 0.51544 0.39414 0.01833 0.0
H2208 H 0.50855 0.3731 0.03517 0.0
H2209 H 0.52789 0.37749 0.08259 0.0
H2210 H 0.53207 0.3106 0.12264 0.0
H2211 H 0.53459 0.33274 0.10642 0.0
C2212 C 0.64373 0.23162 0.2384 0.0
C2213 C 0.64294 0.21973 0.24898 0.0
C2214 C 0.63117 0.23458 0.22891 0.0
C2215 C 0.59587 0.21613 0.21232 0.0
H2216 H 0.58436 0.25782 0.20403 0.0
C2217 C 0.54043 0.22897 0.17857 0.0
C2218 C 0.54088 0.24109 0.16825 0.0
C2219 C 0.55271 0.22669 0.18863 0.0
C2220 C 0.58751 0.2461 0.20605 0.0
H2221 H 0.62819 0.20164 0.25776 0.0
H2222 H 0.60627 0.20689 0.24134 0.0
H2223 H 0.60597 0.25332 0.22111 0.0
H2224 H 0.55479 0.26035 0.16056 0.0
H2225 H 0.57625 0.25624 0.17788 0.0
H2226 H 0.57759 0.20887 0.19717 0.0
C2227 C 0.61666 0.21388 0.24032 0.0
C2228 C 0.59992 0.24352 0.21589 0.0
C2229 C 0.62919 0.21098 0.24987 0.0
C2230 C 0.55395 0.25093 0.16835 0.0
C2231 C 0.56627 0.24861 0.17839 0.0
C2232 C 0.58352 0.21871 0.20244 0.0
C2233 C 0.61749 0.22567 0.22965 0.0
C2234 C 0.60425 0.22849 0.21919 0.0
C2235 C 0.56586 0.23642 0.18864 0.0
C2236 C 0.57912 0.23373 0.19917 0.0
H2237 H 0.65408 0.23869 0.23748 0.0
H2238 H 0.63228 0.24368 0.22077 0.0
H2239 H 0.59903 0.20441 0.21437 0.0
H2240 H 0.53057 0.22116 0.17892 0.0
H2241 H 0.5518 0.21734 0.1965 0.0
C2242 C 0.50021 0.13096 0.02383 0.0
C2243 C 0.48985 0.11989 0.02954 0.0
C2244 C 0.50398 0.14437 0.03246 0.0
C2245 C 0.48873 0.16865 0.06418 0.0
H2246 H 0.52974 0.18698 0.06559 0.0
C2247 C 0.4996 0.22548 0.09776 0.0
C2248 C 0.51361 0.22762 0.10559 0.0
C2249 C 0.49749 0.21338 0.0871 0.0
C2250 C 0.51823 0.182 0.06548 0.0
H2251 H 0.47605 0.11391 0.0492 0.0
H2252 H 0.48261 0.13705 0.06413 0.0
H2253 H 0.52488 0.16347 0.05041 0.0
H2254 H 0.53681 0.2195 0.10774 0.0
H2255 H 0.53299 0.19771 0.08981 0.0
H2256 H 0.48196 0.18674 0.07926 0.0
C2257 C 0.48753 0.13566 0.05284 0.0
C2258 C 0.51541 0.16856 0.05658 0.0
C2259 C 0.48376 0.12234 0.04425 0.0
C2260 C 0.52581 0.21791 0.10199 0.0
C2261 C 0.5236 0.2055 0.09157 0.0
C2262 C 0.49152 0.18202 0.073 0.0
C2263 C 0.49749 0.147 0.047 0.0
C2264 C 0.50063 0.1616 0.05596 0.0
C2265 C 0.50929 0.20285 0.08414 0.0
C2266 C 0.50634 0.18888 0.07399 0.0
H2267 H 0.50507 0.1295 0.01252 0.0
H2268 H 0.51162 0.15287 0.02753 0.0
H2269 H 0.47712 0.16385 0.06377 0.0
H2270 H 0.49015 0.23312 0.10003 0.0
H2271 H 0.48649 0.21226 0.08132 0.0
C2272 C 0.27314 0.38663 0.73078 0.0
C2273 C 0.27004 0.38247 0.71541 0.0
C2274 C 0.28282 0.39927 0.73454 0.0
C2275 C 0.30059 0.43476 0.71859 0.0
H2276 H 0.32965 0.43075 0.75184 0.0
C2277 C 0.35075 0.47898 0.72961 0.0
C2278 C 0.35564 0.48173 0.74475 0.0
C2279 C 0.33977 0.46735 0.72612 0.0
C2280 C 0.32157 0.4322 0.74259 0.0
H2281 H 0.27435 0.38881 0.69197 0.0
H2282 H 0.29141 0.41054 0.6985 0.0
H2283 H 0.31164 0.40981 0.74567 0.0
H2284 H 0.35195 0.47557 0.76826 0.0
H2285 H 0.33259 0.45561 0.76235 0.0
H2286 H 0.31059 0.45714 0.71547 0.0
C2287 C 0.2863 0.40412 0.70769 0.0
C2288 C 0.31114 0.42013 0.73908 0.0
C2289 C 0.27663 0.3915 0.70393 0.0
C2290 C 0.34873 0.4733 0.75642 0.0
C2291 C 0.33765 0.46182 0.753 0.0
C2292 C 0.31106 0.44683 0.72209 0.0
C2293 C 0.28965 0.40812 0.72305 0.0
C2294 C 0.30052 0.42121 0.727 0.0
C2295 C 0.33314 0.45849 0.73777 0.0
C2296 C 0.32178 0.44571 0.7341 0.0
H2297 H 0.26837 0.37991 0.73994 0.0
H2298 H 0.28495 0.40209 0.7465 0.0
H2299 H 0.29243 0.43614 0.70938 0.0
H2300 H 0.35575 0.48553 0.72044 0.0
H2301 H 0.33674 0.4651 0.71425 0.0
C2302 C 0.2839 0.63823 0.81637 0.0
C2303 C 0.27401 0.64371 0.80505 0.0
C2304 C 0.29359 0.62592 0.81321 0.0
C2305 C 0.31198 0.60486 0.78096 0.0
H2306 H 0.32034 0.57488 0.81172 0.0
C2307 C 0.36069 0.56138 0.77319 0.0
C2308 C 0.35781 0.54617 0.77756 0.0
C2309 C 0.35045 0.57302 0.77708 0.0
C2310 C 0.31807 0.58308 0.80295 0.0
H2311 H 0.26655 0.64026 0.78151 0.0
H2312 H 0.28323 0.61863 0.77609 0.0
H2313 H 0.30198 0.59509 0.8171 0.0
H2314 H 0.342 0.53139 0.78978 0.0
H2315 H 0.32407 0.55169 0.79651 0.0
H2316 H 0.32784 0.59273 0.76671 0.0
C2317 C 0.28364 0.62401 0.78739 0.0
C2318 C 0.30764 0.59479 0.80609 0.0
C2319 C 0.27392 0.63633 0.79055 0.0
C2320 C 0.34462 0.54299 0.78629 0.0
C2321 C 0.33434 0.55465 0.79018 0.0
C2322 C 0.32241 0.59317 0.77782 0.0
C2323 C 0.2937 0.61869 0.79865 0.0
C2324 C 0.30448 0.6059 0.79516 0.0
C2325 C 0.33699 0.5698 0.78542 0.0
C2326 C 0.32568 0.58215 0.78879 0.0
H2327 H 0.28416 0.64344 0.82774 0.0
H2328 H 0.30125 0.62229 0.82215 0.0
H2329 H 0.31 0.61326 0.7723 0.0
H2330 H 0.37076 0.56429 0.76651 0.0
H2331 H 0.35308 0.58457 0.77347 0.0
C2332 C 0.90422 0.47714 0.50029 0.0
C2333 C 0.90395 0.48977 0.49058 0.0
C2334 C 0.89069 0.46878 0.5035 0.0
C2335 C 0.85222 0.45976 0.48716 0.0
H2336 H 0.84229 0.44492 0.52742 0.0
C2337 C 0.7937 0.43073 0.49779 0.0
C2338 C 0.79316 0.41749 0.50663 0.0
C2339 C 0.80692 0.4401 0.49747 0.0
C2340 C 0.84496 0.44884 0.51607 0.0
H2341 H 0.88905 0.50353 0.47678 0.0
H2342 H 0.86553 0.48909 0.48247 0.0
H2343 H 0.86596 0.46013 0.52367 0.0
H2344 H 0.80594 0.4041 0.52263 0.0
H2345 H 0.82932 0.4204 0.52189 0.0
H2346 H 0.83154 0.44835 0.47939 0.0
C2347 C 0.87623 0.48557 0.48754 0.0
C2348 C 0.85853 0.45758 0.51393 0.0
C2349 C 0.88972 0.49398 0.48441 0.0
C2350 C 0.80597 0.41428 0.51578 0.0
C2351 C 0.81937 0.42362 0.51533 0.0
C2352 C 0.83877 0.451 0.48926 0.0
C2353 C 0.87654 0.47275 0.49698 0.0
C2354 C 0.86226 0.46327 0.49945 0.0
C2355 C 0.82016 0.43643 0.5058 0.0
C2356 C 0.83481 0.44553 0.50377 0.0
H2357 H 0.91494 0.47367 0.50537 0.0
H2358 H 0.89138 0.45894 0.51075 0.0
H2359 H 0.85488 0.46361 0.47578 0.0
H2360 H 0.78396 0.43366 0.49075 0.0
H2361 H 0.80685 0.4501 0.49038 0.0
C2362 C 0.75528 0.89176 0.78129 0.0
C2363 C 0.75645 0.88345 0.79481 0.0
C2364 C 0.74374 0.90253 0.7795 0.0
C2365 C 0.71653 0.92702 0.80108 0.0
H2366 H 0.6968 0.92983 0.76147 0.0
C2367 C 0.67826 0.97815 0.78441 0.0
C2368 C 0.66545 0.97494 0.77487 0.0
C2369 C 0.68859 0.96658 0.78792 0.0
C2370 C 0.70205 0.92914 0.77267 0.0
H2371 H 0.74625 0.88009 0.81708 0.0
H2372 H 0.72596 0.8988 0.81388 0.0
H2373 H 0.71594 0.91035 0.76541 0.0
H2374 H 0.6532 0.95686 0.76204 0.0
H2375 H 0.67101 0.93674 0.76828 0.0
H2376 H 0.7025 0.9458 0.80834 0.0
C2377 C 0.73411 0.89704 0.8047 0.0
C2378 C 0.71321 0.91805 0.77488 0.0
C2379 C 0.74565 0.88619 0.80648 0.0
C2380 C 0.66297 0.95978 0.76936 0.0
C2381 C 0.67327 0.94824 0.77285 0.0
C2382 C 0.70539 0.93818 0.79885 0.0
C2383 C 0.73298 0.90534 0.79116 0.0
C2384 C 0.72068 0.91688 0.78908 0.0
C2385 C 0.68639 0.95151 0.78194 0.0
C2386 C 0.69802 0.93942 0.78459 0.0
H2387 H 0.76323 0.88985 0.77197 0.0
H2388 H 0.74338 0.90879 0.76898 0.0
H2389 H 0.72212 0.92655 0.81214 0.0
H2390 H 0.68056 0.9897 0.78882 0.0
H2391 H 0.6986 0.96958 0.79486 0.0
C2392 C 0.62238 0.54474 0.97853 0.0
C2393 C 0.62031 0.52995 0.98438 0.0
C2394 C 0.63559 0.55361 0.98207 0.0
C2395 C 0.66867 0.55808 0.00904 0.0
H2396 H 0.68636 0.58096 0.97583 0.0
C2397 C 0.71762 0.60412 0.01904 0.0
C2398 C 0.72749 0.60745 0.00686 0.0
C2399 C 0.70516 0.59372 0.0169 0.0
C2400 C 0.68175 0.57465 0.98531 0.0
H2401 H 0.63051 0.51311 0.99889 0.0
H2402 H 0.65364 0.52864 1.00506 0.0
H2403 H 0.6636 0.5651 0.97126 0.0
H2404 H 0.73319 0.60144 0.98347 0.0
H2405 H 0.71215 0.58282 0.97988 0.0
H2406 H 0.68706 0.56743 0.02302 0.0
C2407 C 0.64494 0.53339 0.99779 0.0
C2408 C 0.66847 0.56561 0.98268 0.0
C2409 C 0.63166 0.52447 0.99425 0.0
C2410 C 0.72542 0.5994 0.9929 0.0
C2411 C 0.71324 0.58878 0.99085 0.0
C2412 C 0.68199 0.5672 0.0117 0.0
C2413 C 0.64718 0.548 0.99156 0.0
C2414 C 0.66163 0.55729 0.99451 0.0
C2415 C 0.70262 0.58604 1.00267 0.0
C2416 C 0.6887 0.57577 0.99989 0.0
H2417 H 0.61374 0.54952 0.97121 0.0
H2418 H 0.63669 0.56495 0.97735 0.0
H2419 H 0.66373 0.55185 0.01845 0.0
H2420 H 0.71915 0.61004 0.02999 0.0
H2421 H 0.69727 0.59213 0.02629 0.0
C2422 C 0.25149 0.63326 0.24199 0.0
C2423 C 0.256 0.63815 0.22744 0.0
C2424 C 0.2403 0.62164 0.24357 0.0
C2425 C 0.22109 0.58885 0.22281 0.0
H2426 H 0.19192 0.59204 0.25605 0.0
C2427 C 0.17135 0.54379 0.23079 0.0
C2428 C 0.16678 0.54077 0.24579 0.0
C2429 C 0.18204 0.55569 0.22794 0.0
C2430 C 0.2 0.59083 0.24675 0.0
H2431 H 0.25208 0.63456 0.20311 0.0
H2432 H 0.23233 0.61437 0.20588 0.0
H2433 H 0.21027 0.61287 0.25198 0.0
H2434 H 0.17077 0.54671 0.26965 0.0
H2435 H 0.18964 0.56707 0.26486 0.0
H2436 H 0.21085 0.56671 0.21766 0.0
C2437 C 0.23763 0.61947 0.21608 0.0
C2438 C 0.2106 0.60284 0.24443 0.0
C2439 C 0.24883 0.63118 0.21449 0.0
C2440 C 0.17373 0.54919 0.25793 0.0
C2441 C 0.18452 0.56091 0.25515 0.0
C2442 C 0.21044 0.57679 0.22512 0.0
C2443 C 0.23323 0.61453 0.23066 0.0
C2444 C 0.22141 0.60198 0.23253 0.0
C2445 C 0.18868 0.56454 0.2401 0.0
C2446 C 0.19979 0.57754 0.23722 0.0
H2447 H 0.25659 0.63848 0.25223 0.0
H2448 H 0.23738 0.61805 0.25498 0.0
H2449 H 0.22935 0.58768 0.21364 0.0
H2450 H 0.16632 0.53726 0.22125 0.0
H2451 H 0.18483 0.55814 0.2162 0.0
C2452 C 0.89885 0.54597 0.04116 0.0
C2453 C 0.90212 0.53274 0.0323 0.0
C2454 C 0.88658 0.55531 0.03738 0.0
C2455 C 0.85955 0.56475 0.00593 0.0
H2456 H 0.836 0.58211 0.03944 0.0
C2457 C 0.80244 0.5982 0.99779 0.0
C2458 C 0.8003 0.61111 0.00749 0.0
C2459 C 0.81505 0.58861 0.99986 0.0
C2460 C 0.84253 0.57751 0.02992 0.0
H2461 H 0.89503 0.51917 0.01228 0.0
H2462 H 0.8735 0.53543 1.00571 0.0
H2463 H 0.85727 0.56541 0.04482 0.0
H2464 H 0.81011 0.62429 0.02666 0.0
H2465 H 0.83197 0.60776 0.03018 0.0
H2466 H 0.84458 0.57684 0.99105 0.0
C2467 C 0.88057 0.53866 0.01554 0.0
C2468 C 0.8548 0.56791 0.03301 0.0
C2469 C 0.89293 0.52931 0.01932 0.0
C2470 C 0.81131 0.61442 0.01901 0.0
C2471 C 0.82382 0.60485 0.02111 0.0
C2472 C 0.84719 0.57434 1.00283 0.0
C2473 C 0.87711 0.55172 0.02463 0.0
C2474 C 0.86363 0.56151 0.02109 0.0
C2475 C 0.82575 0.59167 0.01175 0.0
C2476 C 0.83863 0.581 0.01481 0.0
H2477 H 0.90587 0.54922 0.05102 0.0
H2478 H 0.88459 0.56545 0.04445 0.0
H2479 H 0.86613 0.56016 0.99644 0.0
H2480 H 0.79417 0.59528 0.98882 0.0
H2481 H 0.81612 0.57854 0.99247 0.0
C2482 C 0.12774 0.99272 0.02309 0.0
C2483 C 0.12023 0.99119 0.03722 0.0
C2484 C 0.1406 0.98388 0.01945 0.0
C2485 C 0.17125 0.96086 0.03705 0.0
H2486 H 0.17468 0.94251 0.99642 0.0
C2487 C 0.21651 0.91478 0.02261 0.0
C2488 C 0.22347 0.9149 0.00811 0.0
C2489 C 0.20422 0.92442 0.0261 0.0
C2490 C 0.17406 0.94769 0.00777 0.0
H2491 H 0.12078 0.97939 0.05873 0.0
H2492 H 0.14296 0.96393 0.05232 0.0
H2493 H 0.15302 0.95885 1.0025 0.0
H2494 H 0.22286 0.92551 0.98595 0.0
H2495 H 0.20173 0.94242 0.9921 0.0
H2496 H 0.19228 0.94976 0.04234 0.0
C2497 C 0.13897 0.97199 0.04405 0.0
C2498 C 0.16158 0.95709 0.01126 0.0
C2499 C 0.12609 0.98075 0.04766 0.0
C2500 C 0.21782 0.92501 0.99723 0.0
C2501 C 0.20557 0.93468 1.00073 0.0
C2502 C 0.18374 0.95151 0.03355 0.0
C2503 C 0.14638 0.97337 0.02987 0.0
C2504 C 0.15995 0.96374 0.02598 0.0
C2505 C 0.19854 0.93451 0.0152 0.0
C2506 C 0.18531 0.94471 0.01888 0.0
H2507 H 0.12352 1.00056 0.01473 0.0
H2508 H 0.14609 0.98538 0.00848 0.0
H2509 H 0.17053 0.96597 0.04844 0.0
H2510 H 0.22045 0.90712 0.03128 0.0
H2511 H 0.19901 0.92375 0.03728 0.0
loop_
_geom_bond_atom_site_label_1
_geom_bond_atom_site_label_2
_geom_bond_distance
_geom_bond_site_symmetry_2
_ccdc_geom_bond_type
C0 C1 1.264 . S
C0 C5 1.479 1_455 S
C0 C10 1.465 . S
C1 C0 1.264 . S
C1 C3 1.339 1_455 S
C1 H28 0.931 . S
C2 C3 1.395 . S
C2 C4 1.320 . S
C3 C1 1.339 1_655 S
C3 C2 1.395 . S
C3 H29 0.929 . S
C4 C2 1.320 . S
C4 C5 1.405 . S
C4 H30 0.930 . S
C5 C0 1.479 1_655 S
C5 C4 1.405 . S
C5 H31 0.931 . S
U6 O7 2.454 . S
U6 O8 2.458 . S
U6 C9 2.984 . S
U6 C10 2.847 . S
U6 C23 2.882 . S
U6 O24 2.441 . S
U6 O25 2.420 . S
U6 O26 2.455 . S
U6 O27 2.449 . S
O7 U6 2.454 . S
O7 C9 1.353 . S
O8 U6 2.458 . S
O8 C9 1.286 . S
C9 U6 2.984 . S
C9 O7 1.353 . S
C9 O8 1.286 . S
C9 C11 1.363 . S
C10 C0 1.465 . S
C10 U6 2.847 . S
C10 O24 1.249 . S
C10 O25 1.202 . S
C11 C9 1.363 . S
C11 C13 1.408 . S
C11 C16 1.342 1_554 S
C12 C13 1.310 1_556 S
C12 C15 1.461 . S
C12 H32 0.932 . S
C13 C11 1.408 . S
C13 C12 1.310 1_554 S
C13 H33 0.930 . S
C14 C15 1.474 . S
C14 C16 1.285 . S
C14 H34 0.929 . S
C15 C12 1.461 . S
C15 C14 1.474 . S
C16 C11 1.342 1_556 S
C16 C14 1.285 . S
C16 H35 0.930 . S
C17 C20 1.380 1_545 S
C17 C22 1.260 . S
C17 C23 1.468 . S
C18 C21 1.260 . S
C18 C22 1.477 1_565 S
C18 H36 0.932 . S
C19 C20 1.384 . S
C19 C21 1.479 . S
C19 H37 0.929 . S
C20 C17 1.380 1_565 S
C20 C19 1.384 . S
C20 H38 0.928 . S
C21 C18 1.260 . S
C21 C19 1.479 . S
C22 C17 1.260 . S
C22 C18 1.477 1_545 S
C22 H39 0.932 . S
C23 U6 2.882 . S
C23 C17 1.468 . S
C23 O26 1.301 . S
C23 O27 1.282 . S
O24 U6 2.441 . S
O24 C10 1.249 . S
O25 U6 2.420 . S
O25 C10 1.202 . S
O26 U6 2.455 . S
O26 C23 1.301 . S
O27 U6 2.449 . S
O27 C23 1.282 . S
H28 C1 0.931 . S
H29 C3 0.929 . S
H30 C4 0.930 . S
H31 C5 0.931 . S
H32 C12 0.932 . S
H33 C13 0.930 . S
H34 C14 0.929 . S
H35 C16 0.930 . S
H36 C18 0.932 . S
H37 C19 0.929 . S
H38 C20 0.928 . S
H39 C22 0.932 . S
C40 C41 1.264 . S
C40 C45 1.479 . S
C40 C50 1.465 . S
C41 C40 1.264 . S
C41 C43 1.339 . S
C41 H68 0.931 . S
C42 C43 1.395 . S
C42 C44 1.320 . S
C43 C41 1.339 . S
C43 C42 1.395 . S
C43 H69 0.929 . S
C44 C42 1.320 . S
C44 C45 1.405 . S
C44 H70 0.930 . S
C45 C40 1.479 . S
C45 C44 1.405 . S
C45 H71 0.931 . S
U46 O47 2.454 . S
U46 O48 2.458 . S
U46 C49 2.984 . S
U46 C50 2.847 . S
U46 C63 2.882 . S
U46 O64 2.441 . S
U46 O65 2.420 . S
U46 O66 2.455 . S
U46 O67 2.449 . S
O47 U46 2.454 . S
O47 C49 1.353 . S
O48 U46 2.458 . S
O48 C49 1.286 . S
C49 U46 2.984 . S
C49 O47 1.353 . S
C49 O48 1.286 . S
C49 C51 1.363 . S
C50 C40 1.465 . S
C50 U46 2.847 . S
C50 O64 1.249 . S
C50 O65 1.202 . S
C51 C49 1.363 . S
C51 C53 1.408 . S
C51 C56 1.342 . S
C52 C53 1.310 . S
C52 C55 1.461 . S
C52 H72 0.932 . S
C53 C51 1.408 . S
C53 C52 1.310 . S
C53 H73 0.930 . S
C54 C55 1.474 . S
C54 C56 1.285 . S
C54 H74 0.929 . S
C55 C52 1.461 . S
C55 C54 1.474 . S
C56 C51 1.342 . S
C56 C54 1.285 . S
C56 H75 0.930 . S
C57 C60 1.424 . S
C57 C62 1.245 . S
C57 C63 1.428 . S
C58 C61 1.260 . S
C58 C62 1.477 . S
C58 H76 0.932 . S
C59 C60 1.384 . S
C59 C61 1.479 . S
C59 H77 0.929 . S
C60 C57 1.424 . S
C60 C59 1.384 . S
C60 H78 0.928 . S
C61 C58 1.260 . S
C61 C59 1.479 . S
C62 C57 1.245 . S
C62 C58 1.477 . S
C62 H79 0.932 . S
C63 U46 2.882 . S
C63 C57 1.428 . S
C63 O66 1.301 . S
C63 O67 1.282 . S
O64 U46 2.441 . S
O64 C50 1.249 . S
O65 U46 2.420 . S
O65 C50 1.202 . S
O66 U46 2.455 . S
O66 C63 1.301 . S
O67 U46 2.449 . S
O67 C63 1.282 . S
H68 C41 0.931 . S
H69 C43 0.929 . S
H70 C44 0.930 . S
H71 C45 0.931 . S
H72 C52 0.932 . S
H73 C53 0.930 . S
H74 C54 0.929 . S
H75 C56 0.930 . S
H76 C58 0.932 . S
H77 C59 0.929 . S
H78 C60 0.928 . S
H79 C62 0.932 . S
C80 C81 1.257 1_556 S
C80 C85 1.510 . S
C80 C90 1.445 1_556 S
C81 C80 1.257 1_554 S
C81 C83 1.339 1_554 S
C81 H108 0.916 1_655 S
C82 C83 1.395 . S
C82 C84 1.320 . S
C83 C81 1.339 1_556 S
C83 C82 1.395 . S
C83 H109 0.929 1_655 S
C84 C82 1.320 . S
C84 C85 1.405 . S
C84 H110 0.930 . S
C85 C80 1.510 . S
C85 C84 1.405 . S
C85 H111 0.931 . S
U86 O87 2.454 . S
U86 O88 2.458 . S
U86 C89 2.984 . S
U86 C90 2.847 . S
U86 C103 2.882 . S
U86 O104 2.441 . S
U86 O105 2.420 . S
U86 O106 2.455 . S
U86 O107 2.449 . S
O87 U86 2.454 . S
O87 C89 1.353 . S
O88 U86 2.458 . S
O88 C89 1.286 . S
C89 U86 2.984 . S
C89 O87 1.353 . S
C89 O88 1.286 . S
C89 C91 1.363 . S
C90 C80 1.445 1_554 S
C90 U86 2.847 . S
C90 O104 1.249 . S
C90 O105 1.202 . S
C91 C89 1.363 . S
C91 C93 1.408 . S
C91 C96 1.342 . S
C92 C93 1.310 . S
C92 C95 1.461 . S
C92 H112 0.932 . S
C93 C91 1.408 . S
C93 C92 1.310 . S
C93 H113 0.930 . S
C94 C95 1.474 . S
C94 C96 1.285 . S
C94 H114 0.929 . S
C95 C92 1.461 . S
C95 C94 1.474 . S
C96 C91 1.342 . S
C96 C94 1.285 . S
C96 H115 0.930 . S
C97 C100 1.424 . S
C97 C102 1.245 . S
C97 C103 1.428 1_455 S
C98 C101 1.260 . S
C98 C102 1.477 . S
C98 H116 0.932 . S
C99 C100 1.384 . S
C99 C101 1.479 . S
C99 H117 0.929 . S
C100 C97 1.424 . S
C100 C99 1.384 . S
C100 H118 0.928 . S
C101 C98 1.260 . S
C101 C99 1.479 . S
C102 C97 1.245 . S
C102 C98 1.477 . S
C102 H119 0.932 1_455 S
C103 U86 2.882 . S
C103 C97 1.428 1_655 S
C103 O106 1.301 . S
C103 O107 1.282 . S
O104 U86 2.441 . S
O104 C90 1.249 . S
O105 U86 2.420 . S
O105 C90 1.202 . S
O106 U86 2.455 . S
O106 C103 1.301 . S
O107 U86 2.449 . S
O107 C103 1.282 . S
H108 C81 0.916 1_455 S
H109 C83 0.929 1_455 S
H110 C84 0.930 . S
H111 C85 0.931 . S
H112 C92 0.932 . S
H113 C93 0.930 . S
H114 C94 0.929 . S
H115 C96 0.930 . S
H116 C98 0.932 . S
H117 C99 0.929 . S
H118 C100 0.928 . S
H119 C102 0.932 1_655 S
C120 C121 1.264 . S
C120 C125 1.479 . S
C120 C130 1.465 . S
C121 C120 1.264 . S
C121 C123 1.339 . S
C121 H148 0.931 . S
C122 C123 1.395 . S
C122 C124 1.320 . S
C123 C121 1.339 . S
C123 C122 1.395 . S
C123 H149 0.929 . S
C124 C122 1.320 . S
C124 C125 1.405 . S
C124 H150 0.930 . S
C125 C120 1.479 . S
C125 C124 1.405 . S
C125 H151 0.931 . S
U126 O127 2.454 . S
U126 O128 2.458 . S
U126 C129 2.984 . S
U126 C130 2.847 . S
U126 C143 2.882 . S
U126 O144 2.441 . S
U126 O145 2.420 . S
U126 O146 2.455 . S
U126 O147 2.449 . S
O127 U126 2.454 . S
O127 C129 1.353 . S
O128 U126 2.458 . S
O128 C129 1.286 . S
C129 U126 2.984 . S
C129 O127 1.353 . S
C129 O128 1.286 . S
C129 C131 1.363 . S
C130 C120 1.465 . S
C130 U126 2.847 . S
C130 O144 1.249 . S
C130 O145 1.202 . S
C131 C129 1.363 . S
C131 C133 1.408 . S
C131 C136 1.342 . S
C132 C133 1.310 . S
C132 C135 1.461 . S
C132 H152 0.932 . S
C133 C131 1.408 . S
C133 C132 1.310 . S
C133 H153 0.930 . S
C134 C135 1.474 . S
C134 C136 1.285 . S
C134 H154 0.929 . S
C135 C132 1.461 . S
C135 C134 1.474 . S
C136 C131 1.342 . S
C136 C134 1.285 . S
C136 H155 0.930 . S
C137 C140 1.424 . S
C137 C142 1.245 . S
C137 C143 1.428 . S
C138 C141 1.260 . S
C138 C142 1.477 . S
C138 H156 0.932 . S
C139 C140 1.384 . S
C139 C141 1.479 . S
C139 H157 0.929 . S
C140 C137 1.424 . S
C140 C139 1.384 . S
C140 H158 0.928 . S
C141 C138 1.260 . S
C141 C139 1.479 . S
C142 C137 1.245 . S
C142 C138 1.477 . S
C142 H159 0.932 . S
C143 U126 2.882 . S
C143 C137 1.428 . S
C143 O146 1.301 . S
C143 O147 1.282 . S
O144 U126 2.441 . S
O144 C130 1.249 . S
O145 U126 2.420 . S
O145 C130 1.202 . S
O146 U126 2.455 . S
O146 C143 1.301 . S
O147 U126 2.449 . S
O147 C143 1.282 . S
H148 C121 0.931 . S
H149 C123 0.929 . S
H150 C124 0.930 . S
H151 C125 0.931 . S
H152 C132 0.932 . S
H153 C133 0.930 . S
H154 C134 0.929 . S
H155 C136 0.930 . S
H156 C138 0.932 . S
H157 C139 0.929 . S
H158 C140 0.928 . S
H159 C142 0.932 . S
C160 C161 1.264 . S
C160 C165 1.479 1_455 S
C160 C170 1.465 . S
C161 C160 1.264 . S
C161 C163 1.326 1_455 S
C161 H188 0.931 1_565 S
C162 C163 1.411 . S
C162 C164 1.320 . S
C163 C161 1.326 1_655 S
C163 C162 1.411 . S
C163 H189 0.925 1_665 S
C164 C162 1.320 . S
C164 C165 1.405 . S
C164 H190 0.930 . S
C165 C160 1.479 1_655 S
C165 C164 1.405 . S
C165 H191 0.931 . S
U166 O167 2.454 . S
U166 O168 2.458 . S
U166 C169 2.984 . S
U166 C170 2.847 . S
U166 C183 2.882 . S
U166 O184 2.441 . S
U166 O185 2.420 . S
U166 O186 2.455 . S
U166 O187 2.459 . S
O167 U166 2.454 . S
O167 C169 1.353 . S
O168 U166 2.458 . S
O168 C169 1.286 . S
C169 U166 2.984 . S
C169 O167 1.353 . S
C169 O168 1.286 . S
C169 C171 1.363 . S
C170 C160 1.465 . S
C170 U166 2.847 . S
C170 O184 1.249 . S
C170 O185 1.202 . S
C171 C169 1.363 . S
C171 C173 1.408 . S
C171 C176 1.342 . S
C172 C173 1.310 . S
C172 C175 1.461 . S
C172 H192 0.932 . S
C173 C171 1.408 . S
C173 C172 1.310 . S
C173 H193 0.930 . S
C174 C175 1.474 . S
C174 C176 1.285 . S
C174 H194 0.929 . S
C175 C172 1.461 . S
C175 C174 1.474 . S
C176 C171 1.342 . S
C176 C174 1.285 . S
C176 H195 0.930 . S
C177 C180 1.424 . S
C177 C182 1.245 . S
C177 C183 1.428 1_545 S
C178 C181 1.260 . S
C178 C182 1.477 . S
C178 H196 0.932 . S
C179 C180 1.384 . S
C179 C181 1.479 . S
C179 H197 0.929 . S
C180 C177 1.424 . S
C180 C179 1.384 . S
C180 H198 0.928 . S
C181 C178 1.260 . S
C181 C179 1.479 . S
C182 C177 1.245 . S
C182 C178 1.477 . S
C182 H199 0.932 1_545 S
C183 U166 2.882 . S
C183 C177 1.428 1_565 S
C183 O186 1.301 . S
C183 O187 1.285 . S
O184 U166 2.441 . S
O184 C170 1.249 . S
O185 U166 2.420 . S
O185 C170 1.202 . S
O186 U166 2.455 . S
O186 C183 1.301 . S
O187 U166 2.459 . S
O187 C183 1.285 . S
H188 C161 0.931 1_545 S
H189 C163 0.925 1_445 S
H190 C164 0.930 . S
H191 C165 0.931 . S
H192 C172 0.932 . S
H193 C173 0.930 . S
H194 C174 0.929 . S
H195 C176 0.930 . S
H196 C178 0.932 . S
H197 C179 0.929 . S
H198 C180 0.928 . S
H199 C182 0.932 1_565 S
C200 C201 1.264 . S
C200 C205 1.479 . S
C200 C210 1.465 . S
C201 C200 1.264 . S
C201 C203 1.339 . S
C201 H228 0.931 . S
C202 C203 1.395 . S
C202 C204 1.320 . S
C203 C201 1.339 . S
C203 C202 1.395 . S
C203 H229 0.929 . S
C204 C202 1.320 . S
C204 C205 1.405 . S
C204 H230 0.930 . S
C205 C200 1.479 . S
C205 C204 1.405 . S
C205 H231 0.931 . S
U206 O207 2.454 . S
U206 O208 2.458 . S
U206 C209 2.984 . S
U206 C210 2.847 . S
U206 C223 2.882 . S
U206 O224 2.441 . S
U206 O225 2.420 . S
U206 O226 2.455 . S
U206 O227 2.449 . S
O207 U206 2.454 . S
O207 C209 1.353 . S
O208 U206 2.458 . S
O208 C209 1.286 . S
C209 U206 2.984 . S
C209 O207 1.353 . S
C209 O208 1.286 . S
C209 C211 1.363 . S
C210 C200 1.465 . S
C210 U206 2.847 . S
C210 O224 1.249 . S
C210 O225 1.202 . S
C211 C209 1.363 . S
C211 C213 1.408 . S
C211 C216 1.342 . S
C212 C213 1.310 . S
C212 C215 1.461 . S
C212 H232 0.932 . S
C213 C211 1.408 . S
C213 C212 1.310 . S
C213 H233 0.930 . S
C214 C215 1.474 . S
C214 C216 1.285 . S
C214 H234 0.929 . S
C215 C212 1.461 . S
C215 C214 1.474 . S
C216 C211 1.342 . S
C216 C214 1.285 . S
C216 H235 0.930 . S
C217 C220 1.424 . S
C217 C222 1.245 . S
C217 C223 1.428 . S
C218 C221 1.260 . S
C218 C222 1.477 . S
C218 H236 0.932 . S
C219 C220 1.384 . S
C219 C221 1.479 . S
C219 H237 0.929 . S
C220 C217 1.424 . S
C220 C219 1.384 . S
C220 H238 0.928 . S
C221 C218 1.260 . S
C221 C219 1.479 . S
C222 C217 1.245 . S
C222 C218 1.477 . S
C222 H239 0.932 . S
C223 U206 2.882 . S
C223 C217 1.428 . S
C223 O226 1.301 . S
C223 O227 1.282 . S
O224 U206 2.441 . S
O224 C210 1.249 . S
O225 U206 2.420 . S
O225 C210 1.202 . S
O226 U206 2.455 . S
O226 C223 1.301 . S
O227 U206 2.449 . S
O227 C223 1.282 . S
H228 C201 0.931 . S
H229 C203 0.929 . S
H230 C204 0.930 . S
H231 C205 0.931 . S
H232 C212 0.932 . S
H233 C213 0.930 . S
H234 C214 0.929 . S
H235 C216 0.930 . S
H236 C218 0.932 . S
H237 C219 0.929 . S
H238 C220 0.928 . S
H239 C222 0.932 . S
C240 C241 1.264 . S
C240 C245 1.479 . S
C240 C250 1.465 . S
C241 C240 1.264 . S
C241 C243 1.339 . S
C241 H268 0.931 1_655 S
C242 C243 1.395 . S
C242 C244 1.320 . S
C243 C241 1.339 . S
C243 C242 1.395 . S
C243 H269 0.929 1_655 S
C244 C242 1.320 . S
C244 C245 1.405 . S
C244 H270 0.930 . S
C245 C240 1.479 . S
C245 C244 1.405 . S
C245 H271 0.931 . S
U246 O247 2.454 . S
U246 O248 2.458 . S
U246 C249 2.984 . S
U246 C250 2.847 . S
U246 C263 2.882 . S
U246 O264 2.441 . S
U246 O265 2.420 . S
U246 O266 2.455 . S
U246 O267 2.449 1_655 S
O247 U246 2.454 . S
O247 C249 1.353 . S
O248 U246 2.458 . S
O248 C249 1.286 . S
C249 U246 2.984 . S
C249 O247 1.353 . S
C249 O248 1.286 . S
C249 C251 1.363 . S
C250 C240 1.465 . S
C250 U246 2.847 . S
C250 O264 1.249 . S
C250 O265 1.202 . S
C251 C249 1.363 . S
C251 C253 1.408 . S
C251 C256 1.342 . S
C252 C253 1.310 . S
C252 C255 1.461 . S
C252 H272 0.932 . S
C253 C251 1.408 . S
C253 C252 1.310 . S
C253 H273 0.930 . S
C254 C255 1.474 . S
C254 C256 1.285 . S
C254 H274 0.929 . S
C255 C252 1.461 . S
C255 C254 1.474 . S
C256 C251 1.342 . S
C256 C254 1.285 . S
C256 H275 0.930 . S
C257 C260 1.424 . S
C257 C262 1.245 . S
C257 C263 1.428 1_455 S
C258 C261 1.260 . S
C258 C262 1.477 . S
C258 H276 0.932 . S
C259 C260 1.384 . S
C259 C261 1.479 . S
C259 H277 0.929 . S
C260 C257 1.424 . S
C260 C259 1.384 . S
C260 H278 0.928 . S
C261 C258 1.260 . S
C261 C259 1.479 . S
C262 C257 1.245 . S
C262 C258 1.477 . S
C262 H279 0.932 1_455 S
C263 U246 2.882 . S
C263 C257 1.428 1_655 S
C263 O266 1.301 . S
C263 O267 1.282 1_655 S
O264 U246 2.441 . S
O264 C250 1.249 . S
O265 U246 2.420 . S
O265 C250 1.202 . S
O266 U246 2.455 . S
O266 C263 1.301 . S
O267 U246 2.449 1_455 S
O267 C263 1.282 1_455 S
H268 C241 0.931 1_455 S
H269 C243 0.929 1_455 S
H270 C244 0.930 . S
H271 C245 0.931 . S
H272 C252 0.932 . S
H273 C253 0.930 . S
H274 C254 0.929 . S
H275 C256 0.930 . S
H276 C258 0.932 . S
H277 C259 0.929 . S
H278 C260 0.928 . S
H279 C262 0.932 1_655 S
C280 C281 1.264 . S
C280 C285 1.479 . S
C280 C290 1.465 . S
C281 C280 1.264 . S
C281 C283 1.339 . S
C281 H308 0.931 . S
C282 C283 1.395 . S
C282 C284 1.320 . S
C283 C281 1.339 . S
C283 C282 1.395 . S
C283 H309 0.929 . S
C284 C282 1.320 . S
C284 C285 1.405 . S
C284 H310 0.930 . S
C285 C280 1.479 . S
C285 C284 1.405 . S
C285 H311 0.931 . S
U286 O287 2.454 . S
U286 O288 2.458 . S
U286 C289 2.984 . S
U286 C290 2.847 . S
U286 C303 2.882 . S
U286 O304 2.441 . S
U286 O305 2.420 . S
U286 O306 2.455 . S
U286 O307 2.449 . S
O287 U286 2.454 . S
O287 C289 1.353 . S
O288 U286 2.458 . S
O288 C289 1.286 . S
C289 U286 2.984 . S
C289 O287 1.353 . S
C289 O288 1.286 . S
C289 C291 1.363 . S
C290 C280 1.465 . S
C290 U286 2.847 . S
C290 O304 1.249 . S
C290 O305 1.202 . S
C291 C289 1.363 . S
C291 C293 1.408 . S
C291 C296 1.342 . S
C292 C293 1.310 . S
C292 C295 1.461 . S
C292 H312 0.932 . S
C293 C291 1.408 . S
C293 C292 1.310 . S
C293 H313 0.930 . S
C294 C295 1.474 . S
C294 C296 1.285 . S
C294 H314 0.929 . S
C295 C292 1.461 . S
C295 C294 1.474 . S
C296 C291 1.342 . S
C296 C294 1.285 . S
C296 H315 0.930 . S
C297 C300 1.424 . S
C297 C302 1.245 . S
C297 C303 1.428 . S
C298 C301 1.260 . S
C298 C302 1.477 . S
C298 H316 0.932 . S
C299 C300 1.384 . S
C299 C301 1.479 . S
C299 H317 0.929 . S
C300 C297 1.424 . S
C300 C299 1.384 . S
C300 H318 0.928 . S
C301 C298 1.260 . S
C301 C299 1.479 . S
C302 C297 1.245 . S
C302 C298 1.477 . S
C302 H319 0.932 . S
C303 U286 2.882 . S
C303 C297 1.428 . S
C303 O306 1.301 . S
C303 O307 1.282 . S
O304 U286 2.441 . S
O304 C290 1.249 . S
O305 U286 2.420 . S
O305 C290 1.202 . S
O306 U286 2.455 . S
O306 C303 1.301 . S
O307 U286 2.449 . S
O307 C303 1.282 . S
H308 C281 0.931 . S
H309 C283 0.929 . S
H310 C284 0.930 . S
H311 C285 0.931 . S
H312 C292 0.932 . S
H313 C293 0.930 . S
H314 C294 0.929 . S
H315 C296 0.930 . S
H316 C298 0.932 . S
H317 C299 0.929 . S
H318 C300 0.928 . S
H319 C302 0.932 . S
C320 C321 1.264 . S
C320 C325 1.479 . S
C320 C330 1.465 . S
C321 C320 1.264 . S
C321 C323 1.339 . S
C321 H348 0.931 . S
C322 C323 1.395 . S
C322 C324 1.320 . S
C323 C321 1.339 . S
C323 C322 1.395 . S
C323 H349 0.929 . S
C324 C322 1.320 . S
C324 C325 1.405 . S
C324 H350 0.930 . S
C325 C320 1.479 . S
C325 C324 1.405 . S
C325 H351 0.931 . S
U326 O327 2.454 . S
U326 O328 2.458 . S
U326 C329 2.984 . S
U326 C330 2.847 . S
U326 C343 2.882 . S
U326 O344 2.441 . S
U326 O345 2.420 . S
U326 O346 2.455 . S
U326 O347 2.449 . S
O327 U326 2.454 . S
O327 C329 1.353 . S
O328 U326 2.458 . S
O328 C329 1.286 . S
C329 U326 2.984 . S
C329 O327 1.353 . S
C329 O328 1.286 . S
C329 C331 1.363 . S
C330 C320 1.465 . S
C330 U326 2.847 . S
C330 O344 1.249 . S
C330 O345 1.202 . S
C331 C329 1.363 . S
C331 C333 1.408 . S
C331 C336 1.342 . S
C332 C333 1.310 . S
C332 C335 1.461 . S
C332 H352 0.932 . S
C333 C331 1.408 . S
C333 C332 1.310 . S
C333 H353 0.930 . S
C334 C335 1.474 . S
C334 C336 1.285 . S
C334 H354 0.929 . S
C335 C332 1.461 . S
C335 C334 1.474 . S
C336 C331 1.342 . S
C336 C334 1.285 . S
C336 H355 0.930 . S
C337 C340 1.424 . S
C337 C342 1.245 . S
C337 C343 1.428 . S
C338 C341 1.260 . S
C338 C342 1.477 . S
C338 H356 0.932 . S
C339 C340 1.384 . S
C339 C341 1.479 . S
C339 H357 0.929 . S
C340 C337 1.424 . S
C340 C339 1.384 . S
C340 H358 0.928 . S
C341 C338 1.260 . S
C341 C339 1.479 . S
C342 C337 1.245 . S
C342 C338 1.477 . S
C342 H359 0.932 . S
C343 U326 2.882 . S
C343 C337 1.428 . S
C343 O346 1.301 . S
C343 O347 1.282 . S
O344 U326 2.441 . S
O344 C330 1.249 . S
O345 U326 2.420 . S
O345 C330 1.202 . S
O346 U326 2.455 . S
O346 C343 1.301 . S
O347 U326 2.449 . S
O347 C343 1.282 . S
H348 C321 0.931 . S
H349 C323 0.929 . S
H350 C324 0.930 . S
H351 C325 0.931 . S
H352 C332 0.932 . S
H353 C333 0.930 . S
H354 C334 0.929 . S
H355 C336 0.930 . S
H356 C338 0.932 . S
H357 C339 0.929 . S
H358 C340 0.928 . S
H359 C342 0.932 . S
C360 C361 1.264 . S
C360 C365 1.479 . S
C360 C370 1.465 . S
C361 C360 1.264 . S
C361 C363 1.339 . S
C361 H388 0.931 . S
C362 C363 1.395 . S
C362 C364 1.320 . S
C363 C361 1.339 . S
C363 C362 1.395 . S
C363 H389 0.929 . S
C364 C362 1.320 . S
C364 C365 1.405 . S
C364 H390 0.930 . S
C365 C360 1.479 . S
C365 C364 1.405 . S
C365 H391 0.931 . S
U366 O367 2.454 . S
U366 O368 2.458 . S
U366 C369 2.984 . S
U366 C370 2.847 . S
U366 C383 2.882 . S
U366 O384 2.441 . S
U366 O385 2.420 . S
U366 O386 2.455 . S
U366 O387 2.449 . S
O367 U366 2.454 . S
O367 C369 1.353 . S
O368 U366 2.458 . S
O368 C369 1.286 . S
C369 U366 2.984 . S
C369 O367 1.353 . S
C369 O368 1.286 . S
C369 C371 1.363 1_565 S
C370 C360 1.465 . S
C370 U366 2.847 . S
C370 O384 1.249 . S
C370 O385 1.202 . S
C371 C369 1.363 1_545 S
C371 C373 1.407 . S
C371 C376 1.342 . S
C372 C373 1.309 . S
C372 C375 1.461 . S
C372 H392 0.932 . S
C373 C371 1.407 . S
C373 C372 1.309 . S
C373 H393 0.931 1_545 S
C374 C375 1.474 . S
C374 C376 1.285 . S
C374 H394 0.929 . S
C375 C372 1.461 . S
C375 C374 1.474 . S
C376 C371 1.342 . S
C376 C374 1.285 . S
C376 H395 0.930 . S
C377 C380 1.424 . S
C377 C382 1.245 . S
C377 C383 1.428 . S
C378 C381 1.260 . S
C378 C382 1.477 . S
C378 H396 0.958 . S
C379 C380 1.384 . S
C379 C381 1.479 . S
C379 H397 0.929 . S
C380 C377 1.424 . S
C380 C379 1.384 . S
C380 H398 0.928 . S
C381 C378 1.260 . S
C381 C379 1.479 . S
C382 C377 1.245 . S
C382 C378 1.477 . S
C382 H399 0.932 . S
C383 U366 2.882 . S
C383 C377 1.428 . S
C383 O386 1.301 . S
C383 O387 1.282 . S
O384 U366 2.441 . S
O384 C370 1.249 . S
O385 U366 2.420 . S
O385 C370 1.202 . S
O386 U366 2.455 . S
O386 C383 1.301 . S
O387 U366 2.449 . S
O387 C383 1.282 . S
H388 C361 0.931 . S
H389 C363 0.929 . S
H390 C364 0.930 . S
H391 C365 0.931 . S
H392 C372 0.932 . S
H393 C373 0.931 1_565 S
H394 C374 0.929 . S
H395 C376 0.930 . S
H396 C378 0.958 . S
H397 C379 0.929 . S
H398 C380 0.928 . S
H399 C382 0.932 . S
C400 C401 1.264 . S
C400 C405 1.479 . S
C400 C410 1.465 . S
C401 C400 1.264 . S
C401 C403 1.339 . S
C401 H428 0.931 . S
C402 C403 1.395 . S
C402 C404 1.320 . S
C403 C401 1.339 . S
C403 C402 1.395 . S
C403 H429 0.929 . S
C404 C402 1.320 . S
C404 C405 1.405 . S
C404 H430 0.930 . S
C405 C400 1.479 . S
C405 C404 1.405 . S
C405 H431 0.931 . S
U406 O407 2.454 . S
U406 O408 2.458 . S
U406 C409 2.984 . S
U406 C410 2.847 . S
U406 C423 2.882 . S
U406 O424 2.441 . S
U406 O425 2.420 . S
U406 O426 2.455 . S
U406 O427 2.449 . S
O407 U406 2.454 . S
O407 C409 1.353 . S
O408 U406 2.458 . S
O408 C409 1.286 . S
C409 U406 2.984 . S
C409 O407 1.353 . S
C409 O408 1.286 . S
C409 C411 1.363 . S
C410 C400 1.465 . S
C410 U406 2.847 . S
C410 O424 1.249 . S
C410 O425 1.202 . S
C411 C409 1.363 . S
C411 C413 1.408 . S
C411 C416 1.342 . S
C412 C413 1.310 . S
C412 C415 1.461 . S
C412 H432 0.932 . S
C413 C411 1.408 . S
C413 C412 1.310 . S
C413 H433 0.930 . S
C414 C415 1.474 . S
C414 C416 1.285 . S
C414 H434 0.929 . S
C415 C412 1.461 . S
C415 C414 1.474 . S
C416 C411 1.342 . S
C416 C414 1.285 . S
C416 H435 0.930 . S
C417 C420 1.424 . S
C417 C422 1.245 . S
C417 C423 1.428 . S
C418 C421 1.260 . S
C418 C422 1.477 . S
C418 H436 0.932 . S
C419 C420 1.384 . S
C419 C421 1.479 . S
C419 H437 0.929 . S
C420 C417 1.424 . S
C420 C419 1.384 . S
C420 H438 0.928 . S
C421 C418 1.260 . S
C421 C419 1.479 . S
C422 C417 1.245 . S
C422 C418 1.477 . S
C422 H439 0.932 . S
C423 U406 2.882 . S
C423 C417 1.428 . S
C423 O426 1.301 . S
C423 O427 1.282 . S
O424 U406 2.441 . S
O424 C410 1.249 . S
O425 U406 2.420 . S
O425 C410 1.202 . S
O426 U406 2.455 . S
O426 C423 1.301 . S
O427 U406 2.449 . S
O427 C423 1.282 . S
H428 C401 0.931 . S
H429 C403 0.929 . S
H430 C404 0.930 . S
H431 C405 0.931 . S
H432 C412 0.932 . S
H433 C413 0.930 . S
H434 C414 0.929 . S
H435 C416 0.930 . S
H436 C418 0.932 . S
H437 C419 0.929 . S
H438 C420 0.928 . S
H439 C422 0.932 . S
C440 C441 1.264 . S
C440 C445 1.479 . S
C440 C450 1.465 . S
C441 C440 1.264 . S
C441 C443 1.339 . S
C441 H468 0.931 . S
C442 C443 1.395 . S
C442 C444 1.320 . S
C443 C441 1.339 . S
C443 C442 1.395 . S
C443 H469 0.929 . S
C444 C442 1.320 . S
C444 C445 1.405 . S
C444 H470 0.930 . S
C445 C440 1.479 . S
C445 C444 1.405 . S
C445 H471 0.931 . S
U446 O447 2.454 . S
U446 O448 2.458 . S
U446 C449 2.984 . S
U446 C450 2.847 . S
U446 C463 2.882 . S
U446 O464 2.441 . S
U446 O465 2.420 . S
U446 O466 2.455 . S
U446 O467 2.449 . S
O447 U446 2.454 . S
O447 C449 1.353 . S
O448 U446 2.458 . S
O448 C449 1.286 . S
C449 U446 2.984 . S
C449 O447 1.353 . S
C449 O448 1.286 . S
C449 C451 1.363 . S
C450 C440 1.465 . S
C450 U446 2.847 . S
C450 O464 1.249 . S
C450 O465 1.202 . S
C451 C449 1.363 . S
C451 C453 1.408 . S
C451 C456 1.342 . S
C452 C453 1.310 . S
C452 C455 1.461 . S
C452 H472 0.932 . S
C453 C451 1.408 . S
C453 C452 1.310 . S
C453 H473 0.930 . S
C454 C455 1.474 . S
C454 C456 1.285 . S
C454 H474 0.929 . S
C455 C452 1.461 . S
C455 C454 1.474 . S
C456 C451 1.342 . S
C456 C454 1.285 . S
C456 H475 0.930 . S
C457 C460 1.424 . S
C457 C462 1.245 . S
C457 C463 1.428 . S
C458 C461 1.260 . S
C458 C462 1.477 . S
C458 H476 0.932 . S
C459 C460 1.384 . S
C459 C461 1.479 . S
C459 H477 0.929 . S
C460 C457 1.424 . S
C460 C459 1.384 . S
C460 H478 0.928 . S
C461 C458 1.260 . S
C461 C459 1.479 . S
C462 C457 1.245 . S
C462 C458 1.477 . S
C462 H479 0.932 . S
C463 U446 2.882 . S
C463 C457 1.428 . S
C463 O466 1.301 . S
C463 O467 1.282 . S
O464 U446 2.441 . S
O464 C450 1.249 . S
O465 U446 2.420 . S
O465 C450 1.202 . S
O466 U446 2.455 . S
O466 C463 1.301 . S
O467 U446 2.449 . S
O467 C463 1.282 . S
H468 C441 0.931 . S
H469 C443 0.929 . S
H470 C444 0.930 . S
H471 C445 0.931 . S
H472 C452 0.932 . S
H473 C453 0.930 . S
H474 C454 0.929 . S
H475 C456 0.930 . S
H476 C458 0.932 . S
H477 C459 0.929 . S
H478 C460 0.928 . S
H479 C462 0.932 . S
C480 C481 1.264 . S
C480 C485 1.479 . S
C480 C490 1.465 . S
C481 C480 1.264 . S
C481 C483 1.339 . S
C481 H508 0.931 . S
C482 C483 1.395 . S
C482 C484 1.320 . S
C483 C481 1.339 . S
C483 C482 1.395 . S
C483 H509 0.929 . S
C484 C482 1.320 . S
C484 C485 1.405 . S
C484 H510 0.930 . S
C485 C480 1.479 . S
C485 C484 1.405 . S
C485 H511 0.931 . S
U486 O487 2.454 . S
U486 O488 2.458 . S
U486 C489 2.984 . S
U486 C490 2.847 . S
U486 C503 2.882 . S
U486 O504 2.441 . S
U486 O505 2.420 . S
U486 O506 2.455 . S
U486 O507 2.449 . S
O487 U486 2.454 . S
O487 C489 1.353 . S
O488 U486 2.458 . S
O488 C489 1.286 . S
C489 U486 2.984 . S
C489 O487 1.353 . S
C489 O488 1.286 . S
C489 C491 1.363 . S
C490 C480 1.465 . S
C490 U486 2.847 . S
C490 O504 1.249 . S
C490 O505 1.202 . S
C491 C489 1.363 . S
C491 C493 1.408 . S
C491 C496 1.342 . S
C492 C493 1.310 . S
C492 C495 1.461 . S
C492 H512 0.932 . S
C493 C491 1.408 . S
C493 C492 1.310 . S
C493 H513 0.930 . S
C494 C495 1.474 . S
C494 C496 1.285 . S
C494 H514 0.929 . S
C495 C492 1.461 . S
C495 C494 1.474 . S
C496 C491 1.342 . S
C496 C494 1.285 . S
C496 H515 0.930 . S
C497 C500 1.424 . S
C497 C502 1.245 . S
C497 C503 1.428 . S
C498 C501 1.260 . S
C498 C502 1.477 . S
C498 H516 0.932 . S
C499 C500 1.384 . S
C499 C501 1.479 . S
C499 H517 0.929 . S
C500 C497 1.424 . S
C500 C499 1.384 . S
C500 H518 0.928 . S
C501 C498 1.260 . S
C501 C499 1.479 . S
C502 C497 1.245 . S
C502 C498 1.477 . S
C502 H519 0.932 . S
C503 U486 2.882 . S
C503 C497 1.428 . S
C503 O506 1.301 . S
C503 O507 1.282 . S
O504 U486 2.441 . S
O504 C490 1.249 . S
O505 U486 2.420 . S
O505 C490 1.202 . S
O506 U486 2.455 . S
O506 C503 1.301 . S
O507 U486 2.449 . S
O507 C503 1.282 . S
H508 C481 0.931 . S
H509 C483 0.929 . S
H510 C484 0.930 . S
H511 C485 0.931 . S
H512 C492 0.932 . S
H513 C493 0.930 . S
H514 C494 0.929 . S
H515 C496 0.930 . S
H516 C498 0.932 . S
H517 C499 0.929 . S
H518 C500 0.928 . S
H519 C502 0.932 . S
C520 C521 1.264 . S
C520 C525 1.479 . S
C520 C530 1.465 . S
C521 C520 1.264 . S
C521 C523 1.339 . S
C521 H548 0.931 . S
C522 C523 1.395 . S
C522 C524 1.320 . S
C523 C521 1.339 . S
C523 C522 1.395 . S
C523 H549 0.929 . S
C524 C522 1.320 . S
C524 C525 1.405 . S
C524 H550 0.930 . S
C525 C520 1.479 . S
C525 C524 1.405 . S
C525 H551 0.931 . S
U526 O527 2.454 . S
U526 O528 2.458 . S
U526 C529 2.984 . S
U526 C530 2.847 . S
U526 C543 2.882 . S
U526 O544 2.441 . S
U526 O545 2.420 . S
U526 O546 2.455 . S
U526 O547 2.449 . S
O527 U526 2.454 . S
O527 C529 1.353 . S
O528 U526 2.458 . S
O528 C529 1.286 . S
C529 U526 2.984 . S
C529 O527 1.353 . S
C529 O528 1.286 . S
C529 C531 1.361 . S
C530 C520 1.465 . S
C530 U526 2.847 . S
C530 O544 1.249 . S
C530 O545 1.202 . S
C531 C529 1.361 . S
C531 C533 1.407 . S
C531 C536 1.345 1_556 S
C532 C533 1.310 1_554 S
C532 C535 1.461 . S
C532 H552 0.932 . S
C533 C531 1.407 . S
C533 C532 1.310 1_556 S
C533 H553 0.930 . S
C534 C535 1.474 . S
C534 C536 1.285 . S
C534 H554 0.929 . S
C535 C532 1.461 . S
C535 C534 1.474 . S
C536 C531 1.345 1_554 S
C536 C534 1.285 . S
C536 H555 0.930 . S
C537 C540 1.424 . S
C537 C542 1.245 . S
C537 C543 1.428 . S
C538 C541 1.260 . S
C538 C542 1.477 . S
C538 H556 0.932 . S
C539 C540 1.384 . S
C539 C541 1.479 . S
C539 H557 0.929 . S
C540 C537 1.424 . S
C540 C539 1.384 . S
C540 H558 0.928 . S
C541 C538 1.260 . S
C541 C539 1.479 . S
C542 C537 1.245 . S
C542 C538 1.477 . S
C542 H559 0.932 . S
C543 U526 2.882 . S
C543 C537 1.428 . S
C543 O546 1.301 . S
C543 O547 1.282 . S
O544 U526 2.441 . S
O544 C530 1.249 . S
O545 U526 2.420 . S
O545 C530 1.202 . S
O546 U526 2.455 . S
O546 C543 1.301 . S
O547 U526 2.449 . S
O547 C543 1.282 . S
H548 C521 0.931 . S
H549 C523 0.929 . S
H550 C524 0.930 . S
H551 C525 0.931 . S
H552 C532 0.932 . S
H553 C533 0.930 . S
H554 C534 0.929 . S
H555 C536 0.930 . S
H556 C538 0.932 . S
H557 C539 0.929 . S
H558 C540 0.928 . S
H559 C542 0.932 . S
C560 C561 1.264 . S
C560 C565 1.479 . S
C560 C570 1.465 . S
C561 C560 1.264 . S
C561 C563 1.339 . S
C561 H588 0.931 . S
C562 C563 1.395 . S
C562 C564 1.320 . S
C563 C561 1.339 . S
C563 C562 1.395 . S
C563 H589 0.929 . S
C564 C562 1.320 . S
C564 C565 1.405 . S
C564 H590 0.930 . S
C565 C560 1.479 . S
C565 C564 1.405 . S
C565 H591 0.931 . S
U566 O567 2.454 . S
U566 O568 2.458 . S
U566 C569 2.984 . S
U566 C570 2.847 . S
U566 C583 2.882 . S
U566 O584 2.441 . S
U566 O585 2.420 . S
U566 O586 2.455 . S
U566 O587 2.449 . S
O567 U566 2.454 . S
O567 C569 1.353 . S
O568 U566 2.458 . S
O568 C569 1.286 . S
C569 U566 2.984 . S
C569 O567 1.353 . S
C569 O568 1.286 . S
C569 C571 1.363 . S
C570 C560 1.465 . S
C570 U566 2.847 . S
C570 O584 1.249 . S
C570 O585 1.202 . S
C571 C569 1.363 . S
C571 C573 1.408 . S
C571 C576 1.342 . S
C572 C573 1.310 . S
C572 C575 1.461 . S
C572 H592 0.932 . S
C573 C571 1.408 . S
C573 C572 1.310 . S
C573 H593 0.930 . S
C574 C575 1.474 . S
C574 C576 1.285 . S
C574 H594 0.929 . S
C575 C572 1.461 . S
C575 C574 1.474 . S
C576 C571 1.342 . S
C576 C574 1.285 . S
C576 H595 0.930 . S
C577 C580 1.424 . S
C577 C582 1.245 . S
C577 C583 1.428 . S
C578 C581 1.260 . S
C578 C582 1.477 . S
C578 H596 0.932 . S
C579 C580 1.384 . S
C579 C581 1.479 . S
C579 H597 0.929 . S
C580 C577 1.424 . S
C580 C579 1.384 . S
C580 H598 0.928 . S
C581 C578 1.260 . S
C581 C579 1.479 . S
C582 C577 1.245 . S
C582 C578 1.477 . S
C582 H599 0.932 . S
C583 U566 2.882 . S
C583 C577 1.428 . S
C583 O586 1.301 . S
C583 O587 1.282 . S
O584 U566 2.441 . S
O584 C570 1.249 . S
O585 U566 2.420 . S
O585 C570 1.202 . S
O586 U566 2.455 . S
O586 C583 1.301 . S
O587 U566 2.449 . S
O587 C583 1.282 . S
H588 C561 0.931 . S
H589 C563 0.929 . S
H590 C564 0.930 . S
H591 C565 0.931 . S
H592 C572 0.932 . S
H593 C573 0.930 . S
H594 C574 0.929 . S
H595 C576 0.930 . S
H596 C578 0.932 . S
H597 C579 0.929 . S
H598 C580 0.928 . S
H599 C582 0.932 . S
C600 C601 1.264 . S
C600 C605 1.479 . S
C600 C610 1.452 1_554 S
C601 C600 1.264 . S
C601 C603 1.339 . S
C601 H628 0.931 1_554 S
C602 C603 1.395 . S
C602 C604 1.320 . S
C603 C601 1.339 . S
C603 C602 1.395 . S
C603 H629 0.929 . S
C604 C602 1.320 . S
C604 C605 1.405 . S
C604 H630 0.930 . S
C605 C600 1.479 . S
C605 C604 1.405 . S
C605 H631 0.931 . S
U606 O607 2.454 . S
U606 O608 2.458 . S
U606 C609 2.984 . S
U606 C610 2.865 . S
U606 C623 2.882 . S
U606 O624 2.409 1_556 S
U606 O625 2.420 . S
U606 O626 2.455 . S
U606 O627 2.449 . S
O607 U606 2.454 . S
O607 C609 1.353 . S
O608 U606 2.458 . S
O608 C609 1.286 . S
C609 U606 2.984 . S
C609 O607 1.353 . S
C609 O608 1.286 . S
C609 C611 1.363 . S
C610 C600 1.452 1_556 S
C610 U606 2.865 . S
C610 O624 1.245 1_556 S
C610 O625 1.222 . S
C611 C609 1.363 . S
C611 C613 1.408 . S
C611 C616 1.342 1_545 S
C612 C613 1.310 1_565 S
C612 C615 1.461 . S
C612 H632 0.937 1_556 S
C613 C611 1.408 . S
C613 C612 1.310 1_545 S
C613 H633 0.930 1_556 S
C614 C615 1.474 . S
C614 C616 1.285 . S
C614 H634 0.929 . S
C615 C612 1.461 . S
C615 C614 1.474 . S
C616 C611 1.342 1_565 S
C616 C614 1.285 . S
C616 H635 0.930 . S
C617 C620 1.424 . S
C617 C622 1.245 . S
C617 C623 1.428 . S
C618 C621 1.260 . S
C618 C622 1.477 . S
C618 H636 0.932 . S
C619 C620 1.384 . S
C619 C621 1.479 . S
C619 H637 0.929 . S
C620 C617 1.424 . S
C620 C619 1.384 . S
C620 H638 0.928 . S
C621 C618 1.260 . S
C621 C619 1.479 . S
C622 C617 1.245 . S
C622 C618 1.477 . S
C622 H639 0.932 . S
C623 U606 2.882 . S
C623 C617 1.428 . S
C623 O626 1.301 . S
C623 O627 1.282 . S
O624 U606 2.409 1_554 S
O624 C610 1.245 1_554 S
O625 U606 2.420 . S
O625 C610 1.222 . S
O626 U606 2.455 . S
O626 C623 1.301 . S
O627 U606 2.449 . S
O627 C623 1.282 . S
H628 C601 0.931 1_556 S
H629 C603 0.929 . S
H630 C604 0.930 . S
H631 C605 0.931 . S
H632 C612 0.937 1_554 S
H633 C613 0.930 1_554 S
H634 C614 0.929 . S
H635 C616 0.930 . S
H636 C618 0.932 . S
H637 C619 0.929 . S
H638 C620 0.928 . S
H639 C622 0.932 . S
Mn640 O645 2.095 . S
Mn640 O655 2.162 . S
Mn640 O656 2.297 . S
Mn640 O664 2.385 . S
Mn640 O665 2.209 1_554 S
Mn640 O666 2.094 . S
Mn641 O646 2.121 . S
Mn641 N648 2.257 . S
Mn641 N657 2.282 . S
Mn641 O665 2.215 . S
Mn641 O667 2.117 . S
C642 O664 1.234 1_556 S
C642 O665 1.283 . S
C643 O655 1.281 . S
C643 O656 1.236 . S
C644 O666 1.240 . S
C644 O667 1.264 1_554 S
O645 Mn640 2.095 . S
O645 C654 1.250 . S
O646 Mn641 2.121 . S
O646 C654 1.258 1_556 S
C647 N648 1.326 . S
C647 C651 1.460 . S
C647 H653 0.929 . S
N648 Mn641 2.257 . S
N648 C647 1.326 . S
N648 C652 1.362 . S
C649 C650 1.258 . S
C649 C652 1.431 . S
C649 C669 1.449 . S
C650 C649 1.258 . S
C650 C651 1.477 . S
C650 H670 0.931 . S
C651 C647 1.460 . S
C651 C650 1.477 . S
C651 H671 0.930 . S
C652 N648 1.362 . S
C652 C649 1.431 . S
C652 C662 1.476 . S
H653 C647 0.929 . S
C654 O645 1.250 . S
C654 O646 1.258 1_554 S
O655 Mn640 2.162 . S
O655 C643 1.281 . S
O656 Mn640 2.297 . S
O656 C643 1.236 . S
N657 Mn641 2.282 . S
N657 C658 1.328 . S
N657 C662 1.318 . S
C658 N657 1.328 . S
C658 C659 1.457 . S
C658 H663 0.929 . S
C659 C658 1.457 . S
C659 C660 1.291 . S
C659 H672 0.931 . S
C660 C659 1.291 . S
C660 C661 1.373 . S
C660 H673 0.929 . S
C661 C660 1.373 . S
C661 C662 1.396 . S
C661 C668 1.403 . S
C662 C652 1.476 . S
C662 N657 1.318 . S
C662 C661 1.396 . S
H663 C658 0.929 . S
O664 Mn640 2.385 . S
O664 C642 1.234 1_554 S
O665 Mn640 2.209 1_556 S
O665 Mn641 2.215 . S
O665 C642 1.283 . S
O666 Mn640 2.094 . S
O666 C644 1.240 . S
O667 Mn641 2.117 . S
O667 C644 1.264 1_556 S
C668 C661 1.403 . S
C668 C669 1.399 . S
C668 H674 0.929 . S
C669 C649 1.449 . S
C669 C668 1.399 . S
C669 H675 0.930 . S
H670 C650 0.931 . S
H671 C651 0.930 . S
H672 C659 0.931 . S
H673 C660 0.929 . S
H674 C668 0.929 . S
H675 C669 0.930 . S
Mn676 O681 2.095 . S
Mn676 O691 2.162 . S
Mn676 O692 2.297 . S
Mn676 O700 2.385 . S
Mn676 O701 2.209 . S
Mn676 O702 2.094 . S
Mn677 O682 2.121 . S
Mn677 N684 2.257 . S
Mn677 N693 2.282 . S
Mn677 O701 2.215 . S
Mn677 O703 2.117 . S
C678 O700 1.234 . S
C678 O701 1.283 . S
C679 O691 1.281 . S
C679 O692 1.236 . S
C680 O702 1.240 . S
C680 O703 1.264 . S
O681 Mn676 2.095 . S
O681 C690 1.250 . S
O682 Mn677 2.121 . S
O682 C690 1.258 . S
C683 N684 1.326 . S
C683 C687 1.460 . S
C683 H689 0.929 . S
N684 Mn677 2.257 . S
N684 C683 1.326 . S
N684 C688 1.362 . S
C685 C686 1.258 . S
C685 C688 1.431 . S
C685 C705 1.449 . S
C686 C685 1.258 . S
C686 C687 1.477 . S
C686 H706 0.931 . S
C687 C683 1.460 . S
C687 C686 1.477 . S
C687 H707 0.930 . S
C688 N684 1.362 . S
C688 C685 1.431 . S
C688 C698 1.476 . S
H689 C683 0.929 . S
C690 O681 1.250 . S
C690 O682 1.258 . S
O691 Mn676 2.162 . S
O691 C679 1.281 . S
O692 Mn676 2.297 . S
O692 C679 1.236 . S
N693 Mn677 2.282 . S
N693 C694 1.328 . S
N693 C698 1.318 . S
C694 N693 1.328 . S
C694 C695 1.457 . S
C694 H699 0.929 . S
C695 C694 1.457 . S
C695 C696 1.291 . S
C695 H708 0.931 . S
C696 C695 1.291 . S
C696 C697 1.373 . S
C696 H709 0.929 . S
C697 C696 1.373 . S
C697 C698 1.396 . S
C697 C704 1.403 . S
C698 C688 1.476 . S
C698 N693 1.318 . S
C698 C697 1.396 . S
H699 C694 0.929 . S
O700 Mn676 2.385 . S
O700 C678 1.234 . S
O701 Mn676 2.209 . S
O701 Mn677 2.215 . S
O701 C678 1.283 . S
O702 Mn676 2.094 . S
O702 C680 1.240 . S
O703 Mn677 2.117 . S
O703 C680 1.264 . S
C704 C697 1.403 . S
C704 C705 1.399 . S
C704 H710 0.929 . S
C705 C685 1.449 . S
C705 C704 1.399 . S
C705 H711 0.930 . S
H706 C686 0.931 . S
H707 C687 0.930 . S
H708 C695 0.931 . S
H709 C696 0.929 . S
H710 C704 0.929 . S
H711 C705 0.930 . S
Mn712 O717 2.095 1_554 S
Mn712 O727 2.162 . S
Mn712 O728 2.297 1_554 S
Mn712 O736 2.385 . S
Mn712 O737 2.209 1_554 S
Mn712 O738 2.094 . S
Mn713 O718 2.121 . S
Mn713 N720 2.257 . S
Mn713 N729 2.282 . S
Mn713 O737 2.215 . S
Mn713 O739 2.117 1_556 S
C714 O736 1.200 1_556 S
C714 O737 1.307 . S
C715 O727 1.281 . S
C715 O728 1.236 1_554 S
C716 O738 1.240 . S
C716 O739 1.264 . S
O717 Mn712 2.095 1_556 S
O717 C726 1.250 . S
O718 Mn713 2.121 . S
O718 C726 1.258 . S
C719 N720 1.326 . S
C719 C723 1.460 . S
C719 H725 0.929 . S
N720 Mn713 2.257 . S
N720 C719 1.326 . S
N720 C724 1.362 . S
C721 C722 1.258 . S
C721 C724 1.431 . S
C721 C741 1.449 . S
C722 C721 1.258 . S
C722 C723 1.477 . S
C722 H742 0.931 . S
C723 C719 1.460 . S
C723 C722 1.477 . S
C723 H743 0.930 . S
C724 N720 1.362 . S
C724 C721 1.431 . S
C724 C734 1.476 . S
H725 C719 0.929 . S
C726 O717 1.250 . S
C726 O718 1.258 . S
O727 Mn712 2.162 . S
O727 C715 1.281 . S
O728 Mn712 2.297 1_556 S
O728 C715 1.236 1_556 S
N729 Mn713 2.282 . S
N729 C730 1.328 1_556 S
N729 C734 1.318 . S
C730 N729 1.328 1_554 S
C730 C731 1.457 . S
C730 H735 0.929 . S
C731 C730 1.457 . S
C731 C732 1.291 . S
C731 H744 0.931 . S
C732 C731 1.291 . S
C732 C733 1.373 1_554 S
C732 H745 0.929 . S
C733 C732 1.373 1_556 S
C733 C734 1.396 . S
C733 C740 1.403 . S
C734 C724 1.476 . S
C734 N729 1.318 . S
C734 C733 1.396 . S
H735 C730 0.929 . S
O736 Mn712 2.385 . S
O736 C714 1.200 1_554 S
O737 Mn712 2.209 1_556 S
O737 Mn713 2.215 . S
O737 C714 1.307 . S
O738 Mn712 2.094 . S
O738 C716 1.240 . S
O739 Mn713 2.117 1_554 S
O739 C716 1.264 . S
C740 C733 1.403 . S
C740 C741 1.399 . S
C740 H746 0.929 . S
C741 C721 1.449 . S
C741 C740 1.399 . S
C741 H747 0.930 . S
H742 C722 0.931 . S
H743 C723 0.930 . S
H744 C731 0.931 . S
H745 C732 0.929 . S
H746 C740 0.929 . S
H747 C741 0.930 . S
Mn748 O753 2.095 . S
Mn748 O763 2.162 . S
Mn748 O764 2.297 . S
Mn748 O772 2.385 . S
Mn748 O773 2.209 1_545 S
Mn748 O774 2.094 . S
Mn749 O754 2.121 . S
Mn749 N756 2.257 . S
Mn749 N765 2.282 . S
Mn749 O773 2.215 . S
Mn749 O775 2.117 . S
C750 O772 1.234 1_565 S
C750 O773 1.283 . S
C751 O763 1.281 . S
C751 O764 1.236 . S
C752 O774 1.240 . S
C752 O775 1.264 1_545 S
O753 Mn748 2.095 . S
O753 C762 1.250 . S
O754 Mn749 2.121 . S
O754 C762 1.258 1_565 S
C755 N756 1.326 . S
C755 C759 1.460 . S
C755 H761 0.929 . S
N756 Mn749 2.257 . S
N756 C755 1.326 . S
N756 C760 1.362 . S
C757 C758 1.258 . S
C757 C760 1.431 . S
C757 C777 1.449 . S
C758 C757 1.258 . S
C758 C759 1.477 . S
C758 H778 0.931 . S
C759 C755 1.460 . S
C759 C758 1.477 . S
C759 H779 0.930 . S
C760 N756 1.362 . S
C760 C757 1.431 . S
C760 C770 1.476 . S
H761 C755 0.929 . S
C762 O753 1.250 . S
C762 O754 1.258 1_545 S
O763 Mn748 2.162 . S
O763 C751 1.281 . S
O764 Mn748 2.297 . S
O764 C751 1.236 . S
N765 Mn749 2.282 . S
N765 C766 1.328 . S
N765 C770 1.318 . S
C766 N765 1.328 . S
C766 C767 1.457 . S
C766 H771 0.929 . S
C767 C766 1.457 . S
C767 C768 1.291 . S
C767 H780 0.931 . S
C768 C767 1.291 . S
C768 C769 1.373 . S
C768 H781 0.929 . S
C769 C768 1.373 . S
C769 C770 1.396 . S
C769 C776 1.403 . S
C770 C760 1.476 . S
C770 N765 1.318 . S
C770 C769 1.396 . S
H771 C766 0.929 . S
O772 Mn748 2.385 . S
O772 C750 1.234 1_545 S
O773 Mn748 2.209 1_565 S
O773 Mn749 2.215 . S
O773 C750 1.283 . S
O774 Mn748 2.094 . S
O774 C752 1.240 . S
O775 Mn749 2.117 . S
O775 C752 1.264 1_565 S
C776 C769 1.403 . S
C776 C777 1.399 . S
C776 H782 0.929 . S
C777 C757 1.449 . S
C777 C776 1.399 . S
C777 H783 0.930 . S
H778 C758 0.931 . S
H779 C759 0.930 . S
H780 C767 0.931 . S
H781 C768 0.929 . S
H782 C776 0.929 . S
H783 C777 0.930 . S
Mn784 O789 2.095 . S
Mn784 O799 2.162 . S
Mn784 O800 2.297 . S
Mn784 O808 2.385 . S
Mn784 O809 2.209 . S
Mn784 O810 2.094 . S
Mn785 O790 2.121 . S
Mn785 N792 2.257 . S
Mn785 N801 2.282 . S
Mn785 O809 2.215 . S
Mn785 O811 2.117 . S
C786 O808 1.234 . S
C786 O809 1.283 . S
C787 O799 1.281 . S
C787 O800 1.236 . S
C788 O810 1.240 . S
C788 O811 1.264 . S
O789 Mn784 2.095 . S
O789 C798 1.250 . S
O790 Mn785 2.121 . S
O790 C798 1.258 . S
C791 N792 1.326 . S
C791 C795 1.460 . S
C791 H797 0.929 . S
N792 Mn785 2.257 . S
N792 C791 1.326 . S
N792 C796 1.362 . S
C793 C794 1.258 . S
C793 C796 1.431 . S
C793 C813 1.449 . S
C794 C793 1.258 . S
C794 C795 1.477 . S
C794 H814 0.931 . S
C795 C791 1.460 . S
C795 C794 1.477 . S
C795 H815 0.930 . S
C796 N792 1.362 . S
C796 C793 1.431 . S
C796 C806 1.476 . S
H797 C791 0.929 . S
C798 O789 1.250 . S
C798 O790 1.258 . S
O799 Mn784 2.162 . S
O799 C787 1.281 . S
O800 Mn784 2.297 . S
O800 C787 1.236 . S
N801 Mn785 2.282 . S
N801 C802 1.328 . S
N801 C806 1.318 . S
C802 N801 1.328 . S
C802 C803 1.457 . S
C802 H807 0.929 . S
C803 C802 1.457 . S
C803 C804 1.291 . S
C803 H816 0.931 . S
C804 C803 1.291 . S
C804 C805 1.373 . S
C804 H817 0.929 . S
C805 C804 1.373 . S
C805 C806 1.396 . S
C805 C812 1.403 . S
C806 C796 1.476 . S
C806 N801 1.318 . S
C806 C805 1.396 . S
H807 C802 0.929 . S
O808 Mn784 2.385 . S
O808 C786 1.234 . S
O809 Mn784 2.209 . S
O809 Mn785 2.215 . S
O809 C786 1.283 . S
O810 Mn784 2.094 . S
O810 C788 1.240 . S
O811 Mn785 2.117 . S
O811 C788 1.264 . S
C812 C805 1.403 . S
C812 C813 1.399 . S
C812 H818 0.929 . S
C813 C793 1.449 . S
C813 C812 1.399 . S
C813 H819 0.930 . S
H814 C794 0.931 . S
H815 C795 0.930 . S
H816 C803 0.931 . S
H817 C804 0.929 . S
H818 C812 0.929 . S
H819 C813 0.930 . S
Mn820 O825 2.095 . S
Mn820 O835 2.162 . S
Mn820 O836 2.297 . S
Mn820 O844 2.385 . S
Mn820 O845 2.209 . S
Mn820 O846 2.094 . S
Mn821 O826 2.121 . S
Mn821 N828 2.257 . S
Mn821 N837 2.282 . S
Mn821 O845 2.215 . S
Mn821 O847 2.117 . S
C822 O844 1.234 . S
C822 O845 1.283 . S
C823 O835 1.281 . S
C823 O836 1.236 . S
C824 O846 1.240 . S
C824 O847 1.264 . S
O825 Mn820 2.095 . S
O825 C834 1.250 . S
O826 Mn821 2.121 . S
O826 C834 1.258 . S
C827 N828 1.326 . S
C827 C831 1.460 . S
C827 H833 0.929 . S
N828 Mn821 2.257 . S
N828 C827 1.326 . S
N828 C832 1.362 . S
C829 C830 1.258 . S
C829 C832 1.431 . S
C829 C849 1.449 . S
C830 C829 1.258 . S
C830 C831 1.477 . S
C830 H850 0.931 . S
C831 C827 1.460 . S
C831 C830 1.477 . S
C831 H851 0.930 . S
C832 N828 1.362 . S
C832 C829 1.431 . S
C832 C842 1.476 . S
H833 C827 0.929 . S
C834 O825 1.250 . S
C834 O826 1.258 . S
O835 Mn820 2.162 . S
O835 C823 1.281 . S
O836 Mn820 2.297 . S
O836 C823 1.236 . S
N837 Mn821 2.282 . S
N837 C838 1.328 . S
N837 C842 1.318 . S
C838 N837 1.328 . S
C838 C839 1.457 . S
C838 H843 0.929 . S
C839 C838 1.457 . S
C839 C840 1.291 . S
C839 H852 0.931 . S
C840 C839 1.291 . S
C840 C841 1.373 . S
C840 H853 0.929 . S
C841 C840 1.373 . S
C841 C842 1.396 . S
C841 C848 1.403 . S
C842 C832 1.476 . S
C842 N837 1.318 . S
C842 C841 1.396 . S
H843 C838 0.929 . S
O844 Mn820 2.385 . S
O844 C822 1.234 . S
O845 Mn820 2.209 . S
O845 Mn821 2.215 . S
O845 C822 1.283 . S
O846 Mn820 2.094 . S
O846 C824 1.240 . S
O847 Mn821 2.117 . S
O847 C824 1.264 . S
C848 C841 1.403 . S
C848 C849 1.399 . S
C848 H854 0.929 . S
C849 C829 1.449 . S
C849 C848 1.399 . S
C849 H855 0.930 . S
H850 C830 0.931 . S
H851 C831 0.930 . S
H852 C839 0.931 . S
H853 C840 0.929 . S
H854 C848 0.929 . S
H855 C849 0.930 . S
Mn856 O861 2.095 . S
Mn856 O871 2.162 . S
Mn856 O872 2.297 . S
Mn856 O880 2.385 . S
Mn856 O881 2.209 . S
Mn856 O882 2.094 . S
Mn857 O862 2.121 . S
Mn857 N864 2.257 . S
Mn857 N873 2.282 . S
Mn857 O881 2.215 . S
Mn857 O883 2.117 . S
C858 O880 1.234 . S
C858 O881 1.283 . S
C859 O871 1.281 . S
C859 O872 1.236 . S
C860 O882 1.240 . S
C860 O883 1.264 . S
O861 Mn856 2.095 . S
O861 C870 1.250 . S
O862 Mn857 2.121 . S
O862 C870 1.258 . S
C863 N864 1.326 . S
C863 C867 1.460 . S
C863 H869 0.929 . S
N864 Mn857 2.257 . S
N864 C863 1.326 . S
N864 C868 1.362 . S
C865 C866 1.258 . S
C865 C868 1.431 . S
C865 C885 1.449 . S
C866 C865 1.258 . S
C866 C867 1.477 . S
C866 H886 0.931 . S
C867 C863 1.460 . S
C867 C866 1.477 . S
C867 H887 0.930 . S
C868 N864 1.362 . S
C868 C865 1.431 . S
C868 C878 1.476 . S
H869 C863 0.929 . S
C870 O861 1.250 . S
C870 O862 1.258 . S
O871 Mn856 2.162 . S
O871 C859 1.281 . S
O872 Mn856 2.297 . S
O872 C859 1.236 . S
N873 Mn857 2.282 . S
N873 C874 1.328 . S
N873 C878 1.318 . S
C874 N873 1.328 . S
C874 C875 1.457 . S
C874 H879 0.929 . S
C875 C874 1.457 . S
C875 C876 1.291 . S
C875 H888 0.931 . S
C876 C875 1.291 . S
C876 C877 1.373 . S
C876 H889 0.929 . S
C877 C876 1.373 . S
C877 C878 1.396 . S
C877 C884 1.403 . S
C878 C868 1.476 . S
C878 N873 1.318 . S
C878 C877 1.396 . S
H879 C874 0.929 . S
O880 Mn856 2.385 . S
O880 C858 1.234 . S
O881 Mn856 2.209 . S
O881 Mn857 2.215 . S
O881 C858 1.283 . S
O882 Mn856 2.094 . S
O882 C860 1.240 . S
O883 Mn857 2.117 . S
O883 C860 1.264 . S
C884 C877 1.403 . S
C884 C885 1.399 . S
C884 H890 0.929 . S
C885 C865 1.449 . S
C885 C884 1.399 . S
C885 H891 0.930 . S
H886 C866 0.931 . S
H887 C867 0.930 . S
H888 C875 0.931 . S
H889 C876 0.929 . S
H890 C884 0.929 . S
H891 C885 0.930 . S
Mn892 O897 2.095 . S
Mn892 O907 2.162 . S
Mn892 O908 2.297 . S
Mn892 O916 2.385 1_565 S
Mn892 O917 2.209 1_565 S
Mn892 O918 2.094 . S
Mn893 O898 2.121 . S
Mn893 N900 2.257 . S
Mn893 N909 2.282 . S
Mn893 O917 2.215 . S
Mn893 O919 2.117 . S
C894 O916 1.234 . S
C894 O917 1.283 . S
C895 O907 1.281 . S
C895 O908 1.236 . S
C896 O918 1.220 1_545 S
C896 O919 1.290 . S
O897 Mn892 2.095 . S
O897 C906 1.250 1_565 S
O898 Mn893 2.121 . S
O898 C906 1.258 . S
C899 N900 1.326 . S
C899 C903 1.460 . S
C899 H905 0.929 . S
N900 Mn893 2.257 . S
N900 C899 1.326 . S
N900 C904 1.362 . S
C901 C902 1.258 . S
C901 C904 1.431 . S
C901 C921 1.449 . S
C902 C901 1.258 . S
C902 C903 1.477 . S
C902 H922 0.931 . S
C903 C899 1.460 . S
C903 C902 1.477 . S
C903 H923 0.930 . S
C904 N900 1.362 . S
C904 C901 1.431 . S
C904 C914 1.476 . S
H905 C899 0.929 . S
C906 O897 1.250 1_545 S
C906 O898 1.258 . S
O907 Mn892 2.162 . S
O907 C895 1.281 . S
O908 Mn892 2.297 . S
O908 C895 1.236 . S
N909 Mn893 2.282 . S
N909 C910 1.328 . S
N909 C914 1.318 . S
C910 N909 1.328 . S
C910 C911 1.457 . S
C910 H915 0.929 . S
C911 C910 1.457 . S
C911 C912 1.291 . S
C911 H924 0.931 . S
C912 C911 1.291 . S
C912 C913 1.373 . S
C912 H925 0.929 . S
C913 C912 1.373 . S
C913 C914 1.396 . S
C913 C920 1.403 . S
C914 C904 1.476 . S
C914 N909 1.318 . S
C914 C913 1.396 . S
H915 C910 0.929 . S
O916 Mn892 2.385 1_545 S
O916 C894 1.234 . S
O917 Mn892 2.209 1_545 S
O917 Mn893 2.215 . S
O917 C894 1.283 . S
O918 Mn892 2.094 . S
O918 C896 1.220 1_565 S
O919 Mn893 2.117 . S
O919 C896 1.290 . S
C920 C913 1.403 . S
C920 C921 1.399 . S
C920 H926 0.929 . S
C921 C901 1.449 . S
C921 C920 1.399 . S
C921 H927 0.930 . S
H922 C902 0.931 . S
H923 C903 0.930 . S
H924 C911 0.931 . S
H925 C912 0.929 . S
H926 C920 0.929 . S
H927 C921 0.930 . S
Mn928 O933 2.095 . S
Mn928 O943 2.162 . S
Mn928 O944 2.297 . S
Mn928 O952 2.414 . S
Mn928 O953 2.209 1_455 S
Mn928 O954 2.094 . S
Mn929 O934 2.121 . S
Mn929 N936 2.257 . S
Mn929 N945 2.282 . S
Mn929 O953 2.215 . S
Mn929 O955 2.117 . S
C930 O952 1.181 1_655 S
C930 O953 1.283 . S
C931 O943 1.281 . S
C931 O944 1.236 . S
C932 O954 1.240 . S
C932 O955 1.264 1_455 S
O933 Mn928 2.095 . S
O933 C942 1.250 . S
O934 Mn929 2.121 . S
O934 C942 1.258 1_655 S
C935 N936 1.326 . S
C935 C939 1.460 . S
C935 H941 0.929 . S
N936 Mn929 2.257 . S
N936 C935 1.326 . S
N936 C940 1.362 . S
C937 C938 1.258 . S
C937 C940 1.431 . S
C937 C957 1.449 . S
C938 C937 1.258 . S
C938 C939 1.477 . S
C938 H958 0.931 . S
C939 C935 1.460 . S
C939 C938 1.477 . S
C939 H959 0.930 . S
C940 N936 1.362 . S
C940 C937 1.431 . S
C940 C950 1.476 . S
H941 C935 0.929 . S
C942 O933 1.250 . S
C942 O934 1.258 1_455 S
O943 Mn928 2.162 . S
O943 C931 1.281 . S
O944 Mn928 2.297 . S
O944 C931 1.236 . S
N945 Mn929 2.282 . S
N945 C946 1.328 . S
N945 C950 1.318 . S
C946 N945 1.328 . S
C946 C947 1.457 . S
C946 H951 0.929 . S
C947 C946 1.457 . S
C947 C948 1.291 . S
C947 H960 0.931 . S
C948 C947 1.291 . S
C948 C949 1.373 . S
C948 H961 0.929 . S
C949 C948 1.373 . S
C949 C950 1.396 . S
C949 C956 1.403 . S
C950 C940 1.476 . S
C950 N945 1.318 . S
C950 C949 1.396 . S
H951 C946 0.929 . S
O952 Mn928 2.414 . S
O952 C930 1.181 1_455 S
O953 Mn928 2.209 1_655 S
O953 Mn929 2.215 . S
O953 C930 1.283 . S
O954 Mn928 2.094 . S
O954 C932 1.240 . S
O955 Mn929 2.117 . S
O955 C932 1.264 1_655 S
C956 C949 1.403 . S
C956 C957 1.399 . S
C956 H962 0.929 . S
C957 C937 1.449 . S
C957 C956 1.399 . S
C957 H963 0.930 . S
H958 C938 0.931 . S
H959 C939 0.930 . S
H960 C947 0.931 . S
H961 C948 0.929 . S
H962 C956 0.929 . S
H963 C957 0.930 . S
Mn964 O969 2.095 . S
Mn964 O979 2.162 . S
Mn964 O980 2.297 . S
Mn964 O988 2.385 . S
Mn964 O989 2.209 . S
Mn964 O990 2.094 . S
Mn965 O970 2.121 . S
Mn965 N972 2.257 . S
Mn965 N981 2.282 . S
Mn965 O989 2.215 . S
Mn965 O991 2.117 . S
C966 O988 1.234 . S
C966 O989 1.283 . S
C967 O979 1.281 . S
C967 O980 1.236 . S
C968 O990 1.240 . S
C968 O991 1.264 . S
O969 Mn964 2.095 . S
O969 C978 1.250 . S
O970 Mn965 2.121 . S
O970 C978 1.258 . S
C971 N972 1.326 . S
C971 C975 1.460 . S
C971 H977 0.929 . S
N972 Mn965 2.257 . S
N972 C971 1.326 . S
N972 C976 1.362 . S
C973 C974 1.258 . S
C973 C976 1.431 . S
C973 C993 1.449 . S
C974 C973 1.258 . S
C974 C975 1.477 . S
C974 H994 0.931 . S
C975 C971 1.460 . S
C975 C974 1.477 . S
C975 H995 0.930 . S
C976 N972 1.362 . S
C976 C973 1.431 . S
C976 C986 1.476 . S
H977 C971 0.929 . S
C978 O969 1.250 . S
C978 O970 1.258 . S
O979 Mn964 2.162 . S
O979 C967 1.281 . S
O980 Mn964 2.297 . S
O980 C967 1.236 . S
N981 Mn965 2.282 . S
N981 C982 1.328 . S
N981 C986 1.318 . S
C982 N981 1.328 . S
C982 C983 1.457 . S
C982 H987 0.929 . S
C983 C982 1.457 . S
C983 C984 1.291 . S
C983 H996 0.931 . S
C984 C983 1.291 . S
C984 C985 1.373 . S
C984 H997 0.929 . S
C985 C984 1.373 . S
C985 C986 1.396 . S
C985 C992 1.403 . S
C986 C976 1.476 . S
C986 N981 1.318 . S
C986 C985 1.396 . S
H987 C982 0.929 . S
O988 Mn964 2.385 . S
O988 C966 1.234 . S
O989 Mn964 2.209 . S
O989 Mn965 2.215 . S
O989 C966 1.283 . S
O990 Mn964 2.094 . S
O990 C968 1.240 . S
O991 Mn965 2.117 . S
O991 C968 1.264 . S
C992 C985 1.403 . S
C992 C993 1.399 . S
C992 H998 0.929 . S
C993 C973 1.449 . S
C993 C992 1.399 . S
C993 H999 0.930 . S
H994 C974 0.931 . S
H995 C975 0.930 . S
H996 C983 0.931 . S
H997 C984 0.929 . S
H998 C992 0.929 . S
H999 C993 0.930 . S
Mn1000 O1005 2.083 1_455 S
Mn1000 O1015 2.162 . S
Mn1000 O1016 2.300 . S
Mn1000 O1024 2.385 . S
Mn1000 O1025 2.211 1_455 S
Mn1000 O1026 2.094 . S
Mn1001 O1006 2.121 . S
Mn1001 N1008 2.257 . S
Mn1001 N1017 2.282 1_655 S
Mn1001 O1025 2.214 . S
Mn1001 O1027 2.117 1_655 S
C1002 O1024 1.234 . S
C1002 O1025 1.286 1_455 S
C1003 O1015 1.281 . S
C1003 O1016 1.240 . S
C1004 O1026 1.240 . S
C1004 O1027 1.264 . S
O1005 Mn1000 2.083 1_655 S
O1005 C1014 1.268 . S
O1006 Mn1001 2.121 . S
O1006 C1014 1.258 . S
C1007 N1008 1.326 . S
C1007 C1011 1.460 . S
C1007 H1013 0.929 . S
N1008 Mn1001 2.257 . S
N1008 C1007 1.326 . S
N1008 C1012 1.362 . S
C1009 C1010 1.258 . S
C1009 C1012 1.431 . S
C1009 C1029 1.449 . S
C1010 C1009 1.258 . S
C1010 C1011 1.477 . S
C1010 H1030 0.931 . S
C1011 C1007 1.460 . S
C1011 C1010 1.477 . S
C1011 H1031 0.930 . S
C1012 N1008 1.362 . S
C1012 C1009 1.431 . S
C1012 C1022 1.476 . S
H1013 C1007 0.929 . S
C1014 O1005 1.268 . S
C1014 O1006 1.258 . S
O1015 Mn1000 2.162 . S
O1015 C1003 1.281 . S
O1016 Mn1000 2.300 . S
O1016 C1003 1.240 . S
N1017 Mn1001 2.282 1_455 S
N1017 C1018 1.328 . S
N1017 C1022 1.318 1_455 S
C1018 N1017 1.328 . S
C1018 C1019 1.457 . S
C1018 H1023 0.929 . S
C1019 C1018 1.457 . S
C1019 C1020 1.291 . S
C1019 H1032 0.931 . S
C1020 C1019 1.291 . S
C1020 C1021 1.402 . S
C1020 H1033 0.929 . S
C1021 C1020 1.402 . S
C1021 C1022 1.388 1_455 S
C1021 C1028 1.381 1_455 S
C1022 C1012 1.476 . S
C1022 N1017 1.318 1_655 S
C1022 C1021 1.388 1_655 S
H1023 C1018 0.929 . S
O1024 Mn1000 2.385 . S
O1024 C1002 1.234 . S
O1025 Mn1000 2.211 1_655 S
O1025 Mn1001 2.214 . S
O1025 C1002 1.286 1_655 S
O1026 Mn1000 2.094 . S
O1026 C1004 1.240 . S
O1027 Mn1001 2.117 1_455 S
O1027 C1004 1.264 . S
C1028 C1021 1.381 1_655 S
C1028 C1029 1.399 . S
C1028 H1034 0.929 . S
C1029 C1009 1.449 . S
C1029 C1028 1.399 . S
C1029 H1035 0.930 . S
H1030 C1010 0.931 . S
H1031 C1011 0.930 . S
H1032 C1019 0.931 . S
H1033 C1020 0.929 . S
H1034 C1028 0.929 . S
H1035 C1029 0.930 . S
Mn1036 O1041 2.095 . S
Mn1036 O1051 2.162 . S
Mn1036 O1052 2.297 . S
Mn1036 O1060 2.385 . S
Mn1036 O1061 2.209 . S
Mn1036 O1062 2.094 . S
Mn1037 O1042 2.121 . S
Mn1037 N1044 2.257 . S
Mn1037 N1053 2.282 . S
Mn1037 O1061 2.215 . S
Mn1037 O1063 2.117 . S
C1038 O1060 1.234 . S
C1038 O1061 1.283 . S
C1039 O1051 1.281 . S
C1039 O1052 1.236 . S
C1040 O1062 1.240 . S
C1040 O1063 1.264 . S
O1041 Mn1036 2.095 . S
O1041 C1050 1.250 . S
O1042 Mn1037 2.121 . S
O1042 C1050 1.258 . S
C1043 N1044 1.326 . S
C1043 C1047 1.460 . S
C1043 H1049 0.929 . S
N1044 Mn1037 2.257 . S
N1044 C1043 1.326 . S
N1044 C1048 1.362 . S
C1045 C1046 1.258 . S
C1045 C1048 1.431 . S
C1045 C1065 1.449 . S
C1046 C1045 1.258 . S
C1046 C1047 1.477 . S
C1046 H1066 0.931 . S
C1047 C1043 1.460 . S
C1047 C1046 1.477 . S
C1047 H1067 0.930 . S
C1048 N1044 1.362 . S
C1048 C1045 1.431 . S
C1048 C1058 1.476 . S
H1049 C1043 0.929 . S
C1050 O1041 1.250 . S
C1050 O1042 1.258 . S
O1051 Mn1036 2.162 . S
O1051 C1039 1.281 . S
O1052 Mn1036 2.297 . S
O1052 C1039 1.236 . S
N1053 Mn1037 2.282 . S
N1053 C1054 1.328 . S
N1053 C1058 1.318 . S
C1054 N1053 1.328 . S
C1054 C1055 1.457 . S
C1054 H1059 0.929 . S
C1055 C1054 1.457 . S
C1055 C1056 1.291 . S
C1055 H1068 0.931 . S
C1056 C1055 1.291 . S
C1056 C1057 1.373 . S
C1056 H1069 0.929 . S
C1057 C1056 1.373 . S
C1057 C1058 1.396 . S
C1057 C1064 1.403 . S
C1058 C1048 1.476 . S
C1058 N1053 1.318 . S
C1058 C1057 1.396 . S
H1059 C1054 0.929 . S
O1060 Mn1036 2.385 . S
O1060 C1038 1.234 . S
O1061 Mn1036 2.209 . S
O1061 Mn1037 2.215 . S
O1061 C1038 1.283 . S
O1062 Mn1036 2.094 . S
O1062 C1040 1.240 . S
O1063 Mn1037 2.117 . S
O1063 C1040 1.264 . S
C1064 C1057 1.403 . S
C1064 C1065 1.399 . S
C1064 H1070 0.929 . S
C1065 C1045 1.449 . S
C1065 C1064 1.399 . S
C1065 H1071 0.930 . S
H1066 C1046 0.931 . S
H1067 C1047 0.930 . S
H1068 C1055 0.931 . S
H1069 C1056 0.929 . S
H1070 C1064 0.929 . S
H1071 C1065 0.930 . S
C1072 C1073 1.349 . S
C1072 C1074 1.327 . S
C1072 H1097 0.950 . S
C1073 C1072 1.349 . S
C1073 C1089 1.349 . S
C1074 C1072 1.327 . S
C1074 C1093 1.429 . S
C1074 H1098 0.950 . S
C1075 C1092 1.574 . S
C1075 C1094 1.368 . S
C1075 H1099 0.949 . S
H1076 C1080 0.949 . S
C1077 C1078 1.349 . S
C1077 C1079 1.327 . S
C1077 H1100 0.950 . S
C1078 C1077 1.349 . S
C1078 C1090 1.349 . S
C1079 C1077 1.327 . S
C1079 C1095 1.429 . S
C1079 H1101 0.950 . S
C1080 H1076 0.949 . S
C1080 C1088 1.574 . S
C1080 C1096 1.368 . S
H1081 C1089 0.950 . S
H1082 C1087 0.950 . S
H1083 C1088 0.949 . S
H1084 C1090 0.950 . S
H1085 C1091 0.950 . S
H1086 C1092 0.949 . S
C1087 H1082 0.950 . S
C1087 C1089 1.327 . S
C1087 C1093 1.429 . S
C1088 C1080 1.574 . S
C1088 H1083 0.949 . S
C1088 C1094 1.368 . S
C1089 C1073 1.349 . S
C1089 H1081 0.950 . S
C1089 C1087 1.327 . S
C1090 C1078 1.349 . S
C1090 H1084 0.950 . S
C1090 C1091 1.327 . S
C1091 H1085 0.950 . S
C1091 C1090 1.327 . S
C1091 C1095 1.429 . S
C1092 C1075 1.574 . S
C1092 H1086 0.949 . S
C1092 C1096 1.368 . S
C1093 C1074 1.429 . S
C1093 C1087 1.429 . S
C1093 C1094 1.523 . S
C1094 C1075 1.368 . S
C1094 C1088 1.368 . S
C1094 C1093 1.523 . S
C1095 C1079 1.429 . S
C1095 C1091 1.429 . S
C1095 C1096 1.523 . S
C1096 C1080 1.368 . S
C1096 C1092 1.368 . S
C1096 C1095 1.523 . S
H1097 C1072 0.950 . S
H1098 C1074 0.950 . S
H1099 C1075 0.949 . S
H1100 C1077 0.950 . S
H1101 C1079 0.950 . S
C1102 C1103 1.349 . S
C1102 C1104 1.327 . S
C1102 H1127 0.950 . S
C1103 C1102 1.349 . S
C1103 C1119 1.349 . S
C1104 C1102 1.327 . S
C1104 C1123 1.429 . S
C1104 H1128 0.950 . S
C1105 C1122 1.574 . S
C1105 C1124 1.368 . S
C1105 H1129 0.949 . S
H1106 C1110 0.949 . S
C1107 C1108 1.349 . S
C1107 C1109 1.327 . S
C1107 H1130 0.950 . S
C1108 C1107 1.349 . S
C1108 C1120 1.349 . S
C1109 C1107 1.327 . S
C1109 C1125 1.429 . S
C1109 H1131 0.950 . S
C1110 H1106 0.949 . S
C1110 C1118 1.574 . S
C1110 C1126 1.368 . S
H1111 C1119 0.950 . S
H1112 C1117 0.950 . S
H1113 C1118 0.949 . S
H1114 C1120 0.950 . S
H1115 C1121 0.950 . S
H1116 C1122 0.949 . S
C1117 H1112 0.950 . S
C1117 C1119 1.327 . S
C1117 C1123 1.429 . S
C1118 C1110 1.574 . S
C1118 H1113 0.949 . S
C1118 C1124 1.368 . S
C1119 C1103 1.349 . S
C1119 H1111 0.950 . S
C1119 C1117 1.327 . S
C1120 C1108 1.349 . S
C1120 H1114 0.950 . S
C1120 C1121 1.327 . S
C1121 H1115 0.950 . S
C1121 C1120 1.327 . S
C1121 C1125 1.429 . S
C1122 C1105 1.574 . S
C1122 H1116 0.949 . S
C1122 C1126 1.368 . S
C1123 C1104 1.429 . S
C1123 C1117 1.429 . S
C1123 C1124 1.523 . S
C1124 C1105 1.368 . S
C1124 C1118 1.368 . S
C1124 C1123 1.523 . S
C1125 C1109 1.429 . S
C1125 C1121 1.429 . S
C1125 C1126 1.523 . S
C1126 C1110 1.368 . S
C1126 C1122 1.368 . S
C1126 C1125 1.523 . S
H1127 C1102 0.950 . S
H1128 C1104 0.950 . S
H1129 C1105 0.949 . S
H1130 C1107 0.950 . S
H1131 C1109 0.950 . S
C1132 C1133 1.349 . S
C1132 C1134 1.327 . S
C1132 H1157 0.950 . S
C1133 C1132 1.349 . S
C1133 C1149 1.349 . S
C1134 C1132 1.327 . S
C1134 C1153 1.429 . S
C1134 H1158 0.950 . S
C1135 C1152 1.574 . S
C1135 C1154 1.368 . S
C1135 H1159 0.949 . S
H1136 C1140 0.949 . S
C1137 C1138 1.349 . S
C1137 C1139 1.327 . S
C1137 H1160 0.950 . S
C1138 C1137 1.349 . S
C1138 C1150 1.349 . S
C1139 C1137 1.327 . S
C1139 C1155 1.429 . S
C1139 H1161 0.950 . S
C1140 H1136 0.949 . S
C1140 C1148 1.574 . S
C1140 C1156 1.368 . S
H1141 C1149 0.950 . S
H1142 C1147 0.950 . S
H1143 C1148 0.949 . S
H1144 C1150 0.950 . S
H1145 C1151 0.950 . S
H1146 C1152 0.949 . S
C1147 H1142 0.950 . S
C1147 C1149 1.327 . S
C1147 C1153 1.429 . S
C1148 C1140 1.574 . S
C1148 H1143 0.949 . S
C1148 C1154 1.368 . S
C1149 C1133 1.349 . S
C1149 H1141 0.950 . S
C1149 C1147 1.327 . S
C1150 C1138 1.349 . S
C1150 H1144 0.950 . S
C1150 C1151 1.327 . S
C1151 H1145 0.950 . S
C1151 C1150 1.327 . S
C1151 C1155 1.429 . S
C1152 C1135 1.574 . S
C1152 H1146 0.949 . S
C1152 C1156 1.368 . S
C1153 C1134 1.429 . S
C1153 C1147 1.429 . S
C1153 C1154 1.523 . S
C1154 C1135 1.368 . S
C1154 C1148 1.368 . S
C1154 C1153 1.523 . S
C1155 C1139 1.429 . S
C1155 C1151 1.429 . S
C1155 C1156 1.523 . S
C1156 C1140 1.368 . S
C1156 C1152 1.368 . S
C1156 C1155 1.523 . S
H1157 C1132 0.950 . S
H1158 C1134 0.950 . S
H1159 C1135 0.949 . S
H1160 C1137 0.950 . S
H1161 C1139 0.950 . S
C1162 C1163 1.349 . S
C1162 C1164 1.327 . S
C1162 H1187 0.950 . S
C1163 C1162 1.349 . S
C1163 C1179 1.349 . S
C1164 C1162 1.327 . S
C1164 C1183 1.429 . S
C1164 H1188 0.950 . S
C1165 C1182 1.574 . S
C1165 C1184 1.368 1_545 S
C1165 H1189 0.949 . S
H1166 C1170 0.949 . S
C1167 C1168 1.349 . S
C1167 C1169 1.327 . S
C1167 H1190 0.950 . S
C1168 C1167 1.349 . S
C1168 C1180 1.349 1_545 S
C1169 C1167 1.327 . S
C1169 C1185 1.394 1_545 S
C1169 H1191 0.950 . S
C1170 H1166 0.949 . S
C1170 C1178 1.574 . S
C1170 C1186 1.368 . S
H1171 C1179 0.950 1_545 S
H1172 C1177 1.004 . S
H1173 C1178 0.949 . S
H1174 C1180 0.950 . S
H1175 C1181 0.950 . S
H1176 C1182 0.949 . S
C1177 H1172 1.004 . S
C1177 C1179 1.316 1_545 S
C1177 C1183 1.390 1_545 S
C1178 C1170 1.574 . S
C1178 H1173 0.949 . S
C1178 C1184 1.368 . S
C1179 C1163 1.349 . S
C1179 H1171 0.950 1_565 S
C1179 C1177 1.316 1_565 S
C1180 C1168 1.349 1_565 S
C1180 H1174 0.950 . S
C1180 C1181 1.327 . S
C1181 H1175 0.950 . S
C1181 C1180 1.327 . S
C1181 C1185 1.456 . S
C1182 C1165 1.574 . S
C1182 H1176 0.949 . S
C1182 C1186 1.368 1_545 S
C1183 C1164 1.429 . S
C1183 C1177 1.390 1_565 S
C1183 C1184 1.523 . S
C1184 C1165 1.368 1_565 S
C1184 C1178 1.368 . S
C1184 C1183 1.523 . S
C1185 C1169 1.394 1_565 S
C1185 C1181 1.456 . S
C1185 C1186 1.531 . S
C1186 C1170 1.368 . S
C1186 C1182 1.368 1_565 S
C1186 C1185 1.531 . S
H1187 C1162 0.950 . S
H1188 C1164 0.950 . S
H1189 C1165 0.949 . S
H1190 C1167 0.950 . S
H1191 C1169 0.950 . S
C1192 C1193 1.349 . S
C1192 C1194 1.327 . S
C1192 H1217 0.950 . S
C1193 C1192 1.349 . S
C1193 C1209 1.349 . S
C1194 C1192 1.327 . S
C1194 C1213 1.429 . S
C1194 H1218 0.950 . S
C1195 C1212 1.574 . S
C1195 C1214 1.368 . S
C1195 H1219 0.949 . S
H1196 C1200 0.949 . S
C1197 C1198 1.349 . S
C1197 C1199 1.327 . S
C1197 H1220 0.950 . S
C1198 C1197 1.349 . S
C1198 C1210 1.349 . S
C1199 C1197 1.327 . S
C1199 C1215 1.429 . S
C1199 H1221 0.950 . S
C1200 H1196 0.949 . S
C1200 C1208 1.574 . S
C1200 C1216 1.368 . S
H1201 C1209 0.950 . S
H1202 C1207 0.950 . S
H1203 C1208 0.949 . S
H1204 C1210 0.950 . S
H1205 C1211 0.950 . S
H1206 C1212 0.949 . S
C1207 H1202 0.950 . S
C1207 C1209 1.327 . S
C1207 C1213 1.429 . S
C1208 C1200 1.574 . S
C1208 H1203 0.949 . S
C1208 C1214 1.368 . S
C1209 C1193 1.349 . S
C1209 H1201 0.950 . S
C1209 C1207 1.327 . S
C1210 C1198 1.349 . S
C1210 H1204 0.950 . S
C1210 C1211 1.327 . S
C1211 H1205 0.950 . S
C1211 C1210 1.327 . S
C1211 C1215 1.429 . S
C1212 C1195 1.574 . S
C1212 H1206 0.949 . S
C1212 C1216 1.368 . S
C1213 C1194 1.429 . S
C1213 C1207 1.429 . S
C1213 C1214 1.523 . S
C1214 C1195 1.368 . S
C1214 C1208 1.368 . S
C1214 C1213 1.523 . S
C1215 C1199 1.429 . S
C1215 C1211 1.429 . S
C1215 C1216 1.523 . S
C1216 C1200 1.368 . S
C1216 C1212 1.368 . S
C1216 C1215 1.523 . S
H1217 C1192 0.950 . S
H1218 C1194 0.950 . S
H1219 C1195 0.949 . S
H1220 C1197 0.950 . S
H1221 C1199 0.950 . S
C1222 C1223 1.349 . S
C1222 C1224 1.327 . S
C1222 H1247 0.950 . S
C1223 C1222 1.349 . S
C1223 C1239 1.349 . S
C1224 C1222 1.327 . S
C1224 C1243 1.429 . S
C1224 H1248 0.950 . S
C1225 C1242 1.574 . S
C1225 C1244 1.368 . S
C1225 H1249 0.949 . S
H1226 C1230 0.949 . S
C1227 C1228 1.349 . S
C1227 C1229 1.327 . S
C1227 H1250 0.950 . S
C1228 C1227 1.349 . S
C1228 C1240 1.349 . S
C1229 C1227 1.327 . S
C1229 C1245 1.429 . S
C1229 H1251 0.950 . S
C1230 H1226 0.949 . S
C1230 C1238 1.574 . S
C1230 C1246 1.368 . S
H1231 C1239 0.950 . S
H1232 C1237 0.950 . S
H1233 C1238 0.949 . S
H1234 C1240 0.950 . S
H1235 C1241 0.950 . S
H1236 C1242 0.949 . S
C1237 H1232 0.950 . S
C1237 C1239 1.327 . S
C1237 C1243 1.429 . S
C1238 C1230 1.574 . S
C1238 H1233 0.949 . S
C1238 C1244 1.368 . S
C1239 C1223 1.349 . S
C1239 H1231 0.950 . S
C1239 C1237 1.327 . S
C1240 C1228 1.349 . S
C1240 H1234 0.950 . S
C1240 C1241 1.327 . S
C1241 H1235 0.950 . S
C1241 C1240 1.327 . S
C1241 C1245 1.429 . S
C1242 C1225 1.574 . S
C1242 H1236 0.949 . S
C1242 C1246 1.368 . S
C1243 C1224 1.429 . S
C1243 C1237 1.429 . S
C1243 C1244 1.523 . S
C1244 C1225 1.368 . S
C1244 C1238 1.368 . S
C1244 C1243 1.523 . S
C1245 C1229 1.429 . S
C1245 C1241 1.429 . S
C1245 C1246 1.523 . S
C1246 C1230 1.368 . S
C1246 C1242 1.368 . S
C1246 C1245 1.523 . S
H1247 C1222 0.950 . S
H1248 C1224 0.950 . S
H1249 C1225 0.949 . S
H1250 C1227 0.950 . S
H1251 C1229 0.950 . S
C1252 C1253 1.349 . S
C1252 C1254 1.327 . S
C1252 H1277 0.950 . S
C1253 C1252 1.349 . S
C1253 C1269 1.349 . S
C1254 C1252 1.327 . S
C1254 C1273 1.429 . S
C1254 H1278 0.950 . S
C1255 C1272 1.574 . S
C1255 C1274 1.368 . S
C1255 H1279 0.949 . S
H1256 C1260 0.949 . S
C1257 C1258 1.349 . S
C1257 C1259 1.327 . S
C1257 H1280 0.950 . S
C1258 C1257 1.349 . S
C1258 C1270 1.349 . S
C1259 C1257 1.327 . S
C1259 C1275 1.429 . S
C1259 H1281 0.950 . S
C1260 H1256 0.949 . S
C1260 C1268 1.574 . S
C1260 C1276 1.368 . S
H1261 C1269 0.950 . S
H1262 C1267 0.950 . S
H1263 C1268 0.949 . S
H1264 C1270 0.950 . S
H1265 C1271 0.950 . S
H1266 C1272 0.949 . S
C1267 H1262 0.950 . S
C1267 C1269 1.327 . S
C1267 C1273 1.429 . S
C1268 C1260 1.574 . S
C1268 H1263 0.949 . S
C1268 C1274 1.368 . S
C1269 C1253 1.349 . S
C1269 H1261 0.950 . S
C1269 C1267 1.327 . S
C1270 C1258 1.349 . S
C1270 H1264 0.950 . S
C1270 C1271 1.327 . S
C1271 H1265 0.950 . S
C1271 C1270 1.327 . S
C1271 C1275 1.429 . S
C1272 C1255 1.574 . S
C1272 H1266 0.949 . S
C1272 C1276 1.368 . S
C1273 C1254 1.429 . S
C1273 C1267 1.429 . S
C1273 C1274 1.523 . S
C1274 C1255 1.368 . S
C1274 C1268 1.368 . S
C1274 C1273 1.523 . S
C1275 C1259 1.429 . S
C1275 C1271 1.429 . S
C1275 C1276 1.523 . S
C1276 C1260 1.368 . S
C1276 C1272 1.368 . S
C1276 C1275 1.523 . S
H1277 C1252 0.950 . S
H1278 C1254 0.950 . S
H1279 C1255 0.949 . S
H1280 C1257 0.950 . S
H1281 C1259 0.950 . S
C1282 C1283 1.349 . S
C1282 C1284 1.327 . S
C1282 H1307 0.950 . S
C1283 C1282 1.349 . S
C1283 C1299 1.349 . S
C1284 C1282 1.327 . S
C1284 C1303 1.429 . S
C1284 H1308 0.950 . S
C1285 C1302 1.581 . S
C1285 C1304 1.309 1_545 S
C1285 H1309 1.000 . S
H1286 C1290 0.949 . S
C1287 C1288 1.349 1_545 S
C1287 C1289 1.327 . S
C1287 H1310 0.950 . S
C1288 C1287 1.349 1_565 S
C1288 C1300 1.349 . S
C1289 C1287 1.327 . S
C1289 C1305 1.429 1_545 S
C1289 H1311 0.950 . S
C1290 H1286 0.949 . S
C1290 C1298 1.574 . S
C1290 C1306 1.368 . S
H1291 C1299 0.950 1_545 S
H1292 C1297 0.950 1_545 S
H1293 C1298 0.949 . S
H1294 C1300 0.950 . S
H1295 C1301 0.950 . S
H1296 C1302 0.949 . S
C1297 H1292 0.950 1_565 S
C1297 C1299 1.327 . S
C1297 C1303 1.429 . S
C1298 C1290 1.574 . S
C1298 H1293 0.949 . S
C1298 C1304 1.368 . S
C1299 C1283 1.349 . S
C1299 H1291 0.950 1_565 S
C1299 C1297 1.327 . S
C1300 C1288 1.349 . S
C1300 H1294 0.950 . S
C1300 C1301 1.327 . S
C1301 H1295 0.950 . S
C1301 C1300 1.327 . S
C1301 C1305 1.429 . S
C1302 C1285 1.581 . S
C1302 H1296 0.949 . S
C1302 C1306 1.368 1_545 S
C1303 C1284 1.429 . S
C1303 C1297 1.429 . S
C1303 C1304 1.523 . S
C1304 C1285 1.309 1_565 S
C1304 C1298 1.368 . S
C1304 C1303 1.523 . S
C1305 C1289 1.429 1_565 S
C1305 C1301 1.429 . S
C1305 C1306 1.523 . S
C1306 C1290 1.368 . S
C1306 C1302 1.368 1_565 S
C1306 C1305 1.523 . S
H1307 C1282 0.950 . S
H1308 C1284 0.950 . S
H1309 C1285 1.000 . S
H1310 C1287 0.950 . S
H1311 C1289 0.950 . S
C1312 C1313 1.349 . S
C1312 C1314 1.327 . S
C1312 H1337 0.950 . S
C1313 C1312 1.349 . S
C1313 C1329 1.349 . S
C1314 C1312 1.327 . S
C1314 C1333 1.429 . S
C1314 H1338 0.950 . S
C1315 C1332 1.574 . S
C1315 C1334 1.368 . S
C1315 H1339 0.949 . S
H1316 C1320 0.949 . S
C1317 C1318 1.349 . S
C1317 C1319 1.327 . S
C1317 H1340 0.950 . S
C1318 C1317 1.349 . S
C1318 C1330 1.349 . S
C1319 C1317 1.327 . S
C1319 C1335 1.429 . S
C1319 H1341 0.950 . S
C1320 H1316 0.949 . S
C1320 C1328 1.574 . S
C1320 C1336 1.368 . S
H1321 C1329 0.950 . S
H1322 C1327 0.950 . S
H1323 C1328 0.949 . S
H1324 C1330 0.950 . S
H1325 C1331 0.950 . S
H1326 C1332 0.949 . S
C1327 H1322 0.950 . S
C1327 C1329 1.327 . S
C1327 C1333 1.429 . S
C1328 C1320 1.574 . S
C1328 H1323 0.949 . S
C1328 C1334 1.368 . S
C1329 C1313 1.349 . S
C1329 H1321 0.950 . S
C1329 C1327 1.327 . S
C1330 C1318 1.349 . S
C1330 H1324 0.950 . S
C1330 C1331 1.327 . S
C1331 H1325 0.950 . S
C1331 C1330 1.327 . S
C1331 C1335 1.429 . S
C1332 C1315 1.574 . S
C1332 H1326 0.949 . S
C1332 C1336 1.368 . S
C1333 C1314 1.429 . S
C1333 C1327 1.429 . S
C1333 C1334 1.523 . S
C1334 C1315 1.368 . S
C1334 C1328 1.368 . S
C1334 C1333 1.523 . S
C1335 C1319 1.429 . S
C1335 C1331 1.429 . S
C1335 C1336 1.523 . S
C1336 C1320 1.368 . S
C1336 C1332 1.368 . S
C1336 C1335 1.523 . S
H1337 C1312 0.950 . S
H1338 C1314 0.950 . S
H1339 C1315 0.949 . S
H1340 C1317 0.950 . S
H1341 C1319 0.950 . S
C1342 C1343 1.349 . S
C1342 C1344 1.327 . S
C1342 H1367 0.950 . S
C1343 C1342 1.349 . S
C1343 C1359 1.349 . S
C1344 C1342 1.327 . S
C1344 C1363 1.429 . S
C1344 H1368 0.950 . S
C1345 C1362 1.574 . S
C1345 C1364 1.368 . S
C1345 H1369 0.949 . S
H1346 C1350 0.949 . S
C1347 C1348 1.349 . S
C1347 C1349 1.327 . S
C1347 H1370 0.950 . S
C1348 C1347 1.349 . S
C1348 C1360 1.349 . S
C1349 C1347 1.327 . S
C1349 C1365 1.429 . S
C1349 H1371 0.950 . S
C1350 H1346 0.949 . S
C1350 C1358 1.574 . S
C1350 C1366 1.368 . S
H1351 C1359 0.950 . S
H1352 C1357 0.950 . S
H1353 C1358 0.949 . S
H1354 C1360 0.950 . S
H1355 C1361 0.950 . S
H1356 C1362 0.949 . S
C1357 H1352 0.950 . S
C1357 C1359 1.327 . S
C1357 C1363 1.429 . S
C1358 C1350 1.574 . S
C1358 H1353 0.949 . S
C1358 C1364 1.368 . S
C1359 C1343 1.349 . S
C1359 H1351 0.950 . S
C1359 C1357 1.327 . S
C1360 C1348 1.349 . S
C1360 H1354 0.950 . S
C1360 C1361 1.327 . S
C1361 H1355 0.950 . S
C1361 C1360 1.327 . S
C1361 C1365 1.429 . S
C1362 C1345 1.574 . S
C1362 H1356 0.949 . S
C1362 C1366 1.368 . S
C1363 C1344 1.429 . S
C1363 C1357 1.429 . S
C1363 C1364 1.523 . S
C1364 C1345 1.368 . S
C1364 C1358 1.368 . S
C1364 C1363 1.523 . S
C1365 C1349 1.429 . S
C1365 C1361 1.429 . S
C1365 C1366 1.523 . S
C1366 C1350 1.368 . S
C1366 C1362 1.368 . S
C1366 C1365 1.523 . S
H1367 C1342 0.950 . S
H1368 C1344 0.950 . S
H1369 C1345 0.949 . S
H1370 C1347 0.950 . S
H1371 C1349 0.950 . S
C1372 C1373 1.349 . S
C1372 C1374 1.327 . S
C1372 H1397 0.950 . S
C1373 C1372 1.349 . S
C1373 C1389 1.349 . S
C1374 C1372 1.327 . S
C1374 C1393 1.429 . S
C1374 H1398 0.950 . S
C1375 C1392 1.574 . S
C1375 C1394 1.368 . S
C1375 H1399 0.949 . S
H1376 C1380 0.949 . S
C1377 C1378 1.349 . S
C1377 C1379 1.327 . S
C1377 H1400 0.950 . S
C1378 C1377 1.349 . S
C1378 C1390 1.349 . S
C1379 C1377 1.327 . S
C1379 C1395 1.429 . S
C1379 H1401 0.950 . S
C1380 H1376 0.949 . S
C1380 C1388 1.574 . S
C1380 C1396 1.368 . S
H1381 C1389 0.950 . S
H1382 C1387 0.950 . S
H1383 C1388 0.949 . S
H1384 C1390 0.950 . S
H1385 C1391 0.950 . S
H1386 C1392 0.949 . S
C1387 H1382 0.950 . S
C1387 C1389 1.327 . S
C1387 C1393 1.429 . S
C1388 C1380 1.574 . S
C1388 H1383 0.949 . S
C1388 C1394 1.368 . S
C1389 C1373 1.349 . S
C1389 H1381 0.950 . S
C1389 C1387 1.327 . S
C1390 C1378 1.349 . S
C1390 H1384 0.950 . S
C1390 C1391 1.327 . S
C1391 H1385 0.950 . S
C1391 C1390 1.327 . S
C1391 C1395 1.429 . S
C1392 C1375 1.574 . S
C1392 H1386 0.949 . S
C1392 C1396 1.368 . S
C1393 C1374 1.429 . S
C1393 C1387 1.429 . S
C1393 C1394 1.523 . S
C1394 C1375 1.368 . S
C1394 C1388 1.368 . S
C1394 C1393 1.523 . S
C1395 C1379 1.429 . S
C1395 C1391 1.429 . S
C1395 C1396 1.523 . S
C1396 C1380 1.368 . S
C1396 C1392 1.368 . S
C1396 C1395 1.523 . S
H1397 C1372 0.950 . S
H1398 C1374 0.950 . S
H1399 C1375 0.949 . S
H1400 C1377 0.950 . S
H1401 C1379 0.950 . S
C1402 C1403 1.349 . S
C1402 C1404 1.327 . S
C1402 H1427 0.950 . S
C1403 C1402 1.349 . S
C1403 C1419 1.349 . S
C1404 C1402 1.327 . S
C1404 C1423 1.429 . S
C1404 H1428 0.950 . S
C1405 C1422 1.574 . S
C1405 C1424 1.368 . S
C1405 H1429 0.949 . S
H1406 C1410 0.949 . S
C1407 C1408 1.349 . S
C1407 C1409 1.327 . S
C1407 H1430 0.950 . S
C1408 C1407 1.349 . S
C1408 C1420 1.349 . S
C1409 C1407 1.327 . S
C1409 C1425 1.429 . S
C1409 H1431 0.950 . S
C1410 H1406 0.949 . S
C1410 C1418 1.574 . S
C1410 C1426 1.368 . S
H1411 C1419 0.950 . S
H1412 C1417 0.950 . S
H1413 C1418 0.949 . S
H1414 C1420 0.950 . S
H1415 C1421 0.950 . S
H1416 C1422 0.949 . S
C1417 H1412 0.950 . S
C1417 C1419 1.327 . S
C1417 C1423 1.429 . S
C1418 C1410 1.574 . S
C1418 H1413 0.949 . S
C1418 C1424 1.368 . S
C1419 C1403 1.349 . S
C1419 H1411 0.950 . S
C1419 C1417 1.327 . S
C1420 C1408 1.349 . S
C1420 H1414 0.950 . S
C1420 C1421 1.327 . S
C1421 H1415 0.950 . S
C1421 C1420 1.327 . S
C1421 C1425 1.429 . S
C1422 C1405 1.574 . S
C1422 H1416 0.949 . S
C1422 C1426 1.368 . S
C1423 C1404 1.429 . S
C1423 C1417 1.429 . S
C1423 C1424 1.523 . S
C1424 C1405 1.368 . S
C1424 C1418 1.368 . S
C1424 C1423 1.523 . S
C1425 C1409 1.429 . S
C1425 C1421 1.429 . S
C1425 C1426 1.523 . S
C1426 C1410 1.368 . S
C1426 C1422 1.368 . S
C1426 C1425 1.523 . S
H1427 C1402 0.950 . S
H1428 C1404 0.950 . S
H1429 C1405 0.949 . S
H1430 C1407 0.950 . S
H1431 C1409 0.950 . S
C1432 C1433 1.349 . S
C1432 C1434 1.327 . S
C1432 H1457 0.950 . S
C1433 C1432 1.349 . S
C1433 C1449 1.349 . S
C1434 C1432 1.327 . S
C1434 C1453 1.429 . S
C1434 H1458 0.950 . S
C1435 C1452 1.574 . S
C1435 C1454 1.368 . S
C1435 H1459 0.949 . S
H1436 C1440 0.949 . S
C1437 C1438 1.349 . S
C1437 C1439 1.327 . S
C1437 H1460 0.950 . S
C1438 C1437 1.349 . S
C1438 C1450 1.349 . S
C1439 C1437 1.327 . S
C1439 C1455 1.429 . S
C1439 H1461 0.950 . S
C1440 H1436 0.949 . S
C1440 C1448 1.574 . S
C1440 C1456 1.368 . S
H1441 C1449 0.950 . S
H1442 C1447 0.950 . S
H1443 C1448 0.949 . S
H1444 C1450 0.950 . S
H1445 C1451 0.950 . S
H1446 C1452 0.949 . S
C1447 H1442 0.950 . S
C1447 C1449 1.327 . S
C1447 C1453 1.429 . S
C1448 C1440 1.574 . S
C1448 H1443 0.949 . S
C1448 C1454 1.368 . S
C1449 C1433 1.349 . S
C1449 H1441 0.950 . S
C1449 C1447 1.327 . S
C1450 C1438 1.349 . S
C1450 H1444 0.950 . S
C1450 C1451 1.327 . S
C1451 H1445 0.950 . S
C1451 C1450 1.327 . S
C1451 C1455 1.429 . S
C1452 C1435 1.574 . S
C1452 H1446 0.949 . S
C1452 C1456 1.368 . S
C1453 C1434 1.429 . S
C1453 C1447 1.429 . S
C1453 C1454 1.523 . S
C1454 C1435 1.368 . S
C1454 C1448 1.368 . S
C1454 C1453 1.523 . S
C1455 C1439 1.429 . S
C1455 C1451 1.429 . S
C1455 C1456 1.523 . S
C1456 C1440 1.368 . S
C1456 C1452 1.368 . S
C1456 C1455 1.523 . S
H1457 C1432 0.950 . S
H1458 C1434 0.950 . S
H1459 C1435 0.949 . S
H1460 C1437 0.950 . S
H1461 C1439 0.950 . S
C1462 C1463 1.349 . S
C1462 C1464 1.327 . S
C1462 H1487 0.950 . S
C1463 C1462 1.349 . S
C1463 C1479 1.349 . S
C1464 C1462 1.327 . S
C1464 C1483 1.429 . S
C1464 H1488 0.950 . S
C1465 C1482 1.574 . S
C1465 C1484 1.368 . S
C1465 H1489 0.949 . S
H1466 C1470 0.949 . S
C1467 C1468 1.349 . S
C1467 C1469 1.327 . S
C1467 H1490 0.950 . S
C1468 C1467 1.349 . S
C1468 C1480 1.349 . S
C1469 C1467 1.327 . S
C1469 C1485 1.429 . S
C1469 H1491 0.950 . S
C1470 H1466 0.949 . S
C1470 C1478 1.574 . S
C1470 C1486 1.368 . S
H1471 C1479 0.950 . S
H1472 C1477 0.950 . S
H1473 C1478 0.949 . S
H1474 C1480 0.950 . S
H1475 C1481 0.950 . S
H1476 C1482 0.949 . S
C1477 H1472 0.950 . S
C1477 C1479 1.327 . S
C1477 C1483 1.429 . S
C1478 C1470 1.574 . S
C1478 H1473 0.949 . S
C1478 C1484 1.368 . S
C1479 C1463 1.349 . S
C1479 H1471 0.950 . S
C1479 C1477 1.327 . S
C1480 C1468 1.349 . S
C1480 H1474 0.950 . S
C1480 C1481 1.327 . S
C1481 H1475 0.950 . S
C1481 C1480 1.327 . S
C1481 C1485 1.429 . S
C1482 C1465 1.574 . S
C1482 H1476 0.949 . S
C1482 C1486 1.368 . S
C1483 C1464 1.429 . S
C1483 C1477 1.429 . S
C1483 C1484 1.523 . S
C1484 C1465 1.368 . S
C1484 C1478 1.368 . S
C1484 C1483 1.523 . S
C1485 C1469 1.429 . S
C1485 C1481 1.429 . S
C1485 C1486 1.523 . S
C1486 C1470 1.368 . S
C1486 C1482 1.368 . S
C1486 C1485 1.523 . S
H1487 C1462 0.950 . S
H1488 C1464 0.950 . S
H1489 C1465 0.949 . S
H1490 C1467 0.950 . S
H1491 C1469 0.950 . S
C1492 C1493 1.349 . S
C1492 C1494 1.327 . S
C1492 H1517 0.950 . S
C1493 C1492 1.349 . S
C1493 C1509 1.349 . S
C1494 C1492 1.327 . S
C1494 C1513 1.429 . S
C1494 H1518 0.950 . S
C1495 C1512 1.574 . S
C1495 C1514 1.368 . S
C1495 H1519 0.949 . S
H1496 C1500 0.949 . S
C1497 C1498 1.349 . S
C1497 C1499 1.327 . S
C1497 H1520 0.950 . S
C1498 C1497 1.349 . S
C1498 C1510 1.349 . S
C1499 C1497 1.327 . S
C1499 C1515 1.429 . S
C1499 H1521 0.950 . S
C1500 H1496 0.949 . S
C1500 C1508 1.574 . S
C1500 C1516 1.368 . S
H1501 C1509 0.950 . S
H1502 C1507 0.950 . S
H1503 C1508 0.949 . S
H1504 C1510 0.950 . S
H1505 C1511 0.950 . S
H1506 C1512 0.949 . S
C1507 H1502 0.950 . S
C1507 C1509 1.327 . S
C1507 C1513 1.429 . S
C1508 C1500 1.574 . S
C1508 H1503 0.949 . S
C1508 C1514 1.368 . S
C1509 C1493 1.349 . S
C1509 H1501 0.950 . S
C1509 C1507 1.327 . S
C1510 C1498 1.349 . S
C1510 H1504 0.950 . S
C1510 C1511 1.327 . S
C1511 H1505 0.950 . S
C1511 C1510 1.327 . S
C1511 C1515 1.429 . S
C1512 C1495 1.574 . S
C1512 H1506 0.949 . S
C1512 C1516 1.368 . S
C1513 C1494 1.429 . S
C1513 C1507 1.429 . S
C1513 C1514 1.523 . S
C1514 C1495 1.368 . S
C1514 C1508 1.368 . S
C1514 C1513 1.523 . S
C1515 C1499 1.429 . S
C1515 C1511 1.429 . S
C1515 C1516 1.523 . S
C1516 C1500 1.368 . S
C1516 C1512 1.368 . S
C1516 C1515 1.523 . S
H1517 C1492 0.950 . S
H1518 C1494 0.950 . S
H1519 C1495 0.949 . S
H1520 C1497 0.950 . S
H1521 C1499 0.950 . S
C1522 C1523 1.349 1_455 S
C1522 C1524 1.327 . S
C1522 H1547 0.950 . S
C1523 C1522 1.349 1_655 S
C1523 C1539 1.349 . S
C1524 C1522 1.327 . S
C1524 C1543 1.429 1_455 S
C1524 H1548 0.950 . S
C1525 C1542 1.574 . S
C1525 C1544 1.368 . S
C1525 H1549 0.949 . S
H1526 C1530 0.949 . S
C1527 C1528 1.349 1_655 S
C1527 C1529 1.327 . S
C1527 H1550 0.950 . S
C1528 C1527 1.349 1_455 S
C1528 C1540 1.349 . S
C1529 C1527 1.327 . S
C1529 C1545 1.429 1_655 S
C1529 H1551 0.950 . S
C1530 H1526 0.949 . S
C1530 C1538 1.574 . S
C1530 C1546 1.325 1_455 S
H1531 C1539 0.950 . S
H1532 C1537 0.950 . S
H1533 C1538 0.949 . S
H1534 C1540 0.950 . S
H1535 C1541 0.950 . S
H1536 C1542 0.949 . S
C1537 H1532 0.950 . S
C1537 C1539 1.327 . S
C1537 C1543 1.429 . S
C1538 C1530 1.574 . S
C1538 H1533 0.949 . S
C1538 C1544 1.368 1_455 S
C1539 C1523 1.349 . S
C1539 H1531 0.950 . S
C1539 C1537 1.327 . S
C1540 C1528 1.349 . S
C1540 H1534 0.950 . S
C1540 C1541 1.327 . S
C1541 H1535 0.950 . S
C1541 C1540 1.327 . S
C1541 C1545 1.429 . S
C1542 C1525 1.574 . S
C1542 H1536 0.949 . S
C1542 C1546 1.416 . S
C1543 C1524 1.429 1_655 S
C1543 C1537 1.429 . S
C1543 C1544 1.523 . S
C1544 C1525 1.368 . S
C1544 C1538 1.368 1_655 S
C1544 C1543 1.523 . S
C1545 C1529 1.429 1_455 S
C1545 C1541 1.429 . S
C1545 C1546 1.519 1_455 S
C1546 C1530 1.325 1_655 S
C1546 C1542 1.416 . S
C1546 C1545 1.519 1_655 S
H1547 C1522 0.950 . S
H1548 C1524 0.950 . S
H1549 C1525 0.949 . S
H1550 C1527 0.950 . S
H1551 C1529 0.950 . S
C1552 C1553 1.349 . S
C1552 C1554 1.327 . S
C1552 H1577 0.950 . S
C1553 C1552 1.349 . S
C1553 C1569 1.349 . S
C1554 C1552 1.327 . S
C1554 C1573 1.429 . S
C1554 H1578 0.950 . S
C1555 C1572 1.574 . S
C1555 C1574 1.368 . S
C1555 H1579 0.949 . S
H1556 C1560 0.949 . S
C1557 C1558 1.349 . S
C1557 C1559 1.327 . S
C1557 H1580 0.950 . S
C1558 C1557 1.349 . S
C1558 C1570 1.349 . S
C1559 C1557 1.327 . S
C1559 C1575 1.429 . S
C1559 H1581 0.950 . S
C1560 H1556 0.949 . S
C1560 C1568 1.574 . S
C1560 C1576 1.368 . S
H1561 C1569 0.950 . S
H1562 C1567 0.950 . S
H1563 C1568 0.949 . S
H1564 C1570 0.950 . S
H1565 C1571 0.950 . S
H1566 C1572 0.949 . S
C1567 H1562 0.950 . S
C1567 C1569 1.327 . S
C1567 C1573 1.429 . S
C1568 C1560 1.574 . S
C1568 H1563 0.949 . S
C1568 C1574 1.368 . S
C1569 C1553 1.349 . S
C1569 H1561 0.950 . S
C1569 C1567 1.327 . S
C1570 C1558 1.349 . S
C1570 H1564 0.950 . S
C1570 C1571 1.327 . S
C1571 H1565 0.950 . S
C1571 C1570 1.327 . S
C1571 C1575 1.429 . S
C1572 C1555 1.574 . S
C1572 H1566 0.949 . S
C1572 C1576 1.368 . S
C1573 C1554 1.429 . S
C1573 C1567 1.429 . S
C1573 C1574 1.523 . S
C1574 C1555 1.368 . S
C1574 C1568 1.368 . S
C1574 C1573 1.523 . S
C1575 C1559 1.429 . S
C1575 C1571 1.429 . S
C1575 C1576 1.523 . S
C1576 C1560 1.368 . S
C1576 C1572 1.368 . S
C1576 C1575 1.523 . S
H1577 C1552 0.950 . S
H1578 C1554 0.950 . S
H1579 C1555 0.949 . S
H1580 C1557 0.950 . S
H1581 C1559 0.950 . S
C1582 C1583 1.349 . S
C1582 C1584 1.327 . S
C1582 H1607 0.950 . S
C1583 C1582 1.349 . S
C1583 C1599 1.349 . S
C1584 C1582 1.327 . S
C1584 C1603 1.429 . S
C1584 H1608 0.950 . S
C1585 C1602 1.574 . S
C1585 C1604 1.368 . S
C1585 H1609 0.949 . S
H1586 C1590 0.949 . S
C1587 C1588 1.349 . S
C1587 C1589 1.327 . S
C1587 H1610 0.950 . S
C1588 C1587 1.349 . S
C1588 C1600 1.349 . S
C1589 C1587 1.327 . S
C1589 C1605 1.429 . S
C1589 H1611 0.950 . S
C1590 H1586 0.949 . S
C1590 C1598 1.574 . S
C1590 C1606 1.368 . S
H1591 C1599 0.950 . S
H1592 C1597 0.950 . S
H1593 C1598 0.949 . S
H1594 C1600 0.950 . S
H1595 C1601 0.950 . S
H1596 C1602 0.949 . S
C1597 H1592 0.950 . S
C1597 C1599 1.327 . S
C1597 C1603 1.429 . S
C1598 C1590 1.574 . S
C1598 H1593 0.949 . S
C1598 C1604 1.368 . S
C1599 C1583 1.349 . S
C1599 H1591 0.950 . S
C1599 C1597 1.327 . S
C1600 C1588 1.349 . S
C1600 H1594 0.950 . S
C1600 C1601 1.327 . S
C1601 H1595 0.950 . S
C1601 C1600 1.327 . S
C1601 C1605 1.429 . S
C1602 C1585 1.574 . S
C1602 H1596 0.949 . S
C1602 C1606 1.368 . S
C1603 C1584 1.429 . S
C1603 C1597 1.429 . S
C1603 C1604 1.523 . S
C1604 C1585 1.368 . S
C1604 C1598 1.368 . S
C1604 C1603 1.523 . S
C1605 C1589 1.429 . S
C1605 C1601 1.429 . S
C1605 C1606 1.523 . S
C1606 C1590 1.368 . S
C1606 C1602 1.368 . S
C1606 C1605 1.523 . S
H1607 C1582 0.950 . S
H1608 C1584 0.950 . S
H1609 C1585 0.949 . S
H1610 C1587 0.950 . S
H1611 C1589 0.950 . S
C1612 C1613 1.349 . S
C1612 C1614 1.327 . S
C1612 H1637 0.950 . S
C1613 C1612 1.349 . S
C1613 C1629 1.349 . S
C1614 C1612 1.327 . S
C1614 C1633 1.429 . S
C1614 H1638 0.950 . S
C1615 C1632 1.589 . S
C1615 C1634 1.339 1_554 S
C1615 H1639 0.968 . S
H1616 C1620 0.949 . S
C1617 C1618 1.349 . S
C1617 C1619 1.327 . S
C1617 H1640 0.950 . S
C1618 C1617 1.349 . S
C1618 C1630 1.349 . S
C1619 C1617 1.327 . S
C1619 C1635 1.429 . S
C1619 H1641 0.950 . S
C1620 H1616 0.949 . S
C1620 C1628 1.574 . S
C1620 C1636 1.373 . S
H1621 C1629 0.950 . S
H1622 C1627 0.956 . S
H1623 C1628 0.949 . S
H1624 C1630 0.940 1_556 S
H1625 C1631 0.977 . S
H1626 C1632 0.949 . S
C1627 H1622 0.956 . S
C1627 C1629 1.327 . S
C1627 C1633 1.429 . S
C1628 C1620 1.574 . S
C1628 H1623 0.949 . S
C1628 C1634 1.368 . S
C1629 C1613 1.349 . S
C1629 H1621 0.950 . S
C1629 C1627 1.327 . S
C1630 C1618 1.349 . S
C1630 H1624 0.940 1_554 S
C1630 C1631 1.317 1_554 S
C1631 H1625 0.977 . S
C1631 C1630 1.317 1_556 S
C1631 C1635 1.417 1_556 S
C1632 C1615 1.589 . S
C1632 H1626 0.949 . S
C1632 C1636 1.365 1_554 S
C1633 C1614 1.429 . S
C1633 C1627 1.429 . S
C1633 C1634 1.523 . S
C1634 C1615 1.339 1_556 S
C1634 C1628 1.368 . S
C1634 C1633 1.523 . S
C1635 C1619 1.429 . S
C1635 C1631 1.417 1_554 S
C1635 C1636 1.521 1_554 S
C1636 C1620 1.373 . S
C1636 C1632 1.365 1_556 S
C1636 C1635 1.521 1_556 S
H1637 C1612 0.950 . S
H1638 C1614 0.950 . S
H1639 C1615 0.968 . S
H1640 C1617 0.950 . S
H1641 C1619 0.950 . S
C1642 C1643 1.349 . S
C1642 C1644 1.327 . S
C1642 H1667 0.950 . S
C1643 C1642 1.349 . S
C1643 C1659 1.349 . S
C1644 C1642 1.327 . S
C1644 C1663 1.429 . S
C1644 H1668 0.950 . S
C1645 C1662 1.574 . S
C1645 C1664 1.368 . S
C1645 H1669 0.949 . S
H1646 C1650 0.949 . S
C1647 C1648 1.349 . S
C1647 C1649 1.327 . S
C1647 H1670 0.950 . S
C1648 C1647 1.349 . S
C1648 C1660 1.349 . S
C1649 C1647 1.327 . S
C1649 C1665 1.429 . S
C1649 H1671 0.950 . S
C1650 H1646 0.949 . S
C1650 C1658 1.574 . S
C1650 C1666 1.368 . S
H1651 C1659 0.950 . S
H1652 C1657 0.950 . S
H1653 C1658 0.949 . S
H1654 C1660 0.950 . S
H1655 C1661 0.950 . S
H1656 C1662 0.949 . S
C1657 H1652 0.950 . S
C1657 C1659 1.327 . S
C1657 C1663 1.429 . S
C1658 C1650 1.574 . S
C1658 H1653 0.949 . S
C1658 C1664 1.368 . S
C1659 C1643 1.349 . S
C1659 H1651 0.950 . S
C1659 C1657 1.327 . S
C1660 C1648 1.349 . S
C1660 H1654 0.950 . S
C1660 C1661 1.327 . S
C1661 H1655 0.950 . S
C1661 C1660 1.327 . S
C1661 C1665 1.429 . S
C1662 C1645 1.574 . S
C1662 H1656 0.949 . S
C1662 C1666 1.368 . S
C1663 C1644 1.429 . S
C1663 C1657 1.429 . S
C1663 C1664 1.523 . S
C1664 C1645 1.368 . S
C1664 C1658 1.368 . S
C1664 C1663 1.523 . S
C1665 C1649 1.429 . S
C1665 C1661 1.429 . S
C1665 C1666 1.523 . S
C1666 C1650 1.368 . S
C1666 C1662 1.368 . S
C1666 C1665 1.523 . S
H1667 C1642 0.950 . S
H1668 C1644 0.950 . S
H1669 C1645 0.949 . S
H1670 C1647 0.950 . S
H1671 C1649 0.950 . S
C1672 C1673 1.349 . S
C1672 C1674 1.327 . S
C1672 H1697 0.950 . S
C1673 C1672 1.349 . S
C1673 C1689 1.349 . S
C1674 C1672 1.327 . S
C1674 C1693 1.429 . S
C1674 H1698 0.950 . S
C1675 C1692 1.574 . S
C1675 C1694 1.368 . S
C1675 H1699 0.949 . S
H1676 C1680 0.949 . S
C1677 C1678 1.349 . S
C1677 C1679 1.327 . S
C1677 H1700 0.950 . S
C1678 C1677 1.349 . S
C1678 C1690 1.349 . S
C1679 C1677 1.327 . S
C1679 C1695 1.429 . S
C1679 H1701 0.950 . S
C1680 H1676 0.949 . S
C1680 C1688 1.574 . S
C1680 C1696 1.368 . S
H1681 C1689 0.950 . S
H1682 C1687 0.950 . S
H1683 C1688 0.949 . S
H1684 C1690 0.950 . S
H1685 C1691 0.950 . S
H1686 C1692 0.949 . S
C1687 H1682 0.950 . S
C1687 C1689 1.327 . S
C1687 C1693 1.429 . S
C1688 C1680 1.574 . S
C1688 H1683 0.949 . S
C1688 C1694 1.368 . S
C1689 C1673 1.349 . S
C1689 H1681 0.950 . S
C1689 C1687 1.327 . S
C1690 C1678 1.349 . S
C1690 H1684 0.950 . S
C1690 C1691 1.327 . S
C1691 H1685 0.950 . S
C1691 C1690 1.327 . S
C1691 C1695 1.429 . S
C1692 C1675 1.574 . S
C1692 H1686 0.949 . S
C1692 C1696 1.368 . S
C1693 C1674 1.429 . S
C1693 C1687 1.429 . S
C1693 C1694 1.523 . S
C1694 C1675 1.368 . S
C1694 C1688 1.368 . S
C1694 C1693 1.523 . S
C1695 C1679 1.429 . S
C1695 C1691 1.429 . S
C1695 C1696 1.523 . S
C1696 C1680 1.368 . S
C1696 C1692 1.368 . S
C1696 C1695 1.523 . S
H1697 C1672 0.950 . S
H1698 C1674 0.950 . S
H1699 C1675 0.949 . S
H1700 C1677 0.950 . S
H1701 C1679 0.950 . S
C1702 C1703 1.349 . S
C1702 C1704 1.327 . S
C1702 H1727 0.950 . S
C1703 C1702 1.349 . S
C1703 C1719 1.349 . S
C1704 C1702 1.327 . S
C1704 C1723 1.429 . S
C1704 H1728 0.950 . S
C1705 C1722 1.574 . S
C1705 C1724 1.368 . S
C1705 H1729 0.949 . S
H1706 C1710 0.949 . S
C1707 C1708 1.349 . S
C1707 C1709 1.327 . S
C1707 H1730 0.950 . S
C1708 C1707 1.349 . S
C1708 C1720 1.349 . S
C1709 C1707 1.327 . S
C1709 C1725 1.429 . S
C1709 H1731 0.950 . S
C1710 H1706 0.949 . S
C1710 C1718 1.574 . S
C1710 C1726 1.368 . S
H1711 C1719 0.950 . S
H1712 C1717 0.950 . S
H1713 C1718 0.949 . S
H1714 C1720 0.950 . S
H1715 C1721 0.950 . S
H1716 C1722 0.949 . S
C1717 H1712 0.950 . S
C1717 C1719 1.327 . S
C1717 C1723 1.429 . S
C1718 C1710 1.574 . S
C1718 H1713 0.949 . S
C1718 C1724 1.368 . S
C1719 C1703 1.349 . S
C1719 H1711 0.950 . S
C1719 C1717 1.327 . S
C1720 C1708 1.349 . S
C1720 H1714 0.950 . S
C1720 C1721 1.327 . S
C1721 H1715 0.950 . S
C1721 C1720 1.327 . S
C1721 C1725 1.429 . S
C1722 C1705 1.574 . S
C1722 H1716 0.949 . S
C1722 C1726 1.368 . S
C1723 C1704 1.429 . S
C1723 C1717 1.429 . S
C1723 C1724 1.523 . S
C1724 C1705 1.368 . S
C1724 C1718 1.368 . S
C1724 C1723 1.523 . S
C1725 C1709 1.429 . S
C1725 C1721 1.429 . S
C1725 C1726 1.523 . S
C1726 C1710 1.368 . S
C1726 C1722 1.368 . S
C1726 C1725 1.523 . S
H1727 C1702 0.950 . S
H1728 C1704 0.950 . S
H1729 C1705 0.949 . S
H1730 C1707 0.950 . S
H1731 C1709 0.950 . S
C1732 C1733 1.349 . S
C1732 C1734 1.327 . S
C1732 H1757 0.950 . S
C1733 C1732 1.349 . S
C1733 C1749 1.349 . S
C1734 C1732 1.327 . S
C1734 C1753 1.429 . S
C1734 H1758 0.950 . S
C1735 C1752 1.574 . S
C1735 C1754 1.368 . S
C1735 H1759 0.949 . S
H1736 C1740 0.949 . S
C1737 C1738 1.349 . S
C1737 C1739 1.327 . S
C1737 H1760 0.950 . S
C1738 C1737 1.349 . S
C1738 C1750 1.349 . S
C1739 C1737 1.327 . S
C1739 C1755 1.429 . S
C1739 H1761 0.950 . S
C1740 H1736 0.949 . S
C1740 C1748 1.574 . S
C1740 C1756 1.368 . S
H1741 C1749 0.950 . S
H1742 C1747 0.950 . S
H1743 C1748 0.949 . S
H1744 C1750 0.950 . S
H1745 C1751 0.950 . S
H1746 C1752 0.949 . S
C1747 H1742 0.950 . S
C1747 C1749 1.327 . S
C1747 C1753 1.429 . S
C1748 C1740 1.574 . S
C1748 H1743 0.949 . S
C1748 C1754 1.368 . S
C1749 C1733 1.349 . S
C1749 H1741 0.950 . S
C1749 C1747 1.327 . S
C1750 C1738 1.349 . S
C1750 H1744 0.950 . S
C1750 C1751 1.327 . S
C1751 H1745 0.950 . S
C1751 C1750 1.327 . S
C1751 C1755 1.429 . S
C1752 C1735 1.574 . S
C1752 H1746 0.949 . S
C1752 C1756 1.368 . S
C1753 C1734 1.429 . S
C1753 C1747 1.429 . S
C1753 C1754 1.523 . S
C1754 C1735 1.368 . S
C1754 C1748 1.368 . S
C1754 C1753 1.523 . S
C1755 C1739 1.429 . S
C1755 C1751 1.429 . S
C1755 C1756 1.523 . S
C1756 C1740 1.368 . S
C1756 C1752 1.368 . S
C1756 C1755 1.523 . S
H1757 C1732 0.950 . S
H1758 C1734 0.950 . S
H1759 C1735 0.949 . S
H1760 C1737 0.950 . S
H1761 C1739 0.950 . S
C1762 C1763 1.349 . S
C1762 C1764 1.327 . S
C1762 H1787 0.950 . S
C1763 C1762 1.349 . S
C1763 C1779 1.349 . S
C1764 C1762 1.327 . S
C1764 C1783 1.429 . S
C1764 H1788 0.950 . S
C1765 C1782 1.574 . S
C1765 C1784 1.368 . S
C1765 H1789 0.949 . S
H1766 C1770 0.949 . S
C1767 C1768 1.349 . S
C1767 C1769 1.327 . S
C1767 H1790 0.950 . S
C1768 C1767 1.349 . S
C1768 C1780 1.349 . S
C1769 C1767 1.327 . S
C1769 C1785 1.429 . S
C1769 H1791 0.950 . S
C1770 H1766 0.949 . S
C1770 C1778 1.574 . S
C1770 C1786 1.368 . S
H1771 C1779 0.950 . S
H1772 C1777 0.950 . S
H1773 C1778 0.949 . S
H1774 C1780 0.950 . S
H1775 C1781 0.950 . S
H1776 C1782 0.949 . S
C1777 H1772 0.950 . S
C1777 C1779 1.327 . S
C1777 C1783 1.429 . S
C1778 C1770 1.574 . S
C1778 H1773 0.949 . S
C1778 C1784 1.368 . S
C1779 C1763 1.349 . S
C1779 H1771 0.950 . S
C1779 C1777 1.327 . S
C1780 C1768 1.349 . S
C1780 H1774 0.950 . S
C1780 C1781 1.327 . S
C1781 H1775 0.950 . S
C1781 C1780 1.327 . S
C1781 C1785 1.429 . S
C1782 C1765 1.574 . S
C1782 H1776 0.949 . S
C1782 C1786 1.368 . S
C1783 C1764 1.429 . S
C1783 C1777 1.429 . S
C1783 C1784 1.523 . S
C1784 C1765 1.368 . S
C1784 C1778 1.368 . S
C1784 C1783 1.523 . S
C1785 C1769 1.429 . S
C1785 C1781 1.429 . S
C1785 C1786 1.523 . S
C1786 C1770 1.368 . S
C1786 C1782 1.368 . S
C1786 C1785 1.523 . S
H1787 C1762 0.950 . S
H1788 C1764 0.950 . S
H1789 C1765 0.949 . S
H1790 C1767 0.950 . S
H1791 C1769 0.950 . S
C1792 C1793 1.349 . S
C1792 C1794 1.327 . S
C1792 H1817 0.950 . S
C1793 C1792 1.349 . S
C1793 C1809 1.349 . S
C1794 C1792 1.327 . S
C1794 C1813 1.429 . S
C1794 H1818 0.950 . S
C1795 C1812 1.574 . S
C1795 C1814 1.368 . S
C1795 H1819 0.949 . S
H1796 C1800 0.949 . S
C1797 C1798 1.349 . S
C1797 C1799 1.327 . S
C1797 H1820 0.950 . S
C1798 C1797 1.349 . S
C1798 C1810 1.349 . S
C1799 C1797 1.327 . S
C1799 C1815 1.429 . S
C1799 H1821 0.950 . S
C1800 H1796 0.949 . S
C1800 C1808 1.574 . S
C1800 C1816 1.368 . S
H1801 C1809 0.950 . S
H1802 C1807 0.950 . S
H1803 C1808 0.949 . S
H1804 C1810 0.950 . S
H1805 C1811 0.950 . S
H1806 C1812 0.949 . S
C1807 H1802 0.950 . S
C1807 C1809 1.327 . S
C1807 C1813 1.429 . S
C1808 C1800 1.574 . S
C1808 H1803 0.949 . S
C1808 C1814 1.368 . S
C1809 C1793 1.349 . S
C1809 H1801 0.950 . S
C1809 C1807 1.327 . S
C1810 C1798 1.349 . S
C1810 H1804 0.950 . S
C1810 C1811 1.327 . S
C1811 H1805 0.950 . S
C1811 C1810 1.327 . S
C1811 C1815 1.429 . S
C1812 C1795 1.574 . S
C1812 H1806 0.949 . S
C1812 C1816 1.368 . S
C1813 C1794 1.429 . S
C1813 C1807 1.429 . S
C1813 C1814 1.523 . S
C1814 C1795 1.368 . S
C1814 C1808 1.368 . S
C1814 C1813 1.523 . S
C1815 C1799 1.429 . S
C1815 C1811 1.429 . S
C1815 C1816 1.523 . S
C1816 C1800 1.368 . S
C1816 C1812 1.368 . S
C1816 C1815 1.523 . S
H1817 C1792 0.950 . S
H1818 C1794 0.950 . S
H1819 C1795 0.949 . S
H1820 C1797 0.950 . S
H1821 C1799 0.950 . S
C1822 C1823 1.349 . S
C1822 C1824 1.327 . S
C1822 H1847 0.950 . S
C1823 C1822 1.349 . S
C1823 C1839 1.349 . S
C1824 C1822 1.327 . S
C1824 C1843 1.429 . S
C1824 H1848 0.950 . S
C1825 C1842 1.573 . S
C1825 C1844 1.368 . S
C1825 H1849 0.949 1_545 S
H1826 C1830 0.949 . S
C1827 C1828 1.349 1_565 S
C1827 C1829 1.327 . S
C1827 H1850 0.950 . S
C1828 C1827 1.349 1_545 S
C1828 C1840 1.349 . S
C1829 C1827 1.327 . S
C1829 C1845 1.429 1_565 S
C1829 H1851 0.950 . S
C1830 H1826 0.949 . S
C1830 C1838 1.574 . S
C1830 C1846 1.368 . S
H1831 C1839 0.950 . S
H1832 C1837 0.950 1_565 S
H1833 C1838 0.949 . S
H1834 C1840 0.950 . S
H1835 C1841 0.950 . S
H1836 C1842 0.954 1_565 S
C1837 H1832 0.950 1_545 S
C1837 C1839 1.327 . S
C1837 C1843 1.429 . S
C1838 C1830 1.574 . S
C1838 H1833 0.949 . S
C1838 C1844 1.368 . S
C1839 C1823 1.349 . S
C1839 H1831 0.950 . S
C1839 C1837 1.327 . S
C1840 C1828 1.349 . S
C1840 H1834 0.950 . S
C1840 C1841 1.327 . S
C1841 H1835 0.950 . S
C1841 C1840 1.327 . S
C1841 C1845 1.429 . S
C1842 C1825 1.573 . S
C1842 H1836 0.954 1_545 S
C1842 C1846 1.364 . S
C1843 C1824 1.429 . S
C1843 C1837 1.429 . S
C1843 C1844 1.523 . S
C1844 C1825 1.368 . S
C1844 C1838 1.368 . S
C1844 C1843 1.523 . S
C1845 C1829 1.429 1_545 S
C1845 C1841 1.429 . S
C1845 C1846 1.523 . S
C1846 C1830 1.368 . S
C1846 C1842 1.364 . S
C1846 C1845 1.523 . S
H1847 C1822 0.950 . S
H1848 C1824 0.950 . S
H1849 C1825 0.949 1_565 S
H1850 C1827 0.950 . S
H1851 C1829 0.950 . S
C1852 C1853 1.349 . S
C1852 C1854 1.327 . S
C1852 H1877 0.950 . S
C1853 C1852 1.349 . S
C1853 C1869 1.349 . S
C1854 C1852 1.327 . S
C1854 C1873 1.429 . S
C1854 H1878 0.950 . S
C1855 C1872 1.574 . S
C1855 C1874 1.368 . S
C1855 H1879 0.949 . S
H1856 C1860 0.949 . S
C1857 C1858 1.349 . S
C1857 C1859 1.327 . S
C1857 H1880 0.950 . S
C1858 C1857 1.349 . S
C1858 C1870 1.349 . S
C1859 C1857 1.327 . S
C1859 C1875 1.429 . S
C1859 H1881 0.950 . S
C1860 H1856 0.949 . S
C1860 C1868 1.574 . S
C1860 C1876 1.368 . S
H1861 C1869 0.950 . S
H1862 C1867 0.950 . S
H1863 C1868 0.949 . S
H1864 C1870 0.950 . S
H1865 C1871 0.950 . S
H1866 C1872 0.949 . S
C1867 H1862 0.950 . S
C1867 C1869 1.327 . S
C1867 C1873 1.429 . S
C1868 C1860 1.574 . S
C1868 H1863 0.949 . S
C1868 C1874 1.368 . S
C1869 C1853 1.349 . S
C1869 H1861 0.950 . S
C1869 C1867 1.327 . S
C1870 C1858 1.349 . S
C1870 H1864 0.950 . S
C1870 C1871 1.327 . S
C1871 H1865 0.950 . S
C1871 C1870 1.327 . S
C1871 C1875 1.429 . S
C1872 C1855 1.574 . S
C1872 H1866 0.949 . S
C1872 C1876 1.368 . S
C1873 C1854 1.429 . S
C1873 C1867 1.429 . S
C1873 C1874 1.523 . S
C1874 C1855 1.368 . S
C1874 C1868 1.368 . S
C1874 C1873 1.523 . S
C1875 C1859 1.429 . S
C1875 C1871 1.429 . S
C1875 C1876 1.523 . S
C1876 C1860 1.368 . S
C1876 C1872 1.368 . S
C1876 C1875 1.523 . S
H1877 C1852 0.950 . S
H1878 C1854 0.950 . S
H1879 C1855 0.949 . S
H1880 C1857 0.950 . S
H1881 C1859 0.950 . S
C1882 C1883 1.349 . S
C1882 C1884 1.327 . S
C1882 H1907 0.950 . S
C1883 C1882 1.349 . S
C1883 C1899 1.349 . S
C1884 C1882 1.327 . S
C1884 C1903 1.429 . S
C1884 H1908 0.950 . S
C1885 C1902 1.574 . S
C1885 C1904 1.368 . S
C1885 H1909 0.949 . S
H1886 C1890 0.949 . S
C1887 C1888 1.349 . S
C1887 C1889 1.327 . S
C1887 H1910 0.950 . S
C1888 C1887 1.349 . S
C1888 C1900 1.349 . S
C1889 C1887 1.327 . S
C1889 C1905 1.429 . S
C1889 H1911 0.950 . S
C1890 H1886 0.949 . S
C1890 C1898 1.574 . S
C1890 C1906 1.368 . S
H1891 C1899 0.950 . S
H1892 C1897 0.950 . S
H1893 C1898 0.949 . S
H1894 C1900 0.950 . S
H1895 C1901 0.950 . S
H1896 C1902 0.949 . S
C1897 H1892 0.950 . S
C1897 C1899 1.327 . S
C1897 C1903 1.429 . S
C1898 C1890 1.574 . S
C1898 H1893 0.949 . S
C1898 C1904 1.368 . S
C1899 C1883 1.349 . S
C1899 H1891 0.950 . S
C1899 C1897 1.327 . S
C1900 C1888 1.349 . S
C1900 H1894 0.950 . S
C1900 C1901 1.327 . S
C1901 H1895 0.950 . S
C1901 C1900 1.327 . S
C1901 C1905 1.429 . S
C1902 C1885 1.574 . S
C1902 H1896 0.949 . S
C1902 C1906 1.368 . S
C1903 C1884 1.429 . S
C1903 C1897 1.429 . S
C1903 C1904 1.523 . S
C1904 C1885 1.368 . S
C1904 C1898 1.368 . S
C1904 C1903 1.523 . S
C1905 C1889 1.429 . S
C1905 C1901 1.429 . S
C1905 C1906 1.523 . S
C1906 C1890 1.368 . S
C1906 C1902 1.368 . S
C1906 C1905 1.523 . S
H1907 C1882 0.950 . S
H1908 C1884 0.950 . S
H1909 C1885 0.949 . S
H1910 C1887 0.950 . S
H1911 C1889 0.950 . S
C1912 C1913 1.349 . S
C1912 C1914 1.327 . S
C1912 H1937 0.950 . S
C1913 C1912 1.349 . S
C1913 C1929 1.349 . S
C1914 C1912 1.327 . S
C1914 C1933 1.429 . S
C1914 H1938 0.950 . S
C1915 C1932 1.574 . S
C1915 C1934 1.368 . S
C1915 H1939 0.949 . S
H1916 C1920 0.949 . S
C1917 C1918 1.349 . S
C1917 C1919 1.327 . S
C1917 H1940 0.950 . S
C1918 C1917 1.349 . S
C1918 C1930 1.349 . S
C1919 C1917 1.327 . S
C1919 C1935 1.429 . S
C1919 H1941 0.950 . S
C1920 H1916 0.949 . S
C1920 C1928 1.574 . S
C1920 C1936 1.368 . S
H1921 C1929 0.950 . S
H1922 C1927 0.950 . S
H1923 C1928 0.949 . S
H1924 C1930 0.950 . S
H1925 C1931 0.950 . S
H1926 C1932 0.949 . S
C1927 H1922 0.950 . S
C1927 C1929 1.327 . S
C1927 C1933 1.429 . S
C1928 C1920 1.574 . S
C1928 H1923 0.949 . S
C1928 C1934 1.368 . S
C1929 C1913 1.349 . S
C1929 H1921 0.950 . S
C1929 C1927 1.327 . S
C1930 C1918 1.349 . S
C1930 H1924 0.950 . S
C1930 C1931 1.327 . S
C1931 H1925 0.950 . S
C1931 C1930 1.327 . S
C1931 C1935 1.429 . S
C1932 C1915 1.574 . S
C1932 H1926 0.949 . S
C1932 C1936 1.368 . S
C1933 C1914 1.429 . S
C1933 C1927 1.429 . S
C1933 C1934 1.523 . S
C1934 C1915 1.368 . S
C1934 C1928 1.368 . S
C1934 C1933 1.523 . S
C1935 C1919 1.429 . S
C1935 C1931 1.429 . S
C1935 C1936 1.523 . S
C1936 C1920 1.368 . S
C1936 C1932 1.368 . S
C1936 C1935 1.523 . S
H1937 C1912 0.950 . S
H1938 C1914 0.950 . S
H1939 C1915 0.949 . S
H1940 C1917 0.950 . S
H1941 C1919 0.950 . S
C1942 C1943 1.349 . S
C1942 C1944 1.327 . S
C1942 H1967 0.950 . S
C1943 C1942 1.349 . S
C1943 C1959 1.349 . S
C1944 C1942 1.327 . S
C1944 C1963 1.429 . S
C1944 H1968 0.955 1_545 S
C1945 C1962 1.574 . S
C1945 C1964 1.368 . S
C1945 H1969 0.949 . S
H1946 C1950 0.949 1_565 S
C1947 C1948 1.349 . S
C1947 C1949 1.327 . S
C1947 H1970 0.950 . S
C1948 C1947 1.349 . S
C1948 C1960 1.380 . S
C1949 C1947 1.327 . S
C1949 C1965 1.429 . S
C1949 H1971 0.950 . S
C1950 H1946 0.949 1_545 S
C1950 C1958 1.574 . S
C1950 C1966 1.368 . S
H1951 C1959 0.950 . S
H1952 C1957 0.950 . S
H1953 C1958 0.949 1_565 S
H1954 C1960 0.916 1_565 S
H1955 C1961 0.950 1_565 S
H1956 C1962 0.949 . S
C1957 H1952 0.950 . S
C1957 C1959 1.327 . S
C1957 C1963 1.429 . S
C1958 C1950 1.574 . S
C1958 H1953 0.949 1_545 S
C1958 C1964 1.368 . S
C1959 C1943 1.349 . S
C1959 H1951 0.950 . S
C1959 C1957 1.327 . S
C1960 C1948 1.380 . S
C1960 H1954 0.916 1_545 S
C1960 C1961 1.331 . S
C1961 H1955 0.950 1_545 S
C1961 C1960 1.331 . S
C1961 C1965 1.429 . S
C1962 C1945 1.574 . S
C1962 H1956 0.949 . S
C1962 C1966 1.368 . S
C1963 C1944 1.429 . S
C1963 C1957 1.429 . S
C1963 C1964 1.523 . S
C1964 C1945 1.368 . S
C1964 C1958 1.368 . S
C1964 C1963 1.523 . S
C1965 C1949 1.429 . S
C1965 C1961 1.429 . S
C1965 C1966 1.523 . S
C1966 C1950 1.368 . S
C1966 C1962 1.368 . S
C1966 C1965 1.523 . S
H1967 C1942 0.950 . S
H1968 C1944 0.955 1_565 S
H1969 C1945 0.949 . S
H1970 C1947 0.950 . S
H1971 C1949 0.950 . S
C1972 C1973 1.349 . S
C1972 C1974 1.327 . S
C1972 H1997 0.950 . S
C1973 C1972 1.349 . S
C1973 C1989 1.349 . S
C1974 C1972 1.327 . S
C1974 C1993 1.429 . S
C1974 H1998 0.950 . S
C1975 C1992 1.574 . S
C1975 C1994 1.368 . S
C1975 H1999 0.949 . S
H1976 C1980 0.949 . S
C1977 C1978 1.349 . S
C1977 C1979 1.327 . S
C1977 H2000 0.950 . S
C1978 C1977 1.349 . S
C1978 C1990 1.349 . S
C1979 C1977 1.327 . S
C1979 C1995 1.429 . S
C1979 H2001 0.950 . S
C1980 H1976 0.949 . S
C1980 C1988 1.574 . S
C1980 C1996 1.368 . S
H1981 C1989 0.950 . S
H1982 C1987 0.950 . S
H1983 C1988 0.949 . S
H1984 C1990 0.950 . S
H1985 C1991 0.950 . S
H1986 C1992 0.949 . S
C1987 H1982 0.950 . S
C1987 C1989 1.327 . S
C1987 C1993 1.429 . S
C1988 C1980 1.574 . S
C1988 H1983 0.949 . S
C1988 C1994 1.368 . S
C1989 C1973 1.349 . S
C1989 H1981 0.950 . S
C1989 C1987 1.327 . S
C1990 C1978 1.349 . S
C1990 H1984 0.950 . S
C1990 C1991 1.327 . S
C1991 H1985 0.950 . S
C1991 C1990 1.327 . S
C1991 C1995 1.429 . S
C1992 C1975 1.574 . S
C1992 H1986 0.949 . S
C1992 C1996 1.368 . S
C1993 C1974 1.429 . S
C1993 C1987 1.429 . S
C1993 C1994 1.523 . S
C1994 C1975 1.368 . S
C1994 C1988 1.368 . S
C1994 C1993 1.523 . S
C1995 C1979 1.429 . S
C1995 C1991 1.429 . S
C1995 C1996 1.523 . S
C1996 C1980 1.368 . S
C1996 C1992 1.368 . S
C1996 C1995 1.523 . S
H1997 C1972 0.950 . S
H1998 C1974 0.950 . S
H1999 C1975 0.949 . S
H2000 C1977 0.950 . S
H2001 C1979 0.950 . S
C2002 C2003 1.349 . S
C2002 C2004 1.327 . S
C2002 H2027 0.950 . S
C2003 C2002 1.349 . S
C2003 C2019 1.349 . S
C2004 C2002 1.327 . S
C2004 C2023 1.429 . S
C2004 H2028 0.950 . S
C2005 C2022 1.574 . S
C2005 C2024 1.368 . S
C2005 H2029 0.949 . S
H2006 C2010 0.949 . S
C2007 C2008 1.349 . S
C2007 C2009 1.327 . S
C2007 H2030 0.950 . S
C2008 C2007 1.349 . S
C2008 C2020 1.349 . S
C2009 C2007 1.327 . S
C2009 C2025 1.429 . S
C2009 H2031 0.950 . S
C2010 H2006 0.949 . S
C2010 C2018 1.574 . S
C2010 C2026 1.368 . S
H2011 C2019 0.950 . S
H2012 C2017 0.950 . S
H2013 C2018 0.949 . S
H2014 C2020 0.950 . S
H2015 C2021 0.950 . S
H2016 C2022 0.949 . S
C2017 H2012 0.950 . S
C2017 C2019 1.327 . S
C2017 C2023 1.429 . S
C2018 C2010 1.574 . S
C2018 H2013 0.949 . S
C2018 C2024 1.368 . S
C2019 C2003 1.349 . S
C2019 H2011 0.950 . S
C2019 C2017 1.327 . S
C2020 C2008 1.349 . S
C2020 H2014 0.950 . S
C2020 C2021 1.327 . S
C2021 H2015 0.950 . S
C2021 C2020 1.327 . S
C2021 C2025 1.429 . S
C2022 C2005 1.574 . S
C2022 H2016 0.949 . S
C2022 C2026 1.368 . S
C2023 C2004 1.429 . S
C2023 C2017 1.429 . S
C2023 C2024 1.523 . S
C2024 C2005 1.368 . S
C2024 C2018 1.368 . S
C2024 C2023 1.523 . S
C2025 C2009 1.429 . S
C2025 C2021 1.429 . S
C2025 C2026 1.523 . S
C2026 C2010 1.368 . S
C2026 C2022 1.368 . S
C2026 C2025 1.523 . S
H2027 C2002 0.950 . S
H2028 C2004 0.950 . S
H2029 C2005 0.949 . S
H2030 C2007 0.950 . S
H2031 C2009 0.950 . S
C2032 C2033 1.349 . S
C2032 C2034 1.327 . S
C2032 H2057 0.950 . S
C2033 C2032 1.349 . S
C2033 C2049 1.349 . S
C2034 C2032 1.327 . S
C2034 C2053 1.429 . S
C2034 H2058 0.950 . S
C2035 C2052 1.574 . S
C2035 C2054 1.368 . S
C2035 H2059 0.949 . S
H2036 C2040 0.949 . S
C2037 C2038 1.349 . S
C2037 C2039 1.327 . S
C2037 H2060 0.950 . S
C2038 C2037 1.349 . S
C2038 C2050 1.349 . S
C2039 C2037 1.327 . S
C2039 C2055 1.429 . S
C2039 H2061 0.950 . S
C2040 H2036 0.949 . S
C2040 C2048 1.574 . S
C2040 C2056 1.368 . S
H2041 C2049 0.950 . S
H2042 C2047 0.950 . S
H2043 C2048 0.949 . S
H2044 C2050 0.950 . S
H2045 C2051 0.950 . S
H2046 C2052 0.949 . S
C2047 H2042 0.950 . S
C2047 C2049 1.327 . S
C2047 C2053 1.429 . S
C2048 C2040 1.574 . S
C2048 H2043 0.949 . S
C2048 C2054 1.368 . S
C2049 C2033 1.349 . S
C2049 H2041 0.950 . S
C2049 C2047 1.327 . S
C2050 C2038 1.349 . S
C2050 H2044 0.950 . S
C2050 C2051 1.327 . S
C2051 H2045 0.950 . S
C2051 C2050 1.327 . S
C2051 C2055 1.429 . S
C2052 C2035 1.574 . S
C2052 H2046 0.949 . S
C2052 C2056 1.368 . S
C2053 C2034 1.429 . S
C2053 C2047 1.429 . S
C2053 C2054 1.523 . S
C2054 C2035 1.368 . S
C2054 C2048 1.368 . S
C2054 C2053 1.523 . S
C2055 C2039 1.429 . S
C2055 C2051 1.429 . S
C2055 C2056 1.523 . S
C2056 C2040 1.368 . S
C2056 C2052 1.368 . S
C2056 C2055 1.523 . S
H2057 C2032 0.950 . S
H2058 C2034 0.950 . S
H2059 C2035 0.949 . S
H2060 C2037 0.950 . S
H2061 C2039 0.950 . S
C2062 C2063 1.349 . S
C2062 C2064 1.327 . S
C2062 H2087 0.950 . S
C2063 C2062 1.349 . S
C2063 C2079 1.349 . S
C2064 C2062 1.327 . S
C2064 C2083 1.429 . S
C2064 H2088 0.950 . S
C2065 C2082 1.569 1_655 S
C2065 C2084 1.381 . S
C2065 H2089 0.942 1_655 S
H2066 C2070 0.949 . S
C2067 C2068 1.349 . S
C2067 C2069 1.327 . S
C2067 H2090 0.950 . S
C2068 C2067 1.349 . S
C2068 C2080 1.349 1_455 S
C2069 C2067 1.327 . S
C2069 C2085 1.398 1_455 S
C2069 H2091 0.950 . S
C2070 H2066 0.949 . S
C2070 C2078 1.574 . S
C2070 C2086 1.368 . S
H2071 C2079 0.950 . S
H2072 C2077 0.960 . S
H2073 C2078 0.949 . S
H2074 C2080 0.950 . S
H2075 C2081 0.950 . S
H2076 C2082 0.949 . S
C2077 H2072 0.960 . S
C2077 C2079 1.327 . S
C2077 C2083 1.429 . S
C2078 C2070 1.574 . S
C2078 H2073 0.949 . S
C2078 C2084 1.368 . S
C2079 C2063 1.349 . S
C2079 H2071 0.950 . S
C2079 C2077 1.327 . S
C2080 C2068 1.349 1_655 S
C2080 H2074 0.950 . S
C2080 C2081 1.327 . S
C2081 H2075 0.950 . S
C2081 C2080 1.327 . S
C2081 C2085 1.449 . S
C2082 C2065 1.569 1_455 S
C2082 H2076 0.949 . S
C2082 C2086 1.368 1_455 S
C2083 C2064 1.429 . S
C2083 C2077 1.429 . S
C2083 C2084 1.523 . S
C2084 C2065 1.381 . S
C2084 C2078 1.368 . S
C2084 C2083 1.523 . S
C2085 C2069 1.398 1_655 S
C2085 C2081 1.449 . S
C2085 C2086 1.536 . S
C2086 C2070 1.368 . S
C2086 C2082 1.368 1_655 S
C2086 C2085 1.536 . S
H2087 C2062 0.950 . S
H2088 C2064 0.950 . S
H2089 C2065 0.942 1_455 S
H2090 C2067 0.950 . S
H2091 C2069 0.950 . S
C2092 C2093 1.349 . S
C2092 C2094 1.327 . S
C2092 H2117 0.950 . S
C2093 C2092 1.349 . S
C2093 C2109 1.349 . S
C2094 C2092 1.327 . S
C2094 C2113 1.429 . S
C2094 H2118 0.950 . S
C2095 C2112 1.574 . S
C2095 C2114 1.368 . S
C2095 H2119 0.949 . S
H2096 C2100 0.949 . S
C2097 C2098 1.349 . S
C2097 C2099 1.327 . S
C2097 H2120 0.950 . S
C2098 C2097 1.349 . S
C2098 C2110 1.349 . S
C2099 C2097 1.327 . S
C2099 C2115 1.429 . S
C2099 H2121 0.950 . S
C2100 H2096 0.949 . S
C2100 C2108 1.574 . S
C2100 C2116 1.368 . S
H2101 C2109 0.950 . S
H2102 C2107 0.950 . S
H2103 C2108 0.949 . S
H2104 C2110 0.950 . S
H2105 C2111 0.950 . S
H2106 C2112 0.949 . S
C2107 H2102 0.950 . S
C2107 C2109 1.327 . S
C2107 C2113 1.429 . S
C2108 C2100 1.574 . S
C2108 H2103 0.949 . S
C2108 C2114 1.368 . S
C2109 C2093 1.349 . S
C2109 H2101 0.950 . S
C2109 C2107 1.327 . S
C2110 C2098 1.349 . S
C2110 H2104 0.950 . S
C2110 C2111 1.327 . S
C2111 H2105 0.950 . S
C2111 C2110 1.327 . S
C2111 C2115 1.429 . S
C2112 C2095 1.574 . S
C2112 H2106 0.949 . S
C2112 C2116 1.368 . S
C2113 C2094 1.429 . S
C2113 C2107 1.429 . S
C2113 C2114 1.523 . S
C2114 C2095 1.368 . S
C2114 C2108 1.368 . S
C2114 C2113 1.523 . S
C2115 C2099 1.429 . S
C2115 C2111 1.429 . S
C2115 C2116 1.523 . S
C2116 C2100 1.368 . S
C2116 C2112 1.368 . S
C2116 C2115 1.523 . S
H2117 C2092 0.950 . S
H2118 C2094 0.950 . S
H2119 C2095 0.949 . S
H2120 C2097 0.950 . S
H2121 C2099 0.950 . S
C2122 C2123 1.349 . S
C2122 C2124 1.327 . S
C2122 H2147 0.950 . S
C2123 C2122 1.349 . S
C2123 C2139 1.349 . S
C2124 C2122 1.327 . S
C2124 C2143 1.429 . S
C2124 H2148 0.950 . S
C2125 C2142 1.574 . S
C2125 C2144 1.368 . S
C2125 H2149 0.949 . S
H2126 C2130 0.949 . S
C2127 C2128 1.349 . S
C2127 C2129 1.327 . S
C2127 H2150 0.950 . S
C2128 C2127 1.349 . S
C2128 C2140 1.349 . S
C2129 C2127 1.327 . S
C2129 C2145 1.429 . S
C2129 H2151 0.950 . S
C2130 H2126 0.949 . S
C2130 C2138 1.574 . S
C2130 C2146 1.368 . S
H2131 C2139 0.950 . S
H2132 C2137 0.950 . S
H2133 C2138 0.949 . S
H2134 C2140 0.950 . S
H2135 C2141 0.950 . S
H2136 C2142 0.949 . S
C2137 H2132 0.950 . S
C2137 C2139 1.327 . S
C2137 C2143 1.429 . S
C2138 C2130 1.574 . S
C2138 H2133 0.949 . S
C2138 C2144 1.368 . S
C2139 C2123 1.349 . S
C2139 H2131 0.950 . S
C2139 C2137 1.327 . S
C2140 C2128 1.349 . S
C2140 H2134 0.950 . S
C2140 C2141 1.327 . S
C2141 H2135 0.950 . S
C2141 C2140 1.327 . S
C2141 C2145 1.429 . S
C2142 C2125 1.574 . S
C2142 H2136 0.949 . S
C2142 C2146 1.368 . S
C2143 C2124 1.429 . S
C2143 C2137 1.429 . S
C2143 C2144 1.523 . S
C2144 C2125 1.368 . S
C2144 C2138 1.368 . S
C2144 C2143 1.523 . S
C2145 C2129 1.429 . S
C2145 C2141 1.429 . S
C2145 C2146 1.523 . S
C2146 C2130 1.368 . S
C2146 C2142 1.368 . S
C2146 C2145 1.523 . S
H2147 C2122 0.950 . S
H2148 C2124 0.950 . S
H2149 C2125 0.949 . S
H2150 C2127 0.950 . S
H2151 C2129 0.950 . S
C2152 C2153 1.349 . S
C2152 C2154 1.327 . S
C2152 H2177 0.950 . S
C2153 C2152 1.349 . S
C2153 C2169 1.349 . S
C2154 C2152 1.327 . S
C2154 C2173 1.429 . S
C2154 H2178 0.950 . S
C2155 C2172 1.574 . S
C2155 C2174 1.368 . S
C2155 H2179 0.949 . S
H2156 C2160 0.949 . S
C2157 C2158 1.349 . S
C2157 C2159 1.327 . S
C2157 H2180 0.950 . S
C2158 C2157 1.349 . S
C2158 C2170 1.349 . S
C2159 C2157 1.327 . S
C2159 C2175 1.429 . S
C2159 H2181 0.950 . S
C2160 H2156 0.949 . S
C2160 C2168 1.574 . S
C2160 C2176 1.368 . S
H2161 C2169 0.950 . S
H2162 C2167 0.950 . S
H2163 C2168 0.949 . S
H2164 C2170 0.950 . S
H2165 C2171 0.950 . S
H2166 C2172 0.949 . S
C2167 H2162 0.950 . S
C2167 C2169 1.327 . S
C2167 C2173 1.429 . S
C2168 C2160 1.574 . S
C2168 H2163 0.949 . S
C2168 C2174 1.368 . S
C2169 C2153 1.349 . S
C2169 H2161 0.950 . S
C2169 C2167 1.327 . S
C2170 C2158 1.349 . S
C2170 H2164 0.950 . S
C2170 C2171 1.327 . S
C2171 H2165 0.950 . S
C2171 C2170 1.327 . S
C2171 C2175 1.429 . S
C2172 C2155 1.574 . S
C2172 H2166 0.949 . S
C2172 C2176 1.368 . S
C2173 C2154 1.429 . S
C2173 C2167 1.429 . S
C2173 C2174 1.523 . S
C2174 C2155 1.368 . S
C2174 C2168 1.368 . S
C2174 C2173 1.523 . S
C2175 C2159 1.429 . S
C2175 C2171 1.429 . S
C2175 C2176 1.523 . S
C2176 C2160 1.368 . S
C2176 C2172 1.368 . S
C2176 C2175 1.523 . S
H2177 C2152 0.950 . S
H2178 C2154 0.950 . S
H2179 C2155 0.949 . S
H2180 C2157 0.950 . S
H2181 C2159 0.950 . S
C2182 C2183 1.349 . S
C2182 C2184 1.327 . S
C2182 H2207 0.950 . S
C2183 C2182 1.349 . S
C2183 C2199 1.349 . S
C2184 C2182 1.327 . S
C2184 C2203 1.429 . S
C2184 H2208 0.950 . S
C2185 C2202 1.574 . S
C2185 C2204 1.368 . S
C2185 H2209 0.949 . S
H2186 C2190 0.949 . S
C2187 C2188 1.349 . S
C2187 C2189 1.327 . S
C2187 H2210 0.950 . S
C2188 C2187 1.349 . S
C2188 C2200 1.349 . S
C2189 C2187 1.327 . S
C2189 C2205 1.429 . S
C2189 H2211 0.950 . S
C2190 H2186 0.949 . S
C2190 C2198 1.574 . S
C2190 C2206 1.368 . S
H2191 C2199 0.950 . S
H2192 C2197 0.950 . S
H2193 C2198 0.949 . S
H2194 C2200 0.950 . S
H2195 C2201 0.950 . S
H2196 C2202 0.949 . S
C2197 H2192 0.950 . S
C2197 C2199 1.327 . S
C2197 C2203 1.429 . S
C2198 C2190 1.574 . S
C2198 H2193 0.949 . S
C2198 C2204 1.368 . S
C2199 C2183 1.349 . S
C2199 H2191 0.950 . S
C2199 C2197 1.327 . S
C2200 C2188 1.349 . S
C2200 H2194 0.950 . S
C2200 C2201 1.327 . S
C2201 H2195 0.950 . S
C2201 C2200 1.327 . S
C2201 C2205 1.429 . S
C2202 C2185 1.574 . S
C2202 H2196 0.949 . S
C2202 C2206 1.368 . S
C2203 C2184 1.429 . S
C2203 C2197 1.429 . S
C2203 C2204 1.523 . S
C2204 C2185 1.368 . S
C2204 C2198 1.368 . S
C2204 C2203 1.523 . S
C2205 C2189 1.429 . S
C2205 C2201 1.429 . S
C2205 C2206 1.523 . S
C2206 C2190 1.368 . S
C2206 C2202 1.368 . S
C2206 C2205 1.523 . S
H2207 C2182 0.950 . S
H2208 C2184 0.950 . S
H2209 C2185 0.949 . S
H2210 C2187 0.950 . S
H2211 C2189 0.950 . S
C2212 C2213 1.349 . S
C2212 C2214 1.327 . S
C2212 H2237 0.950 . S
C2213 C2212 1.349 . S
C2213 C2229 1.349 . S
C2214 C2212 1.327 . S
C2214 C2233 1.429 . S
C2214 H2238 0.950 . S
C2215 C2232 1.574 . S
C2215 C2234 1.368 . S
C2215 H2239 0.949 . S
H2216 C2220 0.949 . S
C2217 C2218 1.349 . S
C2217 C2219 1.327 . S
C2217 H2240 0.950 . S
C2218 C2217 1.349 . S
C2218 C2230 1.349 . S
C2219 C2217 1.327 . S
C2219 C2235 1.429 . S
C2219 H2241 0.950 . S
C2220 H2216 0.949 . S
C2220 C2228 1.574 . S
C2220 C2236 1.368 . S
H2221 C2229 0.950 . S
H2222 C2227 0.950 . S
H2223 C2228 0.949 . S
H2224 C2230 0.950 . S
H2225 C2231 0.950 . S
H2226 C2232 0.949 . S
C2227 H2222 0.950 . S
C2227 C2229 1.327 . S
C2227 C2233 1.429 . S
C2228 C2220 1.574 . S
C2228 H2223 0.949 . S
C2228 C2234 1.368 . S
C2229 C2213 1.349 . S
C2229 H2221 0.950 . S
C2229 C2227 1.327 . S
C2230 C2218 1.349 . S
C2230 H2224 0.950 . S
C2230 C2231 1.327 . S
C2231 H2225 0.950 . S
C2231 C2230 1.327 . S
C2231 C2235 1.429 . S
C2232 C2215 1.574 . S
C2232 H2226 0.949 . S
C2232 C2236 1.368 . S
C2233 C2214 1.429 . S
C2233 C2227 1.429 . S
C2233 C2234 1.523 . S
C2234 C2215 1.368 . S
C2234 C2228 1.368 . S
C2234 C2233 1.523 . S
C2235 C2219 1.429 . S
C2235 C2231 1.429 . S
C2235 C2236 1.523 . S
C2236 C2220 1.368 . S
C2236 C2232 1.368 . S
C2236 C2235 1.523 . S
H2237 C2212 0.950 . S
H2238 C2214 0.950 . S
H2239 C2215 0.949 . S
H2240 C2217 0.950 . S
H2241 C2219 0.950 . S
C2242 C2243 1.349 . S
C2242 C2244 1.327 . S
C2242 H2267 0.950 . S
C2243 C2242 1.349 . S
C2243 C2259 1.349 . S
C2244 C2242 1.327 . S
C2244 C2263 1.429 . S
C2244 H2268 0.950 . S
C2245 C2262 1.574 . S
C2245 C2264 1.368 . S
C2245 H2269 0.949 . S
H2246 C2250 0.949 . S
C2247 C2248 1.349 . S
C2247 C2249 1.327 . S
C2247 H2270 0.950 . S
C2248 C2247 1.349 . S
C2248 C2260 1.349 . S
C2249 C2247 1.327 . S
C2249 C2265 1.429 . S
C2249 H2271 0.950 . S
C2250 H2246 0.949 . S
C2250 C2258 1.574 . S
C2250 C2266 1.368 . S
H2251 C2259 0.950 . S
H2252 C2257 0.950 . S
H2253 C2258 0.949 . S
H2254 C2260 0.950 . S
H2255 C2261 0.950 . S
H2256 C2262 0.949 . S
C2257 H2252 0.950 . S
C2257 C2259 1.327 . S
C2257 C2263 1.429 . S
C2258 C2250 1.574 . S
C2258 H2253 0.949 . S
C2258 C2264 1.368 . S
C2259 C2243 1.349 . S
C2259 H2251 0.950 . S
C2259 C2257 1.327 . S
C2260 C2248 1.349 . S
C2260 H2254 0.950 . S
C2260 C2261 1.327 . S
C2261 H2255 0.950 . S
C2261 C2260 1.327 . S
C2261 C2265 1.429 . S
C2262 C2245 1.574 . S
C2262 H2256 0.949 . S
C2262 C2266 1.368 . S
C2263 C2244 1.429 . S
C2263 C2257 1.429 . S
C2263 C2264 1.523 . S
C2264 C2245 1.368 . S
C2264 C2258 1.368 . S
C2264 C2263 1.523 . S
C2265 C2249 1.429 . S
C2265 C2261 1.429 . S
C2265 C2266 1.523 . S
C2266 C2250 1.368 . S
C2266 C2262 1.368 . S
C2266 C2265 1.523 . S
H2267 C2242 0.950 . S
H2268 C2244 0.950 . S
H2269 C2245 0.949 . S
H2270 C2247 0.950 . S
H2271 C2249 0.950 . S
C2272 C2273 1.349 . S
C2272 C2274 1.327 . S
C2272 H2297 0.950 . S
C2273 C2272 1.349 . S
C2273 C2289 1.349 . S
C2274 C2272 1.327 . S
C2274 C2293 1.429 . S
C2274 H2298 0.950 . S
C2275 C2292 1.574 . S
C2275 C2294 1.368 . S
C2275 H2299 0.949 . S
H2276 C2280 0.949 . S
C2277 C2278 1.349 . S
C2277 C2279 1.327 . S
C2277 H2300 0.950 . S
C2278 C2277 1.349 . S
C2278 C2290 1.349 . S
C2279 C2277 1.327 . S
C2279 C2295 1.429 . S
C2279 H2301 0.950 . S
C2280 H2276 0.949 . S
C2280 C2288 1.574 . S
C2280 C2296 1.368 . S
H2281 C2289 0.950 . S
H2282 C2287 0.950 . S
H2283 C2288 0.949 . S
H2284 C2290 0.950 . S
H2285 C2291 0.950 . S
H2286 C2292 0.949 . S
C2287 H2282 0.950 . S
C2287 C2289 1.327 . S
C2287 C2293 1.429 . S
C2288 C2280 1.574 . S
C2288 H2283 0.949 . S
C2288 C2294 1.368 . S
C2289 C2273 1.349 . S
C2289 H2281 0.950 . S
C2289 C2287 1.327 . S
C2290 C2278 1.349 . S
C2290 H2284 0.950 . S
C2290 C2291 1.327 . S
C2291 H2285 0.950 . S
C2291 C2290 1.327 . S
C2291 C2295 1.429 . S
C2292 C2275 1.574 . S
C2292 H2286 0.949 . S
C2292 C2296 1.368 . S
C2293 C2274 1.429 . S
C2293 C2287 1.429 . S
C2293 C2294 1.523 . S
C2294 C2275 1.368 . S
C2294 C2288 1.368 . S
C2294 C2293 1.523 . S
C2295 C2279 1.429 . S
C2295 C2291 1.429 . S
C2295 C2296 1.523 . S
C2296 C2280 1.368 . S
C2296 C2292 1.368 . S
C2296 C2295 1.523 . S
H2297 C2272 0.950 . S
H2298 C2274 0.950 . S
H2299 C2275 0.949 . S
H2300 C2277 0.950 . S
H2301 C2279 0.950 . S
C2302 C2303 1.349 . S
C2302 C2304 1.327 . S
C2302 H2327 0.950 . S
C2303 C2302 1.349 . S
C2303 C2319 1.349 . S
C2304 C2302 1.327 . S
C2304 C2323 1.429 . S
C2304 H2328 0.950 . S
C2305 C2322 1.574 . S
C2305 C2324 1.368 . S
C2305 H2329 0.949 . S
H2306 C2310 0.949 . S
C2307 C2308 1.349 . S
C2307 C2309 1.327 . S
C2307 H2330 0.950 . S
C2308 C2307 1.349 . S
C2308 C2320 1.349 . S
C2309 C2307 1.327 . S
C2309 C2325 1.429 . S
C2309 H2331 0.950 . S
C2310 H2306 0.949 . S
C2310 C2318 1.574 . S
C2310 C2326 1.368 . S
H2311 C2319 0.950 . S
H2312 C2317 0.950 . S
H2313 C2318 0.949 . S
H2314 C2320 0.950 . S
H2315 C2321 0.950 . S
H2316 C2322 0.949 . S
C2317 H2312 0.950 . S
C2317 C2319 1.327 . S
C2317 C2323 1.429 . S
C2318 C2310 1.574 . S
C2318 H2313 0.949 . S
C2318 C2324 1.368 . S
C2319 C2303 1.349 . S
C2319 H2311 0.950 . S
C2319 C2317 1.327 . S
C2320 C2308 1.349 . S
C2320 H2314 0.950 . S
C2320 C2321 1.327 . S
C2321 H2315 0.950 . S
C2321 C2320 1.327 . S
C2321 C2325 1.429 . S
C2322 C2305 1.574 . S
C2322 H2316 0.949 . S
C2322 C2326 1.368 . S
C2323 C2304 1.429 . S
C2323 C2317 1.429 . S
C2323 C2324 1.523 . S
C2324 C2305 1.368 . S
C2324 C2318 1.368 . S
C2324 C2323 1.523 . S
C2325 C2309 1.429 . S
C2325 C2321 1.429 . S
C2325 C2326 1.523 . S
C2326 C2310 1.368 . S
C2326 C2322 1.368 . S
C2326 C2325 1.523 . S
H2327 C2302 0.950 . S
H2328 C2304 0.950 . S
H2329 C2305 0.949 . S
H2330 C2307 0.950 . S
H2331 C2309 0.950 . S
C2332 C2333 1.349 . S
C2332 C2334 1.327 . S
C2332 H2357 0.950 . S
C2333 C2332 1.349 . S
C2333 C2349 1.349 . S
C2334 C2332 1.327 . S
C2334 C2353 1.429 . S
C2334 H2358 0.950 . S
C2335 C2352 1.574 . S
C2335 C2354 1.368 . S
C2335 H2359 0.949 . S
H2336 C2340 0.949 . S
C2337 C2338 1.349 . S
C2337 C2339 1.327 . S
C2337 H2360 0.950 . S
C2338 C2337 1.349 . S
C2338 C2350 1.349 . S
C2339 C2337 1.327 . S
C2339 C2355 1.429 . S
C2339 H2361 0.950 . S
C2340 H2336 0.949 . S
C2340 C2348 1.574 . S
C2340 C2356 1.368 . S
H2341 C2349 0.950 . S
H2342 C2347 0.950 . S
H2343 C2348 0.949 . S
H2344 C2350 0.950 . S
H2345 C2351 0.950 . S
H2346 C2352 0.949 . S
C2347 H2342 0.950 . S
C2347 C2349 1.327 . S
C2347 C2353 1.429 . S
C2348 C2340 1.574 . S
C2348 H2343 0.949 . S
C2348 C2354 1.368 . S
C2349 C2333 1.349 . S
C2349 H2341 0.950 . S
C2349 C2347 1.327 . S
C2350 C2338 1.349 . S
C2350 H2344 0.950 . S
C2350 C2351 1.327 . S
C2351 H2345 0.950 . S
C2351 C2350 1.327 . S
C2351 C2355 1.429 . S
C2352 C2335 1.574 . S
C2352 H2346 0.949 . S
C2352 C2356 1.368 . S
C2353 C2334 1.429 . S
C2353 C2347 1.429 . S
C2353 C2354 1.523 . S
C2354 C2335 1.368 . S
C2354 C2348 1.368 . S
C2354 C2353 1.523 . S
C2355 C2339 1.429 . S
C2355 C2351 1.429 . S
C2355 C2356 1.523 . S
C2356 C2340 1.368 . S
C2356 C2352 1.368 . S
C2356 C2355 1.523 . S
H2357 C2332 0.950 . S
H2358 C2334 0.950 . S
H2359 C2335 0.949 . S
H2360 C2337 0.950 . S
H2361 C2339 0.950 . S
C2362 C2363 1.349 . S
C2362 C2364 1.327 . S
C2362 H2387 0.950 . S
C2363 C2362 1.349 . S
C2363 C2379 1.349 . S
C2364 C2362 1.327 . S
C2364 C2383 1.429 . S
C2364 H2388 0.950 . S
C2365 C2382 1.574 . S
C2365 C2384 1.368 . S
C2365 H2389 0.949 . S
H2366 C2370 0.949 . S
C2367 C2368 1.349 . S
C2367 C2369 1.327 . S
C2367 H2390 0.950 . S
C2368 C2367 1.349 . S
C2368 C2380 1.349 . S
C2369 C2367 1.327 . S
C2369 C2385 1.429 . S
C2369 H2391 0.950 . S
C2370 H2366 0.949 . S
C2370 C2378 1.574 . S
C2370 C2386 1.368 . S
H2371 C2379 0.950 . S
H2372 C2377 0.950 . S
H2373 C2378 0.949 . S
H2374 C2380 0.950 . S
H2375 C2381 0.950 . S
H2376 C2382 0.949 . S
C2377 H2372 0.950 . S
C2377 C2379 1.327 . S
C2377 C2383 1.429 . S
C2378 C2370 1.574 . S
C2378 H2373 0.949 . S
C2378 C2384 1.368 . S
C2379 C2363 1.349 . S
C2379 H2371 0.950 . S
C2379 C2377 1.327 . S
C2380 C2368 1.349 . S
C2380 H2374 0.950 . S
C2380 C2381 1.327 . S
C2381 H2375 0.950 . S
C2381 C2380 1.327 . S
C2381 C2385 1.429 . S
C2382 C2365 1.574 . S
C2382 H2376 0.949 . S
C2382 C2386 1.368 . S
C2383 C2364 1.429 . S
C2383 C2377 1.429 . S
C2383 C2384 1.523 . S
C2384 C2365 1.368 . S
C2384 C2378 1.368 . S
C2384 C2383 1.523 . S
C2385 C2369 1.429 . S
C2385 C2381 1.429 . S
C2385 C2386 1.523 . S
C2386 C2370 1.368 . S
C2386 C2382 1.368 . S
C2386 C2385 1.523 . S
H2387 C2362 0.950 . S
H2388 C2364 0.950 . S
H2389 C2365 0.949 . S
H2390 C2367 0.950 . S
H2391 C2369 0.950 . S
C2392 C2393 1.349 . S
C2392 C2394 1.327 . S
C2392 H2417 0.950 . S
C2393 C2392 1.349 . S
C2393 C2409 1.349 . S
C2394 C2392 1.327 . S
C2394 C2413 1.429 . S
C2394 H2418 0.950 . S
C2395 C2412 1.574 . S
C2395 C2414 1.368 . S
C2395 H2419 0.949 1_556 S
H2396 C2400 0.949 . S
C2397 C2398 1.349 1_554 S
C2397 C2399 1.327 . S
C2397 H2420 0.950 . S
C2398 C2397 1.349 1_556 S
C2398 C2410 1.349 . S
C2399 C2397 1.327 . S
C2399 C2415 1.429 1_554 S
C2399 H2421 0.950 . S
C2400 H2396 0.949 . S
C2400 C2408 1.574 . S
C2400 C2416 1.368 . S
H2401 C2409 0.950 . S
H2402 C2407 0.950 . S
H2403 C2408 0.949 . S
H2404 C2410 0.950 . S
H2405 C2411 0.950 . S
H2406 C2412 0.949 1_554 S
C2407 H2402 0.950 . S
C2407 C2409 1.327 . S
C2407 C2413 1.429 . S
C2408 C2400 1.574 . S
C2408 H2403 0.949 . S
C2408 C2414 1.368 . S
C2409 C2393 1.349 . S
C2409 H2401 0.950 . S
C2409 C2407 1.327 . S
C2410 C2398 1.349 . S
C2410 H2404 0.950 . S
C2410 C2411 1.327 . S
C2411 H2405 0.950 . S
C2411 C2410 1.327 . S
C2411 C2415 1.429 . S
C2412 C2395 1.574 . S
C2412 H2406 0.949 1_556 S
C2412 C2416 1.368 . S
C2413 C2394 1.429 . S
C2413 C2407 1.429 . S
C2413 C2414 1.523 . S
C2414 C2395 1.368 . S
C2414 C2408 1.368 . S
C2414 C2413 1.523 . S
C2415 C2399 1.429 1_556 S
C2415 C2411 1.429 . S
C2415 C2416 1.523 . S
C2416 C2400 1.368 . S
C2416 C2412 1.368 . S
C2416 C2415 1.523 . S
H2417 C2392 0.950 . S
H2418 C2394 0.950 . S
H2419 C2395 0.949 1_554 S
H2420 C2397 0.950 . S
H2421 C2399 0.950 . S
C2422 C2423 1.349 . S
C2422 C2424 1.327 . S
C2422 H2447 0.950 . S
C2423 C2422 1.349 . S
C2423 C2439 1.349 . S
C2424 C2422 1.327 . S
C2424 C2443 1.429 . S
C2424 H2448 0.950 . S
C2425 C2442 1.574 . S
C2425 C2444 1.368 . S
C2425 H2449 0.949 . S
H2426 C2430 0.949 . S
C2427 C2428 1.349 . S
C2427 C2429 1.327 . S
C2427 H2450 0.950 . S
C2428 C2427 1.349 . S
C2428 C2440 1.349 . S
C2429 C2427 1.327 . S
C2429 C2445 1.429 . S
C2429 H2451 0.950 . S
C2430 H2426 0.949 . S
C2430 C2438 1.574 . S
C2430 C2446 1.368 . S
H2431 C2439 0.950 . S
H2432 C2437 0.950 . S
H2433 C2438 0.949 . S
H2434 C2440 0.950 . S
H2435 C2441 0.950 . S
H2436 C2442 0.949 . S
C2437 H2432 0.950 . S
C2437 C2439 1.327 . S
C2437 C2443 1.429 . S
C2438 C2430 1.574 . S
C2438 H2433 0.949 . S
C2438 C2444 1.368 . S
C2439 C2423 1.349 . S
C2439 H2431 0.950 . S
C2439 C2437 1.327 . S
C2440 C2428 1.349 . S
C2440 H2434 0.950 . S
C2440 C2441 1.327 . S
C2441 H2435 0.950 . S
C2441 C2440 1.327 . S
C2441 C2445 1.429 . S
C2442 C2425 1.574 . S
C2442 H2436 0.949 . S
C2442 C2446 1.368 . S
C2443 C2424 1.429 . S
C2443 C2437 1.429 . S
C2443 C2444 1.523 . S
C2444 C2425 1.368 . S
C2444 C2438 1.368 . S
C2444 C2443 1.523 . S
C2445 C2429 1.429 . S
C2445 C2441 1.429 . S
C2445 C2446 1.523 . S
C2446 C2430 1.368 . S
C2446 C2442 1.368 . S
C2446 C2445 1.523 . S
H2447 C2422 0.950 . S
H2448 C2424 0.950 . S
H2449 C2425 0.949 . S
H2450 C2427 0.950 . S
H2451 C2429 0.950 . S
C2452 C2453 1.349 . S
C2452 C2454 1.327 . S
C2452 H2477 0.950 . S
C2453 C2452 1.349 . S
C2453 C2469 1.349 . S
C2454 C2452 1.327 . S
C2454 C2473 1.429 . S
C2454 H2478 0.950 . S
C2455 C2472 1.584 . S
C2455 C2474 1.368 . S
C2455 H2479 0.949 1_554 S
H2456 C2460 0.949 . S
C2457 C2458 1.349 1_556 S
C2457 C2459 1.327 . S
C2457 H2480 0.950 . S
C2458 C2457 1.349 1_554 S
C2458 C2470 1.349 . S
C2459 C2457 1.327 . S
C2459 C2475 1.429 1_556 S
C2459 H2481 0.950 . S
C2460 H2456 0.949 . S
C2460 C2468 1.574 . S
C2460 C2476 1.368 . S
H2461 C2469 0.950 . S
H2462 C2467 0.987 . S
H2463 C2468 0.949 . S
H2464 C2470 0.950 . S
H2465 C2471 0.950 . S
H2466 C2472 0.911 1_556 S
C2467 H2462 0.987 . S
C2467 C2469 1.327 . S
C2467 C2473 1.429 . S
C2468 C2460 1.574 . S
C2468 H2463 0.949 . S
C2468 C2474 1.368 . S
C2469 C2453 1.349 . S
C2469 H2461 0.950 . S
C2469 C2467 1.327 . S
C2470 C2458 1.349 . S
C2470 H2464 0.950 . S
C2470 C2471 1.327 . S
C2471 H2465 0.950 . S
C2471 C2470 1.327 . S
C2471 C2475 1.429 . S
C2472 C2455 1.584 . S
C2472 H2466 0.911 1_554 S
C2472 C2476 1.403 . S
C2473 C2454 1.429 . S
C2473 C2467 1.429 . S
C2473 C2474 1.523 . S
C2474 C2455 1.368 . S
C2474 C2468 1.368 . S
C2474 C2473 1.523 . S
C2475 C2459 1.429 1_554 S
C2475 C2471 1.429 . S
C2475 C2476 1.523 . S
C2476 C2460 1.368 . S
C2476 C2472 1.403 . S
C2476 C2475 1.523 . S
H2477 C2452 0.950 . S
H2478 C2454 0.950 . S
H2479 C2455 0.949 1_556 S
H2480 C2457 0.950 . S
H2481 C2459 0.950 . S
C2482 C2483 1.349 . S
C2482 C2484 1.327 . S
C2482 H2507 0.950 . S
C2483 C2482 1.349 . S
C2483 C2499 1.349 . S
C2484 C2482 1.327 . S
C2484 C2503 1.429 . S
C2484 H2508 0.950 . S
C2485 C2502 1.574 . S
C2485 C2504 1.368 . S
C2485 H2509 0.949 . S
H2486 C2490 0.949 1_556 S
C2487 C2488 1.349 . S
C2487 C2489 1.327 . S
C2487 H2510 0.950 . S
C2488 C2487 1.349 . S
C2488 C2500 1.349 . S
C2489 C2487 1.327 . S
C2489 C2505 1.429 . S
C2489 H2511 0.950 . S
C2490 H2486 0.949 1_554 S
C2490 C2498 1.574 . S
C2490 C2506 1.368 . S
H2491 C2499 0.950 . S
H2492 C2497 0.950 . S
H2493 C2498 0.980 . S
H2494 C2500 0.950 1_556 S
H2495 C2501 0.950 1_556 S
H2496 C2502 0.949 . S
C2497 H2492 0.950 . S
C2497 C2499 1.327 . S
C2497 C2503 1.429 . S
C2498 C2490 1.574 . S
C2498 H2493 0.980 . S
C2498 C2504 1.368 . S
C2499 C2483 1.349 . S
C2499 H2491 0.950 . S
C2499 C2497 1.327 . S
C2500 C2488 1.349 . S
C2500 H2494 0.950 1_554 S
C2500 C2501 1.327 . S
C2501 H2495 0.950 1_554 S
C2501 C2500 1.327 . S
C2501 C2505 1.429 . S
C2502 C2485 1.574 . S
C2502 H2496 0.949 . S
C2502 C2506 1.368 . S
C2503 C2484 1.429 . S
C2503 C2497 1.429 . S
C2503 C2504 1.523 . S
C2504 C2485 1.368 . S
C2504 C2498 1.368 . S
C2504 C2503 1.523 . S
C2505 C2489 1.429 . S
C2505 C2501 1.429 . S
C2505 C2506 1.523 . S
C2506 C2490 1.368 . S
C2506 C2502 1.368 . S
C2506 C2505 1.523 . S
H2507 C2482 0.950 . S
H2508 C2484 0.950 . S
H2509 C2485 0.949 . S
H2510 C2487 0.950 . S
H2511 C2489 0.950 . S
C1078 C642 1.421 . S
C1073 C202 1.433 . S
C1108 C690 1.688 . S
C1103 C261 1.734 . S
C1133 C282 1.377 . S
C1138 C726 1.357 . S
C1168 C762 1.616 . S
C1163 C162 1.659 . S
C1198 C788 1.444 . S
C1193 C402 1.449 . S
C1228 C824 1.622 . S
C1223 C482 1.621 . S
C1253 C442 1.454 . S
C1258 C859 1.493 . S
C1288 C896 1.649 1_565 S
C1283 C381 1.650 . S
C1313 C461 1.432 . S
C1318 C930 1.455 . S
C1348 C978 1.557 . S
C1343 C362 1.598 . S
C1373 C415 1.390 . S
C1378 C931 1.399 . S
C1408 C968 1.668 . S
C1403 C495 1.671 . S
C1433 C301 1.454 . S
C1438 C1014 1.421 . S
C1463 C175 1.684 . S
C1468 C1003 1.678 . S
C1493 C215 1.447 . S
C1498 C1004 1.444 . S
C1523 C242 1.656 . S
C1528 C1002 1.661 . S
C1553 C141 1.502 . S
C1558 C750 1.480 . S
C1583 C581 1.475 . S
C1588 C751 1.474 . S
C1618 C654 1.586 . S
C1613 C615 1.641 . S
C1648 C679 1.430 . S
C1643 C335 1.423 . S
C1673 C181 1.724 . S
C1678 C786 1.724 . S
C1708 C894 1.437 . S
C1703 C455 1.438 . S
C1738 C787 1.571 . S
C1733 C375 1.577 . S
C1768 C860 1.711 . S
C1763 C501 1.713 . S
C1798 C858 1.420 . S
C1793 C562 1.432 . S
C1823 C621 1.734 . S
C1828 C906 1.689 . S
C1853 C322 1.377 . S
C1858 C798 1.351 . S
C1888 C834 1.616 . S
C1883 C522 1.659 . S
C1913 C122 1.449 . S
C1918 C716 1.439 . S
C1948 C752 1.622 . S
C1943 C2 1.621 . S
C1978 C643 1.493 . S
C1973 C42 1.454 . S
C2008 C680 1.653 . S
C2003 C101 1.650 . S
C2033 C61 1.432 . S
C2038 C966 1.455 . S
C2063 C82 1.598 . S
C2068 C942 1.557 . S
C2093 C135 1.390 . S
C2098 C967 1.399 . S
C2123 C15 1.671 . S
C2128 C932 1.668 . S
C2158 C1050 1.421 . S
C2153 C341 1.454 . S
C2188 C1039 1.678 . S
C2183 C535 1.684 . S
C2218 C1040 1.444 . S
C2213 C575 1.447 . S
C2243 C602 1.656 . S
C2248 C1038 1.661 . S
C2273 C421 1.502 . S
C2278 C822 1.480 . S
C2308 C823 1.474 . S
C2303 C221 1.475 . S
C2338 C870 1.586 . S
C2333 C255 1.641 . S
C2368 C895 1.430 . S
C2363 C295 1.429 . S
C2393 C541 1.724 . S
C2398 C714 1.733 . S
C2428 C678 1.437 . S
C2423 C55 1.444 . S
C2453 C95 1.577 . S
C2458 C715 1.570 . S
C2488 C644 1.711 . S
C2483 C21 1.713 . S
