# Generated by pormake.
# Topology gar, (4,6)-cn, num edge types: 1
# Building blocks:
#     Node 0, Type 0, BuildingBlock: NAHDIM_clean_sbu_0, # of connection points: 4
#     Node 1, Type 0, BuildingBlock: NAHDIM_clean_sbu_0, # of connection points: 4
#     Node 2, Type 0, BuildingBlock: NAHDIM_clean_sbu_0, # of connection points: 4
#     Node 3, Type 0, BuildingBlock: NAHDIM_clean_sbu_0, # of connection points: 4
#     Node 4, Type 0, BuildingBlock: NAHDIM_clean_sbu_0, # of connection points: 4
#     Node 5, Type 0, BuildingBlock: NAHDIM_clean_sbu_0, # of connection points: 4
#     Node 6, Type 0, BuildingBlock: NAHDIM_clean_sbu_0, # of connection points: 4
#     Node 7, Type 0, BuildingBlock: NAHDIM_clean_sbu_0, # of connection points: 4
#     Node 8, Type 0, BuildingBlock: NAHDIM_clean_sbu_0, # of connection points: 4
#     Node 9, Type 0, BuildingBlock: NAHDIM_clean_sbu_0, # of connection points: 4
#     Node 10, Type 0, BuildingBlock: NAHDIM_clean_sbu_0, # of connection points: 4
#     Node 11, Type 0, BuildingBlock: NAHDIM_clean_sbu_0, # of connection points: 4
#     Node 12, Type 0, BuildingBlock: NAHDIM_clean_sbu_0, # of connection points: 4
#     Node 13, Type 0, BuildingBlock: NAHDIM_clean_sbu_0, # of connection points: 4
#     Node 14, Type 0, BuildingBlock: NAHDIM_clean_sbu_0, # of connection points: 4
#     Node 15, Type 0, BuildingBlock: NAHDIM_clean_sbu_0, # of connection points: 4
#     Node 16, Type 0, BuildingBlock: NAHDIM_clean_sbu_0, # of connection points: 4
#     Node 17, Type 0, BuildingBlock: NAHDIM_clean_sbu_0, # of connection points: 4
#     Node 18, Type 0, BuildingBlock: NAHDIM_clean_sbu_0, # of connection points: 4
#     Node 19, Type 0, BuildingBlock: NAHDIM_clean_sbu_0, # of connection points: 4
#     Node 20, Type 0, BuildingBlock: NAHDIM_clean_sbu_0, # of connection points: 4
#     Node 21, Type 0, BuildingBlock: NAHDIM_clean_sbu_0, # of connection points: 4
#     Node 22, Type 0, BuildingBlock: NAHDIM_clean_sbu_0, # of connection points: 4
#     Node 23, Type 0, BuildingBlock: NAHDIM_clean_sbu_0, # of connection points: 4
#     Node 24, Type 1, BuildingBlock: BETDEL_clean_sbu_0, # of connection points: 6
#     Node 25, Type 1, BuildingBlock: BETDEL_clean_sbu_0, # of connection points: 6
#     Node 26, Type 1, BuildingBlock: BETDEL_clean_sbu_0, # of connection points: 6
#     Node 27, Type 1, BuildingBlock: BETDEL_clean_sbu_0, # of connection points: 6
#     Node 28, Type 1, BuildingBlock: BETDEL_clean_sbu_0, # of connection points: 6
#     Node 29, Type 1, BuildingBlock: BETDEL_clean_sbu_0, # of connection points: 6
#     Node 30, Type 1, BuildingBlock: BETDEL_clean_sbu_0, # of connection points: 6
#     Node 31, Type 1, BuildingBlock: BETDEL_clean_sbu_0, # of connection points: 6
#     Node 32, Type 1, BuildingBlock: BETDEL_clean_sbu_0, # of connection points: 6
#     Node 33, Type 1, BuildingBlock: BETDEL_clean_sbu_0, # of connection points: 6
#     Node 34, Type 1, BuildingBlock: BETDEL_clean_sbu_0, # of connection points: 6
#     Node 35, Type 1, BuildingBlock: BETDEL_clean_sbu_0, # of connection points: 6
#     Node 36, Type 1, BuildingBlock: BETDEL_clean_sbu_0, # of connection points: 6
#     Node 37, Type 1, BuildingBlock: BETDEL_clean_sbu_0, # of connection points: 6
#     Node 38, Type 1, BuildingBlock: BETDEL_clean_sbu_0, # of connection points: 6
#     Node 39, Type 1, BuildingBlock: BETDEL_clean_sbu_0, # of connection points: 6
#     Edge 40, Type (0, 1), BuildingBlock: CIFDUS_clean_linker_0, # of connection points: 2
#     Edge 41, Type (0, 1), BuildingBlock: CIFDUS_clean_linker_0, # of connection points: 2
#     Edge 42, Type (0, 1), BuildingBlock: CIFDUS_clean_linker_0, # of connection points: 2
#     Edge 43, Type (0, 1), BuildingBlock: CIFDUS_clean_linker_0, # of connection points: 2
#     Edge 44, Type (0, 1), BuildingBlock: CIFDUS_clean_linker_0, # of connection points: 2
#     Edge 45, Type (0, 1), BuildingBlock: CIFDUS_clean_linker_0, # of connection points: 2
#     Edge 46, Type (0, 1), BuildingBlock: CIFDUS_clean_linker_0, # of connection points: 2
#     Edge 47, Type (0, 1), BuildingBlock: CIFDUS_clean_linker_0, # of connection points: 2
#     Edge 48, Type (0, 1), BuildingBlock: CIFDUS_clean_linker_0, # of connection points: 2
#     Edge 49, Type (0, 1), BuildingBlock: CIFDUS_clean_linker_0, # of connection points: 2
#     Edge 50, Type (0, 1), BuildingBlock: CIFDUS_clean_linker_0, # of connection points: 2
#     Edge 51, Type (0, 1), BuildingBlock: CIFDUS_clean_linker_0, # of connection points: 2
#     Edge 52, Type (0, 1), BuildingBlock: CIFDUS_clean_linker_0, # of connection points: 2
#     Edge 53, Type (0, 1), BuildingBlock: CIFDUS_clean_linker_0, # of connection points: 2
#     Edge 54, Type (0, 1), BuildingBlock: CIFDUS_clean_linker_0, # of connection points: 2
#     Edge 55, Type (0, 1), BuildingBlock: CIFDUS_clean_linker_0, # of connection points: 2
#     Edge 56, Type (0, 1), BuildingBlock: CIFDUS_clean_linker_0, # of connection points: 2
#     Edge 57, Type (0, 1), BuildingBlock: CIFDUS_clean_linker_0, # of connection points: 2
#     Edge 58, Type (0, 1), BuildingBlock: CIFDUS_clean_linker_0, # of connection points: 2
#     Edge 59, Type (0, 1), BuildingBlock: CIFDUS_clean_linker_0, # of connection points: 2
#     Edge 60, Type (0, 1), BuildingBlock: CIFDUS_clean_linker_0, # of connection points: 2
#     Edge 61, Type (0, 1), BuildingBlock: CIFDUS_clean_linker_0, # of connection points: 2
#     Edge 62, Type (0, 1), BuildingBlock: CIFDUS_clean_linker_0, # of connection points: 2
#     Edge 63, Type (0, 1), BuildingBlock: CIFDUS_clean_linker_0, # of connection points: 2
#     Edge 64, Type (0, 1), BuildingBlock: CIFDUS_clean_linker_0, # of connection points: 2
#     Edge 65, Type (0, 1), BuildingBlock: CIFDUS_clean_linker_0, # of connection points: 2
#     Edge 66, Type (0, 1), BuildingBlock: CIFDUS_clean_linker_0, # of connection points: 2
#     Edge 67, Type (0, 1), BuildingBlock: CIFDUS_clean_linker_0, # of connection points: 2
#     Edge 68, Type (0, 1), BuildingBlock: CIFDUS_clean_linker_0, # of connection points: 2
#     Edge 69, Type (0, 1), BuildingBlock: CIFDUS_clean_linker_0, # of connection points: 2
#     Edge 70, Type (0, 1), BuildingBlock: CIFDUS_clean_linker_0, # of connection points: 2
#     Edge 71, Type (0, 1), BuildingBlock: CIFDUS_clean_linker_0, # of connection points: 2
#     Edge 72, Type (0, 1), BuildingBlock: CIFDUS_clean_linker_0, # of connection points: 2
#     Edge 73, Type (0, 1), BuildingBlock: CIFDUS_clean_linker_0, # of connection points: 2
#     Edge 74, Type (0, 1), BuildingBlock: CIFDUS_clean_linker_0, # of connection points: 2
#     Edge 75, Type (0, 1), BuildingBlock: CIFDUS_clean_linker_0, # of connection points: 2
#     Edge 76, Type (0, 1), BuildingBlock: CIFDUS_clean_linker_0, # of connection points: 2
#     Edge 77, Type (0, 1), BuildingBlock: CIFDUS_clean_linker_0, # of connection points: 2
#     Edge 78, Type (0, 1), BuildingBlock: CIFDUS_clean_linker_0, # of connection points: 2
#     Edge 79, Type (0, 1), BuildingBlock: CIFDUS_clean_linker_0, # of connection points: 2
#     Edge 80, Type (0, 1), BuildingBlock: CIFDUS_clean_linker_0, # of connection points: 2
#     Edge 81, Type (0, 1), BuildingBlock: CIFDUS_clean_linker_0, # of connection points: 2
#     Edge 82, Type (0, 1), BuildingBlock: CIFDUS_clean_linker_0, # of connection points: 2
#     Edge 83, Type (0, 1), BuildingBlock: CIFDUS_clean_linker_0, # of connection points: 2
#     Edge 84, Type (0, 1), BuildingBlock: CIFDUS_clean_linker_0, # of connection points: 2
#     Edge 85, Type (0, 1), BuildingBlock: CIFDUS_clean_linker_0, # of connection points: 2
#     Edge 86, Type (0, 1), BuildingBlock: CIFDUS_clean_linker_0, # of connection points: 2
#     Edge 87, Type (0, 1), BuildingBlock: CIFDUS_clean_linker_0, # of connection points: 2
#     Edge 88, Type (0, 1), BuildingBlock: CIFDUS_clean_linker_0, # of connection points: 2
#     Edge 89, Type (0, 1), BuildingBlock: CIFDUS_clean_linker_0, # of connection points: 2
#     Edge 90, Type (0, 1), BuildingBlock: CIFDUS_clean_linker_0, # of connection points: 2
#     Edge 91, Type (0, 1), BuildingBlock: CIFDUS_clean_linker_0, # of connection points: 2
#     Edge 92, Type (0, 1), BuildingBlock: CIFDUS_clean_linker_0, # of connection points: 2
#     Edge 93, Type (0, 1), BuildingBlock: CIFDUS_clean_linker_0, # of connection points: 2
#     Edge 94, Type (0, 1), BuildingBlock: CIFDUS_clean_linker_0, # of connection points: 2
#     Edge 95, Type (0, 1), BuildingBlock: CIFDUS_clean_linker_0, # of connection points: 2
#     Edge 96, Type (0, 1), BuildingBlock: CIFDUS_clean_linker_0, # of connection points: 2
#     Edge 97, Type (0, 1), BuildingBlock: CIFDUS_clean_linker_0, # of connection points: 2
#     Edge 98, Type (0, 1), BuildingBlock: CIFDUS_clean_linker_0, # of connection points: 2
#     Edge 99, Type (0, 1), BuildingBlock: CIFDUS_clean_linker_0, # of connection points: 2
#     Edge 100, Type (0, 1), BuildingBlock: CIFDUS_clean_linker_0, # of connection points: 2
#     Edge 101, Type (0, 1), BuildingBlock: CIFDUS_clean_linker_0, # of connection points: 2
#     Edge 102, Type (0, 1), BuildingBlock: CIFDUS_clean_linker_0, # of connection points: 2
#     Edge 103, Type (0, 1), BuildingBlock: CIFDUS_clean_linker_0, # of connection points: 2
#     Edge 104, Type (0, 1), BuildingBlock: CIFDUS_clean_linker_0, # of connection points: 2
#     Edge 105, Type (0, 1), BuildingBlock: CIFDUS_clean_linker_0, # of connection points: 2
#     Edge 106, Type (0, 1), BuildingBlock: CIFDUS_clean_linker_0, # of connection points: 2
#     Edge 107, Type (0, 1), BuildingBlock: CIFDUS_clean_linker_0, # of connection points: 2
#     Edge 108, Type (0, 1), BuildingBlock: CIFDUS_clean_linker_0, # of connection points: 2
#     Edge 109, Type (0, 1), BuildingBlock: CIFDUS_clean_linker_0, # of connection points: 2
#     Edge 110, Type (0, 1), BuildingBlock: CIFDUS_clean_linker_0, # of connection points: 2
#     Edge 111, Type (0, 1), BuildingBlock: CIFDUS_clean_linker_0, # of connection points: 2
#     Edge 112, Type (0, 1), BuildingBlock: CIFDUS_clean_linker_0, # of connection points: 2
#     Edge 113, Type (0, 1), BuildingBlock: CIFDUS_clean_linker_0, # of connection points: 2
#     Edge 114, Type (0, 1), BuildingBlock: CIFDUS_clean_linker_0, # of connection points: 2
#     Edge 115, Type (0, 1), BuildingBlock: CIFDUS_clean_linker_0, # of connection points: 2
#     Edge 116, Type (0, 1), BuildingBlock: CIFDUS_clean_linker_0, # of connection points: 2
#     Edge 117, Type (0, 1), BuildingBlock: CIFDUS_clean_linker_0, # of connection points: 2
#     Edge 118, Type (0, 1), BuildingBlock: CIFDUS_clean_linker_0, # of connection points: 2
#     Edge 119, Type (0, 1), BuildingBlock: CIFDUS_clean_linker_0, # of connection points: 2
#     Edge 120, Type (0, 1), BuildingBlock: CIFDUS_clean_linker_0, # of connection points: 2
#     Edge 121, Type (0, 1), BuildingBlock: CIFDUS_clean_linker_0, # of connection points: 2
#     Edge 122, Type (0, 1), BuildingBlock: CIFDUS_clean_linker_0, # of connection points: 2
#     Edge 123, Type (0, 1), BuildingBlock: CIFDUS_clean_linker_0, # of connection points: 2
#     Edge 124, Type (0, 1), BuildingBlock: CIFDUS_clean_linker_0, # of connection points: 2
#     Edge 125, Type (0, 1), BuildingBlock: CIFDUS_clean_linker_0, # of connection points: 2
#     Edge 126, Type (0, 1), BuildingBlock: CIFDUS_clean_linker_0, # of connection points: 2
#     Edge 127, Type (0, 1), BuildingBlock: CIFDUS_clean_linker_0, # of connection points: 2
#     Edge 128, Type (0, 1), BuildingBlock: CIFDUS_clean_linker_0, # of connection points: 2
#     Edge 129, Type (0, 1), BuildingBlock: CIFDUS_clean_linker_0, # of connection points: 2
#     Edge 130, Type (0, 1), BuildingBlock: CIFDUS_clean_linker_0, # of connection points: 2
#     Edge 131, Type (0, 1), BuildingBlock: CIFDUS_clean_linker_0, # of connection points: 2
#     Edge 132, Type (0, 1), BuildingBlock: CIFDUS_clean_linker_0, # of connection points: 2
#     Edge 133, Type (0, 1), BuildingBlock: CIFDUS_clean_linker_0, # of connection points: 2
#     Edge 134, Type (0, 1), BuildingBlock: CIFDUS_clean_linker_0, # of connection points: 2
#     Edge 135, Type (0, 1), BuildingBlock: CIFDUS_clean_linker_0, # of connection points: 2
# Relax obj value: 0.159
# Max RMSD: 0.272
# Mean RMSD: 0.174
data_MOF--net-gar--node1-NAHDIM_clean_sbu_0--node2-BETDEL_clean_sbu_0--edge1-CIFDUS_clean_linker_0
_symmetry_space_group_name_H-M    P1
_symmetry_Int_Tables_number       1
_symmetry_cell_setting            triclinic
loop_
_symmetry_equiv_pos_as_xyz
'x, y, z'
_cell_length_a     50.281593
_cell_length_b     46.626863
_cell_length_c     46.875391
_cell_angle_alpha  95.555792
_cell_angle_beta   92.736462
_cell_angle_gamma 101.36042
loop_
_atom_site_label
_atom_site_type_symbol
_atom_site_fract_x
_atom_site_fract_y
_atom_site_fract_z
_atom_type_partial_charge
C0 C 0.06594 0.24709 0.35915 0.0
O1 O 0.04614 0.22447 0.36116 0.0
O2 O 0.02898 0.23807 0.42297 0.0
Zn3 Zn 0.03489 0.2729 0.39957 0.0
O4 O 0.04114 0.31202 0.42515 0.0
C5 C 0.97824 0.25815 0.37723 0.0
O6 O 0.97483 0.24402 0.40014 0.0
O7 O 0.06625 0.27113 0.37463 0.0
C8 C 0.02041 0.32329 0.42957 0.0
O9 O 0.99634 0.30864 0.41932 0.0
C10 C 0.04414 0.23656 0.44506 0.0
O11 O 0.06433 0.2587 0.45366 0.0
O12 O 0.00204 0.27095 0.37228 0.0
C13 C 0.95769 0.78629 0.67652 0.0
O14 O 0.97818 0.80848 0.68381 0.0
O15 O 0.98852 0.73176 0.60763 0.0
Zn16 Zn 0.99229 0.76992 0.63228 0.0
O17 O 0.99719 0.80427 0.60806 0.0
C18 C 0.04555 0.7629 0.64655 0.0
O19 O 0.04386 0.75674 0.61848 0.0
O20 O 0.95927 0.76782 0.65521 0.0
C21 C 0.01567 0.8269 0.61585 0.0
O22 O 0.03079 0.82755 0.63963 0.0
C23 C 0.97423 0.72158 0.58452 0.0
O24 O 0.95811 0.73713 0.57326 0.0
O25 O 0.02568 0.7711 0.65847 0.0
C26 C 0.57389 0.78421 0.85698 0.0
O27 O 0.56498 0.80861 0.8548 0.0
O28 O 0.51955 0.732 0.91523 0.0
Zn29 Zn 0.52928 0.76927 0.89586 0.0
O30 O 0.53832 0.80535 0.92544 0.0
C31 C 0.47434 0.7718 0.88582 0.0
O32 O 0.47612 0.76755 0.9131 0.0
O33 O 0.56169 0.76534 0.87232 0.0
C34 C 0.53346 0.829 0.91691 0.0
O35 O 0.52486 0.82873 0.88997 0.0
C36 C 0.52861 0.72841 0.94015 0.0
O37 O 0.5454 0.7503 0.95536 0.0
O38 O 0.49549 0.77284 0.87173 0.0
C39 C 0.4453 0.25372 0.17356 0.0
O40 O 0.44924 0.22687 0.1672 0.0
O41 O 0.48348 0.22907 0.11716 0.0
Zn42 Zn 0.49083 0.27019 0.13745 0.0
O43 O 0.49146 0.30067 0.10882 0.0
C44 C 0.54532 0.26265 0.14614 0.0
O45 O 0.5406 0.25367 0.11859 0.0
O46 O 0.46096 0.27508 0.16408 0.0
C47 C 0.51248 0.31648 0.1001 0.0
O48 O 0.53665 0.31363 0.10978 0.0
C49 C 0.48195 0.22342 0.09003 0.0
O50 O 0.48175 0.2449 0.07389 0.0
O51 O 0.5272 0.27302 0.15951 0.0
C52 C 0.9884 0.80147 0.18201 0.0
O53 O 0.99991 0.82879 0.1791 0.0
O54 O 0.02946 0.75447 0.11575 0.0
Zn55 Zn 0.02765 0.7905 0.14262 0.0
O56 O 0.01955 0.82295 0.12037 0.0
C57 C 0.07572 0.78223 0.17097 0.0
O58 O 0.06433 0.75508 0.16097 0.0
O59 O 0.99731 0.78063 0.16866 0.0
C60 C 0.03289 0.83228 0.09965 0.0
O61 O 0.05357 0.8206 0.09201 0.0
C62 C 0.01167 0.74286 0.09567 0.0
O63 O 0.99073 0.75516 0.09097 0.0
O64 O 0.06343 0.80289 0.16644 0.0
C65 C 0.54858 0.76059 0.35998 0.0
O66 O 0.54807 0.77869 0.38314 0.0
O67 O 0.4877 0.71338 0.39724 0.0
Zn68 Zn 0.49145 0.74345 0.36849 0.0
O69 O 0.49041 0.78409 0.3878 0.0
C70 C 0.4381 0.74006 0.34554 0.0
O71 O 0.43666 0.75128 0.37211 0.0
O72 O 0.52662 0.74386 0.34921 0.0
C73 C 0.4873 0.78995 0.41436 0.0
O74 O 0.4857 0.76907 0.43146 0.0
C75 C 0.50702 0.71351 0.41584 0.0
O76 O 0.52935 0.7337 0.41647 0.0
O77 O 0.46016 0.733 0.33829 0.0
C78 C 0.48334 0.29403 0.64615 0.0
O79 O 0.48543 0.30325 0.62059 0.0
O80 O 0.53123 0.24317 0.60952 0.0
Zn81 Zn 0.53579 0.28242 0.6338 0.0
O82 O 0.53904 0.31527 0.60818 0.0
C83 C 0.58951 0.2769 0.65144 0.0
O84 O 0.58726 0.2636 0.62515 0.0
O85 O 0.50264 0.28354 0.65687 0.0
C86 C 0.56087 0.33162 0.60197 0.0
O87 O 0.58437 0.32716 0.61203 0.0
C88 C 0.51223 0.23371 0.59002 0.0
O89 O 0.49413 0.24981 0.58519 0.0
O90 O 0.56973 0.28765 0.66054 0.0
C91 C 0.0482 0.27115 0.8528 0.0
O92 O 0.05076 0.28949 0.87635 0.0
O93 O 0.99438 0.22572 0.89698 0.0
Zn94 Zn 0.9934 0.2564 0.8696 0.0
O95 O 0.99787 0.29642 0.89255 0.0
C96 C 0.93791 0.25819 0.85296 0.0
O97 O 0.93903 0.27026 0.87963 0.0
O98 O 0.02507 0.25505 0.84492 0.0
C99 C 0.99222 0.31815 0.88078 0.0
O100 O 0.98432 0.31457 0.85332 0.0
C101 C 0.97535 0.2143 0.91178 0.0
O102 O 0.95165 0.22198 0.90947 0.0
O103 O 0.95848 0.24889 0.84398 0.0
C104 C 0.3395 0.06679 0.25787 0.0
O105 O 0.34242 0.04949 0.23491 0.0
O106 O 0.40942 0.0651 0.23858 0.0
Zn107 Zn 0.38981 0.05331 0.2729 0.0
O108 O 0.4162 0.0621 0.3074 0.0
C109 C 0.36952 0.99498 0.2427 0.0
O110 O 0.37712 0.00762 0.21974 0.0
O111 O 0.35839 0.07312 0.27781 0.0
C112 C 0.40987 0.04779 0.32857 0.0
O113 O 0.38586 0.03024 0.32752 0.0
C114 C 0.43133 0.05602 0.23489 0.0
O115 O 0.44007 0.04058 0.25401 0.0
O116 O 0.3739 0.00994 0.2672 0.0
C117 C 0.30294 0.1068 0.46958 0.0
O118 O 0.29785 0.11899 0.44634 0.0
O119 O 0.27009 0.16396 0.53212 0.0
Zn120 Zn 0.26304 0.13917 0.49323 0.0
O121 O 0.26941 0.16645 0.46124 0.0
C122 C 0.21356 0.10575 0.51286 0.0
O123 O 0.22848 0.1105 0.53727 0.0
O124 O 0.29016 0.11172 0.49176 0.0
C125 C 0.25415 0.16234 0.43812 0.0
O126 O 0.23331 0.14005 0.43477 0.0
C127 C 0.25246 0.17621 0.54431 0.0
O128 O 0.22853 0.17421 0.53086 0.0
O129 O 0.224 0.11516 0.49043 0.0
C130 C 0.18441 0.96457 0.76626 0.0
O131 O 0.17412 0.96958 0.74138 0.0
O132 O 0.13704 0.00743 0.74764 0.0
Zn133 Zn 0.15529 0.01009 0.78792 0.0
O134 O 0.12795 0.00506 0.81935 0.0
C135 C 0.16948 0.07225 0.78436 0.0
O136 O 0.14529 0.06627 0.77074 0.0
O137 O 0.17935 0.97924 0.78906 0.0
C138 C 0.10929 0.01993 0.82174 0.0
O139 O 0.10712 0.03911 0.80349 0.0
C140 C 0.11186 0.0021 0.73967 0.0
O141 O 0.09372 0.99472 0.75829 0.0
O142 O 0.17881 0.05147 0.79437 0.0
C143 C 0.22385 0.95592 0.01139 0.0
O144 O 0.23847 0.95698 0.03558 0.0
O145 O 0.25628 0.88969 0.02176 0.0
Zn146 Zn 0.25696 0.91551 0.98982 0.0
O147 O 0.25516 0.891 0.95241 0.0
C148 C 0.30536 0.95667 0.01456 0.0
O149 O 0.29435 0.9534 0.03919 0.0
O150 O 0.22756 0.93885 0.9898 0.0
C151 C 0.24708 0.86328 0.9481 0.0
O152 O 0.23699 0.84867 0.96904 0.0
C153 C 0.27652 0.87737 0.02476 0.0
O154 O 0.2964 0.88262 0.00758 0.0
O155 O 0.29278 0.94304 0.99161 0.0
C156 C 0.23485 0.43862 0.00993 0.0
O157 O 0.24765 0.43288 0.98693 0.0
O158 O 0.27088 0.38215 0.06785 0.0
Zn159 Zn 0.27172 0.40525 0.0329 0.0
O160 O 0.26656 0.37733 0.99585 0.0
C161 C 0.31926 0.44979 0.05525 0.0
O162 O 0.30517 0.45145 0.07804 0.0
O163 O 0.24175 0.42928 0.03327 0.0
C164 C 0.28668 0.37228 0.98204 0.0
O165 O 0.31145 0.38436 0.99263 0.0
C166 C 0.24974 0.36462 0.07422 0.0
O167 O 0.22724 0.36111 0.05767 0.0
O168 O 0.30881 0.4322 0.0334 0.0
C169 C 0.8366 0.13172 0.99298 0.0
O170 O 0.8418 0.15776 0.98361 0.0
O171 O 0.78921 0.16797 0.05133 0.0
Zn172 Zn 0.7867 0.14887 0.01083 0.0
O173 O 0.7888 0.17907 0.9829 0.0
C174 C 0.73038 0.13027 0.01604 0.0
O175 O 0.73514 0.15472 0.03358 0.0
O176 O 0.81498 0.12393 0.00564 0.0
C177 C 0.78917 0.16993 0.95658 0.0
O178 O 0.78909 0.142 0.94919 0.0
C179 C 0.79597 0.19545 0.05899 0.0
O180 O 0.80436 0.21348 0.03993 0.0
O181 O 0.74986 0.12252 0.00311 0.0
C182 C 0.17979 0.47405 0.26226 0.0
O183 O 0.17616 0.49352 0.28311 0.0
O184 O 0.10936 0.48256 0.20302 0.0
Zn185 Zn 0.13629 0.49476 0.23743 0.0
O186 O 0.11634 0.49191 0.27377 0.0
C187 C 0.14344 0.55729 0.23471 0.0
O188 O 0.117 0.55215 0.23682 0.0
O189 O 0.16454 0.47002 0.23917 0.0
C190 C 0.12031 0.51256 0.2942 0.0
O191 O 0.13867 0.53649 0.29244 0.0
C192 C 0.08443 0.48329 0.20582 0.0
O193 O 0.07652 0.48991 0.2315 0.0
O194 O 0.15591 0.53611 0.23457 0.0
C195 C 0.70751 0.90922 0.52314 0.0
O196 O 0.7031 0.88153 0.51237 0.0
O197 O 0.76041 0.87411 0.56876 0.0
Zn198 Zn 0.76172 0.89759 0.53313 0.0
O199 O 0.75871 0.87205 0.4943 0.0
C200 C 0.81833 0.91136 0.52646 0.0
O201 O 0.81229 0.88266 0.52 0.0
O202 O 0.73139 0.9218 0.53328 0.0
C203 C 0.74538 0.84613 0.48627 0.0
O204 O 0.73045 0.83158 0.50448 0.0
C205 C 0.73889 0.85833 0.57673 0.0
O206 O 0.71595 0.85574 0.56122 0.0
O207 O 0.79944 0.92443 0.53429 0.0
C208 C 0.86257 0.0832 0.24666 0.0
O209 O 0.88706 0.08693 0.25933 0.0
O210 O 0.8979 0.02856 0.19078 0.0
Zn211 Zn 0.87766 0.029 0.22732 0.0
O212 O 0.90363 0.0355 0.26277 0.0
C213 C 0.83834 0.97121 0.21353 0.0
O214 O 0.83151 0.97921 0.18854 0.0
O215 O 0.8535 0.05968 0.23006 0.0
C216 C 0.91457 0.01469 0.27014 0.0
O217 O 0.91148 0.99034 0.25261 0.0
C218 C 0.91687 0.04953 0.18576 0.0
O219 O 0.92345 0.07293 0.20464 0.0
O220 O 0.8557 0.98874 0.23081 0.0
C221 C 0.31946 0.60034 0.49946 0.0
O222 O 0.30099 0.59041 0.47817 0.0
O223 O 0.28934 0.67351 0.54713 0.0
Zn224 Zn 0.28774 0.64527 0.51199 0.0
O225 O 0.28869 0.66834 0.47823 0.0
C226 C 0.24074 0.60914 0.53166 0.0
O227 O 0.25299 0.61951 0.55701 0.0
O228 O 0.31812 0.6236 0.51538 0.0
C229 C 0.26996 0.683 0.47649 0.0
O230 O 0.25202 0.68144 0.49607 0.0
C231 C 0.30379 0.69939 0.55069 0.0
O232 O 0.31976 0.7087 0.5307 0.0
O233 O 0.25218 0.61667 0.50921 0.0
C234 C 0.36532 0.58611 0.75591 0.0
O235 O 0.38853 0.5874 0.77056 0.0
O236 O 0.40568 0.53782 0.70436 0.0
Zn237 Zn 0.3785 0.53149 0.73492 0.0
O238 O 0.39676 0.53061 0.77423 0.0
C239 C 0.36754 0.46994 0.72176 0.0
O240 O 0.39401 0.47625 0.72018 0.0
O241 O 0.35607 0.56362 0.73798 0.0
C242 C 0.41831 0.52117 0.77967 0.0
O243 O 0.43214 0.51285 0.75841 0.0
C244 C 0.42597 0.55919 0.70588 0.0
O245 O 0.42999 0.57894 0.72844 0.0
O246 O 0.35485 0.49087 0.72601 0.0
C247 C 0.68105 0.98405 0.75212 0.0
O248 O 0.67884 0.00631 0.77068 0.0
O249 O 0.61005 0.98472 0.69291 0.0
Zn250 Zn 0.63539 0.99952 0.72709 0.0
O251 O 0.61438 0.0019 0.76181 0.0
C252 C 0.66053 0.04774 0.69698 0.0
O253 O 0.64865 0.03104 0.67392 0.0
O254 O 0.66312 0.97533 0.73147 0.0
C255 C 0.59807 0.0195 0.76342 0.0
O256 O 0.59589 0.03583 0.74243 0.0
C257 C 0.58647 0.96867 0.69254 0.0
O258 O 0.57777 0.95825 0.71622 0.0
O259 O 0.65656 0.03921 0.72164 0.0
C260 C 0.81876 0.61908 0.97428 0.0
O261 O 0.81233 0.63027 0.95086 0.0
O262 O 0.77237 0.66736 0.03443 0.0
Zn263 Zn 0.77207 0.64209 0.99631 0.0
O264 O 0.76985 0.66593 0.96176 0.0
C265 C 0.71555 0.62107 0.99883 0.0
O266 O 0.71709 0.64968 0.00137 0.0
O267 O 0.80475 0.62159 0.996 0.0
C268 C 0.78736 0.68846 0.95704 0.0
O269 O 0.8087 0.69769 0.97528 0.0
C270 C 0.79344 0.68179 0.04927 0.0
O271 O 0.81744 0.68202 0.03927 0.0
O272 O 0.73722 0.6113 0.99532 0.0
C273 C 0.85515 0.57957 0.77867 0.0
O274 O 0.85173 0.56077 0.75542 0.0
O275 O 0.91601 0.54905 0.75699 0.0
Zn276 Zn 0.89657 0.54842 0.79323 0.0
O277 O 0.92475 0.5535 0.82568 0.0
C278 C 0.86208 0.49385 0.77033 0.0
O279 O 0.86648 0.50517 0.74597 0.0
O280 O 0.87391 0.57904 0.79762 0.0
C281 C 0.93704 0.53218 0.8256 0.0
O282 O 0.93061 0.51037 0.80494 0.0
C283 C 0.92993 0.5721 0.74861 0.0
O284 O 0.93068 0.59776 0.76327 0.0
O285 O 0.87264 0.50866 0.79367 0.0
C286 C 0.73302 0.46621 0.50794 0.0
O287 O 0.74512 0.45995 0.53131 0.0
O288 O 0.75167 0.39624 0.51232 0.0
Zn289 Zn 0.76072 0.4237 0.48223 0.0
O290 O 0.75583 0.39898 0.44405 0.0
C291 C 0.81095 0.45056 0.51482 0.0
O292 O 0.79685 0.44335 0.53683 0.0
O293 O 0.73653 0.45308 0.48378 0.0
C294 C 0.77636 0.39238 0.4322 0.0
O295 O 0.80083 0.40356 0.44417 0.0
C296 C 0.76444 0.37538 0.51341 0.0
O297 O 0.78279 0.3726 0.49487 0.0
O298 O 0.7995 0.44484 0.48962 0.0
C299 C 0.67258 0.45272 0.27173 0.0
O300 O 0.6477 0.4515 0.26105 0.0
O301 O 0.64154 0.51024 0.25742 0.0
Zn302 Zn 0.66297 0.50811 0.29456 0.0
O303 O 0.63692 0.49947 0.32608 0.0
C304 C 0.67383 0.56927 0.29966 0.0
O305 O 0.64723 0.56218 0.29538 0.0
O306 O 0.68444 0.47561 0.28795 0.0
C307 C 0.63945 0.51535 0.35007 0.0
O308 O 0.66026 0.53754 0.35535 0.0
C309 C 0.61574 0.5042 0.25456 0.0
O310 O 0.60195 0.49448 0.27598 0.0
O311 O 0.68695 0.54885 0.30245 0.0
Dy312 Dy 0.99215 0.02207 0.00163 0.0
C313 C 0.10765 0.04734 0.02457 0.0
C314 C 0.93794 0.02202 0.99519 0.0
Dy315 Dy 0.05294 0.04447 0.01985 0.0
O316 O 0.95456 0.02377 0.9748 0.0
O317 O 0.95073 0.01842 0.01891 0.0
O318 O 0.00204 0.99382 0.96342 0.0
O319 O 0.02899 0.03316 0.97929 0.0
C320 C 0.02617 0.00999 0.96222 0.0
C321 C 0.01884 0.05615 0.05945 0.0
O322 O 0.04593 0.08355 0.99907 0.0
O323 O 0.99909 0.07121 0.00076 0.0
O324 O 0.09247 0.04883 0.04611 0.0
O325 O 0.09303 0.04566 0.00068 0.0
O326 O 0.04223 0.07334 0.05699 0.0
O327 O 0.0162 0.03295 0.04241 0.0
O328 O 0.99904 0.98183 0.02043 0.0
O329 O 0.04622 0.9954 0.02119 0.0
C330 C 0.0215 0.08997 0.99597 0.0
C331 C 0.02363 0.97583 0.02378 0.0
Dy332 Dy 0.2708 0.77059 0.21228 0.0
C333 C 0.27349 0.75898 0.33215 0.0
C334 C 0.26306 0.78299 0.15735 0.0
Dy335 Dy 0.2628 0.77296 0.27855 0.0
O336 O 0.28551 0.77732 0.1683 0.0
O337 O 0.24488 0.78107 0.17618 0.0
O338 O 0.30876 0.75202 0.2194 0.0
O339 O 0.29633 0.78036 0.25134 0.0
C340 C 0.31306 0.76418 0.24593 0.0
C341 C 0.22058 0.78044 0.24576 0.0
O342 O 0.28295 0.81981 0.27719 0.0
O343 O 0.27869 0.81924 0.22734 0.0
O344 O 0.25444 0.77302 0.32546 0.0
O345 O 0.28627 0.75282 0.30975 0.0
O346 O 0.22485 0.79136 0.27272 0.0
O347 O 0.23706 0.76405 0.23966 0.0
O348 O 0.25203 0.7232 0.21295 0.0
O349 O 0.24999 0.72454 0.26286 0.0
C350 C 0.28482 0.83347 0.25357 0.0
C351 C 0.24665 0.71018 0.23655 0.0
Dy352 Dy 0.53631 0.01092 0.5035 0.0
C353 C 0.42253 0.02173 0.50197 0.0
C354 C 0.58646 0.99676 0.51141 0.0
Dy355 Dy 0.47299 0.00901 0.51038 0.0
O356 O 0.58143 0.01748 0.49643 0.0
O357 O 0.56429 0.98437 0.52208 0.0
O358 O 0.53185 0.02674 0.45931 0.0
O359 O 0.4992 0.00083 0.47664 0.0
C360 C 0.50586 0.0156 0.45637 0.0
C361 C 0.50255 0.0015 0.55665 0.0
O362 O 0.47089 0.96202 0.49314 0.0
O363 O 0.5173 0.9625 0.50144 0.0
O364 O 0.43084 0.01049 0.52432 0.0
O365 O 0.44156 0.02525 0.48408 0.0
O366 O 0.47652 0.99054 0.55294 0.0
O367 O 0.50996 0.01786 0.53757 0.0
O368 O 0.53814 0.05701 0.52365 0.0
O369 O 0.49219 0.05756 0.51465 0.0
C370 C 0.49168 0.94838 0.49519 0.0
C371 C 0.51772 0.07131 0.52234 0.0
Dy372 Dy 0.24207 0.27335 0.76759 0.0
C373 C 0.35619 0.2852 0.74279 0.0
C374 C 0.1929 0.27674 0.78814 0.0
Dy375 Dy 0.30499 0.27208 0.76106 0.0
O376 O 0.21398 0.29806 0.78993 0.0
O377 O 0.1984 0.25301 0.77462 0.0
O378 O 0.24525 0.30746 0.73674 0.0
O379 O 0.27955 0.30511 0.763 0.0
C380 C 0.27112 0.31747 0.74258 0.0
C381 C 0.27741 0.22057 0.77609 0.0
O382 O 0.30691 0.29659 0.80493 0.0
O383 O 0.261 0.28177 0.81283 0.0
O384 O 0.35025 0.27493 0.76709 0.0
O385 O 0.33426 0.28881 0.72897 0.0
O386 O 0.30334 0.22541 0.77245 0.0
O387 O 0.26906 0.24348 0.77174 0.0
O388 O 0.23859 0.24526 0.72562 0.0
O389 O 0.28471 0.25682 0.71683 0.0
C390 C 0.28641 0.29438 0.82206 0.0
C391 C 0.25889 0.24494 0.70846 0.0
Dy392 Dy 0.00414 0.00513 0.47807 0.0
C393 C 0.04523 0.03934 0.59344 0.0
C394 C 0.97787 0.99439 0.4245 0.0
Dy395 Dy 0.02075 0.02986 0.53894 0.0
O396 O 0.99769 0.98229 0.43276 0.0
O397 O 0.9719 0.0114 0.44574 0.0
O398 O 0.04633 0.99926 0.46966 0.0
O399 O 0.04117 0.03408 0.49904 0.0
C400 C 0.05843 0.02042 0.48872 0.0
C401 C 0.96636 0.01406 0.52706 0.0
O402 O 0.02533 0.07295 0.52058 0.0
O403 O 0.999 0.05227 0.47911 0.0
O404 O 0.02124 0.0439 0.58639 0.0
O405 O 0.0563 0.03096 0.57048 0.0
O406 O 0.97807 0.03658 0.54486 0.0
O407 O 0.98407 0.00045 0.51792 0.0
O408 O 0.99899 0.96248 0.49781 0.0
O409 O 0.02706 0.98339 0.53783 0.0
C410 C 0.01149 0.07567 0.49654 0.0
C411 C 0.01377 0.95985 0.52127 0.0
Dy412 Dy 0.29525 0.78448 0.76407 0.0
C413 C 0.18599 0.73765 0.71476 0.0
C414 C 0.3441 0.79826 0.79563 0.0
Dy415 Dy 0.23593 0.75238 0.7439 0.0
O416 O 0.34007 0.80478 0.76961 0.0
O417 O 0.32119 0.78549 0.80471 0.0
O418 O 0.30385 0.79274 0.7183 0.0
O419 O 0.2755 0.75606 0.72698 0.0
C420 C 0.2852 0.77041 0.70729 0.0
C421 C 0.24672 0.76471 0.80055 0.0
O422 O 0.25399 0.71215 0.74411 0.0
O423 O 0.29453 0.73651 0.76929 0.0
O424 O 0.19023 0.7436 0.74242 0.0
O425 O 0.20903 0.7387 0.70312 0.0
O426 O 0.22918 0.74162 0.78903 0.0
O427 O 0.25565 0.7805 0.78142 0.0
O428 O 0.27564 0.82384 0.76513 0.0
O429 O 0.23844 0.79959 0.7347 0.0
C430 C 0.27768 0.71189 0.75788 0.0
C431 C 0.25364 0.82411 0.74837 0.0
Dy432 Dy 0.51535 0.03217 0.03347 0.0
C433 C 0.53319 0.01906 0.91431 0.0
C434 C 0.50338 0.04025 0.08926 0.0
Dy435 Dy 0.51943 0.03342 0.96838 0.0
O436 O 0.52048 0.02461 0.07991 0.0
O437 O 0.49279 0.05127 0.06818 0.0
O438 O 0.5305 0.98893 0.02982 0.0
O439 O 0.50745 0.99988 0.99619 0.0
C440 C 0.52079 0.98152 0.00341 0.0
C441 C 0.50854 0.08233 0.99445 0.0
O442 O 0.47483 0.0142 0.96919 0.0
O443 O 0.47193 0.02725 0.01792 0.0
O444 O 0.53772 0.00554 0.93639 0.0
O445 O 0.52096 0.04048 0.92167 0.0
O446 O 0.50184 0.0734 0.96742 0.0
O447 O 0.52399 0.06703 0.00505 0.0
O448 O 0.5577 0.05696 0.03389 0.0
O449 O 0.56354 0.0449 0.98575 0.0
C450 C 0.46037 0.01795 0.99181 0.0
C451 C 0.57348 0.05574 0.01224 0.0
Dy452 Dy 0.25762 0.28854 0.25904 0.0
C453 C 0.23244 0.16318 0.23826 0.0
C454 C 0.26158 0.34725 0.25627 0.0
Dy455 Dy 0.23642 0.2224 0.23963 0.0
O456 O 0.26273 0.33509 0.28005 0.0
O457 O 0.25913 0.3274 0.23448 0.0
O458 O 0.2769 0.2776 0.3005 0.0
O459 O 0.24186 0.25025 0.27983 0.0
C460 C 0.25962 0.2526 0.30019 0.0
C461 C 0.23162 0.25807 0.1994 0.0
O462 O 0.19836 0.23187 0.25732 0.0
O463 O 0.21195 0.28289 0.26151 0.0
O464 O 0.23054 0.17706 0.2157 0.0
O465 O 0.23533 0.1817 0.26119 0.0
O466 O 0.21451 0.23331 0.20063 0.0
O467 O 0.25124 0.26091 0.21806 0.0
O468 O 0.29681 0.27878 0.24482 0.0
O469 O 0.28212 0.22789 0.23935 0.0
C470 C 0.19319 0.25861 0.26293 0.0
C471 C 0.30154 0.25186 0.23966 0.0
Dy472 Dy 0.50906 0.50904 0.98322 0.0
C473 C 0.55902 0.53579 0.10175 0.0
C474 C 0.48071 0.49306 0.93136 0.0
Dy475 Dy 0.53206 0.52939 0.04912 0.0
O476 O 0.50362 0.48567 0.93843 0.0
O477 O 0.4728 0.50798 0.95312 0.0
O478 O 0.54681 0.53553 0.96819 0.0
O479 O 0.54866 0.51844 0.00788 0.0
C480 C 0.56178 0.53505 0.99136 0.0
C481 C 0.47678 0.51523 0.04278 0.0
O482 O 0.5328 0.57292 0.03279 0.0
O483 O 0.50346 0.55583 0.99164 0.0
O484 O 0.53631 0.51767 0.0937 0.0
O485 O 0.56738 0.5512 0.08086 0.0
O486 O 0.49014 0.52581 0.06712 0.0
O487 O 0.49405 0.5144 0.0246 0.0
O488 O 0.50807 0.46542 0.0006 0.0
O489 O 0.53868 0.48341 0.04038 0.0
C490 C 0.51779 0.57752 0.01016 0.0
C491 C 0.52408 0.46143 0.02268 0.0
Dy492 Dy 0.7919 0.2777 0.27279 0.0
C493 C 0.68847 0.23543 0.20497 0.0
C494 C 0.83733 0.28247 0.30885 0.0
Dy495 Dy 0.73311 0.25085 0.24242 0.0
O496 O 0.83709 0.2927 0.28403 0.0
O497 O 0.81283 0.27058 0.31414 0.0
O498 O 0.80504 0.29478 0.23105 0.0
O499 O 0.77488 0.257 0.23089 0.0
C500 C 0.78718 0.27485 0.2152 0.0
C501 C 0.73338 0.2702 0.29834 0.0
O502 O 0.74844 0.20849 0.24365 0.0
O503 O 0.79121 0.2293 0.26677 0.0
O504 O 0.69028 0.22662 0.23041 0.0
O505 O 0.71162 0.25133 0.19946 0.0
O506 O 0.71205 0.26619 0.28066 0.0
O507 O 0.75164 0.25983 0.28582 0.0
O508 O 0.77306 0.31713 0.27745 0.0
O509 O 0.74027 0.29988 0.23963 0.0
C510 C 0.77267 0.20622 0.25508 0.0
C511 C 0.7535 0.32119 0.25921 0.0
Dy512 Dy 0.02464 0.52208 0.55818 0.0
C513 C 0.04613 0.52776 0.43913 0.0
C514 C 0.00859 0.52946 0.61265 0.0
Dy515 Dy 0.0301 0.52699 0.49368 0.0
O516 O 0.0108 0.50443 0.59919 0.0
O517 O 0.01575 0.55042 0.59659 0.0
O518 O 0.04526 0.48321 0.55505 0.0
O519 O 0.02104 0.49103 0.51996 0.0
C520 C 0.03694 0.47527 0.52817 0.0
C521 C 0.01592 0.57268 0.52316 0.0
O522 O 0.98641 0.50532 0.49078 0.0
O523 O 0.98136 0.51459 0.5397 0.0
O524 O 0.03788 0.50392 0.45124 0.0
O525 O 0.04512 0.55074 0.45661 0.0
O526 O 0.00744 0.56377 0.49658 0.0
O527 O 0.0329 0.55822 0.53177 0.0
O528 O 0.06855 0.54257 0.56064 0.0
O529 O 0.0732 0.53202 0.51188 0.0
C530 C 0.97101 0.50603 0.51291 0.0
C531 C 0.08378 0.54103 0.5385 0.0
Dy532 Dy 0.73233 0.76321 0.26197 0.0
C533 C 0.84848 0.79053 0.2563 0.0
C534 C 0.67975 0.74671 0.27567 0.0
Dy535 Dy 0.79481 0.7746 0.26625 0.0
O536 O 0.68702 0.75667 0.25165 0.0
O537 O 0.70109 0.74501 0.29153 0.0
O538 O 0.73177 0.79915 0.23369 0.0
O539 O 0.7646 0.80226 0.26406 0.0
C540 C 0.75598 0.81341 0.24289 0.0
C541 C 0.76963 0.72429 0.28474 0.0
O542 O 0.79019 0.79764 0.30919 0.0
O543 O 0.74348 0.78038 0.3088 0.0
O544 O 0.83585 0.76402 0.25925 0.0
O545 O 0.83188 0.80855 0.25931 0.0
O546 O 0.79328 0.73879 0.2957 0.0
O547 O 0.76223 0.73588 0.2634 0.0
O548 O 0.7392 0.73672 0.22126 0.0
O549 O 0.78343 0.76218 0.21898 0.0
C550 C 0.76708 0.79426 0.32217 0.0
C551 C 0.76122 0.74408 0.20677 0.0
Dy552 Dy 0.78146 0.26376 0.69512 0.0
C553 C 0.7896 0.24658 0.81325 0.0
C554 C 0.77411 0.27696 0.64043 0.0
Dy555 Dy 0.77628 0.26279 0.76117 0.0
O556 O 0.79297 0.26375 0.64927 0.0
O557 O 0.75924 0.28246 0.66133 0.0
O558 O 0.82153 0.24882 0.69962 0.0
O559 O 0.80883 0.2746 0.73335 0.0
C560 C 0.82653 0.26017 0.72627 0.0
C561 C 0.73089 0.26651 0.73095 0.0
O562 O 0.79316 0.31076 0.76069 0.0
O563 O 0.78499 0.31145 0.71145 0.0
O564 O 0.77189 0.26306 0.80904 0.0
O565 O 0.79957 0.23937 0.78929 0.0
O566 O 0.73531 0.27597 0.75822 0.0
O567 O 0.74885 0.25268 0.72321 0.0
O568 O 0.76239 0.21631 0.69492 0.0
O569 O 0.76963 0.21478 0.74411 0.0
C570 C 0.79142 0.32516 0.73779 0.0
C571 C 0.76272 0.20148 0.71766 0.0
Dy572 Dy 0.78035 0.82538 0.78798 0.0
C573 C 0.76852 0.70259 0.77083 0.0
C574 C 0.7812 0.88406 0.78993 0.0
Dy575 Dy 0.76555 0.7601 0.76995 0.0
O576 O 0.77908 0.86921 0.81208 0.0
O577 O 0.78362 0.86685 0.7672 0.0
O578 O 0.80458 0.81799 0.82699 0.0
O579 O 0.76945 0.78681 0.81122 0.0
C580 C 0.78962 0.79229 0.8295 0.0
C581 C 0.75769 0.79316 0.72762 0.0
O582 O 0.72596 0.76526 0.78744 0.0
O583 O 0.73455 0.81575 0.78617 0.0
O584 O 0.7575 0.71307 0.74949 0.0
O585 O 0.77712 0.72337 0.79149 0.0
O586 O 0.74262 0.76733 0.72959 0.0
O587 O 0.77696 0.79843 0.74689 0.0
O588 O 0.82071 0.82147 0.77279 0.0
O589 O 0.81089 0.77045 0.76447 0.0
C590 C 0.71777 0.79067 0.78934 0.0
C591 C 0.8281 0.79621 0.76555 0.0
Dy592 Dy 0.49698 0.51881 0.51132 0.0
C593 C 0.61163 0.54481 0.54009 0.0
C594 C 0.44268 0.51805 0.50645 0.0
Dy595 Dy 0.55679 0.54072 0.53627 0.0
O596 O 0.45595 0.50666 0.48658 0.0
O597 O 0.45897 0.52871 0.52889 0.0
O598 O 0.51171 0.49884 0.47042 0.0
O599 O 0.53521 0.53614 0.49461 0.0
C600 C 0.53509 0.51725 0.47358 0.0
C601 C 0.51905 0.54426 0.57374 0.0
O602 O 0.5504 0.58326 0.52192 0.0
O603 O 0.50379 0.56808 0.51062 0.0
O604 O 0.59682 0.54543 0.56209 0.0
O605 O 0.59649 0.54277 0.51657 0.0
O606 O 0.5426 0.56241 0.57601 0.0
O607 O 0.51832 0.52407 0.55354 0.0
O608 O 0.50326 0.47704 0.52733 0.0
O609 O 0.55042 0.49111 0.53348 0.0
C610 C 0.52643 0.58874 0.51373 0.0
C611 C 0.52759 0.47088 0.53251 0.0
Dy612 Dy 0.05458 0.52641 0.01354 0.0
C613 C 0.9401 0.53426 0.0024 0.0
C614 C 0.10603 0.51546 0.02058 0.0
Dy615 Dy 0.99045 0.52125 0.01221 0.0
O616 O 0.09174 0.52316 0.04134 0.0
O617 O 0.09255 0.51478 0.99612 0.0
O618 O 0.05589 0.55549 0.97749 0.0
O619 O 0.02151 0.52271 0.98165 0.0
C620 C 0.0309 0.54392 0.96811 0.0
C621 C 0.01306 0.50156 0.05691 0.0
O622 O 0.99196 0.47923 0.9859 0.0
O623 O 0.03624 0.47779 0.00242 0.0
O624 O 0.94733 0.52106 0.02383 0.0
O625 O 0.96011 0.53934 0.9858 0.0
O626 O 0.98756 0.49227 0.04821 0.0
O627 O 0.02348 0.52321 0.04418 0.0
O628 O 0.05396 0.57099 0.03588 0.0
O629 O 0.00768 0.5691 0.02544 0.0
C630 C 0.01237 0.46518 0.98863 0.0
C631 C 0.03239 0.58353 0.03524 0.0
H632 H 0.0234 0.19953 0.92683 0.0
H633 H 0.93763 0.17919 0.94015 0.0
H634 H 0.94493 0.14072 0.96973 0.0
H635 H 0.97498 0.11073 0.98888 0.0
H636 H 0.06075 0.13072 0.9753 0.0
H637 H 0.05407 0.17177 0.94902 0.0
C638 C 0.00628 0.18674 0.93625 0.0
C639 C 0.97995 0.19203 0.93098 0.0
C640 C 0.0106 0.16462 0.95318 0.0
C641 C 0.95808 0.1755 0.94369 0.0
C642 C 0.96222 0.15346 0.96058 0.0
C643 C 0.99234 0.12423 0.9805 0.0
C644 C 0.01834 0.11744 0.98392 0.0
C645 C 0.98832 0.14754 0.96508 0.0
C646 C 0.04053 0.13538 0.97302 0.0
C647 C 0.0367 0.15877 0.95782 0.0
H648 H 0.11451 0.75072 0.1634 0.0
H649 H 0.09756 0.82715 0.21281 0.0
H650 H 0.14157 0.83406 0.24036 0.0
H651 H 0.18407 0.81654 0.25165 0.0
H652 H 0.2007 0.7412 0.19983 0.0
H653 H 0.15769 0.73578 0.17185 0.0
C654 C 0.12047 0.76894 0.18017 0.0
C655 C 0.1028 0.78816 0.1864 0.0
C656 C 0.14573 0.77293 0.19546 0.0
C657 C 0.11091 0.81203 0.20775 0.0
C658 C 0.13599 0.81591 0.22352 0.0
C659 C 0.17824 0.79911 0.2341 0.0
C660 C 0.19539 0.7792 0.22791 0.0
C661 C 0.15344 0.79625 0.21778 0.0
C662 C 0.18785 0.75683 0.205 0.0
C663 C 0.16321 0.75363 0.18902 0.0
H664 H 0.49722 0.81519 0.46945 0.0
H665 H 0.47111 0.83163 0.38461 0.0
H666 H 0.46667 0.88117 0.40318 0.0
H667 H 0.47266 0.92085 0.44309 0.0
H668 H 0.50336 0.90618 0.52661 0.0
H669 H 0.50312 0.85476 0.50933 0.0
C670 C 0.49041 0.82958 0.45509 0.0
C671 C 0.48456 0.81983 0.42572 0.0
C672 C 0.48853 0.85826 0.46578 0.0
C673 C 0.47598 0.83876 0.40728 0.0
C674 C 0.4733 0.86702 0.41789 0.0
C675 C 0.47867 0.90607 0.45754 0.0
C676 C 0.48743 0.91674 0.48614 0.0
C677 C 0.47975 0.8771 0.44705 0.0
C678 C 0.49611 0.898 0.50462 0.0
C679 C 0.49616 0.86878 0.49468 0.0
H680 H 0.47268 0.27996 0.70048 0.0
H681 H 0.43823 0.31215 0.62674 0.0
H682 H 0.39681 0.31409 0.65096 0.0
H683 H 0.36941 0.30479 0.69204 0.0
H684 H 0.40283 0.27225 0.76591 0.0
H685 H 0.44566 0.27268 0.74289 0.0
C686 C 0.45614 0.28746 0.68976 0.0
C687 C 0.45859 0.2957 0.66172 0.0
C688 C 0.43218 0.28856 0.70386 0.0
C689 C 0.43697 0.30555 0.64824 0.0
C690 C 0.4132 0.3067 0.66208 0.0
C691 C 0.38617 0.29806 0.70322 0.0
C692 C 0.38301 0.28843 0.73056 0.0
C693 C 0.41049 0.29804 0.68975 0.0
C694 C 0.40485 0.2798 0.74483 0.0
C695 C 0.42927 0.27991 0.73162 0.0
H696 H 0.98703 0.8347 0.56677 0.0
H697 H 0.05439 0.87692 0.62687 0.0
H698 H 0.06108 0.92033 0.60116 0.0
H699 H 0.04659 0.94749 0.56364 0.0
H700 H 0.97865 0.90714 0.50375 0.0
H701 H 0.97383 0.86163 0.52697 0.0
C702 C 0.00325 0.85334 0.57413 0.0
C703 C 0.02002 0.85254 0.59893 0.0
C704 C 0.00699 0.87855 0.55923 0.0
C705 C 0.04102 0.87689 0.60804 0.0
C706 C 0.04494 0.90178 0.59331 0.0
C707 C 0.03082 0.9287 0.55541 0.0
C708 C 0.01291 0.93083 0.53207 0.0
C709 C 0.02785 0.90299 0.56916 0.0
C710 C 0.99279 0.9061 0.52161 0.0
C711 C 0.9899 0.88014 0.53503 0.0
H712 H 0.46524 0.79477 0.83537 0.0
H713 H 0.42454 0.75857 0.90681 0.0
H714 H 0.38118 0.76557 0.88629 0.0
H715 H 0.35433 0.78047 0.8475 0.0
H716 H 0.39421 0.81692 0.7759 0.0
H717 H 0.43829 0.81183 0.79719 0.0
C718 C 0.44686 0.78835 0.84636 0.0
C719 C 0.44818 0.77595 0.8725 0.0
C720 C 0.42182 0.79273 0.83455 0.0
C721 C 0.42419 0.76811 0.88665 0.0
C722 C 0.39932 0.77214 0.87496 0.0
C723 C 0.37272 0.78767 0.83674 0.0
C724 C 0.37104 0.79909 0.81021 0.0
C725 C 0.39786 0.78433 0.84891 0.0
C726 C 0.39501 0.8082 0.79645 0.0
C727 C 0.42019 0.8051 0.80852 0.0
H728 H 0.47366 0.20156 0.03394 0.0
H729 H 0.49868 0.18009 0.11726 0.0
H730 H 0.5098 0.13466 0.09519 0.0
H731 H 0.51475 0.10225 0.05162 0.0
H732 H 0.48715 0.12288 0.96894 0.0
H733 H 0.47536 0.16765 0.99124 0.0
C734 C 0.48133 0.18683 0.0473 0.0
C735 C 0.48545 0.1943 0.07712 0.0
C736 C 0.48766 0.16077 0.03452 0.0
C737 C 0.49522 0.17484 0.09419 0.0
C738 C 0.50179 0.14894 0.08159 0.0
C739 C 0.50595 0.11646 0.03863 0.0
C740 C 0.50188 0.10933 0.00874 0.0
C741 C 0.4985 0.14189 0.0517 0.0
C742 C 0.49055 0.12795 0.99203 0.0
C743 C 0.48373 0.15354 0.00474 0.0
H744 H 0.10147 0.29148 0.33918 0.0
H745 H 0.07779 0.19683 0.33302 0.0
H746 H 0.11331 0.19208 0.30023 0.0
H747 H 0.15267 0.21462 0.2756 0.0
H748 H 0.17647 0.30933 0.28147 0.0
H749 H 0.13894 0.31414 0.31148 0.0
C750 C 0.10409 0.26982 0.33064 0.0
C751 C 0.08721 0.24455 0.33882 0.0
C752 C 0.12443 0.26722 0.31154 0.0
C753 C 0.09058 0.21665 0.32721 0.0
C754 C 0.11088 0.2139 0.3084 0.0
C755 C 0.14946 0.23636 0.28301 0.0
C756 C 0.1676 0.26155 0.27638 0.0
C757 C 0.12809 0.23902 0.30066 0.0
C758 C 0.16294 0.28951 0.28621 0.0
C759 C 0.14156 0.29231 0.30358 0.0
H760 H 0.95847 0.09 0.169 0.0
H761 H 0.90982 0.00332 0.14349 0.0
H762 H 0.9363 0.99818 0.10164 0.0
H763 H 0.97459 0.01742 0.07328 0.0
H764 H 0.02321 0.10397 0.09883 0.0
H765 H 0.99548 0.11 0.1396 0.0
C766 C 0.95355 0.07001 0.15425 0.0
C767 C 0.93221 0.04704 0.15957 0.0
C768 C 0.96895 0.06712 0.13023 0.0
C769 C 0.92614 0.02135 0.14007 0.0
C770 C 0.94131 0.01836 0.11609 0.0
C771 C 0.97891 0.03771 0.08761 0.0
C772 C 0.00093 0.06022 0.08306 0.0
C773 C 0.96293 0.04098 0.11109 0.0
C774 C 0.00642 0.0863 0.10191 0.0
C775 C 0.99058 0.08975 0.12525 0.0
H776 H 0.30582 0.69457 0.4357 0.0
H777 H 0.22952 0.71211 0.46382 0.0
H778 H 0.22494 0.73978 0.42284 0.0
H779 H 0.2412 0.75617 0.37712 0.0
H780 H 0.31703 0.73743 0.34895 0.0
H781 H 0.32338 0.71345 0.39201 0.0
C782 C 0.28824 0.70454 0.43295 0.0
C783 C 0.26793 0.70102 0.45258 0.0
C784 C 0.28567 0.72028 0.40933 0.0
C785 C 0.2454 0.71434 0.44888 0.0
C786 C 0.24275 0.73019 0.42547 0.0
C787 C 0.25927 0.74721 0.38073 0.0
C788 C 0.27852 0.74834 0.35998 0.0
C789 C 0.26256 0.73294 0.40532 0.0
C790 C 0.30184 0.73661 0.36467 0.0
C791 C 0.30547 0.72283 0.38921 0.0
H792 H 0.59769 0.99445 0.6445 0.0
H793 H 0.53304 0.93953 0.68339 0.0
H794 H 0.50104 0.94341 0.64346 0.0
H795 H 0.49109 0.96593 0.59927 0.0
H796 H 0.55612 0.02464 0.56471 0.0
H797 H 0.58836 0.01583 0.60136 0.0
C798 C 0.57667 0.98302 0.64427 0.0
C799 C 0.56771 0.96691 0.66698 0.0
C800 C 0.55841 0.98631 0.62212 0.0
C801 C 0.54042 0.95216 0.66614 0.0
C802 C 0.52211 0.95452 0.64344 0.0
C803 C 0.51233 0.97666 0.59986 0.0
C804 C 0.52132 0.99567 0.57926 0.0
C805 C 0.53078 0.97216 0.62165 0.0
C806 C 0.54879 0.00966 0.58019 0.0
C807 C 0.56726 0.00469 0.60115 0.0
H808 H 0.32502 0.36226 0.94516 0.0
H809 H 0.23849 0.34263 0.95444 0.0
H810 H 0.23109 0.31569 0.90647 0.0
H811 H 0.24885 0.29941 0.86129 0.0
H812 H 0.33526 0.31998 0.85128 0.0
H813 H 0.34296 0.34472 0.90023 0.0
C814 C 0.30453 0.35194 0.93681 0.0
C815 C 0.28234 0.35457 0.95347 0.0
C816 C 0.30037 0.33669 0.90903 0.0
C817 C 0.25596 0.34106 0.94216 0.0
C818 C 0.25169 0.32564 0.91469 0.0
C819 C 0.26945 0.30906 0.86978 0.0
C820 C 0.29145 0.30777 0.85244 0.0
C821 C 0.27372 0.32356 0.89784 0.0
C822 C 0.31792 0.3206 0.864 0.0
C823 C 0.32235 0.33481 0.89203 0.0
H824 H 0.94124 0.97533 0.29217 0.0
H825 H 0.91531 0.05705 0.31484 0.0
H826 H 0.93147 0.05704 0.36473 0.0
H827 H 0.95202 0.03341 0.4022 0.0
H828 H 0.98014 0.95316 0.37965 0.0
H829 H 0.96373 0.95275 0.32945 0.0
C830 C 0.9393 0.99325 0.30797 0.0
C831 C 0.92698 0.01611 0.29971 0.0
C832 C 0.9487 0.99316 0.3367 0.0
C833 C 0.92475 0.03921 0.3205 0.0
C834 C 0.93385 0.03915 0.34911 0.0
C835 C 0.95434 0.01571 0.38631 0.0
C836 C 0.96688 0.99311 0.39455 0.0
C837 C 0.94557 0.0161 0.3575 0.0
C838 C 0.97032 0.97063 0.37374 0.0
C839 C 0.96104 0.97048 0.34508 0.0
H840 H 0.26871 0.68814 0.59174 0.0
H841 H 0.3355 0.75365 0.56939 0.0
H842 H 0.33407 0.78342 0.61514 0.0
H843 H 0.31557 0.78885 0.6631 0.0
H844 H 0.25048 0.72094 0.68479 0.0
H845 H 0.24916 0.69446 0.63749 0.0
C846 C 0.28296 0.70897 0.59674 0.0
C847 C 0.30238 0.71849 0.57737 0.0
C848 C 0.28216 0.72568 0.62295 0.0
C849 C 0.32044 0.74573 0.58407 0.0
C850 C 0.31963 0.76275 0.61021 0.0
C851 C 0.30086 0.76852 0.65719 0.0
C852 C 0.2829 0.75707 0.67729 0.0
C853 C 0.30081 0.75271 0.63004 0.0
C854 C 0.26413 0.73054 0.66956 0.0
C855 C 0.26355 0.71515 0.64258 0.0
H856 H 0.59326 0.98416 0.80618 0.0
H857 H 0.56708 0.06008 0.77763 0.0
H858 H 0.54281 0.0654 0.82116 0.0
H859 H 0.53134 0.05011 0.86861 0.0
H860 H 0.55813 0.97453 0.89703 0.0
H861 H 0.57967 0.96723 0.85203 0.0
C862 C 0.58218 0.00183 0.80941 0.0
C863 C 0.58219 0.02187 0.78888 0.0
C864 C 0.56838 0.00478 0.83441 0.0
C865 C 0.56748 0.04443 0.7932 0.0
C866 C 0.55361 0.0475 0.81807 0.0
C867 C 0.54164 0.03188 0.86473 0.0
C868 C 0.54338 0.01299 0.886 0.0
C869 C 0.55424 0.02804 0.83899 0.0
C870 C 0.5567 0.98941 0.8809 0.0
C871 C 0.56906 0.98527 0.85525 0.0
H872 H 0.20891 0.32404 0.09207 0.0
H873 H 0.29242 0.36761 0.11383 0.0
H874 H 0.29403 0.33934 0.15494 0.0
H875 H 0.27215 0.30089 0.18394 0.0
H876 H 0.18877 0.25736 0.16175 0.0
H877 H 0.18677 0.28679 0.12161 0.0
C878 C 0.22748 0.32746 0.1058 0.0
C879 C 0.25053 0.34792 0.09968 0.0
C880 C 0.22833 0.31101 0.12936 0.0
C881 C 0.27437 0.35198 0.11787 0.0
C882 C 0.27533 0.3358 0.14144 0.0
C883 C 0.25346 0.29812 0.1705 0.0
C884 C 0.23058 0.27705 0.17591 0.0
C885 C 0.25249 0.31509 0.1473 0.0
C886 C 0.20666 0.2734 0.15804 0.0
C887 C 0.2055 0.29024 0.13507 0.0
H888 H 0.20726 0.99087 0.05409 0.0
H889 H 0.1956 0.964 0.96279 0.0
H890 H 0.16148 0.99414 0.95837 0.0
H891 H 0.13241 0.02467 0.98081 0.0
H892 H 0.14123 0.04888 0.07242 0.0
H893 H 0.17966 0.02398 0.07626 0.0
C894 C 0.19737 0.99175 0.03321 0.0
C895 C 0.20377 0.97495 0.00888 0.0
C896 C 0.17748 0.00887 0.03084 0.0
C897 C 0.19084 0.97643 0.98194 0.0
C898 C 0.17141 0.99377 0.97934 0.0
C899 C 0.14315 0.02509 0.00153 0.0
C900 C 0.13415 0.03856 0.0263 0.0
C901 C 0.16428 0.00968 0.00369 0.0
C902 C 0.14798 0.03871 0.05306 0.0
C903 C 0.16974 0.02425 0.05527 0.0
H904 H 0.6658 0.63493 0.99612 0.0
H905 H 0.70549 0.562 0.00531 0.0
H906 H 0.66125 0.52931 0.00784 0.0
H907 H 0.6107 0.52097 0.00462 0.0
H908 H 0.5722 0.59361 0.99048 0.0
H909 H 0.61633 0.62701 0.99352 0.0
C910 C 0.66486 0.61192 0.99883 0.0
C911 C 0.68894 0.60095 0.00044 0.0
C912 C 0.63943 0.59324 0.99976 0.0
C913 C 0.68725 0.571 0.0038 0.0
C914 C 0.66195 0.55231 0.00537 0.0
C915 C 0.61214 0.54426 0.00294 0.0
C916 C 0.58832 0.55509 0.99815 0.0
C917 C 0.63784 0.56312 0.00312 0.0
C918 C 0.59027 0.58502 0.99492 0.0
C919 C 0.61552 0.60405 0.99632 0.0
H920 H 0.72017 0.44279 0.29612 0.0
H921 H 0.65518 0.40595 0.23146 0.0
H922 H 0.67562 0.36339 0.22045 0.0
H923 H 0.71052 0.33539 0.23041 0.0
H924 H 0.7748 0.37051 0.29628 0.0
H925 H 0.75623 0.41493 0.30526 0.0
C926 C 0.7106 0.42553 0.27951 0.0
C927 C 0.68609 0.42759 0.26476 0.0
C928 C 0.72234 0.40074 0.27341 0.0
C929 C 0.67393 0.40494 0.24333 0.0
C930 C 0.68563 0.38054 0.23693 0.0
C931 C 0.72075 0.35286 0.2465 0.0
C932 C 0.74414 0.34954 0.2625 0.0
C933 C 0.70966 0.37806 0.252 0.0
C934 C 0.75687 0.37244 0.28345 0.0
C935 C 0.74617 0.39785 0.28873 0.0
H936 H 0.84714 0.45891 0.47375 0.0
H937 H 0.84061 0.47084 0.5655 0.0
H938 H 0.88952 0.48991 0.57276 0.0
H939 H 0.93401 0.50165 0.55329 0.0
H940 H 0.94099 0.48867 0.46164 0.0
H941 H 0.89179 0.47153 0.45415 0.0
C942 C 0.85637 0.46587 0.49533 0.0
C943 C 0.84028 0.46344 0.51906 0.0
C944 C 0.88451 0.47647 0.49938 0.0
C945 C 0.85256 0.4724 0.54688 0.0
C946 C 0.88052 0.4833 0.55106 0.0
C947 C 0.92485 0.49519 0.53162 0.0
C948 C 0.94121 0.49638 0.50807 0.0
C949 C 0.89668 0.48517 0.52748 0.0
C950 C 0.9289 0.4879 0.48017 0.0
C951 C 0.90077 0.4781 0.47586 0.0
H952 H 0.30295 0.07009 0.21451 0.0
H953 H 0.32118 0.09196 0.3059 0.0
H954 H 0.28353 0.11785 0.30857 0.0
H955 H 0.25069 0.14053 0.28398 0.0
H956 H 0.23635 0.12428 0.19184 0.0
H957 H 0.26625 0.08866 0.19049 0.0
C958 C 0.29841 0.08015 0.23506 0.0
C959 C 0.31507 0.07963 0.25988 0.0
C960 C 0.27729 0.09578 0.23628 0.0
C961 C 0.30892 0.09258 0.28641 0.0
C962 C 0.28733 0.10724 0.28798 0.0
C963 C 0.25348 0.12855 0.26367 0.0
C964 C 0.24176 0.13523 0.23798 0.0
C965 C 0.27207 0.10986 0.2629 0.0
C966 C 0.24531 0.1195 0.21186 0.0
C967 C 0.26268 0.09947 0.21107 0.0
H968 H 0.31752 0.07631 0.51291 0.0
H969 H 0.33729 0.09773 0.42783 0.0
H970 H 0.37485 0.0718 0.42968 0.0
H971 H 0.40379 0.04532 0.45634 0.0
H972 H 0.38437 0.02362 0.54127 0.0
H973 H 0.34493 0.04704 0.53847 0.0
C974 C 0.32994 0.07517 0.4947 0.0
C975 C 0.32461 0.08921 0.47036 0.0
C976 C 0.35164 0.06014 0.49587 0.0
C977 C 0.34087 0.08727 0.44691 0.0
C978 C 0.36244 0.07244 0.44793 0.0
C979 C 0.39074 0.04546 0.47412 0.0
C980 C 0.39702 0.03287 0.49903 0.0
C981 C 0.36823 0.05913 0.47242 0.0
C982 C 0.37993 0.03314 0.52185 0.0
C983 C 0.35744 0.04665 0.5203 0.0
H984 H 0.72565 0.59673 0.3197 0.0
H985 H 0.65352 0.61037 0.27362 0.0
H986 H 0.67672 0.65948 0.26543 0.0
H987 H 0.71797 0.69755 0.26893 0.0
H988 H 0.78951 0.68678 0.31769 0.0
H989 H 0.76621 0.63753 0.32716 0.0
C990 C 0.71504 0.61058 0.30805 0.0
C991 C 0.68796 0.5998 0.29713 0.0
C992 C 0.72842 0.6392 0.30374 0.0
C993 C 0.67434 0.61809 0.28232 0.0
C994 C 0.68761 0.64617 0.27749 0.0
C995 C 0.72834 0.6846 0.28198 0.0
C996 C 0.75536 0.69564 0.29255 0.0
C997 C 0.71469 0.6568 0.28778 0.0
C998 C 0.76864 0.67865 0.30935 0.0
C999 C 0.75535 0.65051 0.31469 0.0
H1000 H 0.83199 0.45944 0.72581 0.0
H1001 H 0.85817 0.45989 0.81493 0.0
H1002 H 0.83662 0.40796 0.81343 0.0
H1003 H 0.81345 0.3616 0.78569 0.0
H1004 H 0.78774 0.36165 0.6964 0.0
H1005 H 0.80584 0.41427 0.69926 0.0
C1006 C 0.83283 0.44824 0.74497 0.0
C1007 C 0.8469 0.46337 0.7703 0.0
C1008 C 0.82058 0.41844 0.74393 0.0
C1009 C 0.84753 0.44868 0.79508 0.0
C1010 C 0.83528 0.41897 0.79424 0.0
C1011 C 0.81152 0.37316 0.76695 0.0
C1012 C 0.79958 0.35757 0.7408 0.0
C1013 C 0.82219 0.40349 0.76861 0.0
C1014 C 0.79712 0.37297 0.71676 0.0
C1015 C 0.80747 0.40312 0.71832 0.0
H1016 H 0.06166 0.86349 0.06115 0.0
H1017 H 0.98781 0.85623 0.10563 0.0
H1018 H 0.97696 0.89835 0.0838 0.0
H1019 H 0.98993 0.93934 0.05447 0.0
H1020 H 0.06502 0.94789 0.01222 0.0
H1021 H 0.0737 0.9031 0.03047 0.0
C1022 C 0.04308 0.87096 0.06591 0.0
C1023 C 0.02568 0.8568 0.08512 0.0
C1024 C 0.03716 0.8955 0.05366 0.0
C1025 C 0.00169 0.86684 0.09106 0.0
C1026 C 0.99542 0.89092 0.07856 0.0
C1027 C 0.00793 0.93107 0.0489 0.0
C1028 C 0.0268 0.94687 0.03207 0.0
C1029 C 0.01319 0.90569 0.06013 0.0
C1030 C 0.05025 0.93617 0.02529 0.0
C1031 C 0.05526 0.91059 0.03575 0.0
H1032 H 0.92691 0.23262 0.79745 0.0
H1033 H 0.89656 0.28682 0.86316 0.0
H1034 H 0.86042 0.29307 0.82935 0.0
H1035 H 0.83853 0.28507 0.78086 0.0
H1036 H 0.86574 0.22794 0.71561 0.0
H1037 H 0.90262 0.22171 0.74921 0.0
C1038 C 0.91229 0.24564 0.8044 0.0
C1039 C 0.91462 0.25938 0.8328 0.0
C1040 C 0.8913 0.24905 0.78482 0.0
C1041 C 0.89535 0.276 0.84148 0.0
C1042 C 0.87472 0.27976 0.82211 0.0
C1043 C 0.85236 0.271 0.77404 0.0
C1044 C 0.84931 0.25677 0.74591 0.0
C1045 C 0.87272 0.2667 0.79369 0.0
C1046 C 0.86765 0.23904 0.73723 0.0
C1047 C 0.88863 0.23539 0.75646 0.0
H1048 H 0.55009 0.19911 0.58835 0.0
H1049 H 0.46961 0.20267 0.55438 0.0
H1050 H 0.465 0.15356 0.52894 0.0
H1051 H 0.4828 0.10871 0.51828 0.0
H1052 H 0.56337 0.10499 0.55191 0.0
H1053 H 0.56906 0.15522 0.57515 0.0
C1054 C 0.53157 0.18918 0.57532 0.0
C1055 C 0.51012 0.20448 0.57353 0.0
C1056 C 0.52907 0.16093 0.56061 0.0
C1057 C 0.4864 0.1914 0.55625 0.0
C1058 C 0.48373 0.16328 0.54169 0.0
C1059 C 0.50172 0.11891 0.5305 0.0
C1060 C 0.52253 0.10292 0.53348 0.0
C1061 C 0.5048 0.14772 0.54398 0.0
C1062 C 0.54699 0.1167 0.54919 0.0
C1063 C 0.55022 0.14541 0.56265 0.0
H1064 H 0.55813 0.74519 0.30442 0.0
H1065 H 0.59767 0.76984 0.38946 0.0
H1066 H 0.64125 0.76469 0.371 0.0
H1067 H 0.66835 0.75477 0.33072 0.0
H1068 H 0.63059 0.73547 0.24469 0.0
H1069 H 0.58592 0.73653 0.2634 0.0
C1070 C 0.57633 0.74935 0.31883 0.0
C1071 C 0.57477 0.75787 0.34823 0.0
C1072 C 0.60151 0.74714 0.3079 0.0
C1073 C 0.59845 0.76349 0.36671 0.0
C1074 C 0.62333 0.76041 0.35621 0.0
C1075 C 0.65026 0.7504 0.31611 0.0
C1076 C 0.65252 0.74464 0.28647 0.0
C1077 C 0.6251 0.75239 0.32687 0.0
C1078 C 0.62915 0.73971 0.26764 0.0
C1079 C 0.60372 0.74044 0.27833 0.0
H1080 H 0.00499 0.18695 0.43221 0.0
H1081 H 0.07398 0.2252 0.49154 0.0
H1082 H 0.06876 0.17962 0.51429 0.0
H1083 H 0.04618 0.12773 0.51553 0.0
H1084 H 0.9779 0.08964 0.45519 0.0
H1085 H 0.98117 0.13628 0.43495 0.0
C1086 C 0.01882 0.18544 0.45023 0.0
C1087 C 0.03995 0.20948 0.45998 0.0
C1088 C 0.01584 0.15908 0.46309 0.0
C1089 C 0.05758 0.20705 0.48346 0.0
C1090 C 0.05462 0.18095 0.49651 0.0
C1091 C 0.03178 0.12977 0.49824 0.0
C1092 C 0.01189 0.10512 0.48688 0.0
C1093 C 0.03403 0.15666 0.48629 0.0
C1094 C 0.99352 0.10814 0.4643 0.0
C1095 C 0.99538 0.13484 0.45263 0.0
H1096 H 0.59152 0.25279 0.12283 0.0
H1097 H 0.55506 0.26161 0.20388 0.0
H1098 H 0.59509 0.25045 0.22869 0.0
H1099 H 0.64081 0.23912 0.22748 0.0
H1100 H 0.679 0.23483 0.14725 0.0
H1101 H 0.63767 0.24258 0.12176 0.0
C1102 C 0.59235 0.25233 0.14594 0.0
C1103 C 0.57033 0.25804 0.16149 0.0
C1104 C 0.61556 0.24626 0.16009 0.0
C1105 C 0.5718 0.25754 0.19143 0.0
C1106 C 0.5946 0.25094 0.20561 0.0
C1107 C 0.63982 0.23929 0.20433 0.0
C1108 C 0.66257 0.23577 0.18906 0.0
C1109 C 0.61656 0.24521 0.19015 0.0
C1110 C 0.66149 0.23702 0.15926 0.0
C1111 C 0.63799 0.24169 0.14479 0.0
H1112 H 0.51085 0.87522 0.90784 0.0
H1113 H 0.55884 0.8429 0.97142 0.0
H1114 H 0.55989 0.88763 0.00419 0.0
H1115 H 0.54653 0.93628 0.01462 0.0
H1116 H 0.4959 0.96502 0.95067 0.0
H1117 H 0.49672 0.92153 0.91828 0.0
C1118 C 0.52173 0.87792 0.92879 0.0
C1119 C 0.53492 0.85587 0.93707 0.0
C1120 C 0.52178 0.90319 0.94752 0.0
C1121 C 0.54855 0.85963 0.9645 0.0
C1122 C 0.54914 0.88519 0.98323 0.0
C1123 C 0.53574 0.9329 0.99359 0.0
C1124 C 0.52159 0.95417 0.98493 0.0
C1125 C 0.53573 0.90717 0.97499 0.0
C1126 C 0.50737 0.94934 0.95777 0.0
C1127 C 0.50771 0.92436 0.93917 0.0
H1128 H 0.94446 0.82514 0.71803 0.0
H1129 H 0.91519 0.73921 0.67157 0.0
H1130 H 0.87367 0.73357 0.69713 0.0
H1131 H 0.84454 0.75403 0.73066 0.0
H1132 H 0.87266 0.84089 0.77545 0.0
H1133 H 0.91585 0.84497 0.75285 0.0
C1134 C 0.92907 0.80511 0.7136 0.0
C1135 C 0.93292 0.78272 0.69279 0.0
C1136 C 0.90502 0.80213 0.72813 0.0
C1137 C 0.91272 0.75692 0.68732 0.0
C1138 C 0.88896 0.75361 0.70198 0.0
C1139 C 0.86027 0.77367 0.73585 0.0
C1140 C 0.85539 0.7971 0.75474 0.0
C1141 C 0.88476 0.77619 0.7222 0.0
C1142 C 0.87588 0.82254 0.76093 0.0
C1143 C 0.90056 0.82494 0.74795 0.0
H1144 H 0.11732 0.00279 0.8752 0.0
H1145 H 0.05757 0.0286 0.81935 0.0
H1146 H 0.02578 0.02555 0.85719 0.0
H1147 H 0.01566 0.0183 0.90712 0.0
H1148 H 0.07595 0.99566 0.96429 0.0
H1149 H 0.10682 0.99475 0.92533 0.0
C1150 C 0.09723 0.00742 0.8713 0.0
C1151 C 0.08982 0.01591 0.8445 0.0
C1152 C 0.07922 0.00639 0.89351 0.0
C1153 C 0.06384 0.02219 0.83983 0.0
C1154 C 0.04561 0.02043 0.86145 0.0
C1155 C 0.03545 0.01282 0.9108 0.0
C1156 C 0.04366 0.00699 0.93828 0.0
C1157 C 0.05318 0.01296 0.88848 0.0
C1158 C 0.06939 0.00031 0.94318 0.0
C1159 C 0.08697 0.99976 0.92092 0.0
H1160 H 0.79199 0.33268 0.52454 0.0
H1161 H 0.72731 0.37427 0.55412 0.0
H1162 H 0.72274 0.3448 0.59453 0.0
H1163 H 0.73954 0.31031 0.62348 0.0
H1164 H 0.80554 0.27033 0.59538 0.0
H1165 H 0.80691 0.29579 0.552 0.0
C1166 C 0.77672 0.33513 0.53967 0.0
C1167 C 0.76019 0.35584 0.53647 0.0
C1168 C 0.77446 0.31843 0.56308 0.0
C1169 C 0.74043 0.35865 0.5562 0.0
C1170 C 0.73779 0.3418 0.57932 0.0
C1171 C 0.75397 0.30686 0.60764 0.0
C1172 C 0.77252 0.28867 0.61254 0.0
C1173 C 0.75505 0.32207 0.58325 0.0
C1174 C 0.79111 0.28431 0.59196 0.0
C1175 C 0.79196 0.29895 0.56728 0.0
H1176 H 0.4066 0.00984 0.36863 0.0
H1177 H 0.45964 0.08482 0.34061 0.0
H1178 H 0.49482 0.08145 0.37742 0.0
H1179 H 0.51067 0.05625 0.41744 0.0
H1180 H 0.4571 0.9801 0.44279 0.0
H1181 H 0.42216 0.98473 0.40705 0.0
C1182 C 0.42574 0.02564 0.37067 0.0
C1183 C 0.43045 0.04757 0.35203 0.0
C1184 C 0.44595 0.02318 0.39128 0.0
C1185 C 0.45551 0.06771 0.35481 0.0
C1186 C 0.47567 0.06573 0.37575 0.0
C1187 C 0.49141 0.04064 0.41484 0.0
C1188 C 0.48635 0.01806 0.43282 0.0
C1189 C 0.47121 0.04334 0.39398 0.0
C1190 C 0.46137 0.99788 0.42938 0.0
C1191 C 0.44132 0.00049 0.40896 0.0
H1192 H 0.74842 0.67772 0.08056 0.0
H1193 H 0.83327 0.71962 0.08341 0.0
H1194 H 0.83041 0.74296 0.13171 0.0
H1195 H 0.80445 0.75059 0.17354 0.0
H1196 H 0.71989 0.70802 0.17195 0.0
H1197 H 0.72207 0.6859 0.12277 0.0
C1198 C 0.76626 0.6921 0.09167 0.0
C1199 C 0.79106 0.69686 0.07824 0.0
C1200 C 0.76457 0.70526 0.11973 0.0
C1201 C 0.81395 0.71545 0.09312 0.0
C1202 C 0.81234 0.72883 0.1208 0.0
C1203 C 0.78637 0.73657 0.16252 0.0
C1204 C 0.762 0.73103 0.1766 0.0
C1205 C 0.78784 0.72374 0.13439 0.0
C1206 C 0.73893 0.71269 0.16177 0.0
C1207 C 0.74017 0.70002 0.1336 0.0
H1208 H 0.06494 0.01794 0.72272 0.0
H1209 H 0.14004 0.00028 0.69146 0.0
H1210 H 0.12682 0.01197 0.6437 0.0
H1211 H 0.09344 0.02636 0.61057 0.0
H1212 H 0.0192 0.04585 0.64246 0.0
H1213 H 0.03275 0.03483 0.69031 0.0
C1214 C 0.0783 0.01642 0.70538 0.0
C1215 C 0.10325 0.00786 0.71049 0.0
C1216 C 0.07088 0.02389 0.67819 0.0
C1217 C 0.12064 0.00663 0.68799 0.0
C1218 C 0.11314 0.01341 0.66072 0.0
C1219 C 0.08043 0.02858 0.62812 0.0
C1220 C 0.05538 0.03693 0.62304 0.0
C1221 C 0.08831 0.02208 0.65557 0.0
C1222 C 0.03866 0.03964 0.6459 0.0
C1223 C 0.0463 0.03312 0.67321 0.0
H1224 H 0.72874 0.36224 0.40459 0.0
H1225 H 0.81593 0.37233 0.40319 0.0
H1226 H 0.8102 0.33389 0.36296 0.0
H1227 H 0.78047 0.29836 0.32785 0.0
H1228 H 0.6937 0.2886 0.32794 0.0
H1229 H 0.69907 0.32599 0.36932 0.0
C1230 C 0.7465 0.35611 0.39544 0.0
C1231 C 0.77272 0.37017 0.40688 0.0
C1232 C 0.7431 0.33395 0.37233 0.0
C1233 C 0.79551 0.36192 0.39478 0.0
C1234 C 0.79228 0.33987 0.37184 0.0
C1235 C 0.76284 0.30378 0.33731 0.0
C1236 C 0.73688 0.29039 0.32512 0.0
C1237 C 0.76619 0.32569 0.36055 0.0
C1238 C 0.714 0.29852 0.33708 0.0
C1239 C 0.71705 0.31999 0.36062 0.0
H1240 H 0.47365 0.03233 0.21719 0.0
H1241 H 0.41913 0.08765 0.19179 0.0
H1242 H 0.43824 0.08932 0.14496 0.0
H1243 H 0.4679 0.07201 0.11007 0.0
H1244 H 0.52137 0.01547 0.13477 0.0
H1245 H 0.50529 0.01746 0.18324 0.0
C1246 C 0.46614 0.04502 0.20154 0.0
C1247 C 0.44486 0.05963 0.20786 0.0
C1248 C 0.47688 0.04549 0.17452 0.0
C1249 C 0.43539 0.07604 0.18738 0.0
C1250 C 0.44626 0.07697 0.16058 0.0
C1251 C 0.47616 0.06033 0.12617 0.0
C1252 C 0.49555 0.04342 0.11899 0.0
C1253 C 0.46659 0.06129 0.15374 0.0
C1254 C 0.5063 0.02852 0.13993 0.0
C1255 C 0.49709 0.02961 0.16756 0.0
H1256 H 0.8215 0.73616 0.94056 0.0
H1257 H 0.74541 0.67599 0.91511 0.0
H1258 H 0.73955 0.7021 0.87315 0.0
H1259 H 0.75563 0.74294 0.84399 0.0
H1260 H 0.83178 0.80273 0.86993 0.0
H1261 H 0.83793 0.77594 0.91118 0.0
C1262 C 0.80361 0.72867 0.92587 0.0
C1263 C 0.7839 0.70411 0.9312 0.0
C1264 C 0.80033 0.74382 0.90176 0.0
C1265 C 0.76092 0.69482 0.91172 0.0
C1266 C 0.75754 0.70976 0.88765 0.0
C1267 C 0.77362 0.74997 0.8586 0.0
C1268 C 0.79321 0.77488 0.85385 0.0
C1269 C 0.77705 0.73441 0.88248 0.0
C1270 C 0.81636 0.78373 0.87307 0.0
C1271 C 0.8199 0.7684 0.89671 0.0
H1272 H 0.84111 0.08483 0.02179 0.0
H1273 H 0.87371 0.13256 0.95257 0.0
H1274 H 0.90493 0.09912 0.94417 0.0
H1275 H 0.92527 0.05898 0.95876 0.0
H1276 H 0.89671 0.01456 0.03134 0.0
H1277 H 0.86104 0.04355 0.0358 0.0
C1278 C 0.85495 0.08776 0.00477 0.0
C1279 C 0.8552 0.11118 0.98789 0.0
C1280 C 0.87336 0.06891 0.00055 0.0
C1281 C 0.87332 0.11487 0.96602 0.0
C1282 C 0.89107 0.09568 0.96111 0.0
C1283 C 0.91078 0.05509 0.97509 0.0
C1284 C 0.91322 0.03441 0.99445 0.0
C1285 C 0.89151 0.07291 0.97848 0.0
C1286 C 0.89487 0.03013 0.01599 0.0
C1287 C 0.87472 0.04689 0.0187 0.0
H1288 H 0.35495 0.4493 0.01298 0.0
H1289 H 0.34765 0.48812 0.09899 0.0
H1290 H 0.3952 0.5132 0.10176 0.0
H1291 H 0.43958 0.52197 0.08104 0.0
H1292 H 0.44769 0.48267 0.99569 0.0
H1293 H 0.3991 0.46023 0.9912 0.0
C1294 C 0.36369 0.46342 0.03226 0.0
C1295 C 0.34768 0.46662 0.05582 0.0
C1296 C 0.39122 0.47773 0.03381 0.0
C1297 C 0.35941 0.4851 0.08057 0.0
C1298 C 0.38666 0.49948 0.0822 0.0
C1299 C 0.43062 0.50876 0.06133 0.0
C1300 C 0.44709 0.50412 0.03863 0.0
C1301 C 0.40284 0.49564 0.05914 0.0
C1302 C 0.43531 0.48689 0.01326 0.0
C1303 C 0.40758 0.47388 0.01082 0.0
H1304 H 0.31558 0.59081 0.73172 0.0
H1305 H 0.38224 0.6371 0.7908 0.0
H1306 H 0.35989 0.67862 0.7983 0.0
H1307 H 0.32282 0.70298 0.7868 0.0
H1308 H 0.25601 0.65823 0.72731 0.0
H1309 H 0.27674 0.61486 0.72181 0.0
C1310 C 0.32515 0.60995 0.74628 0.0
C1311 C 0.35071 0.61078 0.76048 0.0
C1312 C 0.31212 0.63405 0.7506 0.0
C1313 C 0.36269 0.63575 0.77943 0.0
C1314 C 0.3499 0.6596 0.78382 0.0
C1315 C 0.31256 0.6837 0.77278 0.0
C1316 C 0.2879 0.68403 0.7574 0.0
C1317 C 0.32478 0.65912 0.76934 0.0
C1318 C 0.27495 0.65865 0.73952 0.0
C1319 C 0.28691 0.63387 0.73619 0.0
H1320 H 0.20633 0.59927 0.57431 0.0
H1321 H 0.21232 0.57951 0.48319 0.0
H1322 H 0.16467 0.55461 0.47784 0.0
H1323 H 0.12076 0.54182 0.4982 0.0
H1324 H 0.11388 0.56298 0.58898 0.0
H1325 H 0.16259 0.58376 0.59528 0.0
C1326 C 0.1973 0.58921 0.55334 0.0
C1327 C 0.21279 0.59144 0.52915 0.0
C1328 C 0.16973 0.57535 0.55031 0.0
C1329 C 0.20079 0.5783 0.50213 0.0
C1330 C 0.17354 0.56408 0.49903 0.0
C1331 C 0.12986 0.55074 0.51946 0.0
C1332 C 0.11359 0.55107 0.54303 0.0
C1333 C 0.15771 0.56302 0.52286 0.0
C1334 C 0.12587 0.56257 0.57041 0.0
C1335 C 0.15373 0.57451 0.57404 0.0
H1336 H 0.71037 0.97905 0.80076 0.0
H1337 H 0.70415 0.95762 0.70872 0.0
H1338 H 0.74062 0.93033 0.71245 0.0
H1339 H 0.76911 0.90694 0.742 0.0
H1340 H 0.77094 0.922 0.83437 0.0
H1341 H 0.74228 0.9585 0.83052 0.0
C1342 C 0.71733 0.9687 0.78157 0.0
C1343 C 0.70447 0.96983 0.75457 0.0
C1344 C 0.73761 0.95213 0.78399 0.0
C1345 C 0.71352 0.95647 0.72977 0.0
C1346 C 0.73443 0.94105 0.73187 0.0
C1347 C 0.76385 0.91879 0.76131 0.0
C1348 C 0.77177 0.91172 0.78841 0.0
C1349 C 0.74595 0.93795 0.7589 0.0
C1350 C 0.76493 0.92716 0.81328 0.0
C1351 C 0.74831 0.94772 0.81106 0.0
H1352 H 0.70361 0.96464 0.51028 0.0
H1353 H 0.6585 0.88628 0.54074 0.0
H1354 H 0.6178 0.90737 0.54172 0.0
H1355 H 0.59418 0.94665 0.53156 0.0
H1356 H 0.63706 0.0236 0.49698 0.0
H1357 H 0.67934 0.00474 0.49993 0.0
C1358 C 0.68491 0.95247 0.51744 0.0
C1359 C 0.68406 0.92401 0.52561 0.0
C1360 C 0.66113 0.9644 0.51697 0.0
C1361 C 0.65962 0.90819 0.53437 0.0
C1362 C 0.63633 0.92022 0.5349 0.0
C1363 C 0.61282 0.95943 0.52484 0.0
C1364 C 0.61252 0.98651 0.51413 0.0
C1365 C 0.63671 0.94808 0.52587 0.0
C1366 C 0.63678 0.00267 0.50529 0.0
C1367 C 0.66094 0.99187 0.50698 0.0
H1368 H 0.31421 0.44486 0.70819 0.0
H1369 H 0.39028 0.42619 0.73986 0.0
H1370 H 0.3674 0.37686 0.7483 0.0
H1371 H 0.32518 0.34037 0.75015 0.0
H1372 H 0.24962 0.3572 0.71499 0.0
H1373 H 0.27278 0.40585 0.70455 0.0
C1374 C 0.32574 0.42984 0.71667 0.0
C1375 C 0.35379 0.43921 0.72363 0.0
C1376 C 0.31253 0.40127 0.72106 0.0
C1377 C 0.36864 0.41947 0.73428 0.0
C1378 C 0.35557 0.39129 0.73927 0.0
C1379 C 0.31392 0.35447 0.7397 0.0
C1380 C 0.28579 0.34532 0.73346 0.0
C1381 C 0.32746 0.38214 0.7332 0.0
C1382 C 0.27135 0.36382 0.72004 0.0
C1383 C 0.28455 0.39167 0.71413 0.0
H1384 H 0.19167 0.5758 0.21206 0.0
H1385 H 0.13019 0.60662 0.26076 0.0
H1386 H 0.1576 0.65654 0.26656 0.0
H1387 H 0.1993 0.69113 0.25857 0.0
H1388 H 0.25913 0.662 0.20637 0.0
H1389 H 0.23222 0.61144 0.20113 0.0
C1390 C 0.1843 0.59354 0.22383 0.0
C1391 C 0.15909 0.58765 0.23612 0.0
C1392 C 0.19993 0.62226 0.22659 0.0
C1393 C 0.14949 0.61073 0.25101 0.0
C1394 C 0.1652 0.63919 0.25447 0.0
C1395 C 0.20647 0.67357 0.24625 0.0
C1396 C 0.23126 0.67978 0.23336 0.0
C1397 C 0.1905 0.64512 0.24256 0.0
C1398 C 0.24016 0.65735 0.21669 0.0
C1399 C 0.22478 0.62861 0.21369 0.0
H1400 H 0.54601 0.70586 0.45491 0.0
H1401 H 0.46318 0.67002 0.4221 0.0
H1402 H 0.46086 0.63029 0.45277 0.0
H1403 H 0.48354 0.60351 0.48538 0.0
H1404 H 0.56718 0.63776 0.51635 0.0
H1405 H 0.56773 0.68076 0.49031 0.0
C1406 C 0.52735 0.68951 0.45461 0.0
C1407 C 0.50489 0.69074 0.43598 0.0
C1408 C 0.52628 0.66649 0.47199 0.0
C1409 C 0.48085 0.66946 0.43603 0.0
C1410 C 0.47949 0.64675 0.45359 0.0
C1411 C 0.50182 0.62056 0.4869 0.0
C1412 C 0.52538 0.61722 0.50265 0.0
C1413 C 0.50226 0.64473 0.47119 0.0
C1414 C 0.54879 0.63965 0.50431 0.0
C1415 C 0.54917 0.66419 0.48929 0.0
H1416 H 0.63309 0.2533 0.63854 0.0
H1417 H 0.60238 0.3046 0.70621 0.0
H1418 H 0.64368 0.30652 0.73682 0.0
H1419 H 0.68849 0.29284 0.74451 0.0
H1420 H 0.71775 0.24045 0.6766 0.0
H1421 H 0.67718 0.23993 0.64594 0.0
C1422 C 0.63538 0.265 0.65995 0.0
C1423 C 0.61463 0.27876 0.67003 0.0
C1424 C 0.65901 0.26585 0.67742 0.0
C1425 C 0.61802 0.29377 0.69789 0.0
C1426 C 0.64164 0.29487 0.71542 0.0
C1427 C 0.68593 0.28139 0.72298 0.0
C1428 C 0.70617 0.26689 0.71278 0.0
C1429 C 0.66225 0.28088 0.70545 0.0
C1430 C 0.7026 0.25203 0.68489 0.0
C1431 C 0.67934 0.25162 0.66734 0.0
H1432 H 0.01849 0.33793 0.93329 0.0
H1433 H 0.96733 0.36226 0.867 0.0
H1434 H 0.96754 0.40899 0.89548 0.0
H1435 H 0.98294 0.44343 0.93873 0.0
H1436 H 0.03662 0.4209 0.00363 0.0
H1437 H 0.03457 0.37289 0.97636 0.0
C1438 C 0.00734 0.35344 0.92514 0.0
C1439 C 0.9929 0.3466 0.89808 0.0
C1440 C 0.0079 0.38053 0.94145 0.0
C1441 C 0.97874 0.36704 0.88768 0.0
C1442 C 0.97875 0.39373 0.90401 0.0
C1443 C 0.99388 0.42783 0.94707 0.0
C1444 C 0.00964 0.43547 0.97328 0.0
C1445 C 0.99328 0.40072 0.93088 0.0
C1446 C 0.02426 0.41539 0.98353 0.0
C1447 C 0.02314 0.388 0.96793 0.0
H1448 H 0.95972 0.84045 0.20555 0.0
H1449 H 0.96235 0.74802 0.19586 0.0
H1450 H 0.92033 0.73692 0.22028 0.0
H1451 H 0.88134 0.75299 0.24151 0.0
H1452 H 0.87749 0.84499 0.24934 0.0
H1453 H 0.92168 0.85681 0.22877 0.0
C1454 C 0.95126 0.8179 0.20901 0.0
C1455 C 0.96411 0.79509 0.19874 0.0
C1456 C 0.92686 0.8116 0.22267 0.0
C1457 C 0.95282 0.76599 0.20339 0.0
C1458 C 0.92878 0.75961 0.21735 0.0
C1459 C 0.89036 0.77567 0.23903 0.0
C1460 C 0.87628 0.79811 0.24686 0.0
C1461 C 0.91542 0.78217 0.22667 0.0
C1462 C 0.88804 0.82737 0.24345 0.0
C1463 C 0.91323 0.83411 0.23161 0.0
H1464 H 0.55305 0.35429 0.0787 0.0
H1465 H 0.46561 0.32996 0.07767 0.0
H1466 H 0.46126 0.37033 0.04932 0.0
H1467 H 0.48252 0.41592 0.02916 0.0
H1468 H 0.56988 0.4413 0.03314 0.0
H1469 H 0.57406 0.39696 0.05533 0.0
C1470 C 0.533 0.35758 0.07207 0.0
C1471 C 0.50973 0.33927 0.08066 0.0
C1472 C 0.53064 0.38107 0.05609 0.0
C1473 C 0.48393 0.34383 0.07161 0.0
C1474 C 0.4814 0.36694 0.05535 0.0
C1475 C 0.50239 0.41114 0.0341 0.0
C1476 C 0.52588 0.43156 0.0293 0.0
C1477 C 0.50462 0.38611 0.04797 0.0
C1478 C 0.55156 0.42567 0.03646 0.0
C1479 C 0.55395 0.40047 0.04935 0.0
H1480 H 0.92599 0.24996 0.3919 0.0
H1481 H 0.97739 0.27957 0.32501 0.0
H1482 H 0.93864 0.29164 0.29863 0.0
H1483 H 0.88985 0.29328 0.29437 0.0
H1484 H 0.83897 0.26395 0.36171 0.0
H1485 H 0.8779 0.25278 0.38834 0.0
C1486 C 0.9287 0.25883 0.37144 0.0
C1487 C 0.95448 0.26362 0.36033 0.0
C1488 C 0.90648 0.26615 0.35664 0.0
C1489 C 0.95771 0.27554 0.33398 0.0
C1490 C 0.93559 0.28256 0.31893 0.0
C1491 C 0.88745 0.28483 0.31506 0.0
C1492 C 0.86168 0.27951 0.32614 0.0
C1493 C 0.90989 0.27806 0.3301 0.0
C1494 C 0.85868 0.26829 0.35281 0.0
C1495 C 0.88088 0.26174 0.36797 0.0
H1496 H 0.00697 0.68636 0.60253 0.0
H1497 H 0.94831 0.69225 0.53407 0.0
H1498 H 0.95532 0.64578 0.50962 0.0
H1499 H 0.97942 0.60452 0.507 0.0
H1500 H 0.03904 0.60008 0.57489 0.0
H1501 H 0.03009 0.64499 0.60053 0.0
C1502 C 0.99556 0.6775 0.58231 0.0
C1503 C 0.9772 0.69285 0.57008 0.0
C1504 C 0.99986 0.65106 0.56834 0.0
C1505 C 0.96261 0.68093 0.54391 0.0
C1506 C 0.96663 0.65439 0.52992 0.0
C1507 C 0.99035 0.61338 0.52747 0.0
C1508 C 0.00975 0.59903 0.53918 0.0
C1509 C 0.9854 0.63944 0.54182 0.0
C1510 C 0.0238 0.61061 0.56566 0.0
C1511 C 0.0188 0.63634 0.58022 0.0
H1512 H 0.60692 0.82181 0.82656 0.0
H1513 H 0.59736 0.73589 0.85641 0.0
H1514 H 0.63996 0.72929 0.83631 0.0
H1515 H 0.68138 0.74908 0.81257 0.0
H1516 H 0.69117 0.83565 0.7841 0.0
H1517 H 0.6471 0.84061 0.8011 0.0
C1518 C 0.61401 0.80153 0.82852 0.0
C1519 C 0.59893 0.77947 0.84315 0.0
C1520 C 0.6387 0.79797 0.81717 0.0
C1521 C 0.60854 0.75333 0.8454 0.0
C1522 C 0.63295 0.74952 0.83389 0.0
C1523 C 0.67371 0.76886 0.80974 0.0
C1524 C 0.6897 0.79197 0.79713 0.0
C1525 C 0.6484 0.77184 0.82004 0.0
C1526 C 0.67946 0.81755 0.79386 0.0
C1527 C 0.65421 0.82045 0.80361 0.0
H1528 H 0.4246 0.52092 0.65777 0.0
H1529 H 0.47076 0.60235 0.70196 0.0
H1530 H 0.5031 0.60541 0.66459 0.0
H1531 H 0.51896 0.58439 0.6198 0.0
H1532 H 0.47325 0.50249 0.57632 0.0
H1533 H 0.43999 0.50036 0.61276 0.0
C1534 C 0.44167 0.53941 0.65922 0.0
C1535 C 0.44522 0.56134 0.68274 0.0
C1536 C 0.4603 0.54099 0.63771 0.0
C1537 C 0.46751 0.58511 0.68419 0.0
C1538 C 0.48605 0.5869 0.66279 0.0
C1539 C 0.50165 0.56615 0.61829 0.0
C1540 C 0.49851 0.54371 0.59534 0.0
C1541 C 0.48274 0.56488 0.63954 0.0
C1542 C 0.47603 0.52017 0.59366 0.0
C1543 C 0.45704 0.51887 0.61456 0.0
H1544 H 0.8159 0.16914 0.90846 0.0
H1545 H 0.76305 0.21586 0.95539 0.0
H1546 H 0.75962 0.24578 0.91561 0.0
H1547 H 0.76889 0.2555 0.86555 0.0
H1548 H 0.82394 0.2099 0.82056 0.0
H1549 H 0.82964 0.18304 0.86162 0.0
C1550 C 0.80382 0.18606 0.90999 0.0
C1551 C 0.78941 0.19012 0.93438 0.0
C1552 C 0.80233 0.20331 0.88739 0.0
C1553 C 0.77423 0.2124 0.9366 0.0
C1554 C 0.77221 0.2294 0.91387 0.0
C1555 C 0.78238 0.23998 0.86501 0.0
C1556 C 0.79554 0.23423 0.83997 0.0
C1557 C 0.78575 0.22463 0.88888 0.0
C1558 C 0.81327 0.21438 0.83951 0.0
C1559 C 0.81654 0.19895 0.86294 0.0
H1560 H 0.09466 0.47279 0.14968 0.0
H1561 H 0.03156 0.48954 0.20452 0.0
H1562 H 0.00247 0.49369 0.16263 0.0
H1563 H 0.99694 0.49802 0.11075 0.0
H1564 H 0.05955 0.48076 0.0561 0.0
H1565 H 0.08699 0.47149 0.09743 0.0
C1566 C 0.07442 0.47696 0.15247 0.0
C1567 C 0.0655 0.48128 0.18023 0.0
C1568 C 0.05789 0.4797 0.12832 0.0
C1569 C 0.03908 0.48637 0.18341 0.0
C1570 C 0.02241 0.48883 0.15946 0.0
C1571 C 0.01641 0.49177 0.108 0.0
C1572 C 0.02696 0.4912 0.08088 0.0
C1573 C 0.03189 0.48636 0.13189 0.0
C1574 C 0.05192 0.48279 0.0772 0.0
C1575 C 0.06736 0.47711 0.10073 0.0
H1576 H 0.78348 0.8616 0.4479 0.0
H1577 H 0.70843 0.80084 0.45691 0.0
H1578 H 0.70828 0.77985 0.40705 0.0
H1579 H 0.72924 0.77887 0.36067 0.0
H1580 H 0.80551 0.83785 0.35227 0.0
H1581 H 0.80543 0.85926 0.40199 0.0
C1582 C 0.76708 0.84377 0.43895 0.0
C1583 C 0.74591 0.83293 0.45615 0.0
C1584 C 0.76735 0.83142 0.41032 0.0
C1585 C 0.72501 0.80958 0.44425 0.0
C1586 C 0.72487 0.79759 0.41568 0.0
C1587 C 0.74585 0.79645 0.36968 0.0
C1588 C 0.76729 0.80682 0.35262 0.0
C1589 C 0.7459 0.80837 0.39848 0.0
C1590 C 0.78878 0.82936 0.36485 0.0
C1591 C 0.78871 0.84169 0.3933 0.0
H1592 H 0.45554 0.49059 0.79821 0.0
H1593 H 0.39892 0.5433 0.82864 0.0
H1594 H 0.4114 0.53676 0.87817 0.0
H1595 H 0.43957 0.51773 0.91297 0.0
H1596 H 0.49674 0.46571 0.88298 0.0
H1597 H 0.48245 0.46977 0.83312 0.0
C1598 C 0.44599 0.50073 0.81567 0.0
C1599 C 0.42649 0.51762 0.80969 0.0
C1600 C 0.45313 0.49672 0.84417 0.0
C1601 C 0.41407 0.53029 0.8326 0.0
C1602 C 0.42113 0.5265 0.86095 0.0
C1603 C 0.44858 0.50688 0.89551 0.0
C1604 C 0.46913 0.4914 0.90157 0.0
C1605 C 0.4407 0.50988 0.86699 0.0
C1606 C 0.48079 0.47764 0.87879 0.0
C1607 C 0.47277 0.48015 0.8503 0.0
H1608 H 0.8149 0.2508 0.08629 0.0
H1609 H 0.76651 0.16576 0.09783 0.0
H1610 H 0.75756 0.18407 0.146 0.0
H1611 H 0.76426 0.22327 0.18519 0.0
H1612 H 0.815 0.30759 0.17643 0.0
H1613 H 0.82177 0.29075 0.12649 0.0
C1614 C 0.80242 0.23633 0.09939 0.0
C1615 C 0.79152 0.20693 0.0885 0.0
C1616 C 0.79756 0.24692 0.12739 0.0
C1617 C 0.7754 0.1884 0.10573 0.0
C1618 C 0.7701 0.19888 0.13325 0.0
C1619 C 0.77662 0.23813 0.17232 0.0
C1620 C 0.78911 0.26663 0.18435 0.0
C1621 C 0.78115 0.22798 0.14429 0.0
C1622 C 0.80515 0.28555 0.16749 0.0
C1623 C 0.80913 0.27586 0.13906 0.0
H1624 H 0.11125 0.55696 0.33122 0.0
H1625 H 0.09268 0.46237 0.31351 0.0
H1626 H 0.06682 0.45849 0.35642 0.0
H1627 H 0.05101 0.48223 0.4001 0.0
H1628 H 0.06882 0.57699 0.41621 0.0
H1629 H 0.09326 0.58057 0.37265 0.0
C1630 C 0.10158 0.53549 0.33678 0.0
C1631 C 0.1041 0.51 0.31952 0.0
C1632 C 0.08653 0.53347 0.36112 0.0
C1633 C 0.09106 0.48233 0.32661 0.0
C1634 C 0.07631 0.48009 0.35111 0.0
C1635 C 0.06004 0.5036 0.39383 0.0
C1636 C 0.0583 0.52928 0.4113 0.0
C1637 C 0.07408 0.50553 0.36866 0.0
C1638 C 0.06996 0.5569 0.40305 0.0
C1639 C 0.08402 0.55899 0.37822 0.0
H1640 H 0.77741 0.86921 0.62234 0.0
H1641 H 0.70043 0.81343 0.59139 0.0
H1642 H 0.69913 0.78887 0.63504 0.0
H1643 H 0.71971 0.78281 0.68229 0.0
H1644 H 0.79601 0.83919 0.71416 0.0
H1645 H 0.79754 0.86391 0.67039 0.0
C1646 C 0.76043 0.85159 0.6251 0.0
C1647 C 0.73912 0.84319 0.60339 0.0
C1648 C 0.75955 0.8377 0.65066 0.0
C1649 C 0.71713 0.82048 0.60761 0.0
C1650 C 0.71633 0.80635 0.63265 0.0
C1651 C 0.73662 0.80058 0.67969 0.0
C1652 C 0.75769 0.80908 0.70155 0.0
C1653 C 0.73737 0.81476 0.65438 0.0
C1654 C 0.77943 0.83223 0.6978 0.0
C1655 C 0.78039 0.84633 0.67266 0.0
H1656 H 0.71449 0.49032 0.55632 0.0
H1657 H 0.70874 0.48784 0.46384 0.0
H1658 H 0.67345 0.51695 0.46649 0.0
H1659 H 0.64069 0.53765 0.49438 0.0
H1660 H 0.64371 0.53719 0.58644 0.0
H1661 H 0.68425 0.51542 0.58479 0.0
C1662 C 0.70578 0.49648 0.53677 0.0
C1663 C 0.71393 0.48656 0.50989 0.0
C1664 C 0.68509 0.51272 0.53841 0.0
C1665 C 0.70257 0.49486 0.48477 0.0
C1666 C 0.68243 0.51156 0.48626 0.0
C1667 C 0.65058 0.53338 0.51417 0.0
C1668 C 0.63922 0.53871 0.54047 0.0
C1669 C 0.67302 0.51984 0.51287 0.0
C1670 C 0.65218 0.53322 0.56595 0.0
C1671 C 0.67517 0.52054 0.56496 0.0
H1672 H 0.18258 0.06804 0.47036 0.0
H1673 H 0.17927 0.11252 0.55472 0.0
H1674 H 0.13089 0.09062 0.55471 0.0
H1675 H 0.08922 0.05894 0.5305 0.0
H1676 H 0.09357 0.01074 0.44818 0.0
H1677 H 0.14159 0.03373 0.44758 0.0
C1678 C 0.17118 0.07291 0.48866 0.0
C1679 C 0.18437 0.09198 0.51241 0.0
C1680 C 0.14353 0.05948 0.48891 0.0
C1681 C 0.16954 0.09782 0.53621 0.0
C1682 C 0.14187 0.08536 0.53621 0.0
C1683 C 0.10078 0.05339 0.51255 0.0
C1684 C 0.08786 0.03328 0.4894 0.0
C1685 C 0.12862 0.06614 0.51268 0.0
C1686 C 0.10307 0.02612 0.46632 0.0
C1687 C 0.13052 0.03934 0.4659 0.0
H1688 H 0.1922 0.92502 0.72255 0.0
H1689 H 0.21369 0.95174 0.81276 0.0
H1690 H 0.23952 0.91248 0.81462 0.0
H1691 H 0.25401 0.8686 0.791 0.0
H1692 H 0.22959 0.84072 0.70158 0.0
H1693 H 0.20731 0.88252 0.69894 0.0
C1694 C 0.20265 0.92246 0.74263 0.0
C1695 C 0.2009 0.94137 0.76749 0.0
C1696 C 0.2171 0.89959 0.74364 0.0
C1697 C 0.21456 0.93749 0.7933 0.0
C1698 C 0.22939 0.91504 0.79437 0.0
C1699 C 0.24427 0.8721 0.77084 0.0
C1700 C 0.24368 0.85178 0.74641 0.0
C1701 C 0.23062 0.89575 0.76972 0.0
C1702 C 0.23042 0.85613 0.7206 0.0
C1703 C 0.21757 0.87996 0.71912 0.0
H1704 H 0.33669 0.95861 0.96896 0.0
H1705 H 0.33663 0.99272 0.058 0.0
H1706 H 0.38415 0.01732 0.0575 0.0
H1707 H 0.42609 0.0258 0.03313 0.0
H1708 H 0.42742 0.98951 0.94495 0.0
H1709 H 0.37852 0.96943 0.94362 0.0
C1710 C 0.34697 0.97168 0.9882 0.0
C1711 C 0.33324 0.97366 0.01359 0.0
C1712 C 0.37439 0.98525 0.98791 0.0
C1713 C 0.34682 0.99067 0.03829 0.0
C1714 C 0.37396 0.00473 0.038 0.0
C1715 C 0.41578 0.01365 0.01347 0.0
C1716 C 0.43047 0.00881 0.98926 0.0
C1717 C 0.38802 0.00163 0.01313 0.0
C1718 C 0.41661 0.99341 0.96392 0.0
C1719 C 0.3887 0.98184 0.9632 0.0
H1720 H 0.81723 0.59079 0.74019 0.0
H1721 H 0.85309 0.61656 0.82677 0.0
H1722 H 0.82573 0.65409 0.83319 0.0
H1723 H 0.79509 0.68243 0.81295 0.0
H1724 H 0.76115 0.65942 0.72558 0.0
H1725 H 0.7837 0.61727 0.72096 0.0
C1726 C 0.81891 0.60447 0.76053 0.0
C1727 C 0.83743 0.60115 0.78283 0.0
C1728 C 0.80337 0.62633 0.76397 0.0
C1729 C 0.83925 0.61892 0.80912 0.0
C1730 C 0.82355 0.64031 0.81287 0.0
C1731 C 0.79223 0.66787 0.79305 0.0
C1732 C 0.77672 0.67398 0.76955 0.0
C1733 C 0.80601 0.64458 0.79026 0.0
C1734 C 0.77303 0.655 0.74394 0.0
C1735 C 0.7861 0.63113 0.74123 0.0
H1736 H 0.83271 0.58478 0.01461 0.0
H1737 H 0.8576 0.61903 0.93561 0.0
H1738 H 0.89642 0.59487 0.93657 0.0
H1739 H 0.92427 0.56502 0.96043 0.0
H1740 H 0.89928 0.53009 0.03898 0.0
H1741 H 0.85959 0.55314 0.03744 0.0
C1742 C 0.84662 0.58697 0.9976 0.0
C1743 C 0.8422 0.6039 0.97515 0.0
C1744 C 0.86892 0.57273 0.99812 0.0
C1745 C 0.86039 0.60621 0.95318 0.0
C1746 C 0.88267 0.59237 0.95369 0.0
C1747 C 0.90997 0.56222 0.97705 0.0
C1748 C 0.91472 0.54584 0.99978 0.0
C1749 C 0.88723 0.57567 0.97609 0.0
C1750 C 0.89606 0.54249 0.0212 0.0
C1751 C 0.8734 0.55579 0.0204 0.0
H1752 H 0.22443 0.09011 0.79475 0.0
H1753 H 0.15122 0.12237 0.77725 0.0
H1754 H 0.17795 0.17171 0.77518 0.0
H1755 H 0.22238 0.2051 0.77497 0.0
H1756 H 0.29568 0.17253 0.79027 0.0
H1757 H 0.26883 0.12412 0.79667 0.0
C1758 C 0.21434 0.10803 0.79085 0.0
C1759 C 0.1859 0.10251 0.78603 0.0
C1760 C 0.2299 0.13632 0.78908 0.0
C1761 C 0.17312 0.12595 0.78082 0.0
C1762 C 0.18838 0.15421 0.77961 0.0
C1763 C 0.23239 0.18747 0.78003 0.0
C1764 C 0.26088 0.19227 0.78212 0.0
C1765 C 0.21681 0.15955 0.78318 0.0
C1766 C 0.27371 0.16926 0.7885 0.0
C1767 C 0.25838 0.14158 0.79214 0.0
H1768 H 0.34754 0.96442 0.2853 0.0
H1769 H 0.35598 0.95702 0.19375 0.0
H1770 H 0.32881 0.90709 0.1889 0.0
H1771 H 0.30358 0.8654 0.21066 0.0
H1772 H 0.29584 0.87223 0.30233 0.0
H1773 H 0.32156 0.92286 0.307 0.0
C1774 C 0.34352 0.95188 0.26427 0.0
C1775 C 0.35389 0.9644 0.23993 0.0
C1776 C 0.32784 0.92323 0.26161 0.0
C1777 C 0.34835 0.94789 0.21285 0.0
C1778 C 0.33273 0.91937 0.21004 0.0
C1779 C 0.3072 0.878 0.23166 0.0
C1780 C 0.29776 0.86501 0.25611 0.0
C1781 C 0.32241 0.90684 0.23427 0.0
C1782 C 0.30288 0.88167 0.28315 0.0
C1783 C 0.31767 0.91059 0.28586 0.0
H1784 H 0.51563 0.34685 0.57881 0.0
H1785 H 0.6031 0.37372 0.58857 0.0
H1786 H 0.60057 0.41804 0.56565 0.0
H1787 H 0.57342 0.4508 0.54618 0.0
H1788 H 0.48585 0.42441 0.53738 0.0
H1789 H 0.48865 0.37809 0.55631 0.0
C1790 C 0.53419 0.36226 0.57574 0.0
C1791 C 0.55951 0.35706 0.58568 0.0
C1792 C 0.53259 0.38784 0.56278 0.0
C1793 C 0.58333 0.3772 0.58129 0.0
C1794 C 0.5819 0.40259 0.56821 0.0
C1795 C 0.5549 0.43484 0.54809 0.0
C1796 C 0.52943 0.44131 0.54057 0.0
C1797 C 0.55661 0.40839 0.55937 0.0
C1798 C 0.50573 0.42017 0.54307 0.0
C1799 C 0.5073 0.39367 0.554 0.0
H1800 H 0.39971 0.77272 0.34897 0.0
H1801 H 0.42664 0.70666 0.29317 0.0
H1802 H 0.39001 0.70774 0.25697 0.0
H1803 H 0.35023 0.72824 0.24121 0.0
H1804 H 0.32705 0.79725 0.29679 0.0
H1805 H 0.36222 0.79421 0.33295 0.0
C1806 C 0.39747 0.75834 0.329 0.0
C1807 C 0.41563 0.73943 0.32385 0.0
C1808 C 0.37703 0.7597 0.30817 0.0
C1809 C 0.41278 0.72135 0.29763 0.0
C1810 C 0.39189 0.72201 0.27694 0.0
C1811 C 0.35303 0.7426 0.26121 0.0
C1812 C 0.3357 0.76251 0.26653 0.0
C1813 C 0.37392 0.74125 0.28192 0.0
C1814 C 0.33977 0.78133 0.29234 0.0
C1815 C 0.35993 0.77969 0.31309 0.0
H1816 H 0.0519 0.71157 0.10088 0.0
H1817 H 0.97552 0.71023 0.05395 0.0
H1818 H 0.9764 0.66169 0.02994 0.0
H1819 H 0.99719 0.61869 0.02435 0.0
H1820 H 0.07325 0.61888 0.07123 0.0
H1821 H 0.07432 0.66914 0.09294 0.0
C1822 C 0.03553 0.70077 0.08524 0.0
C1823 C 0.01352 0.71448 0.07944 0.0
C1824 C 0.03607 0.67269 0.07158 0.0
C1825 C 0.99261 0.70021 0.05897 0.0
C1826 C 0.99308 0.6724 0.04524 0.0
C1827 C 0.01411 0.62966 0.03927 0.0
C1828 C 0.03495 0.61486 0.04645 0.0
C1829 C 0.01444 0.65828 0.05174 0.0
C1830 C 0.05692 0.62971 0.06539 0.0
C1831 C 0.05746 0.6584 0.07788 0.0
H1832 H 0.09691 0.30875 0.85763 0.0
H1833 H 0.05369 0.22678 0.81202 0.0
H1834 H 0.09466 0.22079 0.78785 0.0
H1835 H 0.14351 0.23855 0.78061 0.0
H1836 H 0.18534 0.32154 0.82554 0.0
H1837 H 0.14432 0.32732 0.84904 0.0
C1838 C 0.0964 0.28959 0.84235 0.0
C1839 C 0.07234 0.2682 0.83676 0.0
C1840 C 0.11988 0.2864 0.82845 0.0
C1841 C 0.07196 0.24363 0.81668 0.0
C1842 C 0.09542 0.24013 0.80292 0.0
C1843 C 0.14351 0.25785 0.79551 0.0
C1844 C 0.16739 0.27953 0.80141 0.0
C1845 C 0.1196 0.26129 0.80879 0.0
C1846 C 0.16717 0.30456 0.82061 0.0
C1847 C 0.14373 0.3079 0.83411 0.0
H1848 H 0.54637 0.71201 0.9909 0.0
H1849 H 0.49457 0.67899 0.91383 0.0
H1850 H 0.48488 0.63007 0.92992 0.0
H1851 H 0.49327 0.59597 0.96419 0.0
H1852 H 0.54581 0.62844 0.04088 0.0
H1853 H 0.55269 0.67821 0.02671 0.0
C1854 C 0.53281 0.69418 0.97771 0.0
C1855 C 0.52142 0.69922 0.95107 0.0
C1856 C 0.52742 0.66593 0.98699 0.0
C1857 C 0.50379 0.6758 0.93434 0.0
C1858 C 0.4982 0.64775 0.94352 0.0
C1859 C 0.50596 0.61392 0.97807 0.0
C1860 C 0.51904 0.60828 0.00356 0.0
C1861 C 0.51021 0.64247 0.96959 0.0
C1862 C 0.53543 0.63199 0.02116 0.0
C1863 C 0.53951 0.66052 0.013 0.0
H1864 H 0.08872 0.74187 0.62715 0.0
H1865 H 0.05627 0.77395 0.70486 0.0
H1866 H 0.09588 0.76626 0.73317 0.0
H1867 H 0.14056 0.75221 0.73559 0.0
H1868 H 0.1735 0.72182 0.65764 0.0
H1869 H 0.13254 0.72653 0.62967 0.0
C1870 C 0.09027 0.74723 0.65028 0.0
C1871 C 0.06962 0.75867 0.66383 0.0
C1872 C 0.11306 0.74278 0.66639 0.0
C1873 C 0.07192 0.76527 0.69386 0.0
C1874 C 0.09453 0.76079 0.71008 0.0
C1875 C 0.13854 0.74618 0.71253 0.0
C1876 C 0.15987 0.73655 0.69863 0.0
C1877 C 0.11527 0.7497 0.69655 0.0
C1878 C 0.15723 0.72916 0.66876 0.0
C1879 C 0.13392 0.73202 0.65277 0.0
H1880 H 0.05597 0.35173 0.47427 0.0
H1881 H 0.98997 0.36218 0.41649 0.0
H1882 H 0.9909 0.41106 0.44056 0.0
H1883 H 0.00842 0.4496 0.47933 0.0
H1884 H 0.07181 0.43896 0.54022 0.0
H1885 H 0.07414 0.39153 0.51367 0.0
C1886 C 0.04205 0.36493 0.4669 0.0
C1887 C 0.02291 0.35344 0.44372 0.0
C1888 C 0.04213 0.39286 0.48147 0.0
C1889 C 0.00474 0.37052 0.43445 0.0
C1890 C 0.00527 0.39848 0.44815 0.0
C1891 C 0.02291 0.43703 0.48671 0.0
C1892 C 0.03989 0.44763 0.51166 0.0
C1893 C 0.02356 0.40966 0.47189 0.0
C1894 C 0.05847 0.43108 0.52106 0.0
C1895 C 0.05977 0.40401 0.5059 0.0
H1896 H 0.40649 0.21281 0.194 0.0
H1897 H 0.43009 0.30614 0.18828 0.0
H1898 H 0.38871 0.31408 0.21022 0.0
H1899 H 0.34432 0.2942 0.228 0.0
H1900 H 0.32043 0.20068 0.23272 0.0
H1901 H 0.36344 0.19332 0.21446 0.0
C1902 C 0.40274 0.23494 0.19776 0.0
C1903 C 0.42137 0.25879 0.18927 0.0
C1904 C 0.37873 0.23936 0.21014 0.0
C1905 C 0.41612 0.28732 0.19446 0.0
C1906 C 0.3924 0.2919 0.20699 0.0
C1907 C 0.34862 0.27224 0.22539 0.0
C1908 C 0.32897 0.24805 0.2316 0.0
C1909 C 0.37333 0.26804 0.21448 0.0
C1910 C 0.335 0.21975 0.22799 0.0
C1911 C 0.35963 0.21546 0.21748 0.0
H1912 H 0.63361 0.5516 0.39704 0.0
H1913 H 0.59757 0.4676 0.35019 0.0
H1914 H 0.56214 0.4602 0.3844 0.0
H1915 H 0.54096 0.4782 0.42769 0.0
H1916 H 0.57641 0.56375 0.47185 0.0
H1917 H 0.61245 0.56975 0.43889 0.0
C1918 C 0.61813 0.53156 0.39434 0.0
C1919 C 0.61836 0.51017 0.37113 0.0
C1920 C 0.59764 0.52769 0.41373 0.0
C1921 C 0.59791 0.48447 0.36788 0.0
C1922 C 0.57761 0.48022 0.38743 0.0
C1923 C 0.55661 0.49809 0.43001 0.0
C1924 C 0.5563 0.52019 0.45259 0.0
C1925 C 0.57717 0.50177 0.41042 0.0
C1926 C 0.57652 0.54603 0.45514 0.0
C1927 C 0.5971 0.54962 0.43616 0.0
H1928 H 0.23553 0.85334 0.05619 0.0
H1929 H 0.32039 0.85622 0.04327 0.0
H1930 H 0.32315 0.82466 0.08149 0.0
H1931 H 0.30215 0.79886 0.1207 0.0
H1932 H 0.2174 0.79635 0.13368 0.0
H1933 H 0.21377 0.8247 0.09302 0.0
C1934 C 0.25461 0.84701 0.0617 0.0
C1935 C 0.27778 0.85737 0.04715 0.0
C1936 C 0.25603 0.82879 0.08361 0.0
C1937 C 0.30227 0.84865 0.05425 0.0
C1938 C 0.30387 0.83059 0.07609 0.0
C1939 C 0.28281 0.8041 0.11426 0.0
C1940 C 0.26011 0.79569 0.13012 0.0
C1941 C 0.28098 0.82082 0.09116 0.0
C1942 C 0.23516 0.80266 0.12173 0.0
C1943 C 0.2331 0.819 0.0986 0.0
H1944 H 0.96664 0.57735 0.86222 0.0
H1945 H 0.95065 0.48286 0.84261 0.0
H1946 H 0.97971 0.47865 0.88443 0.0
H1947 H 0.00719 0.50129 0.92792 0.0
H1948 H 0.02567 0.59556 0.94746 0.0
H1949 H 0.99827 0.60063 0.90397 0.0
C1950 C 0.96971 0.55592 0.86709 0.0
C1951 C 0.95635 0.53042 0.84962 0.0
C1952 C 0.98681 0.55367 0.89098 0.0
C1953 C 0.96072 0.50278 0.85578 0.0
C1954 C 0.97726 0.50032 0.8797 0.0
C1955 C 0.00542 0.52296 0.92241 0.0
C1956 C 0.01806 0.54805 0.94059 0.0
C1957 C 0.99003 0.52555 0.89759 0.0
C1958 C 0.01607 0.57605 0.93342 0.0
C1959 C 1.00032 0.57887 0.90877 0.0
H1960 H 0.21577 0.18901 0.58208 0.0
H1961 H 0.30177 0.19455 0.57417 0.0
H1962 H 0.31116 0.21621 0.62407 0.0
H1963 H 0.2951 0.23308 0.66993 0.0
H1964 H 0.20905 0.22631 0.67876 0.0
H1965 H 0.19958 0.20541 0.62856 0.0
C1966 C 0.23659 0.19515 0.59121 0.0
C1967 C 0.25806 0.19031 0.57432 0.0
C1968 C 0.24183 0.20718 0.62013 0.0
C1969 C 0.28487 0.19804 0.58665 0.0
C1970 C 0.29026 0.21041 0.6152 0.0
C1971 C 0.27422 0.2271 0.66097 0.0
C1972 C 0.25283 0.2314 0.67822 0.0
C1973 C 0.26891 0.21497 0.63216 0.0
C1974 C 0.22594 0.22323 0.66611 0.0
C1975 C 0.2205 0.21134 0.63734 0.0
H1976 H 0.63657 0.5355 0.21159 0.0
H1977 H 0.56246 0.48346 0.2373 0.0
H1978 H 0.53837 0.49036 0.19293 0.0
H1979 H 0.53854 0.50958 0.14646 0.0
H1980 H 0.61183 0.56198 0.11985 0.0
H1981 H 0.63611 0.55692 0.16529 0.0
C1982 C 0.61516 0.52563 0.20743 0.0
C1983 C 0.60137 0.50875 0.22762 0.0
C1984 C 0.60132 0.5299 0.18189 0.0
C1985 C 0.57356 0.49646 0.22212 0.0
C1986 C 0.55976 0.5004 0.19676 0.0
C1987 C 0.55981 0.5201 0.15066 0.0
C1988 C 0.57348 0.53603 0.1299 0.0
C1989 C 0.57347 0.5169 0.17649 0.0
C1990 C 0.60092 0.5497 0.13563 0.0
C1991 C 0.61479 0.54664 0.16149 0.0
H1992 H 0.22801 0.80542 0.9286 0.0
H1993 H 0.27493 0.88657 0.90477 0.0
H1994 H 0.28137 0.86199 0.85829 0.0
H1995 H 0.27208 0.81857 0.82363 0.0
H1996 H 0.22298 0.73776 0.84499 0.0
H1997 H 0.2196 0.76089 0.89361 0.0
C1998 C 0.23969 0.81765 0.91324 0.0
C1999 C 0.25077 0.84781 0.92008 0.0
C2000 C 0.24313 0.80344 0.88627 0.0
C2001 C 0.26593 0.86339 0.9 0.0
C2002 C 0.26977 0.84936 0.87342 0.0
C2003 C 0.26084 0.80588 0.83899 0.0
C2004 C 0.24764 0.77664 0.83083 0.0
C2005 C 0.25825 0.81953 0.86627 0.0
C2006 C 0.23326 0.7604 0.85091 0.0
C2007 C 0.2312 0.77365 0.87858 0.0
H2008 H 0.94221 0.52235 0.72275 0.0
H2009 H 0.95479 0.61608 0.71844 0.0
H2010 H 0.98169 0.61132 0.67673 0.0
H2011 H 1.00033 0.58017 0.64062 0.0
H2012 H 0.98794 0.4866 0.64555 0.0
H2013 H 0.96246 0.4917 0.68824 0.0
C2014 C 0.95077 0.54177 0.71268 0.0
C2015 C 0.94629 0.5695 0.72349 0.0
C2016 C 0.96636 0.5389 0.68898 0.0
C2017 C 0.95786 0.59447 0.71044 0.0
C2018 C 0.97325 0.59177 0.68663 0.0
C2019 C 0.99229 0.56098 0.65127 0.0
C2020 C 0.99592 0.53305 0.64006 0.0
C2021 C 0.97751 0.56406 0.67565 0.0
C2022 C 0.98541 0.50832 0.65391 0.0
C2023 C 0.97075 0.51121 0.6782 0.0
H2024 H 0.22286 0.16183 0.38922 0.0
H2025 H 0.29825 0.20724 0.43475 0.0
H2026 H 0.30727 0.23899 0.39612 0.0
H2027 H 0.29337 0.25406 0.34887 0.0
H2028 H 0.21678 0.20878 0.30555 0.0
H2029 H 0.2089 0.17686 0.34346 0.0
C2030 C 0.24132 0.17862 0.39079 0.0
C2031 C 0.25981 0.18203 0.41494 0.0
C2032 C 0.2463 0.19686 0.36863 0.0
C2033 C 0.28357 0.20409 0.41647 0.0
C2034 C 0.28877 0.22227 0.39433 0.0
C2035 C 0.27505 0.23714 0.34777 0.0
C2036 C 0.25599 0.23356 0.32399 0.0
C2037 C 0.27026 0.2189 0.37022 0.0
C2038 C 0.23217 0.21171 0.32312 0.0
C2039 C 0.22747 0.19348 0.34498 0.0
H2040 H 0.3364 0.55806 0.46448 0.0
H2041 H 0.35114 0.60637 0.54902 0.0
H2042 H 0.38815 0.58162 0.55977 0.0
H2043 H 0.41842 0.5494 0.54422 0.0
H2044 H 0.40691 0.50351 0.45877 0.0
H2045 H 0.36607 0.52354 0.44951 0.0
C2046 C 0.34762 0.56298 0.48529 0.0
C2047 C 0.3412 0.58424 0.5058 0.0
C2048 C 0.36932 0.549 0.49122 0.0
C2049 C 0.35589 0.5904 0.5327 0.0
C2050 C 0.37699 0.57616 0.53895 0.0
C2051 C 0.40673 0.54337 0.5237 0.0
C2052 C 0.41559 0.5251 0.50217 0.0
C2053 C 0.38414 0.55584 0.51823 0.0
C2054 C 0.40035 0.5175 0.47569 0.0
C2055 C 0.37717 0.52914 0.47034 0.0
H2056 H 0.84103 0.96967 0.54345 0.0
H2057 H 0.85928 0.8894 0.50257 0.0
H2058 H 0.90575 0.91442 0.49758 0.0
H2059 H 0.9419 0.95845 0.50586 0.0
H2060 H 0.92525 0.03861 0.54828 0.0
H2061 H 0.87765 0.0145 0.55128 0.0
C2062 C 0.85517 0.95771 0.5334 0.0
C2063 C 0.84653 0.92759 0.52354 0.0
C2064 C 0.88224 0.97224 0.53075 0.0
C2065 C 0.86523 0.91249 0.51057 0.0
C2066 C 0.89191 0.9268 0.50759 0.0
C2067 C 0.92782 0.97074 0.51556 0.0
C2068 C 0.9371 0.00029 0.52682 0.0
C2069 C 0.9007 0.95659 0.51773 0.0
C2070 C 0.9186 0.01583 0.53944 0.0
C2071 C 0.89139 0.00202 0.54124 0.0
H2072 H 0.81473 0.08947 0.21861 0.0
H2073 H 0.87304 0.1279 0.28943 0.0
H2074 H 0.84814 0.16673 0.30014 0.0
H2075 H 0.81207 0.19177 0.2881 0.0
H2076 H 0.75439 0.15691 0.21609 0.0
H2077 H 0.7762 0.1143 0.20773 0.0
C2078 C 0.82183 0.10626 0.23645 0.0
C2079 C 0.84597 0.10583 0.25297 0.0
C2080 C 0.80744 0.12909 0.24244 0.0
C2081 C 0.85481 0.12775 0.27609 0.0
C2082 C 0.8405 0.14999 0.28237 0.0
C2083 C 0.804 0.17477 0.27066 0.0
C2084 C 0.78172 0.17767 0.25263 0.0
C2085 C 0.81711 0.15113 0.26548 0.0
C2086 C 0.7714 0.15516 0.23043 0.0
C2087 C 0.78408 0.13096 0.22547 0.0
H2088 H 0.68989 0.13045 0.05146 0.0
H2089 H 0.70886 0.08985 0.97039 0.0
H2090 H 0.66183 0.06242 0.96205 0.0
H2091 H 0.61484 0.05156 0.97728 0.0
H2092 H 0.59731 0.09163 0.05945 0.0
H2093 H 0.6443 0.11752 0.06786 0.0
C2094 C 0.68374 0.11558 0.03196 0.0
C2095 C 0.70262 0.11237 0.01144 0.0
C2096 C 0.65693 0.09979 0.0275 0.0
C2097 C 0.69457 0.09267 0.9865 0.0
C2098 C 0.66771 0.07707 0.98169 0.0
C2099 C 0.62136 0.06588 0.99704 0.0
C2100 C 0.60251 0.06978 0.01756 0.0
C2101 C 0.64863 0.08069 0.00195 0.0
C2102 C 0.61133 0.08817 0.04323 0.0
C2103 C 0.63823 0.10311 0.04809 0.0
H2104 H 0.20497 0.44676 0.22119 0.0
H2105 H 0.20008 0.46049 0.31296 0.0
H2106 H 0.22943 0.42539 0.31988 0.0
H2107 H 0.25133 0.3861 0.29924 0.0
H2108 H 0.25608 0.37264 0.2074 0.0
H2109 H 0.23268 0.41294 0.20115 0.0
C2110 C 0.21059 0.44226 0.24269 0.0
C2111 C 0.20001 0.45563 0.26647 0.0
C2112 C 0.22754 0.42222 0.24651 0.0
C2113 C 0.20785 0.4502 0.29429 0.0
C2114 C 0.2246 0.43014 0.29827 0.0
C2115 C 0.24795 0.39262 0.27798 0.0
C2116 C 0.25502 0.37629 0.25381 0.0
C2117 C 0.23392 0.41539 0.27447 0.0
C2118 C 0.25061 0.38486 0.22634 0.0
C2119 C 0.23703 0.40772 0.2227 0.0
H2120 H 0.20673 0.45944 0.05362 0.0
H2121 H 0.21159 0.4539 0.96158 0.0
H2122 H 0.17334 0.4784 0.95704 0.0
H2123 H 0.13723 0.49977 0.97865 0.0
H2124 H 0.13189 0.50605 0.07046 0.0
H2125 H 0.1716 0.48328 0.07565 0.0
C2126 C 0.19948 0.46369 0.0326 0.0
C2127 C 0.21206 0.45462 0.00799 0.0
C2128 C 0.17736 0.47803 0.03006 0.0
C2129 C 0.20241 0.46052 0.98093 0.0
C2130 C 0.18045 0.47456 0.97826 0.0
C2131 C 0.14493 0.49644 0.99983 0.0
C2132 C 0.13167 0.50461 0.02413 0.0
C2133 C 0.16764 0.48321 0.0026 0.0
C2134 C 0.14185 0.5001 0.05142 0.0
C2135 C 0.16447 0.48693 0.05437 0.0
H2136 H 0.79572 0.93055 0.1866 0.0
H2137 H 0.85452 0.94573 0.25946 0.0
H2138 H 0.83499 0.89793 0.27437 0.0
H2139 H 0.80036 0.85225 0.26771 0.0
H2140 H 0.7409 0.83723 0.19565 0.0
H2141 H 0.76147 0.88437 0.1795 0.0
C2142 C 0.8043 0.92336 0.20567 0.0
C2143 C 0.82646 0.94181 0.22189 0.0
C2144 C 0.7928 0.89584 0.21437 0.0
C2145 C 0.83732 0.93211 0.24662 0.0
C2146 C 0.82621 0.90472 0.25519 0.0
C2147 C 0.79207 0.85925 0.24837 0.0
C2148 C 0.7692 0.8414 0.23289 0.0
C2149 C 0.80383 0.88648 0.23937 0.0
C2150 C 0.75848 0.85074 0.20798 0.0
C2151 C 0.77023 0.87766 0.19872 0.0
H2152 H 0.70125 0.07505 0.73547 0.0
H2153 H 0.66336 0.08184 0.65253 0.0
H2154 H 0.69439 0.12899 0.64986 0.0
H2155 H 0.72961 0.16993 0.67316 0.0
H2156 H 0.76704 0.16247 0.75628 0.0
H2157 H 0.73915 0.11346 0.7565 0.0
C2158 C 0.69979 0.08685 0.71679 0.0
C2159 C 0.6798 0.0754 0.69447 0.0
C2160 C 0.71769 0.11363 0.71535 0.0
C2161 C 0.6785 0.09046 0.67009 0.0
C2162 C 0.69622 0.11735 0.66855 0.0
C2163 C 0.7321 0.15733 0.69102 0.0
C2164 C 0.75014 0.16993 0.71481 0.0
C2165 C 0.71561 0.12935 0.6913 0.0
C2166 C 0.75309 0.15336 0.73783 0.0
C2167 C 0.73708 0.12539 0.73806 0.0
loop_
_geom_bond_atom_site_label_1
_geom_bond_atom_site_label_2
_geom_bond_distance
_geom_bond_site_symmetry_2
_ccdc_geom_bond_type
C0 O1 1.160 . S
C0 O7 1.185 . S
O1 C0 1.160 . S
O2 Zn3 1.899 . S
O2 C10 1.284 . S
Zn3 O2 1.899 . S
Zn3 O4 2.032 . S
Zn3 O7 2.086 . S
Zn3 O12 1.977 1_455 S
O4 Zn3 2.032 . S
O4 C8 1.278 . S
C5 O6 1.203 . S
C5 O12 1.267 . S
O6 C5 1.203 . S
O7 C0 1.185 . S
O7 Zn3 2.086 . S
C8 O4 1.278 . S
C8 O9 1.230 . S
O9 C8 1.230 . S
C10 O2 1.284 . S
C10 O11 1.273 . S
O11 C10 1.273 . S
O12 Zn3 1.977 1_655 S
O12 C5 1.267 . S
C13 O14 1.160 . S
C13 O20 1.185 . S
O14 C13 1.160 . S
O15 Zn16 1.900 . S
O15 C23 1.283 . S
Zn16 O15 1.900 . S
Zn16 O17 2.032 1_455 S
Zn16 O20 2.086 1_455 S
Zn16 O25 1.977 . S
O17 Zn16 2.032 1_655 S
O17 C21 1.278 1_655 S
C18 O19 1.203 . S
C18 O25 1.267 . S
O19 C18 1.203 . S
O20 C13 1.185 . S
O20 Zn16 2.086 1_655 S
C21 O17 1.278 1_455 S
C21 O22 1.211 . S
O22 C21 1.211 . S
C23 O15 1.283 . S
C23 O24 1.273 . S
O24 C23 1.273 . S
O25 Zn16 1.977 . S
O25 C18 1.267 . S
C26 O27 1.160 . S
C26 O33 1.185 . S
O27 C26 1.160 . S
O28 Zn29 1.899 . S
O28 C36 1.284 . S
Zn29 O28 1.899 . S
Zn29 O30 2.032 . S
Zn29 O33 2.086 . S
Zn29 O38 1.977 . S
O30 Zn29 2.032 . S
O30 C34 1.278 . S
C31 O32 1.203 . S
C31 O38 1.267 . S
O32 C31 1.203 . S
O33 C26 1.185 . S
O33 Zn29 2.086 . S
C34 O30 1.278 . S
C34 O35 1.211 . S
O35 C34 1.211 . S
C36 O28 1.284 . S
C36 O37 1.273 . S
O37 C36 1.273 . S
O38 Zn29 1.977 . S
O38 C31 1.267 . S
C39 O40 1.160 . S
C39 O46 1.185 . S
O40 C39 1.160 . S
O41 Zn42 1.899 . S
O41 C49 1.284 . S
Zn42 O41 1.899 . S
Zn42 O43 2.032 . S
Zn42 O46 2.086 . S
Zn42 O51 1.977 . S
O43 Zn42 2.032 . S
O43 C47 1.278 . S
C44 O45 1.203 . S
C44 O51 1.267 . S
O45 C44 1.203 . S
O46 C39 1.185 . S
O46 Zn42 2.086 . S
C47 O43 1.278 . S
C47 O48 1.211 . S
O48 C47 1.211 . S
C49 O41 1.284 . S
C49 O50 1.273 . S
O50 C49 1.273 . S
O51 Zn42 1.977 . S
O51 C44 1.267 . S
C52 O53 1.160 . S
C52 O59 1.195 . S
O53 C52 1.160 . S
O54 Zn55 1.899 . S
O54 C62 1.284 . S
Zn55 O54 1.899 . S
Zn55 O56 2.032 . S
Zn55 O59 2.078 1_455 S
Zn55 O64 1.977 . S
O56 Zn55 2.032 . S
O56 C60 1.278 . S
C57 O58 1.203 . S
C57 O64 1.267 . S
O58 C57 1.203 . S
O59 C52 1.195 . S
O59 Zn55 2.078 1_655 S
C60 O56 1.278 . S
C60 O61 1.211 . S
O61 C60 1.211 . S
C62 O54 1.284 . S
C62 O63 1.273 . S
O63 C62 1.273 . S
O64 Zn55 1.977 . S
O64 C57 1.267 . S
C65 O66 1.160 . S
C65 O72 1.185 . S
O66 C65 1.160 . S
O67 Zn68 1.899 . S
O67 C75 1.284 . S
Zn68 O67 1.899 . S
Zn68 O69 2.032 . S
Zn68 O72 2.086 . S
Zn68 O77 1.977 . S
O69 Zn68 2.032 . S
O69 C73 1.278 . S
C70 O71 1.203 . S
C70 O77 1.267 . S
O71 C70 1.203 . S
O72 C65 1.185 . S
O72 Zn68 2.086 . S
C73 O69 1.278 . S
C73 O74 1.211 . S
O74 C73 1.211 . S
C75 O67 1.284 . S
C75 O76 1.273 . S
O76 C75 1.273 . S
O77 Zn68 1.977 . S
O77 C70 1.267 . S
C78 O79 1.160 . S
C78 O85 1.185 . S
O79 C78 1.160 . S
O80 Zn81 1.899 . S
O80 C88 1.284 . S
Zn81 O80 1.899 . S
Zn81 O82 2.032 . S
Zn81 O85 2.086 . S
Zn81 O90 1.977 . S
O82 Zn81 2.032 . S
O82 C86 1.278 . S
C83 O84 1.203 . S
C83 O90 1.267 . S
O84 C83 1.203 . S
O85 C78 1.185 . S
O85 Zn81 2.086 . S
C86 O82 1.278 . S
C86 O87 1.211 . S
O87 C86 1.211 . S
C88 O80 1.284 . S
C88 O89 1.273 . S
O89 C88 1.273 . S
O90 Zn81 1.977 . S
O90 C83 1.267 . S
C91 O92 1.160 . S
C91 O98 1.185 . S
O92 C91 1.160 . S
O93 Zn94 1.899 . S
O93 C101 1.284 1_455 S
Zn94 O93 1.899 . S
Zn94 O95 2.032 . S
Zn94 O98 2.086 . S
Zn94 O103 1.977 1_455 S
O95 Zn94 2.032 . S
O95 C99 1.278 . S
C96 O97 1.203 . S
C96 O103 1.267 . S
O97 C96 1.203 . S
O98 C91 1.185 . S
O98 Zn94 2.086 . S
C99 O95 1.278 . S
C99 O100 1.211 1_455 S
O100 C99 1.211 1_655 S
C101 O93 1.284 1_655 S
C101 O102 1.273 . S
O102 C101 1.273 . S
O103 Zn94 1.977 1_655 S
O103 C96 1.267 . S
C104 O105 1.160 . S
C104 O111 1.185 . S
O105 C104 1.160 . S
O106 Zn107 1.899 . S
O106 C114 1.284 . S
Zn107 O106 1.899 . S
Zn107 O108 2.032 . S
Zn107 O111 2.086 . S
Zn107 O116 1.977 1_545 S
O108 Zn107 2.032 . S
O108 C112 1.278 . S
C109 O110 1.203 . S
C109 O116 1.267 . S
O110 C109 1.203 . S
O111 C104 1.185 . S
O111 Zn107 2.086 . S
C112 O108 1.278 . S
C112 O113 1.211 1_545 S
O113 C112 1.211 1_565 S
C114 O106 1.284 . S
C114 O115 1.273 . S
O115 C114 1.273 . S
O116 Zn107 1.977 1_565 S
O116 C109 1.267 . S
C117 O118 1.160 . S
C117 O124 1.185 . S
O118 C117 1.160 . S
O119 Zn120 1.899 . S
O119 C127 1.284 . S
Zn120 O119 1.899 . S
Zn120 O121 2.032 . S
Zn120 O124 2.086 . S
Zn120 O129 1.977 . S
O121 Zn120 2.032 . S
O121 C125 1.278 . S
C122 O123 1.203 . S
C122 O129 1.267 . S
O123 C122 1.203 . S
O124 C117 1.185 . S
O124 Zn120 2.086 . S
C125 O121 1.278 . S
C125 O126 1.211 . S
O126 C125 1.211 . S
C127 O119 1.284 . S
C127 O128 1.273 . S
O128 C127 1.273 . S
O129 Zn120 1.977 . S
O129 C122 1.267 . S
C130 O131 1.160 . S
C130 O137 1.185 . S
O131 C130 1.160 . S
O132 Zn133 1.899 . S
O132 C140 1.284 . S
Zn133 O132 1.899 . S
Zn133 O134 2.032 . S
Zn133 O137 2.086 . S
Zn133 O142 1.977 1_565 S
O134 Zn133 2.032 . S
O134 C138 1.278 1_565 S
C135 O136 1.203 . S
C135 O142 1.267 . S
O136 C135 1.203 . S
O137 C130 1.185 . S
O137 Zn133 2.086 . S
C138 O134 1.278 1_545 S
C138 O139 1.211 . S
O139 C138 1.211 . S
C140 O132 1.284 . S
C140 O141 1.273 1_565 S
O141 C140 1.273 1_545 S
O142 Zn133 1.977 1_545 S
O142 C135 1.267 . S
C143 O144 1.160 . S
C143 O150 1.185 . S
O144 C143 1.160 . S
O145 Zn146 1.899 . S
O145 C153 1.284 . S
Zn146 O145 1.899 . S
Zn146 O147 2.032 1_554 S
Zn146 O150 2.086 . S
Zn146 O155 1.977 . S
O147 Zn146 2.032 1_556 S
O147 C151 1.278 . S
C148 O149 1.203 . S
C148 O155 1.267 . S
O149 C148 1.203 . S
O150 C143 1.185 . S
O150 Zn146 2.086 . S
C151 O147 1.278 . S
C151 O152 1.211 . S
O152 C151 1.211 . S
C153 O145 1.284 . S
C153 O154 1.273 . S
O154 C153 1.273 . S
O155 Zn146 1.977 . S
O155 C148 1.267 . S
C156 O157 1.160 . S
C156 O163 1.185 . S
O157 C156 1.160 . S
O158 Zn159 1.899 . S
O158 C166 1.284 . S
Zn159 O158 1.899 . S
Zn159 O160 2.032 1_554 S
Zn159 O163 2.086 . S
Zn159 O168 1.977 . S
O160 Zn159 2.032 1_556 S
O160 C164 1.278 . S
C161 O162 1.203 . S
C161 O168 1.267 . S
O162 C161 1.203 . S
O163 C156 1.185 . S
O163 Zn159 2.086 . S
C164 O160 1.278 . S
C164 O165 1.211 . S
O165 C164 1.211 . S
C166 O158 1.284 . S
C166 O167 1.273 . S
O167 C166 1.273 . S
O168 Zn159 1.977 . S
O168 C161 1.267 . S
C169 O170 1.160 . S
C169 O176 1.185 1_554 S
O170 C169 1.160 . S
O171 Zn172 1.899 . S
O171 C179 1.284 . S
Zn172 O171 1.899 . S
Zn172 O173 2.032 1_554 S
Zn172 O176 2.086 1_554 S
Zn172 O181 1.977 1_554 S
O173 Zn172 2.032 1_556 S
O173 C177 1.278 . S
C174 O175 1.215 . S
C174 O181 1.258 1_554 S
O175 C174 1.215 . S
O176 C169 1.185 1_556 S
O176 Zn172 2.086 1_556 S
C177 O173 1.278 . S
C177 O178 1.211 . S
O178 C177 1.211 . S
C179 O171 1.284 . S
C179 O180 1.273 . S
O180 C179 1.273 . S
O181 Zn172 1.977 1_556 S
O181 C174 1.258 1_556 S
C182 O183 1.160 . S
C182 O189 1.185 . S
O183 C182 1.160 . S
O184 Zn185 1.899 . S
O184 C192 1.284 . S
Zn185 O184 1.899 . S
Zn185 O186 2.032 . S
Zn185 O189 2.086 . S
Zn185 O194 1.977 . S
O186 Zn185 2.032 . S
O186 C190 1.278 . S
C187 O188 1.203 . S
C187 O194 1.267 . S
O188 C187 1.203 . S
O189 C182 1.185 . S
O189 Zn185 2.086 . S
C190 O186 1.278 . S
C190 O191 1.211 . S
O191 C190 1.211 . S
C192 O184 1.284 . S
C192 O193 1.273 . S
O193 C192 1.273 . S
O194 Zn185 1.977 . S
O194 C187 1.267 . S
C195 O196 1.160 . S
C195 O202 1.185 . S
O196 C195 1.160 . S
O197 Zn198 1.899 . S
O197 C205 1.284 . S
Zn198 O197 1.899 . S
Zn198 O199 2.032 . S
Zn198 O202 2.086 . S
Zn198 O207 1.977 . S
O199 Zn198 2.032 . S
O199 C203 1.278 . S
C200 O201 1.203 . S
C200 O207 1.267 . S
O201 C200 1.203 . S
O202 C195 1.185 . S
O202 Zn198 2.086 . S
C203 O199 1.278 . S
C203 O204 1.211 . S
O204 C203 1.211 . S
C205 O197 1.284 . S
C205 O206 1.273 . S
O206 C205 1.273 . S
O207 Zn198 1.977 . S
O207 C200 1.267 . S
C208 O209 1.160 . S
C208 O215 1.185 . S
O209 C208 1.160 . S
O210 Zn211 1.899 . S
O210 C218 1.284 . S
Zn211 O210 1.899 . S
Zn211 O212 2.032 . S
Zn211 O215 2.086 . S
Zn211 O220 1.977 . S
O212 Zn211 2.032 . S
O212 C216 1.278 . S
C213 O214 1.203 . S
C213 O220 1.267 1_565 S
O214 C213 1.203 . S
O215 C208 1.185 . S
O215 Zn211 2.086 . S
C216 O212 1.278 . S
C216 O217 1.211 . S
O217 C216 1.211 . S
C218 O210 1.284 . S
C218 O219 1.273 . S
O219 C218 1.273 . S
O220 Zn211 1.977 . S
O220 C213 1.267 1_545 S
C221 O222 1.160 . S
C221 O228 1.185 . S
O222 C221 1.160 . S
O223 Zn224 1.899 . S
O223 C231 1.284 . S
Zn224 O223 1.899 . S
Zn224 O225 2.032 . S
Zn224 O228 2.086 . S
Zn224 O233 1.977 . S
O225 Zn224 2.032 . S
O225 C229 1.278 . S
C226 O227 1.203 . S
C226 O233 1.267 . S
O227 C226 1.203 . S
O228 C221 1.185 . S
O228 Zn224 2.086 . S
C229 O225 1.278 . S
C229 O230 1.211 . S
O230 C229 1.211 . S
C231 O223 1.284 . S
C231 O232 1.273 . S
O232 C231 1.273 . S
O233 Zn224 1.977 . S
O233 C226 1.267 . S
C234 O235 1.160 . S
C234 O241 1.185 . S
O235 C234 1.160 . S
O236 Zn237 1.899 . S
O236 C244 1.284 . S
Zn237 O236 1.899 . S
Zn237 O238 2.032 . S
Zn237 O241 2.086 . S
Zn237 O246 1.977 . S
O238 Zn237 2.032 . S
O238 C242 1.278 . S
C239 O240 1.203 . S
C239 O246 1.267 . S
O240 C239 1.203 . S
O241 C234 1.185 . S
O241 Zn237 2.086 . S
C242 O238 1.278 . S
C242 O243 1.211 . S
O243 C242 1.211 . S
C244 O236 1.284 . S
C244 O245 1.273 . S
O245 C244 1.273 . S
O246 Zn237 1.977 . S
O246 C239 1.267 . S
C247 O248 1.160 . S
C247 O254 1.185 . S
O248 C247 1.160 . S
O249 Zn250 1.899 . S
O249 C257 1.284 . S
Zn250 O249 1.899 . S
Zn250 O251 2.032 . S
Zn250 O254 2.086 1_545 S
Zn250 O259 1.977 . S
O251 Zn250 2.032 . S
O251 C255 1.278 . S
C252 O253 1.203 . S
C252 O259 1.267 . S
O253 C252 1.203 . S
O254 C247 1.185 . S
O254 Zn250 2.086 1_565 S
C255 O251 1.278 . S
C255 O256 1.211 . S
O256 C255 1.211 . S
C257 O249 1.284 . S
C257 O258 1.273 . S
O258 C257 1.273 . S
O259 Zn250 1.977 . S
O259 C252 1.267 . S
C260 O261 1.160 . S
C260 O267 1.190 . S
O261 C260 1.160 . S
O262 Zn263 1.899 . S
O262 C270 1.284 . S
Zn263 O262 1.899 . S
Zn263 O264 2.032 1_554 S
Zn263 O267 2.089 . S
Zn263 O272 1.977 1_554 S
O264 Zn263 2.032 1_556 S
O264 C268 1.278 . S
C265 O266 1.203 . S
C265 O272 1.267 1_554 S
O266 C265 1.203 . S
O267 C260 1.190 . S
O267 Zn263 2.089 . S
C268 O264 1.278 . S
C268 O269 1.211 . S
O269 C268 1.211 . S
C270 O262 1.284 . S
C270 O271 1.273 . S
O271 C270 1.273 . S
O272 Zn263 1.977 1_556 S
O272 C265 1.267 1_556 S
C273 O274 1.160 . S
C273 O280 1.185 . S
O274 C273 1.160 . S
O275 Zn276 1.899 . S
O275 C283 1.284 . S
Zn276 O275 1.899 . S
Zn276 O277 2.032 . S
Zn276 O280 2.086 . S
Zn276 O285 1.977 . S
O277 Zn276 2.032 . S
O277 C281 1.278 . S
C278 O279 1.203 . S
C278 O285 1.267 . S
O279 C278 1.203 . S
O280 C273 1.185 . S
O280 Zn276 2.086 . S
C281 O277 1.278 . S
C281 O282 1.211 . S
O282 C281 1.211 . S
C283 O275 1.284 . S
C283 O284 1.273 . S
O284 C283 1.273 . S
O285 Zn276 1.977 . S
O285 C278 1.267 . S
C286 O287 1.160 . S
C286 O293 1.185 . S
O287 C286 1.160 . S
O288 Zn289 1.899 . S
O288 C296 1.284 . S
Zn289 O288 1.899 . S
Zn289 O290 2.032 . S
Zn289 O293 2.086 . S
Zn289 O298 1.977 . S
O290 Zn289 2.032 . S
O290 C294 1.278 . S
C291 O292 1.203 . S
C291 O298 1.267 . S
O292 C291 1.203 . S
O293 C286 1.185 . S
O293 Zn289 2.086 . S
C294 O290 1.278 . S
C294 O295 1.211 . S
O295 C294 1.211 . S
C296 O288 1.284 . S
C296 O297 1.273 . S
O297 C296 1.273 . S
O298 Zn289 1.977 . S
O298 C291 1.267 . S
C299 O300 1.160 . S
C299 O306 1.185 . S
O300 C299 1.160 . S
O301 Zn302 1.899 . S
O301 C309 1.284 . S
Zn302 O301 1.899 . S
Zn302 O303 2.032 . S
Zn302 O306 2.086 . S
Zn302 O311 1.977 . S
O303 Zn302 2.032 . S
O303 C307 1.278 . S
C304 O305 1.203 . S
C304 O311 1.267 . S
O305 C304 1.203 . S
O306 C299 1.185 . S
O306 Zn302 2.086 . S
C307 O303 1.278 . S
C307 O308 1.211 . S
O308 C307 1.211 . S
C309 O301 1.284 . S
C309 O310 1.273 . S
O310 C309 1.273 . S
O311 Zn302 1.977 . S
O311 C304 1.267 . S
Dy312 O316 2.398 . S
Dy312 O317 2.491 1_556 S
Dy312 O318 2.405 . S
Dy312 O319 2.664 1_655 S
Dy312 O323 2.326 . S
Dy312 O327 2.316 1_556 S
Dy312 O328 2.351 1_546 S
C313 O324 1.185 . S
C313 O325 1.355 1_545 S
C314 O316 1.185 . S
C314 O317 1.355 1_556 S
Dy315 O319 2.310 1_554 S
Dy315 O322 2.351 . S
Dy315 O324 2.398 . S
Dy315 O325 2.491 1_545 S
Dy315 O326 2.403 . S
Dy315 O327 2.649 1_455 S
Dy315 O329 2.326 1_545 S
O316 Dy312 2.398 . S
O316 C314 1.185 . S
O317 Dy312 2.491 1_554 S
O317 C314 1.355 1_554 S
O318 Dy312 2.405 . S
O318 C320 1.253 1_655 S
O319 Dy312 2.664 1_455 S
O319 Dy315 2.310 1_556 S
O319 C320 1.268 . S
C320 O318 1.253 1_455 S
C320 O319 1.268 . S
C321 O326 1.254 . S
C321 O327 1.264 1_455 S
O322 Dy315 2.351 . S
O322 C330 1.249 1_554 S
O323 Dy312 2.326 . S
O323 C330 1.267 1_655 S
O324 C313 1.185 . S
O324 Dy315 2.398 . S
O325 C313 1.355 1_565 S
O325 Dy315 2.491 1_565 S
O326 Dy315 2.403 . S
O326 C321 1.254 . S
O327 Dy312 2.316 1_554 S
O327 Dy315 2.649 1_655 S
O327 C321 1.264 1_655 S
O328 Dy312 2.351 1_564 S
O328 C331 1.249 1_655 S
O329 Dy315 2.326 1_565 S
O329 C331 1.267 . S
C330 O322 1.249 1_556 S
C330 O323 1.267 1_455 S
C331 O328 1.249 1_455 S
C331 O329 1.267 . S
Dy332 O336 2.398 . S
Dy332 O337 2.491 . S
Dy332 O338 2.403 . S
Dy332 O339 2.664 . S
Dy332 O343 2.326 . S
Dy332 O347 2.310 . S
Dy332 O348 2.351 . S
C333 O344 1.185 . S
C333 O345 1.355 . S
C334 O336 1.185 . S
C334 O337 1.355 . S
Dy335 O339 2.310 . S
Dy335 O342 2.351 . S
Dy335 O344 2.398 . S
Dy335 O345 2.491 . S
Dy335 O346 2.403 . S
Dy335 O347 2.664 . S
Dy335 O349 2.326 . S
O336 Dy332 2.398 . S
O336 C334 1.185 . S
O337 Dy332 2.491 . S
O337 C334 1.355 . S
O338 Dy332 2.403 . S
O338 C340 1.254 . S
O339 Dy332 2.664 . S
O339 Dy335 2.310 . S
O339 C340 1.268 . S
C340 O338 1.254 . S
C340 O339 1.268 . S
C341 O346 1.254 . S
C341 O347 1.268 . S
O342 Dy335 2.351 . S
O342 C350 1.249 . S
O343 Dy332 2.326 . S
O343 C350 1.267 . S
O344 C333 1.185 . S
O344 Dy335 2.398 . S
O345 C333 1.355 . S
O345 Dy335 2.491 . S
O346 Dy335 2.403 . S
O346 C341 1.254 . S
O347 Dy332 2.310 . S
O347 Dy335 2.664 . S
O347 C341 1.268 . S
O348 Dy332 2.351 . S
O348 C351 1.249 . S
O349 Dy335 2.326 . S
O349 C351 1.267 . S
C350 O342 1.249 . S
C350 O343 1.267 . S
C351 O348 1.249 . S
C351 O349 1.267 . S
Dy352 O356 2.398 . S
Dy352 O357 2.491 1_545 S
Dy352 O358 2.403 . S
Dy352 O359 2.664 . S
Dy352 O363 2.326 1_545 S
Dy352 O367 2.310 . S
Dy352 O368 2.351 . S
C353 O364 1.185 . S
C353 O365 1.355 . S
C354 O356 1.185 1_565 S
C354 O357 1.355 . S
Dy355 O359 2.310 . S
Dy355 O362 2.351 1_545 S
Dy355 O364 2.398 . S
Dy355 O365 2.491 . S
Dy355 O366 2.403 . S
Dy355 O367 2.664 . S
Dy355 O369 2.326 . S
O356 Dy352 2.398 . S
O356 C354 1.185 1_545 S
O357 Dy352 2.491 1_565 S
O357 C354 1.355 . S
O358 Dy352 2.403 . S
O358 C360 1.254 . S
O359 Dy352 2.664 . S
O359 Dy355 2.310 . S
O359 C360 1.268 . S
C360 O358 1.254 . S
C360 O359 1.268 . S
C361 O366 1.254 . S
C361 O367 1.268 . S
O362 Dy355 2.351 1_565 S
O362 C370 1.249 . S
O363 Dy352 2.326 1_565 S
O363 C370 1.267 . S
O364 C353 1.185 . S
O364 Dy355 2.398 . S
O365 C353 1.355 . S
O365 Dy355 2.491 . S
O366 Dy355 2.403 . S
O366 C361 1.254 . S
O367 Dy352 2.310 . S
O367 Dy355 2.664 . S
O367 C361 1.268 . S
O368 Dy352 2.351 . S
O368 C371 1.249 . S
O369 Dy355 2.326 . S
O369 C371 1.267 . S
C370 O362 1.249 . S
C370 O363 1.267 . S
C371 O368 1.249 . S
C371 O369 1.267 . S
Dy372 O376 2.398 . S
Dy372 O377 2.491 . S
Dy372 O378 2.403 . S
Dy372 O379 2.664 . S
Dy372 O383 2.326 . S
Dy372 O387 2.310 . S
Dy372 O388 2.351 . S
C373 O384 1.185 . S
C373 O385 1.355 . S
C374 O376 1.185 . S
C374 O377 1.355 . S
Dy375 O379 2.310 . S
Dy375 O382 2.351 . S
Dy375 O384 2.398 . S
Dy375 O385 2.491 . S
Dy375 O386 2.403 . S
Dy375 O387 2.664 . S
Dy375 O389 2.326 . S
O376 Dy372 2.398 . S
O376 C374 1.185 . S
O377 Dy372 2.491 . S
O377 C374 1.355 . S
O378 Dy372 2.403 . S
O378 C380 1.254 . S
O379 Dy372 2.664 . S
O379 Dy375 2.310 . S
O379 C380 1.268 . S
C380 O378 1.254 . S
C380 O379 1.268 . S
C381 O386 1.254 . S
C381 O387 1.268 . S
O382 Dy375 2.351 . S
O382 C390 1.249 . S
O383 Dy372 2.326 . S
O383 C390 1.267 . S
O384 C373 1.185 . S
O384 Dy375 2.398 . S
O385 C373 1.355 . S
O385 Dy375 2.491 . S
O386 Dy375 2.403 . S
O386 C381 1.254 . S
O387 Dy372 2.310 . S
O387 Dy375 2.664 . S
O387 C381 1.268 . S
O388 Dy372 2.351 . S
O388 C391 1.249 . S
O389 Dy375 2.326 . S
O389 C391 1.267 . S
C390 O382 1.249 . S
C390 O383 1.267 . S
C391 O388 1.249 . S
C391 O389 1.267 . S
Dy392 O396 2.398 . S
Dy392 O397 2.491 1_455 S
Dy392 O398 2.403 . S
Dy392 O399 2.664 . S
Dy392 O403 2.326 . S
Dy392 O407 2.310 1_455 S
Dy392 O408 2.351 1_545 S
C393 O404 1.185 . S
C393 O405 1.355 . S
C394 O396 1.185 1_655 S
C394 O397 1.355 . S
Dy395 O399 2.310 . S
Dy395 O402 2.351 . S
Dy395 O404 2.398 . S
Dy395 O405 2.491 . S
Dy395 O406 2.403 1_455 S
Dy395 O407 2.664 1_455 S
Dy395 O409 2.326 1_545 S
O396 Dy392 2.398 . S
O396 C394 1.185 1_455 S
O397 Dy392 2.491 1_655 S
O397 C394 1.355 . S
O398 Dy392 2.403 . S
O398 C400 1.254 . S
O399 Dy392 2.664 . S
O399 Dy395 2.310 . S
O399 C400 1.268 . S
C400 O398 1.254 . S
C400 O399 1.268 . S
C401 O406 1.254 . S
C401 O407 1.268 . S
O402 Dy395 2.351 . S
O402 C410 1.249 . S
O403 Dy392 2.326 . S
O403 C410 1.267 . S
O404 C393 1.185 . S
O404 Dy395 2.398 . S
O405 C393 1.355 . S
O405 Dy395 2.491 . S
O406 Dy395 2.403 1_655 S
O406 C401 1.254 . S
O407 Dy392 2.310 1_655 S
O407 Dy395 2.664 1_655 S
O407 C401 1.268 . S
O408 Dy392 2.351 1_565 S
O408 C411 1.249 . S
O409 Dy395 2.326 1_565 S
O409 C411 1.267 . S
C410 O402 1.249 . S
C410 O403 1.267 . S
C411 O408 1.249 . S
C411 O409 1.267 . S
Dy412 O416 2.398 . S
Dy412 O417 2.491 . S
Dy412 O418 2.403 . S
Dy412 O419 2.664 . S
Dy412 O423 2.326 . S
Dy412 O427 2.310 . S
Dy412 O428 2.351 . S
C413 O424 1.185 . S
C413 O425 1.355 . S
C414 O416 1.185 . S
C414 O417 1.355 . S
Dy415 O419 2.310 . S
Dy415 O422 2.351 . S
Dy415 O424 2.398 . S
Dy415 O425 2.491 . S
Dy415 O426 2.403 . S
Dy415 O427 2.664 . S
Dy415 O429 2.326 . S
O416 Dy412 2.398 . S
O416 C414 1.185 . S
O417 Dy412 2.491 . S
O417 C414 1.355 . S
O418 Dy412 2.403 . S
O418 C420 1.254 . S
O419 Dy412 2.664 . S
O419 Dy415 2.310 . S
O419 C420 1.268 . S
C420 O418 1.254 . S
C420 O419 1.268 . S
C421 O426 1.254 . S
C421 O427 1.268 . S
O422 Dy415 2.351 . S
O422 C430 1.249 . S
O423 Dy412 2.326 . S
O423 C430 1.267 . S
O424 C413 1.185 . S
O424 Dy415 2.398 . S
O425 C413 1.355 . S
O425 Dy415 2.491 . S
O426 Dy415 2.403 . S
O426 C421 1.254 . S
O427 Dy412 2.310 . S
O427 Dy415 2.664 . S
O427 C421 1.268 . S
O428 Dy412 2.351 . S
O428 C431 1.249 . S
O429 Dy415 2.326 . S
O429 C431 1.267 . S
C430 O422 1.249 . S
C430 O423 1.267 . S
C431 O428 1.249 . S
C431 O429 1.267 . S
Dy432 O436 2.398 1_545 S
Dy432 O437 2.491 . S
Dy432 O438 2.403 1_545 S
Dy432 O439 2.664 1_544 S
Dy432 O443 2.326 1_545 S
Dy432 O447 2.310 . S
Dy432 O448 2.351 . S
C433 O444 1.185 . S
C433 O445 1.355 . S
C434 O436 1.185 . S
C434 O437 1.355 1_565 S
Dy435 O439 2.310 1_545 S
Dy435 O442 2.351 . S
Dy435 O444 2.398 . S
Dy435 O445 2.491 . S
Dy435 O446 2.403 . S
Dy435 O447 2.664 1_556 S
Dy435 O449 2.326 . S
O436 Dy432 2.398 1_565 S
O436 C434 1.185 . S
O437 Dy432 2.491 . S
O437 C434 1.355 1_545 S
O438 Dy432 2.403 1_565 S
O438 C440 1.254 . S
O439 Dy432 2.664 1_566 S
O439 Dy435 2.310 1_565 S
O439 C440 1.268 1_556 S
C440 O438 1.254 . S
C440 O439 1.268 1_554 S
C441 O446 1.254 1_554 S
C441 O447 1.268 . S
O442 Dy435 2.351 . S
O442 C450 1.249 1_556 S
O443 Dy432 2.326 1_565 S
O443 C450 1.267 1_565 S
O444 C433 1.185 . S
O444 Dy435 2.398 . S
O445 C433 1.355 . S
O445 Dy435 2.491 . S
O446 Dy435 2.403 . S
O446 C441 1.254 1_556 S
O447 Dy432 2.310 . S
O447 Dy435 2.664 1_554 S
O447 C441 1.268 . S
O448 Dy432 2.351 . S
O448 C451 1.249 . S
O449 Dy435 2.326 . S
O449 C451 1.267 1_556 S
C450 O442 1.249 1_554 S
C450 O443 1.267 1_545 S
C451 O448 1.249 . S
C451 O449 1.267 1_554 S
Dy452 O456 2.398 . S
Dy452 O457 2.491 . S
Dy452 O458 2.403 . S
Dy452 O459 2.664 . S
Dy452 O463 2.326 . S
Dy452 O467 2.310 . S
Dy452 O468 2.351 . S
C453 O464 1.185 . S
C453 O465 1.355 . S
C454 O456 1.185 . S
C454 O457 1.355 . S
Dy455 O459 2.310 . S
Dy455 O462 2.351 . S
Dy455 O464 2.398 . S
Dy455 O465 2.491 . S
Dy455 O466 2.403 . S
Dy455 O467 2.664 . S
Dy455 O469 2.326 . S
O456 Dy452 2.398 . S
O456 C454 1.185 . S
O457 Dy452 2.491 . S
O457 C454 1.355 . S
O458 Dy452 2.403 . S
O458 C460 1.254 . S
O459 Dy452 2.664 . S
O459 Dy455 2.310 . S
O459 C460 1.268 . S
C460 O458 1.254 . S
C460 O459 1.268 . S
C461 O466 1.254 . S
C461 O467 1.268 . S
O462 Dy455 2.351 . S
O462 C470 1.249 . S
O463 Dy452 2.326 . S
O463 C470 1.267 . S
O464 C453 1.185 . S
O464 Dy455 2.398 . S
O465 C453 1.355 . S
O465 Dy455 2.491 . S
O466 Dy455 2.403 . S
O466 C461 1.254 . S
O467 Dy452 2.310 . S
O467 Dy455 2.664 . S
O467 C461 1.268 . S
O468 Dy452 2.351 . S
O468 C471 1.249 . S
O469 Dy455 2.326 . S
O469 C471 1.267 . S
C470 O462 1.249 . S
C470 O463 1.267 . S
C471 O468 1.249 . S
C471 O469 1.267 . S
Dy472 O476 2.398 . S
Dy472 O477 2.491 . S
Dy472 O478 2.403 . S
Dy472 O479 2.664 1_556 S
Dy472 O483 2.326 . S
Dy472 O487 2.310 1_556 S
Dy472 O488 2.351 1_556 S
C473 O484 1.185 . S
C473 O485 1.355 . S
C474 O476 1.185 . S
C474 O477 1.355 . S
Dy475 O479 2.310 . S
Dy475 O482 2.351 . S
Dy475 O484 2.398 . S
Dy475 O485 2.491 . S
Dy475 O486 2.403 . S
Dy475 O487 2.664 . S
Dy475 O489 2.326 . S
O476 Dy472 2.398 . S
O476 C474 1.185 . S
O477 Dy472 2.491 . S
O477 C474 1.355 . S
O478 Dy472 2.403 . S
O478 C480 1.254 . S
O479 Dy472 2.664 1_554 S
O479 Dy475 2.310 . S
O479 C480 1.268 1_554 S
C480 O478 1.254 . S
C480 O479 1.268 1_556 S
C481 O486 1.254 . S
C481 O487 1.268 . S
O482 Dy475 2.351 . S
O482 C490 1.249 1_554 S
O483 Dy472 2.326 . S
O483 C490 1.267 . S
O484 C473 1.185 . S
O484 Dy475 2.398 . S
O485 C473 1.355 . S
O485 Dy475 2.491 . S
O486 Dy475 2.403 . S
O486 C481 1.254 . S
O487 Dy472 2.310 1_554 S
O487 Dy475 2.664 . S
O487 C481 1.268 . S
O488 Dy472 2.351 1_554 S
O488 C491 1.249 . S
O489 Dy475 2.326 . S
O489 C491 1.267 . S
C490 O482 1.249 1_556 S
C490 O483 1.267 . S
C491 O488 1.249 . S
C491 O489 1.267 . S
Dy492 O496 2.398 . S
Dy492 O497 2.491 . S
Dy492 O498 2.403 . S
Dy492 O499 2.664 . S
Dy492 O503 2.326 . S
Dy492 O507 2.310 . S
Dy492 O508 2.351 . S
C493 O504 1.185 . S
C493 O505 1.355 . S
C494 O496 1.185 . S
C494 O497 1.355 . S
Dy495 O499 2.310 . S
Dy495 O502 2.351 . S
Dy495 O504 2.398 . S
Dy495 O505 2.491 . S
Dy495 O506 2.403 . S
Dy495 O507 2.664 . S
Dy495 O509 2.326 . S
O496 Dy492 2.398 . S
O496 C494 1.185 . S
O497 Dy492 2.491 . S
O497 C494 1.355 . S
O498 Dy492 2.403 . S
O498 C500 1.254 . S
O499 Dy492 2.664 . S
O499 Dy495 2.310 . S
O499 C500 1.268 . S
C500 O498 1.254 . S
C500 O499 1.268 . S
C501 O506 1.254 . S
C501 O507 1.268 . S
O502 Dy495 2.351 . S
O502 C510 1.249 . S
O503 Dy492 2.326 . S
O503 C510 1.267 . S
O504 C493 1.185 . S
O504 Dy495 2.398 . S
O505 C493 1.355 . S
O505 Dy495 2.491 . S
O506 Dy495 2.403 . S
O506 C501 1.254 . S
O507 Dy492 2.310 . S
O507 Dy495 2.664 . S
O507 C501 1.268 . S
O508 Dy492 2.351 . S
O508 C511 1.249 . S
O509 Dy495 2.326 . S
O509 C511 1.267 . S
C510 O502 1.249 . S
C510 O503 1.267 . S
C511 O508 1.249 . S
C511 O509 1.267 . S
Dy512 O516 2.398 . S
Dy512 O517 2.491 1_455 S
Dy512 O518 2.403 . S
Dy512 O519 2.664 . S
Dy512 O523 2.326 1_455 S
Dy512 O527 2.310 . S
Dy512 O528 2.351 . S
C513 O524 1.185 . S
C513 O525 1.355 . S
C514 O516 1.185 1_655 S
C514 O517 1.355 . S
Dy515 O519 2.310 . S
Dy515 O522 2.351 1_455 S
Dy515 O524 2.398 . S
Dy515 O525 2.491 . S
Dy515 O526 2.403 . S
Dy515 O527 2.664 . S
Dy515 O529 2.326 . S
O516 Dy512 2.398 . S
O516 C514 1.185 1_455 S
O517 Dy512 2.491 1_655 S
O517 C514 1.355 . S
O518 Dy512 2.403 . S
O518 C520 1.254 . S
O519 Dy512 2.664 . S
O519 Dy515 2.310 . S
O519 C520 1.268 . S
C520 O518 1.254 . S
C520 O519 1.268 . S
C521 O526 1.254 . S
C521 O527 1.268 . S
O522 Dy515 2.351 1_655 S
O522 C530 1.249 . S
O523 Dy512 2.326 1_655 S
O523 C530 1.267 . S
O524 C513 1.185 . S
O524 Dy515 2.398 . S
O525 C513 1.355 . S
O525 Dy515 2.491 . S
O526 Dy515 2.403 . S
O526 C521 1.254 . S
O527 Dy512 2.310 . S
O527 Dy515 2.664 . S
O527 C521 1.268 . S
O528 Dy512 2.351 . S
O528 C531 1.249 . S
O529 Dy515 2.326 . S
O529 C531 1.267 . S
C530 O522 1.249 . S
C530 O523 1.267 . S
C531 O528 1.249 . S
C531 O529 1.267 . S
Dy532 O536 2.398 . S
Dy532 O537 2.491 . S
Dy532 O538 2.403 . S
Dy532 O539 2.664 . S
Dy532 O543 2.326 . S
Dy532 O547 2.310 . S
Dy532 O548 2.351 . S
C533 O544 1.185 . S
C533 O545 1.355 . S
C534 O536 1.185 . S
C534 O537 1.355 . S
Dy535 O539 2.310 . S
Dy535 O542 2.351 . S
Dy535 O544 2.398 . S
Dy535 O545 2.491 . S
Dy535 O546 2.403 . S
Dy535 O547 2.664 . S
Dy535 O549 2.326 . S
O536 Dy532 2.398 . S
O536 C534 1.185 . S
O537 Dy532 2.491 . S
O537 C534 1.355 . S
O538 Dy532 2.403 . S
O538 C540 1.254 . S
O539 Dy532 2.664 . S
O539 Dy535 2.310 . S
O539 C540 1.268 . S
C540 O538 1.254 . S
C540 O539 1.268 . S
C541 O546 1.254 . S
C541 O547 1.268 . S
O542 Dy535 2.351 . S
O542 C550 1.249 . S
O543 Dy532 2.326 . S
O543 C550 1.267 . S
O544 C533 1.185 . S
O544 Dy535 2.398 . S
O545 C533 1.355 . S
O545 Dy535 2.491 . S
O546 Dy535 2.403 . S
O546 C541 1.254 . S
O547 Dy532 2.310 . S
O547 Dy535 2.664 . S
O547 C541 1.268 . S
O548 Dy532 2.351 . S
O548 C551 1.249 . S
O549 Dy535 2.326 . S
O549 C551 1.267 . S
C550 O542 1.249 . S
C550 O543 1.267 . S
C551 O548 1.249 . S
C551 O549 1.267 . S
Dy552 O556 2.398 . S
Dy552 O557 2.491 . S
Dy552 O558 2.403 . S
Dy552 O559 2.664 . S
Dy552 O563 2.326 . S
Dy552 O567 2.310 . S
Dy552 O568 2.351 . S
C553 O564 1.185 . S
C553 O565 1.355 . S
C554 O556 1.185 . S
C554 O557 1.355 . S
Dy555 O559 2.310 . S
Dy555 O562 2.351 . S
Dy555 O564 2.398 . S
Dy555 O565 2.491 . S
Dy555 O566 2.403 . S
Dy555 O567 2.664 . S
Dy555 O569 2.326 . S
O556 Dy552 2.398 . S
O556 C554 1.185 . S
O557 Dy552 2.491 . S
O557 C554 1.355 . S
O558 Dy552 2.403 . S
O558 C560 1.254 . S
O559 Dy552 2.664 . S
O559 Dy555 2.310 . S
O559 C560 1.268 . S
C560 O558 1.254 . S
C560 O559 1.268 . S
C561 O566 1.254 . S
C561 O567 1.268 . S
O562 Dy555 2.351 . S
O562 C570 1.249 . S
O563 Dy552 2.326 . S
O563 C570 1.267 . S
O564 C553 1.185 . S
O564 Dy555 2.398 . S
O565 C553 1.355 . S
O565 Dy555 2.491 . S
O566 Dy555 2.403 . S
O566 C561 1.254 . S
O567 Dy552 2.310 . S
O567 Dy555 2.664 . S
O567 C561 1.268 . S
O568 Dy552 2.351 . S
O568 C571 1.249 . S
O569 Dy555 2.326 . S
O569 C571 1.267 . S
C570 O562 1.249 . S
C570 O563 1.267 . S
C571 O568 1.249 . S
C571 O569 1.267 . S
Dy572 O576 2.398 . S
Dy572 O577 2.491 . S
Dy572 O578 2.403 . S
Dy572 O579 2.664 . S
Dy572 O583 2.326 . S
Dy572 O587 2.310 . S
Dy572 O588 2.351 . S
C573 O584 1.185 . S
C573 O585 1.355 . S
C574 O576 1.185 . S
C574 O577 1.355 . S
Dy575 O579 2.310 . S
Dy575 O582 2.351 . S
Dy575 O584 2.398 . S
Dy575 O585 2.491 . S
Dy575 O586 2.403 . S
Dy575 O587 2.664 . S
Dy575 O589 2.326 . S
O576 Dy572 2.398 . S
O576 C574 1.185 . S
O577 Dy572 2.491 . S
O577 C574 1.355 . S
O578 Dy572 2.403 . S
O578 C580 1.254 . S
O579 Dy572 2.664 . S
O579 Dy575 2.310 . S
O579 C580 1.268 . S
C580 O578 1.254 . S
C580 O579 1.268 . S
C581 O586 1.254 . S
C581 O587 1.268 . S
O582 Dy575 2.351 . S
O582 C590 1.249 . S
O583 Dy572 2.326 . S
O583 C590 1.267 . S
O584 C573 1.185 . S
O584 Dy575 2.398 . S
O585 C573 1.355 . S
O585 Dy575 2.491 . S
O586 Dy575 2.403 . S
O586 C581 1.254 . S
O587 Dy572 2.310 . S
O587 Dy575 2.664 . S
O587 C581 1.268 . S
O588 Dy572 2.351 . S
O588 C591 1.249 . S
O589 Dy575 2.326 . S
O589 C591 1.267 . S
C590 O582 1.249 . S
C590 O583 1.267 . S
C591 O588 1.249 . S
C591 O589 1.267 . S
Dy592 O596 2.398 . S
Dy592 O597 2.491 . S
Dy592 O598 2.403 . S
Dy592 O599 2.664 . S
Dy592 O603 2.326 . S
Dy592 O607 2.310 . S
Dy592 O608 2.351 . S
C593 O604 1.185 . S
C593 O605 1.355 . S
C594 O596 1.185 . S
C594 O597 1.355 . S
Dy595 O599 2.310 . S
Dy595 O602 2.351 . S
Dy595 O604 2.398 . S
Dy595 O605 2.491 . S
Dy595 O606 2.403 . S
Dy595 O607 2.664 . S
Dy595 O609 2.326 . S
O596 Dy592 2.398 . S
O596 C594 1.185 . S
O597 Dy592 2.491 . S
O597 C594 1.355 . S
O598 Dy592 2.403 . S
O598 C600 1.254 . S
O599 Dy592 2.664 . S
O599 Dy595 2.310 . S
O599 C600 1.268 . S
C600 O598 1.254 . S
C600 O599 1.268 . S
C601 O606 1.254 . S
C601 O607 1.268 . S
O602 Dy595 2.351 . S
O602 C610 1.249 . S
O603 Dy592 2.326 . S
O603 C610 1.267 . S
O604 C593 1.185 . S
O604 Dy595 2.398 . S
O605 C593 1.355 . S
O605 Dy595 2.491 . S
O606 Dy595 2.403 . S
O606 C601 1.254 . S
O607 Dy592 2.310 . S
O607 Dy595 2.664 . S
O607 C601 1.268 . S
O608 Dy592 2.351 . S
O608 C611 1.249 . S
O609 Dy595 2.326 . S
O609 C611 1.267 . S
C610 O602 1.249 . S
C610 O603 1.267 . S
C611 O608 1.249 . S
C611 O609 1.267 . S
Dy612 O616 2.398 . S
Dy612 O617 2.491 1_556 S
Dy612 O618 2.403 . S
Dy612 O619 2.664 . S
Dy612 O623 2.326 . S
Dy612 O627 2.310 1_556 S
Dy612 O628 2.351 1_556 S
C613 O624 1.185 . S
C613 O625 1.390 . S
C614 O616 1.185 . S
C614 O617 1.355 1_556 S
Dy615 O619 2.310 1_654 S
Dy615 O622 2.357 . S
Dy615 O624 2.398 . S
Dy615 O625 2.504 . S
Dy615 O626 2.395 1_655 S
Dy615 O627 2.664 1_655 S
Dy615 O629 2.326 1_655 S
O616 Dy612 2.398 . S
O616 C614 1.185 . S
O617 Dy612 2.491 1_554 S
O617 C614 1.355 1_554 S
O618 Dy612 2.403 . S
O618 C620 1.254 . S
O619 Dy612 2.664 . S
O619 Dy615 2.310 1_456 S
O619 C620 1.268 . S
C620 O618 1.254 . S
C620 O619 1.268 . S
C621 O626 1.277 . S
C621 O627 1.268 . S
O622 Dy615 2.357 . S
O622 C630 1.239 1_654 S
O623 Dy612 2.326 . S
O623 C630 1.267 . S
O624 C613 1.185 . S
O624 Dy615 2.398 . S
O625 C613 1.390 . S
O625 Dy615 2.504 . S
O626 Dy615 2.395 1_455 S
O626 C621 1.277 . S
O627 Dy612 2.310 1_554 S
O627 Dy615 2.664 1_455 S
O627 C621 1.268 . S
O628 Dy612 2.351 1_554 S
O628 C631 1.249 . S
O629 Dy615 2.326 1_455 S
O629 C631 1.267 . S
C630 O622 1.239 1_456 S
C630 O623 1.267 . S
C631 O628 1.249 . S
C631 O629 1.267 . S
H632 C638 0.930 . S
H633 C641 0.930 . S
H634 C642 0.930 . S
H635 C643 0.930 . S
H636 C646 0.930 . S
H637 C647 0.930 . S
C638 H632 0.930 . S
C638 C639 1.355 1_455 S
C638 C640 1.415 . S
C639 C638 1.355 1_655 S
C639 C641 1.419 . S
C640 C638 1.415 . S
C640 C645 1.425 1_455 S
C640 C647 1.409 . S
C641 H633 0.930 . S
C641 C639 1.419 . S
C641 C642 1.362 . S
C642 H634 0.930 . S
C642 C641 1.362 . S
C642 C645 1.409 . S
C643 H635 0.930 . S
C643 C644 1.355 1_655 S
C643 C645 1.415 . S
C644 C643 1.355 1_455 S
C644 C646 1.419 . S
C645 C640 1.425 1_655 S
C645 C642 1.409 . S
C645 C643 1.415 . S
C646 H636 0.930 . S
C646 C644 1.419 . S
C646 C647 1.362 . S
C647 H637 0.930 . S
C647 C640 1.409 . S
C647 C646 1.362 . S
H648 C654 0.930 . S
H649 C657 0.930 . S
H650 C658 0.930 . S
H651 C659 0.930 . S
H652 C662 0.930 . S
H653 C663 0.930 . S
C654 H648 0.930 . S
C654 C655 1.355 . S
C654 C656 1.415 . S
C655 C654 1.355 . S
C655 C657 1.419 . S
C656 C654 1.415 . S
C656 C661 1.425 . S
C656 C663 1.409 . S
C657 H649 0.930 . S
C657 C655 1.419 . S
C657 C658 1.362 . S
C658 H650 0.930 . S
C658 C657 1.362 . S
C658 C661 1.409 . S
C659 H651 0.930 . S
C659 C660 1.355 . S
C659 C661 1.415 . S
C660 C659 1.355 . S
C660 C662 1.419 . S
C661 C656 1.425 . S
C661 C658 1.409 . S
C661 C659 1.415 . S
C662 H652 0.930 . S
C662 C660 1.419 . S
C662 C663 1.362 . S
C663 H653 0.930 . S
C663 C656 1.409 . S
C663 C662 1.362 . S
H664 C670 0.930 . S
H665 C673 0.930 . S
H666 C674 0.930 . S
H667 C675 0.930 . S
H668 C678 0.930 . S
H669 C679 0.930 . S
C670 H664 0.930 . S
C670 C671 1.355 . S
C670 C672 1.415 . S
C671 C670 1.355 . S
C671 C673 1.419 . S
C672 C670 1.415 . S
C672 C677 1.425 . S
C672 C679 1.409 . S
C673 H665 0.930 . S
C673 C671 1.419 . S
C673 C674 1.362 . S
C674 H666 0.930 . S
C674 C673 1.362 . S
C674 C677 1.409 . S
C675 H667 0.930 . S
C675 C676 1.355 . S
C675 C677 1.415 . S
C676 C675 1.355 . S
C676 C678 1.419 . S
C677 C672 1.425 . S
C677 C674 1.409 . S
C677 C675 1.415 . S
C678 H668 0.930 . S
C678 C676 1.419 . S
C678 C679 1.362 . S
C679 H669 0.930 . S
C679 C672 1.409 . S
C679 C678 1.362 . S
H680 C686 0.930 . S
H681 C689 0.930 . S
H682 C690 0.930 . S
H683 C691 0.930 . S
H684 C694 0.930 . S
H685 C695 0.930 . S
C686 H680 0.930 . S
C686 C687 1.355 . S
C686 C688 1.415 . S
C687 C686 1.355 . S
C687 C689 1.419 . S
C688 C686 1.415 . S
C688 C693 1.425 . S
C688 C695 1.409 . S
C689 H681 0.930 . S
C689 C687 1.419 . S
C689 C690 1.362 . S
C690 H682 0.930 . S
C690 C689 1.362 . S
C690 C693 1.409 . S
C691 H683 0.930 . S
C691 C692 1.355 . S
C691 C693 1.415 . S
C692 C691 1.355 . S
C692 C694 1.419 . S
C693 C688 1.425 . S
C693 C690 1.409 . S
C693 C691 1.415 . S
C694 H684 0.930 . S
C694 C692 1.419 . S
C694 C695 1.362 . S
C695 H685 0.930 . S
C695 C688 1.409 . S
C695 C694 1.362 . S
H696 C702 0.930 . S
H697 C705 0.930 . S
H698 C706 0.930 . S
H699 C707 0.930 . S
H700 C710 0.930 . S
H701 C711 0.930 . S
C702 H696 0.930 . S
C702 C703 1.355 1_655 S
C702 C704 1.415 1_655 S
C703 C702 1.355 1_455 S
C703 C705 1.419 . S
C704 C702 1.415 1_455 S
C704 C709 1.425 . S
C704 C711 1.409 1_455 S
C705 H697 0.930 . S
C705 C703 1.419 . S
C705 C706 1.362 . S
C706 H698 0.930 . S
C706 C705 1.362 . S
C706 C709 1.409 . S
C707 H699 0.930 . S
C707 C708 1.355 . S
C707 C709 1.415 . S
C708 C707 1.355 . S
C708 C710 1.419 1_455 S
C709 C704 1.425 . S
C709 C706 1.409 . S
C709 C707 1.415 . S
C710 H700 0.930 . S
C710 C708 1.419 1_655 S
C710 C711 1.362 . S
C711 H701 0.930 . S
C711 C704 1.409 1_655 S
C711 C710 1.362 . S
H712 C718 0.930 . S
H713 C721 0.930 . S
H714 C722 0.930 . S
H715 C723 0.930 . S
H716 C726 0.930 . S
H717 C727 0.930 . S
C718 H712 0.930 . S
C718 C719 1.355 . S
C718 C720 1.415 . S
C719 C718 1.355 . S
C719 C721 1.419 . S
C720 C718 1.415 . S
C720 C725 1.425 . S
C720 C727 1.409 . S
C721 H713 0.930 . S
C721 C719 1.419 . S
C721 C722 1.362 . S
C722 H714 0.930 . S
C722 C721 1.362 . S
C722 C725 1.409 . S
C723 H715 0.930 . S
C723 C724 1.355 . S
C723 C725 1.415 . S
C724 C723 1.355 . S
C724 C726 1.419 . S
C725 C720 1.425 . S
C725 C722 1.409 . S
C725 C723 1.415 . S
C726 H716 0.930 . S
C726 C724 1.419 . S
C726 C727 1.362 . S
C727 H717 0.930 . S
C727 C720 1.409 . S
C727 C726 1.362 . S
H728 C734 0.930 . S
H729 C737 0.930 . S
H730 C738 0.930 . S
H731 C739 0.930 . S
H732 C742 0.930 1_556 S
H733 C743 0.930 . S
C734 H728 0.930 . S
C734 C735 1.355 . S
C734 C736 1.415 . S
C735 C734 1.355 . S
C735 C737 1.419 . S
C736 C734 1.415 . S
C736 C741 1.425 . S
C736 C743 1.409 . S
C737 H729 0.930 . S
C737 C735 1.419 . S
C737 C738 1.362 . S
C738 H730 0.930 . S
C738 C737 1.362 . S
C738 C741 1.409 . S
C739 H731 0.930 . S
C739 C740 1.355 . S
C739 C741 1.415 . S
C740 C739 1.355 . S
C740 C742 1.419 . S
C741 C736 1.425 . S
C741 C738 1.409 . S
C741 C739 1.415 . S
C742 H732 0.930 1_554 S
C742 C740 1.419 . S
C742 C743 1.362 . S
C743 H733 0.930 . S
C743 C736 1.409 . S
C743 C742 1.362 . S
H744 C750 0.930 . S
H745 C753 0.930 . S
H746 C754 0.930 . S
H747 C755 0.930 . S
H748 C758 0.930 . S
H749 C759 0.930 . S
C750 H744 0.930 . S
C750 C751 1.355 . S
C750 C752 1.415 . S
C751 C750 1.355 . S
C751 C753 1.419 . S
C752 C750 1.415 . S
C752 C757 1.425 . S
C752 C759 1.409 . S
C753 H745 0.930 . S
C753 C751 1.419 . S
C753 C754 1.362 . S
C754 H746 0.930 . S
C754 C753 1.362 . S
C754 C757 1.409 . S
C755 H747 0.930 . S
C755 C756 1.355 . S
C755 C757 1.415 . S
C756 C755 1.355 . S
C756 C758 1.419 . S
C757 C752 1.425 . S
C757 C754 1.409 . S
C757 C755 1.415 . S
C758 H748 0.930 . S
C758 C756 1.419 . S
C758 C759 1.362 . S
C759 H749 0.930 . S
C759 C752 1.409 . S
C759 C758 1.362 . S
H760 C766 0.930 . S
H761 C769 0.930 . S
H762 C770 0.910 1_565 S
H763 C771 0.930 . S
H764 C774 0.930 . S
H765 C775 0.930 1_455 S
C766 H760 0.930 . S
C766 C767 1.355 . S
C766 C768 1.415 . S
C767 C766 1.355 . S
C767 C769 1.419 . S
C768 C766 1.415 . S
C768 C773 1.425 . S
C768 C775 1.409 . S
C769 H761 0.930 . S
C769 C767 1.419 . S
C769 C770 1.362 . S
C770 H762 0.910 1_545 S
C770 C769 1.362 . S
C770 C773 1.409 . S
C771 H763 0.930 . S
C771 C772 1.355 . S
C771 C773 1.415 . S
C772 C771 1.355 . S
C772 C774 1.419 1_655 S
C773 C768 1.425 . S
C773 C770 1.409 . S
C773 C771 1.415 . S
C774 H764 0.930 . S
C774 C772 1.419 1_455 S
C774 C775 1.362 1_455 S
C775 H765 0.930 1_655 S
C775 C768 1.409 . S
C775 C774 1.362 1_655 S
H776 C782 0.930 . S
H777 C785 0.930 . S
H778 C786 0.930 . S
H779 C787 0.930 . S
H780 C790 0.930 . S
H781 C791 0.930 . S
C782 H776 0.930 . S
C782 C783 1.355 . S
C782 C784 1.415 . S
C783 C782 1.355 . S
C783 C785 1.419 . S
C784 C782 1.415 . S
C784 C789 1.425 . S
C784 C791 1.409 . S
C785 H777 0.930 . S
C785 C783 1.419 . S
C785 C786 1.362 . S
C786 H778 0.930 . S
C786 C785 1.362 . S
C786 C789 1.409 . S
C787 H779 0.930 . S
C787 C788 1.355 . S
C787 C789 1.415 . S
C788 C787 1.355 . S
C788 C790 1.419 . S
C789 C784 1.425 . S
C789 C786 1.409 . S
C789 C787 1.415 . S
C790 H780 0.930 . S
C790 C788 1.419 . S
C790 C791 1.362 . S
C791 H781 0.930 . S
C791 C784 1.409 . S
C791 C790 1.362 . S
H792 C798 0.930 . S
H793 C801 0.930 . S
H794 C802 0.930 . S
H795 C803 0.930 . S
H796 C806 0.930 . S
H797 C807 0.930 . S
C798 H792 0.930 . S
C798 C799 1.355 . S
C798 C800 1.415 . S
C799 C798 1.355 . S
C799 C801 1.419 . S
C800 C798 1.415 . S
C800 C805 1.425 . S
C800 C807 1.409 . S
C801 H793 0.930 . S
C801 C799 1.419 . S
C801 C802 1.362 . S
C802 H794 0.930 . S
C802 C801 1.362 . S
C802 C805 1.409 . S
C803 H795 0.930 . S
C803 C804 1.355 . S
C803 C805 1.415 . S
C804 C803 1.355 . S
C804 C806 1.419 . S
C805 C800 1.425 . S
C805 C802 1.409 . S
C805 C803 1.415 . S
C806 H796 0.930 . S
C806 C804 1.419 . S
C806 C807 1.362 . S
C807 H797 0.930 . S
C807 C800 1.409 . S
C807 C806 1.362 . S
H808 C814 0.930 . S
H809 C817 0.930 . S
H810 C818 0.930 . S
H811 C819 0.930 . S
H812 C822 0.930 . S
H813 C823 0.930 . S
C814 H808 0.930 . S
C814 C815 1.355 . S
C814 C816 1.415 . S
C815 C814 1.355 . S
C815 C817 1.419 . S
C816 C814 1.415 . S
C816 C821 1.425 . S
C816 C823 1.409 . S
C817 H809 0.930 . S
C817 C815 1.419 . S
C817 C818 1.362 . S
C818 H810 0.930 . S
C818 C817 1.362 . S
C818 C821 1.409 . S
C819 H811 0.930 . S
C819 C820 1.355 . S
C819 C821 1.415 . S
C820 C819 1.355 . S
C820 C822 1.419 . S
C821 C816 1.425 . S
C821 C818 1.409 . S
C821 C819 1.415 . S
C822 H812 0.930 . S
C822 C820 1.419 . S
C822 C823 1.362 . S
C823 H813 0.930 . S
C823 C816 1.409 . S
C823 C822 1.362 . S
H824 C830 0.930 . S
H825 C833 0.930 . S
H826 C834 0.930 . S
H827 C835 0.930 . S
H828 C838 0.930 1_455 S
H829 C839 0.930 . S
C830 H824 0.930 . S
C830 C831 1.355 . S
C830 C832 1.415 . S
C831 C830 1.355 . S
C831 C833 1.419 . S
C832 C830 1.415 . S
C832 C837 1.425 . S
C832 C839 1.409 . S
C833 H825 0.930 . S
C833 C831 1.419 . S
C833 C834 1.362 . S
C834 H826 0.930 . S
C834 C833 1.362 . S
C834 C837 1.409 . S
C835 H827 0.930 . S
C835 C836 1.355 . S
C835 C837 1.415 . S
C836 C835 1.355 . S
C836 C838 1.419 . S
C837 C832 1.425 . S
C837 C834 1.409 . S
C837 C835 1.415 . S
C838 H828 0.930 1_655 S
C838 C836 1.419 . S
C838 C839 1.362 . S
C839 H829 0.930 . S
C839 C832 1.409 . S
C839 C838 1.362 . S
H840 C846 0.930 . S
H841 C849 0.930 . S
H842 C850 0.930 . S
H843 C851 0.930 . S
H844 C854 0.930 . S
H845 C855 0.930 . S
C846 H840 0.930 . S
C846 C847 1.355 . S
C846 C848 1.415 . S
C847 C846 1.355 . S
C847 C849 1.419 . S
C848 C846 1.415 . S
C848 C853 1.425 . S
C848 C855 1.409 . S
C849 H841 0.930 . S
C849 C847 1.419 . S
C849 C850 1.362 . S
C850 H842 0.930 . S
C850 C849 1.362 . S
C850 C853 1.409 . S
C851 H843 0.930 . S
C851 C852 1.355 . S
C851 C853 1.415 . S
C852 C851 1.355 . S
C852 C854 1.419 . S
C853 C848 1.425 . S
C853 C850 1.409 . S
C853 C851 1.415 . S
C854 H844 0.930 . S
C854 C852 1.419 . S
C854 C855 1.362 . S
C855 H845 0.930 . S
C855 C848 1.409 . S
C855 C854 1.362 . S
H856 C862 0.918 1_565 S
H857 C865 0.930 . S
H858 C866 0.930 . S
H859 C867 0.930 . S
H860 C870 0.930 . S
H861 C871 0.930 1_565 S
C862 H856 0.918 1_545 S
C862 C863 1.355 . S
C862 C864 1.415 . S
C863 C862 1.355 . S
C863 C865 1.419 . S
C864 C862 1.415 . S
C864 C869 1.425 . S
C864 C871 1.409 . S
C865 H857 0.930 . S
C865 C863 1.419 . S
C865 C866 1.362 . S
C866 H858 0.930 . S
C866 C865 1.362 . S
C866 C869 1.409 . S
C867 H859 0.930 . S
C867 C868 1.355 . S
C867 C869 1.415 . S
C868 C867 1.355 . S
C868 C870 1.419 . S
C869 C864 1.425 . S
C869 C866 1.409 . S
C869 C867 1.415 . S
C870 H860 0.930 . S
C870 C868 1.419 . S
C870 C871 1.362 . S
C871 H861 0.930 1_545 S
C871 C864 1.409 . S
C871 C870 1.362 . S
H872 C878 0.930 . S
H873 C881 0.930 . S
H874 C882 0.930 . S
H875 C883 0.930 . S
H876 C886 0.930 . S
H877 C887 0.930 . S
C878 H872 0.930 . S
C878 C879 1.355 . S
C878 C880 1.415 . S
C879 C878 1.355 . S
C879 C881 1.419 . S
C880 C878 1.415 . S
C880 C885 1.425 . S
C880 C887 1.409 . S
C881 H873 0.930 . S
C881 C879 1.419 . S
C881 C882 1.362 . S
C882 H874 0.930 . S
C882 C881 1.362 . S
C882 C885 1.409 . S
C883 H875 0.930 . S
C883 C884 1.355 . S
C883 C885 1.415 . S
C884 C883 1.355 . S
C884 C886 1.419 . S
C885 C880 1.425 . S
C885 C882 1.409 . S
C885 C883 1.415 . S
C886 H876 0.930 . S
C886 C884 1.419 . S
C886 C887 1.362 . S
C887 H877 0.930 . S
C887 C880 1.409 . S
C887 C886 1.362 . S
H888 C894 0.930 . S
H889 C897 0.930 . S
H890 C898 0.930 1_545 S
H891 C899 0.903 1_545 S
H892 C902 0.930 . S
H893 C903 0.930 . S
C894 H888 0.930 . S
C894 C895 1.355 . S
C894 C896 1.415 . S
C895 C894 1.355 . S
C895 C897 1.419 . S
C896 C894 1.415 . S
C896 C901 1.425 . S
C896 C903 1.409 . S
C897 H889 0.930 . S
C897 C895 1.419 . S
C897 C898 1.362 . S
C898 H890 0.930 1_565 S
C898 C897 1.362 . S
C898 C901 1.409 . S
C899 H891 0.903 1_565 S
C899 C900 1.363 . S
C899 C901 1.432 . S
C900 C899 1.363 . S
C900 C902 1.419 . S
C901 C896 1.425 . S
C901 C898 1.409 . S
C901 C899 1.432 . S
C902 H892 0.930 . S
C902 C900 1.419 . S
C902 C903 1.362 . S
C903 H893 0.930 . S
C903 C896 1.409 . S
C903 C902 1.362 . S
H904 C910 0.930 . S
H905 C913 0.930 . S
H906 C914 0.930 . S
H907 C915 0.930 . S
H908 C918 0.930 . S
H909 C919 0.930 . S
C910 H904 0.930 . S
C910 C911 1.355 1_556 S
C910 C912 1.415 . S
C911 C910 1.355 1_554 S
C911 C913 1.419 . S
C912 C910 1.415 . S
C912 C917 1.425 1_556 S
C912 C919 1.409 . S
C913 H905 0.930 . S
C913 C911 1.419 . S
C913 C914 1.362 . S
C914 H906 0.930 . S
C914 C913 1.362 . S
C914 C917 1.409 . S
C915 H907 0.930 . S
C915 C916 1.355 . S
C915 C917 1.415 . S
C916 C915 1.355 . S
C916 C918 1.419 1_554 S
C917 C912 1.425 1_554 S
C917 C914 1.409 . S
C917 C915 1.415 . S
C918 H908 0.930 . S
C918 C916 1.419 1_556 S
C918 C919 1.362 . S
C919 H909 0.930 . S
C919 C912 1.409 . S
C919 C918 1.362 . S
H920 C926 0.930 . S
H921 C929 0.930 . S
H922 C930 0.930 . S
H923 C931 0.930 . S
H924 C934 0.930 . S
H925 C935 0.930 . S
C926 H920 0.930 . S
C926 C927 1.355 . S
C926 C928 1.415 . S
C927 C926 1.355 . S
C927 C929 1.419 . S
C928 C926 1.415 . S
C928 C933 1.425 . S
C928 C935 1.409 . S
C929 H921 0.930 . S
C929 C927 1.419 . S
C929 C930 1.362 . S
C930 H922 0.930 . S
C930 C929 1.362 . S
C930 C933 1.409 . S
C931 H923 0.930 . S
C931 C932 1.355 . S
C931 C933 1.415 . S
C932 C931 1.355 . S
C932 C934 1.419 . S
C933 C928 1.425 . S
C933 C930 1.409 . S
C933 C931 1.415 . S
C934 H924 0.930 . S
C934 C932 1.419 . S
C934 C935 1.362 . S
C935 H925 0.930 . S
C935 C928 1.409 . S
C935 C934 1.362 . S
H936 C942 0.930 . S
H937 C945 0.930 . S
H938 C946 0.930 . S
H939 C947 0.930 . S
H940 C950 0.930 . S
H941 C951 0.930 . S
C942 H936 0.930 . S
C942 C943 1.355 . S
C942 C944 1.415 . S
C943 C942 1.355 . S
C943 C945 1.419 . S
C944 C942 1.415 . S
C944 C949 1.425 . S
C944 C951 1.409 . S
C945 H937 0.930 . S
C945 C943 1.419 . S
C945 C946 1.362 . S
C946 H938 0.930 . S
C946 C945 1.362 . S
C946 C949 1.409 . S
C947 H939 0.930 . S
C947 C948 1.355 . S
C947 C949 1.415 . S
C948 C947 1.355 . S
C948 C950 1.419 . S
C949 C944 1.425 . S
C949 C946 1.409 . S
C949 C947 1.415 . S
C950 H940 0.930 . S
C950 C948 1.419 . S
C950 C951 1.362 . S
C951 H941 0.930 . S
C951 C944 1.409 . S
C951 C950 1.362 . S
H952 C958 0.930 . S
H953 C961 0.930 . S
H954 C962 0.930 . S
H955 C963 0.930 . S
H956 C966 0.930 . S
H957 C967 0.930 . S
C958 H952 0.930 . S
C958 C959 1.355 . S
C958 C960 1.415 . S
C959 C958 1.355 . S
C959 C961 1.419 . S
C960 C958 1.415 . S
C960 C965 1.425 . S
C960 C967 1.409 . S
C961 H953 0.930 . S
C961 C959 1.419 . S
C961 C962 1.362 . S
C962 H954 0.930 . S
C962 C961 1.362 . S
C962 C965 1.409 . S
C963 H955 0.930 . S
C963 C964 1.355 . S
C963 C965 1.415 . S
C964 C963 1.355 . S
C964 C966 1.419 . S
C965 C960 1.425 . S
C965 C962 1.409 . S
C965 C963 1.415 . S
C966 H956 0.930 . S
C966 C964 1.419 . S
C966 C967 1.362 . S
C967 H957 0.930 . S
C967 C960 1.409 . S
C967 C966 1.362 . S
H968 C974 0.930 . S
H969 C977 0.930 . S
H970 C978 0.930 . S
H971 C979 0.930 . S
H972 C982 0.930 . S
H973 C983 0.930 . S
C974 H968 0.930 . S
C974 C975 1.355 . S
C974 C976 1.415 . S
C975 C974 1.355 . S
C975 C977 1.419 . S
C976 C974 1.415 . S
C976 C981 1.425 . S
C976 C983 1.409 . S
C977 H969 0.930 . S
C977 C975 1.419 . S
C977 C978 1.362 . S
C978 H970 0.930 . S
C978 C977 1.362 . S
C978 C981 1.409 . S
C979 H971 0.930 . S
C979 C980 1.355 . S
C979 C981 1.415 . S
C980 C979 1.355 . S
C980 C982 1.419 . S
C981 C976 1.425 . S
C981 C978 1.409 . S
C981 C979 1.415 . S
C982 H972 0.930 . S
C982 C980 1.419 . S
C982 C983 1.362 . S
C983 H973 0.930 . S
C983 C976 1.409 . S
C983 C982 1.362 . S
H984 C990 0.930 . S
H985 C993 0.930 . S
H986 C994 0.930 . S
H987 C995 0.930 . S
H988 C998 0.930 . S
H989 C999 0.930 . S
C990 H984 0.930 . S
C990 C991 1.355 . S
C990 C992 1.415 . S
C991 C990 1.355 . S
C991 C993 1.419 . S
C992 C990 1.415 . S
C992 C997 1.425 . S
C992 C999 1.409 . S
C993 H985 0.930 . S
C993 C991 1.419 . S
C993 C994 1.362 . S
C994 H986 0.930 . S
C994 C993 1.362 . S
C994 C997 1.409 . S
C995 H987 0.930 . S
C995 C996 1.355 . S
C995 C997 1.415 . S
C996 C995 1.355 . S
C996 C998 1.419 . S
C997 C992 1.425 . S
C997 C994 1.409 . S
C997 C995 1.415 . S
C998 H988 0.930 . S
C998 C996 1.419 . S
C998 C999 1.362 . S
C999 H989 0.930 . S
C999 C992 1.409 . S
C999 C998 1.362 . S
H1000 C1006 0.930 . S
H1001 C1009 0.930 . S
H1002 C1010 0.930 . S
H1003 C1011 0.930 . S
H1004 C1014 0.930 . S
H1005 C1015 0.930 . S
C1006 H1000 0.930 . S
C1006 C1007 1.355 . S
C1006 C1008 1.415 . S
C1007 C1006 1.355 . S
C1007 C1009 1.419 . S
C1008 C1006 1.415 . S
C1008 C1013 1.425 . S
C1008 C1015 1.409 . S
C1009 H1001 0.930 . S
C1009 C1007 1.419 . S
C1009 C1010 1.362 . S
C1010 H1002 0.930 . S
C1010 C1009 1.362 . S
C1010 C1013 1.409 . S
C1011 H1003 0.930 . S
C1011 C1012 1.355 . S
C1011 C1013 1.415 . S
C1012 C1011 1.355 . S
C1012 C1014 1.419 . S
C1013 C1008 1.425 . S
C1013 C1010 1.409 . S
C1013 C1011 1.415 . S
C1014 H1004 0.930 . S
C1014 C1012 1.419 . S
C1014 C1015 1.362 . S
C1015 H1005 0.930 . S
C1015 C1008 1.409 . S
C1015 C1014 1.362 . S
H1016 C1022 0.930 . S
H1017 C1025 0.930 . S
H1018 C1026 0.930 . S
H1019 C1027 0.930 . S
H1020 C1030 0.930 1_556 S
H1021 C1031 0.930 1_556 S
C1022 H1016 0.930 . S
C1022 C1023 1.355 . S
C1022 C1024 1.415 . S
C1023 C1022 1.355 . S
C1023 C1025 1.419 . S
C1024 C1022 1.415 . S
C1024 C1029 1.425 . S
C1024 C1031 1.409 . S
C1025 H1017 0.930 . S
C1025 C1023 1.419 . S
C1025 C1026 1.362 . S
C1026 H1018 0.930 . S
C1026 C1025 1.362 . S
C1026 C1029 1.409 . S
C1027 H1019 0.930 . S
C1027 C1028 1.355 . S
C1027 C1029 1.415 . S
C1028 C1027 1.355 . S
C1028 C1030 1.419 . S
C1029 C1024 1.425 . S
C1029 C1026 1.409 . S
C1029 C1027 1.415 . S
C1030 H1020 0.930 1_554 S
C1030 C1028 1.419 . S
C1030 C1031 1.362 . S
C1031 H1021 0.930 1_554 S
C1031 C1024 1.409 . S
C1031 C1030 1.362 . S
H1032 C1038 0.930 . S
H1033 C1041 0.930 . S
H1034 C1042 0.930 . S
H1035 C1043 0.930 . S
H1036 C1046 0.930 . S
H1037 C1047 0.930 . S
C1038 H1032 0.930 . S
C1038 C1039 1.355 . S
C1038 C1040 1.415 . S
C1039 C1038 1.355 . S
C1039 C1041 1.419 . S
C1040 C1038 1.415 . S
C1040 C1045 1.425 . S
C1040 C1047 1.409 . S
C1041 H1033 0.930 . S
C1041 C1039 1.419 . S
C1041 C1042 1.362 . S
C1042 H1034 0.930 . S
C1042 C1041 1.362 . S
C1042 C1045 1.409 . S
C1043 H1035 0.930 . S
C1043 C1044 1.355 . S
C1043 C1045 1.415 . S
C1044 C1043 1.355 . S
C1044 C1046 1.419 . S
C1045 C1040 1.425 . S
C1045 C1042 1.409 . S
C1045 C1043 1.415 . S
C1046 H1036 0.930 . S
C1046 C1044 1.419 . S
C1046 C1047 1.362 . S
C1047 H1037 0.930 . S
C1047 C1040 1.409 . S
C1047 C1046 1.362 . S
H1048 C1054 0.930 . S
H1049 C1057 0.930 . S
H1050 C1058 0.930 . S
H1051 C1059 0.930 . S
H1052 C1062 0.930 . S
H1053 C1063 0.930 . S
C1054 H1048 0.930 . S
C1054 C1055 1.355 . S
C1054 C1056 1.415 . S
C1055 C1054 1.355 . S
C1055 C1057 1.419 . S
C1056 C1054 1.415 . S
C1056 C1061 1.425 . S
C1056 C1063 1.409 . S
C1057 H1049 0.930 . S
C1057 C1055 1.419 . S
C1057 C1058 1.362 . S
C1058 H1050 0.930 . S
C1058 C1057 1.362 . S
C1058 C1061 1.409 . S
C1059 H1051 0.930 . S
C1059 C1060 1.355 . S
C1059 C1061 1.415 . S
C1060 C1059 1.355 . S
C1060 C1062 1.419 . S
C1061 C1056 1.425 . S
C1061 C1058 1.409 . S
C1061 C1059 1.415 . S
C1062 H1052 0.930 . S
C1062 C1060 1.419 . S
C1062 C1063 1.362 . S
C1063 H1053 0.930 . S
C1063 C1056 1.409 . S
C1063 C1062 1.362 . S
H1064 C1070 0.930 . S
H1065 C1073 0.930 . S
H1066 C1074 0.930 . S
H1067 C1075 0.930 . S
H1068 C1078 0.930 . S
H1069 C1079 0.930 . S
C1070 H1064 0.930 . S
C1070 C1071 1.355 . S
C1070 C1072 1.415 . S
C1071 C1070 1.355 . S
C1071 C1073 1.419 . S
C1072 C1070 1.415 . S
C1072 C1077 1.425 . S
C1072 C1079 1.409 . S
C1073 H1065 0.930 . S
C1073 C1071 1.419 . S
C1073 C1074 1.362 . S
C1074 H1066 0.930 . S
C1074 C1073 1.362 . S
C1074 C1077 1.409 . S
C1075 H1067 0.930 . S
C1075 C1076 1.355 . S
C1075 C1077 1.415 . S
C1076 C1075 1.355 . S
C1076 C1078 1.419 . S
C1077 C1072 1.425 . S
C1077 C1074 1.409 . S
C1077 C1075 1.415 . S
C1078 H1068 0.930 . S
C1078 C1076 1.419 . S
C1078 C1079 1.362 . S
C1079 H1069 0.930 . S
C1079 C1072 1.409 . S
C1079 C1078 1.362 . S
H1080 C1086 0.930 . S
H1081 C1089 0.930 . S
H1082 C1090 0.930 . S
H1083 C1091 0.930 . S
H1084 C1094 0.930 . S
H1085 C1095 0.930 . S
C1086 H1080 0.930 . S
C1086 C1087 1.354 1_655 S
C1086 C1088 1.414 . S
C1087 C1086 1.354 1_455 S
C1087 C1089 1.419 . S
C1088 C1086 1.414 . S
C1088 C1093 1.427 1_655 S
C1088 C1095 1.408 . S
C1089 H1081 0.930 . S
C1089 C1087 1.419 . S
C1089 C1090 1.362 . S
C1090 H1082 0.930 . S
C1090 C1089 1.362 . S
C1090 C1093 1.409 . S
C1091 H1083 0.930 . S
C1091 C1092 1.370 . S
C1091 C1093 1.415 . S
C1092 C1091 1.370 . S
C1092 C1094 1.400 1_455 S
C1093 C1088 1.427 1_455 S
C1093 C1090 1.409 . S
C1093 C1091 1.415 . S
C1094 H1084 0.930 . S
C1094 C1092 1.400 1_655 S
C1094 C1095 1.362 . S
C1095 H1085 0.930 . S
C1095 C1088 1.408 . S
C1095 C1094 1.362 . S
H1096 C1102 0.930 . S
H1097 C1105 0.930 . S
H1098 C1106 0.930 . S
H1099 C1107 0.930 . S
H1100 C1110 0.930 . S
H1101 C1111 0.930 . S
C1102 H1096 0.930 . S
C1102 C1103 1.355 . S
C1102 C1104 1.415 . S
C1103 C1102 1.355 . S
C1103 C1105 1.419 . S
C1104 C1102 1.415 . S
C1104 C1109 1.425 . S
C1104 C1111 1.409 . S
C1105 H1097 0.930 . S
C1105 C1103 1.419 . S
C1105 C1106 1.362 . S
C1106 H1098 0.930 . S
C1106 C1105 1.362 . S
C1106 C1109 1.409 . S
C1107 H1099 0.930 . S
C1107 C1108 1.355 . S
C1107 C1109 1.415 . S
C1108 C1107 1.355 . S
C1108 C1110 1.419 . S
C1109 C1104 1.425 . S
C1109 C1106 1.409 . S
C1109 C1107 1.415 . S
C1110 H1100 0.930 . S
C1110 C1108 1.419 . S
C1110 C1111 1.362 . S
C1111 H1101 0.930 . S
C1111 C1104 1.409 . S
C1111 C1110 1.362 . S
H1112 C1118 0.930 . S
H1113 C1121 0.930 . S
H1114 C1122 0.915 1_554 S
H1115 C1123 0.930 1_554 S
H1116 C1126 0.930 . S
H1117 C1127 0.930 . S
C1118 H1112 0.930 . S
C1118 C1119 1.355 . S
C1118 C1120 1.415 . S
C1119 C1118 1.355 . S
C1119 C1121 1.419 . S
C1120 C1118 1.415 . S
C1120 C1125 1.425 . S
C1120 C1127 1.409 . S
C1121 H1113 0.930 . S
C1121 C1119 1.419 . S
C1121 C1122 1.362 . S
C1122 H1114 0.915 1_556 S
C1122 C1121 1.362 . S
C1122 C1125 1.409 . S
C1123 H1115 0.930 1_556 S
C1123 C1124 1.355 . S
C1123 C1125 1.415 . S
C1124 C1123 1.355 . S
C1124 C1126 1.419 . S
C1125 C1120 1.425 . S
C1125 C1122 1.409 . S
C1125 C1123 1.415 . S
C1126 H1116 0.930 . S
C1126 C1124 1.419 . S
C1126 C1127 1.362 . S
C1127 H1117 0.930 . S
C1127 C1120 1.409 . S
C1127 C1126 1.362 . S
H1128 C1134 0.930 . S
H1129 C1137 0.930 . S
H1130 C1138 0.930 . S
H1131 C1139 0.930 . S
H1132 C1142 0.930 . S
H1133 C1143 0.930 . S
C1134 H1128 0.930 . S
C1134 C1135 1.355 . S
C1134 C1136 1.415 . S
C1135 C1134 1.355 . S
C1135 C1137 1.419 . S
C1136 C1134 1.415 . S
C1136 C1141 1.425 . S
C1136 C1143 1.409 . S
C1137 H1129 0.930 . S
C1137 C1135 1.419 . S
C1137 C1138 1.362 . S
C1138 H1130 0.930 . S
C1138 C1137 1.362 . S
C1138 C1141 1.409 . S
C1139 H1131 0.930 . S
C1139 C1140 1.355 . S
C1139 C1141 1.415 . S
C1140 C1139 1.355 . S
C1140 C1142 1.419 . S
C1141 C1136 1.425 . S
C1141 C1138 1.409 . S
C1141 C1139 1.415 . S
C1142 H1132 0.930 . S
C1142 C1140 1.419 . S
C1142 C1143 1.362 . S
C1143 H1133 0.930 . S
C1143 C1136 1.409 . S
C1143 C1142 1.362 . S
H1144 C1150 0.930 . S
H1145 C1153 0.930 . S
H1146 C1154 0.930 . S
H1147 C1155 0.930 . S
H1148 C1158 0.930 . S
H1149 C1159 0.930 . S
C1150 H1144 0.930 . S
C1150 C1151 1.355 . S
C1150 C1152 1.415 . S
C1151 C1150 1.355 . S
C1151 C1153 1.419 1_565 S
C1152 C1150 1.415 . S
C1152 C1157 1.425 1_565 S
C1152 C1159 1.409 . S
C1153 H1145 0.930 . S
C1153 C1151 1.419 1_545 S
C1153 C1154 1.362 . S
C1154 H1146 0.930 . S
C1154 C1153 1.362 . S
C1154 C1157 1.409 . S
C1155 H1147 0.930 . S
C1155 C1156 1.355 . S
C1155 C1157 1.415 . S
C1156 C1155 1.355 . S
C1156 C1158 1.419 1_545 S
C1157 C1152 1.425 1_545 S
C1157 C1154 1.409 . S
C1157 C1155 1.415 . S
C1158 H1148 0.930 . S
C1158 C1156 1.419 1_565 S
C1158 C1159 1.362 . S
C1159 H1149 0.930 . S
C1159 C1152 1.409 . S
C1159 C1158 1.362 . S
H1160 C1166 0.930 . S
H1161 C1169 0.930 . S
H1162 C1170 0.930 . S
H1163 C1171 0.930 . S
H1164 C1174 0.930 . S
H1165 C1175 0.930 . S
C1166 H1160 0.930 . S
C1166 C1167 1.355 . S
C1166 C1168 1.415 . S
C1167 C1166 1.355 . S
C1167 C1169 1.419 . S
C1168 C1166 1.415 . S
C1168 C1173 1.425 . S
C1168 C1175 1.409 . S
C1169 H1161 0.930 . S
C1169 C1167 1.419 . S
C1169 C1170 1.362 . S
C1170 H1162 0.930 . S
C1170 C1169 1.362 . S
C1170 C1173 1.409 . S
C1171 H1163 0.930 . S
C1171 C1172 1.355 . S
C1171 C1173 1.415 . S
C1172 C1171 1.355 . S
C1172 C1174 1.419 . S
C1173 C1168 1.425 . S
C1173 C1170 1.409 . S
C1173 C1171 1.415 . S
C1174 H1164 0.930 . S
C1174 C1172 1.419 . S
C1174 C1175 1.362 . S
C1175 H1165 0.930 . S
C1175 C1168 1.409 . S
C1175 C1174 1.362 . S
H1176 C1182 0.930 . S
H1177 C1185 0.930 . S
H1178 C1186 0.930 . S
H1179 C1187 0.930 . S
H1180 C1190 0.930 . S
H1181 C1191 0.922 1_565 S
C1182 H1176 0.930 . S
C1182 C1183 1.355 . S
C1182 C1184 1.415 . S
C1183 C1182 1.355 . S
C1183 C1185 1.419 . S
C1184 C1182 1.415 . S
C1184 C1189 1.425 . S
C1184 C1191 1.409 . S
C1185 H1177 0.930 . S
C1185 C1183 1.419 . S
C1185 C1186 1.362 . S
C1186 H1178 0.930 . S
C1186 C1185 1.362 . S
C1186 C1189 1.409 . S
C1187 H1179 0.930 . S
C1187 C1188 1.355 . S
C1187 C1189 1.415 . S
C1188 C1187 1.355 . S
C1188 C1190 1.419 . S
C1189 C1184 1.425 . S
C1189 C1186 1.409 . S
C1189 C1187 1.415 . S
C1190 H1180 0.930 . S
C1190 C1188 1.419 . S
C1190 C1191 1.362 . S
C1191 H1181 0.922 1_545 S
C1191 C1184 1.409 . S
C1191 C1190 1.362 . S
H1192 C1198 0.930 . S
H1193 C1201 0.930 . S
H1194 C1202 0.930 . S
H1195 C1203 0.930 . S
H1196 C1206 0.930 . S
H1197 C1207 0.930 . S
C1198 H1192 0.930 . S
C1198 C1199 1.355 . S
C1198 C1200 1.415 . S
C1199 C1198 1.355 . S
C1199 C1201 1.419 . S
C1200 C1198 1.415 . S
C1200 C1205 1.425 . S
C1200 C1207 1.409 . S
C1201 H1193 0.930 . S
C1201 C1199 1.419 . S
C1201 C1202 1.362 . S
C1202 H1194 0.930 . S
C1202 C1201 1.362 . S
C1202 C1205 1.409 . S
C1203 H1195 0.930 . S
C1203 C1204 1.355 . S
C1203 C1205 1.415 . S
C1204 C1203 1.355 . S
C1204 C1206 1.419 . S
C1205 C1200 1.425 . S
C1205 C1202 1.409 . S
C1205 C1203 1.415 . S
C1206 H1196 0.930 . S
C1206 C1204 1.419 . S
C1206 C1207 1.362 . S
C1207 H1197 0.930 . S
C1207 C1200 1.409 . S
C1207 C1206 1.362 . S
H1208 C1214 0.930 . S
H1209 C1217 0.930 . S
H1210 C1218 0.930 . S
H1211 C1219 0.930 . S
H1212 C1222 0.930 . S
H1213 C1223 0.930 . S
C1214 H1208 0.930 . S
C1214 C1215 1.368 . S
C1214 C1216 1.415 . S
C1215 C1214 1.368 . S
C1215 C1217 1.387 1_565 S
C1216 C1214 1.415 . S
C1216 C1221 1.425 1_565 S
C1216 C1223 1.409 . S
C1217 H1209 0.930 . S
C1217 C1215 1.387 1_545 S
C1217 C1218 1.362 . S
C1218 H1210 0.930 . S
C1218 C1217 1.362 . S
C1218 C1221 1.409 . S
C1219 H1211 0.930 . S
C1219 C1220 1.355 . S
C1219 C1221 1.415 . S
C1220 C1219 1.355 . S
C1220 C1222 1.419 1_545 S
C1221 C1216 1.425 1_545 S
C1221 C1218 1.409 . S
C1221 C1219 1.415 . S
C1222 H1212 0.930 . S
C1222 C1220 1.419 1_565 S
C1222 C1223 1.362 . S
C1223 H1213 0.930 . S
C1223 C1216 1.409 . S
C1223 C1222 1.362 . S
H1224 C1230 0.930 . S
H1225 C1233 0.930 . S
H1226 C1234 0.930 . S
H1227 C1235 0.930 . S
H1228 C1238 0.930 . S
H1229 C1239 0.930 . S
C1230 H1224 0.930 . S
C1230 C1231 1.355 . S
C1230 C1232 1.415 . S
C1231 C1230 1.355 . S
C1231 C1233 1.419 . S
C1232 C1230 1.415 . S
C1232 C1237 1.425 . S
C1232 C1239 1.409 . S
C1233 H1225 0.930 . S
C1233 C1231 1.419 . S
C1233 C1234 1.362 . S
C1234 H1226 0.930 . S
C1234 C1233 1.362 . S
C1234 C1237 1.409 . S
C1235 H1227 0.930 . S
C1235 C1236 1.355 . S
C1235 C1237 1.415 . S
C1236 C1235 1.355 . S
C1236 C1238 1.419 . S
C1237 C1232 1.425 . S
C1237 C1234 1.409 . S
C1237 C1235 1.415 . S
C1238 H1228 0.930 . S
C1238 C1236 1.419 . S
C1238 C1239 1.362 . S
C1239 H1229 0.930 . S
C1239 C1232 1.409 . S
C1239 C1238 1.362 . S
H1240 C1246 0.930 . S
H1241 C1249 0.930 . S
H1242 C1250 0.930 . S
H1243 C1251 0.930 . S
H1244 C1254 0.930 . S
H1245 C1255 0.930 . S
C1246 H1240 0.930 . S
C1246 C1247 1.355 . S
C1246 C1248 1.415 . S
C1247 C1246 1.355 . S
C1247 C1249 1.419 . S
C1248 C1246 1.415 . S
C1248 C1253 1.425 . S
C1248 C1255 1.409 . S
C1249 H1241 0.930 . S
C1249 C1247 1.419 . S
C1249 C1250 1.362 . S
C1250 H1242 0.930 . S
C1250 C1249 1.362 . S
C1250 C1253 1.409 . S
C1251 H1243 0.930 . S
C1251 C1252 1.355 . S
C1251 C1253 1.415 1_565 S
C1252 C1251 1.355 . S
C1252 C1254 1.419 . S
C1253 C1248 1.425 . S
C1253 C1250 1.409 . S
C1253 C1251 1.415 1_545 S
C1254 H1244 0.930 . S
C1254 C1252 1.419 . S
C1254 C1255 1.362 1_565 S
C1255 H1245 0.930 . S
C1255 C1248 1.409 . S
C1255 C1254 1.362 1_545 S
H1256 C1262 0.930 . S
H1257 C1265 0.930 . S
H1258 C1266 0.930 . S
H1259 C1267 0.930 . S
H1260 C1270 0.930 . S
H1261 C1271 0.930 . S
C1262 H1256 0.930 . S
C1262 C1263 1.355 . S
C1262 C1264 1.415 . S
C1263 C1262 1.355 . S
C1263 C1265 1.419 . S
C1264 C1262 1.415 . S
C1264 C1269 1.425 . S
C1264 C1271 1.409 . S
C1265 H1257 0.930 . S
C1265 C1263 1.419 . S
C1265 C1266 1.362 . S
C1266 H1258 0.930 . S
C1266 C1265 1.362 . S
C1266 C1269 1.409 . S
C1267 H1259 0.930 . S
C1267 C1268 1.355 . S
C1267 C1269 1.415 . S
C1268 C1267 1.355 . S
C1268 C1270 1.419 . S
C1269 C1264 1.425 . S
C1269 C1266 1.409 . S
C1269 C1267 1.415 . S
C1270 H1260 0.930 . S
C1270 C1268 1.419 . S
C1270 C1271 1.362 . S
C1271 H1261 0.930 . S
C1271 C1264 1.409 . S
C1271 C1270 1.362 . S
H1272 C1278 0.930 1_554 S
H1273 C1281 0.930 . S
H1274 C1282 0.930 . S
H1275 C1283 0.930 . S
H1276 C1286 0.930 . S
H1277 C1287 0.930 . S
C1278 H1272 0.930 1_556 S
C1278 C1279 1.355 . S
C1278 C1280 1.415 . S
C1279 C1278 1.355 . S
C1279 C1281 1.419 . S
C1280 C1278 1.415 . S
C1280 C1285 1.425 . S
C1280 C1287 1.409 . S
C1281 H1273 0.930 . S
C1281 C1279 1.419 . S
C1281 C1282 1.362 . S
C1282 H1274 0.930 . S
C1282 C1281 1.362 . S
C1282 C1285 1.409 . S
C1283 H1275 0.930 . S
C1283 C1284 1.355 . S
C1283 C1285 1.415 . S
C1284 C1283 1.355 . S
C1284 C1286 1.419 . S
C1285 C1280 1.425 . S
C1285 C1282 1.409 . S
C1285 C1283 1.415 . S
C1286 H1276 0.930 . S
C1286 C1284 1.419 . S
C1286 C1287 1.362 . S
C1287 H1277 0.930 . S
C1287 C1280 1.409 . S
C1287 C1286 1.362 . S
H1288 C1294 0.930 1_556 S
H1289 C1297 0.930 . S
H1290 C1298 0.930 . S
H1291 C1299 0.930 . S
H1292 C1302 0.930 . S
H1293 C1303 0.930 . S
C1294 H1288 0.930 1_554 S
C1294 C1295 1.355 . S
C1294 C1296 1.415 . S
C1295 C1294 1.355 . S
C1295 C1297 1.419 . S
C1296 C1294 1.415 . S
C1296 C1301 1.425 . S
C1296 C1303 1.409 1_554 S
C1297 H1289 0.930 . S
C1297 C1295 1.419 . S
C1297 C1298 1.362 . S
C1298 H1290 0.930 . S
C1298 C1297 1.362 . S
C1298 C1301 1.409 . S
C1299 H1291 0.930 . S
C1299 C1300 1.355 . S
C1299 C1301 1.415 . S
C1300 C1299 1.355 . S
C1300 C1302 1.419 1_554 S
C1301 C1296 1.425 . S
C1301 C1298 1.409 . S
C1301 C1299 1.415 . S
C1302 H1292 0.930 . S
C1302 C1300 1.419 1_556 S
C1302 C1303 1.362 . S
C1303 H1293 0.930 . S
C1303 C1296 1.409 1_556 S
C1303 C1302 1.362 . S
H1304 C1310 0.930 . S
H1305 C1313 0.930 . S
H1306 C1314 0.930 . S
H1307 C1315 0.930 . S
H1308 C1318 0.930 . S
H1309 C1319 0.930 . S
C1310 H1304 0.930 . S
C1310 C1311 1.355 . S
C1310 C1312 1.415 . S
C1311 C1310 1.355 . S
C1311 C1313 1.419 . S
C1312 C1310 1.415 . S
C1312 C1317 1.425 . S
C1312 C1319 1.409 . S
C1313 H1305 0.930 . S
C1313 C1311 1.419 . S
C1313 C1314 1.362 . S
C1314 H1306 0.930 . S
C1314 C1313 1.362 . S
C1314 C1317 1.409 . S
C1315 H1307 0.930 . S
C1315 C1316 1.355 . S
C1315 C1317 1.415 . S
C1316 C1315 1.355 . S
C1316 C1318 1.419 . S
C1317 C1312 1.425 . S
C1317 C1314 1.409 . S
C1317 C1315 1.415 . S
C1318 H1308 0.930 . S
C1318 C1316 1.419 . S
C1318 C1319 1.362 . S
C1319 H1309 0.930 . S
C1319 C1312 1.409 . S
C1319 C1318 1.362 . S
H1320 C1326 0.930 . S
H1321 C1329 0.930 . S
H1322 C1330 0.930 . S
H1323 C1331 0.930 . S
H1324 C1334 0.930 . S
H1325 C1335 0.930 . S
C1326 H1320 0.930 . S
C1326 C1327 1.355 . S
C1326 C1328 1.415 . S
C1327 C1326 1.355 . S
C1327 C1329 1.419 . S
C1328 C1326 1.415 . S
C1328 C1333 1.425 . S
C1328 C1335 1.409 . S
C1329 H1321 0.930 . S
C1329 C1327 1.419 . S
C1329 C1330 1.362 . S
C1330 H1322 0.930 . S
C1330 C1329 1.362 . S
C1330 C1333 1.409 . S
C1331 H1323 0.930 . S
C1331 C1332 1.355 . S
C1331 C1333 1.415 . S
C1332 C1331 1.355 . S
C1332 C1334 1.419 . S
C1333 C1328 1.425 . S
C1333 C1330 1.409 . S
C1333 C1331 1.415 . S
C1334 H1324 0.930 . S
C1334 C1332 1.419 . S
C1334 C1335 1.362 . S
C1335 H1325 0.930 . S
C1335 C1328 1.409 . S
C1335 C1334 1.362 . S
H1336 C1342 0.930 . S
H1337 C1345 0.930 . S
H1338 C1346 0.930 . S
H1339 C1347 0.930 . S
H1340 C1350 0.930 . S
H1341 C1351 0.930 . S
C1342 H1336 0.930 . S
C1342 C1343 1.355 . S
C1342 C1344 1.415 . S
C1343 C1342 1.355 . S
C1343 C1345 1.419 . S
C1344 C1342 1.415 . S
C1344 C1349 1.425 . S
C1344 C1351 1.409 . S
C1345 H1337 0.930 . S
C1345 C1343 1.419 . S
C1345 C1346 1.362 . S
C1346 H1338 0.930 . S
C1346 C1345 1.362 . S
C1346 C1349 1.409 . S
C1347 H1339 0.930 . S
C1347 C1348 1.355 . S
C1347 C1349 1.415 . S
C1348 C1347 1.355 . S
C1348 C1350 1.419 . S
C1349 C1344 1.425 . S
C1349 C1346 1.409 . S
C1349 C1347 1.415 . S
C1350 H1340 0.930 . S
C1350 C1348 1.419 . S
C1350 C1351 1.362 . S
C1351 H1341 0.930 . S
C1351 C1344 1.409 . S
C1351 C1350 1.362 . S
H1352 C1358 0.930 . S
H1353 C1361 0.930 . S
H1354 C1362 0.930 . S
H1355 C1363 0.930 . S
H1356 C1366 0.930 1_545 S
H1357 C1367 0.930 . S
C1358 H1352 0.930 . S
C1358 C1359 1.355 . S
C1358 C1360 1.415 . S
C1359 C1358 1.355 . S
C1359 C1361 1.419 . S
C1360 C1358 1.415 . S
C1360 C1365 1.425 . S
C1360 C1367 1.409 . S
C1361 H1353 0.930 . S
C1361 C1359 1.419 . S
C1361 C1362 1.362 . S
C1362 H1354 0.930 . S
C1362 C1361 1.362 . S
C1362 C1365 1.409 . S
C1363 H1355 0.930 . S
C1363 C1364 1.355 . S
C1363 C1365 1.415 . S
C1364 C1363 1.355 . S
C1364 C1366 1.419 . S
C1365 C1360 1.425 . S
C1365 C1362 1.409 . S
C1365 C1363 1.415 . S
C1366 H1356 0.930 1_565 S
C1366 C1364 1.419 . S
C1366 C1367 1.362 . S
C1367 H1357 0.930 . S
C1367 C1360 1.409 . S
C1367 C1366 1.362 . S
H1368 C1374 0.930 . S
H1369 C1377 0.930 . S
H1370 C1378 0.930 . S
H1371 C1379 0.930 . S
H1372 C1382 0.930 . S
H1373 C1383 0.930 . S
C1374 H1368 0.930 . S
C1374 C1375 1.355 . S
C1374 C1376 1.415 . S
C1375 C1374 1.355 . S
C1375 C1377 1.419 . S
C1376 C1374 1.415 . S
C1376 C1381 1.425 . S
C1376 C1383 1.409 . S
C1377 H1369 0.930 . S
C1377 C1375 1.419 . S
C1377 C1378 1.362 . S
C1378 H1370 0.930 . S
C1378 C1377 1.362 . S
C1378 C1381 1.409 . S
C1379 H1371 0.930 . S
C1379 C1380 1.355 . S
C1379 C1381 1.415 . S
C1380 C1379 1.355 . S
C1380 C1382 1.419 . S
C1381 C1376 1.425 . S
C1381 C1378 1.409 . S
C1381 C1379 1.415 . S
C1382 H1372 0.930 . S
C1382 C1380 1.419 . S
C1382 C1383 1.362 . S
C1383 H1373 0.930 . S
C1383 C1376 1.409 . S
C1383 C1382 1.362 . S
H1384 C1390 0.930 . S
H1385 C1393 0.930 . S
H1386 C1394 0.930 . S
H1387 C1395 0.930 . S
H1388 C1398 0.930 . S
H1389 C1399 0.930 . S
C1390 H1384 0.930 . S
C1390 C1391 1.355 . S
C1390 C1392 1.415 . S
C1391 C1390 1.355 . S
C1391 C1393 1.419 . S
C1392 C1390 1.415 . S
C1392 C1397 1.425 . S
C1392 C1399 1.409 . S
C1393 H1385 0.930 . S
C1393 C1391 1.419 . S
C1393 C1394 1.362 . S
C1394 H1386 0.930 . S
C1394 C1393 1.362 . S
C1394 C1397 1.409 . S
C1395 H1387 0.930 . S
C1395 C1396 1.355 . S
C1395 C1397 1.415 . S
C1396 C1395 1.355 . S
C1396 C1398 1.419 . S
C1397 C1392 1.425 . S
C1397 C1394 1.409 . S
C1397 C1395 1.415 . S
C1398 H1388 0.930 . S
C1398 C1396 1.419 . S
C1398 C1399 1.362 . S
C1399 H1389 0.930 . S
C1399 C1392 1.409 . S
C1399 C1398 1.362 . S
H1400 C1406 0.930 . S
H1401 C1409 0.930 . S
H1402 C1410 0.930 . S
H1403 C1411 0.930 . S
H1404 C1414 0.930 . S
H1405 C1415 0.930 . S
C1406 H1400 0.930 . S
C1406 C1407 1.355 . S
C1406 C1408 1.415 . S
C1407 C1406 1.355 . S
C1407 C1409 1.419 . S
C1408 C1406 1.415 . S
C1408 C1413 1.425 . S
C1408 C1415 1.409 . S
C1409 H1401 0.930 . S
C1409 C1407 1.419 . S
C1409 C1410 1.362 . S
C1410 H1402 0.930 . S
C1410 C1409 1.362 . S
C1410 C1413 1.409 . S
C1411 H1403 0.930 . S
C1411 C1412 1.355 . S
C1411 C1413 1.415 . S
C1412 C1411 1.355 . S
C1412 C1414 1.419 . S
C1413 C1408 1.425 . S
C1413 C1410 1.409 . S
C1413 C1411 1.415 . S
C1414 H1404 0.930 . S
C1414 C1412 1.419 . S
C1414 C1415 1.362 . S
C1415 H1405 0.930 . S
C1415 C1408 1.409 . S
C1415 C1414 1.362 . S
H1416 C1422 0.930 . S
H1417 C1425 0.930 . S
H1418 C1426 0.930 . S
H1419 C1427 0.930 . S
H1420 C1430 0.930 . S
H1421 C1431 0.930 . S
C1422 H1416 0.930 . S
C1422 C1423 1.355 . S
C1422 C1424 1.415 . S
C1423 C1422 1.355 . S
C1423 C1425 1.419 . S
C1424 C1422 1.415 . S
C1424 C1429 1.425 . S
C1424 C1431 1.409 . S
C1425 H1417 0.930 . S
C1425 C1423 1.419 . S
C1425 C1426 1.362 . S
C1426 H1418 0.930 . S
C1426 C1425 1.362 . S
C1426 C1429 1.409 . S
C1427 H1419 0.930 . S
C1427 C1428 1.355 . S
C1427 C1429 1.415 . S
C1428 C1427 1.355 . S
C1428 C1430 1.419 . S
C1429 C1424 1.425 . S
C1429 C1426 1.409 . S
C1429 C1427 1.415 . S
C1430 H1420 0.930 . S
C1430 C1428 1.419 . S
C1430 C1431 1.362 . S
C1431 H1421 0.930 . S
C1431 C1424 1.409 . S
C1431 C1430 1.362 . S
H1432 C1438 0.930 . S
H1433 C1441 0.930 . S
H1434 C1442 0.930 . S
H1435 C1443 0.906 1_655 S
H1436 C1446 0.930 . S
H1437 C1447 0.930 1_554 S
C1438 H1432 0.930 . S
C1438 C1439 1.355 . S
C1438 C1440 1.415 . S
C1439 C1438 1.355 . S
C1439 C1441 1.419 1_455 S
C1440 C1438 1.415 . S
C1440 C1445 1.425 . S
C1440 C1447 1.409 . S
C1441 H1433 0.930 . S
C1441 C1439 1.419 1_655 S
C1441 C1442 1.362 . S
C1442 H1434 0.930 . S
C1442 C1441 1.362 . S
C1442 C1445 1.409 1_655 S
C1443 H1435 0.906 1_455 S
C1443 C1444 1.369 . S
C1443 C1445 1.425 . S
C1444 C1443 1.369 . S
C1444 C1446 1.419 1_556 S
C1445 C1440 1.425 . S
C1445 C1442 1.409 1_455 S
C1445 C1443 1.425 . S
C1446 H1436 0.930 . S
C1446 C1444 1.419 1_554 S
C1446 C1447 1.362 1_554 S
C1447 H1437 0.930 1_556 S
C1447 C1440 1.409 . S
C1447 C1446 1.362 1_556 S
H1448 C1454 0.930 . S
H1449 C1457 0.930 . S
H1450 C1458 0.930 . S
H1451 C1459 0.930 . S
H1452 C1462 0.930 . S
H1453 C1463 0.930 . S
C1454 H1448 0.930 . S
C1454 C1455 1.355 . S
C1454 C1456 1.415 . S
C1455 C1454 1.355 . S
C1455 C1457 1.419 . S
C1456 C1454 1.415 . S
C1456 C1461 1.425 . S
C1456 C1463 1.409 . S
C1457 H1449 0.930 . S
C1457 C1455 1.419 . S
C1457 C1458 1.362 . S
C1458 H1450 0.930 . S
C1458 C1457 1.362 . S
C1458 C1461 1.409 . S
C1459 H1451 0.930 . S
C1459 C1460 1.355 . S
C1459 C1461 1.415 . S
C1460 C1459 1.355 . S
C1460 C1462 1.419 . S
C1461 C1456 1.425 . S
C1461 C1458 1.409 . S
C1461 C1459 1.415 . S
C1462 H1452 0.930 . S
C1462 C1460 1.419 . S
C1462 C1463 1.362 . S
C1463 H1453 0.930 . S
C1463 C1456 1.409 . S
C1463 C1462 1.362 . S
H1464 C1470 0.930 . S
H1465 C1473 0.930 . S
H1466 C1474 0.930 . S
H1467 C1475 0.930 . S
H1468 C1478 0.930 . S
H1469 C1479 0.930 . S
C1470 H1464 0.930 . S
C1470 C1471 1.355 . S
C1470 C1472 1.415 . S
C1471 C1470 1.355 . S
C1471 C1473 1.419 . S
C1472 C1470 1.415 . S
C1472 C1477 1.425 . S
C1472 C1479 1.409 . S
C1473 H1465 0.930 . S
C1473 C1471 1.419 . S
C1473 C1474 1.362 . S
C1474 H1466 0.930 . S
C1474 C1473 1.362 . S
C1474 C1477 1.409 . S
C1475 H1467 0.930 . S
C1475 C1476 1.355 . S
C1475 C1477 1.415 . S
C1476 C1475 1.355 . S
C1476 C1478 1.419 . S
C1477 C1472 1.425 . S
C1477 C1474 1.409 . S
C1477 C1475 1.415 . S
C1478 H1468 0.930 . S
C1478 C1476 1.419 . S
C1478 C1479 1.362 . S
C1479 H1469 0.930 . S
C1479 C1472 1.409 . S
C1479 C1478 1.362 . S
H1480 C1486 0.930 . S
H1481 C1489 0.930 . S
H1482 C1490 0.930 . S
H1483 C1491 0.930 . S
H1484 C1494 0.930 . S
H1485 C1495 0.930 . S
C1486 H1480 0.930 . S
C1486 C1487 1.355 . S
C1486 C1488 1.415 . S
C1487 C1486 1.355 . S
C1487 C1489 1.419 . S
C1488 C1486 1.415 . S
C1488 C1493 1.425 . S
C1488 C1495 1.409 . S
C1489 H1481 0.930 . S
C1489 C1487 1.419 . S
C1489 C1490 1.362 . S
C1490 H1482 0.930 . S
C1490 C1489 1.362 . S
C1490 C1493 1.409 . S
C1491 H1483 0.930 . S
C1491 C1492 1.355 . S
C1491 C1493 1.415 . S
C1492 C1491 1.355 . S
C1492 C1494 1.419 . S
C1493 C1488 1.425 . S
C1493 C1490 1.409 . S
C1493 C1491 1.415 . S
C1494 H1484 0.930 . S
C1494 C1492 1.419 . S
C1494 C1495 1.362 . S
C1495 H1485 0.930 . S
C1495 C1488 1.409 . S
C1495 C1494 1.362 . S
H1496 C1502 0.930 . S
H1497 C1505 0.930 . S
H1498 C1506 0.930 . S
H1499 C1507 0.924 1_655 S
H1500 C1510 0.930 . S
H1501 C1511 0.930 . S
C1502 H1496 0.930 . S
C1502 C1503 1.355 . S
C1502 C1504 1.415 . S
C1503 C1502 1.355 . S
C1503 C1505 1.419 1_455 S
C1504 C1502 1.415 . S
C1504 C1509 1.425 . S
C1504 C1511 1.409 . S
C1505 H1497 0.930 . S
C1505 C1503 1.419 1_655 S
C1505 C1506 1.362 . S
C1506 H1498 0.930 . S
C1506 C1505 1.362 . S
C1506 C1509 1.409 1_655 S
C1507 H1499 0.924 1_455 S
C1507 C1508 1.362 . S
C1507 C1509 1.412 . S
C1508 C1507 1.362 . S
C1508 C1510 1.419 . S
C1509 C1504 1.425 . S
C1509 C1506 1.409 1_455 S
C1509 C1507 1.412 . S
C1510 H1500 0.930 . S
C1510 C1508 1.419 . S
C1510 C1511 1.362 . S
C1511 H1501 0.930 . S
C1511 C1504 1.409 . S
C1511 C1510 1.362 . S
H1512 C1518 0.930 . S
H1513 C1521 0.930 . S
H1514 C1522 0.930 . S
H1515 C1523 0.930 . S
H1516 C1526 0.930 . S
H1517 C1527 0.930 . S
C1518 H1512 0.930 . S
C1518 C1519 1.355 . S
C1518 C1520 1.415 . S
C1519 C1518 1.355 . S
C1519 C1521 1.419 . S
C1520 C1518 1.415 . S
C1520 C1525 1.425 . S
C1520 C1527 1.409 . S
C1521 H1513 0.930 . S
C1521 C1519 1.419 . S
C1521 C1522 1.362 . S
C1522 H1514 0.930 . S
C1522 C1521 1.362 . S
C1522 C1525 1.409 . S
C1523 H1515 0.930 . S
C1523 C1524 1.355 . S
C1523 C1525 1.415 . S
C1524 C1523 1.355 . S
C1524 C1526 1.419 . S
C1525 C1520 1.425 . S
C1525 C1522 1.409 . S
C1525 C1523 1.415 . S
C1526 H1516 0.930 . S
C1526 C1524 1.419 . S
C1526 C1527 1.362 . S
C1527 H1517 0.930 . S
C1527 C1520 1.409 . S
C1527 C1526 1.362 . S
H1528 C1534 0.930 . S
H1529 C1537 0.930 . S
H1530 C1538 0.930 . S
H1531 C1539 0.930 . S
H1532 C1542 0.930 . S
H1533 C1543 0.930 . S
C1534 H1528 0.930 . S
C1534 C1535 1.355 . S
C1534 C1536 1.415 . S
C1535 C1534 1.355 . S
C1535 C1537 1.419 . S
C1536 C1534 1.415 . S
C1536 C1541 1.425 . S
C1536 C1543 1.409 . S
C1537 H1529 0.930 . S
C1537 C1535 1.419 . S
C1537 C1538 1.362 . S
C1538 H1530 0.930 . S
C1538 C1537 1.362 . S
C1538 C1541 1.409 . S
C1539 H1531 0.930 . S
C1539 C1540 1.355 . S
C1539 C1541 1.415 . S
C1540 C1539 1.355 . S
C1540 C1542 1.419 . S
C1541 C1536 1.425 . S
C1541 C1538 1.409 . S
C1541 C1539 1.415 . S
C1542 H1532 0.930 . S
C1542 C1540 1.419 . S
C1542 C1543 1.362 . S
C1543 H1533 0.930 . S
C1543 C1536 1.409 . S
C1543 C1542 1.362 . S
H1544 C1550 0.930 . S
H1545 C1553 0.930 . S
H1546 C1554 0.930 . S
H1547 C1555 0.930 . S
H1548 C1558 0.930 . S
H1549 C1559 0.930 . S
C1550 H1544 0.930 . S
C1550 C1551 1.355 . S
C1550 C1552 1.415 . S
C1551 C1550 1.355 . S
C1551 C1553 1.419 . S
C1552 C1550 1.415 . S
C1552 C1557 1.425 . S
C1552 C1559 1.409 . S
C1553 H1545 0.930 . S
C1553 C1551 1.419 . S
C1553 C1554 1.362 . S
C1554 H1546 0.930 . S
C1554 C1553 1.362 . S
C1554 C1557 1.409 . S
C1555 H1547 0.930 . S
C1555 C1556 1.355 . S
C1555 C1557 1.415 . S
C1556 C1555 1.355 . S
C1556 C1558 1.419 . S
C1557 C1552 1.425 . S
C1557 C1554 1.409 . S
C1557 C1555 1.415 . S
C1558 H1548 0.930 . S
C1558 C1556 1.419 . S
C1558 C1559 1.362 . S
C1559 H1549 0.930 . S
C1559 C1552 1.409 . S
C1559 C1558 1.362 . S
H1560 C1566 0.930 . S
H1561 C1569 0.930 . S
H1562 C1570 0.930 . S
H1563 C1571 0.930 . S
H1564 C1574 0.930 . S
H1565 C1575 0.930 . S
C1566 H1560 0.930 . S
C1566 C1567 1.355 . S
C1566 C1568 1.415 . S
C1567 C1566 1.355 . S
C1567 C1569 1.419 . S
C1568 C1566 1.415 . S
C1568 C1573 1.425 . S
C1568 C1575 1.409 . S
C1569 H1561 0.930 . S
C1569 C1567 1.419 . S
C1569 C1570 1.362 . S
C1570 H1562 0.930 . S
C1570 C1569 1.362 . S
C1570 C1573 1.409 . S
C1571 H1563 0.930 . S
C1571 C1572 1.355 . S
C1571 C1573 1.415 . S
C1572 C1571 1.355 . S
C1572 C1574 1.419 . S
C1573 C1568 1.425 . S
C1573 C1570 1.409 . S
C1573 C1571 1.415 . S
C1574 H1564 0.930 . S
C1574 C1572 1.419 . S
C1574 C1575 1.362 . S
C1575 H1565 0.930 . S
C1575 C1568 1.409 . S
C1575 C1574 1.362 . S
H1576 C1582 0.930 . S
H1577 C1585 0.930 . S
H1578 C1586 0.930 . S
H1579 C1587 0.930 . S
H1580 C1590 0.930 . S
H1581 C1591 0.930 . S
C1582 H1576 0.930 . S
C1582 C1583 1.355 . S
C1582 C1584 1.415 . S
C1583 C1582 1.355 . S
C1583 C1585 1.419 . S
C1584 C1582 1.415 . S
C1584 C1589 1.425 . S
C1584 C1591 1.409 . S
C1585 H1577 0.930 . S
C1585 C1583 1.419 . S
C1585 C1586 1.362 . S
C1586 H1578 0.930 . S
C1586 C1585 1.362 . S
C1586 C1589 1.409 . S
C1587 H1579 0.930 . S
C1587 C1588 1.355 . S
C1587 C1589 1.415 . S
C1588 C1587 1.355 . S
C1588 C1590 1.419 . S
C1589 C1584 1.425 . S
C1589 C1586 1.409 . S
C1589 C1587 1.415 . S
C1590 H1580 0.930 . S
C1590 C1588 1.419 . S
C1590 C1591 1.362 . S
C1591 H1581 0.930 . S
C1591 C1584 1.409 . S
C1591 C1590 1.362 . S
H1592 C1598 0.930 . S
H1593 C1601 0.930 . S
H1594 C1602 0.930 . S
H1595 C1603 0.930 . S
H1596 C1606 0.930 . S
H1597 C1607 0.930 . S
C1598 H1592 0.930 . S
C1598 C1599 1.355 . S
C1598 C1600 1.415 . S
C1599 C1598 1.355 . S
C1599 C1601 1.419 . S
C1600 C1598 1.415 . S
C1600 C1605 1.425 . S
C1600 C1607 1.409 . S
C1601 H1593 0.930 . S
C1601 C1599 1.419 . S
C1601 C1602 1.362 . S
C1602 H1594 0.930 . S
C1602 C1601 1.362 . S
C1602 C1605 1.409 . S
C1603 H1595 0.930 . S
C1603 C1604 1.355 . S
C1603 C1605 1.415 . S
C1604 C1603 1.355 . S
C1604 C1606 1.419 . S
C1605 C1600 1.425 . S
C1605 C1602 1.409 . S
C1605 C1603 1.415 . S
C1606 H1596 0.930 . S
C1606 C1604 1.419 . S
C1606 C1607 1.362 . S
C1607 H1597 0.930 . S
C1607 C1600 1.409 . S
C1607 C1606 1.362 . S
H1608 C1614 0.930 . S
H1609 C1617 0.930 . S
H1610 C1618 0.930 . S
H1611 C1619 0.930 . S
H1612 C1622 0.930 . S
H1613 C1623 0.930 . S
C1614 H1608 0.930 . S
C1614 C1615 1.355 . S
C1614 C1616 1.415 . S
C1615 C1614 1.355 . S
C1615 C1617 1.419 . S
C1616 C1614 1.415 . S
C1616 C1621 1.425 . S
C1616 C1623 1.409 . S
C1617 H1609 0.930 . S
C1617 C1615 1.419 . S
C1617 C1618 1.362 . S
C1618 H1610 0.930 . S
C1618 C1617 1.362 . S
C1618 C1621 1.409 . S
C1619 H1611 0.930 . S
C1619 C1620 1.355 . S
C1619 C1621 1.415 . S
C1620 C1619 1.355 . S
C1620 C1622 1.419 . S
C1621 C1616 1.425 . S
C1621 C1618 1.409 . S
C1621 C1619 1.415 . S
C1622 H1612 0.930 . S
C1622 C1620 1.419 . S
C1622 C1623 1.362 . S
C1623 H1613 0.930 . S
C1623 C1616 1.409 . S
C1623 C1622 1.362 . S
H1624 C1630 0.930 . S
H1625 C1633 0.930 . S
H1626 C1634 0.930 . S
H1627 C1635 0.930 . S
H1628 C1638 0.930 . S
H1629 C1639 0.930 . S
C1630 H1624 0.930 . S
C1630 C1631 1.355 . S
C1630 C1632 1.415 . S
C1631 C1630 1.355 . S
C1631 C1633 1.419 . S
C1632 C1630 1.415 . S
C1632 C1637 1.425 . S
C1632 C1639 1.409 . S
C1633 H1625 0.930 . S
C1633 C1631 1.419 . S
C1633 C1634 1.362 . S
C1634 H1626 0.930 . S
C1634 C1633 1.362 . S
C1634 C1637 1.409 . S
C1635 H1627 0.930 . S
C1635 C1636 1.355 . S
C1635 C1637 1.415 . S
C1636 C1635 1.355 . S
C1636 C1638 1.419 . S
C1637 C1632 1.425 . S
C1637 C1634 1.409 . S
C1637 C1635 1.415 . S
C1638 H1628 0.930 . S
C1638 C1636 1.419 . S
C1638 C1639 1.362 . S
C1639 H1629 0.930 . S
C1639 C1632 1.409 . S
C1639 C1638 1.362 . S
H1640 C1646 0.930 . S
H1641 C1649 0.930 . S
H1642 C1650 0.930 . S
H1643 C1651 0.930 . S
H1644 C1654 0.930 . S
H1645 C1655 0.930 . S
C1646 H1640 0.930 . S
C1646 C1647 1.355 . S
C1646 C1648 1.415 . S
C1647 C1646 1.355 . S
C1647 C1649 1.419 . S
C1648 C1646 1.415 . S
C1648 C1653 1.425 . S
C1648 C1655 1.409 . S
C1649 H1641 0.930 . S
C1649 C1647 1.419 . S
C1649 C1650 1.362 . S
C1650 H1642 0.930 . S
C1650 C1649 1.362 . S
C1650 C1653 1.409 . S
C1651 H1643 0.930 . S
C1651 C1652 1.355 . S
C1651 C1653 1.415 . S
C1652 C1651 1.355 . S
C1652 C1654 1.419 . S
C1653 C1648 1.425 . S
C1653 C1650 1.409 . S
C1653 C1651 1.415 . S
C1654 H1644 0.930 . S
C1654 C1652 1.419 . S
C1654 C1655 1.362 . S
C1655 H1645 0.930 . S
C1655 C1648 1.409 . S
C1655 C1654 1.362 . S
H1656 C1662 0.930 . S
H1657 C1665 0.930 . S
H1658 C1666 0.930 . S
H1659 C1667 0.930 . S
H1660 C1670 0.930 . S
H1661 C1671 0.930 . S
C1662 H1656 0.930 . S
C1662 C1663 1.355 . S
C1662 C1664 1.415 . S
C1663 C1662 1.355 . S
C1663 C1665 1.419 . S
C1664 C1662 1.415 . S
C1664 C1669 1.425 . S
C1664 C1671 1.409 . S
C1665 H1657 0.930 . S
C1665 C1663 1.419 . S
C1665 C1666 1.362 . S
C1666 H1658 0.930 . S
C1666 C1665 1.362 . S
C1666 C1669 1.409 . S
C1667 H1659 0.930 . S
C1667 C1668 1.355 . S
C1667 C1669 1.415 . S
C1668 C1667 1.355 . S
C1668 C1670 1.419 . S
C1669 C1664 1.425 . S
C1669 C1666 1.409 . S
C1669 C1667 1.415 . S
C1670 H1660 0.930 . S
C1670 C1668 1.419 . S
C1670 C1671 1.362 . S
C1671 H1661 0.930 . S
C1671 C1664 1.409 . S
C1671 C1670 1.362 . S
H1672 C1678 0.930 . S
H1673 C1681 0.930 . S
H1674 C1682 0.930 . S
H1675 C1683 0.930 . S
H1676 C1686 0.930 . S
H1677 C1687 0.930 . S
C1678 H1672 0.930 . S
C1678 C1679 1.355 . S
C1678 C1680 1.415 . S
C1679 C1678 1.355 . S
C1679 C1681 1.419 . S
C1680 C1678 1.415 . S
C1680 C1685 1.425 . S
C1680 C1687 1.409 . S
C1681 H1673 0.930 . S
C1681 C1679 1.419 . S
C1681 C1682 1.362 . S
C1682 H1674 0.930 . S
C1682 C1681 1.362 . S
C1682 C1685 1.409 . S
C1683 H1675 0.930 . S
C1683 C1684 1.355 . S
C1683 C1685 1.415 . S
C1684 C1683 1.355 . S
C1684 C1686 1.419 . S
C1685 C1680 1.425 . S
C1685 C1682 1.409 . S
C1685 C1683 1.415 . S
C1686 H1676 0.930 . S
C1686 C1684 1.419 . S
C1686 C1687 1.362 . S
C1687 H1677 0.930 . S
C1687 C1680 1.409 . S
C1687 C1686 1.362 . S
H1688 C1694 0.930 . S
H1689 C1697 0.930 . S
H1690 C1698 0.930 . S
H1691 C1699 0.930 . S
H1692 C1702 0.930 . S
H1693 C1703 0.930 . S
C1694 H1688 0.930 . S
C1694 C1695 1.355 . S
C1694 C1696 1.415 . S
C1695 C1694 1.355 . S
C1695 C1697 1.419 . S
C1696 C1694 1.415 . S
C1696 C1701 1.425 . S
C1696 C1703 1.409 . S
C1697 H1689 0.930 . S
C1697 C1695 1.419 . S
C1697 C1698 1.362 . S
C1698 H1690 0.930 . S
C1698 C1697 1.362 . S
C1698 C1701 1.409 . S
C1699 H1691 0.930 . S
C1699 C1700 1.355 . S
C1699 C1701 1.415 . S
C1700 C1699 1.355 . S
C1700 C1702 1.419 . S
C1701 C1696 1.425 . S
C1701 C1698 1.409 . S
C1701 C1699 1.415 . S
C1702 H1692 0.930 . S
C1702 C1700 1.419 . S
C1702 C1703 1.362 . S
C1703 H1693 0.930 . S
C1703 C1696 1.409 . S
C1703 C1702 1.362 . S
H1704 C1710 0.922 1_556 S
H1705 C1713 0.930 . S
H1706 C1714 0.930 . S
H1707 C1715 0.930 . S
H1708 C1718 0.930 . S
H1709 C1719 0.930 . S
C1710 H1704 0.922 1_554 S
C1710 C1711 1.355 . S
C1710 C1712 1.415 . S
C1711 C1710 1.355 . S
C1711 C1713 1.419 . S
C1712 C1710 1.415 . S
C1712 C1717 1.425 . S
C1712 C1719 1.409 1_564 S
C1713 H1705 0.930 . S
C1713 C1711 1.419 . S
C1713 C1714 1.362 . S
C1714 H1706 0.930 . S
C1714 C1713 1.362 . S
C1714 C1717 1.409 . S
C1715 H1707 0.930 . S
C1715 C1716 1.366 . S
C1715 C1717 1.415 . S
C1716 C1715 1.366 . S
C1716 C1718 1.409 1_564 S
C1717 C1712 1.425 . S
C1717 C1714 1.409 . S
C1717 C1715 1.415 . S
C1718 H1708 0.930 . S
C1718 C1716 1.409 1_546 S
C1718 C1719 1.362 . S
C1719 H1709 0.930 . S
C1719 C1712 1.409 1_546 S
C1719 C1718 1.362 . S
H1720 C1726 0.930 . S
H1721 C1729 0.930 . S
H1722 C1730 0.930 . S
H1723 C1731 0.930 . S
H1724 C1734 0.930 . S
H1725 C1735 0.930 . S
C1726 H1720 0.930 . S
C1726 C1727 1.355 . S
C1726 C1728 1.415 . S
C1727 C1726 1.355 . S
C1727 C1729 1.419 . S
C1728 C1726 1.415 . S
C1728 C1733 1.425 . S
C1728 C1735 1.409 . S
C1729 H1721 0.930 . S
C1729 C1727 1.419 . S
C1729 C1730 1.362 . S
C1730 H1722 0.930 . S
C1730 C1729 1.362 . S
C1730 C1733 1.409 . S
C1731 H1723 0.930 . S
C1731 C1732 1.355 . S
C1731 C1733 1.415 . S
C1732 C1731 1.355 . S
C1732 C1734 1.419 . S
C1733 C1728 1.425 . S
C1733 C1730 1.409 . S
C1733 C1731 1.415 . S
C1734 H1724 0.930 . S
C1734 C1732 1.419 . S
C1734 C1735 1.362 . S
C1735 H1725 0.930 . S
C1735 C1728 1.409 . S
C1735 C1734 1.362 . S
H1736 C1742 0.930 . S
H1737 C1745 0.940 . S
H1738 C1746 0.928 1_556 S
H1739 C1747 0.930 . S
H1740 C1750 0.930 . S
H1741 C1751 0.930 . S
C1742 H1736 0.930 . S
C1742 C1743 1.355 . S
C1742 C1744 1.415 . S
C1743 C1742 1.355 . S
C1743 C1745 1.413 1_554 S
C1744 C1742 1.415 . S
C1744 C1749 1.425 . S
C1744 C1751 1.409 . S
C1745 H1737 0.940 . S
C1745 C1743 1.413 1_556 S
C1745 C1746 1.360 1_556 S
C1746 H1738 0.928 1_554 S
C1746 C1745 1.360 1_554 S
C1746 C1749 1.409 . S
C1747 H1739 0.930 . S
C1747 C1748 1.355 . S
C1747 C1749 1.415 . S
C1748 C1747 1.355 . S
C1748 C1750 1.419 . S
C1749 C1744 1.425 . S
C1749 C1746 1.409 . S
C1749 C1747 1.415 . S
C1750 H1740 0.930 . S
C1750 C1748 1.419 . S
C1750 C1751 1.362 . S
C1751 H1741 0.930 . S
C1751 C1744 1.409 . S
C1751 C1750 1.362 . S
H1752 C1758 0.930 . S
H1753 C1761 0.930 . S
H1754 C1762 0.930 . S
H1755 C1763 0.930 . S
H1756 C1766 0.930 . S
H1757 C1767 0.930 . S
C1758 H1752 0.930 . S
C1758 C1759 1.355 . S
C1758 C1760 1.415 . S
C1759 C1758 1.355 . S
C1759 C1761 1.419 . S
C1760 C1758 1.415 . S
C1760 C1765 1.425 . S
C1760 C1767 1.409 . S
C1761 H1753 0.930 . S
C1761 C1759 1.419 . S
C1761 C1762 1.362 . S
C1762 H1754 0.930 . S
C1762 C1761 1.362 . S
C1762 C1765 1.409 . S
C1763 H1755 0.930 . S
C1763 C1764 1.355 . S
C1763 C1765 1.415 . S
C1764 C1763 1.355 . S
C1764 C1766 1.419 . S
C1765 C1760 1.425 . S
C1765 C1762 1.409 . S
C1765 C1763 1.415 . S
C1766 H1756 0.930 . S
C1766 C1764 1.419 . S
C1766 C1767 1.362 . S
C1767 H1757 0.930 . S
C1767 C1760 1.409 . S
C1767 C1766 1.362 . S
H1768 C1774 0.930 . S
H1769 C1777 0.930 . S
H1770 C1778 0.930 . S
H1771 C1779 0.930 . S
H1772 C1782 0.930 . S
H1773 C1783 0.930 . S
C1774 H1768 0.930 . S
C1774 C1775 1.355 . S
C1774 C1776 1.415 . S
C1775 C1774 1.355 . S
C1775 C1777 1.419 . S
C1776 C1774 1.415 . S
C1776 C1781 1.425 . S
C1776 C1783 1.409 . S
C1777 H1769 0.930 . S
C1777 C1775 1.419 . S
C1777 C1778 1.362 . S
C1778 H1770 0.930 . S
C1778 C1777 1.362 . S
C1778 C1781 1.409 . S
C1779 H1771 0.930 . S
C1779 C1780 1.355 . S
C1779 C1781 1.415 . S
C1780 C1779 1.355 . S
C1780 C1782 1.419 . S
C1781 C1776 1.425 . S
C1781 C1778 1.409 . S
C1781 C1779 1.415 . S
C1782 H1772 0.930 . S
C1782 C1780 1.419 . S
C1782 C1783 1.362 . S
C1783 H1773 0.930 . S
C1783 C1776 1.409 . S
C1783 C1782 1.362 . S
H1784 C1790 0.930 . S
H1785 C1793 0.930 . S
H1786 C1794 0.930 . S
H1787 C1795 0.930 . S
H1788 C1798 0.930 . S
H1789 C1799 0.930 . S
C1790 H1784 0.930 . S
C1790 C1791 1.355 . S
C1790 C1792 1.415 . S
C1791 C1790 1.355 . S
C1791 C1793 1.419 . S
C1792 C1790 1.415 . S
C1792 C1797 1.425 . S
C1792 C1799 1.409 . S
C1793 H1785 0.930 . S
C1793 C1791 1.419 . S
C1793 C1794 1.362 . S
C1794 H1786 0.930 . S
C1794 C1793 1.362 . S
C1794 C1797 1.409 . S
C1795 H1787 0.930 . S
C1795 C1796 1.355 . S
C1795 C1797 1.415 . S
C1796 C1795 1.355 . S
C1796 C1798 1.419 . S
C1797 C1792 1.425 . S
C1797 C1794 1.409 . S
C1797 C1795 1.415 . S
C1798 H1788 0.930 . S
C1798 C1796 1.419 . S
C1798 C1799 1.362 . S
C1799 H1789 0.930 . S
C1799 C1792 1.409 . S
C1799 C1798 1.362 . S
H1800 C1806 0.930 . S
H1801 C1809 0.930 . S
H1802 C1810 0.930 . S
H1803 C1811 0.930 . S
H1804 C1814 0.930 . S
H1805 C1815 0.930 . S
C1806 H1800 0.930 . S
C1806 C1807 1.355 . S
C1806 C1808 1.415 . S
C1807 C1806 1.355 . S
C1807 C1809 1.419 . S
C1808 C1806 1.415 . S
C1808 C1813 1.425 . S
C1808 C1815 1.409 . S
C1809 H1801 0.930 . S
C1809 C1807 1.419 . S
C1809 C1810 1.362 . S
C1810 H1802 0.930 . S
C1810 C1809 1.362 . S
C1810 C1813 1.409 . S
C1811 H1803 0.930 . S
C1811 C1812 1.355 . S
C1811 C1813 1.415 . S
C1812 C1811 1.355 . S
C1812 C1814 1.419 . S
C1813 C1808 1.425 . S
C1813 C1810 1.409 . S
C1813 C1811 1.415 . S
C1814 H1804 0.930 . S
C1814 C1812 1.419 . S
C1814 C1815 1.362 . S
C1815 H1805 0.930 . S
C1815 C1808 1.409 . S
C1815 C1814 1.362 . S
H1816 C1822 0.930 . S
H1817 C1825 0.930 . S
H1818 C1826 0.930 . S
H1819 C1827 0.930 1_556 S
H1820 C1830 0.930 . S
H1821 C1831 0.930 . S
C1822 H1816 0.930 . S
C1822 C1823 1.355 . S
C1822 C1824 1.415 . S
C1823 C1822 1.355 . S
C1823 C1825 1.419 . S
C1824 C1822 1.415 . S
C1824 C1829 1.425 . S
C1824 C1831 1.409 . S
C1825 H1817 0.930 . S
C1825 C1823 1.419 . S
C1825 C1826 1.362 . S
C1826 H1818 0.930 . S
C1826 C1825 1.362 . S
C1826 C1829 1.409 . S
C1827 H1819 0.930 1_554 S
C1827 C1828 1.355 . S
C1827 C1829 1.415 . S
C1828 C1827 1.355 . S
C1828 C1830 1.419 . S
C1829 C1824 1.425 . S
C1829 C1826 1.409 . S
C1829 C1827 1.415 . S
C1830 H1820 0.930 . S
C1830 C1828 1.419 . S
C1830 C1831 1.362 . S
C1831 H1821 0.930 . S
C1831 C1824 1.409 . S
C1831 C1830 1.362 . S
H1832 C1838 0.930 . S
H1833 C1841 0.930 . S
H1834 C1842 0.930 . S
H1835 C1843 0.930 . S
H1836 C1846 0.930 . S
H1837 C1847 0.930 . S
C1838 H1832 0.930 . S
C1838 C1839 1.355 . S
C1838 C1840 1.415 . S
C1839 C1838 1.355 . S
C1839 C1841 1.419 . S
C1840 C1838 1.415 . S
C1840 C1845 1.425 . S
C1840 C1847 1.409 . S
C1841 H1833 0.930 . S
C1841 C1839 1.419 . S
C1841 C1842 1.362 . S
C1842 H1834 0.930 . S
C1842 C1841 1.362 . S
C1842 C1845 1.409 . S
C1843 H1835 0.930 . S
C1843 C1844 1.355 . S
C1843 C1845 1.415 . S
C1844 C1843 1.355 . S
C1844 C1846 1.419 . S
C1845 C1840 1.425 . S
C1845 C1842 1.409 . S
C1845 C1843 1.415 . S
C1846 H1836 0.930 . S
C1846 C1844 1.419 . S
C1846 C1847 1.362 . S
C1847 H1837 0.930 . S
C1847 C1840 1.409 . S
C1847 C1846 1.362 . S
H1848 C1854 0.930 . S
H1849 C1857 0.930 . S
H1850 C1858 0.930 . S
H1851 C1859 0.930 . S
H1852 C1862 0.930 . S
H1853 C1863 0.930 1_554 S
C1854 H1848 0.930 . S
C1854 C1855 1.355 . S
C1854 C1856 1.415 . S
C1855 C1854 1.355 . S
C1855 C1857 1.419 . S
C1856 C1854 1.415 . S
C1856 C1861 1.425 . S
C1856 C1863 1.409 . S
C1857 H1849 0.930 . S
C1857 C1855 1.419 . S
C1857 C1858 1.362 . S
C1858 H1850 0.930 . S
C1858 C1857 1.362 . S
C1858 C1861 1.409 . S
C1859 H1851 0.930 . S
C1859 C1860 1.355 . S
C1859 C1861 1.415 . S
C1860 C1859 1.355 . S
C1860 C1862 1.419 1_556 S
C1861 C1856 1.425 . S
C1861 C1858 1.409 . S
C1861 C1859 1.415 . S
C1862 H1852 0.930 . S
C1862 C1860 1.419 1_554 S
C1862 C1863 1.362 1_554 S
C1863 H1853 0.930 1_556 S
C1863 C1856 1.409 . S
C1863 C1862 1.362 1_556 S
H1864 C1870 0.930 . S
H1865 C1873 0.930 . S
H1866 C1874 0.930 . S
H1867 C1875 0.930 . S
H1868 C1878 0.930 . S
H1869 C1879 0.930 . S
C1870 H1864 0.930 . S
C1870 C1871 1.355 . S
C1870 C1872 1.415 . S
C1871 C1870 1.355 . S
C1871 C1873 1.419 . S
C1872 C1870 1.415 . S
C1872 C1877 1.425 . S
C1872 C1879 1.409 . S
C1873 H1865 0.930 . S
C1873 C1871 1.419 . S
C1873 C1874 1.362 . S
C1874 H1866 0.930 . S
C1874 C1873 1.362 . S
C1874 C1877 1.409 . S
C1875 H1867 0.930 . S
C1875 C1876 1.355 . S
C1875 C1877 1.415 . S
C1876 C1875 1.355 . S
C1876 C1878 1.419 . S
C1877 C1872 1.425 . S
C1877 C1874 1.409 . S
C1877 C1875 1.415 . S
C1878 H1868 0.930 . S
C1878 C1876 1.419 . S
C1878 C1879 1.362 . S
C1879 H1869 0.930 . S
C1879 C1872 1.409 . S
C1879 C1878 1.362 . S
H1880 C1886 0.930 . S
H1881 C1889 0.930 1_655 S
H1882 C1890 0.930 . S
H1883 C1891 0.930 1_655 S
H1884 C1894 0.930 . S
H1885 C1895 0.930 . S
C1886 H1880 0.930 . S
C1886 C1887 1.355 . S
C1886 C1888 1.415 . S
C1887 C1886 1.355 . S
C1887 C1889 1.419 . S
C1888 C1886 1.415 . S
C1888 C1893 1.425 . S
C1888 C1895 1.409 . S
C1889 H1881 0.930 1_455 S
C1889 C1887 1.419 . S
C1889 C1890 1.362 1_455 S
C1890 H1882 0.930 . S
C1890 C1889 1.362 1_655 S
C1890 C1893 1.409 1_655 S
C1891 H1883 0.930 1_455 S
C1891 C1892 1.355 . S
C1891 C1893 1.415 . S
C1892 C1891 1.355 . S
C1892 C1894 1.419 . S
C1893 C1888 1.425 . S
C1893 C1890 1.409 1_455 S
C1893 C1891 1.415 . S
C1894 H1884 0.930 . S
C1894 C1892 1.419 . S
C1894 C1895 1.362 . S
C1895 H1885 0.930 . S
C1895 C1888 1.409 . S
C1895 C1894 1.362 . S
H1896 C1902 0.930 . S
H1897 C1905 0.930 . S
H1898 C1906 0.930 . S
H1899 C1907 0.930 . S
H1900 C1910 0.930 . S
H1901 C1911 0.930 . S
C1902 H1896 0.930 . S
C1902 C1903 1.355 . S
C1902 C1904 1.415 . S
C1903 C1902 1.355 . S
C1903 C1905 1.419 . S
C1904 C1902 1.415 . S
C1904 C1909 1.425 . S
C1904 C1911 1.409 . S
C1905 H1897 0.930 . S
C1905 C1903 1.419 . S
C1905 C1906 1.362 . S
C1906 H1898 0.930 . S
C1906 C1905 1.362 . S
C1906 C1909 1.409 . S
C1907 H1899 0.930 . S
C1907 C1908 1.355 . S
C1907 C1909 1.415 . S
C1908 C1907 1.355 . S
C1908 C1910 1.419 . S
C1909 C1904 1.425 . S
C1909 C1906 1.409 . S
C1909 C1907 1.415 . S
C1910 H1900 0.930 . S
C1910 C1908 1.419 . S
C1910 C1911 1.362 . S
C1911 H1901 0.930 . S
C1911 C1904 1.409 . S
C1911 C1910 1.362 . S
H1912 C1918 0.930 . S
H1913 C1921 0.930 . S
H1914 C1922 0.930 . S
H1915 C1923 0.930 . S
H1916 C1926 0.930 . S
H1917 C1927 0.930 . S
C1918 H1912 0.930 . S
C1918 C1919 1.355 . S
C1918 C1920 1.415 . S
C1919 C1918 1.355 . S
C1919 C1921 1.419 . S
C1920 C1918 1.415 . S
C1920 C1925 1.425 . S
C1920 C1927 1.409 . S
C1921 H1913 0.930 . S
C1921 C1919 1.419 . S
C1921 C1922 1.362 . S
C1922 H1914 0.930 . S
C1922 C1921 1.362 . S
C1922 C1925 1.409 . S
C1923 H1915 0.930 . S
C1923 C1924 1.355 . S
C1923 C1925 1.415 . S
C1924 C1923 1.355 . S
C1924 C1926 1.419 . S
C1925 C1920 1.425 . S
C1925 C1922 1.409 . S
C1925 C1923 1.415 . S
C1926 H1916 0.930 . S
C1926 C1924 1.419 . S
C1926 C1927 1.362 . S
C1927 H1917 0.930 . S
C1927 C1920 1.409 . S
C1927 C1926 1.362 . S
H1928 C1934 0.930 . S
H1929 C1937 0.930 . S
H1930 C1938 0.930 . S
H1931 C1939 0.930 . S
H1932 C1942 0.930 . S
H1933 C1943 0.930 . S
C1934 H1928 0.930 . S
C1934 C1935 1.355 . S
C1934 C1936 1.415 . S
C1935 C1934 1.355 . S
C1935 C1937 1.419 . S
C1936 C1934 1.415 . S
C1936 C1941 1.425 . S
C1936 C1943 1.409 . S
C1937 H1929 0.930 . S
C1937 C1935 1.419 . S
C1937 C1938 1.362 . S
C1938 H1930 0.930 . S
C1938 C1937 1.362 . S
C1938 C1941 1.409 . S
C1939 H1931 0.930 . S
C1939 C1940 1.355 . S
C1939 C1941 1.415 . S
C1940 C1939 1.355 . S
C1940 C1942 1.419 . S
C1941 C1936 1.425 . S
C1941 C1938 1.409 . S
C1941 C1939 1.415 . S
C1942 H1932 0.930 . S
C1942 C1940 1.419 . S
C1942 C1943 1.362 . S
C1943 H1933 0.930 . S
C1943 C1936 1.409 . S
C1943 C1942 1.362 . S
H1944 C1950 0.930 . S
H1945 C1953 0.930 . S
H1946 C1954 0.930 . S
H1947 C1955 0.915 1_455 S
H1948 C1958 0.930 . S
H1949 C1959 0.930 . S
C1950 H1944 0.930 . S
C1950 C1951 1.355 . S
C1950 C1952 1.415 . S
C1951 C1950 1.355 . S
C1951 C1953 1.419 . S
C1952 C1950 1.415 . S
C1952 C1957 1.425 . S
C1952 C1959 1.409 . S
C1953 H1945 0.930 . S
C1953 C1951 1.419 . S
C1953 C1954 1.362 . S
C1954 H1946 0.930 . S
C1954 C1953 1.362 . S
C1954 C1957 1.409 . S
C1955 H1947 0.915 1_655 S
C1955 C1956 1.355 . S
C1955 C1957 1.415 . S
C1956 C1955 1.355 . S
C1956 C1958 1.419 . S
C1957 C1952 1.425 . S
C1957 C1954 1.409 . S
C1957 C1955 1.415 . S
C1958 H1948 0.930 . S
C1958 C1956 1.419 . S
C1958 C1959 1.362 . S
C1959 H1949 0.930 . S
C1959 C1952 1.409 . S
C1959 C1958 1.362 . S
H1960 C1966 0.930 . S
H1961 C1969 0.930 . S
H1962 C1970 0.930 . S
H1963 C1971 0.930 . S
H1964 C1974 0.930 . S
H1965 C1975 0.930 . S
C1966 H1960 0.930 . S
C1966 C1967 1.355 . S
C1966 C1968 1.415 . S
C1967 C1966 1.355 . S
C1967 C1969 1.419 . S
C1968 C1966 1.415 . S
C1968 C1973 1.425 . S
C1968 C1975 1.409 . S
C1969 H1961 0.930 . S
C1969 C1967 1.419 . S
C1969 C1970 1.362 . S
C1970 H1962 0.930 . S
C1970 C1969 1.362 . S
C1970 C1973 1.409 . S
C1971 H1963 0.930 . S
C1971 C1972 1.355 . S
C1971 C1973 1.415 . S
C1972 C1971 1.355 . S
C1972 C1974 1.419 . S
C1973 C1968 1.425 . S
C1973 C1970 1.409 . S
C1973 C1971 1.415 . S
C1974 H1964 0.930 . S
C1974 C1972 1.419 . S
C1974 C1975 1.362 . S
C1975 H1965 0.930 . S
C1975 C1968 1.409 . S
C1975 C1974 1.362 . S
H1976 C1982 0.930 . S
H1977 C1985 0.930 . S
H1978 C1986 0.930 . S
H1979 C1987 0.930 . S
H1980 C1990 0.930 . S
H1981 C1991 0.930 . S
C1982 H1976 0.930 . S
C1982 C1983 1.355 . S
C1982 C1984 1.415 . S
C1983 C1982 1.355 . S
C1983 C1985 1.419 . S
C1984 C1982 1.415 . S
C1984 C1989 1.425 . S
C1984 C1991 1.409 . S
C1985 H1977 0.930 . S
C1985 C1983 1.419 . S
C1985 C1986 1.362 . S
C1986 H1978 0.930 . S
C1986 C1985 1.362 . S
C1986 C1989 1.409 . S
C1987 H1979 0.930 . S
C1987 C1988 1.355 . S
C1987 C1989 1.415 . S
C1988 C1987 1.355 . S
C1988 C1990 1.419 . S
C1989 C1984 1.425 . S
C1989 C1986 1.409 . S
C1989 C1987 1.415 . S
C1990 H1980 0.930 . S
C1990 C1988 1.419 . S
C1990 C1991 1.362 . S
C1991 H1981 0.930 . S
C1991 C1984 1.409 . S
C1991 C1990 1.362 . S
H1992 C1998 0.930 . S
H1993 C2001 0.930 . S
H1994 C2002 0.930 . S
H1995 C2003 0.930 . S
H1996 C2006 0.930 . S
H1997 C2007 0.930 . S
C1998 H1992 0.930 . S
C1998 C1999 1.355 . S
C1998 C2000 1.415 . S
C1999 C1998 1.355 . S
C1999 C2001 1.419 . S
C2000 C1998 1.415 . S
C2000 C2005 1.425 . S
C2000 C2007 1.409 . S
C2001 H1993 0.930 . S
C2001 C1999 1.419 . S
C2001 C2002 1.362 . S
C2002 H1994 0.930 . S
C2002 C2001 1.362 . S
C2002 C2005 1.409 . S
C2003 H1995 0.930 . S
C2003 C2004 1.355 . S
C2003 C2005 1.415 . S
C2004 C2003 1.355 . S
C2004 C2006 1.419 . S
C2005 C2000 1.425 . S
C2005 C2002 1.409 . S
C2005 C2003 1.415 . S
C2006 H1996 0.930 . S
C2006 C2004 1.419 . S
C2006 C2007 1.362 . S
C2007 H1997 0.930 . S
C2007 C2000 1.409 . S
C2007 C2006 1.362 . S
H2008 C2014 0.930 . S
H2009 C2017 0.930 . S
H2010 C2018 0.930 . S
H2011 C2019 0.930 1_455 S
H2012 C2022 0.930 . S
H2013 C2023 0.930 . S
C2014 H2008 0.930 . S
C2014 C2015 1.355 . S
C2014 C2016 1.415 . S
C2015 C2014 1.355 . S
C2015 C2017 1.419 . S
C2016 C2014 1.415 . S
C2016 C2021 1.425 . S
C2016 C2023 1.409 . S
C2017 H2009 0.930 . S
C2017 C2015 1.419 . S
C2017 C2018 1.362 . S
C2018 H2010 0.930 . S
C2018 C2017 1.362 . S
C2018 C2021 1.409 . S
C2019 H2011 0.930 1_655 S
C2019 C2020 1.355 . S
C2019 C2021 1.415 . S
C2020 C2019 1.355 . S
C2020 C2022 1.419 . S
C2021 C2016 1.425 . S
C2021 C2018 1.409 . S
C2021 C2019 1.415 . S
C2022 H2012 0.930 . S
C2022 C2020 1.419 . S
C2022 C2023 1.362 . S
C2023 H2013 0.930 . S
C2023 C2016 1.409 . S
C2023 C2022 1.362 . S
H2024 C2030 0.930 . S
H2025 C2033 0.930 . S
H2026 C2034 0.930 . S
H2027 C2035 0.930 . S
H2028 C2038 0.930 . S
H2029 C2039 0.930 . S
C2030 H2024 0.930 . S
C2030 C2031 1.355 . S
C2030 C2032 1.415 . S
C2031 C2030 1.355 . S
C2031 C2033 1.419 . S
C2032 C2030 1.415 . S
C2032 C2037 1.425 . S
C2032 C2039 1.409 . S
C2033 H2025 0.930 . S
C2033 C2031 1.419 . S
C2033 C2034 1.362 . S
C2034 H2026 0.930 . S
C2034 C2033 1.362 . S
C2034 C2037 1.409 . S
C2035 H2027 0.930 . S
C2035 C2036 1.355 . S
C2035 C2037 1.415 . S
C2036 C2035 1.355 . S
C2036 C2038 1.419 . S
C2037 C2032 1.425 . S
C2037 C2034 1.409 . S
C2037 C2035 1.415 . S
C2038 H2028 0.930 . S
C2038 C2036 1.419 . S
C2038 C2039 1.362 . S
C2039 H2029 0.930 . S
C2039 C2032 1.409 . S
C2039 C2038 1.362 . S
H2040 C2046 0.930 . S
H2041 C2049 0.930 . S
H2042 C2050 0.930 . S
H2043 C2051 0.930 . S
H2044 C2054 0.930 . S
H2045 C2055 0.930 . S
C2046 H2040 0.930 . S
C2046 C2047 1.355 . S
C2046 C2048 1.415 . S
C2047 C2046 1.355 . S
C2047 C2049 1.419 . S
C2048 C2046 1.415 . S
C2048 C2053 1.425 . S
C2048 C2055 1.409 . S
C2049 H2041 0.930 . S
C2049 C2047 1.419 . S
C2049 C2050 1.362 . S
C2050 H2042 0.930 . S
C2050 C2049 1.362 . S
C2050 C2053 1.409 . S
C2051 H2043 0.930 . S
C2051 C2052 1.355 . S
C2051 C2053 1.415 . S
C2052 C2051 1.355 . S
C2052 C2054 1.419 . S
C2053 C2048 1.425 . S
C2053 C2050 1.409 . S
C2053 C2051 1.415 . S
C2054 H2044 0.930 . S
C2054 C2052 1.419 . S
C2054 C2055 1.362 . S
C2055 H2045 0.930 . S
C2055 C2048 1.409 . S
C2055 C2054 1.362 . S
H2056 C2062 0.930 . S
H2057 C2065 0.930 . S
H2058 C2066 0.930 . S
H2059 C2067 0.930 . S
H2060 C2070 0.930 . S
H2061 C2071 0.930 . S
C2062 H2056 0.930 . S
C2062 C2063 1.355 . S
C2062 C2064 1.415 . S
C2063 C2062 1.355 . S
C2063 C2065 1.419 . S
C2064 C2062 1.415 . S
C2064 C2069 1.425 . S
C2064 C2071 1.409 1_565 S
C2065 H2057 0.930 . S
C2065 C2063 1.419 . S
C2065 C2066 1.362 . S
C2066 H2058 0.930 . S
C2066 C2065 1.362 . S
C2066 C2069 1.409 . S
C2067 H2059 0.930 . S
C2067 C2068 1.355 . S
C2067 C2069 1.415 . S
C2068 C2067 1.355 . S
C2068 C2070 1.419 1_565 S
C2069 C2064 1.425 . S
C2069 C2066 1.409 . S
C2069 C2067 1.415 . S
C2070 H2060 0.930 . S
C2070 C2068 1.419 1_545 S
C2070 C2071 1.362 . S
C2071 H2061 0.930 . S
C2071 C2064 1.409 1_545 S
C2071 C2070 1.362 . S
H2072 C2078 0.930 . S
H2073 C2081 0.930 . S
H2074 C2082 0.930 . S
H2075 C2083 0.930 . S
H2076 C2086 0.930 . S
H2077 C2087 0.930 . S
C2078 H2072 0.930 . S
C2078 C2079 1.355 . S
C2078 C2080 1.415 . S
C2079 C2078 1.355 . S
C2079 C2081 1.419 . S
C2080 C2078 1.415 . S
C2080 C2085 1.425 . S
C2080 C2087 1.409 . S
C2081 H2073 0.930 . S
C2081 C2079 1.419 . S
C2081 C2082 1.362 . S
C2082 H2074 0.930 . S
C2082 C2081 1.362 . S
C2082 C2085 1.409 . S
C2083 H2075 0.930 . S
C2083 C2084 1.355 . S
C2083 C2085 1.415 . S
C2084 C2083 1.355 . S
C2084 C2086 1.419 . S
C2085 C2080 1.425 . S
C2085 C2082 1.409 . S
C2085 C2083 1.415 . S
C2086 H2076 0.930 . S
C2086 C2084 1.419 . S
C2086 C2087 1.362 . S
C2087 H2077 0.930 . S
C2087 C2080 1.409 . S
C2087 C2086 1.362 . S
H2088 C2094 0.930 . S
H2089 C2097 0.930 . S
H2090 C2098 0.930 . S
H2091 C2099 0.930 . S
H2092 C2102 0.930 . S
H2093 C2103 0.931 1_556 S
C2094 H2088 0.930 . S
C2094 C2095 1.355 . S
C2094 C2096 1.409 1_556 S
C2095 C2094 1.355 . S
C2095 C2097 1.419 1_556 S
C2096 C2094 1.409 1_554 S
C2096 C2101 1.432 . S
C2096 C2103 1.409 . S
C2097 H2089 0.930 . S
C2097 C2095 1.419 1_554 S
C2097 C2098 1.362 . S
C2098 H2090 0.930 . S
C2098 C2097 1.362 . S
C2098 C2101 1.409 . S
C2099 H2091 0.930 . S
C2099 C2100 1.355 . S
C2099 C2101 1.415 . S
C2100 C2099 1.355 . S
C2100 C2102 1.419 . S
C2101 C2096 1.432 . S
C2101 C2098 1.409 . S
C2101 C2099 1.415 . S
C2102 H2092 0.930 . S
C2102 C2100 1.419 . S
C2102 C2103 1.362 . S
C2103 H2093 0.931 1_554 S
C2103 C2096 1.409 . S
C2103 C2102 1.362 . S
H2104 C2110 0.930 . S
H2105 C2113 0.930 . S
H2106 C2114 0.930 . S
H2107 C2115 0.930 . S
H2108 C2118 0.930 . S
H2109 C2119 0.930 . S
C2110 H2104 0.930 . S
C2110 C2111 1.355 . S
C2110 C2112 1.415 . S
C2111 C2110 1.355 . S
C2111 C2113 1.419 . S
C2112 C2110 1.415 . S
C2112 C2117 1.425 . S
C2112 C2119 1.409 . S
C2113 H2105 0.930 . S
C2113 C2111 1.419 . S
C2113 C2114 1.362 . S
C2114 H2106 0.930 . S
C2114 C2113 1.362 . S
C2114 C2117 1.409 . S
C2115 H2107 0.930 . S
C2115 C2116 1.355 . S
C2115 C2117 1.415 . S
C2116 C2115 1.355 . S
C2116 C2118 1.419 . S
C2117 C2112 1.425 . S
C2117 C2114 1.409 . S
C2117 C2115 1.415 . S
C2118 H2108 0.930 . S
C2118 C2116 1.419 . S
C2118 C2119 1.362 . S
C2119 H2109 0.930 . S
C2119 C2112 1.409 . S
C2119 C2118 1.362 . S
H2120 C2126 0.930 . S
H2121 C2129 0.930 . S
H2122 C2130 0.930 . S
H2123 C2131 0.930 . S
H2124 C2134 0.930 . S
H2125 C2135 0.930 . S
C2126 H2120 0.930 . S
C2126 C2127 1.355 . S
C2126 C2128 1.415 1_554 S
C2127 C2126 1.355 . S
C2127 C2129 1.419 . S
C2128 C2126 1.415 1_556 S
C2128 C2133 1.425 . S
C2128 C2135 1.409 . S
C2129 H2121 0.930 . S
C2129 C2127 1.419 . S
C2129 C2130 1.366 . S
C2130 H2122 0.930 . S
C2130 C2129 1.366 . S
C2130 C2133 1.403 1_554 S
C2131 H2123 0.930 . S
C2131 C2132 1.355 . S
C2131 C2133 1.415 . S
C2132 C2131 1.355 . S
C2132 C2134 1.419 . S
C2133 C2128 1.425 . S
C2133 C2130 1.403 1_556 S
C2133 C2131 1.415 . S
C2134 H2124 0.930 . S
C2134 C2132 1.419 . S
C2134 C2135 1.362 . S
C2135 H2125 0.930 . S
C2135 C2128 1.409 . S
C2135 C2134 1.362 . S
H2136 C2142 0.930 . S
H2137 C2145 0.930 . S
H2138 C2146 0.930 . S
H2139 C2147 0.930 . S
H2140 C2150 0.930 . S
H2141 C2151 0.930 . S
C2142 H2136 0.930 . S
C2142 C2143 1.355 . S
C2142 C2144 1.415 . S
C2143 C2142 1.355 . S
C2143 C2145 1.419 . S
C2144 C2142 1.415 . S
C2144 C2149 1.425 . S
C2144 C2151 1.409 . S
C2145 H2137 0.930 . S
C2145 C2143 1.419 . S
C2145 C2146 1.362 . S
C2146 H2138 0.930 . S
C2146 C2145 1.362 . S
C2146 C2149 1.409 . S
C2147 H2139 0.930 . S
C2147 C2148 1.355 . S
C2147 C2149 1.415 . S
C2148 C2147 1.355 . S
C2148 C2150 1.419 . S
C2149 C2144 1.425 . S
C2149 C2146 1.409 . S
C2149 C2147 1.415 . S
C2150 H2140 0.930 . S
C2150 C2148 1.419 . S
C2150 C2151 1.362 . S
C2151 H2141 0.930 . S
C2151 C2144 1.409 . S
C2151 C2150 1.362 . S
H2152 C2158 0.930 . S
H2153 C2161 0.930 . S
H2154 C2162 0.930 . S
H2155 C2163 0.930 . S
H2156 C2166 0.930 . S
H2157 C2167 0.930 . S
C2158 H2152 0.930 . S
C2158 C2159 1.355 . S
C2158 C2160 1.415 . S
C2159 C2158 1.355 . S
C2159 C2161 1.419 . S
C2160 C2158 1.415 . S
C2160 C2165 1.425 . S
C2160 C2167 1.409 . S
C2161 H2153 0.930 . S
C2161 C2159 1.419 . S
C2161 C2162 1.362 . S
C2162 H2154 0.930 . S
C2162 C2161 1.362 . S
C2162 C2165 1.409 . S
C2163 H2155 0.930 . S
C2163 C2164 1.355 . S
C2163 C2165 1.415 . S
C2164 C2163 1.355 . S
C2164 C2166 1.419 . S
C2165 C2160 1.425 . S
C2165 C2162 1.409 . S
C2165 C2163 1.415 . S
C2166 H2156 0.930 . S
C2166 C2164 1.419 . S
C2166 C2167 1.362 . S
C2167 H2157 0.930 . S
C2167 C2160 1.409 . S
C2167 C2166 1.362 . S
C639 C101 1.648 . S
C644 C330 1.606 . S
C655 C57 1.612 . S
C660 C341 1.623 . S
C671 C73 1.076 . S
C676 C370 1.171 . S
C692 C373 1.385 . S
C687 C78 1.357 . S
C703 C21 1.622 . S
C708 C411 1.591 . S
C724 C414 1.092 . S
C719 C31 1.032 . S
C740 C441 1.509 . S
C735 C49 1.544 . S
C751 C0 1.560 . S
C756 C470 1.599 . S
C772 C321 1.549 1_655 S
C767 C218 1.572 . S
C783 C229 0.962 . S
C788 C333 0.973 . S
C804 C361 1.561 . S
C799 C257 1.549 . S
C820 C390 1.246 . S
C815 C164 1.121 . S
C831 C216 1.008 . S
C836 C394 1.083 . S
C852 C420 1.580 . S
C847 C231 1.603 . S
C868 C433 0.778 . S
C863 C255 0.750 . S
C884 C461 1.594 . S
C879 C166 1.623 . S
C900 C313 1.501 1_565 S
C895 C143 1.479 . S
C911 C265 1.684 . S
C916 C480 1.678 1_554 S
C932 C511 1.467 . S
C927 C299 1.480 . S
C948 C530 1.000 . S
C943 C291 1.059 . S
C959 C104 1.301 . S
C964 C453 1.321 . S
C975 C117 1.410 . S
C980 C353 1.447 . S
C991 C304 1.481 . S
C996 C541 1.513 . S
C1012 C570 0.894 . S
C1007 C278 0.942 . S
C1028 C331 1.596 . S
C1023 C60 1.588 . S
C1044 C560 1.570 . S
C1039 C96 1.558 . S
C1055 C88 1.074 . S
C1060 C371 1.037 . S
C1071 C65 1.318 . S
C1076 C534 1.352 . S
C1092 C410 1.567 . S
C1087 C10 1.597 . S
C1103 C44 0.970 . S
C1108 C493 1.049 . S
C1124 C440 1.477 1_556 S
C1119 C34 1.446 . S
C1140 C591 1.502 . S
C1135 C13 1.595 . S
C1156 C320 1.540 . S
C1151 C138 1.493 1_565 S
C1172 C554 0.932 . S
C1167 C296 0.916 . S
C1183 C112 1.497 . S
C1188 C360 1.507 . S
C1199 C270 1.151 . S
C1204 C551 1.107 . S
C1215 C140 0.982 . S
C1220 C393 1.013 . S
C1236 C501 1.528 . S
C1231 C294 1.512 . S
C1247 C114 0.802 . S
C1252 C434 0.766 . S
C1263 C268 1.523 . S
C1268 C580 1.538 . S
C1279 C169 1.451 1_556 S
C1284 C314 1.441 . S
C1295 C161 1.639 . S
C1300 C481 1.667 . S
C1311 C234 1.535 . S
C1316 C430 1.418 . S
C1327 C226 0.986 . S
C1332 C531 0.905 . S
C1348 C574 1.294 . S
C1343 C247 1.295 . S
C1359 C195 1.443 . S
C1364 C354 1.447 . S
C1380 C380 1.455 . S
C1375 C239 1.435 . S
C1396 C351 0.865 . S
C1391 C187 0.897 . S
C1407 C75 1.642 . S
C1412 C610 1.635 . S
C1428 C561 1.622 . S
C1423 C83 1.612 . S
C1439 C99 1.075 . S
C1444 C630 1.165 . S
C1455 C52 1.401 . S
C1460 C533 1.423 . S
C1471 C47 1.666 . S
C1476 C491 1.649 . S
C1492 C494 1.072 . S
C1487 C5 1.068 . S
C1508 C521 1.542 . S
C1503 C23 1.529 . S
C1524 C590 1.560 . S
C1519 C26 1.578 . S
C1540 C601 1.568 . S
C1535 C244 1.557 . S
C1551 C177 0.903 . S
C1556 C553 0.933 . S
C1572 C621 1.550 . S
C1567 C192 1.551 . S
C1588 C550 1.202 . S
C1583 C203 1.220 . S
C1604 C474 1.084 . S
C1599 C242 0.996 . S
C1615 C179 1.615 . S
C1620 C500 1.606 . S
C1636 C513 0.884 . S
C1631 C190 0.888 . S
C1647 C205 1.618 . S
C1652 C581 1.620 . S
C1668 C593 1.498 . S
C1663 C286 1.474 . S
C1679 C122 1.664 . S
C1684 C400 1.685 . S
C1700 C431 1.519 . S
C1695 C130 1.537 . S
C1716 C450 1.061 1_565 S
C1711 C148 0.970 . S
C1732 C573 1.323 . S
C1727 C273 1.304 . S
C1743 C260 1.414 . S
C1748 C613 1.450 . S
C1764 C381 1.511 . S
C1759 C135 1.466 . S
C1780 C350 0.964 . S
C1775 C109 0.896 . S
C1791 C86 1.596 . S
C1796 C611 1.546 . S
C1812 C340 1.580 . S
C1807 C70 1.578 . S
C1823 C62 1.076 . S
C1828 C631 1.022 . S
C1839 C91 1.350 . S
C1844 C374 1.374 . S
C1855 C36 1.618 . S
C1860 C490 1.569 . S
C1876 C413 1.028 . S
C1871 C18 1.066 . S
C1887 C8 1.373 . S
C1892 C520 1.457 . S
C1903 C39 1.607 . S
C1908 C471 1.515 . S
C1924 C600 1.536 . S
C1919 C307 1.518 . S
C1935 C153 0.863 . S
C1940 C334 0.829 . S
C1956 C620 1.514 1_655 S
C1951 C281 1.458 . S
C1967 C127 1.159 . S
C1972 C391 1.143 . S
C1983 C309 0.988 . S
C1988 C473 0.991 . S
C2004 C421 1.555 . S
C1999 C151 1.523 . S
C2015 C283 0.762 . S
C2020 C514 0.814 . S
C2036 C460 1.540 . S
C2031 C125 1.545 . S
C2052 C594 1.441 . S
C2047 C221 1.489 . S
C2068 C401 1.653 1_565 S
C2063 C200 1.643 . S
C2079 C208 1.517 . S
C2084 C510 1.484 . S
C2100 C451 0.908 . S
C2095 C174 0.959 1_556 S
C2111 C182 1.288 . S
C2116 C454 1.270 . S
C2127 C156 1.444 . S
C2132 C614 1.436 . S
C2148 C540 1.485 . S
C2143 C213 1.482 . S
C2164 C571 0.914 . S
C2159 C252 0.863 . S
