# Generated by pormake.
# Topology gar, (4,6)-cn, num edge types: 1
# Building blocks:
#     Node 0, Type 0, BuildingBlock: GALJAG_clean_sbu_0, # of connection points: 4
#     Node 1, Type 0, BuildingBlock: GALJAG_clean_sbu_0, # of connection points: 4
#     Node 2, Type 0, BuildingBlock: GALJAG_clean_sbu_0, # of connection points: 4
#     Node 3, Type 0, BuildingBlock: GALJAG_clean_sbu_0, # of connection points: 4
#     Node 4, Type 0, BuildingBlock: GALJAG_clean_sbu_0, # of connection points: 4
#     Node 5, Type 0, BuildingBlock: GALJAG_clean_sbu_0, # of connection points: 4
#     Node 6, Type 0, BuildingBlock: GALJAG_clean_sbu_0, # of connection points: 4
#     Node 7, Type 0, BuildingBlock: GALJAG_clean_sbu_0, # of connection points: 4
#     Node 8, Type 0, BuildingBlock: GALJAG_clean_sbu_0, # of connection points: 4
#     Node 9, Type 0, BuildingBlock: GALJAG_clean_sbu_0, # of connection points: 4
#     Node 10, Type 0, BuildingBlock: GALJAG_clean_sbu_0, # of connection points: 4
#     Node 11, Type 0, BuildingBlock: GALJAG_clean_sbu_0, # of connection points: 4
#     Node 12, Type 0, BuildingBlock: GALJAG_clean_sbu_0, # of connection points: 4
#     Node 13, Type 0, BuildingBlock: GALJAG_clean_sbu_0, # of connection points: 4
#     Node 14, Type 0, BuildingBlock: GALJAG_clean_sbu_0, # of connection points: 4
#     Node 15, Type 0, BuildingBlock: GALJAG_clean_sbu_0, # of connection points: 4
#     Node 16, Type 0, BuildingBlock: GALJAG_clean_sbu_0, # of connection points: 4
#     Node 17, Type 0, BuildingBlock: GALJAG_clean_sbu_0, # of connection points: 4
#     Node 18, Type 0, BuildingBlock: GALJAG_clean_sbu_0, # of connection points: 4
#     Node 19, Type 0, BuildingBlock: GALJAG_clean_sbu_0, # of connection points: 4
#     Node 20, Type 0, BuildingBlock: GALJAG_clean_sbu_0, # of connection points: 4
#     Node 21, Type 0, BuildingBlock: GALJAG_clean_sbu_0, # of connection points: 4
#     Node 22, Type 0, BuildingBlock: GALJAG_clean_sbu_0, # of connection points: 4
#     Node 23, Type 0, BuildingBlock: GALJAG_clean_sbu_0, # of connection points: 4
#     Node 24, Type 1, BuildingBlock: NUHQIS_clean_sbu_0, # of connection points: 6
#     Node 25, Type 1, BuildingBlock: NUHQIS_clean_sbu_0, # of connection points: 6
#     Node 26, Type 1, BuildingBlock: NUHQIS_clean_sbu_0, # of connection points: 6
#     Node 27, Type 1, BuildingBlock: NUHQIS_clean_sbu_0, # of connection points: 6
#     Node 28, Type 1, BuildingBlock: NUHQIS_clean_sbu_0, # of connection points: 6
#     Node 29, Type 1, BuildingBlock: NUHQIS_clean_sbu_0, # of connection points: 6
#     Node 30, Type 1, BuildingBlock: NUHQIS_clean_sbu_0, # of connection points: 6
#     Node 31, Type 1, BuildingBlock: NUHQIS_clean_sbu_0, # of connection points: 6
#     Node 32, Type 1, BuildingBlock: NUHQIS_clean_sbu_0, # of connection points: 6
#     Node 33, Type 1, BuildingBlock: NUHQIS_clean_sbu_0, # of connection points: 6
#     Node 34, Type 1, BuildingBlock: NUHQIS_clean_sbu_0, # of connection points: 6
#     Node 35, Type 1, BuildingBlock: NUHQIS_clean_sbu_0, # of connection points: 6
#     Node 36, Type 1, BuildingBlock: NUHQIS_clean_sbu_0, # of connection points: 6
#     Node 37, Type 1, BuildingBlock: NUHQIS_clean_sbu_0, # of connection points: 6
#     Node 38, Type 1, BuildingBlock: NUHQIS_clean_sbu_0, # of connection points: 6
#     Node 39, Type 1, BuildingBlock: NUHQIS_clean_sbu_0, # of connection points: 6
#     Edge 40, Type (0, 1), BuildingBlock: EZIPEK_clean_linker_0, # of connection points: 2
#     Edge 41, Type (0, 1), BuildingBlock: EZIPEK_clean_linker_0, # of connection points: 2
#     Edge 42, Type (0, 1), BuildingBlock: EZIPEK_clean_linker_0, # of connection points: 2
#     Edge 43, Type (0, 1), BuildingBlock: EZIPEK_clean_linker_0, # of connection points: 2
#     Edge 44, Type (0, 1), BuildingBlock: EZIPEK_clean_linker_0, # of connection points: 2
#     Edge 45, Type (0, 1), BuildingBlock: EZIPEK_clean_linker_0, # of connection points: 2
#     Edge 46, Type (0, 1), BuildingBlock: EZIPEK_clean_linker_0, # of connection points: 2
#     Edge 47, Type (0, 1), BuildingBlock: EZIPEK_clean_linker_0, # of connection points: 2
#     Edge 48, Type (0, 1), BuildingBlock: EZIPEK_clean_linker_0, # of connection points: 2
#     Edge 49, Type (0, 1), BuildingBlock: EZIPEK_clean_linker_0, # of connection points: 2
#     Edge 50, Type (0, 1), BuildingBlock: EZIPEK_clean_linker_0, # of connection points: 2
#     Edge 51, Type (0, 1), BuildingBlock: EZIPEK_clean_linker_0, # of connection points: 2
#     Edge 52, Type (0, 1), BuildingBlock: EZIPEK_clean_linker_0, # of connection points: 2
#     Edge 53, Type (0, 1), BuildingBlock: EZIPEK_clean_linker_0, # of connection points: 2
#     Edge 54, Type (0, 1), BuildingBlock: EZIPEK_clean_linker_0, # of connection points: 2
#     Edge 55, Type (0, 1), BuildingBlock: EZIPEK_clean_linker_0, # of connection points: 2
#     Edge 56, Type (0, 1), BuildingBlock: EZIPEK_clean_linker_0, # of connection points: 2
#     Edge 57, Type (0, 1), BuildingBlock: EZIPEK_clean_linker_0, # of connection points: 2
#     Edge 58, Type (0, 1), BuildingBlock: EZIPEK_clean_linker_0, # of connection points: 2
#     Edge 59, Type (0, 1), BuildingBlock: EZIPEK_clean_linker_0, # of connection points: 2
#     Edge 60, Type (0, 1), BuildingBlock: EZIPEK_clean_linker_0, # of connection points: 2
#     Edge 61, Type (0, 1), BuildingBlock: EZIPEK_clean_linker_0, # of connection points: 2
#     Edge 62, Type (0, 1), BuildingBlock: EZIPEK_clean_linker_0, # of connection points: 2
#     Edge 63, Type (0, 1), BuildingBlock: EZIPEK_clean_linker_0, # of connection points: 2
#     Edge 64, Type (0, 1), BuildingBlock: EZIPEK_clean_linker_0, # of connection points: 2
#     Edge 65, Type (0, 1), BuildingBlock: EZIPEK_clean_linker_0, # of connection points: 2
#     Edge 66, Type (0, 1), BuildingBlock: EZIPEK_clean_linker_0, # of connection points: 2
#     Edge 67, Type (0, 1), BuildingBlock: EZIPEK_clean_linker_0, # of connection points: 2
#     Edge 68, Type (0, 1), BuildingBlock: EZIPEK_clean_linker_0, # of connection points: 2
#     Edge 69, Type (0, 1), BuildingBlock: EZIPEK_clean_linker_0, # of connection points: 2
#     Edge 70, Type (0, 1), BuildingBlock: EZIPEK_clean_linker_0, # of connection points: 2
#     Edge 71, Type (0, 1), BuildingBlock: EZIPEK_clean_linker_0, # of connection points: 2
#     Edge 72, Type (0, 1), BuildingBlock: EZIPEK_clean_linker_0, # of connection points: 2
#     Edge 73, Type (0, 1), BuildingBlock: EZIPEK_clean_linker_0, # of connection points: 2
#     Edge 74, Type (0, 1), BuildingBlock: EZIPEK_clean_linker_0, # of connection points: 2
#     Edge 75, Type (0, 1), BuildingBlock: EZIPEK_clean_linker_0, # of connection points: 2
#     Edge 76, Type (0, 1), BuildingBlock: EZIPEK_clean_linker_0, # of connection points: 2
#     Edge 77, Type (0, 1), BuildingBlock: EZIPEK_clean_linker_0, # of connection points: 2
#     Edge 78, Type (0, 1), BuildingBlock: EZIPEK_clean_linker_0, # of connection points: 2
#     Edge 79, Type (0, 1), BuildingBlock: EZIPEK_clean_linker_0, # of connection points: 2
#     Edge 80, Type (0, 1), BuildingBlock: EZIPEK_clean_linker_0, # of connection points: 2
#     Edge 81, Type (0, 1), BuildingBlock: EZIPEK_clean_linker_0, # of connection points: 2
#     Edge 82, Type (0, 1), BuildingBlock: EZIPEK_clean_linker_0, # of connection points: 2
#     Edge 83, Type (0, 1), BuildingBlock: EZIPEK_clean_linker_0, # of connection points: 2
#     Edge 84, Type (0, 1), BuildingBlock: EZIPEK_clean_linker_0, # of connection points: 2
#     Edge 85, Type (0, 1), BuildingBlock: EZIPEK_clean_linker_0, # of connection points: 2
#     Edge 86, Type (0, 1), BuildingBlock: EZIPEK_clean_linker_0, # of connection points: 2
#     Edge 87, Type (0, 1), BuildingBlock: EZIPEK_clean_linker_0, # of connection points: 2
#     Edge 88, Type (0, 1), BuildingBlock: EZIPEK_clean_linker_0, # of connection points: 2
#     Edge 89, Type (0, 1), BuildingBlock: EZIPEK_clean_linker_0, # of connection points: 2
#     Edge 90, Type (0, 1), BuildingBlock: EZIPEK_clean_linker_0, # of connection points: 2
#     Edge 91, Type (0, 1), BuildingBlock: EZIPEK_clean_linker_0, # of connection points: 2
#     Edge 92, Type (0, 1), BuildingBlock: EZIPEK_clean_linker_0, # of connection points: 2
#     Edge 93, Type (0, 1), BuildingBlock: EZIPEK_clean_linker_0, # of connection points: 2
#     Edge 94, Type (0, 1), BuildingBlock: EZIPEK_clean_linker_0, # of connection points: 2
#     Edge 95, Type (0, 1), BuildingBlock: EZIPEK_clean_linker_0, # of connection points: 2
#     Edge 96, Type (0, 1), BuildingBlock: EZIPEK_clean_linker_0, # of connection points: 2
#     Edge 97, Type (0, 1), BuildingBlock: EZIPEK_clean_linker_0, # of connection points: 2
#     Edge 98, Type (0, 1), BuildingBlock: EZIPEK_clean_linker_0, # of connection points: 2
#     Edge 99, Type (0, 1), BuildingBlock: EZIPEK_clean_linker_0, # of connection points: 2
#     Edge 100, Type (0, 1), BuildingBlock: EZIPEK_clean_linker_0, # of connection points: 2
#     Edge 101, Type (0, 1), BuildingBlock: EZIPEK_clean_linker_0, # of connection points: 2
#     Edge 102, Type (0, 1), BuildingBlock: EZIPEK_clean_linker_0, # of connection points: 2
#     Edge 103, Type (0, 1), BuildingBlock: EZIPEK_clean_linker_0, # of connection points: 2
#     Edge 104, Type (0, 1), BuildingBlock: EZIPEK_clean_linker_0, # of connection points: 2
#     Edge 105, Type (0, 1), BuildingBlock: EZIPEK_clean_linker_0, # of connection points: 2
#     Edge 106, Type (0, 1), BuildingBlock: EZIPEK_clean_linker_0, # of connection points: 2
#     Edge 107, Type (0, 1), BuildingBlock: EZIPEK_clean_linker_0, # of connection points: 2
#     Edge 108, Type (0, 1), BuildingBlock: EZIPEK_clean_linker_0, # of connection points: 2
#     Edge 109, Type (0, 1), BuildingBlock: EZIPEK_clean_linker_0, # of connection points: 2
#     Edge 110, Type (0, 1), BuildingBlock: EZIPEK_clean_linker_0, # of connection points: 2
#     Edge 111, Type (0, 1), BuildingBlock: EZIPEK_clean_linker_0, # of connection points: 2
#     Edge 112, Type (0, 1), BuildingBlock: EZIPEK_clean_linker_0, # of connection points: 2
#     Edge 113, Type (0, 1), BuildingBlock: EZIPEK_clean_linker_0, # of connection points: 2
#     Edge 114, Type (0, 1), BuildingBlock: EZIPEK_clean_linker_0, # of connection points: 2
#     Edge 115, Type (0, 1), BuildingBlock: EZIPEK_clean_linker_0, # of connection points: 2
#     Edge 116, Type (0, 1), BuildingBlock: EZIPEK_clean_linker_0, # of connection points: 2
#     Edge 117, Type (0, 1), BuildingBlock: EZIPEK_clean_linker_0, # of connection points: 2
#     Edge 118, Type (0, 1), BuildingBlock: EZIPEK_clean_linker_0, # of connection points: 2
#     Edge 119, Type (0, 1), BuildingBlock: EZIPEK_clean_linker_0, # of connection points: 2
#     Edge 120, Type (0, 1), BuildingBlock: EZIPEK_clean_linker_0, # of connection points: 2
#     Edge 121, Type (0, 1), BuildingBlock: EZIPEK_clean_linker_0, # of connection points: 2
#     Edge 122, Type (0, 1), BuildingBlock: EZIPEK_clean_linker_0, # of connection points: 2
#     Edge 123, Type (0, 1), BuildingBlock: EZIPEK_clean_linker_0, # of connection points: 2
#     Edge 124, Type (0, 1), BuildingBlock: EZIPEK_clean_linker_0, # of connection points: 2
#     Edge 125, Type (0, 1), BuildingBlock: EZIPEK_clean_linker_0, # of connection points: 2
#     Edge 126, Type (0, 1), BuildingBlock: EZIPEK_clean_linker_0, # of connection points: 2
#     Edge 127, Type (0, 1), BuildingBlock: EZIPEK_clean_linker_0, # of connection points: 2
#     Edge 128, Type (0, 1), BuildingBlock: EZIPEK_clean_linker_0, # of connection points: 2
#     Edge 129, Type (0, 1), BuildingBlock: EZIPEK_clean_linker_0, # of connection points: 2
#     Edge 130, Type (0, 1), BuildingBlock: EZIPEK_clean_linker_0, # of connection points: 2
#     Edge 131, Type (0, 1), BuildingBlock: EZIPEK_clean_linker_0, # of connection points: 2
#     Edge 132, Type (0, 1), BuildingBlock: EZIPEK_clean_linker_0, # of connection points: 2
#     Edge 133, Type (0, 1), BuildingBlock: EZIPEK_clean_linker_0, # of connection points: 2
#     Edge 134, Type (0, 1), BuildingBlock: EZIPEK_clean_linker_0, # of connection points: 2
#     Edge 135, Type (0, 1), BuildingBlock: EZIPEK_clean_linker_0, # of connection points: 2
# Relax obj value: 0.311
# Max RMSD: 0.361
# Mean RMSD: 0.168
data_MOF--net-gar--node1-GALJAG_clean_sbu_0--node2-NUHQIS_clean_sbu_0--edge1-EZIPEK_clean_linker_0
_symmetry_space_group_name_H-M    P1
_symmetry_Int_Tables_number       1
_symmetry_cell_setting            triclinic
loop_
_symmetry_equiv_pos_as_xyz
'x, y, z'
_cell_length_a     43.005709
_cell_length_b     45.439246
_cell_length_c     42.486438
_cell_angle_alpha  92.659802
_cell_angle_beta   97.388186
_cell_angle_gamma 100.52987
loop_
_atom_site_label
_atom_site_type_symbol
_atom_site_fract_x
_atom_site_fract_y
_atom_site_fract_z
_atom_type_partial_charge
In0 In 0.10287 0.32679 0.42824 0.0
O1 O 0.13174 0.32891 0.38098 0.0
O2 O 0.16049 0.32946 0.42331 0.0
C3 C 1.03923 0.32402 0.39247 0.0
C4 C 0.09783 0.2659 0.45884 0.0
C5 C 0.10602 0.38942 0.46034 0.0
O6 O 0.06358 0.31965 0.38018 0.0
O7 O 0.04644 0.3286 0.42238 0.0
O8 O 0.10437 0.36485 0.47417 0.0
O9 O 0.10779 0.3827 0.43131 0.0
C10 C 0.16047 0.32962 0.39332 0.0
O11 O 0.11075 0.29179 0.47242 0.0
O12 O 0.08715 0.27072 0.43053 0.0
In13 In 0.08012 0.83158 0.66505 0.0
O14 O 0.07418 0.86639 0.62035 0.0
O15 O 0.09276 0.8877 0.66378 0.0
C16 C 0.07802 0.76905 0.63329 0.0
C17 C 0.1442 0.83409 0.69967 0.0
C18 C 1.02331 0.82987 0.70069 0.0
O19 O 0.07239 0.79211 0.61892 0.0
O20 O 0.08326 0.77712 0.66285 0.0
O21 O 0.05247 0.83952 0.71186 0.0
O22 O 1.02235 0.82043 0.6718 0.0
C23 C 0.08438 0.89237 0.63489 0.0
O24 O 0.11866 0.83115 0.71227 0.0
O25 O 0.13778 0.83695 0.6701 0.0
In26 In 0.60294 0.82597 0.92732 0.0
O27 O 0.6314 0.82697 0.87986 0.0
O28 O 0.66066 0.83006 0.92235 0.0
C29 C 0.53894 0.8209 0.89224 0.0
C30 C 0.5981 0.76575 0.95867 0.0
C31 C 0.60537 0.88897 0.95794 0.0
O32 O 0.56331 0.81696 0.87976 0.0
O33 O 0.5464 0.82655 0.92201 0.0
O34 O 0.60584 0.86503 0.97261 0.0
O35 O 0.60517 0.88147 0.92868 0.0
C36 C 0.66033 0.82902 0.89228 0.0
O37 O 0.61069 0.79175 0.97212 0.0
O38 O 0.58786 0.77013 0.93013 0.0
In39 In 0.57903 0.33143 0.16348 0.0
O40 O 0.5765 0.29276 0.11762 0.0
O41 O 0.57733 0.27601 0.16135 0.0
C42 C 0.58342 0.39167 0.13218 0.0
C43 C 0.52269 0.32963 0.20009 0.0
C44 C 0.64326 0.33514 0.19781 0.0
O45 O 0.56714 0.36625 0.12022 0.0
O46 O 0.59753 0.38655 0.15899 0.0
O47 O 0.61826 0.33459 0.21099 0.0
O48 O 0.63618 0.33456 0.16787 0.0
C49 C 0.57731 0.26871 0.13206 0.0
O50 O 0.55191 0.33982 0.21075 0.0
O51 O 0.5214 0.32002 0.17121 0.0
In52 In 0.16732 0.9149 0.1913 0.0
O53 O 0.19345 0.88285 0.16694 0.0
O54 O 0.14914 0.86505 0.18277 0.0
C55 C 0.14521 0.94105 0.13972 0.0
C56 C 0.12432 0.92018 0.2303 0.0
C57 C 0.22267 0.92862 0.23189 0.0
O58 O 0.13451 0.91438 0.14501 0.0
O59 O 0.16793 0.95475 0.16004 0.0
O60 O 0.19642 0.91599 0.23941 0.0
O61 O 0.22105 0.93501 0.20313 0.0
C62 C 0.17257 0.86007 0.16978 0.0
O63 O 0.14209 0.94312 0.22217 0.0
O64 O 0.12827 0.89533 0.21868 0.0
In65 In 0.5131 0.74675 0.41926 0.0
O66 O 0.53912 0.73016 0.38059 0.0
O67 O 0.56093 0.77056 0.4087 0.0
C68 C 0.45941 0.72946 0.3777 0.0
C69 C 0.53329 0.71596 0.46785 0.0
C70 C 0.50166 0.8004 0.43704 0.0
O71 O 0.48303 0.74844 0.37247 0.0
O72 O 0.46316 0.71784 0.40406 0.0
O73 O 0.48359 0.77653 0.44262 0.0
O74 O 0.52533 0.79693 0.42362 0.0
C75 C 0.56222 0.75209 0.38608 0.0
O76 O 0.53011 0.7428 0.47187 0.0
O77 O 0.52511 0.70434 0.43983 0.0
In78 In 0.66358 0.40474 0.67533 0.0
O79 O 0.69552 0.37779 0.65198 0.0
O80 O 0.65088 0.35501 0.66377 0.0
C81 C 0.6405 0.43562 0.62791 0.0
C82 C 0.61583 0.39795 0.71023 0.0
C83 C 0.71642 0.42055 0.71898 0.0
O84 O 0.63855 0.40767 0.62527 0.0
O85 O 0.65565 0.44845 0.6538 0.0
O86 O 0.68993 0.40684 0.725 0.0
O87 O 0.71613 0.4271 0.69034 0.0
C88 C 0.67644 0.35324 0.6529 0.0
O89 O 0.63336 0.42324 0.70876 0.0
O90 O 0.62208 0.3765 0.69383 0.0
In91 In 1.03695 0.24557 0.9127 0.0
O92 O 0.06944 0.24592 0.95929 0.0
O93 O 1.03421 0.20669 0.94507 0.0
C94 C 1.03581 0.30312 0.92838 0.0
C95 C 0.08104 0.24095 0.87494 0.0
C96 C 0.97948 0.23298 0.87506 0.0
O97 O 1.02049 0.28188 0.94162 0.0
O98 O 0.05191 0.29533 0.90775 0.0
O99 O 1.00477 0.22808 0.86572 0.0
O100 O 0.98273 0.24124 0.9042 0.0
C101 C 0.0574 0.21981 0.96518 0.0
O102 O 0.06223 0.21793 0.88145 0.0
O103 O 0.07806 0.26554 0.8881 0.0
In104 In 0.5561 0.15194 0.3402 0.0
O105 O 0.58546 0.18687 0.31316 0.0
O106 O 0.5948 0.14241 0.31277 0.0
C107 C 0.58767 0.16813 0.39944 0.0
C108 C 0.50563 0.17206 0.31067 0.0
C109 C 0.5302 0.09383 0.34386 0.0
O110 O 0.5986 0.15463 0.3781 0.0
O111 O 0.56007 0.17332 0.39079 0.0
O112 O 0.52601 0.11424 0.36316 0.0
O113 O 0.54744 0.10259 0.32296 0.0
C114 C 0.60171 0.16857 0.30383 0.0
O115 O 0.51265 0.14732 0.30274 0.0
O116 O 0.52447 0.18726 0.33341 0.0
In117 In 0.36123 0.20564 0.54652 0.0
O118 O 0.37142 0.25064 0.58443 0.0
O119 O 0.35078 0.21117 0.60165 0.0
C120 C 0.36055 0.23728 0.48575 0.0
C121 C 0.41792 0.17398 0.54979 0.0
C122 C 0.29599 0.17118 0.54427 0.0
O123 O 0.37106 0.24941 0.51364 0.0
O124 O 0.35058 0.2095 0.48831 0.0
O125 O 0.32138 0.1613 0.55275 0.0
O126 O 0.30326 0.19769 0.53583 0.0
C127 C 0.36026 0.23909 0.60837 0.0
O128 O 0.38963 0.16354 0.53626 0.0
O129 O 0.41791 0.20012 0.56189 0.0
In130 In 0.23488 0.10253 0.85157 0.0
O131 O 0.20004 0.06015 0.83058 0.0
O132 O 0.1939 0.10222 0.81262 0.0
C133 C 0.20301 0.0967 0.90096 0.0
C134 C 0.28439 0.07573 0.84611 0.0
C135 C 0.26101 0.15987 0.84621 0.0
O136 O 0.19748 0.11396 0.87943 0.0
O137 O 0.22615 0.08348 0.89872 0.0
O138 O 0.25697 0.14971 0.87277 0.0
O139 O 0.25179 0.14132 0.82236 0.0
C140 C 0.18372 0.07429 0.81213 0.0
O141 O 0.28146 0.08905 0.87199 0.0
O142 O 0.26264 0.07625 0.82335 0.0
In143 In 0.36639 0.91321 0.05361 0.0
O144 O 0.34362 0.87322 0.08099 0.0
O145 O 0.38608 0.90094 0.10357 0.0
C146 C 0.35455 0.88861 0.99137 0.0
C147 C 0.32711 0.95003 0.069 0.0
C148 C 0.42213 0.95108 0.05136 0.0
O149 O 0.33819 0.90578 1.00266 0.0
O150 O 0.37612 0.88249 1.01177 0.0
O151 O 0.39537 0.95876 0.04579 0.0
O152 O 0.42114 0.92392 0.05723 0.0
C153 C 0.36378 0.87936 0.10587 0.0
O154 O 0.35691 0.95608 0.07708 0.0
O155 O 0.31666 0.92517 0.05316 0.0
In156 In 0.32071 0.45411 0.0511 0.0
O157 O 0.30571 0.41169 0.0844 0.0
O158 O 0.33664 0.44836 0.10803 0.0
C159 C 0.31981 0.42132 0.98859 0.0
C160 C 0.26442 0.48518 0.0508 0.0
C161 C 0.38552 0.48893 0.05178 0.0
O162 O 0.31883 0.40943 1.01507 0.0
O163 O 0.31994 0.44911 0.99326 0.0
O164 O 0.35998 0.49918 0.04558 0.0
O165 O 0.37852 0.4619 0.05864 0.0
C166 C 0.32154 0.42216 0.11125 0.0
O167 O 0.29288 0.49567 0.06382 0.0
O168 O 0.26403 0.45927 0.03789 0.0
In169 In 0.82133 0.24188 0.03457 0.0
O170 O 0.832 0.19477 0.03018 0.0
O171 O 0.87132 0.2311 0.03237 0.0
C172 C 0.76519 0.20239 0.03132 0.0
C173 C 0.83381 0.26897 0.0961 0.0
C174 C 0.82121 0.27348 0.98038 0.0
O175 O 0.78748 0.19776 1.01628 0.0
O176 O 0.77092 0.22715 0.04782 0.0
O177 O 0.84634 0.27158 0.99827 0.0
O178 O 0.79621 0.26171 0.99095 0.0
C179 C 0.86153 0.20299 0.02966 0.0
O180 O 0.85075 0.25225 0.08508 0.0
O181 O 0.81149 0.27351 0.07564 0.0
In182 In 0.11601 0.48891 0.2661 0.0
O183 O 0.15964 0.4912 0.30296 0.0
O184 O 0.14567 0.45184 0.27153 0.0
C185 C 0.14407 0.54662 0.26407 0.0
C186 C 0.08572 0.47912 0.20542 0.0
C187 C 0.07005 0.47199 0.30217 0.0
O188 O 0.12437 0.53839 0.28301 0.0
O189 O 0.14979 0.52584 0.24622 0.0
O190 O 0.08135 0.49899 0.29842 0.0
O191 O 0.08188 0.45278 0.28769 0.0
C192 C 0.16542 0.46615 0.29417 0.0
O193 O 0.07542 0.49215 0.22758 0.0
O194 O 0.11163 0.47055 0.21417 0.0
In195 In 0.82008 0.9521 0.55079 0.0
O196 O 0.80582 0.90918 0.58367 0.0
O197 O 0.83335 0.94716 0.60821 0.0
C198 C 0.819 0.91779 0.48884 0.0
C199 C 0.76314 0.98292 0.5498 0.0
C200 C 0.88471 0.98783 0.5506 0.0
O201 O 0.82998 0.91085 0.5161 0.0
O202 O 0.80714 0.94108 0.49282 0.0
O203 O 0.85899 0.99796 0.54535 0.0
O204 O 0.87799 0.9606 0.55666 0.0
C205 C 0.81989 0.9203 0.61098 0.0
O206 O 0.79191 0.99408 0.56159 0.0
O207 O 0.76296 0.95641 0.53848 0.0
In208 In 0.94719 0.04621 0.23609 0.0
O209 O 0.96776 0.0771 0.20146 0.0
O210 O 0.94951 0.03149 0.18478 0.0
C211 C 1.00635 0.05069 0.26745 0.0
C212 C 0.92104 0.08499 0.26835 0.0
C213 C 0.90877 0.99266 0.23247 0.0
O214 O 1.00052 0.0651 0.24362 0.0
O215 O 0.9825 0.03372 0.27558 0.0
O216 O 0.89808 1.01613 0.2261 0.0
O217 O 0.93866 0.99613 0.23972 0.0
C218 C 0.96563 0.05657 0.17988 0.0
O219 O 0.91687 0.08245 0.23834 0.0
O220 O 0.93772 0.06795 0.28179 0.0
In221 In 0.3245 0.73471 0.5353 0.0
O222 O 0.34111 0.69127 0.52466 0.0
O223 O 0.37585 0.73165 0.52749 0.0
C224 C 0.26782 0.69716 0.53445 0.0
C225 C 0.33517 0.75908 0.59764 0.0
C226 C 0.32348 0.765 0.48068 0.0
O227 O 0.29429 0.68884 0.53936 0.0
O228 O 0.26957 0.72475 0.5303 0.0
O229 O 0.33729 0.77733 0.5074 0.0
O230 O 0.30917 0.73843 0.48194 0.0
C231 C 0.36941 0.70341 0.52236 0.0
O232 O 0.31544 0.76666 0.57634 0.0
O233 O 0.35053 0.74044 0.58736 0.0
In234 In 0.42877 0.56237 0.72527 0.0
O235 O 0.38195 0.57053 0.69815 0.0
O236 O 0.39708 0.59066 0.74535 0.0
C237 C 0.40437 0.50668 0.73894 0.0
C238 C 0.45903 0.57249 0.6748 0.0
C239 C 0.48068 0.58203 0.76873 0.0
O240 O 0.40951 0.52884 0.75922 0.0
O241 O 0.41071 0.51269 0.71148 0.0
O242 O 0.47239 0.55515 0.75772 0.0
O243 O 0.46275 0.59937 0.75794 0.0
C244 C 0.37649 0.58685 0.72084 0.0
O245 O 0.45232 0.54677 0.68487 0.0
O246 O 0.44881 0.59297 0.68895 0.0
In247 In 0.61285 0.99055 0.76836 0.0
O248 O 0.64773 0.98733 0.81243 0.0
O249 O 0.65129 0.96167 0.77027 0.0
C250 C 0.64323 0.04749 0.76529 0.0
C251 C 0.58197 0.97995 0.70815 0.0
C252 C 0.565 0.97341 0.80187 0.0
O253 O 0.65023 1.02552 0.75037 0.0
O254 O 0.62083 0.04087 0.78169 0.0
O255 O 0.57606 0.95412 0.78655 0.0
O256 O 0.57819 1.00034 0.80036 0.0
C257 C 0.66264 0.97016 0.79887 0.0
O258 O 0.60316 0.96563 0.71884 0.0
O259 O 0.5766 0.99909 0.72813 0.0
In260 In 0.86174 0.7041 0.04552 0.0
O261 O 0.89032 0.66249 0.03478 0.0
O262 O 0.91844 0.69934 0.06041 0.0
C263 C 0.79644 0.66984 0.04298 0.0
C264 C 0.8614 0.73609 0.10807 0.0
C265 C 0.86189 0.7362 0.98528 0.0
O266 O 0.82173 0.65936 0.04991 0.0
O267 O 0.80381 0.6969 0.03628 0.0
O268 O 0.87322 0.7479 1.01318 0.0
O269 O 0.85058 0.70864 0.9876 0.0
C270 C 0.91855 0.67327 0.04823 0.0
O271 O 0.86847 0.74871 0.08312 0.0
O272 O 0.85572 0.7079 0.10192 0.0
In273 In 0.0666 0.65638 0.83862 0.0
O274 O 1.02574 0.64962 0.79808 0.0
O275 O 1.02697 0.68389 0.83455 0.0
C276 C 0.04111 0.59854 0.84319 0.0
C277 C 0.11259 0.67699 0.80364 0.0
C278 C 0.09724 0.67218 0.89819 0.0
O279 O 0.05967 0.60667 0.82317 0.0
O280 O 1.03617 0.61932 0.8615 0.0
O281 O 0.10579 0.6546 0.87866 0.0
O282 O 0.07266 0.68208 0.88741 0.0
C283 C 1.01212 0.66924 0.80931 0.0
O284 O 0.09423 0.69355 0.81241 0.0
O285 O 0.10724 0.65056 0.81217 0.0
In286 In 0.86473 0.41543 0.55209 0.0
O287 O 0.85014 0.37324 0.57977 0.0
O288 O 0.88173 0.41036 0.60494 0.0
C289 C 0.85272 0.39269 0.48939 0.0
C290 C 0.81826 0.44648 0.56092 0.0
C291 C 0.92342 0.45 0.55524 0.0
O292 O 0.8607 0.37744 0.51218 0.0
O293 O 0.85054 0.419 0.49821 0.0
O294 O 0.89931 0.45989 0.56159 0.0
O295 O 0.91847 0.4221 0.54759 0.0
C296 C 0.86562 0.38448 0.60621 0.0
O297 O 0.84659 0.45863 0.559 0.0
O298 O 0.81257 0.41816 0.55747 0.0
In299 In 0.7638 0.59731 0.37743 0.0
O300 O 0.8018 0.57376 0.3622 0.0
O301 O 0.80219 0.58181 0.41203 0.0
C302 C 0.78917 0.65402 0.36772 0.0
C303 C 0.71874 0.57911 0.32729 0.0
C304 C 0.72177 0.58517 0.41814 0.0
O305 O 0.78381 0.64623 0.39496 0.0
O306 O 0.78283 0.63315 0.34595 0.0
O307 O 0.7289 0.56495 0.40068 0.0
O308 O 0.73747 0.61131 0.41676 0.0
C309 C 0.81461 0.57097 0.38996 0.0
O310 O 0.73851 0.56295 0.3369 0.0
O311 O 0.72212 0.60423 0.34249 0.0
Tb312 Tb 0.06022 0.06477 0.02827 0.0
Eu313 Eu 0.12975 0.08785 0.07461 0.0
C314 C 0.1226 0.07703 0.9981 0.0
C315 C 0.10339 1.01931 0.05328 0.0
C316 C 0.97855 0.07061 1.00488 0.0
C317 C 0.9376 0.09702 0.98202 0.0
C318 C 0.95806 0.07668 0.97852 0.0
C319 C 0.97759 0.0846 0.0349 0.0
C320 C 0.95763 0.10517 0.03829 0.0
C321 C 0.93787 0.112 1.01184 0.0
C322 C 1.00364 0.05298 1.00076 0.0
O323 O 0.05332 0.08615 0.07224 0.0
O324 O 0.0921 0.07089 0.10494 0.0
O325 O 0.10869 0.12958 0.07029 0.0
O326 O 0.07426 0.11261 0.02396 0.0
C327 C 0.06349 0.07708 0.09953 0.0
O328 O 0.15943 0.08647 0.12001 0.0
O329 O 0.18016 0.10966 0.0822 0.0
O330 O 0.13663 0.0939 0.02378 0.0
O331 O 0.0946 0.05925 0.99662 0.0
O332 O 0.07435 1.0252 0.04911 0.0
O333 O 0.12817 0.04109 0.0551 0.0
C334 C 0.08978 0.13428 0.04487 0.0
O335 O 1.02741 0.06665 0.98742 0.0
O336 O 1.01366 0.03971 0.02566 0.0
C337 C 0.21005 0.07774 0.10978 0.0
C338 C 0.25125 0.03735 0.1007 0.0
C339 C 0.22352 1.02818 0.11452 0.0
C340 C 0.203 0.04808 0.11888 0.0
C341 C 0.23885 0.08735 0.09767 0.0
C342 C 0.25929 0.06729 0.09312 0.0
C343 C 0.18577 0.09715 0.10884 0.0
H344 H 0.9223 0.10182 0.96135 0.0
H345 H 0.95856 0.06638 0.95512 0.0
H346 H 0.99299 0.08043 0.05573 0.0
H347 H 0.95814 0.1163 0.06152 0.0
H348 H 0.2173 1.00534 0.12108 0.0
H349 H 0.18102 0.03977 0.12821 0.0
H350 H 0.24483 0.11 0.09039 0.0
H351 H 0.28077 0.07478 0.08261 0.0
Tb352 Tb 0.37481 0.84244 0.30704 0.0
Eu353 Eu 0.3054 0.79652 0.2768 0.0
C354 C 0.31349 0.87008 0.28589 0.0
C355 C 0.3298 0.80732 0.3531 0.0
C356 C 0.44291 0.90721 0.3346 0.0
C357 C 0.45538 0.95617 0.36407 0.0
C358 C 0.44055 0.92597 0.36118 0.0
C359 C 0.46142 0.91908 0.31156 0.0
C360 C 0.47642 0.9493 0.31457 0.0
C361 C 0.47322 0.96806 0.34069 0.0
C362 C 0.42707 0.87522 0.33203 0.0
O363 O 0.3854 0.79723 0.30515 0.0
O364 O 0.33701 0.76454 0.29169 0.0
O365 O 0.33083 0.80954 0.23468 0.0
O366 O 0.36944 0.85015 0.25615 0.0
C367 C 0.36757 0.77014 0.30209 0.0
O368 O 0.27813 0.76369 0.2398 0.0
O369 O 0.25422 0.78102 0.27661 0.0
O370 O 0.29524 0.84337 0.27944 0.0
O371 O 0.34408 0.87462 0.29678 0.0
O372 O 0.35019 0.8314 0.34814 0.0
O373 O 0.31167 0.78989 0.32962 0.0
C374 C 0.35212 0.83356 0.23152 0.0
O375 O 0.40182 0.86892 0.34617 0.0
O376 O 0.42328 0.86009 0.30447 0.0
C377 C 0.23519 0.73037 0.2556 0.0
C378 C 0.205 0.67059 0.25979 0.0
C379 C 0.21431 0.69007 0.28735 0.0
C380 C 0.22939 0.7198 0.28531 0.0
C381 C 0.22575 0.71073 0.22815 0.0
C382 C 0.21084 0.68105 0.23022 0.0
C383 C 0.25185 0.76129 0.25258 0.0
H384 H 0.45274 0.97034 0.3844 0.0
H385 H 0.4271 0.91736 0.37975 0.0
H386 H 0.46419 0.90511 0.29114 0.0
H387 H 0.49016 0.9582 0.29632 0.0
H388 H 0.21006 0.68218 0.31038 0.0
H389 H 0.23671 0.73436 0.30692 0.0
H390 H 0.23029 0.71821 0.20509 0.0
H391 H 0.204 0.66616 0.2088 0.0
Tb392 Tb 0.57028 0.05517 0.52512 0.0
Eu393 Eu 0.60946 0.09885 0.58385 0.0
C394 C 0.57322 0.03375 0.59498 0.0
C395 C 0.53526 0.10857 0.55492 0.0
C396 C 0.52808 0.98821 0.47171 0.0
C397 C 0.54096 0.93858 0.47395 0.0
C398 C 0.54981 0.96955 0.48068 0.0
C399 C 0.49754 0.97566 0.45583 0.0
C400 C 0.48857 0.94465 0.4494 0.0
C401 C 0.51024 0.92597 0.45849 0.0
C402 C 0.53568 1.02039 0.481 0.0
O403 O 0.58568 0.09618 0.50271 0.0
O404 O 0.61952 0.12626 0.54275 0.0
O405 O 0.64407 0.06569 0.57394 0.0
O406 O 0.61893 0.04104 0.52682 0.0
C407 C 0.60554 0.12108 0.51338 0.0
O408 O 0.65581 0.11786 0.61091 0.0
O409 O 0.61303 0.12706 0.62783 0.0
O410 O 0.5809 0.06164 0.60641 0.0
O411 O 0.572 1.02625 0.56465 0.0
O412 O 0.53352 0.08302 0.53716 0.0
O413 O 0.56291 0.11952 0.57343 0.0
C414 C 0.64449 0.04628 0.54949 0.0
O415 O 0.52616 1.02797 0.50758 0.0
O416 O 0.56453 0.03457 0.47886 0.0
C417 C 0.65793 0.16627 0.63435 0.0
C418 C 0.67657 0.22886 0.63743 0.0
C419 C 0.68352 0.21131 0.61223 0.0
C420 C 0.674 0.18019 0.61052 0.0
C421 C 0.65285 0.18377 0.66055 0.0
C422 C 0.66204 0.21495 0.66204 0.0
C423 C 0.64409 0.13405 0.63077 0.0
H424 H 0.5579 0.92436 0.48115 0.0
H425 H 0.57333 0.97887 0.4933 0.0
H426 H 0.48045 0.98982 0.44899 0.0
H427 H 0.46477 0.93518 0.43753 0.0
H428 H 0.69475 0.22183 0.59311 0.0
H429 H 0.67815 0.16721 0.58997 0.0
H430 H 0.64059 0.17342 0.67914 0.0
H431 H 0.65664 0.2283 0.6817 0.0
Tb432 Tb 0.30499 0.33483 0.78333 0.0
Eu433 Eu 0.37662 0.3305 0.81175 0.0
C434 C 0.36107 0.38654 0.77419 0.0
C435 C 0.34845 0.30403 0.73667 0.0
C436 C 0.21885 0.31264 0.76583 0.0
C437 C 0.16691 0.30469 0.78361 0.0
C438 C 0.19123 0.32323 0.77114 0.0
C439 C 0.22076 0.28255 0.77065 0.0
C440 C 0.19651 0.26406 0.78321 0.0
C441 C 0.17016 0.27552 0.79095 0.0
C442 C 0.24748 0.33408 0.76109 0.0
O443 O 0.30018 0.28998 0.79934 0.0
O444 O 0.34739 0.29234 0.83233 0.0
O445 O 0.36018 0.35696 0.85281 0.0
O446 O 0.30656 0.34963 0.8356 0.0
C447 C 0.31842 0.27881 0.82079 0.0
O448 O 0.41813 0.30867 0.81638 0.0
O449 O 0.42009 0.35103 0.8428 0.0
O450 O 0.38117 0.3684 0.77967 0.0
O451 O 0.33123 0.37931 0.77859 0.0
O452 O 0.32416 0.31804 0.73982 0.0
O453 O 0.36998 0.30389 0.7621 0.0
C454 C 0.3312 0.35981 0.85843 0.0
O455 O 0.26213 0.35011 0.78662 0.0
O456 O 0.26749 0.32355 0.74535 0.0
C457 C 0.46502 0.34488 0.81951 0.0
C458 C 0.51635 0.3666 0.78739 0.0
C459 C 0.51656 0.34087 0.80438 0.0
C460 C 0.49091 0.33002 0.82043 0.0
C461 C 0.46544 0.37115 0.80319 0.0
C462 C 0.49104 0.38202 0.78736 0.0
C463 C 0.43638 0.33178 0.83294 0.0
H464 H 0.14673 0.31381 0.78981 0.0
H465 H 0.1895 0.3464 0.7678 0.0
H466 H 0.2419 0.27388 0.76677 0.0
H467 H 0.19941 0.24169 0.78911 0.0
H468 H 0.53606 0.32878 0.80438 0.0
H469 H 0.49079 0.30962 0.83268 0.0
H470 H 0.44557 0.38284 0.80186 0.0
H471 H 0.49064 0.40185 0.77421 0.0
Tb472 Tb 0.08948 0.06432 0.51641 0.0
Eu473 Eu 0.09159 0.09544 0.5817 0.0
C474 C 0.15817 0.10607 0.54832 0.0
C475 C 0.09227 1.02082 0.57861 0.0
C476 C 0.0979 0.03726 0.43311 0.0
C477 C 0.11933 0.06855 0.39336 0.0
C478 C 0.11914 0.06229 0.42531 0.0
C479 C 0.07983 1.01684 0.40912 0.0
C480 C 0.07919 1.0236 0.37761 0.0
C481 C 0.09693 0.05071 0.36985 0.0
C482 C 0.089 0.0346 0.46487 0.0
O483 O 1.0373 0.05189 0.52199 0.0
O484 O 1.03915 0.06915 0.57327 0.0
O485 O 0.08907 0.13629 0.54907 0.0
O486 O 0.08821 0.1123 0.5007 0.0
C487 C 1.0226 0.05372 0.54746 0.0
O488 O 0.06777 0.11903 0.61459 0.0
O489 O 0.11649 0.11308 0.62824 0.0
O490 O 0.14471 0.10954 0.57421 0.0
O491 O 0.14061 0.08935 0.52356 0.0
O492 O 0.0903 1.02404 0.54728 0.0
O493 O 0.09518 0.04623 0.59685 0.0
C494 C 0.08925 0.1383 0.51779 0.0
O495 O 0.11179 0.03707 0.48879 0.0
O496 O 0.0665 0.04893 0.47083 0.0
C497 C 0.08386 0.10862 0.66754 0.0
C498 C 0.0896 0.0757 0.72116 0.0
C499 C 0.10505 0.10587 0.72242 0.0
C500 C 0.10212 0.12228 0.69576 0.0
C501 C 0.06525 0.07971 0.66735 0.0
C502 C 0.0678 0.06338 0.69435 0.0
C503 C 0.09135 0.12098 0.63771 0.0
H504 H 0.13376 0.08917 0.38754 0.0
H505 H 0.13341 0.07813 0.44379 0.0
H506 H 0.06364 0.99725 0.41491 0.0
H507 H 0.06225 1.00918 0.35971 0.0
H508 H 0.12176 0.11588 0.74309 0.0
H509 H 0.11671 0.14447 0.69622 0.0
H510 H 0.05104 0.06883 0.6456 0.0
H511 H 0.05509 0.04038 0.69329 0.0
Tb512 Tb 0.32821 0.79188 0.80402 0.0
Eu513 Eu 0.35632 0.85738 0.78398 0.0
C514 C 0.33847 0.84676 0.85573 0.0
C515 C 0.27818 0.82961 0.7675 0.0
C516 C 0.29568 0.71072 0.79999 0.0
C517 C 0.30625 0.66078 0.79144 0.0
C518 C 0.30499 0.68507 0.8121 0.0
C519 C 0.28284 0.71006 0.76774 0.0
C520 C 0.28337 0.6853 0.74708 0.0
C521 C 0.29792 0.6619 0.75856 0.0
C522 C 0.30779 0.73933 0.81869 0.0
O523 O 0.33486 0.78212 0.75429 0.0
O524 O 0.35711 0.82851 0.73957 0.0
O525 O 0.40236 0.84019 0.80068 0.0
O526 O 0.37989 0.80107 0.82731 0.0
C527 C 0.34585 0.79979 0.73282 0.0
O528 O 0.35512 0.89334 0.75183 0.0
O529 O 0.39149 0.899 0.79284 0.0
O530 O 0.35384 0.86431 0.83678 0.0
O531 O 0.32239 0.81988 0.84538 0.0
O532 O 0.28516 0.80329 0.77504 0.0
O533 O 0.30105 0.85396 0.7738 0.0
C534 C 0.4058 0.81978 0.82131 0.0
O535 O 0.33761 0.75021 0.81677 0.0
O536 O 0.29035 0.75994 0.81619 0.0
C537 C 0.36976 0.94076 0.77981 0.0
C538 C 0.35601 0.99356 0.80625 0.0
C539 C 0.38739 0.9923 0.80152 0.0
C540 C 0.39424 0.96592 0.78819 0.0
C541 C 0.33836 0.94225 0.78444 0.0
C542 C 0.33154 0.96856 0.79742 0.0
C543 C 0.37757 0.91206 0.76998 0.0
H544 H 0.31703 0.64262 0.80074 0.0
H545 H 0.31486 0.6852 0.83692 0.0
H546 H 0.2756 0.72975 0.75794 0.0
H547 H 0.27645 0.68624 0.72176 0.0
H548 H 0.40635 1.01157 0.80837 0.0
H549 H 0.41865 0.96483 0.78522 0.0
H550 H 0.31922 0.92288 0.77881 0.0
H551 H 0.30721 0.96929 0.80115 0.0
Tb552 Tb 0.60799 0.07076 0.07518 0.0
Eu553 Eu 0.5756 0.08779 1.00979 0.0
C554 C 0.59988 1.01929 1.01516 0.0
C555 C 0.64941 0.11377 0.0337 0.0
C556 C 0.64552 0.08077 0.15919 0.0
C557 C 0.6368 0.09554 0.21227 0.0
C558 C 0.63267 0.07376 0.18718 0.0
C559 C 0.66569 0.10867 0.15807 0.0
C560 C 0.66957 0.13067 0.18308 0.0
C561 C 0.65373 0.12453 0.20953 0.0
C562 C 0.63256 0.06135 0.13014 0.0
O563 O 0.59513 0.117 0.08857 0.0
O564 O 0.5765 0.13254 0.04082 0.0
O565 O 0.53432 0.06345 0.03159 0.0
O566 O 0.56287 0.03868 0.06661 0.0
C567 C 0.58483 0.139 0.07212 0.0
O568 O 0.57772 0.09391 0.95955 0.0
O569 O 0.53466 0.09827 0.97952 0.0
O570 O 0.58834 0.03968 0.99743 0.0
O571 O 0.60928 1.0275 0.04611 0.0
O572 O 0.64864 0.09184 0.0528 0.0
O573 O 0.62339 0.11867 1.01708 0.0
C574 C 0.53585 0.04165 0.0503 0.0
O575 O 0.60206 0.05968 0.12155 0.0
O576 O 0.64839 0.06457 0.10593 0.0
C577 C 0.52923 0.07224 0.92912 0.0
C578 C 0.51083 1.02147 0.88601 0.0
C579 C 0.50135 1.02059 0.91636 0.0
C580 C 0.51051 0.0459 0.93783 0.0
C581 C 0.53591 0.07394 0.89784 0.0
C582 C 0.52676 0.04875 0.87643 0.0
C583 C 0.54739 0.09497 0.95359 0.0
H584 H 0.62449 0.09057 0.23267 0.0
H585 H 0.61721 0.05231 0.18859 0.0
H586 H 0.67663 0.11413 0.13711 0.0
H587 H 0.68282 0.15297 0.18078 0.0
H588 H 0.48885 0.99986 0.9241 0.0
H589 H 0.50492 0.04421 0.96187 0.0
H590 H 0.55046 0.09394 0.89074 0.0
H591 H 0.53447 0.04989 0.85313 0.0
Tb592 Tb 0.35713 0.3583 0.31449 0.0
Eu593 Eu 0.32586 0.29874 0.27907 0.0
C594 C 0.35407 0.30035 0.35758 0.0
C595 C 0.40426 0.32874 0.27309 0.0
C596 C 0.34762 0.42663 0.35434 0.0
C597 C 0.29321 0.41849 0.36689 0.0
C598 C 0.32337 0.41067 0.36971 0.0
C599 C 0.34303 0.45359 0.34127 0.0
C600 C 0.31299 0.46158 0.33871 0.0
C601 C 0.28736 0.44279 0.3494 0.0
C602 C 0.37069 0.41055 0.3416 0.0
O603 O 0.34991 0.37036 0.26276 0.0
O604 O 0.31189 0.33115 0.24073 0.0
O605 O 0.2806 0.30828 0.29993 0.0
O606 O 0.30657 0.35098 0.32866 0.0
C607 C 0.32901 0.358 0.2376 0.0
O608 O 0.31024 0.26931 0.23528 0.0
O609 O 0.31042 0.25047 0.28069 0.0
O610 O 0.33545 0.28583 0.33208 0.0
O611 O 0.36903 0.3281 0.35371 0.0
O612 O 0.40188 0.3498 0.29522 0.0
O613 O 0.37849 0.30704 0.26503 0.0
C614 C 0.2799 0.33006 0.32164 0.0
O615 O 0.37718 0.38704 0.35558 0.0
O616 O 0.36436 0.40481 0.31102 0.0
C617 C 0.33163 0.22501 0.24241 0.0
C618 C 0.38659 0.19962 0.25097 0.0
C619 C 0.38522 0.22319 0.231 0.0
C620 C 0.35799 0.23603 0.22695 0.0
C621 C 0.33127 0.19837 0.25799 0.0
C622 C 0.35868 0.18578 0.26235 0.0
C623 C 0.30979 0.24494 0.25032 0.0
H624 H 0.27377 0.40398 0.37562 0.0
H625 H 0.32645 0.3901 0.3805 0.0
H626 H 0.3613 0.46629 0.32927 0.0
H627 H 0.3089 0.48059 0.32535 0.0
H628 H 0.40621 0.23352 0.22114 0.0
H629 H 0.35894 0.25636 0.21447 0.0
H630 H 0.31122 0.18937 0.26999 0.0
H631 H 0.3592 0.16727 0.27749 0.0
Tb632 Tb 0.58973 0.56469 1.01435 0.0
Eu633 Eu 0.59208 0.59495 0.08048 0.0
C634 C 0.65859 0.60478 0.04605 0.0
C635 C 0.59344 0.51985 0.07436 0.0
C636 C 0.58668 0.55136 0.92725 0.0
C637 C 0.56002 0.54769 0.87325 0.0
C638 C 0.56713 0.53439 0.90142 0.0
C639 C 0.60193 0.58087 0.92358 0.0
C640 C 0.59536 0.59403 0.89492 0.0
C641 C 0.57263 0.57804 0.87048 0.0
C642 C 0.58402 0.54055 0.95879 0.0
O643 O 0.53945 0.54778 0.02459 0.0
O644 O 0.53793 0.57517 0.0702 0.0
O645 O 0.589 0.63666 0.0495 0.0
O646 O 0.5876 0.61309 1.00083 0.0
C647 C 0.52307 0.55479 0.04742 0.0
O648 O 0.57061 0.61267 0.11969 0.0
O649 O 0.62164 0.61528 0.12392 0.0
O650 O 0.64523 0.60755 0.07214 0.0
O651 O 0.64091 0.5889 0.02091 0.0
O652 O 0.59732 0.52486 0.04409 0.0
O653 O 0.5907 0.54399 0.0923 0.0
C654 C 0.5889 0.63889 1.01825 0.0
O655 O 0.61003 0.54339 0.97911 0.0
O656 O 0.56082 0.54887 0.9716 0.0
C657 C 0.59927 0.60721 0.16996 0.0
C658 C 0.62422 0.58297 0.22468 0.0
C659 C 0.60421 0.56398 0.2004 0.0
C660 C 0.59194 0.5761 0.17289 0.0
C661 C 0.61605 0.62625 0.19582 0.0
C662 C 0.62853 0.61417 0.22308 0.0
C663 C 0.59772 0.61898 0.13851 0.0
H664 H 0.54277 0.53488 0.85442 0.0
H665 H 0.55503 0.51169 0.90397 0.0
H666 H 0.61689 0.59437 0.94351 0.0
H667 H 0.60579 0.61732 0.89285 0.0
H668 H 0.60059 0.53985 0.20152 0.0
H669 H 0.57924 0.56108 0.15295 0.0
H670 H 0.62214 0.65024 0.19378 0.0
H671 H 0.64375 0.62905 0.24183 0.0
Tb672 Tb 0.83007 0.30078 0.30135 0.0
Eu673 Eu 0.85604 0.36842 0.28481 0.0
C674 C 0.83638 0.35349 0.35388 0.0
C675 C 0.77776 0.33596 0.26581 0.0
C676 C 0.83159 0.2227 0.31677 0.0
C677 C 0.83797 0.17349 0.33274 0.0
C678 C 0.82059 0.19666 0.33129 0.0
C679 C 0.85959 0.22524 0.30292 0.0
C680 C 0.8769 0.20221 0.30425 0.0
C681 C 0.86748 0.17628 0.32059 0.0
C682 C 0.81425 0.24747 0.3162 0.0
O683 O 0.8376 0.29499 0.2513 0.0
O684 O 0.85909 0.34259 0.23913 0.0
O685 O 0.90232 0.35562 0.30962 0.0
O686 O 0.8832 0.30652 0.31791 0.0
C687 C 0.84828 0.31399 0.23081 0.0
O688 O 0.84406 0.41224 0.27823 0.0
O689 O 0.89213 0.40591 0.27411 0.0
O690 O 0.85523 0.3709 0.33783 0.0
O691 O 0.81866 0.32828 0.34055 0.0
O692 O 0.78377 0.3118 0.27994 0.0
O693 O 0.80136 0.35934 0.26547 0.0
C694 C 0.90736 0.33 0.32106 0.0
O695 O 0.82681 0.26997 0.33667 0.0
O696 O 0.80649 0.25644 0.28816 0.0
C697 C 0.88477 0.45169 0.29875 0.0
C698 C 0.88563 0.49546 0.34771 0.0
C699 C 0.87352 0.49954 0.31626 0.0
C700 C 0.87322 0.47786 0.29192 0.0
C701 C 0.90008 0.44903 0.32953 0.0
C702 C 0.90103 0.4712 0.35387 0.0
C703 C 0.87333 0.42522 0.27639 0.0
H704 H 0.82717 0.15369 0.34297 0.0
H705 H 0.79842 0.19413 0.34137 0.0
H706 H 0.86799 0.24502 0.2908 0.0
H707 H 0.89746 0.20489 0.29171 0.0
H708 H 0.86192 0.51835 0.31095 0.0
H709 H 0.86118 0.48021 0.2684 0.0
H710 H 0.90898 0.42884 0.33533 0.0
H711 H 0.91113 0.46807 0.3779 0.0
Tb712 Tb 0.10867 0.57148 0.5782 0.0
Eu713 Eu 0.07557 0.58739 0.51272 0.0
C714 C 0.10043 0.51921 0.51899 0.0
C715 C 0.14925 0.61252 0.53637 0.0
C716 C 0.14548 0.58623 0.6621 0.0
C717 C 0.13292 0.60946 0.71016 0.0
C718 C 0.12677 0.58583 0.68685 0.0
C719 C 0.17249 0.60921 0.66304 0.0
C720 C 0.17825 0.63338 0.68605 0.0
C721 C 0.15779 0.63394 0.70912 0.0
C722 C 0.13382 0.56495 0.63389 0.0
O723 O 0.09795 0.61905 0.58998 0.0
O724 O 0.07306 0.63148 0.54311 0.0
O725 O 1.03456 0.56181 0.53387 0.0
O726 O 0.06356 0.53944 0.57113 0.0
C727 C 0.08448 0.6395 0.57364 0.0
O728 O 0.07983 0.59428 0.46299 0.0
O729 O 1.03482 0.59572 0.48043 0.0
O730 O 0.08923 0.5396 0.50102 0.0
O731 O 0.10936 0.52744 0.55005 0.0
O732 O 0.14817 0.58867 0.55261 0.0
O733 O 0.1229 0.61933 0.52238 0.0
C734 C 1.03657 0.541 0.55379 0.0
O735 O 0.10314 0.5609 0.62478 0.0
O736 O 0.14969 0.56782 0.60967 0.0
C737 C 1.03353 0.56965 0.43051 0.0
C738 C 1.01842 0.51733 0.38942 0.0
C739 C 1.03812 0.54315 0.38111 0.0
C740 C 0.04554 0.56914 0.40143 0.0
C741 C 1.01141 0.54467 0.43749 0.0
C742 C 1.0037 0.51866 0.41688 0.0
C743 C 0.0492 0.59322 0.45543 0.0
H744 H 0.11712 0.60946 0.72809 0.0
H745 H 0.10622 0.56809 0.68713 0.0
H746 H 0.18835 0.6091 0.64532 0.0
H747 H 0.19783 0.65195 0.68522 0.0
H748 H 0.04943 0.54257 0.35977 0.0
H749 H 0.06262 0.58803 0.39558 0.0
H750 H 1.00167 0.54451 0.45976 0.0
H751 H 0.98802 0.49906 0.42334 0.0
Tb752 Tb 0.80381 0.82375 0.28523 0.0
Eu753 Eu 0.8785 0.82921 0.31257 0.0
C754 C 0.85374 0.87837 0.26838 0.0
C755 C 0.84988 0.7983 0.23781 0.0
C756 C 0.71711 0.80778 0.2826 0.0
C757 C 0.66064 0.78755 0.27971 0.0
C758 C 0.68688 0.79878 0.26467 0.0
C759 C 0.72111 0.80512 0.31558 0.0
C760 C 0.69491 0.7941 0.33063 0.0
C761 C 0.66457 0.78539 0.31277 0.0
C762 C 0.74484 0.81808 0.26675 0.0
O763 O 0.80397 0.78373 0.31121 0.0
O764 O 0.85694 0.78622 0.33083 0.0
O765 O 0.85822 0.84611 0.35683 0.0
O766 O 0.80746 0.84813 0.3342 0.0
C767 C 0.82702 0.77278 0.32694 0.0
O768 O 0.92385 0.81365 0.316 0.0
O769 O 0.92073 0.8548 0.34214 0.0
O770 O 0.8755 0.87214 0.29003 0.0
O771 O 0.82567 0.86117 0.26066 0.0
O772 O 0.82117 0.80255 0.24338 0.0
O773 O 0.87476 0.80736 0.26055 0.0
C774 C 0.83029 0.85376 0.35949 0.0
O775 O 0.76306 0.84332 0.27864 0.0
O776 O 0.7614 0.79757 0.26144 0.0
C777 C 0.9681 0.85412 0.32095 0.0
C778 C 1.02131 0.88749 0.29866 0.0
C779 C 1.01544 0.89351 0.32978 0.0
C780 C 0.9891 0.8767 0.34095 0.0
C781 C 0.9736 0.84875 0.2895 0.0
C782 C 1.00016 0.86525 0.27852 0.0
C783 C 0.93958 0.8379 0.33265 0.0
H784 H 0.63725 0.78087 0.26574 0.0
H785 H 0.68364 0.80033 0.23912 0.0
H786 H 0.7445 0.81149 0.32963 0.0
H787 H 0.69819 0.79251 0.35617 0.0
H788 H 1.03162 0.91069 0.34551 0.0
H789 H 0.98498 0.88142 0.36514 0.0
H790 H 0.95744 0.83189 0.27338 0.0
H791 H 1.00443 0.8605 0.25438 0.0
Tb792 Tb 0.87507 0.34901 0.80644 0.0
Eu793 Eu 0.81411 0.29692 0.77551 0.0
C794 C 0.81061 0.36833 0.77992 0.0
C795 C 0.82937 0.31088 0.85098 0.0
C796 C 0.9406 0.41663 0.83366 0.0
C797 C 0.96553 0.46018 0.80885 0.0
C798 C 0.94879 0.4306 0.80626 0.0
C799 C 0.94917 0.43266 0.86351 0.0
C800 C 0.96555 0.4623 0.86601 0.0
C801 C 0.97405 0.47607 0.83875 0.0
C802 C 0.92462 0.38506 0.83224 0.0
O803 O 0.89038 0.30835 0.79086 0.0
O804 O 0.85019 0.27412 0.80353 0.0
O805 O 0.84345 0.31109 0.73611 0.0
O806 O 0.86788 0.35848 0.75634 0.0
C807 C 0.88076 0.28286 0.80284 0.0
O808 O 0.79746 0.25626 0.74435 0.0
O809 O 0.76309 0.27776 0.76544 0.0
O810 O 0.79921 0.34126 0.76626 0.0
O811 O 0.83734 0.37502 0.79979 0.0
O812 O 0.85803 0.32486 0.84674 0.0
O813 O 0.80641 0.30282 0.8269 0.0
C814 C 0.85736 0.33864 0.73198 0.0
O815 O 0.89811 0.37956 0.84456 0.0
O816 O 0.92315 0.36858 0.80593 0.0
C817 C 0.74914 0.22525 0.75302 0.0
C818 C 0.71331 0.16788 0.75811 0.0
C819 C 0.74614 0.17444 0.76941 0.0
C820 C 0.76397 0.20302 0.76701 0.0
C821 C 0.71626 0.21876 0.74214 0.0
C822 C 0.6984 0.19029 0.74481 0.0
C823 C 0.76756 0.25483 0.7481 0.0
H824 H 0.97181 0.47073 0.7876 0.0
H825 H 0.9425 0.41869 0.78297 0.0
H826 H 0.94328 0.42217 0.88493 0.0
H827 H 0.97163 0.47448 0.88916 0.0
H828 H 0.75794 0.15737 0.77984 0.0
H829 H 0.78932 0.20761 0.77567 0.0
H830 H 0.70448 0.23564 0.73124 0.0
H831 H 0.67306 0.18559 0.73615 0.0
Tb832 Tb 0.85712 0.85811 0.81447 0.0
Eu833 Eu 0.8267 0.79766 0.77965 0.0
C834 C 0.85623 0.80039 0.85815 0.0
C835 C 0.90462 0.82883 0.7734 0.0
C836 C 0.84635 0.92815 0.84881 0.0
C837 C 0.79503 0.92618 0.86795 0.0
C838 C 0.82454 0.9171 0.86951 0.0
C839 C 0.83972 0.95117 0.82953 0.0
C840 C 0.81011 0.9599 0.82766 0.0
C841 C 0.78694 0.94621 0.84552 0.0
C842 C 0.87038 0.9107 0.84047 0.0
O843 O 0.84778 0.86979 0.76292 0.0
O844 O 0.8118 0.82903 0.74059 0.0
O845 O 0.78141 0.80725 0.8006 0.0
O846 O 0.80614 0.85153 0.82717 0.0
C847 C 0.82779 0.85646 0.73755 0.0
O848 O 0.82298 0.76634 0.73787 0.0
O849 O 0.8025 0.75071 0.77876 0.0
O850 O 0.83998 0.78463 0.83215 0.0
O851 O 0.86873 0.82899 0.85477 0.0
O852 O 0.90235 0.84913 0.79637 0.0
O853 O 0.87867 0.80762 0.7646 0.0
C854 C 0.78005 0.82982 0.82118 0.0
O855 O 0.8733 0.88713 0.85602 0.0
O856 O 0.86884 0.90449 0.81014 0.0
C857 C 0.83727 0.72336 0.75836 0.0
C858 C 0.88814 0.6922 0.76712 0.0
C859 C 0.86143 0.68108 0.74406 0.0
C860 C 0.836 0.6968 0.73956 0.0
C861 C 0.86367 0.73362 0.78163 0.0
C862 C 0.88857 0.71812 0.78624 0.0
C863 C 0.81371 0.743 0.75324 0.0
H864 H 0.77759 0.91583 0.88235 0.0
H865 H 0.82905 0.89959 0.88493 0.0
H866 H 0.8561 0.9602 0.81347 0.0
H867 H 0.80447 0.97581 0.81061 0.0
H868 H 0.86066 0.66083 0.72927 0.0
H869 H 0.81596 0.68869 0.72118 0.0
H870 H 0.86569 0.75455 0.79549 0.0
H871 H 0.90887 0.72702 0.80414 0.0
Tb872 Tb 0.55261 0.56017 0.51284 0.0
Eu873 Eu 0.61652 0.58069 0.56742 0.0
C874 C 0.62048 0.5683 0.49378 0.0
C875 C 0.58561 0.51333 0.54802 0.0
C876 C 0.48077 0.57519 0.47128 0.0
C877 C 0.47503 0.62761 0.47356 0.0
C878 C 0.49316 0.60575 0.4684 0.0
C879 C 0.44922 0.56692 0.47768 0.0
C880 C 0.43109 0.58889 0.4829 0.0
C881 C 0.4443 0.61939 0.4818 0.0
C882 C 0.5024 0.55326 0.47404 0.0
O883 O 0.53708 0.58047 0.55364 0.0
O884 O 0.5741 0.57022 0.59342 0.0
O885 O 0.59735 0.62318 0.56189 0.0
O886 O 0.57046 0.60804 0.5115 0.0
C887 C 0.54584 0.57587 0.58337 0.0
O888 O 0.6429 0.57002 0.61147 0.0
O889 O 0.66507 0.60492 0.58403 0.0
O890 O 0.63074 0.58689 0.51898 0.0
O891 O 0.59231 0.55052 0.48979 0.0
O892 O 0.55777 0.52004 0.538 0.0
O893 O 0.61179 0.53313 0.54886 0.0
C894 C 0.58173 0.62875 0.53486 0.0
O895 O 0.53073 0.56197 0.46593 0.0
O896 O 0.50401 0.54041 0.50085 0.0
C897 C 0.69377 0.56756 0.5998 0.0
C898 C 0.73384 0.52681 0.58875 0.0
C899 C 0.73798 0.54337 0.61833 0.0
C900 C 0.71774 0.56348 0.62396 0.0
C901 C 0.6902 0.55131 0.5702 0.0
C902 C 0.70969 0.53085 0.56489 0.0
C903 C 0.66974 0.58573 0.60533 0.0
H904 H 0.4854 0.65103 0.47234 0.0
H905 H 0.51748 0.61308 0.46386 0.0
H906 H 0.43927 0.54366 0.48048 0.0
H907 H 0.40734 0.58223 0.48927 0.0
H908 H 0.75659 0.54049 0.63702 0.0
H909 H 0.72053 0.57547 0.64709 0.0
H910 H 0.67187 0.55409 0.55125 0.0
H911 H 0.70616 0.51827 0.54203 0.0
Tb912 Tb 0.07341 0.55787 0.02392 0.0
Eu913 Eu 0.11174 0.60258 0.08343 0.0
C914 C 0.07626 0.5357 0.09396 0.0
C915 C 1.03666 0.60983 0.05318 0.0
C916 C 0.04101 0.4902 0.97051 0.0
C917 C 0.04717 0.44107 0.98719 0.0
C918 C 0.04927 0.47164 0.99446 0.0
C919 C 1.03086 0.47798 0.9392 0.0
C920 C 1.02884 0.44733 0.93186 0.0
C921 C 1.03703 0.42881 0.95587 0.0
C922 C 0.04358 0.52235 0.97808 0.0
O923 O 0.09043 0.59855 1.00157 0.0
O924 O 0.12059 0.63042 0.04249 0.0
O925 O 0.14843 0.57193 0.07321 0.0
O926 O 0.12098 0.54171 0.03023 0.0
C927 C 0.10854 0.62424 1.01265 0.0
O928 O 0.15714 0.62595 0.10921 0.0
O929 O 0.11342 0.62885 0.12832 0.0
O930 O 0.08866 0.56275 0.10654 0.0
O931 O 0.07001 0.52906 0.06322 0.0
O932 O 1.03585 0.58514 0.03436 0.0
O933 O 0.06361 0.62062 0.07284 0.0
C934 C 0.14753 0.54961 0.05139 0.0
O935 O 1.03112 0.52938 1.00313 0.0
O936 O 0.07173 0.53875 0.97761 0.0
C937 C 0.1539 0.67204 0.13473 0.0
C938 C 0.16812 0.73488 0.1421 0.0
C939 C 0.17035 0.72006 0.11306 0.0
C940 C 0.16308 0.68881 0.10931 0.0
C941 C 0.15273 0.68689 0.16407 0.0
C942 C 0.15987 0.71818 0.16777 0.0
C943 C 0.144 0.63929 0.13033 0.0
H944 H 0.05377 0.427 1.00586 0.0
H945 H 0.05748 0.4808 1.01872 0.0
H946 H 1.02478 0.4922 0.92051 0.0
H947 H 1.02121 0.4381 0.90754 0.0
H948 H 0.17659 0.73274 0.09305 0.0
H949 H 0.16391 0.67782 0.08633 0.0
H950 H 0.1456 0.67429 0.18383 0.0
H951 H 0.15806 0.72941 0.19034 0.0
C952 C 0.04717 0.1938 1.01398 0.0
C953 C 0.06921 0.2056 0.99372 0.0
C954 C 0.11016 0.18271 0.02348 0.0
C955 C 0.0858 0.1648 0.0373 0.0
N956 N 1.03151 0.15448 0.04834 0.0
N957 N 0.1229 0.21337 0.98008 0.0
C958 C 0.05456 0.17125 0.03395 0.0
C959 C 0.1014 0.20142 0.99928 0.0
N960 N 1.01937 0.20432 1.01408 0.0
N961 N 0.14131 0.18078 0.03256 0.0
H962 H 0.11756 0.22714 0.9621 0.0
H963 H 0.14564 0.20838 0.98071 0.0
H964 H 0.14804 0.16691 0.05003 0.0
H965 H 0.16053 0.19486 0.02515 0.0
H966 H 1.00357 0.19854 0.0304 0.0
H967 H 1.01376 0.22125 0.99983 0.0
H968 H 1.00746 0.15583 0.04408 0.0
H969 H 1.03652 0.13819 0.06362 0.0
C970 C 0.28212 0.9307 0.24059 0.0
C971 C 0.25308 0.92863 0.25322 0.0
C972 C 0.27308 0.90081 0.29676 0.0
C973 C 0.29812 0.89622 0.27957 0.0
N974 N 0.33011 0.91041 0.23794 0.0
N975 N 0.22925 0.92715 0.30128 0.0
C976 C 0.30434 0.91299 0.25283 0.0
C977 C 0.25134 0.91875 0.28415 0.0
N978 N 0.28875 0.95037 0.21798 0.0
N979 N 0.26932 0.88678 0.32416 0.0
H980 H 0.21479 0.942 0.29273 0.0
H981 H 0.22752 0.92219 0.32473 0.0
H982 H 0.286 0.87484 0.33466 0.0
H983 H 0.24949 0.88626 0.33597 0.0
H984 H 0.31067 0.95483 0.20956 0.0
H985 H 0.27367 0.96514 0.21089 0.0
H986 H 0.33347 0.91861 0.2159 0.0
H987 H 0.34779 0.8991 0.2472 0.0
C988 C 0.49184 0.84811 0.416 0.0
C989 C 0.49474 0.83061 0.44255 0.0
C990 C 0.49713 0.87482 0.47836 0.0
C991 C 0.50092 0.89301 0.45232 0.0
N992 N 0.50355 0.89735 0.39621 0.0
N993 N 0.50011 0.82649 0.49925 0.0
C994 C 0.49818 0.87978 0.42095 0.0
C995 C 0.49673 0.84357 0.47385 0.0
N996 N 0.48295 0.83425 0.3861 0.0
N997 N 0.49378 0.8875 0.50724 0.0
H998 H 0.49918 0.80339 0.49674 0.0
H999 H 0.50558 0.8354 0.52276 0.0
H1000 H 0.49381 0.91035 0.51113 0.0
H1001 H 0.48807 0.87508 0.52639 0.0
H1002 H 0.47782 0.84564 0.36595 0.0
H1003 H 0.47752 0.81092 0.382 0.0
H1004 H 0.50543 0.88881 0.3735 0.0
H1005 H 0.50852 0.9207 0.39884 0.0
C1006 C 0.55863 0.38034 0.71512 0.0
C1007 C 0.58989 0.39322 0.72992 0.0
C1008 C 0.57159 0.39274 0.7821 0.0
C1009 C 0.54154 0.37634 0.76764 0.0
N1010 N 0.50699 0.35118 0.72112 0.0
N1011 N 0.62759 0.40852 0.77771 0.0
C1012 C 0.53512 0.36928 0.7343 0.0
C1013 C 0.59679 0.39888 0.76348 0.0
N1014 N 0.55124 0.3795 0.68276 0.0
N1015 N 0.57583 0.4028 0.81348 0.0
H1016 H 0.64682 0.41322 0.76499 0.0
H1017 H 0.63447 0.40961 0.80221 0.0
H1018 H 0.55793 0.39829 0.82796 0.0
H1019 H 0.59611 0.41765 0.82447 0.0
H1020 H 0.52806 0.37321 0.67085 0.0
H1021 H 0.56783 0.38788 0.66795 0.0
H1022 H 0.50251 0.34256 0.6975 0.0
H1023 H 0.48898 0.34269 0.73436 0.0
C1024 C 0.09955 0.933 0.59128 0.0
C1025 C 0.08621 0.92535 0.62011 0.0
C1026 C 0.07443 0.9791 0.62031 0.0
C1027 C 0.09058 0.98776 0.59329 0.0
N1028 N 0.12428 0.97096 0.55798 0.0
N1029 N 0.06456 0.94625 0.66373 0.0
C1030 C 0.10435 0.96387 0.58016 0.0
C1031 C 0.07514 0.95014 0.63501 0.0
N1032 N 0.10826 0.91059 0.57395 0.0
N1033 N 0.05593 0.99774 0.63107 0.0
H1034 H 0.06157 0.9257 0.67393 0.0
H1035 H 0.06072 0.96389 0.67837 0.0
H1036 H 0.05289 1.01744 0.62056 0.0
H1037 H 0.04063 0.99206 0.64785 0.0
H1038 H 0.11387 0.91269 0.55094 0.0
H1039 H 0.10766 0.8891 0.5817 0.0
H1040 H 0.13815 0.95652 0.54976 0.0
H1041 H 0.12987 0.99254 0.55044 0.0
C1042 C 0.48695 0.79441 0.85444 0.0
C1043 C 0.50475 0.82033 0.87364 0.0
C1044 C 0.45669 0.84442 0.8609 0.0
C1045 C 0.43981 0.81943 0.83981 0.0
N1046 N 0.44191 0.77185 0.81395 0.0
N1047 N 0.50706 0.87219 0.88997 0.0
C1048 C 0.45588 0.79477 0.83607 0.0
C1049 C 0.48955 0.8458 0.87545 0.0
N1050 N 0.49917 0.7687 0.85467 0.0
N1051 N 0.44083 0.8667 0.86826 0.0
H1052 H 0.53073 0.87438 0.90048 0.0
H1053 H 0.49928 0.89257 0.889 0.0
H1054 H 0.4173 0.86666 0.85852 0.0
H1055 H 0.44983 0.88371 0.88611 0.0
H1056 H 0.48647 0.74802 0.84448 0.0
H1057 H 0.52127 0.76751 0.86739 0.0
H1058 H 0.45333 0.75483 0.80694 0.0
H1059 H 0.41958 0.77113 0.80069 0.0
C1060 C 0.5598 0.22108 0.0877 0.0
C1061 C 0.57905 0.23524 0.11679 0.0
C1062 C 0.60338 0.18729 0.11643 0.0
C1063 C 0.58228 0.17195 0.08873 0.0
N1064 N 0.53394 0.17529 0.05457 0.0
N1065 N 0.61677 0.22616 0.16066 0.0
C1066 C 0.55904 0.1895 0.07622 0.0
C1067 C 0.59981 0.21643 0.13148 0.0
N1068 N 0.54127 0.23767 0.07047 0.0
N1069 N 0.6286 0.17492 0.12824 0.0
H1070 H 0.61724 0.24713 0.17174 0.0
H1071 H 0.62878 0.21266 0.175 0.0
H1072 H 0.63128 0.1536 0.12097 0.0
H1073 H 0.64796 0.18651 0.14406 0.0
H1074 H 0.53023 0.2311 0.04729 0.0
H1075 H 0.53876 0.25901 0.07846 0.0
H1076 H 0.51435 0.18487 0.04678 0.0
H1077 H 0.53043 0.15253 0.04759 0.0
C1078 C 0.1888 0.31888 0.3416 0.0
C1079 C 0.19111 0.33027 0.37443 0.0
C1080 C 0.25136 0.33823 0.37332 0.0
C1081 C 0.24897 0.33061 0.33965 0.0
N1082 N 0.21156 0.31969 0.29151 0.0
N1083 N 0.22852 0.35849 0.41739 0.0
C1084 C 0.21652 0.32266 0.32395 0.0
C1085 C 0.22356 0.34205 0.3889 0.0
N1086 N 0.16028 0.30272 0.32704 0.0
N1087 N 0.28026 0.34029 0.39154 0.0
H1088 H 0.20997 0.36363 0.42879 0.0
H1089 H 0.25099 0.37017 0.42759 0.0
H1090 H 0.30023 0.33593 0.38208 0.0
H1091 H 0.28336 0.34269 0.41633 0.0
H1092 H 0.15762 0.29121 0.30477 0.0
H1093 H 0.14023 0.29769 0.33853 0.0
H1094 H 0.189 0.31727 0.27824 0.0
H1095 H 0.23023 0.32309 0.27788 0.0
C1096 C 0.99468 0.08699 0.14203 0.0
C1097 C 0.98884 0.05979 0.15711 0.0
C1098 C 1.0327 0.04333 0.13435 0.0
C1099 C 0.04084 0.072 0.12269 0.0
N1100 N 1.03501 0.12374 0.12354 0.0
N1101 N 1.00997 1.01638 0.17574 0.0
C1102 C 1.02339 0.09467 0.1289 0.0
C1103 C 1.00983 0.03898 0.15557 0.0
N1104 N 0.97273 0.10533 0.13999 0.0
N1105 N 0.04584 1.01987 0.1247 0.0
H1106 H 0.99576 1.01302 0.19376 0.0
H1107 H 1.02727 1.00295 0.17714 0.0
H1108 H 0.06296 1.02172 0.10935 0.0
H1109 H 1.03741 0.99787 0.12984 0.0
H1110 H 0.97481 0.12422 0.12683 0.0
H1111 H 0.95091 0.09987 0.14866 0.0
H1112 H 1.02438 0.14156 0.12998 0.0
H1113 H 0.05727 0.13029 0.11604 0.0
C1114 C 0.35554 0.78696 0.43834 0.0
C1115 C 0.3255 0.77922 0.44955 0.0
C1116 C 0.29892 0.7941 0.39924 0.0
C1117 C 0.32843 0.79881 0.38679 0.0
N1118 N 0.38443 0.79585 0.3932 0.0
N1119 N 0.26815 0.77349 0.43995 0.0
C1120 C 0.35671 0.79459 0.40616 0.0
C1121 C 0.29708 0.78219 0.42971 0.0
N1122 N 0.38309 0.78645 0.4582 0.0
N1123 N 0.27292 0.80241 0.38258 0.0
H1124 H 0.26581 0.76714 0.46294 0.0
H1125 H 0.2464 0.77115 0.42524 0.0
H1126 H 0.27357 0.81189 0.36072 0.0
H1127 H 0.25155 0.80258 0.39158 0.0
H1128 H 0.40574 0.79567 0.45313 0.0
H1129 H 0.38354 0.77858 0.48084 0.0
H1130 H 0.40492 0.78973 0.40468 0.0
H1131 H 0.38644 0.80035 0.36969 0.0
C1132 C 0.54359 0.99471 0.665 0.0
C1133 C 0.56937 0.97989 0.67374 0.0
C1134 C 0.59024 0.99111 0.62423 0.0
C1135 C 0.56785 1.0103 0.61785 0.0
N1136 N 0.51838 1.02463 0.62676 0.0
N1137 N 0.60403 0.94983 0.65374 0.0
C1138 C 0.54261 1.00993 0.63639 0.0
C1139 C 0.58831 0.97326 0.65063 0.0
N1140 N 0.52056 0.99415 0.68443 0.0
N1141 N 0.61484 0.99167 0.60682 0.0
H1142 H 0.60052 0.93498 0.67152 0.0
H1143 H 0.61665 0.94275 0.6364 0.0
H1144 H 0.61746 1.00486 0.58768 0.0
H1145 H 0.63388 0.9808 0.61287 0.0
H1146 H 0.50171 1.0056 0.68106 0.0
H1147 H 0.51996 0.98085 0.70383 0.0
H1148 H 0.49909 1.0257 0.63892 0.0
H1149 H 0.51699 0.03506 0.60537 0.0
C1150 C 0.30397 0.41081 0.92583 0.0
C1151 C 0.32166 0.40465 0.95514 0.0
C1152 C 0.34146 0.36615 0.92152 0.0
C1153 C 0.32671 0.37471 0.89189 0.0
N1154 N 0.29782 0.41037 0.86767 0.0
N1155 N 0.36284 0.37914 0.97759 0.0
C1156 C 0.30895 0.39839 0.89476 0.0
C1157 C 0.34176 0.38293 0.95189 0.0
N1158 N 0.28094 0.42768 0.92744 0.0
N1159 N 0.35427 0.34079 0.92115 0.0
H1160 H 0.36487 0.39113 0.99949 0.0
H1161 H 0.38065 0.36656 0.97625 0.0
H1162 H 0.35372 0.32747 0.90036 0.0
H1163 H 0.36218 0.33118 0.94174 0.0
H1164 H 0.26473 0.43042 0.90788 0.0
H1165 H 0.27576 0.4363 0.94891 0.0
H1166 H 0.28811 0.42976 0.86777 0.0
H1167 H 0.30116 0.4027 0.84508 0.0
C1168 C 0.06029 0.03974 0.28654 0.0
C1169 C 1.03712 0.05799 0.28815 0.0
C1170 C 0.0649 0.08266 0.33868 0.0
C1171 C 0.08605 0.06194 0.33902 0.0
N1172 N 0.11128 0.0288 0.30997 0.0
N1173 N 1.02338 0.10355 0.30865 0.0
C1174 C 0.08651 0.04358 0.31132 0.0
C1175 C 0.04171 0.08195 0.31172 0.0
N1176 N 0.05632 1.01802 0.26227 0.0
N1177 N 0.06468 0.10089 0.36515 0.0
H1178 H 1.00554 0.10321 0.28949 0.0
H1179 H 1.02776 0.12322 0.32343 0.0
H1180 H 0.08219 0.10392 0.38488 0.0
H1181 H 0.04635 0.11247 0.36808 0.0
H1182 H 0.07069 1.002 0.26128 0.0
H1183 H 1.03766 1.01548 0.24346 0.0
H1184 H 0.11427 1.01606 0.28998 0.0
H1185 H 0.13031 0.0316 0.32848 0.0
C1186 C 0.31077 0.76432 0.64852 0.0
C1187 C 0.33815 0.76911 0.63246 0.0
C1188 C 0.37128 0.78918 0.68363 0.0
C1189 C 0.34343 0.78746 0.69878 0.0
N1190 N 0.28582 0.778 0.69357 0.0
N1191 N 0.3941 0.78992 0.63411 0.0
C1192 C 0.31297 0.77615 0.68067 0.0
C1193 C 0.36836 0.78244 0.64993 0.0
N1194 N 0.28275 0.74734 0.63355 0.0
N1195 N 0.40066 0.79641 0.70167 0.0
H1196 H 0.39286 0.7858 0.60958 0.0
H1197 H 0.41592 0.80256 0.64472 0.0
H1198 H 0.40363 0.80114 0.72626 0.0
H1199 H 0.42189 0.79503 0.69285 0.0
H1200 H 0.26319 0.73999 0.64523 0.0
H1201 H 0.27991 0.7381 0.61022 0.0
H1202 H 0.26311 0.77366 0.68039 0.0
H1203 H 0.28608 0.7865 0.71676 0.0
C1204 C 0.54619 0.96081 0.85293 0.0
C1205 C 0.53861 0.96639 0.82074 0.0
C1206 C 0.49658 0.99238 0.83339 0.0
C1207 C 0.50986 0.99371 0.86577 0.0
N1208 N 0.53894 0.97329 0.90796 0.0
N1209 N 0.50148 0.97641 0.77855 0.0
C1210 C 0.53136 0.97484 0.87605 0.0
C1211 C 0.51115 0.97791 0.81049 0.0
N1212 N 0.56916 0.94427 0.86088 0.0
N1213 N 0.47242 1.00744 0.82507 0.0
H1214 H 0.48153 0.98397 0.76789 0.0
H1215 H 0.48153 0.98397 0.76789 0.0
H1216 H 0.46154 1.01732 0.84232 0.0
H1217 H 0.46331 1.01037 0.80181 0.0
H1218 H 0.57709 0.93953 0.8839 0.0
H1219 H 0.57959 0.93417 0.84343 0.0
H1220 H 0.55497 0.96078 0.91858 0.0
H1221 H 0.55497 0.96078 0.91858 0.0
C1222 C 0.29511 0.39423 0.1582 0.0
C1223 C 0.32303 0.4052 0.14354 0.0
C1224 C 0.35369 0.38232 0.18833 0.0
C1225 C 0.32648 0.374 0.20472 0.0
N1226 N 0.27121 0.37626 0.20506 0.0
N1227 N 0.38033 0.4116 0.14912 0.0
C1228 C 0.29719 0.38099 0.18927 0.0
C1229 C 0.3526 0.39993 0.16023 0.0
N1230 N 0.26602 0.39647 0.14241 0.0
N1231 N 0.38052 0.37138 0.19823 0.0
H1232 H 0.38086 0.42234 0.128 0.0
H1233 H 0.40284 0.41238 0.16193 0.0
H1234 H 0.38168 0.35739 0.21691 0.0
H1235 H 0.4001 0.37322 0.18586 0.0
H1236 H 0.24441 0.38602 0.14894 0.0
H1237 H 0.26348 0.40728 0.12138 0.0
H1238 H 0.25012 0.38375 0.19785 0.0
H1239 H 0.27171 0.36695 0.22706 0.0
C1240 C 0.28938 0.98435 0.05231 0.0
C1241 C 0.30644 0.97124 0.07699 0.0
C1242 C 0.28979 1.00353 0.11707 0.0
C1243 C 0.27079 1.01499 0.09253 0.0
N1244 N 0.24841 1.01322 0.0372 0.0
N1245 N 0.31937 0.96472 0.13282 0.0
C1246 C 0.26941 1.0045 0.06024 0.0
C1247 C 0.30568 0.97984 0.10939 0.0
N1248 N 0.29351 0.97879 0.02135 0.0
N1249 N 0.29347 1.016 0.14756 0.0
H1250 H 0.33125 0.94729 0.12818 0.0
H1251 H 0.31678 0.96772 0.15668 0.0
H1252 H 0.28224 0.03341 0.15402 0.0
H1253 H 0.30961 1.01091 0.16598 0.0
H1254 H 0.28473 0.9904 1.00269 0.0
H1255 H 0.30805 0.96433 1.01446 0.0
H1256 H 0.24345 1.00352 1.01397 0.0
H1257 H 0.23394 1.02854 0.04177 0.0
C1258 C 0.736 0.65298 1.01788 0.0
C1259 C 0.76117 0.65237 0.04341 0.0
C1260 C 0.71998 0.61783 0.06885 0.0
C1261 C 0.69426 0.62076 0.04481 0.0
N1262 N 0.67892 0.64714 0.99918 0.0
N1263 N 0.77367 0.63771 0.09662 0.0
C1264 C 0.70278 0.63993 0.02008 0.0
C1265 C 0.75207 0.63559 0.06969 0.0
N1266 N 0.74386 0.66503 0.99045 0.0
N1267 N 0.71424 0.59697 0.09055 0.0
H1268 H 0.7966 0.65062 0.09875 0.0
H1269 H 0.76785 0.62921 0.1179 0.0
H1270 H 0.69191 0.58336 0.09054 0.0
H1271 H 0.7322 0.59103 0.10645 0.0
H1272 H 0.72772 0.6633 0.96965 0.0
H1273 H 0.76727 0.67405 0.98741 0.0
H1274 H 0.6828 0.66366 0.98318 0.0
H1275 H 0.65481 0.63884 0.99994 0.0
C1276 C 0.87015 0.56621 0.38443 0.0
C1277 C 0.84096 0.55435 0.39521 0.0
C1278 C 0.85152 0.50358 0.38963 0.0
C1279 C 0.87768 0.51482 0.37347 0.0
N1280 N 0.91818 0.55622 0.36467 0.0
N1281 N 0.80807 0.51268 0.41599 0.0
C1282 C 0.88936 0.54614 0.37445 0.0
C1283 C 0.8336 0.52371 0.40126 0.0
N1284 N 0.87815 0.59645 0.382 0.0
N1285 N 0.84214 0.4735 0.39217 0.0
H1286 H 0.7936 0.52601 0.42531 0.0
H1287 H 0.7936 0.52601 0.42531 0.0
H1288 H 0.85416 0.45742 0.38402 0.0
H1289 H 0.82243 0.4647 0.40314 0.0
H1290 H 0.89748 0.60682 0.37154 0.0
H1291 H 0.86475 0.6113 0.39051 0.0
H1292 H 0.92921 0.57868 0.36585 0.0
H1293 H 0.93213 0.54142 0.35728 0.0
C1294 C 0.96945 0.48745 0.58416 0.0
C1295 C 0.95455 0.4705 0.55552 0.0
C1296 C 0.9958 0.49719 0.52689 0.0
C1297 C 1.00834 0.51673 0.55456 0.0
N1298 N 1.00527 0.53249 0.60884 0.0
N1299 N 0.95084 0.46176 0.49858 0.0
C1300 C 0.9948 0.51228 0.58312 0.0
C1301 C 0.96712 0.47585 0.52663 0.0
N1302 N 0.95981 0.47926 0.61246 0.0
N1303 N 1.01185 0.49821 0.50111 0.0
H1304 H 0.92988 0.44576 0.4972 0.0
H1305 H 0.95671 0.46763 0.47637 0.0
H1306 H 1.03249 0.51381 0.49987 0.0
H1307 H 1.0062 0.48201 0.48205 0.0
H1308 H 0.97167 0.48874 0.63452 0.0
H1309 H 0.94162 0.46095 0.61402 0.0
H1310 H 0.99412 0.53237 0.62919 0.0
H1311 H 1.02363 0.55101 0.60889 0.0
C1312 C 0.45504 0.1917 0.3138 0.0
C1313 C 0.47652 0.18149 0.29509 0.0
C1314 C 0.43827 0.18155 0.24689 0.0
C1315 C 0.4181 0.19394 0.26547 0.0
N1316 N 0.41278 0.21986 0.31493 0.0
N1317 N 0.49205 0.17409 0.24305 0.0
C1318 C 0.42818 0.20181 0.29843 0.0
C1319 C 0.46916 0.17855 0.26134 0.0
N1320 N 0.459 0.19019 0.3461 0.0
N1321 N 0.42766 0.17193 0.21577 0.0
H1322 H 0.51539 0.1732 0.25271 0.0
H1323 H 0.4889 0.17455 0.21837 0.0
H1324 H 0.40514 0.17378 0.20452 0.0
H1325 H 0.4401 0.1599 0.202 0.0
H1326 H 0.44198 0.1946 0.36014 0.0
H1327 H 0.47731 0.18143 0.35855 0.0
H1328 H 0.42129 0.22861 0.3382 0.0
H1329 H 0.39377 0.22892 0.3043 0.0
C1330 C 0.45718 0.14323 0.5233 0.0
C1331 C 0.44825 0.15721 0.55116 0.0
C1332 C 0.49468 0.13743 0.58179 0.0
C1333 C 0.5051 0.12553 0.55369 0.0
N1334 N 0.4974 0.12385 0.49651 0.0
N1335 N 0.46365 0.16954 0.6074 0.0
C1336 C 0.4863 0.13015 0.52428 0.0
C1337 C 0.46881 0.15496 0.58031 0.0
N1338 N 0.43784 0.14252 0.49506 0.0
N1339 N 0.50819 0.13038 0.61064 0.0
H1340 H 0.44421 0.18009 0.60842 0.0
H1341 H 0.47972 0.17283 0.62836 0.0
H1342 H 0.52573 0.11725 0.61301 0.0
H1343 H 0.49984 0.13478 0.63197 0.0
H1344 H 0.43963 0.1294 0.47487 0.0
H1345 H 0.41863 0.15364 0.49227 0.0
H1346 H 0.4879 0.1298 0.47445 0.0
H1347 H 0.51836 0.11558 0.49579 0.0
C1348 C 0.78369 0.70818 0.36782 0.0
C1349 C 0.80096 0.68537 0.36099 0.0
C1350 C 0.83427 0.71954 0.33065 0.0
C1351 C 0.81889 0.74308 0.33972 0.0
N1352 N 0.7837 0.7615 0.37254 0.0
N1353 N 0.84744 0.6714 0.34273 0.0
C1354 C 0.79504 0.73794 0.36007 0.0
C1355 C 0.82779 0.69173 0.34456 0.0
N1356 N 0.75549 0.70122 0.37991 0.0
N1357 N 0.85355 0.72299 0.30734 0.0
H1358 H 0.84381 0.651 0.35329 0.0
H1359 H 0.86907 0.67613 0.33368 0.0
H1360 H 0.85788 0.74248 0.2953 0.0
H1361 H 0.86258 0.70539 0.2976 0.0
H1362 H 0.74022 0.71636 0.38184 0.0
H1363 H 0.74579 0.67963 0.38533 0.0
H1364 H 0.76868 0.75937 0.39002 0.0
H1365 H 0.79169 0.7837 0.36771 0.0
C1366 C 0.04105 0.54478 0.85357 0.0
C1367 C 1.02405 0.56733 0.84319 0.0
C1368 C 0.97408 0.53042 0.83325 0.0
C1369 C 0.9913 0.50752 0.84138 0.0
N1370 N 0.04133 0.49152 0.85599 0.0
N1371 N 0.97374 0.581 0.82181 0.0
C1372 C 1.02487 0.5143 0.85081 0.0
C1373 C 0.99064 0.56011 0.83284 0.0
N1374 N 0.07229 0.55269 0.86712 0.0
N1375 N 0.9416 0.52393 0.82538 0.0
H1376 H 0.98372 0.60338 0.81958 0.0
H1377 H 0.98372 0.60338 0.81958 0.0
H1378 H 0.92802 0.50246 0.82577 0.0
H1379 H 0.9282 0.5403 0.8192 0.0
H1380 H 0.08511 0.53788 0.87837 0.0
H1381 H 0.08483 0.57479 0.86936 0.0
H1382 H 0.06614 0.49458 0.85959 0.0
H1383 H 1.03018 0.46901 0.85465 0.0
C1384 C 0.0993 0.95746 0.10707 0.0
C1385 C 0.13202 0.95501 0.11159 0.0
C1386 C 0.14096 0.98343 0.06505 0.0
C1387 C 0.10961 0.98965 0.06383 0.0
N1388 N 0.05558 0.96788 0.07 0.0
N1389 N 0.18065 0.95604 0.08886 0.0
C1390 C 0.08752 0.97188 0.08041 0.0
C1391 C 0.15189 0.96494 0.08855 0.0
N1392 N 0.07984 0.94739 0.12889 0.0
N1393 N 0.16002 0.99541 0.04375 0.0
H1394 H 0.18878 0.94201 0.10552 0.0
H1395 H 0.19569 0.96081 0.07171 0.0
H1396 H 0.15113 1.00601 0.02429 0.0
H1397 H 0.18415 0.99473 0.04503 0.0
H1398 H 0.0566 0.95115 0.12811 0.0
H1399 H 0.08753 0.93712 0.14911 0.0
H1400 H 1.03843 0.95354 0.08013 0.0
H1401 H 0.0468 0.9755 0.04847 0.0
C1402 C 0.95995 0.27353 0.84682 0.0
C1403 C 0.95479 0.24286 0.85278 0.0
C1404 C 0.90146 0.23622 0.82168 0.0
C1405 C 0.90509 0.26801 0.82085 0.0
N1406 N 0.9346 0.31595 0.84532 0.0
N1407 N 0.91951 0.19482 0.84847 0.0
C1408 C 0.9335 0.28645 0.83685 0.0
C1409 C 0.9251 0.22403 0.84107 0.0
N1410 N 0.98996 0.29068 0.85111 0.0
N1411 N 0.87653 0.21772 0.80324 0.0
H1412 H 0.93693 0.18533 0.86157 0.0
H1413 H 0.89719 0.18078 0.84328 0.0
H1414 H 0.85972 0.22567 0.78767 0.0
H1415 H 0.87435 0.19448 0.80111 0.0
H1416 H 0.99452 0.31287 0.84496 0.0
H1417 H 1.01044 0.28181 0.85682 0.0
H1418 H 0.95455 0.32974 0.85841 0.0
H1419 H 0.91415 0.32513 0.84382 0.0
C1420 C 0.705 0.31094 0.66409 0.0
C1421 C 0.68339 0.32388 0.64354 0.0
C1422 C 0.6601 0.27499 0.61606 0.0
C1423 C 0.68153 0.26186 0.63674 0.0
N1424 N 0.72943 0.26766 0.67448 0.0
N1425 N 0.64705 0.32065 0.59505 0.0
C1426 C 0.70577 0.28003 0.65877 0.0
C1427 C 0.66326 0.30662 0.61774 0.0
N1428 N 0.72318 0.32764 0.68983 0.0
N1429 N 0.63548 0.25723 0.59632 0.0
H1430 H 0.6492 0.34395 0.59588 0.0
H1431 H 0.63416 0.30965 0.57403 0.0
H1432 H 0.63195 0.23388 0.59447 0.0
H1433 H 0.61704 0.26551 0.5835 0.0
H1434 H 0.73612 0.31843 0.708 0.0
H1435 H 0.72404 0.3506 0.69396 0.0
H1436 H 0.74946 0.28032 0.68851 0.0
H1437 H 0.73043 0.24497 0.67114 0.0
C1438 C 0.58813 0.78501 0.34827 0.0
C1439 C 0.5865 0.75848 0.36474 0.0
C1440 C 0.63253 0.74677 0.34192 0.0
C1441 C 0.63669 0.77533 0.32917 0.0
N1442 N 0.62135 0.82362 0.32379 0.0
N1443 N 0.60801 0.71494 0.37978 0.0
C1444 C 0.6152 0.79498 0.33316 0.0
C1445 C 0.60876 0.73936 0.36207 0.0
N1446 N 0.56332 0.80019 0.34627 0.0
N1447 N 0.65092 0.72666 0.33427 0.0
H1448 H 0.59064 0.70867 0.39448 0.0
H1449 H 0.62579 0.70209 0.38165 0.0
H1450 H 0.66855 0.73145 0.31953 0.0
H1451 H 0.64698 0.70446 0.34028 0.0
H1452 H 0.5618 0.81794 0.33184 0.0
H1453 H 0.54262 0.79318 0.35643 0.0
H1454 H 0.60843 0.83994 0.32949 0.0
H1455 H 0.64105 0.83199 0.31268 0.0
C1456 C 0.06936 0.20775 0.4647 0.0
C1457 C 0.09558 0.23294 0.47412 0.0
C1458 C 0.1165 0.19669 0.51323 0.0
C1459 C 0.09158 0.17093 0.50207 0.0
N1460 N 0.04638 0.1537 0.46195 0.0
N1461 N 0.14785 0.24597 0.50481 0.0
C1462 C 0.06898 0.17721 0.47615 0.0
C1463 C 0.11985 0.2257 0.49791 0.0
N1464 N 0.04306 0.21317 0.44596 0.0
N1465 N 0.13798 0.19365 0.53888 0.0
H1466 H 0.15207 0.2662 0.49412 0.0
H1467 H 0.16814 0.24148 0.51839 0.0
H1468 H 0.13881 0.17318 0.54873 0.0
H1469 H 0.15372 0.2117 0.55158 0.0
H1470 H 1.02168 0.19772 0.44092 0.0
H1471 H 0.04126 0.23429 0.43827 0.0
H1472 H 1.03195 0.1548 0.44056 0.0
H1473 H 0.04369 0.13233 0.47037 0.0
C1474 C 0.69683 0.31453 0.20626 0.0
C1475 C 0.67787 0.33552 0.21559 0.0
C1476 C 0.72363 0.35579 0.25919 0.0
C1477 C 0.74327 0.33617 0.24843 0.0
N1478 N 0.74898 0.29998 0.20752 0.0
N1479 N 0.67698 0.37958 0.24888 0.0
C1480 C 0.72978 0.31642 0.22085 0.0
C1481 C 0.69239 0.35693 0.24165 0.0
N1482 N 0.68289 0.29154 0.1842 0.0
N1483 N 0.73443 0.37291 0.28707 0.0
H1484 H 0.65487 0.38152 0.23676 0.0
H1485 H 0.68724 0.39789 0.26484 0.0
H1486 H 0.75678 0.37304 0.3 0.0
H1487 H 0.72042 0.38506 0.29867 0.0
H1488 H 0.69343 0.27332 0.17905 0.0
H1489 H 0.65949 0.28916 0.173 0.0
H1490 H 0.74257 0.28808 0.1854 0.0
H1491 H 0.77258 0.30035 0.21728 0.0
C1492 C 0.5867 0.92801 0.99883 0.0
C1493 C 0.60428 0.92259 0.97298 0.0
C1494 C 0.61614 0.98033 0.97241 0.0
C1495 C 0.60128 0.98575 1.00024 0.0
N1496 N 0.57406 0.96121 0.04074 0.0
N1497 N 0.64043 0.9474 0.93945 0.0
C1498 C 0.58742 0.95843 1.01358 0.0
C1499 C 0.61989 0.94997 0.96095 0.0
N1500 N 0.56696 0.90399 1.00829 0.0
N1501 N 0.6271 1.0045 0.9563 0.0
H1502 H 0.64502 0.92683 0.93143 0.0
H1503 H 0.65551 0.96561 0.9321 0.0
H1504 H 0.62754 1.02652 0.96464 0.0
H1505 H 0.63369 1.00265 0.93365 0.0
H1506 H 0.55035 0.90586 0.0237 0.0
H1507 H 0.56463 0.88226 0.99815 0.0
H1508 H 0.56788 0.94343 0.05475 0.0
H1509 H 0.57074 0.98171 0.05037 0.0
C1510 C 0.97096 0.80298 0.7239 0.0
C1511 C 0.99314 0.82987 0.71979 0.0
C1512 C 0.95706 0.85692 0.74953 0.0
C1513 C 0.93645 0.82962 0.75618 0.0
N1514 N 0.93257 0.77614 0.75529 0.0
N1515 N 1.00769 0.88285 0.73428 0.0
C1516 C 0.94586 0.80266 0.74451 0.0
C1517 C 0.98626 0.85674 0.73458 0.0
N1518 N 0.97377 0.77694 0.70823 0.0
N1519 N 0.94804 0.88365 0.75566 0.0
H1520 H 1.02745 0.88441 0.72215 0.0
H1521 H 1.00715 0.90237 0.74788 0.0
H1522 H 0.92743 0.88541 0.76541 0.0
H1523 H 0.9591 0.90387 0.74802 0.0
H1524 H 0.95618 0.75762 0.70623 0.0
H1525 H 0.99232 0.77538 0.69505 0.0
H1526 H 0.94013 0.75604 0.75087 0.0
H1527 H 0.9173 0.7752 0.77245 0.0
C1528 C 0.16675 0.06098 0.92933 0.0
C1529 C 0.18186 0.09084 0.92534 0.0
C1530 C 0.14915 0.11006 0.961 0.0
C1531 C 0.13863 0.08054 0.96958 0.0
N1532 N 0.13876 1.02741 0.96331 0.0
N1533 N 0.19095 0.14386 0.94107 0.0
C1534 C 0.14759 0.05575 0.95402 0.0
C1535 C 0.17397 0.11546 0.94211 0.0
N1536 N 0.16927 0.03784 0.90866 0.0
N1537 N 0.13465 0.13277 0.97012 0.0
H1538 H 0.21033 0.1487 0.92846 0.0
H1539 H 0.1879 0.1621 0.95537 0.0
H1540 H 0.11514 0.12911 0.98264 0.0
H1541 H 0.13939 0.15416 0.96191 0.0
H1542 H 0.15595 1.01624 0.90858 0.0
H1543 H 0.18211 0.04068 0.88947 0.0
H1544 H 0.14825 1.00926 0.95562 0.0
H1545 H 0.1234 1.02227 0.98013 0.0
C1546 C 0.83316 0.36034 0.64725 0.0
C1547 C 0.86341 0.36986 0.63705 0.0
C1548 C 0.88992 0.35912 0.68926 0.0
C1549 C 0.85965 0.34811 0.69879 0.0
N1550 N 0.80235 0.3338 0.68447 0.0
N1551 N 0.92038 0.3729 0.64598 0.0
C1552 C 0.83133 0.34714 0.67696 0.0
C1553 C 0.89174 0.36783 0.65749 0.0
N1554 N 0.80608 0.36575 0.62969 0.0
N1555 N 0.91705 0.36118 0.71055 0.0
H1556 H 0.92251 0.37838 0.62268 0.0
H1557 H 0.94156 0.36895 0.65833 0.0
H1558 H 0.9171 0.35268 0.73293 0.0
H1559 H 0.93935 0.37265 0.70671 0.0
H1560 H 0.78408 0.36341 0.63804 0.0
H1561 H 0.8058 0.37512 0.6078 0.0
H1562 H 0.7819 0.32829 0.66772 0.0
H1563 H 0.79888 0.32618 0.70668 0.0
C1564 C 0.58585 0.17876 0.45774 0.0
C1565 C 0.60283 0.17087 0.43329 0.0
C1566 C 0.63318 0.143 0.46949 0.0
C1567 C 0.61086 0.14457 0.49091 0.0
N1568 N 0.57105 0.16891 0.51013 0.0
N1569 N 0.65376 0.16176 0.42212 0.0
C1570 C 0.58921 0.16466 0.48683 0.0
C1571 C 0.63038 0.15835 0.44127 0.0
N1572 N 0.56749 0.20013 0.45315 0.0
N1573 N 0.65565 0.12551 0.47532 0.0
H1574 H 0.65281 0.17504 0.40273 0.0
H1575 H 0.67537 0.15462 0.42747 0.0
H1576 H 0.65885 0.11506 0.49657 0.0
H1577 H 0.67026 0.12059 0.45885 0.0
H1578 H 0.5675 0.21237 0.43296 0.0
H1579 H 0.55507 0.20788 0.47024 0.0
H1580 H 0.55229 0.18057 0.50762 0.0
H1581 H 0.57492 0.16037 0.53234 0.0
C1582 C 0.83262 0.74291 0.15881 0.0
C1583 C 0.85881 0.75246 0.1414 0.0
C1584 C 0.87853 0.79341 0.1861 0.0
C1585 C 0.85378 0.78218 0.20474 0.0
N1586 N 0.81163 0.74047 0.20962 0.0
N1587 N 0.91006 0.7849 0.14359 0.0
C1588 C 0.83209 0.75539 0.19108 0.0
C1589 C 0.88252 0.77729 0.15656 0.0
N1590 N 0.80691 0.72259 0.14399 0.0
N1591 N 0.89793 0.82042 0.19582 0.0
H1592 H 0.91425 0.77387 0.12293 0.0
H1593 H 0.92996 0.80004 0.15487 0.0
H1594 H 0.89637 0.8327 0.21668 0.0
H1595 H 0.91362 0.83194 0.18186 0.0
H1596 H 0.7856 0.71711 0.15347 0.0
H1597 H 0.80546 0.71366 0.12069 0.0
H1598 H 0.79776 0.71928 0.20289 0.0
H1599 H 0.81118 0.74759 0.23321 0.0
C1600 C 0.1542 0.04593 0.76241 0.0
C1601 C 0.15359 0.05995 0.79264 0.0
C1602 C 0.09837 0.06528 0.77768 0.0
C1603 C 0.10143 0.05705 0.74594 0.0
N1604 N 0.12448 1.02691 0.71072 0.0
N1605 N 0.1231 0.07285 0.83302 0.0
C1606 C 0.12659 0.04254 0.73937 0.0
C1607 C 0.12467 0.06582 0.80174 0.0
N1608 N 0.18175 0.03799 0.75522 0.0
N1609 N 0.07141 0.07503 0.78373 0.0
H1610 H 0.14234 0.07289 0.85074 0.0
H1611 H 0.10245 0.0764 0.84171 0.0
H1612 H 0.05206 0.074 0.76584 0.0
H1613 H 0.06826 0.08416 0.80574 0.0
H1614 H 0.18503 0.03083 0.73247 0.0
H1615 H 0.20188 0.03948 0.77222 0.0
H1616 H 0.14125 1.01443 0.70498 0.0
H1617 H 0.10414 1.02397 0.69383 0.0
C1618 C 0.82051 0.38677 0.43394 0.0
C1619 C 0.8472 0.38115 0.45486 0.0
C1620 C 0.8622 0.35236 0.41043 0.0
C1621 C 0.83811 0.36122 0.38886 0.0
N1622 N 0.79692 0.39041 0.3794 0.0
N1623 N 0.89762 0.3642 0.46025 0.0
C1624 C 0.81804 0.37952 0.40044 0.0
C1625 C 0.86909 0.36529 0.44241 0.0
N1626 N 0.79665 0.39771 0.44614 0.0
N1627 N 0.87845 0.33131 0.40048 0.0
H1628 H 0.9047 0.37475 0.48301 0.0
H1629 H 0.91584 0.35576 0.45111 0.0
H1630 H 0.87399 0.32126 0.37738 0.0
H1631 H 0.89407 0.32177 0.41586 0.0
H1632 H 0.77531 0.39963 0.43247 0.0
H1633 H 0.7966 0.40188 0.47047 0.0
H1634 H 0.7843 0.4067 0.3859 0.0
H1635 H 0.79378 0.38472 0.35497 0.0
C1636 C 0.61173 0.17832 0.24935 0.0
C1637 C 0.62451 0.17506 0.28091 0.0
C1638 C 0.66756 0.15388 0.26199 0.0
C1639 C 0.64917 0.14895 0.2315 0.0
N1640 N 0.60378 0.15684 0.19522 0.0
N1641 N 0.66784 0.16629 0.31839 0.0
C1642 C 0.62181 0.16218 0.22454 0.0
C1643 C 0.65413 0.16569 0.2875 0.0
N1644 N 0.5889 0.19538 0.24342 0.0
N1645 N 0.69689 0.14604 0.26644 0.0
H1646 H 0.65839 0.1759 0.33694 0.0
H1647 H 0.68781 0.15707 0.32564 0.0
H1648 H 0.70664 0.13718 0.24769 0.0
H1649 H 0.71237 0.15033 0.28776 0.0
H1650 H 0.58007 0.2001 0.22059 0.0
H1651 H 0.58162 0.20756 0.26162 0.0
H1652 H 0.58166 0.16306 0.18997 0.0
H1653 H 0.61003 0.14448 0.17655 0.0
C1654 C 0.85325 0.78237 0.95043 0.0
C1655 C 0.86172 0.75322 0.95284 0.0
C1656 C 0.86896 0.75601 0.89411 0.0
C1657 C 0.86007 0.78502 0.89163 0.0
N1658 N 0.85146 0.82803 0.92246 0.0
N1659 N 0.87583 0.71199 0.92384 0.0
C1660 C 0.85456 0.79866 0.92131 0.0
C1661 C 0.86886 0.74012 0.92362 0.0
N1662 N 0.84127 0.79398 0.9755 0.0
N1663 N 0.88079 0.7447 0.86881 0.0
H1664 H 0.88001 0.70123 0.94464 0.0
H1665 H 0.87627 0.69862 0.90341 0.0
H1666 H 0.88424 0.75667 0.84885 0.0
H1667 H 0.89062 0.72543 0.86863 0.0
H1668 H 0.8304 0.81265 0.9745 0.0
H1669 H 0.83893 0.78315 0.99638 0.0
H1670 H 0.85193 0.84083 0.94354 0.0
H1671 H 0.85143 0.8407 0.90276 0.0
C1672 C 0.88015 0.15575 0.04473 0.0
C1673 C 0.88254 0.18084 0.02588 0.0
C1674 C 0.92364 0.1623 0.99978 0.0
C1675 C 0.91809 0.13538 1.01568 0.0
N1676 N 0.88587 0.10401 0.04832 0.0
N1677 N 0.90197 0.20475 0.98062 0.0
C1678 C 0.89482 0.13138 0.03674 0.0
C1679 C 0.90308 0.18333 1.00208 0.0
N1680 N 0.86495 0.15565 0.0711 0.0
N1681 N 0.94913 0.16837 0.98337 0.0
H1682 H 0.8866 0.22001 0.98065 0.0
H1683 H 0.914 0.20543 0.96081 0.0
H1684 H 0.96541 0.15411 0.98192 0.0
H1685 H 0.95596 0.18893 0.9739 0.0
H1686 H 0.86522 0.13919 0.08735 0.0
H1687 H 0.85517 0.17367 0.07869 0.0
H1688 H 0.86679 0.09913 0.06126 0.0
H1689 H 0.89528 0.08527 0.04221 0.0
C1690 C 0.43121 0.53769 0.06018 0.0
C1691 C 0.42062 0.5064 0.05018 0.0
C1692 C 0.47768 0.50637 0.04183 0.0
C1693 C 0.48741 0.53826 0.04811 0.0
N1694 N 0.46896 0.58446 0.05734 0.0
N1695 N 0.4349 0.4638 0.02337 0.0
C1696 C 0.46282 0.55384 0.05568 0.0
C1697 C 0.44427 0.49168 0.03878 0.0
N1698 N 0.41172 0.55214 0.07556 0.0
N1699 N 0.50056 0.48934 0.04046 0.0
H1700 H 0.41112 0.45285 1.01874 0.0
H1701 H 0.4502 0.45319 1.01176 0.0
H1702 H 0.52483 0.49853 0.04456 0.0
H1703 H 0.49558 0.46596 0.03927 0.0
H1704 H 0.41908 0.57373 0.08652 0.0
H1705 H 0.38946 0.54149 0.08042 0.0
H1706 H 0.45142 0.59725 0.05932 0.0
H1707 H 0.49071 0.59699 0.05324 0.0
C1708 C 0.3209 0.59123 0.72858 0.0
C1709 C 0.35017 0.60353 0.71822 0.0
C1710 C 0.33965 0.65414 0.72454 0.0
C1711 C 0.31119 0.64222 0.73716 0.0
N1712 N 0.27018 0.59993 0.74281 0.0
N1713 N 0.38193 0.64391 0.69545 0.0
C1714 C 0.30013 0.61077 0.73599 0.0
C1715 C 0.3574 0.63408 0.71217 0.0
N1716 N 0.31399 0.56126 0.73291 0.0
N1717 N 0.35149 0.68435 0.72711 0.0
H1718 H 0.39544 0.62941 0.68648 0.0
H1719 H 0.38667 0.66549 0.68773 0.0
H1720 H 0.33991 0.70031 0.73624 0.0
H1721 H 0.37418 0.69366 0.72219 0.0
H1722 H 0.29475 0.55124 0.74374 0.0
H1723 H 0.32843 0.5465 0.72643 0.0
H1724 H 0.25962 0.57728 0.74032 0.0
H1725 H 0.25491 0.61415 0.74847 0.0
C1726 C 0.21613 0.66669 0.50613 0.0
C1727 C 0.23726 0.67597 0.53481 0.0
C1728 C 0.20028 0.64474 0.56454 0.0
C1729 C 0.18033 0.63329 0.53561 0.0
N1730 N 0.17251 0.62921 0.47823 0.0
N1731 N 0.25217 0.67025 0.59062 0.0
C1732 C 0.18907 0.64325 0.50618 0.0
C1733 C 0.23023 0.66377 0.56373 0.0
N1734 N 0.22199 0.68012 0.4788 0.0
N1735 N 0.18988 0.63919 0.59308 0.0
H1736 H 0.27368 0.68543 0.5918 0.0
H1737 H 0.25004 0.65891 0.61123 0.0
H1738 H 0.16812 0.62561 0.59526 0.0
H1739 H 0.20121 0.65079 0.61442 0.0
H1740 H 0.20567 0.67681 0.45803 0.0
H1741 H 0.24231 0.69628 0.47747 0.0
H1742 H 0.17952 0.63336 0.45605 0.0
H1743 H 0.15346 0.61118 0.47735 0.0
C1744 C 0.71836 0.98709 0.82781 0.0
C1745 C 0.69323 0.96331 0.81419 0.0
C1746 C 0.72924 0.92756 0.82243 0.0
C1747 C 0.75358 0.95103 0.83814 0.0
N1748 N 0.76853 1.00127 0.86288 0.0
N1749 N 0.67254 0.9101 0.80595 0.0
C1750 C 0.74713 0.98018 0.84326 0.0
C1751 C 0.69796 0.93325 0.81385 0.0
N1752 N 0.71589 1.01634 0.82401 0.0
N1753 N 0.73627 0.90039 0.81395 0.0
H1754 H 0.6492 0.91347 0.80008 0.0
H1755 H 0.67418 0.8877 0.80842 0.0
H1756 H 0.75898 0.89533 0.81887 0.0
H1757 H 0.72019 0.88376 0.79943 0.0
H1758 H 0.73484 0.03427 0.83075 0.0
H1759 H 0.69627 1.02267 0.81101 0.0
H1760 H 0.76368 1.02206 0.86985 0.0
H1761 H 0.78978 0.99676 0.87471 0.0
C1762 C 0.73476 0.03141 0.54847 0.0
C1763 C 0.73248 0.9993 0.54921 0.0
C1764 C 0.67212 0.99771 0.54476 0.0
C1765 C 0.67481 0.02988 0.54809 0.0
N1766 N 0.71238 0.07675 0.55624 0.0
N1767 N 0.69591 0.95353 0.55522 0.0
C1768 C 0.70729 0.04626 0.55119 0.0
C1769 C 0.7002 0.9831 0.54907 0.0
N1770 N 0.76297 0.04822 0.54288 0.0
N1771 N 0.64241 0.98035 0.53722 0.0
H1772 H 0.71477 0.94228 0.56033 0.0
H1773 H 0.67404 0.94113 0.55916 0.0
H1774 H 0.62162 0.98918 0.53497 0.0
H1775 H 0.63859 0.9575 0.53049 0.0
H1776 H 0.76576 0.07081 0.53838 0.0
H1777 H 0.78266 0.03896 0.53895 0.0
H1778 H 0.73491 0.08992 0.56336 0.0
H1779 H 0.69388 0.08878 0.55507 0.0
C1780 C 0.36631 0.45721 0.72937 0.0
C1781 C 0.39359 0.47565 0.74734 0.0
C1782 C 0.39797 0.43637 0.7842 0.0
C1783 C 0.37279 0.41685 0.76443 0.0
N1784 N 0.33706 0.40657 0.71489 0.0
N1785 N 0.43999 0.48005 0.78726 0.0
C1786 C 0.35809 0.42664 0.73601 0.0
C1787 C 0.41078 0.46448 0.77346 0.0
N1788 N 0.34743 0.46913 0.70697 0.0
N1789 N 0.40869 0.42878 0.81388 0.0
H1790 H 0.45092 0.50028 0.77945 0.0
H1791 H 0.45488 0.47131 0.80419 0.0
H1792 H 0.39931 0.40879 0.82323 0.0
H1793 H 0.42469 0.44365 0.83043 0.0
H1794 H 0.32547 0.45744 0.69554 0.0
H1795 H 0.35213 0.49164 0.70197 0.0
H1796 H 0.32811 0.41185 0.69233 0.0
H1797 H 0.33092 0.38384 0.71867 0.0
C1798 C 0.14093 0.60004 0.25477 0.0
C1799 C 0.15974 0.57831 0.2632 0.0
C1800 C 0.20849 0.61703 0.26873 0.0
C1801 C 0.18942 0.63895 0.26177 0.0
N1802 N 0.13674 0.65108 0.24864 0.0
N1803 N 0.2107 0.56632 0.28318 0.0
C1804 C 0.15567 0.63051 0.25514 0.0
C1805 C 0.19339 0.5868 0.27139 0.0
N1806 N 0.10867 0.59174 0.24591 0.0
N1807 N 0.24105 0.62496 0.27178 0.0
H1808 H 0.20051 0.54405 0.28571 0.0
H1809 H 0.23467 0.5718 0.29293 0.0
H1810 H 0.25297 0.64699 0.27076 0.0
H1811 H 0.25626 0.60955 0.27305 0.0
H1812 H 0.09416 0.6072 0.23959 0.0
H1813 H 0.0966 0.56949 0.24405 0.0
H1814 H 0.14525 0.6741 0.24846 0.0
H1815 H 0.14525 0.6741 0.24846 0.0
C1816 C 0.58143 0.69599 0.48832 0.0
C1817 C 0.55049 0.70079 0.49244 0.0
C1818 C 0.54914 0.6684 0.53678 0.0
C1819 C 0.57704 0.65932 0.52851 0.0
N1820 N 0.62268 0.66647 0.50071 0.0
N1821 N 0.50755 0.69767 0.52397 0.0
C1822 C 0.5945 0.67434 0.50604 0.0
C1823 C 0.5354 0.68931 0.51822 0.0
N1824 N 0.59807 0.7123 0.46752 0.0
N1825 N 0.53524 0.65569 0.56129 0.0
H1826 H 0.49698 0.71264 0.51031 0.0
H1827 H 0.49508 0.69061 0.54248 0.0
H1828 H 0.54566 0.64094 0.57533 0.0
H1829 H 0.51437 0.66021 0.56865 0.0
H1830 H 0.62143 0.71128 0.46436 0.0
H1831 H 0.58917 0.72878 0.45479 0.0
H1832 H 0.63539 0.67393 0.48246 0.0
H1833 H 0.63323 0.65171 0.51476 0.0
C1834 C 0.74301 0.41121 0.7724 0.0
C1835 C 0.74609 0.42157 0.74183 0.0
C1836 C 0.79957 0.40987 0.7457 0.0
C1837 C 0.79246 0.39226 0.77159 0.0
N1838 N 0.75976 0.37894 0.81259 0.0
N1839 N 0.78269 0.44466 0.70803 0.0
C1840 C 0.76517 0.39431 0.78632 0.0
C1841 C 0.77622 0.42534 0.73105 0.0
N1842 N 0.71931 0.4183 0.78809 0.0
N1843 N 0.82819 0.41101 0.73475 0.0
H1844 H 0.76708 0.45866 0.70004 0.0
H1845 H 0.80446 0.44934 0.69936 0.0
H1846 H 0.84698 0.4034 0.74768 0.0
H1847 H 0.83355 0.41973 0.71346 0.0
H1848 H 0.71668 0.41304 0.81131 0.0
H1849 H 0.70461 0.43266 0.77884 0.0
H1850 H 0.73845 0.37663 0.82223 0.0
H1851 H 0.7764 0.36749 0.82406 0.0
C1852 C 1.00624 0.34541 0.93465 0.0
C1853 C 1.03558 0.33498 0.93659 0.0
C1854 C 0.06541 0.38646 0.94745 0.0
C1855 C 1.03625 0.39659 0.94826 0.0
N1856 N 0.97912 0.38581 0.94756 0.0
N1857 N 0.09278 0.34454 0.95186 0.0
C1858 C 1.00666 0.37608 0.9433 0.0
C1859 C 0.06512 0.35522 0.9449 0.0
N1860 N 0.97813 0.3264 0.92327 0.0
N1861 N 0.09332 0.40672 0.94835 0.0
H1862 H 0.09349 0.32171 0.95152 0.0
H1863 H 0.11452 0.35816 0.96121 0.0
H1864 H 0.09452 0.42989 0.9502 0.0
H1865 H 0.11476 0.40063 0.94435 0.0
H1866 H 0.95641 0.33344 0.91836 0.0
H1867 H 0.97672 0.30391 0.91608 0.0
H1868 H 0.95734 0.37143 0.9478 0.0
H1869 H 0.97846 0.40823 0.95336 0.0
C1870 C 0.07352 0.93227 0.24578 0.0
C1871 C 0.10207 0.92118 0.25376 0.0
C1872 C 0.07986 0.89414 0.2966 0.0
C1873 C 0.05044 0.90311 0.28713 0.0
N1874 N 1.02127 0.93681 0.25948 0.0
N1875 N 0.13484 0.89747 0.29177 0.0
C1876 C 0.048 0.92437 0.26394 0.0
C1877 C 0.10614 0.9046 0.28092 0.0
N1878 N 0.0701 0.94857 0.21974 0.0
N1879 N 0.08275 0.87463 0.31988 0.0
H1880 H 0.1558 0.90495 0.28221 0.0
H1881 H 0.1558 0.90495 0.28221 0.0
H1882 H 0.06398 0.86546 0.33183 0.0
H1883 H 0.10406 0.8673 0.32687 0.0
H1884 H 0.04865 0.95432 0.2103 0.0
H1885 H 0.08875 0.95561 0.20677 0.0
H1886 H 1.01877 0.95416 0.24477 0.0
H1887 H 1.00244 0.93136 0.2727 0.0
C1888 C 0.59311 0.45285 0.1359 0.0
C1889 C 0.58599 0.4245 0.11687 0.0
C1890 C 0.5811 0.45806 0.0698 0.0
C1891 C 0.59182 0.48654 0.08868 0.0
N1892 N 0.61672 0.50644 0.14144 0.0
N1893 N 0.58065 0.40402 0.06273 0.0
C1894 C 0.6001 0.48235 0.12214 0.0
C1895 C 0.58206 0.42849 0.08308 0.0
N1896 N 0.59189 0.45228 0.16779 0.0
N1897 N 0.56843 0.45846 0.03873 0.0
H1898 H 0.58214 0.38287 0.07051 0.0
H1899 H 0.58175 0.40541 0.03847 0.0
H1900 H 0.56668 0.47802 0.02753 0.0
H1901 H 0.55649 0.43918 0.02493 0.0
H1902 H 0.59326 0.47161 0.18251 0.0
H1903 H 0.58554 0.43252 0.17883 0.0
H1904 H 0.62641 0.50467 0.1649 0.0
H1905 H 0.62465 0.52723 0.13299 0.0
C1906 C 0.99057 0.35071 0.37787 0.0
C1907 C 1.00549 0.32533 0.37358 0.0
C1908 C 0.95754 0.30393 0.33271 0.0
C1909 C 0.94132 0.32805 0.33922 0.0
N1910 N 0.94192 0.3715 0.37437 0.0
N1911 N 0.99914 0.27532 0.34937 0.0
C1912 C 0.9579 0.35061 0.36349 0.0
C1913 C 0.98776 0.30138 0.35156 0.0
N1914 N 1.00813 0.37594 0.39473 0.0
N1915 N 0.94485 0.28387 0.30737 0.0
H1916 H 1.02056 0.27253 0.36236 0.0
H1917 H 0.9861 0.25569 0.33701 0.0
H1918 H 0.92382 0.2852 0.29276 0.0
H1919 H 0.95663 0.26769 0.29894 0.0
H1920 H 1.00048 0.3964 0.39566 0.0
H1921 H 1.03175 0.37738 0.40509 0.0
H1922 H 0.95091 0.38623 0.39433 0.0
H1923 H 0.91828 0.37207 0.36572 0.0
C1924 C 0.10628 0.72093 0.62586 0.0
C1925 C 0.07963 0.73581 0.61759 0.0
C1926 C 0.05491 0.68675 0.5833 0.0
C1927 C 0.08257 0.67274 0.5896 0.0
N1928 N 0.13744 0.68267 0.61369 0.0
N1929 N 1.02978 0.73134 0.58329 0.0
C1930 C 0.10873 0.69165 0.61031 0.0
C1931 C 0.05461 0.71815 0.59465 0.0
N1932 N 0.13028 0.73503 0.64874 0.0
N1933 N 1.02747 0.66932 0.56785 0.0
H1934 H 1.02737 0.75253 0.59192 0.0
H1935 H 1.01293 0.72229 0.56382 0.0
H1936 H 1.02592 0.64683 0.56054 0.0
H1937 H 1.00543 0.67599 0.56531 0.0
H1938 H 0.14822 0.72469 0.6594 0.0
H1939 H 0.13138 0.7567 0.65852 0.0
H1940 H 0.1587 0.69597 0.62474 0.0
H1941 H 0.14054 0.66289 0.60244 0.0
C1942 C 0.68915 0.81557 0.84193 0.0
C1943 C 0.69091 0.82991 0.87341 0.0
C1944 C 0.75102 0.84176 0.87165 0.0
C1945 C 0.74894 0.83053 0.83891 0.0
N1946 N 0.7114 0.81312 0.79179 0.0
N1947 N 0.72635 0.8641 0.91315 0.0
C1948 C 0.71662 0.81925 0.82397 0.0
C1949 C 0.7227 0.84505 0.8866 0.0
N1950 N 0.66146 0.79682 0.8291 0.0
N1951 N 0.78023 0.84794 0.88983 0.0
H1952 H 0.70715 0.86864 0.92391 0.0
H1953 H 0.74797 0.87817 0.92207 0.0
H1954 H 0.80085 0.84438 0.8812 0.0
H1955 H 0.78337 0.85307 0.91434 0.0
H1956 H 0.65945 0.78326 0.8082 0.0
H1957 H 0.64167 0.79209 0.84105 0.0
H1958 H 0.68862 0.80804 0.77875 0.0
H1959 H 0.72969 0.81672 0.77772 0.0
C1960 C 0.50977 0.59684 0.65611 0.0
C1961 C 0.47914 0.578 0.64948 0.0
C1962 C 0.49257 0.55768 0.60001 0.0
C1963 C 0.52286 0.57712 0.60596 0.0
N1964 N 0.55804 0.61951 0.63595 0.0
N1965 N 0.43826 0.547 0.61192 0.0
C1966 C 0.53081 0.59805 0.6329 0.0
C1967 C 0.46955 0.56053 0.62031 0.0
N1968 N 0.51945 0.61237 0.68512 0.0
N1969 N 0.48643 0.53524 0.57619 0.0
H1970 H 0.42072 0.54913 0.62627 0.0
H1971 H 0.42917 0.53639 0.5895 0.0
H1972 H 0.50313 0.53141 0.56156 0.0
H1973 H 0.46598 0.51852 0.57299 0.0
H1974 H 0.54295 0.62304 0.69283 0.0
H1975 H 0.50463 0.6131 0.70256 0.0
H1976 H 0.56314 0.63752 0.65305 0.0
H1977 H 0.57439 0.62089 0.61973 0.0
C1978 C 0.83269 0.31412 0.94199 0.0
C1979 C 0.82124 0.28363 0.94722 0.0
C1980 C 0.81446 0.27076 0.88927 0.0
C1981 C 0.82421 0.3016 0.88382 0.0
N1982 N 0.83663 0.35323 0.90469 0.0
N1983 N 0.79728 0.23332 0.92547 0.0
C1984 C 0.83174 0.32343 0.91017 0.0
C1985 C 0.81067 0.2622 0.92071 0.0
N1986 N 0.8447 0.33423 0.9675 0.0
N1987 N 0.81087 0.2492 0.86483 0.0
H1988 H 0.79674 0.22498 0.94786 0.0
H1989 H 0.78487 0.21792 0.90718 0.0
H1990 H 0.81287 0.25391 0.84141 0.0
H1991 H 0.80839 0.22636 0.86804 0.0
H1992 H 0.85693 0.3559 0.9655 0.0
H1993 H 0.84419 0.32863 0.99099 0.0
H1994 H 0.83908 0.37037 0.92247 0.0
H1995 H 0.8352 0.36084 0.88186 0.0
C1996 C 0.04723 0.49616 0.16388 0.0
C1997 C 0.07266 0.4807 0.17132 0.0
C1998 C 0.08974 0.48997 0.11942 0.0
C1999 C 0.06982 0.51174 0.11598 0.0
N2000 N 1.0262 0.53277 0.13174 0.0
N2001 N 0.10512 0.44941 0.14966 0.0
C2002 C 0.04701 0.51352 0.13694 0.0
C2003 C 0.08985 0.47318 0.14689 0.0
N2004 N 1.02296 0.49321 0.18198 0.0
N2005 N 0.1099 0.48678 0.09767 0.0
H2006 H 0.10275 0.43544 0.16837 0.0
H2007 H 0.11665 0.44136 0.13195 0.0
H2008 H 0.10958 0.4978 0.07672 0.0
H2009 H 0.12778 0.47412 0.10082 0.0
H2010 H 1.00259 0.50242 0.17688 0.0
H2011 H 1.02163 0.47835 0.20001 0.0
H2012 H 1.0116 0.53791 0.14811 0.0
H2013 H 1.02438 0.54444 0.11119 0.0
C2014 C 0.81984 0.91535 0.42591 0.0
C2015 C 0.82067 0.90073 0.45534 0.0
C2016 C 0.82915 0.85549 0.42208 0.0
C2017 C 0.8249 0.86925 0.3924 0.0
N2018 N 0.80675 0.91107 0.36808 0.0
N2019 N 0.81806 0.85222 0.47694 0.0
C2020 C 0.8172 0.89865 0.39508 0.0
C2021 C 0.82328 0.86954 0.45204 0.0
N2022 N 0.8236 0.94588 0.42693 0.0
N2023 N 0.83833 0.82828 0.42197 0.0
H2024 H 0.81147 0.86023 0.49794 0.0
H2025 H 0.81628 0.82901 0.47533 0.0
H2026 H 0.84026 0.81614 0.40112 0.0
H2027 H 0.84593 0.8187 0.44269 0.0
H2028 H 0.82645 0.958 0.40693 0.0
H2029 H 0.8282 0.95943 0.44804 0.0
H2030 H 0.79789 0.93094 0.36838 0.0
H2031 H 0.8032 0.8997 0.34575 0.0
C2032 C 0.53863 0.58413 0.78641 0.0
C2033 C 0.50931 0.59173 0.79269 0.0
C2034 C 0.5326 0.60714 0.84788 0.0
C2035 C 0.55832 0.59265 0.84326 0.0
N2036 N 0.58922 0.57147 0.80831 0.0
N2037 N 0.47807 0.61116 0.82936 0.0
C2038 C 0.56277 0.58315 0.81229 0.0
C2039 C 0.50649 0.60437 0.82315 0.0
N2040 N 0.543 0.57751 0.75578 0.0
N2041 N 0.53268 0.62261 0.87624 0.0
H2042 H 0.45817 0.60952 0.81216 0.0
H2043 H 0.47339 0.61659 0.85213 0.0
H2044 H 0.55128 0.62471 0.89495 0.0
H2045 H 0.51609 0.63599 0.88005 0.0
H2046 H 0.5646 0.57403 0.74917 0.0
H2047 H 0.52546 0.57774 0.73648 0.0
H2048 H 0.59251 0.56068 0.78719 0.0
H2049 H 0.60773 0.57204 0.82697 0.0
C2050 C 0.83392 0.31028 0.13901 0.0
C2051 C 0.8387 0.28091 0.13064 0.0
C2052 C 0.85519 0.27549 0.18776 0.0
C2053 C 0.84598 0.30296 0.19627 0.0
N2054 N 0.81789 0.34215 0.17861 0.0
N2055 N 0.84607 0.23274 0.14936 0.0
C2056 C 0.83297 0.3192 0.17151 0.0
C2057 C 0.84728 0.26272 0.15565 0.0
N2058 N 0.83143 0.33029 0.11623 0.0
N2059 N 0.87233 0.26183 0.21003 0.0
H2060 H 0.83805 0.22169 0.12696 0.0
H2061 H 0.84923 0.21815 0.16721 0.0
H2062 H 0.87978 0.27099 0.23333 0.0
H2063 H 0.88216 0.24326 0.20437 0.0
H2064 H 0.83084 0.35277 0.12167 0.0
H2065 H 0.83379 0.32548 0.09253 0.0
H2066 H 0.80537 0.35261 0.1612 0.0
H2067 H 0.81444 0.3483 0.20164 0.0
C2068 C 0.05532 0.45953 0.35497 0.0
C2069 C 0.04536 0.46465 0.32302 0.0
C2070 C 1.00149 0.48646 0.33862 0.0
C2071 C 1.0168 0.48886 0.37031 0.0
N2072 N 0.04925 0.46836 0.41068 0.0
N2073 N 1.00426 0.47332 0.2829 0.0
C2074 C 0.04031 0.47153 0.3792 0.0
C2075 C 1.01614 0.47415 0.31438 0.0
N2076 N 0.08069 0.44558 0.36182 0.0
N2077 N 0.97445 0.49801 0.33214 0.0
H2078 H 1.01524 0.464 0.26535 0.0
H2079 H 0.98359 0.48084 0.27423 0.0
H2080 H 0.96413 0.50677 0.35049 0.0
H2081 H 0.96173 0.49782 0.30957 0.0
H2082 H 0.09111 0.44283 0.3847 0.0
H2083 H 0.09114 0.43627 0.34389 0.0
H2084 H 0.0658 0.45556 0.41918 0.0
H2085 H 1.03824 0.47717 0.42842 0.0
C2086 C 0.85138 0.90215 0.66245 0.0
C2087 C 0.82153 0.90335 0.64329 0.0
C2088 C 0.79528 0.87521 0.68663 0.0
C2089 C 0.82518 0.87231 0.70459 0.0
N2090 N 0.88165 0.87818 0.70321 0.0
N2091 N 0.76453 0.88672 0.63742 0.0
C2092 C 0.85308 0.88479 0.69071 0.0
C2093 C 0.79349 0.88837 0.65552 0.0
N2094 N 0.87887 0.91748 0.65357 0.0
N2095 N 0.76816 0.86679 0.7001 0.0
H2096 H 0.76174 0.89749 0.6164 0.0
H2097 H 0.74359 0.87321 0.64211 0.0
H2098 H 0.76836 0.85775 0.72222 0.0
H2099 H 0.74596 0.87115 0.69091 0.0
H2100 H 0.90076 0.92147 0.66826 0.0
H2101 H 0.87957 0.92784 0.63224 0.0
H2102 H 0.90242 0.88317 0.69276 0.0
H2103 H 0.88381 0.86458 0.72211 0.0
C2104 C 0.77665 0.46027 0.59279 0.0
C2105 C 0.79408 0.4648 0.56661 0.0
C2106 C 0.77475 0.51152 0.55762 0.0
C2107 C 0.75509 0.50565 0.58188 0.0
N2108 N 0.73165 0.47072 0.61736 0.0
N2109 N 0.80294 0.49045 0.51915 0.0
C2110 C 0.75428 0.47886 0.59793 0.0
C2111 C 0.79107 0.48916 0.54751 0.0
N2112 N 0.78264 0.43945 0.61379 0.0
N2113 N 0.77876 0.53886 0.54496 0.0
H2114 H 0.81401 0.47381 0.51034 0.0
H2115 H 0.79866 0.50616 0.50282 0.0
H2116 H 0.768 0.55628 0.55238 0.0
H2117 H 0.79523 0.54526 0.52941 0.0
H2118 H 0.77284 0.43735 0.63495 0.0
H2119 H 0.79977 0.42625 0.61169 0.0
H2120 H 0.72793 0.44989 0.62698 0.0
H2121 H 0.71458 0.48355 0.6214 0.0
C2122 C 0.2357 0.15307 0.51894 0.0
C2123 C 0.26072 0.15372 0.54498 0.0
C2124 C 0.21947 0.12028 0.57145 0.0
C2125 C 0.19383 0.12207 0.54683 0.0
N2126 N 0.17868 0.1463 0.49952 0.0
N2127 N 0.27277 0.14163 0.59925 0.0
C2128 C 0.20246 0.14009 0.52124 0.0
C2129 C 0.25146 0.13817 0.57198 0.0
N2130 N 0.24371 0.16378 0.49098 0.0
N2131 N 0.2138 0.10034 0.59406 0.0
H2132 H 0.29558 0.15477 0.60121 0.0
H2133 H 0.26675 0.13406 0.62084 0.0
H2134 H 0.1916 0.08659 0.59429 0.0
H2135 H 0.23178 0.09519 0.61053 0.0
H2136 H 0.22772 0.16105 0.46998 0.0
H2137 H 0.26715 0.17263 0.48785 0.0
H2138 H 0.1826 0.16205 0.48271 0.0
H2139 H 0.15457 0.13803 0.50028 0.0
C2140 C 0.3178 0.03722 0.86126 0.0
C2141 C 0.31117 0.06053 0.8418 0.0
C2142 C 0.34281 0.04467 0.80264 0.0
C2143 C 0.34794 1.02053 0.82124 0.0
N2144 N 0.35014 0.99933 0.87208 0.0
N2145 N 0.32574 0.0925 0.80022 0.0
C2146 C 0.33897 1.01894 0.85209 0.0
C2147 C 0.32668 0.06633 0.8146 0.0
N2148 N 0.30201 0.03081 0.88679 0.0
N2149 N 0.3514 0.04578 0.77278 0.0
H2150 H 0.31403 0.10881 0.80857 0.0
H2151 H 0.33901 0.09927 0.78209 0.0
H2152 H 0.36397 0.03064 0.7635 0.0
H2153 H 0.34457 0.06069 0.75656 0.0
H2154 H 0.30309 1.01174 0.89927 0.0
H2155 H 0.28599 0.04326 0.89441 0.0
H2156 H 0.3467 0.99881 0.89588 0.0
H2157 H 0.36558 0.9856 0.86554 0.0
C2158 C 0.46661 0.97614 0.02359 0.0
C2159 C 0.45232 0.97288 0.05173 0.0
C2160 C 0.49161 1.01578 0.07855 0.0
C2161 C 0.50693 1.01811 0.05087 0.0
N2162 N 0.5127 0.99702 0.99919 0.0
N2163 N 0.45303 0.98625 0.10737 0.0
C2164 C 0.49542 0.99733 0.02396 0.0
C2165 C 0.46541 0.99173 0.07967 0.0
N2166 N 0.45209 0.9596 0.99617 0.0
N2167 N 0.50144 0.03719 0.10329 0.0
H2168 H 0.43357 0.96914 0.10885 0.0
H2169 H 0.46335 0.99706 0.12937 0.0
H2170 H 0.52066 0.05492 0.1033 0.0
H2171 H 0.4893 0.03876 0.12278 0.0
H2172 H 0.45908 0.96358 0.97393 0.0
H2173 H 0.43153 0.94314 0.99521 0.0
H2174 H 0.50802 0.98 0.98098 0.0
H2175 H 0.53321 1.01275 0.99794 0.0
C2176 C 0.95403 0.66355 0.81466 0.0
C2177 C 0.97916 0.67166 0.79612 0.0
C2178 C 0.94122 0.68461 0.75309 0.0
C2179 C 0.91662 0.67795 0.77241 0.0
N2180 N 0.89683 0.65341 0.81656 0.0
N2181 N 0.99644 0.68466 0.74587 0.0
C2182 C 0.92225 0.66481 0.8016 0.0
C2183 C 0.97256 0.68016 0.76453 0.0
N2184 N 0.96056 0.65512 0.84494 0.0
N2185 N 0.93485 0.69662 0.7246 0.0
H2186 H 1.02015 0.68392 0.75421 0.0
H2187 H 0.99281 0.68782 0.72169 0.0
H2188 H 0.91204 0.69949 0.71535 0.0
H2189 H 0.95202 0.7045 0.71033 0.0
H2190 H 0.94411 0.65268 0.86102 0.0
H2191 H 0.98298 0.65174 0.8548 0.0
H2192 H 0.89851 0.64111 0.83656 0.0
H2193 H 0.87333 0.65388 0.807 0.0
C2194 C 0.96876 0.65377 0.07883 0.0
C2195 C 0.94898 0.65691 0.04952 0.0
C2196 C 0.9881 0.63166 0.02248 0.0
C2197 C 1.00618 0.62613 0.05193 0.0
N2198 N 1.00749 0.62831 0.10876 0.0
N2199 N 0.93998 0.64439 0.99301 0.0
C2200 C 0.9948 0.63655 0.08013 0.0
C2201 C 0.95874 0.64427 0.02145 0.0
N2202 N 0.96268 0.66718 0.10619 0.0
N2203 N 1.00009 0.62671 0.99488 0.0
H2204 H 0.92048 0.65514 0.9904 0.0
H2205 H 0.94249 0.63222 0.97241 0.0
H2206 H 1.02129 0.61882 0.99427 0.0
H2207 H 0.99104 0.6334 0.97301 0.0
H2208 H 0.97817 0.66975 0.12751 0.0
H2209 H 0.94309 0.67755 0.10715 0.0
H2210 H 0.99841 0.63167 0.12992 0.0
H2211 H 1.02503 0.61516 0.11094 0.0
C2212 C 0.30778 0.19574 0.8333 0.0
C2213 C 0.2772 0.19082 0.84327 0.0
C2214 C 0.27769 0.24471 0.84555 0.0
C2215 C 0.30587 0.24898 0.83095 0.0
N2216 N 0.3457 0.22808 0.80677 0.0
N2217 N 0.23128 0.20978 0.8565 0.0
C2218 C 0.32059 0.22442 0.82389 0.0
C2219 C 0.2617 0.21509 0.84903 0.0
N2220 N 0.32494 0.17321 0.83373 0.0
N2221 N 0.26677 0.26897 0.85691 0.0
H2222 H 0.21896 0.18835 0.85966 0.0
H2223 H 0.21744 0.2263 0.85727 0.0
H2224 H 0.27801 0.29104 0.85489 0.0
H2225 H 0.24862 0.26718 0.87115 0.0
H2226 H 0.34861 0.17629 0.82951 0.0
H2227 H 0.3166 0.15223 0.84169 0.0
H2228 H 0.3549 0.2102 0.79793 0.0
H2229 H 0.35565 0.24866 0.79895 0.0
C2230 C 0.48859 0.04966 0.32065 0.0
C2231 C 0.5146 0.0621 0.34439 0.0
C2232 C 0.51413 1.01274 0.36553 0.0
C2233 C 0.48717 1.00061 0.34267 0.0
N2234 N 0.44445 1.00843 0.30318 0.0
N2235 N 0.54914 0.05726 0.39249 0.0
C2236 C 0.47319 1.01934 0.32152 0.0
C2237 C 0.52634 0.04419 0.36792 0.0
N2238 N 0.47874 0.06675 0.29706 0.0
N2239 N 0.52883 0.99401 0.38399 0.0
H2240 H 0.55954 0.08 0.39431 0.0
H2241 H 0.55621 0.04614 0.41226 0.0
H2242 H 0.52067 0.97088 0.3827 0.0
H2243 H 0.5504 1.0009 0.39887 0.0
H2244 H 0.46272 0.05798 0.27689 0.0
H2245 H 0.48803 0.08953 0.29657 0.0
H2246 H 0.43127 1.0218 0.28991 0.0
H2247 H 0.4322 0.98641 0.30338 0.0
C2248 C 0.59565 0.46287 0.61453 0.0
C2249 C 0.62167 0.45116 0.60491 0.0
C2250 C 0.60989 0.46823 0.55175 0.0
C2251 C 0.58895 0.48536 0.56343 0.0
N2252 N 0.56032 0.49835 0.60565 0.0
N2253 N 0.65419 0.44264 0.56445 0.0
C2254 C 0.58081 0.482 0.59454 0.0
C2255 C 0.62867 0.45334 0.57332 0.0
N2256 N 0.58468 0.45515 0.64241 0.0
N2257 N 0.61154 0.46637 0.51989 0.0
H2258 H 0.66849 0.43165 0.57971 0.0
H2259 H 0.66257 0.44659 0.5428 0.0
H2260 H 0.597 0.47656 0.50393 0.0
H2261 H 0.62462 0.45256 0.50919 0.0
H2262 H 0.56379 0.46045 0.64909 0.0
H2263 H 0.59479 0.441 0.65758 0.0
H2264 H 0.5572 0.50041 0.6295 0.0
H2265 H 0.5471 0.51072 0.59107 0.0
C2266 C 0.39964 0.72622 0.36542 0.0
C2267 C 0.42937 0.72442 0.35499 0.0
C2268 C 0.41064 0.74002 0.30272 0.0
C2269 C 0.38288 0.74558 0.31453 0.0
N2270 N 0.34459 0.73105 0.35051 0.0
N2271 N 0.45725 0.71666 0.3107 0.0
C2272 C 0.37509 0.73403 0.34356 0.0
C2273 C 0.4326 0.72663 0.32234 0.0
N2274 N 0.39544 0.72289 0.39647 0.0
N2275 N 0.41656 0.74889 0.27345 0.0
H2276 H 0.47315 0.70636 0.32499 0.0
H2277 H 0.45999 0.71592 0.2867 0.0
H2278 H 0.39983 0.75738 0.2582 0.0
H2279 H 0.43813 0.74869 0.26486 0.0
H2280 H 0.37628 0.72888 0.40625 0.0
H2281 H 0.41138 0.71497 0.41292 0.0
H2282 H 0.33712 0.72082 0.3704 0.0
H2283 H 0.32584 0.7354 0.33451 0.0
C2284 C 0.19918 0.81551 0.17333 0.0
C2285 C 0.17475 0.8295 0.15866 0.0
C2286 C 0.1468 0.78169 0.13134 0.0
C2287 C 0.17186 0.76791 0.14509 0.0
N2288 N 0.22575 0.77299 0.17155 0.0
N2289 N 0.13005 0.82814 0.11778 0.0
C2290 C 0.19934 0.78526 0.16368 0.0
C2291 C 0.15006 0.81326 0.1357 0.0
N2292 N 0.22104 0.83037 0.19775 0.0
N2293 N 0.11928 0.76457 0.11547 0.0
H2294 H 0.13216 0.85142 0.12015 0.0
H2295 H 0.11354 0.81787 0.09853 0.0
H2296 H 0.1158 0.7413 0.11171 0.0
H2297 H 0.09889 0.77318 0.10815 0.0
H2298 H 0.23673 0.81981 0.21186 0.0
H2299 H 0.22193 0.85265 0.20552 0.0
H2300 H 0.24752 0.78546 0.18259 0.0
H2301 H 0.22677 0.75108 0.16388 0.0
C2302 C 0.09581 0.23471 0.82019 0.0
C2303 C 0.10521 0.2402 0.85351 0.0
C2304 C 0.15887 0.26404 0.84556 0.0
C2305 C 0.14931 0.25959 0.81219 0.0
N2306 N 0.11233 0.23452 0.76757 0.0
N2307 N 0.14714 0.25083 0.89791 0.0
C2308 C 0.11894 0.24265 0.79944 0.0
C2309 C 0.13738 0.25169 0.86613 0.0
N2310 N 0.06452 0.22378 0.80842 0.0
N2311 N 0.18767 0.28163 0.85761 0.0
H2312 H 0.13157 0.24155 0.91327 0.0
H2313 H 0.17094 0.25635 0.90828 0.0
H2314 H 0.20441 0.29099 0.84342 0.0
H2315 H 0.19418 0.28863 0.88163 0.0
H2316 H 0.05541 0.22276 0.7844 0.0
H2317 H 0.04719 0.21691 0.82296 0.0
H2318 H 0.09165 0.21993 0.75709 0.0
H2319 H 0.12891 0.24046 0.75195 0.0
C2320 C 0.56916 0.7081 0.96513 0.0
C2321 C 0.59563 0.73307 0.97429 0.0
C2322 C 0.61641 0.69703 1.01356 0.0
C2323 C 0.59121 0.67145 1.00266 0.0
N2324 N 0.54559 0.65425 0.96299 0.0
N2325 N 0.64798 0.74607 1.00476 0.0
C2326 C 0.56853 0.67768 0.97682 0.0
C2327 C 0.61989 0.7259 0.99807 0.0
N2328 N 0.54291 0.71368 0.9464 0.0
N2329 N 0.63799 0.69391 0.03911 0.0
H2330 H 0.65224 0.76624 0.99397 0.0
H2331 H 0.66828 0.74157 1.01834 0.0
H2332 H 0.63869 0.67348 0.04906 0.0
H2333 H 0.65398 0.7119 0.05162 0.0
H2334 H 0.5214 0.69841 0.9415 0.0
H2335 H 0.54131 0.73478 0.93856 0.0
H2336 H 0.53094 0.65532 0.94174 0.0
H2337 H 0.5427 0.63297 0.97161 0.0
C2338 C 0.20677 0.85274 0.71047 0.0
C2339 C 0.1786 0.83343 0.71766 0.0
C2340 C 0.21521 0.81471 0.76033 0.0
C2341 C 0.24367 0.83145 0.75064 0.0
N2342 N 0.26435 0.86127 0.70977 0.0
N2343 N 0.15933 0.79049 0.74597 0.0
C2344 C 0.23869 0.84908 0.7239 0.0
C2345 C 0.18388 0.81298 0.74171 0.0
N2346 N 0.20337 0.87581 0.69165 0.0
N2347 N 0.21759 0.80123 0.78835 0.0
H2348 H 0.13685 0.78732 0.73242 0.0
H2349 H 0.16231 0.77298 0.76037 0.0
H2350 H 0.23914 0.8029 0.8033 0.0
H2351 H 0.19776 0.79136 0.79847 0.0
H2352 H 0.22246 0.89252 0.6882 0.0
H2353 H 0.18118 0.88023 0.68244 0.0
H2354 H 0.26216 0.87151 0.68837 0.0
H2355 H 0.28747 0.85813 0.71729 0.0
C2356 C 0.12238 0.45037 0.46567 0.0
C2357 C 0.10502 0.42288 0.47595 0.0
C2358 C 0.0866 0.45833 0.51584 0.0
C2359 C 0.10209 0.4858 0.50398 0.0
N2360 N 0.13128 0.50514 0.46242 0.0
N2361 N 0.06466 0.4042 0.50817 0.0
C2362 C 0.11865 0.48069 0.47729 0.0
C2363 C 0.08585 0.42811 0.50053 0.0
N2364 N 0.14442 0.4479 0.44577 0.0
N2365 N 0.07178 0.4608 0.5421 0.0
H2366 H 0.06226 0.38266 0.49751 0.0
H2367 H 0.0471 0.40612 0.52245 0.0
H2368 H 0.06904 0.48135 0.55217 0.0
H2369 H 0.06396 0.44269 0.55509 0.0
H2370 H 0.16063 0.46611 0.43997 0.0
H2371 H 0.14899 0.42733 0.43772 0.0
H2372 H 0.13941 0.50365 0.44046 0.0
H2373 H 0.13154 0.52706 0.47098 0.0
C2374 C 0.47399 0.30255 0.22878 0.0
C2375 C 0.49274 0.32959 0.21958 0.0
C2376 C 0.45403 0.35659 0.24538 0.0
C2377 C 0.43611 0.32955 0.25597 0.0
N2378 N 0.43825 0.27803 0.26432 0.0
N2379 N 0.50184 0.38339 0.22539 0.0
C2380 C 0.44866 0.30296 0.24911 0.0
C2381 C 0.48303 0.35674 0.23 0.0
N2382 N 0.48031 0.27577 0.21815 0.0
N2383 N 0.44269 0.38258 0.24856 0.0
H2384 H 0.52153 0.38468 0.21317 0.0
H2385 H 0.49949 0.40397 0.23568 0.0
H2386 H 0.42252 0.38409 0.2592 0.0
H2387 H 0.45138 0.40205 0.238 0.0
H2388 H 0.46582 0.25518 0.22055 0.0
H2389 H 0.49884 0.27435 0.20487 0.0
H2390 H 0.44912 0.25934 0.26449 0.0
H2391 H 0.42124 0.2774 0.2798 0.0
C2392 C 0.69245 0.5565 0.45756 0.0
C2393 C 0.6942 0.57915 0.43567 0.0
C2394 C 0.64379 0.59129 0.44815 0.0
C2395 C 0.64188 0.5683 0.46954 0.0
N2396 N 0.65922 0.52421 0.48877 0.0
N2397 N 0.66775 0.61265 0.40388 0.0
C2398 C 0.66453 0.54925 0.47223 0.0
C2399 C 0.66876 0.59502 0.42909 0.0
N2400 N 0.71812 0.54318 0.46575 0.0
N2401 N 0.62213 0.60996 0.44662 0.0
H2402 H 0.68514 0.61556 0.38876 0.0
H2403 H 0.64813 0.62214 0.39599 0.0
H2404 H 0.6023 0.60658 0.45873 0.0
H2405 H 0.62466 0.62957 0.43466 0.0
H2406 H 0.71941 0.52885 0.48411 0.0
H2407 H 0.73943 0.54846 0.45616 0.0
H2408 H 0.67302 0.50762 0.4887 0.0
H2409 H 0.63905 0.51873 0.50004 0.0
C2410 C 0.33212 0.86673 0.15145 0.0
C2411 C 0.35982 0.86526 0.13683 0.0
C2412 C 0.38335 0.84418 0.18497 0.0
C2413 C 0.35476 0.84376 0.19859 0.0
N2414 N 0.30006 0.85097 0.1927 0.0
N2415 N 0.4098 0.84843 0.13757 0.0
C2416 C 0.32854 0.85367 0.18104 0.0
C2417 C 0.38494 0.85292 0.15311 0.0
N2418 N 0.31009 0.88251 0.1383 0.0
N2419 N 0.4091 0.83628 0.20251 0.0
H2420 H 0.41141 0.85402 0.11422 0.0
H2421 H 0.42735 0.83686 0.14659 0.0
H2422 H 0.40822 0.82798 0.22493 0.0
H2423 H 0.43182 0.8395 0.19575 0.0
H2424 H 0.29186 0.88805 0.14996 0.0
H2425 H 0.31151 0.89263 0.11691 0.0
H2426 H 0.27903 0.85391 0.17918 0.0
H2427 H 0.29679 0.84411 0.21528 0.0
C2428 C 0.09275 0.68273 0.95595 0.0
C2429 C 0.11077 0.67464 0.9325 0.0
C2430 C 0.13828 0.64547 0.96978 0.0
C2431 C 0.11479 0.64732 0.98987 0.0
N2432 N 0.07352 0.67152 1.00622 0.0
N2433 N 0.1613 0.66333 0.9232 0.0
C2434 C 0.09367 0.66778 0.98463 0.0
C2435 C 0.13729 0.661 0.94158 0.0
N2436 N 0.07579 0.7051 0.95098 0.0
N2437 N 0.1601 0.62749 0.97677 0.0
H2438 H 0.16128 0.6762 0.90346 0.0
H2439 H 0.18237 0.65541 0.92921 0.0
H2440 H 0.16196 0.61685 0.99801 0.0
H2441 H 0.17556 0.62239 0.96129 0.0
H2442 H 0.06309 0.71317 0.96764 0.0
H2443 H 0.07765 0.718 0.93138 0.0
H2444 H 0.05495 0.6833 1.0023 0.0
H2445 H 0.07508 0.66204 0.02812 0.0
C2446 C 0.38352 0.27731 0.65912 0.0
C2447 C 0.35733 0.25647 0.64112 0.0
C2448 C 0.32628 0.26515 0.68669 0.0
C2449 C 0.35154 0.28775 0.70342 0.0
N2450 N 0.40316 0.31794 0.70098 0.0
N2451 N 0.30119 0.23569 0.63725 0.0
C2452 C 0.37983 0.29432 0.68825 0.0
C2453 C 0.32814 0.25185 0.65502 0.0
N2454 N 0.41282 0.28004 0.64926 0.0
N2455 N 0.30055 0.25505 0.70171 0.0
H2456 H 0.30098 0.22628 0.61436 0.0
H2457 H 0.27846 0.23415 0.64377 0.0
H2458 H 0.29821 0.26356 0.72432 0.0
H2459 H 0.28309 0.23636 0.6932 0.0
H2460 H 0.43379 0.29171 0.66267 0.0
H2461 H 0.41667 0.26829 0.62891 0.0
H2462 H 0.4227 0.32654 0.68981 0.0
H2463 H 0.40149 0.33081 0.72146 0.0
C2464 C 0.661 0.56834 0.30623 0.0
C2465 C 0.69294 0.56979 0.30046 0.0
C2466 C 0.67555 0.56698 0.24308 0.0
C2467 C 0.64494 0.57109 0.24945 0.0
N2468 N 0.607 0.57075 0.28696 0.0
N2469 N 0.73134 0.56954 0.26386 0.0
C2470 C 0.63709 0.56986 0.28072 0.0
C2471 C 0.70033 0.56793 0.26894 0.0
N2472 N 0.65351 0.56636 0.33643 0.0
N2473 N 0.68093 0.56276 0.21231 0.0
H2474 H 0.74999 0.56966 0.28217 0.0
H2475 H 0.73905 0.57222 0.24176 0.0
H2476 H 0.66352 0.56272 0.19283 0.0
H2477 H 0.70166 0.55683 0.20599 0.0
H2478 H 0.63038 0.56598 0.34168 0.0
H2479 H 0.67021 0.56389 0.35577 0.0
H2480 H 0.58785 0.57147 0.26939 0.0
H2481 H 0.58785 0.57147 0.26939 0.0
C2482 C 0.34551 0.89784 0.93235 0.0
C2483 C 0.34958 0.87765 0.95662 0.0
C2484 C 0.34921 0.83801 0.9148 0.0
C2485 C 0.34101 0.85706 0.89052 0.0
N2486 N 0.32477 0.90367 0.8776 0.0
N2487 N 0.34777 0.82631 0.96972 0.0
C2488 C 0.33724 0.88657 0.89974 0.0
C2489 C 0.34923 0.8471 0.94747 0.0
N2490 N 0.35122 0.92806 0.94005 0.0
N2491 N 0.35889 0.8119 0.90711 0.0
H2492 H 0.34657 0.83165 0.99361 0.0
H2493 H 0.34419 0.8033 0.9638 0.0
H2494 H 0.36106 0.80487 0.88397 0.0
H2495 H 0.36829 0.79893 0.92414 0.0
H2496 H 0.35175 0.94386 0.92302 0.0
H2497 H 0.35903 0.93757 0.96316 0.0
H2498 H 0.31871 0.92422 0.88349 0.0
H2499 H 0.31722 0.89592 0.85386 0.0
C2500 C 0.16515 0.67458 0.78748 0.0
C2501 C 0.13633 0.68553 0.78187 0.0
C2502 C 0.13504 0.67794 0.72481 0.0
C2503 C 0.15932 0.66078 0.73075 0.0
N2504 N 0.20526 0.65209 0.7647 0.0
N2505 N 0.10419 0.71163 0.74692 0.0
C2506 C 0.17751 0.66285 0.76118 0.0
C2507 C 0.12511 0.69245 0.75097 0.0
N2508 N 0.17875 0.67343 0.81813 0.0
N2509 N 0.11973 0.67786 0.69461 0.0
H2510 H 0.09762 0.72283 0.76626 0.0
H2511 H 0.09629 0.71881 0.7249 0.0
H2512 H 0.12732 0.66777 0.67515 0.0
H2513 H 0.09926 0.68684 0.68903 0.0
H2514 H 0.19841 0.66358 0.82466 0.0
H2515 H 0.16974 0.68271 0.83719 0.0
H2516 H 0.22047 0.65354 0.78607 0.0
H2517 H 0.21408 0.64356 0.74517 0.0
C2518 C 0.35299 0.28365 0.45042 0.0
C2519 C 0.35986 0.25391 0.45299 0.0
C2520 C 0.36202 0.25411 0.39313 0.0
C2521 C 0.35765 0.28479 0.39102 0.0
N2522 N 0.35515 0.32974 0.4226 0.0
N2523 N 0.37795 0.21437 0.42508 0.0
C2524 C 0.35524 0.2997 0.4212 0.0
C2525 C 0.36599 0.24021 0.42369 0.0
N2526 N 0.34207 0.29642 0.47551 0.0
N2527 N 0.36301 0.23771 0.36568 0.0
H2528 H 0.38258 0.20421 0.44621 0.0
H2529 H 0.38667 0.20479 0.40611 0.0
H2530 H 0.36437 0.24709 0.34391 0.0
H2531 H 0.36103 0.21448 0.36424 0.0
H2532 H 0.33274 0.316 0.47435 0.0
H2533 H 0.3389 0.28577 0.49636 0.0
H2534 H 0.35784 0.3428 0.44393 0.0
H2535 H 0.35498 0.34228 0.40278 0.0
C2536 C 0.38886 0.67604 0.47873 0.0
C2537 C 0.39203 0.68557 0.51149 0.0
C2538 C 0.4298 0.65216 0.52466 0.0
C2539 C 0.42701 0.64292 0.49182 0.0
N2540 N 0.40836 0.64901 0.43702 0.0
N2541 N 0.4192 0.68743 0.56488 0.0
C2542 C 0.40794 0.65586 0.46864 0.0
C2543 C 0.41377 0.67513 0.53423 0.0
N2544 N 0.3669 0.6857 0.45744 0.0
N2545 N 0.44706 0.63831 0.54673 0.0
H2546 H 0.40742 0.70398 0.57261 0.0
H2547 H 0.43703 0.6831 0.58204 0.0
H2548 H 0.46022 0.62228 0.54063 0.0
H2549 H 0.44711 0.6414 0.57115 0.0
H2550 H 0.36026 0.67674 0.43404 0.0
H2551 H 0.35406 0.70198 0.46358 0.0
H2552 H 0.39747 0.65971 0.41877 0.0
H2553 H 0.42139 0.6337 0.42888 0.0
C2554 C 0.94234 0.99195 0.53399 0.0
C2555 C 0.91978 1.00551 0.54896 0.0
C2556 C 0.9633 0.05202 0.55925 0.0
C2557 C 0.98678 0.03728 0.54744 0.0
N2558 N 0.99792 0.98963 0.52973 0.0
N2559 N 0.91279 0.04837 0.58089 0.0
C2560 C 0.9759 1.0063 0.53646 0.0
C2561 C 0.93148 0.03559 0.5628 0.0
N2562 N 0.93155 0.96563 0.51576 0.0
N2563 N 0.97078 0.08235 0.56599 0.0
H2564 H 0.89022 0.03743 0.58464 0.0
H2565 H 0.92086 0.06853 0.59469 0.0
H2566 H 0.99284 0.09513 0.56312 0.0
H2567 H 0.95414 0.09521 0.57123 0.0
H2568 H 0.94559 0.95616 0.50143 0.0
H2569 H 0.90762 0.95501 0.51201 0.0
H2570 H 0.99246 0.9664 0.52524 0.0
H2571 H 1.0223 0.99844 0.532 0.0
C2572 C 0.9289 0.13686 0.29358 0.0
C2573 C 0.90962 0.10783 0.28689 0.0
C2574 C 0.87303 0.12119 0.32199 0.0
C2575 C 0.88707 0.15173 0.32099 0.0
N2576 N 0.93868 0.18372 0.32635 0.0
N2577 N 0.86386 0.07134 0.29609 0.0
C2578 C 0.91852 0.15812 0.31323 0.0
C2579 C 0.88187 0.09957 0.30161 0.0
N2580 N 0.95623 0.14446 0.28017 0.0
N2581 N 0.85653 0.1123 0.34628 0.0
H2582 H 0.86979 0.0547 0.28149 0.0
H2583 H 0.84185 0.06537 0.30422 0.0
H2584 H 0.85705 0.12698 0.36607 0.0
H2585 H 0.84772 0.08986 0.34948 0.0
H2586 H 0.96943 0.16624 0.28175 0.0
H2587 H 0.96449 0.1294 0.26551 0.0
H2588 H 0.96283 0.18875 0.32387 0.0
H2589 H 0.93147 0.19834 0.34243 0.0
C2590 C 0.71739 0.16581 1.00265 0.0
C2591 C 0.73586 0.17931 0.03163 0.0
C2592 C 0.69691 0.15097 0.06153 0.0
C2593 C 0.68003 0.13523 0.03292 0.0
N2594 N 0.67775 0.12385 0.9766 0.0
N2595 N 0.74722 0.17868 0.08877 0.0
C2596 C 0.6913 0.14156 1.00352 0.0
C2597 C 0.72678 0.17018 0.06111 0.0
N2598 N 0.72384 0.17695 0.97436 0.0
N2599 N 0.68369 0.14889 0.08901 0.0
H2600 H 0.76997 0.19174 0.08963 0.0
H2601 H 0.74297 0.17005 0.11045 0.0
H2602 H 0.66169 0.13538 0.09029 0.0
H2603 H 0.69309 0.1627 0.10958 0.0
H2604 H 0.70922 0.17003 0.95282 0.0
H2605 H 0.74211 0.19515 0.97275 0.0
H2606 H 0.68698 0.12543 0.95512 0.0
H2607 H 0.65907 0.1056 0.97653 0.0
C2608 C 0.20217 0.45763 0.34228 0.0
C2609 C 0.19435 0.45562 0.30859 0.0
C2610 C 0.24367 0.43731 0.30352 0.0
C2611 C 0.25414 0.44491 0.33643 0.0
N2612 N 0.24417 0.46366 0.3874 0.0
N2613 N 0.21057 0.44784 0.25675 0.0
C2614 C 0.23352 0.45524 0.35601 0.0
C2615 C 0.21566 0.44626 0.28902 0.0
N2616 N 0.17936 0.46091 0.3611 0.0
N2617 N 0.26031 0.4212 0.28614 0.0
H2618 H 0.19126 0.45556 0.24484 0.0
H2619 H 0.22735 0.44435 0.24203 0.0
H2620 H 0.28072 0.41374 0.29602 0.0
H2621 H 0.25192 0.41252 0.26283 0.0
H2622 H 0.1828 0.45976 0.38569 0.0
H2623 H 0.15585 0.46159 0.3518 0.0
H2624 H 0.23142 0.47443 0.40205 0.0
H2625 H 0.26684 0.46179 0.39824 0.0
C2626 C 0.22467 0.51282 0.07969 0.0
C2627 C 0.23423 0.50163 0.05086 0.0
C2628 C 0.18883 0.52389 0.0222 0.0
C2629 C 0.17747 0.53271 0.05107 0.0
N2630 N 0.18336 0.52838 0.10777 0.0
N2631 N 0.22026 0.49414 0.99399 0.0
C2632 C 0.19539 0.52534 0.07982 0.0
C2633 C 0.21449 0.50633 0.02212 0.0
N2634 N 0.24355 0.51137 0.10775 0.0
N2635 N 0.17663 0.53405 0.99439 0.0
H2636 H 0.2395 0.48344 0.99223 0.0
H2637 H 0.20476 0.49282 0.9728 0.0
H2638 H 0.15962 0.54774 0.99324 0.0
H2639 H 0.1858 0.53177 0.97309 0.0
H2640 H 0.24113 0.52253 0.12901 0.0
H2641 H 0.26309 0.50066 0.10941 0.0
H2642 H 0.19241 0.52031 0.12889 0.0
H2643 H 0.16208 0.53585 0.10925 0.0
C2644 C 0.87705 0.96197 0.26818 0.0
C2645 C 0.8879 0.96459 0.23812 0.0
C2646 C 0.86949 0.91071 0.22462 0.0
C2647 C 0.86022 0.90799 0.25534 0.0
N2648 N 0.84686 0.93075 0.30272 0.0
N2649 N 0.88944 0.94397 0.18534 0.0
C2650 C 0.86125 0.93366 0.27589 0.0
C2651 C 0.88236 0.93969 0.21545 0.0
N2652 N 0.88355 0.98615 0.29004 0.0
N2653 N 0.86704 0.8855 0.20494 0.0
H2654 H 0.89888 0.96509 0.1783 0.0
H2655 H 0.88409 0.92733 0.16678 0.0
H2656 H 0.85606 0.86434 0.21054 0.0
H2657 H 0.87643 0.8852 0.18358 0.0
H2658 H 0.87996 0.98479 0.31373 0.0
H2659 H 0.89436 1.00758 0.28511 0.0
H2660 H 0.84387 0.94877 0.31731 0.0
H2661 H 0.83528 0.91004 0.30879 0.0
C2662 C 0.66304 0.0903 0.7334 0.0
C2663 C 0.66014 0.07869 0.76357 0.0
C2664 C 0.68837 0.12706 0.78994 0.0
C2665 C 0.69456 0.13732 0.75993 0.0
N2666 N 0.69251 0.127 0.70336 0.0
N2667 N 0.67491 0.08423 0.8207 0.0
C2668 C 0.6832 0.11847 0.73169 0.0
C2669 C 0.67401 0.0966 0.79194 0.0
N2670 N 0.64547 0.07507 0.70648 0.0
N2671 N 0.69543 0.14662 0.81643 0.0
H2672 H 0.66522 0.06188 0.82336 0.0
H2673 H 0.68791 0.09536 0.84161 0.0
H2674 H 0.70583 0.16918 0.8159 0.0
H2675 H 0.68831 0.14119 0.83831 0.0
H2676 H 0.64418 0.08399 0.6843 0.0
H2677 H 0.62955 0.05482 0.70676 0.0
H2678 H 0.68793 0.11265 0.68277 0.0
H2679 H 0.7073 0.14747 0.70103 0.0
loop_
_geom_bond_atom_site_label_1
_geom_bond_atom_site_label_2
_geom_bond_distance
_geom_bond_site_symmetry_2
_ccdc_geom_bond_type
In0 O1 2.294 . S
In0 O2 2.326 . S
In0 O6 2.266 . S
In0 O7 2.326 . S
In0 O8 2.266 . S
In0 O9 2.326 . S
In0 O11 2.294 . S
In0 O12 2.326 . S
O1 In0 2.294 . S
O1 C10 1.240 . S
O2 In0 2.326 . S
O2 C10 1.252 . S
C3 O6 1.252 1_655 S
C3 O7 1.260 1_655 S
C4 O11 1.240 . S
C4 O12 1.252 . S
C5 O8 1.252 . S
C5 O9 1.260 . S
O6 In0 2.266 . S
O6 C3 1.252 1_455 S
O7 In0 2.326 . S
O7 C3 1.260 1_455 S
O8 In0 2.266 . S
O8 C5 1.252 . S
O9 In0 2.326 . S
O9 C5 1.260 . S
C10 O1 1.240 . S
C10 O2 1.252 . S
O11 In0 2.294 . S
O11 C4 1.240 . S
O12 In0 2.326 . S
O12 C4 1.252 . S
In13 O14 2.294 . S
In13 O15 2.326 . S
In13 O19 2.266 . S
In13 O20 2.326 . S
In13 O21 2.266 . S
In13 O22 2.326 1_455 S
In13 O24 2.294 . S
In13 O25 2.326 . S
O14 In13 2.294 . S
O14 C23 1.240 . S
O15 In13 2.326 . S
O15 C23 1.252 . S
C16 O19 1.252 . S
C16 O20 1.260 . S
C17 O24 1.240 . S
C17 O25 1.252 . S
C18 O21 1.252 1_655 S
C18 O22 1.260 . S
O19 In13 2.266 . S
O19 C16 1.252 . S
O20 In13 2.326 . S
O20 C16 1.260 . S
O21 In13 2.266 . S
O21 C18 1.252 1_455 S
O22 In13 2.326 1_655 S
O22 C18 1.260 . S
C23 O14 1.240 . S
C23 O15 1.252 . S
O24 In13 2.294 . S
O24 C17 1.240 . S
O25 In13 2.326 . S
O25 C17 1.252 . S
In26 O27 2.294 . S
In26 O28 2.326 . S
In26 O32 2.266 . S
In26 O33 2.326 . S
In26 O34 2.266 . S
In26 O35 2.326 . S
In26 O37 2.294 . S
In26 O38 2.326 . S
O27 In26 2.294 . S
O27 C36 1.240 . S
O28 In26 2.326 . S
O28 C36 1.252 . S
C29 O32 1.252 . S
C29 O33 1.260 . S
C30 O37 1.240 . S
C30 O38 1.252 . S
C31 O34 1.252 . S
C31 O35 1.260 . S
O32 In26 2.266 . S
O32 C29 1.252 . S
O33 In26 2.326 . S
O33 C29 1.260 . S
O34 In26 2.266 . S
O34 C31 1.252 . S
O35 In26 2.326 . S
O35 C31 1.260 . S
C36 O27 1.240 . S
C36 O28 1.252 . S
O37 In26 2.294 . S
O37 C30 1.240 . S
O38 In26 2.326 . S
O38 C30 1.252 . S
In39 O40 2.294 . S
In39 O41 2.326 . S
In39 O45 2.266 . S
In39 O46 2.326 . S
In39 O47 2.266 . S
In39 O48 2.326 . S
In39 O50 2.294 . S
In39 O51 2.326 . S
O40 In39 2.294 . S
O40 C49 1.240 . S
O41 In39 2.326 . S
O41 C49 1.252 . S
C42 O45 1.252 . S
C42 O46 1.260 . S
C43 O50 1.240 . S
C43 O51 1.252 . S
C44 O47 1.252 . S
C44 O48 1.260 . S
O45 In39 2.266 . S
O45 C42 1.252 . S
O46 In39 2.326 . S
O46 C42 1.260 . S
O47 In39 2.266 . S
O47 C44 1.252 . S
O48 In39 2.326 . S
O48 C44 1.260 . S
C49 O40 1.240 . S
C49 O41 1.252 . S
O50 In39 2.294 . S
O50 C43 1.240 . S
O51 In39 2.326 . S
O51 C43 1.252 . S
In52 O53 2.294 . S
In52 O54 2.326 . S
In52 O58 2.266 . S
In52 O59 2.326 . S
In52 O60 2.266 . S
In52 O61 2.326 . S
In52 O63 2.294 . S
In52 O64 2.326 . S
O53 In52 2.294 . S
O53 C62 1.240 . S
O54 In52 2.326 . S
O54 C62 1.252 . S
C55 O58 1.252 . S
C55 O59 1.260 . S
C56 O63 1.240 . S
C56 O64 1.252 . S
C57 O60 1.252 . S
C57 O61 1.260 . S
O58 In52 2.266 . S
O58 C55 1.252 . S
O59 In52 2.326 . S
O59 C55 1.260 . S
O60 In52 2.266 . S
O60 C57 1.252 . S
O61 In52 2.326 . S
O61 C57 1.260 . S
C62 O53 1.240 . S
C62 O54 1.252 . S
O63 In52 2.294 . S
O63 C56 1.240 . S
O64 In52 2.326 . S
O64 C56 1.252 . S
In65 O66 2.294 . S
In65 O67 2.326 . S
In65 O71 2.266 . S
In65 O72 2.326 . S
In65 O73 2.266 . S
In65 O74 2.326 . S
In65 O76 2.294 . S
In65 O77 2.326 . S
O66 In65 2.294 . S
O66 C75 1.240 . S
O67 In65 2.326 . S
O67 C75 1.252 . S
C68 O71 1.252 . S
C68 O72 1.260 . S
C69 O76 1.240 . S
C69 O77 1.252 . S
C70 O73 1.252 . S
C70 O74 1.260 . S
O71 In65 2.266 . S
O71 C68 1.252 . S
O72 In65 2.326 . S
O72 C68 1.260 . S
O73 In65 2.266 . S
O73 C70 1.252 . S
O74 In65 2.326 . S
O74 C70 1.260 . S
C75 O66 1.240 . S
C75 O67 1.252 . S
O76 In65 2.294 . S
O76 C69 1.240 . S
O77 In65 2.326 . S
O77 C69 1.252 . S
In78 O79 2.294 . S
In78 O80 2.326 . S
In78 O84 2.266 . S
In78 O85 2.326 . S
In78 O86 2.266 . S
In78 O87 2.326 . S
In78 O89 2.294 . S
In78 O90 2.326 . S
O79 In78 2.294 . S
O79 C88 1.240 . S
O80 In78 2.326 . S
O80 C88 1.252 . S
C81 O84 1.252 . S
C81 O85 1.260 . S
C82 O89 1.240 . S
C82 O90 1.252 . S
C83 O86 1.252 . S
C83 O87 1.260 . S
O84 In78 2.266 . S
O84 C81 1.252 . S
O85 In78 2.326 . S
O85 C81 1.260 . S
O86 In78 2.266 . S
O86 C83 1.252 . S
O87 In78 2.326 . S
O87 C83 1.260 . S
C88 O79 1.240 . S
C88 O80 1.252 . S
O89 In78 2.294 . S
O89 C82 1.240 . S
O90 In78 2.326 . S
O90 C82 1.252 . S
In91 O92 2.294 . S
In91 O93 2.333 1_455 S
In91 O97 2.265 . S
In91 O98 2.331 . S
In91 O99 2.264 1_455 S
In91 O100 2.323 1_455 S
In91 O102 2.296 . S
In91 O103 2.329 . S
O92 In91 2.294 . S
O92 C101 1.240 . S
O93 In91 2.333 1_655 S
O93 C101 1.251 1_655 S
C94 O97 1.252 . S
C94 O98 1.255 . S
C95 O102 1.240 . S
C95 O103 1.252 . S
C96 O99 1.252 . S
C96 O100 1.260 . S
O97 In91 2.265 . S
O97 C94 1.252 . S
O98 In91 2.331 . S
O98 C94 1.255 . S
O99 In91 2.264 1_655 S
O99 C96 1.252 . S
O100 In91 2.323 1_655 S
O100 C96 1.260 . S
C101 O92 1.240 . S
C101 O93 1.251 1_455 S
O102 In91 2.296 . S
O102 C95 1.240 . S
O103 In91 2.329 . S
O103 C95 1.252 . S
In104 O105 2.294 . S
In104 O106 2.326 . S
In104 O110 2.266 . S
In104 O111 2.326 . S
In104 O112 2.266 . S
In104 O113 2.326 . S
In104 O115 2.294 . S
In104 O116 2.326 . S
O105 In104 2.294 . S
O105 C114 1.240 . S
O106 In104 2.326 . S
O106 C114 1.252 . S
C107 O110 1.252 . S
C107 O111 1.260 . S
C108 O115 1.240 . S
C108 O116 1.252 . S
C109 O112 1.252 . S
C109 O113 1.260 . S
O110 In104 2.266 . S
O110 C107 1.252 . S
O111 In104 2.326 . S
O111 C107 1.260 . S
O112 In104 2.266 . S
O112 C109 1.252 . S
O113 In104 2.326 . S
O113 C109 1.260 . S
C114 O105 1.240 . S
C114 O106 1.252 . S
O115 In104 2.294 . S
O115 C108 1.240 . S
O116 In104 2.326 . S
O116 C108 1.252 . S
In117 O118 2.294 . S
In117 O119 2.326 . S
In117 O123 2.266 . S
In117 O124 2.326 . S
In117 O125 2.266 . S
In117 O126 2.326 . S
In117 O128 2.294 . S
In117 O129 2.326 . S
O118 In117 2.294 . S
O118 C127 1.240 . S
O119 In117 2.326 . S
O119 C127 1.252 . S
C120 O123 1.252 . S
C120 O124 1.260 . S
C121 O128 1.240 . S
C121 O129 1.252 . S
C122 O125 1.252 . S
C122 O126 1.260 . S
O123 In117 2.266 . S
O123 C120 1.252 . S
O124 In117 2.326 . S
O124 C120 1.260 . S
O125 In117 2.266 . S
O125 C122 1.252 . S
O126 In117 2.326 . S
O126 C122 1.260 . S
C127 O118 1.240 . S
C127 O119 1.252 . S
O128 In117 2.294 . S
O128 C121 1.240 . S
O129 In117 2.326 . S
O129 C121 1.252 . S
In130 O131 2.294 . S
In130 O132 2.326 . S
In130 O136 2.266 . S
In130 O137 2.326 . S
In130 O138 2.266 . S
In130 O139 2.326 . S
In130 O141 2.294 . S
In130 O142 2.326 . S
O131 In130 2.294 . S
O131 C140 1.240 . S
O132 In130 2.326 . S
O132 C140 1.252 . S
C133 O136 1.252 . S
C133 O137 1.260 . S
C134 O141 1.240 . S
C134 O142 1.252 . S
C135 O138 1.252 . S
C135 O139 1.260 . S
O136 In130 2.266 . S
O136 C133 1.252 . S
O137 In130 2.326 . S
O137 C133 1.260 . S
O138 In130 2.266 . S
O138 C135 1.252 . S
O139 In130 2.326 . S
O139 C135 1.260 . S
C140 O131 1.240 . S
C140 O132 1.252 . S
O141 In130 2.294 . S
O141 C134 1.240 . S
O142 In130 2.326 . S
O142 C134 1.252 . S
In143 O144 2.294 . S
In143 O145 2.326 . S
In143 O149 2.266 . S
In143 O150 2.326 . S
In143 O151 2.266 . S
In143 O152 2.326 . S
In143 O154 2.294 . S
In143 O155 2.326 . S
O144 In143 2.294 . S
O144 C153 1.240 . S
O145 In143 2.326 . S
O145 C153 1.252 . S
C146 O149 1.252 . S
C146 O150 1.260 . S
C147 O154 1.240 . S
C147 O155 1.252 . S
C148 O151 1.252 . S
C148 O152 1.260 . S
O149 In143 2.266 . S
O149 C146 1.252 . S
O150 In143 2.326 . S
O150 C146 1.260 . S
O151 In143 2.266 . S
O151 C148 1.252 . S
O152 In143 2.326 . S
O152 C148 1.260 . S
C153 O144 1.240 . S
C153 O145 1.252 . S
O154 In143 2.294 . S
O154 C147 1.240 . S
O155 In143 2.326 . S
O155 C147 1.252 . S
In156 O157 2.294 . S
In156 O158 2.326 . S
In156 O162 2.266 1_554 S
In156 O163 2.326 1_554 S
In156 O164 2.266 . S
In156 O165 2.326 . S
In156 O167 2.294 . S
In156 O168 2.326 . S
O157 In156 2.294 . S
O157 C166 1.240 . S
O158 In156 2.326 . S
O158 C166 1.252 . S
C159 O162 1.252 . S
C159 O163 1.260 . S
C160 O167 1.240 . S
C160 O168 1.252 . S
C161 O164 1.252 . S
C161 O165 1.260 . S
O162 In156 2.266 1_556 S
O162 C159 1.252 . S
O163 In156 2.326 1_556 S
O163 C159 1.260 . S
O164 In156 2.266 . S
O164 C161 1.252 . S
O165 In156 2.326 . S
O165 C161 1.260 . S
C166 O157 1.240 . S
C166 O158 1.252 . S
O167 In156 2.294 . S
O167 C160 1.240 . S
O168 In156 2.326 . S
O168 C160 1.252 . S
In169 O170 2.297 . S
In169 O171 2.327 . S
In169 O175 2.264 1_554 S
In169 O176 2.325 1_554 S
In169 O177 2.249 1_554 S
In169 O178 2.300 1_554 S
In169 O180 2.310 . S
In169 O181 2.352 . S
O170 In169 2.297 . S
O170 C179 1.240 . S
O171 In169 2.327 . S
O171 C179 1.252 . S
C172 O175 1.252 . S
C172 O176 1.260 . S
C173 O180 1.240 . S
C173 O181 1.252 . S
C174 O177 1.252 . S
C174 O178 1.260 . S
O175 In169 2.264 1_556 S
O175 C172 1.252 . S
O176 In169 2.325 1_556 S
O176 C172 1.260 . S
O177 In169 2.249 1_556 S
O177 C174 1.252 . S
O178 In169 2.300 1_556 S
O178 C174 1.260 . S
C179 O170 1.240 . S
C179 O171 1.252 . S
O180 In169 2.310 . S
O180 C173 1.240 . S
O181 In169 2.352 . S
O181 C173 1.252 . S
In182 O183 2.294 . S
In182 O184 2.326 . S
In182 O188 2.266 . S
In182 O189 2.326 . S
In182 O190 2.266 . S
In182 O191 2.326 . S
In182 O193 2.294 . S
In182 O194 2.326 . S
O183 In182 2.294 . S
O183 C192 1.240 . S
O184 In182 2.326 . S
O184 C192 1.252 . S
C185 O188 1.252 . S
C185 O189 1.260 . S
C186 O193 1.240 . S
C186 O194 1.252 . S
C187 O190 1.252 . S
C187 O191 1.260 . S
O188 In182 2.266 . S
O188 C185 1.252 . S
O189 In182 2.326 . S
O189 C185 1.260 . S
O190 In182 2.266 . S
O190 C187 1.252 . S
O191 In182 2.326 . S
O191 C187 1.260 . S
C192 O183 1.240 . S
C192 O184 1.252 . S
O193 In182 2.294 . S
O193 C186 1.240 . S
O194 In182 2.326 . S
O194 C186 1.252 . S
In195 O196 2.294 . S
In195 O197 2.326 . S
In195 O201 2.266 . S
In195 O202 2.326 . S
In195 O203 2.266 . S
In195 O204 2.326 . S
In195 O206 2.294 . S
In195 O207 2.326 . S
O196 In195 2.294 . S
O196 C205 1.240 . S
O197 In195 2.326 . S
O197 C205 1.252 . S
C198 O201 1.252 . S
C198 O202 1.260 . S
C199 O206 1.240 . S
C199 O207 1.252 . S
C200 O203 1.252 . S
C200 O204 1.260 . S
O201 In195 2.266 . S
O201 C198 1.252 . S
O202 In195 2.326 . S
O202 C198 1.260 . S
O203 In195 2.266 . S
O203 C200 1.252 . S
O204 In195 2.326 . S
O204 C200 1.260 . S
C205 O196 1.240 . S
C205 O197 1.252 . S
O206 In195 2.294 . S
O206 C199 1.240 . S
O207 In195 2.326 . S
O207 C199 1.252 . S
In208 O209 2.294 . S
In208 O210 2.327 . S
In208 O214 2.267 . S
In208 O215 2.325 1_545 S
In208 O216 2.264 1_545 S
In208 O217 2.322 1_545 S
In208 O219 2.296 . S
In208 O220 2.330 . S
O209 In208 2.294 . S
O209 C218 1.240 . S
O210 In208 2.327 . S
O210 C218 1.252 . S
C211 O214 1.252 1_565 S
C211 O215 1.260 . S
C212 O219 1.240 . S
C212 O220 1.252 . S
C213 O216 1.252 . S
C213 O217 1.260 . S
O214 In208 2.267 . S
O214 C211 1.252 1_545 S
O215 In208 2.325 1_565 S
O215 C211 1.260 . S
O216 In208 2.264 1_565 S
O216 C213 1.252 . S
O217 In208 2.322 1_565 S
O217 C213 1.260 . S
C218 O209 1.240 . S
C218 O210 1.252 . S
O219 In208 2.296 . S
O219 C212 1.240 . S
O220 In208 2.330 . S
O220 C212 1.252 . S
In221 O222 2.294 . S
In221 O223 2.326 . S
In221 O227 2.266 . S
In221 O228 2.326 . S
In221 O229 2.266 . S
In221 O230 2.326 . S
In221 O232 2.294 . S
In221 O233 2.326 . S
O222 In221 2.294 . S
O222 C231 1.240 . S
O223 In221 2.326 . S
O223 C231 1.252 . S
C224 O227 1.252 . S
C224 O228 1.260 . S
C225 O232 1.240 . S
C225 O233 1.252 . S
C226 O229 1.252 . S
C226 O230 1.260 . S
O227 In221 2.266 . S
O227 C224 1.252 . S
O228 In221 2.326 . S
O228 C224 1.260 . S
O229 In221 2.266 . S
O229 C226 1.252 . S
O230 In221 2.326 . S
O230 C226 1.260 . S
C231 O222 1.240 . S
C231 O223 1.252 . S
O232 In221 2.294 . S
O232 C225 1.240 . S
O233 In221 2.326 . S
O233 C225 1.252 . S
In234 O235 2.294 . S
In234 O236 2.326 . S
In234 O240 2.266 . S
In234 O241 2.326 . S
In234 O242 2.266 . S
In234 O243 2.326 . S
In234 O245 2.294 . S
In234 O246 2.326 . S
O235 In234 2.294 . S
O235 C244 1.240 . S
O236 In234 2.326 . S
O236 C244 1.252 . S
C237 O240 1.252 . S
C237 O241 1.260 . S
C238 O245 1.240 . S
C238 O246 1.252 . S
C239 O242 1.252 . S
C239 O243 1.260 . S
O240 In234 2.266 . S
O240 C237 1.252 . S
O241 In234 2.326 . S
O241 C237 1.260 . S
O242 In234 2.266 . S
O242 C239 1.252 . S
O243 In234 2.326 . S
O243 C239 1.260 . S
C244 O235 1.240 . S
C244 O236 1.252 . S
O245 In234 2.294 . S
O245 C238 1.240 . S
O246 In234 2.326 . S
O246 C238 1.252 . S
In247 O248 2.294 1_545 S
In247 O249 2.326 1_545 S
In247 O253 2.266 . S
In247 O254 2.326 . S
In247 O255 2.266 . S
In247 O256 2.326 . S
In247 O258 2.294 . S
In247 O259 2.326 . S
O248 In247 2.294 1_565 S
O248 C257 1.240 . S
O249 In247 2.326 1_565 S
O249 C257 1.252 . S
C250 O253 1.252 . S
C250 O254 1.260 . S
C251 O258 1.240 . S
C251 O259 1.252 . S
C252 O255 1.252 . S
C252 O256 1.260 . S
O253 In247 2.266 . S
O253 C250 1.252 . S
O254 In247 2.326 . S
O254 C250 1.260 . S
O255 In247 2.266 . S
O255 C252 1.252 . S
O256 In247 2.326 . S
O256 C252 1.260 . S
C257 O248 1.240 . S
C257 O249 1.252 . S
O258 In247 2.294 . S
O258 C251 1.240 . S
O259 In247 2.326 . S
O259 C251 1.252 . S
In260 O261 2.294 . S
In260 O262 2.326 . S
In260 O266 2.266 . S
In260 O267 2.326 . S
In260 O268 2.266 1_554 S
In260 O269 2.326 1_554 S
In260 O271 2.294 . S
In260 O272 2.326 . S
O261 In260 2.294 . S
O261 C270 1.240 . S
O262 In260 2.326 . S
O262 C270 1.252 . S
C263 O266 1.252 . S
C263 O267 1.260 . S
C264 O271 1.240 . S
C264 O272 1.252 . S
C265 O268 1.252 . S
C265 O269 1.260 . S
O266 In260 2.266 . S
O266 C263 1.252 . S
O267 In260 2.326 . S
O267 C263 1.260 . S
O268 In260 2.266 1_556 S
O268 C265 1.252 . S
O269 In260 2.326 1_556 S
O269 C265 1.260 . S
C270 O261 1.240 . S
C270 O262 1.252 . S
O271 In260 2.294 . S
O271 C264 1.240 . S
O272 In260 2.326 . S
O272 C264 1.252 . S
In273 O274 2.294 . S
In273 O275 2.326 1_655 S
In273 O279 2.266 . S
In273 O280 2.326 1_655 S
In273 O281 2.266 1_655 S
In273 O282 2.326 . S
In273 O284 2.294 1_655 S
In273 O285 2.326 . S
O274 In273 2.294 . S
O274 C283 1.240 . S
O275 In273 2.326 1_455 S
O275 C283 1.252 1_455 S
C276 O279 1.252 . S
C276 O280 1.260 1_655 S
C277 O284 1.240 . S
C277 O285 1.252 1_455 S
C278 O281 1.252 . S
C278 O282 1.260 1_455 S
O279 In273 2.266 . S
O279 C276 1.252 . S
O280 In273 2.326 1_455 S
O280 C276 1.260 1_455 S
O281 In273 2.266 1_455 S
O281 C278 1.252 . S
O282 In273 2.326 . S
O282 C278 1.260 1_655 S
C283 O274 1.240 . S
C283 O275 1.252 1_655 S
O284 In273 2.294 1_455 S
O284 C277 1.240 . S
O285 In273 2.326 . S
O285 C277 1.252 1_655 S
In286 O287 2.294 . S
In286 O288 2.326 . S
In286 O292 2.266 . S
In286 O293 2.326 . S
In286 O294 2.266 . S
In286 O295 2.326 . S
In286 O297 2.294 . S
In286 O298 2.326 . S
O287 In286 2.294 . S
O287 C296 1.240 . S
O288 In286 2.326 . S
O288 C296 1.252 . S
C289 O292 1.252 . S
C289 O293 1.260 . S
C290 O297 1.240 . S
C290 O298 1.252 . S
C291 O294 1.252 . S
C291 O295 1.260 . S
O292 In286 2.266 . S
O292 C289 1.252 . S
O293 In286 2.326 . S
O293 C289 1.260 . S
O294 In286 2.266 . S
O294 C291 1.252 . S
O295 In286 2.326 . S
O295 C291 1.260 . S
C296 O287 1.240 . S
C296 O288 1.252 . S
O297 In286 2.294 . S
O297 C290 1.240 . S
O298 In286 2.326 . S
O298 C290 1.252 . S
In299 O300 2.294 . S
In299 O301 2.326 . S
In299 O305 2.266 . S
In299 O306 2.326 . S
In299 O307 2.266 . S
In299 O308 2.326 . S
In299 O310 2.294 . S
In299 O311 2.326 . S
O300 In299 2.294 . S
O300 C309 1.240 . S
O301 In299 2.326 . S
O301 C309 1.252 . S
C302 O305 1.252 . S
C302 O306 1.260 . S
C303 O310 1.240 . S
C303 O311 1.252 . S
C304 O307 1.252 . S
C304 O308 1.260 . S
O305 In299 2.266 . S
O305 C302 1.252 . S
O306 In299 2.326 . S
O306 C302 1.260 . S
O307 In299 2.266 . S
O307 C304 1.252 . S
O308 In299 2.326 . S
O308 C304 1.260 . S
C309 O300 1.240 . S
C309 O301 1.252 . S
O310 In299 2.294 . S
O310 C303 1.240 . S
O311 In299 2.326 . S
O311 C303 1.252 . S
Tb312 C322 2.825 1_455 S
Tb312 O323 2.347 . S
Tb312 O326 2.366 . S
Tb312 O331 2.418 1_554 S
Tb312 O332 2.384 . S
Tb312 O335 2.479 1_454 S
Tb312 O336 2.471 1_455 S
Eu313 O324 2.418 . S
Eu313 O325 2.384 . S
Eu313 O328 2.479 . S
Eu313 O329 2.471 . S
Eu313 O330 2.347 . S
Eu313 O333 2.366 . S
Eu313 C343 2.825 . S
C314 O330 1.259 . S
C314 O331 1.265 1_554 S
C315 O332 1.255 . S
C315 O333 1.265 . S
C316 C318 1.380 . S
C316 C319 1.374 1_556 S
C316 C322 1.507 1_556 S
C317 C318 1.384 . S
C317 C321 1.387 . S
C317 H344 0.930 . S
C318 C316 1.380 . S
C318 C317 1.384 . S
C318 H345 0.931 . S
C319 C316 1.374 1_554 S
C319 C320 1.390 . S
C319 H346 0.930 . S
C320 C319 1.390 . S
C320 C321 1.391 1_554 S
C320 H347 0.930 . S
C321 C317 1.387 . S
C321 C320 1.391 1_556 S
C322 Tb312 2.825 1_655 S
C322 C316 1.507 1_554 S
C322 O335 1.238 1_554 S
C322 O336 1.247 . S
O323 Tb312 2.347 . S
O323 C327 1.259 . S
O324 Eu313 2.418 . S
O324 C327 1.265 . S
O325 Eu313 2.384 . S
O325 C334 1.255 . S
O326 Tb312 2.366 . S
O326 C334 1.265 . S
C327 O323 1.259 . S
C327 O324 1.265 . S
O328 Eu313 2.479 . S
O328 C343 1.238 . S
O329 Eu313 2.471 . S
O329 C343 1.247 . S
O330 Eu313 2.347 . S
O330 C314 1.259 . S
O331 Tb312 2.418 1_556 S
O331 C314 1.265 1_556 S
O332 Tb312 2.384 . S
O332 C315 1.255 . S
O333 Eu313 2.366 . S
O333 C315 1.265 . S
C334 O325 1.255 . S
C334 O326 1.265 . S
O335 Tb312 2.479 1_656 S
O335 C322 1.238 1_556 S
O336 Tb312 2.471 1_655 S
O336 C322 1.247 . S
C337 C340 1.380 . S
C337 C341 1.374 . S
C337 C343 1.507 . S
C338 C339 1.387 . S
C338 C342 1.391 . S
C339 C338 1.387 . S
C339 C340 1.384 . S
C339 H348 0.930 . S
C340 C337 1.380 . S
C340 C339 1.384 . S
C340 H349 0.931 . S
C341 C337 1.374 . S
C341 C342 1.390 . S
C341 H350 0.930 . S
C342 C338 1.391 . S
C342 C341 1.390 . S
C342 H351 0.930 . S
C343 Eu313 2.825 . S
C343 O328 1.238 . S
C343 O329 1.247 . S
C343 C337 1.507 . S
H344 C317 0.930 . S
H345 C318 0.931 . S
H346 C319 0.930 . S
H347 C320 0.930 . S
H348 C339 0.930 . S
H349 C340 0.931 . S
H350 C341 0.930 . S
H351 C342 0.930 . S
Tb352 C362 2.825 . S
Tb352 O363 2.347 . S
Tb352 O366 2.366 . S
Tb352 O371 2.418 . S
Tb352 O372 2.384 . S
Tb352 O375 2.479 . S
Tb352 O376 2.471 . S
Eu353 O364 2.418 . S
Eu353 O365 2.384 . S
Eu353 O368 2.479 . S
Eu353 O369 2.471 . S
Eu353 O370 2.347 . S
Eu353 O373 2.366 . S
Eu353 C383 2.825 . S
C354 O370 1.259 . S
C354 O371 1.265 . S
C355 O372 1.255 . S
C355 O373 1.265 . S
C356 C358 1.380 . S
C356 C359 1.374 . S
C356 C362 1.507 . S
C357 C358 1.384 . S
C357 C361 1.387 . S
C357 H384 0.930 . S
C358 C356 1.380 . S
C358 C357 1.384 . S
C358 H385 0.931 . S
C359 C356 1.374 . S
C359 C360 1.390 . S
C359 H386 0.930 . S
C360 C359 1.390 . S
C360 C361 1.391 . S
C360 H387 0.930 . S
C361 C357 1.387 . S
C361 C360 1.391 . S
C362 Tb352 2.825 . S
C362 C356 1.507 . S
C362 O375 1.238 . S
C362 O376 1.247 . S
O363 Tb352 2.347 . S
O363 C367 1.259 . S
O364 Eu353 2.418 . S
O364 C367 1.265 . S
O365 Eu353 2.384 . S
O365 C374 1.255 . S
O366 Tb352 2.366 . S
O366 C374 1.265 . S
C367 O363 1.259 . S
C367 O364 1.265 . S
O368 Eu353 2.479 . S
O368 C383 1.238 . S
O369 Eu353 2.471 . S
O369 C383 1.247 . S
O370 Eu353 2.347 . S
O370 C354 1.259 . S
O371 Tb352 2.418 . S
O371 C354 1.265 . S
O372 Tb352 2.384 . S
O372 C355 1.255 . S
O373 Eu353 2.366 . S
O373 C355 1.265 . S
C374 O365 1.255 . S
C374 O366 1.265 . S
O375 Tb352 2.479 . S
O375 C362 1.238 . S
O376 Tb352 2.471 . S
O376 C362 1.247 . S
C377 C380 1.380 . S
C377 C381 1.374 . S
C377 C383 1.507 . S
C378 C379 1.387 . S
C378 C382 1.391 . S
C379 C378 1.387 . S
C379 C380 1.384 . S
C379 H388 0.930 . S
C380 C377 1.380 . S
C380 C379 1.384 . S
C380 H389 0.931 . S
C381 C377 1.374 . S
C381 C382 1.390 . S
C381 H390 0.930 . S
C382 C378 1.391 . S
C382 C381 1.390 . S
C382 H391 0.930 . S
C383 Eu353 2.825 . S
C383 O368 1.238 . S
C383 O369 1.247 . S
C383 C377 1.507 . S
H384 C357 0.930 . S
H385 C358 0.931 . S
H386 C359 0.930 . S
H387 C360 0.930 . S
H388 C379 0.930 . S
H389 C380 0.931 . S
H390 C381 0.930 . S
H391 C382 0.930 . S
Tb392 C402 2.825 1_545 S
Tb392 O403 2.347 . S
Tb392 O406 2.366 1_545 S
Tb392 O411 2.421 . S
Tb392 O412 2.384 . S
Tb392 O415 2.479 1_545 S
Tb392 O416 2.471 1_545 S
Eu393 O404 2.418 . S
Eu393 O405 2.384 . S
Eu393 O408 2.479 . S
Eu393 O409 2.471 . S
Eu393 O410 2.347 . S
Eu393 O413 2.366 . S
Eu393 C423 2.825 . S
C394 O410 1.259 . S
C394 O411 1.283 . S
C395 O412 1.255 . S
C395 O413 1.265 . S
C396 C398 1.380 . S
C396 C399 1.374 . S
C396 C402 1.507 . S
C397 C398 1.384 . S
C397 C401 1.387 . S
C397 H424 0.930 . S
C398 C396 1.380 . S
C398 C397 1.384 . S
C398 H425 0.931 . S
C399 C396 1.374 . S
C399 C400 1.390 . S
C399 H426 0.930 . S
C400 C399 1.390 . S
C400 C401 1.391 . S
C400 H427 0.930 . S
C401 C397 1.387 . S
C401 C400 1.391 . S
C402 Tb392 2.825 1_565 S
C402 C396 1.507 . S
C402 O415 1.238 . S
C402 O416 1.247 . S
O403 Tb392 2.347 . S
O403 C407 1.259 . S
O404 Eu393 2.418 . S
O404 C407 1.265 . S
O405 Eu393 2.384 . S
O405 C414 1.255 . S
O406 Tb392 2.366 1_565 S
O406 C414 1.265 1_565 S
C407 O403 1.259 . S
C407 O404 1.265 . S
O408 Eu393 2.479 . S
O408 C423 1.238 . S
O409 Eu393 2.471 . S
O409 C423 1.247 . S
O410 Eu393 2.347 . S
O410 C394 1.259 . S
O411 Tb392 2.421 . S
O411 C394 1.283 . S
O412 Tb392 2.384 . S
O412 C395 1.255 . S
O413 Eu393 2.366 . S
O413 C395 1.265 . S
C414 O405 1.255 . S
C414 O406 1.265 1_545 S
O415 Tb392 2.479 1_565 S
O415 C402 1.238 . S
O416 Tb392 2.471 1_565 S
O416 C402 1.247 . S
C417 C420 1.380 . S
C417 C421 1.374 . S
C417 C423 1.507 . S
C418 C419 1.387 . S
C418 C422 1.391 . S
C419 C418 1.387 . S
C419 C420 1.384 . S
C419 H428 0.930 . S
C420 C417 1.380 . S
C420 C419 1.384 . S
C420 H429 0.931 . S
C421 C417 1.374 . S
C421 C422 1.390 . S
C421 H430 0.930 . S
C422 C418 1.391 . S
C422 C421 1.390 . S
C422 H431 0.930 . S
C423 Eu393 2.825 . S
C423 O408 1.238 . S
C423 O409 1.247 . S
C423 C417 1.507 . S
H424 C397 0.930 . S
H425 C398 0.931 . S
H426 C399 0.930 . S
H427 C400 0.930 . S
H428 C419 0.930 . S
H429 C420 0.931 . S
H430 C421 0.930 . S
H431 C422 0.930 . S
Tb432 C442 2.825 . S
Tb432 O443 2.347 . S
Tb432 O446 2.366 . S
Tb432 O451 2.418 . S
Tb432 O452 2.384 . S
Tb432 O455 2.479 . S
Tb432 O456 2.471 . S
Eu433 O444 2.418 . S
Eu433 O445 2.384 . S
Eu433 O448 2.479 . S
Eu433 O449 2.471 . S
Eu433 O450 2.347 . S
Eu433 O453 2.366 . S
Eu433 C463 2.825 . S
C434 O450 1.259 . S
C434 O451 1.265 . S
C435 O452 1.255 . S
C435 O453 1.265 . S
C436 C438 1.380 . S
C436 C439 1.374 . S
C436 C442 1.507 . S
C437 C438 1.384 . S
C437 C441 1.387 . S
C437 H464 0.930 . S
C438 C436 1.380 . S
C438 C437 1.384 . S
C438 H465 0.931 . S
C439 C436 1.374 . S
C439 C440 1.390 . S
C439 H466 0.930 . S
C440 C439 1.390 . S
C440 C441 1.391 . S
C440 H467 0.930 . S
C441 C437 1.387 . S
C441 C440 1.391 . S
C442 Tb432 2.825 . S
C442 C436 1.507 . S
C442 O455 1.238 . S
C442 O456 1.247 . S
O443 Tb432 2.347 . S
O443 C447 1.259 . S
O444 Eu433 2.418 . S
O444 C447 1.265 . S
O445 Eu433 2.384 . S
O445 C454 1.255 . S
O446 Tb432 2.366 . S
O446 C454 1.265 . S
C447 O443 1.259 . S
C447 O444 1.265 . S
O448 Eu433 2.479 . S
O448 C463 1.238 . S
O449 Eu433 2.471 . S
O449 C463 1.247 . S
O450 Eu433 2.347 . S
O450 C434 1.259 . S
O451 Tb432 2.418 . S
O451 C434 1.265 . S
O452 Tb432 2.384 . S
O452 C435 1.255 . S
O453 Eu433 2.366 . S
O453 C435 1.265 . S
C454 O445 1.255 . S
C454 O446 1.265 . S
O455 Tb432 2.479 . S
O455 C442 1.238 . S
O456 Tb432 2.471 . S
O456 C442 1.247 . S
C457 C460 1.380 . S
C457 C461 1.374 . S
C457 C463 1.507 . S
C458 C459 1.387 . S
C458 C462 1.391 . S
C459 C458 1.387 . S
C459 C460 1.384 . S
C459 H468 0.930 . S
C460 C457 1.380 . S
C460 C459 1.384 . S
C460 H469 0.931 . S
C461 C457 1.374 . S
C461 C462 1.390 . S
C461 H470 0.930 . S
C462 C458 1.391 . S
C462 C461 1.390 . S
C462 H471 0.930 . S
C463 Eu433 2.825 . S
C463 O448 1.238 . S
C463 O449 1.247 . S
C463 C457 1.507 . S
H464 C437 0.930 . S
H465 C438 0.931 . S
H466 C439 0.930 . S
H467 C440 0.930 . S
H468 C459 0.930 . S
H469 C460 0.931 . S
H470 C461 0.930 . S
H471 C462 0.930 . S
Tb472 C482 2.825 . S
Tb472 O483 2.347 . S
Tb472 O486 2.366 . S
Tb472 O491 2.418 . S
Tb472 O492 2.384 1_545 S
Tb472 O495 2.479 . S
Tb472 O496 2.471 . S
Eu473 O484 2.418 . S
Eu473 O485 2.384 . S
Eu473 O488 2.479 . S
Eu473 O489 2.471 . S
Eu473 O490 2.347 . S
Eu473 O493 2.366 . S
Eu473 C503 2.825 . S
C474 O490 1.259 . S
C474 O491 1.265 . S
C475 O492 1.255 . S
C475 O493 1.265 1_565 S
C476 C478 1.380 . S
C476 C479 1.374 1_455 S
C476 C482 1.507 . S
C477 C478 1.384 . S
C477 C481 1.387 1_455 S
C477 H504 0.930 . S
C478 C476 1.380 . S
C478 C477 1.384 . S
C478 H505 0.931 . S
C479 C476 1.374 1_655 S
C479 C480 1.390 . S
C479 H506 0.930 . S
C480 C479 1.390 . S
C480 C481 1.391 . S
C480 H507 0.930 . S
C481 C477 1.387 1_655 S
C481 C480 1.391 . S
C482 Tb472 2.825 . S
C482 C476 1.507 . S
C482 O495 1.238 . S
C482 O496 1.247 . S
O483 Tb472 2.347 . S
O483 C487 1.259 1_455 S
O484 Eu473 2.418 . S
O484 C487 1.265 1_455 S
O485 Eu473 2.384 . S
O485 C494 1.255 . S
O486 Tb472 2.366 . S
O486 C494 1.265 . S
C487 O483 1.259 1_655 S
C487 O484 1.265 1_655 S
O488 Eu473 2.479 . S
O488 C503 1.238 . S
O489 Eu473 2.471 . S
O489 C503 1.247 . S
O490 Eu473 2.347 . S
O490 C474 1.259 . S
O491 Tb472 2.418 . S
O491 C474 1.265 . S
O492 Tb472 2.384 1_565 S
O492 C475 1.255 . S
O493 Eu473 2.366 . S
O493 C475 1.265 1_545 S
C494 O485 1.255 . S
C494 O486 1.265 . S
O495 Tb472 2.479 . S
O495 C482 1.238 . S
O496 Tb472 2.471 . S
O496 C482 1.247 . S
C497 C500 1.380 . S
C497 C501 1.374 . S
C497 C503 1.507 . S
C498 C499 1.387 . S
C498 C502 1.391 . S
C499 C498 1.387 . S
C499 C500 1.384 . S
C499 H508 0.930 . S
C500 C497 1.380 . S
C500 C499 1.384 . S
C500 H509 0.931 . S
C501 C497 1.374 . S
C501 C502 1.390 . S
C501 H510 0.930 . S
C502 C498 1.391 . S
C502 C501 1.390 . S
C502 H511 0.930 . S
C503 Eu473 2.825 . S
C503 O488 1.238 . S
C503 O489 1.247 . S
C503 C497 1.507 . S
H504 C477 0.930 . S
H505 C478 0.931 . S
H506 C479 0.930 . S
H507 C480 0.930 . S
H508 C499 0.930 . S
H509 C500 0.931 . S
H510 C501 0.930 . S
H511 C502 0.930 . S
Tb512 C522 2.825 . S
Tb512 O523 2.347 . S
Tb512 O526 2.366 . S
Tb512 O531 2.418 . S
Tb512 O532 2.384 . S
Tb512 O535 2.479 . S
Tb512 O536 2.471 . S
Eu513 O524 2.418 . S
Eu513 O525 2.384 . S
Eu513 O528 2.479 . S
Eu513 O529 2.471 . S
Eu513 O530 2.347 . S
Eu513 O533 2.366 . S
Eu513 C543 2.825 . S
C514 O530 1.259 . S
C514 O531 1.265 . S
C515 O532 1.255 . S
C515 O533 1.265 . S
C516 C518 1.380 . S
C516 C519 1.374 . S
C516 C522 1.507 . S
C517 C518 1.384 . S
C517 C521 1.387 . S
C517 H544 0.930 . S
C518 C516 1.380 . S
C518 C517 1.384 . S
C518 H545 0.931 . S
C519 C516 1.374 . S
C519 C520 1.390 . S
C519 H546 0.930 . S
C520 C519 1.390 . S
C520 C521 1.391 . S
C520 H547 0.930 . S
C521 C517 1.387 . S
C521 C520 1.391 . S
C522 Tb512 2.825 . S
C522 C516 1.507 . S
C522 O535 1.238 . S
C522 O536 1.247 . S
O523 Tb512 2.347 . S
O523 C527 1.259 . S
O524 Eu513 2.418 . S
O524 C527 1.265 . S
O525 Eu513 2.384 . S
O525 C534 1.255 . S
O526 Tb512 2.366 . S
O526 C534 1.265 . S
C527 O523 1.259 . S
C527 O524 1.265 . S
O528 Eu513 2.479 . S
O528 C543 1.238 . S
O529 Eu513 2.471 . S
O529 C543 1.247 . S
O530 Eu513 2.347 . S
O530 C514 1.259 . S
O531 Tb512 2.418 . S
O531 C514 1.265 . S
O532 Tb512 2.384 . S
O532 C515 1.255 . S
O533 Eu513 2.366 . S
O533 C515 1.265 . S
C534 O525 1.255 . S
C534 O526 1.265 . S
O535 Tb512 2.479 . S
O535 C522 1.238 . S
O536 Tb512 2.471 . S
O536 C522 1.247 . S
C537 C540 1.380 . S
C537 C541 1.374 . S
C537 C543 1.507 . S
C538 C539 1.387 . S
C538 C542 1.391 . S
C539 C538 1.387 . S
C539 C540 1.384 . S
C539 H548 0.930 . S
C540 C537 1.380 . S
C540 C539 1.384 . S
C540 H549 0.931 . S
C541 C537 1.374 . S
C541 C542 1.390 . S
C541 H550 0.930 . S
C542 C538 1.391 . S
C542 C541 1.390 . S
C542 H551 0.930 . S
C543 Eu513 2.825 . S
C543 O528 1.238 . S
C543 O529 1.247 . S
C543 C537 1.507 . S
H544 C517 0.930 . S
H545 C518 0.931 . S
H546 C519 0.930 . S
H547 C520 0.930 . S
H548 C539 0.930 . S
H549 C540 0.931 . S
H550 C541 0.930 . S
H551 C542 0.930 . S
Tb552 C562 2.825 . S
Tb552 O563 2.347 . S
Tb552 O566 2.366 . S
Tb552 O571 2.418 . S
Tb552 O572 2.384 . S
Tb552 O575 2.479 . S
Tb552 O576 2.471 . S
Eu553 O564 2.418 . S
Eu553 O565 2.384 1_556 S
Eu553 O568 2.479 . S
Eu553 O569 2.471 . S
Eu553 O570 2.347 . S
Eu553 O573 2.366 . S
Eu553 C583 2.825 . S
C554 O570 1.259 1_554 S
C554 O571 1.265 . S
C555 O572 1.255 . S
C555 O573 1.265 1_554 S
C556 C558 1.380 . S
C556 C559 1.374 . S
C556 C562 1.507 . S
C557 C558 1.384 . S
C557 C561 1.387 . S
C557 H584 0.930 1_545 S
C558 C556 1.380 . S
C558 C557 1.384 . S
C558 H585 0.931 . S
C559 C556 1.374 . S
C559 C560 1.390 . S
C559 H586 0.930 . S
C560 C559 1.390 . S
C560 C561 1.391 . S
C560 H587 0.930 . S
C561 C557 1.387 . S
C561 C560 1.391 . S
C562 Tb552 2.825 . S
C562 C556 1.507 . S
C562 O575 1.238 . S
C562 O576 1.247 . S
O563 Tb552 2.347 . S
O563 C567 1.259 . S
O564 Eu553 2.418 . S
O564 C567 1.265 1_556 S
O565 Eu553 2.384 1_554 S
O565 C574 1.255 . S
O566 Tb552 2.366 . S
O566 C574 1.265 . S
C567 O563 1.259 . S
C567 O564 1.265 1_554 S
O568 Eu553 2.479 . S
O568 C583 1.238 . S
O569 Eu553 2.471 . S
O569 C583 1.247 . S
O570 Eu553 2.347 . S
O570 C554 1.259 1_556 S
O571 Tb552 2.418 . S
O571 C554 1.265 . S
O572 Tb552 2.384 . S
O572 C555 1.255 . S
O573 Eu553 2.366 . S
O573 C555 1.265 1_556 S
C574 O565 1.255 . S
C574 O566 1.265 . S
O575 Tb552 2.479 . S
O575 C562 1.238 . S
O576 Tb552 2.471 . S
O576 C562 1.247 . S
C577 C580 1.380 . S
C577 C581 1.374 . S
C577 C583 1.507 . S
C578 C579 1.387 . S
C578 C582 1.391 . S
C579 C578 1.387 . S
C579 C580 1.384 . S
C579 H588 0.930 . S
C580 C577 1.380 . S
C580 C579 1.384 . S
C580 H589 0.931 . S
C581 C577 1.374 . S
C581 C582 1.390 . S
C581 H590 0.930 . S
C582 C578 1.391 . S
C582 C581 1.390 . S
C582 H591 0.930 . S
C583 Eu553 2.825 . S
C583 O568 1.238 . S
C583 O569 1.247 . S
C583 C577 1.507 . S
H584 C557 0.930 1_565 S
H585 C558 0.931 . S
H586 C559 0.930 . S
H587 C560 0.930 . S
H588 C579 0.930 . S
H589 C580 0.931 . S
H590 C581 0.930 . S
H591 C582 0.930 . S
Tb592 C602 2.825 . S
Tb592 O603 2.347 . S
Tb592 O606 2.366 . S
Tb592 O611 2.418 . S
Tb592 O612 2.384 . S
Tb592 O615 2.479 . S
Tb592 O616 2.471 . S
Eu593 O604 2.418 . S
Eu593 O605 2.384 . S
Eu593 O608 2.479 . S
Eu593 O609 2.471 . S
Eu593 O610 2.347 . S
Eu593 O613 2.366 . S
Eu593 C623 2.825 . S
C594 O610 1.259 . S
C594 O611 1.265 . S
C595 O612 1.255 . S
C595 O613 1.265 . S
C596 C598 1.380 . S
C596 C599 1.374 . S
C596 C602 1.507 . S
C597 C598 1.384 . S
C597 C601 1.387 . S
C597 H624 0.930 . S
C598 C596 1.380 . S
C598 C597 1.384 . S
C598 H625 0.931 . S
C599 C596 1.374 . S
C599 C600 1.390 . S
C599 H626 0.930 . S
C600 C599 1.390 . S
C600 C601 1.391 . S
C600 H627 0.930 . S
C601 C597 1.387 . S
C601 C600 1.391 . S
C602 Tb592 2.825 . S
C602 C596 1.507 . S
C602 O615 1.238 . S
C602 O616 1.247 . S
O603 Tb592 2.347 . S
O603 C607 1.259 . S
O604 Eu593 2.418 . S
O604 C607 1.265 . S
O605 Eu593 2.384 . S
O605 C614 1.255 . S
O606 Tb592 2.366 . S
O606 C614 1.265 . S
C607 O603 1.259 . S
C607 O604 1.265 . S
O608 Eu593 2.479 . S
O608 C623 1.238 . S
O609 Eu593 2.471 . S
O609 C623 1.247 . S
O610 Eu593 2.347 . S
O610 C594 1.259 . S
O611 Tb592 2.418 . S
O611 C594 1.265 . S
O612 Tb592 2.384 . S
O612 C595 1.255 . S
O613 Eu593 2.366 . S
O613 C595 1.265 . S
C614 O605 1.255 . S
C614 O606 1.265 . S
O615 Tb592 2.479 . S
O615 C602 1.238 . S
O616 Tb592 2.471 . S
O616 C602 1.247 . S
C617 C620 1.380 . S
C617 C621 1.374 . S
C617 C623 1.507 . S
C618 C619 1.387 . S
C618 C622 1.391 . S
C619 C618 1.387 . S
C619 C620 1.384 . S
C619 H628 0.930 . S
C620 C617 1.380 . S
C620 C619 1.384 . S
C620 H629 0.931 . S
C621 C617 1.374 . S
C621 C622 1.390 . S
C621 H630 0.930 . S
C622 C618 1.391 . S
C622 C621 1.390 . S
C622 H631 0.930 . S
C623 Eu593 2.825 . S
C623 O608 1.238 . S
C623 O609 1.247 . S
C623 C617 1.507 . S
H624 C597 0.930 . S
H625 C598 0.931 . S
H626 C599 0.930 . S
H627 C600 0.930 . S
H628 C619 0.930 . S
H629 C620 0.931 . S
H630 C621 0.930 . S
H631 C622 0.930 . S
Tb632 C642 2.825 . S
Tb632 O643 2.347 1_556 S
Tb632 O646 2.366 . S
Tb632 O651 2.418 . S
Tb632 O652 2.384 1_556 S
Tb632 O655 2.479 . S
Tb632 O656 2.471 . S
Eu633 O644 2.418 . S
Eu633 O645 2.384 . S
Eu633 O648 2.479 . S
Eu633 O649 2.471 . S
Eu633 O650 2.347 . S
Eu633 O653 2.366 . S
Eu633 C663 2.825 . S
C634 O650 1.259 . S
C634 O651 1.265 1_554 S
C635 O652 1.255 . S
C635 O653 1.265 . S
C636 C638 1.380 . S
C636 C639 1.374 . S
C636 C642 1.507 . S
C637 C638 1.384 . S
C637 C641 1.387 . S
C637 H664 0.930 . S
C638 C636 1.380 . S
C638 C637 1.384 . S
C638 H665 0.931 . S
C639 C636 1.374 . S
C639 C640 1.390 . S
C639 H666 0.930 . S
C640 C639 1.390 . S
C640 C641 1.391 . S
C640 H667 0.930 . S
C641 C637 1.387 . S
C641 C640 1.391 . S
C642 Tb632 2.825 . S
C642 C636 1.507 . S
C642 O655 1.238 . S
C642 O656 1.247 . S
O643 Tb632 2.347 1_554 S
O643 C647 1.259 . S
O644 Eu633 2.418 . S
O644 C647 1.265 . S
O645 Eu633 2.384 . S
O645 C654 1.255 1_554 S
O646 Tb632 2.366 . S
O646 C654 1.265 . S
C647 O643 1.259 . S
C647 O644 1.265 . S
O648 Eu633 2.479 . S
O648 C663 1.238 . S
O649 Eu633 2.471 . S
O649 C663 1.247 . S
O650 Eu633 2.347 . S
O650 C634 1.259 . S
O651 Tb632 2.418 . S
O651 C634 1.265 1_556 S
O652 Tb632 2.384 1_554 S
O652 C635 1.255 . S
O653 Eu633 2.366 . S
O653 C635 1.265 . S
C654 O645 1.255 1_556 S
C654 O646 1.265 . S
O655 Tb632 2.479 . S
O655 C642 1.238 . S
O656 Tb632 2.471 . S
O656 C642 1.247 . S
C657 C660 1.380 . S
C657 C661 1.374 . S
C657 C663 1.507 . S
C658 C659 1.387 . S
C658 C662 1.391 . S
C659 C658 1.387 . S
C659 C660 1.384 . S
C659 H668 0.930 . S
C660 C657 1.380 . S
C660 C659 1.384 . S
C660 H669 0.931 . S
C661 C657 1.374 . S
C661 C662 1.390 . S
C661 H670 0.930 . S
C662 C658 1.391 . S
C662 C661 1.390 . S
C662 H671 0.930 . S
C663 Eu633 2.825 . S
C663 O648 1.238 . S
C663 O649 1.247 . S
C663 C657 1.507 . S
H664 C637 0.930 . S
H665 C638 0.931 . S
H666 C639 0.930 . S
H667 C640 0.930 . S
H668 C659 0.930 . S
H669 C660 0.931 . S
H670 C661 0.930 . S
H671 C662 0.930 . S
Tb672 C682 2.825 . S
Tb672 O683 2.347 . S
Tb672 O686 2.366 . S
Tb672 O691 2.418 . S
Tb672 O692 2.384 . S
Tb672 O695 2.479 . S
Tb672 O696 2.471 . S
Eu673 O684 2.418 . S
Eu673 O685 2.384 . S
Eu673 O688 2.479 . S
Eu673 O689 2.471 . S
Eu673 O690 2.347 . S
Eu673 O693 2.366 . S
Eu673 C703 2.825 . S
C674 O690 1.259 . S
C674 O691 1.265 . S
C675 O692 1.255 . S
C675 O693 1.265 . S
C676 C678 1.380 . S
C676 C679 1.374 . S
C676 C682 1.507 . S
C677 C678 1.384 . S
C677 C681 1.387 . S
C677 H704 0.930 . S
C678 C676 1.380 . S
C678 C677 1.384 . S
C678 H705 0.931 . S
C679 C676 1.374 . S
C679 C680 1.390 . S
C679 H706 0.930 . S
C680 C679 1.390 . S
C680 C681 1.391 . S
C680 H707 0.930 . S
C681 C677 1.387 . S
C681 C680 1.391 . S
C682 Tb672 2.825 . S
C682 C676 1.507 . S
C682 O695 1.238 . S
C682 O696 1.247 . S
O683 Tb672 2.347 . S
O683 C687 1.259 . S
O684 Eu673 2.418 . S
O684 C687 1.265 . S
O685 Eu673 2.384 . S
O685 C694 1.255 . S
O686 Tb672 2.366 . S
O686 C694 1.265 . S
C687 O683 1.259 . S
C687 O684 1.265 . S
O688 Eu673 2.479 . S
O688 C703 1.238 . S
O689 Eu673 2.471 . S
O689 C703 1.247 . S
O690 Eu673 2.347 . S
O690 C674 1.259 . S
O691 Tb672 2.418 . S
O691 C674 1.265 . S
O692 Tb672 2.384 . S
O692 C675 1.255 . S
O693 Eu673 2.366 . S
O693 C675 1.265 . S
C694 O685 1.255 . S
C694 O686 1.265 . S
O695 Tb672 2.479 . S
O695 C682 1.238 . S
O696 Tb672 2.471 . S
O696 C682 1.247 . S
C697 C700 1.380 . S
C697 C701 1.374 . S
C697 C703 1.507 . S
C698 C699 1.387 . S
C698 C702 1.391 . S
C699 C698 1.387 . S
C699 C700 1.384 . S
C699 H708 0.930 . S
C700 C697 1.380 . S
C700 C699 1.384 . S
C700 H709 0.931 . S
C701 C697 1.374 . S
C701 C702 1.390 . S
C701 H710 0.930 . S
C702 C698 1.391 . S
C702 C701 1.390 . S
C702 H711 0.930 . S
C703 Eu673 2.825 . S
C703 O688 1.238 . S
C703 O689 1.247 . S
C703 C697 1.507 . S
H704 C677 0.930 . S
H705 C678 0.931 . S
H706 C679 0.930 . S
H707 C680 0.930 . S
H708 C699 0.930 . S
H709 C700 0.931 . S
H710 C701 0.930 . S
H711 C702 0.930 . S
Tb712 C722 2.825 . S
Tb712 O723 2.347 . S
Tb712 O726 2.366 . S
Tb712 O731 2.418 . S
Tb712 O732 2.384 . S
Tb712 O735 2.479 . S
Tb712 O736 2.471 . S
Eu713 O724 2.418 . S
Eu713 O725 2.384 1_455 S
Eu713 O728 2.479 . S
Eu713 O729 2.471 . S
Eu713 O730 2.347 . S
Eu713 O733 2.366 . S
Eu713 C743 2.825 . S
C714 O730 1.259 . S
C714 O731 1.265 . S
C715 O732 1.255 . S
C715 O733 1.265 . S
C716 C718 1.380 . S
C716 C719 1.374 . S
C716 C722 1.507 . S
C717 C718 1.384 . S
C717 C721 1.387 . S
C717 H744 0.930 . S
C718 C716 1.380 . S
C718 C717 1.384 . S
C718 H745 0.931 . S
C719 C716 1.374 . S
C719 C720 1.390 . S
C719 H746 0.930 . S
C720 C719 1.390 . S
C720 C721 1.391 . S
C720 H747 0.930 1_455 S
C721 C717 1.387 . S
C721 C720 1.391 . S
C722 Tb712 2.825 . S
C722 C716 1.507 . S
C722 O735 1.238 . S
C722 O736 1.247 . S
O723 Tb712 2.347 . S
O723 C727 1.259 . S
O724 Eu713 2.418 . S
O724 C727 1.265 . S
O725 Eu713 2.384 1_655 S
O725 C734 1.255 . S
O726 Tb712 2.366 . S
O726 C734 1.265 1_455 S
C727 O723 1.259 . S
C727 O724 1.265 . S
O728 Eu713 2.479 . S
O728 C743 1.238 . S
O729 Eu713 2.471 . S
O729 C743 1.247 . S
O730 Eu713 2.347 . S
O730 C714 1.259 . S
O731 Tb712 2.418 . S
O731 C714 1.265 . S
O732 Tb712 2.384 . S
O732 C715 1.255 . S
O733 Eu713 2.366 . S
O733 C715 1.265 . S
C734 O725 1.255 . S
C734 O726 1.265 1_655 S
O735 Tb712 2.479 . S
O735 C722 1.238 . S
O736 Tb712 2.471 . S
O736 C722 1.247 . S
C737 C740 1.380 . S
C737 C741 1.374 . S
C737 C743 1.507 . S
C738 C739 1.387 . S
C738 C742 1.391 . S
C739 C738 1.387 . S
C739 C740 1.384 . S
C739 H748 0.930 . S
C740 C737 1.380 . S
C740 C739 1.384 . S
C740 H749 0.931 . S
C741 C737 1.374 . S
C741 C742 1.390 . S
C741 H750 0.930 . S
C742 C738 1.391 . S
C742 C741 1.390 . S
C742 H751 0.930 . S
C743 Eu713 2.825 . S
C743 O728 1.238 . S
C743 O729 1.247 . S
C743 C737 1.507 . S
H744 C717 0.930 . S
H745 C718 0.931 . S
H746 C719 0.930 . S
H747 C720 0.930 1_655 S
H748 C739 0.930 . S
H749 C740 0.931 . S
H750 C741 0.930 . S
H751 C742 0.930 . S
Tb752 C762 2.825 . S
Tb752 O763 2.347 . S
Tb752 O766 2.366 . S
Tb752 O771 2.418 . S
Tb752 O772 2.384 . S
Tb752 O775 2.479 . S
Tb752 O776 2.471 . S
Eu753 O764 2.418 . S
Eu753 O765 2.384 . S
Eu753 O768 2.479 . S
Eu753 O769 2.471 . S
Eu753 O770 2.347 . S
Eu753 O773 2.366 . S
Eu753 C783 2.825 . S
C754 O770 1.259 . S
C754 O771 1.265 . S
C755 O772 1.255 . S
C755 O773 1.265 . S
C756 C758 1.380 . S
C756 C759 1.374 . S
C756 C762 1.507 . S
C757 C758 1.384 . S
C757 C761 1.387 . S
C757 H784 0.930 . S
C758 C756 1.380 . S
C758 C757 1.384 . S
C758 H785 0.931 . S
C759 C756 1.374 . S
C759 C760 1.390 . S
C759 H786 0.930 . S
C760 C759 1.390 . S
C760 C761 1.391 . S
C760 H787 0.930 . S
C761 C757 1.387 . S
C761 C760 1.391 . S
C762 Tb752 2.825 . S
C762 C756 1.507 . S
C762 O775 1.238 . S
C762 O776 1.247 . S
O763 Tb752 2.347 . S
O763 C767 1.259 . S
O764 Eu753 2.418 . S
O764 C767 1.265 . S
O765 Eu753 2.384 . S
O765 C774 1.255 . S
O766 Tb752 2.366 . S
O766 C774 1.265 . S
C767 O763 1.259 . S
C767 O764 1.265 . S
O768 Eu753 2.479 . S
O768 C783 1.238 . S
O769 Eu753 2.471 . S
O769 C783 1.247 . S
O770 Eu753 2.347 . S
O770 C754 1.259 . S
O771 Tb752 2.418 . S
O771 C754 1.265 . S
O772 Tb752 2.384 . S
O772 C755 1.255 . S
O773 Eu753 2.366 . S
O773 C755 1.265 . S
C774 O765 1.255 . S
C774 O766 1.265 . S
O775 Tb752 2.479 . S
O775 C762 1.238 . S
O776 Tb752 2.471 . S
O776 C762 1.247 . S
C777 C780 1.380 . S
C777 C781 1.374 . S
C777 C783 1.507 . S
C778 C779 1.387 . S
C778 C782 1.391 . S
C779 C778 1.387 . S
C779 C780 1.384 . S
C779 H788 0.930 . S
C780 C777 1.380 . S
C780 C779 1.384 . S
C780 H789 0.931 . S
C781 C777 1.374 . S
C781 C782 1.390 . S
C781 H790 0.930 . S
C782 C778 1.391 . S
C782 C781 1.390 . S
C782 H791 0.930 . S
C783 Eu753 2.825 . S
C783 O768 1.238 . S
C783 O769 1.247 . S
C783 C777 1.507 . S
H784 C757 0.930 . S
H785 C758 0.931 . S
H786 C759 0.930 . S
H787 C760 0.930 . S
H788 C779 0.930 . S
H789 C780 0.931 . S
H790 C781 0.930 . S
H791 C782 0.930 . S
Tb792 C802 2.825 . S
Tb792 O803 2.347 . S
Tb792 O806 2.366 . S
Tb792 O811 2.418 . S
Tb792 O812 2.384 . S
Tb792 O815 2.479 . S
Tb792 O816 2.471 . S
Eu793 O804 2.418 . S
Eu793 O805 2.384 . S
Eu793 O808 2.479 . S
Eu793 O809 2.471 . S
Eu793 O810 2.347 . S
Eu793 O813 2.366 . S
Eu793 C823 2.825 . S
C794 O810 1.259 . S
C794 O811 1.265 . S
C795 O812 1.255 . S
C795 O813 1.265 . S
C796 C798 1.380 . S
C796 C799 1.374 . S
C796 C802 1.507 . S
C797 C798 1.384 . S
C797 C801 1.387 . S
C797 H824 0.930 . S
C798 C796 1.380 . S
C798 C797 1.384 . S
C798 H825 0.931 . S
C799 C796 1.374 . S
C799 C800 1.390 . S
C799 H826 0.930 . S
C800 C799 1.390 . S
C800 C801 1.391 . S
C800 H827 0.930 . S
C801 C797 1.387 . S
C801 C800 1.391 . S
C802 Tb792 2.825 . S
C802 C796 1.507 . S
C802 O815 1.238 . S
C802 O816 1.247 . S
O803 Tb792 2.347 . S
O803 C807 1.259 . S
O804 Eu793 2.418 . S
O804 C807 1.265 . S
O805 Eu793 2.384 . S
O805 C814 1.255 . S
O806 Tb792 2.366 . S
O806 C814 1.265 . S
C807 O803 1.259 . S
C807 O804 1.265 . S
O808 Eu793 2.479 . S
O808 C823 1.238 . S
O809 Eu793 2.471 . S
O809 C823 1.247 . S
O810 Eu793 2.347 . S
O810 C794 1.259 . S
O811 Tb792 2.418 . S
O811 C794 1.265 . S
O812 Tb792 2.384 . S
O812 C795 1.255 . S
O813 Eu793 2.366 . S
O813 C795 1.265 . S
C814 O805 1.255 . S
C814 O806 1.265 . S
O815 Tb792 2.479 . S
O815 C802 1.238 . S
O816 Tb792 2.471 . S
O816 C802 1.247 . S
C817 C820 1.380 . S
C817 C821 1.374 . S
C817 C823 1.507 . S
C818 C819 1.387 . S
C818 C822 1.391 . S
C819 C818 1.387 . S
C819 C820 1.384 . S
C819 H828 0.930 . S
C820 C817 1.380 . S
C820 C819 1.384 . S
C820 H829 0.931 . S
C821 C817 1.374 . S
C821 C822 1.390 . S
C821 H830 0.930 . S
C822 C818 1.391 . S
C822 C821 1.390 . S
C822 H831 0.930 . S
C823 Eu793 2.825 . S
C823 O808 1.238 . S
C823 O809 1.247 . S
C823 C817 1.507 . S
H824 C797 0.930 . S
H825 C798 0.931 . S
H826 C799 0.930 . S
H827 C800 0.930 . S
H828 C819 0.930 . S
H829 C820 0.931 . S
H830 C821 0.930 . S
H831 C822 0.930 . S
Tb832 C842 2.825 . S
Tb832 O843 2.347 . S
Tb832 O846 2.366 . S
Tb832 O851 2.418 . S
Tb832 O852 2.384 . S
Tb832 O855 2.479 . S
Tb832 O856 2.471 . S
Eu833 O844 2.418 . S
Eu833 O845 2.384 . S
Eu833 O848 2.479 . S
Eu833 O849 2.471 . S
Eu833 O850 2.347 . S
Eu833 O853 2.366 . S
Eu833 C863 2.825 . S
C834 O850 1.259 . S
C834 O851 1.265 . S
C835 O852 1.255 . S
C835 O853 1.265 . S
C836 C838 1.380 . S
C836 C839 1.374 . S
C836 C842 1.507 . S
C837 C838 1.384 . S
C837 C841 1.387 . S
C837 H864 0.930 . S
C838 C836 1.380 . S
C838 C837 1.384 . S
C838 H865 0.931 . S
C839 C836 1.374 . S
C839 C840 1.390 . S
C839 H866 0.930 . S
C840 C839 1.390 . S
C840 C841 1.391 . S
C840 H867 0.930 . S
C841 C837 1.387 . S
C841 C840 1.391 . S
C842 Tb832 2.825 . S
C842 C836 1.507 . S
C842 O855 1.238 . S
C842 O856 1.247 . S
O843 Tb832 2.347 . S
O843 C847 1.259 . S
O844 Eu833 2.418 . S
O844 C847 1.265 . S
O845 Eu833 2.384 . S
O845 C854 1.255 . S
O846 Tb832 2.366 . S
O846 C854 1.265 . S
C847 O843 1.259 . S
C847 O844 1.265 . S
O848 Eu833 2.479 . S
O848 C863 1.238 . S
O849 Eu833 2.471 . S
O849 C863 1.247 . S
O850 Eu833 2.347 . S
O850 C834 1.259 . S
O851 Tb832 2.418 . S
O851 C834 1.265 . S
O852 Tb832 2.384 . S
O852 C835 1.255 . S
O853 Eu833 2.366 . S
O853 C835 1.265 . S
C854 O845 1.255 . S
C854 O846 1.265 . S
O855 Tb832 2.479 . S
O855 C842 1.238 . S
O856 Tb832 2.471 . S
O856 C842 1.247 . S
C857 C860 1.380 . S
C857 C861 1.374 . S
C857 C863 1.507 . S
C858 C859 1.387 . S
C858 C862 1.391 . S
C859 C858 1.387 . S
C859 C860 1.384 . S
C859 H868 0.930 . S
C860 C857 1.380 . S
C860 C859 1.384 . S
C860 H869 0.931 . S
C861 C857 1.374 . S
C861 C862 1.390 . S
C861 H870 0.930 . S
C862 C858 1.391 . S
C862 C861 1.390 . S
C862 H871 0.930 . S
C863 Eu833 2.825 . S
C863 O848 1.238 . S
C863 O849 1.247 . S
C863 C857 1.507 . S
H864 C837 0.930 . S
H865 C838 0.931 . S
H866 C839 0.930 . S
H867 C840 0.930 . S
H868 C859 0.930 . S
H869 C860 0.931 . S
H870 C861 0.930 . S
H871 C862 0.930 . S
Tb872 C882 2.825 . S
Tb872 O883 2.347 . S
Tb872 O886 2.366 . S
Tb872 O891 2.418 . S
Tb872 O892 2.384 . S
Tb872 O895 2.479 . S
Tb872 O896 2.471 . S
Eu873 O884 2.418 . S
Eu873 O885 2.384 . S
Eu873 O888 2.479 . S
Eu873 O889 2.471 . S
Eu873 O890 2.347 . S
Eu873 O893 2.366 . S
Eu873 C903 2.825 . S
C874 O890 1.259 . S
C874 O891 1.265 . S
C875 O892 1.255 . S
C875 O893 1.265 . S
C876 C878 1.380 . S
C876 C879 1.374 . S
C876 C882 1.507 . S
C877 C878 1.384 . S
C877 C881 1.387 . S
C877 H904 0.930 . S
C878 C876 1.380 . S
C878 C877 1.384 . S
C878 H905 0.931 . S
C879 C876 1.374 . S
C879 C880 1.390 . S
C879 H906 0.930 . S
C880 C879 1.390 . S
C880 C881 1.391 . S
C880 H907 0.930 . S
C881 C877 1.387 . S
C881 C880 1.391 . S
C882 Tb872 2.825 . S
C882 C876 1.507 . S
C882 O895 1.238 . S
C882 O896 1.247 . S
O883 Tb872 2.347 . S
O883 C887 1.259 . S
O884 Eu873 2.418 . S
O884 C887 1.265 . S
O885 Eu873 2.384 . S
O885 C894 1.255 . S
O886 Tb872 2.366 . S
O886 C894 1.265 . S
C887 O883 1.259 . S
C887 O884 1.265 . S
O888 Eu873 2.479 . S
O888 C903 1.238 . S
O889 Eu873 2.471 . S
O889 C903 1.247 . S
O890 Eu873 2.347 . S
O890 C874 1.259 . S
O891 Tb872 2.418 . S
O891 C874 1.265 . S
O892 Tb872 2.384 . S
O892 C875 1.255 . S
O893 Eu873 2.366 . S
O893 C875 1.265 . S
C894 O885 1.255 . S
C894 O886 1.265 . S
O895 Tb872 2.479 . S
O895 C882 1.238 . S
O896 Tb872 2.471 . S
O896 C882 1.247 . S
C897 C900 1.380 . S
C897 C901 1.374 . S
C897 C903 1.507 . S
C898 C899 1.387 . S
C898 C902 1.391 . S
C899 C898 1.387 . S
C899 C900 1.384 . S
C899 H908 0.930 . S
C900 C897 1.380 . S
C900 C899 1.384 . S
C900 H909 0.931 . S
C901 C897 1.374 . S
C901 C902 1.390 . S
C901 H910 0.930 . S
C902 C898 1.391 . S
C902 C901 1.390 . S
C902 H911 0.930 . S
C903 Eu873 2.825 . S
C903 O888 1.238 . S
C903 O889 1.247 . S
C903 C897 1.507 . S
H904 C877 0.930 . S
H905 C878 0.931 . S
H906 C879 0.930 . S
H907 C880 0.930 . S
H908 C899 0.930 . S
H909 C900 0.931 . S
H910 C901 0.930 . S
H911 C902 0.930 . S
Tb912 C922 2.825 . S
Tb912 O923 2.347 1_554 S
Tb912 O926 2.366 . S
Tb912 O931 2.418 . S
Tb912 O932 2.384 1_455 S
Tb912 O935 2.479 . S
Tb912 O936 2.471 1_554 S
Eu913 O924 2.418 1_554 S
Eu913 O925 2.384 . S
Eu913 O928 2.479 . S
Eu913 O929 2.471 . S
Eu913 O930 2.347 . S
Eu913 O933 2.366 . S
Eu913 C943 2.825 . S
C914 O930 1.259 . S
C914 O931 1.265 . S
C915 O932 1.255 . S
C915 O933 1.265 1_655 S
C916 C918 1.380 1_556 S
C916 C919 1.374 . S
C916 C922 1.507 1_556 S
C917 C918 1.384 1_556 S
C917 C921 1.387 . S
C917 H944 0.927 1_456 S
C918 C916 1.380 1_554 S
C918 C917 1.384 1_554 S
C918 H945 0.931 1_455 S
C919 C916 1.374 . S
C919 C920 1.390 . S
C919 H946 0.930 . S
C920 C919 1.390 . S
C920 C921 1.391 . S
C920 H947 0.930 . S
C921 C917 1.387 . S
C921 C920 1.391 . S
C922 Tb912 2.825 . S
C922 C916 1.507 1_554 S
C922 O935 1.238 . S
C922 O936 1.247 1_554 S
O923 Tb912 2.347 1_556 S
O923 C927 1.259 . S
O924 Eu913 2.418 1_556 S
O924 C927 1.265 . S
O925 Eu913 2.384 . S
O925 C934 1.255 . S
O926 Tb912 2.366 . S
O926 C934 1.265 . S
C927 O923 1.259 . S
C927 O924 1.265 . S
O928 Eu913 2.479 . S
O928 C943 1.238 . S
O929 Eu913 2.471 . S
O929 C943 1.247 . S
O930 Eu913 2.347 . S
O930 C914 1.259 . S
O931 Tb912 2.418 . S
O931 C914 1.265 . S
O932 Tb912 2.384 1_655 S
O932 C915 1.255 . S
O933 Eu913 2.366 . S
O933 C915 1.265 1_455 S
C934 O925 1.255 . S
C934 O926 1.265 . S
O935 Tb912 2.479 . S
O935 C922 1.238 . S
O936 Tb912 2.471 1_556 S
O936 C922 1.247 1_556 S
C937 C940 1.380 . S
C937 C941 1.374 . S
C937 C943 1.507 . S
C938 C939 1.387 . S
C938 C942 1.391 . S
C939 C938 1.387 . S
C939 C940 1.384 . S
C939 H948 0.930 . S
C940 C937 1.380 . S
C940 C939 1.384 . S
C940 H949 0.931 . S
C941 C937 1.374 . S
C941 C942 1.390 . S
C941 H950 0.930 . S
C942 C938 1.391 . S
C942 C941 1.390 . S
C942 H951 0.930 . S
C943 Eu913 2.825 . S
C943 O928 1.238 . S
C943 O929 1.247 . S
C943 C937 1.507 . S
H944 C917 0.927 1_654 S
H945 C918 0.931 1_655 S
H946 C919 0.930 . S
H947 C920 0.930 . S
H948 C939 0.930 . S
H949 C940 0.931 . S
H950 C941 0.930 . S
H951 C942 0.930 . S
C952 C953 1.363 . S
C952 C958 1.379 . S
C952 N960 1.356 1_455 S
C953 C952 1.363 . S
C953 C959 1.363 . S
C954 C955 1.363 . S
C954 C959 1.379 1_554 S
C954 N961 1.356 . S
C955 C954 1.363 . S
C955 C958 1.363 1_554 S
N956 C958 1.356 1_554 S
N956 H968 0.984 . S
N956 H969 0.985 . S
N957 C959 1.356 . S
N957 H962 0.984 . S
N957 H963 0.985 . S
C958 C952 1.379 . S
C958 C955 1.363 1_556 S
C958 N956 1.356 1_556 S
C959 C953 1.363 . S
C959 C954 1.379 1_556 S
C959 N957 1.356 . S
N960 C952 1.356 1_655 S
N960 H966 0.984 . S
N960 H967 0.984 . S
N961 C954 1.356 . S
N961 H964 0.984 . S
N961 H965 0.985 . S
H962 N957 0.984 . S
H963 N957 0.985 . S
H964 N961 0.984 . S
H965 N961 0.985 . S
H966 N960 0.984 . S
H967 N960 0.984 . S
H968 N956 0.984 . S
H969 N956 0.985 . S
C970 C971 1.363 . S
C970 C976 1.379 . S
C970 N978 1.356 . S
C971 C970 1.363 . S
C971 C977 1.363 . S
C972 C973 1.363 . S
C972 C977 1.379 . S
C972 N979 1.356 . S
C973 C972 1.363 . S
C973 C976 1.363 . S
N974 C976 1.356 . S
N974 H986 0.984 . S
N974 H987 0.985 . S
N975 C977 1.356 . S
N975 H980 0.984 . S
N975 H981 0.985 . S
C976 C970 1.379 . S
C976 C973 1.363 . S
C976 N974 1.356 . S
C977 C971 1.363 . S
C977 C972 1.379 . S
C977 N975 1.356 . S
N978 C970 1.356 . S
N978 H984 0.984 . S
N978 H985 0.984 . S
N979 C972 1.356 . S
N979 H982 0.984 . S
N979 H983 0.985 . S
H980 N975 0.984 . S
H981 N975 0.985 . S
H982 N979 0.984 . S
H983 N979 0.985 . S
H984 N978 0.984 . S
H985 N978 0.984 . S
H986 N974 0.984 . S
H987 N974 0.985 . S
C988 C989 1.363 . S
C988 C994 1.379 . S
C988 N996 1.356 . S
C989 C988 1.363 . S
C989 C995 1.363 . S
C990 C991 1.363 . S
C990 C995 1.379 . S
C990 N997 1.356 . S
C991 C990 1.363 . S
C991 C994 1.363 . S
N992 C994 1.356 . S
N992 H1004 0.984 . S
N992 H1005 0.985 . S
N993 C995 1.356 . S
N993 H998 0.984 . S
N993 H999 0.985 . S
C994 C988 1.379 . S
C994 C991 1.363 . S
C994 N992 1.356 . S
C995 C989 1.363 . S
C995 C990 1.379 . S
C995 N993 1.356 . S
N996 C988 1.356 . S
N996 H1002 0.984 . S
N996 H1003 0.984 . S
N997 C990 1.356 . S
N997 H1000 0.984 . S
N997 H1001 0.985 . S
H998 N993 0.984 . S
H999 N993 0.985 . S
H1000 N997 0.984 . S
H1001 N997 0.985 . S
H1002 N996 0.984 . S
H1003 N996 0.984 . S
H1004 N992 0.984 . S
H1005 N992 0.985 . S
C1006 C1007 1.363 . S
C1006 C1012 1.379 . S
C1006 N1014 1.356 . S
C1007 C1006 1.363 . S
C1007 C1013 1.363 . S
C1008 C1009 1.363 . S
C1008 C1013 1.379 . S
C1008 N1015 1.356 . S
C1009 C1008 1.363 . S
C1009 C1012 1.363 . S
N1010 C1012 1.356 . S
N1010 H1022 0.984 . S
N1010 H1023 0.985 . S
N1011 C1013 1.356 . S
N1011 H1016 0.984 . S
N1011 H1017 0.985 . S
C1012 C1006 1.379 . S
C1012 C1009 1.363 . S
C1012 N1010 1.356 . S
C1013 C1007 1.363 . S
C1013 C1008 1.379 . S
C1013 N1011 1.356 . S
N1014 C1006 1.356 . S
N1014 H1020 0.984 . S
N1014 H1021 0.984 . S
N1015 C1008 1.356 . S
N1015 H1018 0.984 . S
N1015 H1019 0.985 . S
H1016 N1011 0.984 . S
H1017 N1011 0.985 . S
H1018 N1015 0.984 . S
H1019 N1015 0.985 . S
H1020 N1014 0.984 . S
H1021 N1014 0.984 . S
H1022 N1010 0.984 . S
H1023 N1010 0.985 . S
C1024 C1025 1.363 . S
C1024 C1030 1.379 . S
C1024 N1032 1.356 . S
C1025 C1024 1.363 . S
C1025 C1031 1.363 . S
C1026 C1027 1.363 . S
C1026 C1031 1.379 . S
C1026 N1033 1.356 . S
C1027 C1026 1.363 . S
C1027 C1030 1.363 . S
N1028 C1030 1.356 . S
N1028 H1040 0.984 . S
N1028 H1041 0.985 . S
N1029 C1031 1.356 . S
N1029 H1034 0.984 . S
N1029 H1035 0.985 . S
C1030 C1024 1.379 . S
C1030 C1027 1.363 . S
C1030 N1028 1.356 . S
C1031 C1025 1.363 . S
C1031 C1026 1.379 . S
C1031 N1029 1.356 . S
N1032 C1024 1.356 . S
N1032 H1038 0.984 . S
N1032 H1039 0.984 . S
N1033 C1026 1.356 . S
N1033 H1036 0.984 . S
N1033 H1037 0.985 . S
H1034 N1029 0.984 . S
H1035 N1029 0.985 . S
H1036 N1033 0.984 . S
H1037 N1033 0.985 . S
H1038 N1032 0.984 . S
H1039 N1032 0.984 . S
H1040 N1028 0.984 . S
H1041 N1028 0.985 . S
C1042 C1043 1.363 . S
C1042 C1048 1.379 . S
C1042 N1050 1.356 . S
C1043 C1042 1.363 . S
C1043 C1049 1.363 . S
C1044 C1045 1.363 . S
C1044 C1049 1.379 . S
C1044 N1051 1.356 . S
C1045 C1044 1.363 . S
C1045 C1048 1.363 . S
N1046 C1048 1.356 . S
N1046 H1058 0.984 . S
N1046 H1059 0.985 . S
N1047 C1049 1.356 . S
N1047 H1052 0.984 . S
N1047 H1053 0.985 . S
C1048 C1042 1.379 . S
C1048 C1045 1.363 . S
C1048 N1046 1.356 . S
C1049 C1043 1.363 . S
C1049 C1044 1.379 . S
C1049 N1047 1.356 . S
N1050 C1042 1.356 . S
N1050 H1056 0.984 . S
N1050 H1057 0.984 . S
N1051 C1044 1.356 . S
N1051 H1054 0.984 . S
N1051 H1055 0.985 . S
H1052 N1047 0.984 . S
H1053 N1047 0.985 . S
H1054 N1051 0.984 . S
H1055 N1051 0.985 . S
H1056 N1050 0.984 . S
H1057 N1050 0.984 . S
H1058 N1046 0.984 . S
H1059 N1046 0.985 . S
C1060 C1061 1.363 . S
C1060 C1066 1.379 . S
C1060 N1068 1.356 . S
C1061 C1060 1.363 . S
C1061 C1067 1.363 . S
C1062 C1063 1.363 . S
C1062 C1067 1.379 . S
C1062 N1069 1.356 . S
C1063 C1062 1.363 . S
C1063 C1066 1.363 . S
N1064 C1066 1.356 . S
N1064 H1076 0.984 . S
N1064 H1077 0.985 . S
N1065 C1067 1.356 . S
N1065 H1070 0.984 . S
N1065 H1071 0.985 . S
C1066 C1060 1.379 . S
C1066 C1063 1.363 . S
C1066 N1064 1.356 . S
C1067 C1061 1.363 . S
C1067 C1062 1.379 . S
C1067 N1065 1.356 . S
N1068 C1060 1.356 . S
N1068 H1074 0.984 . S
N1068 H1075 0.984 . S
N1069 C1062 1.356 . S
N1069 H1072 0.984 . S
N1069 H1073 0.985 . S
H1070 N1065 0.984 . S
H1071 N1065 0.985 . S
H1072 N1069 0.984 . S
H1073 N1069 0.985 . S
H1074 N1068 0.984 . S
H1075 N1068 0.984 . S
H1076 N1064 0.984 . S
H1077 N1064 0.985 . S
C1078 C1079 1.363 . S
C1078 C1084 1.379 . S
C1078 N1086 1.356 . S
C1079 C1078 1.363 . S
C1079 C1085 1.363 . S
C1080 C1081 1.363 . S
C1080 C1085 1.379 . S
C1080 N1087 1.356 . S
C1081 C1080 1.363 . S
C1081 C1084 1.363 . S
N1082 C1084 1.356 . S
N1082 H1094 0.984 . S
N1082 H1095 0.985 . S
N1083 C1085 1.356 . S
N1083 H1088 0.984 . S
N1083 H1089 0.985 . S
C1084 C1078 1.379 . S
C1084 C1081 1.363 . S
C1084 N1082 1.356 . S
C1085 C1079 1.363 . S
C1085 C1080 1.379 . S
C1085 N1083 1.356 . S
N1086 C1078 1.356 . S
N1086 H1092 0.984 . S
N1086 H1093 0.984 . S
N1087 C1080 1.356 . S
N1087 H1090 0.984 . S
N1087 H1091 0.985 . S
H1088 N1083 0.984 . S
H1089 N1083 0.985 . S
H1090 N1087 0.984 . S
H1091 N1087 0.985 . S
H1092 N1086 0.984 . S
H1093 N1086 0.984 . S
H1094 N1082 0.984 . S
H1095 N1082 0.985 . S
C1096 C1097 1.363 . S
C1096 C1102 1.379 . S
C1096 N1104 1.356 . S
C1097 C1096 1.363 . S
C1097 C1103 1.363 . S
C1098 C1099 1.363 . S
C1098 C1103 1.379 1_455 S
C1098 N1105 1.356 . S
C1099 C1098 1.363 . S
C1099 C1102 1.363 1_455 S
N1100 C1102 1.356 1_455 S
N1100 H1112 0.984 . S
N1100 H1113 0.985 . S
N1101 C1103 1.356 1_565 S
N1101 H1106 0.984 . S
N1101 H1107 0.985 . S
C1102 C1096 1.379 . S
C1102 C1099 1.363 1_655 S
C1102 N1100 1.356 1_655 S
C1103 C1097 1.363 . S
C1103 C1098 1.379 1_655 S
C1103 N1101 1.356 1_545 S
N1104 C1096 1.356 . S
N1104 H1110 0.984 . S
N1104 H1111 0.984 . S
N1105 C1098 1.356 . S
N1105 H1108 0.984 . S
N1105 H1109 0.985 . S
H1106 N1101 0.984 . S
H1107 N1101 0.985 . S
H1108 N1105 0.984 . S
H1109 N1105 0.985 . S
H1110 N1104 0.984 . S
H1111 N1104 0.984 . S
H1112 N1100 0.984 . S
H1113 N1100 0.985 . S
C1114 C1115 1.363 . S
C1114 C1120 1.379 . S
C1114 N1122 1.356 . S
C1115 C1114 1.363 . S
C1115 C1121 1.363 . S
C1116 C1117 1.363 . S
C1116 C1121 1.379 . S
C1116 N1123 1.356 . S
C1117 C1116 1.363 . S
C1117 C1120 1.363 . S
N1118 C1120 1.356 . S
N1118 H1130 0.984 . S
N1118 H1131 0.985 . S
N1119 C1121 1.356 . S
N1119 H1124 0.984 . S
N1119 H1125 0.985 . S
C1120 C1114 1.379 . S
C1120 C1117 1.363 . S
C1120 N1118 1.356 . S
C1121 C1115 1.363 . S
C1121 C1116 1.379 . S
C1121 N1119 1.356 . S
N1122 C1114 1.356 . S
N1122 H1128 0.984 . S
N1122 H1129 0.984 . S
N1123 C1116 1.356 . S
N1123 H1126 0.984 . S
N1123 H1127 0.985 . S
H1124 N1119 0.984 . S
H1125 N1119 0.985 . S
H1126 N1123 0.984 . S
H1127 N1123 0.985 . S
H1128 N1122 0.984 . S
H1129 N1122 0.984 . S
H1130 N1118 0.984 . S
H1131 N1118 0.985 . S
C1132 C1133 1.363 1_545 S
C1132 C1138 1.379 . S
C1132 N1140 1.356 1_545 S
C1133 C1132 1.363 1_565 S
C1133 C1139 1.363 1_565 S
C1134 C1135 1.363 . S
C1134 C1139 1.379 . S
C1134 N1141 1.356 . S
C1135 C1134 1.363 . S
C1135 C1138 1.363 . S
N1136 C1138 1.356 . S
N1136 H1148 0.984 . S
N1136 H1149 0.985 . S
N1137 C1139 1.356 1_565 S
N1137 H1142 0.984 . S
N1137 H1143 0.985 . S
C1138 C1132 1.379 . S
C1138 C1135 1.363 . S
C1138 N1136 1.356 . S
C1139 C1133 1.363 1_545 S
C1139 C1134 1.379 . S
C1139 N1137 1.356 1_545 S
N1140 C1132 1.356 1_565 S
N1140 H1146 0.984 . S
N1140 H1147 0.984 . S
N1141 C1134 1.356 . S
N1141 H1144 0.984 . S
N1141 H1145 0.985 . S
H1142 N1137 0.984 . S
H1143 N1137 0.985 . S
H1144 N1141 0.984 . S
H1145 N1141 0.985 . S
H1146 N1140 0.984 . S
H1147 N1140 0.984 . S
H1148 N1136 0.984 . S
H1149 N1136 0.985 . S
C1150 C1151 1.363 . S
C1150 C1156 1.379 . S
C1150 N1158 1.356 . S
C1151 C1150 1.363 . S
C1151 C1157 1.363 . S
C1152 C1153 1.363 . S
C1152 C1157 1.379 . S
C1152 N1159 1.356 . S
C1153 C1152 1.363 . S
C1153 C1156 1.363 . S
N1154 C1156 1.356 . S
N1154 H1166 0.984 . S
N1154 H1167 0.985 . S
N1155 C1157 1.356 . S
N1155 H1160 0.984 . S
N1155 H1161 0.985 . S
C1156 C1150 1.379 . S
C1156 C1153 1.363 . S
C1156 N1154 1.356 . S
C1157 C1151 1.363 . S
C1157 C1152 1.379 . S
C1157 N1155 1.356 . S
N1158 C1150 1.356 . S
N1158 H1164 0.984 . S
N1158 H1165 0.984 . S
N1159 C1152 1.356 . S
N1159 H1162 0.984 . S
N1159 H1163 0.985 . S
H1160 N1155 0.984 . S
H1161 N1155 0.985 . S
H1162 N1159 0.984 . S
H1163 N1159 0.985 . S
H1164 N1158 0.984 . S
H1165 N1158 0.984 . S
H1166 N1154 0.984 . S
H1167 N1154 0.985 . S
C1168 C1169 1.363 . S
C1168 C1174 1.379 1_565 S
C1168 N1176 1.356 . S
C1169 C1168 1.363 . S
C1169 C1175 1.363 1_565 S
C1170 C1171 1.363 . S
C1170 C1175 1.379 . S
C1170 N1177 1.356 . S
C1171 C1170 1.363 . S
C1171 C1174 1.363 . S
N1172 C1174 1.356 1_455 S
N1172 H1184 0.984 1_545 S
N1172 H1185 0.985 . S
N1173 C1175 1.356 . S
N1173 H1178 0.984 . S
N1173 H1179 0.985 . S
C1174 C1168 1.379 1_545 S
C1174 C1171 1.363 . S
C1174 N1172 1.356 1_655 S
C1175 C1169 1.363 1_545 S
C1175 C1170 1.379 . S
C1175 N1173 1.356 . S
N1176 C1168 1.356 . S
N1176 H1182 0.984 . S
N1176 H1183 0.984 . S
N1177 C1170 1.356 . S
N1177 H1180 0.984 . S
N1177 H1181 0.985 . S
H1178 N1173 0.984 . S
H1179 N1173 0.985 . S
H1180 N1177 0.984 . S
H1181 N1177 0.985 . S
H1182 N1176 0.984 . S
H1183 N1176 0.984 . S
H1184 N1172 0.984 1_565 S
H1185 N1172 0.985 . S
C1186 C1187 1.363 . S
C1186 C1192 1.379 . S
C1186 N1194 1.356 . S
C1187 C1186 1.363 . S
C1187 C1193 1.363 . S
C1188 C1189 1.363 . S
C1188 C1193 1.379 . S
C1188 N1195 1.356 . S
C1189 C1188 1.363 . S
C1189 C1192 1.363 . S
N1190 C1192 1.356 . S
N1190 H1202 0.984 . S
N1190 H1203 0.985 . S
N1191 C1193 1.356 . S
N1191 H1196 0.984 . S
N1191 H1197 0.985 . S
C1192 C1186 1.379 . S
C1192 C1189 1.363 . S
C1192 N1190 1.356 . S
C1193 C1187 1.363 . S
C1193 C1188 1.379 . S
C1193 N1191 1.356 . S
N1194 C1186 1.356 . S
N1194 H1200 0.984 . S
N1194 H1201 0.984 . S
N1195 C1188 1.356 . S
N1195 H1198 0.984 . S
N1195 H1199 0.985 . S
H1196 N1191 0.984 . S
H1197 N1191 0.985 . S
H1198 N1195 0.984 . S
H1199 N1195 0.985 . S
H1200 N1194 0.984 . S
H1201 N1194 0.984 . S
H1202 N1190 0.984 . S
H1203 N1190 0.985 . S
C1204 C1205 1.363 . S
C1204 C1210 1.379 . S
C1204 N1212 1.356 . S
C1205 C1204 1.363 . S
C1205 C1211 1.363 . S
C1206 C1207 1.363 . S
C1206 C1211 1.379 . S
C1206 N1213 1.356 . S
C1207 C1206 1.363 . S
C1207 C1210 1.363 . S
N1208 C1210 1.356 . S
N1208 H1220 0.984 . S
N1208 H1221 0.985 . S
N1209 C1211 1.356 . S
N1209 H1214 0.984 . S
N1209 H1215 0.985 . S
C1210 C1204 1.379 . S
C1210 C1207 1.363 . S
C1210 N1208 1.356 . S
C1211 C1205 1.363 . S
C1211 C1206 1.379 . S
C1211 N1209 1.356 . S
N1212 C1204 1.356 . S
N1212 H1218 0.984 . S
N1212 H1219 0.984 1_545 S
N1213 C1206 1.356 . S
N1213 H1216 0.984 . S
N1213 H1217 0.985 . S
H1214 N1209 0.984 . S
H1215 N1209 0.985 . S
H1216 N1213 0.984 . S
H1217 N1213 0.985 . S
H1218 N1212 0.984 . S
H1219 N1212 0.984 1_565 S
H1220 N1208 0.984 . S
H1221 N1208 0.985 . S
C1222 C1223 1.363 . S
C1222 C1228 1.379 . S
C1222 N1230 1.356 . S
C1223 C1222 1.363 . S
C1223 C1229 1.363 . S
C1224 C1225 1.363 . S
C1224 C1229 1.379 . S
C1224 N1231 1.356 . S
C1225 C1224 1.363 . S
C1225 C1228 1.363 . S
N1226 C1228 1.356 . S
N1226 H1238 0.984 . S
N1226 H1239 0.985 . S
N1227 C1229 1.356 . S
N1227 H1232 0.984 . S
N1227 H1233 0.985 . S
C1228 C1222 1.379 . S
C1228 C1225 1.363 . S
C1228 N1226 1.356 . S
C1229 C1223 1.363 . S
C1229 C1224 1.379 . S
C1229 N1227 1.356 . S
N1230 C1222 1.356 . S
N1230 H1236 0.984 . S
N1230 H1237 0.984 . S
N1231 C1224 1.356 . S
N1231 H1234 0.984 . S
N1231 H1235 0.985 . S
H1232 N1227 0.984 . S
H1233 N1227 0.985 . S
H1234 N1231 0.984 . S
H1235 N1231 0.985 . S
H1236 N1230 0.984 . S
H1237 N1230 0.984 . S
H1238 N1226 0.984 . S
H1239 N1226 0.985 . S
C1240 C1241 1.363 . S
C1240 C1246 1.379 . S
C1240 N1248 1.356 . S
C1241 C1240 1.363 . S
C1241 C1247 1.363 . S
C1242 C1243 1.363 . S
C1242 C1247 1.379 . S
C1242 N1249 1.356 1_565 S
C1243 C1242 1.363 . S
C1243 C1246 1.363 . S
N1244 C1246 1.356 . S
N1244 H1256 0.984 . S
N1244 H1257 0.985 1_565 S
N1245 C1247 1.356 . S
N1245 H1250 0.984 . S
N1245 H1251 0.985 . S
C1246 C1240 1.379 . S
C1246 C1243 1.363 . S
C1246 N1244 1.356 . S
C1247 C1241 1.363 . S
C1247 C1242 1.379 . S
C1247 N1245 1.356 . S
N1248 C1240 1.356 . S
N1248 H1254 0.984 . S
N1248 H1255 0.984 . S
N1249 C1242 1.356 1_545 S
N1249 H1252 0.984 . S
N1249 H1253 0.985 . S
H1250 N1245 0.984 . S
H1251 N1245 0.985 . S
H1252 N1249 0.984 . S
H1253 N1249 0.985 . S
H1254 N1248 0.984 . S
H1255 N1248 0.984 . S
H1256 N1244 0.984 . S
H1257 N1244 0.985 1_545 S
C1258 C1259 1.363 1_556 S
C1258 C1264 1.379 . S
C1258 N1266 1.356 . S
C1259 C1258 1.363 1_554 S
C1259 C1265 1.363 . S
C1260 C1261 1.363 . S
C1260 C1265 1.379 . S
C1260 N1267 1.356 . S
C1261 C1260 1.363 . S
C1261 C1264 1.363 1_554 S
N1262 C1264 1.356 . S
N1262 H1274 0.984 . S
N1262 H1275 0.985 . S
N1263 C1265 1.356 . S
N1263 H1268 0.984 . S
N1263 H1269 0.985 . S
C1264 C1258 1.379 . S
C1264 C1261 1.363 1_556 S
C1264 N1262 1.356 . S
C1265 C1259 1.363 . S
C1265 C1260 1.379 . S
C1265 N1263 1.356 . S
N1266 C1258 1.356 . S
N1266 H1272 0.984 . S
N1266 H1273 0.984 . S
N1267 C1260 1.356 . S
N1267 H1270 0.984 . S
N1267 H1271 0.985 . S
H1268 N1263 0.984 . S
H1269 N1263 0.985 . S
H1270 N1267 0.984 . S
H1271 N1267 0.985 . S
H1272 N1266 0.984 . S
H1273 N1266 0.984 . S
H1274 N1262 0.984 . S
H1275 N1262 0.985 . S
C1276 C1277 1.363 . S
C1276 C1282 1.379 . S
C1276 N1284 1.356 . S
C1277 C1276 1.363 . S
C1277 C1283 1.363 . S
C1278 C1279 1.363 . S
C1278 C1283 1.379 . S
C1278 N1285 1.356 . S
C1279 C1278 1.363 . S
C1279 C1282 1.363 . S
N1280 C1282 1.356 . S
N1280 H1292 0.984 . S
N1280 H1293 0.985 . S
N1281 C1283 1.356 . S
N1281 H1286 0.984 . S
N1281 H1287 0.985 . S
C1282 C1276 1.379 . S
C1282 C1279 1.363 . S
C1282 N1280 1.356 . S
C1283 C1277 1.363 . S
C1283 C1278 1.379 . S
C1283 N1281 1.356 . S
N1284 C1276 1.356 . S
N1284 H1290 0.984 . S
N1284 H1291 0.984 . S
N1285 C1278 1.356 . S
N1285 H1288 0.984 . S
N1285 H1289 0.985 . S
H1286 N1281 0.984 . S
H1287 N1281 0.985 . S
H1288 N1285 0.984 . S
H1289 N1285 0.985 . S
H1290 N1284 0.984 . S
H1291 N1284 0.984 . S
H1292 N1280 0.984 . S
H1293 N1280 0.985 . S
C1294 C1295 1.363 . S
C1294 C1300 1.379 . S
C1294 N1302 1.356 . S
C1295 C1294 1.363 . S
C1295 C1301 1.363 . S
C1296 C1297 1.363 . S
C1296 C1301 1.379 . S
C1296 N1303 1.356 . S
C1297 C1296 1.363 . S
C1297 C1300 1.363 . S
N1298 C1300 1.356 . S
N1298 H1310 0.984 . S
N1298 H1311 0.985 . S
N1299 C1301 1.356 . S
N1299 H1304 0.984 . S
N1299 H1305 0.985 . S
C1300 C1294 1.379 . S
C1300 C1297 1.363 . S
C1300 N1298 1.356 . S
C1301 C1295 1.363 . S
C1301 C1296 1.379 . S
C1301 N1299 1.356 . S
N1302 C1294 1.356 . S
N1302 H1308 0.984 . S
N1302 H1309 0.984 . S
N1303 C1296 1.356 . S
N1303 H1306 0.984 . S
N1303 H1307 0.985 . S
H1304 N1299 0.984 . S
H1305 N1299 0.985 . S
H1306 N1303 0.984 . S
H1307 N1303 0.985 . S
H1308 N1302 0.984 . S
H1309 N1302 0.984 . S
H1310 N1298 0.984 . S
H1311 N1298 0.985 . S
C1312 C1313 1.363 . S
C1312 C1318 1.379 . S
C1312 N1320 1.356 . S
C1313 C1312 1.363 . S
C1313 C1319 1.363 . S
C1314 C1315 1.363 . S
C1314 C1319 1.379 . S
C1314 N1321 1.356 . S
C1315 C1314 1.363 . S
C1315 C1318 1.363 . S
N1316 C1318 1.356 . S
N1316 H1328 0.984 . S
N1316 H1329 0.985 . S
N1317 C1319 1.356 . S
N1317 H1322 0.984 . S
N1317 H1323 0.985 . S
C1318 C1312 1.379 . S
C1318 C1315 1.363 . S
C1318 N1316 1.356 . S
C1319 C1313 1.363 . S
C1319 C1314 1.379 . S
C1319 N1317 1.356 . S
N1320 C1312 1.356 . S
N1320 H1326 0.984 . S
N1320 H1327 0.984 . S
N1321 C1314 1.356 . S
N1321 H1324 0.984 . S
N1321 H1325 0.985 . S
H1322 N1317 0.984 . S
H1323 N1317 0.985 . S
H1324 N1321 0.984 . S
H1325 N1321 0.985 . S
H1326 N1320 0.984 . S
H1327 N1320 0.984 . S
H1328 N1316 0.984 . S
H1329 N1316 0.985 . S
C1330 C1331 1.363 . S
C1330 C1336 1.379 . S
C1330 N1338 1.356 . S
C1331 C1330 1.363 . S
C1331 C1337 1.363 . S
C1332 C1333 1.363 . S
C1332 C1337 1.379 . S
C1332 N1339 1.356 . S
C1333 C1332 1.363 . S
C1333 C1336 1.363 . S
N1334 C1336 1.356 . S
N1334 H1346 0.984 . S
N1334 H1347 0.985 . S
N1335 C1337 1.356 . S
N1335 H1340 0.984 . S
N1335 H1341 0.985 . S
C1336 C1330 1.379 . S
C1336 C1333 1.363 . S
C1336 N1334 1.356 . S
C1337 C1331 1.363 . S
C1337 C1332 1.379 . S
C1337 N1335 1.356 . S
N1338 C1330 1.356 . S
N1338 H1344 0.984 . S
N1338 H1345 0.984 . S
N1339 C1332 1.356 . S
N1339 H1342 0.984 . S
N1339 H1343 0.985 . S
H1340 N1335 0.984 . S
H1341 N1335 0.985 . S
H1342 N1339 0.984 . S
H1343 N1339 0.985 . S
H1344 N1338 0.984 . S
H1345 N1338 0.984 . S
H1346 N1334 0.984 . S
H1347 N1334 0.985 . S
C1348 C1349 1.363 . S
C1348 C1354 1.379 . S
C1348 N1356 1.356 . S
C1349 C1348 1.363 . S
C1349 C1355 1.363 . S
C1350 C1351 1.363 . S
C1350 C1355 1.379 . S
C1350 N1357 1.356 . S
C1351 C1350 1.363 . S
C1351 C1354 1.363 . S
N1352 C1354 1.356 . S
N1352 H1364 0.984 . S
N1352 H1365 0.985 . S
N1353 C1355 1.356 . S
N1353 H1358 0.984 . S
N1353 H1359 0.985 . S
C1354 C1348 1.379 . S
C1354 C1351 1.363 . S
C1354 N1352 1.356 . S
C1355 C1349 1.363 . S
C1355 C1350 1.379 . S
C1355 N1353 1.356 . S
N1356 C1348 1.356 . S
N1356 H1362 0.984 . S
N1356 H1363 0.984 . S
N1357 C1350 1.356 . S
N1357 H1360 0.984 . S
N1357 H1361 0.985 . S
H1358 N1353 0.984 . S
H1359 N1353 0.985 . S
H1360 N1357 0.984 . S
H1361 N1357 0.985 . S
H1362 N1356 0.984 . S
H1363 N1356 0.984 . S
H1364 N1352 0.984 . S
H1365 N1352 0.985 . S
C1366 C1367 1.363 . S
C1366 C1372 1.379 . S
C1366 N1374 1.369 . S
C1367 C1366 1.363 . S
C1367 C1373 1.363 . S
C1368 C1369 1.363 . S
C1368 C1373 1.379 . S
C1368 N1375 1.356 . S
C1369 C1368 1.363 . S
C1369 C1372 1.363 . S
N1370 C1372 1.356 . S
N1370 H1382 0.984 . S
N1370 H1383 0.985 . S
N1371 C1373 1.356 . S
N1371 H1376 0.984 . S
N1371 H1377 0.985 . S
C1372 C1366 1.379 . S
C1372 C1369 1.363 . S
C1372 N1370 1.356 . S
C1373 C1367 1.363 . S
C1373 C1368 1.379 . S
C1373 N1371 1.356 . S
N1374 C1366 1.369 . S
N1374 H1380 0.979 1_655 S
N1374 H1381 0.978 1_655 S
N1375 C1368 1.356 . S
N1375 H1378 0.984 . S
N1375 H1379 0.985 . S
H1376 N1371 0.984 . S
H1377 N1371 0.985 . S
H1378 N1375 0.984 . S
H1379 N1375 0.985 . S
H1380 N1374 0.979 1_455 S
H1381 N1374 0.978 1_455 S
H1382 N1370 0.984 . S
H1383 N1370 0.985 . S
C1384 C1385 1.363 . S
C1384 C1390 1.379 . S
C1384 N1392 1.356 . S
C1385 C1384 1.363 . S
C1385 C1391 1.363 . S
C1386 C1387 1.363 . S
C1386 C1391 1.379 . S
C1386 N1393 1.356 1_565 S
C1387 C1386 1.363 . S
C1387 C1390 1.363 . S
N1388 C1390 1.356 . S
N1388 H1400 0.984 . S
N1388 H1401 0.985 . S
N1389 C1391 1.356 . S
N1389 H1394 0.984 . S
N1389 H1395 0.985 . S
C1390 C1384 1.379 . S
C1390 C1387 1.363 . S
C1390 N1388 1.356 . S
C1391 C1385 1.363 . S
C1391 C1386 1.379 . S
C1391 N1389 1.356 . S
N1392 C1384 1.356 . S
N1392 H1398 0.984 . S
N1392 H1399 0.984 . S
N1393 C1386 1.356 1_545 S
N1393 H1396 0.984 . S
N1393 H1397 0.985 . S
H1394 N1389 0.984 . S
H1395 N1389 0.985 . S
H1396 N1393 0.984 . S
H1397 N1393 0.985 . S
H1398 N1392 0.984 . S
H1399 N1392 0.984 . S
H1400 N1388 0.984 . S
H1401 N1388 0.985 . S
C1402 C1403 1.363 . S
C1402 C1408 1.379 . S
C1402 N1410 1.356 . S
C1403 C1402 1.363 . S
C1403 C1409 1.363 . S
C1404 C1405 1.363 . S
C1404 C1409 1.379 . S
C1404 N1411 1.356 . S
C1405 C1404 1.363 . S
C1405 C1408 1.363 . S
N1406 C1408 1.356 . S
N1406 H1418 0.984 . S
N1406 H1419 0.985 . S
N1407 C1409 1.356 . S
N1407 H1412 0.984 . S
N1407 H1413 0.985 . S
C1408 C1402 1.379 . S
C1408 C1405 1.363 . S
C1408 N1406 1.356 . S
C1409 C1403 1.363 . S
C1409 C1404 1.379 . S
C1409 N1407 1.356 . S
N1410 C1402 1.356 . S
N1410 H1416 0.984 . S
N1410 H1417 0.984 . S
N1411 C1404 1.356 . S
N1411 H1414 0.984 . S
N1411 H1415 0.985 . S
H1412 N1407 0.984 . S
H1413 N1407 0.985 . S
H1414 N1411 0.984 . S
H1415 N1411 0.985 . S
H1416 N1410 0.984 . S
H1417 N1410 0.984 . S
H1418 N1406 0.984 . S
H1419 N1406 0.985 . S
C1420 C1421 1.363 . S
C1420 C1426 1.379 . S
C1420 N1428 1.356 . S
C1421 C1420 1.363 . S
C1421 C1427 1.363 . S
C1422 C1423 1.363 . S
C1422 C1427 1.379 . S
C1422 N1429 1.356 . S
C1423 C1422 1.363 . S
C1423 C1426 1.363 . S
N1424 C1426 1.356 . S
N1424 H1436 0.984 . S
N1424 H1437 0.985 . S
N1425 C1427 1.356 . S
N1425 H1430 0.984 . S
N1425 H1431 0.985 . S
C1426 C1420 1.379 . S
C1426 C1423 1.363 . S
C1426 N1424 1.356 . S
C1427 C1421 1.363 . S
C1427 C1422 1.379 . S
C1427 N1425 1.356 . S
N1428 C1420 1.356 . S
N1428 H1434 0.984 . S
N1428 H1435 0.984 . S
N1429 C1422 1.356 . S
N1429 H1432 0.984 . S
N1429 H1433 0.985 . S
H1430 N1425 0.984 . S
H1431 N1425 0.985 . S
H1432 N1429 0.984 . S
H1433 N1429 0.985 . S
H1434 N1428 0.984 . S
H1435 N1428 0.984 . S
H1436 N1424 0.984 . S
H1437 N1424 0.985 . S
C1438 C1439 1.363 . S
C1438 C1444 1.379 . S
C1438 N1446 1.356 . S
C1439 C1438 1.363 . S
C1439 C1445 1.363 . S
C1440 C1441 1.363 . S
C1440 C1445 1.379 . S
C1440 N1447 1.356 . S
C1441 C1440 1.363 . S
C1441 C1444 1.363 . S
N1442 C1444 1.356 . S
N1442 H1454 0.984 . S
N1442 H1455 0.985 . S
N1443 C1445 1.356 . S
N1443 H1448 0.984 . S
N1443 H1449 0.985 . S
C1444 C1438 1.379 . S
C1444 C1441 1.363 . S
C1444 N1442 1.356 . S
C1445 C1439 1.363 . S
C1445 C1440 1.379 . S
C1445 N1443 1.356 . S
N1446 C1438 1.356 . S
N1446 H1452 0.984 . S
N1446 H1453 0.984 . S
N1447 C1440 1.356 . S
N1447 H1450 0.984 . S
N1447 H1451 0.985 . S
H1448 N1443 0.984 . S
H1449 N1443 0.985 . S
H1450 N1447 0.984 . S
H1451 N1447 0.985 . S
H1452 N1446 0.984 . S
H1453 N1446 0.984 . S
H1454 N1442 0.984 . S
H1455 N1442 0.985 . S
C1456 C1457 1.363 . S
C1456 C1462 1.379 . S
C1456 N1464 1.356 . S
C1457 C1456 1.363 . S
C1457 C1463 1.363 . S
C1458 C1459 1.363 . S
C1458 C1463 1.379 . S
C1458 N1465 1.356 . S
C1459 C1458 1.363 . S
C1459 C1462 1.363 . S
N1460 C1462 1.356 . S
N1460 H1472 0.984 1_455 S
N1460 H1473 0.985 . S
N1461 C1463 1.356 . S
N1461 H1466 0.984 . S
N1461 H1467 0.985 . S
C1462 C1456 1.379 . S
C1462 C1459 1.363 . S
C1462 N1460 1.356 . S
C1463 C1457 1.363 . S
C1463 C1458 1.379 . S
C1463 N1461 1.356 . S
N1464 C1456 1.356 . S
N1464 H1470 0.984 1_455 S
N1464 H1471 0.984 . S
N1465 C1458 1.356 . S
N1465 H1468 0.984 . S
N1465 H1469 0.985 . S
H1466 N1461 0.984 . S
H1467 N1461 0.985 . S
H1468 N1465 0.984 . S
H1469 N1465 0.985 . S
H1470 N1464 0.984 1_655 S
H1471 N1464 0.984 . S
H1472 N1460 0.984 1_655 S
H1473 N1460 0.985 . S
C1474 C1475 1.363 . S
C1474 C1480 1.379 . S
C1474 N1482 1.356 . S
C1475 C1474 1.363 . S
C1475 C1481 1.363 . S
C1476 C1477 1.363 . S
C1476 C1481 1.379 . S
C1476 N1483 1.356 . S
C1477 C1476 1.363 . S
C1477 C1480 1.363 . S
N1478 C1480 1.356 . S
N1478 H1490 0.984 . S
N1478 H1491 0.985 . S
N1479 C1481 1.356 . S
N1479 H1484 0.984 . S
N1479 H1485 0.985 . S
C1480 C1474 1.379 . S
C1480 C1477 1.363 . S
C1480 N1478 1.356 . S
C1481 C1475 1.363 . S
C1481 C1476 1.379 . S
C1481 N1479 1.356 . S
N1482 C1474 1.356 . S
N1482 H1488 0.984 . S
N1482 H1489 0.984 . S
N1483 C1476 1.356 . S
N1483 H1486 0.984 . S
N1483 H1487 0.985 . S
H1484 N1479 0.984 . S
H1485 N1479 0.985 . S
H1486 N1483 0.984 . S
H1487 N1483 0.985 . S
H1488 N1482 0.984 . S
H1489 N1482 0.984 . S
H1490 N1478 0.984 . S
H1491 N1478 0.985 . S
C1492 C1493 1.363 . S
C1492 C1498 1.379 . S
C1492 N1500 1.356 . S
C1493 C1492 1.363 . S
C1493 C1499 1.363 . S
C1494 C1495 1.363 . S
C1494 C1499 1.379 . S
C1494 N1501 1.356 . S
C1495 C1494 1.363 . S
C1495 C1498 1.363 . S
N1496 C1498 1.356 . S
N1496 H1508 0.984 . S
N1496 H1509 0.985 . S
N1497 C1499 1.356 . S
N1497 H1502 0.984 . S
N1497 H1503 0.985 . S
C1498 C1492 1.379 . S
C1498 C1495 1.363 . S
C1498 N1496 1.356 . S
C1499 C1493 1.363 . S
C1499 C1494 1.379 . S
C1499 N1497 1.356 . S
N1500 C1492 1.356 . S
N1500 H1506 0.984 . S
N1500 H1507 0.984 . S
N1501 C1494 1.356 . S
N1501 H1504 0.984 . S
N1501 H1505 0.985 . S
H1502 N1497 0.984 . S
H1503 N1497 0.985 . S
H1504 N1501 0.984 . S
H1505 N1501 0.985 . S
H1506 N1500 0.984 . S
H1507 N1500 0.984 . S
H1508 N1496 0.984 . S
H1509 N1496 0.985 . S
C1510 C1511 1.363 . S
C1510 C1516 1.379 . S
C1510 N1518 1.356 . S
C1511 C1510 1.363 . S
C1511 C1517 1.363 . S
C1512 C1513 1.363 . S
C1512 C1517 1.379 . S
C1512 N1519 1.356 . S
C1513 C1512 1.363 . S
C1513 C1516 1.363 . S
N1514 C1516 1.356 . S
N1514 H1526 0.984 . S
N1514 H1527 0.985 . S
N1515 C1517 1.356 . S
N1515 H1520 0.984 . S
N1515 H1521 0.985 . S
C1516 C1510 1.379 . S
C1516 C1513 1.363 . S
C1516 N1514 1.356 . S
C1517 C1511 1.363 . S
C1517 C1512 1.379 . S
C1517 N1515 1.356 . S
N1518 C1510 1.356 . S
N1518 H1524 0.984 . S
N1518 H1525 0.984 . S
N1519 C1512 1.356 . S
N1519 H1522 0.984 . S
N1519 H1523 0.985 . S
H1520 N1515 0.984 . S
H1521 N1515 0.985 . S
H1522 N1519 0.984 . S
H1523 N1519 0.985 . S
H1524 N1518 0.984 . S
H1525 N1518 0.984 . S
H1526 N1514 0.984 . S
H1527 N1514 0.985 . S
C1528 C1529 1.363 . S
C1528 C1534 1.379 . S
C1528 N1536 1.356 . S
C1529 C1528 1.363 . S
C1529 C1535 1.363 . S
C1530 C1531 1.363 . S
C1530 C1535 1.379 . S
C1530 N1537 1.356 1_556 S
C1531 C1530 1.363 . S
C1531 C1534 1.363 . S
N1532 C1534 1.356 . S
N1532 H1544 0.984 . S
N1532 H1545 0.985 . S
N1533 C1535 1.356 . S
N1533 H1538 0.984 . S
N1533 H1539 0.985 . S
C1534 C1528 1.379 . S
C1534 C1531 1.363 . S
C1534 N1532 1.356 . S
C1535 C1529 1.363 . S
C1535 C1530 1.379 . S
C1535 N1533 1.356 . S
N1536 C1528 1.356 . S
N1536 H1542 0.984 . S
N1536 H1543 0.984 . S
N1537 C1530 1.356 1_554 S
N1537 H1540 0.984 . S
N1537 H1541 0.985 . S
H1538 N1533 0.984 . S
H1539 N1533 0.985 . S
H1540 N1537 0.984 . S
H1541 N1537 0.985 . S
H1542 N1536 0.984 . S
H1543 N1536 0.984 . S
H1544 N1532 0.984 . S
H1545 N1532 0.985 . S
C1546 C1547 1.363 . S
C1546 C1552 1.379 . S
C1546 N1554 1.356 . S
C1547 C1546 1.363 . S
C1547 C1553 1.363 . S
C1548 C1549 1.363 . S
C1548 C1553 1.379 . S
C1548 N1555 1.356 . S
C1549 C1548 1.363 . S
C1549 C1552 1.363 . S
N1550 C1552 1.356 . S
N1550 H1562 0.984 . S
N1550 H1563 0.985 . S
N1551 C1553 1.356 . S
N1551 H1556 0.984 . S
N1551 H1557 0.985 . S
C1552 C1546 1.379 . S
C1552 C1549 1.363 . S
C1552 N1550 1.356 . S
C1553 C1547 1.363 . S
C1553 C1548 1.379 . S
C1553 N1551 1.356 . S
N1554 C1546 1.356 . S
N1554 H1560 0.984 . S
N1554 H1561 0.984 . S
N1555 C1548 1.356 . S
N1555 H1558 0.984 . S
N1555 H1559 0.985 . S
H1556 N1551 0.984 . S
H1557 N1551 0.985 . S
H1558 N1555 0.984 . S
H1559 N1555 0.985 . S
H1560 N1554 0.984 . S
H1561 N1554 0.984 . S
H1562 N1550 0.984 . S
H1563 N1550 0.985 . S
C1564 C1565 1.363 . S
C1564 C1570 1.379 . S
C1564 N1572 1.356 . S
C1565 C1564 1.363 . S
C1565 C1571 1.363 . S
C1566 C1567 1.363 . S
C1566 C1571 1.379 . S
C1566 N1573 1.356 . S
C1567 C1566 1.363 . S
C1567 C1570 1.363 . S
N1568 C1570 1.356 . S
N1568 H1580 0.984 . S
N1568 H1581 0.985 . S
N1569 C1571 1.356 . S
N1569 H1574 0.984 . S
N1569 H1575 0.985 . S
C1570 C1564 1.379 . S
C1570 C1567 1.363 . S
C1570 N1568 1.356 . S
C1571 C1565 1.363 . S
C1571 C1566 1.379 . S
C1571 N1569 1.356 . S
N1572 C1564 1.356 . S
N1572 H1578 0.984 . S
N1572 H1579 0.984 . S
N1573 C1566 1.356 . S
N1573 H1576 0.984 . S
N1573 H1577 0.985 . S
H1574 N1569 0.984 . S
H1575 N1569 0.985 . S
H1576 N1573 0.984 . S
H1577 N1573 0.985 . S
H1578 N1572 0.984 . S
H1579 N1572 0.984 . S
H1580 N1568 0.984 . S
H1581 N1568 0.985 . S
C1582 C1583 1.363 . S
C1582 C1588 1.379 . S
C1582 N1590 1.356 . S
C1583 C1582 1.363 . S
C1583 C1589 1.363 . S
C1584 C1585 1.363 . S
C1584 C1589 1.379 . S
C1584 N1591 1.356 . S
C1585 C1584 1.363 . S
C1585 C1588 1.363 . S
N1586 C1588 1.356 . S
N1586 H1598 0.984 . S
N1586 H1599 0.985 . S
N1587 C1589 1.356 . S
N1587 H1592 0.984 . S
N1587 H1593 0.985 . S
C1588 C1582 1.379 . S
C1588 C1585 1.363 . S
C1588 N1586 1.356 . S
C1589 C1583 1.363 . S
C1589 C1584 1.379 . S
C1589 N1587 1.356 . S
N1590 C1582 1.356 . S
N1590 H1596 0.984 . S
N1590 H1597 0.984 . S
N1591 C1584 1.356 . S
N1591 H1594 0.984 . S
N1591 H1595 0.985 . S
H1592 N1587 0.984 . S
H1593 N1587 0.985 . S
H1594 N1591 0.984 . S
H1595 N1591 0.985 . S
H1596 N1590 0.984 . S
H1597 N1590 0.984 . S
H1598 N1586 0.984 . S
H1599 N1586 0.985 . S
C1600 C1601 1.363 . S
C1600 C1606 1.379 . S
C1600 N1608 1.356 . S
C1601 C1600 1.363 . S
C1601 C1607 1.363 . S
C1602 C1603 1.363 . S
C1602 C1607 1.379 . S
C1602 N1609 1.356 . S
C1603 C1602 1.363 . S
C1603 C1606 1.363 . S
N1604 C1606 1.356 . S
N1604 H1616 0.984 . S
N1604 H1617 0.985 . S
N1605 C1607 1.356 . S
N1605 H1610 0.984 . S
N1605 H1611 0.985 . S
C1606 C1600 1.379 . S
C1606 C1603 1.363 . S
C1606 N1604 1.356 . S
C1607 C1601 1.363 . S
C1607 C1602 1.379 . S
C1607 N1605 1.356 . S
N1608 C1600 1.356 . S
N1608 H1614 0.984 . S
N1608 H1615 0.984 . S
N1609 C1602 1.356 . S
N1609 H1612 0.984 . S
N1609 H1613 0.985 . S
H1610 N1605 0.984 . S
H1611 N1605 0.985 . S
H1612 N1609 0.984 . S
H1613 N1609 0.985 . S
H1614 N1608 0.984 . S
H1615 N1608 0.984 . S
H1616 N1604 0.984 . S
H1617 N1604 0.985 . S
C1618 C1619 1.363 . S
C1618 C1624 1.379 . S
C1618 N1626 1.356 . S
C1619 C1618 1.363 . S
C1619 C1625 1.363 . S
C1620 C1621 1.363 . S
C1620 C1625 1.379 . S
C1620 N1627 1.356 . S
C1621 C1620 1.363 . S
C1621 C1624 1.363 . S
N1622 C1624 1.356 . S
N1622 H1634 0.984 . S
N1622 H1635 0.985 . S
N1623 C1625 1.356 . S
N1623 H1628 0.984 . S
N1623 H1629 0.985 . S
C1624 C1618 1.379 . S
C1624 C1621 1.363 . S
C1624 N1622 1.356 . S
C1625 C1619 1.363 . S
C1625 C1620 1.379 . S
C1625 N1623 1.356 . S
N1626 C1618 1.356 . S
N1626 H1632 0.984 . S
N1626 H1633 0.984 . S
N1627 C1620 1.356 . S
N1627 H1630 0.984 . S
N1627 H1631 0.985 . S
H1628 N1623 0.984 . S
H1629 N1623 0.985 . S
H1630 N1627 0.984 . S
H1631 N1627 0.985 . S
H1632 N1626 0.984 . S
H1633 N1626 0.984 . S
H1634 N1622 0.984 . S
H1635 N1622 0.985 . S
C1636 C1637 1.363 . S
C1636 C1642 1.379 . S
C1636 N1644 1.356 . S
C1637 C1636 1.363 . S
C1637 C1643 1.363 . S
C1638 C1639 1.363 . S
C1638 C1643 1.379 . S
C1638 N1645 1.356 . S
C1639 C1638 1.363 . S
C1639 C1642 1.363 . S
N1640 C1642 1.356 . S
N1640 H1652 0.984 . S
N1640 H1653 0.985 . S
N1641 C1643 1.356 . S
N1641 H1646 0.984 . S
N1641 H1647 0.985 . S
C1642 C1636 1.379 . S
C1642 C1639 1.363 . S
C1642 N1640 1.356 . S
C1643 C1637 1.363 . S
C1643 C1638 1.379 . S
C1643 N1641 1.356 . S
N1644 C1636 1.356 . S
N1644 H1650 0.984 . S
N1644 H1651 0.984 . S
N1645 C1638 1.356 . S
N1645 H1648 0.984 1_545 S
N1645 H1649 0.985 1_545 S
H1646 N1641 0.984 . S
H1647 N1641 0.985 . S
H1648 N1645 0.984 1_565 S
H1649 N1645 0.985 1_565 S
H1650 N1644 0.984 . S
H1651 N1644 0.984 . S
H1652 N1640 0.984 . S
H1653 N1640 0.985 . S
C1654 C1655 1.363 . S
C1654 C1660 1.379 . S
C1654 N1662 1.356 . S
C1655 C1654 1.363 . S
C1655 C1661 1.363 . S
C1656 C1657 1.363 . S
C1656 C1661 1.379 . S
C1656 N1663 1.356 . S
C1657 C1656 1.363 . S
C1657 C1660 1.363 . S
N1658 C1660 1.356 . S
N1658 H1670 0.984 . S
N1658 H1671 0.985 . S
N1659 C1661 1.356 . S
N1659 H1664 0.984 . S
N1659 H1665 0.985 . S
C1660 C1654 1.379 . S
C1660 C1657 1.363 . S
C1660 N1658 1.356 . S
C1661 C1655 1.363 . S
C1661 C1656 1.379 . S
C1661 N1659 1.356 . S
N1662 C1654 1.356 . S
N1662 H1668 0.984 . S
N1662 H1669 0.984 . S
N1663 C1656 1.356 . S
N1663 H1666 0.984 . S
N1663 H1667 0.985 . S
H1664 N1659 0.984 . S
H1665 N1659 0.985 . S
H1666 N1663 0.984 . S
H1667 N1663 0.985 . S
H1668 N1662 0.984 . S
H1669 N1662 0.984 . S
H1670 N1658 0.984 . S
H1671 N1658 0.985 . S
C1672 C1673 1.363 . S
C1672 C1678 1.379 . S
C1672 N1680 1.356 . S
C1673 C1672 1.363 . S
C1673 C1679 1.363 1_554 S
C1674 C1675 1.363 . S
C1674 C1679 1.379 . S
C1674 N1681 1.356 . S
C1675 C1674 1.363 . S
C1675 C1678 1.363 1_556 S
N1676 C1678 1.356 . S
N1676 H1688 0.984 . S
N1676 H1689 0.985 . S
N1677 C1679 1.356 . S
N1677 H1682 0.984 . S
N1677 H1683 0.985 . S
C1678 C1672 1.379 . S
C1678 C1675 1.363 1_554 S
C1678 N1676 1.356 . S
C1679 C1673 1.363 1_556 S
C1679 C1674 1.379 . S
C1679 N1677 1.356 . S
N1680 C1672 1.356 . S
N1680 H1686 0.984 . S
N1680 H1687 0.984 . S
N1681 C1674 1.356 . S
N1681 H1684 0.984 . S
N1681 H1685 0.985 . S
H1682 N1677 0.984 . S
H1683 N1677 0.985 . S
H1684 N1681 0.984 . S
H1685 N1681 0.985 . S
H1686 N1680 0.984 . S
H1687 N1680 0.984 . S
H1688 N1676 0.984 . S
H1689 N1676 0.985 . S
C1690 C1691 1.363 . S
C1690 C1696 1.379 . S
C1690 N1698 1.356 . S
C1691 C1690 1.363 . S
C1691 C1697 1.363 . S
C1692 C1693 1.363 . S
C1692 C1697 1.379 . S
C1692 N1699 1.356 1_554 S
C1693 C1692 1.363 . S
C1693 C1696 1.363 . S
N1694 C1696 1.356 . S
N1694 H1706 0.984 . S
N1694 H1707 0.985 . S
N1695 C1697 1.356 1_556 S
N1695 H1700 0.984 1_556 S
N1695 H1701 0.985 . S
C1696 C1690 1.379 . S
C1696 C1693 1.363 . S
C1696 N1694 1.356 . S
C1697 C1691 1.363 . S
C1697 C1692 1.379 . S
C1697 N1695 1.356 1_554 S
N1698 C1690 1.356 . S
N1698 H1704 0.984 . S
N1698 H1705 0.984 . S
N1699 C1692 1.356 1_556 S
N1699 H1702 0.984 . S
N1699 H1703 0.985 . S
H1700 N1695 0.984 1_554 S
H1701 N1695 0.985 . S
H1702 N1699 0.984 . S
H1703 N1699 0.985 . S
H1704 N1698 0.984 . S
H1705 N1698 0.984 . S
H1706 N1694 0.984 . S
H1707 N1694 0.985 . S
C1708 C1709 1.363 . S
C1708 C1714 1.379 . S
C1708 N1716 1.356 . S
C1709 C1708 1.363 . S
C1709 C1715 1.363 . S
C1710 C1711 1.363 . S
C1710 C1715 1.379 . S
C1710 N1717 1.356 . S
C1711 C1710 1.363 . S
C1711 C1714 1.363 . S
N1712 C1714 1.356 . S
N1712 H1724 0.984 . S
N1712 H1725 0.985 . S
N1713 C1715 1.356 . S
N1713 H1718 0.984 . S
N1713 H1719 0.985 . S
C1714 C1708 1.379 . S
C1714 C1711 1.363 . S
C1714 N1712 1.356 . S
C1715 C1709 1.363 . S
C1715 C1710 1.379 . S
C1715 N1713 1.356 . S
N1716 C1708 1.356 . S
N1716 H1722 0.984 . S
N1716 H1723 0.984 . S
N1717 C1710 1.356 . S
N1717 H1720 0.984 . S
N1717 H1721 0.985 . S
H1718 N1713 0.984 . S
H1719 N1713 0.985 . S
H1720 N1717 0.984 . S
H1721 N1717 0.985 . S
H1722 N1716 0.984 . S
H1723 N1716 0.984 . S
H1724 N1712 0.984 . S
H1725 N1712 0.985 . S
C1726 C1727 1.363 . S
C1726 C1732 1.379 . S
C1726 N1734 1.356 . S
C1727 C1726 1.363 . S
C1727 C1733 1.363 . S
C1728 C1729 1.363 . S
C1728 C1733 1.379 . S
C1728 N1735 1.356 . S
C1729 C1728 1.363 . S
C1729 C1732 1.363 . S
N1730 C1732 1.356 . S
N1730 H1742 0.984 . S
N1730 H1743 0.985 . S
N1731 C1733 1.356 . S
N1731 H1736 0.984 . S
N1731 H1737 0.985 . S
C1732 C1726 1.379 . S
C1732 C1729 1.363 . S
C1732 N1730 1.356 . S
C1733 C1727 1.363 . S
C1733 C1728 1.379 . S
C1733 N1731 1.356 . S
N1734 C1726 1.356 . S
N1734 H1740 0.984 . S
N1734 H1741 0.984 . S
N1735 C1728 1.356 . S
N1735 H1738 0.984 . S
N1735 H1739 0.985 . S
H1736 N1731 0.984 . S
H1737 N1731 0.985 . S
H1738 N1735 0.984 . S
H1739 N1735 0.985 . S
H1740 N1734 0.984 . S
H1741 N1734 0.984 . S
H1742 N1730 0.984 . S
H1743 N1730 0.985 . S
C1744 C1745 1.363 . S
C1744 C1750 1.379 . S
C1744 N1752 1.356 . S
C1745 C1744 1.363 . S
C1745 C1751 1.363 . S
C1746 C1747 1.363 . S
C1746 C1751 1.379 . S
C1746 N1753 1.356 . S
C1747 C1746 1.363 . S
C1747 C1750 1.363 . S
N1748 C1750 1.356 . S
N1748 H1760 0.984 . S
N1748 H1761 0.985 . S
N1749 C1751 1.356 . S
N1749 H1754 0.984 . S
N1749 H1755 0.985 . S
C1750 C1744 1.379 . S
C1750 C1747 1.363 . S
C1750 N1748 1.356 . S
C1751 C1745 1.363 . S
C1751 C1746 1.379 . S
C1751 N1749 1.356 . S
N1752 C1744 1.356 . S
N1752 H1758 0.984 . S
N1752 H1759 0.984 . S
N1753 C1746 1.356 . S
N1753 H1756 0.984 . S
N1753 H1757 0.985 . S
H1754 N1749 0.984 . S
H1755 N1749 0.985 . S
H1756 N1753 0.984 . S
H1757 N1753 0.985 . S
H1758 N1752 0.984 . S
H1759 N1752 0.984 . S
H1760 N1748 0.984 . S
H1761 N1748 0.985 . S
C1762 C1763 1.363 . S
C1762 C1768 1.379 . S
C1762 N1770 1.356 . S
C1763 C1762 1.363 . S
C1763 C1769 1.363 . S
C1764 C1765 1.363 . S
C1764 C1769 1.379 . S
C1764 N1771 1.356 . S
C1765 C1764 1.363 . S
C1765 C1768 1.363 . S
N1766 C1768 1.356 1_545 S
N1766 H1778 0.984 . S
N1766 H1779 0.985 . S
N1767 C1769 1.356 . S
N1767 H1772 0.984 . S
N1767 H1773 0.985 . S
C1768 C1762 1.379 . S
C1768 C1765 1.363 . S
C1768 N1766 1.356 1_565 S
C1769 C1763 1.363 . S
C1769 C1764 1.379 . S
C1769 N1767 1.356 . S
N1770 C1762 1.356 . S
N1770 H1776 0.984 . S
N1770 H1777 0.984 . S
N1771 C1764 1.356 . S
N1771 H1774 0.984 . S
N1771 H1775 0.985 . S
H1772 N1767 0.984 . S
H1773 N1767 0.985 . S
H1774 N1771 0.984 . S
H1775 N1771 0.985 . S
H1776 N1770 0.984 . S
H1777 N1770 0.984 . S
H1778 N1766 0.984 . S
H1779 N1766 0.985 . S
C1780 C1781 1.363 . S
C1780 C1786 1.379 . S
C1780 N1788 1.356 . S
C1781 C1780 1.363 . S
C1781 C1787 1.363 . S
C1782 C1783 1.363 . S
C1782 C1787 1.379 . S
C1782 N1789 1.356 . S
C1783 C1782 1.363 . S
C1783 C1786 1.363 . S
N1784 C1786 1.356 . S
N1784 H1796 0.984 . S
N1784 H1797 0.985 . S
N1785 C1787 1.356 . S
N1785 H1790 0.984 . S
N1785 H1791 0.985 . S
C1786 C1780 1.379 . S
C1786 C1783 1.363 . S
C1786 N1784 1.356 . S
C1787 C1781 1.363 . S
C1787 C1782 1.379 . S
C1787 N1785 1.356 . S
N1788 C1780 1.356 . S
N1788 H1794 0.984 . S
N1788 H1795 0.984 . S
N1789 C1782 1.356 . S
N1789 H1792 0.984 . S
N1789 H1793 0.985 . S
H1790 N1785 0.984 . S
H1791 N1785 0.985 . S
H1792 N1789 0.984 . S
H1793 N1789 0.985 . S
H1794 N1788 0.984 . S
H1795 N1788 0.984 . S
H1796 N1784 0.984 . S
H1797 N1784 0.985 . S
C1798 C1799 1.363 . S
C1798 C1804 1.379 . S
C1798 N1806 1.356 . S
C1799 C1798 1.363 . S
C1799 C1805 1.363 . S
C1800 C1801 1.363 . S
C1800 C1805 1.379 . S
C1800 N1807 1.356 . S
C1801 C1800 1.363 . S
C1801 C1804 1.363 . S
N1802 C1804 1.356 . S
N1802 H1814 0.984 . S
N1802 H1815 0.985 . S
N1803 C1805 1.356 . S
N1803 H1808 0.984 . S
N1803 H1809 0.985 . S
C1804 C1798 1.379 . S
C1804 C1801 1.363 . S
C1804 N1802 1.356 . S
C1805 C1799 1.363 . S
C1805 C1800 1.379 . S
C1805 N1803 1.356 . S
N1806 C1798 1.356 . S
N1806 H1812 0.984 . S
N1806 H1813 0.984 . S
N1807 C1800 1.356 . S
N1807 H1810 0.984 . S
N1807 H1811 0.985 . S
H1808 N1803 0.984 . S
H1809 N1803 0.985 . S
H1810 N1807 0.984 . S
H1811 N1807 0.985 . S
H1812 N1806 0.984 . S
H1813 N1806 0.984 . S
H1814 N1802 0.984 . S
H1815 N1802 0.985 . S
C1816 C1817 1.363 . S
C1816 C1822 1.379 . S
C1816 N1824 1.356 . S
C1817 C1816 1.363 . S
C1817 C1823 1.363 . S
C1818 C1819 1.363 . S
C1818 C1823 1.379 . S
C1818 N1825 1.356 . S
C1819 C1818 1.363 . S
C1819 C1822 1.363 . S
N1820 C1822 1.356 . S
N1820 H1832 0.984 . S
N1820 H1833 0.985 . S
N1821 C1823 1.356 . S
N1821 H1826 0.984 . S
N1821 H1827 0.985 . S
C1822 C1816 1.379 . S
C1822 C1819 1.363 . S
C1822 N1820 1.356 . S
C1823 C1817 1.363 . S
C1823 C1818 1.379 . S
C1823 N1821 1.356 . S
N1824 C1816 1.356 . S
N1824 H1830 0.984 . S
N1824 H1831 0.984 . S
N1825 C1818 1.356 . S
N1825 H1828 0.984 . S
N1825 H1829 0.985 . S
H1826 N1821 0.984 . S
H1827 N1821 0.985 . S
H1828 N1825 0.984 . S
H1829 N1825 0.985 . S
H1830 N1824 0.984 . S
H1831 N1824 0.984 . S
H1832 N1820 0.984 . S
H1833 N1820 0.985 . S
C1834 C1835 1.363 . S
C1834 C1840 1.379 . S
C1834 N1842 1.356 . S
C1835 C1834 1.363 . S
C1835 C1841 1.363 . S
C1836 C1837 1.363 . S
C1836 C1841 1.379 . S
C1836 N1843 1.356 . S
C1837 C1836 1.363 . S
C1837 C1840 1.363 . S
N1838 C1840 1.356 . S
N1838 H1850 0.984 . S
N1838 H1851 0.985 . S
N1839 C1841 1.356 . S
N1839 H1844 0.984 . S
N1839 H1845 0.985 . S
C1840 C1834 1.379 . S
C1840 C1837 1.363 . S
C1840 N1838 1.356 . S
C1841 C1835 1.363 . S
C1841 C1836 1.379 . S
C1841 N1839 1.356 . S
N1842 C1834 1.356 . S
N1842 H1848 0.984 . S
N1842 H1849 0.984 . S
N1843 C1836 1.356 . S
N1843 H1846 0.984 . S
N1843 H1847 0.985 . S
H1844 N1839 0.984 . S
H1845 N1839 0.985 . S
H1846 N1843 0.984 . S
H1847 N1843 0.985 . S
H1848 N1842 0.984 . S
H1849 N1842 0.984 . S
H1850 N1838 0.984 . S
H1851 N1838 0.985 . S
C1852 C1853 1.363 1_655 S
C1852 C1858 1.379 . S
C1852 N1860 1.356 . S
C1853 C1852 1.363 1_455 S
C1853 C1859 1.363 . S
C1854 C1855 1.363 . S
C1854 C1859 1.379 . S
C1854 N1861 1.356 . S
C1855 C1854 1.363 . S
C1855 C1858 1.363 1_455 S
N1856 C1858 1.356 . S
N1856 H1868 0.984 1_556 S
N1856 H1869 0.985 . S
N1857 C1859 1.356 . S
N1857 H1862 0.984 . S
N1857 H1863 0.985 . S
C1858 C1852 1.379 . S
C1858 C1855 1.363 1_655 S
C1858 N1856 1.356 . S
C1859 C1853 1.363 . S
C1859 C1854 1.379 . S
C1859 N1857 1.356 . S
N1860 C1852 1.356 . S
N1860 H1866 0.984 . S
N1860 H1867 0.984 . S
N1861 C1854 1.356 . S
N1861 H1864 0.984 . S
N1861 H1865 0.985 . S
H1862 N1857 0.984 . S
H1863 N1857 0.985 . S
H1864 N1861 0.984 . S
H1865 N1861 0.985 . S
H1866 N1860 0.984 . S
H1867 N1860 0.984 . S
H1868 N1856 0.984 1_554 S
H1869 N1856 0.985 . S
C1870 C1871 1.363 . S
C1870 C1876 1.379 . S
C1870 N1878 1.356 . S
C1871 C1870 1.363 . S
C1871 C1877 1.363 . S
C1872 C1873 1.363 . S
C1872 C1877 1.379 . S
C1872 N1879 1.356 . S
C1873 C1872 1.363 . S
C1873 C1876 1.363 . S
N1874 C1876 1.356 1_655 S
N1874 H1886 0.984 . S
N1874 H1887 0.985 . S
N1875 C1877 1.356 . S
N1875 H1880 0.984 . S
N1875 H1881 0.985 . S
C1876 C1870 1.379 . S
C1876 C1873 1.363 . S
C1876 N1874 1.356 1_455 S
C1877 C1871 1.363 . S
C1877 C1872 1.379 . S
C1877 N1875 1.356 . S
N1878 C1870 1.356 . S
N1878 H1884 0.984 . S
N1878 H1885 0.984 . S
N1879 C1872 1.356 . S
N1879 H1882 0.984 . S
N1879 H1883 0.985 . S
H1880 N1875 0.984 . S
H1881 N1875 0.985 . S
H1882 N1879 0.984 . S
H1883 N1879 0.985 . S
H1884 N1878 0.984 . S
H1885 N1878 0.984 . S
H1886 N1874 0.984 . S
H1887 N1874 0.985 . S
C1888 C1889 1.363 . S
C1888 C1894 1.379 . S
C1888 N1896 1.356 . S
C1889 C1888 1.363 . S
C1889 C1895 1.363 . S
C1890 C1891 1.363 . S
C1890 C1895 1.379 . S
C1890 N1897 1.356 . S
C1891 C1890 1.363 . S
C1891 C1894 1.363 . S
N1892 C1894 1.356 . S
N1892 H1904 0.984 . S
N1892 H1905 0.985 . S
N1893 C1895 1.356 . S
N1893 H1898 0.984 . S
N1893 H1899 0.985 . S
C1894 C1888 1.379 . S
C1894 C1891 1.363 . S
C1894 N1892 1.356 . S
C1895 C1889 1.363 . S
C1895 C1890 1.379 . S
C1895 N1893 1.356 . S
N1896 C1888 1.356 . S
N1896 H1902 0.984 . S
N1896 H1903 0.984 . S
N1897 C1890 1.356 . S
N1897 H1900 0.984 . S
N1897 H1901 0.985 . S
H1898 N1893 0.984 . S
H1899 N1893 0.985 . S
H1900 N1897 0.984 . S
H1901 N1897 0.985 . S
H1902 N1896 0.984 . S
H1903 N1896 0.984 . S
H1904 N1892 0.984 . S
H1905 N1892 0.985 . S
C1906 C1907 1.363 . S
C1906 C1912 1.379 . S
C1906 N1914 1.356 . S
C1907 C1906 1.363 . S
C1907 C1913 1.363 . S
C1908 C1909 1.363 . S
C1908 C1913 1.379 . S
C1908 N1915 1.356 . S
C1909 C1908 1.363 . S
C1909 C1912 1.363 . S
N1910 C1912 1.356 . S
N1910 H1922 0.984 . S
N1910 H1923 0.985 . S
N1911 C1913 1.356 . S
N1911 H1916 0.984 . S
N1911 H1917 0.985 . S
C1912 C1906 1.379 . S
C1912 C1909 1.363 . S
C1912 N1910 1.356 . S
C1913 C1907 1.363 . S
C1913 C1908 1.379 . S
C1913 N1911 1.356 . S
N1914 C1906 1.356 . S
N1914 H1920 0.984 . S
N1914 H1921 0.984 . S
N1915 C1908 1.356 . S
N1915 H1918 0.984 . S
N1915 H1919 0.985 . S
H1916 N1911 0.984 . S
H1917 N1911 0.985 . S
H1918 N1915 0.984 . S
H1919 N1915 0.985 . S
H1920 N1914 0.984 . S
H1921 N1914 0.984 . S
H1922 N1910 0.984 . S
H1923 N1910 0.985 . S
C1924 C1925 1.363 . S
C1924 C1930 1.379 . S
C1924 N1932 1.356 . S
C1925 C1924 1.363 . S
C1925 C1931 1.363 . S
C1926 C1927 1.363 . S
C1926 C1931 1.379 . S
C1926 N1933 1.356 1_455 S
C1927 C1926 1.363 . S
C1927 C1930 1.363 . S
N1928 C1930 1.356 . S
N1928 H1940 0.984 . S
N1928 H1941 0.985 . S
N1929 C1931 1.356 1_655 S
N1929 H1934 0.984 1_655 S
N1929 H1935 0.985 . S
C1930 C1924 1.379 . S
C1930 C1927 1.363 . S
C1930 N1928 1.356 . S
C1931 C1925 1.363 . S
C1931 C1926 1.379 . S
C1931 N1929 1.356 1_455 S
N1932 C1924 1.356 . S
N1932 H1938 0.984 . S
N1932 H1939 0.984 . S
N1933 C1926 1.356 1_655 S
N1933 H1936 0.984 1_655 S
N1933 H1937 0.985 . S
H1934 N1929 0.984 1_455 S
H1935 N1929 0.985 . S
H1936 N1933 0.984 1_455 S
H1937 N1933 0.985 . S
H1938 N1932 0.984 . S
H1939 N1932 0.984 . S
H1940 N1928 0.984 . S
H1941 N1928 0.985 . S
C1942 C1943 1.363 . S
C1942 C1948 1.379 . S
C1942 N1950 1.356 . S
C1943 C1942 1.363 . S
C1943 C1949 1.363 . S
C1944 C1945 1.363 . S
C1944 C1949 1.379 . S
C1944 N1951 1.356 . S
C1945 C1944 1.363 . S
C1945 C1948 1.363 . S
N1946 C1948 1.356 . S
N1946 H1958 0.984 . S
N1946 H1959 0.985 . S
N1947 C1949 1.356 . S
N1947 H1952 0.984 . S
N1947 H1953 0.985 . S
C1948 C1942 1.379 . S
C1948 C1945 1.363 . S
C1948 N1946 1.356 . S
C1949 C1943 1.363 . S
C1949 C1944 1.379 . S
C1949 N1947 1.356 . S
N1950 C1942 1.356 . S
N1950 H1956 0.984 . S
N1950 H1957 0.984 . S
N1951 C1944 1.356 . S
N1951 H1954 0.984 . S
N1951 H1955 0.985 . S
H1952 N1947 0.984 . S
H1953 N1947 0.985 . S
H1954 N1951 0.984 . S
H1955 N1951 0.985 . S
H1956 N1950 0.984 . S
H1957 N1950 0.984 . S
H1958 N1946 0.984 . S
H1959 N1946 0.985 . S
C1960 C1961 1.363 . S
C1960 C1966 1.379 . S
C1960 N1968 1.356 . S
C1961 C1960 1.363 . S
C1961 C1967 1.363 . S
C1962 C1963 1.363 . S
C1962 C1967 1.379 . S
C1962 N1969 1.356 . S
C1963 C1962 1.363 . S
C1963 C1966 1.363 . S
N1964 C1966 1.356 . S
N1964 H1976 0.984 . S
N1964 H1977 0.985 . S
N1965 C1967 1.356 . S
N1965 H1970 0.984 . S
N1965 H1971 0.985 . S
C1966 C1960 1.379 . S
C1966 C1963 1.363 . S
C1966 N1964 1.356 . S
C1967 C1961 1.363 . S
C1967 C1962 1.379 . S
C1967 N1965 1.356 . S
N1968 C1960 1.356 . S
N1968 H1974 0.984 . S
N1968 H1975 0.984 . S
N1969 C1962 1.356 . S
N1969 H1972 0.984 . S
N1969 H1973 0.985 . S
H1970 N1965 0.984 . S
H1971 N1965 0.985 . S
H1972 N1969 0.984 . S
H1973 N1969 0.985 . S
H1974 N1968 0.984 . S
H1975 N1968 0.984 . S
H1976 N1964 0.984 . S
H1977 N1964 0.985 . S
C1978 C1979 1.363 . S
C1978 C1984 1.379 . S
C1978 N1986 1.356 . S
C1979 C1978 1.363 . S
C1979 C1985 1.363 . S
C1980 C1981 1.363 . S
C1980 C1985 1.379 . S
C1980 N1987 1.356 . S
C1981 C1980 1.363 . S
C1981 C1984 1.363 . S
N1982 C1984 1.356 . S
N1982 H1994 0.984 . S
N1982 H1995 0.985 . S
N1983 C1985 1.356 . S
N1983 H1988 0.984 . S
N1983 H1989 0.985 . S
C1984 C1978 1.379 . S
C1984 C1981 1.363 . S
C1984 N1982 1.356 . S
C1985 C1979 1.363 . S
C1985 C1980 1.379 . S
C1985 N1983 1.356 . S
N1986 C1978 1.356 . S
N1986 H1992 0.984 . S
N1986 H1993 0.984 . S
N1987 C1980 1.356 . S
N1987 H1990 0.984 . S
N1987 H1991 0.985 . S
H1988 N1983 0.984 . S
H1989 N1983 0.985 . S
H1990 N1987 0.984 . S
H1991 N1987 0.985 . S
H1992 N1986 0.984 . S
H1993 N1986 0.984 . S
H1994 N1982 0.984 . S
H1995 N1982 0.985 . S
C1996 C1997 1.363 . S
C1996 C2002 1.379 . S
C1996 N2004 1.356 . S
C1997 C1996 1.363 . S
C1997 C2003 1.363 . S
C1998 C1999 1.363 . S
C1998 C2003 1.379 . S
C1998 N2005 1.356 . S
C1999 C1998 1.363 . S
C1999 C2002 1.363 . S
N2000 C2002 1.356 . S
N2000 H2012 0.984 . S
N2000 H2013 0.985 . S
N2001 C2003 1.356 . S
N2001 H2006 0.984 . S
N2001 H2007 0.985 . S
C2002 C1996 1.379 . S
C2002 C1999 1.363 . S
C2002 N2000 1.356 . S
C2003 C1997 1.363 . S
C2003 C1998 1.379 . S
C2003 N2001 1.356 . S
N2004 C1996 1.356 . S
N2004 H2010 0.984 . S
N2004 H2011 0.984 . S
N2005 C1998 1.356 . S
N2005 H2008 0.984 . S
N2005 H2009 0.985 . S
H2006 N2001 0.984 . S
H2007 N2001 0.985 . S
H2008 N2005 0.984 . S
H2009 N2005 0.985 . S
H2010 N2004 0.984 . S
H2011 N2004 0.984 . S
H2012 N2000 0.984 . S
H2013 N2000 0.985 . S
C2014 C2015 1.363 . S
C2014 C2020 1.379 . S
C2014 N2022 1.356 . S
C2015 C2014 1.363 . S
C2015 C2021 1.363 . S
C2016 C2017 1.363 . S
C2016 C2021 1.379 . S
C2016 N2023 1.356 . S
C2017 C2016 1.363 . S
C2017 C2020 1.363 . S
N2018 C2020 1.356 . S
N2018 H2030 0.984 . S
N2018 H2031 0.985 . S
N2019 C2021 1.356 . S
N2019 H2024 0.984 . S
N2019 H2025 0.985 . S
C2020 C2014 1.379 . S
C2020 C2017 1.363 . S
C2020 N2018 1.356 . S
C2021 C2015 1.363 . S
C2021 C2016 1.379 . S
C2021 N2019 1.356 . S
N2022 C2014 1.356 . S
N2022 H2028 0.984 . S
N2022 H2029 0.984 . S
N2023 C2016 1.356 . S
N2023 H2026 0.984 . S
N2023 H2027 0.985 . S
H2024 N2019 0.984 . S
H2025 N2019 0.985 . S
H2026 N2023 0.984 . S
H2027 N2023 0.985 . S
H2028 N2022 0.984 . S
H2029 N2022 0.984 . S
H2030 N2018 0.984 . S
H2031 N2018 0.985 . S
C2032 C2033 1.363 . S
C2032 C2038 1.379 . S
C2032 N2040 1.356 . S
C2033 C2032 1.363 . S
C2033 C2039 1.363 . S
C2034 C2035 1.363 . S
C2034 C2039 1.379 . S
C2034 N2041 1.356 . S
C2035 C2034 1.363 . S
C2035 C2038 1.363 . S
N2036 C2038 1.356 . S
N2036 H2048 0.984 . S
N2036 H2049 0.985 . S
N2037 C2039 1.356 . S
N2037 H2042 0.984 . S
N2037 H2043 0.985 . S
C2038 C2032 1.379 . S
C2038 C2035 1.363 . S
C2038 N2036 1.356 . S
C2039 C2033 1.363 . S
C2039 C2034 1.379 . S
C2039 N2037 1.356 . S
N2040 C2032 1.356 . S
N2040 H2046 0.984 . S
N2040 H2047 0.984 . S
N2041 C2034 1.356 . S
N2041 H2044 0.984 . S
N2041 H2045 0.985 . S
H2042 N2037 0.984 . S
H2043 N2037 0.985 . S
H2044 N2041 0.984 . S
H2045 N2041 0.985 . S
H2046 N2040 0.984 . S
H2047 N2040 0.984 . S
H2048 N2036 0.984 . S
H2049 N2036 0.985 . S
C2050 C2051 1.363 . S
C2050 C2056 1.379 . S
C2050 N2058 1.356 . S
C2051 C2050 1.363 . S
C2051 C2057 1.363 . S
C2052 C2053 1.363 . S
C2052 C2057 1.379 . S
C2052 N2059 1.356 . S
C2053 C2052 1.363 . S
C2053 C2056 1.363 . S
N2054 C2056 1.356 . S
N2054 H2066 0.984 . S
N2054 H2067 0.985 . S
N2055 C2057 1.356 . S
N2055 H2060 0.984 . S
N2055 H2061 0.985 . S
C2056 C2050 1.379 . S
C2056 C2053 1.363 . S
C2056 N2054 1.356 . S
C2057 C2051 1.363 . S
C2057 C2052 1.379 . S
C2057 N2055 1.356 . S
N2058 C2050 1.356 . S
N2058 H2064 0.984 . S
N2058 H2065 0.984 . S
N2059 C2052 1.356 . S
N2059 H2062 0.984 . S
N2059 H2063 0.985 . S
H2060 N2055 0.984 . S
H2061 N2055 0.985 . S
H2062 N2059 0.984 . S
H2063 N2059 0.985 . S
H2064 N2058 0.984 . S
H2065 N2058 0.984 . S
H2066 N2054 0.984 . S
H2067 N2054 0.985 . S
C2068 C2069 1.363 . S
C2068 C2074 1.379 . S
C2068 N2076 1.356 . S
C2069 C2068 1.363 . S
C2069 C2075 1.363 . S
C2070 C2071 1.363 . S
C2070 C2075 1.379 . S
C2070 N2077 1.356 . S
C2071 C2070 1.363 . S
C2071 C2074 1.363 . S
N2072 C2074 1.356 . S
N2072 H2084 0.984 . S
N2072 H2085 0.985 . S
N2073 C2075 1.356 . S
N2073 H2078 0.984 . S
N2073 H2079 0.985 . S
C2074 C2068 1.379 . S
C2074 C2071 1.363 . S
C2074 N2072 1.356 . S
C2075 C2069 1.363 . S
C2075 C2070 1.379 . S
C2075 N2073 1.356 . S
N2076 C2068 1.356 . S
N2076 H2082 0.984 . S
N2076 H2083 0.984 . S
N2077 C2070 1.356 . S
N2077 H2080 0.984 . S
N2077 H2081 0.985 . S
H2078 N2073 0.984 . S
H2079 N2073 0.985 . S
H2080 N2077 0.984 . S
H2081 N2077 0.985 . S
H2082 N2076 0.984 . S
H2083 N2076 0.984 . S
H2084 N2072 0.984 . S
H2085 N2072 0.985 . S
C2086 C2087 1.363 . S
C2086 C2092 1.379 . S
C2086 N2094 1.356 . S
C2087 C2086 1.363 . S
C2087 C2093 1.363 . S
C2088 C2089 1.363 . S
C2088 C2093 1.379 . S
C2088 N2095 1.356 . S
C2089 C2088 1.363 . S
C2089 C2092 1.363 . S
N2090 C2092 1.356 . S
N2090 H2102 0.984 . S
N2090 H2103 0.985 . S
N2091 C2093 1.356 . S
N2091 H2096 0.984 . S
N2091 H2097 0.985 . S
C2092 C2086 1.379 . S
C2092 C2089 1.363 . S
C2092 N2090 1.356 . S
C2093 C2087 1.363 . S
C2093 C2088 1.379 . S
C2093 N2091 1.356 . S
N2094 C2086 1.356 . S
N2094 H2100 0.984 . S
N2094 H2101 0.984 . S
N2095 C2088 1.356 . S
N2095 H2098 0.984 . S
N2095 H2099 0.985 . S
H2096 N2091 0.984 . S
H2097 N2091 0.985 . S
H2098 N2095 0.984 . S
H2099 N2095 0.985 . S
H2100 N2094 0.984 . S
H2101 N2094 0.984 . S
H2102 N2090 0.984 . S
H2103 N2090 0.985 . S
C2104 C2105 1.363 . S
C2104 C2110 1.379 . S
C2104 N2112 1.356 . S
C2105 C2104 1.363 . S
C2105 C2111 1.363 . S
C2106 C2107 1.363 . S
C2106 C2111 1.379 . S
C2106 N2113 1.356 . S
C2107 C2106 1.363 . S
C2107 C2110 1.363 . S
N2108 C2110 1.356 . S
N2108 H2120 0.984 . S
N2108 H2121 0.985 . S
N2109 C2111 1.356 . S
N2109 H2114 0.984 . S
N2109 H2115 0.985 . S
C2110 C2104 1.379 . S
C2110 C2107 1.363 . S
C2110 N2108 1.356 . S
C2111 C2105 1.363 . S
C2111 C2106 1.379 . S
C2111 N2109 1.356 . S
N2112 C2104 1.356 . S
N2112 H2118 0.984 . S
N2112 H2119 0.984 . S
N2113 C2106 1.356 . S
N2113 H2116 0.984 . S
N2113 H2117 0.985 . S
H2114 N2109 0.984 . S
H2115 N2109 0.985 . S
H2116 N2113 0.984 . S
H2117 N2113 0.985 . S
H2118 N2112 0.984 . S
H2119 N2112 0.984 . S
H2120 N2108 0.984 . S
H2121 N2108 0.985 . S
C2122 C2123 1.363 . S
C2122 C2128 1.379 . S
C2122 N2130 1.356 . S
C2123 C2122 1.363 . S
C2123 C2129 1.363 . S
C2124 C2125 1.363 . S
C2124 C2129 1.379 . S
C2124 N2131 1.356 . S
C2125 C2124 1.363 . S
C2125 C2128 1.363 . S
N2126 C2128 1.356 . S
N2126 H2138 0.984 . S
N2126 H2139 0.985 . S
N2127 C2129 1.356 . S
N2127 H2132 0.984 . S
N2127 H2133 0.985 . S
C2128 C2122 1.379 . S
C2128 C2125 1.363 . S
C2128 N2126 1.356 . S
C2129 C2123 1.363 . S
C2129 C2124 1.379 . S
C2129 N2127 1.356 . S
N2130 C2122 1.356 . S
N2130 H2136 0.984 . S
N2130 H2137 0.984 . S
N2131 C2124 1.356 . S
N2131 H2134 0.984 . S
N2131 H2135 0.985 . S
H2132 N2127 0.984 . S
H2133 N2127 0.985 . S
H2134 N2131 0.984 . S
H2135 N2131 0.985 . S
H2136 N2130 0.984 . S
H2137 N2130 0.984 . S
H2138 N2126 0.984 . S
H2139 N2126 0.985 . S
C2140 C2141 1.363 . S
C2140 C2146 1.379 1_545 S
C2140 N2148 1.356 . S
C2141 C2140 1.363 . S
C2141 C2147 1.363 . S
C2142 C2143 1.363 . S
C2142 C2147 1.379 1_565 S
C2142 N2149 1.356 . S
C2143 C2142 1.363 . S
C2143 C2146 1.363 . S
N2144 C2146 1.356 . S
N2144 H2156 0.984 . S
N2144 H2157 0.985 . S
N2145 C2147 1.356 . S
N2145 H2150 0.984 . S
N2145 H2151 0.985 . S
C2146 C2140 1.379 1_565 S
C2146 C2143 1.363 . S
C2146 N2144 1.356 . S
C2147 C2141 1.363 . S
C2147 C2142 1.379 1_545 S
C2147 N2145 1.356 . S
N2148 C2140 1.356 . S
N2148 H2154 0.984 . S
N2148 H2155 0.984 . S
N2149 C2142 1.356 . S
N2149 H2152 0.984 . S
N2149 H2153 0.985 . S
H2150 N2145 0.984 . S
H2151 N2145 0.985 . S
H2152 N2149 0.984 . S
H2153 N2149 0.985 . S
H2154 N2148 0.984 . S
H2155 N2148 0.984 . S
H2156 N2144 0.984 . S
H2157 N2144 0.985 . S
C2158 C2159 1.363 . S
C2158 C2164 1.379 . S
C2158 N2166 1.356 . S
C2159 C2158 1.363 . S
C2159 C2165 1.363 . S
C2160 C2161 1.362 1_565 S
C2160 C2165 1.379 . S
C2160 N2167 1.356 1_565 S
C2161 C2160 1.362 1_545 S
C2161 C2164 1.352 1_545 S
N2162 C2164 1.356 . S
N2162 H2174 0.984 1_554 S
N2162 H2175 0.985 1_565 S
N2163 C2165 1.356 . S
N2163 H2168 0.984 . S
N2163 H2169 0.985 . S
C2164 C2158 1.379 . S
C2164 C2161 1.352 1_565 S
C2164 N2162 1.356 . S
C2165 C2159 1.363 . S
C2165 C2160 1.379 . S
C2165 N2163 1.356 . S
N2166 C2158 1.356 . S
N2166 H2172 0.984 . S
N2166 H2173 0.984 . S
N2167 C2160 1.356 1_545 S
N2167 H2170 0.984 . S
N2167 H2171 0.985 . S
H2168 N2163 0.984 . S
H2169 N2163 0.985 . S
H2170 N2167 0.984 . S
H2171 N2167 0.985 . S
H2172 N2166 0.984 . S
H2173 N2166 0.984 . S
H2174 N2162 0.984 1_556 S
H2175 N2162 0.985 1_545 S
C2176 C2177 1.363 . S
C2176 C2182 1.379 . S
C2176 N2184 1.356 . S
C2177 C2176 1.363 . S
C2177 C2183 1.363 . S
C2178 C2179 1.363 . S
C2178 C2183 1.379 . S
C2178 N2185 1.356 . S
C2179 C2178 1.363 . S
C2179 C2182 1.363 . S
N2180 C2182 1.356 . S
N2180 H2192 0.984 . S
N2180 H2193 0.985 . S
N2181 C2183 1.356 . S
N2181 H2186 0.984 . S
N2181 H2187 0.985 . S
C2182 C2176 1.379 . S
C2182 C2179 1.363 . S
C2182 N2180 1.356 . S
C2183 C2177 1.363 . S
C2183 C2178 1.379 . S
C2183 N2181 1.356 . S
N2184 C2176 1.356 . S
N2184 H2190 0.984 . S
N2184 H2191 0.984 . S
N2185 C2178 1.356 . S
N2185 H2188 0.984 . S
N2185 H2189 0.985 . S
H2186 N2181 0.984 . S
H2187 N2181 0.985 . S
H2188 N2185 0.984 . S
H2189 N2185 0.985 . S
H2190 N2184 0.984 . S
H2191 N2184 0.984 . S
H2192 N2180 0.984 . S
H2193 N2180 0.985 . S
C2194 C2195 1.363 . S
C2194 C2200 1.379 . S
C2194 N2202 1.356 . S
C2195 C2194 1.363 . S
C2195 C2201 1.363 . S
C2196 C2197 1.363 . S
C2196 C2201 1.379 . S
C2196 N2203 1.356 1_554 S
C2197 C2196 1.363 . S
C2197 C2200 1.363 . S
N2198 C2200 1.356 . S
N2198 H2210 0.984 . S
N2198 H2211 0.985 . S
N2199 C2201 1.356 1_556 S
N2199 H2204 0.984 . S
N2199 H2205 0.985 . S
C2200 C2194 1.379 . S
C2200 C2197 1.363 . S
C2200 N2198 1.356 . S
C2201 C2195 1.363 . S
C2201 C2196 1.379 . S
C2201 N2199 1.356 1_554 S
N2202 C2194 1.356 . S
N2202 H2208 0.984 . S
N2202 H2209 0.984 . S
N2203 C2196 1.356 1_556 S
N2203 H2206 0.984 1_556 S
N2203 H2207 0.985 . S
H2204 N2199 0.984 . S
H2205 N2199 0.985 . S
H2206 N2203 0.984 1_554 S
H2207 N2203 0.985 . S
H2208 N2202 0.984 . S
H2209 N2202 0.984 . S
H2210 N2198 0.984 . S
H2211 N2198 0.985 . S
C2212 C2213 1.363 . S
C2212 C2218 1.379 . S
C2212 N2220 1.356 . S
C2213 C2212 1.363 . S
C2213 C2219 1.363 . S
C2214 C2215 1.363 . S
C2214 C2219 1.379 . S
C2214 N2221 1.356 . S
C2215 C2214 1.363 . S
C2215 C2218 1.363 . S
N2216 C2218 1.356 . S
N2216 H2228 0.984 . S
N2216 H2229 0.985 . S
N2217 C2219 1.356 . S
N2217 H2222 0.984 . S
N2217 H2223 0.985 . S
C2218 C2212 1.379 . S
C2218 C2215 1.363 . S
C2218 N2216 1.356 . S
C2219 C2213 1.363 . S
C2219 C2214 1.379 . S
C2219 N2217 1.356 . S
N2220 C2212 1.356 . S
N2220 H2226 0.984 . S
N2220 H2227 0.984 . S
N2221 C2214 1.356 . S
N2221 H2224 0.984 . S
N2221 H2225 0.985 . S
H2222 N2217 0.984 . S
H2223 N2217 0.985 . S
H2224 N2221 0.984 . S
H2225 N2221 0.985 . S
H2226 N2220 0.984 . S
H2227 N2220 0.984 . S
H2228 N2216 0.984 . S
H2229 N2216 0.985 . S
C2230 C2231 1.363 . S
C2230 C2236 1.379 . S
C2230 N2238 1.356 . S
C2231 C2230 1.363 . S
C2231 C2237 1.363 1_545 S
C2232 C2233 1.363 . S
C2232 C2237 1.379 . S
C2232 N2239 1.356 . S
C2233 C2232 1.363 . S
C2233 C2236 1.363 1_565 S
N2234 C2236 1.356 . S
N2234 H2246 0.984 . S
N2234 H2247 0.985 . S
N2235 C2237 1.356 . S
N2235 H2240 0.983 1_565 S
N2235 H2241 0.985 . S
C2236 C2230 1.379 . S
C2236 C2233 1.363 1_545 S
C2236 N2234 1.356 . S
C2237 C2231 1.363 1_565 S
C2237 C2232 1.379 . S
C2237 N2235 1.356 . S
N2238 C2230 1.356 . S
N2238 H2244 0.984 . S
N2238 H2245 0.984 . S
N2239 C2232 1.356 . S
N2239 H2242 0.984 . S
N2239 H2243 0.985 . S
H2240 N2235 0.983 1_545 S
H2241 N2235 0.985 . S
H2242 N2239 0.984 . S
H2243 N2239 0.985 . S
H2244 N2238 0.984 . S
H2245 N2238 0.984 . S
H2246 N2234 0.984 . S
H2247 N2234 0.985 . S
C2248 C2249 1.363 . S
C2248 C2254 1.379 . S
C2248 N2256 1.356 . S
C2249 C2248 1.363 . S
C2249 C2255 1.363 . S
C2250 C2251 1.363 . S
C2250 C2255 1.379 . S
C2250 N2257 1.356 . S
C2251 C2250 1.363 . S
C2251 C2254 1.363 . S
N2252 C2254 1.356 . S
N2252 H2264 0.984 . S
N2252 H2265 0.985 . S
N2253 C2255 1.356 . S
N2253 H2258 0.984 . S
N2253 H2259 0.985 . S
C2254 C2248 1.379 . S
C2254 C2251 1.363 . S
C2254 N2252 1.356 . S
C2255 C2249 1.363 . S
C2255 C2250 1.379 . S
C2255 N2253 1.356 . S
N2256 C2248 1.356 . S
N2256 H2262 0.984 . S
N2256 H2263 0.984 . S
N2257 C2250 1.356 . S
N2257 H2260 0.984 . S
N2257 H2261 0.985 . S
H2258 N2253 0.984 . S
H2259 N2253 0.985 . S
H2260 N2257 0.984 . S
H2261 N2257 0.985 . S
H2262 N2256 0.984 . S
H2263 N2256 0.984 . S
H2264 N2252 0.984 . S
H2265 N2252 0.985 . S
C2266 C2267 1.363 . S
C2266 C2272 1.379 . S
C2266 N2274 1.356 . S
C2267 C2266 1.363 . S
C2267 C2273 1.363 . S
C2268 C2269 1.363 . S
C2268 C2273 1.379 . S
C2268 N2275 1.356 . S
C2269 C2268 1.363 . S
C2269 C2272 1.363 . S
N2270 C2272 1.356 . S
N2270 H2282 0.984 . S
N2270 H2283 0.985 . S
N2271 C2273 1.356 . S
N2271 H2276 0.984 . S
N2271 H2277 0.985 . S
C2272 C2266 1.379 . S
C2272 C2269 1.363 . S
C2272 N2270 1.356 . S
C2273 C2267 1.363 . S
C2273 C2268 1.379 . S
C2273 N2271 1.356 . S
N2274 C2266 1.356 . S
N2274 H2280 0.984 . S
N2274 H2281 0.984 . S
N2275 C2268 1.356 . S
N2275 H2278 0.984 . S
N2275 H2279 0.985 . S
H2276 N2271 0.984 . S
H2277 N2271 0.985 . S
H2278 N2275 0.984 . S
H2279 N2275 0.985 . S
H2280 N2274 0.984 . S
H2281 N2274 0.984 . S
H2282 N2270 0.984 . S
H2283 N2270 0.985 . S
C2284 C2285 1.363 . S
C2284 C2290 1.379 . S
C2284 N2292 1.356 . S
C2285 C2284 1.363 . S
C2285 C2291 1.363 . S
C2286 C2287 1.363 . S
C2286 C2291 1.379 . S
C2286 N2293 1.356 . S
C2287 C2286 1.363 . S
C2287 C2290 1.363 . S
N2288 C2290 1.356 . S
N2288 H2300 0.984 . S
N2288 H2301 0.985 . S
N2289 C2291 1.356 . S
N2289 H2294 0.984 . S
N2289 H2295 0.985 . S
C2290 C2284 1.379 . S
C2290 C2287 1.363 . S
C2290 N2288 1.356 . S
C2291 C2285 1.363 . S
C2291 C2286 1.379 . S
C2291 N2289 1.356 . S
N2292 C2284 1.356 . S
N2292 H2298 0.984 . S
N2292 H2299 0.984 . S
N2293 C2286 1.356 . S
N2293 H2296 0.984 . S
N2293 H2297 0.985 . S
H2294 N2289 0.984 . S
H2295 N2289 0.985 . S
H2296 N2293 0.984 . S
H2297 N2293 0.985 . S
H2298 N2292 0.984 . S
H2299 N2292 0.984 . S
H2300 N2288 0.984 . S
H2301 N2288 0.985 . S
C2302 C2303 1.363 . S
C2302 C2308 1.379 . S
C2302 N2310 1.356 . S
C2303 C2302 1.363 . S
C2303 C2309 1.363 . S
C2304 C2305 1.363 . S
C2304 C2309 1.379 . S
C2304 N2311 1.356 . S
C2305 C2304 1.363 . S
C2305 C2308 1.363 . S
N2306 C2308 1.356 . S
N2306 H2318 0.984 . S
N2306 H2319 0.985 . S
N2307 C2309 1.356 . S
N2307 H2312 0.984 . S
N2307 H2313 0.985 . S
C2308 C2302 1.379 . S
C2308 C2305 1.363 . S
C2308 N2306 1.356 . S
C2309 C2303 1.363 . S
C2309 C2304 1.379 . S
C2309 N2307 1.356 . S
N2310 C2302 1.356 . S
N2310 H2316 0.984 . S
N2310 H2317 0.984 . S
N2311 C2304 1.356 . S
N2311 H2314 0.984 . S
N2311 H2315 0.985 . S
H2312 N2307 0.984 . S
H2313 N2307 0.985 . S
H2314 N2311 0.984 . S
H2315 N2311 0.985 . S
H2316 N2310 0.984 . S
H2317 N2310 0.984 . S
H2318 N2306 0.984 . S
H2319 N2306 0.985 . S
C2320 C2321 1.363 . S
C2320 C2326 1.379 . S
C2320 N2328 1.356 . S
C2321 C2320 1.363 . S
C2321 C2327 1.363 . S
C2322 C2323 1.363 . S
C2322 C2327 1.379 . S
C2322 N2329 1.362 . S
C2323 C2322 1.363 . S
C2323 C2326 1.363 . S
N2324 C2326 1.356 . S
N2324 H2336 0.984 . S
N2324 H2337 0.985 . S
N2325 C2327 1.356 . S
N2325 H2330 0.984 . S
N2325 H2331 0.985 . S
C2326 C2320 1.379 . S
C2326 C2323 1.363 . S
C2326 N2324 1.356 . S
C2327 C2321 1.363 . S
C2327 C2322 1.379 . S
C2327 N2325 1.356 . S
N2328 C2320 1.356 . S
N2328 H2334 0.984 . S
N2328 H2335 0.984 . S
N2329 C2322 1.362 . S
N2329 H2332 0.982 1_556 S
N2329 H2333 0.980 1_556 S
H2330 N2325 0.984 . S
H2331 N2325 0.985 . S
H2332 N2329 0.982 1_554 S
H2333 N2329 0.980 1_554 S
H2334 N2328 0.984 . S
H2335 N2328 0.984 . S
H2336 N2324 0.984 . S
H2337 N2324 0.985 . S
C2338 C2339 1.363 . S
C2338 C2344 1.379 . S
C2338 N2346 1.356 . S
C2339 C2338 1.363 . S
C2339 C2345 1.363 . S
C2340 C2341 1.363 . S
C2340 C2345 1.379 . S
C2340 N2347 1.356 . S
C2341 C2340 1.363 . S
C2341 C2344 1.363 . S
N2342 C2344 1.356 . S
N2342 H2354 0.984 . S
N2342 H2355 0.985 . S
N2343 C2345 1.356 . S
N2343 H2348 0.984 . S
N2343 H2349 0.985 . S
C2344 C2338 1.379 . S
C2344 C2341 1.363 . S
C2344 N2342 1.356 . S
C2345 C2339 1.363 . S
C2345 C2340 1.379 . S
C2345 N2343 1.356 . S
N2346 C2338 1.356 . S
N2346 H2352 0.984 . S
N2346 H2353 0.984 . S
N2347 C2340 1.356 . S
N2347 H2350 0.984 . S
N2347 H2351 0.985 . S
H2348 N2343 0.984 . S
H2349 N2343 0.985 . S
H2350 N2347 0.984 . S
H2351 N2347 0.985 . S
H2352 N2346 0.984 . S
H2353 N2346 0.984 . S
H2354 N2342 0.984 . S
H2355 N2342 0.985 . S
C2356 C2357 1.363 . S
C2356 C2362 1.379 . S
C2356 N2364 1.356 . S
C2357 C2356 1.363 . S
C2357 C2363 1.363 . S
C2358 C2359 1.363 . S
C2358 C2363 1.379 . S
C2358 N2365 1.356 . S
C2359 C2358 1.363 . S
C2359 C2362 1.363 . S
N2360 C2362 1.356 . S
N2360 H2372 0.984 . S
N2360 H2373 0.985 . S
N2361 C2363 1.356 . S
N2361 H2366 0.984 . S
N2361 H2367 0.985 . S
C2362 C2356 1.379 . S
C2362 C2359 1.363 . S
C2362 N2360 1.356 . S
C2363 C2357 1.363 . S
C2363 C2358 1.379 . S
C2363 N2361 1.356 . S
N2364 C2356 1.356 . S
N2364 H2370 0.984 . S
N2364 H2371 0.984 . S
N2365 C2358 1.356 . S
N2365 H2368 0.984 . S
N2365 H2369 0.985 . S
H2366 N2361 0.984 . S
H2367 N2361 0.985 . S
H2368 N2365 0.984 . S
H2369 N2365 0.985 . S
H2370 N2364 0.984 . S
H2371 N2364 0.984 . S
H2372 N2360 0.984 . S
H2373 N2360 0.985 . S
C2374 C2375 1.363 . S
C2374 C2380 1.379 . S
C2374 N2382 1.356 . S
C2375 C2374 1.363 . S
C2375 C2381 1.363 . S
C2376 C2377 1.363 . S
C2376 C2381 1.379 . S
C2376 N2383 1.356 . S
C2377 C2376 1.363 . S
C2377 C2380 1.363 . S
N2378 C2380 1.356 . S
N2378 H2390 0.984 . S
N2378 H2391 0.985 . S
N2379 C2381 1.356 . S
N2379 H2384 0.984 . S
N2379 H2385 0.985 . S
C2380 C2374 1.379 . S
C2380 C2377 1.363 . S
C2380 N2378 1.356 . S
C2381 C2375 1.363 . S
C2381 C2376 1.379 . S
C2381 N2379 1.356 . S
N2382 C2374 1.356 . S
N2382 H2388 0.984 . S
N2382 H2389 0.984 . S
N2383 C2376 1.356 . S
N2383 H2386 0.984 . S
N2383 H2387 0.985 . S
H2384 N2379 0.984 . S
H2385 N2379 0.985 . S
H2386 N2383 0.984 . S
H2387 N2383 0.985 . S
H2388 N2382 0.984 . S
H2389 N2382 0.984 . S
H2390 N2378 0.984 . S
H2391 N2378 0.985 . S
C2392 C2393 1.363 . S
C2392 C2398 1.379 . S
C2392 N2400 1.356 . S
C2393 C2392 1.363 . S
C2393 C2399 1.363 . S
C2394 C2395 1.363 . S
C2394 C2399 1.379 . S
C2394 N2401 1.356 . S
C2395 C2394 1.363 . S
C2395 C2398 1.363 . S
N2396 C2398 1.356 . S
N2396 H2408 0.984 . S
N2396 H2409 0.985 . S
N2397 C2399 1.356 . S
N2397 H2402 0.984 . S
N2397 H2403 0.985 . S
C2398 C2392 1.379 . S
C2398 C2395 1.363 . S
C2398 N2396 1.356 . S
C2399 C2393 1.363 . S
C2399 C2394 1.379 . S
C2399 N2397 1.356 . S
N2400 C2392 1.356 . S
N2400 H2406 0.984 . S
N2400 H2407 0.984 . S
N2401 C2394 1.356 . S
N2401 H2404 0.984 . S
N2401 H2405 0.985 . S
H2402 N2397 0.984 . S
H2403 N2397 0.985 . S
H2404 N2401 0.984 . S
H2405 N2401 0.985 . S
H2406 N2400 0.984 . S
H2407 N2400 0.984 . S
H2408 N2396 0.984 . S
H2409 N2396 0.985 . S
C2410 C2411 1.363 . S
C2410 C2416 1.379 . S
C2410 N2418 1.356 . S
C2411 C2410 1.363 . S
C2411 C2417 1.363 . S
C2412 C2413 1.363 . S
C2412 C2417 1.379 . S
C2412 N2419 1.356 . S
C2413 C2412 1.363 . S
C2413 C2416 1.363 . S
N2414 C2416 1.356 . S
N2414 H2426 0.984 . S
N2414 H2427 0.985 . S
N2415 C2417 1.356 . S
N2415 H2420 0.984 . S
N2415 H2421 0.985 . S
C2416 C2410 1.379 . S
C2416 C2413 1.363 . S
C2416 N2414 1.356 . S
C2417 C2411 1.363 . S
C2417 C2412 1.379 . S
C2417 N2415 1.356 . S
N2418 C2410 1.356 . S
N2418 H2424 0.984 . S
N2418 H2425 0.984 . S
N2419 C2412 1.356 . S
N2419 H2422 0.984 . S
N2419 H2423 0.985 . S
H2420 N2415 0.984 . S
H2421 N2415 0.985 . S
H2422 N2419 0.984 . S
H2423 N2419 0.985 . S
H2424 N2418 0.984 . S
H2425 N2418 0.984 . S
H2426 N2414 0.984 . S
H2427 N2414 0.985 . S
C2428 C2429 1.363 . S
C2428 C2434 1.379 . S
C2428 N2436 1.356 1_455 S
C2429 C2428 1.363 . S
C2429 C2435 1.363 . S
C2430 C2431 1.363 . S
C2430 C2435 1.379 . S
C2430 N2437 1.356 . S
C2431 C2430 1.363 . S
C2431 C2434 1.363 . S
N2432 C2434 1.356 1_655 S
N2432 H2444 0.984 . S
N2432 H2445 0.985 1_655 S
N2433 C2435 1.356 . S
N2433 H2438 0.984 . S
N2433 H2439 0.985 . S
C2434 C2428 1.379 . S
C2434 C2431 1.363 . S
C2434 N2432 1.356 1_455 S
C2435 C2429 1.363 . S
C2435 C2430 1.379 . S
C2435 N2433 1.356 . S
N2436 C2428 1.356 1_655 S
N2436 H2442 0.984 . S
N2436 H2443 0.984 1_655 S
N2437 C2430 1.356 . S
N2437 H2440 0.984 1_556 S
N2437 H2441 0.985 . S
H2438 N2433 0.984 . S
H2439 N2433 0.985 . S
H2440 N2437 0.984 1_554 S
H2441 N2437 0.985 . S
H2442 N2436 0.984 . S
H2443 N2436 0.984 1_455 S
H2444 N2432 0.984 . S
H2445 N2432 0.985 1_455 S
C2446 C2447 1.363 . S
C2446 C2452 1.379 . S
C2446 N2454 1.356 . S
C2447 C2446 1.363 . S
C2447 C2453 1.363 . S
C2448 C2449 1.363 . S
C2448 C2453 1.379 . S
C2448 N2455 1.356 . S
C2449 C2448 1.363 . S
C2449 C2452 1.363 . S
N2450 C2452 1.356 . S
N2450 H2462 0.984 . S
N2450 H2463 0.985 . S
N2451 C2453 1.356 . S
N2451 H2456 0.984 . S
N2451 H2457 0.985 . S
C2452 C2446 1.379 . S
C2452 C2449 1.363 . S
C2452 N2450 1.356 . S
C2453 C2447 1.363 . S
C2453 C2448 1.379 . S
C2453 N2451 1.356 . S
N2454 C2446 1.356 . S
N2454 H2460 0.984 . S
N2454 H2461 0.984 . S
N2455 C2448 1.356 . S
N2455 H2458 0.984 . S
N2455 H2459 0.985 . S
H2456 N2451 0.984 . S
H2457 N2451 0.985 . S
H2458 N2455 0.984 . S
H2459 N2455 0.985 . S
H2460 N2454 0.984 . S
H2461 N2454 0.984 . S
H2462 N2450 0.984 . S
H2463 N2450 0.985 . S
C2464 C2465 1.363 . S
C2464 C2470 1.379 . S
C2464 N2472 1.356 . S
C2465 C2464 1.363 . S
C2465 C2471 1.363 . S
C2466 C2467 1.363 . S
C2466 C2471 1.379 . S
C2466 N2473 1.356 . S
C2467 C2466 1.363 . S
C2467 C2470 1.363 . S
N2468 C2470 1.356 . S
N2468 H2480 0.984 . S
N2468 H2481 0.985 . S
N2469 C2471 1.356 . S
N2469 H2474 0.984 . S
N2469 H2475 0.985 . S
C2470 C2464 1.379 . S
C2470 C2467 1.363 . S
C2470 N2468 1.356 . S
C2471 C2465 1.363 . S
C2471 C2466 1.379 . S
C2471 N2469 1.356 . S
N2472 C2464 1.356 . S
N2472 H2478 0.984 . S
N2472 H2479 0.984 . S
N2473 C2466 1.356 . S
N2473 H2476 0.984 . S
N2473 H2477 0.985 . S
H2474 N2469 0.984 . S
H2475 N2469 0.985 . S
H2476 N2473 0.984 . S
H2477 N2473 0.985 . S
H2478 N2472 0.984 . S
H2479 N2472 0.984 . S
H2480 N2468 0.984 . S
H2481 N2468 0.985 . S
C2482 C2483 1.363 . S
C2482 C2488 1.379 . S
C2482 N2490 1.356 . S
C2483 C2482 1.363 . S
C2483 C2489 1.363 . S
C2484 C2485 1.363 . S
C2484 C2489 1.379 . S
C2484 N2491 1.356 . S
C2485 C2484 1.363 . S
C2485 C2488 1.363 . S
N2486 C2488 1.356 . S
N2486 H2498 0.984 . S
N2486 H2499 0.985 . S
N2487 C2489 1.356 . S
N2487 H2492 0.984 . S
N2487 H2493 0.985 . S
C2488 C2482 1.379 . S
C2488 C2485 1.363 . S
C2488 N2486 1.356 . S
C2489 C2483 1.363 . S
C2489 C2484 1.379 . S
C2489 N2487 1.356 . S
N2490 C2482 1.356 . S
N2490 H2496 0.984 . S
N2490 H2497 0.984 . S
N2491 C2484 1.356 . S
N2491 H2494 0.984 . S
N2491 H2495 0.985 . S
H2492 N2487 0.984 . S
H2493 N2487 0.985 . S
H2494 N2491 0.984 . S
H2495 N2491 0.985 . S
H2496 N2490 0.984 . S
H2497 N2490 0.984 . S
H2498 N2486 0.984 . S
H2499 N2486 0.985 . S
C2500 C2501 1.363 . S
C2500 C2506 1.379 . S
C2500 N2508 1.356 . S
C2501 C2500 1.363 . S
C2501 C2507 1.353 1_455 S
C2502 C2503 1.363 1_655 S
C2502 C2507 1.378 . S
C2502 N2509 1.356 . S
C2503 C2502 1.363 1_455 S
C2503 C2506 1.363 . S
N2504 C2506 1.356 . S
N2504 H2516 0.984 . S
N2504 H2517 0.985 . S
N2505 C2507 1.365 . S
N2505 H2510 0.984 . S
N2505 H2511 0.985 . S
C2506 C2500 1.379 . S
C2506 C2503 1.363 . S
C2506 N2504 1.356 . S
C2507 C2501 1.353 1_655 S
C2507 C2502 1.378 . S
C2507 N2505 1.365 . S
N2508 C2500 1.356 . S
N2508 H2514 0.984 . S
N2508 H2515 0.984 . S
N2509 C2502 1.356 . S
N2509 H2512 0.984 . S
N2509 H2513 0.985 . S
H2510 N2505 0.984 . S
H2511 N2505 0.985 . S
H2512 N2509 0.984 . S
H2513 N2509 0.985 . S
H2514 N2508 0.984 . S
H2515 N2508 0.984 . S
H2516 N2504 0.984 . S
H2517 N2504 0.985 . S
C2518 C2519 1.363 . S
C2518 C2524 1.379 . S
C2518 N2526 1.356 . S
C2519 C2518 1.363 . S
C2519 C2525 1.363 . S
C2520 C2521 1.363 . S
C2520 C2525 1.379 . S
C2520 N2527 1.356 . S
C2521 C2520 1.363 . S
C2521 C2524 1.363 . S
N2522 C2524 1.356 . S
N2522 H2534 0.984 . S
N2522 H2535 0.985 . S
N2523 C2525 1.356 . S
N2523 H2528 0.984 . S
N2523 H2529 0.985 . S
C2524 C2518 1.379 . S
C2524 C2521 1.363 . S
C2524 N2522 1.356 . S
C2525 C2519 1.363 . S
C2525 C2520 1.379 . S
C2525 N2523 1.356 . S
N2526 C2518 1.356 . S
N2526 H2532 0.984 . S
N2526 H2533 0.984 . S
N2527 C2520 1.356 . S
N2527 H2530 0.984 . S
N2527 H2531 0.985 . S
H2528 N2523 0.984 . S
H2529 N2523 0.985 . S
H2530 N2527 0.984 . S
H2531 N2527 0.985 . S
H2532 N2526 0.984 . S
H2533 N2526 0.984 . S
H2534 N2522 0.984 . S
H2535 N2522 0.985 . S
C2536 C2537 1.363 . S
C2536 C2542 1.379 . S
C2536 N2544 1.356 . S
C2537 C2536 1.363 . S
C2537 C2543 1.363 . S
C2538 C2539 1.363 . S
C2538 C2543 1.379 . S
C2538 N2545 1.356 . S
C2539 C2538 1.363 . S
C2539 C2542 1.363 . S
N2540 C2542 1.356 . S
N2540 H2552 0.984 . S
N2540 H2553 0.985 . S
N2541 C2543 1.356 . S
N2541 H2546 0.984 . S
N2541 H2547 0.985 . S
C2542 C2536 1.379 . S
C2542 C2539 1.363 . S
C2542 N2540 1.356 . S
C2543 C2537 1.363 . S
C2543 C2538 1.379 . S
C2543 N2541 1.356 . S
N2544 C2536 1.356 . S
N2544 H2550 0.984 . S
N2544 H2551 0.984 . S
N2545 C2538 1.356 . S
N2545 H2548 0.984 . S
N2545 H2549 0.985 . S
H2546 N2541 0.984 . S
H2547 N2541 0.985 . S
H2548 N2545 0.984 . S
H2549 N2545 0.985 . S
H2550 N2544 0.984 . S
H2551 N2544 0.984 . S
H2552 N2540 0.984 . S
H2553 N2540 0.985 . S
C2554 C2555 1.363 . S
C2554 C2560 1.379 . S
C2554 N2562 1.356 . S
C2555 C2554 1.363 . S
C2555 C2561 1.363 . S
C2556 C2557 1.363 1_545 S
C2556 C2561 1.379 1_545 S
C2556 N2563 1.356 . S
C2557 C2556 1.363 1_565 S
C2557 C2560 1.363 . S
N2558 C2560 1.356 . S
N2558 H2570 0.984 . S
N2558 H2571 0.985 . S
N2559 C2561 1.356 . S
N2559 H2564 0.984 . S
N2559 H2565 0.985 1_565 S
C2560 C2554 1.379 . S
C2560 C2557 1.363 . S
C2560 N2558 1.356 . S
C2561 C2555 1.363 . S
C2561 C2556 1.379 1_565 S
C2561 N2559 1.356 . S
N2562 C2554 1.356 . S
N2562 H2568 0.984 . S
N2562 H2569 0.984 . S
N2563 C2556 1.356 . S
N2563 H2566 0.984 . S
N2563 H2567 0.985 . S
H2564 N2559 0.984 . S
H2565 N2559 0.985 1_545 S
H2566 N2563 0.984 . S
H2567 N2563 0.985 . S
H2568 N2562 0.984 . S
H2569 N2562 0.984 . S
H2570 N2558 0.984 . S
H2571 N2558 0.985 . S
C2572 C2573 1.363 . S
C2572 C2578 1.379 . S
C2572 N2580 1.356 . S
C2573 C2572 1.363 . S
C2573 C2579 1.363 . S
C2574 C2575 1.363 . S
C2574 C2579 1.379 . S
C2574 N2581 1.356 . S
C2575 C2574 1.363 . S
C2575 C2578 1.363 . S
N2576 C2578 1.356 . S
N2576 H2588 0.984 . S
N2576 H2589 0.985 . S
N2577 C2579 1.356 . S
N2577 H2582 0.984 . S
N2577 H2583 0.985 . S
C2578 C2572 1.379 . S
C2578 C2575 1.363 . S
C2578 N2576 1.356 . S
C2579 C2573 1.363 . S
C2579 C2574 1.379 . S
C2579 N2577 1.356 . S
N2580 C2572 1.356 . S
N2580 H2586 0.984 . S
N2580 H2587 0.984 . S
N2581 C2574 1.356 . S
N2581 H2584 0.984 . S
N2581 H2585 0.985 . S
H2582 N2577 0.984 . S
H2583 N2577 0.985 . S
H2584 N2581 0.984 . S
H2585 N2581 0.985 . S
H2586 N2580 0.984 . S
H2587 N2580 0.984 . S
H2588 N2576 0.984 . S
H2589 N2576 0.985 . S
C2590 C2591 1.363 . S
C2590 C2596 1.379 . S
C2590 N2598 1.356 . S
C2591 C2590 1.363 . S
C2591 C2597 1.363 1_556 S
C2592 C2593 1.363 1_554 S
C2592 C2597 1.379 . S
C2592 N2599 1.356 . S
C2593 C2592 1.363 1_556 S
C2593 C2596 1.363 . S
N2594 C2596 1.356 . S
N2594 H2606 0.984 . S
N2594 H2607 0.985 . S
N2595 C2597 1.356 . S
N2595 H2600 0.984 . S
N2595 H2601 0.985 . S
C2596 C2590 1.379 . S
C2596 C2593 1.363 . S
C2596 N2594 1.356 . S
C2597 C2591 1.363 1_554 S
C2597 C2592 1.379 . S
C2597 N2595 1.356 . S
N2598 C2590 1.356 . S
N2598 H2604 0.984 . S
N2598 H2605 0.984 . S
N2599 C2592 1.356 . S
N2599 H2602 0.984 . S
N2599 H2603 0.985 . S
H2600 N2595 0.984 . S
H2601 N2595 0.985 . S
H2602 N2599 0.984 . S
H2603 N2599 0.985 . S
H2604 N2598 0.984 . S
H2605 N2598 0.984 . S
H2606 N2594 0.984 . S
H2607 N2594 0.985 . S
C2608 C2609 1.363 . S
C2608 C2614 1.379 . S
C2608 N2616 1.356 . S
C2609 C2608 1.363 . S
C2609 C2615 1.363 . S
C2610 C2611 1.363 . S
C2610 C2615 1.379 . S
C2610 N2617 1.356 . S
C2611 C2610 1.363 . S
C2611 C2614 1.363 . S
N2612 C2614 1.356 . S
N2612 H2624 0.984 . S
N2612 H2625 0.985 . S
N2613 C2615 1.356 . S
N2613 H2618 0.984 . S
N2613 H2619 0.985 . S
C2614 C2608 1.379 . S
C2614 C2611 1.363 . S
C2614 N2612 1.356 . S
C2615 C2609 1.363 . S
C2615 C2610 1.379 . S
C2615 N2613 1.356 . S
N2616 C2608 1.356 . S
N2616 H2622 0.984 . S
N2616 H2623 0.984 . S
N2617 C2610 1.356 . S
N2617 H2620 0.984 . S
N2617 H2621 0.985 . S
H2618 N2613 0.984 . S
H2619 N2613 0.985 . S
H2620 N2617 0.984 . S
H2621 N2617 0.985 . S
H2622 N2616 0.984 . S
H2623 N2616 0.984 . S
H2624 N2612 0.984 . S
H2625 N2612 0.985 . S
C2626 C2627 1.363 . S
C2626 C2632 1.379 . S
C2626 N2634 1.356 . S
C2627 C2626 1.363 . S
C2627 C2633 1.363 . S
C2628 C2629 1.363 . S
C2628 C2633 1.379 . S
C2628 N2635 1.356 1_554 S
C2629 C2628 1.363 . S
C2629 C2632 1.363 . S
N2630 C2632 1.356 . S
N2630 H2642 0.984 . S
N2630 H2643 0.985 . S
N2631 C2633 1.353 1_556 S
N2631 H2636 0.983 1_556 S
N2631 H2637 0.989 . S
C2632 C2626 1.379 . S
C2632 C2629 1.363 . S
C2632 N2630 1.356 . S
C2633 C2627 1.363 . S
C2633 C2628 1.379 . S
C2633 N2631 1.353 1_554 S
N2634 C2626 1.356 . S
N2634 H2640 0.984 . S
N2634 H2641 0.984 . S
N2635 C2628 1.356 1_556 S
N2635 H2638 0.984 . S
N2635 H2639 0.985 . S
H2636 N2631 0.983 1_554 S
H2637 N2631 0.989 . S
H2638 N2635 0.984 . S
H2639 N2635 0.985 . S
H2640 N2634 0.984 . S
H2641 N2634 0.984 . S
H2642 N2630 0.984 . S
H2643 N2630 0.985 . S
C2644 C2645 1.363 . S
C2644 C2650 1.379 . S
C2644 N2652 1.356 . S
C2645 C2644 1.363 . S
C2645 C2651 1.363 . S
C2646 C2647 1.363 . S
C2646 C2651 1.379 . S
C2646 N2653 1.356 . S
C2647 C2646 1.363 . S
C2647 C2650 1.363 . S
N2648 C2650 1.356 . S
N2648 H2660 0.984 . S
N2648 H2661 0.985 . S
N2649 C2651 1.356 . S
N2649 H2654 0.984 . S
N2649 H2655 0.985 . S
C2650 C2644 1.379 . S
C2650 C2647 1.363 . S
C2650 N2648 1.356 . S
C2651 C2645 1.363 . S
C2651 C2646 1.379 . S
C2651 N2649 1.356 . S
N2652 C2644 1.356 . S
N2652 H2658 0.984 . S
N2652 H2659 0.984 . S
N2653 C2646 1.356 . S
N2653 H2656 0.984 . S
N2653 H2657 0.985 . S
H2654 N2649 0.984 . S
H2655 N2649 0.985 . S
H2656 N2653 0.984 . S
H2657 N2653 0.985 . S
H2658 N2652 0.984 . S
H2659 N2652 0.984 . S
H2660 N2648 0.984 . S
H2661 N2648 0.985 . S
C2662 C2663 1.363 . S
C2662 C2668 1.379 . S
C2662 N2670 1.356 . S
C2663 C2662 1.363 . S
C2663 C2669 1.363 . S
C2664 C2665 1.363 . S
C2664 C2669 1.379 . S
C2664 N2671 1.356 . S
C2665 C2664 1.363 . S
C2665 C2668 1.363 . S
N2666 C2668 1.356 . S
N2666 H2678 0.984 . S
N2666 H2679 0.985 . S
N2667 C2669 1.356 . S
N2667 H2672 0.984 . S
N2667 H2673 0.985 . S
C2668 C2662 1.379 . S
C2668 C2665 1.363 . S
C2668 N2666 1.356 . S
C2669 C2663 1.363 . S
C2669 C2664 1.379 . S
C2669 N2667 1.356 . S
N2670 C2662 1.356 . S
N2670 H2676 0.984 . S
N2670 H2677 0.984 . S
N2671 C2664 1.356 . S
N2671 H2674 0.984 . S
N2671 H2675 0.985 . S
H2672 N2667 0.984 . S
H2673 N2667 0.985 . S
H2674 N2671 0.984 . S
H2675 N2671 0.985 . S
H2676 N2670 0.984 . S
H2677 N2670 0.984 . S
H2678 N2666 0.984 . S
H2679 N2666 0.985 . S
C953 C101 2.036 . S
C955 C334 1.984 . S
C971 C57 1.410 . S
C973 C354 1.441 . S
C989 C70 0.706 . S
C991 C401 0.707 . S
C1009 C458 1.290 . S
C1007 C82 1.335 . S
C1025 C23 2.526 . S
C1027 C475 2.508 . S
C1045 C534 1.851 . S
C1043 C29 1.882 . S
C1063 C567 2.652 . S
C1061 C49 2.635 . S
C1079 C10 2.638 . S
C1081 C614 2.572 . S
C1099 C327 2.087 . S
C1097 C218 1.965 . S
C1115 C226 1.422 . S
C1117 C355 1.414 . S
C1135 C394 0.595 . S
C1133 C251 0.552 1_565 S
C1153 C454 2.212 . S
C1151 C159 2.199 . S
C1169 C211 0.699 . S
C1171 C481 0.703 . S
C1189 C527 2.182 . S
C1187 C225 2.187 . S
C1207 C578 0.877 . S
C1205 C252 0.928 . S
C1225 C607 2.375 . S
C1223 C166 2.342 . S
C1243 C338 2.347 1_565 S
C1241 C147 2.446 . S
C1259 C263 2.208 . S
C1261 C634 2.182 . S
C1279 C698 1.599 . S
C1277 C309 1.603 . S
C1297 C734 1.650 . S
C1295 C291 1.627 . S
C1313 C108 2.053 . S
C1315 C618 2.094 . S
C1331 C121 2.546 . S
C1333 C395 2.551 . S
C1349 C302 1.484 . S
C1351 C767 1.580 . S
C1369 C801 0.585 . S
C1367 C276 0.643 . S
C1387 C315 2.028 1_565 S
C1385 C55 2.003 . S
C1405 C807 1.698 . S
C1403 C96 1.712 . S
C1421 C88 1.077 . S
C1423 C418 1.057 . S
C1439 C75 1.385 . S
C1441 C761 1.361 . S
C1459 C494 2.822 . S
C1457 C4 2.851 . S
C1475 C44 2.056 . S
C1477 C675 2.052 . S
C1495 C554 2.895 1_566 S
C1493 C31 2.902 . S
C1513 C835 2.582 . S
C1511 C18 2.606 . S
C1531 C314 1.847 1_556 S
C1529 C133 1.790 . S
C1549 C814 1.965 . S
C1547 C296 1.988 . S
C1565 C107 0.742 . S
C1567 C407 0.743 . S
C1583 C264 2.401 . S
C1585 C755 2.420 . S
C1601 C140 0.849 . S
C1603 C498 0.836 . S
C1621 C674 2.470 . S
C1619 C289 2.481 . S
C1637 C114 1.025 . S
C1639 C561 0.992 . S
C1655 C265 2.523 . S
C1657 C834 2.526 . S
C1673 C179 1.939 . S
C1675 C321 1.893 . S
C1691 C161 2.283 . S
C1693 C647 2.247 . S
C1709 C244 1.671 . S
C1711 C521 1.682 . S
C1727 C224 1.703 . S
C1729 C715 1.722 . S
C1747 C841 1.736 . S
C1745 C257 1.693 . S
C1763 C199 2.774 . S
C1765 C414 2.771 1_565 S
C1783 C434 1.788 . S
C1781 C237 1.736 . S
C1801 C378 0.875 . S
C1799 C185 0.898 . S
C1817 C69 2.138 . S
C1819 C894 2.096 . S
C1837 C794 1.444 . S
C1835 C83 1.414 . S
C1853 C94 0.650 . S
C1855 C921 0.654 . S
C1871 C56 1.368 . S
C1873 C778 1.322 1_455 S
C1889 C42 2.524 . S
C1891 C635 2.504 . S
C1909 C694 1.872 . S
C1907 C3 1.904 . S
C1927 C727 2.668 . S
C1925 C16 2.649 . S
C1945 C854 2.528 . S
C1943 C36 2.597 . S
C1963 C887 2.043 . S
C1961 C238 1.924 . S
C1979 C174 1.390 . S
C1981 C795 1.381 . S
C1999 C914 0.601 . S
C1997 C186 0.549 . S
C2017 C774 2.206 . S
C2015 C198 2.195 . S
C2035 C641 0.696 . S
C2033 C239 0.692 . S
C2051 C173 2.211 . S
C2053 C687 2.206 . S
C2071 C738 0.868 . S
C2069 C187 0.918 . S
C2087 C205 2.328 . S
C2089 C847 2.358 . S
C2107 C898 2.363 . S
C2105 C290 2.462 . S
C2123 C122 2.237 . S
C2125 C474 2.212 . S
C2143 C538 1.568 . S
C2141 C134 1.573 . S
C2161 C574 1.664 . S
C2159 C148 1.629 . S
C2179 C858 1.907 . S
C2177 C283 1.883 . S
C2195 C270 2.565 . S
C2197 C915 2.568 . S
C2215 C447 1.609 . S
C2213 C135 1.514 . S
C2233 C361 0.664 . S
C2231 C109 0.688 . S
C2249 C81 2.031 . S
C2251 C875 2.061 . S
C2269 C367 1.561 . S
C2267 C68 1.571 . S
C2285 C62 1.084 . S
C2287 C938 1.064 . S
C2303 C95 1.283 . S
C2305 C441 1.256 . S
C2321 C30 2.845 . S
C2323 C654 2.817 . S
C2341 C515 2.059 . S
C2339 C17 2.069 . S
C2357 C5 2.923 . S
C2359 C714 2.916 . S
C2375 C43 2.562 . S
C2377 C595 2.530 . S
C2395 C874 1.867 . S
C2393 C304 1.805 . S
C2411 C153 1.980 . S
C2413 C374 1.958 . S
C2431 C927 0.692 . S
C2429 C278 0.685 . S
C2447 C127 2.414 . S
C2449 C435 2.430 . S
C2465 C303 0.832 . S
C2467 C658 0.822 . S
C2485 C514 2.494 . S
C2483 C146 2.505 1_556 S
C2501 C277 0.981 . S
C2503 C721 0.950 . S
C2521 C594 2.517 . S
C2519 C120 2.514 . S
C2539 C881 1.934 . S
C2537 C231 1.983 . S
C2557 C487 2.280 1_565 S
C2555 C200 2.316 . S
C2573 C212 1.647 . S
C2575 C681 1.652 . S
C2593 C555 1.692 1_556 S
C2591 C172 1.674 . S
C2609 C192 1.701 . S
C2611 C601 1.739 . S
C2627 C160 2.801 . S
C2629 C934 2.797 . S
C2647 C754 1.806 . S
C2645 C213 1.757 . S
C2665 C818 0.879 . S
C2663 C250 0.897 . S
