# Generated by pormake.
# Topology zzz, (3,6)-cn, num edge types: 1
# Building blocks:
#     Node 0, Type 0, BuildingBlock: WUSLED_clean_sbu_0, # of connection points: 3
#     Node 1, Type 0, BuildingBlock: WUSLED_clean_sbu_0, # of connection points: 3
#     Node 2, Type 0, BuildingBlock: WUSLED_clean_sbu_0, # of connection points: 3
#     Node 3, Type 0, BuildingBlock: WUSLED_clean_sbu_0, # of connection points: 3
#     Node 4, Type 0, BuildingBlock: WUSLED_clean_sbu_0, # of connection points: 3
#     Node 5, Type 0, BuildingBlock: WUSLED_clean_sbu_0, # of connection points: 3
#     Node 6, Type 0, BuildingBlock: WUSLED_clean_sbu_0, # of connection points: 3
#     Node 7, Type 0, BuildingBlock: WUSLED_clean_sbu_0, # of connection points: 3
#     Node 8, Type 1, BuildingBlock: VOLQOD_clean_sbu_1, # of connection points: 6
#     Node 9, Type 1, BuildingBlock: VOLQOD_clean_sbu_1, # of connection points: 6
#     Node 10, Type 1, BuildingBlock: VOLQOD_clean_sbu_1, # of connection points: 6
#     Node 11, Type 1, BuildingBlock: VOLQOD_clean_sbu_1, # of connection points: 6
#     Edge 12, Type (0, 1), BuildingBlock: UVAHIK_clean_linker_0, # of connection points: 2
#     Edge 13, Type (0, 1), BuildingBlock: UVAHIK_clean_linker_0, # of connection points: 2
#     Edge 14, Type (0, 1), BuildingBlock: UVAHIK_clean_linker_0, # of connection points: 2
#     Edge 15, Type (0, 1), BuildingBlock: UVAHIK_clean_linker_0, # of connection points: 2
#     Edge 16, Type (0, 1), BuildingBlock: UVAHIK_clean_linker_0, # of connection points: 2
#     Edge 17, Type (0, 1), BuildingBlock: UVAHIK_clean_linker_0, # of connection points: 2
#     Edge 18, Type (0, 1), BuildingBlock: UVAHIK_clean_linker_0, # of connection points: 2
#     Edge 19, Type (0, 1), BuildingBlock: UVAHIK_clean_linker_0, # of connection points: 2
#     Edge 20, Type (0, 1), BuildingBlock: UVAHIK_clean_linker_0, # of connection points: 2
#     Edge 21, Type (0, 1), BuildingBlock: UVAHIK_clean_linker_0, # of connection points: 2
#     Edge 22, Type (0, 1), BuildingBlock: UVAHIK_clean_linker_0, # of connection points: 2
#     Edge 23, Type (0, 1), BuildingBlock: UVAHIK_clean_linker_0, # of connection points: 2
#     Edge 24, Type (0, 1), BuildingBlock: UVAHIK_clean_linker_0, # of connection points: 2
#     Edge 25, Type (0, 1), BuildingBlock: UVAHIK_clean_linker_0, # of connection points: 2
#     Edge 26, Type (0, 1), BuildingBlock: UVAHIK_clean_linker_0, # of connection points: 2
#     Edge 27, Type (0, 1), BuildingBlock: UVAHIK_clean_linker_0, # of connection points: 2
#     Edge 28, Type (0, 1), BuildingBlock: UVAHIK_clean_linker_0, # of connection points: 2
#     Edge 29, Type (0, 1), BuildingBlock: UVAHIK_clean_linker_0, # of connection points: 2
#     Edge 30, Type (0, 1), BuildingBlock: UVAHIK_clean_linker_0, # of connection points: 2
#     Edge 31, Type (0, 1), BuildingBlock: UVAHIK_clean_linker_0, # of connection points: 2
#     Edge 32, Type (0, 1), BuildingBlock: UVAHIK_clean_linker_0, # of connection points: 2
#     Edge 33, Type (0, 1), BuildingBlock: UVAHIK_clean_linker_0, # of connection points: 2
#     Edge 34, Type (0, 1), BuildingBlock: UVAHIK_clean_linker_0, # of connection points: 2
#     Edge 35, Type (0, 1), BuildingBlock: UVAHIK_clean_linker_0, # of connection points: 2
# Relax obj value: 0.345
# Max RMSD: 0.256
# Mean RMSD: 0.201
data_MOF--net-zzz--node1-WUSLED_clean_sbu_0--node2-VOLQOD_clean_sbu_1--edge1-UVAHIK_clean_linker_0
_symmetry_space_group_name_H-M    P1
_symmetry_Int_Tables_number       1
_symmetry_cell_setting            triclinic
loop_
_symmetry_equiv_pos_as_xyz
'x, y, z'
_cell_length_a     75.83678
_cell_length_b     74.59323
_cell_length_c     29.680024
_cell_angle_alpha  90.286975
_cell_angle_beta   90.240501
_cell_angle_gamma 92.166377
loop_
_atom_site_label
_atom_site_type_symbol
_atom_site_fract_x
_atom_site_fract_y
_atom_site_fract_z
_atom_type_partial_charge
C0 C 0.79632 0.47877 0.22739 0.0
C1 C 0.81268 0.4711 0.21978 0.0
C2 C 0.82321 0.4814 0.2935 0.0
C3 C 0.82596 0.47231 0.25262 0.0
C4 C 0.80671 0.48886 0.30118 0.0
C5 C 0.79338 0.48753 0.26841 0.0
U6 U 0.78606 0.47663 0.10348 0.0
O7 O 0.7641 0.46504 0.06294 0.0
O8 O 0.77052 0.49407 0.0603 0.0
C9 C 0.76015 0.48068 0.04603 0.0
C10 C 0.78302 0.47914 0.19114 0.0
C11 C 0.74142 0.48431 0.03788 0.0
C12 C 0.71069 0.47386 0.03261 0.0
C13 C 0.72776 0.472 0.04976 0.0
C14 C 0.72053 0.50078 0.9934 0.0
C15 C 0.70701 0.48797 0.00307 0.0
C16 C 0.73751 0.49894 0.01057 0.0
C17 C 0.82185 0.47166 0.01964 0.0
C18 C 0.81627 0.48144 0.9431 0.0
C19 C 0.84322 0.46646 0.96107 0.0
C20 C 0.83789 0.46479 0.00594 0.0
C21 C 0.83264 0.47521 0.92959 0.0
C22 C 0.81084 0.47953 0.98772 0.0
C23 C 0.81686 0.4716 0.06734 0.0
O24 O 0.78465 0.49319 0.16473 0.0
O25 O 0.78009 0.464 0.16886 0.0
O26 O 0.80618 0.45824 0.07966 0.0
O27 O 0.81209 0.48725 0.08256 0.0
H28 H 0.81534 0.46455 0.18799 0.0
H29 H 0.83858 0.46662 0.24541 0.0
H30 H 0.80414 0.4958 0.33248 0.0
H31 H 0.7809 0.49368 0.2747 0.0
H32 H 0.70051 0.4639 0.04123 0.0
H33 H 0.73039 0.46051 0.07055 0.0
H34 H 0.71831 0.51166 0.97029 0.0
H35 H 0.74787 0.50844 0.00022 0.0
H36 H 0.8079 0.48818 0.9194 0.0
H37 H 0.85601 0.46172 0.95148 0.0
H38 H 0.8465 0.45864 0.03013 0.0
H39 H 0.79829 0.48475 0.99769 0.0
C40 C 0.99142 0.77774 0.29389 0.0
C41 C 0.98584 0.79438 0.27869 0.0
C42 C 0.99257 0.80788 0.35183 0.0
C43 C 0.9864 0.80927 0.30729 0.0
C44 C 0.99807 0.79111 0.36711 0.0
C45 C 0.99751 0.77615 0.33827 0.0
U46 U 0.98885 0.76375 0.17409 0.0
O47 O 0.00563 0.74688 0.13205 0.0
O48 O 0.97679 0.74027 0.13848 0.0
C49 C 0.99204 0.73632 0.12075 0.0
C50 C 0.99205 0.7627 0.26184 0.0
C51 C 0.99383 0.72083 0.0908 0.0
C52 C 0.99574 0.6887 0.08038 0.0
C53 C 0.99487 0.70361 0.10887 0.0
C54 C 0.99452 0.70816 0.01539 0.0
C55 C 0.99534 0.69073 0.0332 0.0
C56 C 0.99384 0.72308 0.04399 0.0
C57 C 0.98247 0.80249 0.09295 0.0
C58 C 0.99234 0.80165 0.01538 0.0
C59 C 0.98147 0.82914 0.04703 0.0
C60 C 0.97809 0.82041 0.08769 0.0
C61 C 0.9894 0.82006 0.01118 0.0
C62 C 0.98886 0.79289 0.05608 0.0
C63 C 0.98311 0.79506 0.1384 0.0
O64 O 0.9771 0.7587 0.24076 0.0
O65 O 0.00567 0.76365 0.23464 0.0
O66 O 0.99879 0.78996 0.15065 0.0
O67 O 0.97028 0.78364 0.14962 0.0
H68 H 0.98137 0.79594 0.24426 0.0
H69 H 0.98241 0.82201 0.29403 0.0
H70 H 0.00278 0.78956 0.4013 0.0
H71 H 0.00204 0.76343 0.35039 0.0
H72 H 0.99672 0.67558 0.0954 0.0
H73 H 0.99492 0.7017 0.14504 0.0
H74 H 0.99393 0.71028 0.97937 0.0
H75 H 0.99294 0.73633 0.02956 0.0
H76 H 0.99827 0.7943 0.98814 0.0
H77 H 0.97922 0.84337 0.04507 0.0
H78 H 0.97322 0.828 0.11596 0.0
H79 H 0.99227 0.77899 0.05973 0.0
C80 C 0.74094 0.00067 0.25087 0.0
C81 C 0.72415 0.00656 0.23942 0.0
C82 C 0.71365 0.00046 0.3153 0.0
C83 C 0.71071 0.00654 0.27126 0.0
C84 C 0.73068 0.99514 0.32725 0.0
C85 C 0.74422 0.99519 0.29514 0.0
U86 U 0.74841 0.99753 0.12831 0.0
O87 O 0.76731 0.01025 0.08133 0.0
O88 O 0.76446 0.98078 0.0845 0.0
C89 C 0.77269 0.99476 0.0663 0.0
C90 C 0.7542 0.99893 0.21517 0.0
C91 C 0.79164 0.99325 0.05723 0.0
C92 C 0.82211 0.00452 0.06197 0.0
C93 C 0.80457 0.00491 0.07658 0.0
C94 C 0.814 0.98049 0.00981 0.0
C95 C 0.82695 0.99248 0.02787 0.0
C96 C 0.79657 0.98089 0.02434 0.0
C97 C 0.70772 0.99927 0.0553 0.0
C98 C 0.71001 0.00637 0.97576 0.0
C99 C 0.68154 0.99824 0.00826 0.0
C100 C 0.68954 0.99599 0.05021 0.0
C101 C 0.69164 0.00397 0.97101 0.0
C102 C 0.71802 0.0039 0.01761 0.0
C103 C 0.71572 0.99896 0.10029 0.0
O104 O 0.75287 0.98372 0.19256 0.0
O105 O 0.75618 0.01303 0.18893 0.0
O106 O 0.72557 0.01328 0.1106 0.0
O107 O 0.72296 0.98388 0.11137 0.0
H108 H 0.72129 0.01077 0.20537 0.0
H109 H 0.69789 0.01106 0.26111 0.0
H110 H 0.73334 0.99031 0.36085 0.0
H111 H 0.75707 0.99048 0.30451 0.0
H112 H 0.83182 0.01383 0.0768 0.0
H113 H 0.80106 0.01461 0.10197 0.0
H114 H 0.81715 0.97128 0.98295 0.0
H115 H 0.78675 0.97196 0.00853 0.0
H116 H 0.71805 0.01071 0.94748 0.0
H117 H 0.66733 0.9965 0.00559 0.0
H118 H 0.68144 0.99235 0.07899 0.0
H119 H 0.73215 0.0063 0.02097 0.0
C120 C 0.566 0.71469 0.23633 0.0
C121 C 0.5645 0.69686 0.22126 0.0
C122 C 0.56287 0.68624 0.29851 0.0
C123 C 0.56284 0.68283 0.25187 0.0
C124 C 0.56429 0.7042 0.31364 0.0
C125 C 0.56583 0.71834 0.28269 0.0
U126 U 0.57307 0.72536 0.11637 0.0
O127 O 0.55895 0.74163 0.06779 0.0
O128 O 0.5875 0.74655 0.0785 0.0
C129 C 0.57313 0.75143 0.05757 0.0
C130 C 0.56769 0.72909 0.2028 0.0
C131 C 0.571 0.77077 0.05081 0.0
C132 C 0.5522 0.79637 0.04571 0.0
C133 C 0.55518 0.77907 0.06126 0.0
C134 C 0.58116 0.79764 0.01143 0.0
C135 C 0.56496 0.80561 0.01945 0.0
C136 C 0.58411 0.78038 0.02688 0.0
C137 C 0.57811 0.68629 0.03827 0.0
C138 C 0.57067 0.69023 0.95945 0.0
C139 C 0.57711 0.66074 0.98781 0.0
C140 C 0.58033 0.66802 0.03057 0.0
C141 C 0.57139 0.67165 0.95248 0.0
C142 C 0.57409 0.69753 0.00212 0.0
C143 C 0.57711 0.69304 0.08448 0.0
O144 O 0.58344 0.73111 0.18462 0.0
O145 O 0.55486 0.72886 0.17284 0.0
O146 O 0.56167 0.69934 0.09457 0.0
O147 O 0.59045 0.70343 0.09826 0.0
H148 H 0.56455 0.69376 0.18558 0.0
H149 H 0.56134 0.66928 0.23879 0.0
H150 H 0.56446 0.70731 0.34931 0.0
H151 H 0.56698 0.73205 0.29489 0.0
H152 H 0.53968 0.80226 0.05288 0.0
H153 H 0.54481 0.77193 0.07961 0.0
H154 H 0.59116 0.80426 0.99082 0.0
H155 H 0.5963 0.77416 0.0179 0.0
H156 H 0.56634 0.6989 0.93272 0.0
H157 H 0.57758 0.64633 0.9835 0.0
H158 H 0.58337 0.6592 0.05821 0.0
H159 H 0.57236 0.71173 0.00766 0.0
C160 C 0.23478 0.51612 0.08535 0.0
C161 C 0.21781 0.50944 0.09642 0.0
C162 C 0.2072 0.51612 0.02129 0.0
C163 C 0.20422 0.5094 0.0648 0.0
C164 C 0.22435 0.52225 0.00952 0.0
C165 C 0.23806 0.52238 0.04156 0.0
U166 U 0.24055 0.52016 0.2074 0.0
O167 O 0.2582 0.50964 0.25874 0.0
O168 O 0.25565 0.53884 0.25211 0.0
C169 C 0.26309 0.52572 0.27362 0.0
C170 C 0.24793 0.51851 0.12172 0.0
C171 C 0.28163 0.52841 0.28688 0.0
C172 C 0.31285 0.5236 0.27662 0.0
C173 C 0.29555 0.52304 0.25961 0.0
C174 C 0.30232 0.53534 0.34746 0.0
C175 C 0.31637 0.52939 0.3212 0.0
C176 C 0.28518 0.53491 0.33038 0.0
C177 C 0.19817 0.51827 0.27319 0.0
C178 C 0.19627 0.53171 0.34756 0.0
C179 C 0.17175 0.51343 0.31771 0.0
C180 C 0.18126 0.51039 0.2784 0.0
C181 C 0.17899 0.52456 0.35197 0.0
C182 C 0.20587 0.52845 0.30856 0.0
C183 C 0.20728 0.51679 0.22999 0.0
O184 O 0.24687 0.5338 0.14357 0.0
O185 O 0.24922 0.50465 0.14872 0.0
O186 O 0.21742 0.50299 0.2258 0.0
O187 O 0.21468 0.53187 0.2155 0.0
H188 H 0.2149 0.50473 0.13014 0.0
H189 H 0.19124 0.50429 0.07468 0.0
H190 H 0.227 0.52753 0.9762 0.0
H191 H 0.251 0.52784 0.0326 0.0
H192 H 0.32336 0.51914 0.25524 0.0
H193 H 0.29299 0.51794 0.22589 0.0
H194 H 0.30434 0.53953 0.38214 0.0
H195 H 0.27453 0.53894 0.352 0.0
H196 H 0.20212 0.54025 0.37368 0.0
H197 H 0.15837 0.50791 0.32026 0.0
H198 H 0.17519 0.50244 0.25148 0.0
H199 H 0.21904 0.53445 0.30526 0.0
C200 C 0.08852 0.2105 0.15908 0.0
C201 C 0.08568 0.19271 0.17357 0.0
C202 C 0.08315 0.18231 0.09599 0.0
C203 C 0.08289 0.17882 0.14242 0.0
C204 C 0.08643 0.20004 0.08133 0.0
C205 C 0.08899 0.21406 0.11271 0.0
U206 U 0.1049 0.22353 0.27352 0.0
O207 O 0.11742 0.24769 0.30509 0.0
O208 O 0.09207 0.23658 0.33043 0.0
C209 C 0.1046 0.24915 0.33447 0.0
C210 C 0.09112 0.22505 0.19273 0.0
C211 C 0.09903 0.26728 0.34585 0.0
C212 C 0.07917 0.29198 0.33894 0.0
C213 C 0.08513 0.27546 0.3235 0.0
C214 C 0.10112 0.29228 0.39851 0.0
C215 C 0.08702 0.30051 0.37695 0.0
C216 C 0.10705 0.27589 0.38304 0.0
C217 C 0.12418 0.18597 0.34099 0.0
C218 C 0.12487 0.18918 0.42235 0.0
C219 C 0.1258 0.15968 0.38811 0.0
C220 C 0.12576 0.16744 0.34542 0.0
C221 C 0.1241 0.17039 0.42695 0.0
C222 C 0.12476 0.19693 0.37956 0.0
C223 C 0.11801 0.19302 0.29798 0.0
O224 O 0.0816 0.22297 0.22937 0.0
O225 O 0.10762 0.23011 0.20127 0.0
O226 O 0.12765 0.20609 0.27988 0.0
O227 O 0.10106 0.19596 0.29749 0.0
H228 H 0.08554 0.18953 0.20914 0.0
H229 H 0.08069 0.16527 0.15469 0.0
H230 H 0.08669 0.20308 0.04569 0.0
H231 H 0.09128 0.22765 0.10081 0.0
H232 H 0.06838 0.29802 0.32133 0.0
H233 H 0.07871 0.26893 0.29482 0.0
H234 H 0.10726 0.29819 0.42835 0.0
H235 H 0.11764 0.26966 0.40109 0.0
H236 H 0.12389 0.1978 0.45164 0.0
H237 H 0.12517 0.14518 0.39019 0.0
H238 H 0.12528 0.15881 0.31593 0.0
H239 H 0.12354 0.2113 0.37666 0.0
C240 C 0.30207 0.0027 0.10285 0.0
C241 C 0.31836 0.01141 0.11283 0.0
C242 C 0.32943 0.00402 0.03852 0.0
C243 C 0.33185 0.01211 0.08106 0.0
C244 C 0.31304 0.99534 0.02841 0.0
C245 C 0.29944 0.9947 0.06039 0.0
U246 U 0.29411 0.00534 0.22492 0.0
O247 O 0.27427 0.01733 0.26815 0.0
O248 O 0.27937 0.98851 0.27393 0.0
C249 C 0.27036 0.00208 0.28854 0.0
C250 C 0.28867 0.001 0.13851 0.0
C251 C 0.25193 0.99851 0.30202 0.0
C252 C 0.22079 0.00512 0.2991 0.0
C253 C 0.23766 0.00612 0.27984 0.0
C254 C 0.23229 0.9884 0.36176 0.0
C255 C 0.21801 0.99666 0.34102 0.0
C256 C 0.24899 0.98926 0.34237 0.0
C257 C 0.33482 0.01601 0.29592 0.0
C258 C 0.33576 0.02952 0.37075 0.0
C259 C 0.35768 0.00833 0.34896 0.0
C260 C 0.34985 0.00651 0.30654 0.0
C261 C 0.35071 0.01984 0.3814 0.0
C262 C 0.32776 0.0275 0.3284 0.0
C263 C 0.32643 0.01316 0.25156 0.0
O264 O 0.29084 0.98746 0.16594 0.0
O265 O 0.2855 0.01605 0.15981 0.0
O266 O 0.31549 0.02538 0.23841 0.0
O267 O 0.32052 0.99666 0.24365 0.0
H268 H 0.32079 0.0174 0.1457 0.0
H269 H 0.34437 0.01857 0.09037 0.0
H270 H 0.31074 0.98905 0.99584 0.0
H271 H 0.28702 0.98775 0.05225 0.0
H272 H 0.21007 0.01139 0.28178 0.0
H273 H 0.23966 0.01338 0.24865 0.0
H274 H 0.23088 0.98207 0.39436 0.0
H275 H 0.25988 0.98351 0.36032 0.0
H276 H 0.33017 0.03844 0.39533 0.0
H277 H 0.36936 0.00091 0.35623 0.0
H278 H 0.35548 0.99756 0.28205 0.0
H279 H 0.31602 0.03483 0.32123 0.0
C280 C 0.46109 0.27864 0.07109 0.0
C281 C 0.46604 0.29499 0.09212 0.0
C282 C 0.46219 0.31084 0.02149 0.0
C283 C 0.46671 0.31092 0.06747 0.0
C284 C 0.45677 0.29453 0.00082 0.0
C285 C 0.45631 0.27854 0.02541 0.0
U286 U 0.45724 0.25395 0.18194 0.0
O287 O 0.47417 0.2334 0.20948 0.0
O288 O 0.44586 0.22717 0.19859 0.0
C289 C 0.46098 0.22159 0.21402 0.0
C290 C 0.46125 0.26169 0.09638 0.0
C291 C 0.46046 0.21077 0.25557 0.0
C292 C 0.45324 0.18179 0.28899 0.0
C293 C 0.45149 0.19402 0.25401 0.0
C294 C 0.47214 0.20327 0.32952 0.0
C295 C 0.46406 0.18602 0.32639 0.0
C296 C 0.47042 0.21557 0.29423 0.0
C297 C 0.44763 0.2855 0.28332 0.0
C298 C 0.45717 0.28447 0.36138 0.0
C299 C 0.4403 0.3093 0.33486 0.0
C300 C 0.43904 0.30136 0.29236 0.0
C301 C 0.45018 0.30145 0.36933 0.0
C302 C 0.45602 0.2766 0.31848 0.0
C303 C 0.4501 0.28055 0.23599 0.0
O304 O 0.47451 0.26035 0.12465 0.0
O305 O 0.44606 0.25611 0.11345 0.0
O306 O 0.43775 0.27028 0.21676 0.0
O307 O 0.46621 0.27659 0.22442 0.0
H308 H 0.4696 0.29542 0.12752 0.0
H309 H 0.47073 0.32332 0.08439 0.0
H310 H 0.45331 0.29407 0.96537 0.0
H311 H 0.45242 0.26607 0.00863 0.0
H312 H 0.4466 0.16872 0.28601 0.0
H313 H 0.44375 0.19001 0.22461 0.0
H314 H 0.48054 0.2069 0.358 0.0
H315 H 0.47748 0.22844 0.29633 0.0
H316 H 0.46451 0.27783 0.3874 0.0
H317 H 0.43486 0.3224 0.3391 0.0
H318 H 0.43251 0.3084 0.26553 0.0
H319 H 0.46262 0.26421 0.31209 0.0
O320 O 0.07154 0.00508 0.68173 0.0
Zn321 Zn 0.05303 0.00274 0.73096 0.0
O322 O 0.02898 0.00264 0.70444 0.0
Zn323 Zn 0.01653 0.02258 0.72922 0.0
Zn324 Zn 0.02991 0.00467 0.63875 0.0
Zn325 Zn 0.01545 0.98098 0.71863 0.0
O326 O 0.99243 0.01546 0.75294 0.0
O327 O 0.99334 0.98577 0.75384 0.0
O328 O 0.0569 0.02338 0.77609 0.0
O329 O 0.02996 0.03391 0.7808 0.0
O330 O 0.01586 0.04195 0.68315 0.0
O331 O 0.02157 0.02858 0.61814 0.0
O332 O 0.01823 0.98326 0.60575 0.0
O333 O 0.05685 0.9792 0.76322 0.0
O334 O 0.00877 0.9668 0.66335 0.0
O335 O 0.03071 0.96502 0.75318 0.0
C336 C 0.07009 0.00605 0.63899 0.0
C337 C 0.98558 0.00017 0.76325 0.0
C338 C 0.01812 0.04259 0.64071 0.0
C339 C 0.04595 0.03388 0.79385 0.0
C340 C 0.01075 0.96898 0.62118 0.0
C341 C 0.04647 0.96552 0.76801 0.0
O342 O 0.05511 0.00569 0.61953 0.0
O343 O 0.50391 0.0362 0.64963 0.0
Zn344 Zn 0.51194 0.01919 0.69791 0.0
O345 O 0.51964 0.99667 0.67048 0.0
Zn346 Zn 0.50362 0.97662 0.68871 0.0
Zn347 Zn 0.52017 0.99917 0.60455 0.0
Zn348 Zn 0.54314 0.99109 0.69123 0.0
O349 O 0.51627 0.95707 0.71957 0.0
O350 O 0.54384 0.96779 0.72558 0.0
O351 O 0.49134 0.01449 0.7408 0.0
O352 O 0.48565 0.98523 0.73236 0.0
O353 O 0.4906 0.96623 0.63503 0.0
O354 O 0.50516 0.97884 0.58014 0.0
O355 O 0.54489 0.9974 0.57953 0.0
O356 O 0.53235 0.03194 0.73113 0.0
O357 O 0.56044 0.99049 0.64011 0.0
O358 O 0.55237 0.01084 0.7303 0.0
C359 C 0.50412 0.03587 0.60668 0.0
C360 C 0.53207 0.95555 0.73312 0.0
C361 C 0.49044 0.97523 0.59887 0.0
C362 C 0.48222 0.00026 0.75015 0.0
C363 C 0.55948 0.99366 0.59809 0.0
C364 C 0.54739 0.02624 0.74205 0.0
O365 O 0.51008 0.02258 0.58516 0.0
O366 O 0.46912 0.49643 0.63244 0.0
Zn367 Zn 0.48825 0.49605 0.68027 0.0
O368 O 0.51187 0.49557 0.65197 0.0
Zn369 Zn 0.52381 0.47424 0.6707 0.0
Zn370 Zn 0.50986 0.49581 0.58632 0.0
Zn371 Zn 0.52645 0.5161 0.67033 0.0
O372 O 0.54807 0.47972 0.69648 0.0
O373 O 0.54846 0.50934 0.70364 0.0
O374 O 0.4841 0.47474 0.72244 0.0
O375 O 0.51007 0.46192 0.71968 0.0
O376 O 0.52452 0.45649 0.61969 0.0
O377 O 0.51596 0.47203 0.56034 0.0
O378 O 0.52348 0.51675 0.55725 0.0
O379 O 0.48565 0.51899 0.71621 0.0
O380 O 0.53318 0.53157 0.61802 0.0
O381 O 0.51244 0.53185 0.70857 0.0
C382 C 0.46989 0.49773 0.58967 0.0
C383 C 0.55559 0.49436 0.70993 0.0
C384 C 0.52085 0.45748 0.57789 0.0
C385 C 0.49461 0.46287 0.73577 0.0
C386 C 0.53137 0.53035 0.57552 0.0
C387 C 0.49677 0.53188 0.72347 0.0
O388 O 0.48453 0.4981 0.56888 0.0
O389 O 0.97672 0.51065 0.61753 0.0
Zn390 Zn -0.00031 0.51698 0.65126 0.0
O391 O 0.00974 0.49528 0.6775 0.0
Zn392 Zn 0.01067 0.49779 0.74361 0.0
Zn393 Zn 0.99528 0.47411 0.6601 0.0
Zn394 Zn 0.03352 0.49153 0.6564 0.0
O395 O 0.03516 0.49521 0.76891 0.0
O396 O 0.05134 0.49318 0.70707 0.0
O397 O 0.99528 0.53581 0.69934 0.0
O398 O 0.00358 0.52232 0.76208 0.0
O399 O 0.99255 0.48129 0.77228 0.0
O400 O 0.9879 0.46218 0.7171 0.0
O401 O 0.00857 0.4562 0.62346 0.0
O402 O 0.01714 0.52871 0.60807 0.0
O403 O 0.03591 0.46775 0.62457 0.0
O404 O 0.03996 0.51078 0.61281 0.0
C405 C 0.96834 0.49577 0.60986 0.0
C406 C 0.05012 0.49432 0.74978 0.0
C407 C 0.9819 0.47128 0.74941 0.0
C408 C 0.99767 0.53585 0.74188 0.0
C409 C 0.02479 0.45533 0.6131 0.0
C410 C 0.0326 0.52441 0.59677 0.0
O411 O 0.974 0.48102 0.62456 0.0
C412 C 0.19503 0.98359 0.39363 0.0
C413 C 0.2009 0.99767 0.36532 0.0
C414 C 0.18059 0.98562 0.42199 0.0
C415 C 0.1398 0.00643 0.43974 0.0
H416 H 0.15054 0.00571 0.56763 0.0
C417 C 0.08553 0.01758 0.57058 0.0
C418 C 0.08597 0.00764 0.61058 0.0
C419 C 0.09992 0.01808 0.54141 0.0
C420 C 0.1472 0.00568 0.53214 0.0
H421 H 0.19536 0.02462 0.34318 0.0
H422 H 0.16954 0.02769 0.39128 0.0
H423 H 0.1741 0.00226 0.51289 0.0
H424 H 0.10183 0.99069 0.65205 0.0
H425 H 0.12668 0.9907 0.60016 0.0
H426 H 0.11283 0.00883 0.45825 0.0
C427 C 0.17648 0.01526 0.39182 0.0
C428 C 0.16074 0.00384 0.50088 0.0
C429 C 0.19118 0.0134 0.36403 0.0
C430 C 0.10123 0.99854 0.6215 0.0
C431 C 0.11551 0.99866 0.59174 0.0
C432 C 0.12616 0.00786 0.47096 0.0
C433 C 0.17143 0.00158 0.42185 0.0
C434 C 0.15712 0.00413 0.45452 0.0
C435 C 0.11496 0.00825 0.55093 0.0
C436 C 0.12964 0.00744 0.51768 0.0
H437 H 0.20184 0.9711 0.39476 0.0
H438 H 0.17671 0.9748 0.44451 0.0
H439 H 0.13675 0.00658 0.40405 0.0
H440 H 0.07398 0.02495 0.56171 0.0
H441 H 0.09914 0.02607 0.51119 0.0
C442 C 0.46728 0.1748 0.40618 0.0
C443 C 0.46799 0.17178 0.35942 0.0
C444 C 0.47027 0.16079 0.4364 0.0
C445 C 0.46944 0.1111 0.44013 0.0
H446 H 0.49804 0.11732 0.548 0.0
C447 C 0.49756 0.05124 0.53383 0.0
C448 C 0.49796 0.05155 0.58119 0.0
C449 C 0.49265 0.06628 0.50963 0.0
C450 C 0.48981 0.11542 0.51832 0.0
H451 H 0.47353 0.15213 0.30783 0.0
H452 H 0.47889 0.12796 0.36003 0.0
H453 H 0.49218 0.14331 0.50095 0.0
H454 H 0.4931 0.06793 0.64019 0.0
H455 H 0.48441 0.09417 0.59778 0.0
H456 H 0.46723 0.08326 0.4569 0.0
C457 C 0.47544 0.14087 0.37359 0.0
C458 C 0.48646 0.13031 0.49138 0.0
C459 C 0.4724 0.15475 0.34362 0.0
C460 C 0.493 0.06722 0.60374 0.0
C461 C 0.48813 0.08231 0.57946 0.0
C462 C 0.47279 0.09628 0.46691 0.0
C463 C 0.4741 0.14357 0.42031 0.0
C464 C 0.47652 0.12824 0.45144 0.0
C465 C 0.48798 0.08205 0.5321 0.0
C466 C 0.48329 0.09817 0.50587 0.0
H467 H 0.46397 0.18781 0.41928 0.0
H468 H 0.46915 0.1633 0.47222 0.0
H469 H 0.46136 0.10909 0.41021 0.0
H470 H 0.50127 0.03943 0.51528 0.0
H471 H 0.49289 0.06568 0.47317 0.0
C472 C 0.34021 0.54036 0.37489 0.0
C473 C 0.33415 0.52788 0.34203 0.0
C474 C 0.35544 0.53738 0.39991 0.0
C475 C 0.397 0.51566 0.40318 0.0
H476 H 0.38925 0.51032 0.5316 0.0
C477 C 0.45238 0.4923 0.51941 0.0
C478 C 0.45358 0.4995 0.56312 0.0
C479 C 0.43762 0.49516 0.49251 0.0
C480 C 0.3918 0.51207 0.49601 0.0
H481 H 0.34013 0.50296 0.30813 0.0
H482 H 0.36723 0.4983 0.35056 0.0
H483 H 0.36482 0.51791 0.48251 0.0
H484 H 0.44035 0.51521 0.61331 0.0
H485 H 0.41495 0.52106 0.56575 0.0
H486 H 0.42405 0.51065 0.4163 0.0
C487 C 0.35988 0.51021 0.3572 0.0
C488 C 0.37775 0.51632 0.46792 0.0
C489 C 0.34443 0.51298 0.33272 0.0
C490 C 0.43964 0.50937 0.57983 0.0
C491 C 0.42504 0.51263 0.5525 0.0
C492 C 0.41117 0.51182 0.43135 0.0
C493 C 0.36518 0.52211 0.39185 0.0
C494 C 0.38023 0.51807 0.42133 0.0
C495 C 0.42391 0.50573 0.50822 0.0
C496 C 0.40876 0.50985 0.47819 0.0
H497 H 0.33291 0.55223 0.38223 0.0
H498 H 0.35947 0.54687 0.4261 0.0
H499 H 0.3992 0.51706 0.3673 0.0
H500 H 0.46291 0.48447 0.50594 0.0
H501 H 0.43706 0.48914 0.45926 0.0
C502 C 0.09199 0.33074 0.41367 0.0
C503 C 0.08024 0.3175 0.39564 0.0
C504 C 0.0857 0.34588 0.43527 0.0
C505 C 0.04638 0.3733 0.44899 0.0
H506 H 0.06954 0.38797 0.56071 0.0
C507 C 0.01861 0.42699 0.56864 0.0
C508 C 0.03084 0.43959 0.58742 0.0
C509 C 0.02436 0.41217 0.54443 0.0
C510 C 0.06304 0.38418 0.52933 0.0
H511 H 0.05256 0.31018 0.38525 0.0
H512 H 0.04158 0.33675 0.42257 0.0
H513 H 0.08002 0.36229 0.51897 0.0
H514 H 0.05876 0.4464 0.59548 0.0
H515 H 0.06874 0.4206 0.55335 0.0
H516 H 0.02936 0.39521 0.45957 0.0
C517 C 0.0557 0.33539 0.41981 0.0
C518 C 0.06906 0.36946 0.50535 0.0
C519 C 0.06201 0.32017 0.39829 0.0
C520 C 0.04896 0.43699 0.58148 0.0
C521 C 0.0547 0.42212 0.55755 0.0
C522 C 0.04034 0.38804 0.47303 0.0
C523 C 0.06748 0.34827 0.43927 0.0
C524 C 0.06087 0.36388 0.46476 0.0
C525 C 0.04248 0.40953 0.53872 0.0
C526 C 0.04866 0.3937 0.5134 0.0
H527 H 0.10613 0.32933 0.41144 0.0
H528 H 0.09515 0.35573 0.44898 0.0
H529 H 0.03989 0.36948 0.41763 0.0
H530 H 0.00456 0.42857 0.57251 0.0
H531 H 0.01461 0.40264 0.53073 0.0
C532 C 0.85366 0.00961 0.99872 0.0
C533 C 0.84502 0.99309 0.00856 0.0
C534 C 0.86958 0.01018 0.97504 0.0
C535 C 0.89411 0.98332 0.89408 0.0
H536 H 0.93268 0.01746 0.9199 0.0
C537 C 0.96096 0.98255 0.80092 0.0
C538 C 0.96888 0.99922 0.78916 0.0
C539 C 0.94592 0.98167 0.82806 0.0
C540 C 0.92193 0.00798 0.91198 0.0
H541 H 0.84696 0.96421 0.00389 0.0
H542 H 0.8747 0.96521 0.96259 0.0
H543 H 0.90695 0.01607 0.96916 0.0
H544 H 0.96689 0.02806 0.79601 0.0
H545 H 0.94061 0.02649 0.84296 0.0
H546 H 0.909 0.9753 0.83678 0.0
C547 C 0.86897 0.97773 0.97235 0.0
C548 C 0.90722 0.00716 0.94026 0.0
C549 C 0.8531 0.97716 0.99608 0.0
C550 C 0.96118 0.01498 0.80444 0.0
C551 C 0.94619 0.0141 0.83169 0.0
C552 C 0.90881 0.98414 0.86582 0.0
C553 C 0.87719 0.99425 0.96064 0.0
C554 C 0.89313 0.99483 0.93159 0.0
C555 C 0.93848 0.99744 0.84418 0.0
C556 C 0.92287 0.99651 0.87435 0.0
H557 H 0.84771 0.02214 0.00738 0.0
H558 H 0.87551 0.02313 0.96629 0.0
H559 H 0.88333 0.9739 0.88596 0.0
H560 H 0.96653 0.97013 0.78982 0.0
H561 H 0.94038 0.96862 0.83733 0.0
C562 C 0.5738 0.83642 0.99188 0.0
C563 C 0.56085 0.82256 0.99638 0.0
C564 C 0.57072 0.85124 0.96477 0.0
C565 C 0.5438 0.86395 0.86756 0.0
H566 H 0.55952 0.91247 0.8993 0.0
C567 C 0.52371 0.92574 0.76667 0.0
C568 C 0.53646 0.93964 0.75999 0.0
C569 C 0.52728 0.91129 0.7945 0.0
C570 C 0.55527 0.89895 0.88973 0.0
H571 H 0.53427 0.81373 0.97714 0.0
H572 H 0.52875 0.8398 0.93082 0.0
H573 H 0.56387 0.88814 0.95245 0.0
H574 H 0.56318 0.94897 0.77643 0.0
H575 H 0.56943 0.92361 0.82495 0.0
H576 H 0.53515 0.87474 0.80494 0.0
C577 C 0.5414 0.83905 0.94767 0.0
C578 C 0.55771 0.88503 0.92021 0.0
C579 C 0.54447 0.82424 0.97477 0.0
C580 C 0.55305 0.93852 0.78095 0.0
C581 C 0.55659 0.92407 0.80898 0.0
C582 C 0.54135 0.87785 0.83713 0.0
C583 C 0.55463 0.85252 0.94156 0.0
C584 C 0.55193 0.8674 0.90955 0.0
C585 C 0.54367 0.9104 0.81642 0.0
C586 C 0.54698 0.89552 0.84795 0.0
H587 H 0.58649 0.83558 0.00844 0.0
H588 H 0.5812 0.86136 0.96065 0.0
H589 H 0.53953 0.85045 0.85793 0.0
H590 H 0.5108 0.92613 0.75102 0.0
H591 H 0.51699 0.90107 0.79986 0.0
C592 C 0.68181 0.47264 0.96115 0.0
C593 C 0.68983 0.4885 0.97876 0.0
C594 C 0.66692 0.47329 0.93333 0.0
C595 C 0.64495 0.50374 0.85598 0.0
H596 H 0.6058 0.46895 0.86342 0.0
C597 C 0.58036 0.50969 0.75343 0.0
C598 C 0.57222 0.49381 0.73634 0.0
C599 C 0.59506 0.50905 0.78189 0.0
C600 C 0.61674 0.47862 0.86051 0.0
H601 H 0.68783 0.51739 0.98285 0.0
H602 H 0.6619 0.51851 0.93415 0.0
H603 H 0.62999 0.46789 0.91767 0.0
H604 H 0.57364 0.4648 0.73453 0.0
H605 H 0.59937 0.46372 0.78372 0.0
H606 H 0.63175 0.51443 0.79871 0.0
C607 C 0.66734 0.5056 0.94129 0.0
C608 C 0.63057 0.47805 0.8917 0.0
C609 C 0.68217 0.50495 0.96927 0.0
C610 C 0.5795 0.4773 0.74722 0.0
C611 C 0.59418 0.47666 0.77573 0.0
C612 C 0.63113 0.5043 0.82474 0.0
C613 C 0.65974 0.48981 0.92233 0.0
C614 C 0.64483 0.49061 0.88983 0.0
C615 C 0.60197 0.4925 0.79398 0.0
C616 C 0.61686 0.49175 0.82662 0.0
H617 H 0.68749 0.45976 0.9671 0.0
H618 H 0.66148 0.46089 0.91896 0.0
H619 H 0.65589 0.51342 0.85312 0.0
H620 H 0.57513 0.52265 0.74578 0.0
H621 H 0.60066 0.5215 0.79559 0.0
C622 C 0.98617 0.6587 0.01506 0.0
C623 C 0.99527 0.67474 0.00282 0.0
C624 C 0.98579 0.64379 0.98634 0.0
C625 C 0.98907 0.63072 0.86812 0.0
H626 H 0.00053 0.58413 0.91477 0.0
C627 C 0.99807 0.56924 0.75143 0.0
C628 C 0.99432 0.55206 0.76878 0.0
C629 C 0.9971 0.58441 0.77919 0.0
C630 C 0.99692 0.59693 0.90118 0.0
H631 H 0.01137 0.68739 0.9507 0.0
H632 H 0.01021 0.66147 0.90009 0.0
H633 H 0.00114 0.61002 0.96495 0.0
H634 H 0.98549 0.53727 0.82763 0.0
H635 H 0.9828 0.56365 0.87527 0.0
H636 H 0.98435 0.61768 0.80466 0.0
C637 C 0.00336 0.66057 0.932 0.0
C638 C 0.99742 0.6118 0.93002 0.0
C639 C 0.00396 0.67542 0.96099 0.0
C640 C 0.98868 0.55037 0.81359 0.0
C641 C 0.98732 0.56552 0.84101 0.0
C642 C 0.98828 0.61578 0.83936 0.0
C643 C 0.99426 0.64462 0.94441 0.0
C644 C 0.9936 0.62885 0.91374 0.0
C645 C 0.99201 0.58273 0.82466 0.0
C646 C 0.99227 0.59866 0.85542 0.0
H647 H 0.97902 0.65772 0.04649 0.0
H648 H 0.97853 0.6317 0.99654 0.0
H649 H 0.98587 0.64371 0.85485 0.0
H650 H 0.00258 0.57088 0.71706 0.0
H651 H 0.00102 0.59734 0.76534 0.0
C652 C 0.12219 0.14484 0.48208 0.0
C653 C 0.11707 0.16198 0.4688 0.0
C654 C 0.11147 0.13443 0.51092 0.0
C655 C 0.0655 0.12676 0.52159 0.0
H656 H 0.07404 0.098 0.62728 0.0
C657 C 0.02686 0.06151 0.57444 0.0
C658 C 0.02223 0.06031 0.62022 0.0
C659 C 0.03666 0.07642 0.55865 0.0
C660 C 0.07149 0.1061 0.59793 0.0
H661 H 0.09781 0.18239 0.47992 0.0
H662 H 0.07938 0.16428 0.52999 0.0
H663 H 0.09711 0.11945 0.60083 0.0
H664 H 0.02254 0.07485 0.68396 0.0
H665 H 0.03985 0.10059 0.65627 0.0
H666 H 0.04027 0.11286 0.51727 0.0
C667 C 0.09155 0.15889 0.51778 0.0
C668 C 0.08466 0.11825 0.58285 0.0
C669 C 0.10225 0.1693 0.48935 0.0
C670 C 0.02595 0.0752 0.64856 0.0
C671 C 0.03603 0.0899 0.63296 0.0
C672 C 0.05252 0.11438 0.53605 0.0
C673 C 0.09554 0.14106 0.52663 0.0
C674 C 0.08169 0.12871 0.54466 0.0
C675 C 0.0421 0.09023 0.58847 0.0
C676 C 0.0554 0.10399 0.57436 0.0
H677 H 0.13367 0.13894 0.46734 0.0
H678 H 0.11483 0.12071 0.51759 0.0
H679 H 0.06306 0.13453 0.4916 0.0
H680 H 0.02416 0.05034 0.55165 0.0
H681 H 0.04113 0.0765 0.52401 0.0
C682 C 0.36416 0.00666 0.44964 0.0
C683 C 0.35956 0.02193 0.42562 0.0
C684 C 0.37541 0.00825 0.48673 0.0
C685 C 0.41302 0.03617 0.52007 0.0
H686 H 0.41489 0.99958 0.61185 0.0
C687 C 0.47467 0.99808 0.55436 0.0
C688 C 0.47651 0.98849 0.59453 0.0
C689 C 0.46034 0.00904 0.54818 0.0
C690 C 0.41466 0.0103 0.58745 0.0
H691 H 0.36179 0.05094 0.42342 0.0
H692 H 0.38173 0.05378 0.48853 0.0
H693 H 0.38682 0.00633 0.57822 0.0
H694 H 0.4655 0.98406 0.66117 0.0
H695 H 0.44115 0.00378 0.65129 0.0
H696 H 0.44097 0.03978 0.52833 0.0
C697 C 0.37667 0.04058 0.47851 0.0
C698 C 0.39849 0.01403 0.56782 0.0
C699 C 0.36523 0.03897 0.44146 0.0
C700 C 0.46445 0.99112 0.62962 0.0
C701 C 0.45038 0.00239 0.62385 0.0
C702 C 0.42921 0.03261 0.54012 0.0
C703 C 0.3824 0.02516 0.50042 0.0
C704 C 0.39771 0.02605 0.53171 0.0
C705 C 0.44764 0.01082 0.58231 0.0
C706 C 0.43038 0.01873 0.57177 0.0
H707 H 0.35977 0.99339 0.43828 0.0
H708 H 0.37967 0.99606 0.50242 0.0
H709 H 0.41288 0.04564 0.49254 0.0
H710 H 0.4838 0.99639 0.52681 0.0
H711 H 0.45866 0.01513 0.51549 0.0
C712 C 0.44507 0.32597 0.42582 0.0
C713 C 0.4559 0.31255 0.409 0.0
C714 C 0.45233 0.3401 0.45176 0.0
C715 C 0.48604 0.35955 0.52115 0.0
H716 H 0.49228 0.39775 0.43372 0.0
C717 C 0.52523 0.42462 0.56748 0.0
C718 C 0.51825 0.44064 0.55195 0.0
C719 C 0.51914 0.4081 0.54983 0.0
C720 C 0.49045 0.38742 0.45891 0.0
H721 H 0.48238 0.30234 0.41175 0.0
H722 H 0.49464 0.32655 0.45867 0.0
H723 H 0.47628 0.37009 0.41254 0.0
H724 H 0.50015 0.45196 0.50391 0.0
H725 H 0.48913 0.42345 0.47463 0.0
H726 H 0.49954 0.37699 0.56828 0.0
C727 C 0.48067 0.32623 0.45075 0.0
C728 C 0.48133 0.37157 0.44663 0.0
C729 C 0.47354 0.3123 0.42402 0.0
C730 C 0.50596 0.43989 0.51638 0.0
C731 C 0.49961 0.42341 0.49949 0.0
C732 C 0.49487 0.37561 0.53389 0.0
C733 C 0.47035 0.34067 0.46255 0.0
C734 C 0.47906 0.35759 0.47762 0.0
C735 C 0.5057 0.40726 0.51693 0.0
C736 C 0.49719 0.38977 0.50288 0.0
H737 H 0.43132 0.32633 0.41607 0.0
H738 H 0.44417 0.35116 0.46084 0.0
H739 H 0.48451 0.34877 0.54531 0.0
H740 H 0.53479 0.4248 0.59472 0.0
H741 H 0.52456 0.39598 0.56312 0.0
C742 C 0.16546 0.5488 0.39643 0.0
C743 C 0.16771 0.53039 0.3892 0.0
C744 C 0.1523 0.55451 0.42529 0.0
C745 C 0.12211 0.54198 0.5156 0.0
H746 H 0.0854 0.56372 0.44506 0.0
C747 C 0.04726 0.53038 0.52418 0.0
C748 C 0.04339 0.53612 0.5679 0.0
C749 C 0.06228 0.53728 0.50238 0.0
C750 C 0.09571 0.55813 0.46542 0.0
H751 H 0.15905 0.50356 0.40869 0.0
H752 H 0.13626 0.51359 0.4603 0.0
H753 H 0.11478 0.56039 0.41252 0.0
H754 H 0.0511 0.55422 0.62226 0.0
H755 H 0.07777 0.56598 0.58449 0.0
H756 H 0.10283 0.53901 0.56776 0.0
C757 C 0.14459 0.52354 0.44333 0.0
C758 C 0.11245 0.55623 0.44697 0.0
C759 C 0.15751 0.5178 0.41376 0.0
C760 C 0.05375 0.54993 0.5881 0.0
C761 C 0.06898 0.55656 0.56671 0.0
C762 C 0.10552 0.54429 0.53443 0.0
C763 C 0.1415 0.5419 0.44799 0.0
C764 C 0.12551 0.5475 0.47132 0.0
C765 C 0.07375 0.54963 0.52467 0.0
C766 C 0.09205 0.55177 0.50884 0.0
H767 H 0.1731 0.55873 0.37755 0.0
H768 H 0.15006 0.56872 0.42843 0.0
H769 H 0.13199 0.53513 0.53475 0.0
H770 H 0.0396 0.51943 0.50863 0.0
H771 H 0.06588 0.53157 0.47021 0.0
C772 C 0.01495 0.82818 0.96158 0.0
C773 C 0.99726 0.83057 0.97359 0.0
C774 C 0.024 0.84088 0.93511 0.0
C775 C 0.03858 0.86877 0.86727 0.0
H776 H 0.02927 0.91683 0.90912 0.0
C777 C 0.05001 0.93293 0.7667 0.0
C778 C 0.05243 0.94927 0.78982 0.0
C779 C 0.04954 0.91681 0.79018 0.0
C780 C 0.03237 0.9035 0.8977 0.0
H781 H 0.97464 0.84699 0.96324 0.0
H782 H 0.99043 0.86914 0.91665 0.0
H783 H 0.01372 0.89129 0.94283 0.0
H784 H 0.05817 0.96182 0.85431 0.0
H785 H 0.05738 0.93348 0.89593 0.0
H786 H 0.05706 0.88119 0.82145 0.0
C787 C 0.9974 0.85768 0.9287 0.0
C788 C 0.02315 0.88889 0.91635 0.0
C789 C 0.98835 0.84499 0.95514 0.0
C790 C 0.05637 0.94929 0.83594 0.0
C791 C 0.05576 0.93311 0.85966 0.0
C792 C 0.04778 0.88348 0.84833 0.0
C793 C 0.01552 0.85618 0.92031 0.0
C794 C 0.02584 0.87142 0.90065 0.0
C795 C 0.05122 0.91686 0.8373 0.0
C796 C 0.04451 0.90103 0.86281 0.0
H797 H 0.02223 0.81728 0.97557 0.0
H798 H 0.03795 0.83938 0.92908 0.0
H799 H 0.04101 0.85542 0.85486 0.0
H800 H 0.04692 0.93272 0.731 0.0
H801 H 0.04597 0.90459 0.77193 0.0
C802 C 0.6689 0.99904 0.91049 0.0
C803 C 0.68264 0.00972 0.92958 0.0
C804 C 0.65788 0.00614 0.87786 0.0
C805 C 0.63747 0.04709 0.85997 0.0
H806 H 0.61754 0.02397 0.75313 0.0
C807 C 0.57331 0.04641 0.73343 0.0
C808 C 0.56091 0.03818 0.76241 0.0
C809 C 0.59048 0.05036 0.74852 0.0
C810 C 0.62323 0.03086 0.78229 0.0
H811 H 0.69648 0.03567 0.92745 0.0
H812 H 0.67687 0.04822 0.87109 0.0
H813 H 0.64544 0.0139 0.78402 0.0
H814 H 0.55586 0.02932 0.8305 0.0
H815 H 0.58569 0.03704 0.85767 0.0
H816 H 0.61429 0.06274 0.86087 0.0
C817 C 0.6748 0.03434 0.88104 0.0
C818 C 0.6391 0.02504 0.79997 0.0
C819 C 0.68602 0.02714 0.91308 0.0
C820 C 0.56512 0.03608 0.80801 0.0
C821 C 0.5822 0.04039 0.82337 0.0
C822 C 0.62138 0.0526 0.84291 0.0
C823 C 0.66029 0.0241 0.86446 0.0
C824 C 0.64604 0.03275 0.83972 0.0
C825 C 0.59525 0.04641 0.79294 0.0
C826 C 0.61392 0.04416 0.80471 0.0
H827 H 0.66611 0.98555 0.92257 0.0
H828 H 0.64668 0.99803 0.86572 0.0
H829 H 0.64251 0.05307 0.89101 0.0
H830 H 0.57037 0.04774 0.69786 0.0
H831 H 0.6004 0.05489 0.72453 0.0
C832 C 0.54548 0.66719 0.90156 0.0
C833 C 0.56293 0.66311 0.91252 0.0
C834 C 0.53523 0.6556 0.87425 0.0
C835 C 0.5162 0.62852 0.8112 0.0
H836 H 0.52438 0.58009 0.85094 0.0
C837 C 0.4925 0.56419 0.72124 0.0
C838 C 0.49161 0.54826 0.7461 0.0
C839 C 0.4955 0.5806 0.74301 0.0
C840 C 0.5216 0.59355 0.84022 0.0
H841 H 0.58411 0.64524 0.89884 0.0
H842 H 0.56635 0.6252 0.84995 0.0
H843 H 0.54343 0.60455 0.87781 0.0
H844 H 0.49076 0.53682 0.81281 0.0
H845 H 0.49545 0.56567 0.85148 0.0
H846 H 0.49418 0.61727 0.77369 0.0
C847 C 0.56041 0.637 0.86373 0.0
C848 C 0.53285 0.60755 0.85471 0.0
C849 C 0.57061 0.64849 0.89138 0.0
C850 C 0.4913 0.54903 0.79318 0.0
C851 C 0.49421 0.5655 0.81511 0.0
C852 C 0.50485 0.61441 0.79658 0.0
C853 C 0.54232 0.63982 0.85738 0.0
C854 C 0.53048 0.62514 0.83989 0.0
C855 C 0.49775 0.58121 0.78998 0.0
C856 C 0.50756 0.59674 0.81067 0.0
H857 H 0.5392 0.67835 0.91758 0.0
H858 H 0.52137 0.65816 0.86987 0.0
H859 H 0.51398 0.64198 0.79952 0.0
H860 H 0.49288 0.56376 0.68474 0.0
H861 H 0.49812 0.59239 0.72259 0.0
C862 C 0.84093 0.49748 0.87028 0.0
C863 C 0.83968 0.47953 0.88447 0.0
C864 C 0.85131 0.5023 0.83319 0.0
C865 C 0.87914 0.48517 0.74119 0.0
H866 H 0.91668 0.51197 0.8034 0.0
C867 C 0.95016 0.46579 0.72969 0.0
C868 C 0.96382 0.47761 0.74422 0.0
C869 C 0.93284 0.47148 0.72744 0.0
C870 C 0.90636 0.50499 0.78418 0.0
H871 H 0.84647 0.45232 0.86848 0.0
H872 H 0.86449 0.46066 0.8034 0.0
H873 H 0.8871 0.51232 0.83231 0.0
H874 H 0.97049 0.50527 0.76258 0.0
H875 H 0.94055 0.51538 0.75699 0.0
H876 H 0.89863 0.47726 0.69394 0.0
C877 C 0.85751 0.47103 0.82079 0.0
C878 C 0.88927 0.50521 0.801 0.0
C879 C 0.84738 0.46625 0.8583 0.0
C880 C 0.96012 0.49564 0.75278 0.0
C881 C 0.94292 0.50146 0.74943 0.0
C882 C 0.89623 0.48525 0.72368 0.0
C883 C 0.86035 0.48918 0.80945 0.0
C884 C 0.8758 0.49429 0.78155 0.0
C885 C 0.9289 0.48926 0.73881 0.0
C886 C 0.91029 0.49405 0.74704 0.0
H887 H 0.83511 0.50796 0.89005 0.0
H888 H 0.85336 0.51637 0.82517 0.0
H889 H 0.86886 0.47685 0.72526 0.0
H890 H 0.95274 0.45191 0.72205 0.0
H891 H 0.9225 0.46157 0.71946 0.0
C892 C 0.06561 0.15509 0.06978 0.0
C893 C 0.07989 0.16734 0.06344 0.0
C894 C 0.06294 0.14039 0.04086 0.0
C895 C 0.07616 0.12193 0.92922 0.0
H896 H 0.05656 0.07768 0.97966 0.0
C897 C 0.06907 0.05474 0.82866 0.0
C898 C 0.05181 0.04716 0.82858 0.0
C899 C 0.07377 0.06886 0.85825 0.0
C900 C 0.06205 0.08995 0.96515 0.0
H901 H 0.10253 0.17388 0.02167 0.0
H902 H 0.09824 0.14791 0.97175 0.0
H903 H 0.06234 0.10355 0.02863 0.0
H904 H 0.02618 0.04793 0.86051 0.0
H905 H 0.03456 0.0721 0.91298 0.0
H906 H 0.07613 0.10797 0.86579 0.0
C907 C 0.08881 0.14984 0.99845 0.0
C908 C 0.06524 0.10488 0.9931 0.0
C909 C 0.09133 0.16472 0.0271 0.0
C910 C 0.03958 0.0535 0.85978 0.0
C911 C 0.04438 0.0673 0.88989 0.0
C912 C 0.07322 0.10688 0.9014 0.0
C913 C 0.07465 0.13736 0.00515 0.0
C914 C 0.07207 0.1212 0.97546 0.0
C915 C 0.06141 0.07534 0.88894 0.0
C916 C 0.06591 0.09082 0.919 0.0
H917 H 0.05644 0.15691 0.09717 0.0
H918 H 0.0516 0.13145 0.04653 0.0
H919 H 0.0812 0.13426 0.91413 0.0
H920 H 0.07872 0.05023 0.80474 0.0
H921 H 0.08701 0.0748 0.85701 0.0
C922 C 0.34824 0.98876 0.98133 0.0
C923 C 0.34427 0.00426 0.0058 0.0
C924 C 0.36301 0.98867 0.95319 0.0
C925 C 0.40606 0.01257 0.93408 0.0
H926 H 0.40399 0.9877 0.81908 0.0
C927 C 0.46278 0.01714 0.80298 0.0
C928 C 0.4669 0.00109 0.78104 0.0
C929 C 0.44793 0.01781 0.83083 0.0
C930 C 0.40484 0.99457 0.8513 0.0
H931 H 0.35234 0.03204 0.01849 0.0
H932 H 0.37797 0.03192 0.96928 0.0
H933 H 0.37768 0.98834 0.86587 0.0
H934 H 0.45868 0.97309 0.77179 0.0
H935 H 0.433 0.9743 0.82022 0.0
H936 H 0.43325 0.01881 0.91933 0.0
C937 C 0.36991 0.0197 0.97254 0.0
C938 C 0.38975 0.99492 0.87816 0.0
C939 C 0.35518 0.01978 0.00066 0.0
C940 C 0.45593 0.98572 0.78799 0.0
C941 C 0.4411 0.98642 0.81557 0.0
C942 C 0.42116 0.01225 0.90714 0.0
C943 C 0.37413 0.0041 0.94878 0.0
C944 C 0.39017 0.00388 0.91995 0.0
C945 C 0.43683 0.00249 0.83709 0.0
C946 C 0.42074 0.00318 0.8655 0.0
H947 H 0.34026 0.97651 0.98501 0.0
H948 H 0.36597 0.97635 0.93582 0.0
H949 H 0.40695 0.01936 0.96639 0.0
H950 H 0.47092 0.02923 0.7984 0.0
H951 H 0.44494 0.03044 0.84672 0.0
C952 C 0.47889 0.33888 0.99823 0.0
C953 C 0.46364 0.32766 0.99499 0.0
C954 C 0.4805 0.35455 0.97277 0.0
C955 C 0.46194 0.37667 0.87189 0.0
H956 H 0.48851 0.41803 0.91958 0.0
C957 C 0.47116 0.44411 0.77525 0.0
C958 C 0.48898 0.44957 0.77021 0.0
C959 C 0.46635 0.43033 0.80528 0.0
C960 C 0.48101 0.40658 0.90592 0.0
H961 H 0.43797 0.32422 0.96323 0.0
H962 H 0.44051 0.35187 0.91963 0.0
H963 H 0.48312 0.39184 0.96713 0.0
H964 H 0.51561 0.44545 0.79397 0.0
H965 H 0.50716 0.42183 0.84693 0.0
H966 H 0.45978 0.39167 0.81073 0.0
C967 C 0.45146 0.34836 0.94095 0.0
C968 C 0.47803 0.3915 0.93299 0.0
C969 C 0.44995 0.33254 0.96603 0.0
C970 C 0.50178 0.44148 0.79692 0.0
C971 C 0.49694 0.42802 0.82745 0.0
C972 C 0.46472 0.39189 0.84504 0.0
C973 C 0.4668 0.35956 0.9438 0.0
C974 C 0.46876 0.37617 0.91608 0.0
C975 C 0.47923 0.42211 0.83147 0.0
C976 C 0.47456 0.40685 0.86153 0.0
H977 H 0.48976 0.33532 0.0198 0.0
H978 H 0.49269 0.36254 0.9752 0.0
H979 H 0.45496 0.36509 0.85735 0.0
H980 H 0.46103 0.45006 0.75498 0.0
H981 H 0.45259 0.42603 0.8079 0.0
C982 C 0.19343 0.51067 0.94482 0.0
C983 C 0.19213 0.51696 0.98934 0.0
C984 C 0.17847 0.50953 0.9169 0.0
C985 C 0.13029 0.5043 0.92598 0.0
H986 H 0.12984 0.5163 0.7991 0.0
C987 C 0.06582 0.50206 0.82222 0.0
C988 C 0.06647 0.49606 0.77731 0.0
C989 C 0.08133 0.50507 0.84716 0.0
C990 C 0.1298 0.51266 0.83437 0.0
H991 H 0.17454 0.52833 0.03831 0.0
H992 H 0.14855 0.52638 0.98978 0.0
H993 H 0.15685 0.52153 0.84323 0.0
H994 H 0.08398 0.48819 0.7237 0.0
H995 H 0.11099 0.49291 0.76764 0.0
H996 H 0.10346 0.49514 0.91735 0.0
C997 C 0.16097 0.52189 0.97674 0.0
C998 C 0.14527 0.51572 0.85963 0.0
C999 C 0.17585 0.52302 0.0045 0.0
C1000 C 0.08299 0.49285 0.75819 0.0
C1001 C 0.09851 0.49572 0.78328 0.0
C1002 C 0.11491 0.50114 0.90075 0.0
C1003 C 0.16198 0.51468 0.93306 0.0
C1004 C 0.14565 0.51163 0.90577 0.0
C1005 C 0.09789 0.502 0.82799 0.0
C1006 C 0.11441 0.50531 0.85463 0.0
H1007 H 0.20581 0.50588 0.93229 0.0
H1008 H 0.17965 0.50388 0.88341 0.0
H1009 H 0.13025 0.50068 0.96128 0.0
H1010 H 0.05334 0.50489 0.83786 0.0
H1011 H 0.08033 0.51019 0.88122 0.0
C1012 C 0.98027 0.83666 0.37994 0.0
C1013 C 0.99361 0.82407 0.38143 0.0
C1014 C 0.9817 0.85246 0.40537 0.0
C1015 C 0.00406 0.8731 0.50432 0.0
H1016 H 0.99109 0.91776 0.44892 0.0
C1017 C 0.99833 0.93776 0.60846 0.0
C1018 C 0.00611 0.95362 0.5907 0.0
C1019 C 0.9962 0.92232 0.58191 0.0
C1020 C 0.99485 0.90542 0.46478 0.0
H1021 H 0.01886 0.81821 0.41142 0.0
H1022 H 0.02126 0.84573 0.45631 0.0
H1023 H 0.98913 0.88991 0.40522 0.0
H1024 H 0.01707 0.96578 0.53024 0.0
H1025 H 0.01322 0.93876 0.4837 0.0
H1026 H 0.00999 0.8886 0.56369 0.0
C1027 C 0.00964 0.84329 0.43552 0.0
C1028 C 0.99356 0.88944 0.43991 0.0
C1029 C 0.00824 0.82749 0.40989 0.0
C1030 C 0.01098 0.95385 0.545 0.0
C1031 C 0.00878 0.93835 0.51833 0.0
C1032 C 0.00527 0.88906 0.52924 0.0
C1033 C 0.99647 0.85605 0.43318 0.0
C1034 C 0.9981 0.87308 0.45944 0.0
C1035 C 0.00172 0.9223 0.53681 0.0
C1036 C 0.0006 0.9054 0.50986 0.0
H1037 H 0.96865 0.83431 0.35906 0.0
H1038 H 0.97116 0.86183 0.40349 0.0
H1039 H 0.00755 0.86073 0.52046 0.0
H1040 H 0.99432 0.93705 0.64341 0.0
H1041 H 0.99038 0.9103 0.59694 0.0
C1042 C 0.70071 0.00391 0.393 0.0
C1043 C 0.69867 0.9989 0.34748 0.0
C1044 C 0.68632 0.0027 0.42249 0.0
C1045 C 0.64141 0.98113 0.43381 0.0
H1046 H 0.63439 0.01902 0.52108 0.0
C1047 C 0.575 0.99123 0.52388 0.0
C1048 C 0.57581 0.99359 0.57085 0.0
C1049 C 0.59049 0.99129 0.49838 0.0
C1050 C 0.63628 0.00827 0.49709 0.0
H1051 H 0.68001 0.9882 0.29771 0.0
H1052 H 0.655 0.98661 0.34835 0.0
H1053 H 0.66072 0.02011 0.47378 0.0
H1054 H 0.59348 0.99816 0.62781 0.0
H1055 H 0.62047 0.99864 0.58303 0.0
H1056 H 0.61668 0.96962 0.4563 0.0
C1057 C 0.66768 0.99128 0.36167 0.0
C1058 C 0.6514 0.00884 0.47012 0.0
C1059 C 0.68201 0.99245 0.33237 0.0
C1060 C 0.59242 0.99618 0.59171 0.0
C1061 C 0.60786 0.99657 0.5661 0.0
C1062 C 0.62623 0.98069 0.46036 0.0
C1063 C 0.6696 0.9964 0.40713 0.0
C1064 C 0.65407 0.99535 0.43781 0.0
C1065 C 0.60706 0.99405 0.51922 0.0
C1066 C 0.62344 0.99431 0.49203 0.0
H1067 H 0.71335 0.00901 0.40565 0.0
H1068 H 0.68834 0.0066 0.45738 0.0
H1069 H 0.64319 0.97028 0.41006 0.0
H1070 H 0.56242 0.9892 0.50686 0.0
H1071 H 0.58949 0.98944 0.46222 0.0
C1072 C 0.55118 0.672 0.36995 0.0
C1073 C 0.56138 0.67096 0.33058 0.0
C1074 C 0.5489 0.65707 0.39809 0.0
C1075 C 0.54689 0.60859 0.39493 0.0
H1076 H 0.55801 0.61014 0.52242 0.0
C1077 C 0.54175 0.54433 0.50287 0.0
C1078 C 0.53661 0.5461 0.54796 0.0
C1079 C 0.54581 0.55959 0.47699 0.0
C1080 C 0.55451 0.60946 0.48706 0.0
H1081 H 0.57797 0.65362 0.29151 0.0
H1082 H 0.57342 0.62753 0.33968 0.0
H1083 H 0.5623 0.63714 0.47722 0.0
H1084 H 0.53129 0.56519 0.60109 0.0
H1085 H 0.53732 0.59159 0.5558 0.0
H1086 H 0.53834 0.5813 0.40447 0.0
C1087 C 0.56712 0.63986 0.34846 0.0
C1088 C 0.55709 0.62496 0.4612 0.0
C1089 C 0.56963 0.6548 0.32081 0.0
C1090 C 0.53553 0.56337 0.5666 0.0
C1091 C 0.53911 0.57858 0.54054 0.0
C1092 C 0.54392 0.5932 0.42089 0.0
C1093 C 0.55661 0.6408 0.38704 0.0
C1094 C 0.55341 0.62461 0.41489 0.0
C1095 C 0.54433 0.57697 0.4953 0.0
C1096 C 0.54775 0.59336 0.46736 0.0
H1097 H 0.5445 0.68415 0.37833 0.0
H1098 H 0.54068 0.65806 0.42769 0.0
H1099 H 0.54381 0.60807 0.35925 0.0
H1100 H 0.54273 0.53116 0.48773 0.0
H1101 H 0.55012 0.5577 0.44264 0.0
C1102 C 0.84131 0.50009 0.34873 0.0
C1103 C 0.83769 0.48348 0.32736 0.0
C1104 C 0.85526 0.5022 0.37958 0.0
C1105 C 0.89662 0.48093 0.41575 0.0
H1106 H 0.89184 0.51052 0.52254 0.0
C1107 C 0.94538 0.47872 0.56425 0.0
C1108 C 0.95232 0.49525 0.58078 0.0
C1109 C 0.93121 0.47806 0.53401 0.0
C1110 C 0.8934 0.50234 0.49266 0.0
H1111 H 0.84568 0.45596 0.32238 0.0
H1112 H 0.86974 0.45947 0.37672 0.0
H1113 H 0.8675 0.50769 0.46837 0.0
H1114 H 0.94923 0.52404 0.57967 0.0
H1115 H 0.92415 0.5228 0.52721 0.0
H1116 H 0.92235 0.47527 0.44066 0.0
C1117 C 0.86211 0.47105 0.36892 0.0
C1118 C 0.87948 0.50074 0.4615 0.0
C1119 C 0.84825 0.46899 0.33785 0.0
C1120 C 0.94428 0.51109 0.56746 0.0
C1121 C 0.92989 0.51039 0.53755 0.0
C1122 C 0.91041 0.48238 0.44707 0.0
C1123 C 0.86589 0.48771 0.39005 0.0
C1124 C 0.88085 0.48989 0.42276 0.0
C1125 C 0.92343 0.49387 0.5199 0.0
C1126 C 0.90892 0.49299 0.48603 0.0
H1127 H 0.83358 0.5116 0.34086 0.0
H1128 H 0.85791 0.51529 0.39455 0.0
H1129 H 0.89837 0.47281 0.38586 0.0
H1130 H 0.95117 0.46622 0.57378 0.0
H1131 H 0.92636 0.46511 0.5215 0.0
loop_
_geom_bond_atom_site_label_1
_geom_bond_atom_site_label_2
_geom_bond_distance
_geom_bond_site_symmetry_2
_ccdc_geom_bond_type
C0 C1 1.264 . S
C0 C5 1.479 . S
C0 C10 1.465 . S
C1 C0 1.264 . S
C1 C3 1.339 . S
C1 H28 0.931 . S
C2 C3 1.395 . S
C2 C4 1.320 . S
C3 C1 1.339 . S
C3 C2 1.395 . S
C3 H29 0.929 . S
C4 C2 1.320 . S
C4 C5 1.405 . S
C4 H30 0.930 . S
C5 C0 1.479 . S
C5 C4 1.405 . S
C5 H31 0.931 . S
U6 O7 2.454 . S
U6 O8 2.458 1_554 S
U6 C9 2.984 . S
U6 C10 2.847 . S
U6 C23 2.882 1_554 S
U6 O24 2.441 . S
U6 O25 2.420 . S
U6 O26 2.455 1_554 S
U6 O27 2.449 . S
O7 U6 2.454 . S
O7 C9 1.353 . S
O8 U6 2.458 1_556 S
O8 C9 1.286 1_556 S
C9 U6 2.984 . S
C9 O7 1.353 . S
C9 O8 1.286 1_554 S
C9 C11 1.363 . S
C10 C0 1.465 . S
C10 U6 2.847 . S
C10 O24 1.249 . S
C10 O25 1.202 . S
C11 C9 1.363 . S
C11 C13 1.408 . S
C11 C16 1.342 1_554 S
C12 C13 1.310 . S
C12 C15 1.461 1_554 S
C12 H32 0.932 . S
C13 C11 1.408 . S
C13 C12 1.310 . S
C13 H33 0.930 . S
C14 C15 1.474 . S
C14 C16 1.285 . S
C14 H34 0.929 . S
C15 C12 1.461 1_556 S
C15 C14 1.474 . S
C16 C11 1.342 1_556 S
C16 C14 1.285 . S
C16 H35 0.930 . S
C17 C20 1.424 . S
C17 C22 1.245 . S
C17 C23 1.428 . S
C18 C21 1.260 . S
C18 C22 1.477 . S
C18 H36 0.932 . S
C19 C20 1.384 . S
C19 C21 1.479 . S
C19 H37 0.929 . S
C20 C17 1.424 . S
C20 C19 1.384 . S
C20 H38 0.928 . S
C21 C18 1.260 . S
C21 C19 1.479 . S
C22 C17 1.245 . S
C22 C18 1.477 . S
C22 H39 0.932 . S
C23 U6 2.882 1_556 S
C23 C17 1.428 . S
C23 O26 1.301 . S
C23 O27 1.282 1_556 S
O24 U6 2.441 . S
O24 C10 1.249 . S
O25 U6 2.420 . S
O25 C10 1.202 . S
O26 U6 2.455 1_556 S
O26 C23 1.301 . S
O27 U6 2.449 . S
O27 C23 1.282 1_554 S
H28 C1 0.931 . S
H29 C3 0.929 . S
H30 C4 0.930 . S
H31 C5 0.931 . S
H32 C12 0.932 . S
H33 C13 0.930 . S
H34 C14 0.929 . S
H35 C16 0.930 . S
H36 C18 0.932 . S
H37 C19 0.929 . S
H38 C20 0.928 . S
H39 C22 0.932 . S
C40 C41 1.264 . S
C40 C45 1.481 . S
C40 C50 1.465 . S
C41 C40 1.264 . S
C41 C43 1.339 . S
C41 H68 0.931 . S
C42 C43 1.395 1_655 S
C42 C44 1.320 . S
C43 C41 1.339 . S
C43 C42 1.395 1_455 S
C43 H69 0.929 . S
C44 C42 1.320 . S
C44 C45 1.401 1_655 S
C44 H70 0.930 . S
C45 C40 1.481 . S
C45 C44 1.401 1_455 S
C45 H71 0.928 . S
U46 O47 2.454 1_455 S
U46 O48 2.449 1_455 S
U46 C49 2.984 1_455 S
U46 C50 2.847 . S
U46 C63 2.882 . S
U46 O64 2.441 . S
U46 O65 2.420 . S
U46 O66 2.455 . S
U46 O67 2.449 . S
O47 U46 2.454 1_655 S
O47 C49 1.353 . S
O48 U46 2.449 1_655 S
O48 C49 1.290 . S
C49 U46 2.984 1_655 S
C49 O47 1.353 . S
C49 O48 1.290 . S
C49 C51 1.363 . S
C50 C40 1.465 . S
C50 U46 2.847 . S
C50 O64 1.249 . S
C50 O65 1.202 . S
C51 C49 1.363 . S
C51 C53 1.408 . S
C51 C56 1.342 . S
C52 C53 1.310 . S
C52 C55 1.461 . S
C52 H72 0.932 . S
C53 C51 1.408 . S
C53 C52 1.310 . S
C53 H73 0.930 . S
C54 C55 1.474 . S
C54 C56 1.285 . S
C54 H74 0.929 1_554 S
C55 C52 1.461 . S
C55 C54 1.474 . S
C56 C51 1.342 . S
C56 C54 1.285 . S
C56 H75 0.930 . S
C57 C60 1.424 . S
C57 C62 1.245 1_554 S
C57 C63 1.428 . S
C58 C61 1.252 1_455 S
C58 C62 1.477 . S
C58 H76 0.932 . S
C59 C60 1.384 1_556 S
C59 C61 1.474 1_455 S
C59 H77 0.929 1_556 S
C60 C57 1.424 . S
C60 C59 1.384 1_554 S
C60 H78 0.928 . S
C61 C58 1.252 1_655 S
C61 C59 1.474 1_655 S
C62 C57 1.245 1_556 S
C62 C58 1.477 . S
C62 H79 0.932 . S
C63 U46 2.882 . S
C63 C57 1.428 . S
C63 O66 1.301 . S
C63 O67 1.282 . S
O64 U46 2.441 . S
O64 C50 1.249 . S
O65 U46 2.420 . S
O65 C50 1.202 . S
O66 U46 2.455 . S
O66 C63 1.301 . S
O67 U46 2.449 . S
O67 C63 1.282 . S
H68 C41 0.931 . S
H69 C43 0.929 . S
H70 C44 0.930 . S
H71 C45 0.928 . S
H72 C52 0.932 . S
H73 C53 0.930 . S
H74 C54 0.929 1_556 S
H75 C56 0.930 . S
H76 C58 0.932 . S
H77 C59 0.929 1_554 S
H78 C60 0.928 . S
H79 C62 0.932 . S
C80 C81 1.264 . S
C80 C85 1.479 . S
C80 C90 1.465 . S
C81 C80 1.264 . S
C81 C83 1.339 . S
C81 H108 0.931 . S
C82 C83 1.395 . S
C82 C84 1.320 . S
C83 C81 1.339 . S
C83 C82 1.395 . S
C83 H109 0.929 . S
C84 C82 1.320 . S
C84 C85 1.405 . S
C84 H110 0.920 1_545 S
C85 C80 1.479 . S
C85 C84 1.405 . S
C85 H111 0.931 . S
U86 O87 2.454 . S
U86 O88 2.458 . S
U86 C89 2.984 . S
U86 C90 2.847 . S
U86 C103 2.882 . S
U86 O104 2.441 . S
U86 O105 2.420 . S
U86 O106 2.455 1_554 S
U86 O107 2.449 . S
O87 U86 2.454 . S
O87 C89 1.353 . S
O88 U86 2.458 . S
O88 C89 1.286 . S
C89 U86 2.984 . S
C89 O87 1.353 . S
C89 O88 1.286 . S
C89 C91 1.363 . S
C90 C80 1.465 . S
C90 U86 2.847 . S
C90 O104 1.249 . S
C90 O105 1.202 . S
C91 C89 1.363 . S
C91 C93 1.408 . S
C91 C96 1.351 1_554 S
C92 C93 1.310 . S
C92 C95 1.460 1_545 S
C92 H112 0.935 . S
C93 C91 1.408 . S
C93 C92 1.310 . S
C93 H113 0.930 . S
C94 C95 1.475 1_556 S
C94 C96 1.278 1_565 S
C94 H114 0.933 . S
C95 C92 1.460 1_565 S
C95 C94 1.475 1_554 S
C96 C91 1.351 1_556 S
C96 C94 1.278 1_545 S
C96 H115 0.930 . S
C97 C100 1.424 . S
C97 C102 1.245 . S
C97 C103 1.428 1_556 S
C98 C101 1.260 . S
C98 C102 1.477 . S
C98 H116 0.932 . S
C99 C100 1.384 . S
C99 C101 1.479 . S
C99 H117 0.929 . S
C100 C97 1.424 . S
C100 C99 1.384 . S
C100 H118 0.928 1_556 S
C101 C98 1.260 . S
C101 C99 1.479 . S
C102 C97 1.245 . S
C102 C98 1.477 . S
C102 H119 0.932 . S
C103 U86 2.882 . S
C103 C97 1.428 1_554 S
C103 O106 1.301 1_554 S
C103 O107 1.282 . S
O104 U86 2.441 . S
O104 C90 1.249 . S
O105 U86 2.420 . S
O105 C90 1.202 . S
O106 U86 2.455 1_556 S
O106 C103 1.301 1_556 S
O107 U86 2.449 . S
O107 C103 1.282 . S
H108 C81 0.931 . S
H109 C83 0.929 . S
H110 C84 0.920 1_565 S
H111 C85 0.931 . S
H112 C92 0.935 . S
H113 C93 0.930 . S
H114 C94 0.933 . S
H115 C96 0.930 . S
H116 C98 0.932 . S
H117 C99 0.929 . S
H118 C100 0.928 1_554 S
H119 C102 0.932 . S
C120 C121 1.264 . S
C120 C125 1.479 . S
C120 C130 1.465 . S
C121 C120 1.264 . S
C121 C123 1.339 . S
C121 H148 0.931 . S
C122 C123 1.395 . S
C122 C124 1.320 . S
C123 C121 1.339 . S
C123 C122 1.395 . S
C123 H149 0.929 . S
C124 C122 1.320 . S
C124 C125 1.405 . S
C124 H150 0.930 . S
C125 C120 1.479 . S
C125 C124 1.405 . S
C125 H151 0.931 . S
U126 O127 2.454 . S
U126 O128 2.458 . S
U126 C129 2.984 . S
U126 C130 2.847 . S
U126 C143 2.882 1_554 S
U126 O144 2.441 . S
U126 O145 2.420 . S
U126 O146 2.455 1_554 S
U126 O147 2.449 . S
O127 U126 2.454 . S
O127 C129 1.353 . S
O128 U126 2.458 . S
O128 C129 1.286 . S
C129 U126 2.984 . S
C129 O127 1.353 . S
C129 O128 1.286 . S
C129 C131 1.363 . S
C130 C120 1.465 . S
C130 U126 2.847 . S
C130 O144 1.249 . S
C130 O145 1.202 . S
C131 C129 1.363 . S
C131 C133 1.408 . S
C131 C136 1.342 1_554 S
C132 C133 1.310 . S
C132 C135 1.461 1_554 S
C132 H152 0.932 . S
C133 C131 1.408 . S
C133 C132 1.310 . S
C133 H153 0.930 . S
C134 C135 1.474 . S
C134 C136 1.285 . S
C134 H154 0.929 . S
C135 C132 1.461 1_556 S
C135 C134 1.474 . S
C136 C131 1.342 1_556 S
C136 C134 1.285 . S
C136 H155 0.930 . S
C137 C140 1.424 . S
C137 C142 1.245 . S
C137 C143 1.428 . S
C138 C141 1.260 . S
C138 C142 1.477 . S
C138 H156 0.932 . S
C139 C140 1.384 . S
C139 C141 1.479 . S
C139 H157 0.929 . S
C140 C137 1.424 . S
C140 C139 1.384 . S
C140 H158 0.928 . S
C141 C138 1.260 . S
C141 C139 1.479 . S
C142 C137 1.245 . S
C142 C138 1.477 . S
C142 H159 0.932 . S
C143 U126 2.882 1_556 S
C143 C137 1.428 . S
C143 O146 1.301 . S
C143 O147 1.282 1_556 S
O144 U126 2.441 . S
O144 C130 1.249 . S
O145 U126 2.420 . S
O145 C130 1.202 . S
O146 U126 2.455 1_556 S
O146 C143 1.301 . S
O147 U126 2.449 . S
O147 C143 1.282 1_554 S
H148 C121 0.931 . S
H149 C123 0.929 . S
H150 C124 0.930 . S
H151 C125 0.931 . S
H152 C132 0.932 . S
H153 C133 0.930 . S
H154 C134 0.929 . S
H155 C136 0.930 . S
H156 C138 0.932 . S
H157 C139 0.929 . S
H158 C140 0.928 . S
H159 C142 0.932 . S
C160 C161 1.264 . S
C160 C165 1.479 . S
C160 C170 1.465 . S
C161 C160 1.264 . S
C161 C163 1.339 . S
C161 H188 0.931 . S
C162 C163 1.395 . S
C162 C164 1.320 . S
C163 C161 1.339 . S
C163 C162 1.395 . S
C163 H189 0.929 . S
C164 C162 1.320 . S
C164 C165 1.405 . S
C164 H190 0.930 . S
C165 C160 1.479 . S
C165 C164 1.405 . S
C165 H191 0.931 . S
U166 O167 2.454 . S
U166 O168 2.458 . S
U166 C169 2.984 . S
U166 C170 2.847 . S
U166 C183 2.882 . S
U166 O184 2.441 . S
U166 O185 2.420 . S
U166 O186 2.455 . S
U166 O187 2.449 . S
O167 U166 2.454 . S
O167 C169 1.353 . S
O168 U166 2.458 . S
O168 C169 1.286 . S
C169 U166 2.984 . S
C169 O167 1.353 . S
C169 O168 1.286 . S
C169 C171 1.363 . S
C170 C160 1.465 . S
C170 U166 2.847 . S
C170 O184 1.249 . S
C170 O185 1.202 . S
C171 C169 1.363 . S
C171 C173 1.408 . S
C171 C176 1.342 . S
C172 C173 1.310 . S
C172 C175 1.461 . S
C172 H192 0.932 . S
C173 C171 1.408 . S
C173 C172 1.310 . S
C173 H193 0.930 . S
C174 C175 1.474 . S
C174 C176 1.285 . S
C174 H194 0.929 . S
C175 C172 1.461 . S
C175 C174 1.474 . S
C176 C171 1.342 . S
C176 C174 1.285 . S
C176 H195 0.930 . S
C177 C180 1.424 . S
C177 C182 1.245 . S
C177 C183 1.428 . S
C178 C181 1.260 . S
C178 C182 1.477 . S
C178 H196 0.932 . S
C179 C180 1.384 . S
C179 C181 1.479 . S
C179 H197 0.929 . S
C180 C177 1.424 . S
C180 C179 1.384 . S
C180 H198 0.928 . S
C181 C178 1.260 . S
C181 C179 1.479 . S
C182 C177 1.245 . S
C182 C178 1.477 . S
C182 H199 0.932 . S
C183 U166 2.882 . S
C183 C177 1.428 . S
C183 O186 1.301 . S
C183 O187 1.282 . S
O184 U166 2.441 . S
O184 C170 1.249 . S
O185 U166 2.420 . S
O185 C170 1.202 . S
O186 U166 2.455 . S
O186 C183 1.301 . S
O187 U166 2.449 . S
O187 C183 1.282 . S
H188 C161 0.931 . S
H189 C163 0.929 . S
H190 C164 0.930 . S
H191 C165 0.931 . S
H192 C172 0.932 . S
H193 C173 0.930 . S
H194 C174 0.929 . S
H195 C176 0.930 . S
H196 C178 0.932 . S
H197 C179 0.929 . S
H198 C180 0.928 . S
H199 C182 0.932 . S
C200 C201 1.264 . S
C200 C205 1.479 . S
C200 C210 1.465 . S
C201 C200 1.264 . S
C201 C203 1.339 . S
C201 H228 0.931 . S
C202 C203 1.395 . S
C202 C204 1.320 . S
C203 C201 1.339 . S
C203 C202 1.395 . S
C203 H229 0.929 . S
C204 C202 1.320 . S
C204 C205 1.405 . S
C204 H230 0.930 . S
C205 C200 1.479 . S
C205 C204 1.405 . S
C205 H231 0.931 . S
U206 O207 2.454 . S
U206 O208 2.458 . S
U206 C209 2.984 . S
U206 C210 2.847 . S
U206 C223 2.882 . S
U206 O224 2.441 . S
U206 O225 2.420 . S
U206 O226 2.455 . S
U206 O227 2.449 . S
O207 U206 2.454 . S
O207 C209 1.353 . S
O208 U206 2.458 . S
O208 C209 1.286 . S
C209 U206 2.984 . S
C209 O207 1.353 . S
C209 O208 1.286 . S
C209 C211 1.363 . S
C210 C200 1.465 . S
C210 U206 2.847 . S
C210 O224 1.249 . S
C210 O225 1.202 . S
C211 C209 1.363 . S
C211 C213 1.408 . S
C211 C216 1.342 . S
C212 C213 1.310 . S
C212 C215 1.461 . S
C212 H232 0.932 . S
C213 C211 1.408 . S
C213 C212 1.310 . S
C213 H233 0.930 . S
C214 C215 1.474 . S
C214 C216 1.285 . S
C214 H234 0.929 . S
C215 C212 1.461 . S
C215 C214 1.474 . S
C216 C211 1.342 . S
C216 C214 1.285 . S
C216 H235 0.930 . S
C217 C220 1.424 . S
C217 C222 1.245 . S
C217 C223 1.428 . S
C218 C221 1.260 . S
C218 C222 1.477 . S
C218 H236 0.932 . S
C219 C220 1.384 . S
C219 C221 1.479 . S
C219 H237 0.929 . S
C220 C217 1.424 . S
C220 C219 1.384 . S
C220 H238 0.928 . S
C221 C218 1.260 . S
C221 C219 1.479 . S
C222 C217 1.245 . S
C222 C218 1.477 . S
C222 H239 0.932 . S
C223 U206 2.882 . S
C223 C217 1.428 . S
C223 O226 1.301 . S
C223 O227 1.282 . S
O224 U206 2.441 . S
O224 C210 1.249 . S
O225 U206 2.420 . S
O225 C210 1.202 . S
O226 U206 2.455 . S
O226 C223 1.301 . S
O227 U206 2.449 . S
O227 C223 1.282 . S
H228 C201 0.931 . S
H229 C203 0.929 . S
H230 C204 0.930 . S
H231 C205 0.931 . S
H232 C212 0.932 . S
H233 C213 0.930 . S
H234 C214 0.929 . S
H235 C216 0.930 . S
H236 C218 0.932 . S
H237 C219 0.929 . S
H238 C220 0.928 . S
H239 C222 0.932 . S
C240 C241 1.264 . S
C240 C245 1.479 . S
C240 C250 1.465 . S
C241 C240 1.264 . S
C241 C243 1.339 . S
C241 H268 0.931 . S
C242 C243 1.395 . S
C242 C244 1.320 . S
C243 C241 1.339 . S
C243 C242 1.395 . S
C243 H269 0.929 . S
C244 C242 1.320 . S
C244 C245 1.405 . S
C244 H270 0.924 1_545 S
C245 C240 1.479 . S
C245 C244 1.405 . S
C245 H271 0.931 . S
U246 O247 2.454 . S
U246 O248 2.458 . S
U246 C249 2.984 . S
U246 C250 2.847 . S
U246 C263 2.882 . S
U246 O264 2.441 . S
U246 O265 2.420 . S
U246 O266 2.455 . S
U246 O267 2.449 . S
O247 U246 2.454 . S
O247 C249 1.353 . S
O248 U246 2.458 . S
O248 C249 1.286 . S
C249 U246 2.984 . S
C249 O247 1.353 . S
C249 O248 1.286 . S
C249 C251 1.363 . S
C250 C240 1.465 . S
C250 U246 2.847 . S
C250 O264 1.249 . S
C250 O265 1.202 . S
C251 C249 1.363 . S
C251 C253 1.408 . S
C251 C256 1.342 . S
C252 C253 1.310 . S
C252 C255 1.460 . S
C252 H272 0.934 . S
C253 C251 1.408 . S
C253 C252 1.310 . S
C253 H273 0.930 . S
C254 C255 1.474 1_565 S
C254 C256 1.285 1_565 S
C254 H274 0.931 . S
C255 C252 1.460 . S
C255 C254 1.474 1_545 S
C256 C251 1.342 . S
C256 C254 1.285 1_545 S
C256 H275 0.934 . S
C257 C260 1.424 . S
C257 C262 1.245 . S
C257 C263 1.428 . S
C258 C261 1.260 . S
C258 C262 1.477 . S
C258 H276 0.932 . S
C259 C260 1.384 . S
C259 C261 1.479 . S
C259 H277 0.929 . S
C260 C257 1.424 . S
C260 C259 1.384 . S
C260 H278 0.928 . S
C261 C258 1.260 . S
C261 C259 1.479 . S
C262 C257 1.245 . S
C262 C258 1.477 . S
C262 H279 0.932 . S
C263 U246 2.882 . S
C263 C257 1.428 . S
C263 O266 1.301 . S
C263 O267 1.282 . S
O264 U246 2.441 . S
O264 C250 1.249 . S
O265 U246 2.420 . S
O265 C250 1.202 . S
O266 U246 2.455 . S
O266 C263 1.301 . S
O267 U246 2.449 . S
O267 C263 1.282 . S
H268 C241 0.931 . S
H269 C243 0.929 . S
H270 C244 0.924 1_565 S
H271 C245 0.931 . S
H272 C252 0.934 . S
H273 C253 0.930 . S
H274 C254 0.931 . S
H275 C256 0.934 . S
H276 C258 0.932 . S
H277 C259 0.929 . S
H278 C260 0.928 . S
H279 C262 0.932 . S
C280 C281 1.264 . S
C280 C285 1.479 . S
C280 C290 1.465 . S
C281 C280 1.264 . S
C281 C283 1.339 . S
C281 H308 0.931 . S
C282 C283 1.395 . S
C282 C284 1.320 . S
C283 C281 1.339 . S
C283 C282 1.395 . S
C283 H309 0.929 . S
C284 C282 1.320 . S
C284 C285 1.405 . S
C284 H310 0.930 . S
C285 C280 1.479 . S
C285 C284 1.405 . S
C285 H311 0.931 . S
U286 O287 2.454 . S
U286 O288 2.458 . S
U286 C289 2.984 . S
U286 C290 2.847 . S
U286 C303 2.882 . S
U286 O304 2.441 . S
U286 O305 2.420 . S
U286 O306 2.455 . S
U286 O307 2.449 . S
O287 U286 2.454 . S
O287 C289 1.353 . S
O288 U286 2.458 . S
O288 C289 1.286 . S
C289 U286 2.984 . S
C289 O287 1.353 . S
C289 O288 1.286 . S
C289 C291 1.363 . S
C290 C280 1.465 . S
C290 U286 2.847 . S
C290 O304 1.249 . S
C290 O305 1.202 . S
C291 C289 1.363 . S
C291 C293 1.408 . S
C291 C296 1.342 . S
C292 C293 1.310 . S
C292 C295 1.461 . S
C292 H312 0.932 . S
C293 C291 1.408 . S
C293 C292 1.310 . S
C293 H313 0.930 . S
C294 C295 1.474 . S
C294 C296 1.285 . S
C294 H314 0.929 . S
C295 C292 1.461 . S
C295 C294 1.474 . S
C296 C291 1.342 . S
C296 C294 1.285 . S
C296 H315 0.930 . S
C297 C300 1.424 . S
C297 C302 1.245 . S
C297 C303 1.428 . S
C298 C301 1.260 . S
C298 C302 1.477 . S
C298 H316 0.932 . S
C299 C300 1.384 . S
C299 C301 1.479 . S
C299 H317 0.929 . S
C300 C297 1.424 . S
C300 C299 1.384 . S
C300 H318 0.928 . S
C301 C298 1.260 . S
C301 C299 1.479 . S
C302 C297 1.245 . S
C302 C298 1.477 . S
C302 H319 0.932 . S
C303 U286 2.882 . S
C303 C297 1.428 . S
C303 O306 1.301 . S
C303 O307 1.282 . S
O304 U286 2.441 . S
O304 C290 1.249 . S
O305 U286 2.420 . S
O305 C290 1.202 . S
O306 U286 2.455 . S
O306 C303 1.301 . S
O307 U286 2.449 . S
O307 C303 1.282 . S
H308 C281 0.931 . S
H309 C283 0.929 . S
H310 C284 0.930 . S
H311 C285 0.931 . S
H312 C292 0.932 . S
H313 C293 0.930 . S
H314 C294 0.929 . S
H315 C296 0.930 . S
H316 C298 0.932 . S
H317 C299 0.929 . S
H318 C300 0.928 . S
H319 C302 0.932 . S
O320 Zn321 1.954 . S
O320 C336 1.230 . S
Zn321 O320 1.954 . S
Zn321 O322 1.948 . S
Zn321 O328 1.888 1_565 S
Zn321 O333 1.962 . S
O322 Zn321 1.948 . S
O322 Zn323 1.905 1_565 S
O322 Zn324 1.952 . S
O322 Zn325 1.960 . S
Zn323 O322 1.905 1_545 S
Zn323 O326 1.933 1_455 S
Zn323 O329 1.941 . S
Zn323 O330 1.965 . S
Zn324 O322 1.952 . S
Zn324 O331 1.938 1_565 S
Zn324 O332 1.906 . S
Zn324 O342 1.953 . S
Zn325 O322 1.960 . S
Zn325 O327 1.932 1_455 S
Zn325 O334 1.977 . S
Zn325 O335 1.910 . S
O326 Zn323 1.933 1_655 S
O326 C337 1.226 . S
O327 Zn325 1.932 1_655 S
O327 C337 1.307 1_565 S
O328 Zn321 1.888 1_545 S
O328 C339 1.253 . S
O329 Zn323 1.941 . S
O329 C339 1.283 . S
O330 Zn323 1.965 . S
O330 C338 1.303 . S
O331 Zn324 1.938 1_545 S
O331 C338 1.247 . S
O332 Zn324 1.906 . S
O332 C340 1.304 . S
O333 Zn321 1.962 . S
O333 C341 1.311 . S
O334 Zn325 1.977 . S
O334 C340 1.272 . S
O335 Zn325 1.910 . S
O335 C341 1.231 . S
C336 O320 1.230 . S
C336 O342 1.298 . S
C337 O326 1.226 . S
C337 O327 1.307 1_545 S
C338 O330 1.303 . S
C338 O331 1.247 . S
C339 O328 1.253 . S
C339 O329 1.283 . S
C340 O332 1.304 . S
C340 O334 1.272 . S
C341 O333 1.311 . S
C341 O335 1.231 . S
O342 Zn324 1.953 . S
O342 C336 1.298 . S
O343 Zn344 1.953 . S
O343 C359 1.225 . S
Zn344 O343 1.953 . S
Zn344 O345 1.949 . S
Zn344 O351 1.919 . S
Zn344 O356 1.924 . S
O345 Zn344 1.949 . S
O345 Zn346 1.923 1_545 S
O345 Zn347 1.950 . S
O345 Zn348 1.945 1_545 S
Zn346 O345 1.923 1_565 S
Zn346 O349 1.933 . S
Zn346 O352 1.941 . S
Zn346 O353 1.965 . S
Zn347 O345 1.950 . S
Zn347 O354 1.938 . S
Zn347 O355 1.903 1_545 S
Zn347 O365 1.953 . S
Zn348 O345 1.945 1_565 S
Zn348 O350 1.932 . S
Zn348 O357 1.977 . S
Zn348 O358 1.910 1_565 S
O349 Zn346 1.933 . S
O349 C360 1.226 . S
O350 Zn348 1.932 . S
O350 C360 1.307 . S
O351 Zn344 1.919 . S
O351 C362 1.253 . S
O352 Zn346 1.941 . S
O352 C362 1.283 1_565 S
O353 Zn346 1.965 . S
O353 C361 1.303 . S
O354 Zn347 1.938 . S
O354 C361 1.247 1_545 S
O355 Zn347 1.903 1_565 S
O355 C363 1.308 . S
O356 Zn344 1.924 . S
O356 C364 1.311 . S
O357 Zn348 1.977 . S
O357 C363 1.272 . S
O358 Zn348 1.910 1_545 S
O358 C364 1.231 . S
C359 O343 1.225 . S
C359 O365 1.298 . S
C360 O349 1.226 . S
C360 O350 1.307 . S
C361 O353 1.303 . S
C361 O354 1.247 1_565 S
C362 O351 1.253 . S
C362 O352 1.283 1_545 S
C363 O355 1.308 . S
C363 O357 1.272 . S
C364 O356 1.311 . S
C364 O358 1.231 . S
O365 Zn347 1.953 . S
O365 C359 1.298 . S
O366 Zn367 1.953 . S
O366 C382 1.225 . S
Zn367 O366 1.953 . S
Zn367 O368 1.949 . S
Zn367 O374 1.919 . S
Zn367 O379 1.924 . S
O368 Zn367 1.949 . S
O368 Zn369 1.923 . S
O368 Zn370 1.950 . S
O368 Zn371 1.945 . S
Zn369 O368 1.923 . S
Zn369 O372 1.933 . S
Zn369 O375 1.941 . S
Zn369 O376 1.965 . S
Zn370 O368 1.950 . S
Zn370 O377 1.938 . S
Zn370 O378 1.906 . S
Zn370 O388 1.953 . S
Zn371 O368 1.945 . S
Zn371 O373 1.932 . S
Zn371 O380 1.977 . S
Zn371 O381 1.910 . S
O372 Zn369 1.933 . S
O372 C383 1.226 . S
O373 Zn371 1.932 . S
O373 C383 1.307 . S
O374 Zn367 1.919 . S
O374 C385 1.253 . S
O375 Zn369 1.941 . S
O375 C385 1.283 . S
O376 Zn369 1.965 . S
O376 C384 1.303 . S
O377 Zn370 1.938 . S
O377 C384 1.247 . S
O378 Zn370 1.906 . S
O378 C386 1.304 . S
O379 Zn367 1.924 . S
O379 C387 1.311 . S
O380 Zn371 1.977 . S
O380 C386 1.272 . S
O381 Zn371 1.910 . S
O381 C387 1.231 . S
C382 O366 1.225 . S
C382 O388 1.298 . S
C383 O372 1.226 . S
C383 O373 1.307 . S
C384 O376 1.303 . S
C384 O377 1.247 . S
C385 O374 1.253 . S
C385 O375 1.283 . S
C386 O378 1.304 . S
C386 O380 1.272 . S
C387 O379 1.311 . S
C387 O381 1.231 . S
O388 Zn370 1.953 . S
O388 C382 1.298 . S
O389 Zn390 1.953 1_655 S
O389 C405 1.225 . S
Zn390 O389 1.953 1_455 S
Zn390 O391 1.949 . S
Zn390 O397 1.919 . S
Zn390 O402 1.924 . S
O391 Zn390 1.949 . S
O391 Zn392 1.923 . S
O391 Zn393 1.950 1_455 S
O391 Zn394 1.945 . S
Zn392 O391 1.923 . S
Zn392 O395 1.933 . S
Zn392 O398 1.941 . S
Zn392 O399 1.965 1_455 S
Zn393 O391 1.950 1_655 S
Zn393 O400 1.938 . S
Zn393 O401 1.906 1_655 S
Zn393 O411 1.953 . S
Zn394 O391 1.945 . S
Zn394 O396 1.932 . S
Zn394 O403 1.977 . S
Zn394 O404 1.910 . S
O395 Zn392 1.933 . S
O395 C406 1.226 . S
O396 Zn394 1.932 . S
O396 C406 1.307 . S
O397 Zn390 1.919 . S
O397 C408 1.253 . S
O398 Zn392 1.941 . S
O398 C408 1.283 . S
O399 Zn392 1.965 1_655 S
O399 C407 1.303 . S
O400 Zn393 1.938 . S
O400 C407 1.247 . S
O401 Zn393 1.906 1_455 S
O401 C409 1.304 . S
O402 Zn390 1.924 . S
O402 C410 1.311 . S
O403 Zn394 1.977 . S
O403 C409 1.272 . S
O404 Zn394 1.910 . S
O404 C410 1.231 . S
C405 O389 1.225 . S
C405 O411 1.298 . S
C406 O395 1.226 . S
C406 O396 1.307 . S
C407 O399 1.303 . S
C407 O400 1.247 . S
C408 O397 1.253 . S
C408 O398 1.283 . S
C409 O401 1.304 . S
C409 O403 1.272 . S
C410 O402 1.311 . S
C410 O404 1.231 . S
O411 Zn393 1.953 . S
O411 C405 1.298 . S
C412 C413 1.374 . S
C412 C414 1.327 . S
C412 H437 0.950 . S
C413 C412 1.374 . S
C413 C429 1.324 1_565 S
C414 C412 1.327 . S
C414 C433 1.429 . S
C414 H438 0.950 . S
C415 C432 1.574 . S
C415 C434 1.368 1_545 S
C415 H439 0.949 . S
H416 C420 0.949 . S
C417 C418 1.349 1_545 S
C417 C419 1.327 . S
C417 H440 0.950 . S
C418 C417 1.349 1_565 S
C418 C430 1.349 . S
C419 C417 1.327 . S
C419 C435 1.429 1_545 S
C419 H441 0.950 . S
C420 H416 0.949 . S
C420 C428 1.574 . S
C420 C436 1.368 . S
H421 C429 0.950 . S
H422 C427 0.950 . S
H423 C428 0.949 . S
H424 C430 0.950 . S
H425 C431 0.950 . S
H426 C432 0.949 . S
C427 H422 0.950 . S
C427 C429 1.327 . S
C427 C433 1.429 1_545 S
C428 C420 1.574 . S
C428 H423 0.949 . S
C428 C434 1.368 . S
C429 C413 1.324 1_545 S
C429 H421 0.950 . S
C429 C427 1.327 . S
C430 C418 1.349 . S
C430 H424 0.950 . S
C430 C431 1.327 . S
C431 H425 0.950 . S
C431 C430 1.327 . S
C431 C435 1.429 . S
C432 C415 1.574 . S
C432 H426 0.949 . S
C432 C436 1.368 1_545 S
C433 C414 1.429 . S
C433 C427 1.429 1_565 S
C433 C434 1.523 . S
C434 C415 1.368 1_565 S
C434 C428 1.368 . S
C434 C433 1.523 . S
C435 C419 1.429 1_565 S
C435 C431 1.429 . S
C435 C436 1.523 . S
C436 C420 1.368 . S
C436 C432 1.368 1_565 S
C436 C435 1.523 . S
H437 C412 0.950 . S
H438 C414 0.950 . S
H439 C415 0.949 . S
H440 C417 0.950 . S
H441 C419 0.950 . S
C442 C443 1.349 . S
C442 C444 1.327 . S
C442 H467 0.950 . S
C443 C442 1.349 . S
C443 C459 1.349 . S
C444 C442 1.327 . S
C444 C463 1.429 . S
C444 H468 0.950 . S
C445 C462 1.574 . S
C445 C464 1.368 . S
C445 H469 0.949 . S
H446 C450 0.949 . S
C447 C448 1.349 . S
C447 C449 1.327 . S
C447 H470 0.950 . S
C448 C447 1.349 . S
C448 C460 1.349 . S
C449 C447 1.327 . S
C449 C465 1.429 . S
C449 H471 0.950 . S
C450 H446 0.949 . S
C450 C458 1.574 . S
C450 C466 1.368 . S
H451 C459 0.950 . S
H452 C457 0.950 . S
H453 C458 0.949 . S
H454 C460 0.950 . S
H455 C461 0.950 . S
H456 C462 0.949 . S
C457 H452 0.950 . S
C457 C459 1.327 . S
C457 C463 1.429 . S
C458 C450 1.574 . S
C458 H453 0.949 . S
C458 C464 1.368 . S
C459 C443 1.349 . S
C459 H451 0.950 . S
C459 C457 1.327 . S
C460 C448 1.349 . S
C460 H454 0.950 . S
C460 C461 1.327 . S
C461 H455 0.950 . S
C461 C460 1.327 . S
C461 C465 1.429 . S
C462 C445 1.574 . S
C462 H456 0.949 . S
C462 C466 1.368 . S
C463 C444 1.429 . S
C463 C457 1.429 . S
C463 C464 1.523 . S
C464 C445 1.368 . S
C464 C458 1.368 . S
C464 C463 1.523 . S
C465 C449 1.429 . S
C465 C461 1.429 . S
C465 C466 1.523 . S
C466 C450 1.368 . S
C466 C462 1.368 . S
C466 C465 1.523 . S
H467 C442 0.950 . S
H468 C444 0.950 . S
H469 C445 0.949 . S
H470 C447 0.950 . S
H471 C449 0.950 . S
C472 C473 1.349 . S
C472 C474 1.327 . S
C472 H497 0.950 . S
C473 C472 1.349 . S
C473 C489 1.349 . S
C474 C472 1.327 . S
C474 C493 1.429 . S
C474 H498 0.950 . S
C475 C492 1.574 . S
C475 C494 1.368 . S
C475 H499 0.949 . S
H476 C480 0.949 . S
C477 C478 1.349 . S
C477 C479 1.327 . S
C477 H500 0.950 . S
C478 C477 1.349 . S
C478 C490 1.349 . S
C479 C477 1.327 . S
C479 C495 1.429 . S
C479 H501 0.950 . S
C480 H476 0.949 . S
C480 C488 1.574 . S
C480 C496 1.368 . S
H481 C489 0.950 . S
H482 C487 0.950 . S
H483 C488 0.949 . S
H484 C490 0.950 . S
H485 C491 0.950 . S
H486 C492 0.949 . S
C487 H482 0.950 . S
C487 C489 1.327 . S
C487 C493 1.429 . S
C488 C480 1.574 . S
C488 H483 0.949 . S
C488 C494 1.368 . S
C489 C473 1.349 . S
C489 H481 0.950 . S
C489 C487 1.327 . S
C490 C478 1.349 . S
C490 H484 0.950 . S
C490 C491 1.327 . S
C491 H485 0.950 . S
C491 C490 1.327 . S
C491 C495 1.429 . S
C492 C475 1.574 . S
C492 H486 0.949 . S
C492 C496 1.368 . S
C493 C474 1.429 . S
C493 C487 1.429 . S
C493 C494 1.523 . S
C494 C475 1.368 . S
C494 C488 1.368 . S
C494 C493 1.523 . S
C495 C479 1.429 . S
C495 C491 1.429 . S
C495 C496 1.523 . S
C496 C480 1.368 . S
C496 C492 1.368 . S
C496 C495 1.523 . S
H497 C472 0.950 . S
H498 C474 0.950 . S
H499 C475 0.949 . S
H500 C477 0.950 . S
H501 C479 0.950 . S
C502 C503 1.349 . S
C502 C504 1.327 . S
C502 H527 0.950 . S
C503 C502 1.349 . S
C503 C519 1.349 . S
C504 C502 1.327 . S
C504 C523 1.429 . S
C504 H528 0.950 . S
C505 C522 1.574 . S
C505 C524 1.368 . S
C505 H529 0.949 . S
H506 C510 0.949 . S
C507 C508 1.349 . S
C507 C509 1.327 . S
C507 H530 0.950 . S
C508 C507 1.349 . S
C508 C520 1.349 . S
C509 C507 1.327 . S
C509 C525 1.429 . S
C509 H531 0.950 . S
C510 H506 0.949 . S
C510 C518 1.574 . S
C510 C526 1.368 . S
H511 C519 0.950 . S
H512 C517 0.950 . S
H513 C518 0.949 . S
H514 C520 0.950 . S
H515 C521 0.950 . S
H516 C522 0.949 . S
C517 H512 0.950 . S
C517 C519 1.327 . S
C517 C523 1.429 . S
C518 C510 1.574 . S
C518 H513 0.949 . S
C518 C524 1.368 . S
C519 C503 1.349 . S
C519 H511 0.950 . S
C519 C517 1.327 . S
C520 C508 1.349 . S
C520 H514 0.950 . S
C520 C521 1.327 . S
C521 H515 0.950 . S
C521 C520 1.327 . S
C521 C525 1.429 . S
C522 C505 1.574 . S
C522 H516 0.949 . S
C522 C526 1.368 . S
C523 C504 1.429 . S
C523 C517 1.429 . S
C523 C524 1.523 . S
C524 C505 1.368 . S
C524 C518 1.368 . S
C524 C523 1.523 . S
C525 C509 1.429 . S
C525 C521 1.429 . S
C525 C526 1.523 . S
C526 C510 1.368 . S
C526 C522 1.368 . S
C526 C525 1.523 . S
H527 C502 0.950 . S
H528 C504 0.950 . S
H529 C505 0.949 . S
H530 C507 0.950 . S
H531 C509 0.950 . S
C532 C533 1.351 . S
C532 C534 1.327 . S
C532 H557 0.950 1_556 S
C533 C532 1.351 . S
C533 C549 1.347 1_545 S
C534 C532 1.327 . S
C534 C553 1.429 . S
C534 H558 0.950 . S
C535 C552 1.574 . S
C535 C554 1.368 1_565 S
C535 H559 0.949 . S
H536 C540 0.949 . S
C537 C538 1.349 1_565 S
C537 C539 1.327 . S
C537 H560 0.950 . S
C538 C537 1.349 1_545 S
C538 C550 1.349 . S
C539 C537 1.327 . S
C539 C555 1.429 1_565 S
C539 H561 0.950 . S
C540 H536 0.949 . S
C540 C548 1.574 . S
C540 C556 1.368 . S
H541 C549 0.950 . S
H542 C547 0.950 . S
H543 C548 0.949 . S
H544 C550 0.950 . S
H545 C551 0.950 . S
H546 C552 0.949 . S
C547 H542 0.950 . S
C547 C549 1.327 . S
C547 C553 1.429 1_565 S
C548 C540 1.574 . S
C548 H543 0.949 . S
C548 C554 1.368 . S
C549 C533 1.347 1_565 S
C549 H541 0.950 . S
C549 C547 1.327 . S
C550 C538 1.349 . S
C550 H544 0.950 . S
C550 C551 1.327 . S
C551 H545 0.950 . S
C551 C550 1.327 . S
C551 C555 1.429 . S
C552 C535 1.574 . S
C552 H546 0.949 . S
C552 C556 1.368 1_565 S
C553 C534 1.429 . S
C553 C547 1.429 1_545 S
C553 C554 1.523 . S
C554 C535 1.368 1_545 S
C554 C548 1.368 . S
C554 C553 1.523 . S
C555 C539 1.429 1_545 S
C555 C551 1.429 . S
C555 C556 1.523 . S
C556 C540 1.368 . S
C556 C552 1.368 1_545 S
C556 C555 1.523 . S
H557 C532 0.950 1_554 S
H558 C534 0.950 . S
H559 C535 0.949 . S
H560 C537 0.950 . S
H561 C539 0.950 . S
C562 C563 1.349 . S
C562 C564 1.327 . S
C562 H587 0.950 1_556 S
C563 C562 1.349 . S
C563 C579 1.349 . S
C564 C562 1.327 . S
C564 C583 1.429 . S
C564 H588 0.950 . S
C565 C582 1.574 . S
C565 C584 1.368 . S
C565 H589 0.949 . S
H566 C570 0.949 . S
C567 C568 1.349 . S
C567 C569 1.327 . S
C567 H590 0.950 . S
C568 C567 1.349 . S
C568 C580 1.349 . S
C569 C567 1.327 . S
C569 C585 1.429 . S
C569 H591 0.950 . S
C570 H566 0.949 . S
C570 C578 1.574 . S
C570 C586 1.368 . S
H571 C579 0.950 . S
H572 C577 0.950 . S
H573 C578 0.949 . S
H574 C580 0.950 . S
H575 C581 0.950 . S
H576 C582 0.949 . S
C577 H572 0.950 . S
C577 C579 1.327 . S
C577 C583 1.429 . S
C578 C570 1.574 . S
C578 H573 0.949 . S
C578 C584 1.368 . S
C579 C563 1.349 . S
C579 H571 0.950 . S
C579 C577 1.327 . S
C580 C568 1.349 . S
C580 H574 0.950 . S
C580 C581 1.327 . S
C581 H575 0.950 . S
C581 C580 1.327 . S
C581 C585 1.429 . S
C582 C565 1.574 . S
C582 H576 0.949 . S
C582 C586 1.368 . S
C583 C564 1.429 . S
C583 C577 1.429 . S
C583 C584 1.523 . S
C584 C565 1.368 . S
C584 C578 1.368 . S
C584 C583 1.523 . S
C585 C569 1.429 . S
C585 C581 1.429 . S
C585 C586 1.523 . S
C586 C570 1.368 . S
C586 C582 1.368 . S
C586 C585 1.523 . S
H587 C562 0.950 1_554 S
H588 C564 0.950 . S
H589 C565 0.949 . S
H590 C567 0.950 . S
H591 C569 0.950 . S
C592 C593 1.349 . S
C592 C594 1.327 . S
C592 H617 0.950 . S
C593 C592 1.349 . S
C593 C609 1.349 . S
C594 C592 1.327 . S
C594 C613 1.429 . S
C594 H618 0.950 . S
C595 C612 1.574 . S
C595 C614 1.368 . S
C595 H619 0.949 . S
H596 C600 0.949 . S
C597 C598 1.349 . S
C597 C599 1.327 . S
C597 H620 0.950 . S
C598 C597 1.349 . S
C598 C610 1.349 . S
C599 C597 1.327 . S
C599 C615 1.429 . S
C599 H621 0.950 . S
C600 H596 0.949 . S
C600 C608 1.574 . S
C600 C616 1.368 . S
H601 C609 0.950 . S
H602 C607 0.950 . S
H603 C608 0.949 . S
H604 C610 0.950 . S
H605 C611 0.950 . S
H606 C612 0.949 . S
C607 H602 0.950 . S
C607 C609 1.327 . S
C607 C613 1.429 . S
C608 C600 1.574 . S
C608 H603 0.949 . S
C608 C614 1.368 . S
C609 C593 1.349 . S
C609 H601 0.950 . S
C609 C607 1.327 . S
C610 C598 1.349 . S
C610 H604 0.950 . S
C610 C611 1.327 . S
C611 H605 0.950 . S
C611 C610 1.327 . S
C611 C615 1.429 . S
C612 C595 1.574 . S
C612 H606 0.949 . S
C612 C616 1.368 . S
C613 C594 1.429 . S
C613 C607 1.429 . S
C613 C614 1.523 . S
C614 C595 1.368 . S
C614 C608 1.368 . S
C614 C613 1.523 . S
C615 C599 1.429 . S
C615 C611 1.429 . S
C615 C616 1.523 . S
C616 C600 1.368 . S
C616 C612 1.368 . S
C616 C615 1.523 . S
H617 C592 0.950 . S
H618 C594 0.950 . S
H619 C595 0.949 . S
H620 C597 0.950 . S
H621 C599 0.950 . S
C622 C623 1.349 . S
C622 C624 1.327 1_554 S
C622 H647 0.950 . S
C623 C622 1.349 . S
C623 C639 1.349 1_654 S
C624 C622 1.327 1_556 S
C624 C643 1.429 . S
C624 H648 0.950 . S
C625 C642 1.574 . S
C625 C644 1.333 1_455 S
C625 H649 0.949 . S
H626 C630 0.949 . S
C627 C628 1.349 . S
C627 C629 1.327 . S
C627 H650 0.950 . S
C628 C627 1.349 . S
C628 C640 1.370 . S
C629 C627 1.327 . S
C629 C645 1.429 . S
C629 H651 0.950 . S
C630 H626 0.949 . S
C630 C638 1.574 . S
C630 C646 1.368 1_655 S
H631 C639 0.950 . S
H632 C637 0.950 . S
H633 C638 0.949 . S
H634 C640 0.936 1_655 S
H635 C641 0.950 . S
H636 C642 0.949 . S
C637 H632 0.950 . S
C637 C639 1.327 . S
C637 C643 1.429 1_455 S
C638 C630 1.574 . S
C638 H633 0.949 . S
C638 C644 1.398 . S
C639 C623 1.349 1_456 S
C639 H631 0.950 . S
C639 C637 1.327 . S
C640 C628 1.370 . S
C640 H634 0.936 1_455 S
C640 C641 1.321 1_455 S
C641 H635 0.950 . S
C641 C640 1.321 1_655 S
C641 C645 1.429 1_655 S
C642 C625 1.574 . S
C642 H636 0.949 . S
C642 C646 1.368 . S
C643 C624 1.429 . S
C643 C637 1.429 1_655 S
C643 C644 1.534 . S
C644 C625 1.333 1_655 S
C644 C638 1.398 . S
C644 C643 1.534 . S
C645 C629 1.429 . S
C645 C641 1.429 1_455 S
C645 C646 1.523 . S
C646 C630 1.368 1_455 S
C646 C642 1.368 . S
C646 C645 1.523 . S
H647 C622 0.950 . S
H648 C624 0.950 . S
H649 C625 0.949 . S
H650 C627 0.950 . S
H651 C629 0.950 . S
C652 C653 1.349 . S
C652 C654 1.327 . S
C652 H677 0.950 . S
C653 C652 1.349 . S
C653 C669 1.349 . S
C654 C652 1.327 . S
C654 C673 1.429 . S
C654 H678 0.950 . S
C655 C672 1.574 . S
C655 C674 1.368 . S
C655 H679 0.949 . S
H656 C660 0.949 . S
C657 C658 1.349 . S
C657 C659 1.327 . S
C657 H680 0.950 . S
C658 C657 1.349 . S
C658 C670 1.349 . S
C659 C657 1.327 . S
C659 C675 1.429 . S
C659 H681 0.950 . S
C660 H656 0.949 . S
C660 C668 1.574 . S
C660 C676 1.368 . S
H661 C669 0.950 . S
H662 C667 0.950 . S
H663 C668 0.949 . S
H664 C670 0.950 . S
H665 C671 0.950 . S
H666 C672 0.949 . S
C667 H662 0.950 . S
C667 C669 1.327 . S
C667 C673 1.429 . S
C668 C660 1.574 . S
C668 H663 0.949 . S
C668 C674 1.368 . S
C669 C653 1.349 . S
C669 H661 0.950 . S
C669 C667 1.327 . S
C670 C658 1.349 . S
C670 H664 0.950 . S
C670 C671 1.327 . S
C671 H665 0.950 . S
C671 C670 1.327 . S
C671 C675 1.429 . S
C672 C655 1.574 . S
C672 H666 0.949 . S
C672 C676 1.368 . S
C673 C654 1.429 . S
C673 C667 1.429 . S
C673 C674 1.523 . S
C674 C655 1.368 . S
C674 C668 1.368 . S
C674 C673 1.523 . S
C675 C659 1.429 . S
C675 C671 1.429 . S
C675 C676 1.523 . S
C676 C660 1.368 . S
C676 C672 1.368 . S
C676 C675 1.523 . S
H677 C652 0.950 . S
H678 C654 0.950 . S
H679 C655 0.949 . S
H680 C657 0.950 . S
H681 C659 0.950 . S
C682 C683 1.332 1_565 S
C682 C684 1.327 . S
C682 H707 0.950 . S
C683 C682 1.332 1_545 S
C683 C699 1.364 . S
C684 C682 1.327 . S
C684 C703 1.425 . S
C684 H708 0.950 . S
C685 C702 1.574 . S
C685 C704 1.361 1_545 S
C685 H709 0.949 . S
H686 C690 0.949 . S
C687 C688 1.349 1_545 S
C687 C689 1.327 . S
C687 H710 0.950 . S
C688 C687 1.349 1_565 S
C688 C700 1.349 . S
C689 C687 1.327 . S
C689 C705 1.429 1_545 S
C689 H711 0.950 . S
C690 H686 0.949 . S
C690 C698 1.574 . S
C690 C706 1.396 . S
H691 C699 0.950 . S
H692 C697 0.950 . S
H693 C698 0.949 . S
H694 C700 0.950 . S
H695 C701 0.950 . S
H696 C702 0.949 . S
C697 H692 0.950 . S
C697 C699 1.327 . S
C697 C703 1.432 1_545 S
C698 C690 1.574 . S
C698 H693 0.949 . S
C698 C704 1.377 . S
C699 C683 1.364 . S
C699 H691 0.950 . S
C699 C697 1.327 . S
C700 C688 1.349 . S
C700 H694 0.950 . S
C700 C701 1.327 . S
C701 H695 0.950 . S
C701 C700 1.327 . S
C701 C705 1.429 . S
C702 C685 1.574 . S
C702 H696 0.949 . S
C702 C706 1.339 1_545 S
C703 C684 1.425 . S
C703 C697 1.432 1_565 S
C703 C704 1.522 . S
C704 C685 1.361 1_565 S
C704 C698 1.377 . S
C704 C703 1.522 . S
C705 C689 1.429 1_565 S
C705 C701 1.429 . S
C705 C706 1.526 . S
C706 C690 1.396 . S
C706 C702 1.339 1_565 S
C706 C705 1.526 . S
H707 C682 0.950 . S
H708 C684 0.950 . S
H709 C685 0.949 . S
H710 C687 0.950 . S
H711 C689 0.950 . S
C712 C713 1.349 . S
C712 C714 1.327 . S
C712 H737 0.950 . S
C713 C712 1.349 . S
C713 C729 1.349 . S
C714 C712 1.327 . S
C714 C733 1.429 . S
C714 H738 0.950 . S
C715 C732 1.574 . S
C715 C734 1.368 . S
C715 H739 0.949 . S
H716 C720 0.949 . S
C717 C718 1.349 . S
C717 C719 1.327 . S
C717 H740 0.950 . S
C718 C717 1.349 . S
C718 C730 1.349 . S
C719 C717 1.327 . S
C719 C735 1.429 . S
C719 H741 0.950 . S
C720 H716 0.949 . S
C720 C728 1.574 . S
C720 C736 1.368 . S
H721 C729 0.950 . S
H722 C727 0.950 . S
H723 C728 0.949 . S
H724 C730 0.950 . S
H725 C731 0.950 . S
H726 C732 0.949 . S
C727 H722 0.950 . S
C727 C729 1.327 . S
C727 C733 1.429 . S
C728 C720 1.574 . S
C728 H723 0.949 . S
C728 C734 1.368 . S
C729 C713 1.349 . S
C729 H721 0.950 . S
C729 C727 1.327 . S
C730 C718 1.349 . S
C730 H724 0.950 . S
C730 C731 1.327 . S
C731 H725 0.950 . S
C731 C730 1.327 . S
C731 C735 1.429 . S
C732 C715 1.574 . S
C732 H726 0.949 . S
C732 C736 1.368 . S
C733 C714 1.429 . S
C733 C727 1.429 . S
C733 C734 1.523 . S
C734 C715 1.368 . S
C734 C728 1.368 . S
C734 C733 1.523 . S
C735 C719 1.429 . S
C735 C731 1.429 . S
C735 C736 1.523 . S
C736 C720 1.368 . S
C736 C732 1.368 . S
C736 C735 1.523 . S
H737 C712 0.950 . S
H738 C714 0.950 . S
H739 C715 0.949 . S
H740 C717 0.950 . S
H741 C719 0.950 . S
C742 C743 1.349 . S
C742 C744 1.327 . S
C742 H767 0.950 . S
C743 C742 1.349 . S
C743 C759 1.349 . S
C744 C742 1.327 . S
C744 C763 1.429 . S
C744 H768 0.950 . S
C745 C762 1.574 . S
C745 C764 1.368 . S
C745 H769 0.949 . S
H746 C750 0.949 . S
C747 C748 1.349 . S
C747 C749 1.327 . S
C747 H770 0.950 . S
C748 C747 1.349 . S
C748 C760 1.349 . S
C749 C747 1.327 . S
C749 C765 1.429 . S
C749 H771 0.950 . S
C750 H746 0.949 . S
C750 C758 1.574 . S
C750 C766 1.368 . S
H751 C759 0.950 . S
H752 C757 0.950 . S
H753 C758 0.949 . S
H754 C760 0.950 . S
H755 C761 0.950 . S
H756 C762 0.949 . S
C757 H752 0.950 . S
C757 C759 1.327 . S
C757 C763 1.429 . S
C758 C750 1.574 . S
C758 H753 0.949 . S
C758 C764 1.368 . S
C759 C743 1.349 . S
C759 H751 0.950 . S
C759 C757 1.327 . S
C760 C748 1.349 . S
C760 H754 0.950 . S
C760 C761 1.327 . S
C761 H755 0.950 . S
C761 C760 1.327 . S
C761 C765 1.429 . S
C762 C745 1.574 . S
C762 H756 0.949 . S
C762 C766 1.368 . S
C763 C744 1.429 . S
C763 C757 1.429 . S
C763 C764 1.523 . S
C764 C745 1.368 . S
C764 C758 1.368 . S
C764 C763 1.523 . S
C765 C749 1.429 . S
C765 C761 1.429 . S
C765 C766 1.523 . S
C766 C750 1.368 . S
C766 C762 1.368 . S
C766 C765 1.523 . S
H767 C742 0.950 . S
H768 C744 0.950 . S
H769 C745 0.949 . S
H770 C747 0.950 . S
H771 C749 0.950 . S
C772 C773 1.349 1_455 S
C772 C774 1.327 . S
C772 H797 0.950 . S
C773 C772 1.349 1_655 S
C773 C789 1.349 . S
C774 C772 1.327 . S
C774 C793 1.429 . S
C774 H798 0.950 . S
C775 C792 1.574 . S
C775 C794 1.368 . S
C775 H799 0.949 1_455 S
H776 C780 0.949 . S
C777 C778 1.349 . S
C777 C779 1.327 . S
C777 H800 0.950 . S
C778 C777 1.349 . S
C778 C790 1.349 . S
C779 C777 1.327 . S
C779 C795 1.429 . S
C779 H801 0.950 . S
C780 H776 0.949 . S
C780 C788 1.574 . S
C780 C796 1.368 . S
H781 C789 0.950 . S
H782 C787 0.950 . S
H783 C788 0.949 . S
H784 C790 0.950 . S
H785 C791 0.950 . S
H786 C792 0.949 . S
C787 H782 0.950 . S
C787 C789 1.327 . S
C787 C793 1.429 1_655 S
C788 C780 1.574 . S
C788 H783 0.949 . S
C788 C794 1.368 . S
C789 C773 1.349 . S
C789 H781 0.950 . S
C789 C787 1.327 . S
C790 C778 1.349 . S
C790 H784 0.950 . S
C790 C791 1.327 . S
C791 H785 0.950 . S
C791 C790 1.327 . S
C791 C795 1.429 . S
C792 C775 1.574 . S
C792 H786 0.949 . S
C792 C796 1.368 . S
C793 C774 1.429 . S
C793 C787 1.429 1_455 S
C793 C794 1.523 . S
C794 C775 1.368 . S
C794 C788 1.368 . S
C794 C793 1.523 . S
C795 C779 1.429 . S
C795 C791 1.429 . S
C795 C796 1.523 . S
C796 C780 1.368 . S
C796 C792 1.368 . S
C796 C795 1.523 . S
H797 C772 0.950 . S
H798 C774 0.950 . S
H799 C775 0.949 1_655 S
H800 C777 0.950 . S
H801 C779 0.950 . S
C802 C803 1.349 . S
C802 C804 1.327 . S
C802 H827 0.950 . S
C803 C802 1.349 . S
C803 C819 1.349 1_565 S
C804 C802 1.327 . S
C804 C823 1.429 1_565 S
C804 H828 0.950 . S
C805 C822 1.574 . S
C805 C824 1.368 . S
C805 H829 0.949 . S
H806 C810 0.949 . S
C807 C808 1.349 . S
C807 C809 1.327 . S
C807 H830 0.950 . S
C808 C807 1.349 . S
C808 C820 1.349 . S
C809 C807 1.327 . S
C809 C825 1.429 . S
C809 H831 0.950 . S
C810 H806 0.949 . S
C810 C818 1.574 . S
C810 C826 1.368 1_565 S
H811 C819 0.950 . S
H812 C817 0.950 . S
H813 C818 0.949 . S
H814 C820 0.950 . S
H815 C821 0.950 1_565 S
H816 C822 0.949 . S
C817 H812 0.950 . S
C817 C819 1.327 . S
C817 C823 1.429 . S
C818 C810 1.574 . S
C818 H813 0.949 . S
C818 C824 1.368 1_565 S
C819 C803 1.349 1_545 S
C819 H811 0.950 . S
C819 C817 1.327 . S
C820 C808 1.349 . S
C820 H814 0.950 . S
C820 C821 1.327 . S
C821 H815 0.950 1_545 S
C821 C820 1.327 . S
C821 C825 1.429 . S
C822 C805 1.574 . S
C822 H816 0.949 . S
C822 C826 1.368 . S
C823 C804 1.429 1_545 S
C823 C817 1.429 . S
C823 C824 1.523 . S
C824 C805 1.368 . S
C824 C818 1.368 1_545 S
C824 C823 1.523 . S
C825 C809 1.429 . S
C825 C821 1.429 . S
C825 C826 1.523 . S
C826 C810 1.368 1_545 S
C826 C822 1.368 . S
C826 C825 1.523 . S
H827 C802 0.950 . S
H828 C804 0.950 . S
H829 C805 0.949 . S
H830 C807 0.950 . S
H831 C809 0.950 . S
C832 C833 1.349 . S
C832 C834 1.327 . S
C832 H857 0.950 . S
C833 C832 1.349 . S
C833 C849 1.349 . S
C834 C832 1.327 . S
C834 C853 1.429 . S
C834 H858 0.950 . S
C835 C852 1.574 . S
C835 C854 1.368 . S
C835 H859 0.949 . S
H836 C840 0.949 . S
C837 C838 1.349 . S
C837 C839 1.327 . S
C837 H860 0.950 . S
C838 C837 1.349 . S
C838 C850 1.349 . S
C839 C837 1.327 . S
C839 C855 1.429 . S
C839 H861 0.950 . S
C840 H836 0.949 . S
C840 C848 1.574 . S
C840 C856 1.368 . S
H841 C849 0.950 . S
H842 C847 0.950 . S
H843 C848 0.949 . S
H844 C850 0.950 . S
H845 C851 0.950 . S
H846 C852 0.949 . S
C847 H842 0.950 . S
C847 C849 1.327 . S
C847 C853 1.429 . S
C848 C840 1.574 . S
C848 H843 0.949 . S
C848 C854 1.368 . S
C849 C833 1.349 . S
C849 H841 0.950 . S
C849 C847 1.327 . S
C850 C838 1.349 . S
C850 H844 0.950 . S
C850 C851 1.327 . S
C851 H845 0.950 . S
C851 C850 1.327 . S
C851 C855 1.429 . S
C852 C835 1.574 . S
C852 H846 0.949 . S
C852 C856 1.368 . S
C853 C834 1.429 . S
C853 C847 1.429 . S
C853 C854 1.523 . S
C854 C835 1.368 . S
C854 C848 1.368 . S
C854 C853 1.523 . S
C855 C839 1.429 . S
C855 C851 1.429 . S
C855 C856 1.523 . S
C856 C840 1.368 . S
C856 C852 1.368 . S
C856 C855 1.523 . S
H857 C832 0.950 . S
H858 C834 0.950 . S
H859 C835 0.949 . S
H860 C837 0.950 . S
H861 C839 0.950 . S
C862 C863 1.349 . S
C862 C864 1.327 . S
C862 H887 0.950 . S
C863 C862 1.349 . S
C863 C879 1.349 . S
C864 C862 1.327 . S
C864 C883 1.429 . S
C864 H888 0.950 . S
C865 C882 1.574 . S
C865 C884 1.368 . S
C865 H889 0.949 . S
H866 C870 0.949 . S
C867 C868 1.349 . S
C867 C869 1.327 . S
C867 H890 0.950 . S
C868 C867 1.349 . S
C868 C880 1.349 . S
C869 C867 1.327 . S
C869 C885 1.429 . S
C869 H891 0.950 . S
C870 H866 0.949 . S
C870 C878 1.574 . S
C870 C886 1.368 . S
H871 C879 0.950 . S
H872 C877 0.950 . S
H873 C878 0.949 . S
H874 C880 0.950 . S
H875 C881 0.950 . S
H876 C882 0.949 . S
C877 H872 0.950 . S
C877 C879 1.327 . S
C877 C883 1.429 . S
C878 C870 1.574 . S
C878 H873 0.949 . S
C878 C884 1.368 . S
C879 C863 1.349 . S
C879 H871 0.950 . S
C879 C877 1.327 . S
C880 C868 1.349 . S
C880 H874 0.950 . S
C880 C881 1.327 . S
C881 H875 0.950 . S
C881 C880 1.327 . S
C881 C885 1.429 . S
C882 C865 1.574 . S
C882 H876 0.949 . S
C882 C886 1.368 . S
C883 C864 1.429 . S
C883 C877 1.429 . S
C883 C884 1.523 . S
C884 C865 1.368 . S
C884 C878 1.368 . S
C884 C883 1.523 . S
C885 C869 1.429 . S
C885 C881 1.429 . S
C885 C886 1.523 . S
C886 C870 1.368 . S
C886 C882 1.368 . S
C886 C885 1.523 . S
H887 C862 0.950 . S
H888 C864 0.950 . S
H889 C865 0.949 . S
H890 C867 0.950 . S
H891 C869 0.950 . S
C892 C893 1.349 . S
C892 C894 1.327 . S
C892 H917 0.950 . S
C893 C892 1.349 . S
C893 C909 1.349 . S
C894 C892 1.327 . S
C894 C913 1.429 . S
C894 H918 0.950 . S
C895 C912 1.574 . S
C895 C914 1.368 . S
C895 H919 0.949 . S
H896 C900 0.949 . S
C897 C898 1.349 . S
C897 C899 1.327 . S
C897 H920 0.950 . S
C898 C897 1.349 . S
C898 C910 1.349 . S
C899 C897 1.327 . S
C899 C915 1.429 . S
C899 H921 0.950 . S
C900 H896 0.949 . S
C900 C908 1.574 1_556 S
C900 C916 1.368 . S
H901 C909 0.950 . S
H902 C907 0.950 . S
H903 C908 0.949 . S
H904 C910 0.950 . S
H905 C911 0.950 . S
H906 C912 0.949 . S
C907 H902 0.950 . S
C907 C909 1.327 1_556 S
C907 C913 1.429 1_556 S
C908 C900 1.574 1_554 S
C908 H903 0.949 . S
C908 C914 1.368 1_554 S
C909 C893 1.349 . S
C909 H901 0.950 . S
C909 C907 1.327 1_554 S
C910 C898 1.349 . S
C910 H904 0.950 . S
C910 C911 1.327 . S
C911 H905 0.950 . S
C911 C910 1.327 . S
C911 C915 1.429 . S
C912 C895 1.574 . S
C912 H906 0.949 . S
C912 C916 1.368 . S
C913 C894 1.429 . S
C913 C907 1.429 1_554 S
C913 C914 1.523 1_554 S
C914 C895 1.368 . S
C914 C908 1.368 1_556 S
C914 C913 1.523 1_556 S
C915 C899 1.429 . S
C915 C911 1.429 . S
C915 C916 1.523 . S
C916 C900 1.368 . S
C916 C912 1.368 . S
C916 C915 1.523 . S
H917 C892 0.950 . S
H918 C894 0.950 . S
H919 C895 0.949 . S
H920 C897 0.950 . S
H921 C899 0.950 . S
C922 C923 1.344 1_566 S
C922 C924 1.327 . S
C922 H947 0.950 . S
C923 C922 1.344 1_544 S
C923 C939 1.354 . S
C924 C922 1.327 . S
C924 C943 1.424 1_565 S
C924 H948 0.950 . S
C925 C942 1.574 . S
C925 C944 1.373 . S
C925 H949 0.949 . S
H926 C930 0.949 . S
C927 C928 1.352 . S
C927 C929 1.327 . S
C927 H950 0.950 . S
C928 C927 1.352 . S
C928 C940 1.346 1_545 S
C929 C927 1.327 . S
C929 C945 1.432 . S
C929 H951 0.950 . S
C930 H926 0.949 . S
C930 C938 1.574 . S
C930 C946 1.364 1_565 S
H931 C939 0.950 . S
H932 C937 0.949 1_554 S
H933 C938 0.949 . S
H934 C940 0.950 . S
H935 C941 0.950 . S
H936 C942 0.949 . S
C937 H932 0.949 1_556 S
C937 C939 1.326 1_556 S
C937 C943 1.435 . S
C938 C930 1.574 . S
C938 H933 0.949 . S
C938 C944 1.364 1_565 S
C939 C923 1.354 . S
C939 H931 0.950 . S
C939 C937 1.326 1_554 S
C940 C928 1.346 1_565 S
C940 H934 0.950 . S
C940 C941 1.327 . S
C941 H935 0.950 . S
C941 C940 1.327 . S
C941 C945 1.425 1_565 S
C942 C925 1.574 . S
C942 H936 0.949 . S
C942 C946 1.372 . S
C943 C924 1.424 1_545 S
C943 C937 1.435 . S
C943 C944 1.523 . S
C944 C925 1.373 . S
C944 C938 1.364 1_545 S
C944 C943 1.523 . S
C945 C929 1.432 . S
C945 C941 1.425 1_545 S
C945 C946 1.523 . S
C946 C930 1.364 1_545 S
C946 C942 1.372 . S
C946 C945 1.523 . S
H947 C922 0.950 . S
H948 C924 0.950 . S
H949 C925 0.949 . S
H950 C927 0.950 . S
H951 C929 0.950 . S
C952 C953 1.349 1_554 S
C952 C954 1.327 1_554 S
C952 H977 0.950 . S
C953 C952 1.349 1_556 S
C953 C969 1.349 . S
C954 C952 1.327 1_556 S
C954 C973 1.429 . S
C954 H978 0.950 . S
C955 C972 1.574 . S
C955 C974 1.368 . S
C955 H979 0.949 . S
H956 C960 0.949 . S
C957 C958 1.349 . S
C957 C959 1.327 . S
C957 H980 0.950 . S
C958 C957 1.349 . S
C958 C970 1.349 . S
C959 C957 1.327 . S
C959 C975 1.429 . S
C959 H981 0.950 . S
C960 H956 0.949 . S
C960 C968 1.574 . S
C960 C976 1.368 . S
H961 C969 0.950 . S
H962 C967 0.950 . S
H963 C968 0.949 . S
H964 C970 0.950 . S
H965 C971 0.950 . S
H966 C972 0.949 . S
C967 H962 0.950 . S
C967 C969 1.327 . S
C967 C973 1.429 . S
C968 C960 1.574 . S
C968 H963 0.949 . S
C968 C974 1.368 . S
C969 C953 1.349 . S
C969 H961 0.950 . S
C969 C967 1.327 . S
C970 C958 1.349 . S
C970 H964 0.950 . S
C970 C971 1.327 . S
C971 H965 0.950 . S
C971 C970 1.327 . S
C971 C975 1.429 . S
C972 C955 1.574 . S
C972 H966 0.949 . S
C972 C976 1.368 . S
C973 C954 1.429 . S
C973 C967 1.429 . S
C973 C974 1.523 . S
C974 C955 1.368 . S
C974 C968 1.368 . S
C974 C973 1.523 . S
C975 C959 1.429 . S
C975 C971 1.429 . S
C975 C976 1.523 . S
C976 C960 1.368 . S
C976 C972 1.368 . S
C976 C975 1.523 . S
H977 C952 0.950 . S
H978 C954 0.950 . S
H979 C955 0.949 . S
H980 C957 0.950 . S
H981 C959 0.950 . S
C982 C983 1.349 . S
C982 C984 1.327 . S
C982 H1007 0.950 . S
C983 C982 1.349 . S
C983 C999 1.349 1_556 S
C984 C982 1.327 . S
C984 C1003 1.429 . S
C984 H1008 0.950 . S
C985 C1002 1.574 . S
C985 C1004 1.368 . S
C985 H1009 0.949 . S
H986 C990 0.949 . S
C987 C988 1.349 . S
C987 C989 1.327 . S
C987 H1010 0.950 . S
C988 C987 1.349 . S
C988 C1000 1.349 . S
C989 C987 1.327 . S
C989 C1005 1.429 . S
C989 H1011 0.950 . S
C990 H986 0.949 . S
C990 C998 1.574 . S
C990 C1006 1.368 . S
H991 C999 0.950 . S
H992 C997 0.950 1_554 S
H993 C998 0.949 . S
H994 C1000 0.950 . S
H995 C1001 0.950 . S
H996 C1002 0.949 . S
C997 H992 0.950 1_556 S
C997 C999 1.327 1_556 S
C997 C1003 1.429 . S
C998 C990 1.574 . S
C998 H993 0.949 . S
C998 C1004 1.368 . S
C999 C983 1.349 1_554 S
C999 H991 0.950 . S
C999 C997 1.327 1_554 S
C1000 C988 1.349 . S
C1000 H994 0.950 . S
C1000 C1001 1.327 . S
C1001 H995 0.950 . S
C1001 C1000 1.327 . S
C1001 C1005 1.429 . S
C1002 C985 1.574 . S
C1002 H996 0.949 . S
C1002 C1006 1.368 . S
C1003 C984 1.429 . S
C1003 C997 1.429 . S
C1003 C1004 1.523 . S
C1004 C985 1.368 . S
C1004 C998 1.368 . S
C1004 C1003 1.523 . S
C1005 C989 1.429 . S
C1005 C1001 1.429 . S
C1005 C1006 1.523 . S
C1006 C990 1.368 . S
C1006 C1002 1.368 . S
C1006 C1005 1.523 . S
H1007 C982 0.950 . S
H1008 C984 0.950 . S
H1009 C985 0.949 . S
H1010 C987 0.950 . S
H1011 C989 0.950 . S
C1012 C1013 1.349 . S
C1012 C1014 1.327 . S
C1012 H1037 0.950 . S
C1013 C1012 1.349 . S
C1013 C1029 1.349 1_655 S
C1014 C1012 1.327 . S
C1014 C1033 1.429 . S
C1014 H1038 0.950 . S
C1015 C1032 1.574 . S
C1015 C1034 1.372 . S
C1015 H1039 0.949 . S
H1016 C1020 0.949 . S
C1017 C1018 1.349 . S
C1017 C1019 1.327 . S
C1017 H1040 0.950 . S
C1018 C1017 1.349 . S
C1018 C1030 1.349 1_455 S
C1019 C1017 1.327 . S
C1019 C1035 1.429 . S
C1019 H1041 0.950 . S
C1020 H1016 0.949 . S
C1020 C1028 1.574 . S
C1020 C1036 1.368 1_655 S
H1021 C1029 0.950 . S
H1022 C1027 0.950 . S
H1023 C1028 0.949 . S
H1024 C1030 0.950 . S
H1025 C1031 0.950 . S
H1026 C1032 0.949 . S
C1027 H1022 0.950 . S
C1027 C1029 1.327 . S
C1027 C1033 1.429 1_455 S
C1028 C1020 1.574 . S
C1028 H1023 0.949 . S
C1028 C1034 1.364 1_655 S
C1029 C1013 1.349 1_455 S
C1029 H1021 0.950 . S
C1029 C1027 1.327 . S
C1030 C1018 1.349 1_655 S
C1030 H1024 0.950 . S
C1030 C1031 1.327 . S
C1031 H1025 0.950 . S
C1031 C1030 1.327 . S
C1031 C1035 1.429 1_655 S
C1032 C1015 1.574 . S
C1032 H1026 0.949 . S
C1032 C1036 1.368 . S
C1033 C1014 1.429 . S
C1033 C1027 1.429 1_655 S
C1033 C1034 1.523 1_655 S
C1034 C1015 1.372 . S
C1034 C1028 1.364 1_455 S
C1034 C1033 1.523 1_455 S
C1035 C1019 1.429 . S
C1035 C1031 1.429 1_455 S
C1035 C1036 1.523 . S
C1036 C1020 1.368 1_455 S
C1036 C1032 1.368 . S
C1036 C1035 1.523 . S
H1037 C1012 0.950 . S
H1038 C1014 0.950 . S
H1039 C1015 0.949 . S
H1040 C1017 0.950 . S
H1041 C1019 0.950 . S
C1042 C1043 1.349 1_545 S
C1042 C1044 1.327 . S
C1042 H1067 0.950 . S
C1043 C1042 1.349 1_565 S
C1043 C1059 1.349 . S
C1044 C1042 1.327 . S
C1044 C1063 1.429 1_545 S
C1044 H1068 0.950 . S
C1045 C1062 1.574 . S
C1045 C1064 1.368 . S
C1045 H1069 0.949 . S
H1046 C1050 0.949 . S
C1047 C1048 1.349 . S
C1047 C1049 1.327 . S
C1047 H1070 0.950 . S
C1048 C1047 1.349 . S
C1048 C1060 1.359 . S
C1049 C1047 1.327 . S
C1049 C1065 1.429 . S
C1049 H1071 0.950 . S
C1050 H1046 0.949 . S
C1050 C1058 1.574 . S
C1050 C1066 1.368 1_545 S
H1051 C1059 0.950 . S
H1052 C1057 0.950 . S
H1053 C1058 0.949 . S
H1054 C1060 0.941 1_545 S
H1055 C1061 0.950 . S
H1056 C1062 0.949 . S
C1057 H1052 0.950 . S
C1057 C1059 1.327 . S
C1057 C1063 1.429 . S
C1058 C1050 1.574 . S
C1058 H1053 0.949 . S
C1058 C1064 1.368 1_545 S
C1059 C1043 1.349 . S
C1059 H1051 0.950 . S
C1059 C1057 1.327 . S
C1060 C1048 1.359 . S
C1060 H1054 0.941 1_565 S
C1060 C1061 1.326 1_565 S
C1061 H1055 0.950 . S
C1061 C1060 1.326 1_545 S
C1061 C1065 1.429 1_545 S
C1062 C1045 1.574 . S
C1062 H1056 0.949 . S
C1062 C1066 1.368 . S
C1063 C1044 1.429 1_565 S
C1063 C1057 1.429 . S
C1063 C1064 1.523 . S
C1064 C1045 1.368 . S
C1064 C1058 1.368 1_565 S
C1064 C1063 1.523 . S
C1065 C1049 1.429 . S
C1065 C1061 1.429 1_565 S
C1065 C1066 1.523 . S
C1066 C1050 1.368 1_565 S
C1066 C1062 1.368 . S
C1066 C1065 1.523 . S
H1067 C1042 0.950 . S
H1068 C1044 0.950 . S
H1069 C1045 0.949 . S
H1070 C1047 0.950 . S
H1071 C1049 0.950 . S
C1072 C1073 1.349 . S
C1072 C1074 1.327 . S
C1072 H1097 0.950 . S
C1073 C1072 1.349 . S
C1073 C1089 1.349 . S
C1074 C1072 1.327 . S
C1074 C1093 1.429 . S
C1074 H1098 0.950 . S
C1075 C1092 1.574 . S
C1075 C1094 1.368 . S
C1075 H1099 0.949 . S
H1076 C1080 0.949 . S
C1077 C1078 1.349 . S
C1077 C1079 1.327 . S
C1077 H1100 0.950 . S
C1078 C1077 1.349 . S
C1078 C1090 1.349 . S
C1079 C1077 1.327 . S
C1079 C1095 1.429 . S
C1079 H1101 0.950 . S
C1080 H1076 0.949 . S
C1080 C1088 1.574 . S
C1080 C1096 1.368 . S
H1081 C1089 0.950 . S
H1082 C1087 0.950 . S
H1083 C1088 0.949 . S
H1084 C1090 0.950 . S
H1085 C1091 0.950 . S
H1086 C1092 0.949 . S
C1087 H1082 0.950 . S
C1087 C1089 1.327 . S
C1087 C1093 1.429 . S
C1088 C1080 1.574 . S
C1088 H1083 0.949 . S
C1088 C1094 1.368 . S
C1089 C1073 1.349 . S
C1089 H1081 0.950 . S
C1089 C1087 1.327 . S
C1090 C1078 1.349 . S
C1090 H1084 0.950 . S
C1090 C1091 1.327 . S
C1091 H1085 0.950 . S
C1091 C1090 1.327 . S
C1091 C1095 1.429 . S
C1092 C1075 1.574 . S
C1092 H1086 0.949 . S
C1092 C1096 1.368 . S
C1093 C1074 1.429 . S
C1093 C1087 1.429 . S
C1093 C1094 1.523 . S
C1094 C1075 1.368 . S
C1094 C1088 1.368 . S
C1094 C1093 1.523 . S
C1095 C1079 1.429 . S
C1095 C1091 1.429 . S
C1095 C1096 1.523 . S
C1096 C1080 1.368 . S
C1096 C1092 1.368 . S
C1096 C1095 1.523 . S
H1097 C1072 0.950 . S
H1098 C1074 0.950 . S
H1099 C1075 0.949 . S
H1100 C1077 0.950 . S
H1101 C1079 0.950 . S
C1102 C1103 1.349 . S
C1102 C1104 1.327 . S
C1102 H1127 0.950 . S
C1103 C1102 1.349 . S
C1103 C1119 1.349 . S
C1104 C1102 1.327 . S
C1104 C1123 1.429 . S
C1104 H1128 0.950 . S
C1105 C1122 1.574 . S
C1105 C1124 1.368 . S
C1105 H1129 0.949 . S
H1106 C1110 0.949 . S
C1107 C1108 1.349 . S
C1107 C1109 1.327 . S
C1107 H1130 0.950 . S
C1108 C1107 1.349 . S
C1108 C1120 1.349 . S
C1109 C1107 1.327 . S
C1109 C1125 1.429 . S
C1109 H1131 0.950 . S
C1110 H1106 0.949 . S
C1110 C1118 1.574 . S
C1110 C1126 1.368 . S
H1111 C1119 0.950 . S
H1112 C1117 0.950 . S
H1113 C1118 0.949 . S
H1114 C1120 0.950 . S
H1115 C1121 0.950 . S
H1116 C1122 0.949 . S
C1117 H1112 0.950 . S
C1117 C1119 1.327 . S
C1117 C1123 1.429 . S
C1118 C1110 1.574 . S
C1118 H1113 0.949 . S
C1118 C1124 1.368 . S
C1119 C1103 1.349 . S
C1119 H1111 0.950 . S
C1119 C1117 1.327 . S
C1120 C1108 1.349 . S
C1120 H1114 0.950 . S
C1120 C1121 1.327 . S
C1121 H1115 0.950 . S
C1121 C1120 1.327 . S
C1121 C1125 1.429 . S
C1122 C1105 1.574 . S
C1122 H1116 0.949 . S
C1122 C1126 1.368 . S
C1123 C1104 1.429 . S
C1123 C1117 1.429 . S
C1123 C1124 1.523 . S
C1124 C1105 1.368 . S
C1124 C1118 1.368 . S
C1124 C1123 1.523 . S
C1125 C1109 1.429 . S
C1125 C1121 1.429 . S
C1125 C1126 1.523 . S
C1126 C1110 1.368 . S
C1126 C1122 1.368 . S
C1126 C1125 1.523 . S
H1127 C1102 0.950 . S
H1128 C1104 0.950 . S
H1129 C1105 0.949 . S
H1130 C1107 0.950 . S
H1131 C1109 0.950 . S
C413 C255 1.616 1_565 S
C418 C336 1.619 . S
C448 C359 1.841 . S
C443 C295 1.832 . S
C478 C382 1.728 . S
C473 C175 1.715 . S
C508 C409 1.602 . S
C503 C215 1.676 . S
C538 C337 1.576 . S
C533 C95 1.564 1_546 S
C563 C135 1.579 . S
C568 C360 1.603 . S
C593 C15 1.406 . S
C598 C383 1.417 . S
C623 C55 1.696 . S
C628 C408 1.707 . S
C658 C338 0.433 . S
C653 C221 0.642 . S
C688 C361 0.759 . S
C683 C261 0.876 . S
C718 C384 0.441 . S
C713 C301 0.550 . S
C743 C181 0.679 . S
C748 C410 0.805 . S
C773 C61 0.660 . S
C778 C341 0.725 . S
C808 C364 0.828 . S
C803 C101 0.651 1_565 S
C838 C387 0.758 . S
C833 C141 0.688 . S
C863 C21 0.701 . S
C868 C407 0.606 . S
C893 C202 2.043 . S
C898 C339 1.993 . S
C923 C242 1.906 . S
C928 C362 1.906 . S
C958 C385 1.948 . S
C953 C282 1.962 1_556 S
C988 C406 1.585 . S
C983 C162 1.514 1_556 S
C1013 C42 1.966 . S
C1018 C340 1.923 . S
C1048 C363 1.779 . S
C1043 C82 1.837 1_565 S
C1078 C386 1.776 . S
C1073 C122 1.805 . S
C1103 C2 2.057 . S
C1108 C405 2.099 . S
