# Generated by pormake.
# Topology gar, (4,6)-cn, num edge types: 1
# Building blocks:
#     Node 0, Type 0, BuildingBlock: UXUYUI_clean_sbu_0, # of connection points: 4
#     Node 1, Type 0, BuildingBlock: UXUYUI_clean_sbu_0, # of connection points: 4
#     Node 2, Type 0, BuildingBlock: UXUYUI_clean_sbu_0, # of connection points: 4
#     Node 3, Type 0, BuildingBlock: UXUYUI_clean_sbu_0, # of connection points: 4
#     Node 4, Type 0, BuildingBlock: UXUYUI_clean_sbu_0, # of connection points: 4
#     Node 5, Type 0, BuildingBlock: UXUYUI_clean_sbu_0, # of connection points: 4
#     Node 6, Type 0, BuildingBlock: UXUYUI_clean_sbu_0, # of connection points: 4
#     Node 7, Type 0, BuildingBlock: UXUYUI_clean_sbu_0, # of connection points: 4
#     Node 8, Type 0, BuildingBlock: UXUYUI_clean_sbu_0, # of connection points: 4
#     Node 9, Type 0, BuildingBlock: UXUYUI_clean_sbu_0, # of connection points: 4
#     Node 10, Type 0, BuildingBlock: UXUYUI_clean_sbu_0, # of connection points: 4
#     Node 11, Type 0, BuildingBlock: UXUYUI_clean_sbu_0, # of connection points: 4
#     Node 12, Type 0, BuildingBlock: UXUYUI_clean_sbu_0, # of connection points: 4
#     Node 13, Type 0, BuildingBlock: UXUYUI_clean_sbu_0, # of connection points: 4
#     Node 14, Type 0, BuildingBlock: UXUYUI_clean_sbu_0, # of connection points: 4
#     Node 15, Type 0, BuildingBlock: UXUYUI_clean_sbu_0, # of connection points: 4
#     Node 16, Type 0, BuildingBlock: UXUYUI_clean_sbu_0, # of connection points: 4
#     Node 17, Type 0, BuildingBlock: UXUYUI_clean_sbu_0, # of connection points: 4
#     Node 18, Type 0, BuildingBlock: UXUYUI_clean_sbu_0, # of connection points: 4
#     Node 19, Type 0, BuildingBlock: UXUYUI_clean_sbu_0, # of connection points: 4
#     Node 20, Type 0, BuildingBlock: UXUYUI_clean_sbu_0, # of connection points: 4
#     Node 21, Type 0, BuildingBlock: UXUYUI_clean_sbu_0, # of connection points: 4
#     Node 22, Type 0, BuildingBlock: UXUYUI_clean_sbu_0, # of connection points: 4
#     Node 23, Type 0, BuildingBlock: UXUYUI_clean_sbu_0, # of connection points: 4
#     Node 24, Type 1, BuildingBlock: GEDQOX_clean_sbu_0, # of connection points: 6
#     Node 25, Type 1, BuildingBlock: GEDQOX_clean_sbu_0, # of connection points: 6
#     Node 26, Type 1, BuildingBlock: GEDQOX_clean_sbu_0, # of connection points: 6
#     Node 27, Type 1, BuildingBlock: GEDQOX_clean_sbu_0, # of connection points: 6
#     Node 28, Type 1, BuildingBlock: GEDQOX_clean_sbu_0, # of connection points: 6
#     Node 29, Type 1, BuildingBlock: GEDQOX_clean_sbu_0, # of connection points: 6
#     Node 30, Type 1, BuildingBlock: GEDQOX_clean_sbu_0, # of connection points: 6
#     Node 31, Type 1, BuildingBlock: GEDQOX_clean_sbu_0, # of connection points: 6
#     Node 32, Type 1, BuildingBlock: GEDQOX_clean_sbu_0, # of connection points: 6
#     Node 33, Type 1, BuildingBlock: GEDQOX_clean_sbu_0, # of connection points: 6
#     Node 34, Type 1, BuildingBlock: GEDQOX_clean_sbu_0, # of connection points: 6
#     Node 35, Type 1, BuildingBlock: GEDQOX_clean_sbu_0, # of connection points: 6
#     Node 36, Type 1, BuildingBlock: GEDQOX_clean_sbu_0, # of connection points: 6
#     Node 37, Type 1, BuildingBlock: GEDQOX_clean_sbu_0, # of connection points: 6
#     Node 38, Type 1, BuildingBlock: GEDQOX_clean_sbu_0, # of connection points: 6
#     Node 39, Type 1, BuildingBlock: GEDQOX_clean_sbu_0, # of connection points: 6
#     Edge 40, Type (0, 1), BuildingBlock: MIFKUJ_clean_linker_0, # of connection points: 2
#     Edge 41, Type (0, 1), BuildingBlock: MIFKUJ_clean_linker_0, # of connection points: 2
#     Edge 42, Type (0, 1), BuildingBlock: MIFKUJ_clean_linker_0, # of connection points: 2
#     Edge 43, Type (0, 1), BuildingBlock: MIFKUJ_clean_linker_0, # of connection points: 2
#     Edge 44, Type (0, 1), BuildingBlock: MIFKUJ_clean_linker_0, # of connection points: 2
#     Edge 45, Type (0, 1), BuildingBlock: MIFKUJ_clean_linker_0, # of connection points: 2
#     Edge 46, Type (0, 1), BuildingBlock: MIFKUJ_clean_linker_0, # of connection points: 2
#     Edge 47, Type (0, 1), BuildingBlock: MIFKUJ_clean_linker_0, # of connection points: 2
#     Edge 48, Type (0, 1), BuildingBlock: MIFKUJ_clean_linker_0, # of connection points: 2
#     Edge 49, Type (0, 1), BuildingBlock: MIFKUJ_clean_linker_0, # of connection points: 2
#     Edge 50, Type (0, 1), BuildingBlock: MIFKUJ_clean_linker_0, # of connection points: 2
#     Edge 51, Type (0, 1), BuildingBlock: MIFKUJ_clean_linker_0, # of connection points: 2
#     Edge 52, Type (0, 1), BuildingBlock: MIFKUJ_clean_linker_0, # of connection points: 2
#     Edge 53, Type (0, 1), BuildingBlock: MIFKUJ_clean_linker_0, # of connection points: 2
#     Edge 54, Type (0, 1), BuildingBlock: MIFKUJ_clean_linker_0, # of connection points: 2
#     Edge 55, Type (0, 1), BuildingBlock: MIFKUJ_clean_linker_0, # of connection points: 2
#     Edge 56, Type (0, 1), BuildingBlock: MIFKUJ_clean_linker_0, # of connection points: 2
#     Edge 57, Type (0, 1), BuildingBlock: MIFKUJ_clean_linker_0, # of connection points: 2
#     Edge 58, Type (0, 1), BuildingBlock: MIFKUJ_clean_linker_0, # of connection points: 2
#     Edge 59, Type (0, 1), BuildingBlock: MIFKUJ_clean_linker_0, # of connection points: 2
#     Edge 60, Type (0, 1), BuildingBlock: MIFKUJ_clean_linker_0, # of connection points: 2
#     Edge 61, Type (0, 1), BuildingBlock: MIFKUJ_clean_linker_0, # of connection points: 2
#     Edge 62, Type (0, 1), BuildingBlock: MIFKUJ_clean_linker_0, # of connection points: 2
#     Edge 63, Type (0, 1), BuildingBlock: MIFKUJ_clean_linker_0, # of connection points: 2
#     Edge 64, Type (0, 1), BuildingBlock: MIFKUJ_clean_linker_0, # of connection points: 2
#     Edge 65, Type (0, 1), BuildingBlock: MIFKUJ_clean_linker_0, # of connection points: 2
#     Edge 66, Type (0, 1), BuildingBlock: MIFKUJ_clean_linker_0, # of connection points: 2
#     Edge 67, Type (0, 1), BuildingBlock: MIFKUJ_clean_linker_0, # of connection points: 2
#     Edge 68, Type (0, 1), BuildingBlock: MIFKUJ_clean_linker_0, # of connection points: 2
#     Edge 69, Type (0, 1), BuildingBlock: MIFKUJ_clean_linker_0, # of connection points: 2
#     Edge 70, Type (0, 1), BuildingBlock: MIFKUJ_clean_linker_0, # of connection points: 2
#     Edge 71, Type (0, 1), BuildingBlock: MIFKUJ_clean_linker_0, # of connection points: 2
#     Edge 72, Type (0, 1), BuildingBlock: MIFKUJ_clean_linker_0, # of connection points: 2
#     Edge 73, Type (0, 1), BuildingBlock: MIFKUJ_clean_linker_0, # of connection points: 2
#     Edge 74, Type (0, 1), BuildingBlock: MIFKUJ_clean_linker_0, # of connection points: 2
#     Edge 75, Type (0, 1), BuildingBlock: MIFKUJ_clean_linker_0, # of connection points: 2
#     Edge 76, Type (0, 1), BuildingBlock: MIFKUJ_clean_linker_0, # of connection points: 2
#     Edge 77, Type (0, 1), BuildingBlock: MIFKUJ_clean_linker_0, # of connection points: 2
#     Edge 78, Type (0, 1), BuildingBlock: MIFKUJ_clean_linker_0, # of connection points: 2
#     Edge 79, Type (0, 1), BuildingBlock: MIFKUJ_clean_linker_0, # of connection points: 2
#     Edge 80, Type (0, 1), BuildingBlock: MIFKUJ_clean_linker_0, # of connection points: 2
#     Edge 81, Type (0, 1), BuildingBlock: MIFKUJ_clean_linker_0, # of connection points: 2
#     Edge 82, Type (0, 1), BuildingBlock: MIFKUJ_clean_linker_0, # of connection points: 2
#     Edge 83, Type (0, 1), BuildingBlock: MIFKUJ_clean_linker_0, # of connection points: 2
#     Edge 84, Type (0, 1), BuildingBlock: MIFKUJ_clean_linker_0, # of connection points: 2
#     Edge 85, Type (0, 1), BuildingBlock: MIFKUJ_clean_linker_0, # of connection points: 2
#     Edge 86, Type (0, 1), BuildingBlock: MIFKUJ_clean_linker_0, # of connection points: 2
#     Edge 87, Type (0, 1), BuildingBlock: MIFKUJ_clean_linker_0, # of connection points: 2
#     Edge 88, Type (0, 1), BuildingBlock: MIFKUJ_clean_linker_0, # of connection points: 2
#     Edge 89, Type (0, 1), BuildingBlock: MIFKUJ_clean_linker_0, # of connection points: 2
#     Edge 90, Type (0, 1), BuildingBlock: MIFKUJ_clean_linker_0, # of connection points: 2
#     Edge 91, Type (0, 1), BuildingBlock: MIFKUJ_clean_linker_0, # of connection points: 2
#     Edge 92, Type (0, 1), BuildingBlock: MIFKUJ_clean_linker_0, # of connection points: 2
#     Edge 93, Type (0, 1), BuildingBlock: MIFKUJ_clean_linker_0, # of connection points: 2
#     Edge 94, Type (0, 1), BuildingBlock: MIFKUJ_clean_linker_0, # of connection points: 2
#     Edge 95, Type (0, 1), BuildingBlock: MIFKUJ_clean_linker_0, # of connection points: 2
#     Edge 96, Type (0, 1), BuildingBlock: MIFKUJ_clean_linker_0, # of connection points: 2
#     Edge 97, Type (0, 1), BuildingBlock: MIFKUJ_clean_linker_0, # of connection points: 2
#     Edge 98, Type (0, 1), BuildingBlock: MIFKUJ_clean_linker_0, # of connection points: 2
#     Edge 99, Type (0, 1), BuildingBlock: MIFKUJ_clean_linker_0, # of connection points: 2
#     Edge 100, Type (0, 1), BuildingBlock: MIFKUJ_clean_linker_0, # of connection points: 2
#     Edge 101, Type (0, 1), BuildingBlock: MIFKUJ_clean_linker_0, # of connection points: 2
#     Edge 102, Type (0, 1), BuildingBlock: MIFKUJ_clean_linker_0, # of connection points: 2
#     Edge 103, Type (0, 1), BuildingBlock: MIFKUJ_clean_linker_0, # of connection points: 2
#     Edge 104, Type (0, 1), BuildingBlock: MIFKUJ_clean_linker_0, # of connection points: 2
#     Edge 105, Type (0, 1), BuildingBlock: MIFKUJ_clean_linker_0, # of connection points: 2
#     Edge 106, Type (0, 1), BuildingBlock: MIFKUJ_clean_linker_0, # of connection points: 2
#     Edge 107, Type (0, 1), BuildingBlock: MIFKUJ_clean_linker_0, # of connection points: 2
#     Edge 108, Type (0, 1), BuildingBlock: MIFKUJ_clean_linker_0, # of connection points: 2
#     Edge 109, Type (0, 1), BuildingBlock: MIFKUJ_clean_linker_0, # of connection points: 2
#     Edge 110, Type (0, 1), BuildingBlock: MIFKUJ_clean_linker_0, # of connection points: 2
#     Edge 111, Type (0, 1), BuildingBlock: MIFKUJ_clean_linker_0, # of connection points: 2
#     Edge 112, Type (0, 1), BuildingBlock: MIFKUJ_clean_linker_0, # of connection points: 2
#     Edge 113, Type (0, 1), BuildingBlock: MIFKUJ_clean_linker_0, # of connection points: 2
#     Edge 114, Type (0, 1), BuildingBlock: MIFKUJ_clean_linker_0, # of connection points: 2
#     Edge 115, Type (0, 1), BuildingBlock: MIFKUJ_clean_linker_0, # of connection points: 2
#     Edge 116, Type (0, 1), BuildingBlock: MIFKUJ_clean_linker_0, # of connection points: 2
#     Edge 117, Type (0, 1), BuildingBlock: MIFKUJ_clean_linker_0, # of connection points: 2
#     Edge 118, Type (0, 1), BuildingBlock: MIFKUJ_clean_linker_0, # of connection points: 2
#     Edge 119, Type (0, 1), BuildingBlock: MIFKUJ_clean_linker_0, # of connection points: 2
#     Edge 120, Type (0, 1), BuildingBlock: MIFKUJ_clean_linker_0, # of connection points: 2
#     Edge 121, Type (0, 1), BuildingBlock: MIFKUJ_clean_linker_0, # of connection points: 2
#     Edge 122, Type (0, 1), BuildingBlock: MIFKUJ_clean_linker_0, # of connection points: 2
#     Edge 123, Type (0, 1), BuildingBlock: MIFKUJ_clean_linker_0, # of connection points: 2
#     Edge 124, Type (0, 1), BuildingBlock: MIFKUJ_clean_linker_0, # of connection points: 2
#     Edge 125, Type (0, 1), BuildingBlock: MIFKUJ_clean_linker_0, # of connection points: 2
#     Edge 126, Type (0, 1), BuildingBlock: MIFKUJ_clean_linker_0, # of connection points: 2
#     Edge 127, Type (0, 1), BuildingBlock: MIFKUJ_clean_linker_0, # of connection points: 2
#     Edge 128, Type (0, 1), BuildingBlock: MIFKUJ_clean_linker_0, # of connection points: 2
#     Edge 129, Type (0, 1), BuildingBlock: MIFKUJ_clean_linker_0, # of connection points: 2
#     Edge 130, Type (0, 1), BuildingBlock: MIFKUJ_clean_linker_0, # of connection points: 2
#     Edge 131, Type (0, 1), BuildingBlock: MIFKUJ_clean_linker_0, # of connection points: 2
#     Edge 132, Type (0, 1), BuildingBlock: MIFKUJ_clean_linker_0, # of connection points: 2
#     Edge 133, Type (0, 1), BuildingBlock: MIFKUJ_clean_linker_0, # of connection points: 2
#     Edge 134, Type (0, 1), BuildingBlock: MIFKUJ_clean_linker_0, # of connection points: 2
#     Edge 135, Type (0, 1), BuildingBlock: MIFKUJ_clean_linker_0, # of connection points: 2
# Relax obj value: 0.238
# Max RMSD: 0.327
# Mean RMSD: 0.202
data_MOF--net-gar--node1-UXUYUI_clean_sbu_0--node2-GEDQOX_clean_sbu_0--edge1-MIFKUJ_clean_linker_0
_symmetry_space_group_name_H-M    P1
_symmetry_Int_Tables_number       1
_symmetry_cell_setting            triclinic
loop_
_symmetry_equiv_pos_as_xyz
'x, y, z'
_cell_length_a     90.689412
_cell_length_b     87.900648
_cell_length_c     82.707203
_cell_angle_alpha  96.323965
_cell_angle_beta   96.36646
_cell_angle_gamma 100.3965
loop_
_atom_site_label
_atom_site_type_symbol
_atom_site_fract_x
_atom_site_fract_y
_atom_site_fract_z
_atom_type_partial_charge
Li0 Li 0.03378 0.32387 0.42624 0.0
Li1 Li 0.05243 0.33533 0.44849 0.0
Li2 Li 0.05999 0.32171 0.42443 0.0
Li3 Li 0.04458 0.30738 0.44452 0.0
C4 C 0.04925 0.35155 0.41584 0.0
N5 N 0.04481 0.37359 0.39534 0.0
C6 C 0.04368 0.3647 0.42153 0.0
C7 C 0.05279 0.34976 0.3998 0.0
C8 C 0.04144 0.37566 0.41096 0.0
C9 C 0.0504 0.36099 0.38961 0.0
C10 C 0.02337 0.33106 0.45777 0.0
C11 C 0.00989 0.33546 0.48085 0.0
N12 N 0.00572 0.34799 0.47467 0.0
C13 C 0.01883 0.34388 0.45156 0.0
C14 C 0.01877 0.32671 0.47245 0.0
C15 C 0.00996 0.35233 0.46031 0.0
C16 C 1.00349 0.31221 0.41678 0.0
N17 N 0.01477 0.32348 0.41362 0.0
C18 C 0.99906 0.32859 0.39054 0.0
C19 C 0.01269 0.33193 0.40104 0.0
C20 C 0.98756 0.31626 0.39283 0.0
C21 C 0.98978 0.30829 0.40644 0.0
H22 H 0.00552 0.3056 0.4268 0.0
H23 H 0.02172 0.34077 0.39862 0.0
C24 C 0.06571 0.36639 0.46003 0.0
N25 N 0.0585 0.35302 0.46478 0.0
C26 C 0.06802 0.38043 0.47042 0.0
C27 C 0.05674 0.36643 0.491 0.0
C28 C 0.05457 0.35265 0.48014 0.0
C29 C 0.06299 0.38061 0.48588 0.0
H30 H 0.06901 0.36626 0.44786 0.0
H31 H 0.04914 0.34177 0.48371 0.0
C32 C 0.03257 0.29754 0.4061 0.0
N33 N 0.01306 0.28383 0.37814 0.0
C34 C 0.0221 0.28383 0.40639 0.0
C35 C 0.03327 0.30413 0.39151 0.0
C36 C 0.0123 0.2771 0.39215 0.0
C37 C 0.02326 0.29707 0.37753 0.0
C38 C 0.0762 0.32653 0.46128 0.0
C39 C 0.0886 0.33769 0.45901 0.0
C40 C 0.0741 0.32316 0.47708 0.0
C41 C 0.0987 0.34539 0.47267 0.0
C42 C 0.08445 0.33111 0.49042 0.0
N43 N 0.09643 0.34198 0.48796 0.0
C44 C 0.08542 0.33223 0.40853 0.0
C45 C 0.07247 0.30611 0.40002 0.0
C46 C 0.09511 0.33089 0.39666 0.0
N47 N 0.07431 0.31994 0.40984 0.0
C48 C 0.08172 0.30435 0.38787 0.0
C49 C 0.09311 0.31687 0.38602 0.0
H50 H 0.0865 0.34313 0.41643 0.0
H51 H 0.06364 0.2965 0.40145 0.0
C52 C 0.02454 0.28284 0.45193 0.0
N53 N 0.03957 0.28887 0.4536 0.0
C54 C 0.0194 0.26862 0.45727 0.0
C55 C 0.04535 0.26744 0.46674 0.0
C56 C 0.05001 0.28161 0.46088 0.0
C57 C 0.02984 0.26066 0.4648 0.0
H58 H 0.01656 0.28897 0.44606 0.0
H59 H 0.06191 0.28676 0.46205 0.0
O60 O 0.05168 0.34076 0.42607 0.0
O61 O 0.03224 0.32273 0.44955 0.0
O62 O 0.04192 0.30463 0.42007 0.0
O63 O 0.06595 0.3192 0.44812 0.0
H64 H 0.04117 0.3665 0.43399 0.0
H65 H 0.05728 0.33979 0.39521 0.0
H66 H 0.03709 0.38585 0.41518 0.0
H67 H 0.05301 0.35969 0.37714 0.0
H68 H 0.00633 0.3323 0.49229 0.0
H69 H 0.02208 0.34721 0.44009 0.0
H70 H 0.02215 0.31675 0.47737 0.0
H71 H 0.00642 0.36232 0.45568 0.0
H72 H 0.99772 0.33533 0.38047 0.0
H73 H 0.98135 0.29861 0.40865 0.0
H74 H 0.07307 0.39114 0.46616 0.0
H75 H 0.05269 0.36613 0.50282 0.0
H76 H 0.02147 0.27847 0.4175 0.0
H77 H 0.0413 0.31471 0.39105 0.0
H78 H 1.00407 0.26655 0.39224 0.0
H79 H 0.02358 0.30216 0.36621 0.0
H80 H 0.09032 0.34047 0.44685 0.0
H81 H 0.06445 0.31465 0.47904 0.0
H82 H 0.10831 0.35412 0.47112 0.0
H83 H 0.08293 0.3287 0.50274 0.0
H84 H 0.1038 0.34079 0.39553 0.0
H85 H 0.08002 0.29329 0.38003 0.0
H86 H 0.00739 0.26379 0.45518 0.0
H87 H 0.05379 0.26191 0.47272 0.0
Li88 Li 0.99158 0.77995 0.63279 0.0
Li89 Li 1.00307 0.76597 0.65292 0.0
Li90 Li 0.98412 0.75231 0.63062 0.0
Li91 Li 0.97627 0.76708 0.65308 0.0
C92 C 0.01395 0.7686 0.61822 0.0
N93 N 0.03331 0.77785 0.59601 0.0
C94 C 0.02952 0.76954 0.62204 0.0
C95 C 0.00822 0.77217 0.60299 0.0
C96 C 0.03912 0.77428 0.61068 0.0
C97 C 0.01819 0.77688 0.59196 0.0
C98 C 1.00043 0.79224 0.67189 0.0
C99 C 0.00553 0.79302 0.70124 0.0
N100 N 0.0143 0.80747 0.70224 0.0
C101 C 0.00946 0.8071 0.6732 0.0
C102 C 0.99841 0.78513 0.68601 0.0
C103 C 0.01639 0.81461 0.68866 0.0
C104 C 0.98557 0.80406 0.61402 0.0
N105 N 0.99629 0.79828 0.62292 0.0
C106 C 0.01566 0.81914 0.61863 0.0
C107 C 0.01105 0.80561 0.62552 0.0
C108 C 1.00488 0.82538 0.6094 0.0
C109 C 0.98964 0.81781 0.60718 0.0
H110 H 0.97389 0.79803 0.61232 0.0
H111 H 0.01926 0.80087 0.63291 0.0
C112 C 0.0241 0.75878 0.67852 0.0
N113 N 0.02165 0.76805 0.66678 0.0
C114 C 0.03765 0.76219 0.68924 0.0
C115 C 0.04565 0.78477 0.67581 0.0
C116 C 0.0321 0.78078 0.66523 0.0
C117 C 0.0486 0.77545 0.68807 0.0
H118 H 0.01548 0.74895 0.67983 0.0
H119 H 0.02967 0.78814 0.65603 0.0
C120 C 0.95948 0.75904 0.61749 0.0
N121 N 0.93796 0.74032 0.59383 0.0
C122 C 0.94769 0.74853 0.6221 0.0
C123 C 0.96024 0.76016 0.60087 0.0
C124 C 0.93694 0.73914 0.60995 0.0
C125 C 0.94928 0.75056 0.58909 0.0
C126 C 0.99088 0.73519 0.65638 0.0
C127 C 1.00228 0.73106 0.64771 0.0
C128 C 0.98468 0.72545 0.66718 0.0
C129 C 0.00727 0.71722 0.65001 0.0
C130 C 0.99001 0.71172 0.66915 0.0
N131 N 1.00109 0.70793 0.6606 0.0
C132 C 0.98448 0.73275 0.60132 0.0
C133 C 0.9692 0.72089 0.61971 0.0
C134 C 0.98178 0.71881 0.59072 0.0
N135 N 0.97841 0.73349 0.6156 0.0
C136 C 0.96622 0.70665 0.60946 0.0
C137 C 0.97276 0.70544 0.59486 0.0
H138 H 0.99178 0.74284 0.59835 0.0
H139 H 0.96448 0.72182 0.63115 0.0
C140 C 0.96071 0.78444 0.67282 0.0
N141 N 0.96167 0.76959 0.66722 0.0
C142 C 0.95132 0.78724 0.6846 0.0
C143 C 0.9436 0.75937 0.68414 0.0
C144 C 0.95331 0.75711 0.67248 0.0
C145 C 0.94265 0.77463 0.69054 0.0
H146 H 0.9676 0.79412 0.66848 0.0
H147 H 0.95439 0.74542 0.66782 0.0
O148 O 1.00443 0.76412 0.62932 0.0
O149 O 0.99391 0.78452 0.65682 0.0
O150 O 0.97035 0.76797 0.62919 0.0
O151 O 0.98563 0.74859 0.6543 0.0
H152 H 0.03415 0.76651 0.6336 0.0
H153 H 0.99622 0.77149 0.59979 0.0
H154 H 0.0512 0.77508 0.6135 0.0
H155 H 0.01391 0.7798 0.5802 0.0
H156 H 1.00413 0.78763 0.71226 0.0
H157 H 0.01118 0.81272 0.66237 0.0
H158 H 0.99158 0.77355 0.68517 0.0
H159 H 0.02346 0.82609 0.68986 0.0
H160 H 0.02747 0.82482 0.62075 0.0
H161 H 0.98106 0.8224 0.60012 0.0
H162 H 0.03947 0.75455 0.69836 0.0
H163 H 0.05352 0.79529 0.67463 0.0
H164 H 0.94698 0.74751 0.63493 0.0
H165 H 0.96924 0.7683 0.5971 0.0
H166 H 0.92782 0.73087 0.61333 0.0
H167 H 0.94978 0.75122 0.57617 0.0
H168 H 0.00723 0.73839 0.63929 0.0
H169 H 0.97585 0.72848 0.67396 0.0
H170 H 0.01607 0.71388 0.64338 0.0
H171 H 0.98532 0.70408 0.67748 0.0
H172 H 0.98731 0.71836 0.57977 0.0
H173 H 0.95912 0.69664 0.61306 0.0
H174 H 0.95126 0.79921 0.68934 0.0
H175 H 0.937 0.74929 0.68817 0.0
Li176 Li 0.5376 0.82351 0.92271 0.0
Li177 Li 0.55525 0.8358 0.94579 0.0
Li178 Li 0.56414 0.82209 0.92243 0.0
Li179 Li 0.54782 0.80749 0.9419 0.0
C180 C 0.55195 0.85295 0.9155 0.0
N181 N 0.54578 0.87786 0.90007 0.0
C182 C 0.54543 0.86435 0.92359 0.0
C183 C 0.5556 0.85439 0.89969 0.0
C184 C 0.54232 0.87681 0.91554 0.0
C185 C 0.55231 0.86702 0.89205 0.0
C186 C 0.52479 0.82917 0.95377 0.0
C187 C 0.50989 0.83042 0.97614 0.0
N188 N 0.50385 0.84195 0.96986 0.0
C189 C 0.51832 0.84092 0.94747 0.0
C190 C 0.52044 0.82376 0.96814 0.0
C191 C 0.5078 0.84727 0.9558 0.0
C192 C 0.50688 0.8135 0.9131 0.0
N193 N 0.5192 0.82266 0.90883 0.0
C194 C 0.50529 0.82519 0.88335 0.0
C195 C 0.51861 0.82865 0.89436 0.0
C196 C 0.49252 0.81531 0.88719 0.0
C197 C 0.49337 0.80965 0.90243 0.0
H198 H 0.5078 0.80849 0.92445 0.0
H199 H 0.52863 0.83543 0.89094 0.0
C200 C 0.57083 0.86621 0.95897 0.0
N201 N 0.56087 0.85372 0.96212 0.0
C202 C 0.57398 0.88012 0.96977 0.0
C203 C 0.55694 0.86786 0.98709 0.0
C204 C 0.55447 0.85411 0.9762 0.0
C205 C 0.56652 0.88132 0.98378 0.0
H206 H 0.57603 0.86547 0.94782 0.0
H207 H 0.54709 0.84387 0.9788 0.0
C208 C 0.53725 0.79704 0.90369 0.0
N209 N 0.51793 0.78264 0.87588 0.0
C210 C 0.52534 0.78483 0.9048 0.0
C211 C 0.53945 0.80182 0.88842 0.0
C212 C 0.51567 0.77772 0.8906 0.0
C213 C 0.52952 0.79441 0.87451 0.0
C214 C 0.57815 0.82669 0.96059 0.0
C215 C 0.59146 0.83732 0.95997 0.0
C216 C 0.57392 0.82338 0.97576 0.0
C217 C 0.60033 0.84459 0.97463 0.0
C218 C 0.5831 0.8309 0.99014 0.0
N219 N 0.59599 0.84127 0.98928 0.0
C220 C 0.5879 0.83432 0.90524 0.0
C221 C 0.57957 0.80685 0.90025 0.0
C222 C 0.59744 0.83371 0.89311 0.0
N223 N 0.57908 0.82102 0.90835 0.0
C224 C 0.58894 0.80569 0.88806 0.0
C225 C 0.59788 0.81926 0.88418 0.0
H226 H 0.58718 0.84544 0.91183 0.0
H227 H 0.57227 0.79651 0.90287 0.0
C228 C 0.52758 0.78497 0.95278 0.0
N229 N 0.54248 0.78906 0.95125 0.0
C230 C 0.52222 0.77136 0.9592 0.0
C231 C 0.54765 0.76621 0.96208 0.0
C232 C 0.55256 0.78008 0.95573 0.0
C233 C 0.53229 0.76177 0.96388 0.0
H234 H 0.5198 0.79223 0.9488 0.0
H235 H 0.56434 0.78364 0.95427 0.0
O236 O 0.55528 0.84075 0.92321 0.0
O237 O 0.53505 0.82267 0.94577 0.0
O238 O 0.5465 0.80453 0.91753 0.0
O239 O 0.56905 0.81986 0.94644 0.0
H240 H 0.54292 0.86369 0.93599 0.0
H241 H 0.56071 0.84571 0.89328 0.0
H242 H 0.53723 0.88568 0.92164 0.0
H243 H 0.55494 0.86819 0.87975 0.0
H244 H 0.50651 0.82643 0.98733 0.0
H245 H 0.52122 0.84495 0.93614 0.0
H246 H 0.52531 0.81465 0.97319 0.0
H247 H 0.50272 0.85638 0.95106 0.0
H248 H 0.50509 0.82995 0.87181 0.0
H249 H 0.48391 0.80178 0.90579 0.0
H250 H 0.58185 0.88991 0.96686 0.0
H251 H 0.55077 0.86801 0.99756 0.0
H252 H 0.52347 0.78101 0.91654 0.0
H253 H 0.54853 0.81137 0.88739 0.0
H254 H 0.50632 0.76834 0.89129 0.0
H255 H 0.53099 0.7981 0.86264 0.0
H256 H 0.5948 0.84005 0.94829 0.0
H257 H 0.56357 0.81525 0.97641 0.0
H258 H 0.61062 0.85293 0.97436 0.0
H259 H 0.57994 0.82854 1.00198 0.0
H260 H 0.60428 0.84442 0.89066 0.0
H261 H 0.58875 0.79435 0.88136 0.0
H262 H 0.51027 0.7682 0.96016 0.0
H263 H 0.55575 0.75911 0.96563 0.0
Li264 Li 0.48846 0.27895 0.13107 0.0
Li265 Li 0.49802 0.263 0.15007 0.0
Li266 Li 0.48249 0.25064 0.12448 0.0
Li267 Li 0.47083 0.26269 0.14741 0.0
C268 C 0.51035 0.26835 0.11496 0.0
N269 N 0.52598 0.27622 0.08929 0.0
C270 C 0.52616 0.27186 0.11731 0.0
C271 C 0.50251 0.26875 0.09954 0.0
C272 C 0.53386 0.27584 0.10418 0.0
C273 C 0.5106 0.27278 0.08672 0.0
C274 C 0.49432 0.28724 0.17036 0.0
C275 C 0.49838 0.28612 0.19947 0.0
N276 N 0.50854 0.29983 0.20145 0.0
C277 C 0.50473 0.30136 0.17268 0.0
C278 C 0.49105 0.27957 0.18384 0.0
C279 C 0.51182 0.30753 0.1885 0.0
C280 C 0.48317 0.30465 0.11456 0.0
N281 N 0.4936 0.29816 0.123 0.0
C282 C 0.51352 0.31882 0.11956 0.0
C283 C 0.50846 0.30504 0.12582 0.0
C284 C 0.50311 0.32584 0.11063 0.0
C285 C 0.4877 0.31864 0.10831 0.0
H286 H 0.47139 0.29894 0.11265 0.0
H287 H 0.51645 0.29965 0.13274 0.0
C288 C 0.51674 0.25419 0.17691 0.0
N289 N 0.51563 0.26388 0.16529 0.0
C290 C 0.52983 0.25645 0.18817 0.0
C291 C 0.54025 0.27884 0.17561 0.0
C292 C 0.52707 0.27598 0.16442 0.0
C293 C 0.54171 0.26898 0.18765 0.0
H294 H 0.50746 0.24492 0.17776 0.0
H295 H 0.52576 0.28367 0.15524 0.0
C296 C 0.45604 0.26002 0.11157 0.0
N297 N 0.43156 0.24886 0.08758 0.0
C298 C 0.44305 0.25061 0.11532 0.0
C299 C 0.45647 0.26399 0.0957 0.0
C300 C 0.43082 0.24502 0.103 0.0
C301 C 0.44402 0.25816 0.08372 0.0
C302 C 0.48429 0.23223 0.1539 0.0
C303 C 0.49338 0.22292 0.14664 0.0
C304 C 0.47876 0.22872 0.16845 0.0
C305 C 0.49674 0.2102 0.15406 0.0
C306 C 0.48239 0.21592 0.1755 0.0
N307 N 0.49123 0.20699 0.16821 0.0
C308 C 0.49286 0.2304 0.10175 0.0
C309 C 0.46638 0.22397 0.10196 0.0
C310 C 0.49226 0.2177 0.0899 0.0
N311 N 0.48003 0.23343 0.10744 0.0
C312 C 0.46526 0.211 0.09014 0.0
C313 C 0.47835 0.20774 0.08401 0.0
H314 H 0.5037 0.23749 0.10684 0.0
H315 H 0.45642 0.22617 0.10708 0.0
C316 C 0.45225 0.27648 0.16638 0.0
N317 N 0.45441 0.26238 0.15966 0.0
C318 C 0.44217 0.27735 0.17783 0.0
C319 C 0.43629 0.24914 0.17481 0.0
C320 C 0.44645 0.24882 0.16329 0.0
C321 C 0.43428 0.26357 0.18246 0.0
H322 H 0.4589 0.28705 0.16339 0.0
H323 H 0.44841 0.23777 0.1577 0.0
O324 O 0.50261 0.2646 0.12773 0.0
O325 O 0.4876 0.28078 0.15492 0.0
O326 O 0.46804 0.26577 0.12353 0.0
O327 O 0.48075 0.24465 0.14679 0.0
H328 H 0.53243 0.2715 0.12913 0.0
H329 H 0.4903 0.26591 0.09752 0.0
H330 H 0.54609 0.27862 0.10582 0.0
H331 H 0.50466 0.27314 0.07473 0.0
H332 H 0.49604 0.28027 0.21001 0.0
H333 H 0.50739 0.30741 0.16235 0.0
H334 H 0.48309 0.26857 0.18221 0.0
H335 H 0.51996 0.3184 0.19048 0.0
H336 H 0.52552 0.32369 0.12145 0.0
H337 H 0.4792 0.32374 0.10178 0.0
H338 H 0.53052 0.24872 0.19745 0.0
H339 H 0.54921 0.2886 0.17481 0.0
H340 H 0.44248 0.24751 0.12755 0.0
H341 H 0.46625 0.2716 0.09267 0.0
H342 H 0.42075 0.23763 0.10569 0.0
H343 H 0.44422 0.26109 0.07137 0.0
H344 H 0.49786 0.22555 0.13547 0.0
H345 H 0.47194 0.23595 0.17441 0.0
H346 H 0.50376 0.2029 0.14859 0.0
H347 H 0.47825 0.21311 0.18679 0.0
H348 H 0.5027 0.21532 0.08595 0.0
H349 H 0.45435 0.20346 0.08606 0.0
H350 H 0.44114 0.28872 0.18359 0.0
H351 H 0.43033 0.23827 0.17794 0.0
Li352 Li 0.01205 0.79551 0.18749 0.0
Li353 Li 0.02737 0.78405 0.2088 0.0
Li354 Li 0.00846 0.76738 0.18629 0.0
Li355 Li 0.99651 0.78217 0.20747 0.0
C356 C 0.03487 0.7846 0.17193 0.0
N357 N 0.05038 0.78963 0.14549 0.0
C358 C 0.05026 0.79139 0.1745 0.0
C359 C 0.0274 0.78029 0.15594 0.0
C360 C 0.0579 0.79386 0.16096 0.0
C361 C 0.03543 0.78295 0.14272 0.0
C362 C 0.01957 0.81673 0.21335 0.0
C363 C 0.01482 0.84295 0.21632 0.0
N364 N 0.02938 0.84847 0.21418 0.0
C365 C 0.03449 0.82267 0.21121 0.0
C366 C 0.00964 0.82693 0.21594 0.0
C367 C 0.03924 0.83875 0.21167 0.0
C368 C 0.99912 0.81736 0.17032 0.0
N369 N 0.01247 0.81284 0.17447 0.0
C370 C 0.02519 0.83199 0.15949 0.0
C371 C 0.02544 0.82011 0.16947 0.0
C372 C 0.01152 0.83676 0.15484 0.0
C373 C 0.99839 0.82935 0.16057 0.0
H374 H 0.98895 0.81153 0.1745 0.0
H375 H 0.03604 0.81676 0.17322 0.0
C376 C 0.05647 0.77553 0.21323 0.0
N377 N 0.04839 0.78545 0.22037 0.0
C378 C 0.07185 0.7763 0.2189 0.0
C379 C 0.07067 0.79741 0.23953 0.0
C380 C 0.05523 0.79624 0.23342 0.0
C381 C 0.0794 0.78748 0.23215 0.0
H382 H 0.05106 0.76716 0.20273 0.0
H383 H 0.04886 0.80426 0.23889 0.0
C384 C 0.98118 0.77369 0.17139 0.0
N385 N 0.95757 0.76023 0.1471 0.0
C386 C 0.96806 0.76472 0.1754 0.0
C387 C 0.9822 0.77602 0.15508 0.0
C388 C 0.95627 0.75796 0.16293 0.0
C389 C 0.97017 0.76905 0.14296 0.0
C390 C 0.00765 0.74998 0.20969 0.0
C391 C 0.99298 0.74109 0.20618 0.0
C392 C 0.01998 0.74251 0.21137 0.0
C393 C 0.9909 0.72482 0.20435 0.0
C394 C 0.01743 0.72621 0.20943 0.0
N395 N 1.00306 0.71778 0.20598 0.0
C396 C 0.0201 0.74419 0.16776 0.0
C397 C 0.99344 0.7378 0.16573 0.0
C398 C 0.02034 0.73063 0.15725 0.0
N399 N 0.00679 0.74772 0.17164 0.0
C400 C 0.99318 0.72392 0.1554 0.0
C401 C 0.00676 0.72024 0.15088 0.0
H402 H 0.03065 0.75192 0.17289 0.0
H403 H 0.98297 0.74048 0.16915 0.0
C404 C 0.97023 0.79492 0.21519 0.0
N405 N 0.9774 0.78288 0.21795 0.0
C406 C 0.95611 0.79567 0.22056 0.0
C407 C 0.95641 0.77138 0.23124 0.0
C408 C 0.97072 0.77124 0.22595 0.0
C409 C 0.94878 0.78372 0.2286 0.0
H410 H 0.97529 0.80385 0.20837 0.0
H411 H 0.97629 0.76161 0.22799 0.0
O412 O 0.02722 0.7821 0.18504 0.0
O413 O 0.01468 0.80098 0.21248 0.0
O414 O 0.99278 0.7805 0.18345 0.0
O415 O 0.00994 0.7659 0.21095 0.0
H416 H 0.0562 0.79486 0.18681 0.0
H417 H 0.01556 0.77485 0.15376 0.0
H418 H 0.06979 0.79916 0.16276 0.0
H419 H 0.02978 0.77968 0.13027 0.0
H420 H 0.00726 0.85098 0.21829 0.0
H421 H 0.04226 0.8149 0.20896 0.0
H422 H 0.99807 0.82253 0.21763 0.0
H423 H 0.05073 0.8435 0.20993 0.0
H424 H 0.03563 0.83754 0.15562 0.0
H425 H 0.98759 0.83258 0.15726 0.0
H426 H 0.07774 0.76813 0.21284 0.0
H427 H 0.0758 0.80637 0.24963 0.0
H428 H 0.96704 0.7629 0.18798 0.0
H429 H 0.99213 0.78323 0.15182 0.0
H430 H 0.94609 0.75091 0.16583 0.0
H431 H 0.97082 0.77071 0.13028 0.0
H432 H 0.98333 0.74669 0.20453 0.0
H433 H 0.0314 0.74921 0.21407 0.0
H434 H 0.97961 0.7178 0.2015 0.0
H435 H 0.02687 0.72027 0.21063 0.0
H436 H 0.0311 0.72815 0.15438 0.0
H437 H 0.98244 0.71623 0.15083 0.0
H438 H 0.95074 0.80534 0.21795 0.0
H439 H 0.9514 0.76189 0.23742 0.0
Li440 Li 0.52751 0.82222 0.38749 0.0
Li441 Li 0.51027 0.80378 0.36485 0.0
Li442 Li 0.52678 0.79433 0.38691 0.0
Li443 Li 0.54143 0.80797 0.3669 0.0
C444 C 0.50277 0.80466 0.40227 0.0
N445 N 0.48832 0.80298 0.42991 0.0
C446 C 0.48714 0.80375 0.40102 0.0
C447 C 0.51106 0.80474 0.41757 0.0
C448 C 0.48004 0.80292 0.41514 0.0
C449 C 0.50355 0.80385 0.4314 0.0
C450 C 0.5266 0.83848 0.36287 0.0
C451 C 0.53987 0.86462 0.36171 0.0
N452 N 0.52718 0.87014 0.36456 0.0
C453 C 0.51368 0.8444 0.36571 0.0
C454 C 0.5398 0.84864 0.36081 0.0
C455 C 0.51421 0.86045 0.36655 0.0
C456 C 0.54115 0.85309 0.40471 0.0
N457 N 0.52827 0.84193 0.40152 0.0
C458 C 0.51552 0.85801 0.41826 0.0
C459 C 0.51552 0.84432 0.40788 0.0
C460 C 0.52864 0.86968 0.42186 0.0
C461 C 0.54154 0.86717 0.41476 0.0
H462 H 0.55114 0.85106 0.39943 0.0
H463 H 0.50523 0.83568 0.40482 0.0
C464 C 0.47838 0.78948 0.35631 0.0
N465 N 0.48934 0.8008 0.35247 0.0
C466 C 0.46301 0.78838 0.35024 0.0
C467 C 0.47018 0.81036 0.33593 0.0
C468 C 0.48544 0.81103 0.34226 0.0
C469 C 0.45851 0.79906 0.34006 0.0
H470 H 0.48148 0.78158 0.36465 0.0
H471 H 0.49412 0.82014 0.33943 0.0
C472 C 0.55626 0.81323 0.4035 0.0
N473 N 0.57978 0.81654 0.42869 0.0
C474 C 0.56948 0.8079 0.40064 0.0
C475 C 0.55507 0.82041 0.41911 0.0
C476 C 0.58123 0.80963 0.41356 0.0
C477 C 0.56707 0.82192 0.4317 0.0
C478 C 0.52414 0.77256 0.36226 0.0
C479 C 0.53732 0.76711 0.36696 0.0
C480 C 0.51035 0.76204 0.35829 0.0
C481 C 0.53646 0.75118 0.36772 0.0
C482 C 0.50996 0.74619 0.35918 0.0
N483 N 0.52291 0.74114 0.36385 0.0
C484 C 0.51325 0.76785 0.40173 0.0
C485 C 0.53973 0.77531 0.40911 0.0
C486 C 0.51268 0.7559 0.41175 0.0
N487 N 0.52664 0.77738 0.40065 0.0
C488 C 0.53965 0.76366 0.41937 0.0
C489 C 0.526 0.75378 0.42092 0.0
H490 H 0.50295 0.76958 0.39487 0.0
H491 H 0.55031 0.78261 0.40788 0.0
C492 C 0.57221 0.82154 0.36092 0.0
N493 N 0.56089 0.80868 0.35677 0.0
C494 C 0.58663 0.8218 0.35586 0.0
C495 C 0.57789 0.79553 0.34242 0.0
C496 C 0.56355 0.79585 0.34752 0.0
C497 C 0.58984 0.80859 0.34663 0.0
H498 H 0.57025 0.83152 0.36867 0.0
H499 H 0.55465 0.78562 0.34435 0.0
O500 O 0.50991 0.80555 0.38857 0.0
O501 O 0.52645 0.82287 0.36261 0.0
O502 O 0.5447 0.81172 0.39095 0.0
O503 O 0.52468 0.78817 0.36201 0.0
H504 H 0.48056 0.80386 0.38932 0.0
H505 H 0.52313 0.80531 0.41874 0.0
H506 H 0.46795 0.80226 0.41436 0.0
H507 H 0.50982 0.80384 0.44331 0.0
H508 H 0.55001 0.87263 0.36019 0.0
H509 H 0.50344 0.8367 0.36759 0.0
H510 H 0.54989 0.84424 0.3586 0.0
H511 H 0.50433 0.86521 0.36889 0.0
H512 H 0.50525 0.85959 0.42321 0.0
H513 H 0.55189 0.87589 0.4172 0.0
H514 H 0.45472 0.77924 0.35369 0.0
H515 H 0.46755 0.81905 0.32836 0.0
H516 H 0.57059 0.80228 0.38864 0.0
H517 H 0.54505 0.82485 0.4215 0.0
H518 H 0.59148 0.80547 0.41155 0.0
H519 H 0.56628 0.82742 0.44385 0.0
H520 H 0.54805 0.77515 0.37034 0.0
H521 H 0.50005 0.76608 0.35466 0.0
H522 H 0.54654 0.74681 0.37147 0.0
H523 H 0.49936 0.73791 0.3562 0.0
H524 H 0.50187 0.74861 0.41255 0.0
H525 H 0.55026 0.76229 0.42591 0.0
H526 H 0.59537 0.83211 0.35969 0.0
H527 H 0.57958 0.78508 0.33523 0.0
Li528 Li 0.51207 0.2946 0.68623 0.0
Li529 Li 0.52667 0.28327 0.70852 0.0
Li530 Li 0.5087 0.26616 0.68647 0.0
Li531 Li 0.49655 0.28078 0.7075 0.0
C532 C 0.53348 0.28182 0.67033 0.0
N533 N 0.54568 0.28336 0.64125 0.0
C534 C 0.54906 0.28667 0.67057 0.0
C535 C 0.52413 0.27767 0.65531 0.0
C536 C 0.55501 0.2874 0.65573 0.0
C537 C 0.53049 0.27854 0.64074 0.0
C538 C 0.52133 0.31188 0.72231 0.0
C539 C 0.52671 0.32407 0.75044 0.0
N540 N 0.53709 0.33554 0.74603 0.0
C541 C 0.532 0.3238 0.71803 0.0
C542 C 0.51861 0.31199 0.73862 0.0
C543 C 0.53989 0.33565 0.73021 0.0
C544 C 0.499 0.31517 0.66731 0.0
N545 N 0.51244 0.3114 0.67269 0.0
C546 C 0.52554 0.33074 0.6582 0.0
C547 C 0.5256 0.319 0.66841 0.0
C548 C 0.51179 0.33484 0.65234 0.0
C549 C 0.49841 0.32682 0.6571 0.0
H550 H 0.48866 0.30901 0.67084 0.0
H551 H 0.5362 0.31596 0.67292 0.0
C552 C 0.5518 0.27598 0.73101 0.0
N553 N 0.54766 0.28627 0.721 0.0
C554 C 0.56713 0.27693 0.73734 0.0
C555 C 0.57383 0.29936 0.72357 0.0
C556 C 0.55843 0.29795 0.71745 0.0
C557 C 0.57861 0.28859 0.73348 0.0
H558 H 0.54328 0.26665 0.7337 0.0
H559 H 0.55516 0.30598 0.70936 0.0
C560 C 0.48045 0.27188 0.67209 0.0
N561 N 0.45516 0.25804 0.65005 0.0
C562 C 0.46816 0.26265 0.67741 0.0
C563 C 0.47976 0.27429 0.65562 0.0
C564 C 0.45551 0.2557 0.66606 0.0
C565 C 0.46692 0.26712 0.64465 0.0
C566 C 0.5077 0.249 0.70978 0.0
C567 C 0.49301 0.24028 0.70824 0.0
C568 C 0.5199 0.24135 0.7091 0.0
C569 C 0.49076 0.224 0.70611 0.0
C570 C 0.51718 0.22505 0.70694 0.0
N571 N 0.50279 0.21678 0.7055 0.0
C572 C 0.52006 0.24227 0.66836 0.0
C573 C 0.4934 0.23646 0.66633 0.0
C574 C 0.52005 0.22839 0.65826 0.0
N575 N 0.50687 0.24621 0.67211 0.0
C576 C 0.49287 0.22239 0.65622 0.0
C577 C 0.50632 0.21813 0.65196 0.0
H578 H 0.53071 0.24991 0.6733 0.0
H579 H 0.48303 0.2394 0.66974 0.0
C580 C 0.46966 0.29293 0.71334 0.0
N581 N 0.47752 0.2819 0.71792 0.0
C582 C 0.45542 0.29373 0.71839 0.0
C583 C 0.45731 0.27188 0.73304 0.0
C584 C 0.47161 0.27156 0.72779 0.0
C585 C 0.44875 0.28299 0.72826 0.0
H586 H 0.47433 0.30102 0.70541 0.0
H587 H 0.47778 0.26276 0.73134 0.0
O588 O 0.52745 0.28119 0.68474 0.0
O589 O 0.51353 0.30018 0.71059 0.0
O590 O 0.49283 0.27896 0.68308 0.0
O591 O 0.51008 0.26494 0.7113 0.0
H592 H 0.55649 0.28986 0.68208 0.0
H593 H 0.5121 0.27368 0.65494 0.0
H594 H 0.56704 0.29118 0.65573 0.0
H595 H 0.52337 0.27534 0.62903 0.0
H596 H 0.52474 0.32432 0.76312 0.0
H597 H 0.53421 0.32385 0.70544 0.0
H598 H 0.51034 0.30284 0.74209 0.0
H599 H 0.54822 0.34493 0.7271 0.0
H600 H 0.53619 0.33668 0.65512 0.0
H601 H 0.4875 0.32932 0.65277 0.0
H602 H 0.56994 0.26817 0.74473 0.0
H603 H 0.58193 0.30881 0.72037 0.0
H604 H 0.46843 0.26072 0.69011 0.0
H605 H 0.48897 0.28172 0.65134 0.0
H606 H 0.44597 0.24843 0.66999 0.0
H607 H 0.46626 0.26884 0.63186 0.0
H608 H 0.48342 0.246 0.70842 0.0
H609 H 0.53132 0.24791 0.7099 0.0
H610 H 0.47943 0.2171 0.70483 0.0
H611 H 0.5265 0.21897 0.70628 0.0
H612 H 0.53075 0.22584 0.65529 0.0
H613 H 0.482 0.21481 0.65202 0.0
H614 H 0.44975 0.30279 0.71451 0.0
H615 H 0.45289 0.26315 0.74042 0.0
Li616 Li 0.02828 0.32348 0.88766 0.0
Li617 Li 0.00993 0.30515 0.86513 0.0
Li618 Li 0.0263 0.29535 0.88657 0.0
Li619 Li 0.04113 0.30849 0.86644 0.0
C620 C 1.00198 0.30261 0.90085 0.0
N621 N 0.9855 0.29185 0.92486 0.0
C622 C 0.98725 0.29401 0.89657 0.0
C623 C 0.00829 0.30583 0.91735 0.0
C624 C 0.97911 0.28865 0.90889 0.0
C625 C 0.9998 0.30025 0.9293 0.0
C626 C 0.0291 0.33982 0.8629 0.0
C627 C 0.04601 0.36444 0.86322 0.0
N628 N 0.03426 0.37195 0.86463 0.0
C629 C 0.01717 0.34777 0.86424 0.0
C630 C 0.04363 0.3482 0.86232 0.0
C631 C 0.02002 0.36402 0.86514 0.0
C632 C 0.04268 0.35397 0.90574 0.0
N633 N 0.02958 0.34319 0.90172 0.0
C634 C 0.0166 0.35943 0.91795 0.0
C635 C 0.01666 0.34578 0.90751 0.0
C636 C 0.02995 0.37075 0.9225 0.0
C637 C 0.0431 0.36789 0.91609 0.0
H638 H 0.05284 0.35173 0.90099 0.0
H639 H 0.00631 0.3372 0.904 0.0
C640 C 0.98178 0.29153 0.84103 0.0
N641 N 0.9887 0.30298 0.85345 0.0
C642 C 0.96632 0.29013 0.83483 0.0
C643 C 0.96525 0.31236 0.85403 0.0
C644 C 0.98061 0.31327 0.8599 0.0
C645 C 0.9576 0.30056 0.84138 0.0
H646 H 0.98812 0.2832 0.83611 0.0
H647 H 0.986 0.32208 0.87003 0.0
C648 C 0.05617 0.31333 0.90332 0.0
N649 N 0.07916 0.31622 0.92903 0.0
C650 C 0.06932 0.30767 0.90085 0.0
C651 C 0.05475 0.32048 0.91887 0.0
C652 C 0.0808 0.30923 0.914 0.0
C653 C 0.06649 0.32183 0.9317 0.0
C654 C 0.02367 0.27361 0.86183 0.0
C655 C 0.03725 0.26842 0.86507 0.0
C656 C 0.00995 0.2629 0.85916 0.0
C657 C 0.03687 0.25253 0.86567 0.0
C658 C 0.01006 0.24711 0.85983 0.0
N659 N 0.0234 0.2423 0.86306 0.0
C660 C 0.01272 0.26811 0.90083 0.0
C661 C 0.03906 0.27603 0.90866 0.0
C662 C 0.01222 0.25609 0.91075 0.0
N663 N 0.02597 0.27805 0.90014 0.0
C664 C 0.03909 0.26423 0.91872 0.0
C665 C 0.02553 0.25409 0.92007 0.0
H666 H 1.00245 0.26944 0.89364 0.0
H667 H 0.04961 0.28344 0.90761 0.0
C668 C 0.0729 0.31965 0.86313 0.0
N669 N 0.06044 0.30885 0.85605 0.0
C670 C 0.08727 0.31942 0.85817 0.0
C671 C 0.07602 0.29726 0.83817 0.0
C672 C 0.06184 0.29781 0.84363 0.0
C673 C 0.08918 0.30802 0.84559 0.0
H674 H 0.07185 0.32824 0.87313 0.0
H675 H 0.05203 0.28909 0.8382 0.0
O676 O 0.01017 0.30784 0.88895 0.0
O677 O 0.02668 0.32397 0.86267 0.0
O678 O 0.04487 0.31203 0.89053 0.0
O679 O 0.02381 0.28916 0.86173 0.0
H680 H 0.98221 0.29132 0.88385 0.0
H681 H 0.01965 0.31249 0.92087 0.0
H682 H 0.96772 0.28191 0.90575 0.0
H683 H 1.00457 0.3026 0.94211 0.0
H684 H 0.05722 0.37107 0.86285 0.0
H685 H 0.00588 0.34149 0.86478 0.0
H686 H 0.05297 0.34223 0.86128 0.0
H687 H 0.01091 0.37033 0.8663 0.0
H688 H 0.0061 0.36117 0.92226 0.0
H689 H 0.05369 0.37618 0.91929 0.0
H690 H 0.96119 0.28064 0.82527 0.0
H691 H 0.95947 0.32096 0.85949 0.0
H692 H 0.07051 0.30185 0.88899 0.0
H693 H 0.04474 0.32503 0.92101 0.0
H694 H 0.09099 0.30483 0.91227 0.0
H695 H 0.06554 0.32735 0.94379 0.0
H696 H 0.04794 0.27661 0.86736 0.0
H697 H 0.99935 0.26678 0.8568 0.0
H698 H 0.04728 0.24835 0.86828 0.0
H699 H 0.99953 0.23868 0.85787 0.0
H700 H 1.00146 0.24859 0.91128 0.0
H701 H 0.04975 0.26294 0.92522 0.0
H702 H 0.09683 0.32815 0.86425 0.0
H703 H 0.07672 0.28811 0.82856 0.0
Li704 Li 0.42798 0.09834 0.29975 0.0
Li705 Li 0.40533 0.0842 0.28064 0.0
Li706 Li 0.42761 0.09647 0.26893 0.0
Li707 Li 0.41067 0.11299 0.28227 0.0
C708 C 0.43718 0.07159 0.28589 0.0
N709 N 0.46019 0.05538 0.29181 0.0
C710 C 0.43378 0.05556 0.28666 0.0
C711 C 0.45226 0.0794 0.28815 0.0
C712 C 0.44558 0.04757 0.28967 0.0
C713 C 0.46373 0.07099 0.29112 0.0
C714 C 0.39501 0.09996 0.3095 0.0
C715 C 0.37015 0.10449 0.31357 0.0
N716 N 0.37192 0.09982 0.32868 0.0
C717 C 0.39662 0.09528 0.3251 0.0
C718 C 0.38169 0.10466 0.30369 0.0
C719 C 0.3848 0.09525 0.3346 0.0
C720 C 0.44745 0.10867 0.3317 0.0
N721 N 0.43851 0.09661 0.3213 0.0
C722 C 0.4418 0.07914 0.3412 0.0
C723 C 0.43563 0.08207 0.32586 0.0
C724 C 0.45087 0.09133 0.35245 0.0
C725 C 0.45373 0.10629 0.34737 0.0
H726 H 0.44949 0.12021 0.32799 0.0
H727 H 0.42827 0.07268 0.31762 0.0
C728 C 0.39154 0.05385 0.26593 0.0
N729 N 0.39036 0.06525 0.278 0.0
C730 C 0.38214 0.03913 0.26421 0.0
C731 C 0.37053 0.04804 0.28746 0.0
C732 C 0.37997 0.06264 0.28856 0.0
C733 C 0.37169 0.03603 0.27529 0.0
H734 H 0.40014 0.05605 0.25795 0.0
H735 H 0.37924 0.07165 0.29818 0.0
C736 C 0.44399 0.12646 0.28026 0.0
N737 N 0.46462 0.14784 0.268 0.0
C738 C 0.43897 0.1367 0.2701 0.0
C739 C 0.4595 0.1272 0.28434 0.0
C740 C 0.44957 0.14741 0.264 0.0
C741 C 0.46975 0.13806 0.27796 0.0
C742 C 0.39459 0.08868 0.25092 0.0
C743 C 0.3979 0.08008 0.237 0.0
C744 C 0.37952 0.08816 0.25341 0.0
C745 C 0.38605 0.07099 0.22584 0.0
C746 C 0.368 0.07891 0.24198 0.0
N747 N 0.37147 0.07059 0.22856 0.0
C748 C 0.44253 0.07923 0.24632 0.0
C749 C 0.44113 0.10449 0.23986 0.0
C750 C 0.44911 0.07587 0.23213 0.0
N751 N 0.43876 0.0934 0.25008 0.0
C752 C 0.44761 0.10158 0.22544 0.0
C753 C 0.45162 0.08702 0.22126 0.0
H754 H 0.44003 0.07023 0.25402 0.0
H755 H 0.43751 0.11542 0.24254 0.0
C756 C 0.4033 0.14265 0.29453 0.0
N757 N 0.40099 0.13113 0.28156 0.0
C758 C 0.39548 0.15506 0.29418 0.0
C759 C 0.38307 0.14364 0.26716 0.0
C760 C 0.39121 0.13155 0.26797 0.0
C761 C 0.38501 0.15567 0.28041 0.0
H762 H 0.4111 0.14211 0.30525 0.0
H763 H 0.38949 0.12231 0.25778 0.0
O764 O 0.42577 0.07962 0.28311 0.0
O765 O 0.40646 0.10004 0.30004 0.0
O766 O 0.43378 0.11594 0.28639 0.0
O767 O 0.40605 0.09743 0.26212 0.0
H768 H 0.42214 0.04938 0.28499 0.0
H769 H 0.45503 0.09179 0.28757 0.0
H770 H 0.44313 0.03516 0.2903 0.0
H771 H 0.47546 0.07687 0.29288 0.0
H772 H 0.35977 0.10805 0.30921 0.0
H773 H 0.40686 0.09165 0.32981 0.0
H774 H 0.38025 0.10834 0.29166 0.0
H775 H 0.38587 0.09161 0.34668 0.0
H776 H 0.43942 0.06732 0.34413 0.0
H777 H 0.46044 0.11618 0.35554 0.0
H778 H 0.38348 0.03008 0.2548 0.0
H779 H 0.36257 0.04607 0.29621 0.0
H780 H 0.427 0.13628 0.26683 0.0
H781 H 0.46359 0.11954 0.2924 0.0
H782 H 0.44585 0.15534 0.25604 0.0
H783 H 0.48179 0.13874 0.28098 0.0
H784 H 0.40949 0.08034 0.23487 0.0
H785 H 0.37677 0.0947 0.26414 0.0
H786 H 0.38845 0.06423 0.21505 0.0
H787 H 0.35629 0.07833 0.24381 0.0
H788 H 0.45206 0.06453 0.22968 0.0
H789 H 0.44896 0.11049 0.21738 0.0
H790 H 0.39767 0.16409 0.30464 0.0
H791 H 0.37503 0.14327 0.25636 0.0
Li792 Li 0.26116 0.15444 0.50422 0.0
Li793 Li 0.2676 0.13108 0.48924 0.0
Li794 Li 0.25665 0.15009 0.47368 0.0
Li795 Li 0.24174 0.13247 0.49058 0.0
C796 C 0.28993 0.16245 0.49016 0.0
N797 N 0.31859 0.18085 0.49439 0.0
C798 C 0.30214 0.15751 0.49846 0.0
C799 C 0.29232 0.17681 0.4841 0.0
C800 C 0.31654 0.16695 0.50044 0.0
C801 C 0.30688 0.18593 0.48635 0.0
C802 C 0.24982 0.12316 0.51866 0.0
C803 C 0.23756 0.09748 0.52303 0.0
N804 N 0.23314 0.10379 0.53702 0.0
C805 C 0.2453 0.12936 0.53318 0.0
C806 C 0.24606 0.10707 0.51363 0.0
C807 C 0.23682 0.11938 0.54226 0.0
C808 C 0.25519 0.17272 0.53168 0.0
N809 N 0.26647 0.17006 0.52286 0.0
C810 C 0.2846 0.18876 0.54163 0.0
C811 C 0.28097 0.17785 0.52753 0.0
C812 C 0.27324 0.19144 0.55114 0.0
C813 C 0.25835 0.18335 0.54602 0.0
H814 H 0.24376 0.16637 0.5277 0.0
H815 H 0.28981 0.1755 0.52056 0.0
C816 C 0.2928 0.11839 0.4794 0.0
N817 N 0.28306 0.11901 0.49072 0.0
C818 C 0.30593 0.1124 0.48279 0.0
C819 C 0.29853 0.10753 0.50922 0.0
C820 C 0.28558 0.11349 0.50529 0.0
C821 C 0.30913 0.10723 0.49809 0.0
H822 H 0.29084 0.12336 0.46815 0.0
H823 H 0.27804 0.11464 0.51436 0.0
C824 C 0.23866 0.16933 0.49217 0.0
N825 N 0.23096 0.19828 0.49786 0.0
C826 C 0.22408 0.1705 0.49542 0.0
C827 C 0.24931 0.18287 0.49177 0.0
C828 C 0.22041 0.18524 0.49827 0.0
C829 C 0.24521 0.1974 0.49469 0.0
C830 C 0.25549 0.11542 0.46046 0.0
C831 C 0.26257 0.11935 0.44691 0.0
C832 C 0.25344 0.10004 0.46397 0.0
C833 C 0.26772 0.10787 0.43723 0.0
C834 C 0.25877 0.0889 0.45401 0.0
N835 N 0.26575 0.09302 0.44097 0.0
C836 C 0.2687 0.16424 0.4474 0.0
C837 C 0.24389 0.16743 0.45125 0.0
C838 C 0.26915 0.17426 0.4354 0.0
N839 N 0.2563 0.16128 0.45525 0.0
C840 C 0.24391 0.17765 0.43949 0.0
C841 C 0.25675 0.18141 0.43153 0.0
H842 H 0.27843 0.15918 0.45083 0.0
H843 H 0.23414 0.16483 0.45761 0.0
C844 C 0.21497 0.12829 0.50439 0.0
N845 N 0.222 0.12167 0.49259 0.0
C846 C 0.20056 0.12121 0.50701 0.0
C847 C 0.20079 0.10055 0.48524 0.0
C848 C 0.21526 0.10808 0.48302 0.0
C849 C 0.19326 0.10711 0.49741 0.0
H850 H 0.22064 0.13909 0.51184 0.0
H851 H 0.22115 0.10306 0.47375 0.0
O852 O 0.27576 0.15331 0.48797 0.0
O853 O 0.25783 0.13277 0.50937 0.0
O854 O 0.24255 0.155 0.48964 0.0
O855 O 0.2505 0.12654 0.47016 0.0
H856 H 0.30052 0.14662 0.50355 0.0
H857 H 0.28306 0.18093 0.47774 0.0
H858 H 0.32606 0.16326 0.50685 0.0
H859 H 0.30887 0.19705 0.4817 0.0
H860 H 0.23449 0.08503 0.5192 0.0
H861 H 0.24825 0.14172 0.5374 0.0
H862 H 0.2496 0.10206 0.50254 0.0
H863 H 0.23317 0.12404 0.55347 0.0
H864 H 0.29623 0.19471 0.54531 0.0
H865 H 0.24928 0.18523 0.55302 0.0
H866 H 0.31372 0.11231 0.47378 0.0
H867 H 0.30061 0.10407 0.5213 0.0
H868 H 0.21566 0.16014 0.49568 0.0
H869 H 0.26065 0.18216 0.48938 0.0
H870 H 0.20917 0.18632 0.50081 0.0
H871 H 0.25336 0.20798 0.49447 0.0
H872 H 0.26412 0.13114 0.44392 0.0
H873 H 0.2478 0.09673 0.47425 0.0
H874 H 0.27329 0.11078 0.42676 0.0
H875 H 0.25733 0.07697 0.45664 0.0
H876 H 0.27918 0.17653 0.42938 0.0
H877 H 0.23414 0.18296 0.43715 0.0
H878 H 0.19513 0.12686 0.51634 0.0
H879 H 0.19566 0.08963 0.47765 0.0
Li880 Li 0.16441 0.04558 0.8019 0.0
Li881 Li 0.14363 0.02897 0.81618 0.0
Li882 Li 0.16248 0.01337 0.79954 0.0
Li883 Li 0.1426 0.02657 0.78476 0.0
C884 C 0.1802 0.03748 0.82954 0.0
N885 N 0.20743 0.05094 0.84846 0.0
C886 C 0.18045 0.04696 0.84432 0.0
C887 C 0.19379 0.03491 0.82432 0.0
C888 C 0.19434 0.05365 0.85372 0.0
C889 C 0.20745 0.04178 0.83409 0.0
C890 C 0.13441 0.05577 0.80641 0.0
C891 C 0.11132 0.06575 0.80614 0.0
N892 N 0.11834 0.07751 0.81812 0.0
C893 C 0.1414 0.06795 0.81868 0.0
C894 C 0.11926 0.05464 0.80006 0.0
C895 C 0.13308 0.07882 0.82445 0.0
C896 C 0.16931 0.07725 0.79244 0.0
N897 N 0.17639 0.06821 0.80194 0.0
C898 C 0.19733 0.09036 0.80989 0.0
C899 C 0.19026 0.07467 0.81065 0.0
C900 C 0.19033 0.09993 0.79999 0.0
C901 C 0.176 0.09289 0.79125 0.0
H902 H 0.15827 0.07232 0.78564 0.0
H903 H 0.19598 0.06772 0.81828 0.0
C904 C 0.11955 0.01775 0.83717 0.0
N905 N 0.13134 0.0296 0.83612 0.0
C906 C 0.11087 0.01814 0.85046 0.0
C907 C 0.12646 0.04279 0.8619 0.0
C908 C 0.13475 0.04202 0.84833 0.0
C909 C 0.11417 0.03078 0.86331 0.0
H910 H 0.11677 0.00781 0.82768 0.0
H911 H 0.14393 0.05153 0.8476 0.0
C912 C 0.16473 0.02855 0.76621 0.0
N913 N 0.16263 0.02789 0.73253 0.0
C914 C 0.16106 0.0143 0.75594 0.0
C915 C 0.16743 0.04246 0.75935 0.0
C916 C 0.16002 0.01421 0.73895 0.0
C917 C 0.1663 0.04189 0.7423 0.0
C918 C 0.12581 1.0002 0.79245 0.0
C919 C 0.12488 0.98479 0.78547 0.0
C920 C 0.11272 0.00651 0.79231 0.0
C921 C 0.11082 0.97594 0.77833 0.0
C922 C 0.09888 0.99729 0.78504 0.0
N923 N 0.09823 0.98233 0.77825 0.0
C924 C 0.18409 0.99149 0.81014 0.0
C925 C 0.16819 0.9817 0.78546 0.0
C926 C 0.19069 0.9779 0.80918 0.0
N927 N 0.17296 0.99343 0.79833 0.0
C928 C 0.17442 0.96792 0.78409 0.0
C929 C 0.18597 0.96556 0.79601 0.0
H930 H 0.18789 1.00044 0.82057 0.0
H931 H 0.15935 0.98284 0.77606 0.0
C932 C 0.12772 0.0398 0.75834 0.0
N933 N 0.12946 0.02579 0.76311 0.0
C934 C 0.1197 0.0407 0.74297 0.0
C935 C 0.11522 0.01273 0.73731 0.0
C936 C 0.12335 0.01236 0.75282 0.0
C937 C 0.11326 0.02706 0.732 0.0
H938 H 0.13285 0.05044 0.76637 0.0
H939 H 0.12499 1.00127 0.75645 0.0
O940 O 0.16676 0.03091 0.82008 0.0
O941 O 0.14234 0.04496 0.80069 0.0
O942 O 0.16525 0.02889 0.78285 0.0
O943 O 0.13947 0.00916 0.79928 0.0
H944 H 0.17004 0.04912 0.84848 0.0
H945 H 0.19378 0.02777 0.81278 0.0
H946 H 0.19471 0.06101 0.8652 0.0
H947 H 0.21805 0.03989 0.83021 0.0
H948 H 0.09959 0.06503 0.80135 0.0
H949 H 0.15312 0.06893 0.82377 0.0
H950 H 0.1137 0.0453 0.79051 0.0
H951 H 0.13833 0.0883 0.83398 0.0
H952 H 0.20837 0.09484 0.81687 0.0
H953 H 0.16975 0.09946 0.78364 0.0
H954 H 0.10176 0.00839 0.85073 0.0
H955 H 0.12957 0.05297 0.87111 0.0
H956 H 0.15874 1.00346 0.76102 0.0
H957 H 0.17031 0.05358 0.76709 0.0
H958 H 0.15705 1.00327 0.73086 0.0
H959 H 0.1683 0.05257 0.73683 0.0
H960 H 0.13488 0.97969 0.78559 0.0
H961 H 0.11328 0.01841 0.79771 0.0
H962 H 0.10992 0.964 0.77286 0.0
H963 H 0.08867 1.00204 0.78479 0.0
H964 H 0.1993 0.97702 0.819 0.0
H965 H 0.17021 0.95923 0.77349 0.0
H966 H 0.11893 0.05211 0.7396 0.0
H967 H 0.11048 1.0018 0.72958 0.0
Li968 Li 0.20268 0.91038 0.04175 0.0
Li969 Li 0.21619 0.89199 0.05509 0.0
Li970 Li 0.2306 0.91327 0.04322 0.0
Li971 Li 0.21511 0.88994 0.02398 0.0
C972 C 0.21275 0.92178 0.07427 0.0
N973 N 0.20092 0.93585 0.10007 0.0
C974 C 0.20251 0.91284 0.08259 0.0
C975 C 0.21702 0.93787 0.07911 0.0
C976 C 0.19665 0.92016 0.0956 0.0
C977 C 0.21089 0.94477 0.09215 0.0
C978 C 0.1881 0.87424 0.04192 0.0
C979 C 0.17807 0.84661 0.03916 0.0
N980 N 0.16866 0.84931 0.05041 0.0
C981 C 0.17823 0.87676 0.05332 0.0
C982 C 0.18797 0.85907 0.03467 0.0
C983 C 0.16853 0.86399 0.05751 0.0
C984 C 0.17115 0.91533 0.03878 0.0
N985 N 0.18601 0.9224 0.04241 0.0
C986 C 0.17867 0.94728 0.04818 0.0
C987 C 0.18982 0.93814 0.04695 0.0
C988 C 0.16319 0.94039 0.04456 0.0
C989 C 0.15959 0.92408 0.03976 0.0
H990 H 0.16819 0.90286 0.03507 0.0
H991 H 0.20159 0.94369 0.0498 0.0
C992 C 0.23002 0.88868 0.08656 0.0
N993 N 0.21897 0.88076 0.07453 0.0
C994 C 0.23397 0.88214 0.10077 0.0
C995 C 0.21492 0.85931 0.0904 0.0
C996 C 0.21147 0.86623 0.07622 0.0
C997 C 0.22639 0.86721 0.10304 0.0
H998 H 0.23605 0.90011 0.085 0.0
H999 H 0.20287 0.85987 0.0666 0.0
C1000 C 0.22259 0.92446 0.01541 0.0
N1001 N 0.23769 0.94753 0.99977 0.0
C1002 C 0.22745 0.9206 1.0003 0.0
C1003 C 0.22536 0.94004 0.02254 0.0
C1004 C 0.23507 0.93244 0.99259 0.0
C1005 C 0.23304 0.95154 0.01445 0.0
C1006 C 0.24053 0.88124 0.04753 0.0
C1007 C 0.25379 0.887 0.05841 0.0
C1008 C 0.23517 0.86515 0.04395 0.0
C1009 C 0.26143 0.87651 0.06567 0.0
C1010 C 0.24313 0.85505 0.05148 0.0
N1011 N 0.25598 0.86089 0.0621 0.0
C1012 C 0.25547 0.9376 0.0584 0.0
C1013 C 0.25822 0.9245 0.03263 0.0
C1014 C 0.27008 0.94655 0.05968 0.0
N1015 N 0.24986 0.92687 0.045 0.0
C1016 C 0.27282 0.93319 0.03336 0.0
C1017 C 0.27902 0.9443 0.0471 0.0
H1018 H 0.24876 0.93894 0.06828 0.0
H1019 H 0.25359 0.91567 0.02227 0.0
C1020 C 0.2054 0.87365 0.98981 0.0
N1021 N 0.2167 0.87781 1.00273 0.0
C1022 C 0.20811 0.86636 0.97462 0.0
C1023 C 0.23391 0.86763 0.98622 0.0
C1024 C 0.23076 0.87491 1.00107 0.0
C1025 C 0.22259 0.86325 0.97257 0.0
H1026 H 0.19434 0.87621 0.99116 0.0
H1027 H 0.23974 0.87861 0.01123 0.0
O1028 O 0.2186 0.91487 0.06146 0.0
O1029 O 0.19759 0.88657 0.03755 0.0
O1030 O 0.21532 0.913 0.02326 0.0
O1031 O 0.23262 0.89131 0.04072 0.0
H1032 H 0.19914 0.90038 0.07909 0.0
H1033 H 0.22482 0.94501 0.07271 0.0
H1034 H 0.18872 0.91338 0.10215 0.0
H1035 H 0.21403 0.95722 0.09596 0.0
H1036 H 0.17788 0.8348 0.03372 0.0
H1037 H 0.17802 0.88845 0.05882 0.0
H1038 H 0.19547 0.85697 0.02571 0.0
H1039 H 0.16088 0.86576 0.06638 0.0
H1040 H 0.18226 0.95967 0.05223 0.0
H1041 H 0.14794 0.91808 0.03656 0.0
H1042 H 0.24314 0.88871 0.10972 0.0
H1043 H 0.20853 0.84789 0.09141 0.0
H1044 H 0.22542 0.90859 0.99462 0.0
H1045 H 0.22187 0.94319 0.03433 0.0
H1046 H 0.23892 0.92962 0.9809 0.0
H1047 H 0.23535 0.96364 0.01988 0.0
H1048 H 0.25802 0.89945 0.06134 0.0
H1049 H 0.22487 0.86054 0.0356 0.0
H1050 H 0.27166 0.88079 0.0742 0.0
H1051 H 0.23908 0.84256 0.04891 0.0
H1052 H 0.27447 0.95479 0.0706 0.0
H1053 H 0.27919 0.93117 0.02328 0.0
H1054 H 0.19891 0.86318 0.96461 0.0
H1055 H 0.24533 0.86589 0.98536 0.0
Li1056 Li 0.2696 0.45733 0.08134 0.0
Li1057 Li 0.28026 0.43938 0.09797 0.0
Li1058 Li 0.29696 0.45969 0.08432 0.0
Li1059 Li 0.27927 0.4368 0.06775 0.0
C1060 C 0.27998 0.47287 0.11354 0.0
N1061 N 0.27119 0.49322 0.13676 0.0
C1062 C 0.26943 0.46723 0.12362 0.0
C1063 C 0.28617 0.48881 0.11534 0.0
C1064 C 0.26511 0.47772 0.13528 0.0
C1065 C 0.28154 0.49893 0.12713 0.0
C1066 C 0.25373 0.42057 0.07536 0.0
C1067 C 0.25106 0.3926 0.07013 0.0
N1068 N 0.2367 0.39152 0.06269 0.0
C1069 C 0.23892 0.41918 0.06774 0.0
C1070 C 0.25984 0.40717 0.07666 0.0
C1071 C 0.2305 0.40439 0.06139 0.0
C1072 C 0.24454 0.46181 0.06275 0.0
N1073 N 0.25278 0.4674 0.07764 0.0
C1074 C 0.2357 0.48444 0.08344 0.0
C1075 C 0.24865 0.47854 0.08802 0.0
C1076 C 0.22725 0.479 0.06798 0.0
C1077 C 0.2318 0.46762 0.05754 0.0
H1078 H 0.24794 0.45282 0.05486 0.0
H1079 H 0.25526 0.48286 0.09979 0.0
C1080 C 0.29127 0.4271 0.12621 0.0
N1081 N 0.27875 0.42786 0.11592 0.0
C1082 C 0.29024 0.41707 0.13821 0.0
C1083 C 0.26347 0.40898 0.1288 0.0
C1084 C 0.26496 0.41943 0.11732 0.0
C1085 C 0.27624 0.40749 0.13937 0.0
H1086 H 0.30209 0.434 0.12483 0.0
H1087 H 0.25514 0.42042 0.10914 0.0
C1088 C 0.279 0.47018 0.05555 0.0
N1089 N 0.26985 0.49328 0.0391 0.0
C1090 C 0.27313 0.46691 0.03892 0.0
C1091 C 0.28039 0.48524 0.06377 0.0
C1092 C 0.26853 0.47874 0.03083 0.0
C1093 C 0.27564 0.49675 0.05526 0.0
C1094 C 0.30752 0.42861 0.08129 0.0
C1095 C 0.31788 0.43381 0.07081 0.0
C1096 C 0.30835 0.41492 0.08817 0.0
C1097 C 0.32894 0.42518 0.06742 0.0
C1098 C 0.31955 0.4066 0.08443 0.0
N1099 N 0.32954 0.41187 0.07423 0.0
C1100 C 0.32809 0.46993 0.09663 0.0
C1101 C 0.31947 0.48054 0.07302 0.0
C1102 C 0.34311 0.47642 0.09532 0.0
N1103 N 0.3167 0.47185 0.08535 0.0
C1104 C 0.33424 0.48725 0.07128 0.0
C1105 C 0.34633 0.48482 0.0822 0.0
H1106 H 0.32557 0.46266 0.10609 0.0
H1107 H 0.31031 0.48162 0.064 0.0
C1108 C 0.2627 0.42232 0.0382 0.0
N1109 N 0.27538 0.42195 0.04846 0.0
C1110 C 0.25773 0.41097 0.0246 0.0
C1111 C 0.27935 0.39941 0.03194 0.0
C1112 C 0.28374 0.41082 0.04556 0.0
C1113 C 0.26604 0.39922 0.02136 0.0
H1114 H 0.25615 0.43117 0.04091 0.0
H1115 H 0.29364 0.41053 0.0539 0.0
O1116 O 0.28454 0.4628 0.10224 0.0
O1117 O 0.26234 0.43498 0.08124 0.0
O1118 O 0.28328 0.45866 0.06377 0.0
O1119 O 0.29663 0.43688 0.08485 0.0
H1120 H 0.2646 0.4549 0.1224 0.0
H1121 H 0.29446 0.49331 0.10771 0.0
H1122 H 0.25692 0.47355 0.14314 0.0
H1123 H 0.28618 0.51131 0.12863 0.0
H1124 H 0.25568 0.38215 0.07094 0.0
H1125 H 0.23399 0.42941 0.06669 0.0
H1126 H 0.27133 0.40806 0.08243 0.0
H1127 H 0.21904 0.40315 0.0554 0.0
H1128 H 0.23243 0.49327 0.09175 0.0
H1129 H 0.22543 0.46309 0.04559 0.0
H1130 H 0.30036 0.41673 0.14631 0.0
H1131 H 0.25246 0.40181 0.12892 0.0
H1132 H 0.27209 0.45534 0.03234 0.0
H1133 H 0.28492 0.48795 0.07664 0.0
H1134 H 0.26389 0.47636 0.01798 0.0
H1135 H 0.27653 0.50842 0.06149 0.0
H1136 H 0.3173 0.4443 0.06526 0.0
H1137 H 0.30036 0.41072 0.09625 0.0
H1138 H 0.33703 0.42904 0.05933 0.0
H1139 H 0.32031 0.39596 0.08964 0.0
H1140 H 0.35211 0.47413 0.10389 0.0
H1141 H 0.33621 0.49379 0.06111 0.0
H1142 H 0.24729 0.41122 0.01697 0.0
H1143 H 0.28632 0.3908 0.02979 0.0
Li1144 Li 0.82265 0.19989 0.05019 0.0
Li1145 Li 0.8365 0.18014 0.03299 0.0
Li1146 Li 0.82185 0.19868 0.01903 0.0
Li1147 Li 0.80861 0.17692 0.03069 0.0
C1148 C 0.85062 0.21627 0.03349 0.0
N1149 N 0.87175 0.2407 0.02662 0.0
C1150 C 0.86087 0.21349 0.02261 0.0
C1151 C 0.85122 0.23144 0.04102 0.0
C1152 C 0.87145 0.22601 0.01926 0.0
C1153 C 0.86194 0.24365 0.03734 0.0
C1154 C 0.81519 0.16503 0.05743 0.0
C1155 C 0.80732 0.13749 0.05851 0.0
N1156 N 0.79789 0.14075 0.06954 0.0
C1157 C 0.80549 0.16812 0.06884 0.0
C1158 C 0.81618 0.14961 0.05226 0.0
C1159 C 0.79681 0.15568 0.0748 0.0
C1160 C 0.80662 0.2139 0.07362 0.0
N1161 N 0.82085 0.21187 0.07143 0.0
C1162 C 0.82999 0.22427 0.0991 0.0
C1163 C 0.8325 0.21694 0.08385 0.0
C1164 C 0.81536 0.22653 0.10167 0.0
C1165 C 0.80366 0.22126 0.08852 0.0
H1166 H 0.79737 0.20944 0.06388 0.0
H1167 H 0.84371 0.2151 0.08207 0.0
C1168 C 0.86098 0.16815 0.01914 0.0
N1169 N 0.85381 0.16909 0.03276 0.0
C1170 C 0.87228 0.15917 0.01793 0.0
C1171 C 0.86871 0.15201 0.0447 0.0
C1172 C 0.85758 0.16127 0.04548 0.0
C1173 C 0.87625 0.15074 0.03074 0.0
H1174 H 0.85761 0.17402 0.00892 0.0
H1175 H 0.8517 0.16194 0.05615 0.0
C1176 C 0.79819 0.21036 0.02969 0.0
N1177 N 0.7838 0.23444 0.02257 0.0
C1178 C 0.78354 0.2071 0.02116 0.0
C1179 C 0.80549 0.22585 0.03464 0.0
C1180 C 0.77647 0.21945 0.01767 0.0
C1181 C 0.79803 0.23786 0.03092 0.0
C1182 C 0.81667 0.16227 1.00245 0.0
C1183 C 0.80606 0.16142 0.9886 0.0
C1184 C 0.82244 0.149 0.0056 0.0
C1185 C 0.8013 0.1473 0.97822 0.0
C1186 C 0.81742 0.13512 0.9949 0.0
N1187 N 0.80703 0.13455 0.98156 0.0
C1188 C 0.82915 0.22218 0.9958 0.0
C1189 C 0.80532 0.20521 0.99055 0.0
C1190 C 0.82575 0.22914 0.98163 0.0
N1191 N 0.81901 0.21028 0.99996 0.0
C1192 C 0.80146 0.21181 0.97638 0.0
C1193 C 0.81175 0.22389 0.97152 0.0
H1194 H 0.83992 0.22631 0.00334 0.0
H1195 H 0.79724 0.19599 0.99411 0.0
C1196 C 0.77907 0.16919 0.03674 0.0
N1197 N 0.78935 0.16278 0.02893 0.0
C1198 C 0.76438 0.16088 0.03634 0.0
C1199 C 0.77107 0.13914 0.02027 0.0
C1200 C 0.78572 0.14791 0.02102 0.0
C1201 C 0.7601 0.1457 0.02783 0.0
H1202 H 0.78229 0.18084 0.04337 0.0
H1203 H 0.79408 0.14278 0.01528 0.0
O1204 O 0.84028 0.20416 0.03703 0.0
O1205 O 0.82334 0.17702 0.051 0.0
O1206 O 0.80541 0.19844 0.03302 0.0
O1207 O 0.82166 0.17607 0.01263 0.0
H1208 H 0.86058 0.20182 0.01671 0.0
H1209 H 0.84355 0.23375 0.04972 0.0
H1210 H 0.8794 0.22404 0.0108 0.0
H1211 H 0.86251 0.25546 0.04304 0.0
H1212 H 0.8079 0.1255 0.05454 0.0
H1213 H 0.80454 0.17999 0.07291 0.0
H1214 H 0.8236 0.14701 0.04341 0.0
H1215 H 0.78918 0.15789 0.08356 0.0
H1216 H 0.83944 0.22815 0.10876 0.0
H1217 H 0.79214 0.22238 0.08986 0.0
H1218 H 0.87751 0.15845 0.0068 0.0
H1219 H 0.87138 0.1459 0.05499 0.0
H1220 H 0.77776 0.19517 0.01714 0.0
H1221 H 0.81681 0.22854 0.04125 0.0
H1222 H 0.76516 0.2171 0.01102 0.0
H1223 H 0.80357 0.24991 0.03466 0.0
H1224 H 0.80152 0.1715 0.98583 0.0
H1225 H 0.83057 0.14932 0.01623 0.0
H1226 H 0.79306 0.14649 0.9675 0.0
H1227 H 0.82176 0.12477 0.99725 0.0
H1228 H 0.83415 0.23835 0.97848 0.0
H1229 H 0.79038 0.20752 0.9694 0.0
H1230 H 0.75649 0.16629 0.04278 0.0
H1231 H 0.76831 0.12746 0.0136 0.0
Li1232 Li 0.1339 0.50527 0.29307 0.0
Li1233 Li 0.11146 0.49146 0.30336 0.0
Li1234 Li 0.12987 0.47648 0.28988 0.0
Li1235 Li 0.11226 0.49168 0.273 0.0
C1236 C 0.14399 0.49569 0.32365 0.0
N1237 N 0.16593 0.50477 0.35066 0.0
C1238 C 0.14152 0.50566 0.33702 0.0
C1239 C 0.15758 0.49026 0.32405 0.0
C1240 C 0.15276 0.51014 0.35055 0.0
C1241 C 0.16854 0.49501 0.33781 0.0
C1242 C 0.10131 0.51664 0.28762 0.0
C1243 C 0.07449 0.51624 0.28445 0.0
N1244 N 0.0772 0.53138 0.28162 0.0
C1245 C 0.10384 0.53222 0.28477 0.0
C1246 C 0.08653 0.5086 0.28754 0.0
C1247 C 0.0915 0.53946 0.28172 0.0
C1248 C 0.14613 0.53328 0.28371 0.0
N1249 N 0.1485 0.52448 0.29589 0.0
C1250 C 0.16925 0.54428 0.30935 0.0
C1251 C 0.15991 0.5296 0.30852 0.0
C1252 C 0.16688 0.55372 0.297 0.0
C1253 C 0.15526 0.54787 0.28393 0.0
H1254 H 0.13706 0.52892 0.27376 0.0
H1255 H 0.16177 0.52248 0.31805 0.0
C1256 C 0.09251 0.48163 0.32877 0.0
N1257 N 0.09971 0.4937 0.32176 0.0
C1258 C 0.08552 0.48449 0.34286 0.0
C1259 C 0.09341 0.5121 0.34234 0.0
C1260 C 0.10012 0.50873 0.32826 0.0
C1261 C 0.0861 0.49992 0.35003 0.0
H1262 H 0.09248 0.46977 0.32375 0.0
H1263 H 0.10607 0.5182 0.32275 0.0
C1264 C 0.14722 0.49715 0.26731 0.0
N1265 N 0.1736 0.51105 0.25671 0.0
C1266 C 0.14663 0.50398 0.25283 0.0
C1267 C 0.16123 0.49723 0.2763 0.0
C1268 C 0.16009 0.51098 0.2477 0.0
C1269 C 0.17444 0.50436 0.27077 0.0
C1270 C 0.0948 0.46216 0.28798 0.0
C1271 C 0.0974 0.45025 0.29716 0.0
C1272 C 0.08001 0.46279 0.28164 0.0
C1273 C 0.08511 0.43932 0.30013 0.0
C1274 C 0.06802 0.45165 0.2849 0.0
N1275 N 0.0708 0.44025 0.29401 0.0
C1276 C 0.14158 0.45097 0.3028 0.0
C1277 C 0.14854 0.45628 0.277 0.0
C1278 C 0.15061 0.43957 0.30336 0.0
N1279 N 0.1407 0.45911 0.28975 0.0
C1280 C 0.15788 0.44518 0.27717 0.0
C1281 C 0.15916 0.43658 0.29052 0.0
H1282 H 0.13553 0.45355 0.313 0.0
H1283 H 0.14789 0.46297 0.26682 0.0
C1284 C 0.10546 0.50807 0.24668 0.0
N1285 N 0.10161 0.49382 0.2517 0.0
C1286 C 0.09918 0.51109 0.23141 0.0
C1287 C 0.08469 0.48479 0.22659 0.0
C1288 C 0.09136 0.48224 0.24202 0.0
C1289 C 0.08871 0.49936 0.22097 0.0
H1290 H 0.11362 0.51713 0.25451 0.0
H1291 H 0.08847 0.47095 0.24614 0.0
O1292 O 0.13305 0.491 0.31039 0.0
O1293 O 0.11327 0.50934 0.29053 0.0
O1294 O 0.13416 0.49057 0.27278 0.0
O1295 O 0.1067 0.47289 0.28486 0.0
H1296 H 0.13109 0.50997 0.33693 0.0
H1297 H 0.15966 0.48247 0.31387 0.0
H1298 H 0.15102 0.51789 0.36096 0.0
H1299 H 0.17912 0.49092 0.33827 0.0
H1300 H 0.06299 0.51015 0.28435 0.0
H1301 H 0.11521 0.53866 0.2849 0.0
H1302 H 0.08441 0.49663 0.28998 0.0
H1303 H 0.09329 0.5515 0.27945 0.0
H1304 H 0.17801 0.5483 0.31971 0.0
H1305 H 0.15321 0.55446 0.27387 0.0
H1306 H 0.08017 0.47469 0.3484 0.0
H1307 H 0.09405 0.52418 0.34722 0.0
H1308 H 0.13589 0.50392 0.24566 0.0
H1309 H 0.16187 0.49201 0.28753 0.0
H1310 H 0.1598 0.51638 0.23656 0.0
H1311 H 0.18535 0.50461 0.27767 0.0
H1312 H 0.10877 0.44953 0.30204 0.0
H1313 H 0.07781 0.47171 0.27419 0.0
H1314 H 0.08695 0.4301 0.30731 0.0
H1315 H 0.05651 0.45203 0.28013 0.0
H1316 H 0.15088 0.43322 0.31385 0.0
H1317 H 0.16436 0.44372 0.26708 0.0
H1318 H 0.10248 0.52258 0.22785 0.0
H1319 H 0.07676 0.47534 0.21899 0.0
Li1320 Li 0.76907 0.95528 0.58295 0.0
Li1321 Li 0.78076 0.93807 0.60018 0.0
Li1322 Li 0.79587 0.95475 0.58293 0.0
Li1323 Li 0.77684 0.93299 0.57051 0.0
C1324 C 0.78165 0.96965 0.61527 0.0
N1325 N 0.77307 0.98604 0.64193 0.0
C1326 C 0.76878 0.96336 0.62195 0.0
C1327 C 0.79013 0.98428 0.62209 0.0
C1328 C 0.76464 0.97181 0.63547 0.0
C1329 C 0.78561 0.9924 0.63556 0.0
C1330 C 0.75205 0.91934 0.58022 0.0
C1331 C 0.74718 0.89122 0.57778 0.0
N1332 N 0.73395 0.89068 0.56803 0.0
C1333 C 0.73836 0.91851 0.57025 0.0
C1334 C 0.75649 0.90559 0.58407 0.0
C1335 C 0.72939 0.90391 0.56418 0.0
C1336 C 0.74516 0.96139 0.56445 0.0
N1337 N 0.75337 0.96661 0.5794 0.0
C1338 C 0.73726 0.98471 0.58509 0.0
C1339 C 0.74987 0.97822 0.58967 0.0
C1340 C 0.72836 0.97919 0.56982 0.0
C1341 C 0.73262 0.96753 0.55937 0.0
H1342 H 0.74837 0.95231 0.55647 0.0
H1343 H 0.7567 0.98241 0.60139 0.0
C1344 C 0.79387 0.92534 0.62689 0.0
N1345 N 0.7807 0.92818 0.61946 0.0
C1346 C 0.79369 0.91576 0.63931 0.0
C1347 C 0.76647 0.91278 0.6366 0.0
C1348 C 0.76717 0.92236 0.62423 0.0
C1349 C 0.7798 0.90905 0.64405 0.0
H1350 H 0.80444 0.92995 0.62267 0.0
H1351 H 0.75683 0.9246 0.61795 0.0
C1352 C 0.78223 0.96804 0.55798 0.0
N1353 N 0.78576 0.99647 0.54609 0.0
C1354 C 0.7798 0.96862 0.54109 0.0
C1355 C 0.7864 0.98194 0.56883 0.0
C1356 C 0.78166 0.98311 0.53532 0.0
C1357 C 0.78814 0.99619 0.56257 0.0
C1358 C 0.80489 0.92448 0.57837 0.0
C1359 C 0.80897 0.92749 0.56307 0.0
C1360 C 0.81037 0.91287 0.5861 0.0
C1361 C 0.81864 0.91893 0.55581 0.0
C1362 C 0.81999 0.90454 0.57843 0.0
N1363 N 0.8239 0.90773 0.56357 0.0
C1364 C 0.82603 0.97071 0.59492 0.0
C1365 C 0.81936 0.96804 0.56609 0.0
C1366 C 0.84095 0.97753 0.59348 0.0
N1367 N 0.81566 0.96595 0.58128 0.0
C1368 C 0.83403 0.97484 0.56409 0.0
C1369 C 0.84517 0.97939 0.57784 0.0
H1370 H 0.82282 0.96879 0.60685 0.0
H1371 H 0.81103 0.96402 0.55538 0.0
C1372 C 0.7617 0.92047 0.5396 0.0
N1373 N 0.77093 0.91711 0.55226 0.0
C1374 C 0.7561 0.90932 0.52596 0.0
C1375 C 0.76981 0.89152 0.53853 0.0
C1376 C 0.77496 0.90294 0.55204 0.0
C1377 C 0.76018 0.8946 0.52525 0.0
H1378 H 0.75852 0.93177 0.54026 0.0
H1379 H 0.78203 0.90042 0.56241 0.0
O1380 O 0.78592 0.96167 0.60201 0.0
O1381 O 0.76127 0.93349 0.58584 0.0
O1382 O 0.78019 0.95389 0.56373 0.0
O1383 O 0.79509 0.93237 0.58552 0.0
H1384 H 0.76189 0.95224 0.61656 0.0
H1385 H 0.80009 0.98933 0.61697 0.0
H1386 H 0.75468 0.96711 0.64074 0.0
H1387 H 0.79205 0.00375 0.64095 0.0
H1388 H 0.75054 0.88049 0.58055 0.0
H1389 H 0.73473 0.92901 0.56717 0.0
H1390 H 0.76717 0.90599 0.59154 0.0
H1391 H 0.7188 0.9031 0.55638 0.0
H1392 H 0.73438 0.99371 0.5935 0.0
H1393 H 0.72636 0.96323 0.54731 0.0
H1394 H 0.80423 0.91306 0.64457 0.0
H1395 H 0.75554 0.90804 0.64001 0.0
H1396 H 0.77649 0.95797 0.53254 0.0
H1397 H 0.78827 0.98178 0.58193 0.0
H1398 H 0.77982 0.98372 0.52228 0.0
H1399 H 0.79137 0.00702 0.57082 0.0
H1400 H 0.80444 0.93609 0.55671 0.0
H1401 H 0.80713 0.91024 0.59784 0.0
H1402 H 0.82187 0.92111 0.54394 0.0
H1403 H 0.8243 0.89551 0.58425 0.0
H1404 H 0.84919 0.98074 0.6044 0.0
H1405 H 0.83668 0.97627 0.55183 0.0
H1406 H 0.74853 0.91216 0.51618 0.0
H1407 H 0.77347 0.88046 0.53846 0.0
Li1408 Li 0.89836 0.06442 0.29057 0.0
Li1409 Li 0.87515 0.04614 0.27275 0.0
Li1410 Li 0.89621 0.06326 0.25844 0.0
Li1411 Li 0.87756 0.07751 0.27382 0.0
C1412 C 0.90936 0.03896 0.27293 0.0
N1413 N 0.93372 0.02415 0.27268 0.0
C1414 C 0.90711 0.02274 0.27216 0.0
C1415 C 0.92396 0.04767 0.27356 0.0
C1416 C 0.91959 0.01546 0.27206 0.0
C1417 C 0.93614 0.03995 0.27342 0.0
C1418 C 0.86553 0.05882 0.30194 0.0
C1419 C 0.84008 0.05628 0.30863 0.0
N1420 N 0.84424 0.04977 0.32218 0.0
C1421 C 0.86958 0.05215 0.31594 0.0
C1422 C 0.8507 0.06094 0.29823 0.0
C1423 C 0.85863 0.04763 0.32601 0.0
C1424 C 0.91589 0.07809 0.32321 0.0
N1425 N 0.91137 0.06487 0.31218 0.0
C1426 C 0.923 0.05036 0.3315 0.0
C1427 C 0.91483 0.05116 0.31618 0.0
C1428 C 0.9277 0.06375 0.34333 0.0
C1429 C 0.92403 0.07779 0.33877 0.0
H1430 H 0.91294 0.0889 0.32011 0.0
H1431 H 0.91105 0.04063 0.30756 0.0
C1432 C 0.85268 0.01537 0.26094 0.0
N1433 N 0.86292 0.02393 0.27352 0.0
C1434 C 0.84557 0.99973 0.2619 0.0
C1435 C 0.85937 1.00166 0.28872 0.0
C1436 C 0.86624 0.01717 0.28724 0.0
C1437 C 0.84885 0.99235 0.27592 0.0
H1438 H 0.85014 0.02051 0.24992 0.0
H1439 H 0.8745 0.02376 0.29713 0.0
C1440 C 0.91171 0.09388 0.27368 0.0
N1441 N 0.9341 0.11769 0.26798 0.0
C1442 C 0.90837 0.10419 0.26274 0.0
C1443 C 0.9264 0.09573 0.28183 0.0
C1444 C 0.91986 0.11614 0.25999 0.0
C1445 C 0.93757 0.10783 0.27875 0.0
C1446 C 0.86491 0.06457 0.24134 0.0
C1447 C 0.87204 0.07581 0.23257 0.0
C1448 C 0.84947 0.05839 0.23716 0.0
C1449 C 0.86354 0.08075 0.21972 0.0
C1450 C 0.84137 0.06363 0.22422 0.0
N1451 N 0.84852 0.07461 0.21585 0.0
C1452 C 0.90242 0.05264 0.2244 0.0
C1453 C 0.92256 0.07146 0.23906 0.0
C1454 C 0.91044 0.05148 0.21063 0.0
N1455 N 0.90843 0.06254 0.23845 0.0
C1456 C 0.93093 0.07071 0.22555 0.0
C1457 C 0.92507 0.06057 0.21081 0.0
H1458 H 0.89131 0.04543 0.22381 0.0
H1459 H 0.92754 0.07925 0.25009 0.0
C1460 C 0.87517 0.11131 0.28303 0.0
N1461 N 0.86708 0.09731 0.27502 0.0
C1462 C 0.86891 0.12509 0.28426 0.0
C1463 C 0.84582 0.11037 0.2691 0.0
C1464 C 0.85253 0.09685 0.2681 0.0
C1465 C 0.85389 0.12505 0.27728 0.0
H1466 H 0.88666 0.11192 0.28862 0.0
H1467 H 0.84594 0.08593 0.26169 0.0
O1468 O 0.89732 0.04631 0.27312 0.0
O1469 O 0.87607 0.06333 0.29194 0.0
O1470 O 0.90066 0.08208 0.27649 0.0
O1471 O 0.873 0.05973 0.25405 0.0
H1472 H 0.89586 0.01586 0.27167 0.0
H1473 H 0.92585 0.06024 0.27419 0.0
H1474 H 0.91804 1.00291 0.27148 0.0
H1475 H 0.94751 0.04653 0.2739 0.0
H1476 H 0.82855 0.05784 0.30593 0.0
H1477 H 0.88104 0.05045 0.31897 0.0
H1478 H 0.84743 0.06611 0.28743 0.0
H1479 H 0.86158 0.04241 0.33688 0.0
H1480 H 0.92561 0.03924 0.33395 0.0
H1481 H 0.92704 0.08848 0.34727 0.0
H1482 H 0.83782 0.99339 0.25145 0.0
H1483 H 0.86236 0.9971 0.29999 0.0
H1484 H 0.89701 0.10298 0.25645 0.0
H1485 H 0.92912 0.08787 0.2904 0.0
H1486 H 0.91746 0.12419 0.25152 0.0
H1487 H 0.94901 0.10937 0.28492 0.0
H1488 H 0.88399 0.08066 0.23566 0.0
H1489 H 0.84381 0.0497 0.24389 0.0
H1490 H 0.8689 0.08945 0.21283 0.0
H1491 H 0.82941 0.05898 0.22085 0.0
H1492 H 0.90517 0.04321 0.20001 0.0
H1493 H 0.94192 0.07826 0.22672 0.0
H1494 H 0.87587 0.13569 0.29095 0.0
H1495 H 0.83435 0.10924 0.2632 0.0
Li1496 Li 0.32205 0.69952 0.54871 0.0
Li1497 Li 0.3358 0.67997 0.5308 0.0
Li1498 Li 0.32128 0.69858 0.51776 0.0
Li1499 Li 0.30792 0.67694 0.52876 0.0
C1500 C 0.34659 0.71686 0.52918 0.0
N1501 N 0.35895 0.74249 0.5152 0.0
C1502 C 0.35541 0.71508 0.51655 0.0
C1503 C 0.34405 0.73164 0.53475 0.0
C1504 C 0.36156 0.7282 0.50962 0.0
C1505 C 0.35041 0.74446 0.52751 0.0
C1506 C 0.3151 0.6638 0.55448 0.0
C1507 C 0.30816 0.6359 0.55356 0.0
N1508 N 0.29882 0.63795 0.56506 0.0
C1509 C 0.30551 0.66566 0.56635 0.0
C1510 C 0.31651 0.64883 0.54806 0.0
C1511 C 0.29735 0.65243 0.57152 0.0
C1512 C 0.30555 0.71207 0.57233 0.0
N1513 N 0.31997 0.71069 0.57029 0.0
C1514 C 0.32841 0.72244 0.59833 0.0
C1515 C 0.33138 0.71578 0.58297 0.0
C1516 C 0.31354 0.72399 0.60082 0.0
C1517 C 0.30214 0.7188 0.5873 0.0
H1518 H 0.29653 0.70767 0.56235 0.0
H1519 H 0.34275 0.71438 0.58134 0.0
C1520 C 0.3584 0.66597 0.51556 0.0
N1521 N 0.35285 0.66864 0.53005 0.0
C1522 C 0.3695 0.65676 0.5141 0.0
C1523 C 0.36952 0.65351 0.54262 0.0
C1524 C 0.35828 0.66263 0.5435 0.0
C1525 C 0.37525 0.65026 0.52772 0.0
H1526 H 0.35393 0.67071 0.50494 0.0
H1527 H 0.35368 0.66467 0.55489 0.0
C1528 C 0.2938 0.70515 0.5245 0.0
N1529 N 0.27145 0.71862 0.50974 0.0
C1530 C 0.28419 0.69715 0.51061 0.0
C1531 C 0.29196 0.71997 0.53096 0.0
C1532 C 0.27298 0.70416 0.5033 0.0
C1533 C 0.28062 0.72659 0.5233 0.0
C1534 C 0.31462 0.66363 0.49934 0.0
C1535 C 0.30333 0.66482 0.48685 0.0
C1536 C 0.31971 0.64958 0.49985 0.0
C1537 C 0.29719 0.65185 0.47517 0.0
C1538 C 0.31332 0.63689 0.48791 0.0
N1539 N 0.30227 0.63827 0.47593 0.0
C1540 C 0.32184 0.70391 0.48402 0.0
C1541 C 0.31526 0.72477 0.50033 0.0
C1542 C 0.31869 0.7107 0.46973 0.0
N1543 N 0.31972 0.71074 0.49895 0.0
C1544 C 0.31182 0.73191 0.48633 0.0
C1545 C 0.31318 0.72475 0.47059 0.0
H1546 H 0.32565 0.69292 0.48308 0.0
H1547 H 0.31393 0.7303 0.51225 0.0
C1548 C 0.2787 0.66884 0.53577 0.0
N1549 N 0.28868 0.66273 0.52716 0.0
C1550 C 0.26406 0.66052 0.53557 0.0
C1551 C 0.27016 0.63932 0.51809 0.0
C1552 C 0.28479 0.64809 0.51867 0.0
C1553 C 0.25949 0.64564 0.52643 0.0
H1554 H 0.28214 0.68028 0.54286 0.0
H1555 H 0.29293 0.64315 0.51233 0.0
O1556 O 0.34001 0.70411 0.53568 0.0
O1557 O 0.32273 0.67657 0.54878 0.0
O1558 O 0.30493 0.69854 0.53176 0.0
O1559 O 0.32093 0.67627 0.51076 0.0
H1560 H 0.35734 0.70367 0.51202 0.0
H1561 H 0.33711 0.73313 0.54442 0.0
H1562 H 0.36836 0.72701 0.49978 0.0
H1563 H 0.3485 0.75597 0.53164 0.0
H1564 H 0.30907 0.62423 0.54864 0.0
H1565 H 0.30425 0.67719 0.57136 0.0
H1566 H 0.32385 0.64722 0.53882 0.0
H1567 H 0.2898 0.65367 0.58061 0.0
H1568 H 0.33767 0.72597 0.60823 0.0
H1569 H 0.29055 0.71988 0.58815 0.0
H1570 H 0.37359 0.65482 0.50238 0.0
H1571 H 0.3734 0.6487 0.55346 0.0
H1572 H 0.28534 0.68561 0.50557 0.0
H1573 H 0.29939 0.7264 0.54162 0.0
H1574 H 0.26549 0.6981 0.49253 0.0
H1575 H 0.27913 0.73809 0.5281 0.0
H1576 H 0.29939 0.67565 0.4861 0.0
H1577 H 0.32839 0.6484 0.50943 0.0
H1578 H 0.28842 0.6526 0.46546 0.0
H1579 H 0.31711 0.62592 0.48819 0.0
H1580 H 0.32046 0.70484 0.4581 0.0
H1581 H 0.30764 0.74268 0.48788 0.0
H1582 H 0.25642 0.6657 0.54261 0.0
H1583 H 0.26719 0.62786 0.51095 0.0
Li1584 Li 0.37446 0.54355 0.77257 0.0
Li1585 Li 0.39698 0.56219 0.78997 0.0
Li1586 Li 0.37671 0.57496 0.77345 0.0
Li1587 Li 0.39594 0.56115 0.75828 0.0
C1588 C 0.36079 0.55868 0.79709 0.0
N1589 N 0.33285 0.55497 0.80806 0.0
C1590 C 0.35936 0.55521 0.813 0.0
C1591 C 0.34804 0.5603 0.78677 0.0
C1592 C 0.34512 0.55335 0.81831 0.0
C1593 C 0.33401 0.55839 0.79255 0.0
C1594 C 0.4083 0.53767 0.77979 0.0
C1595 C 0.43481 0.53691 0.78516 0.0
N1596 N 0.43151 0.52572 0.79505 0.0
C1597 C 0.40515 0.52618 0.79 0.0
C1598 C 0.42323 0.5431 0.77734 0.0
C1599 C 0.41705 0.52028 0.7976 0.0
C1600 C 0.36825 0.5088 0.76593 0.0
N1601 N 0.36218 0.52097 0.77221 0.0
C1602 C 0.34192 0.50203 0.77992 0.0
C1603 C 0.34909 0.51766 0.77906 0.0
C1604 C 0.3481 0.4892 0.77382 0.0
C1605 C 0.36151 0.49304 0.76662 0.0
H1606 H 0.37863 0.51127 0.76056 0.0
H1607 H 0.34422 0.5271 0.78425 0.0
C1608 C 0.42378 0.57216 0.81656 0.0
N1609 N 0.40985 0.56283 0.81192 0.0
C1610 C 0.4322 0.57187 0.83198 0.0
C1611 C 0.41197 0.55244 0.83783 0.0
C1612 C 0.404 0.55304 0.82233 0.0
C1613 C 0.42636 0.56195 0.84307 0.0
H1614 H 0.42845 0.57992 0.80834 0.0
H1615 H 0.39308 0.54546 0.81853 0.0
C1616 C 0.36328 0.56079 0.74138 0.0
N1617 N 0.34408 0.56841 0.71657 0.0
C1618 C 0.36843 0.57292 0.73258 0.0
C1619 C 0.34838 0.55253 0.73761 0.0
C1620 C 0.35855 0.57659 0.72006 0.0
C1621 C 0.33885 0.55656 0.72501 0.0
C1622 C 0.4101 0.59105 0.77082 0.0
C1623 C 0.40538 0.60309 0.76318 0.0
C1624 C 0.4254 0.59011 0.77269 0.0
C1625 C 0.4161 0.61405 0.75754 0.0
C1626 C 0.43576 0.60127 0.76684 0.0
N1627 N 0.43094 0.61291 0.75946 0.0
C1628 C 0.37165 0.60717 0.78607 0.0
C1629 C 0.35307 0.59529 0.7641 0.0
C1630 C 0.36516 0.6208 0.78743 0.0
N1631 N 0.36571 0.59452 0.7745 0.0
C1632 C 0.34624 0.60873 0.76503 0.0
C1633 C 0.35215 0.62207 0.77682 0.0
H1634 H 0.3816 0.6068 0.79443 0.0
H1635 H 0.34811 0.58546 0.7549 0.0
C1636 C 0.41347 0.54753 0.73325 0.0
N1637 N 0.40831 0.56075 0.73825 0.0
C1638 C 0.42191 0.54661 0.71979 0.0
C1639 C 0.41981 0.57284 0.71631 0.0
C1640 C 0.41141 0.57327 0.72984 0.0
C1641 C 0.42536 0.55936 0.71086 0.0
H1642 H 0.41101 0.53749 0.73968 0.0
H1643 H 0.40738 0.58379 0.73355 0.0
O1644 O 0.37461 0.56055 0.79164 0.0
O1645 O 0.39688 0.54396 0.77266 0.0
O1646 O 0.3727 0.55719 0.75382 0.0
O1647 O 0.39976 0.58012 0.77624 0.0
H1648 H 0.36912 0.55399 0.82116 0.0
H1649 H 0.34895 0.5629 0.77441 0.0
H1650 H 0.34383 0.55064 0.83058 0.0
H1651 H 0.32404 0.55958 0.7847 0.0
H1652 H 0.44643 0.54102 0.7834 0.0
H1653 H 0.39366 0.52201 0.7922 0.0
H1654 H 0.42585 0.55207 0.76956 0.0
H1655 H 0.41479 0.51142 0.80559 0.0
H1656 H 0.33178 0.50012 0.78578 0.0
H1657 H 0.36684 0.48393 0.76143 0.0
H1658 H 0.44312 0.57958 0.83525 0.0
H1659 H 0.40691 0.54432 0.84553 0.0
H1660 H 0.37989 0.57952 0.73551 0.0
H1661 H 0.34424 0.54316 0.7444 0.0
H1662 H 0.36236 0.58598 0.71316 0.0
H1663 H 0.32728 0.5503 0.72195 0.0
H1664 H 0.39356 0.60389 0.7615 0.0
H1665 H 0.42921 0.58081 0.77848 0.0
H1666 H 0.41262 0.62341 0.75157 0.0
H1667 H 0.44764 0.60067 0.76816 0.0
H1668 H 0.37035 0.63023 0.79701 0.0
H1669 H 0.33644 0.60862 0.75625 0.0
H1670 H 0.42547 0.53575 0.71631 0.0
H1671 H 0.42208 0.58321 0.71035 0.0
Li1672 Li 0.61171 0.99088 0.80413 0.0
Li1673 Li 0.63317 0.00472 0.79354 0.0
Li1674 Li 0.61112 0.9901 0.77357 0.0
Li1675 Li 0.62938 0.97576 0.79137 0.0
C1676 C 0.60683 0.0207 0.79622 0.0
N1677 N 0.59574 0.04642 0.80806 0.0
C1678 C 0.61508 0.03123 0.8094 0.0
C1679 C 0.59299 0.02331 0.78897 0.0
C1680 C 0.60927 0.04415 0.81523 0.0
C1681 C 0.58756 0.03636 0.79516 0.0
C1682 C 0.6428 0.99776 0.82523 0.0
C1683 C 0.66659 1.00062 0.84262 0.0
N1684 N 0.66204 0.01096 0.85355 0.0
C1685 C 0.63838 0.00843 0.83664 0.0
C1686 C 0.65703 0.99382 0.82823 0.0
C1687 C 0.64826 0.01497 0.85087 0.0
C1688 C 0.60434 0.9852 0.83596 0.0
N1689 N 0.5998 0.99172 0.82254 0.0
C1690 C 0.5812 1.00182 0.83679 0.0
C1691 C 0.58812 0.99952 0.82261 0.0
C1692 C 0.58613 0.99586 0.85113 0.0
C1693 C 0.59767 0.98711 0.85036 0.0
H1694 H 0.61351 0.97886 0.83565 0.0
H1695 H 0.58433 0.00428 0.81178 0.0
C1696 C 0.64523 0.0325 0.78263 0.0
N1697 N 0.64763 0.02405 0.79516 0.0
C1698 C 0.65455 0.04692 0.78229 0.0
C1699 C 0.66843 0.04408 0.80807 0.0
C1700 C 0.65905 0.02952 0.80772 0.0
C1701 C 0.66624 0.05292 0.79521 0.0
H1702 H 0.63596 0.02802 0.77289 0.0
H1703 H 0.66091 0.02278 0.81757 0.0
C1704 C 0.59428 0.96441 0.79314 0.0
N1705 N 0.57033 0.95069 0.80786 0.0
C1706 C 0.59642 0.95385 0.80421 0.0
C1707 C 0.57999 0.96799 0.7895 0.0
C1708 C 0.58415 0.94703 0.81153 0.0
C1709 C 0.56801 0.96093 0.79708 0.0
C1710 C 0.64646 0.99496 0.76803 0.0
C1711 C 0.64626 1.00224 0.75385 0.0
C1712 C 0.66025 0.99374 0.77665 0.0
C1713 C 0.65995 0.00831 0.74855 0.0
C1714 C 0.6737 0.99996 0.77095 0.0
N1715 N 0.67327 0.00707 0.75715 0.0
C1716 C 0.60008 0.00654 0.74899 0.0
C1717 C 0.59381 0.97928 0.74075 0.0
C1718 C 0.59301 0.00934 0.73396 0.0
N1719 N 0.60027 0.99172 0.75223 0.0
C1720 C 0.58683 0.98157 0.72537 0.0
C1721 C 0.5863 0.99679 0.72182 0.0
H1722 H 0.60561 0.0163 0.75805 0.0
H1723 H 0.59422 0.96758 0.74345 0.0
C1724 C 0.64487 0.9544 0.8069 0.0
N1725 N 0.63984 0.95819 0.79201 0.0
C1726 C 0.65368 0.94288 0.80805 0.0
C1727 C 0.65136 0.93863 0.77849 0.0
C1728 C 0.64285 0.95048 0.77791 0.0
C1729 C 0.65712 0.93484 0.79373 0.0
H1730 H 0.64225 0.96053 0.81796 0.0
H1731 H 0.63885 0.95371 0.7662 0.0
O1732 O 0.6123 0.00798 0.79027 0.0
O1733 O 0.63324 0.99107 0.81129 0.0
O1734 O 0.60625 0.97164 0.78633 0.0
O1735 O 0.63322 0.98925 0.77364 0.0
H1736 H 0.62589 0.02951 0.81502 0.0
H1737 H 0.58641 0.01522 0.77882 0.0
H1738 H 0.61553 0.05238 0.82544 0.0
H1739 H 0.57683 0.03847 0.78973 0.0
H1740 H 0.67764 0.99771 0.84507 0.0
H1741 H 0.62744 0.01164 0.83457 0.0
H1742 H 0.66074 0.98575 0.81946 0.0
H1743 H 0.64497 0.02324 0.85979 0.0
H1744 H 0.57241 0.00868 0.83662 0.0
H1745 H 0.60166 0.98188 0.86084 0.0
H1746 H 0.65245 0.05348 0.77221 0.0
H1747 H 0.6774 0.04832 0.81821 0.0
H1748 H 0.60748 0.95109 0.80724 0.0
H1749 H 0.57822 0.97627 0.78105 0.0
H1750 H 0.58564 0.93888 0.82019 0.0
H1751 H 0.55689 0.96363 0.79446 0.0
H1752 H 0.63564 1.0033 0.74709 0.0
H1753 H 0.66056 0.98817 0.78769 0.0
H1754 H 0.65999 0.01405 0.73763 0.0
H1755 H 0.68448 0.99918 0.77753 0.0
H1756 H 0.59316 0.02127 0.73171 0.0
H1757 H 0.58182 0.97153 0.71639 0.0
H1758 H 0.65773 0.94025 0.82004 0.0
H1759 H 0.65379 0.9328 0.76714 0.0
Li1760 Li 0.76277 0.6504 1.00257 0.0
Li1761 Li 0.76696 0.62788 0.9843 0.0
Li1762 Li 0.75729 0.64888 0.97227 0.0
Li1763 Li 0.74181 0.63017 0.98742 0.0
C1764 C 0.78902 0.662 0.98863 0.0
N1765 N 0.81386 0.6862 0.99473 0.0
C1766 C 0.80342 0.65904 0.99329 0.0
C1767 C 0.78726 0.67726 0.98703 0.0
C1768 C 0.81583 0.67143 0.99634 0.0
C1769 C 0.79996 0.68933 0.99018 0.0
C1770 C 0.75038 0.61912 0.01511 0.0
C1771 C 0.7354 0.59487 0.02001 0.0
N1772 N 0.73427 0.60148 0.03536 0.0
C1773 C 0.74919 0.62563 0.031 0.0
C1774 C 0.74356 0.60356 0.00962 0.0
C1775 C 0.74095 0.61654 0.04103 0.0
C1776 C 0.75738 0.66886 0.02957 0.0
N1777 N 0.76881 0.66429 0.02222 0.0
C1778 C 0.78722 0.6798 0.04334 0.0
C1779 C 0.78353 0.66933 0.02886 0.0
C1780 C 0.7756 0.68478 0.0511 0.0
C1781 C 0.76052 0.67917 0.04406 0.0
H1782 H 0.74577 0.6644 0.02417 0.0
H1783 H 0.79239 0.66517 0.02305 0.0
C1784 C 0.79278 0.61875 0.97364 0.0
N1785 N 0.78143 0.61499 0.98279 0.0
C1786 C 0.80585 0.61253 0.97597 0.0
C1787 C 0.79479 0.59795 0.99627 0.0
C1788 C 0.78196 0.60444 0.99354 0.0
C1789 C 0.8072 0.60248 0.98791 0.0
H1790 H 0.79216 0.62747 0.96545 0.0
H1791 H 0.77294 0.60197 1.00092 0.0
C1792 C 0.73668 0.66501 0.9894 0.0
N1793 N 0.72096 0.68915 0.98899 0.0
C1794 C 0.72106 0.66186 0.98451 0.0
C1795 C 0.7443 0.68044 0.99415 0.0
C1796 C 0.71332 0.67423 0.98438 0.0
C1797 C 0.73615 0.69248 0.99383 0.0
C1798 C 0.75368 0.61422 0.95622 0.0
C1799 C 0.76234 0.6179 0.94372 0.0
C1800 C 0.74956 0.59867 0.95883 0.0
C1801 C 0.76691 0.60593 0.93415 0.0
C1802 C 0.75436 0.58705 0.949 0.0
N1803 N 0.76288 0.59089 0.93697 0.0
C1804 C 0.77111 0.66425 0.94844 0.0
C1805 C 0.74687 0.66976 0.95165 0.0
C1806 C 0.77342 0.67538 0.93773 0.0
N1807 N 0.75813 0.66189 0.95541 0.0
C1808 C 0.74881 0.6812 0.94123 0.0
C1809 C 0.76232 0.68425 0.93436 0.0
H1810 H 0.77989 0.65786 0.95169 0.0
H1811 H 0.73651 0.66745 0.95701 0.0
C1812 C 0.71672 0.62618 0.00369 0.0
N1813 N 0.72178 0.62078 0.98973 0.0
C1814 C 0.70219 0.62019 0.00679 0.0
C1815 C 0.69803 0.60354 0.98076 0.0
C1816 C 0.71284 0.60968 0.97829 0.0
C1817 C 0.6925 0.60882 0.99518 0.0
H1818 H 0.72405 0.63517 0.01245 0.0
H1819 H 0.71713 0.60575 0.96721 0.0
O1820 O 0.77675 0.64998 0.98562 0.0
O1821 O 0.75822 0.62792 0.00503 0.0
O1822 O 0.74442 0.65302 0.98962 0.0
O1823 O 0.74942 0.62581 0.96599 0.0
H1824 H 0.80498 0.64733 0.99472 0.0
H1825 H 0.77625 0.67975 0.98332 0.0
H1826 H 0.82703 0.66932 1.00002 0.0
H1827 H 0.79876 0.70119 0.98897 0.0
H1828 H 0.72996 0.58286 0.01585 0.0
H1829 H 0.75456 0.63756 0.03556 0.0
H1830 H 0.74442 0.59831 0.9974 0.0
H1831 H 0.73988 0.62146 0.05332 0.0
H1832 H 0.79897 0.68373 0.04856 0.0
H1833 H 0.75125 0.68283 0.04964 0.0
H1834 H 0.8151 0.61619 0.96915 0.0
H1835 H 0.79539 0.59042 0.00574 0.0
H1836 H 0.71499 0.64999 0.98075 0.0
H1837 H 0.75634 0.68309 0.99815 0.0
H1838 H 0.70123 0.67196 0.98058 0.0
H1839 H 0.7419 0.70447 0.99747 0.0
H1840 H 0.7656 0.62987 0.94153 0.0
H1841 H 0.74277 0.59563 0.96838 0.0
H1842 H 0.7737 0.60862 0.92449 0.0
H1843 H 0.75132 0.57497 0.95093 0.0
H1844 H 0.78399 0.67745 0.93262 0.0
H1845 H 0.73991 0.68765 0.93865 0.0
H1846 H 0.69865 0.62442 0.01824 0.0
H1847 H 0.69095 0.59497 0.97133 0.0
Li1848 Li 0.90502 0.58172 0.77885 0.0
Li1849 Li 0.92724 0.59802 0.79873 0.0
Li1850 Li 0.90821 0.6109 0.78047 0.0
Li1851 Li 0.92642 0.59615 0.76807 0.0
C1852 C 0.89377 0.5966 0.80806 0.0
N1853 N 0.87121 0.59465 0.82802 0.0
C1854 C 0.89644 0.59253 0.82384 0.0
C1855 C 0.8797 0.59984 0.80249 0.0
C1856 C 0.88486 0.59156 0.83373 0.0
C1857 C 0.86842 0.59875 0.81276 0.0
C1858 C 0.93759 0.57237 0.77751 0.0
C1859 C 0.96412 0.57264 0.77666 0.0
N1860 N 0.96049 0.55897 0.76634 0.0
C1861 C 0.93411 0.55829 0.76696 0.0
C1862 C 0.9527 0.5796 0.78247 0.0
C1863 C 0.94585 0.55171 0.76142 0.0
C1864 C 0.88805 0.55294 0.7616 0.0
N1865 N 0.89095 0.56226 0.77631 0.0
C1866 C 0.87459 0.54342 0.78821 0.0
C1867 C 0.88459 0.55769 0.78954 0.0
C1868 C 0.87116 0.53363 0.77313 0.0
C1869 C 0.87809 0.53852 0.7597 0.0
H1870 H 0.89351 0.55669 0.75133 0.0
H1871 H 0.88746 0.56495 0.80125 0.0
C1872 C 0.94265 0.60956 0.83241 0.0
N1873 N 0.93786 0.59715 0.82043 0.0
C1874 C 0.94878 0.60737 0.84822 0.0
C1875 C 0.94511 0.5798 0.839 0.0
C1876 C 0.93911 0.5825 0.82348 0.0
C1877 C 0.94988 0.59225 0.85181 0.0
H1878 H 0.94138 0.62109 0.82986 0.0
H1879 H 0.93511 0.57275 0.81389 0.0
C1880 C 0.89237 0.59004 0.74908 0.0
N1881 N 0.86741 0.58039 0.72538 0.0
C1882 C 0.89398 0.58996 0.73246 0.0
C1883 C 0.87801 0.58538 0.75363 0.0
C1884 C 0.88124 0.585 0.72066 0.0
C1885 C 0.86555 0.58049 0.74148 0.0
C1886 C 0.94183 0.62654 0.78 0.0
C1887 C 0.93765 0.63475 0.76727 0.0
C1888 C 0.95682 0.62954 0.78754 0.0
C1889 C 0.94864 0.64581 0.76216 0.0
C1890 C 0.96747 0.64071 0.78208 0.0
N1891 N 0.9632 0.64853 0.7696 0.0
C1892 C 0.89985 0.64054 0.79152 0.0
C1893 C 0.88597 0.62703 0.76666 0.0
C1894 C 0.89127 0.65237 0.79095 0.0
N1895 N 0.89705 0.6281 0.77949 0.0
C1896 C 0.87698 0.63837 0.76575 0.0
C1897 C 0.87947 0.65139 0.77796 0.0
H1898 H 0.90872 0.64129 0.80163 0.0
H1899 H 0.88388 0.61726 0.7571 0.0
C1900 C 0.93084 0.58139 0.73774 0.0
N1901 N 0.93776 0.5935 0.74937 0.0
C1902 C 0.93721 0.57795 0.72345 0.0
C1903 C 0.95812 0.59926 0.7333 0.0
C1904 C 0.95132 0.60227 0.74749 0.0
C1905 C 0.95099 0.58702 0.72089 0.0
H1906 H 0.92026 0.57429 0.7396 0.0
H1907 H 0.95693 0.61163 0.7569 0.0
O1908 O 0.90498 0.59758 0.79822 0.0
O1909 O 0.92628 0.57928 0.78263 0.0
O1910 O 0.90475 0.59483 0.76079 0.0
O1911 O 0.93126 0.61572 0.78522 0.0
H1912 H 0.90729 0.59004 0.82835 0.0
H1913 H 0.8775 0.60322 0.79041 0.0
H1914 H 0.88673 0.58834 0.84593 0.0
H1915 H 0.85746 0.6012 0.8086 0.0
H1916 H 0.97586 0.57814 0.78031 0.0
H1917 H 0.92245 0.55261 0.76297 0.0
H1918 H 0.95555 0.59056 0.79056 0.0
H1919 H 0.94334 0.54086 0.75318 0.0
H1920 H 0.86987 0.53995 0.79902 0.0
H1921 H 0.87578 0.53135 0.74786 0.0
H1922 H 0.95215 0.61735 0.85765 0.0
H1923 H 0.94593 0.56798 0.84094 0.0
H1924 H 0.90493 0.59384 0.72869 0.0
H1925 H 0.87651 0.58546 0.76642 0.0
H1926 H 0.88234 0.58486 0.70776 0.0
H1927 H 0.8544 0.57677 0.74484 0.0
H1928 H 0.92606 0.63255 0.76138 0.0
H1929 H 0.96018 0.62328 0.79745 0.0
H1930 H 0.94561 0.65223 0.75228 0.0
H1931 H 0.97913 0.64315 0.78774 0.0
H1932 H 0.89396 0.6622 0.80058 0.0
H1933 H 0.86795 0.63665 0.75563 0.0
H1934 H 0.93141 0.56813 0.71457 0.0
H1935 H 0.96873 0.60663 0.73197 0.0
Li1936 Li 0.7177 0.3908 0.55527 0.0
Li1937 Li 0.70273 0.40904 0.54106 0.0
Li1938 Li 0.71703 0.38959 0.52397 0.0
Li1939 Li 0.73078 0.41302 0.54361 0.0
C1940 C 0.68931 0.3726 0.54056 0.0
N1941 N 0.66889 0.34751 0.54729 0.0
C1942 C 0.67775 0.37507 0.54979 0.0
C1943 C 0.69038 0.3574 0.53456 0.0
C1944 C 0.66755 0.36223 0.5531 0.0
C1945 C 0.67999 0.34486 0.53817 0.0
C1946 C 0.72149 0.4262 0.5728 0.0
C1947 C 0.72059 0.45303 0.58185 0.0
N1948 N 0.72927 0.45233 0.59616 0.0
C1949 C 0.73034 0.42573 0.58763 0.0
C1950 C 0.71652 0.43994 0.5699 0.0
C1951 C 0.73418 0.43907 0.59926 0.0
C1952 C 0.73486 0.38288 0.58291 0.0
N1953 N 0.72057 0.37946 0.57459 0.0
C1954 C 0.71275 0.36233 0.59423 0.0
C1955 C 0.70953 0.36936 0.58007 0.0
C1956 C 0.72753 0.36544 0.60275 0.0
C1957 C 0.73863 0.37584 0.5968 0.0
H1958 H 0.74341 0.39132 0.57889 0.0
H1959 H 0.69818 0.36681 0.57363 0.0
C1960 C 0.68139 0.42764 0.52859 0.0
N1961 N 0.68544 0.42006 0.5414 0.0
C1962 C 0.67017 0.43678 0.5294 0.0
C1963 C 0.6672 0.43013 0.55648 0.0
C1964 C 0.67852 0.42117 0.55518 0.0
C1965 C 0.66287 0.43827 0.54354 0.0
H1966 H 0.68709 0.42685 0.51779 0.0
H1967 H 0.68208 0.41542 0.56543 0.0
C1968 C 0.74319 0.3812 0.54535 0.0
N1969 N 0.76094 0.36016 0.55398 0.0
C1970 C 0.7584 0.38647 0.55184 0.0
C1971 C 0.73704 0.36524 0.54318 0.0
C1972 C 0.76718 0.37564 0.55614 0.0
C1973 C 0.74619 0.35478 0.54764 0.0
C1974 C 0.7233 0.42421 0.5159 0.0
C1975 C 0.73124 0.42086 0.50282 0.0
C1976 C 0.7231 0.43972 0.52163 0.0
C1977 C 0.73901 0.43313 0.4958 0.0
C1978 C 0.73102 0.45167 0.51429 0.0
N1979 N 0.73875 0.44815 0.50165 0.0
C1980 C 0.70857 0.37552 0.48908 0.0
C1981 C 0.73273 0.37348 0.5015 0.0
C1982 C 0.71155 0.36878 0.47377 0.0
N1983 N 0.71916 0.37783 0.50264 0.0
C1984 C 0.73609 0.3666 0.48658 0.0
C1985 C 0.7256 0.36433 0.47222 0.0
H1986 H 0.69796 0.37933 0.48999 0.0
H1987 H 0.74125 0.37572 0.5121 0.0
C1988 C 0.75443 0.44061 0.55667 0.0
N1989 N 0.74969 0.42761 0.54544 0.0
C1990 C 0.76897 0.4496 0.55738 0.0
C1991 C 0.77328 0.432 0.53463 0.0
C1992 C 0.75878 0.42331 0.53448 0.0
C1993 C 0.77871 0.44522 0.54637 0.0
H1994 H 0.74714 0.44395 0.56529 0.0
H1995 H 0.7548 0.4129 0.52571 0.0
O1996 O 0.69931 0.38502 0.53708 0.0
O1997 O 0.71746 0.4132 0.56136 0.0
O1998 O 0.73433 0.39164 0.54131 0.0
O1999 O 0.71596 0.41237 0.5232 0.0
H2000 H 0.67671 0.38677 0.55441 0.0
H2001 H 0.69909 0.35531 0.52712 0.0
H2002 H 0.65859 0.36395 0.5603 0.0
H2003 H 0.68071 0.33302 0.53367 0.0
H2004 H 0.71685 0.46374 0.57975 0.0
H2005 H 0.73421 0.4152 0.59014 0.0
H2006 H 0.70965 0.44054 0.55854 0.0
H2007 H 0.74105 0.43888 0.61077 0.0
H2008 H 0.7038 0.3544 0.59839 0.0
H2009 H 0.75011 0.37882 0.60309 0.0
H2010 H 0.66723 0.44261 0.51898 0.0
H2011 H 0.66223 0.43101 0.56777 0.0
H2012 H 0.76332 0.3988 0.55373 0.0
H2013 H 0.7253 0.36099 0.53821 0.0
H2014 H 0.77894 0.37956 0.56124 0.0
H2015 H 0.74155 0.3424 0.54609 0.0
H2016 H 0.73153 0.40892 0.49825 0.0
H2017 H 0.71699 0.4425 0.53171 0.0
H2018 H 0.74528 0.43072 0.48574 0.0
H2019 H 0.73103 0.46373 0.51866 0.0
H2020 H 0.70308 0.36755 0.46316 0.0
H2021 H 0.74697 0.36321 0.48637 0.0
H2022 H 0.77264 0.45962 0.56673 0.0
H2023 H 0.78016 0.42831 0.52563 0.0
Li2024 Li 0.64417 0.53045 0.31648 0.0
Li2025 Li 0.66508 0.54815 0.30244 0.0
Li2026 Li 0.64347 0.52836 0.28542 0.0
Li2027 Li 0.66318 0.51527 0.30097 0.0
C2028 C 0.63136 0.55457 0.29893 0.0
N2029 N 0.6078 0.57008 0.29302 0.0
C2030 C 0.63423 0.57083 0.29996 0.0
C2031 C 0.61652 0.5462 0.29495 0.0
C2032 C 0.62216 0.57846 0.29692 0.0
C2033 C 0.60476 0.55425 0.29198 0.0
C2034 C 0.66979 0.53503 0.33739 0.0
C2035 C 0.67297 0.52363 0.36244 0.0
N2036 N 0.67246 0.53752 0.3712 0.0
C2037 C 0.6693 0.54919 0.34661 0.0
C2038 C 0.67162 0.52212 0.34532 0.0
C2039 C 0.67067 0.55022 0.36371 0.0
C2040 C 0.63112 0.51957 0.34657 0.0
N2041 N 0.63201 0.53105 0.33659 0.0
C2042 C 0.61628 0.5439 0.3535 0.0
C2043 C 0.62473 0.54312 0.34005 0.0
C2044 C 0.61512 0.53224 0.36407 0.0
C2045 C 0.62289 0.51997 0.36025 0.0
H2046 H 0.63681 0.50994 0.34397 0.0
H2047 H 0.62544 0.55236 0.33239 0.0
C2048 C 0.67351 0.5778 0.28883 0.0
N2049 N 0.67711 0.57065 0.30219 0.0
C2050 C 0.68039 0.59336 0.2876 0.0
C2051 C 0.69459 0.5947 0.31408 0.0
C2052 C 0.68754 0.57898 0.31474 0.0
C2053 C 0.69116 0.60243 0.30034 0.0
H2054 H 0.66497 0.5715 0.27905 0.0
H2055 H 0.6903 0.57356 0.32551 0.0
C2056 C 0.62857 0.49914 0.29347 0.0
N2057 N 0.60463 0.47522 0.2805 0.0
C2058 C 0.63106 0.48609 0.28367 0.0
C2059 C 0.61398 0.4999 0.29694 0.0
C2060 C 0.61878 0.47415 0.27716 0.0
C2061 C 0.602 0.48773 0.29018 0.0
C2062 C 0.66548 0.52699 0.26723 0.0
C2063 C 0.66182 0.51138 0.26011 0.0
C2064 C 0.6681 0.53876 0.25725 0.0
C2065 C 0.6607 0.50781 0.24308 0.0
C2066 C 0.66686 0.53473 0.24027 0.0
N2067 N 0.66319 0.51947 0.23359 0.0
C2068 C 0.62978 0.54158 0.25794 0.0
C2069 C 0.62355 0.5141 0.25358 0.0
C2070 C 0.62165 0.54241 0.2426 0.0
N2071 N 0.63055 0.52759 0.26338 0.0
C2072 C 0.61546 0.51441 0.238 0.0
C2073 C 0.61429 0.52873 0.2322 0.0
H2074 H 0.6357 0.55225 0.26542 0.0
H2075 H 0.62438 0.503 0.25766 0.0
C2076 C 0.66938 0.48347 0.30833 0.0
N2077 N 0.6741 0.49573 0.30004 0.0
C2078 C 0.67585 0.4698 0.3073 0.0
C2079 C 0.69219 0.48107 0.28918 0.0
C2080 C 0.68543 0.49454 0.29056 0.0
C2081 C 0.68754 0.46812 0.29754 0.0
H2082 H 0.66038 0.48412 0.3158 0.0
H2083 H 0.68921 0.50401 0.28375 0.0
O2084 O 0.64305 0.54689 0.3017 0.0
O2085 O 0.66788 0.53364 0.32065 0.0
O2086 O 0.64045 0.51091 0.30001 0.0
O2087 O 0.66604 0.53064 0.28382 0.0
H2088 H 0.64564 0.57749 0.30313 0.0
H2089 H 0.61414 0.53361 0.29397 0.0
H2090 H 0.62421 0.59104 0.29766 0.0
H2091 H 0.59323 0.54791 0.28882 0.0
H2092 H 0.67436 0.51374 0.36876 0.0
H2093 H 0.66771 0.55923 0.3406 0.0
H2094 H 0.67187 0.51104 0.33831 0.0
H2095 H 0.67026 0.56108 0.37102 0.0
H2096 H 0.6109 0.55382 0.3557 0.0
H2097 H 0.62245 0.51049 0.3676 0.0
H2098 H 0.67719 0.59811 0.27652 0.0
H2099 H 0.70248 0.60078 0.32454 0.0
H2100 H 0.64233 0.48519 0.28111 0.0
H2101 H 0.61194 0.50972 0.30489 0.0
H2102 H 0.62052 0.46401 0.26947 0.0
H2103 H 0.59062 0.48819 0.29271 0.0
H2104 H 0.65972 0.50213 0.26765 0.0
H2105 H 0.67103 0.55088 0.26253 0.0
H2106 H 0.65778 0.49579 0.23741 0.0
H2107 H 0.66879 0.54373 0.23239 0.0
H2108 H 0.62147 0.55377 0.23877 0.0
H2109 H 0.61004 0.50347 0.23064 0.0
H2110 H 0.67168 0.46067 0.31433 0.0
H2111 H 0.70086 0.4808 0.28123 0.0
Nd2112 Nd 0.02874 0.06114 0.03944 0.0
Nd2113 Nd 0.00944 0.0284 0.03379 0.0
C2114 C 0.03874 0.09148 0.04865 0.0
C2115 C 0.03835 0.10484 0.0392 0.0
C2116 C 0.04071 0.12017 0.04721 0.0
C2117 C 0.03927 0.13263 0.03823 0.0
C2118 C 0.03542 0.13003 0.021 0.0
C2119 C 0.03321 0.1146 0.01308 0.0
C2120 C 0.03454 0.1022 0.02207 0.0
C2121 C 0.03281 0.04888 0.00784 0.0
C2122 C 0.99281 0.05662 0.02342 0.0
C2123 C 0.99937 0.99818 0.02426 0.0
C2124 C 0.99984 0.98418 0.03293 0.0
C2125 C 0.01288 0.97754 0.03428 0.0
C2126 C 0.01366 0.96499 0.04325 0.0
C2127 C 1.00143 0.9587 0.05115 0.0
C2128 C 0.98828 0.96515 0.04952 0.0
C2129 C 0.98748 0.97767 0.0405 0.0
C2130 C 0.00562 0.04053 0.06548 0.0
C2131 C 0.04516 0.03294 0.05041 0.0
O2132 O 0.02554 0.08407 0.05119 0.0
O2133 O 0.04755 0.08189 0.04437 0.0
O2134 O 0.03842 0.06278 0.01512 0.0
O2135 O 0.02444 0.04164 0.01723 0.0
O2136 O 0.00582 0.06606 0.02897 0.0
O2137 O 0.9914 0.04127 0.02245 0.0
O2138 O 0.01232 0.00574 0.02114 0.0
O2139 O 0.99061 0.00763 0.02905 0.0
O2140 O 1.00001 0.02659 0.05825 0.0
O2141 O 0.01391 0.04782 0.05605 0.0
O2142 O 0.03222 0.02348 0.0446 0.0
O2143 O 0.04659 0.04831 0.0513 0.0
H2144 H 0.04343 0.12248 0.06045 0.0
H2145 H 0.04085 0.14425 0.04487 0.0
H2146 H 0.03049 0.11203 0.99987 0.0
H2147 H 0.03241 0.09048 0.01558 0.0
H2148 H 0.02265 0.9822 0.02864 0.0
H2149 H 0.02403 0.96049 0.04434 0.0
H2150 H 0.97854 0.96048 0.0552 0.0
H2151 H 0.97722 0.98238 0.03964 0.0
Nd2152 Nd 0.27112 0.81264 0.29485 0.0
Nd2153 Nd 0.26775 0.77709 0.27724 0.0
C2154 C 0.26654 0.84077 0.30468 0.0
C2155 C 0.27436 0.85656 0.30262 0.0
C2156 C 0.26601 0.86705 0.29626 0.0
C2157 C 0.27339 0.88152 0.29281 0.0
C2158 C 0.28926 0.88579 0.29577 0.0
C2159 C 0.29757 0.87536 0.30239 0.0
C2160 C 0.29021 0.86087 0.3057 0.0
C2161 C 0.29971 0.80566 0.29157 0.0
C2162 C 0.26897 0.80547 0.25418 0.0
C2163 C 0.27262 0.74902 0.26752 0.0
C2164 C 0.26483 0.73336 0.26982 0.0
C2165 C 0.27243 0.72082 0.26914 0.0
C2166 C 0.26525 0.70615 0.27229 0.0
C2167 C 0.25034 0.70383 0.27614 0.0
C2168 C 0.2428 0.71648 0.27681 0.0
C2169 C 0.25 0.7311 0.27374 0.0
C2170 C 0.23902 0.7841 0.27956 0.0
C2171 C 0.2699 0.78428 0.31797 0.0
O2172 O 0.25928 0.83221 0.29121 0.0
O2173 O 0.27395 0.83289 0.31419 0.0
O2174 O 0.29755 0.81908 0.29801 0.0
O2175 O 0.28684 0.79714 0.28674 0.0
O2176 O 0.26827 0.81527 0.26732 0.0
O2177 O 0.27072 0.79087 0.25509 0.0
O2178 O 0.27982 0.75769 0.28094 0.0
O2179 O 0.26492 0.75669 0.25807 0.0
O2180 O 0.24148 0.77081 0.27311 0.0
O2181 O 0.25182 0.79263 0.28503 0.0
O2182 O 0.27039 0.77443 0.30479 0.0
O2183 O 0.26831 0.79892 0.31708 0.0
H2184 H 0.25379 0.86393 0.29367 0.0
H2185 H 0.26668 0.88937 0.28785 0.0
H2186 H 0.30981 0.87823 0.3046 0.0
H2187 H 0.29698 0.85293 0.31035 0.0
H2188 H 0.28395 0.7224 0.2663 0.0
H2189 H 0.27132 0.6966 0.27158 0.0
H2190 H 0.23142 0.71515 0.28 0.0
H2191 H 0.24402 0.74071 0.27463 0.0
Nd2192 Nd 0.53388 0.05165 0.53352 0.0
Nd2193 Nd 0.50543 0.03788 0.54094 0.0
C2194 C 0.55899 0.05953 0.52022 0.0
C2195 C 0.57189 0.05203 0.51775 0.0
C2196 C 0.58424 0.05981 0.51116 0.0
C2197 C 0.5971 0.05324 0.51013 0.0
C2198 C 0.5978 0.0388 0.51574 0.0
C2199 C 0.58511 0.0308 0.52178 0.0
C2200 C 0.57227 0.03736 0.52277 0.0
C2201 C 0.53599 0.04248 0.5647 0.0
C2202 C 0.52151 0.01404 0.52208 0.0
C2203 C 0.48023 0.03145 0.55403 0.0
C2204 C 0.468 0.04038 0.55355 0.0
C2205 C 0.45904 0.04112 0.56626 0.0
C2206 C 0.44796 0.05038 0.56584 0.0
C2207 C 0.44572 0.059 0.55268 0.0
C2208 C 0.45495 0.05832 0.54014 0.0
C2209 C 0.46602 0.04924 0.54065 0.0
C2210 C 0.50306 0.04716 0.50993 0.0
C2211 C 0.5171 0.07579 0.55134 0.0
O2212 O 0.54608 0.0526 0.51172 0.0
O2213 O 0.5577 0.06401 0.53548 0.0
O2214 O 0.54278 0.05566 0.56111 0.0
O2215 O 0.52829 0.03432 0.55197 0.0
O2216 O 0.52929 0.02707 0.51838 0.0
O2217 O 0.51272 0.0147 0.53366 0.0
O2218 O 0.49299 0.03879 0.5626 0.0
O2219 O 0.48212 0.02442 0.53986 0.0
O2220 O 0.49605 0.03409 0.51358 0.0
O2221 O 0.51102 0.05522 0.52258 0.0
O2222 O 0.50872 0.06296 0.5547 0.0
O2223 O 0.52699 0.07496 0.54097 0.0
H2224 H 0.58407 0.07112 0.50718 0.0
H2225 H 0.6066 0.0596 0.50523 0.0
H2226 H 0.58533 0.01979 0.52644 0.0
H2227 H 0.56281 0.03122 0.52793 0.0
H2228 H 0.46067 0.03464 0.5765 0.0
H2229 H 0.44119 0.0508 0.57581 0.0
H2230 H 0.45342 0.06451 0.52965 0.0
H2231 H 0.47304 0.04911 0.53086 0.0
Nd2232 Nd 0.27528 0.29566 0.80199 0.0
Nd2233 Nd 0.26205 0.29319 0.77076 0.0
C2234 C 0.28263 0.29418 0.83365 0.0
C2235 C 0.2752 0.29514 0.84846 0.0
C2236 C 0.25938 0.2928 0.84742 0.0
C2237 C 0.25255 0.29556 0.8615 0.0
C2238 C 0.26147 0.30043 0.87681 0.0
C2239 C 0.27729 0.30212 0.87786 0.0
C2240 C 0.28409 0.29955 0.86376 0.0
C2241 C 0.28423 0.32393 0.78965 0.0
C2242 C 0.23946 0.30022 0.79635 0.0
C2243 C 0.25459 0.2945 0.73907 0.0
C2244 C 0.26208 0.29467 0.72429 0.0
C2245 C 0.27791 0.29793 0.72538 0.0
C2246 C 0.28491 0.29575 0.7113 0.0
C2247 C 0.27611 0.29051 0.69596 0.0
C2248 C 0.26025 0.28804 0.69487 0.0
C2249 C 0.2533 0.29006 0.70895 0.0
C2250 C 0.25323 0.26482 0.78302 0.0
C2251 C 0.29773 0.28862 0.77633 0.0
O2252 O 0.27749 0.28193 0.82276 0.0
O2253 O 0.28527 0.30702 0.82705 0.0
O2254 O 0.29323 0.31638 0.7973 0.0
O2255 O 0.27069 0.31611 0.78796 0.0
O2256 O 0.25047 0.29725 0.80666 0.0
O2257 O 0.24163 0.30102 0.78099 0.0
O2258 O 0.25854 0.30682 0.75009 0.0
O2259 O 0.25335 0.28154 0.74551 0.0
O2260 O 0.24427 0.27212 0.77498 0.0
O2261 O 0.2667 0.2728 0.78488 0.0
O2262 O 0.28711 0.29266 0.76635 0.0
O2263 O 0.29514 0.28682 0.7914 0.0
H2264 H 0.25234 0.28921 0.83571 0.0
H2265 H 0.24035 0.29418 0.8604 0.0
H2266 H 0.28445 0.30615 0.88947 0.0
H2267 H 0.29632 0.30147 0.86474 0.0
H2268 H 0.28483 0.30164 0.73715 0.0
H2269 H 0.29714 0.29774 0.71245 0.0
H2270 H 0.25317 0.28369 0.68326 0.0
H2271 H 0.24106 0.28742 0.70794 0.0
Nd2272 Nd 0.01468 0.05833 0.54603 0.0
Nd2273 Nd 0.02421 0.03062 0.52975 0.0
C2274 C 0.9999 0.08015 0.55586 0.0
C2275 C 0.99483 0.09275 0.54784 0.0
C2276 C 0.98833 0.09001 0.53129 0.0
C2277 C 0.98664 0.1025 0.52268 0.0
C2278 C 0.99128 0.11782 0.53059 0.0
C2279 C 0.99685 0.12057 0.54736 0.0
C2280 C 0.99861 0.10807 0.55596 0.0
C2281 C 0.04293 0.06452 0.53639 0.0
C2282 C 0.00588 0.04901 0.50522 0.0
C2283 C 0.03892 0.00845 0.52105 0.0
C2284 C 0.04128 0.99524 0.52968 0.0
C2285 C 0.05163 0.98597 0.52534 0.0
C2286 C 0.0533 0.97317 0.53359 0.0
C2287 C 0.04459 0.9695 0.54624 0.0
C2288 C 0.03445 0.97911 0.55065 0.0
C2289 C 0.0329 0.99188 0.54253 0.0
C2290 C 0.99603 0.02422 0.53951 0.0
C2291 C 0.03346 0.04037 0.57053 0.0
O2292 O 0.99315 0.06586 0.54993 0.0
O2293 O 0.01458 0.0817 0.55902 0.0
O2294 O 0.03967 0.07082 0.55013 0.0
O2295 O 0.03141 0.05595 0.52801 0.0
O2296 O 1.00236 0.05587 0.51902 0.0
O2297 O 0.01621 0.04012 0.50596 0.0
O2298 O 0.04574 0.02216 0.5287 0.0
O2299 O 0.02484 0.00813 0.51521 0.0
O2300 O 0.99941 0.01771 0.52595 0.0
O2301 O 0.0075 0.03296 0.54783 0.0
O2302 O 0.03647 0.03298 0.55676 0.0
O2303 O 0.02348 0.04962 0.56988 0.0
H2304 H 0.98534 0.07831 0.52476 0.0
H2305 H 0.98245 0.10025 0.50968 0.0
H2306 H 1.00065 0.13239 0.55354 0.0
H2307 H 1.00375 0.11041 0.56867 0.0
H2308 H 0.05829 0.98855 0.51553 0.0
H2309 H 0.06132 0.9661 0.53001 0.0
H2310 H 0.0273 0.97651 0.56004 0.0
H2311 H 0.02489 0.99899 0.54609 0.0
Nd2312 Nd 0.2824 0.80261 0.79112 0.0
Nd2313 Nd 0.25346 0.78388 0.78238 0.0
C2314 C 0.30887 0.82128 0.7923 0.0
C2315 C 0.32425 0.81851 0.79174 0.0
C2316 C 0.32671 0.80422 0.78421 0.0
C2317 C 0.34093 0.80022 0.78693 0.0
C2318 C 0.35268 0.8104 0.7974 0.0
C2319 C 0.35042 0.82505 0.8041 0.0
C2320 C 0.33629 0.8291 0.80124 0.0
C2321 C 0.26746 0.79963 0.81843 0.0
C2322 C 0.28239 0.76497 0.78917 0.0
C2323 C 0.22699 0.76625 0.7838 0.0
C2324 C 0.21276 0.7708 0.78716 0.0
C2325 C 0.21275 0.78635 0.79332 0.0
C2326 C 0.19921 0.79182 0.7928 0.0
C2327 C 0.18549 0.78173 0.78635 0.0
C2328 C 0.18544 0.76585 0.78152 0.0
C2329 C 0.19902 0.76045 0.78181 0.0
C2330 C 0.26757 0.78676 0.75459 0.0
C2331 C 0.25382 0.82151 0.78317 0.0
O2332 O 0.29933 0.817 0.77879 0.0
O2333 O 0.30306 0.81732 0.80533 0.0
O2334 O 0.28131 0.79775 0.81797 0.0
O2335 O 0.26189 0.80211 0.8045 0.0
O2336 O 0.2911 0.77901 0.79059 0.0
O2337 O 0.26744 0.76395 0.78712 0.0
O2338 O 0.23797 0.76933 0.79609 0.0
O2339 O 0.23144 0.77017 0.77007 0.0
O2340 O 0.25345 0.78745 0.75529 0.0
O2341 O 0.27383 0.7848 0.76849 0.0
O2342 O 0.24504 0.80757 0.78215 0.0
O2343 O 0.26873 0.82245 0.78526 0.0
H2344 H 0.31745 0.79579 0.77702 0.0
H2345 H 0.34247 0.78883 0.78177 0.0
H2346 H 0.35941 0.83305 0.81218 0.0
H2347 H 0.33452 0.84009 0.80727 0.0
H2348 H 0.22328 0.79449 0.79759 0.0
H2349 H 0.19952 0.80408 0.79661 0.0
H2350 H 0.17502 0.75788 0.7763 0.0
H2351 H 0.19886 0.74846 0.77691 0.0
Nd2352 Nd 0.50214 0.03694 0.02808 0.0
Nd2353 Nd 0.53539 0.0464 0.04418 0.0
C2354 C 0.47327 0.03545 0.01732 0.0
C2355 C 0.45835 0.03014 0.02254 0.0
C2356 C 0.45512 0.03491 0.03835 0.0
C2357 C 0.44096 0.0293 0.04301 0.0
C2358 C 0.42987 0.01868 0.03202 0.0
C2359 C 0.43314 0.01406 0.0162 0.0
C2360 C 0.4472 0.01977 0.01152 0.0
C2361 C 0.51379 0.01257 0.03859 0.0
C2362 C 0.50951 0.04849 0.06824 0.0
C2363 C 0.56472 0.04897 0.05398 0.0
C2364 C 0.57952 0.05625 0.04945 0.0
C2365 C 0.58738 0.04748 0.03941 0.0
C2366 C 0.6016 0.05412 0.03561 0.0
C2367 C 0.60833 0.06966 0.04182 0.0
C2368 C 0.60046 0.07842 0.05184 0.0
C2369 C 0.58626 0.07179 0.05565 0.0
C2370 C 0.52351 0.07044 0.03289 0.0
C2371 C 0.52781 0.03343 0.00441 0.0
O2372 O 0.482 0.04797 0.02568 0.0
O2373 O 0.48069 0.02451 0.01311 0.0
O2374 O 0.50347 0.01116 0.02607 0.0
O2375 O 0.51677 0.02627 0.04617 0.0
O2376 O 0.49961 0.04602 0.05476 0.0
O2377 O 0.52383 0.04731 0.06774 0.0
O2378 O 0.55662 0.03721 0.04387 0.0
O2379 O 0.55647 0.05826 0.06027 0.0
O2380 O 0.53351 0.07224 0.0457 0.0
O2381 O 0.52094 0.05662 0.02589 0.0
O2382 O 0.53729 0.03492 0.01811 0.0
O2383 O 0.51393 0.0361 0.00475 0.0
H2384 H 0.46356 0.04284 0.04716 0.0
H2385 H 0.4388 0.03298 0.05532 0.0
H2386 H 0.42476 0.00607 0.00739 0.0
H2387 H 0.44941 0.01597 0.99926 0.0
H2388 H 0.58258 0.03543 0.03455 0.0
H2389 H 0.60728 0.04707 0.02775 0.0
H2390 H 0.60542 0.09033 0.05708 0.0
H2391 H 0.58065 0.07882 0.06361 0.0
Nd2392 Nd 0.25996 0.28654 0.27886 0.0
Nd2393 Nd 0.28674 0.30827 0.29855 0.0
C2394 C 0.23606 0.26933 0.26054 0.0
C2395 C 0.22033 0.26825 0.26429 0.0
C2396 C 0.21036 0.27588 0.25548 0.0
C2397 C 0.1975 0.27925 0.26194 0.0
C2398 C 0.19449 0.27512 0.27735 0.0
C2399 C 0.20359 0.26613 0.28531 0.0
C2400 C 0.21633 0.26267 0.27884 0.0
C2401 C 0.26048 0.28751 0.3125 0.0
C2402 C 0.25613 0.32129 0.29307 0.0
C2403 C 0.31208 0.32156 0.31782 0.0
C2404 C 0.32689 0.31687 0.31981 0.0
C2405 C 0.32772 0.30098 0.3182 0.0
C2406 C 0.34073 0.29616 0.31368 0.0
C2407 C 0.35312 0.30722 0.31086 0.0
C2408 C 0.35294 0.32319 0.31462 0.0
C2409 C 0.33988 0.32797 0.31898 0.0
C2410 C 0.28123 0.31383 0.26672 0.0
C2411 C 0.29145 0.2736 0.2823 0.0
O2412 O 0.24246 0.28299 0.25709 0.0
O2413 O 0.24512 0.26344 0.2705 0.0
O2414 O 0.24849 0.28737 0.30242 0.0
O2415 O 0.27152 0.28727 0.30466 0.0
O2416 O 0.25288 0.31044 0.28016 0.0
O2417 O 0.26744 0.32112 0.30462 0.0
O2418 O 0.30075 0.31294 0.32314 0.0
O2419 O 0.30839 0.3252 0.30326 0.0
O2420 O 0.28536 0.32475 0.27907 0.0
O2421 O 0.28053 0.30046 0.27106 0.0
O2422 O 0.29727 0.28671 0.29213 0.0
O2423 O 0.27752 0.27102 0.27449 0.0
H2424 H 0.21314 0.28032 0.24425 0.0
H2425 H 0.19058 0.28607 0.25548 0.0
H2426 H 0.20133 0.26251 0.29704 0.0
H2427 H 0.22363 0.25666 0.28596 0.0
H2428 H 0.31787 0.29224 0.31899 0.0
H2429 H 0.34052 0.28378 0.31092 0.0
H2430 H 0.36245 0.33198 0.31288 0.0
H2431 H 0.33949 0.34028 0.32019 0.0
Nd2432 Nd 0.5143 0.55867 0.04581 0.0
Nd2433 Nd 0.52488 0.5316 0.03002 0.0
C2434 C 0.49878 0.58028 0.05397 0.0
C2435 C 0.49675 0.59376 0.0456 0.0
C2436 C 0.48424 0.60085 0.04714 0.0
C2437 C 0.48236 0.6134 0.03856 0.0
C2438 C 0.493 0.61898 0.02835 0.0
C2439 C 0.50548 0.61171 0.02689 0.0
C2440 C 0.50724 0.59917 0.0353 0.0
C2441 C 0.54264 0.56613 0.0366 0.0
C2442 C 0.50645 0.5493 0.00514 0.0
C2443 C 0.53931 0.50932 0.02074 0.0
C2444 C 0.53951 0.49423 0.02665 0.0
C2445 C 0.55219 0.48721 0.02607 0.0
C2446 C 0.55226 0.47292 0.03205 0.0
C2447 C 0.53956 0.46548 0.03847 0.0
C2448 C 0.527 0.47267 0.03921 0.0
C2449 C 0.52702 0.48697 0.03347 0.0
C2450 C 0.49653 0.52434 0.0394 0.0
C2451 C 0.53364 0.54157 0.07072 0.0
O2452 O 0.49245 0.56671 0.04567 0.0
O2453 O 0.51261 0.58063 0.0607 0.0
O2454 O 0.53874 0.5728 0.04976 0.0
O2455 O 0.53155 0.55692 0.02823 0.0
O2456 O 0.50177 0.55503 0.01876 0.0
O2457 O 0.51785 0.5418 0.0063 0.0
O2458 O 0.54574 0.5216 0.0312 0.0
O2459 O 0.5263 0.51077 0.01315 0.0
O2460 O 0.50016 0.51821 0.02582 0.0
O2461 O 0.50778 0.53326 0.04784 0.0
O2462 O 0.53743 0.53486 0.057 0.0
O2463 O 0.52284 0.54989 0.06984 0.0
H2464 H 0.47592 0.59664 0.05488 0.0
H2465 H 0.47256 0.61866 0.03983 0.0
H2466 H 0.51409 0.61586 0.01948 0.0
H2467 H 0.5169 0.59371 0.03379 0.0
H2468 H 0.56199 0.49278 0.02103 0.0
H2469 H 0.56207 0.46756 0.03144 0.0
H2470 H 0.5172 0.46729 0.04439 0.0
H2471 H 0.51724 0.49236 0.03437 0.0
Nd2472 Nd 0.78484 0.30643 0.28741 0.0
Nd2473 Nd 0.75616 0.28614 0.28517 0.0
C2474 C 0.81273 0.31955 0.28385 0.0
C2475 C 0.82678 0.31381 0.28232 0.0
C2476 C 0.8265 0.29778 0.27854 0.0
C2477 C 0.83985 0.29199 0.28084 0.0
C2478 C 0.85363 0.30225 0.28648 0.0
C2479 C 0.85402 0.3184 0.28892 0.0
C2480 C 0.84065 0.32413 0.28699 0.0
C2481 C 0.77275 0.30963 0.31655 0.0
C2482 C 0.78445 0.26814 0.29007 0.0
C2483 C 0.72824 0.27146 0.28637 0.0
C2484 C 0.71323 0.27502 0.28771 0.0
C2485 C 0.70195 0.26364 0.29194 0.0
C2486 C 0.68693 0.26553 0.29024 0.0
C2487 C 0.683 0.2788 0.28417 0.0
C2488 C 0.69455 0.29074 0.28117 0.0
C2489 C 0.70957 0.28885 0.28293 0.0
C2490 C 0.76908 0.28318 0.25652 0.0
C2491 C 0.75651 0.32456 0.28386 0.0
O2492 O 0.80186 0.31513 0.27156 0.0
O2493 O 0.80792 0.31868 0.29809 0.0
O2494 O 0.78036 0.32099 0.31038 0.0
O2495 O 0.7724 0.2966 0.30794 0.0
O2496 O 0.79227 0.2819 0.28784 0.0
O2497 O 0.76989 0.26697 0.29151 0.0
O2498 O 0.73842 0.27551 0.29935 0.0
O2499 O 0.73364 0.27424 0.27276 0.0
O2500 O 0.76275 0.2716 0.26332 0.0
O2501 O 0.76845 0.29608 0.26475 0.0
O2502 O 0.74878 0.31082 0.28633 0.0
O2503 O 0.77092 0.32562 0.2817 0.0
H2504 H 0.81591 0.28969 0.27458 0.0
H2505 H 0.83935 0.2795 0.27885 0.0
H2506 H 0.86454 0.32651 0.29343 0.0
H2507 H 0.84105 0.33653 0.29 0.0
H2508 H 0.70463 0.25293 0.29574 0.0
H2509 H 0.6783 0.25626 0.29292 0.0
H2510 H 0.69188 0.30105 0.27639 0.0
H2511 H 0.71818 0.29777 0.27962 0.0
Nd2512 Nd 1.00221 0.53689 0.52831 0.0
Nd2513 Nd 0.0348 0.55159 0.54253 0.0
C2514 C 0.97413 0.52893 0.51315 0.0
C2515 C 0.95882 0.52494 0.5178 0.0
C2516 C 0.95524 0.53137 0.53285 0.0
C2517 C 0.94081 0.52675 0.53734 0.0
C2518 C 0.92981 0.5155 0.52693 0.0
C2519 C 0.93343 0.50928 0.51179 0.0
C2520 C 0.94779 0.51397 0.50728 0.0
C2521 C 0.01792 0.51705 0.54292 0.0
C2522 C 0.0081 0.54921 0.56713 0.0
C2523 C 0.06287 0.56062 0.55761 0.0
C2524 C 0.07814 0.56554 0.55304 0.0
C2525 C 0.08377 0.55661 0.54084 0.0
C2526 C 0.09824 0.56171 0.53667 0.0
C2527 C 0.10725 0.5759 0.54447 0.0
C2528 C 0.10156 0.58476 0.55668 0.0
C2529 C 0.08719 0.57961 0.56094 0.0
C2530 C 0.01867 0.57151 0.52838 0.0
C2531 C 0.02901 0.53865 0.50376 0.0
O2532 O 0.98127 0.54342 0.51712 0.0
O2533 O 0.98286 0.51886 0.51559 0.0
O2534 O 1.00366 0.51689 0.54369 0.0
O2535 O 0.02311 0.52688 0.53395 0.0
O2536 O 0.99782 0.5458 0.55399 0.0
O2537 O 0.02271 0.55022 0.56593 0.0
O2538 O 0.05629 0.54599 0.55343 0.0
O2539 O 0.05354 0.57019 0.55562 0.0
O2540 O 0.03281 0.57151 0.52714 0.0
O2541 O 0.01383 0.56153 0.53732 0.0
O2542 O 0.03935 0.54278 0.51682 0.0
O2543 O 0.01437 0.53724 0.50495 0.0
H2544 H 0.96366 0.53977 0.54123 0.0
H2545 H 0.9384 0.53167 0.54912 0.0
H2546 H 0.92515 0.50076 0.50341 0.0
H2547 H 0.95034 0.50888 0.49563 0.0
H2548 H 0.07699 0.54574 0.53445 0.0
H2549 H 0.10228 0.55469 0.52715 0.0
H2550 H 0.10831 0.59563 0.56308 0.0
H2551 H 0.08311 0.58666 0.5704 0.0
Nd2552 Nd 0.77643 0.79846 0.3047 0.0
Nd2553 Nd 0.76361 0.79682 0.27377 0.0
C2554 C 0.7832 0.79697 0.33648 0.0
C2555 C 0.77508 0.79592 0.35079 0.0
C2556 C 0.75983 0.79725 0.34958 0.0
C2557 C 0.75292 0.79917 0.36369 0.0
C2558 C 0.76116 0.79971 0.3792 0.0
C2559 C 0.77609 0.79721 0.38032 0.0
C2560 C 0.78304 0.79539 0.36616 0.0
C2561 C 0.78529 0.82729 0.29335 0.0
C2562 C 0.74114 0.80325 0.299 0.0
C2563 C 0.75776 0.79953 0.24227 0.0
C2564 C 0.76294 0.79271 0.22753 0.0
C2565 C 0.76159 0.79951 0.21304 0.0
C2566 C 0.76677 0.79309 0.19905 0.0
C2567 C 0.77331 0.77978 0.19942 0.0
C2568 C 0.77491 0.77321 0.2141 0.0
C2569 C 0.7698 0.77967 0.22807 0.0
C2570 C 0.75485 0.76766 0.28446 0.0
C2571 C 0.79913 0.79128 0.27925 0.0
O2572 O 0.78038 0.78477 0.32531 0.0
O2573 O 0.78372 0.80998 0.33018 0.0
O2574 O 0.79426 0.8196 0.30077 0.0
O2575 O 0.77179 0.81938 0.2914 0.0
O2576 O 0.75093 0.79718 0.30797 0.0
O2577 O 0.74469 0.80722 0.28487 0.0
O2578 O 0.76819 0.80922 0.2524 0.0
O2579 O 0.74914 0.78983 0.24974 0.0
O2580 O 0.746 0.77505 0.27639 0.0
O2581 O 0.76829 0.77582 0.28699 0.0
O2582 O 0.78778 0.79311 0.26866 0.0
O2583 O 0.79749 0.79182 0.29487 0.0
H2584 H 0.75348 0.79766 0.33788 0.0
H2585 H 0.74138 0.801 0.36253 0.0
H2586 H 0.78271 0.79774 0.39218 0.0
H2587 H 0.79484 0.7944 0.3673 0.0
H2588 H 0.75645 0.80969 0.21254 0.0
H2589 H 0.76527 0.79825 0.18782 0.0
H2590 H 0.78004 0.76304 0.21474 0.0
H2591 H 0.77113 0.77443 0.23928 0.0
Nd2592 Nd 0.76954 0.31273 0.79649 0.0
Nd2593 Nd 0.76664 0.27737 0.77882 0.0
C2594 C 0.76437 0.34069 0.80603 0.0
C2595 C 0.77181 0.35625 0.80303 0.0
C2596 C 0.76346 0.36808 0.80143 0.0
C2597 C 0.77021 0.3824 0.79705 0.0
C2598 C 0.78541 0.38509 0.79414 0.0
C2599 C 0.79375 0.37321 0.79594 0.0
C2600 C 0.787 0.35894 0.80027 0.0
C2601 C 0.79852 0.30645 0.79397 0.0
C2602 C 0.76702 0.30567 0.75582 0.0
C2603 C 0.77152 0.24933 0.76888 0.0
C2604 C 0.76414 0.23368 0.77165 0.0
C2605 C 0.77079 0.22073 0.768 0.0
C2606 C 0.764 0.20597 0.77129 0.0
C2607 C 0.75043 0.20393 0.77833 0.0
C2608 C 0.74383 0.21701 0.78191 0.0
C2609 C 0.75064 0.23172 0.77867 0.0
C2610 C 0.73783 0.28392 0.78211 0.0
C2611 C 0.76903 0.28452 0.81956 0.0
O2612 O 0.75684 0.33168 0.79298 0.0
O2613 O 0.77244 0.33332 0.81545 0.0
O2614 O 0.79571 0.31971 0.80003 0.0
O2615 O 0.78587 0.29753 0.7886 0.0
O2616 O 0.76602 0.31519 0.76903 0.0
O2617 O 0.76949 0.29129 0.75664 0.0
O2618 O 0.77914 0.25822 0.78197 0.0
O2619 O 0.76324 0.25677 0.75978 0.0
O2620 O 0.74019 0.27056 0.77578 0.0
O2621 O 0.75064 0.29258 0.7869 0.0
O2622 O 0.76965 0.27472 0.80639 0.0
O2623 O 0.76707 0.29905 0.81869 0.0
H2624 H 0.75165 0.36612 0.80324 0.0
H2625 H 0.76342 0.39123 0.7956 0.0
H2626 H 0.80553 0.37495 0.79407 0.0
H2627 H 0.79364 0.34993 0.80125 0.0
H2628 H 0.7813 0.22207 0.76275 0.0
H2629 H 0.76951 0.19622 0.76857 0.0
H2630 H 0.73328 0.21587 0.78708 0.0
H2631 H 0.7454 0.24161 0.78172 0.0
Nd2632 Nd 0.75379 0.78133 0.77438 0.0
Nd2633 Nd 0.78045 0.8023 0.79545 0.0
C2634 C 0.72829 0.76861 0.75509 0.0
C2635 C 0.71346 0.77338 0.75301 0.0
C2636 C 0.71234 0.78867 0.75035 0.0
C2637 C 0.69946 0.79451 0.75367 0.0
C2638 C 0.68768 0.78529 0.76003 0.0
C2639 C 0.68812 0.76948 0.76081 0.0
C2640 C 0.70086 0.76357 0.75724 0.0
C2641 C 0.75963 0.77339 0.8052 0.0
C2642 C 0.74926 0.81587 0.79147 0.0
C2643 C 0.80347 0.81882 0.81585 0.0
C2644 C 0.8196 0.82152 0.81342 0.0
C2645 C 0.83029 0.81668 0.8243 0.0
C2646 C 0.84476 0.81602 0.82014 0.0
C2647 C 0.84874 0.82016 0.805 0.0
C2648 C 0.83828 0.82592 0.79465 0.0
C2649 C 0.82393 0.82661 0.7988 0.0
C2650 C 0.781 0.80264 0.76217 0.0
C2651 C 0.78471 0.7684 0.77851 0.0
O2652 O 0.73975 0.77708 0.7498 0.0
O2653 O 0.73192 0.76478 0.7696 0.0
O2654 O 0.75597 0.76342 0.79199 0.0
O2655 O 0.75996 0.78719 0.80211 0.0
O2656 O 0.74322 0.80268 0.78184 0.0
O2657 O 0.76325 0.81831 0.79904 0.0
O2658 O 0.7975 0.80442 0.81745 0.0
O2659 O 0.7946 0.82516 0.80617 0.0
O2660 O 0.79281 0.80303 0.77263 0.0
O2661 O 0.7696 0.80255 0.76953 0.0
O2662 O 0.78805 0.77868 0.79194 0.0
O2663 O 0.77309 0.76884 0.76741 0.0
H2664 H 0.72183 0.79652 0.747 0.0
H2665 H 0.69927 0.80663 0.75249 0.0
H2666 H 0.67928 0.762 0.76564 0.0
H2667 H 0.70144 0.75172 0.75931 0.0
H2668 H 0.8272 0.81263 0.83559 0.0
H2669 H 0.8526 0.8117 0.82849 0.0
H2670 H 0.84077 0.82895 0.78277 0.0
H2671 H 0.81595 0.83025 0.79001 0.0
Nd2672 Nd 0.52985 0.56126 0.53992 0.0
Nd2673 Nd 0.5101 0.52841 0.53488 0.0
C2674 C 0.541 0.59145 0.54874 0.0
C2675 C 0.54103 0.6051 0.53961 0.0
C2676 C 0.53877 0.61931 0.54752 0.0
C2677 C 0.53725 0.6318 0.53864 0.0
C2678 C 0.53785 0.63032 0.5216 0.0
C2679 C 0.5403 0.61611 0.51377 0.0
C2680 C 0.54187 0.60368 0.52266 0.0
C2681 C 0.53172 0.54877 0.50764 0.0
C2682 C 0.49328 0.55719 0.52715 0.0
C2683 C 0.49914 0.4983 0.52526 0.0
C2684 C 0.49879 0.48434 0.53394 0.0
C2685 C 0.50088 0.4702 0.5257 0.0
C2686 C 0.50168 0.45728 0.53413 0.0
C2687 C 0.5005 0.45821 0.55105 0.0
C2688 C 0.49836 0.47243 0.55922 0.0
C2689 C 0.49753 0.4853 0.55079 0.0
C2690 C 0.50782 0.54075 0.56699 0.0
C2691 C 0.54632 0.53276 0.54977 0.0
O2692 O 0.52771 0.58462 0.55161 0.0
O2693 O 0.54929 0.5814 0.54423 0.0
O2694 O 0.53744 0.56282 0.51434 0.0
O2695 O 0.52402 0.54182 0.51772 0.0
O2696 O 0.50625 0.56637 0.53337 0.0
O2697 O 0.4921 0.54184 0.52408 0.0
O2698 O 0.51256 0.50527 0.52285 0.0
O2699 O 0.49074 0.50823 0.52983 0.0
O2700 O 0.50211 0.52672 0.56014 0.0
O2701 O 0.51568 0.54791 0.55712 0.0
O2702 O 0.53332 0.52331 0.54415 0.0
O2703 O 0.54777 0.54814 0.55098 0.0
H2704 H 0.53785 0.62064 0.56053 0.0
H2705 H 0.53521 0.64249 0.54506 0.0
H2706 H 0.54102 0.61459 0.50073 0.0
H2707 H 0.54353 0.59289 0.51616 0.0
H2708 H 0.50205 0.4692 0.51276 0.0
H2709 H 0.50318 0.44653 0.52734 0.0
H2710 H 0.49767 0.47377 0.57227 0.0
H2711 H 0.49614 0.49608 0.55757 0.0
Nd2712 Nd 0.03156 0.55261 0.03274 0.0
Nd2713 Nd 1.00378 0.5383 0.04048 0.0
C2714 C 0.05653 0.56071 0.01958 0.0
C2715 C 0.07025 0.55399 0.02063 0.0
C2716 C 0.07745 0.55143 0.00671 0.0
C2717 C 0.08955 0.54352 0.00737 0.0
C2718 C 0.09457 0.53805 0.02197 0.0
C2719 C 0.08743 0.54091 0.03593 0.0
C2720 C 0.07534 0.54867 0.03523 0.0
C2721 C 0.03498 0.54299 0.06362 0.0
C2722 C 0.02035 0.51491 0.02157 0.0
C2723 C 0.9785 0.53066 0.05326 0.0
C2724 C 0.96582 0.53888 0.05279 0.0
C2725 C 0.95401 0.53518 0.0621 0.0
C2726 C 0.94196 0.54315 0.06116 0.0
C2727 C 0.94161 0.55488 0.05086 0.0
C2728 C 0.95369 0.55866 0.04182 0.0
C2729 C 0.9657 0.55079 0.04285 0.0
C2730 C 1.00073 0.54806 0.00962 0.0
C2731 C 0.01507 0.57583 0.05206 0.0
O2732 O 0.04445 0.5515 0.01146 0.0
O2733 O 0.05385 0.568 0.03325 0.0
O2734 O 0.04187 0.55603 0.05984 0.0
O2735 O 0.02677 0.53497 0.05114 0.0
O2736 O 0.02741 0.52809 0.01743 0.0
O2737 O 0.01174 0.51546 0.03333 0.0
O2738 O 0.99103 0.53849 0.06188 0.0
O2739 O 0.98071 0.52416 0.03899 0.0
O2740 O 0.99427 0.53469 0.01307 0.0
O2741 O 0.00857 0.55608 0.02232 0.0
O2742 O 0.00803 0.56262 0.05611 0.0
O2743 O 0.02351 0.57536 0.04014 0.0
H2744 H 0.0735 0.55522 0.99526 0.0
H2745 H 0.09474 0.5414 0.99637 0.0
H2746 H 0.0912 0.53716 0.04747 0.0
H2747 H 0.06983 0.55027 0.04609 0.0
H2748 H 0.95406 0.52612 0.06997 0.0
H2749 H 0.9329 0.54009 0.06841 0.0
H2750 H 0.95369 0.56737 0.03352 0.0
H2751 H 0.97482 0.55385 0.03565 0.0
H2752 H 0.04174 0.2558 0.95054 0.0
H2753 H 0.0425 0.23519 0.96796 0.0
H2754 H 0.00975 0.20337 0.93231 0.0
H2755 H 0.00898 0.22396 0.9147 0.0
H2756 H 1.00362 0.19989 0.96324 0.0
H2757 H 0.0475 0.20197 0.93524 0.0
H2758 H 0.07109 0.21473 0.92612 0.0
H2759 H 0.0913 0.22834 0.97629 0.0
H2760 H 0.06774 0.21584 0.98572 0.0
H2761 H 0.0152 0.12978 0.99343 0.0
H2762 H 0.01301 0.15077 0.97695 0.0
H2763 H 0.04858 0.18164 0.01029 0.0
H2764 H 0.0515 0.16038 0.02633 0.0
H2765 H 0.05298 0.18578 0.98062 0.0
H2766 H 0.00938 0.18366 0.00888 0.0
H2767 H 0.98592 0.17086 0.01823 0.0
H2768 H 0.96524 0.15745 0.9682 0.0
H2769 H 0.98864 0.17004 0.95854 0.0
C2770 C 0.03476 0.2444 0.94629 0.0
C2771 C 0.02542 0.24158 0.93105 0.0
C2772 C 0.03517 0.2326 0.95634 0.0
C2773 C 0.02636 0.21758 0.95141 0.0
C2774 C 0.01668 0.21482 0.93643 0.0
C2775 C 0.01624 0.22665 0.92637 0.0
C2776 C 0.02752 0.20473 0.96169 0.0
C2777 C 0.01439 0.19668 0.96687 0.0
C2778 C 0.0416 0.2007 0.96682 0.0
C2779 C 0.05581 0.2081 0.96118 0.0
C2780 C 0.05694 0.20778 0.94433 0.0
C2781 C 0.07031 0.21495 0.9391 0.0
C2782 C 0.08267 0.22237 0.95062 0.0
C2783 C 0.08171 0.2226 0.96739 0.0
C2784 C 0.06835 0.21546 0.97268 0.0
C2785 C 0.02271 0.14095 0.99723 0.0
C2786 C 0.0336 0.14322 0.01129 0.0
C2787 C 0.02127 0.15309 0.98787 0.0
C2788 C 0.03045 0.16799 0.99242 0.0
C2789 C 0.04129 0.17033 0.00648 0.0
C2790 C 0.04284 0.15814 0.01578 0.0
C2791 C 0.02909 0.18094 0.98229 0.0
C2792 C 0.0422 0.189 0.97708 0.0
C2793 C 0.015 0.18501 0.97721 0.0
C2794 C 1.00081 0.17769 0.98299 0.0
C2795 C 0.99985 0.17792 0.99987 0.0
C2796 C 0.98656 0.17071 0.00522 0.0
C2797 C 0.97411 0.16331 0.99381 0.0
C2798 C 0.9749 0.16318 0.97702 0.0
C2799 C 0.98816 0.17037 0.9716 0.0
H2800 H 0.96384 0.1577 0.99798 0.0
H2801 H 0.09301 0.22792 0.94655 0.0
H2802 H 0.1022 0.7826 0.21365 0.0
H2803 H 0.12896 0.78389 0.2227 0.0
H2804 H 0.12226 0.79713 0.27265 0.0
H2805 H 0.09528 0.79574 0.26369 0.0
H2806 H 0.1488 0.81379 0.26679 0.0
H2807 H 0.12629 0.75923 0.25819 0.0
H2808 H 0.1112 0.73477 0.24268 0.0
H2809 H 0.14083 0.73757 0.2056 0.0
H2810 H 0.15599 0.76217 0.22079 0.0
H2811 H 0.22162 0.79819 0.30027 0.0
H2812 H 0.19499 0.80055 0.29359 0.0
H2813 H 0.19588 0.78255 0.2431 0.0
H2814 H 0.222 0.77967 0.24992 0.0
H2815 H 0.17175 0.76821 0.25093 0.0
H2816 H 0.19396 0.82278 0.25843 0.0
H2817 H 0.20922 0.84746 0.27327 0.0
H2818 H 0.1807 0.84513 0.31141 0.0
H2819 H 0.16539 0.8203 0.2969 0.0
C2820 C 0.10625 0.78561 0.22663 0.0
C2821 C 0.0962 0.78883 0.23787 0.0
C2822 C 0.12174 0.78641 0.23182 0.0
C2823 C 0.12788 0.79036 0.24849 0.0
C2824 C 0.11801 0.79401 0.25972 0.0
C2825 C 0.10246 0.79323 0.25453 0.0
C2826 C 0.14442 0.79038 0.25409 0.0
C2827 C 0.15374 0.80372 0.26348 0.0
C2828 C 0.15123 0.77745 0.24965 0.0
C2829 C 0.14219 0.76261 0.24056 0.0
C2830 C 0.12953 0.75468 0.24668 0.0
C2831 C 0.12097 0.74079 0.23795 0.0
C2832 C 0.12503 0.73464 0.22315 0.0
C2833 C 0.13769 0.74235 0.21706 0.0
C2834 C 0.14627 0.75626 0.22573 0.0
C2835 C 0.21621 0.79511 0.28769 0.0
C2836 C 0.22406 0.78886 0.27562 0.0
C2837 C 0.20088 0.79641 0.28382 0.0
C2838 C 0.19308 0.79173 0.26772 0.0
C2839 C 0.20128 0.78612 0.25564 0.0
C2840 C 0.21638 0.78461 0.25954 0.0
C2841 C 0.17632 0.79176 0.26338 0.0
C2842 C 0.16689 0.77834 0.25426 0.0
C2843 C 0.1695 0.80466 0.26796 0.0
C2844 C 0.17864 0.8196 0.27667 0.0
C2845 C 0.19101 0.82747 0.27004 0.0
C2846 C 0.19966 0.8415 0.27838 0.0
C2847 C 0.19596 0.84784 0.2933 0.0
C2848 C 0.18357 0.84019 0.29987 0.0
C2849 C 0.1749 0.82615 0.29159 0.0
H2850 H 0.20267 0.8587 0.29974 0.0
H2851 H 0.11839 0.72388 0.21641 0.0
H2852 H 0.51996 0.87259 0.45248 0.0
H2853 H 0.51929 0.89653 0.47029 0.0
H2854 H 0.53593 0.92388 0.4335 0.0
H2855 H 0.53738 0.89989 0.41609 0.0
H2856 H 0.5486 0.93825 0.46087 0.0
H2857 H 0.49649 0.91565 0.44164 0.0
H2858 H 0.47348 0.89506 0.43681 0.0
H2859 H 0.47483 0.89398 0.48873 0.0
H2860 H 0.49797 0.91444 0.49386 0.0
H2861 H 0.52962 0.00943 0.49146 0.0
H2862 H 0.53047 0.9849 0.47506 0.0
H2863 H 0.51632 0.95968 0.51437 0.0
H2864 H 0.51462 0.98434 0.53054 0.0
H2865 H 0.50272 0.94399 0.48664 0.0
H2866 H 0.55507 0.96863 0.50488 0.0
H2867 H 0.57673 0.99065 0.50806 0.0
H2868 H 0.57379 0.98883 0.45567 0.0
H2869 H 0.55193 0.96699 0.4522 0.0
C2870 C 0.52351 0.88373 0.44823 0.0
C2871 C 0.52867 0.88435 0.43285 0.0
C2872 C 0.52301 0.89746 0.45838 0.0
C2873 C 0.52719 0.91218 0.45319 0.0
C2874 C 0.53259 0.91277 0.43789 0.0
C2875 C 0.53341 0.89904 0.4279 0.0
C2876 C 0.52607 0.92693 0.46367 0.0
C2877 C 0.53847 0.9395 0.46632 0.0
C2878 C 0.51301 0.92868 0.47117 0.0
C2879 C 0.49904 0.91646 0.46812 0.0
C2880 C 0.49193 0.91095 0.45202 0.0
C2881 C 0.47886 0.89931 0.44923 0.0
C2882 C 0.47272 0.89319 0.46245 0.0
C2883 C 0.47961 0.89872 0.4785 0.0
C2884 C 0.4927 0.91035 0.48136 0.0
C2885 C 0.52673 0.99868 0.49668 0.0
C2886 C 0.5222 0.99889 0.51242 0.0
C2887 C 0.5273 0.98459 0.48728 0.0
C2888 C 0.52389 0.97031 0.49355 0.0
C2889 C 0.51914 0.97048 0.50921 0.0
C2890 C 0.51821 0.98459 0.5185 0.0
C2891 C 0.5252 0.9553 0.48372 0.0
C2892 C 0.51286 0.94268 0.48124 0.0
C2893 C 0.53822 0.95357 0.47616 0.0
C2894 C 0.5518 0.96624 0.47829 0.0
C2895 C 0.55904 0.97294 0.49405 0.0
C2896 C 0.57134 0.98541 0.4959 0.0
C2897 C 0.57662 0.99116 0.48206 0.0
C2898 C 0.56968 0.98437 0.46637 0.0
C2899 C 0.55734 0.97194 0.46445 0.0
H2900 H 0.58607 1.00088 0.48345 0.0
H2901 H 0.4626 0.88418 0.46027 0.0
H2902 H 0.42431 0.29263 0.71168 0.0
H2903 H 0.39939 0.29347 0.71976 0.0
H2904 H 0.41162 0.27434 0.76393 0.0
H2905 H 0.4368 0.27384 0.75621 0.0
H2906 H 0.38315 0.26053 0.75093 0.0
H2907 H 0.40939 0.31355 0.76421 0.0
H2908 H 0.42433 0.33854 0.75921 0.0
H2909 H 0.38921 0.34281 0.72163 0.0
H2910 H 0.37415 0.31772 0.72624 0.0
H2911 H 0.32124 0.27759 0.79243 0.0
H2912 H 0.34617 0.27621 0.78421 0.0
H2913 H 0.33412 0.29534 0.73995 0.0
H2914 H 0.30918 0.29672 0.74811 0.0
H2915 H 0.36248 0.30912 0.75301 0.0
H2916 H 0.33623 0.25633 0.73952 0.0
H2917 H 0.32113 0.23132 0.74422 0.0
H2918 H 0.35604 0.22652 0.78177 0.0
H2919 H 0.37127 0.25164 0.77746 0.0
C2920 C 0.42196 0.28881 0.72329 0.0
C2921 C 0.43304 0.28329 0.73324 0.0
C2922 C 0.40748 0.28924 0.72789 0.0
C2923 C 0.40338 0.28414 0.74264 0.0
C2924 C 0.41426 0.27836 0.75248 0.0
C2925 C 0.4288 0.27803 0.74794 0.0
C2926 C 0.38785 0.28481 0.74772 0.0
C2927 C 0.37879 0.27125 0.7516 0.0
C2928 C 0.38168 0.29861 0.74829 0.0
C2929 C 0.39071 0.31367 0.74545 0.0
C2930 C 0.40491 0.31975 0.75478 0.0
C2931 C 0.41339 0.33394 0.75203 0.0
C2932 C 0.40774 0.34223 0.74007 0.0
C2933 C 0.39358 0.33636 0.73086 0.0
C2934 C 0.38507 0.32216 0.73354 0.0
C2935 C 0.3238 0.28143 0.78088 0.0
C2936 C 0.31293 0.28719 0.77095 0.0
C2937 C 0.33816 0.28059 0.77613 0.0
C2938 C 0.34227 0.28556 0.76131 0.0
C2939 C 0.33146 0.2914 0.75143 0.0
C2940 C 0.31704 0.2921 0.7561 0.0
C2941 C 0.3578 0.28484 0.75624 0.0
C2942 C 0.36685 0.2984 0.75235 0.0
C2943 C 0.36394 0.27103 0.75562 0.0
C2944 C 0.35481 0.25595 0.75829 0.0
C2945 C 0.34063 0.25001 0.74889 0.0
C2946 C 0.33205 0.23581 0.75146 0.0
C2947 C 0.3376 0.22736 0.76332 0.0
C2948 C 0.35175 0.23309 0.77261 0.0
C2949 C 0.36036 0.24731 0.7701 0.0
H2950 H 0.33095 0.21636 0.76528 0.0
H2951 H 0.41432 0.35322 0.73797 0.0
H2952 H 0.99424 0.85226 0.61428 0.0
H2953 H 1.00321 0.87698 0.6042 0.0
H2954 H 0.03492 0.85578 0.57855 0.0
H2955 H 0.02644 0.83129 0.58936 0.0
H2956 H 0.04838 0.88307 0.592 0.0
H2957 H 1.0007 0.8633 0.55866 0.0
H2958 H 0.9733 0.85265 0.55274 0.0
H2959 H 0.96415 0.89417 0.57891 0.0
H2960 H 0.99151 0.90498 0.58517 0.0
H2961 H 0.04728 0.94068 0.53181 0.0
H2962 H 0.04374 0.91626 0.54378 0.0
H2963 H 0.03828 0.94111 0.58993 0.0
H2964 H 0.0427 0.96573 0.57847 0.0
H2965 H 0.01244 0.91216 0.56553 0.0
H2966 H 0.06176 0.93031 0.60009 0.0
H2967 H 0.0893 0.94028 0.60361 0.0
H2968 H 0.09506 0.90052 0.57155 0.0
H2969 H 0.06749 0.89046 0.56764 0.0
C2970 C 1.00303 0.85291 0.60639 0.0
C2971 C 0.00961 0.83995 0.60246 0.0
C2972 C 0.00814 0.86699 0.60059 0.0
C2973 C 0.01958 0.86819 0.59037 0.0
C2974 C 0.0261 0.85516 0.58641 0.0
C2975 C 0.02121 0.84118 0.5925 0.0
C2976 C 0.02488 0.88307 0.58399 0.0
C2977 C 0.04049 0.88932 0.58608 0.0
C2978 C 0.01464 0.89133 0.57631 0.0
C2979 C 0.99817 0.88488 0.57251 0.0
C2980 C 0.99285 0.87011 0.56325 0.0
C2981 C 0.97732 0.86405 0.55982 0.0
C2982 C 0.96699 0.87271 0.56548 0.0
C2983 C 0.97216 0.88746 0.57455 0.0
C2984 C 0.98768 0.89357 0.57803 0.0
C2985 C 0.0459 0.94108 0.54467 0.0
C2986 C 0.04508 0.95517 0.55411 0.0
C2987 C 0.04379 0.92709 0.55144 0.0
C2988 C 0.04078 0.92699 0.56768 0.0
C2989 C 0.04069 0.94105 0.57738 0.0
C2990 C 0.04306 0.95506 0.57074 0.0
C2991 C 0.03576 0.91208 0.5738 0.0
C2992 C 0.02023 0.90583 0.57151 0.0
C2993 C 0.04604 0.90374 0.58104 0.0
C2994 C 0.06256 0.90978 0.58337 0.0
C2995 C 0.06888 0.92382 0.59362 0.0
C2996 C 0.08449 0.92945 0.59573 0.0
C2997 C 0.09392 0.92108 0.58775 0.0
C2998 C 0.08774 0.90702 0.57769 0.0
C2999 C 0.07213 0.90135 0.57552 0.0
H3000 H 0.10601 0.92545 0.58941 0.0
H3001 H 0.95497 0.868 0.56281 0.0
H3002 H 0.46317 0.81176 0.89337 0.0
H3003 H 0.44026 0.80412 0.87358 0.0
H3004 H 0.46726 0.80063 0.83406 0.0
H3005 H 0.49032 0.80787 0.85385 0.0
H3006 H 0.44585 0.81854 0.8287 0.0
H3007 H 0.44732 0.76806 0.8431 0.0
H3008 H 0.44981 0.74804 0.86134 0.0
H3009 H 0.41034 0.75666 0.88223 0.0
H3010 H 0.40774 0.77693 0.86433 0.0
H3011 H 0.37379 0.8015 0.77909 0.0
H3012 H 0.39831 0.79554 0.78968 0.0
H3013 H 0.38692 0.80143 0.839 0.0
H3014 H 0.3627 0.80748 0.82851 0.0
H3015 H 0.40223 0.77689 0.8334 0.0
H3016 H 0.40568 0.8315 0.82537 0.0
H3017 H 0.4029 0.85255 0.80853 0.0
H3018 H 0.43311 0.83664 0.77696 0.0
H3019 H 0.43588 0.81533 0.79351 0.0
C3020 C 0.46426 0.8091 0.88051 0.0
C3021 C 0.47858 0.81051 0.87519 0.0
C3022 C 0.45115 0.80471 0.86922 0.0
C3023 C 0.4521 0.80163 0.85239 0.0
C3024 C 0.46633 0.8029 0.84701 0.0
C3025 C 0.47947 0.8072 0.85832 0.0
C3026 C 0.43817 0.79842 0.84046 0.0
C3027 C 0.43646 0.80914 0.82937 0.0
C3028 C 0.42588 0.78628 0.84155 0.0
C3029 C 0.42739 0.7741 0.8524 0.0
C3030 C 0.43924 0.76579 0.85167 0.0
C3031 C 0.44066 0.75438 0.86194 0.0
C3032 C 0.43025 0.7511 0.87295 0.0
C3033 C 0.4184 0.75921 0.87369 0.0
C3034 C 0.41693 0.77066 0.86347 0.0
C3035 C 0.37653 0.80126 0.79213 0.0
C3036 C 0.36663 0.80517 0.80309 0.0
C3037 C 0.39043 0.79782 0.79814 0.0
C3038 C 0.39439 0.79811 0.81511 0.0
C3039 C 0.38404 0.80108 0.82587 0.0
C3040 C 0.37031 0.80468 0.81992 0.0
C3041 C 0.40987 0.7973 0.82212 0.0
C3042 C 0.41184 0.78589 0.83232 0.0
C3043 C 0.42239 0.80889 0.82038 0.0
C3044 C 0.42082 0.82172 0.81051 0.0
C3045 C 0.41163 0.83242 0.81475 0.0
C3046 C 0.41007 0.8444 0.80528 0.0
C3047 C 0.41778 0.84589 0.79164 0.0
C3048 C 0.42711 0.83543 0.78749 0.0
C3049 C 0.42867 0.8234 0.79691 0.0
H3050 H 0.41657 0.85518 0.78433 0.0
H3051 H 0.43137 0.74225 0.88088 0.0
H3052 H 0.4928 0.20435 0.05688 0.0
H3053 H 0.49629 0.17985 0.04204 0.0
H3054 H 0.46692 0.15394 0.07132 0.0
H3055 H 0.46355 0.17835 0.08634 0.0
H3056 H 0.4957 0.14712 0.07313 0.0
H3057 H 0.45617 0.15257 0.03116 0.0
H3058 H 0.44389 0.16622 0.01063 0.0
H3059 H 0.48234 0.16862 0.98437 0.0
H3060 H 0.49496 0.15517 0.00489 0.0
H3061 H 0.49734 0.07238 0.04469 0.0
H3062 H 0.48513 0.0949 0.0462 0.0
H3063 H 0.51762 0.11821 0.01824 0.0
H3064 H 0.52956 0.09519 0.01618 0.0
H3065 H 0.48732 0.12663 0.01376 0.0
H3066 H 0.52798 0.12427 0.05531 0.0
H3067 H 0.54161 0.11073 0.0749 0.0
H3068 H 0.50341 0.10419 0.10147 0.0
H3069 H 0.48952 0.11768 0.08185 0.0
C3070 C 0.48685 0.19342 0.05991 0.0
C3071 C 0.47801 0.19324 0.07286 0.0
C3072 C 0.48876 0.17945 0.05135 0.0
C3073 C 0.48187 0.16512 0.05562 0.0
C3074 C 0.4723 0.16492 0.06785 0.0
C3075 C 0.47031 0.17887 0.07635 0.0
C3076 C 0.48623 0.15048 0.049 0.0
C3077 C 0.49363 0.14254 0.06018 0.0
C3078 C 0.48417 0.14493 0.03201 0.0
C3079 C 0.47657 0.15299 0.01966 0.0
C3080 C 0.46207 0.15613 0.0211 0.0
C3081 C 0.45503 0.1638 0.00944 0.0
C3082 C 0.46234 0.16832 0.99623 0.0
C3083 C 0.4767 0.16513 0.99462 0.0
C3084 C 0.48379 0.15747 0.00625 0.0
C3085 C 0.50129 0.08188 0.03802 0.0
C3086 C 0.51409 0.08197 0.02996 0.0
C3087 C 0.4944 0.09481 0.03899 0.0
C3088 C 0.50054 0.10821 0.03239 0.0
C3089 C 0.51265 0.1079 0.02325 0.0
C3090 C 0.51947 0.09482 0.02214 0.0
C3091 C 0.49634 0.12319 0.03798 0.0
C3092 C 0.48924 0.13125 0.02669 0.0
C3093 C 0.499 0.12918 0.05485 0.0
C3094 C 0.50763 0.1218 0.06707 0.0
C3095 C 0.52246 0.1199 0.0653 0.0
C3096 C 0.53024 0.11226 0.0764 0.0
C3097 C 0.52336 0.10659 0.08941 0.0
C3098 C 0.5087 0.10862 0.09139 0.0
C3099 C 0.50089 0.11626 0.08031 0.0
H3100 H 0.52938 0.10066 0.09798 0.0
H3101 H 0.45688 0.17426 0.98721 0.0
H3102 H 0.08411 0.30635 0.35362 0.0
H3103 H 0.10013 0.30181 0.33235 0.0
H3104 H 0.13993 0.31845 0.36801 0.0
H3105 H 0.12389 0.3235 0.38916 0.0
H3106 H 0.14455 0.32877 0.34032 0.0
H3107 H 0.1247 0.27859 0.35578 0.0
H3108 H 0.10451 0.25724 0.36032 0.0
H3109 H 0.08614 0.25148 0.3094 0.0
H3110 H 0.10611 0.27296 0.30461 0.0
H3111 H 0.19865 0.28966 0.30861 0.0
H3112 H 0.18028 0.30017 0.32367 0.0
H3113 H 0.14657 0.28654 0.28097 0.0
H3114 H 0.16506 0.27589 0.26571 0.0
H3115 H 0.13703 0.27585 0.30903 0.0
H3116 H 0.15426 0.32928 0.29556 0.0
H3117 H 0.17222 0.35323 0.29293 0.0
H3118 H 0.19589 0.35207 0.34059 0.0
H3119 H 0.17757 0.32846 0.34376 0.0
C3120 C 0.09629 0.30909 0.35685 0.0
C3121 C 0.10282 0.31514 0.373 0.0
C3122 C 0.10542 0.30645 0.34473 0.0
C3123 C 0.12122 0.30947 0.34866 0.0
C3124 C 0.12775 0.31599 0.3647 0.0
C3125 C 0.11862 0.31887 0.37677 0.0
C3126 C 0.13099 0.30555 0.33621 0.0
C3127 C 0.14295 0.31714 0.33359 0.0
C3128 C 0.12869 0.29052 0.32706 0.0
C3129 C 0.1168 0.27748 0.32988 0.0
C3130 C 0.1163 0.27283 0.34558 0.0
C3131 C 0.1049 0.26071 0.34819 0.0
C3132 C 0.09403 0.25304 0.33517 0.0
C3133 C 0.09456 0.25745 0.31948 0.0
C3134 C 0.10592 0.26959 0.31681 0.0
C3135 C 0.18731 0.28887 0.30241 0.0
C3136 C 0.18316 0.28167 0.2861 0.0
C3137 C 0.17691 0.29514 0.31095 0.0
C3138 C 0.16212 0.29433 0.30338 0.0
C3139 C 0.15798 0.2874 0.28697 0.0
C3140 C 0.16849 0.28126 0.27832 0.0
C3141 C 0.1507 0.29902 0.31335 0.0
C3142 C 0.13846 0.28752 0.31559 0.0
C3143 C 0.1528 0.31406 0.32231 0.0
C3144 C 0.16474 0.32705 0.31978 0.0
C3145 C 0.16342 0.33404 0.30537 0.0
C3146 C 0.17354 0.34767 0.30388 0.0
C3147 C 0.18526 0.35415 0.31656 0.0
C3148 C 0.18683 0.34703 0.33078 0.0
C3149 C 0.17651 0.33361 0.33248 0.0
H3150 H 0.19307 0.36471 0.31544 0.0
H3151 H 0.08521 0.24365 0.33722 0.0
H3152 H 0.95647 0.06689 0.20994 0.0
H3153 H 0.97055 0.06521 0.18652 0.0
H3154 H 0.92881 0.04965 0.15396 0.0
H3155 H 0.91457 0.05157 0.17724 0.0
H3156 H 0.94806 0.03294 0.14392 0.0
H3157 H 0.95243 0.08821 0.15752 0.0
H3158 H 0.95879 0.11347 0.17543 0.0
H3159 H 1.00516 0.10858 0.18416 0.0
H3160 H 0.99903 0.08318 0.16646 0.0
H3161 H 0.97592 0.03921 0.0681 0.0
H3162 H 0.96357 0.04394 0.0924 0.0
H3163 H 0.00713 0.05956 0.12172 0.0
H3164 H 0.01961 0.05513 0.09695 0.0
H3165 H 0.98806 0.07615 0.1342 0.0
H3166 H 0.98414 0.02134 0.1206 0.0
H3167 H 0.97816 0.99598 0.10286 0.0
H3168 H 0.93141 0.99963 0.09473 0.0
H3169 H 0.93715 0.02513 0.11224 0.0
C3170 C 0.95008 0.06332 0.19786 0.0
C3171 C 0.93405 0.05947 0.196 0.0
C3172 C 0.95832 0.06233 0.18425 0.0
C3173 C 0.951 0.05745 0.16801 0.0
C3174 C 0.93503 0.05343 0.16612 0.0
C3175 C 0.92678 0.05449 0.1797 0.0
C3176 C 0.95982 0.05631 0.15317 0.0
C3177 C 0.95664 0.04255 0.14179 0.0
C3178 C 0.97153 0.06847 0.15018 0.0
C3179 C 0.97524 0.08372 0.16081 0.0
C3180 C 0.96396 0.09247 0.16336 0.0
C3181 C 0.96752 0.10682 0.17346 0.0
C3182 C 0.98236 0.11261 0.18097 0.0
C3183 C 0.99367 0.10407 0.17836 0.0
C3184 C 0.99016 0.0897 0.16829 0.0
C3185 C 0.98297 0.04402 0.07962 0.0
C3186 C 0.99888 0.04699 0.08024 0.0
C3187 C 0.97581 0.04652 0.09374 0.0
C3188 C 0.98418 0.05176 0.10941 0.0
C3189 C 1.00015 0.05543 0.11002 0.0
C3190 C 0.00738 0.05303 0.09571 0.0
C3191 C 0.97616 0.05285 0.12488 0.0
C3192 C 0.9795 0.06655 0.13635 0.0
C3193 C 0.96464 0.0406 0.12805 0.0
C3194 C 0.96111 0.02521 0.11762 0.0
C3195 C 0.9726 0.01678 0.11495 0.0
C3196 C 0.96925 1.00238 0.10494 0.0
C3197 C 0.95442 0.99622 0.09764 0.0
C3198 C 0.9429 0.00443 0.10038 0.0
C3199 C 0.94619 0.01885 0.11035 0.0
H3200 H 0.95185 0.98507 0.08989 0.0
H3201 H 0.9851 0.12372 0.18878 0.0
H3202 H 0.30097 0.70927 0.43972 0.0
H3203 H 0.29364 0.72018 0.41488 0.0
H3204 H 0.30669 0.7666 0.4413 0.0
H3205 H 0.31457 0.75586 0.4662 0.0
H3206 H 0.27925 0.76277 0.4214 0.0
H3207 H 0.32892 0.75371 0.41513 0.0
H3208 H 0.34917 0.73842 0.41432 0.0
H3209 H 0.32231 0.70611 0.37467 0.0
H3210 H 0.30179 0.72108 0.37539 0.0
H3211 H 0.2761 0.80146 0.34892 0.0
H3212 H 0.28293 0.79233 0.37519 0.0
H3213 H 0.27627 0.74525 0.35064 0.0
H3214 H 0.26979 0.7543 0.32444 0.0
H3215 H 0.30121 0.75053 0.37036 0.0
H3216 H 0.25123 0.75877 0.37687 0.0
H3217 H 0.2306 0.77356 0.37768 0.0
H3218 H 0.25737 0.80679 0.41664 0.0
H3219 H 0.27825 0.7923 0.41591 0.0
C3220 C 0.30258 0.72183 0.44033 0.0
C3221 C 0.30858 0.73158 0.45521 0.0
C3222 C 0.29824 0.72808 0.42602 0.0
C3223 C 0.29967 0.74428 0.42604 0.0
C3224 C 0.3054 0.75407 0.44087 0.0
C3225 C 0.30988 0.74784 0.45519 0.0
C3226 C 0.29528 0.75091 0.41059 0.0
C3227 C 0.28421 0.76027 0.41031 0.0
C3228 C 0.30145 0.74746 0.3959 0.0
C3229 C 0.31376 0.73843 0.39543 0.0
C3230 C 0.32728 0.74327 0.40633 0.0
C3231 C 0.33881 0.73467 0.40587 0.0
C3232 C 0.33701 0.72128 0.39448 0.0
C3233 C 0.32368 0.71647 0.3835 0.0
C3234 C 0.3121 0.72501 0.38392 0.0
C3235 C 0.27586 0.78912 0.34913 0.0
C3236 C 0.27233 0.77868 0.33442 0.0
C3237 C 0.27978 0.78387 0.36424 0.0
C3238 C 0.2801 0.768 0.36512 0.0
C3239 C 0.27624 0.75755 0.35047 0.0
C3240 C 0.27243 0.76278 0.3354 0.0
C3241 C 0.28498 0.76225 0.38102 0.0
C3242 C 0.29621 0.75307 0.38142 0.0
C3243 C 0.27888 0.7658 0.39576 0.0
C3244 C 0.26637 0.77455 0.39621 0.0
C3245 C 0.25277 0.76931 0.38551 0.0
C3246 C 0.24102 0.77762 0.38598 0.0
C3247 C 0.24269 0.79113 0.39717 0.0
C3248 C 0.2561 0.79633 0.40795 0.0
C3249 C 0.26789 0.78807 0.40753 0.0
H3250 H 0.23358 0.79755 0.39751 0.0
H3251 H 0.34596 0.71465 0.39413 0.0
H3252 H 0.56683 0.01666 0.71545 0.0
H3253 H 0.55661 0.02275 0.68869 0.0
H3254 H 0.57992 0.99019 0.66439 0.0
H3255 H 0.58999 0.98385 0.6911 0.0
H3256 H 0.58468 0.02181 0.65472 0.0
H3257 H 0.54392 0.97981 0.66198 0.0
H3258 H 0.52422 0.96746 0.67732 0.0
H3259 H 0.50269 0.00708 0.67593 0.0
H3260 H 0.52238 0.01975 0.66078 0.0
H3261 H 0.52873 0.01274 0.57324 0.0
H3262 H 0.5361 0.00395 0.5997 0.0
H3263 H 0.55814 0.05108 0.61926 0.0
H3264 H 0.55124 0.05973 0.59289 0.0
H3265 H 0.53053 0.01098 0.63107 0.0
H3266 H 0.58629 0.05252 0.64673 0.0
H3267 H 0.60598 0.06798 0.63363 0.0
H3268 H 0.59749 0.03239 0.59192 0.0
H3269 H 0.57772 0.01672 0.60481 0.0
C3270 C 0.5697 0.0107 0.7044 0.0
C3271 C 0.57925 0.99975 0.70546 0.0
C3272 C 0.56378 0.01415 0.6891 0.0
C3273 C 0.56745 0.00692 0.67447 0.0
C3274 C 0.57688 0.9959 0.67547 0.0
C3275 C 0.58258 0.99223 0.69077 0.0
C3276 C 0.56211 0.0114 0.65819 0.0
C3277 C 0.57284 0.01934 0.64953 0.0
C3278 C 0.54664 0.00852 0.65148 0.0
C3279 C 0.53469 1.00077 0.66035 0.0
C3280 C 0.53504 0.98593 0.66504 0.0
C3281 C 0.52386 0.97887 0.67368 0.0
C3282 C 0.51223 0.98649 0.67762 0.0
C3283 C 0.51171 1.00118 0.67288 0.0
C3284 C 0.52287 0.0083 0.66424 0.0
C3285 C 0.53515 0.0212 0.5832 0.0
C3286 C 0.53953 0.03691 0.58086 0.0
C3287 C 0.53935 0.01618 0.59836 0.0
C3288 C 0.54801 0.02675 0.61152 0.0
C3289 C 0.55187 0.04254 0.60929 0.0
C3290 C 0.54782 0.04751 0.59417 0.0
C3291 C 0.55315 0.02132 0.62747 0.0
C3292 C 0.54239 0.0133 0.63615 0.0
C3293 C 0.56857 0.0245 0.63449 0.0
C3294 C 0.58055 0.03352 0.62668 0.0
C3295 C 0.58871 0.04797 0.6348 0.0
C3296 C 0.59983 0.05678 0.62741 0.0
C3297 C 0.60296 0.05118 0.61195 0.0
C3298 C 0.59502 0.03672 0.60387 0.0
C3299 C 0.58382 0.02789 0.61119 0.0
H3300 H 0.61151 0.05813 0.60628 0.0
H3301 H 0.5036 0.98101 0.68433 0.0
H3302 H 0.25222 0.40192 0.99079 0.0
H3303 H 0.24535 0.38182 0.96691 0.0
H3304 H 0.26204 0.34873 0.99529 0.0
H3305 H 0.26817 0.36839 0.01952 0.0
H3306 H 0.27538 0.35694 0.96386 0.0
H3307 H 0.22924 0.33977 0.98671 0.0
H3308 H 0.2057 0.34351 0.9975 0.0
H3309 H 0.18916 0.35733 0.95178 0.0
H3310 H 0.21274 0.35391 0.9408 0.0
H3311 H 0.26671 0.29238 0.90747 0.0
H3312 H 0.26117 0.30597 0.93281 0.0
H3313 H 0.23591 0.33353 0.90465 0.0
H3314 H 0.24135 0.3199 0.87921 0.0
H3315 H 0.22527 0.32815 0.93573 0.0
H3316 H 0.27015 0.34769 0.91311 0.0
H3317 H 0.29337 0.34547 0.90086 0.0
H3318 H 0.31232 0.33019 0.94473 0.0
H3319 H 0.28904 0.332 0.95711 0.0
C3320 C 0.25406 0.39027 0.99214 0.0
C3321 C 0.26093 0.38685 0.00708 0.0
C3322 C 0.25015 0.37883 0.97845 0.0
C3323 C 0.25317 0.36387 0.97946 0.0
C3324 C 0.25962 0.36025 0.99438 0.0
C3325 C 0.26329 0.37158 0.00813 0.0
C3326 C 0.25134 0.35259 0.96452 0.0
C3327 C 0.26446 0.35046 0.95785 0.0
C3328 C 0.23701 0.34471 0.95643 0.0
C3329 C 0.22284 0.34677 0.96301 0.0
C3330 C 0.22067 0.34379 0.97902 0.0
C3331 C 0.20729 0.3458 0.98516 0.0
C3332 C 0.19596 0.3507 0.97535 0.0
C3333 C 0.19796 0.35356 0.95937 0.0
C3334 C 0.21132 0.35157 0.95318 0.0
C3335 C 0.25957 0.30098 0.90669 0.0
C3336 C 0.25471 0.30533 0.89147 0.0
C3337 C 0.25634 0.30866 0.92113 0.0
C3338 C 0.24838 0.32091 0.92053 0.0
C3339 C 0.24207 0.32409 0.90532 0.0
C3340 C 0.24522 0.31632 0.89082 0.0
C3341 C 0.24938 0.33219 0.93539 0.0
C3342 C 0.23619 0.33452 0.94187 0.0
C3343 C 0.26364 0.34061 0.9432 0.0
C3344 C 0.27779 0.3398 0.93596 0.0
C3345 C 0.27922 0.34373 0.92009 0.0
C3346 C 0.29239 0.34255 0.91313 0.0
C3347 C 0.30429 0.33765 0.92199 0.0
C3348 C 0.30307 0.33396 0.93786 0.0
C3349 C 0.28988 0.33505 0.94486 0.0
H3350 H 0.31449 0.33675 0.91658 0.0
H3351 H 0.1856 0.35224 0.98012 0.0
H3352 H 0.92568 0.03891 0.36168 0.0
H3353 H 0.93922 0.0374 0.38836 0.0
H3354 H 0.96191 0.08527 0.39115 0.0
H3355 H 0.94903 0.08664 0.36391 0.0
H3356 H 0.98147 0.07095 0.40397 0.0
H3357 H 0.93107 0.0724 0.41366 0.0
H3358 H 0.90325 0.06472 0.40978 0.0
H3359 H 0.9066 0.01901 0.42164 0.0
H3360 H 0.93446 0.02636 0.42538 0.0
H3361 H 0.98125 0.06293 0.49855 0.0
H3362 H 0.96871 0.06673 0.47194 0.0
H3363 H 1.00012 0.04417 0.4475 0.0
H3364 H 0.01281 0.04051 0.47414 0.0
H3365 H 0.95339 0.0481 0.4465 0.0
H3366 H 0.00581 0.05828 0.41168 0.0
H3367 H 0.03297 0.07019 0.41763 0.0
H3368 H 0.02444 0.09959 0.45918 0.0
H3369 H 0.99724 0.08796 0.45339 0.0
C3370 C 0.93368 0.04914 0.36771 0.0
C3371 C 0.93606 0.06293 0.36021 0.0
C3372 C 0.94134 0.04831 0.3833 0.0
C3373 C 0.95157 0.06128 0.39227 0.0
C3374 C 0.95412 0.07502 0.38478 0.0
C3375 C 0.94652 0.07584 0.3691 0.0
C3376 C 0.95948 0.06049 0.40933 0.0
C3377 C 0.97525 0.06587 0.41317 0.0
C3378 C 0.95159 0.05436 0.42187 0.0
C3379 C 0.93485 0.04988 0.41964 0.0
C3380 C 0.92588 0.06067 0.41532 0.0
C3381 C 0.9101 0.05638 0.41317 0.0
C3382 C 0.90317 0.04137 0.41542 0.0
C3383 C 0.91199 0.03063 0.41988 0.0
C3384 C 0.92778 0.03485 0.42203 0.0
C3385 C 0.98563 0.05888 0.48758 0.0
C3386 C 0.99822 0.05149 0.48875 0.0
C3387 C 0.97832 0.06098 0.47222 0.0
C3388 C 0.98339 0.0559 0.45742 0.0
C3389 C 0.99597 0.04848 0.45856 0.0
C3390 C 1.00323 0.0463 0.47392 0.0
C3391 C 0.9754 0.05807 0.44091 0.0
C3392 C 0.9596 0.05303 0.43722 0.0
C3393 C 0.98319 0.06498 0.42873 0.0
C3394 C 0.99952 0.0721 0.4322 0.0
C3395 C 0.00973 0.0673 0.42206 0.0
C3396 C 0.02514 0.074 0.42542 0.0
C3397 C 0.03044 0.08558 0.43882 0.0
C3398 C 0.02034 0.09055 0.44886 0.0
C3399 C 1.00493 0.08388 0.44557 0.0
H3400 H 0.04237 0.09074 0.44141 0.0
H3401 H 0.89095 0.03808 0.41375 0.0
H3402 H 0.33148 0.74627 0.62509 0.0
H3403 H 0.32492 0.75716 0.65129 0.0
H3404 H 0.28036 0.72845 0.64017 0.0
H3405 H 0.28693 0.71694 0.61444 0.0
H3406 H 0.27983 0.75973 0.65108 0.0
H3407 H 0.30575 0.7194 0.66813 0.0
H3408 H 0.32739 0.70602 0.67096 0.0
H3409 H 0.35541 0.74788 0.69754 0.0
H3410 H 0.33398 0.76158 0.69468 0.0
H3411 H 0.2506 0.77163 0.72604 0.0
H3412 H 0.25917 0.76131 0.70096 0.0
H3413 H 0.30552 0.78012 0.72182 0.0
H3414 H 0.29686 0.78935 0.7476 0.0
H3415 H 0.30638 0.75515 0.70553 0.0
H3416 H 0.28224 0.79613 0.68932 0.0
H3417 H 0.26191 0.81122 0.68608 0.0
H3418 H 0.2325 0.77135 0.65731 0.0
H3419 H 0.2526 0.75596 0.66055 0.0
C3420 C 0.32034 0.74201 0.62822 0.0
C3421 C 0.30977 0.73068 0.61724 0.0
C3422 C 0.31657 0.74837 0.64329 0.0
C3423 C 0.3021 0.74371 0.64783 0.0
C3424 C 0.29157 0.7324 0.637 0.0
C3425 C 0.29537 0.72589 0.62209 0.0
C3426 C 0.29772 0.7507 0.66366 0.0
C3427 C 0.28555 0.7586 0.663 0.0
C3428 C 0.30545 0.7498 0.67929 0.0
C3429 C 0.31831 0.74156 0.68103 0.0
C3430 C 0.31656 0.72579 0.67445 0.0
C3431 C 0.32878 0.71814 0.67609 0.0
C3432 C 0.34278 0.72611 0.68438 0.0
C3433 C 0.34457 0.74173 0.6911 0.0
C3434 C 0.33239 0.74944 0.68948 0.0
C3435 C 0.26263 0.7737 0.72528 0.0
C3436 C 0.27302 0.78155 0.73883 0.0
C3437 C 0.26758 0.76787 0.71075 0.0
C3438 C 0.28308 0.77025 0.70895 0.0
C3439 C 0.29349 0.77809 0.72258 0.0
C3440 C 0.28854 0.78351 0.73736 0.0
C3441 C 0.28834 0.76425 0.69309 0.0
C3442 C 0.30067 0.75648 0.69369 0.0
C3443 C 0.28098 0.76561 0.67733 0.0
C3444 C 0.26889 0.77486 0.67529 0.0
C3445 C 0.27141 0.79056 0.68238 0.0
C3446 C 0.25993 0.79917 0.68053 0.0
C3447 C 0.24591 0.79224 0.67153 0.0
C3448 C 0.24336 0.7767 0.6643 0.0
C3449 C 0.2548 0.76803 0.66612 0.0
H3450 H 0.23704 0.79892 0.67012 0.0
H3451 H 0.35223 0.72017 0.68564 0.0
H3452 H 0.55684 0.99873 0.85528 0.0
H3453 H 0.54671 0.00492 0.88086 0.0
H3454 H 0.59024 0.00629 0.90841 0.0
H3455 H 0.60063 1.00058 0.88293 0.0
H3456 H 0.56768 0.99019 0.92244 0.0
H3457 H 0.57821 0.03967 0.90285 0.0
H3458 H 0.57711 0.05843 0.88289 0.0
H3459 H 0.52883 0.05142 0.88117 0.0
H3460 H 0.52962 0.03241 0.90095 0.0
H3461 H 0.55554 0.02698 0.99932 0.0
H3462 H 0.56452 0.01975 0.97338 0.0
H3463 H 0.52134 0.02203 0.9471 0.0
H3464 H 0.5123 0.02954 0.97312 0.0
H3465 H 0.54326 0.03593 0.93212 0.0
H3466 H 0.53255 0.9839 0.94857 0.0
H3467 H 0.5336 0.96352 0.9667 0.0
H3468 H 0.58207 0.9759 0.97464 0.0
H3469 H 0.58134 0.99591 0.95596 0.0
C3470 C 0.56437 1.00051 0.86672 0.0
C3471 C 0.57964 0.99913 0.86685 0.0
C3472 C 0.5585 0.00402 0.8814 0.0
C3473 C 0.56771 0.00621 0.89664 0.0
C3474 C 0.58286 0.00462 0.89686 0.0
C3475 C 0.58877 1.00123 0.8822 0.0
C3476 C 0.56156 0.01009 0.91234 0.0
C3477 C 0.5625 1.00031 0.9246 0.0
C3478 C 0.55448 0.02308 0.91515 0.0
C3479 C 0.55395 0.03448 0.90324 0.0
C3480 C 0.56734 0.04201 0.8981 0.0
C3481 C 0.56678 0.05271 0.88684 0.0
C3482 C 0.55291 0.05608 0.88073 0.0
C3483 C 0.53957 0.04877 0.8859 0.0
C3484 C 0.54006 0.03804 0.89714 0.0
C3485 C 0.54789 0.02594 0.98806 0.0
C3486 C 0.53316 0.02893 0.98841 0.0
C3487 C 0.55302 0.02163 0.97316 0.0
C3488 C 0.54358 0.02007 0.95815 0.0
C3489 C 0.52888 0.02308 0.95845 0.0
C3490 C 0.52371 0.0274 0.97338 0.0
C3491 C 0.5493 0.01597 0.9422 0.0
C3492 C 0.54835 0.02576 0.92992 0.0
C3493 C 0.55639 1.00299 0.93934 0.0
C3494 C 0.55688 0.99148 0.95105 0.0
C3495 C 0.54342 0.98233 0.95428 0.0
C3496 C 0.54396 0.9708 0.96457 0.0
C3497 C 0.55787 0.96856 0.972 0.0
C3498 C 0.5713 0.9777 0.96895 0.0
C3499 C 0.57084 0.98903 0.95838 0.0
H3500 H 0.55825 0.95969 0.98004 0.0
H3501 H 0.5525 0.06438 0.87202 0.0
H3502 H 0.2519 0.39676 0.15512 0.0
H3503 H 0.24954 0.37646 0.17286 0.0
H3504 H 0.29571 0.37196 0.16928 0.0
H3505 H 0.29765 0.39097 0.15004 0.0
H3506 H 0.28037 0.34482 0.16896 0.0
H3507 H 0.2832 0.39377 0.20338 0.0
H3508 H 0.27532 0.41846 0.21232 0.0
H3509 H 0.23155 0.3931 0.21821 0.0
H3510 H 0.23911 0.36827 0.2091 0.0
H3511 H 0.3024 0.32391 0.24784 0.0
H3512 H 0.29819 0.33493 0.22212 0.0
H3513 H 0.24997 0.32351 0.22282 0.0
H3514 H 0.2542 0.31212 0.24831 0.0
H3515 H 0.26238 0.35567 0.22275 0.0
H3516 H 0.26223 0.30629 0.19253 0.0
H3517 H 0.27166 0.28218 0.18517 0.0
H3518 H 0.31242 0.30916 0.17319 0.0
H3519 H 0.30335 0.33346 0.18072 0.0
C3520 C 0.2615 0.39129 0.15777 0.0
C3521 C 0.27502 0.39569 0.15106 0.0
C3522 C 0.26019 0.3798 0.1682 0.0
C3523 C 0.27255 0.37287 0.17273 0.0
C3524 C 0.28602 0.37716 0.16604 0.0
C3525 C 0.2872 0.38831 0.15523 0.0
C3526 C 0.27162 0.36136 0.18466 0.0
C3527 C 0.27655 0.34728 0.18078 0.0
C3528 C 0.2662 0.36427 0.19991 0.0
C3529 C 0.26166 0.3792 0.20537 0.0
C3530 C 0.27186 0.39348 0.20647 0.0
C3531 C 0.26746 0.40749 0.21158 0.0
C3532 C 0.25293 0.40735 0.21577 0.0
C3533 C 0.24278 0.39319 0.21491 0.0
C3534 C 0.24712 0.37915 0.20979 0.0
C3535 C 0.29092 0.32326 0.24211 0.0
C3536 C 0.27861 0.31707 0.24979 0.0
C3537 C 0.28852 0.32953 0.22749 0.0
C3538 C 0.27377 0.32995 0.22058 0.0
C3539 C 0.26142 0.32315 0.22792 0.0
C3540 C 0.26383 0.31662 0.2424 0.0
C3541 C 0.27151 0.33946 0.20719 0.0
C3542 C 0.26598 0.35315 0.21082 0.0
C3543 C 0.27664 0.33631 0.1919 0.0
C3544 C 0.28214 0.32172 0.18731 0.0
C3545 C 0.27327 0.3071 0.18847 0.0
C3546 C 0.27854 0.29339 0.18423 0.0
C3547 C 0.29264 0.29414 0.17874 0.0
C3548 C 0.3015 0.3086 0.17745 0.0
C3549 C 0.29628 0.32234 0.18168 0.0
H3550 H 0.2967 0.28352 0.17547 0.0
H3551 H 0.24954 0.41821 0.21973 0.0
H3552 H 0.16408 0.97094 0.03855 0.0
H3553 H 0.14487 0.98687 0.04133 0.0
H3554 H 0.11511 0.94822 0.05578 0.0
H3555 H 0.13441 0.93223 0.05337 0.0
H3556 H 0.09929 0.96228 0.03498 0.0
H3557 H 0.13376 0.9796 0.08394 0.0
H3558 H 0.15843 0.98953 0.10097 0.0
H3559 H 0.16374 0.03132 0.07799 0.0
H3560 H 0.13918 0.02153 0.06063 0.0
H3561 H 0.04519 0.00454 0.06087 0.0
H3562 H 0.06552 0.98975 0.06181 0.0
H3563 H 0.09555 0.02857 0.04792 0.0
H3564 H 0.07524 0.04372 0.04758 0.0
H3565 H 0.11124 0.01434 0.06867 0.0
H3566 H 0.07527 0.996 0.01994 0.0
H3567 H 0.04969 0.9857 0.00501 0.0
H3568 H 0.04651 0.9449 0.02956 0.0
H3569 H 0.07195 0.95508 0.04489 0.0
C3570 C 0.15357 0.96577 0.04255 0.0
C3571 C 0.15106 0.95014 0.04584 0.0
C3572 C 0.14248 0.97498 0.04409 0.0
C3573 C 0.12845 0.96895 0.04898 0.0
C3574 C 0.12576 0.95328 0.05197 0.0
C3575 C 0.13688 0.94406 0.05051 0.0
C3576 C 0.11664 0.97892 0.05088 0.0
C3577 C 0.10191 0.97357 0.04252 0.0
C3578 C 0.1199 0.99384 0.06051 0.0
C3579 C 0.13471 0.99975 0.07085 0.0
C3580 C 0.14025 0.99085 0.0824 0.0
C3581 C 0.1542 0.99646 0.09214 0.0
C3582 C 0.16267 0.01102 0.09053 0.0
C3583 C 0.15718 0.02002 0.0792 0.0
C3584 C 0.14324 0.01445 0.06941 0.0
C3585 C 0.05622 0.01012 0.05837 0.0
C3586 C 0.05851 0.02541 0.05419 0.0
C3587 C 0.06786 1.00152 0.05873 0.0
C3588 C 0.0821 0.00774 0.05445 0.0
C3589 C 0.08471 0.02335 0.05116 0.0
C3590 C 0.07308 0.03209 0.05107 0.0
C3591 C 0.09392 0.99773 0.05271 0.0
C3592 C 0.10864 1.00307 0.06108 0.0
C3593 C 0.0906 0.98271 0.04323 0.0
C3594 C 0.0755 0.97634 0.03361 0.0
C3595 C 0.06911 0.98483 0.02216 0.0
C3596 C 0.05463 0.97902 0.01364 0.0
C3597 C 0.04651 0.96463 0.0163 0.0
C3598 C 0.05284 0.95602 0.02748 0.0
C3599 C 0.06729 0.96181 0.03609 0.0
H3600 H 0.03529 0.96018 0.00972 0.0
H3601 H 0.17346 0.01535 0.09809 0.0
H3602 H 0.67352 0.62489 0.01043 0.0
H3603 H 0.64835 0.61476 0.01685 0.0
H3604 H 0.64981 0.56934 0.99224 0.0
H3605 H 0.67552 0.57908 0.98654 0.0
H3606 H 0.62155 0.58418 0.98456 0.0
H3607 H 0.65359 0.56885 0.02777 0.0
H3608 H 0.67505 0.57315 0.04993 0.0
H3609 H 0.6564 0.60844 0.07623 0.0
H3610 H 0.63495 0.60453 0.05408 0.0
H3611 H 0.55351 0.54952 0.01247 0.0
H3612 H 0.57904 0.55433 0.00474 0.0
H3613 H 0.59151 0.59475 0.04173 0.0
H3614 H 0.56617 0.58954 0.04995 0.0
H3615 H 0.61334 0.57949 0.04229 0.0
H3616 H 0.58283 0.59706 0.99944 0.0
H3617 H 0.56149 0.59451 0.97742 0.0
H3618 H 0.57713 0.55729 0.95051 0.0
H3619 H 0.59846 0.55948 0.97249 0.0
C3620 C 0.66869 0.61267 0.00658 0.0
C3621 C 0.67673 0.60277 0.99814 0.0
C3622 C 0.65422 0.60696 0.01014 0.0
C3623 C 0.64734 0.59132 0.00509 0.0
C3624 C 0.65501 0.58146 0.99621 0.0
C3625 C 0.66966 0.5871 0.99289 0.0
C3626 C 0.63217 0.58543 0.00937 0.0
C3627 C 0.6197 0.58282 0.9971 0.0
C3628 C 0.62988 0.58414 0.02582 0.0
C3629 C 0.64275 0.58651 0.03918 0.0
C3630 C 0.65415 0.57764 0.03819 0.0
C3631 C 0.66629 0.57999 0.05077 0.0
C3632 C 0.66711 0.5911 0.06446 0.0
C3633 C 0.65577 0.59986 0.06561 0.0
C3634 C 0.64361 0.59757 0.05305 0.0
C3635 C 0.56172 0.55944 0.01892 0.0
C3636 C 0.5579 0.56924 0.03172 0.0
C3637 C 0.57628 0.56222 0.01446 0.0
C3638 C 0.58715 0.57505 0.02248 0.0
C3639 C 0.58332 0.58478 0.03536 0.0
C3640 C 0.56884 0.58185 0.04 0.0
C3641 C 0.60252 0.57842 0.01751 0.0
C3642 C 0.61509 0.58062 0.02967 0.0
C3643 C 0.60487 0.57955 1.00098 0.0
C3644 C 0.59214 0.57832 0.98768 0.0
C3645 C 0.58166 0.58826 0.98888 0.0
C3646 C 0.56958 0.58689 0.9764 0.0
C3647 C 0.56793 0.57571 0.9626 0.0
C3648 C 0.5784 0.56592 0.96122 0.0
C3649 C 0.5905 0.56723 0.97368 0.0
H3650 H 0.55856 0.57466 0.95296 0.0
H3651 H 0.67652 0.59289 0.07419 0.0
H3652 H 0.67536 0.4372 0.30196 0.0
H3653 H 0.68646 0.41388 0.29965 0.0
H3654 H 0.72715 0.44066 0.28707 0.0
H3655 H 0.71618 0.46412 0.28945 0.0
H3656 H 0.72324 0.41405 0.26908 0.0
H3657 H 0.72268 0.42538 0.32686 0.0
H3658 H 0.71171 0.43063 0.3524 0.0
H3659 H 0.68141 0.38617 0.34153 0.0
H3660 H 0.69208 0.38073 0.31581 0.0
H3661 H 0.76855 0.35504 0.27892 0.0
H3662 H 0.75732 0.37843 0.28107 0.0
H3663 H 0.71635 0.35133 0.29278 0.0
H3664 H 0.72767 0.32793 0.29085 0.0
H3665 H 0.72038 0.37804 0.31118 0.0
H3666 H 0.72111 0.36672 0.2534 0.0
H3667 H 0.73233 0.36145 0.22803 0.0
H3668 H 0.76255 0.40595 0.23909 0.0
H3669 H 0.75163 0.41141 0.26464 0.0
C3670 C 0.68677 0.43842 0.29892 0.0
C3671 C 0.69462 0.45319 0.29605 0.0
C3672 C 0.69324 0.42477 0.29758 0.0
C3673 C 0.70801 0.42499 0.2934 0.0
C3674 C 0.71581 0.43965 0.29031 0.0
C3675 C 0.70935 0.45332 0.29165 0.0
C3676 C 0.7152 0.41017 0.29209 0.0
C3677 C 0.72272 0.40639 0.27851 0.0
C3678 C 0.71455 0.39947 0.30393 0.0
C3679 C 0.70806 0.40273 0.31932 0.0
C3680 C 0.7136 0.41678 0.32986 0.0
C3681 C 0.70745 0.41978 0.34438 0.0
C3682 C 0.69584 0.40876 0.34856 0.0
C3683 C 0.69038 0.3947 0.33825 0.0
C3684 C 0.69648 0.39165 0.32371 0.0
C3685 C 0.75709 0.35391 0.28184 0.0
C3686 C 0.74917 0.33915 0.28452 0.0
C3687 C 0.75053 0.3675 0.28301 0.0
C3688 C 0.73563 0.36714 0.28689 0.0
C3689 C 0.72776 0.35241 0.28973 0.0
C3690 C 0.73431 0.3388 0.2885 0.0
C3691 C 0.7284 0.38193 0.28818 0.0
C3692 C 0.72088 0.3857 0.30175 0.0
C3693 C 0.72907 0.39263 0.27634 0.0
C3694 C 0.73566 0.3894 0.26101 0.0
C3695 C 0.73022 0.37533 0.25048 0.0
C3696 C 0.73652 0.37232 0.23606 0.0
C3697 C 0.74818 0.38334 0.23197 0.0
C3698 C 0.75354 0.39742 0.24228 0.0
C3699 C 0.74729 0.40048 0.25673 0.0
H3700 H 0.75304 0.38099 0.2208 0.0
H3701 H 0.6911 0.4111 0.35981 0.0
H3702 H 0.78932 0.47697 0.55364 0.0
H3703 H 0.81524 0.49122 0.55445 0.0
H3704 H 0.82968 0.4479 0.54124 0.0
H3705 H 0.80412 0.43355 0.5414 0.0
H3706 H 0.85007 0.46552 0.56339 0.0
H3707 H 0.82188 0.4738 0.51275 0.0
H3708 H 0.80128 0.4825 0.4964 0.0
H3709 H 0.81601 0.52904 0.52179 0.0
H3710 H 0.8366 0.52056 0.53843 0.0
H3711 H 0.91444 0.48546 0.52417 0.0
H3712 H 0.88925 0.47613 0.53125 0.0
H3713 H 0.88578 0.52339 0.54817 0.0
H3714 H 0.91104 0.53287 0.54087 0.0
H3715 H 0.8602 0.50725 0.52799 0.0
H3716 H 0.89073 0.49938 0.57581 0.0
H3717 H 0.91151 0.4905 0.59159 0.0
H3718 H 0.8926 0.44301 0.57117 0.0
H3719 H 0.87181 0.45163 0.55507 0.0
C3720 C 0.79804 0.47044 0.55114 0.0
C3721 C 0.79452 0.45408 0.54725 0.0
C3722 C 0.81286 0.47864 0.55144 0.0
C3723 C 0.82441 0.47068 0.54762 0.0
C3724 C 0.82098 0.45435 0.54415 0.0
C3725 C 0.80627 0.44615 0.54402 0.0
C3726 C 0.84002 0.47921 0.5468 0.0
C3727 C 0.85227 0.47458 0.55556 0.0
C3728 C 0.84295 0.49141 0.53702 0.0
C3729 C 0.83066 0.49651 0.52695 0.0
C3730 C 0.82066 0.48587 0.51491 0.0
C3731 C 0.809 0.49076 0.50559 0.0
C3732 C 0.80731 0.5063 0.50809 0.0
C3733 C 0.81731 0.51699 0.51989 0.0
C3734 C 0.82898 0.51216 0.52926 0.0
C3735 C 0.90832 0.49389 0.52936 0.0
C3736 C 0.91471 0.50991 0.53189 0.0
C3737 C 0.89397 0.48852 0.53355 0.0
C3738 C 0.88568 0.49904 0.54038 0.0
C3739 C 0.89201 0.51506 0.54297 0.0
C3740 C 0.90646 0.52045 0.53889 0.0
C3741 C 0.87019 0.4932 0.54417 0.0
C3742 C 0.85798 0.49835 0.536 0.0
C3743 C 0.86729 0.48144 0.55443 0.0
C3744 C 0.87975 0.47618 0.56414 0.0
C3745 C 0.89105 0.48706 0.57459 0.0
C3746 C 0.90283 0.48206 0.58361 0.0
C3747 C 0.90339 0.4662 0.58236 0.0
C3748 C 0.89216 0.4553 0.57212 0.0
C3749 C 0.88036 0.46023 0.56306 0.0
H3750 H 0.91252 0.46236 0.58936 0.0
H3751 H 0.79827 0.51006 0.50087 0.0
H3752 H 0.37441 0.17134 0.30616 0.0
H3753 H 0.35911 0.19139 0.30538 0.0
H3754 H 0.35854 0.18858 0.25294 0.0
H3755 H 0.37478 0.16928 0.25374 0.0
H3756 H 0.36007 0.21725 0.26377 0.0
H3757 H 0.3276 0.17081 0.272 0.0
H3758 H 0.31877 0.14731 0.28469 0.0
H3759 H 0.31819 0.17583 0.33014 0.0
H3760 H 0.32722 0.19951 0.31779 0.0
H3761 H 0.293 0.25285 0.25526 0.0
H3762 H 0.30878 0.23276 0.25367 0.0
H3763 H 0.32583 0.24591 0.305 0.0
H3764 H 0.31044 0.26603 0.30655 0.0
H3765 H 0.31485 0.21153 0.29293 0.0
H3766 H 0.34654 0.25864 0.28126 0.0
H3767 H 0.351 0.28044 0.26501 0.0
H3768 H 0.35003 0.24827 0.22177 0.0
H3769 H 0.34488 0.22614 0.2376 0.0
C3770 C 0.37132 0.17512 0.29445 0.0
C3771 C 0.37588 0.16841 0.28 0.0
C3772 C 0.36229 0.1865 0.29399 0.0
C3773 C 0.35723 0.19136 0.27904 0.0
C3774 C 0.36209 0.18503 0.26465 0.0
C3775 C 0.37129 0.17377 0.26512 0.0
C3776 C 0.34675 0.20281 0.27844 0.0
C3777 C 0.3501 0.21583 0.26999 0.0
C3778 C 0.3336 0.20114 0.28648 0.0
C3779 C 0.32825 0.18693 0.29401 0.0
C3780 C 0.32571 0.17207 0.28474 0.0
C3781 C 0.32065 0.15871 0.29187 0.0
C3782 C 0.31796 0.16007 0.30823 0.0
C3783 C 0.3203 0.1748 0.31748 0.0
C3784 C 0.32539 0.18819 0.31042 0.0
C3785 C 0.30014 0.25144 0.26617 0.0
C3786 C 0.30066 0.26121 0.28097 0.0
C3787 C 0.30915 0.23998 0.26525 0.0
C3788 C 0.31853 0.23784 0.27922 0.0
C3789 C 0.31873 0.24734 0.29406 0.0
C3790 C 0.31004 0.25897 0.29488 0.0
C3791 C 0.32834 0.22589 0.27849 0.0
C3792 C 0.32483 0.21283 0.28669 0.0
C3793 C 0.34106 0.22732 0.26986 0.0
C3794 C 0.34506 0.24068 0.26058 0.0
C3795 C 0.3471 0.25616 0.26825 0.0
C3796 C 0.34977 0.2686 0.25911 0.0
C3797 C 0.35089 0.26576 0.24239 0.0
C3798 C 0.34922 0.25045 0.23474 0.0
C3799 C 0.34636 0.23795 0.24378 0.0
H3800 H 0.35307 0.27542 0.23536 0.0
H3801 H 0.31403 0.14972 0.31372 0.0
H3802 H 0.33724 0.12032 0.49128 0.0
H3803 H 0.36165 0.11458 0.50172 0.0
H3804 H 0.33908 0.07917 0.52757 0.0
H3805 H 0.31459 0.08433 0.51668 0.0
H3806 H 0.36355 0.10044 0.54722 0.0
H3807 H 0.35221 0.06793 0.49479 0.0
H3808 H 0.34574 0.06224 0.46472 0.0
H3809 H 0.38621 0.09372 0.45859 0.0
H3810 H 0.39279 0.09981 0.48867 0.0
H3811 H 0.4171 0.05093 0.56079 0.0
H3812 H 0.39549 0.06314 0.55387 0.0
H3813 H 0.42408 0.09873 0.53342 0.0
H3814 H 0.44597 0.08713 0.5411 0.0
H3815 H 0.39815 0.08047 0.51138 0.0
H3816 H 0.41102 0.11108 0.56346 0.0
H3817 H 0.41809 0.11649 0.59344 0.0
H3818 H 0.37556 0.08909 0.60034 0.0
H3819 H 0.36835 0.08323 0.57035 0.0
C3820 C 0.3374 0.11105 0.49886 0.0
C3821 C 0.32389 0.1028 0.50313 0.0
C3822 C 0.35139 0.10791 0.50496 0.0
C3823 C 0.35214 0.09654 0.5155 0.0
C3824 C 0.33872 0.08812 0.51959 0.0
C3825 C 0.32474 0.09111 0.51335 0.0
C3826 C 0.36691 0.09338 0.52232 0.0
C3827 C 0.37108 0.09595 0.53942 0.0
C3828 C 0.3769 0.08802 0.51206 0.0
C3829 C 0.37288 0.0845 0.49398 0.0
C3830 C 0.35964 0.07379 0.48704 0.0
C3831 C 0.35597 0.07046 0.46999 0.0
C3832 C 0.36552 0.07766 0.45975 0.0
C3833 C 0.37879 0.08819 0.46654 0.0
C3834 C 0.38249 0.09159 0.48359 0.0
C3835 C 0.41895 0.06165 0.55534 0.0
C3836 C 0.43324 0.06787 0.55123 0.0
C3837 C 0.40655 0.06856 0.5513 0.0
C3838 C 0.40822 0.0817 0.54298 0.0
C3839 C 0.42259 0.08849 0.53971 0.0
C3840 C 0.43504 0.08177 0.54401 0.0
C3841 C 0.39469 0.0873 0.53627 0.0
C3842 C 0.39072 0.08516 0.51918 0.0
C3843 C 0.38495 0.0931 0.54653 0.0
C3844 C 0.3892 0.09657 0.56461 0.0
C3845 C 0.40323 0.10605 0.57135 0.0
C3846 C 0.40726 0.10923 0.58836 0.0
C3847 C 0.3973 0.10311 0.59879 0.0
C3848 C 0.38328 0.09381 0.59224 0.0
C3849 C 0.37921 0.09056 0.57522 0.0
H3850 H 0.40042 0.1056 0.61197 0.0
H3851 H 0.36268 0.07504 0.44655 0.0
H3852 H 0.71853 0.62084 0.31683 0.0
H3853 H 0.72986 0.6479 0.31504 0.0
H3854 H 0.69255 0.65085 0.27935 0.0
H3855 H 0.68081 0.62408 0.28143 0.0
H3856 H 0.71785 0.66499 0.26947 0.0
H3857 H 0.69752 0.66924 0.32019 0.0
H3858 H 0.69339 0.66361 0.34807 0.0
H3859 H 0.74084 0.67922 0.36475 0.0
H3860 H 0.74528 0.68474 0.33688 0.0
H3861 H 0.72854 0.74766 0.27087 0.0
H3862 H 0.71942 0.72041 0.27404 0.0
H3863 H 0.75999 0.72082 0.30661 0.0
H3864 H 0.76936 0.74838 0.30324 0.0
H3865 H 0.73451 0.70486 0.31845 0.0
H3866 H 0.7545 0.70154 0.26758 0.0
H3867 H 0.75818 0.70746 0.23968 0.0
H3868 H 0.7109 0.6902 0.22326 0.0
H3869 H 0.70689 0.68439 0.25114 0.0
C3870 C 0.71245 0.62712 0.30872 0.0
C3871 C 0.69848 0.61959 0.2993 0.0
C3872 C 0.71911 0.64286 0.30766 0.0
C3873 C 0.71222 0.65191 0.29708 0.0
C3874 C 0.69838 0.64444 0.28759 0.0
C3875 C 0.69163 0.62879 0.28876 0.0
C3876 C 0.71934 0.66894 0.29578 0.0
C3877 C 0.72129 0.67365 0.28025 0.0
C3878 C 0.72435 0.68061 0.30967 0.0
C3879 C 0.72176 0.67722 0.3264 0.0
C3880 C 0.7071 0.67133 0.32976 0.0
C3881 C 0.70469 0.66818 0.34557 0.0
C3882 C 0.71685 0.671 0.35816 0.0
C3883 C 0.73144 0.67701 0.35497 0.0
C3884 C 0.7339 0.68015 0.33918 0.0
C3885 C 0.73568 0.74205 0.27868 0.0
C3886 C 0.74986 0.75052 0.28666 0.0
C3887 C 0.73038 0.72625 0.28047 0.0
C3888 C 0.7389 0.71808 0.2905 0.0
C3889 C 0.75302 0.72655 0.29875 0.0
C3890 C 0.75847 0.74241 0.29674 0.0
C3891 C 0.73294 0.70087 0.29214 0.0
C3892 C 0.73116 0.69615 0.3077 0.0
C3893 C 0.72804 0.68917 0.27827 0.0
C3894 C 0.73037 0.69267 0.2615 0.0
C3895 C 0.74486 0.69913 0.25806 0.0
C3896 C 0.74701 0.70244 0.24224 0.0
C3897 C 0.73477 0.69924 0.22972 0.0
C3898 C 0.72036 0.69269 0.23298 0.0
C3899 C 0.71815 0.68938 0.24879 0.0
H3900 H 0.73646 0.70181 0.21747 0.0
H3901 H 0.71497 0.66858 0.37039 0.0
H3902 H 0.84478 0.52694 0.78629 0.0
H3903 H 0.82925 0.5013 0.78687 0.0
H3904 H 0.85811 0.47982 0.75729 0.0
H3905 H 0.87393 0.5055 0.75685 0.0
H3906 H 0.82672 0.46632 0.7488 0.0
H3907 H 0.86442 0.47926 0.79609 0.0
H3908 H 0.87919 0.49607 0.82048 0.0
H3909 H 0.83862 0.49658 0.84266 0.0
H3910 H 0.82357 0.47996 0.81826 0.0
H3911 H 0.80504 0.38996 0.77143 0.0
H3912 H 0.81851 0.41488 0.7653 0.0
H3913 H 0.79534 0.43936 0.79941 0.0
H3914 H 0.78233 0.41449 0.80615 0.0
H3915 H 0.82464 0.45092 0.80459 0.0
H3916 H 0.78684 0.43771 0.75686 0.0
H3917 H 0.77243 0.42063 0.73244 0.0
H3918 H 0.81342 0.4199 0.71117 0.0
H3919 H 0.8281 0.43691 0.73553 0.0
C3920 C 0.84783 0.51678 0.77987 0.0
C3921 C 0.86074 0.51825 0.77175 0.0
C3922 C 0.83888 0.50215 0.78012 0.0
C3923 C 0.84265 0.48866 0.77229 0.0
C3924 C 0.85502 0.49011 0.76339 0.0
C3925 C 0.86403 0.50479 0.76315 0.0
C3926 C 0.83437 0.47307 0.77462 0.0
C3927 C 0.82637 0.46284 0.76096 0.0
C3928 C 0.83383 0.46863 0.79051 0.0
C3929 C 0.84285 0.47849 0.80528 0.0
C3930 C 0.85863 0.48305 0.80611 0.0
C3931 C 0.86706 0.49253 0.81995 0.0
C3932 C 0.85984 0.49742 0.8331 0.0
C3933 C 0.84419 0.4928 0.83245 0.0
C3934 C 0.83571 0.48334 0.81863 0.0
C3935 C 0.80284 0.40065 0.77768 0.0
C3936 C 0.79268 0.40022 0.78939 0.0
C3937 C 0.81042 0.4149 0.774 0.0
C3938 C 0.80786 0.42902 0.7818 0.0
C3939 C 0.79748 0.42862 0.79322 0.0
C3940 C 0.78995 0.41438 0.79697 0.0
C3941 C 0.81663 0.44421 0.77882 0.0
C3942 C 0.82487 0.45436 0.79241 0.0
C3943 C 0.81741 0.44849 0.76286 0.0
C3944 C 0.80858 0.43848 0.74808 0.0
C3945 C 0.79279 0.43384 0.74701 0.0
C3946 C 0.78457 0.42419 0.73317 0.0
C3947 C 0.79201 0.41914 0.72028 0.0
C3948 C 0.80768 0.42381 0.72117 0.0
C3949 C 0.81595 0.43349 0.73497 0.0
H3950 H 0.78563 0.41162 0.7096 0.0
H3951 H 0.86638 0.50476 0.8438 0.0
H3952 H 0.99726 0.86166 0.15853 0.0
H3953 H 0.99603 0.88195 0.14071 0.0
H3954 H 0.02285 0.86027 0.10854 0.0
H3955 H 0.02454 0.84027 0.12671 0.0
H3956 H 0.03174 0.88984 0.11052 0.0
H3957 H 0.98275 0.85709 0.09961 0.0
H3958 H 0.95871 0.84257 0.10612 0.0
H3959 H 0.94769 0.88536 0.12701 0.0
H3960 H 0.97177 0.90012 0.12082 0.0
H3961 H 0.01425 0.93292 0.04466 0.0
H3962 H 0.01619 0.91196 0.06149 0.0
H3963 H 0.9931 0.93403 0.09749 0.0
H3964 H 0.99105 0.95496 0.08072 0.0
H3965 H 0.98236 0.90349 0.09236 0.0
H3966 H 0.03256 0.93589 0.10255 0.0
H3967 H 0.05614 0.94941 0.094 0.0
H3968 H 0.06433 0.90564 0.07205 0.0
H3969 H 0.04069 0.89189 0.08027 0.0
C3970 C 1.00285 0.86119 0.14763 0.0
C3971 C 0.01092 0.84926 0.14402 0.0
C3972 C 1.00211 0.87279 0.13737 0.0
C3973 C 0.00907 0.87258 0.12297 0.0
C3974 C 0.01734 0.86078 0.1195 0.0
C3975 C 0.01829 0.84932 0.12991 0.0
C3976 C 0.00774 0.88461 0.1116 0.0
C3977 C 0.02089 0.89264 0.10641 0.0
C3978 C 0.99365 0.88851 0.10621 0.0
C3979 C 0.97913 0.87969 0.10988 0.0
C3980 C 0.97524 0.86339 0.10569 0.0
C3981 C 0.9616 0.85512 0.10931 0.0
C3982 C 0.95169 0.86303 0.11701 0.0
C3983 C 0.95538 0.87924 0.12107 0.0
C3984 C 0.96902 0.88757 0.11749 0.0
C3985 C 0.00966 0.93339 0.05622 0.0
C3986 C 1.00249 0.94571 0.06129 0.0
C3987 C 0.01079 0.92136 0.06586 0.0
C3988 C 1.00497 0.92143 0.08094 0.0
C3989 C 0.99768 0.93363 0.08593 0.0
C3990 C 0.99647 0.94561 0.07627 0.0
C3991 C 0.00635 0.90883 0.09151 0.0
C3992 C 0.9932 0.90067 0.09651 0.0
C3993 C 0.02039 0.90465 0.09649 0.0
C3994 C 0.03479 0.91288 0.09191 0.0
C3995 C 0.03936 0.92916 0.09584 0.0
C3996 C 0.05273 0.93686 0.09105 0.0
C3997 C 0.0617 0.92839 0.08245 0.0
C3998 C 0.05736 0.91219 0.07869 0.0
C3999 C 0.04398 0.90444 0.08343 0.0
H4000 H 0.07204 0.93438 0.07872 0.0
H4001 H 0.94114 0.8566 0.11981 0.0
H4002 H 0.94137 0.28892 0.81042 0.0
H4003 H 0.91447 0.28679 0.80115 0.0
H4004 H 0.90832 0.30738 0.84906 0.0
H4005 H 0.93491 0.30863 0.8587 0.0
H4006 H 0.88489 0.28673 0.83946 0.0
H4007 H 0.90992 0.32739 0.81233 0.0
H4008 H 0.92775 0.33956 0.79485 0.0
H4009 H 0.90621 0.30575 0.75368 0.0
H4010 H 0.88835 0.29326 0.77099 0.0
H4011 H 0.82043 0.32015 0.81873 0.0
H4012 H 0.84613 0.31585 0.82487 0.0
H4013 H 0.83837 0.28013 0.78315 0.0
H4014 H 0.81201 0.2841 0.77714 0.0
H4015 H 0.86784 0.30555 0.78753 0.0
H4016 H 0.84066 0.26708 0.81581 0.0
H4017 H 0.82232 0.25766 0.83411 0.0
H4018 H 0.84787 0.2903 0.87428 0.0
H4019 H 0.86624 0.30012 0.85615 0.0
C4020 C 0.93436 0.29286 0.81914 0.0
C4021 C 0.94078 0.29913 0.83542 0.0
C4022 C 0.91882 0.29183 0.81368 0.0
C4023 C 0.90904 0.2972 0.82418 0.0
C4024 C 0.91535 0.30318 0.84049 0.0
C4025 C 0.93083 0.3041 0.84599 0.0
C4026 C 0.89236 0.29664 0.81836 0.0
C4027 C 0.8813 0.29096 0.82813 0.0
C4028 C 0.8872 0.30185 0.80341 0.0
C4029 C 0.89793 0.30928 0.793 0.0
C4030 C 0.90907 0.32248 0.79958 0.0
C4031 C 0.91916 0.32944 0.7897 0.0
C4032 C 0.91814 0.3234 0.77318 0.0
C4033 C 0.907 0.3104 0.76649 0.0
C4034 C 0.89689 0.30337 0.77633 0.0
C4035 C 0.82404 0.31126 0.81082 0.0
C4036 C 0.81397 0.30248 0.7974 0.0
C4037 C 0.83886 0.30883 0.8144 0.0
C4038 C 0.84441 0.2977 0.80453 0.0
C4039 C 0.83447 0.28884 0.791 0.0
C4040 C 0.81934 0.29104 0.78761 0.0
C4041 C 0.86059 0.2957 0.80864 0.0
C4042 C 0.87151 0.30107 0.79868 0.0
C4043 C 0.86566 0.29046 0.82354 0.0
C4044 C 0.85477 0.28443 0.83456 0.0
C4045 C 0.84231 0.27234 0.82851 0.0
C4046 C 0.83191 0.26692 0.83886 0.0
C4047 C 0.83391 0.2734 0.85534 0.0
C4048 C 0.84633 0.28529 0.86151 0.0
C4049 C 0.85675 0.29079 0.8512 0.0
H4050 H 0.82584 0.26919 0.86333 0.0
H4051 H 0.92597 0.32881 0.76555 0.0
H4052 H 0.52676 0.1985 0.65389 0.0
H4053 H 0.52722 0.17494 0.63553 0.0
H4054 H 0.48584 0.17967 0.60724 0.0
H4055 H 0.48542 0.20354 0.62538 0.0
H4056 H 0.48569 0.14901 0.61177 0.0
H4057 H 0.51864 0.18999 0.59275 0.0
H4058 H 0.53956 0.21266 0.59509 0.0
H4059 H 0.57118 0.18496 0.61179 0.0
H4060 H 0.5504 0.16216 0.60978 0.0
H4061 H 0.49255 0.08963 0.54839 0.0
H4062 H 0.48953 0.11436 0.56324 0.0
H4063 H 0.53457 0.12003 0.58935 0.0
H4064 H 0.53796 0.09605 0.57334 0.0
H4065 H 0.53118 0.14648 0.58415 0.0
H4066 H 0.49719 0.10553 0.60471 0.0
H4067 H 0.47603 0.08288 0.60085 0.0
H4068 H 0.44599 0.11045 0.58033 0.0
H4069 H 0.46702 0.13323 0.58391 0.0
C4070 C 0.5178 0.1947 0.6437 0.0
C4071 C 0.50615 0.20318 0.64112 0.0
C4072 C 0.51804 0.1811 0.63322 0.0
C4073 C 0.50666 0.17555 0.61982 0.0
C4074 C 0.49476 0.18367 0.61746 0.0
C4075 C 0.49453 0.19734 0.62792 0.0
C4076 C 0.5075 0.16153 0.60814 0.0
C4077 C 0.49557 0.1485 0.6056 0.0
C4078 C 0.52039 0.16074 0.60009 0.0
C4079 C 0.53294 0.1744 0.60125 0.0
C4080 C 0.53004 0.18876 0.59704 0.0
C4081 C 0.54187 0.20163 0.59829 0.0
C4082 C 0.55669 0.20026 0.60362 0.0
C4083 C 0.55969 0.186 0.60768 0.0
C4084 C 0.54789 0.1731 0.60648 0.0
C4085 C 0.50183 0.09634 0.55716 0.0
C4086 C 0.51551 0.09105 0.5597 0.0
C4087 C 0.50005 0.11038 0.56586 0.0
C4088 C 0.51163 0.11904 0.57792 0.0
C4089 C 0.52539 0.11372 0.58022 0.0
C4090 C 0.52735 0.09998 0.57109 0.0
C4091 C 0.50962 0.13358 0.58817 0.0
C4092 C 0.5213 0.14684 0.59036 0.0
C4093 C 0.49648 0.13453 0.59588 0.0
C4094 C 0.48371 0.12105 0.59447 0.0
C4095 C 0.48607 0.10676 0.59939 0.0
C4096 C 0.47411 0.0939 0.59723 0.0
C4097 C 0.45969 0.09522 0.59032 0.0
C4098 C 0.45717 0.10945 0.58567 0.0
C4099 C 0.4691 0.12234 0.58779 0.0
H4100 H 0.45046 0.08523 0.58858 0.0
H4101 H 0.56584 0.21023 0.60458 0.0
H4102 H 0.60973 0.83203 0.33588 0.0
H4103 H 0.63506 0.83158 0.32824 0.0
H4104 H 0.63131 0.78428 0.33888 0.0
H4105 H 0.60595 0.78461 0.34644 0.0
H4106 H 0.65992 0.80306 0.35173 0.0
H4107 H 0.62737 0.79166 0.29956 0.0
H4108 H 0.60831 0.79718 0.27847 0.0
H4109 H 0.63729 0.84059 0.27438 0.0
H4110 H 0.65644 0.83541 0.29561 0.0
H4111 H 0.72524 0.78546 0.31906 0.0
H4112 H 0.70023 0.78633 0.32692 0.0
H4113 H 0.69759 0.82532 0.29999 0.0
H4114 H 0.72215 0.82348 0.29097 0.0
H4115 H 0.67186 0.81144 0.29596 0.0
H4116 H 0.70358 0.8257 0.34758 0.0
H4117 H 0.72269 0.82369 0.37049 0.0
H4118 H 0.69654 0.77979 0.37788 0.0
H4119 H 0.67725 0.78154 0.35501 0.0
C4120 C 0.61425 0.8215 0.33666 0.0
C4121 C 0.60553 0.80833 0.34178 0.0
C4122 C 0.62881 0.82123 0.33217 0.0
C4123 C 0.63532 0.80786 0.33283 0.0
C4124 C 0.62673 0.79478 0.33817 0.0
C4125 C 0.61207 0.79495 0.3424 0.0
C4126 C 0.65094 0.80746 0.32794 0.0
C4127 C 0.66247 0.80471 0.33946 0.0
C4128 C 0.6547 0.81021 0.31216 0.0
C4129 C 0.64327 0.81321 0.29927 0.0
C4130 C 0.62963 0.80243 0.29424 0.0
C4131 C 0.61882 0.80549 0.28225 0.0
C4132 C 0.62157 0.81924 0.27512 0.0
C4133 C 0.63516 0.82994 0.27992 0.0
C4134 C 0.646 0.82695 0.29192 0.0
C4135 C 0.71937 0.79428 0.31483 0.0
C4136 C 0.72591 0.80444 0.30438 0.0
C4137 C 0.70497 0.79493 0.31955 0.0
C4138 C 0.69672 0.80622 0.31461 0.0
C4139 C 0.70336 0.81642 0.30416 0.0
C4140 C 0.71758 0.81544 0.29901 0.0
C4141 C 0.68115 0.80707 0.3198 0.0
C4142 C 0.66952 0.80986 0.3083 0.0
C4143 C 0.67744 0.80486 0.33582 0.0
C4144 C 0.68907 0.80367 0.34946 0.0
C4145 C 0.70196 0.81557 0.35402 0.0
C4146 C 0.71281 0.81449 0.36702 0.0
C4147 C 0.71089 0.80156 0.37555 0.0
C4148 C 0.69805 0.78975 0.3712 0.0
C4149 C 0.68713 0.79081 0.35826 0.0
H4150 H 0.71927 0.80072 0.38562 0.0
H4151 H 0.61319 0.8216 0.26584 0.0
H4152 H 1.00366 0.25104 0.47774 0.0
H4153 H 0.99445 0.22561 0.48573 0.0
H4154 H 0.03504 0.21039 0.47369 0.0
H4155 H 0.04377 0.23537 0.46427 0.0
H4156 H 0.01214 0.18771 0.46419 0.0
H4157 H 0.02942 0.22288 0.51426 0.0
H4158 H 0.03074 0.24648 0.53392 0.0
H4159 H 0.98336 0.23312 0.53729 0.0
H4160 H 0.98172 0.20953 0.51749 0.0
H4161 H 0.01448 0.12797 0.51454 0.0
H4162 H 0.01827 0.15114 0.50045 0.0
H4163 H 0.97475 0.16004 0.51089 0.0
H4164 H 0.9712 0.13695 0.52546 0.0
H4165 H 0.9965 0.18529 0.5196 0.0
H4166 H 0.981 0.14755 0.47135 0.0
H4167 H 0.98168 0.12345 0.45334 0.0
H4168 H 0.02794 0.14112 0.44799 0.0
H4169 H 0.02763 0.16525 0.46614 0.0
C4170 C 0.01055 0.24223 0.47648 0.0
C4171 C 0.02451 0.24534 0.47035 0.0
C4172 C 0.00534 0.22773 0.48129 0.0
C4173 C 0.01417 0.21617 0.48059 0.0
C4174 C 0.02805 0.21916 0.47439 0.0
C4175 C 0.03314 0.23356 0.46925 0.0
C4176 C 0.00908 0.20108 0.48661 0.0
C4177 C 0.00883 0.18717 0.47635 0.0
C4178 C 1.00445 0.20037 0.50235 0.0
C4179 C 0.00542 0.21454 0.51426 0.0
C4180 C 0.01926 0.22504 0.51911 0.0
C4181 C 0.02007 0.2384 0.53029 0.0
C4182 C 0.00713 0.24132 0.53681 0.0
C4183 C 0.99336 0.23086 0.5322 0.0
C4184 C 0.99249 0.21749 0.52101 0.0
C4185 C 0.00568 0.1348 0.51356 0.0
C4186 C 0.99257 0.13086 0.52092 0.0
C4187 C 0.00778 0.14793 0.50545 0.0
C4188 C 0.99668 0.15716 0.5044 0.0
C4189 C 0.98339 0.15299 0.51149 0.0
C4190 C 0.98135 0.13988 0.51975 0.0
C4191 C 0.99968 0.17193 0.49726 0.0
C4192 C 0.99957 0.18581 0.50733 0.0
C4193 C 1.00422 0.17256 0.48148 0.0
C4194 C 1.0043 0.1582 0.4702 0.0
C4195 C 0.99134 0.14628 0.4664 0.0
C4196 C 0.99166 0.13261 0.45615 0.0
C4197 C 1.00485 0.13075 0.44954 0.0
C4198 C 0.01773 0.14258 0.45311 0.0
C4199 C 0.01748 0.15627 0.46335 0.0
H4200 H 1.00508 0.12015 0.44164 0.0
H4201 H 0.00778 0.25167 0.54547 0.0
H4202 H 0.55576 0.29633 0.20642 0.0
H4203 H 0.5785 0.30068 0.22667 0.0
H4204 H 0.58161 0.25227 0.21573 0.0
H4205 H 0.55869 0.24783 0.1959 0.0
H4206 H 0.58619 0.26055 0.24742 0.0
H4207 H 0.6043 0.28322 0.20056 0.0
H4208 H 0.60506 0.30129 0.17974 0.0
H4209 H 0.61522 0.34045 0.21782 0.0
H4210 H 0.61435 0.32259 0.23887 0.0
H4211 H 0.66153 0.25504 0.26745 0.0
H4212 H 0.63612 0.2561 0.25546 0.0
H4213 H 0.6427 0.30454 0.27591 0.0
H4214 H 0.66844 0.30357 0.28802 0.0
H4215 H 0.63182 0.30014 0.24393 0.0
H4216 H 0.6179 0.27654 0.29065 0.0
H4217 H 0.61821 0.25783 0.31077 0.0
H4218 H 0.60084 0.21975 0.27233 0.0
H4219 H 0.60061 0.2382 0.25194 0.0
C4220 C 0.56138 0.28667 0.20834 0.0
C4221 C 0.55554 0.27175 0.19965 0.0
C4222 C 0.57435 0.28916 0.21987 0.0
C4223 C 0.58183 0.27683 0.22262 0.0
C4224 C 0.57598 0.26194 0.21388 0.0
C4225 C 0.56292 0.2594 0.20256 0.0
C4226 C 0.59573 0.27922 0.23459 0.0
C4227 C 0.5962 0.26916 0.24661 0.0
C4228 C 0.60859 0.29086 0.23395 0.0
C4229 C 0.60906 0.30157 0.22128 0.0
C4230 C 0.60657 0.29568 0.20449 0.0
C4231 C 0.60705 0.30588 0.19265 0.0
C4232 C 0.61013 0.32201 0.19745 0.0
C4233 C 0.61279 0.32796 0.21411 0.0
C4234 C 0.61232 0.3178 0.226 0.0
C4235 C 0.65747 0.26582 0.26984 0.0
C4236 C 0.66695 0.27919 0.27883 0.0
C4237 C 0.64292 0.26641 0.26293 0.0
C4238 C 0.63743 0.28033 0.265 0.0
C4239 C 0.64671 0.29366 0.27425 0.0
C4240 C 0.66138 0.29309 0.28114 0.0
C4241 C 0.62244 0.28105 0.25631 0.0
C4242 C 0.62173 0.29174 0.24497 0.0
C4243 C 0.60938 0.26991 0.25748 0.0
C4244 C 0.60928 0.25877 0.26976 0.0
C4245 C 0.61421 0.26417 0.28648 0.0
C4246 C 0.61437 0.25361 0.29793 0.0
C4247 C 0.60956 0.23762 0.29283 0.0
C4248 C 0.60455 0.23215 0.27627 0.0
C4249 C 0.60437 0.24266 0.26476 0.0
H4250 H 0.60971 0.22946 0.30171 0.0
H4251 H 0.6105 0.32989 0.18826 0.0
H4252 H 0.57098 0.91051 0.97387 0.0
H4253 H 0.56828 0.93482 0.98892 0.0
H4254 H 0.5595 0.91149 0.03111 0.0
H4255 H 0.56393 0.88742 0.0168 0.0
H4256 H 0.54383 0.93971 0.99613 0.0
H4257 H 0.56167 0.93657 0.06562 0.0
H4258 H 0.58216 0.92877 0.08305 0.0
H4259 H 0.61147 0.93633 0.04614 0.0
H4260 H 0.59125 0.94438 0.02859 0.0
H4261 H 0.50079 0.98206 0.03398 0.0
H4262 H 0.51399 0.96024 0.03209 0.0
H4263 H 0.5565 0.99192 0.04876 0.0
H4264 H 0.54291 0.01356 0.05248 0.0
H4265 H 0.5586 0.96246 0.05457 0.0
H4266 H 0.54255 0.98689 0.00866 0.0
H4267 H 0.524 0.9972 0.99104 0.0
H4268 H 0.49656 0.95134 0.9786 0.0
H4269 H 0.51477 0.94075 0.99644 0.0
C4270 C 0.56918 0.91055 0.98658 0.0
C4271 C 0.56742 0.89672 0.99391 0.0
C4272 C 0.56742 0.92455 0.99515 0.0
C4273 C 0.56348 0.92505 0.01113 0.0
C4274 C 0.56266 0.91155 0.01887 0.0
C4275 C 0.56488 0.89762 0.01047 0.0
C4276 C 0.55812 0.93891 0.01858 0.0
C4277 C 0.5473 0.94474 0.00886 0.0
C4278 C 0.5626 0.94567 0.03518 0.0
C4279 C 0.57488 0.94096 0.04573 0.0
C4280 C 0.57251 0.93664 0.06125 0.0
C4281 C 0.58407 0.93216 0.07115 0.0
C4282 C 0.59809 0.93201 0.06569 0.0
C4283 C 0.60059 0.93639 0.05033 0.0
C4284 C 0.58907 0.94089 0.04039 0.0
C4285 C 0.51287 0.98427 0.03794 0.0
C4286 C 0.52103 0.99955 0.04262 0.0
C4287 C 0.52041 0.97181 0.03683 0.0
C4288 C 0.53629 0.9746 0.03947 0.0
C4289 C 0.54427 0.98956 0.04628 0.0
C4290 C 0.53656 1.00196 0.04816 0.0
C4291 C 0.54429 0.96282 0.03211 0.0
C4292 C 0.55546 0.95745 0.0418 0.0
C4293 C 0.54065 0.95683 0.01524 0.0
C4294 C 0.52998 0.96304 0.00398 0.0
C4295 C 0.53252 0.97901 1.00223 0.0
C4296 C 0.52206 0.98492 0.99223 0.0
C4297 C 0.5091 0.97497 0.98374 0.0
C4298 C 0.50659 0.95905 0.9852 0.0
C4299 C 0.51698 0.95308 0.99525 0.0
H4300 H 0.50104 0.97958 0.97598 0.0
H4301 H 0.60703 0.92854 0.07337 0.0
H4302 H 0.9263 0.79781 0.69468 0.0
H4303 H 0.91313 0.80429 0.71788 0.0
H4304 H 0.92365 0.76433 0.73923 0.0
H4305 H 0.93756 0.7581 0.71643 0.0
H4306 H 0.89189 0.76987 0.73891 0.0
H4307 H 0.94379 0.79484 0.75595 0.0
H4308 H 0.96818 0.81082 0.75228 0.0
H4309 H 0.94692 0.85021 0.74714 0.0
H4310 H 0.92233 0.83438 0.75051 0.0
H4311 H 0.86201 0.7949 0.80902 0.0
H4312 H 0.88162 0.78668 0.7942 0.0
H4313 H 0.8861 0.82872 0.77123 0.0
H4314 H 0.86727 0.83757 0.78689 0.0
H4315 H 0.91261 0.81985 0.77513 0.0
H4316 H 0.86121 0.79469 0.75143 0.0
H4317 H 0.83586 0.78046 0.75468 0.0
H4318 H 0.85548 0.74327 0.77188 0.0
H4319 H 0.88086 0.7571 0.76835 0.0
C4320 C 0.92596 0.79043 0.70433 0.0
C4321 C 0.93321 0.77754 0.70375 0.0
C4322 C 0.91832 0.7941 0.71752 0.0
C4323 C 0.9176 0.78487 0.73029 0.0
C4324 C 0.92414 0.77158 0.72946 0.0
C4325 C 0.932 0.76801 0.71635 0.0
C4326 C 0.9104 0.78957 0.74473 0.0
C4327 C 0.89657 0.7806 0.74706 0.0
C4328 C 0.91639 0.80375 0.75512 0.0
C4329 C 0.9312 0.81339 0.75337 0.0
C4330 C 0.94429 0.80688 0.75392 0.0
C4331 C 0.95816 0.81591 0.75191 0.0
C4332 C 0.95909 0.83151 0.74945 0.0
C4333 C 0.94617 0.83812 0.74904 0.0
C4334 C 0.93227 0.82913 0.75102 0.0
C4335 C 0.86755 0.80272 0.80133 0.0
C4336 C 0.86281 0.81678 0.79891 0.0
C4337 C 0.87865 0.79788 0.79268 0.0
C4338 C 0.88497 0.80684 0.78119 0.0
C4339 C 0.88126 0.82151 0.77987 0.0
C4340 C 0.87035 0.82648 0.78871 0.0
C4341 C 0.89398 0.80026 0.76922 0.0
C4342 C 0.90809 0.80893 0.76724 0.0
C4343 C 0.88817 0.78593 0.75898 0.0
C4344 C 0.87287 0.77693 0.75969 0.0
C4345 C 0.86005 0.78338 0.75571 0.0
C4346 C 0.84569 0.77538 0.75758 0.0
C4347 C 0.84405 0.76094 0.76341 0.0
C4348 C 0.85673 0.75435 0.76717 0.0
C4349 C 0.8711 0.76223 0.76516 0.0
H4350 H 0.83294 0.75491 0.76507 0.0
H4351 H 0.96984 0.83848 0.74789 0.0
H4352 H 0.0834 0.01963 0.86427 0.0
H4353 H 0.06893 0.02058 0.88756 0.0
H4354 H 0.1092 0.04439 0.91932 0.0
H4355 H 0.12378 0.04331 0.89613 0.0
H4356 H 0.09404 0.02342 0.93547 0.0
H4357 H 0.07922 0.06304 0.90524 0.0
H4358 H 0.06904 0.07375 0.881 0.0
H4359 H 0.02685 0.04157 0.8781 0.0
H4360 H 0.03686 0.03052 0.90221 0.0
H4361 H 0.06249 0.05318 0.00427 0.0
H4362 H 0.07466 0.04823 0.97997 0.0
H4363 H 0.03145 0.0263 0.95256 0.0
H4364 H 0.01906 0.03149 0.9773 0.0
H4365 H 0.04676 0.0444 0.93343 0.0
H4366 H 0.06072 0.00473 0.96308 0.0
H4367 H 0.07046 0.99292 0.98671 0.0
H4368 H 0.11343 0.02391 0.99029 0.0
H4369 H 0.10396 0.03589 0.9666 0.0
C4370 C 0.08931 0.02503 0.87618 0.0
C4371 C 0.105 0.03142 0.87792 0.0
C4372 C 0.08087 0.02571 0.88964 0.0
C4373 C 0.08769 0.03273 0.90558 0.0
C4374 C 0.10338 0.03892 0.90739 0.0
C4375 C 0.11179 0.0384 0.8939 0.0
C4376 C 0.07866 0.03353 0.92026 0.0
C4377 C 0.08382 0.02821 0.93496 0.0
C4378 C 0.06488 0.03924 0.91992 0.0
C4379 C 0.05885 0.04584 0.90542 0.0
C4380 C 0.06782 0.05816 0.89935 0.0
C4381 C 0.06207 0.06431 0.88565 0.0
C4382 C 0.04732 0.05831 0.87798 0.0
C4383 C 0.03828 0.04618 0.88403 0.0
C4384 C 0.04398 0.03998 0.89772 0.0
C4385 C 0.05549 0.04694 0.99322 0.0
C4386 C 0.0397 0.04248 0.99314 0.0
C4387 C 0.06257 0.04408 0.97913 0.0
C4388 C 0.05426 0.03664 0.96404 0.0
C4389 C 0.03839 0.03199 0.96386 0.0
C4390 C 0.03125 0.03476 0.97817 0.0
C4391 C 0.06224 0.03441 0.94868 0.0
C4392 C 0.05693 0.03951 0.93389 0.0
C4393 C 0.07582 0.02836 0.94886 0.0
C4394 C 0.08158 0.0213 0.96317 0.0
C4395 C 0.07222 0.0091 0.96898 0.0
C4396 C 0.0777 1.00236 0.98237 0.0
C4397 C 0.09253 0.00773 0.99008 0.0
C4398 C 0.10194 0.01979 0.98433 0.0
C4399 C 0.09654 0.02652 0.97088 0.0
H4400 H 0.09674 1.0025 1.00046 0.0
H4401 H 0.04289 0.06309 0.86738 0.0
H4402 H 0.75077 0.35002 0.60954 0.0
H4403 H 0.75782 0.33916 0.63479 0.0
H4404 H 0.7207 0.35433 0.65584 0.0
H4405 H 0.71329 0.36477 0.63039 0.0
H4406 H 0.75355 0.36271 0.67573 0.0
H4407 H 0.71402 0.32035 0.64745 0.0
H4408 H 0.70197 0.30086 0.62377 0.0
H4409 H 0.7417 0.28057 0.62543 0.0
H4410 H 0.75407 0.30013 0.64899 0.0
H4411 H 0.75301 0.32966 0.74922 0.0
H4412 H 0.74713 0.33892 0.72316 0.0
H4413 H 0.7686 0.30448 0.699 0.0
H4414 H 0.77391 0.29453 0.72529 0.0
H4415 H 0.74522 0.30597 0.67969 0.0
H4416 H 0.78488 0.34632 0.70785 0.0
H4417 H 0.79875 0.36609 0.73052 0.0
H4418 H 0.76187 0.39063 0.7282 0.0
H4419 H 0.74773 0.37096 0.70561 0.0
C4420 C 0.74404 0.35095 0.61951 0.0
C4421 C 0.73142 0.35823 0.6179 0.0
C4422 C 0.74809 0.34473 0.63394 0.0
C4423 C 0.73983 0.34593 0.64728 0.0
C4424 C 0.72726 0.35325 0.64575 0.0
C4425 C 0.72298 0.35914 0.63116 0.0
C4426 C 0.74445 0.33976 0.66288 0.0
C4427 C 0.75157 0.35032 0.67669 0.0
C4428 C 0.74246 0.32358 0.66398 0.0
C4429 C 0.73504 0.31183 0.64984 0.0
C4430 C 0.72025 0.31185 0.64265 0.0
C4431 C 0.71335 0.30076 0.62928 0.0
C4432 C 0.72108 0.28952 0.62306 0.0
C4433 C 0.73573 0.28931 0.63024 0.0
C4434 C 0.74269 0.30039 0.6436 0.0
C4435 C 0.75667 0.32406 0.73845 0.0
C4436 C 0.76417 0.31141 0.73954 0.0
C4437 C 0.75334 0.3295 0.72343 0.0
C4438 C 0.75774 0.3228 0.70894 0.0
C4439 C 0.76513 0.31003 0.70991 0.0
C4440 C 0.76823 0.30435 0.725 0.0
C4441 C 0.75419 0.32893 0.69289 0.0
C4442 C 0.74731 0.31838 0.67888 0.0
C4443 C 0.75669 0.34518 0.69152 0.0
C4444 C 0.76519 0.35707 0.70511 0.0
C4445 C 0.77969 0.35588 0.71224 0.0
C4446 C 0.78761 0.36709 0.72506 0.0
C4447 C 0.78119 0.3796 0.73082 0.0
C4448 C 0.76684 0.38094 0.72373 0.0
C4449 C 0.75888 0.36978 0.7109 0.0
H4450 H 0.78734 0.38827 0.74074 0.0
H4451 H 0.71572 0.28093 0.61271 0.0
H4452 H 0.43779 0.0702 0.37159 0.0
H4453 H 0.44783 0.06447 0.39817 0.0
H4454 H 0.48723 0.10053 0.39942 0.0
H4455 H 0.47775 0.10559 0.37206 0.0
H4456 H 0.4962 0.0775 0.41138 0.0
H4457 H 0.45668 0.10439 0.42292 0.0
H4458 H 0.43107 0.11042 0.42022 0.0
H4459 H 0.41287 0.06523 0.43254 0.0
H4460 H 0.43834 0.05883 0.43508 0.0
H4461 H 0.5164 0.07396 0.49843 0.0
H4462 H 0.5088 0.08338 0.47236 0.0
H4463 H 0.47241 0.04336 0.46009 0.0
H4464 H 0.48003 0.03386 0.48577 0.0
H4465 H 0.46312 0.07123 0.45505 0.0
H4466 H 0.50333 0.04452 0.44195 0.0
H4467 H 0.52935 0.03966 0.44569 0.0
H4468 H 0.54669 0.08661 0.43765 0.0
H4469 H 0.52076 0.09182 0.43409 0.0
C4470 C 0.44872 0.07682 0.37726 0.0
C4471 C 0.45691 0.08836 0.36934 0.0
C4472 C 0.45436 0.07368 0.39276 0.0
C4473 C 0.46822 0.08224 0.40118 0.0
C4474 C 0.47648 0.09377 0.39336 0.0
C4475 C 0.47092 0.09678 0.37769 0.0
C4476 C 0.47408 0.07892 0.41793 0.0
C4477 C 0.48899 0.07643 0.42099 0.0
C4478 C 0.46478 0.07731 0.43063 0.0
C4479 C 0.44942 0.08109 0.42906 0.0
C4480 C 0.4472 0.09569 0.42493 0.0
C4481 C 0.43271 0.09918 0.42344 0.0
C4482 C 0.42034 0.0882 0.42617 0.0
C4483 C 0.42245 0.07372 0.43042 0.0
C4484 C 0.43692 0.07016 0.43189 0.0
C4485 C 0.50681 0.06719 0.49013 0.0
C4486 C 0.49883 0.05316 0.49421 0.0
C4487 C 0.50249 0.07256 0.47522 0.0
C4488 C 0.49001 0.06409 0.46417 0.0
C4489 C 0.48203 0.05015 0.46835 0.0
C4490 C 0.48645 0.0447 0.48307 0.0
C4491 C 0.48505 0.0696 0.4483 0.0
C4492 C 0.47031 0.07248 0.44545 0.0
C4493 C 0.49456 0.07177 0.43592 0.0
C4494 C 0.51012 0.06861 0.43795 0.0
C4495 C 0.5127 0.05385 0.44112 0.0
C4496 C 0.52743 0.05102 0.44318 0.0
C4497 C 0.53967 0.06283 0.44196 0.0
C4498 C 0.5372 0.07748 0.43862 0.0
C4499 C 0.52249 0.08037 0.43658 0.0
H4500 H 0.55107 0.06063 0.44356 0.0
H4501 H 0.40913 0.09093 0.42503 0.0
H4502 H 0.79674 0.71188 0.05838 0.0
H4503 H 0.80037 0.73106 0.08315 0.0
H4504 H 0.76571 0.70122 0.10314 0.0
H4505 H 0.76204 0.68217 0.07856 0.0
H4506 H 0.76064 0.73049 0.10369 0.0
H4507 H 0.80284 0.70533 0.11767 0.0
H4508 H 0.82677 0.69683 0.11355 0.0
H4509 H 0.84877 0.74442 0.11384 0.0
H4510 H 0.82489 0.75319 0.11774 0.0
H4511 H 0.76619 0.74896 0.18778 0.0
H4512 H 0.77094 0.73626 0.16165 0.0
H4513 H 0.79428 0.78034 0.15054 0.0
H4514 H 0.78951 0.79327 0.17686 0.0
H4515 H 0.80744 0.74925 0.14323 0.0
H4516 H 0.7649 0.77422 0.13184 0.0
H4517 H 0.74089 0.78177 0.13749 0.0
H4518 H 0.71952 0.73348 0.13304 0.0
H4519 H 0.74349 0.72565 0.12764 0.0
C4520 C 0.7901 0.70936 0.06821 0.0
C4521 C 0.779 0.69566 0.06654 0.0
C4522 C 0.79217 0.7203 0.08229 0.0
C4523 C 0.78325 0.71756 0.09489 0.0
C4524 C 0.77259 0.7036 0.09346 0.0
C4525 C 0.77049 0.69276 0.07943 0.0
C4526 C 0.78421 0.72944 0.10924 0.0
C4527 C 0.7709 0.73461 0.1123 0.0
C4528 C 0.79771 0.73518 0.12018 0.0
C4529 C 0.81203 0.72989 0.11776 0.0
C4530 C 0.81274 0.71397 0.11668 0.0
C4531 C 0.8263 0.7091 0.11443 0.0
C4532 C 0.83927 0.72007 0.11337 0.0
C4533 C 0.83871 0.73593 0.11461 0.0
C4534 C 0.82516 0.74086 0.11685 0.0
C4535 C 0.7726 0.75591 0.17995 0.0
C4536 C 0.77747 0.77208 0.18428 0.0
C4537 C 0.77528 0.74866 0.16505 0.0
C4538 C 0.78294 0.75742 0.15429 0.0
C4539 C 0.78841 0.77345 0.15881 0.0
C4540 C 0.78557 0.78079 0.17371 0.0
C4541 C 0.78379 0.74979 0.13778 0.0
C4542 C 0.79735 0.74544 0.13433 0.0
C4543 C 0.77052 0.74471 0.12644 0.0
C4544 C 0.75602 0.74936 0.12946 0.0
C4545 C 0.75511 0.76522 0.1322 0.0
C4546 C 0.7415 0.76955 0.13534 0.0
C4547 C 0.72869 0.75811 0.13566 0.0
C4548 C 0.72945 0.74232 0.1328 0.0
C4549 C 0.74305 0.73793 0.12968 0.0
H4550 H 0.71816 0.76149 0.13809 0.0
H4551 H 0.84976 0.71628 0.11163 0.0
H4552 H 0.09557 0.04824 0.72292 0.0
H4553 H 0.08247 0.04993 0.69596 0.0
H4554 H 0.09784 0.00923 0.67564 0.0
H4555 H 0.11152 0.00783 0.70249 0.0
H4556 H 0.0998 0.0293 0.6543 0.0
H4557 H 0.05993 0.00888 0.68405 0.0
H4558 H 0.04472 0.00816 0.70699 0.0
H4559 H 0.03358 0.05232 0.69849 0.0
H4560 H 0.04889 0.0534 0.67562 0.0
H4561 H 0.051 0.01867 0.57784 0.0
H4562 H 0.06394 0.0155 0.60452 0.0
H4563 H 0.04738 0.05442 0.62737 0.0
H4564 H 0.03398 0.05722 0.60085 0.0
H4565 H 0.04598 0.03438 0.64734 0.0
H4566 H 0.08639 0.05526 0.61811 0.0
H4567 H 0.10155 0.05605 0.59513 0.0
H4568 H 0.11172 0.01128 0.60262 0.0
H4569 H 0.09646 0.01014 0.62553 0.0
C4570 C 0.09635 0.03967 0.71277 0.0
C4571 C 0.10476 0.02786 0.71524 0.0
C4572 C 0.08861 0.04055 0.69723 0.0
C4573 C 0.08882 0.02958 0.68349 0.0
C4574 C 0.0973 0.01786 0.68585 0.0
C4575 C 0.10507 0.01698 0.70141 0.0
C4576 C 0.08034 0.03042 0.66677 0.0
C4577 C 0.08797 0.0302 0.65282 0.0
C4578 C 0.06492 0.03193 0.66451 0.0
C4579 C 0.05567 0.03129 0.67822 0.0
C4580 C 0.05432 0.01849 0.68715 0.0
C4581 C 0.04567 0.01801 0.70012 0.0
C4582 C 0.03822 0.03021 0.70422 0.0
C4583 C 0.03938 0.04289 0.69531 0.0
C4584 C 0.04803 0.04344 0.68233 0.0
C4585 C 0.0501 0.02659 0.58852 0.0
C4586 C 0.0414 0.03827 0.58698 0.0
C4587 C 0.05765 0.02483 0.6039 0.0
C4588 C 0.05706 0.0349 0.61826 0.0
C4589 C 0.0482 0.04643 0.61671 0.0
C4590 C 0.04051 0.04807 0.6014 0.0
C4591 C 0.06547 0.03342 0.63485 0.0
C4592 C 0.05782 0.03351 0.64879 0.0
C4593 C 0.08088 0.03183 0.63709 0.0
C4594 C 0.09017 0.03255 0.62343 0.0
C4595 C 0.09179 0.04555 0.61479 0.0
C4596 C 0.10041 0.04606 0.60179 0.0
C4597 C 0.10757 0.0337 0.59739 0.0
C4598 C 0.10616 0.02083 0.60603 0.0
C4599 C 0.09754 0.02025 0.61903 0.0
H4600 H 0.11423 0.03412 0.58731 0.0
H4601 H 0.03153 0.02981 0.71427 0.0
H4602 H 0.75357 0.36815 0.46117 0.0
H4603 H 0.76031 0.35735 0.43531 0.0
H4604 H 0.71368 0.33565 0.41927 0.0
H4605 H 0.70689 0.34573 0.44569 0.0
H4606 H 0.731 0.31607 0.40975 0.0
H4607 H 0.7318 0.37018 0.40504 0.0
H4608 H 0.73918 0.39858 0.41364 0.0
H4609 H 0.78594 0.39605 0.41275 0.0
H4610 H 0.77885 0.36761 0.40434 0.0
H4611 H 0.74496 0.29856 0.32591 0.0
H4612 H 0.7356 0.3067 0.3516 0.0
H4613 H 0.77973 0.33459 0.37009 0.0
H4614 H 0.78862 0.32727 0.34407 0.0
H4615 H 0.76165 0.351 0.37764 0.0
H4616 H 0.76131 0.29679 0.3838 0.0
H4617 H 0.75415 0.26833 0.37544 0.0
H4618 H 0.70717 0.27083 0.37379 0.0
H4619 H 0.71404 0.29932 0.38198 0.0
C4620 C 0.74467 0.3609 0.45235 0.0
C4621 C 0.7296 0.35787 0.45585 0.0
C4622 C 0.74857 0.35487 0.43731 0.0
C4623 C 0.73753 0.34582 0.42499 0.0
C4624 C 0.72249 0.34263 0.42842 0.0
C4625 C 0.71857 0.34859 0.44357 0.0
C4626 C 0.74176 0.33978 0.40864 0.0
C4627 C 0.73756 0.32376 0.40265 0.0
C4628 C 0.75054 0.34962 0.39929 0.0
C4629 C 0.7548 0.36675 0.40418 0.0
C4630 C 0.74366 0.37567 0.40677 0.0
C4631 C 0.74779 0.39177 0.4116 0.0
C4632 C 0.76302 0.39911 0.41377 0.0
C4633 C 0.77415 0.39036 0.41107 0.0
C4634 C 0.77008 0.37425 0.40625 0.0
C4635 C 0.75272 0.30613 0.33563 0.0
C4636 C 0.76762 0.31205 0.33303 0.0
C4637 C 0.74737 0.31083 0.35042 0.0
C4638 C 0.75692 0.32122 0.3632 0.0
C4639 C 0.77196 0.32668 0.36063 0.0
C4640 C 0.77713 0.32235 0.34574 0.0
C4641 C 0.75132 0.32713 0.37887 0.0
C4642 C 0.75517 0.34321 0.38472 0.0
C4643 C 0.74231 0.31732 0.3881 0.0
C4644 C 0.73819 0.30019 0.38335 0.0
C4645 C 0.74945 0.29127 0.38157 0.0
C4646 C 0.74545 0.27514 0.37687 0.0
C4647 C 0.73022 0.26778 0.37404 0.0
C4648 C 0.71896 0.27654 0.37597 0.0
C4649 C 0.7229 0.29268 0.38065 0.0
H4650 H 0.72714 0.2553 0.37039 0.0
H4651 H 0.76619 0.41157 0.41752 0.0
H4652 H 0.4467 0.05887 0.20116 0.0
H4653 H 0.45709 0.05265 0.17583 0.0
H4654 H 0.48074 0.1003 0.17957 0.0
H4655 H 0.47072 0.1066 0.20524 0.0
H4656 H 0.46653 0.08931 0.14835 0.0
H4657 H 0.49975 0.07172 0.18858 0.0
H4658 H 0.50589 0.05691 0.21123 0.0
H4659 H 0.48498 0.01395 0.18084 0.0
H4660 H 0.47853 0.02853 0.15808 0.0
H4661 H 0.52374 0.06977 0.09464 0.0
H4662 H 0.51361 0.07703 0.12024 0.0
H4663 H 0.47311 0.04236 0.1038 0.0
H4664 H 0.48273 0.03581 0.07785 0.0
H4665 H 0.49613 0.04733 0.1413 0.0
H4666 H 0.46071 0.06475 0.1021 0.0
H4667 H 0.45263 0.07942 0.08017 0.0
H4668 H 0.47545 0.12244 0.10922 0.0
H4669 H 0.48433 0.10792 0.13102 0.0
C4670 C 0.4543 0.06804 0.19683 0.0
C4671 C 0.45791 0.08326 0.20551 0.0
C4672 C 0.4602 0.06444 0.18221 0.0
C4673 C 0.46987 0.07594 0.17579 0.0
C4674 C 0.47332 0.09119 0.18423 0.0
C4675 C 0.4675 0.0948 0.19893 0.0
C4676 C 0.47617 0.07208 0.16017 0.0
C4677 C 0.47317 0.08026 0.1469 0.0
C4678 C 0.48455 0.06002 0.15805 0.0
C4679 C 0.48855 0.05123 0.17167 0.0
C4680 C 0.49637 0.05912 0.18676 0.0
C4681 C 0.49992 0.05077 0.19962 0.0
C4682 C 0.4958 0.0345 0.19749 0.0
C4683 C 0.48815 0.02655 0.18248 0.0
C4684 C 0.48456 0.03485 0.16959 0.0
C4685 C 0.51267 0.06374 0.09651 0.0
C4686 C 0.50403 0.05223 0.08424 0.0
C4687 C 0.50685 0.06795 0.11109 0.0
C4688 C 0.49246 0.06045 0.11383 0.0
C4689 C 0.48408 0.04856 0.10183 0.0
C4690 C 0.48964 0.04476 0.08705 0.0
C4691 C 0.48643 0.06453 0.1295 0.0
C4692 C 0.48955 0.05643 0.14279 0.0
C4693 C 0.478 0.07653 0.13158 0.0
C4694 C 0.47362 0.08517 0.11797 0.0
C4695 C 0.46448 0.07727 0.10359 0.0
C4696 C 0.45964 0.08558 0.09123 0.0
C4697 C 0.46357 0.10185 0.09327 0.0
C4698 C 0.47243 0.10983 0.10764 0.0
C4699 C 0.47748 0.10155 0.11994 0.0
H4700 H 0.45972 0.10828 0.08373 0.0
H4701 H 0.49855 0.02805 0.20746 0.0
H4702 H 0.77101 0.68225 0.90391 0.0
H4703 H 0.77478 0.70288 0.88641 0.0
H4704 H 0.76393 0.73541 0.92422 0.0
H4705 H 0.75949 0.7145 0.94147 0.0
H4706 H 0.75026 0.73915 0.89677 0.0
H4707 H 0.80141 0.7375 0.91423 0.0
H4708 H 0.82369 0.72561 0.9204 0.0
H4709 H 0.82038 0.70706 0.8696 0.0
H4710 H 0.79792 0.71864 0.86319 0.0
H4711 H 0.76293 0.79072 0.83561 0.0
H4712 H 0.76819 0.78151 0.86235 0.0
H4713 H 0.77149 0.73667 0.83747 0.0
H4714 H 0.7663 0.7457 0.81107 0.0
H4715 H 0.79325 0.74647 0.86434 0.0
H4716 H 0.73828 0.74328 0.84995 0.0
H4717 H 0.71607 0.75539 0.84415 0.0
H4718 H 0.72785 0.7845 0.89071 0.0
H4719 H 0.75023 0.77265 0.89668 0.0
C4720 C 0.76954 0.69384 0.90849 0.0
C4721 C 0.76496 0.69684 0.92397 0.0
C4722 C 0.77182 0.70567 0.89857 0.0
C4723 C 0.77 0.72084 0.90414 0.0
C4724 C 0.76549 0.72385 0.91969 0.0
C4725 C 0.76292 0.71192 0.9295 0.0
C4726 C 0.77183 0.73316 0.89319 0.0
C4727 C 0.75988 0.74106 0.89003 0.0
C4728 C 0.7844 0.7358 0.88441 0.0
C4729 C 0.79799 0.72894 0.88822 0.0
C4730 C 0.8054 0.73083 0.90438 0.0
C4731 C 0.81805 0.72415 0.90793 0.0
C4732 C 0.82345 0.71559 0.8954 0.0
C4733 C 0.81621 0.71372 0.87929 0.0
C4734 C 0.80355 0.72037 0.87569 0.0
C4735 C 0.76494 0.77897 0.83595 0.0
C4736 C 0.76397 0.76882 0.82136 0.0
C4737 C 0.76795 0.77375 0.85117 0.0
C4738 C 0.77012 0.75838 0.85185 0.0
C4739 C 0.76987 0.74857 0.83723 0.0
C4740 C 0.76677 0.75371 0.82215 0.0
C4741 C 0.7714 0.75173 0.8675 0.0
C4742 C 0.78393 0.74494 0.87156 0.0
C4743 C 0.75948 0.75026 0.87724 0.0
C4744 C 0.74599 0.75723 0.87367 0.0
C4745 C 0.73617 0.75233 0.85889 0.0
C4746 C 0.72355 0.75913 0.85558 0.0
C4747 C 0.72058 0.77074 0.86703 0.0
C4748 C 0.73019 0.77553 0.88184 0.0
C4749 C 0.74283 0.76878 0.88519 0.0
H4750 H 0.71081 0.776 0.86445 0.0
H4751 H 0.83324 0.71042 0.89817 0.0
H4752 H 0.87574 0.12158 0.0404 0.0
H4753 H 0.89431 0.10478 0.03774 0.0
H4754 H 0.92196 0.13969 0.01546 0.0
H4755 H 0.90321 0.15637 0.01774 0.0
H4756 H 0.92313 0.11355 0.99987 0.0
H4757 H 0.93023 0.13152 0.0571 0.0
H4758 H 0.9233 0.13672 0.08489 0.0
H4759 H 0.90815 0.0876 0.0854 0.0
H4760 H 0.9148 0.08212 0.0575 0.0
H4761 H 0.9924 0.08542 0.014 0.0
H4762 H 0.97178 0.09991 0.01364 0.0
H4763 H 0.94222 0.06013 0.02634 0.0
H4764 H 0.96291 0.04544 0.02656 0.0
H4765 H 0.9416 0.08778 0.04636 0.0
H4766 H 0.9367 0.07095 0.98828 0.0
H4767 H 0.94583 0.06757 0.96137 0.0
H4768 H 0.95969 0.11723 0.9639 0.0
H4769 H 0.9508 0.12091 0.99093 0.0
C4770 C 0.88583 0.12579 0.03507 0.0
C4771 C 0.88789 0.14049 0.02939 0.0
C4772 C 0.89655 0.11612 0.03357 0.0
C4773 C 0.90986 0.1209 0.02662 0.0
C4774 C 0.91188 0.13554 0.02085 0.0
C4775 C 0.90108 0.14515 0.02217 0.0
C4776 C 0.92154 0.11065 0.02519 0.0
C4777 C 0.92724 0.10811 0.01016 0.0
C4778 C 0.92697 0.10319 0.03841 0.0
C4779 C 0.92285 0.10643 0.05513 0.0
C4780 C 0.9253 0.12183 0.06308 0.0
C4781 C 0.92144 0.12483 0.07886 0.0
C4782 C 0.91524 0.1125 0.08689 0.0
C4783 C 0.91292 0.09714 0.07916 0.0
C4784 C 0.91674 0.09408 0.06336 0.0
C4785 C 0.98142 0.07957 0.01633 0.0
C4786 C 0.97935 0.06412 0.02011 0.0
C4787 C 0.96959 0.08793 0.01616 0.0
C4788 C 0.9553 0.08121 0.01994 0.0
C4789 C 0.95307 0.06565 0.02335 0.0
C4790 C 0.96489 0.05716 0.02328 0.0
C4791 C 0.94308 0.09072 0.02109 0.0
C4792 C 0.93735 0.09316 0.03608 0.0
C4793 C 0.93789 0.09837 0.00796 0.0
C4794 C 0.94319 0.09619 0.99169 0.0
C4795 C 0.94179 0.08115 0.98315 0.0
C4796 C 0.94691 0.07918 0.96786 0.0
C4797 C 0.95336 0.09217 0.96094 0.0
C4798 C 0.95469 0.10717 0.96928 0.0
C4799 C 0.9496 0.10921 0.98457 0.0
H4800 H 0.95731 0.09062 0.9491 0.0
H4801 H 0.91227 0.11484 0.09911 0.0
H4802 H 0.37142 0.49857 0.10424 0.0
H4803 H 0.39757 0.50588 0.09847 0.0
H4804 H 0.38294 0.4895 0.04708 0.0
H4805 H 0.35701 0.48196 0.05276 0.0
H4806 H 0.40781 0.4787 0.05865 0.0
H4807 H 0.39105 0.52794 0.06063 0.0
H4808 H 0.38066 0.54969 0.07337 0.0
H4809 H 0.41742 0.55919 0.11283 0.0
H4810 H 0.42792 0.53735 0.10042 0.0
H4811 H 0.47038 0.50898 0.02088 0.0
H4812 H 0.4453 0.50299 0.02953 0.0
H4813 H 0.4637 0.52516 0.07861 0.0
H4814 H 0.48872 0.53174 0.06977 0.0
H4815 H 0.43765 0.53277 0.07043 0.0
H4816 H 0.45515 0.48444 0.06821 0.0
H4817 H 0.46576 0.46274 0.0557 0.0
H4818 H 0.42788 0.4512 0.01751 0.0
H4819 H 0.41714 0.47296 0.02966 0.0
C4820 C 0.37382 0.49654 0.09173 0.0
C4821 C 0.36214 0.48981 0.07894 0.0
C4822 C 0.38871 0.5008 0.08844 0.0
C4823 C 0.39215 0.49832 0.07232 0.0
C4824 C 0.38052 0.49155 0.05959 0.0
C4825 C 0.36568 0.48738 0.06285 0.0
C4826 C 0.40789 0.50241 0.0686 0.0
C4827 C 0.4143 0.49055 0.06109 0.0
C4828 C 0.41649 0.51777 0.07224 0.0
C4829 C 0.41017 0.53089 0.0797 0.0
C4830 C 0.39684 0.53457 0.0721 0.0
C4831 C 0.39095 0.54694 0.07925 0.0
C4832 C 0.39835 0.55578 0.09393 0.0
C4833 C 0.41168 0.55231 0.10147 0.0
C4834 C 0.41761 0.53995 0.09438 0.0
C4835 C 0.46906 0.51254 0.03351 0.0
C4836 C 0.48147 0.52067 0.04471 0.0
C4837 C 0.45475 0.50906 0.03848 0.0
C4838 C 0.45266 0.51333 0.05483 0.0
C4839 C 0.46504 0.52168 0.06596 0.0
C4840 C 0.47933 0.52538 0.06092 0.0
C4841 C 0.43754 0.50908 0.06024 0.0
C4842 C 0.43124 0.52089 0.0681 0.0
C4843 C 0.42906 0.49363 0.05702 0.0
C4844 C 0.4354 0.48041 0.04979 0.0
C4845 C 0.44913 0.47733 0.05709 0.0
C4846 C 0.45516 0.46501 0.05007 0.0
C4847 C 0.44751 0.45562 0.0358 0.0
C4848 C 0.4338 0.45849 0.02855 0.0
C4849 C 0.42772 0.4708 0.03552 0.0
H4850 H 0.45221 0.44609 0.03038 0.0
H4851 H 0.39377 0.56536 0.09944 0.0
H4852 H 0.36521 0.65325 0.78979 0.0
H4853 H 0.35393 0.67643 0.79193 0.0
H4854 H 0.31117 0.64905 0.76861 0.0
H4855 H 0.32232 0.62568 0.76655 0.0
H4856 H 0.31349 0.67581 0.75724 0.0
H4857 H 0.32042 0.66462 0.81271 0.0
H4858 H 0.33451 0.65954 0.83818 0.0
H4859 H 0.36413 0.70414 0.84178 0.0
H4860 H 0.35033 0.7094 0.8162 0.0
H4861 H 0.26879 0.73371 0.77886 0.0
H4862 H 0.28031 0.71044 0.77663 0.0
H4863 H 0.32384 0.73887 0.79571 0.0
H4864 H 0.3124 0.76222 0.79767 0.0
H4865 H 0.3212 0.71184 0.80925 0.0
H4866 H 0.31465 0.72338 0.75445 0.0
H4867 H 0.30112 0.72895 0.7289 0.0
H4868 H 0.27136 0.68429 0.72394 0.0
H4869 H 0.28461 0.67853 0.74959 0.0
C4870 C 0.35333 0.65185 0.78525 0.0
C4871 C 0.34495 0.63693 0.77805 0.0
C4872 C 0.34676 0.66543 0.78651 0.0
C4873 C 0.33136 0.665 0.78073 0.0
C4874 C 0.32301 0.65021 0.77328 0.0
C4875 C 0.32957 0.63659 0.77205 0.0
C4876 C 0.32407 0.67973 0.78235 0.0
C4877 C 0.31507 0.68345 0.76877 0.0
C4878 C 0.32613 0.69045 0.79711 0.0
C4879 C 0.33444 0.68733 0.81246 0.0
C4880 C 0.33001 0.67329 0.81887 0.0
C4881 C 0.33793 0.67039 0.83333 0.0
C4882 C 0.35023 0.68149 0.84156 0.0
C4883 C 0.35461 0.69554 0.83537 0.0
C4884 C 0.34674 0.69849 0.8209 0.0
C4885 C 0.28082 0.73512 0.78267 0.0
C4886 C 0.28946 0.75022 0.78854 0.0
C4887 C 0.28752 0.72163 0.78128 0.0
C4888 C 0.30321 0.72244 0.78586 0.0
C4889 C 0.31179 0.73748 0.79202 0.0
C4890 C 0.30514 0.75102 0.79315 0.0
C4891 C 0.31057 0.7078 0.7842 0.0
C4892 C 0.31959 0.70414 0.79775 0.0
C4893 C 0.30858 0.69718 0.76942 0.0
C4894 C 0.30051 0.7006 0.75405 0.0
C4895 C 0.30513 0.71481 0.748 0.0
C4896 C 0.29753 0.71799 0.73348 0.0
C4897 C 0.28535 0.707 0.72483 0.0
C4898 C 0.28078 0.6928 0.73067 0.0
C4899 C 0.28833 0.68957 0.74519 0.0
H4900 H 0.27949 0.70948 0.71359 0.0
H4901 H 0.35634 0.67922 0.85276 0.0
H4902 H 0.24955 0.61424 0.52728 0.0
H4903 H 0.22358 0.60063 0.528 0.0
H4904 H 0.20778 0.64378 0.52498 0.0
H4905 H 0.23352 0.65736 0.52392 0.0
H4906 H 0.19785 0.62907 0.55021 0.0
H4907 H 0.20039 0.61568 0.49265 0.0
H4908 H 0.21099 0.60474 0.46878 0.0
H4909 H 0.20381 0.55968 0.48529 0.0
H4910 H 0.19337 0.5704 0.5094 0.0
H4911 H 0.1193 0.60529 0.53891 0.0
H4912 H 0.14504 0.61527 0.53375 0.0
H4913 H 0.15561 0.56946 0.53492 0.0
H4914 H 0.1297 0.55932 0.53989 0.0
H4915 H 0.1688 0.58387 0.51127 0.0
H4916 H 0.16608 0.59673 0.56841 0.0
H4917 H 0.15551 0.60729 0.59247 0.0
H4918 H 0.16356 0.65292 0.57733 0.0
H4919 H 0.17399 0.64258 0.55303 0.0
C4920 C 0.24051 0.62078 0.52648 0.0
C4921 C 0.24367 0.63695 0.52573 0.0
C4922 C 0.22567 0.61298 0.52692 0.0
C4923 C 0.21374 0.6212 0.52657 0.0
C4924 C 0.21682 0.63723 0.52539 0.0
C4925 C 0.23158 0.64499 0.52488 0.0
C4926 C 0.19815 0.61343 0.52835 0.0
C4927 C 0.19145 0.6193 0.54158 0.0
C4928 C 0.18997 0.60034 0.51741 0.0
C4929 C 0.19626 0.59389 0.50294 0.0
C4930 C 0.20121 0.60347 0.49128 0.0
C4931 C 0.20716 0.5973 0.47769 0.0
C4932 C 0.20812 0.58154 0.47555 0.0
C4933 C 0.20309 0.5719 0.48698 0.0
C4934 C 0.19715 0.57801 0.50061 0.0
C4935 C 0.1271 0.59733 0.53804 0.0
C4936 C 0.12254 0.58157 0.54004 0.0
C4937 C 0.1418 0.60304 0.53507 0.0
C4938 C 0.15237 0.59319 0.53428 0.0
C4939 C 0.14768 0.57729 0.53554 0.0
C4940 C 0.13288 0.57152 0.53838 0.0
C4941 C 0.16843 0.59975 0.53294 0.0
C4942 C 0.17524 0.59361 0.51991 0.0
C4943 C 0.1768 0.61255 0.54413 0.0
C4944 C 0.17071 0.61885 0.55883 0.0
C4945 C 0.16551 0.609 0.57016 0.0
C4946 C 0.15956 0.61495 0.58384 0.0
C4947 C 0.15884 0.63076 0.58641 0.0
C4948 C 0.16412 0.64067 0.57532 0.0
C4949 C 0.17007 0.63477 0.56159 0.0
H4950 H 0.15422 0.63534 0.59701 0.0
H4951 H 0.21272 0.57678 0.46501 0.0
H4952 H 0.65191 0.90523 0.77693 0.0
H4953 H 0.66797 0.8856 0.77854 0.0
H4954 H 0.70062 0.91769 0.81403 0.0
H4955 H 0.68443 0.93723 0.81273 0.0
H4956 H 0.71381 0.90299 0.78856 0.0
H4957 H 0.68215 0.88894 0.82851 0.0
H4958 H 0.65859 0.88231 0.8407 0.0
H4959 H 0.64314 0.84281 0.80361 0.0
H4960 H 0.6667 0.84904 0.79123 0.0
H4961 H 0.75661 0.84446 0.81116 0.0
H4962 H 0.74185 0.86532 0.81261 0.0
H4963 H 0.70719 0.83735 0.77608 0.0
H4964 H 0.72166 0.81642 0.77478 0.0
H4965 H 0.69575 0.85061 0.8042 0.0
H4966 H 0.72887 0.86646 0.76426 0.0
H4967 H 0.75346 0.87396 0.75422 0.0
H4968 H 0.7672 0.91105 0.79429 0.0
H4969 H 0.74267 0.90388 0.80454 0.0
C4970 C 0.6625 0.90809 0.78509 0.0
C4971 C 0.66686 0.92281 0.79472 0.0
C4972 C 0.67165 0.89683 0.78606 0.0
C4973 C 0.68553 0.9001 0.79645 0.0
C4974 C 0.68998 0.91484 0.80594 0.0
C4975 C 0.68068 0.92599 0.80524 0.0
C4976 C 0.69546 0.88822 0.7971 0.0
C4977 C 0.70992 0.89162 0.79221 0.0
C4978 C 0.69045 0.87331 0.80174 0.0
C4979 C 0.67611 0.86957 0.80884 0.0
C4980 C 0.67368 0.87889 0.82287 0.0
C4981 C 0.66037 0.87513 0.82987 0.0
C4982 C 0.64941 0.86207 0.82296 0.0
C4983 C 0.65172 0.85278 0.80901 0.0
C4984 C 0.66506 0.8564 0.80201 0.0
C4985 C 0.74578 0.84265 0.80354 0.0
C4986 C 0.74024 0.82854 0.79301 0.0
C4987 C 0.73737 0.85465 0.80432 0.0
C4988 C 0.72327 0.85283 0.79458 0.0
C4989 C 0.71784 0.83887 0.78398 0.0
C4990 C 0.72618 0.82691 0.78323 0.0
C4991 C 0.71401 0.86531 0.79543 0.0
C4992 C 0.69964 0.862 0.80058 0.0
C4993 C 0.71921 0.88038 0.79128 0.0
C4994 C 0.73402 0.88453 0.78527 0.0
C4995 C 0.73719 0.87613 0.77102 0.0
C4996 C 0.75109 0.88033 0.76526 0.0
C4997 C 0.76191 0.89287 0.77368 0.0
C4998 C 0.75883 0.90131 0.78781 0.0
C4999 C 0.74491 0.89722 0.79357 0.0
H5000 H 0.77266 0.89609 0.7692 0.0
H5001 H 0.63911 0.85916 0.82839 0.0
H5002 H 0.7012 0.9629 0.55382 0.0
H5003 H 0.6796 0.97332 0.54272 0.0
H5004 H 0.70274 0.01992 0.563 0.0
H5005 H 0.72463 0.00961 0.57389 0.0
H5006 H 0.67234 0.01373 0.56765 0.0
H5007 H 0.70234 0.00882 0.5238 0.0
H5008 H 0.71644 0.99503 0.50511 0.0
H5009 H 0.67577 0.96196 0.48558 0.0
H5010 H 0.66146 0.97542 0.50435 0.0
H5011 H 0.62658 0.05542 0.52496 0.0
H5012 H 0.64957 0.04517 0.53089 0.0
H5013 H 0.62452 0.9983 0.51551 0.0
H5014 H 0.60144 0.00847 0.5094 0.0
H5015 H 0.6561 0.00473 0.50741 0.0
H5016 H 0.62677 0.00813 0.55259 0.0
H5017 H 0.61192 0.02274 0.56952 0.0
H5018 H 0.65127 0.05865 0.58586 0.0
H5019 H 0.66629 0.04435 0.56872 0.0
C5020 C 0.70175 0.97538 0.55586 0.0
C5021 C 0.71473 0.98546 0.56453 0.0
C5022 C 0.68938 0.9813 0.54956 0.0
C5023 C 0.68971 0.9974 0.55182 0.0
C5024 C 0.70233 0.00745 0.56108 0.0
C5025 C 0.71479 1.00154 0.56734 0.0
C5026 C 0.67697 0.00371 0.54422 0.0
C5027 C 0.66894 0.01192 0.55448 0.0
C5028 C 0.67234 1.00106 0.52704 0.0
C5029 C 0.68086 0.99305 0.51559 0.0
C5030 C 0.69643 0.99854 0.51561 0.0
C5031 C 0.70445 0.99079 0.50499 0.0
C5032 C 0.69701 0.97761 0.49419 0.0
C5033 C 0.68152 0.97217 0.49396 0.0
C5034 C 0.67344 0.97986 0.50458 0.0
C5035 C 0.626 0.04298 0.52229 0.0
C5036 C 0.61211 0.03275 0.51674 0.0
C5037 C 0.63917 0.03714 0.52572 0.0
C5038 C 0.63867 0.021 0.52369 0.0
C5039 C 0.62511 0.01081 0.51706 0.0
C5040 C 0.6119 0.01663 0.51371 0.0
C5041 C 0.65164 0.01478 0.53086 0.0
C5042 C 0.65961 0.00653 0.52057 0.0
C5043 C 0.65621 0.01729 0.548 0.0
C5044 C 0.6476 0.02525 0.55932 0.0
C5045 C 0.63225 0.01913 0.55982 0.0
C5046 C 0.6238 0.02736 0.56942 0.0
C5047 C 0.63065 0.04163 0.57871 0.0
C5048 C 0.646 0.0476 0.57862 0.0
C5049 C 0.65449 0.03943 0.56898 0.0
H5050 H 0.62407 0.0481 0.58594 0.0
H5051 H 0.70325 0.97162 0.48598 0.0
H5052 H 0.36187 0.46355 0.77743 0.0
H5053 H 0.35051 0.43658 0.77943 0.0
H5054 H 0.30628 0.44831 0.77531 0.0
H5055 H 0.31762 0.47544 0.77345 0.0
H5056 H 0.30568 0.42849 0.79587 0.0
H5057 H 0.32151 0.42594 0.74271 0.0
H5058 H 0.33903 0.42992 0.72211 0.0
H5059 H 0.36749 0.4026 0.74584 0.0
H5060 H 0.35024 0.39862 0.76672 0.0
H5061 H 0.26737 0.34682 0.78221 0.0
H5062 H 0.27688 0.37433 0.779 0.0
H5063 H 0.32267 0.36707 0.78741 0.0
H5064 H 0.31325 0.33986 0.79063 0.0
H5065 H 0.32128 0.38457 0.76364 0.0
H5066 H 0.305 0.38764 0.81709 0.0
H5067 H 0.28679 0.38339 0.83696 0.0
H5068 H 0.25816 0.40944 0.81144 0.0
H5069 H 0.27612 0.41368 0.79127 0.0
C5070 C 0.34968 0.46052 0.77672 0.0
C5071 C 0.34086 0.47216 0.77509 0.0
C5072 C 0.34309 0.44481 0.77787 0.0
C5073 C 0.32728 0.4398 0.77722 0.0
C5074 C 0.31845 0.45144 0.77585 0.0
C5075 C 0.32506 0.46719 0.7748 0.0
C5076 C 0.32008 0.42264 0.77806 0.0
C5077 C 0.30901 0.41898 0.78856 0.0
C5078 C 0.32425 0.40974 0.76888 0.0
C5079 C 0.33466 0.41212 0.75638 0.0
C5080 C 0.33157 0.42088 0.74361 0.0
C5081 C 0.34144 0.42312 0.73187 0.0
C5082 C 0.35439 0.41655 0.73269 0.0
C5083 C 0.35747 0.4077 0.74523 0.0
C5084 C 0.34765 0.40544 0.75702 0.0
C5085 C 0.27946 0.35105 0.78333 0.0
C5086 C 0.28944 0.34084 0.78676 0.0
C5087 C 0.28498 0.36696 0.78158 0.0
C5088 C 0.30069 0.37327 0.78309 0.0
C5089 C 0.31056 0.3629 0.78615 0.0
C5090 C 0.30508 0.34716 0.78805 0.0
C5091 C 0.30701 0.39045 0.78151 0.0
C5092 C 0.31792 0.3941 0.77089 0.0
C5093 C 0.30259 0.40331 0.79046 0.0
C5094 C 0.29182 0.40082 0.80257 0.0
C5095 C 0.29476 0.39236 0.81564 0.0
C5096 C 0.2845 0.38997 0.82697 0.0
C5097 C 0.27131 0.3961 0.82543 0.0
C5098 C 0.26837 0.40468 0.81259 0.0
C5099 C 0.27859 0.40708 0.80121 0.0
H5100 H 0.26337 0.39424 0.83422 0.0
H5101 H 0.36201 0.4183 0.72358 0.0
H5102 H 0.1578 0.57993 0.2878 0.0
H5103 H 0.17353 0.60518 0.28622 0.0
H5104 H 0.21292 0.5893 0.30674 0.0
H5105 H 0.19736 0.56361 0.30773 0.0
H5106 H 0.20936 0.62197 0.31952 0.0
H5107 H 0.21081 0.58838 0.26976 0.0
H5108 H 0.19929 0.5694 0.24547 0.0
H5109 H 0.17383 0.60234 0.22784 0.0
H5110 H 0.18502 0.62144 0.25219 0.0
H5111 H 0.26187 0.68358 0.29469 0.0
H5112 H 0.24884 0.65809 0.30015 0.0
H5113 H 0.20825 0.66373 0.27087 0.0
H5114 H 0.22126 0.68899 0.26507 0.0
H5115 H 0.21408 0.63529 0.26329 0.0
H5116 H 0.2114 0.66856 0.31233 0.0
H5117 H 0.22119 0.68769 0.33698 0.0
H5118 H 0.24741 0.6561 0.35629 0.0
H5119 H 0.23794 0.63685 0.33162 0.0
C5120 C 0.16982 0.58169 0.29188 0.0
C5121 C 0.17633 0.56958 0.29761 0.0
C5122 C 0.17876 0.59621 0.29113 0.0
C5123 C 0.19437 0.59903 0.29626 0.0
C5124 C 0.20086 0.58731 0.30276 0.0
C5125 C 0.19193 0.57266 0.30334 0.0
C5126 C 0.2039 0.61386 0.29366 0.0
C5127 C 0.21067 0.62483 0.30726 0.0
C5128 C 0.20523 0.61764 0.27764 0.0
C5129 C 0.19865 0.60628 0.26287 0.0
C5130 C 0.20266 0.59153 0.26077 0.0
C5131 C 0.19621 0.58076 0.24699 0.0
C5132 C 0.1858 0.58465 0.23514 0.0
C5133 C 0.18187 0.59934 0.23703 0.0
C5134 C 0.18828 0.61015 0.25082 0.0
C5135 C 0.2502 0.67932 0.28932 0.0
C5136 C 0.24259 0.68831 0.27946 0.0
C5137 C 0.24273 0.66483 0.29259 0.0
C5138 C 0.22753 0.65906 0.28603 0.0
C5139 C 0.21997 0.66796 0.27609 0.0
C5140 C 0.22739 0.68244 0.27287 0.0
C5141 C 0.21952 0.6436 0.28915 0.0
C5142 C 0.21298 0.63246 0.27559 0.0
C5143 C 0.21832 0.63976 0.30522 0.0
C5144 C 0.22412 0.65135 0.32002 0.0
C5145 C 0.21938 0.66575 0.32174 0.0
C5146 C 0.22484 0.67661 0.33574 0.0
C5147 C 0.23496 0.67314 0.34817 0.0
C5148 C 0.2396 0.65879 0.34664 0.0
C5149 C 0.23419 0.6479 0.33265 0.0
H5150 H 0.23916 0.68155 0.359 0.0
H5151 H 0.18081 0.57629 0.22447 0.0
H5152 H 0.54095 0.75627 0.45205 0.0
H5153 H 0.54167 0.73593 0.46984 0.0
H5154 H 0.51148 0.70283 0.43291 0.0
H5155 H 0.51048 0.72331 0.41515 0.0
H5156 H 0.50423 0.69777 0.46233 0.0
H5157 H 0.55079 0.70455 0.43879 0.0
H5158 H 0.5745 0.71941 0.43187 0.0
H5159 H 0.59055 0.73356 0.48311 0.0
H5160 H 0.56684 0.71895 0.49033 0.0
H5161 H 0.52141 0.62863 0.4913 0.0
H5162 H 0.51846 0.64988 0.47521 0.0
H5163 H 0.54626 0.68296 0.51395 0.0
H5164 H 0.54948 0.66168 0.53001 0.0
H5165 H 0.55446 0.68815 0.48415 0.0
H5166 H 0.50828 0.68086 0.50779 0.0
H5167 H 0.48498 0.66531 0.51484 0.0
H5168 H 0.46854 0.6515 0.46366 0.0
H5169 H 0.49181 0.6669 0.45629 0.0
C5170 C 0.53448 0.74466 0.44767 0.0
C5171 C 0.5258 0.74142 0.43205 0.0
C5172 C 0.5349 0.73299 0.45788 0.0
C5173 C 0.52688 0.71766 0.45266 0.0
C5174 C 0.51781 0.71451 0.43727 0.0
C5175 C 0.51726 0.72625 0.4271 0.0
C5176 C 0.52834 0.70489 0.46302 0.0
C5177 C 0.51522 0.69557 0.46691 0.0
C5178 C 0.54266 0.7021 0.4694 0.0
C5179 C 0.55698 0.71077 0.46509 0.0
C5180 C 0.55934 0.71091 0.44858 0.0
C5181 C 0.57278 0.71928 0.4446 0.0
C5182 C 0.58401 0.72745 0.45704 0.0
C5183 C 0.58184 0.72724 0.47348 0.0
C5184 C 0.5684 0.7189 0.47753 0.0
C5185 C 0.52698 0.64041 0.49638 0.0
C5186 C 0.53575 0.6434 0.51196 0.0
C5187 C 0.52516 0.6526 0.48721 0.0
C5188 C 0.53204 0.6681 0.49337 0.0
C5189 C 0.5408 0.67113 0.50891 0.0
C5190 C 0.54255 0.65895 0.51814 0.0
C5191 C 0.53039 0.68107 0.48343 0.0
C5192 C 0.54347 0.6904 0.4796 0.0
C5193 C 0.51606 0.68383 0.47713 0.0
C5194 C 0.50185 0.67493 0.48149 0.0
C5195 C 0.49972 0.67446 0.49803 0.0
C5196 C 0.48652 0.66567 0.50209 0.0
C5197 C 0.47532 0.65735 0.48971 0.0
C5198 C 0.47725 0.65792 0.47324 0.0
C5199 C 0.49042 0.66672 0.46911 0.0
H5200 H 0.46515 0.65049 0.49289 0.0
H5201 H 0.59441 0.73393 0.45394 0.0
H5202 H 0.60365 0.29884 0.71811 0.0
H5203 H 0.63035 0.30002 0.72726 0.0
H5204 H 0.61893 0.28046 0.77082 0.0
H5205 H 0.59215 0.27998 0.76215 0.0
H5206 H 0.64342 0.30141 0.77948 0.0
H5207 H 0.62994 0.25896 0.73593 0.0
H5208 H 0.61961 0.24559 0.70812 0.0
H5209 H 0.65209 0.27705 0.68752 0.0
H5210 H 0.66249 0.29075 0.71521 0.0
H5211 H 0.71316 0.27276 0.79657 0.0
H5212 H 0.68684 0.27565 0.78944 0.0
H5213 H 0.701 0.30602 0.75424 0.0
H5214 H 0.72746 0.30361 0.76189 0.0
H5215 H 0.67565 0.28034 0.74143 0.0
H5216 H 0.68964 0.32195 0.78586 0.0
H5217 H 0.70001 0.33431 0.81401 0.0
H5218 H 0.66647 0.3029 0.8333 0.0
H5219 H 0.65604 0.29017 0.80525 0.0
C5220 C 0.60668 0.29496 0.72977 0.0
C5221 C 0.59534 0.2893 0.73926 0.0
C5222 C 0.62214 0.29543 0.73493 0.0
C5223 C 0.62699 0.29007 0.7497 0.0
C5224 C 0.61575 0.28462 0.75934 0.0
C5225 C 0.60026 0.2842 0.75422 0.0
C5226 C 0.64364 0.29014 0.75504 0.0
C5227 C 0.65033 0.29659 0.77114 0.0
C5228 C 0.6531 0.28418 0.7443 0.0
C5229 C 0.64688 0.27599 0.72763 0.0
C5230 C 0.6348 0.2631 0.72546 0.0
C5231 C 0.62895 0.25545 0.70972 0.0
C5232 C 0.63516 0.26049 0.69606 0.0
C5233 C 0.64727 0.27317 0.69811 0.0
C5234 C 0.65316 0.28088 0.71383 0.0
C5235 C 0.71074 0.28049 0.78772 0.0
C5236 C 0.72255 0.28833 0.7802 0.0
C5237 C 0.69561 0.28203 0.78352 0.0
C5238 C 0.69172 0.29106 0.77123 0.0
C5239 C 0.70355 0.29901 0.76378 0.0
C5240 C 0.71876 0.29779 0.76831 0.0
C5241 C 0.67531 0.29158 0.76577 0.0
C5242 C 0.66869 0.28519 0.74969 0.0
C5243 C 0.6659 0.29743 0.77657 0.0
C5244 C 0.67217 0.30499 0.79346 0.0
C5245 C 0.68458 0.31756 0.79611 0.0
C5246 C 0.69044 0.32466 0.81205 0.0
C5247 C 0.68393 0.31936 0.82544 0.0
C5248 C 0.67152 0.30697 0.82291 0.0
C5249 C 0.66562 0.29981 0.80699 0.0
H5250 H 0.68848 0.32489 0.83777 0.0
H5251 H 0.63062 0.25455 0.68388 0.0
H5252 H 0.04435 0.40086 0.92082 0.0
H5253 H 0.04361 0.42468 0.93882 0.0
H5254 H 0.01507 0.39762 0.96797 0.0
H5255 H 0.01566 0.37383 0.94996 0.0
H5256 H 1.00416 0.42212 0.96317 0.0
H5257 H 0.05375 0.41418 0.98109 0.0
H5258 H 0.07971 0.41015 0.97896 0.0
H5259 H 0.09041 0.45391 0.96025 0.0
H5260 H 0.06444 0.45811 0.96202 0.0
H5261 H 0.0084 0.48511 0.02717 0.0
H5262 H 0.01078 0.46034 0.0119 0.0
H5263 H 0.03808 0.48545 0.98024 0.0
H5264 H 0.03605 0.51015 0.99564 0.0
H5265 H 0.04979 0.46142 0.98754 0.0
H5266 H 0.99932 0.46834 0.96867 0.0
H5267 H 0.97356 0.47237 0.9721 0.0
H5268 H 0.9649 0.4301 0.99398 0.0
H5269 H 0.99067 0.42592 0.99086 0.0
C5270 C 0.03806 0.39994 0.93118 0.0
C5271 C 0.03004 0.38534 0.93385 0.0
C5272 C 0.03766 0.41362 0.94152 0.0
C5273 C 0.02939 0.41307 0.95496 0.0
C5274 C 0.02149 0.39849 0.95771 0.0
C5275 C 0.02181 0.38484 0.94733 0.0
C5276 C 0.02851 0.42768 0.9658 0.0
C5277 C 0.01419 0.43057 0.96867 0.0
C5278 C 0.04151 0.43899 0.97286 0.0
C5279 C 0.05707 0.43636 0.97151 0.0
C5280 C 0.06158 0.42287 0.97635 0.0
C5281 C 0.07631 0.42056 0.97523 0.0
C5282 C 0.08668 0.43173 0.9694 0.0
C5283 C 0.08235 0.44524 0.96471 0.0
C5284 C 0.06763 0.44759 0.96577 0.0
C5285 C 0.01494 0.48537 0.01698 0.0
C5286 C 0.02195 0.4997 0.01263 0.0
C5287 C 0.01624 0.47115 0.00818 0.0
C5288 C 0.02444 0.47091 0.99468 0.0
C5289 C 0.03167 0.48522 0.99054 0.0
C5290 C 0.03044 0.49939 0.99937 0.0
C5291 C 0.02546 0.45587 0.98474 0.0
C5292 C 0.03979 0.45291 0.98204 0.0
C5293 C 0.01249 0.44445 0.97792 0.0
C5294 C 0.99696 0.4469 0.97968 0.0
C5295 C 0.99195 0.45996 0.97431 0.0
C5296 C 0.97734 0.46226 0.97618 0.0
C5297 C 0.96761 0.45152 0.98329 0.0
C5298 C 0.97245 0.43843 0.9885 0.0
C5299 C 0.98705 0.43608 0.98667 0.0
H5300 H 0.95631 0.45333 0.98474 0.0
H5301 H 0.09809 0.42995 0.9686 0.0
H5302 H 0.92388 0.75961 0.22583 0.0
H5303 H 0.89871 0.76046 0.23387 0.0
H5304 H 0.91316 0.80942 0.25164 0.0
H5305 H 0.93824 0.80869 0.2434 0.0
H5306 H 0.89702 0.79253 0.27381 0.0
H5307 H 0.8905 0.79824 0.21608 0.0
H5308 H 0.89117 0.79018 0.1867 0.0
H5309 H 0.86031 0.74737 0.18854 0.0
H5310 H 0.85963 0.75507 0.21801 0.0
H5311 H 0.82646 0.81044 0.2901 0.0
H5312 H 0.85104 0.80947 0.28105 0.0
H5313 H 0.83105 0.76763 0.24779 0.0
H5314 H 0.80609 0.76971 0.25574 0.0
H5315 H 0.85051 0.78 0.2334 0.0
H5316 H 0.85691 0.77164 0.28966 0.0
H5317 H 0.8564 0.77697 0.31948 0.0
H5318 H 0.88744 0.82047 0.32152 0.0
H5319 H 0.88801 0.81547 0.29167 0.0
C5320 C 0.92177 0.77058 0.2315 0.0
C5321 C 0.93329 0.78409 0.23389 0.0
C5322 C 0.90725 0.77107 0.23603 0.0
C5323 C 0.90378 0.78503 0.24336 0.0
C5324 C 0.91535 0.79846 0.24601 0.0
C5325 C 0.92976 0.79805 0.2412 0.0
C5326 C 0.88824 0.78568 0.24834 0.0
C5327 C 0.88687 0.78995 0.26493 0.0
C5328 C 0.87475 0.78176 0.23701 0.0
C5329 C 0.87514 0.77716 0.21929 0.0
C5330 C 0.88396 0.78705 0.21026 0.0
C5331 C 0.88433 0.78255 0.19358 0.0
C5332 C 0.87583 0.76825 0.18577 0.0
C5333 C 0.86691 0.75843 0.19461 0.0
C5334 C 0.86652 0.76286 0.2113 0.0
C5335 C 0.82732 0.80101 0.28087 0.0
C5336 C 0.81426 0.79005 0.27384 0.0
C5337 C 0.84155 0.80029 0.27577 0.0
C5338 C 0.8435 0.78808 0.26404 0.0
C5339 C 0.83029 0.77719 0.2569 0.0
C5340 C 0.8159 0.77829 0.26154 0.0
C5341 C 0.85908 0.78687 0.25906 0.0
C5342 C 0.86054 0.78251 0.24243 0.0
C5343 C 0.87264 0.79024 0.27046 0.0
C5344 C 0.87239 0.79324 0.28841 0.0
C5345 C 0.86357 0.78237 0.29646 0.0
C5346 C 0.86327 0.78533 0.31337 0.0
C5347 C 0.87185 0.79907 0.32238 0.0
C5348 C 0.88079 0.80984 0.31452 0.0
C5349 C 0.88112 0.80694 0.29761 0.0
H5350 H 0.8716 0.80135 0.33547 0.0
H5351 H 0.87612 0.7648 0.17285 0.0
H5352 H 0.49202 0.33442 0.08144 0.0
H5353 H 0.50111 0.35792 0.0696 0.0
H5354 H 0.53606 0.37315 0.11102 0.0
H5355 H 0.52624 0.35033 0.12365 0.0
H5356 H 0.52549 0.39675 0.10362 0.0
H5357 H 0.54315 0.35673 0.07214 0.0
H5358 H 0.54154 0.33136 0.05535 0.0
H5359 H 0.51046 0.34376 0.01833 0.0
H5360 H 0.51172 0.36913 0.03499 0.0
H5361 H 0.56023 0.45734 0.06086 0.0
H5362 H 0.55761 0.43294 0.07321 0.0
H5363 H 0.5152 0.41526 0.04201 0.0
H5364 H 0.51777 0.43951 0.02975 0.0
H5365 H 0.53378 0.39298 0.04512 0.0
H5366 H 0.51473 0.43205 0.0793 0.0
H5367 H 0.5174 0.45749 0.09636 0.0
H5368 H 0.55332 0.44659 0.12869 0.0
H5369 H 0.55099 0.42116 0.11167 0.0
C5370 C 0.50146 0.34287 0.08822 0.0
C5371 C 0.50842 0.34036 0.1035 0.0
C5372 C 0.50684 0.3562 0.08127 0.0
C5373 C 0.51954 0.36712 0.0892 0.0
C5374 C 0.52635 0.36481 0.10457 0.0
C5375 C 0.5208 0.35164 0.1117 0.0
C5376 C 0.52548 0.3811 0.0816 0.0
C5377 C 0.52759 0.39587 0.09092 0.0
C5378 C 0.52819 0.38002 0.065 0.0
C5379 C 0.52746 0.3648 0.05488 0.0
C5380 C 0.5359 0.35401 0.06046 0.0
C5381 C 0.53506 0.33963 0.05096 0.0
C5382 C 0.52588 0.33594 0.03579 0.0
C5383 C 0.51756 0.34663 0.03008 0.0
C5384 C 0.51835 0.36102 0.03954 0.0
C5385 C 0.55053 0.44809 0.05648 0.0
C5386 C 0.53915 0.45024 0.04447 0.0
C5387 C 0.54901 0.43425 0.06355 0.0
C5388 C 0.53616 0.42241 0.05857 0.0
C5389 C 0.52519 0.42428 0.046 0.0
C5390 C 0.52663 0.43812 0.03907 0.0
C5391 C 0.53344 0.40845 0.06706 0.0
C5392 C 0.53193 0.39374 0.0579 0.0
C5393 C 0.53151 0.40956 0.08385 0.0
C5394 C 0.53281 0.4248 0.09411 0.0
C5395 C 0.52328 0.43514 0.08997 0.0
C5396 C 0.52472 0.44955 0.09964 0.0
C5397 C 0.53556 0.45368 0.11357 0.0
C5398 C 0.54495 0.44339 0.11788 0.0
C5399 C 0.54358 0.42898 0.10823 0.0
H5400 H 0.53665 0.46484 0.12104 0.0
H5401 H 0.52524 0.3248 0.02846 0.0
H5402 H 0.98544 0.31535 0.35949 0.0
H5403 H 0.96267 0.30818 0.33947 0.0
H5404 H 0.93576 0.29751 0.37804 0.0
H5405 H 0.9584 0.30541 0.39841 0.0
H5406 H 0.92949 0.27478 0.34577 0.0
H5407 H 0.93324 0.32858 0.36891 0.0
H5408 H 0.94667 0.35576 0.37756 0.0
H5409 H 0.95585 0.35988 0.32823 0.0
H5410 H 0.94267 0.33262 0.31934 0.0
H5411 H 0.85629 0.28298 0.30959 0.0
H5412 H 0.87989 0.27972 0.3249 0.0
H5413 H 0.90519 0.30498 0.29168 0.0
H5414 H 0.88156 0.30894 0.2769 0.0
H5415 H 0.91299 0.31887 0.32106 0.0
H5416 H 0.90589 0.26576 0.29694 0.0
H5417 H 0.89322 0.23833 0.2885 0.0
H5418 H 0.89041 0.23204 0.33888 0.0
H5419 H 0.90274 0.25954 0.34764 0.0
C5420 C 0.97469 0.31167 0.36381 0.0
C5421 C 0.97374 0.31124 0.38063 0.0
C5422 C 0.96174 0.30734 0.35231 0.0
C5423 C 0.94764 0.30229 0.35734 0.0
C5424 C 0.94663 0.30124 0.37398 0.0
C5425 C 0.95957 0.30579 0.38557 0.0
C5426 C 0.93384 0.29959 0.34535 0.0
C5427 C 0.92568 0.28435 0.34041 0.0
C5428 C 0.92926 0.31212 0.33822 0.0
C5429 C 0.93715 0.32851 0.34351 0.0
C5430 C 0.93827 0.33523 0.35994 0.0
C5431 C 0.9458 0.35066 0.36488 0.0
C5432 C 0.95216 0.35952 0.35346 0.0
C5433 C 0.95095 0.35299 0.33707 0.0
C5434 C 0.94345 0.33755 0.33207 0.0
C5435 C 0.86688 0.28732 0.30523 0.0
C5436 C 0.86722 0.29633 0.29221 0.0
C5437 C 0.88037 0.28539 0.31394 0.0
C5438 C 0.89434 0.29214 0.30948 0.0
C5439 C 0.89455 0.29975 0.2954 0.0
C5440 C 0.88109 0.30198 0.28693 0.0
C5441 C 0.90843 0.29388 0.32104 0.0
C5442 C 0.9167 0.30911 0.32612 0.0
C5443 C 0.91299 0.28127 0.32823 0.0
C5444 C 0.90515 0.26481 0.32295 0.0
C5445 C 0.90241 0.25861 0.30623 0.0
C5446 C 0.89533 0.24301 0.30138 0.0
C5447 C 0.89106 0.23344 0.31314 0.0
C5448 C 0.89379 0.23945 0.32978 0.0
C5449 C 0.90079 0.25506 0.33469 0.0
H5450 H 0.88557 0.22137 0.30936 0.0
H5451 H 0.95798 0.37147 0.3573 0.0
H5452 H 0.97438 0.67735 0.60547 0.0
H5453 H 0.97752 0.65358 0.58908 0.0
H5454 H 0.97209 0.67522 0.54503 0.0
H5455 H 0.9687 0.699 0.56132 0.0
H5456 H 0.96292 0.63227 0.56247 0.0
H5457 H 1.00173 0.66947 0.5246 0.0
H5458 H 0.01733 0.69597 0.52728 0.0
H5459 H 0.02314 0.69805 0.57977 0.0
H5460 H 0.00781 0.67151 0.57737 0.0
H5461 H 0.9907 0.57479 0.51534 0.0
H5462 H 0.97928 0.59783 0.52049 0.0
H5463 H 0.02142 0.62277 0.54853 0.0
H5464 H 0.03301 0.60029 0.54223 0.0
H5465 H 0.00949 0.64254 0.53579 0.0
H5466 H 0.99004 0.60052 0.56599 0.0
H5467 H 0.97734 0.57367 0.56802 0.0
H5468 H 0.93736 0.58048 0.539 0.0
H5469 H 0.94991 0.60738 0.53667 0.0
C5470 C 0.97332 0.67689 0.59225 0.0
C5471 C 0.97152 0.69014 0.58471 0.0
C5472 C 0.97513 0.66328 0.58289 0.0
C5473 C 0.97524 0.66275 0.5659 0.0
C5474 C 0.9722 0.67549 0.55817 0.0
C5475 C 0.97036 0.68908 0.5675 0.0
C5476 C 0.98064 0.64987 0.55674 0.0
C5477 C 0.97299 0.63447 0.55645 0.0
C5478 C 0.99399 0.65277 0.54929 0.0
C5479 C 1.00345 0.66862 0.55079 0.0
C5480 C 0.00638 0.67559 0.53669 0.0
C5481 C 0.01518 0.69061 0.53817 0.0
C5482 C 0.02116 0.69872 0.55369 0.0
C5483 C 0.01844 0.69179 0.56776 0.0
C5484 C 0.0097 0.67678 0.56635 0.0
C5485 C 0.99757 0.58542 0.52212 0.0
C5486 C 0.01268 0.5859 0.52835 0.0
C5487 C 0.99103 0.5985 0.52523 0.0
C5488 C 0.99933 0.61193 0.53533 0.0
C5489 C 0.01472 0.61262 0.54071 0.0
C5490 C 0.02138 0.59977 0.53711 0.0
C5491 C 0.99192 0.62475 0.54161 0.0
C5492 C 0.99919 0.64023 0.5414 0.0
C5493 C 0.97862 0.62186 0.54928 0.0
C5494 C 0.97094 0.60587 0.55103 0.0
C5495 C 0.97855 0.59627 0.56002 0.0
C5496 C 0.97139 0.58104 0.56121 0.0
C5497 C 0.95657 0.57534 0.55361 0.0
C5498 C 0.94885 0.5849 0.54486 0.0
C5499 C 0.95597 0.60014 0.54361 0.0
H5500 H 0.95105 0.56353 0.55455 0.0
H5501 H 0.02794 0.71035 0.5548 0.0
H5502 H 0.61494 0.79743 0.87672 0.0
H5503 H 0.62941 0.79519 0.85369 0.0
H5504 H 0.61676 0.83675 0.83789 0.0
H5505 H 0.6018 0.83881 0.86068 0.0
H5506 H 0.61442 0.81399 0.81205 0.0
H5507 H 0.65187 0.83915 0.85664 0.0
H5508 H 0.66549 0.84299 0.88475 0.0
H5509 H 0.67863 0.79858 0.87581 0.0
H5510 H 0.66491 0.79438 0.84772 0.0
H5511 H 0.69328 0.81299 0.77986 0.0
H5512 H 0.67706 0.82314 0.79805 0.0
H5513 H 0.64134 0.78349 0.77973 0.0
H5514 H 0.65737 0.77374 0.76067 0.0
H5515 H 0.66839 0.8098 0.82224 0.0
H5516 H 0.60671 0.7925 0.7872 0.0
H5517 H 0.59359 0.79175 0.75928 0.0
H5518 H 0.63034 0.82564 0.74852 0.0
H5519 H 0.64359 0.82676 0.77638 0.0
C5520 C 0.61514 0.80606 0.86831 0.0
C5521 C 0.60723 0.81832 0.87057 0.0
C5522 C 0.62351 0.80482 0.85521 0.0
C5523 C 0.62425 0.81588 0.84415 0.0
C5524 C 0.61634 0.82811 0.8463 0.0
C5525 C 0.60795 0.82936 0.85943 0.0
C5526 C 0.63337 0.81457 0.83042 0.0
C5527 C 0.62623 0.81307 0.81421 0.0
C5528 C 0.64887 0.81387 0.8333 0.0
C5529 C 0.65727 0.81641 0.85012 0.0
C5530 C 0.65759 0.83016 0.86071 0.0
C5531 C 0.66533 0.83241 0.87663 0.0
C5532 C 0.67289 0.82102 0.88208 0.0
C5533 C 0.67276 0.80738 0.87159 0.0
C5534 C 0.66502 0.80508 0.85566 0.0
C5535 C 0.68176 0.80682 0.77906 0.0
C5536 C 0.67664 0.79265 0.76864 0.0
C5537 C 0.67254 0.81251 0.78971 0.0
C5538 C 0.65799 0.80408 0.79034 0.0
C5539 C 0.65248 0.79031 0.77937 0.0
C5540 C 0.6617 0.78468 0.76856 0.0
C5541 C 0.64937 0.80871 0.80371 0.0
C5542 C 0.65661 0.81079 0.81994 0.0
C5543 C 0.63407 0.81027 0.80077 0.0
C5544 C 0.62621 0.8096 0.7839 0.0
C5545 C 0.61198 0.79983 0.7789 0.0
C5546 C 0.60452 0.79933 0.76307 0.0
C5547 C 0.61115 0.80861 0.75212 0.0
C5548 C 0.62524 0.81842 0.75699 0.0
C5549 C 0.63274 0.81896 0.7728 0.0
H5550 H 0.60535 0.80821 0.73987 0.0
H5551 H 0.67887 0.82277 0.89441 0.0
H5552 H 0.44729 0.54154 0.70431 0.0
H5553 H 0.46152 0.54011 0.68102 0.0
H5554 H 0.4395 0.57434 0.66028 0.0
H5555 H 0.42469 0.57534 0.68322 0.0
H5556 H 0.44236 0.55518 0.63561 0.0
H5557 H 0.47891 0.5816 0.68006 0.0
H5558 H 0.49371 0.58631 0.70762 0.0
H5559 H 0.51101 0.54447 0.69701 0.0
H5560 H 0.49614 0.53939 0.66945 0.0
H5561 H 0.49454 0.56646 0.5753 0.0
H5562 H 0.48148 0.57139 0.59947 0.0
H5563 H 0.49609 0.5325 0.61934 0.0
H5564 H 0.50879 0.52746 0.59522 0.0
H5565 H 0.49743 0.55582 0.64436 0.0
H5566 H 0.45973 0.52986 0.59942 0.0
H5567 H 0.44574 0.52688 0.57157 0.0
H5568 H 0.43148 0.57035 0.58314 0.0
H5569 H 0.44557 0.57369 0.61101 0.0
C5570 C 0.44523 0.54874 0.69482 0.0
C5571 C 0.43455 0.55862 0.69618 0.0
C5572 C 0.45369 0.54805 0.68137 0.0
C5573 C 0.45209 0.55731 0.66856 0.0
C5574 C 0.4413 0.56703 0.66974 0.0
C5575 C 0.43281 0.56772 0.6832 0.0
C5576 C 0.46149 0.55677 0.65408 0.0
C5577 C 0.45444 0.55557 0.63772 0.0
C5578 C 0.47739 0.5571 0.65618 0.0
C5579 C 0.48628 0.56003 0.67276 0.0
C5580 C 0.48577 0.57333 0.68366 0.0
C5581 C 0.49419 0.57608 0.69926 0.0
C5582 C 0.50326 0.56567 0.70408 0.0
C5583 C 0.50395 0.5525 0.69327 0.0
C5584 C 0.49554 0.54969 0.67765 0.0
C5585 C 0.49543 0.55929 0.58507 0.0
C5586 C 0.50326 0.54681 0.58333 0.0
C5587 C 0.48767 0.56195 0.5989 0.0
C5588 C 0.48749 0.55229 0.61158 0.0
C5589 C 0.49588 0.54028 0.61007 0.0
C5590 C 0.50334 0.53746 0.59619 0.0
C5591 C 0.47827 0.55411 0.626 0.0
C5592 C 0.48535 0.55551 0.64233 0.0
C5593 C 0.46247 0.55418 0.62387 0.0
C5594 C 0.45383 0.5521 0.60723 0.0
C5595 C 0.45369 0.53883 0.59599 0.0
C5596 C 0.44574 0.53707 0.58021 0.0
C5597 C 0.43776 0.54844 0.57557 0.0
C5598 C 0.43768 0.56157 0.58674 0.0
C5599 C 0.44564 0.56339 0.60253 0.0
H5600 H 0.43162 0.54707 0.56334 0.0
H5601 H 0.50978 0.56782 0.71616 0.0
H5602 H 0.79551 0.20886 0.94217 0.0
H5603 H 0.78836 0.21992 0.91738 0.0
H5604 H 0.81215 0.26547 0.94025 0.0
H5605 H 0.81892 0.25455 0.96545 0.0
H5606 H 0.78569 0.26779 0.92391 0.0
H5607 H 0.82663 0.24307 0.91029 0.0
H5608 H 0.84041 0.22138 0.90721 0.0
H5609 H 0.8032 0.19425 0.87336 0.0
H5610 H 0.78912 0.21571 0.8764 0.0
H5611 H 0.78132 0.30213 0.84915 0.0
H5612 H 0.789 0.2929 0.87505 0.0
H5613 H 0.77079 0.2454 0.85314 0.0
H5614 H 0.76389 0.25458 0.82703 0.0
H5615 H 0.79559 0.24504 0.86957 0.0
H5616 H 0.75398 0.26876 0.88376 0.0
H5617 H 0.73967 0.29002 0.8869 0.0
H5618 H 0.77707 0.31836 0.91954 0.0
H5619 H 0.79167 0.29733 0.91645 0.0
C5620 C 0.79916 0.22127 0.94209 0.0
C5621 C 0.80782 0.23074 0.95603 0.0
C5622 C 0.79518 0.22758 0.92772 0.0
C5623 C 0.79983 0.24356 0.92669 0.0
C5624 C 0.80842 0.2531 0.94058 0.0
C5625 C 0.81242 0.24678 0.955 0.0
C5626 C 0.79559 0.25027 0.91123 0.0
C5627 C 0.78804 0.26293 0.91206 0.0
C5628 C 0.79828 0.24382 0.89559 0.0
C5629 C 0.80677 0.23095 0.89369 0.0
C5630 C 0.82135 0.23244 0.90228 0.0
C5631 C 0.82921 0.22019 0.90052 0.0
C5632 C 0.82267 0.20643 0.89013 0.0
C5633 C 0.80825 0.20491 0.88142 0.0
C5634 C 0.80033 0.21712 0.88314 0.0
C5635 C 0.77872 0.28974 0.84993 0.0
C5636 C 0.77184 0.27914 0.83598 0.0
C5637 C 0.78311 0.28442 0.86484 0.0
C5638 C 0.78035 0.26836 0.86638 0.0
C5639 C 0.77317 0.25783 0.85248 0.0
C5640 C 0.7691 0.26311 0.8375 0.0
C5641 C 0.78536 0.2624 0.88213 0.0
C5642 C 0.79316 0.24991 0.88138 0.0
C5643 C 0.78276 0.26893 0.89781 0.0
C5644 C 0.77396 0.28153 0.89975 0.0
C5645 C 0.75918 0.27956 0.89153 0.0
C5646 C 0.75102 0.29156 0.89331 0.0
C5647 C 0.75747 0.30554 0.90338 0.0
C5648 C 0.77209 0.30753 0.91173 0.0
C5649 C 0.78031 0.29557 0.90998 0.0
H5650 H 0.75114 0.31482 0.90473 0.0
H5651 H 0.82877 0.19696 0.88879 0.0
H5652 H 0.10345 0.51557 0.199 0.0
H5653 H 0.09304 0.52166 0.17253 0.0
H5654 H 0.04906 0.49622 0.17836 0.0
H5655 H 0.05948 0.48998 0.20496 0.0
H5656 H 0.0543 0.49049 0.14711 0.0
H5657 H 0.05802 0.53686 0.18512 0.0
H5658 H 0.07088 0.55834 0.2066 0.0
H5659 H 0.10282 0.57413 0.17448 0.0
H5660 H 0.09027 0.55263 0.15289 0.0
H5661 H 0.0182 0.52124 0.0793 0.0
H5662 H 0.0255 0.51294 0.10596 0.0
H5663 H 0.06964 0.54234 0.10921 0.0
H5664 H 0.06195 0.55136 0.08332 0.0
H5665 H 0.06215 0.54574 0.13696 0.0
H5666 H 0.05985 0.4986 0.09954 0.0
H5667 H 0.04747 0.47695 0.07803 0.0
H5668 H 0.01361 0.46246 0.10855 0.0
H5669 H 0.0257 0.48414 0.13017 0.0
C5670 C 0.09153 0.51133 0.19476 0.0
C5671 C 0.08231 0.50242 0.20434 0.0
C5672 C 0.08556 0.51482 0.17954 0.0
C5673 C 0.07014 0.5097 0.17345 0.0
C5674 C 0.06097 0.5004 0.18273 0.0
C5675 C 0.06697 0.49681 0.19797 0.0
C5676 C 0.06368 0.51425 0.15757 0.0
C5677 C 0.05586 0.5026 0.14496 0.0
C5678 C 0.06582 0.53001 0.15453 0.0
C5679 C 0.07327 0.54306 0.16744 0.0
C5680 C 0.06784 0.54486 0.18268 0.0
C5681 C 0.07506 0.55705 0.19486 0.0
C5682 C 0.08767 0.56757 0.19192 0.0
C5683 C 0.09305 0.56597 0.17675 0.0
C5684 C 0.08588 0.5538 0.16453 0.0
C5685 C 0.02947 0.52584 0.08572 0.0
C5686 C 0.03949 0.53694 0.07919 0.0
C5687 C 0.03372 0.52101 0.10096 0.0
C5688 C 0.04829 0.52676 0.10974 0.0
C5689 C 0.05832 0.53769 0.10294 0.0
C5690 C 0.05393 0.54282 0.08802 0.0
C5691 C 0.05315 0.52195 0.12615 0.0
C5692 C 0.06059 0.5336 0.13899 0.0
C5693 C 0.05075 0.50618 0.12931 0.0
C5694 C 0.04359 0.49307 0.11639 0.0
C5695 C 0.04972 0.49084 0.10162 0.0
C5696 C 0.04276 0.47856 0.08942 0.0
C5697 C 0.02974 0.46836 0.0919 0.0
C5698 C 0.02368 0.47038 0.10663 0.0
C5699 C 0.03059 0.48265 0.11887 0.0
H5700 H 0.02436 0.45888 0.08243 0.0
H5701 H 0.09326 0.57699 0.20137 0.0
H5702 H 0.75219 0.86284 0.52427 0.0
H5703 H 0.74657 0.84321 0.49996 0.0
H5704 H 0.74962 0.87956 0.46881 0.0
H5705 H 0.75601 0.89931 0.49295 0.0
H5706 H 0.72486 0.85112 0.45795 0.0
H5707 H 0.77905 0.86833 0.47465 0.0
H5708 H 0.80204 0.87393 0.49496 0.0
H5709 H 0.79394 0.82625 0.50438 0.0
H5710 H 0.77073 0.82046 0.48428 0.0
H5711 H 0.74946 0.82569 0.38421 0.0
H5712 H 0.74306 0.83755 0.40981 0.0
H5713 H 0.75333 0.79869 0.43365 0.0
H5714 H 0.76009 0.78688 0.40786 0.0
H5715 H 0.76808 0.82478 0.45017 0.0
H5716 H 0.71613 0.80649 0.42881 0.0
H5717 H 0.69373 0.80138 0.40774 0.0
H5718 H 0.6976 0.85057 0.40606 0.0
H5719 H 0.72002 0.85599 0.42716 0.0
C5720 C 0.75167 0.8667 0.51227 0.0
C5721 C 0.75482 0.88269 0.5106 0.0
C5722 C 0.74824 0.85546 0.49842 0.0
C5723 C 0.74768 0.86 0.48268 0.0
C5724 C 0.74984 0.87588 0.48091 0.0
C5725 C 0.75351 0.88715 0.49474 0.0
C5726 C 0.74694 0.84835 0.46822 0.0
C5727 C 0.73425 0.84529 0.45617 0.0
C5728 C 0.75909 0.8406 0.46618 0.0
C5729 C 0.77307 0.84402 0.47816 0.0
C5730 C 0.7821 0.85909 0.48118 0.0
C5731 C 0.79517 0.86229 0.49262 0.0
C5732 C 0.79942 0.85047 0.501 0.0
C5733 C 0.79061 0.83541 0.49791 0.0
C5734 C 0.7775 0.83216 0.4865 0.0
C5735 C 0.74989 0.81944 0.39477 0.0
C5736 C 0.75511 0.80532 0.39409 0.0
C5737 C 0.74617 0.82619 0.40941 0.0
C5738 C 0.74747 0.81889 0.42361 0.0
C5739 C 0.75215 0.80446 0.42279 0.0
C5740 C 0.75601 0.79774 0.40813 0.0
C5741 C 0.74599 0.82744 0.43962 0.0
C5742 C 0.7584 0.83011 0.45202 0.0
C5743 C 0.73355 0.83479 0.4419 0.0
C5744 C 0.71979 0.83164 0.42955 0.0
C5745 C 0.71221 0.81623 0.42395 0.0
C5746 C 0.6995 0.81327 0.41202 0.0
C5747 C 0.69427 0.82564 0.40553 0.0
C5748 C 0.70166 0.841 0.4111 0.0
C5749 C 0.71433 0.84403 0.42311 0.0
H5750 H 0.6845 0.82331 0.39619 0.0
H5751 H 0.80955 0.85296 0.50985 0.0
H5752 H 0.41533 0.55743 0.87257 0.0
H5753 H 0.42915 0.556 0.89929 0.0
H5754 H 0.4712 0.5641 0.87907 0.0
H5755 H 0.4574 0.56521 0.85215 0.0
H5756 H 0.47188 0.54197 0.89845 0.0
H5757 H 0.45982 0.59295 0.90585 0.0
H5758 H 0.44353 0.61259 0.90597 0.0
H5759 H 0.41816 0.58967 0.94027 0.0
H5760 H 0.43422 0.5698 0.94024 0.0
H5761 H 0.51849 0.55095 0.97597 0.0
H5762 H 0.50616 0.55442 0.94915 0.0
H5763 H 0.4643 0.55466 0.96929 0.0
H5764 H 0.47703 0.55248 0.9964 0.0
H5765 H 0.46409 0.57318 0.94933 0.0
H5766 H 0.47537 0.52136 0.94111 0.0
H5767 H 0.49188 0.50191 0.94127 0.0
H5768 H 0.51837 0.52594 0.90853 0.0
H5769 H 0.5021 0.54561 0.9083 0.0
C5770 C 0.42751 0.55884 0.87365 0.0
C5771 C 0.43507 0.56145 0.85985 0.0
C5772 C 0.4355 0.55818 0.88916 0.0
C5773 C 0.45141 0.5601 0.89158 0.0
C5774 C 0.459 0.56261 0.87782 0.0
C5775 C 0.45102 0.56338 0.86231 0.0
C5776 C 0.46003 0.55922 0.90826 0.0
C5777 C 0.47026 0.54896 0.90952 0.0
C5778 C 0.45792 0.56799 0.92304 0.0
C5779 C 0.44813 0.5798 0.92291 0.0
C5780 C 0.45068 0.59202 0.9133 0.0
C5781 C 0.44151 0.60321 0.91338 0.0
C5782 C 0.42979 0.60235 0.92308 0.0
C5783 C 0.42723 0.59031 0.93274 0.0
C5784 C 0.43637 0.57909 0.93271 0.0
C5785 C 0.50665 0.55174 0.9747 0.0
C5786 C 0.49882 0.55132 0.9885 0.0
C5787 C 0.49945 0.55356 0.95915 0.0
C5788 C 0.48393 0.55435 0.95658 0.0
C5789 C 0.47619 0.55407 0.97051 0.0
C5790 C 0.48351 0.55275 0.98615 0.0
C5791 C 0.47581 0.55567 0.93968 0.0
C5792 C 0.46569 0.56607 0.93833 0.0
C5793 C 0.47794 0.54693 0.92483 0.0
C5794 C 0.4876 0.53501 0.92481 0.0
C5795 C 0.48475 0.52251 0.934 0.0
C5796 C 0.49407 0.51146 0.9341 0.0
C5797 C 0.50619 0.51271 0.92495 0.0
C5798 C 0.50899 0.52499 0.91562 0.0
C5799 C 0.49971 0.53609 0.91549 0.0
H5800 H 0.5134 0.50415 0.92506 0.0
H5801 H 0.42272 0.61104 0.92314 0.0
H5802 H 0.79632 0.24716 0.10741 0.0
H5803 H 0.79001 0.25811 0.13367 0.0
H5804 H 0.82061 0.23386 0.15931 0.0
H5805 H 0.82682 0.22266 0.13302 0.0
H5806 H 0.79407 0.2307 0.17192 0.0
H5807 H 0.8294 0.27363 0.15877 0.0
H5808 H 0.8397 0.29303 0.14149 0.0
H5809 H 0.7991 0.3118 0.14046 0.0
H5810 H 0.78847 0.29236 0.15756 0.0
H5811 H 0.78955 0.26484 0.25166 0.0
H5812 H 0.7993 0.25729 0.22623 0.0
H5813 H 0.77406 0.28708 0.20138 0.0
H5814 H 0.76516 0.29551 0.22736 0.0
H5815 H 0.79809 0.28748 0.1881 0.0
H5816 H 0.7621 0.24426 0.20001 0.0
H5817 H 0.75125 0.2248 0.21696 0.0
H5818 H 0.79199 0.20623 0.2196 0.0
H5819 H 0.80315 0.22569 0.2028 0.0
C5820 C 0.80173 0.2441 0.1186 0.0
C5821 C 0.81212 0.23395 0.11793 0.0
C5822 C 0.79818 0.25052 0.1337 0.0
C5823 C 0.80488 0.24699 0.14866 0.0
C5824 C 0.81527 0.23687 0.14805 0.0
C5825 C 0.81892 0.23054 0.13294 0.0
C5826 C 0.80076 0.2535 0.16485 0.0
C5827 C 0.79517 0.24314 0.17553 0.0
C5828 C 0.8017 0.26971 0.16954 0.0
C5829 C 0.80808 0.28144 0.15931 0.0
C5830 C 0.82262 0.28181 0.15475 0.0
C5831 C 0.82852 0.29283 0.14501 0.0
C5832 C 0.82004 0.30362 0.13985 0.0
C5833 C 0.80565 0.30343 0.14445 0.0
C5834 C 0.79969 0.29242 0.15418 0.0
C5835 C 0.78632 0.27003 0.24083 0.0
C5836 C 0.77661 0.28081 0.24155 0.0
C5837 C 0.79173 0.26551 0.22615 0.0
C5838 C 0.78703 0.27105 0.21146 0.0
C5839 C 0.77783 0.28242 0.21235 0.0
C5840 C 0.77276 0.28731 0.22725 0.0
C5841 C 0.79136 0.26467 0.19526 0.0
C5842 C 0.79697 0.27504 0.18454 0.0
C5843 C 0.79029 0.24841 0.19042 0.0
C5844 C 0.7835 0.23652 0.20027 0.0
C5845 C 0.76876 0.23606 0.20426 0.0
C5846 C 0.76256 0.22503 0.21384 0.0
C5847 C 0.77094 0.21431 0.21939 0.0
C5848 C 0.78552 0.21455 0.21531 0.0
C5849 C 0.79178 0.22556 0.20574 0.0
H5850 H 0.76613 0.2058 0.22682 0.0
H5851 H 0.82463 0.31214 0.13231 0.0
H5852 H 0.09831 0.52215 0.37637 0.0
H5853 H 0.08783 0.52811 0.40177 0.0
H5854 H 0.04885 0.49158 0.38491 0.0
H5855 H 0.05921 0.48566 0.35925 0.0
H5856 H 0.04095 0.51869 0.39894 0.0
H5857 H 0.07604 0.48589 0.41344 0.0
H5858 H 0.10078 0.47783 0.41561 0.0
H5859 H 0.1212 0.52121 0.4455 0.0
H5860 H 0.09661 0.52962 0.44332 0.0
H5861 H 0.01283 0.52004 0.47636 0.0
H5862 H 0.0217 0.51275 0.45025 0.0
H5863 H 0.06532 0.54205 0.46789 0.0
H5864 H 0.05671 0.54867 0.49427 0.0
H5865 H 0.07024 0.5174 0.45292 0.0
H5866 H 0.03642 0.55125 0.43787 0.0
H5867 H 0.0123 0.56058 0.43534 0.0
H5868 H 0.99022 0.51726 0.40632 0.0
H5869 H 0.01418 0.5076 0.40884 0.0
C5870 C 0.08744 0.51543 0.37795 0.0
C5871 C 0.07962 0.50341 0.36566 0.0
C5872 C 0.08151 0.51879 0.3926 0.0
C5873 C 0.06757 0.51024 0.3954 0.0
C5874 C 0.05963 0.49834 0.3831 0.0
C5875 C 0.06563 0.49488 0.36846 0.0
C5876 C 0.0614 0.51375 0.41119 0.0
C5877 C 0.04725 0.5182 0.41074 0.0
C5878 C 0.06974 0.51353 0.42667 0.0
C5879 C 0.08451 0.50844 0.4281 0.0
C5880 C 0.08583 0.49376 0.42038 0.0
C5881 C 0.09982 0.48912 0.42163 0.0
C5882 C 0.11256 0.49902 0.43066 0.0
C5883 C 0.11132 0.51356 0.4385 0.0
C5884 C 0.09736 0.51826 0.43727 0.0
C5885 C 0.02427 0.52504 0.47462 0.0
C5886 C 0.03402 0.53502 0.48742 0.0
C5887 C 0.02935 0.52091 0.4596 0.0
C5888 C 0.04417 0.52701 0.45679 0.0
C5889 C 0.05384 0.53711 0.46957 0.0
C5890 C 0.04888 0.54098 0.48469 0.0
C5891 C 0.0498 0.52263 0.4408 0.0
C5892 C 0.06387 0.51794 0.44117 0.0
C5893 C 0.04146 0.52286 0.42526 0.0
C5894 C 0.02706 0.52865 0.42369 0.0
C5895 C 0.0264 0.54368 0.43104 0.0
C5896 C 0.01276 0.54903 0.4296 0.0
C5897 C 0.99973 0.5395 0.42071 0.0
C5898 C 1.00032 0.52462 0.41322 0.0
C5899 C 0.01393 0.51921 0.41464 0.0
H5900 H 0.98918 0.54367 0.4196 0.0
H5901 H 0.12339 0.4954 0.4316 0.0
H5902 H 0.79895 0.90993 0.67239 0.0
H5903 H 0.79866 0.88993 0.69078 0.0
H5904 H 0.75893 0.86202 0.66093 0.0
H5905 H 0.75922 0.88183 0.64238 0.0
H5906 H 0.75716 0.8628 0.69433 0.0
H5907 H 0.79266 0.85324 0.65667 0.0
H5908 H 0.81484 0.86076 0.64244 0.0
H5909 H 0.84345 0.87273 0.68877 0.0
H5910 H 0.8214 0.86548 0.70328 0.0
H5911 H 0.75996 0.79732 0.73508 0.0
H5912 H 0.75972 0.81254 0.71199 0.0
H5913 H 0.80348 0.83994 0.73295 0.0
H5914 H 0.80421 0.82398 0.75522 0.0
H5915 H 0.80204 0.83805 0.7021 0.0
H5916 H 0.76763 0.84953 0.74032 0.0
H5917 H 0.74618 0.84226 0.75569 0.0
H5918 H 0.71619 0.82842 0.71044 0.0
H5919 H 0.73754 0.83522 0.69477 0.0
C5920 C 0.79016 0.89953 0.66973 0.0
C5921 C 0.77914 0.89747 0.65589 0.0
C5922 C 0.78999 0.88814 0.68027 0.0
C5923 C 0.77885 0.87443 0.67711 0.0
C5924 C 0.76759 0.87253 0.6636 0.0
C5925 C 0.76776 0.88391 0.65305 0.0
C5926 C 0.77928 0.86184 0.68758 0.0
C5927 C 0.76688 0.85724 0.69591 0.0
C5928 C 0.79207 0.85479 0.68981 0.0
C5929 C 0.80536 0.85893 0.68106 0.0
C5930 C 0.80367 0.85756 0.66382 0.0
C5931 C 0.81622 0.86177 0.65571 0.0
C5932 C 0.83054 0.86725 0.6647 0.0
C5933 C 0.83235 0.86849 0.68182 0.0
C5934 C 0.81983 0.86432 0.69 0.0
C5935 C 0.76969 0.8063 0.73441 0.0
C5936 C 0.78205 0.80957 0.74688 0.0
C5937 C 0.76949 0.81509 0.72134 0.0
C5938 C 0.78134 0.82777 0.72102 0.0
C5939 C 0.79414 0.83032 0.73295 0.0
C5940 C 0.79456 0.82119 0.74569 0.0
C5941 C 0.78005 0.83914 0.70917 0.0
C5942 C 0.79226 0.84353 0.70053 0.0
C5943 C 0.76719 0.84619 0.70692 0.0
C5944 C 0.75422 0.84276 0.71636 0.0
C5945 C 0.75647 0.84489 0.73364 0.0
C5946 C 0.74434 0.8408 0.74241 0.0
C5947 C 0.72984 0.83486 0.73405 0.0
C5948 C 0.72744 0.83301 0.7169 0.0
C5949 C 0.73955 0.83696 0.70807 0.0
H5950 H 0.72047 0.8317 0.74087 0.0
H5951 H 0.84024 0.87051 0.65839 0.0
H5952 H 0.66191 0.46643 0.53178 0.0
H5953 H 0.64293 0.48279 0.53415 0.0
H5954 H 0.61816 0.44997 0.56119 0.0
H5955 H 0.63686 0.43329 0.55844 0.0
H5956 H 0.59881 0.45934 0.5401 0.0
H5957 H 0.64026 0.48582 0.58006 0.0
H5958 H 0.66668 0.49842 0.59042 0.0
H5959 H 0.66461 0.53247 0.5572 0.0
H5960 H 0.63822 0.51993 0.54647 0.0
H5961 H 0.54766 0.50642 0.56413 0.0
H5962 H 0.56794 0.4915 0.56525 0.0
H5963 H 0.59511 0.52612 0.54212 0.0
H5964 H 0.57511 0.54161 0.54206 0.0
H5965 H 0.61338 0.51566 0.56156 0.0
H5966 H 0.57167 0.48832 0.52113 0.0
H5967 H 0.54506 0.47574 0.51163 0.0
H5968 H 0.54758 0.44308 0.54634 0.0
H5969 H 0.57412 0.4556 0.5562 0.0
C5970 C 0.65237 0.46254 0.53811 0.0
C5971 C 0.65109 0.4484 0.54492 0.0
C5972 C 0.64154 0.47208 0.53963 0.0
C5973 C 0.62906 0.46786 0.54806 0.0
C5974 C 0.62763 0.45365 0.55468 0.0
C5975 C 0.63848 0.44413 0.55321 0.0
C5976 C 0.61745 0.47811 0.54985 0.0
C5977 C 0.60203 0.47161 0.54498 0.0
C5978 C 0.62146 0.49427 0.55592 0.0
C5979 C 0.63732 0.50183 0.56234 0.0
C5980 C 0.64548 0.49592 0.57486 0.0
C5981 C 0.66044 0.50306 0.58082 0.0
C5982 C 0.66733 0.51621 0.57444 0.0
C5983 C 0.65926 0.52227 0.56211 0.0
C5984 C 0.6443 0.51515 0.5561 0.0
C5985 C 0.55811 0.51105 0.55964 0.0
C5986 C 0.55976 0.5253 0.55311 0.0
C5987 C 0.56968 0.50234 0.56002 0.0
C5988 C 0.58304 0.50722 0.55319 0.0
C5989 C 0.58498 0.52186 0.54736 0.0
C5990 C 0.57354 0.53082 0.54742 0.0
C5991 C 0.59469 0.49693 0.5517 0.0
C5992 C 0.61013 0.50341 0.55662 0.0
C5993 C 0.59071 0.48072 0.54567 0.0
C5994 C 0.57485 0.47297 0.53947 0.0
C5995 C 0.56653 0.47848 0.52675 0.0
C5996 C 0.55145 0.47137 0.52132 0.0
C5997 C 0.54462 0.45864 0.52839 0.0
C5998 C 0.55286 0.45295 0.54088 0.0
C5999 C 0.56793 0.46004 0.54638 0.0
H6000 H 0.53295 0.45315 0.52416 0.0
H6001 H 0.67891 0.52173 0.57907 0.0
H6002 H 0.18221 0.10455 0.52665 0.0
H6003 H 0.15641 0.09425 0.53106 0.0
H6004 H 0.14357 0.08157 0.47882 0.0
H6005 H 0.16932 0.09261 0.47425 0.0
H6006 H 0.12325 0.09518 0.49086 0.0
H6007 H 0.14648 0.05365 0.50495 0.0
H6008 H 0.16535 0.04039 0.5182 0.0
H6009 H 0.15491 0.05678 0.56564 0.0
H6010 H 0.13614 0.07036 0.55269 0.0
H6011 H 0.05061 0.05542 0.50637 0.0
H6012 H 0.07592 0.05971 0.49782 0.0
H6013 H 0.09476 0.08317 0.54625 0.0
H6014 H 0.06948 0.07906 0.55481 0.0
H6015 H 0.11109 0.06071 0.53316 0.0
H6016 H 0.08933 0.10453 0.51709 0.0
H6017 H 0.0695 0.11575 0.5025 0.0
H6018 H 0.07642 0.0919 0.45662 0.0
H6019 H 0.09619 0.0804 0.47099 0.0
C6020 C 0.17391 0.09962 0.51607 0.0
C6021 C 0.17783 0.09953 0.50008 0.0
C6022 C 0.15917 0.09353 0.51863 0.0
C6023 C 0.14804 0.08694 0.50529 0.0
C6024 C 0.15197 0.08654 0.48931 0.0
C6025 C 0.16673 0.09273 0.48672 0.0
C6026 C 0.13218 0.08133 0.50812 0.0
C6027 C 0.12059 0.08739 0.49988 0.0
C6028 C 0.12862 0.07121 0.51994 0.0
C6029 C 0.13997 0.06314 0.52783 0.0
C6030 C 0.1483 0.05455 0.51822 0.0
C6031 C 0.15896 0.04695 0.52567 0.0
C6032 C 0.16135 0.04777 0.54275 0.0
C6033 C 0.15306 0.05617 0.55241 0.0
C6034 C 0.14239 0.06381 0.54501 0.0
C6035 C 0.06016 0.06151 0.51517 0.0
C6036 C 0.05812 0.06703 0.53121 0.0
C6037 C 0.07458 0.06393 0.51028 0.0
C6038 C 0.08717 0.0718 0.5214 0.0
C6039 C 0.08517 0.07706 0.53751 0.0
C6040 C 0.07074 0.07479 0.54234 0.0
C6041 C 0.10243 0.0749 0.51623 0.0
C6042 C 0.11383 0.06834 0.52402 0.0
C6043 C 0.10576 0.0843 0.50379 0.0
C6044 C 0.09413 0.09149 0.49513 0.0
C6045 C 0.08656 0.10161 0.5039 0.0
C6046 C 0.07534 0.10803 0.49567 0.0
C6047 C 0.07167 0.1045 0.47864 0.0
C6048 C 0.07926 0.09461 0.46981 0.0
C6049 C 0.09049 0.08815 0.47799 0.0
H6050 H 0.06295 0.10944 0.47229 0.0
H6051 H 0.16961 0.04187 0.54851 0.0
H6052 H 0.21496 0.96112 0.80805 0.0
H6053 H 0.22572 0.93751 0.80595 0.0
H6054 H 0.18397 0.91154 0.7786 0.0
H6055 H 0.17295 0.93501 0.78107 0.0
H6056 H 0.19392 0.89249 0.79719 0.0
H6057 H 0.21892 0.92402 0.76105 0.0
H6058 H 0.23384 0.94756 0.75281 0.0
H6059 H 0.27113 0.94539 0.78875 0.0
H6060 H 0.25635 0.92193 0.79735 0.0
H6061 H 0.22425 0.82442 0.77286 0.0
H6062 H 0.21295 0.8477 0.77394 0.0
H6063 H 0.25573 0.87582 0.79653 0.0
H6064 H 0.26727 0.85261 0.79434 0.0
H6065 H 0.24472 0.89372 0.78008 0.0
H6066 H 0.21892 0.86204 0.81668 0.0
H6067 H 0.20407 0.83768 0.8234 0.0
H6068 H 0.16819 0.83961 0.78564 0.0
H6069 H 0.18285 0.86394 0.77864 0.0
C6070 C 0.20787 0.95046 0.80165 0.0
C6071 C 0.19286 0.95055 0.79471 0.0
C6072 C 0.21422 0.93674 0.80026 0.0
C6073 C 0.20598 0.92226 0.79182 0.0
C6074 C 0.19091 0.92224 0.78514 0.0
C6075 C 0.18457 0.93597 0.78645 0.0
C6076 C 0.21296 0.90735 0.78995 0.0
C6077 C 0.20499 0.89288 0.79329 0.0
C6078 C 0.22756 0.90723 0.78508 0.0
C6079 C 0.23647 0.92132 0.77996 0.0
C6080 C 0.23026 0.92863 0.76728 0.0
C6081 C 0.2387 0.94195 0.76253 0.0
C6082 C 0.2534 0.94799 0.77029 0.0
C6083 C 0.25972 0.94071 0.78278 0.0
C6084 C 0.25133 0.9274 0.78759 0.0
C6085 C 0.23136 0.83555 0.77799 0.0
C6086 C 0.24686 0.83628 0.78345 0.0
C6087 C 0.22473 0.84908 0.77888 0.0
C6088 C 0.23308 0.86407 0.78587 0.0
C6089 C 0.24865 0.86477 0.79112 0.0
C6090 C 0.25536 0.85128 0.78987 0.0
C6091 C 0.22583 0.87884 0.78758 0.0
C6092 C 0.23371 0.89331 0.78414 0.0
C6093 C 0.21114 0.87894 0.79236 0.0
C6094 C 0.20203 0.86474 0.79707 0.0
C6095 C 0.20785 0.85728 0.80984 0.0
C6096 C 0.19947 0.84347 0.81368 0.0
C6097 C 0.1852 0.83709 0.80493 0.0
C6098 C 0.17923 0.84458 0.79242 0.0
C6099 C 0.18755 0.85839 0.78853 0.0
H6100 H 0.17877 0.82635 0.80785 0.0
H6101 H 0.25992 0.9583 0.76659 0.0
H6102 H 0.29019 0.97524 0.0588 0.0
H6103 H 0.31618 0.98964 0.06024 0.0
H6104 H 0.32955 0.94783 0.03946 0.0
H6105 H 0.30381 0.93329 0.03851 0.0
H6106 H 0.35038 0.96334 0.0642 0.0
H6107 H 0.32219 0.97626 0.01598 0.0
H6108 H 0.30161 0.98634 1.00127 0.0
H6109 H 0.31647 0.03094 0.03092 0.0
H6110 H 0.33704 0.02104 0.04596 0.0
H6111 H 0.41496 0.98837 0.02695 0.0
H6112 H 0.38987 0.9778 0.03357 0.0
H6113 H 0.38594 0.02369 0.05491 0.0
H6114 H 0.4111 0.03441 0.04812 0.0
H6115 H 0.3606 0.00897 0.03389 0.0
H6116 H 0.39081 0.99713 0.07966 0.0
H6117 H 0.41153 0.98721 0.09428 0.0
H6118 H 0.39311 0.94095 0.0697 0.0
H6119 H 0.37238 0.95063 0.05473 0.0
C6120 C 0.2987 0.96907 0.05471 0.0
C6121 C 0.29486 0.95313 0.04839 0.0
C6122 C 0.31354 0.97735 0.05543 0.0
C6123 C 0.32479 0.96986 0.04978 0.0
C6124 C 0.32106 0.95388 0.04385 0.0
C6125 C 0.30628 0.94561 0.04314 0.0
C6126 C 0.34041 0.97863 0.04959 0.0
C6127 C 0.35262 0.97326 0.05749 0.0
C6128 C 0.34334 0.9919 0.0413 0.0
C6129 C 0.33103 0.99786 0.03222 0.0
C6130 C 0.321 0.98818 0.01945 0.0
C6131 C 0.30935 0.99386 0.01103 0.0
C6132 C 0.3077 0.00926 0.01519 0.0
C6133 C 0.31774 0.01901 0.02774 0.0
C6134 C 0.3294 0.01337 0.0362 0.0
C6135 C 0.40877 0.99622 0.03307 0.0
C6136 C 0.41497 0.01224 0.03695 0.0
C6137 C 0.39448 0.99014 0.03697 0.0
C6138 C 0.38607 0.99993 0.04486 0.0
C6139 C 0.39226 0.01592 0.04888 0.0
C6140 C 0.40665 0.02201 0.04508 0.0
C6141 C 0.37056 0.99342 0.04814 0.0
C6142 C 0.35837 0.99921 0.04082 0.0
C6143 C 0.36765 0.98055 0.05699 0.0
C6144 C 0.38009 0.97464 0.06597 0.0
C6145 C 0.39123 0.98486 0.07727 0.0
C6146 C 0.40297 0.97928 0.08564 0.0
C6147 C 0.40365 0.96347 0.0829 0.0
C6148 C 0.39257 0.9532 0.07181 0.0
C6149 C 0.38081 0.95872 0.06339 0.0
H6150 H 0.41275 0.95916 0.0894 0.0
H6151 H 0.29867 0.01364 0.00866 0.0
H6152 H 0.86495 0.66069 0.75051 0.0
H6153 H 0.84779 0.67887 0.74927 0.0
H6154 H 0.85534 0.68936 0.80206 0.0
H6155 H 0.87141 0.67002 0.80352 0.0
H6156 H 0.82813 0.68862 0.7942 0.0
H6157 H 0.87078 0.71513 0.77325 0.0
H6158 H 0.89108 0.72022 0.75591 0.0
H6159 H 0.858 0.71322 0.71305 0.0
H6160 H 0.83749 0.70794 0.73013 0.0
H6161 H 0.80552 0.76163 0.80169 0.0
H6162 H 0.81989 0.7408 0.79986 0.0
H6163 H 0.79885 0.72521 0.75003 0.0
H6164 H 0.78421 0.74624 0.75177 0.0
H6165 H 0.8303 0.72672 0.75418 0.0
H6166 H 0.78805 0.70531 0.78005 0.0
H6167 H 0.77043 0.70528 0.80071 0.0
H6168 H 0.80717 0.70784 0.83904 0.0
H6169 H 0.82506 0.70842 0.81874 0.0
C6170 C 0.86285 0.6666 0.76196 0.0
C6171 C 0.86969 0.66358 0.77716 0.0
C6172 C 0.85316 0.67735 0.76118 0.0
C6173 C 0.8503 0.68586 0.77554 0.0
C6174 C 0.85724 0.68305 0.79072 0.0
C6175 C 0.8667 0.67205 0.79153 0.0
C6176 C 0.83982 0.69735 0.77478 0.0
C6177 C 0.82889 0.69713 0.78564 0.0
C6178 C 0.84032 0.70834 0.76337 0.0
C6179 C 0.8526 0.71088 0.75294 0.0
C6180 C 0.86784 0.71445 0.7601 0.0
C6181 C 0.87938 0.71745 0.75032 0.0
C6182 C 0.87584 0.71698 0.73338 0.0
C6183 C 0.86073 0.71353 0.72617 0.0
C6184 C 0.84914 0.71055 0.73589 0.0
C6185 C 0.80387 0.75383 0.79027 0.0
C6186 C 0.79362 0.75568 0.77686 0.0
C6187 C 0.81208 0.7418 0.78931 0.0
C6188 C 0.81033 0.73121 0.77491 0.0
C6189 C 0.80033 0.73314 0.76134 0.0
C6190 C 0.79195 0.74517 0.76234 0.0
C6191 C 0.8193 0.71847 0.77413 0.0
C6192 C 0.82972 0.71827 0.76281 0.0
C6193 C 0.81881 0.70762 0.78563 0.0
C6194 C 0.80795 0.70704 0.79785 0.0
C6195 C 0.7924 0.70603 0.79291 0.0
C6196 C 0.78235 0.70594 0.80457 0.0
C6197 C 0.78767 0.70665 0.82121 0.0
C6198 C 0.80304 0.7074 0.82619 0.0
C6199 C 0.81315 0.70761 0.8146 0.0
H6200 H 0.77988 0.70657 0.83023 0.0
H6201 H 0.88479 0.71933 0.72584 0.0
H6202 H 0.83519 0.62131 0.9922 0.0
H6203 H 0.85904 0.61557 0.0043 0.0
H6204 H 0.83645 0.56891 0.00862 0.0
H6205 H 0.81254 0.57444 0.99623 0.0
H6206 H 0.85364 0.58431 0.03762 0.0
H6207 H 0.85936 0.575 0.97992 0.0
H6208 H 0.86039 0.58216 0.95201 0.0
H6209 H 0.89714 0.62042 0.97046 0.0
H6210 H 0.89618 0.61361 0.99854 0.0
H6211 H 0.91173 0.54134 0.04871 0.0
H6212 H 0.88989 0.55283 0.04091 0.0
H6213 H 0.91939 0.59679 0.03907 0.0
H6214 H 0.94136 0.58553 0.04739 0.0
H6215 H 0.90007 0.58657 0.01067 0.0
H6216 H 0.89671 0.59529 0.06728 0.0
H6217 H 0.89632 0.58949 0.09573 0.0
H6218 H 0.85607 0.55451 0.08053 0.0
H6219 H 0.85634 0.55993 0.05192 0.0
C6220 C 0.83535 0.60968 0.9953 0.0
C6221 C 0.82196 0.5983 0.9932 0.0
C6222 C 0.84898 0.60648 1.00234 0.0
C6223 C 0.84947 0.59184 0.00737 0.0
C6224 C 0.83624 0.58032 0.0049 0.0
C6225 C 0.82262 0.58349 0.99781 0.0
C6226 C 0.86365 0.58865 0.01572 0.0
C6227 C 0.86376 0.58462 0.03169 0.0
C6228 C 0.87701 0.58982 0.00823 0.0
C6229 C 0.87758 0.59391 0.99135 0.0
C6230 C 0.86756 0.58503 0.97805 0.0
C6231 C 0.86816 0.589 0.96219 0.0
C6232 C 0.87879 0.60176 0.95947 0.0
C6233 C 0.88888 0.61055 0.97259 0.0
C6234 C 0.88833 0.60664 0.98848 0.0
C6235 C 0.91359 0.55358 0.04716 0.0
C6236 C 0.92831 0.56247 0.04854 0.0
C6237 C 0.90108 0.56012 0.04264 0.0
C6238 C 0.90306 0.57564 0.03939 0.0
C6239 C 0.91767 0.58476 0.04145 0.0
C6240 C 0.93019 0.57828 0.04612 0.0
C6241 C 0.88994 0.58175 0.0324 0.0
C6242 C 0.89002 0.58639 0.0167 0.0
C6243 C 0.87682 0.58134 0.04022 0.0
C6244 C 0.87663 0.57793 0.0574 0.0
C6245 C 0.88785 0.58625 0.06996 0.0
C6246 C 0.88764 0.58305 0.08613 0.0
C6247 C 0.8762 0.57161 0.08993 0.0
C6248 C 0.86494 0.56336 0.07756 0.0
C6249 C 0.8651 0.5665 0.06136 0.0
H6250 H 0.87604 0.56916 0.10245 0.0
H6251 H 0.87924 0.60482 0.94718 0.0
H6252 H 0.20975 0.12217 0.82349 0.0
H6253 H 0.22125 0.14919 0.82138 0.0
H6254 H 0.19929 0.14412 0.77167 0.0
H6255 H 0.18811 0.117 0.77352 0.0
H6256 H 0.22579 0.16084 0.77188 0.0
H6257 H 0.18791 0.16576 0.80641 0.0
H6258 H 0.17384 0.16182 0.82995 0.0
H6259 H 0.21373 0.18348 0.86323 0.0
H6260 H 0.22811 0.18735 0.83987 0.0
H6261 H 0.2288 0.24345 0.76674 0.0
H6262 H 0.21995 0.21615 0.77028 0.0
H6263 H 0.25692 0.21958 0.80874 0.0
H6264 H 0.26625 0.24699 0.80478 0.0
H6265 H 0.22391 0.20411 0.81497 0.0
H6266 H 0.26124 0.19969 0.77859 0.0
H6267 H 0.27353 0.20446 0.754 0.0
H6268 H 0.23228 0.18251 0.72309 0.0
H6269 H 0.21967 0.17783 0.74753 0.0
C6270 C 0.20737 0.12664 0.812 0.0
C6271 C 0.19772 0.11693 0.79874 0.0
C6272 C 0.21392 0.14238 0.81085 0.0
C6273 C 0.21116 0.14927 0.7964 0.0
C6274 C 0.20175 0.13952 0.78307 0.0
C6275 C 0.19515 0.12381 0.78423 0.0
C6276 C 0.21804 0.16639 0.79511 0.0
C6277 C 0.22519 0.1702 0.78133 0.0
C6278 C 0.21767 0.17908 0.80731 0.0
C6279 C 0.20913 0.17666 0.8214 0.0
C6280 C 0.19372 0.16955 0.81875 0.0
C6281 C 0.18568 0.16735 0.83206 0.0
C6282 C 0.1929 0.17235 0.84808 0.0
C6283 C 0.20816 0.17958 0.85082 0.0
C6284 C 0.21626 0.18178 0.83755 0.0
C6285 C 0.2352 0.23848 0.77593 0.0
C6286 C 0.24839 0.24771 0.78538 0.0
C6287 C 0.23004 0.2227 0.77797 0.0
C6288 C 0.23759 0.21546 0.78985 0.0
C6289 C 0.25072 0.22466 0.79948 0.0
C6290 C 0.25614 0.24042 0.79714 0.0
C6291 C 0.23172 0.19839 0.79189 0.0
C6292 C 0.22463 0.19465 0.80568 0.0
C6293 C 0.23194 0.18579 0.77961 0.0
C6294 C 0.23947 0.18858 0.7649 0.0
C6295 C 0.25474 0.19603 0.76656 0.0
C6296 C 0.26178 0.19868 0.75264 0.0
C6297 C 0.25368 0.19383 0.73699 0.0
C6298 C 0.23854 0.18628 0.73522 0.0
C6299 C 0.23144 0.18362 0.7491 0.0
H6300 H 0.25915 0.19588 0.72623 0.0
H6301 H 0.18665 0.17065 0.85837 0.0
H6302 H 0.36951 0.01909 0.30075 0.0
H6303 H 0.35526 0.99261 0.30048 0.0
H6304 H 0.33947 0.99046 0.24899 0.0
H6305 H 0.35402 0.01701 0.24913 0.0
H6306 H 0.3163 0.98039 0.27026 0.0
H6307 H 0.36331 0.97046 0.25566 0.0
H6308 H 0.39106 0.97373 0.25779 0.0
H6309 H 0.39268 0.95941 0.30583 0.0
H6310 H 0.36494 0.9563 0.30411 0.0
H6311 H 0.2839 0.89932 0.26796 0.0
H6312 H 0.2975 0.92401 0.26119 0.0
H6313 H 0.32605 0.93117 0.30779 0.0
H6314 H 0.31266 0.90643 0.31448 0.0
H6315 H 0.3426 0.93781 0.28435 0.0
H6316 H 0.29596 0.95061 0.30007 0.0
H6317 H 0.26824 0.94774 0.29822 0.0
H6318 H 0.26592 0.95686 0.24814 0.0
H6319 H 0.29363 0.95959 0.24965 0.0
C6320 C 0.36296 0.013 0.28939 0.0
C6321 C 0.3628 0.02008 0.27497 0.0
C6322 C 0.35489 0.99787 0.28923 0.0
C6323 C 0.34637 0.9896 0.27471 0.0
C6324 C 0.34601 0.99668 0.26031 0.0
C6325 C 0.35433 0.01177 0.26038 0.0
C6326 C 0.33785 0.97358 0.27485 0.0
C6327 C 0.322 0.97096 0.273 0.0
C6328 C 0.34535 0.9614 0.27868 0.0
C6329 C 0.36204 0.96329 0.27982 0.0
C6330 C 0.36959 0.96816 0.26675 0.0
C6331 C 0.38532 0.96995 0.26787 0.0
C6332 C 0.39363 0.96682 0.28195 0.0
C6333 C 0.38622 0.96185 0.29494 0.0
C6334 C 0.37049 0.96006 0.29389 0.0
C6335 C 0.293 0.90624 0.2768 0.0
C6336 C 0.29719 0.90096 0.29178 0.0
C6337 C 0.30077 0.92034 0.27292 0.0
C6338 C 0.31273 0.92954 0.28404 0.0
C6339 C 0.31692 0.92426 0.29898 0.0
C6340 C 0.30925 0.91012 0.3028 0.0
C6341 C 0.32099 0.94467 0.28024 0.0
C6342 C 0.33683 0.94714 0.28139 0.0
C6343 C 0.31346 0.95671 0.2758 0.0
C6344 C 0.29683 0.95513 0.27492 0.0
C6345 C 0.28952 0.95189 0.28863 0.0
C6346 C 0.27382 0.9503 0.28765 0.0
C6347 C 0.26532 0.95207 0.27306 0.0
C6348 C 0.27252 0.95547 0.25943 0.0
C6349 C 0.28822 0.95704 0.26034 0.0
H6350 H 0.25316 0.95084 0.27232 0.0
H6351 H 0.40581 0.9682 0.28279 0.0
H6352 H 0.49371 0.35682 0.6523 0.0
H6353 H 0.4924 0.37663 0.634 0.0
H6354 H 0.52762 0.3614 0.60923 0.0
H6355 H 0.52894 0.34141 0.62747 0.0
H6356 H 0.53223 0.39257 0.61344 0.0
H6357 H 0.49067 0.35173 0.59157 0.0
H6358 H 0.46764 0.33197 0.59171 0.0
H6359 H 0.44396 0.368 0.60712 0.0
H6360 H 0.46693 0.38798 0.6073 0.0
H6361 H 0.51903 0.43675 0.5473 0.0
H6362 H 0.52131 0.41502 0.56291 0.0
H6363 H 0.48723 0.42719 0.5916 0.0
H6364 H 0.48451 0.44856 0.57569 0.0
H6365 H 0.48273 0.39625 0.58355 0.0
H6366 H 0.52596 0.43702 0.60614 0.0
H6367 H 0.54898 0.45601 0.60382 0.0
H6368 H 0.56966 0.41882 0.5847 0.0
H6369 H 0.54667 0.39961 0.58672 0.0
C6370 C 0.5011 0.35753 0.64288 0.0
C6371 C 0.51135 0.34732 0.64137 0.0
C6372 C 0.50036 0.36894 0.6324 0.0
C6373 C 0.50975 0.37045 0.62 0.0
C6374 C 0.52023 0.36053 0.61866 0.0
C6375 C 0.521 0.34909 0.62917 0.0
C6376 C 0.50848 0.3823 0.60845 0.0
C6377 C 0.52143 0.39322 0.60675 0.0
C6378 C 0.49442 0.38331 0.59968 0.0
C6379 C 0.48057 0.37135 0.59961 0.0
C6380 C 0.48059 0.35544 0.59512 0.0
C6381 C 0.46754 0.3442 0.59512 0.0
C6382 C 0.45436 0.34873 0.59946 0.0
C6383 C 0.45419 0.36451 0.60378 0.0
C6384 C 0.46722 0.3758 0.60382 0.0
C6385 C 0.51189 0.43473 0.5568 0.0
C6386 C 0.50166 0.44459 0.56025 0.0
C6387 C 0.51332 0.42235 0.56586 0.0
C6388 C 0.50461 0.41953 0.57867 0.0
C6389 C 0.49415 0.42912 0.58188 0.0
C6390 C 0.49271 0.44147 0.57284 0.0
C6391 C 0.50638 0.40673 0.58885 0.0
C6392 C 0.49353 0.39558 0.59024 0.0
C6393 C 0.52056 0.40541 0.59715 0.0
C6394 C 0.53455 0.4169 0.59645 0.0
C6395 C 0.5354 0.4329 0.60139 0.0
C6396 C 0.54844 0.4437 0.60012 0.0
C6397 C 0.56076 0.43863 0.59407 0.0
C6398 C 0.5601 0.42273 0.58937 0.0
C6399 C 0.54708 0.41188 0.59059 0.0
H6400 H 0.57082 0.44702 0.59305 0.0
H6401 H 0.44427 0.34001 0.59945 0.0
H6402 H 0.43344 0.79042 0.35593 0.0
H6403 H 0.40682 0.78994 0.34673 0.0
H6404 H 0.41861 0.80674 0.30197 0.0
H6405 H 0.4453 0.80705 0.31096 0.0
H6406 H 0.39813 0.82181 0.31329 0.0
H6407 H 0.4012 0.76748 0.30398 0.0
H6408 H 0.40716 0.74275 0.31173 0.0
H6409 H 0.37692 0.743 0.34816 0.0
H6410 H 0.37093 0.76785 0.34078 0.0
H6411 H 0.32306 0.8124 0.27361 0.0
H6412 H 0.34939 0.8096 0.28031 0.0
H6413 H 0.33753 0.78765 0.32249 0.0
H6414 H 0.31103 0.78973 0.31514 0.0
H6415 H 0.35824 0.77488 0.31226 0.0
H6416 H 0.35563 0.82886 0.32328 0.0
H6417 H 0.34966 0.85407 0.3171 0.0
H6418 H 0.379 0.85531 0.27972 0.0
H6419 H 0.38499 0.83 0.28554 0.0
C6420 C 0.43048 0.79379 0.34398 0.0
C6421 C 0.44187 0.79867 0.33425 0.0
C6422 C 0.41508 0.79355 0.33871 0.0
C6423 C 0.41039 0.7981 0.32346 0.0
C6424 C 0.42171 0.80314 0.31378 0.0
C6425 C 0.43713 0.80337 0.31903 0.0
C6426 C 0.39382 0.79786 0.31773 0.0
C6427 C 0.38948 0.81144 0.31285 0.0
C6428 C 0.3822 0.78457 0.31754 0.0
C6429 C 0.38573 0.7696 0.32193 0.0
C6430 C 0.3959 0.76232 0.31372 0.0
C6431 C 0.39927 0.74827 0.31804 0.0
C6432 C 0.39245 0.74133 0.33045 0.0
C6433 C 0.38221 0.7484 0.33856 0.0
C6434 C 0.37882 0.76246 0.3343 0.0
C6435 C 0.326 0.80654 0.28401 0.0
C6436 C 0.31483 0.80095 0.29358 0.0
C6437 C 0.3412 0.80519 0.28808 0.0
C6438 C 0.34588 0.79878 0.30228 0.0
C6439 C 0.33452 0.79269 0.3115 0.0
C6440 C 0.31926 0.79378 0.30724 0.0
C6441 C 0.3625 0.79885 0.30775 0.0
C6442 C 0.36686 0.78526 0.31264 0.0
C6443 C 0.37414 0.81221 0.30819 0.0
C6444 C 0.37064 0.82747 0.30474 0.0
C6445 C 0.36074 0.83447 0.31368 0.0
C6446 C 0.35736 0.84878 0.31025 0.0
C6447 C 0.36391 0.85626 0.298 0.0
C6448 C 0.37391 0.84948 0.28919 0.0
C6449 C 0.37731 0.83516 0.29255 0.0
H6450 H 0.36128 0.86734 0.29536 0.0
H6451 H 0.39508 0.73045 0.33378 0.0
H6452 H 0.9919 0.69044 0.15244 0.0
H6453 H 0.99306 0.66635 0.13493 0.0
H6454 H 0.02293 0.69286 0.10664 0.0
H6455 H 0.02197 0.71695 0.12424 0.0
H6456 H 0.99922 0.6696 0.08705 0.0
H6457 H 0.03825 0.67419 0.13253 0.0
H6458 H 0.04879 0.67766 0.16178 0.0
H6459 H 0.01847 0.63606 0.16869 0.0
H6460 H 0.00757 0.63248 0.13951 0.0
H6461 H 0.0262 0.60572 0.04609 0.0
H6462 H 0.02428 0.6304 0.06197 0.0
H6463 H 0.99896 0.60493 0.09493 0.0
H6464 H 1.00081 0.58032 0.07917 0.0
H6465 H 0.02058 0.62807 0.1119 0.0
H6466 H 0.98138 0.62316 0.06697 0.0
H6467 H 0.9702 0.61942 0.03791 0.0
H6468 H 0.99988 0.66109 0.03003 0.0
H6469 H 0.0114 0.66496 0.05902 0.0
C6470 C 0.99862 0.69115 0.14241 0.0
C6471 C 0.00688 0.70563 0.13979 0.0
C6472 C 0.99932 0.67736 0.13245 0.0
C6473 C 0.00812 0.67775 0.11947 0.0
C6474 C 0.01606 0.69223 0.11654 0.0
C6475 C 0.01557 0.70599 0.12668 0.0
C6476 C 0.00941 0.66299 0.10931 0.0
C6477 C 1.00407 0.6606 0.09244 0.0
C6478 C 0.01544 0.65107 0.11635 0.0
C6479 C 0.02197 0.65317 0.13388 0.0
C6480 C 0.03372 0.66587 0.14032 0.0
C6481 C 0.03979 0.66783 0.15688 0.0
C6482 C 0.03427 0.65711 0.1671 0.0
C6483 C 0.02271 0.64437 0.16077 0.0
C6484 C 0.01659 0.64236 0.14422 0.0
C6485 C 0.02018 0.60537 0.05668 0.0
C6486 C 0.01367 0.59097 0.0613 0.0
C6487 C 0.01904 0.61951 0.06574 0.0
C6488 C 0.01141 0.6196 0.07967 0.0
C6489 C 1.00494 0.60524 0.08429 0.0
C6490 C 0.00597 0.59113 0.07519 0.0
C6491 C 0.01033 0.63459 0.08959 0.0
C6492 C 0.01573 0.63704 0.10646 0.0
C6493 C 1.00427 0.64651 0.08255 0.0
C6494 C 0.99737 0.64425 0.06512 0.0
C6495 C 0.98562 0.63145 0.05901 0.0
C6496 C 0.9792 0.62932 0.04256 0.0
C6497 C 0.98436 0.63998 0.03212 0.0
C6498 C 0.99592 0.65282 0.03813 0.0
C6499 C 1.00239 0.655 0.05457 0.0
H6500 H 0.97938 0.63832 0.01938 0.0
H6501 H 0.03899 0.65865 0.17991 0.0
H6502 H 0.09706 0.30048 0.81458 0.0
H6503 H 0.12208 0.29943 0.80663 0.0
H6504 H 0.14201 0.31245 0.85717 0.0
H6505 H 0.11706 0.31385 0.86511 0.0
H6506 H 0.16066 0.32655 0.84076 0.0
H6507 H 0.13633 0.27321 0.83427 0.0
H6508 H 0.11648 0.24987 0.82453 0.0
H6509 H 0.12259 0.25523 0.77458 0.0
H6510 H 0.14235 0.27874 0.78402 0.0
H6511 H 0.23173 0.30391 0.82789 0.0
H6512 H 0.20688 0.30534 0.8364 0.0
H6513 H 0.18757 0.301 0.78573 0.0
H6514 H 0.21238 0.29963 0.77717 0.0
H6515 H 0.16902 0.28224 0.80266 0.0
H6516 H 0.19437 0.3363 0.81103 0.0
H6517 H 0.21516 0.35832 0.82248 0.0
H6518 H 0.20803 0.34962 0.87138 0.0
H6519 H 0.18729 0.32743 0.86021 0.0
C6520 C 0.10671 0.30302 0.82409 0.0
C6521 C 0.10475 0.30723 0.84058 0.0
C6522 C 0.12117 0.30236 0.8195 0.0
C6523 C 0.13428 0.30558 0.83123 0.0
C6524 C 0.13234 0.3099 0.84769 0.0
C6525 C 0.11791 0.31073 0.85226 0.0
C6526 C 0.14991 0.30459 0.82642 0.0
C6527 C 0.1624 0.3167 0.8326 0.0
C6528 C 0.15262 0.29191 0.8156 0.0
C6529 C 0.1407 0.27783 0.80985 0.0
C6530 C 0.13336 0.26948 0.82121 0.0
C6531 C 0.12214 0.25621 0.81574 0.0
C6532 C 0.11825 0.2511 0.79895 0.0
C6533 C 0.1256 0.25923 0.78759 0.0
C6534 C 0.13682 0.27252 0.79299 0.0
C6535 C 0.22225 0.3033 0.81851 0.0
C6536 C 0.22429 0.30169 0.80177 0.0
C6537 C 0.20793 0.30418 0.82343 0.0
C6538 C 0.19509 0.30337 0.81179 0.0
C6539 C 0.19711 0.30166 0.79508 0.0
C6540 C 0.21144 0.30097 0.79017 0.0
C6541 C 0.17962 0.30421 0.81693 0.0
C6542 C 0.1672 0.29206 0.81082 0.0
C6543 C 0.17705 0.31667 0.82805 0.0
C6544 C 0.18937 0.33013 0.83478 0.0
C6545 C 0.1973 0.33903 0.82423 0.0
C6546 C 0.20906 0.35155 0.83066 0.0
C6547 C 0.21294 0.35535 0.84765 0.0
C6548 C 0.20502 0.34666 0.85823 0.0
C6549 C 0.19325 0.33412 0.85185 0.0
H6550 H 0.22206 0.36504 0.85261 0.0
H6551 H 0.10956 0.24082 0.79474 0.0
H6552 H 0.5135 0.75761 0.98723 0.0
H6553 H 0.50335 0.73315 0.99722 0.0
H6554 H 0.52796 0.7084 0.965 0.0
H6555 H 0.53813 0.73285 0.95491 0.0
H6556 H 0.49714 0.69359 0.96456 0.0
H6557 H 0.54166 0.71638 0.00335 0.0
H6558 H 0.55802 0.73719 0.02329 0.0
H6559 H 0.52233 0.73722 0.05335 0.0
H6560 H 0.50568 0.71655 0.03345 0.0
H6561 H 0.49974 0.62357 0.99759 0.0
H6562 H 0.50254 0.64787 0.98582 0.0
H6563 H 0.48516 0.66967 0.02708 0.0
H6564 H 0.48351 0.64565 0.03963 0.0
H6565 H 0.50967 0.68697 0.02296 0.0
H6566 H 0.46576 0.66218 0.9859 0.0
H6567 H 0.44932 0.64119 0.96623 0.0
H6568 H 0.48263 0.64474 0.93308 0.0
H6569 H 0.49938 0.66561 0.95263 0.0
C6570 C 0.51671 0.74694 0.98226 0.0
C6571 C 0.52663 0.74709 0.97034 0.0
C6572 C 0.51094 0.73302 0.98799 0.0
C6573 C 0.51492 0.71903 0.98182 0.0
C6574 C 0.52474 0.71911 0.96985 0.0
C6575 C 0.53065 0.73307 0.96423 0.0
C6576 C 0.50911 0.70434 0.98815 0.0
C6577 C 0.49992 0.69202 0.97729 0.0
C6578 C 0.51238 0.7026 0.00487 0.0
C6579 C 0.52237 0.71506 0.01681 0.0
C6580 C 0.53725 0.72093 0.01412 0.0
C6581 C 0.54659 0.73268 0.02544 0.0
C6582 C 0.5412 0.73856 0.03955 0.0
C6583 C 0.52648 0.73268 0.04239 0.0
C6584 C 0.51709 0.72094 0.03111 0.0
C6585 C 0.49646 0.63351 0.00417 0.0
C6586 C 0.49171 0.63274 0.01974 0.0
C6587 C 0.49781 0.64737 0.99726 0.0
C6588 C 0.49397 0.66064 0.00548 0.0
C6589 C 0.48822 0.65959 0.0205 0.0
C6590 C 0.48715 0.64579 0.0276 0.0
C6591 C 0.49767 0.67595 0.99938 0.0
C6592 C 0.50657 0.68847 0.01027 0.0
C6593 C 0.494 0.67786 0.98271 0.0
C6594 C 0.48387 0.66542 0.97081 0.0
C6595 C 0.46962 0.65843 0.97446 0.0
C6596 C 0.46024 0.64656 0.96332 0.0
C6597 C 0.46494 0.64162 0.94843 0.0
C6598 C 0.47901 0.64858 0.94462 0.0
C6599 C 0.48844 0.66045 0.95572 0.0
H6600 H 0.45767 0.63241 0.93984 0.0
H6601 H 0.54845 0.74765 0.0483 0.0
H6602 H 0.07684 0.78847 0.68165 0.0
H6603 H 0.10022 0.79554 0.70064 0.0
H6604 H 0.07656 0.77837 0.73946 0.0
H6605 H 0.05284 0.77232 0.72084 0.0
H6606 H 0.09658 0.80375 0.75148 0.0
H6607 H 0.09735 0.75616 0.71675 0.0
H6608 H 0.09599 0.73924 0.69056 0.0
H6609 H 0.13378 0.77046 0.6778 0.0
H6610 H 0.13524 0.78768 0.70384 0.0
H6611 H 0.15676 0.77106 0.79265 0.0
H6612 H 0.13352 0.77698 0.77881 0.0
H6613 H 0.16009 0.81162 0.75523 0.0
H6614 H 0.18331 0.80606 0.7693 0.0
H6615 H 0.13996 0.78112 0.73542 0.0
H6616 H 0.14075 0.82692 0.77252 0.0
H6617 H 0.14243 0.84229 0.79968 0.0
H6618 H 0.10192 0.81277 0.80894 0.0
H6619 H 0.10016 0.79702 0.78195 0.0
C6620 C 0.07649 0.78645 0.69429 0.0
C6621 C 0.06291 0.77969 0.69965 0.0
C6622 C 0.08994 0.79037 0.70511 0.0
C6623 C 0.0902 0.78724 0.7214 0.0
C6624 C 0.07664 0.78083 0.72691 0.0
C6625 C 0.06312 0.77715 0.71617 0.0
C6626 C 0.10471 0.7899 0.73247 0.0
C6627 C 0.10603 0.79873 0.748 0.0
C6628 C 0.11717 0.78361 0.72782 0.0
C6629 C 0.11628 0.77329 0.71214 0.0
C6630 C 0.10529 0.75948 0.7083 0.0
C6631 C 0.10451 0.74983 0.69349 0.0
C6632 C 0.11476 0.7538 0.6825 0.0
C6633 C 0.12583 0.76742 0.68631 0.0
C6634 C 0.12664 0.77712 0.70109 0.0
C6635 C 0.15759 0.78034 0.78501 0.0
C6636 C 0.17177 0.78801 0.78192 0.0
C6637 C 0.14436 0.78375 0.77718 0.0
C6638 C 0.14519 0.7947 0.76603 0.0
C6639 C 0.15929 0.80323 0.76391 0.0
C6640 C 0.17252 0.80005 0.77198 0.0
C6641 C 0.13173 0.79481 0.75436 0.0
C6642 C 0.13058 0.78636 0.73875 0.0
C6643 C 0.11945 0.80126 0.75904 0.0
C6644 C 0.12043 0.81067 0.77528 0.0
C6645 C 0.13231 0.82358 0.78043 0.0
C6646 C 0.13325 0.83239 0.79578 0.0
C6647 C 0.12231 0.82849 0.80605 0.0
C6648 C 0.1104 0.81577 0.80098 0.0
C6649 C 0.10942 0.8069 0.78565 0.0
H6650 H 0.12305 0.83533 0.81792 0.0
H6651 H 0.11415 0.74631 0.67104 0.0
H6652 H 0.0719 0.39005 0.51886 0.0
H6653 H 0.06868 0.41429 0.53474 0.0
H6654 H 0.04843 0.42836 0.49044 0.0
H6655 H 0.05209 0.40465 0.47465 0.0
H6656 H 0.06556 0.45224 0.50717 0.0
H6657 H 0.02749 0.41029 0.51938 0.0
H6658 H 0.01865 0.3854 0.52969 0.0
H6659 H 0.04307 0.40402 0.57733 0.0
H6660 H 0.05221 0.42897 0.56722 0.0
H6661 H 1.0038 0.48684 0.54203 0.0
H6662 H 0.01566 0.46401 0.53929 0.0
H6663 H 0.05977 0.4941 0.54803 0.0
H6664 H 0.04786 0.51689 0.54962 0.0
H6665 H 0.03499 0.44916 0.55332 0.0
H6666 H 0.08139 0.48266 0.52142 0.0
H6667 H 0.08629 0.50632 0.50772 0.0
H6668 H 0.03858 0.50228 0.49364 0.0
H6669 H 0.03344 0.47857 0.50714 0.0
C6670 C 0.06695 0.39847 0.51258 0.0
C6671 C 0.06235 0.39559 0.49554 0.0
C6672 C 0.06506 0.41225 0.52163 0.0
C6673 C 0.0582 0.4231 0.51381 0.0
C6674 C 0.05388 0.42027 0.49675 0.0
C6675 C 0.05599 0.40671 0.48772 0.0
C6676 C 0.05483 0.43718 0.52314 0.0
C6677 C 0.05905 0.45158 0.51741 0.0
C6678 C 0.04622 0.43634 0.53641 0.0
C6679 C 0.04068 0.4214 0.5425 0.0
C6680 C 0.03105 0.40903 0.53202 0.0
C6681 C 0.02598 0.39492 0.53783 0.0
C6682 C 0.03033 0.39311 0.55414 0.0
C6683 C 0.03973 0.40542 0.56469 0.0
C6684 C 0.04486 0.41955 0.55893 0.0
C6685 C 0.01603 0.48855 0.54378 0.0
C6686 C 0.02496 0.5036 0.54571 0.0
C6687 C 0.02281 0.47549 0.54229 0.0
C6688 C 0.0386 0.47737 0.54301 0.0
C6689 C 0.04755 0.4924 0.547 0.0
C6690 C 0.04076 0.50543 0.54797 0.0
C6691 C 0.04534 0.46402 0.53698 0.0
C6692 C 0.04184 0.44986 0.54337 0.0
C6693 C 0.05406 0.46485 0.5238 0.0
C6694 C 0.05705 0.47897 0.51543 0.0
C6695 C 0.07197 0.48682 0.51536 0.0
C6696 C 0.07478 0.50024 0.50765 0.0
C6697 C 0.06275 0.50583 0.49987 0.0
C6698 C 0.04788 0.49799 0.49972 0.0
C6699 C 0.04501 0.48456 0.5074 0.0
H6700 H 0.06497 0.5162 0.49391 0.0
H6701 H 0.02639 0.38218 0.55862 0.0
H6702 H 0.43338 0.24654 0.20828 0.0
H6703 H 0.42099 0.25102 0.23279 0.0
H6704 H 0.40219 0.28739 0.21202 0.0
H6705 H 0.41437 0.28289 0.18751 0.0
H6706 H 0.4188 0.29706 0.24264 0.0
H6707 H 0.38101 0.25276 0.21533 0.0
H6708 H 0.37107 0.22537 0.20347 0.0
H6709 H 0.3842 0.21025 0.24961 0.0
H6710 H 0.39437 0.23754 0.26172 0.0
H6711 H 0.3636 0.31983 0.28494 0.0
H6712 H 0.37987 0.31019 0.26664 0.0
H6713 H 0.38491 0.27327 0.29595 0.0
H6714 H 0.368 0.28275 0.31427 0.0
H6715 H 0.38014 0.26155 0.2658 0.0
H6716 H 0.41535 0.30492 0.29405 0.0
H6717 H 0.42527 0.332 0.30705 0.0
H6718 H 0.41795 0.34851 0.26043 0.0
H6719 H 0.40778 0.32158 0.24716 0.0
C6720 C 0.42627 0.2552 0.20877 0.0
C6721 C 0.42495 0.26448 0.19605 0.0
C6722 C 0.41926 0.25778 0.2228 0.0
C6723 C 0.41078 0.2696 0.22425 0.0
C6724 C 0.40881 0.27829 0.21119 0.0
C6725 C 0.41578 0.27573 0.19721 0.0
C6726 C 0.40501 0.27404 0.23979 0.0
C6727 C 0.41021 0.28936 0.24763 0.0
C6728 C 0.39452 0.26366 0.24682 0.0
C6729 C 0.38873 0.24721 0.23936 0.0
C6730 C 0.38204 0.24359 0.22288 0.0
C6731 C 0.37626 0.22808 0.21613 0.0
C6732 C 0.37706 0.21607 0.22576 0.0
C6733 C 0.38362 0.21955 0.24215 0.0
C6734 C 0.38937 0.23505 0.24897 0.0
C6735 C 0.36851 0.30995 0.28785 0.0
C6736 C 0.36474 0.30225 0.30127 0.0
C6737 C 0.37789 0.30443 0.27735 0.0
C6738 C 0.38403 0.29124 0.28012 0.0
C6739 C 0.38046 0.28358 0.29365 0.0
C6740 C 0.37084 0.28901 0.30412 0.0
C6741 C 0.3931 0.28497 0.26799 0.0
C6742 C 0.38878 0.26926 0.26093 0.0
C6743 C 0.40454 0.29493 0.26171 0.0
C6744 C 0.41076 0.31119 0.26961 0.0
C6745 C 0.41578 0.31433 0.28657 0.0
C6746 C 0.42146 0.32966 0.29399 0.0
C6747 C 0.42223 0.34197 0.28458 0.0
C6748 C 0.41736 0.33897 0.26771 0.0
C6749 C 0.41167 0.32366 0.26022 0.0
H6750 H 0.42662 0.35383 0.29035 0.0
H6751 H 0.37254 0.20407 0.22053 0.0
H6752 H 0.6199 0.52135 0.39447 0.0
H6753 H 0.60551 0.52262 0.41772 0.0
H6754 H 0.57473 0.54583 0.39095 0.0
H6755 H 0.58919 0.54476 0.36773 0.0
H6756 H 0.57811 0.55898 0.42045 0.0
H6757 H 0.56693 0.50423 0.39972 0.0
H6758 H 0.57287 0.47847 0.39125 0.0
H6759 H 0.5959 0.47869 0.43955 0.0
H6760 H 0.59024 0.50455 0.44825 0.0
H6761 H 0.52369 0.55486 0.47635 0.0
H6762 H 0.53634 0.55049 0.45205 0.0
H6763 H 0.56598 0.52617 0.47902 0.0
H6764 H 0.55266 0.52987 0.50308 0.0
H6765 H 0.56333 0.51337 0.44952 0.0
H6766 H 0.57497 0.56788 0.47039 0.0
H6767 H 0.56923 0.59364 0.47931 0.0
H6768 H 0.54605 0.59415 0.43125 0.0
H6769 H 0.55147 0.56828 0.42211 0.0
C6770 C 0.60999 0.5266 0.3933 0.0
C6771 C 0.60596 0.53288 0.37874 0.0
C6772 C 0.6016 0.5273 0.40682 0.0
C6773 C 0.58856 0.5341 0.40647 0.0
C6774 C 0.5846 0.54048 0.39199 0.0
C6775 C 0.59304 0.53989 0.37852 0.0
C6776 C 0.57926 0.53481 0.42103 0.0
C6777 C 0.57475 0.54885 0.42655 0.0
C6778 C 0.57493 0.52194 0.42977 0.0
C6779 C 0.57829 0.50639 0.42458 0.0
C6780 C 0.57334 0.49883 0.4085 0.0
C6781 C 0.57664 0.4842 0.40366 0.0
C6782 C 0.58479 0.47697 0.41484 0.0
C6783 C 0.58961 0.48432 0.43089 0.0
C6784 C 0.58635 0.49895 0.43579 0.0
C6785 C 0.53252 0.54804 0.47695 0.0
C6786 C 0.53663 0.54225 0.49172 0.0
C6787 C 0.54012 0.54584 0.46302 0.0
C6788 C 0.55271 0.53835 0.46336 0.0
C6789 C 0.55647 0.53204 0.47798 0.0
C6790 C 0.54865 0.534 0.49185 0.0
C6791 C 0.5621 0.53752 0.44888 0.0
C6792 C 0.56666 0.52349 0.4434 0.0
C6793 C 0.56656 0.55043 0.44023 0.0
C6794 C 0.56351 0.56608 0.44561 0.0
C6795 C 0.56859 0.57346 0.46175 0.0
C6796 C 0.56539 0.58808 0.46685 0.0
C6797 C 0.55725 0.59551 0.45587 0.0
C6798 C 0.55234 0.58837 0.43975 0.0
C6799 C 0.55548 0.57373 0.4346 0.0
H6800 H 0.55477 0.60681 0.45985 0.0
H6801 H 0.58734 0.46565 0.41107 0.0
H6802 H 0.2374 0.88202 0.13455 0.0
H6803 H 0.24521 0.87061 0.15886 0.0
H6804 H 0.23208 0.82461 0.13151 0.0
H6805 H 0.22485 0.83591 0.10678 0.0
H6806 H 0.22254 0.82629 0.16317 0.0
H6807 H 0.26817 0.83991 0.13946 0.0
H6808 H 0.28769 0.85717 0.1279 0.0
H6809 H 0.29771 0.88819 0.17327 0.0
H6810 H 0.27807 0.87123 0.18504 0.0
H6811 H 0.25917 0.78804 0.22379 0.0
H6812 H 0.25233 0.79754 0.19767 0.0
H6813 H 0.26613 0.84501 0.22128 0.0
H6814 H 0.27282 0.83565 0.24736 0.0
H6815 H 0.27549 0.84153 0.19072 0.0
H6816 H 0.22981 0.8289 0.21434 0.0
H6817 H 0.21043 0.81206 0.22653 0.0
H6818 H 0.2003 0.77984 0.18202 0.0
H6819 H 0.21985 0.79635 0.16966 0.0
C6820 C 0.23634 0.86948 0.13346 0.0
C6821 C 0.23054 0.86003 0.11834 0.0
C6822 C 0.24074 0.86294 0.14755 0.0
C6823 C 0.23937 0.84671 0.14712 0.0
C6824 C 0.23324 0.83716 0.13225 0.0
C6825 C 0.22901 0.84371 0.11806 0.0
C6826 C 0.24461 0.83984 0.16211 0.0
C6827 C 0.23418 0.82943 0.16902 0.0
C6828 C 0.25972 0.84414 0.1701 0.0
C6829 C 0.27154 0.85438 0.16307 0.0
C6830 C 0.27444 0.85049 0.14693 0.0
C6831 C 0.28554 0.86021 0.14034 0.0
C6832 C 0.29391 0.87379 0.14983 0.0
C6833 C 0.2912 0.87767 0.16593 0.0
C6834 C 0.28009 0.86801 0.17257 0.0
C6835 C 0.26097 0.80051 0.22338 0.0
C6836 C 0.26659 0.81104 0.23777 0.0
C6837 C 0.25694 0.80594 0.20843 0.0
C6838 C 0.25856 0.82205 0.20742 0.0
C6839 C 0.26473 0.83256 0.22163 0.0
C6840 C 0.26855 0.82715 0.2366 0.0
C6841 C 0.25343 0.82799 0.1918 0.0
C6842 C 0.26387 0.83828 0.18481 0.0
C6843 C 0.23831 0.82365 0.18382 0.0
C6844 C 0.22643 0.81377 0.19113 0.0
C6845 C 0.22355 0.81815 0.20719 0.0
C6846 C 0.21252 0.80868 0.21413 0.0
C6847 C 0.20417 0.79487 0.20507 0.0
C6848 C 0.20681 0.79053 0.18903 0.0
C6849 C 0.21786 0.79994 0.18205 0.0
H6850 H 0.19563 0.78755 0.21046 0.0
H6851 H 0.30251 0.8813 0.14471 0.0
H6852 H 0.97308 0.61013 0.87438 0.0
H6853 H 0.98232 0.60474 0.90175 0.0
H6854 H 0.949 0.56207 0.89502 0.0
H6855 H 0.93942 0.56761 0.868 0.0
H6856 H 0.95032 0.57619 0.92502 0.0
H6857 H 0.98729 0.56291 0.89128 0.0
H6858 H 0.00626 0.56762 0.87229 0.0
H6859 H 0.03302 0.60461 0.9075 0.0
H6860 H 0.01409 0.60025 0.92662 0.0
H6861 H 0.97967 0.53337 0.98401 0.0
H6862 H 0.97194 0.54296 0.95841 0.0
H6863 H 1.00432 0.58588 0.97369 0.0
H6864 H 0.01211 0.57628 0.99958 0.0
H6865 H 1.00427 0.57422 0.94072 0.0
H6866 H 0.968 0.58596 0.97533 0.0
H6867 H 0.9492 0.58058 0.99438 0.0
H6868 H 0.92112 0.54609 0.95749 0.0
H6869 H 0.93988 0.55107 0.9383 0.0
C6870 C 0.96761 0.59966 0.87876 0.0
C6871 C 0.95554 0.58927 0.86877 0.0
C6872 C 0.97302 0.5965 0.89441 0.0
C6873 C 0.96654 0.58285 0.90052 0.0
C6874 C 0.95431 0.57265 0.89069 0.0
C6875 C 0.94892 0.57578 0.87508 0.0
C6876 C 0.97236 0.57909 0.91706 0.0
C6877 C 0.9621 0.57564 0.92834 0.0
C6878 C 0.98782 0.57873 0.92177 0.0
C6879 C 0.99919 0.58138 0.91029 0.0
C6880 C 0.99716 0.57214 0.89491 0.0
C6881 C 0.00791 0.57473 0.88414 0.0
C6882 C 0.02081 0.58644 0.88866 0.0
C6883 C 0.02301 0.59557 0.904 0.0
C6884 C 0.01227 0.59304 0.91481 0.0
C6885 C 0.98517 0.54487 0.98198 0.0
C6886 C 0.99646 0.55409 0.99393 0.0
C6887 C 0.9807 0.55037 0.96731 0.0
C6888 C 0.9874 0.56525 0.96409 0.0
C6889 C 0.99893 0.57439 0.97585 0.0
C6890 C 1.00334 0.56892 0.99067 0.0
C6891 C 0.98218 0.5711 0.94849 0.0
C6892 C 0.99253 0.57493 0.93743 0.0
C6893 C 0.96679 0.57177 0.94395 0.0
C6894 C 0.95542 0.5688 0.95541 0.0
C6895 C 0.95787 0.57714 0.97132 0.0
C6896 C 0.94722 0.57418 0.98214 0.0
C6897 C 0.93399 0.56299 0.97716 0.0
C6898 C 0.93138 0.55475 0.96134 0.0
C6899 C 0.94202 0.55765 0.95048 0.0
H6900 H 0.92575 0.56071 0.98555 0.0
H6901 H 0.02913 0.58843 0.88031 0.0
H6902 H 0.28926 0.22132 0.55581 0.0
H6903 H 0.29457 0.23963 0.58125 0.0
H6904 H 0.27142 0.20407 0.60666 0.0
H6905 H 0.26568 0.18597 0.58113 0.0
H6906 H 0.26205 0.2292 0.6137 0.0
H6907 H 0.3109 0.21665 0.61289 0.0
H6908 H 0.33417 0.21309 0.60137 0.0
H6909 H 0.34444 0.26186 0.59648 0.0
H6910 H 0.32111 0.26569 0.60776 0.0
H6911 H 0.29761 0.27256 0.69433 0.0
H6912 H 0.30309 0.25813 0.66941 0.0
H6913 H 0.27541 0.28251 0.63988 0.0
H6914 H 0.26993 0.29702 0.66472 0.0
H6915 H 0.312 0.26217 0.63664 0.0
H6916 H 0.24754 0.25397 0.61948 0.0
H6917 H 0.22507 0.256 0.63331 0.0
H6918 H 0.24743 0.24442 0.67752 0.0
H6919 H 0.26987 0.242 0.66384 0.0
C6920 C 0.28542 0.21743 0.56689 0.0
C6921 C 0.27697 0.20233 0.56656 0.0
C6922 C 0.28854 0.22784 0.58142 0.0
C6923 C 0.28352 0.22318 0.59591 0.0
C6924 C 0.27536 0.20795 0.59562 0.0
C6925 C 0.27204 0.19764 0.58106 0.0
C6926 C 0.28578 0.23446 0.61108 0.0
C6927 C 0.27301 0.23632 0.61867 0.0
C6928 C 0.30011 0.24366 0.61779 0.0
C6929 C 0.31418 0.24143 0.61104 0.0
C6930 C 0.31806 0.2266 0.60924 0.0
C6931 C 0.33127 0.22453 0.60277 0.0
C6932 C 0.34076 0.23723 0.59816 0.0
C6933 C 0.33707 0.25203 0.60005 0.0
C6934 C 0.32386 0.25416 0.60649 0.0
C6935 C 0.29326 0.27536 0.68251 0.0
C6936 C 0.28309 0.28565 0.6814 0.0
C6937 C 0.29644 0.26713 0.6683 0.0
C6938 C 0.28944 0.26911 0.6529 0.0
C6939 C 0.28081 0.28078 0.65172 0.0
C6940 C 0.27761 0.28897 0.66589 0.0
C6941 C 0.28825 0.25696 0.63877 0.0
C6942 C 0.30113 0.25496 0.6315 0.0
C6943 C 0.27413 0.2472 0.6326 0.0
C6944 C 0.26043 0.24799 0.64069 0.0
C6945 C 0.24761 0.25176 0.63211 0.0
C6946 C 0.23488 0.25298 0.63993 0.0
C6947 C 0.23484 0.2504 0.6563 0.0
C6948 C 0.24749 0.24647 0.66486 0.0
C6949 C 0.2602 0.24517 0.65708 0.0
H6950 H 0.22501 0.25141 0.66235 0.0
H6951 H 0.35099 0.23561 0.59316 0.0
H6952 H 0.59623 0.5496 0.22345 0.0
H6953 H 0.58271 0.55116 0.19655 0.0
H6954 H 0.599 0.51127 0.17573 0.0
H6955 H 0.61265 0.50969 0.20265 0.0
H6956 H 0.60104 0.53373 0.15512 0.0
H6957 H 0.56209 0.50827 0.18312 0.0
H6958 H 0.54663 0.50502 0.20567 0.0
H6959 H 0.53174 0.54784 0.19888 0.0
H6960 H 0.54729 0.55146 0.17642 0.0
H6961 H 0.55359 0.52209 0.07792 0.0
H6962 H 0.56665 0.51922 0.10461 0.0
H6963 H 0.54546 0.55424 0.12808 0.0
H6964 H 0.53195 0.55671 0.10145 0.0
H6965 H 0.54605 0.53378 0.14746 0.0
H6966 H 0.58519 0.56008 0.12034 0.0
H6967 H 0.60091 0.56416 0.09812 0.0
H6968 H 0.61586 0.52113 0.10359 0.0
H6969 H 0.60007 0.5167 0.12572 0.0
C6970 C 0.59704 0.54115 0.21319 0.0
C6971 C 0.60566 0.52948 0.2155 0.0
C6972 C 0.58914 0.54199 0.1977 0.0
C6973 C 0.58959 0.53128 0.18383 0.0
C6974 C 0.59831 0.51972 0.18605 0.0
C6975 C 0.60608 0.51874 0.2016 0.0
C6976 C 0.58108 0.5322 0.16714 0.0
C6977 C 0.58897 0.53352 0.15345 0.0
C6978 C 0.56535 0.53235 0.16472 0.0
C6979 C 0.55598 0.53021 0.1782 0.0
C6980 C 0.55562 0.51706 0.18653 0.0
C6981 C 0.54682 0.51514 0.19927 0.0
C6982 C 0.53824 0.52624 0.20374 0.0
C6983 C 0.53841 0.53926 0.19543 0.0
C6984 C 0.54721 0.54125 0.18268 0.0
C6985 C 0.55167 0.52922 0.08873 0.0
C6986 C 0.54165 0.53971 0.08728 0.0
C6987 C 0.55931 0.52765 0.10413 0.0
C6988 C 0.55747 0.53672 0.11871 0.0
C6989 C 0.54728 0.54704 0.11727 0.0
C6990 C 0.53952 0.5485 0.10189 0.0
C6991 C 0.566 0.53542 0.13534 0.0
C6992 C 0.55812 0.53401 0.14906 0.0
C6993 C 0.58179 0.53534 0.13782 0.0
C6994 C 0.59133 0.53799 0.12457 0.0
C6995 C 0.59175 0.55144 0.11673 0.0
C6996 C 0.60069 0.55382 0.10416 0.0
C6997 C 0.60935 0.54289 0.09941 0.0
C6998 C 0.60913 0.52958 0.10726 0.0
C6999 C 0.6002 0.52713 0.11983 0.0
H7000 H 0.61626 0.54475 0.08968 0.0
H7001 H 0.53143 0.52473 0.21361 0.0
H7002 H 0.21189 0.86733 0.94091 0.0
H7003 H 0.21852 0.85611 0.91491 0.0
H7004 H 0.248 0.83116 0.94121 0.0
H7005 H 0.24143 0.84228 0.9672 0.0
H7006 H 0.26193 0.84347 0.91817 0.0
H7007 H 0.21197 0.81326 0.91866 0.0
H7008 H 0.18457 0.80943 0.92019 0.0
H7009 H 0.17824 0.83268 0.87766 0.0
H7010 H 0.20564 0.83683 0.87601 0.0
H7011 H 0.27742 0.79532 0.84992 0.0
H7012 H 0.26896 0.80497 0.87554 0.0
H7013 H 0.23638 0.82579 0.84809 0.0
H7014 H 0.2443 0.81542 0.82245 0.0
H7015 H 0.22385 0.81598 0.87164 0.0
H7016 H 0.27287 0.84697 0.87083 0.0
H7017 H 0.30023 0.85208 0.86891 0.0
H7018 H 0.3084 0.82926 0.91141 0.0
H7019 H 0.28106 0.82385 0.91347 0.0
C7020 C 0.21963 0.85929 0.94122 0.0
C7021 C 0.22607 0.85582 0.95638 0.0
C7022 C 0.22345 0.85285 0.92623 0.0
C7023 C 0.23373 0.84258 0.92586 0.0
C7024 C 0.24011 0.83905 0.94097 0.0
C7025 C 0.23633 0.84551 0.95593 0.0
C7026 C 0.23813 0.83575 0.9099 0.0
C7027 C 0.25356 0.83727 0.90811 0.0
C7028 C 0.22735 0.82805 0.89637 0.0
C7029 C 0.21088 0.82549 0.89732 0.0
C7030 C 0.20475 0.81765 0.90971 0.0
C7031 C 0.18921 0.81541 0.91058 0.0
C7032 C 0.17967 0.82084 0.89905 0.0
C7033 C 0.18564 0.8285 0.88659 0.0
C7034 C 0.20117 0.83079 0.88568 0.0
C7035 C 0.26837 0.80185 0.84934 0.0
C7036 C 0.26162 0.80461 0.83406 0.0
C7037 C 0.2636 0.80755 0.86408 0.0
C7038 C 0.25222 0.8166 0.86406 0.0
C7039 C 0.24521 0.81898 0.8487 0.0
C7040 C 0.24978 0.81302 0.83395 0.0
C7041 C 0.2477 0.82361 0.87991 0.0
C7042 C 0.23225 0.82216 0.88168 0.0
C7043 C 0.25846 0.83158 0.89336 0.0
C7044 C 0.2749 0.83488 0.8922 0.0
C7045 C 0.28049 0.84296 0.8797 0.0
C7046 C 0.296 0.84592 0.8786 0.0
C7047 C 0.30604 0.84096 0.89 0.0
C7048 C 0.3006 0.83308 0.90257 0.0
C7049 C 0.28511 0.83007 0.90372 0.0
H7050 H 0.31804 0.84326 0.88913 0.0
H7051 H 0.16765 0.81909 0.89975 0.0
H7052 H 0.93617 0.57766 0.68954 0.0
H7053 H 0.94682 0.57117 0.66445 0.0
H7054 H 0.9917 0.58257 0.69144 0.0
H7055 H 0.9811 0.58889 0.71678 0.0
H7056 H 0.99098 0.59405 0.66188 0.0
H7057 H 0.97408 0.5447 0.68028 0.0
H7058 H 0.95577 0.52429 0.68959 0.0
H7059 H 0.92642 0.51997 0.64418 0.0
H7060 H 0.94446 0.54053 0.63469 0.0
H7061 H 0.02553 0.55994 0.59709 0.0
H7062 H 0.01688 0.56616 0.62362 0.0
H7063 H 0.97051 0.55238 0.60084 0.0
H7064 H 0.97904 0.54574 0.57448 0.0
H7065 H 0.9731 0.54184 0.62919 0.0
H7066 H 0.98867 0.59144 0.61096 0.0
H7067 H 0.00628 0.61207 0.60108 0.0
H7068 H 0.03724 0.61631 0.6453 0.0
H7069 H 0.01988 0.59554 0.65536 0.0
C7070 C 0.94831 0.57865 0.69027 0.0
C7071 C 0.95771 0.58366 0.70537 0.0
C7072 C 0.9544 0.57498 0.67582 0.0
C7073 C 0.97008 0.57615 0.676 0.0
C7074 C 0.97957 0.58154 0.69093 0.0
C7075 C 0.97347 0.5852 0.70544 0.0
C7076 C 0.97646 0.57156 0.66063 0.0
C7077 C 0.98724 0.58255 0.65488 0.0
C7078 C 0.97138 0.55668 0.65119 0.0
C7079 C 0.96056 0.54425 0.65684 0.0
C7080 C 0.96367 0.53948 0.67233 0.0
C7081 C 0.95335 0.52787 0.67763 0.0
C7082 C 0.93993 0.52086 0.6675 0.0
C7083 C 0.93682 0.52542 0.65203 0.0
C7084 C 0.94709 0.53704 0.64667 0.0
C7085 C 0.01349 0.55814 0.59773 0.0
C7086 C 1.00302 0.55243 0.58353 0.0
C7087 C 0.00854 0.56182 0.61293 0.0
C7088 C 0.99299 0.55999 0.6143 0.0
C7089 C 0.98255 0.55396 0.6002 0.0
C7090 C 0.98748 0.55021 0.58506 0.0
C7091 C 0.98753 0.56436 0.63032 0.0
C7092 C 0.97692 0.55333 0.63621 0.0
C7093 C 0.99266 0.57924 0.63979 0.0
C7094 C 1.00305 0.59182 0.63384 0.0
C7095 C 0.99928 0.5967 0.61853 0.0
C7096 C 0.0092 0.60843 0.6129 0.0
C7097 C 0.02289 0.61547 0.62254 0.0
C7098 C 0.02664 0.61083 0.63785 0.0
C7099 C 0.01676 0.59909 0.64352 0.0
H7100 H 0.03056 0.62455 0.61816 0.0
H7101 H 0.93195 0.51188 0.67163 0.0
H7102 H 0.23363 0.18635 0.40954 0.0
H7103 H 0.23432 0.20646 0.39149 0.0
H7104 H 0.28199 0.22267 0.40794 0.0
H7105 H 0.28118 0.20329 0.42696 0.0
H7106 H 0.26951 0.24668 0.40562 0.0
H7107 H 0.26838 0.20012 0.36986 0.0
H7108 H 0.25937 0.1728 0.3572 0.0
H7109 H 0.21652 0.18339 0.3396 0.0
H7110 H 0.2252 0.21074 0.35234 0.0
H7111 H 0.2842 0.28468 0.33437 0.0
H7112 H 0.28334 0.26904 0.35709 0.0
H7113 H 0.23458 0.25932 0.3482 0.0
H7114 H 0.23535 0.27507 0.32554 0.0
H7115 H 0.24787 0.23266 0.34697 0.0
H7116 H 0.25151 0.28088 0.38263 0.0
H7117 H 0.26297 0.30806 0.39415 0.0
H7118 H 0.30445 0.29393 0.41041 0.0
H7119 H 0.29331 0.26668 0.39877 0.0
C7120 C 0.24425 0.19428 0.40951 0.0
C7121 C 0.25735 0.19311 0.41975 0.0
C7122 C 0.24467 0.20568 0.39898 0.0
C7123 C 0.25826 0.21596 0.39813 0.0
C7124 C 0.27137 0.21485 0.40832 0.0
C7125 C 0.27092 0.20359 0.41904 0.0
C7126 C 0.25874 0.22787 0.38665 0.0
C7127 C 0.26493 0.24357 0.39275 0.0
C7128 C 0.25268 0.2239 0.36987 0.0
C7129 C 0.24739 0.20745 0.3622 0.0
C7130 C 0.25699 0.1966 0.3634 0.0
C7131 C 0.25195 0.18111 0.35619 0.0
C7132 C 0.23737 0.17635 0.34764 0.0
C7133 C 0.2278 0.18708 0.34625 0.0
C7134 C 0.23278 0.20259 0.35345 0.0
C7135 C 0.2733 0.27957 0.33756 0.0
C7136 C 0.25985 0.281 0.32815 0.0
C7137 C 0.27282 0.27065 0.35054 0.0
C7138 C 0.25889 0.26299 0.35426 0.0
C7139 C 0.24543 0.26514 0.34548 0.0
C7140 C 0.24589 0.27419 0.3326 0.0
C7141 C 0.25842 0.2514 0.366 0.0
C7142 C 0.25233 0.23574 0.35987 0.0
C7143 C 0.26493 0.25538 0.38261 0.0
C7144 C 0.27161 0.27175 0.3897 0.0
C7145 C 0.26311 0.28358 0.38854 0.0
C7146 C 0.26954 0.299 0.39512 0.0
C7147 C 0.28444 0.30272 0.40297 0.0
C7148 C 0.29292 0.29103 0.40431 0.0
C7149 C 0.28654 0.27559 0.39774 0.0
H7150 H 0.28939 0.31467 0.40806 0.0
H7151 H 0.23349 0.16436 0.34206 0.0
H7152 H 0.37719 0.6278 0.50228 0.0
H7153 H 0.39621 0.61133 0.50014 0.0
H7154 H 0.419 0.63298 0.54781 0.0
H7155 H 0.40008 0.64953 0.55001 0.0
H7156 H 0.43912 0.63035 0.52521 0.0
H7157 H 0.39697 0.59623 0.54229 0.0
H7158 H 0.37044 0.58234 0.53938 0.0
H7159 H 0.37504 0.55872 0.49246 0.0
H7160 H 0.40155 0.57263 0.49501 0.0
H7161 H 0.48905 0.58221 0.54681 0.0
H7162 H 0.46868 0.59662 0.54478 0.0
H7163 H 0.44641 0.56508 0.50184 0.0
H7164 H 0.46687 0.54995 0.50433 0.0
H7165 H 0.42561 0.57254 0.51841 0.0
H7166 H 0.46684 0.60442 0.50028 0.0
H7167 H 0.49297 0.61863 0.50054 0.0
H7168 H 0.49001 0.64689 0.54537 0.0
H7169 H 0.46392 0.63277 0.54548 0.0
C7170 C 0.38628 0.62915 0.51231 0.0
C7171 C 0.38697 0.6401 0.52635 0.0
C7172 C 0.39714 0.61959 0.51111 0.0
C7173 C 0.4091 0.62072 0.52385 0.0
C7174 C 0.40992 0.63176 0.53778 0.0
C7175 C 0.39898 0.64119 0.53908 0.0
C7176 C 0.42083 0.61058 0.5227 0.0
C7177 C 0.43616 0.61772 0.52392 0.0
C7178 C 0.41707 0.59402 0.52022 0.0
C7179 C 0.40119 0.58558 0.51877 0.0
C7180 C 0.39228 0.58816 0.5313 0.0
C7181 C 0.37726 0.58027 0.52973 0.0
C7182 C 0.37104 0.56968 0.51572 0.0
C7183 C 0.37986 0.56693 0.50329 0.0
C7184 C 0.39489 0.57481 0.5048 0.0
C7185 C 0.47988 0.57826 0.53684 0.0
C7186 C 0.47983 0.56498 0.52556 0.0
C7187 C 0.46818 0.58667 0.53562 0.0
C7188 C 0.45608 0.58246 0.5228 0.0
C7189 C 0.45565 0.56883 0.51176 0.0
C7190 C 0.46736 0.56014 0.51318 0.0
C7191 C 0.44403 0.59232 0.52133 0.0
C7192 C 0.42864 0.58516 0.5196 0.0
C7193 C 0.4477 0.60891 0.52292 0.0
C7194 C 0.46344 0.61743 0.52295 0.0
C7195 C 0.47179 0.61359 0.51026 0.0
C7196 C 0.48659 0.62164 0.51033 0.0
C7197 C 0.49316 0.63361 0.523 0.0
C7198 C 0.48492 0.63759 0.53559 0.0
C7199 C 0.47011 0.62959 0.53557 0.0
H7200 H 0.50459 0.63986 0.52302 0.0
H7201 H 0.35941 0.56359 0.51452 0.0
H7202 H 0.86605 1.00321 0.59665 0.0
H7203 H 0.89249 0.01218 0.59277 0.0
H7204 H 0.88671 0.97772 0.55 0.0
H7205 H 0.86064 0.96837 0.55414 0.0
H7206 H 0.91223 0.97784 0.56871 0.0
H7207 H 0.88707 0.01677 0.54721 0.0
H7208 H 0.87174 0.03726 0.54833 0.0
H7209 H 0.90386 0.06469 0.58749 0.0
H7210 H 0.91928 0.04425 0.58675 0.0
H7211 H 0.97129 1.00343 0.52409 0.0
H7212 H 0.94646 0.99727 0.5333 0.0
H7213 H 0.96196 0.03102 0.57654 0.0
H7214 H 0.98694 0.03725 0.56735 0.0
H7215 H 0.933 0.0325 0.56143 0.0
H7216 H 0.95931 0.99413 0.58078 0.0
H7217 H 0.97472 0.97377 0.5785 0.0
H7218 H 0.94021 0.94524 0.54241 0.0
H7219 H 0.92469 0.96555 0.54429 0.0
C7220 C 0.87046 0.9975 0.58649 0.0
C7221 C 0.86118 0.98515 0.57563 0.0
C7222 C 0.88553 1.00272 0.5842 0.0
C7223 C 0.89155 0.99572 0.57099 0.0
C7224 C 0.88232 0.98333 0.56025 0.0
C7225 C 0.86734 0.97811 0.56254 0.0
C7226 C 0.90749 1.00097 0.5683 0.0
C7227 C 0.91671 0.98978 0.56701 0.0
C7228 C 0.91352 0.01664 0.56656 0.0
C7229 C 0.90422 0.02889 0.56707 0.0
C7230 C 0.89079 0.0271 0.55617 0.0
C7231 C 0.8821 0.03872 0.55671 0.0
C7232 C 0.8868 0.05225 0.56801 0.0
C7233 C 0.90021 0.0542 0.57877 0.0
C7234 C 0.90894 0.0426 0.57829 0.0
C7235 C 0.96942 0.00953 0.53556 0.0
C7236 C 0.98104 0.02072 0.54508 0.0
C7237 C 0.95524 0.00599 0.54082 0.0
C7238 C 0.95244 0.01357 0.55569 0.0
C7239 C 0.96393 0.02501 0.56506 0.0
C7240 C 0.97818 0.02851 0.55984 0.0
C7241 C 0.9375 0.00928 0.56141 0.0
C7242 C 0.92853 0.02062 0.56333 0.0
C7243 C 0.93164 0.99373 0.56365 0.0
C7244 C 0.94088 0.98142 0.5626 0.0
C7245 C 0.95505 0.98356 0.57227 0.0
C7246 C 0.9638 0.97203 0.57106 0.0
C7247 C 0.95846 0.95823 0.56029 0.0
C7248 C 0.94434 0.95594 0.55074 0.0
C7249 C 0.93555 0.96745 0.55189 0.0
H7250 H 0.96525 0.94931 0.55937 0.0
H7251 H 0.88006 0.06124 0.56841 0.0
H7252 H 0.82347 0.12808 0.27698 0.0
H7253 H 0.81245 0.15147 0.27913 0.0
H7254 H 0.85676 0.1802 0.2828 0.0
H7255 H 0.8679 0.15683 0.28076 0.0
H7256 H 0.8433 0.19596 0.30148 0.0
H7257 H 0.82665 0.17292 0.24657 0.0
H7258 H 0.81495 0.15276 0.22334 0.0
H7259 H 0.7722 0.14887 0.24184 0.0
H7260 H 0.7837 0.16887 0.26532 0.0
H7261 H 0.81461 0.26595 0.28857 0.0
H7262 H 0.82618 0.24286 0.28601 0.0
H7263 H 0.78302 0.21356 0.28766 0.0
H7264 H 0.77134 0.23673 0.28979 0.0
H7265 H 0.7964 0.19867 0.26587 0.0
H7266 H 0.81577 0.22163 0.32257 0.0
H7267 H 0.82813 0.24426 0.34297 0.0
H7268 H 0.86673 0.25082 0.31699 0.0
H7269 H 0.85479 0.22796 0.29669 0.0
C7270 C 0.83103 0.13927 0.27803 0.0
C7271 C 0.84684 0.13998 0.27856 0.0
C7272 C 0.82457 0.15293 0.27926 0.0
C7273 C 0.83348 0.16818 0.28088 0.0
C7274 C 0.84928 0.16893 0.2816 0.0
C7275 C 0.85576 0.15527 0.28044 0.0
C7276 C 0.82644 0.18311 0.28194 0.0
C7277 C 0.83312 0.19639 0.29348 0.0
C7278 C 0.81303 0.18444 0.27177 0.0
C7279 C 0.80609 0.17225 0.25782 0.0
C7280 C 0.81479 0.16766 0.24577 0.0
C7281 C 0.80819 0.15628 0.23254 0.0
C7282 C 0.79286 0.1495 0.23114 0.0
C7283 C 0.78409 0.1541 0.24296 0.0
C7284 C 0.79064 0.16547 0.25623 0.0
C7285 C 0.80749 0.25466 0.28847 0.0
C7286 C 0.79187 0.25363 0.28954 0.0
C7287 C 0.81424 0.24122 0.28713 0.0
C7288 C 0.80579 0.22595 0.28691 0.0
C7289 C 0.79013 0.2249 0.28784 0.0
C7290 C 0.78337 0.23836 0.28919 0.0
C7291 C 0.81309 0.21124 0.28557 0.0
C7292 C 0.8065 0.19807 0.27393 0.0
C7293 C 0.82674 0.21014 0.29537 0.0
C7294 C 0.8344 0.22312 0.30815 0.0
C7295 C 0.82697 0.22781 0.32133 0.0
C7296 C 0.83392 0.24064 0.33288 0.0
C7297 C 0.84827 0.24891 0.33132 0.0
C7298 C 0.85573 0.24427 0.31829 0.0
C7299 C 0.84893 0.23132 0.30683 0.0
H7300 H 0.85357 0.25894 0.34017 0.0
H7301 H 0.78776 0.1407 0.22088 0.0
H7302 H 0.75034 0.11455 0.02991 0.0
H7303 H 0.72434 0.10077 0.03 0.0
H7304 H 0.70811 0.14328 0.0241 0.0
H7305 H 0.73394 0.15704 0.02372 0.0
H7306 H 0.69663 0.12954 0.04869 0.0
H7307 H 0.70213 0.11395 0.9927 0.0
H7308 H 0.71405 0.10279 0.97003 0.0
H7309 H 0.70784 0.05861 0.9885 0.0
H7310 H 0.69606 0.06958 0.01144 0.0
H7311 H 0.61817 0.09915 0.03449 0.0
H7312 H 0.6437 0.11112 0.03027 0.0
H7313 H 0.65875 0.06807 0.0366 0.0
H7314 H 0.63323 0.05602 0.04094 0.0
H7315 H 0.67089 0.08161 0.01161 0.0
H7316 H 0.66577 0.09748 0.06784 0.0
H7317 H 0.65368 0.1087 0.09035 0.0
H7318 H 0.65929 0.15256 0.07122 0.0
H7319 H 0.67123 0.14152 0.04844 0.0
C7320 C 0.74122 0.12091 0.02836 0.0
C7321 C 0.74427 0.13695 0.02694 0.0
C7322 C 0.72635 0.11301 0.02844 0.0
C7323 C 0.71426 0.12099 0.02704 0.0
C7324 C 0.71726 0.13691 0.0253 0.0
C7325 C 0.73206 0.14477 0.02517 0.0
C7326 C 0.69856 0.11301 0.02816 0.0
C7327 C 0.69094 0.11918 0.04042 0.0
C7328 C 0.69125 0.09927 0.01765 0.0
C7329 C 0.69836 0.09264 0.0039 0.0
C7330 C 0.70343 0.1019 0.99202 0.0
C7331 C 0.71014 0.0956 0.9791 0.0
C7332 C 0.71175 0.08001 0.97785 0.0
C7333 C 0.70661 0.07069 0.9895 0.0
C7334 C 0.69991 0.07694 1.00246 0.0
C7335 C 0.62691 0.09223 0.03504 0.0
C7336 C 0.62366 0.07666 0.03821 0.0
C7337 C 0.64149 0.09908 0.03256 0.0
C7338 C 0.6532 0.09056 0.03334 0.0
C7339 C 0.6499 0.07487 0.03594 0.0
C7340 C 0.63529 0.06799 0.03839 0.0
C7341 C 0.66897 0.09823 0.03207 0.0
C7342 C 0.6766 0.09198 0.01984 0.0
C7343 C 0.67633 0.11192 0.04261 0.0
C7344 C 0.66926 0.11863 0.05636 0.0
C7345 C 0.66433 0.10948 0.06837 0.0
C7346 C 0.65752 0.11581 0.08118 0.0
C7347 C 0.65568 0.13132 0.08219 0.0
C7348 C 0.6607 0.14054 0.07041 0.0
C7349 C 0.6675 0.13426 0.05755 0.0
H7350 H 0.65041 0.1362 0.09212 0.0
H7351 H 0.71693 0.07515 0.96783 0.0
H7352 H 0.17485 0.42802 0.31772 0.0
H7353 H 0.19132 0.40903 0.31857 0.0
H7354 H 0.18461 0.40027 0.26569 0.0
H7355 H 0.16712 0.41823 0.26474 0.0
H7356 H 0.18447 0.37439 0.27578 0.0
H7357 H 0.21873 0.42335 0.29072 0.0
H7358 H 0.22907 0.44927 0.30654 0.0
H7359 H 0.23528 0.42823 0.35062 0.0
H7360 H 0.2248 0.40218 0.33509 0.0
H7361 H 0.24314 0.33273 0.26706 0.0
H7362 H 0.22805 0.35301 0.26702 0.0
H7363 H 0.23374 0.35916 0.31997 0.0
H7364 H 0.24968 0.33926 0.32002 0.0
H7365 H 0.23457 0.38642 0.31012 0.0
H7366 H 0.20175 0.33685 0.29379 0.0
H7367 H 0.19103 0.31144 0.27749 0.0
H7368 H 0.18202 0.33379 0.23489 0.0
H7369 H 0.19296 0.35948 0.25089 0.0
C7370 C 0.17661 0.42192 0.30621 0.0
C7371 C 0.16949 0.4249 0.29113 0.0
C7372 C 0.18635 0.41118 0.30672 0.0
C7373 C 0.18963 0.40333 0.29218 0.0
C7374 C 0.18246 0.40616 0.27714 0.0
C7375 C 0.17252 0.41669 0.27662 0.0
C7376 C 0.20017 0.3919 0.29258 0.0
C7377 C 0.19554 0.37717 0.28307 0.0
C7378 C 0.21453 0.3952 0.30241 0.0
C7379 C 0.22084 0.41084 0.31177 0.0
C7380 C 0.2222 0.42426 0.30381 0.0
C7381 C 0.2281 0.43897 0.31272 0.0
C7382 C 0.23279 0.4404 0.32958 0.0
C7383 C 0.23163 0.42711 0.33756 0.0
C7384 C 0.22572 0.41237 0.32871 0.0
C7385 C 0.24124 0.33841 0.27873 0.0
C7386 C 0.24749 0.33422 0.29356 0.0
C7387 C 0.23251 0.35002 0.27869 0.0
C7388 C 0.2293 0.35745 0.29347 0.0
C7389 C 0.23591 0.3536 0.30836 0.0
C7390 C 0.245 0.34219 0.3084 0.0
C7391 C 0.21885 0.36893 0.29328 0.0
C7392 C 0.22352 0.38366 0.30278 0.0
C7393 C 0.20455 0.36567 0.28331 0.0
C7394 C 0.19829 0.35015 0.27356 0.0
C7395 C 0.19763 0.3364 0.28092 0.0
C7396 C 0.19146 0.32191 0.27172 0.0
C7397 C 0.18581 0.32096 0.25516 0.0
C7398 C 0.18639 0.33453 0.24773 0.0
C7399 C 0.19257 0.34908 0.25686 0.0
H7400 H 0.18097 0.30972 0.24808 0.0
H7401 H 0.23736 0.4518 0.33645 0.0
H7402 H 0.22223 0.49345 0.04118 0.0
H7403 H 0.19905 0.50225 0.03131 0.0
H7404 H 0.17829 0.48601 0.07233 0.0
H7405 H 0.20165 0.47756 0.08249 0.0
H7406 H 0.16068 0.47669 0.03758 0.0
H7407 H 0.18734 0.52048 0.07713 0.0
H7408 H 0.20957 0.54061 0.0893 0.0
H7409 H 0.21041 0.55954 0.04364 0.0
H7410 H 0.1883 0.53934 0.03112 0.0
H7411 H 0.09707 0.51275 0.03781 0.0
H7412 H 0.11932 0.5012 0.04277 0.0
H7413 H 0.14286 0.53183 0.01257 0.0
H7414 H 0.12088 0.54414 0.00838 0.0
H7415 H 0.15958 0.53313 0.04017 0.0
H7416 H 0.13156 0.49122 1.00094 0.0
H7417 H 0.10961 0.47102 0.98811 0.0
H7418 H 0.11134 0.4482 0.03139 0.0
H7419 H 0.13317 0.46837 0.04458 0.0
C7420 C 0.21273 0.49188 0.0481 0.0
C7421 C 0.21363 0.48498 0.0626 0.0
C7422 C 0.19955 0.49683 0.04246 0.0
C7423 C 0.18704 0.49467 0.05109 0.0
C7424 C 0.18787 0.48768 0.06552 0.0
C7425 C 0.20118 0.48301 0.07136 0.0
C7426 C 0.17321 0.50009 0.04517 0.0
C7427 C 0.16029 0.489 0.03826 0.0
C7428 C 0.17303 0.51614 0.04563 0.0
C7429 C 0.1863 0.52828 0.05313 0.0
C7430 C 0.19237 0.52883 0.06963 0.0
C7431 C 0.20492 0.54027 0.07661 0.0
C7432 C 0.21143 0.55132 0.06723 0.0
C7433 C 0.20538 0.55096 0.05087 0.0
C7434 C 0.19283 0.53952 0.04383 0.0
C7435 C 0.10697 0.51704 0.0322 0.0
C7436 C 0.10729 0.52955 0.02292 0.0
C7437 C 0.11962 0.51023 0.03483 0.0
C7438 C 0.13275 0.51556 0.02795 0.0
C7439 C 0.13284 0.52753 0.018 0.0
C7440 C 0.12023 0.53448 0.01551 0.0
C7441 C 0.14679 0.50975 0.03253 0.0
C7442 C 0.15985 0.52078 0.03926 0.0
C7443 C 0.14708 0.49362 0.03173 0.0
C7444 C 0.13396 0.48141 0.0238 0.0
C7445 C 0.1272 0.48196 0.00778 0.0
C7446 C 0.11478 0.4705 1.00043 0.0
C7447 C 0.10906 0.45836 0.00895 0.0
C7448 C 0.11578 0.45762 0.02481 0.0
C7449 C 0.12819 0.46905 0.03222 0.0
H7450 H 0.09943 0.44951 0.00326 0.0
H7451 H 0.22115 0.56018 0.07266 0.0
H7452 H 0.86009 0.97076 0.29396 0.0
H7453 H 0.84865 0.94401 0.29641 0.0
H7454 H 0.80986 0.94707 0.26277 0.0
H7455 H 0.82091 0.97426 0.26089 0.0
H7456 H 0.79954 0.93053 0.28466 0.0
H7457 H 0.84006 0.92592 0.25288 0.0
H7458 H 0.86634 0.93088 0.24665 0.0
H7459 H 0.88097 0.9122 0.29017 0.0
H7460 H 0.8548 0.9073 0.29675 0.0
H7461 H 0.7702 0.84694 0.27581 0.0
H7462 H 0.77976 0.8741 0.27163 0.0
H7463 H 0.82166 0.87375 0.3017 0.0
H7464 H 0.81245 0.84665 0.30511 0.0
H7465 H 0.82973 0.88895 0.27999 0.0
H7466 H 0.7896 0.89454 0.31261 0.0
H7467 H 0.76339 0.88964 0.31909 0.0
H7468 H 0.74813 0.90638 0.27457 0.0
H7469 H 0.77424 0.91123 0.26774 0.0
C7470 C 0.84904 0.96601 0.28715 0.0
C7471 C 0.84166 0.97527 0.27718 0.0
C7472 C 0.8425 0.95033 0.28839 0.0
C7473 C 0.82831 0.9429 0.27956 0.0
C7474 C 0.8208 0.95211 0.26975 0.0
C7475 C 0.82732 0.96786 0.26854 0.0
C7476 C 0.82139 0.92574 0.28062 0.0
C7477 C 0.80618 0.92147 0.28342 0.0
C7478 C 0.82977 0.9135 0.27935 0.0
C7479 C 0.84549 0.91637 0.27538 0.0
C7480 C 0.8489 0.92296 0.26117 0.0
C7481 C 0.86377 0.92575 0.25757 0.0
C7482 C 0.87533 0.92189 0.26803 0.0
C7483 C 0.87202 0.91519 0.28209 0.0
C7484 C 0.85716 0.9124 0.28575 0.0
C7485 C 0.78143 0.85267 0.28158 0.0
C7486 C 0.79041 0.84433 0.2909 0.0
C7487 C 0.78695 0.86843 0.27929 0.0
C7488 C 0.80157 0.87664 0.28653 0.0
C7489 C 0.81043 0.86816 0.29581 0.0
C7490 C 0.80504 0.85245 0.29786 0.0
C7491 C 0.80793 0.89371 0.28437 0.0
C7492 C 0.82305 0.89797 0.2813 0.0
C7493 C 0.79949 0.90592 0.28547 0.0
C7494 C 0.78383 0.90309 0.28959 0.0
C7495 C 0.78063 0.89709 0.30416 0.0
C7496 C 0.7658 0.89434 0.3079 0.0
C7497 C 0.75409 0.89765 0.29722 0.0
C7498 C 0.7572 0.90379 0.28281 0.0
C7499 C 0.77201 0.90656 0.27901 0.0
H7500 H 0.74262 0.8955 0.30014 0.0
H7501 H 0.88684 0.92406 0.26523 0.0
H7502 H 0.68215 0.06298 0.77108 0.0
H7503 H 0.69786 0.0888 0.77094 0.0
H7504 H 0.68757 0.10369 0.81916 0.0
H7505 H 0.67211 0.07771 0.81949 0.0
H7506 H 0.68361 0.12472 0.79492 0.0
H7507 H 0.72032 0.09845 0.81857 0.0
H7508 H 0.73452 0.07724 0.82114 0.0
H7509 H 0.75092 0.0841 0.77522 0.0
H7510 H 0.73661 0.10521 0.77223 0.0
H7511 H 0.73636 0.19679 0.80501 0.0
H7512 H 0.72308 0.17131 0.80996 0.0
H7513 H 0.73479 0.15004 0.76486 0.0
H7514 H 0.74787 0.17553 0.75964 0.0
H7515 H 0.73847 0.13256 0.79017 0.0
H7516 H 0.70015 0.15801 0.76612 0.0
H7517 H 0.68601 0.17935 0.76414 0.0
H7518 H 0.67273 0.17413 0.81179 0.0
H7519 H 0.68699 0.15289 0.81415 0.0
C7520 C 0.68331 0.07176 0.78165 0.0
C7521 C 0.67597 0.0684 0.7953 0.0
C7522 C 0.6923 0.08645 0.78159 0.0
C7523 C 0.69389 0.09811 0.79506 0.0
C7524 C 0.68649 0.09482 0.80867 0.0
C7525 C 0.67775 0.08001 0.80887 0.0
C7526 C 0.70303 0.11382 0.79465 0.0
C7527 C 0.69566 0.12651 0.79417 0.0
C7528 C 0.71869 0.11605 0.79342 0.0
C7529 C 0.72724 0.1033 0.79508 0.0
C7530 C 0.72681 0.09532 0.80892 0.0
C7531 C 0.73491 0.08334 0.81048 0.0
C7532 C 0.74358 0.07929 0.79833 0.0
C7533 C 0.74418 0.08723 0.78461 0.0
C7534 C 0.73608 0.09921 0.78298 0.0
C7535 C 0.73604 0.18673 0.79607 0.0
C7536 C 0.74308 0.18827 0.78183 0.0
C7537 C 0.7285 0.17215 0.79897 0.0
C7538 C 0.72781 0.1588 0.7877 0.0
C7539 C 0.7352 0.16019 0.77374 0.0
C7540 C 0.74271 0.17478 0.7708 0.0
C7541 C 0.71902 0.14345 0.79019 0.0
C7542 C 0.72645 0.13081 0.79104 0.0
C7543 C 0.70342 0.14127 0.79183 0.0
C7544 C 0.69478 0.15398 0.79039 0.0
C7545 C 0.69432 0.1615 0.77623 0.0
C7546 C 0.68627 0.17356 0.77503 0.0
C7547 C 0.67852 0.17812 0.78785 0.0
C7548 C 0.67877 0.1706 0.80188 0.0
C7549 C 0.68682 0.15854 0.80315 0.0
H7550 H 0.67229 0.18747 0.7869 0.0
H7551 H 0.74986 0.07002 0.79957 0.0
loop_
_geom_bond_atom_site_label_1
_geom_bond_atom_site_label_2
_geom_bond_distance
_geom_bond_site_symmetry_2
_ccdc_geom_bond_type
Li0 N17 1.990 1_455 S
Li0 O60 1.956 . S
Li0 O61 1.970 . S
Li0 O62 1.961 . S
Li1 N25 1.990 . S
Li1 O60 1.970 . S
Li1 O61 1.956 . S
Li1 O63 1.961 . S
Li2 N47 1.990 . S
Li2 O60 1.961 . S
Li2 O62 1.956 . S
Li2 O63 1.970 . S
Li3 N53 1.990 . S
Li3 O61 1.961 . S
Li3 O62 1.970 . S
Li3 O63 1.956 . S
C4 C6 1.348 . S
C4 C7 1.356 . S
C4 O60 1.325 . S
N5 C8 1.314 . S
N5 C9 1.279 . S
C6 C4 1.348 . S
C6 C8 1.353 . S
C6 H64 0.929 . S
C7 C4 1.356 . S
C7 C9 1.358 . S
C7 H65 0.930 . S
C8 N5 1.314 . S
C8 C6 1.353 . S
C8 H66 0.930 . S
C9 N5 1.279 . S
C9 C7 1.358 . S
C9 H67 0.930 . S
C10 C13 1.348 1_455 S
C10 C14 1.356 . S
C10 O61 1.325 . S
C11 N12 1.279 . S
C11 C14 1.358 1_655 S
C11 H68 0.930 . S
N12 C11 1.279 . S
N12 C15 1.314 . S
C13 C10 1.348 1_655 S
C13 C15 1.353 . S
C13 H69 0.929 . S
C14 C10 1.356 . S
C14 C11 1.358 1_455 S
C14 H70 0.930 . S
C15 N12 1.314 . S
C15 C13 1.353 . S
C15 H71 0.930 . S
C16 N17 1.314 . S
C16 C21 1.353 . S
C16 H22 0.930 . S
N17 Li0 1.990 1_655 S
N17 C16 1.314 . S
N17 C19 1.279 . S
C18 C19 1.358 . S
C18 C20 1.356 . S
C18 H72 0.930 . S
C19 N17 1.279 . S
C19 C18 1.358 . S
C19 H23 0.930 . S
C20 C18 1.356 . S
C20 C21 1.348 . S
C21 C16 1.353 . S
C21 C20 1.348 . S
C21 H73 0.929 . S
H22 C16 0.930 . S
H23 C19 0.930 . S
C24 N25 1.314 . S
C24 C26 1.353 . S
C24 H30 0.930 . S
N25 Li1 1.990 . S
N25 C24 1.314 . S
N25 C28 1.279 . S
C26 C24 1.353 . S
C26 C29 1.348 . S
C26 H74 0.929 . S
C27 C28 1.358 . S
C27 C29 1.356 . S
C27 H75 0.930 . S
C28 N25 1.279 . S
C28 C27 1.358 . S
C28 H31 0.930 . S
C29 C26 1.348 . S
C29 C27 1.356 . S
H30 C24 0.930 . S
H31 C28 0.930 . S
C32 C34 1.348 . S
C32 C35 1.356 . S
C32 O62 1.325 . S
N33 C36 1.314 . S
N33 C37 1.279 . S
C34 C32 1.348 . S
C34 C36 1.353 . S
C34 H76 0.929 . S
C35 C32 1.356 . S
C35 C37 1.358 . S
C35 H77 0.930 . S
C36 N33 1.314 . S
C36 C34 1.353 . S
C36 H78 0.930 . S
C37 N33 1.279 . S
C37 C35 1.358 . S
C37 H79 0.930 . S
C38 C39 1.348 . S
C38 C40 1.356 . S
C38 O63 1.325 . S
C39 C38 1.348 . S
C39 C41 1.353 . S
C39 H80 0.929 . S
C40 C38 1.356 . S
C40 C42 1.358 . S
C40 H81 0.930 . S
C41 C39 1.353 . S
C41 N43 1.314 . S
C41 H82 0.930 . S
C42 C40 1.358 . S
C42 N43 1.279 . S
C42 H83 0.930 . S
N43 C41 1.314 . S
N43 C42 1.279 . S
C44 C46 1.353 . S
C44 N47 1.314 . S
C44 H50 0.930 . S
C45 N47 1.279 . S
C45 C48 1.358 . S
C45 H51 0.930 . S
C46 C44 1.353 . S
C46 C49 1.348 . S
C46 H84 0.929 . S
N47 Li2 1.990 . S
N47 C44 1.314 . S
N47 C45 1.279 . S
C48 C45 1.358 . S
C48 C49 1.356 . S
C48 H85 0.930 . S
C49 C46 1.348 . S
C49 C48 1.356 . S
H50 C44 0.930 . S
H51 C45 0.930 . S
C52 N53 1.314 . S
C52 C54 1.353 . S
C52 H58 0.930 . S
N53 Li3 1.990 . S
N53 C52 1.314 . S
N53 C56 1.279 . S
C54 C52 1.353 . S
C54 C57 1.348 . S
C54 H86 0.929 . S
C55 C56 1.358 . S
C55 C57 1.356 . S
C55 H87 0.930 . S
C56 N53 1.279 . S
C56 C55 1.358 . S
C56 H59 0.930 . S
C57 C54 1.348 . S
C57 C55 1.356 . S
H58 C52 0.930 . S
H59 C56 0.930 . S
O60 Li0 1.956 . S
O60 Li1 1.970 . S
O60 Li2 1.961 . S
O60 C4 1.325 . S
O61 Li0 1.970 . S
O61 Li1 1.956 . S
O61 Li3 1.961 . S
O61 C10 1.325 . S
O62 Li0 1.961 . S
O62 Li2 1.956 . S
O62 Li3 1.970 . S
O62 C32 1.325 . S
O63 Li1 1.961 . S
O63 Li2 1.970 . S
O63 Li3 1.956 . S
O63 C38 1.325 . S
H64 C6 0.929 . S
H65 C7 0.930 . S
H66 C8 0.930 . S
H67 C9 0.930 . S
H68 C11 0.930 . S
H69 C13 0.929 . S
H70 C14 0.930 . S
H71 C15 0.930 . S
H72 C18 0.930 . S
H73 C21 0.929 . S
H74 C26 0.929 . S
H75 C27 0.930 . S
H76 C34 0.929 . S
H77 C35 0.930 . S
H78 C36 0.930 . S
H79 C37 0.930 . S
H80 C39 0.929 . S
H81 C40 0.930 . S
H82 C41 0.930 . S
H83 C42 0.930 . S
H84 C46 0.929 . S
H85 C48 0.930 . S
H86 C54 0.929 . S
H87 C55 0.930 . S
Li88 N105 1.990 . S
Li88 O148 1.956 . S
Li88 O149 1.970 . S
Li88 O150 1.961 1_455 S
Li89 N113 1.990 . S
Li89 O148 1.970 . S
Li89 O149 1.956 . S
Li89 O151 1.963 . S
Li90 N135 1.990 . S
Li90 O148 1.961 1_655 S
Li90 O150 1.956 . S
Li90 O151 1.970 1_655 S
Li91 N141 1.990 . S
Li91 O149 1.961 1_655 S
Li91 O150 1.970 . S
Li91 O151 1.954 1_655 S
C92 C94 1.348 . S
C92 C95 1.356 . S
C92 O148 1.325 . S
N93 C96 1.314 . S
N93 C97 1.279 . S
C94 C92 1.348 . S
C94 C96 1.353 . S
C94 H152 0.929 . S
C95 C92 1.356 . S
C95 C97 1.358 . S
C95 H153 0.930 . S
C96 N93 1.314 . S
C96 C94 1.353 . S
C96 H154 0.930 . S
C97 N93 1.279 . S
C97 C95 1.358 . S
C97 H155 0.930 . S
C98 C101 1.348 . S
C98 C102 1.356 . S
C98 O149 1.325 . S
C99 N100 1.279 . S
C99 C102 1.358 . S
C99 H156 0.930 . S
N100 C99 1.279 . S
N100 C103 1.314 . S
C101 C98 1.348 . S
C101 C103 1.353 . S
C101 H157 0.929 . S
C102 C98 1.356 . S
C102 C99 1.358 . S
C102 H158 0.940 . S
C103 N100 1.314 . S
C103 C101 1.353 . S
C103 H159 0.930 . S
C104 N105 1.314 1_655 S
C104 C109 1.353 . S
C104 H110 0.930 . S
N105 Li88 1.990 . S
N105 C104 1.314 1_455 S
N105 C107 1.279 . S
C106 C107 1.358 . S
C106 C108 1.356 . S
C106 H160 0.930 . S
C107 N105 1.279 . S
C107 C106 1.358 . S
C107 H111 0.930 . S
C108 C106 1.356 . S
C108 C109 1.348 1_455 S
C109 C104 1.353 . S
C109 C108 1.348 1_655 S
C109 H161 0.929 . S
H110 C104 0.930 . S
H111 C107 0.930 . S
C112 N113 1.314 . S
C112 C114 1.353 . S
C112 H118 0.930 . S
N113 Li89 1.990 . S
N113 C112 1.314 . S
N113 C116 1.279 . S
C114 C112 1.353 . S
C114 C117 1.348 . S
C114 H162 0.929 . S
C115 C116 1.358 . S
C115 C117 1.356 . S
C115 H163 0.930 . S
C116 N113 1.279 . S
C116 C115 1.358 . S
C116 H119 0.930 . S
C117 C114 1.348 . S
C117 C115 1.356 . S
H118 C112 0.930 . S
H119 C116 0.930 . S
C120 C122 1.348 . S
C120 C123 1.356 . S
C120 O150 1.325 . S
N121 C124 1.314 . S
N121 C125 1.279 . S
C122 C120 1.348 . S
C122 C124 1.353 . S
C122 H164 0.929 . S
C123 C120 1.356 . S
C123 C125 1.358 . S
C123 H165 0.930 . S
C124 N121 1.314 . S
C124 C122 1.353 . S
C124 H166 0.930 . S
C125 N121 1.279 . S
C125 C123 1.358 . S
C125 H167 0.930 . S
C126 C127 1.358 . S
C126 C128 1.351 1_655 S
C126 O151 1.327 1_655 S
C127 C126 1.358 . S
C127 C129 1.353 . S
C127 H168 0.929 . S
C128 C126 1.351 1_455 S
C128 C130 1.358 . S
C128 H169 0.930 . S
C129 C127 1.353 . S
C129 N131 1.314 . S
C129 H170 0.930 . S
C130 C128 1.358 . S
C130 N131 1.279 1_455 S
C130 H171 0.930 . S
N131 C129 1.314 . S
N131 C130 1.279 1_655 S
C132 C134 1.353 . S
C132 N135 1.314 1_455 S
C132 H138 0.930 . S
C133 N135 1.279 . S
C133 C136 1.358 . S
C133 H139 0.930 . S
C134 C132 1.353 . S
C134 C137 1.348 1_455 S
C134 H172 0.929 . S
N135 Li90 1.990 . S
N135 C132 1.314 1_655 S
N135 C133 1.279 . S
C136 C133 1.358 . S
C136 C137 1.356 . S
C136 H173 0.930 . S
C137 C134 1.348 1_655 S
C137 C136 1.356 . S
H138 C132 0.930 . S
H139 C133 0.930 . S
C140 N141 1.314 . S
C140 C142 1.353 . S
C140 H146 0.930 . S
N141 Li91 1.990 . S
N141 C140 1.314 . S
N141 C144 1.279 . S
C142 C140 1.353 . S
C142 C145 1.348 . S
C142 H174 0.929 . S
C143 C144 1.358 . S
C143 C145 1.356 . S
C143 H175 0.930 . S
C144 N141 1.279 . S
C144 C143 1.358 . S
C144 H147 0.930 . S
C145 C142 1.348 . S
C145 C143 1.356 . S
H146 C140 0.930 . S
H147 C144 0.930 . S
O148 Li88 1.956 . S
O148 Li89 1.970 . S
O148 Li90 1.961 1_455 S
O148 C92 1.325 . S
O149 Li88 1.970 . S
O149 Li89 1.956 . S
O149 Li91 1.961 1_455 S
O149 C98 1.325 . S
O150 Li88 1.961 1_655 S
O150 Li90 1.956 . S
O150 Li91 1.970 . S
O150 C120 1.325 . S
O151 Li89 1.963 . S
O151 Li90 1.970 1_455 S
O151 Li91 1.954 1_455 S
O151 C126 1.327 1_455 S
H152 C94 0.929 . S
H153 C95 0.930 . S
H154 C96 0.930 . S
H155 C97 0.930 . S
H156 C99 0.930 . S
H157 C101 0.929 . S
H158 C102 0.940 . S
H159 C103 0.930 . S
H160 C106 0.930 . S
H161 C109 0.929 . S
H162 C114 0.929 . S
H163 C115 0.930 . S
H164 C122 0.929 . S
H165 C123 0.930 . S
H166 C124 0.930 . S
H167 C125 0.930 . S
H168 C127 0.929 . S
H169 C128 0.930 . S
H170 C129 0.930 . S
H171 C130 0.930 . S
H172 C134 0.929 . S
H173 C136 0.930 . S
H174 C142 0.929 . S
H175 C143 0.930 . S
Li176 N193 1.990 . S
Li176 O236 1.956 . S
Li176 O237 1.970 . S
Li176 O238 1.961 . S
Li177 N201 1.990 . S
Li177 O236 1.970 . S
Li177 O237 1.956 . S
Li177 O239 1.961 . S
Li178 N223 1.990 . S
Li178 O236 1.961 . S
Li178 O238 1.956 . S
Li178 O239 1.970 . S
Li179 N229 1.990 . S
Li179 O237 1.961 . S
Li179 O238 1.970 . S
Li179 O239 1.956 . S
C180 C182 1.348 . S
C180 C183 1.356 . S
C180 O236 1.325 . S
N181 C184 1.314 . S
N181 C185 1.279 . S
C182 C180 1.348 . S
C182 C184 1.353 . S
C182 H240 0.929 . S
C183 C180 1.356 . S
C183 C185 1.358 . S
C183 H241 0.930 . S
C184 N181 1.314 . S
C184 C182 1.353 . S
C184 H242 0.930 . S
C185 N181 1.279 . S
C185 C183 1.358 . S
C185 H243 0.930 . S
C186 C189 1.348 . S
C186 C190 1.356 . S
C186 O237 1.325 . S
C187 N188 1.279 . S
C187 C190 1.358 . S
C187 H244 0.930 . S
N188 C187 1.279 . S
N188 C191 1.314 . S
C189 C186 1.348 . S
C189 C191 1.353 . S
C189 H245 0.929 . S
C190 C186 1.356 . S
C190 C187 1.358 . S
C190 H246 0.930 . S
C191 N188 1.314 . S
C191 C189 1.353 . S
C191 H247 0.930 . S
C192 N193 1.314 . S
C192 C197 1.353 . S
C192 H198 0.930 . S
N193 Li176 1.990 . S
N193 C192 1.314 . S
N193 C195 1.279 . S
C194 C195 1.358 . S
C194 C196 1.356 . S
C194 H248 0.930 . S
C195 N193 1.279 . S
C195 C194 1.358 . S
C195 H199 0.930 . S
C196 C194 1.356 . S
C196 C197 1.348 . S
C197 C192 1.353 . S
C197 C196 1.348 . S
C197 H249 0.929 . S
H198 C192 0.930 . S
H199 C195 0.930 . S
C200 N201 1.314 . S
C200 C202 1.353 . S
C200 H206 0.930 . S
N201 Li177 1.990 . S
N201 C200 1.314 . S
N201 C204 1.279 . S
C202 C200 1.353 . S
C202 C205 1.348 . S
C202 H250 0.929 . S
C203 C204 1.358 . S
C203 C205 1.356 . S
C203 H251 0.930 . S
C204 N201 1.279 . S
C204 C203 1.358 . S
C204 H207 0.930 . S
C205 C202 1.348 . S
C205 C203 1.356 . S
H206 C200 0.930 . S
H207 C204 0.930 . S
C208 C210 1.348 . S
C208 C211 1.356 . S
C208 O238 1.325 . S
N209 C212 1.314 . S
N209 C213 1.279 . S
C210 C208 1.348 . S
C210 C212 1.353 . S
C210 H252 0.929 . S
C211 C208 1.356 . S
C211 C213 1.358 . S
C211 H253 0.930 . S
C212 N209 1.314 . S
C212 C210 1.353 . S
C212 H254 0.930 . S
C213 N209 1.279 . S
C213 C211 1.358 . S
C213 H255 0.930 . S
C214 C215 1.348 . S
C214 C216 1.356 . S
C214 O239 1.325 . S
C215 C214 1.348 . S
C215 C217 1.353 . S
C215 H256 0.929 . S
C216 C214 1.356 . S
C216 C218 1.358 . S
C216 H257 0.930 . S
C217 C215 1.353 . S
C217 N219 1.314 . S
C217 H258 0.930 . S
C218 C216 1.358 . S
C218 N219 1.279 . S
C218 H259 0.930 . S
N219 C217 1.314 . S
N219 C218 1.279 . S
C220 C222 1.353 . S
C220 N223 1.314 . S
C220 H226 0.930 . S
C221 N223 1.279 . S
C221 C224 1.358 . S
C221 H227 0.930 . S
C222 C220 1.353 . S
C222 C225 1.348 . S
C222 H260 0.929 . S
N223 Li178 1.990 . S
N223 C220 1.314 . S
N223 C221 1.279 . S
C224 C221 1.358 . S
C224 C225 1.356 . S
C224 H261 0.930 . S
C225 C222 1.348 . S
C225 C224 1.356 . S
H226 C220 0.930 . S
H227 C221 0.930 . S
C228 N229 1.314 . S
C228 C230 1.353 . S
C228 H234 0.930 . S
N229 Li179 1.990 . S
N229 C228 1.314 . S
N229 C232 1.279 . S
C230 C228 1.353 . S
C230 C233 1.348 . S
C230 H262 0.929 . S
C231 C232 1.358 . S
C231 C233 1.356 . S
C231 H263 0.930 . S
C232 N229 1.279 . S
C232 C231 1.358 . S
C232 H235 0.930 . S
C233 C230 1.348 . S
C233 C231 1.356 . S
H234 C228 0.930 . S
H235 C232 0.930 . S
O236 Li176 1.956 . S
O236 Li177 1.970 . S
O236 Li178 1.961 . S
O236 C180 1.325 . S
O237 Li176 1.970 . S
O237 Li177 1.956 . S
O237 Li179 1.961 . S
O237 C186 1.325 . S
O238 Li176 1.961 . S
O238 Li178 1.956 . S
O238 Li179 1.970 . S
O238 C208 1.325 . S
O239 Li177 1.961 . S
O239 Li178 1.970 . S
O239 Li179 1.956 . S
O239 C214 1.325 . S
H240 C182 0.929 . S
H241 C183 0.930 . S
H242 C184 0.930 . S
H243 C185 0.930 . S
H244 C187 0.930 . S
H245 C189 0.929 . S
H246 C190 0.930 . S
H247 C191 0.930 . S
H248 C194 0.930 . S
H249 C197 0.929 . S
H250 C202 0.929 . S
H251 C203 0.930 . S
H252 C210 0.929 . S
H253 C211 0.930 . S
H254 C212 0.930 . S
H255 C213 0.930 . S
H256 C215 0.929 . S
H257 C216 0.930 . S
H258 C217 0.930 . S
H259 C218 0.930 . S
H260 C222 0.929 . S
H261 C224 0.930 . S
H262 C230 0.929 . S
H263 C231 0.930 . S
Li264 N281 1.990 . S
Li264 O324 1.956 . S
Li264 O325 1.970 . S
Li264 O326 1.961 . S
Li265 N289 1.990 . S
Li265 O324 1.970 . S
Li265 O325 1.956 . S
Li265 O327 1.961 . S
Li266 N311 1.990 . S
Li266 O324 1.961 . S
Li266 O326 1.956 . S
Li266 O327 1.970 . S
Li267 N317 1.990 . S
Li267 O325 1.961 . S
Li267 O326 1.970 . S
Li267 O327 1.956 . S
C268 C270 1.348 . S
C268 C271 1.356 . S
C268 O324 1.325 . S
N269 C272 1.314 . S
N269 C273 1.279 . S
C270 C268 1.348 . S
C270 C272 1.353 . S
C270 H328 0.929 . S
C271 C268 1.356 . S
C271 C273 1.358 . S
C271 H329 0.930 . S
C272 N269 1.314 . S
C272 C270 1.353 . S
C272 H330 0.930 . S
C273 N269 1.279 . S
C273 C271 1.358 . S
C273 H331 0.930 . S
C274 C277 1.348 . S
C274 C278 1.356 . S
C274 O325 1.325 . S
C275 N276 1.279 . S
C275 C278 1.358 . S
C275 H332 0.930 . S
N276 C275 1.279 . S
N276 C279 1.314 . S
C277 C274 1.348 . S
C277 C279 1.353 . S
C277 H333 0.929 . S
C278 C274 1.356 . S
C278 C275 1.358 . S
C278 H334 0.930 . S
C279 N276 1.314 . S
C279 C277 1.353 . S
C279 H335 0.930 . S
C280 N281 1.314 . S
C280 C285 1.353 . S
C280 H286 0.930 . S
N281 Li264 1.990 . S
N281 C280 1.314 . S
N281 C283 1.279 . S
C282 C283 1.358 . S
C282 C284 1.356 . S
C282 H336 0.930 . S
C283 N281 1.279 . S
C283 C282 1.358 . S
C283 H287 0.930 . S
C284 C282 1.356 . S
C284 C285 1.348 . S
C285 C280 1.353 . S
C285 C284 1.348 . S
C285 H337 0.929 . S
H286 C280 0.930 . S
H287 C283 0.930 . S
C288 N289 1.314 . S
C288 C290 1.353 . S
C288 H294 0.930 . S
N289 Li265 1.990 . S
N289 C288 1.314 . S
N289 C292 1.279 . S
C290 C288 1.353 . S
C290 C293 1.348 . S
C290 H338 0.929 . S
C291 C292 1.358 . S
C291 C293 1.356 . S
C291 H339 0.930 . S
C292 N289 1.279 . S
C292 C291 1.358 . S
C292 H295 0.930 . S
C293 C290 1.348 . S
C293 C291 1.356 . S
H294 C288 0.930 . S
H295 C292 0.930 . S
C296 C298 1.348 . S
C296 C299 1.356 . S
C296 O326 1.325 . S
N297 C300 1.314 . S
N297 C301 1.279 . S
C298 C296 1.348 . S
C298 C300 1.353 . S
C298 H340 0.929 . S
C299 C296 1.356 . S
C299 C301 1.358 . S
C299 H341 0.930 . S
C300 N297 1.314 . S
C300 C298 1.353 . S
C300 H342 0.930 . S
C301 N297 1.279 . S
C301 C299 1.358 . S
C301 H343 0.930 . S
C302 C303 1.348 . S
C302 C304 1.356 . S
C302 O327 1.325 . S
C303 C302 1.348 . S
C303 C305 1.353 . S
C303 H344 0.929 . S
C304 C302 1.356 . S
C304 C306 1.358 . S
C304 H345 0.930 . S
C305 C303 1.353 . S
C305 N307 1.314 . S
C305 H346 0.930 . S
C306 C304 1.358 . S
C306 N307 1.279 . S
C306 H347 0.930 . S
N307 C305 1.314 . S
N307 C306 1.279 . S
C308 C310 1.353 . S
C308 N311 1.314 . S
C308 H314 0.930 . S
C309 N311 1.279 . S
C309 C312 1.358 . S
C309 H315 0.930 . S
C310 C308 1.353 . S
C310 C313 1.348 . S
C310 H348 0.929 . S
N311 Li266 1.990 . S
N311 C308 1.314 . S
N311 C309 1.279 . S
C312 C309 1.358 . S
C312 C313 1.356 . S
C312 H349 0.930 . S
C313 C310 1.348 . S
C313 C312 1.356 . S
H314 C308 0.930 . S
H315 C309 0.930 . S
C316 N317 1.314 . S
C316 C318 1.353 . S
C316 H322 0.930 . S
N317 Li267 1.990 . S
N317 C316 1.314 . S
N317 C320 1.279 . S
C318 C316 1.353 . S
C318 C321 1.348 . S
C318 H350 0.929 . S
C319 C320 1.358 . S
C319 C321 1.356 . S
C319 H351 0.930 . S
C320 N317 1.279 . S
C320 C319 1.358 . S
C320 H323 0.930 . S
C321 C318 1.348 . S
C321 C319 1.356 . S
H322 C316 0.930 . S
H323 C320 0.930 . S
O324 Li264 1.956 . S
O324 Li265 1.970 . S
O324 Li266 1.961 . S
O324 C268 1.325 . S
O325 Li264 1.970 . S
O325 Li265 1.956 . S
O325 Li267 1.961 . S
O325 C274 1.325 . S
O326 Li264 1.961 . S
O326 Li266 1.956 . S
O326 Li267 1.970 . S
O326 C296 1.325 . S
O327 Li265 1.961 . S
O327 Li266 1.970 . S
O327 Li267 1.956 . S
O327 C302 1.325 . S
H328 C270 0.929 . S
H329 C271 0.930 . S
H330 C272 0.930 . S
H331 C273 0.930 . S
H332 C275 0.930 . S
H333 C277 0.929 . S
H334 C278 0.930 . S
H335 C279 0.930 . S
H336 C282 0.930 . S
H337 C285 0.929 . S
H338 C290 0.929 . S
H339 C291 0.930 . S
H340 C298 0.929 . S
H341 C299 0.930 . S
H342 C300 0.930 . S
H343 C301 0.930 . S
H344 C303 0.929 . S
H345 C304 0.930 . S
H346 C305 0.930 . S
H347 C306 0.930 . S
H348 C310 0.929 . S
H349 C312 0.930 . S
H350 C318 0.929 . S
H351 C319 0.930 . S
Li352 N369 1.990 . S
Li352 O412 1.956 . S
Li352 O413 1.970 . S
Li352 O414 1.961 1_455 S
Li353 N377 1.990 . S
Li353 O412 1.970 . S
Li353 O413 1.956 . S
Li353 O415 1.961 . S
Li354 N399 1.990 . S
Li354 O412 1.961 . S
Li354 O414 1.956 1_455 S
Li354 O415 1.970 . S
Li355 N405 1.990 . S
Li355 O413 1.961 1_655 S
Li355 O414 1.970 . S
Li355 O415 1.956 1_655 S
C356 C358 1.348 . S
C356 C359 1.356 . S
C356 O412 1.325 . S
N357 C360 1.314 . S
N357 C361 1.279 . S
C358 C356 1.348 . S
C358 C360 1.353 . S
C358 H416 0.929 . S
C359 C356 1.356 . S
C359 C361 1.358 . S
C359 H417 0.930 . S
C360 N357 1.314 . S
C360 C358 1.353 . S
C360 H418 0.930 . S
C361 N357 1.279 . S
C361 C359 1.358 . S
C361 H419 0.930 . S
C362 C365 1.348 . S
C362 C366 1.356 . S
C362 O413 1.325 . S
C363 N364 1.279 . S
C363 C366 1.358 . S
C363 H420 0.930 . S
N364 C363 1.279 . S
N364 C367 1.314 . S
C365 C362 1.348 . S
C365 C367 1.353 . S
C365 H421 0.929 . S
C366 C362 1.356 . S
C366 C363 1.358 . S
C366 H422 0.930 . S
C367 N364 1.314 . S
C367 C365 1.353 . S
C367 H423 0.930 . S
C368 N369 1.350 . S
C368 C373 1.348 . S
C368 H374 0.895 1_455 S
N369 Li352 1.990 . S
N369 C368 1.350 . S
N369 C371 1.279 . S
C370 C371 1.358 . S
C370 C372 1.356 . S
C370 H424 0.930 . S
C371 N369 1.279 . S
C371 C370 1.358 . S
C371 H375 0.930 . S
C372 C370 1.356 . S
C372 C373 1.343 . S
C373 C368 1.348 . S
C373 C372 1.343 . S
C373 H425 0.935 1_455 S
H374 C368 0.895 1_655 S
H375 C371 0.930 . S
C376 N377 1.314 . S
C376 C378 1.353 . S
C376 H382 0.930 . S
N377 Li353 1.990 . S
N377 C376 1.314 . S
N377 C380 1.279 . S
C378 C376 1.353 . S
C378 C381 1.348 . S
C378 H426 0.929 . S
C379 C380 1.358 . S
C379 C381 1.356 . S
C379 H427 0.930 . S
C380 N377 1.279 . S
C380 C379 1.358 . S
C380 H383 0.930 . S
C381 C378 1.348 . S
C381 C379 1.356 . S
H382 C376 0.930 . S
H383 C380 0.930 . S
C384 C386 1.348 . S
C384 C387 1.356 . S
C384 O414 1.325 . S
N385 C388 1.314 . S
N385 C389 1.279 . S
C386 C384 1.348 . S
C386 C388 1.353 . S
C386 H428 0.929 . S
C387 C384 1.356 . S
C387 C389 1.358 . S
C387 H429 0.930 . S
C388 N385 1.314 . S
C388 C386 1.353 . S
C388 H430 0.930 . S
C389 N385 1.279 . S
C389 C387 1.358 . S
C389 H431 0.930 . S
C390 C391 1.348 . S
C390 C392 1.356 . S
C390 O415 1.325 . S
C391 C390 1.348 . S
C391 C393 1.353 . S
C391 H432 0.929 1_455 S
C392 C390 1.356 . S
C392 C394 1.358 . S
C392 H433 0.930 . S
C393 C391 1.353 . S
C393 N395 1.314 . S
C393 H434 0.930 1_455 S
C394 C392 1.358 . S
C394 N395 1.279 . S
C394 H435 0.930 . S
N395 C393 1.314 . S
N395 C394 1.279 . S
C396 C398 1.353 . S
C396 N399 1.314 . S
C396 H402 0.930 . S
C397 N399 1.279 1_655 S
C397 C400 1.358 . S
C397 H403 0.930 . S
C398 C396 1.353 . S
C398 C401 1.376 . S
C398 H436 0.929 . S
N399 Li354 1.990 . S
N399 C396 1.314 . S
N399 C397 1.279 1_455 S
C400 C397 1.358 . S
C400 C401 1.324 1_655 S
C400 H437 0.930 . S
C401 C398 1.376 . S
C401 C400 1.324 1_455 S
H402 C396 0.930 . S
H403 C397 0.930 . S
C404 N405 1.314 . S
C404 C406 1.353 . S
C404 H410 0.930 . S
N405 Li355 1.990 . S
N405 C404 1.314 . S
N405 C408 1.279 . S
C406 C404 1.353 . S
C406 C409 1.348 . S
C406 H438 0.929 . S
C407 C408 1.358 . S
C407 C409 1.356 . S
C407 H439 0.930 . S
C408 N405 1.279 . S
C408 C407 1.358 . S
C408 H411 0.930 . S
C409 C406 1.348 . S
C409 C407 1.356 . S
H410 C404 0.930 . S
H411 C408 0.930 . S
O412 Li352 1.956 . S
O412 Li353 1.970 . S
O412 Li354 1.961 . S
O412 C356 1.325 . S
O413 Li352 1.970 . S
O413 Li353 1.956 . S
O413 Li355 1.961 1_455 S
O413 C362 1.325 . S
O414 Li352 1.961 1_655 S
O414 Li354 1.956 1_655 S
O414 Li355 1.970 . S
O414 C384 1.325 . S
O415 Li353 1.961 . S
O415 Li354 1.970 . S
O415 Li355 1.956 1_455 S
O415 C390 1.325 . S
H416 C358 0.929 . S
H417 C359 0.930 . S
H418 C360 0.930 . S
H419 C361 0.930 . S
H420 C363 0.930 . S
H421 C365 0.929 . S
H422 C366 0.930 . S
H423 C367 0.930 . S
H424 C370 0.930 . S
H425 C373 0.935 1_655 S
H426 C378 0.929 . S
H427 C379 0.930 . S
H428 C386 0.929 . S
H429 C387 0.930 . S
H430 C388 0.930 . S
H431 C389 0.930 . S
H432 C391 0.929 1_655 S
H433 C392 0.930 . S
H434 C393 0.930 1_655 S
H435 C394 0.930 . S
H436 C398 0.929 . S
H437 C400 0.930 . S
H438 C406 0.929 . S
H439 C407 0.930 . S
Li440 N457 1.990 . S
Li440 O500 1.956 . S
Li440 O501 1.970 . S
Li440 O502 1.961 . S
Li441 N465 1.990 . S
Li441 O500 1.970 . S
Li441 O501 1.956 . S
Li441 O503 1.961 . S
Li442 N487 1.990 . S
Li442 O500 1.961 . S
Li442 O502 1.956 . S
Li442 O503 1.970 . S
Li443 N493 1.990 . S
Li443 O501 1.961 . S
Li443 O502 1.970 . S
Li443 O503 1.956 . S
C444 C446 1.348 . S
C444 C447 1.356 . S
C444 O500 1.325 . S
N445 C448 1.314 . S
N445 C449 1.279 . S
C446 C444 1.348 . S
C446 C448 1.353 . S
C446 H504 0.929 . S
C447 C444 1.356 . S
C447 C449 1.358 . S
C447 H505 0.930 . S
C448 N445 1.314 . S
C448 C446 1.353 . S
C448 H506 0.930 . S
C449 N445 1.279 . S
C449 C447 1.358 . S
C449 H507 0.930 . S
C450 C453 1.348 . S
C450 C454 1.356 . S
C450 O501 1.325 . S
C451 N452 1.279 . S
C451 C454 1.358 . S
C451 H508 0.930 . S
N452 C451 1.279 . S
N452 C455 1.314 . S
C453 C450 1.348 . S
C453 C455 1.353 . S
C453 H509 0.929 . S
C454 C450 1.356 . S
C454 C451 1.358 . S
C454 H510 0.930 . S
C455 N452 1.314 . S
C455 C453 1.353 . S
C455 H511 0.930 . S
C456 N457 1.314 . S
C456 C461 1.353 . S
C456 H462 0.930 . S
N457 Li440 1.990 . S
N457 C456 1.314 . S
N457 C459 1.279 . S
C458 C459 1.358 . S
C458 C460 1.356 . S
C458 H512 0.930 . S
C459 N457 1.279 . S
C459 C458 1.358 . S
C459 H463 0.930 . S
C460 C458 1.356 . S
C460 C461 1.348 . S
C461 C456 1.353 . S
C461 C460 1.348 . S
C461 H513 0.929 . S
H462 C456 0.930 . S
H463 C459 0.930 . S
C464 N465 1.314 . S
C464 C466 1.353 . S
C464 H470 0.930 . S
N465 Li441 1.990 . S
N465 C464 1.314 . S
N465 C468 1.279 . S
C466 C464 1.353 . S
C466 C469 1.348 . S
C466 H514 0.929 . S
C467 C468 1.358 . S
C467 C469 1.356 . S
C467 H515 0.930 . S
C468 N465 1.279 . S
C468 C467 1.358 . S
C468 H471 0.930 . S
C469 C466 1.348 . S
C469 C467 1.356 . S
H470 C464 0.930 . S
H471 C468 0.930 . S
C472 C474 1.348 . S
C472 C475 1.356 . S
C472 O502 1.325 . S
N473 C476 1.314 . S
N473 C477 1.279 . S
C474 C472 1.348 . S
C474 C476 1.353 . S
C474 H516 0.929 . S
C475 C472 1.356 . S
C475 C477 1.358 . S
C475 H517 0.930 . S
C476 N473 1.314 . S
C476 C474 1.353 . S
C476 H518 0.930 . S
C477 N473 1.279 . S
C477 C475 1.358 . S
C477 H519 0.930 . S
C478 C479 1.348 . S
C478 C480 1.356 . S
C478 O503 1.325 . S
C479 C478 1.348 . S
C479 C481 1.353 . S
C479 H520 0.929 . S
C480 C478 1.356 . S
C480 C482 1.358 . S
C480 H521 0.930 . S
C481 C479 1.353 . S
C481 N483 1.314 . S
C481 H522 0.930 . S
C482 C480 1.358 . S
C482 N483 1.279 . S
C482 H523 0.930 . S
N483 C481 1.314 . S
N483 C482 1.279 . S
C484 C486 1.353 . S
C484 N487 1.314 . S
C484 H490 0.930 . S
C485 N487 1.279 . S
C485 C488 1.358 . S
C485 H491 0.930 . S
C486 C484 1.353 . S
C486 C489 1.348 . S
C486 H524 0.929 . S
N487 Li442 1.990 . S
N487 C484 1.314 . S
N487 C485 1.279 . S
C488 C485 1.358 . S
C488 C489 1.356 . S
C488 H525 0.930 . S
C489 C486 1.348 . S
C489 C488 1.356 . S
H490 C484 0.930 . S
H491 C485 0.930 . S
C492 N493 1.314 . S
C492 C494 1.353 . S
C492 H498 0.930 . S
N493 Li443 1.990 . S
N493 C492 1.314 . S
N493 C496 1.279 . S
C494 C492 1.353 . S
C494 C497 1.348 . S
C494 H526 0.929 . S
C495 C496 1.358 . S
C495 C497 1.356 . S
C495 H527 0.930 . S
C496 N493 1.279 . S
C496 C495 1.358 . S
C496 H499 0.930 . S
C497 C494 1.348 . S
C497 C495 1.356 . S
H498 C492 0.930 . S
H499 C496 0.930 . S
O500 Li440 1.956 . S
O500 Li441 1.970 . S
O500 Li442 1.961 . S
O500 C444 1.325 . S
O501 Li440 1.970 . S
O501 Li441 1.956 . S
O501 Li443 1.961 . S
O501 C450 1.325 . S
O502 Li440 1.961 . S
O502 Li442 1.956 . S
O502 Li443 1.970 . S
O502 C472 1.325 . S
O503 Li441 1.961 . S
O503 Li442 1.970 . S
O503 Li443 1.956 . S
O503 C478 1.325 . S
H504 C446 0.929 . S
H505 C447 0.930 . S
H506 C448 0.930 . S
H507 C449 0.930 . S
H508 C451 0.930 . S
H509 C453 0.929 . S
H510 C454 0.930 . S
H511 C455 0.930 . S
H512 C458 0.930 . S
H513 C461 0.929 . S
H514 C466 0.929 . S
H515 C467 0.930 . S
H516 C474 0.929 . S
H517 C475 0.930 . S
H518 C476 0.930 . S
H519 C477 0.930 . S
H520 C479 0.929 . S
H521 C480 0.930 . S
H522 C481 0.930 . S
H523 C482 0.930 . S
H524 C486 0.929 . S
H525 C488 0.930 . S
H526 C494 0.929 . S
H527 C495 0.930 . S
Li528 N545 1.990 . S
Li528 O588 1.956 . S
Li528 O589 1.970 . S
Li528 O590 1.961 . S
Li529 N553 1.990 . S
Li529 O588 1.970 . S
Li529 O589 1.956 . S
Li529 O591 1.961 . S
Li530 N575 1.990 . S
Li530 O588 1.961 . S
Li530 O590 1.956 . S
Li530 O591 1.970 . S
Li531 N581 1.990 . S
Li531 O589 1.961 . S
Li531 O590 1.970 . S
Li531 O591 1.956 . S
C532 C534 1.348 . S
C532 C535 1.356 . S
C532 O588 1.325 . S
N533 C536 1.314 . S
N533 C537 1.279 . S
C534 C532 1.348 . S
C534 C536 1.353 . S
C534 H592 0.929 . S
C535 C532 1.356 . S
C535 C537 1.358 . S
C535 H593 0.930 . S
C536 N533 1.314 . S
C536 C534 1.353 . S
C536 H594 0.930 . S
C537 N533 1.279 . S
C537 C535 1.358 . S
C537 H595 0.930 . S
C538 C541 1.348 . S
C538 C542 1.356 . S
C538 O589 1.325 . S
C539 N540 1.279 . S
C539 C542 1.358 . S
C539 H596 0.930 . S
N540 C539 1.279 . S
N540 C543 1.314 . S
C541 C538 1.348 . S
C541 C543 1.353 . S
C541 H597 0.929 . S
C542 C538 1.356 . S
C542 C539 1.358 . S
C542 H598 0.930 . S
C543 N540 1.314 . S
C543 C541 1.353 . S
C543 H599 0.930 . S
C544 N545 1.314 . S
C544 C549 1.353 . S
C544 H550 0.930 . S
N545 Li528 1.990 . S
N545 C544 1.314 . S
N545 C547 1.279 . S
C546 C547 1.358 . S
C546 C548 1.356 . S
C546 H600 0.930 . S
C547 N545 1.279 . S
C547 C546 1.358 . S
C547 H551 0.930 . S
C548 C546 1.356 . S
C548 C549 1.348 . S
C549 C544 1.353 . S
C549 C548 1.348 . S
C549 H601 0.929 . S
H550 C544 0.930 . S
H551 C547 0.930 . S
C552 N553 1.314 . S
C552 C554 1.353 . S
C552 H558 0.930 . S
N553 Li529 1.990 . S
N553 C552 1.314 . S
N553 C556 1.279 . S
C554 C552 1.353 . S
C554 C557 1.348 . S
C554 H602 0.929 . S
C555 C556 1.358 . S
C555 C557 1.356 . S
C555 H603 0.930 . S
C556 N553 1.279 . S
C556 C555 1.358 . S
C556 H559 0.930 . S
C557 C554 1.348 . S
C557 C555 1.356 . S
H558 C552 0.930 . S
H559 C556 0.930 . S
C560 C562 1.348 . S
C560 C563 1.356 . S
C560 O590 1.325 . S
N561 C564 1.314 . S
N561 C565 1.279 . S
C562 C560 1.348 . S
C562 C564 1.353 . S
C562 H604 0.929 . S
C563 C560 1.356 . S
C563 C565 1.358 . S
C563 H605 0.930 . S
C564 N561 1.314 . S
C564 C562 1.353 . S
C564 H606 0.930 . S
C565 N561 1.279 . S
C565 C563 1.358 . S
C565 H607 0.930 . S
C566 C567 1.348 . S
C566 C568 1.356 . S
C566 O591 1.325 . S
C567 C566 1.348 . S
C567 C569 1.353 . S
C567 H608 0.929 . S
C568 C566 1.356 . S
C568 C570 1.358 . S
C568 H609 0.930 . S
C569 C567 1.353 . S
C569 N571 1.314 . S
C569 H610 0.930 . S
C570 C568 1.358 . S
C570 N571 1.279 . S
C570 H611 0.930 . S
N571 C569 1.314 . S
N571 C570 1.279 . S
C572 C574 1.353 . S
C572 N575 1.314 . S
C572 H578 0.930 . S
C573 N575 1.279 . S
C573 C576 1.358 . S
C573 H579 0.930 . S
C574 C572 1.353 . S
C574 C577 1.348 . S
C574 H612 0.929 . S
N575 Li530 1.990 . S
N575 C572 1.314 . S
N575 C573 1.279 . S
C576 C573 1.358 . S
C576 C577 1.356 . S
C576 H613 0.930 . S
C577 C574 1.348 . S
C577 C576 1.356 . S
H578 C572 0.930 . S
H579 C573 0.930 . S
C580 N581 1.314 . S
C580 C582 1.353 . S
C580 H586 0.930 . S
N581 Li531 1.990 . S
N581 C580 1.314 . S
N581 C584 1.279 . S
C582 C580 1.353 . S
C582 C585 1.348 . S
C582 H614 0.929 . S
C583 C584 1.358 . S
C583 C585 1.356 . S
C583 H615 0.930 . S
C584 N581 1.279 . S
C584 C583 1.358 . S
C584 H587 0.930 . S
C585 C582 1.348 . S
C585 C583 1.356 . S
H586 C580 0.930 . S
H587 C584 0.930 . S
O588 Li528 1.956 . S
O588 Li529 1.970 . S
O588 Li530 1.961 . S
O588 C532 1.325 . S
O589 Li528 1.970 . S
O589 Li529 1.956 . S
O589 Li531 1.961 . S
O589 C538 1.325 . S
O590 Li528 1.961 . S
O590 Li530 1.956 . S
O590 Li531 1.970 . S
O590 C560 1.325 . S
O591 Li529 1.961 . S
O591 Li530 1.970 . S
O591 Li531 1.956 . S
O591 C566 1.325 . S
H592 C534 0.929 . S
H593 C535 0.930 . S
H594 C536 0.930 . S
H595 C537 0.930 . S
H596 C539 0.930 . S
H597 C541 0.929 . S
H598 C542 0.930 . S
H599 C543 0.930 . S
H600 C546 0.930 . S
H601 C549 0.929 . S
H602 C554 0.929 . S
H603 C555 0.930 . S
H604 C562 0.929 . S
H605 C563 0.930 . S
H606 C564 0.930 . S
H607 C565 0.930 . S
H608 C567 0.929 . S
H609 C568 0.930 . S
H610 C569 0.930 . S
H611 C570 0.930 . S
H612 C574 0.929 . S
H613 C576 0.930 . S
H614 C582 0.929 . S
H615 C583 0.930 . S
Li616 N633 1.990 . S
Li616 O676 1.956 . S
Li616 O677 1.970 . S
Li616 O678 1.961 . S
Li617 N641 1.990 1_455 S
Li617 O676 1.970 . S
Li617 O677 1.956 . S
Li617 O679 1.961 . S
Li618 N663 1.990 . S
Li618 O676 1.961 . S
Li618 O678 1.956 . S
Li618 O679 1.970 . S
Li619 N669 1.990 . S
Li619 O677 1.961 . S
Li619 O678 1.970 . S
Li619 O679 1.956 . S
C620 C622 1.348 . S
C620 C623 1.356 . S
C620 O676 1.325 1_655 S
N621 C624 1.314 . S
N621 C625 1.279 . S
C622 C620 1.348 . S
C622 C624 1.353 . S
C622 H680 0.929 . S
C623 C620 1.356 . S
C623 C625 1.358 . S
C623 H681 0.930 1_655 S
C624 N621 1.314 . S
C624 C622 1.353 . S
C624 H682 0.930 . S
C625 N621 1.279 . S
C625 C623 1.358 . S
C625 H683 0.930 . S
C626 C629 1.348 . S
C626 C630 1.356 . S
C626 O677 1.325 . S
C627 N628 1.279 . S
C627 C630 1.358 . S
C627 H684 0.930 . S
N628 C627 1.279 . S
N628 C631 1.314 . S
C629 C626 1.348 . S
C629 C631 1.353 . S
C629 H685 0.929 . S
C630 C626 1.356 . S
C630 C627 1.358 . S
C630 H686 0.930 . S
C631 N628 1.314 . S
C631 C629 1.353 . S
C631 H687 0.930 . S
C632 N633 1.314 . S
C632 C637 1.353 . S
C632 H638 0.930 . S
N633 Li616 1.990 . S
N633 C632 1.314 . S
N633 C635 1.279 . S
C634 C635 1.358 . S
C634 C636 1.356 . S
C634 H688 0.930 . S
C635 N633 1.279 . S
C635 C634 1.358 . S
C635 H639 0.930 . S
C636 C634 1.356 . S
C636 C637 1.348 . S
C637 C632 1.353 . S
C637 C636 1.348 . S
C637 H689 0.929 . S
H638 C632 0.930 . S
H639 C635 0.930 . S
C640 N641 1.314 . S
C640 C642 1.353 . S
C640 H646 0.930 . S
N641 Li617 1.990 1_655 S
N641 C640 1.314 . S
N641 C644 1.279 . S
C642 C640 1.353 . S
C642 C645 1.348 . S
C642 H690 0.929 . S
C643 C644 1.358 . S
C643 C645 1.356 . S
C643 H691 0.930 . S
C644 N641 1.279 . S
C644 C643 1.358 . S
C644 H647 0.930 . S
C645 C642 1.348 . S
C645 C643 1.356 . S
H646 C640 0.930 . S
H647 C644 0.930 . S
C648 C650 1.348 . S
C648 C651 1.356 . S
C648 O678 1.325 . S
N649 C652 1.314 . S
N649 C653 1.279 . S
C650 C648 1.348 . S
C650 C652 1.353 . S
C650 H692 0.929 . S
C651 C648 1.356 . S
C651 C653 1.358 . S
C651 H693 0.930 . S
C652 N649 1.314 . S
C652 C650 1.353 . S
C652 H694 0.930 . S
C653 N649 1.279 . S
C653 C651 1.358 . S
C653 H695 0.930 . S
C654 C655 1.348 . S
C654 C656 1.356 . S
C654 O679 1.325 . S
C655 C654 1.348 . S
C655 C657 1.353 . S
C655 H696 0.929 . S
C656 C654 1.356 . S
C656 C658 1.358 . S
C656 H697 0.930 . S
C657 C655 1.353 . S
C657 N659 1.314 . S
C657 H698 0.930 . S
C658 C656 1.358 . S
C658 N659 1.279 . S
C658 H699 0.930 . S
N659 C657 1.314 . S
N659 C658 1.279 . S
C660 C662 1.353 . S
C660 N663 1.314 . S
C660 H666 0.930 1_455 S
C661 N663 1.279 . S
C661 C664 1.358 . S
C661 H667 0.930 . S
C662 C660 1.353 . S
C662 C665 1.348 . S
C662 H700 0.929 1_455 S
N663 Li618 1.990 . S
N663 C660 1.314 . S
N663 C661 1.279 . S
C664 C661 1.358 . S
C664 C665 1.356 . S
C664 H701 0.930 . S
C665 C662 1.348 . S
C665 C664 1.356 . S
H666 C660 0.930 1_655 S
H667 C661 0.930 . S
C668 N669 1.314 . S
C668 C670 1.353 . S
C668 H674 0.930 . S
N669 Li619 1.990 . S
N669 C668 1.314 . S
N669 C672 1.279 . S
C670 C668 1.353 . S
C670 C673 1.348 . S
C670 H702 0.929 . S
C671 C672 1.358 . S
C671 C673 1.356 . S
C671 H703 0.930 . S
C672 N669 1.279 . S
C672 C671 1.358 . S
C672 H675 0.930 . S
C673 C670 1.348 . S
C673 C671 1.356 . S
H674 C668 0.930 . S
H675 C672 0.930 . S
O676 Li616 1.956 . S
O676 Li617 1.970 . S
O676 Li618 1.961 . S
O676 C620 1.325 1_455 S
O677 Li616 1.970 . S
O677 Li617 1.956 . S
O677 Li619 1.961 . S
O677 C626 1.325 . S
O678 Li616 1.961 . S
O678 Li618 1.956 . S
O678 Li619 1.970 . S
O678 C648 1.325 . S
O679 Li617 1.961 . S
O679 Li618 1.970 . S
O679 Li619 1.956 . S
O679 C654 1.325 . S
H680 C622 0.929 . S
H681 C623 0.930 1_455 S
H682 C624 0.930 . S
H683 C625 0.930 . S
H684 C627 0.930 . S
H685 C629 0.929 . S
H686 C630 0.930 . S
H687 C631 0.930 . S
H688 C634 0.930 . S
H689 C637 0.929 . S
H690 C642 0.929 . S
H691 C643 0.930 . S
H692 C650 0.929 . S
H693 C651 0.930 . S
H694 C652 0.930 . S
H695 C653 0.930 . S
H696 C655 0.929 . S
H697 C656 0.930 . S
H698 C657 0.930 . S
H699 C658 0.930 . S
H700 C662 0.929 1_655 S
H701 C664 0.930 . S
H702 C670 0.929 . S
H703 C671 0.930 . S
Li704 N721 1.990 . S
Li704 O764 1.956 . S
Li704 O765 1.970 . S
Li704 O766 1.961 . S
Li705 N729 1.990 . S
Li705 O764 1.970 . S
Li705 O765 1.956 . S
Li705 O767 1.961 . S
Li706 N751 1.990 . S
Li706 O764 1.961 . S
Li706 O766 1.956 . S
Li706 O767 1.970 . S
Li707 N757 1.990 . S
Li707 O765 1.961 . S
Li707 O766 1.970 . S
Li707 O767 1.956 . S
C708 C710 1.348 . S
C708 C711 1.356 . S
C708 O764 1.325 . S
N709 C712 1.314 . S
N709 C713 1.279 . S
C710 C708 1.348 . S
C710 C712 1.353 . S
C710 H768 0.929 . S
C711 C708 1.356 . S
C711 C713 1.358 . S
C711 H769 0.930 . S
C712 N709 1.314 . S
C712 C710 1.353 . S
C712 H770 0.930 . S
C713 N709 1.279 . S
C713 C711 1.358 . S
C713 H771 0.930 . S
C714 C717 1.348 . S
C714 C718 1.356 . S
C714 O765 1.325 . S
C715 N716 1.279 . S
C715 C718 1.358 . S
C715 H772 0.930 . S
N716 C715 1.279 . S
N716 C719 1.314 . S
C717 C714 1.348 . S
C717 C719 1.353 . S
C717 H773 0.929 . S
C718 C714 1.356 . S
C718 C715 1.358 . S
C718 H774 0.930 . S
C719 N716 1.314 . S
C719 C717 1.353 . S
C719 H775 0.930 . S
C720 N721 1.314 . S
C720 C725 1.353 . S
C720 H726 0.930 . S
N721 Li704 1.990 . S
N721 C720 1.314 . S
N721 C723 1.279 . S
C722 C723 1.358 . S
C722 C724 1.356 . S
C722 H776 0.930 . S
C723 N721 1.279 . S
C723 C722 1.358 . S
C723 H727 0.930 . S
C724 C722 1.356 . S
C724 C725 1.348 . S
C725 C720 1.353 . S
C725 C724 1.348 . S
C725 H777 0.929 . S
H726 C720 0.930 . S
H727 C723 0.930 . S
C728 N729 1.314 . S
C728 C730 1.353 . S
C728 H734 0.930 . S
N729 Li705 1.990 . S
N729 C728 1.314 . S
N729 C732 1.279 . S
C730 C728 1.353 . S
C730 C733 1.348 . S
C730 H778 0.929 . S
C731 C732 1.358 . S
C731 C733 1.356 . S
C731 H779 0.930 . S
C732 N729 1.279 . S
C732 C731 1.358 . S
C732 H735 0.930 . S
C733 C730 1.348 . S
C733 C731 1.356 . S
H734 C728 0.930 . S
H735 C732 0.930 . S
C736 C738 1.348 . S
C736 C739 1.356 . S
C736 O766 1.325 . S
N737 C740 1.314 . S
N737 C741 1.279 . S
C738 C736 1.348 . S
C738 C740 1.353 . S
C738 H780 0.929 . S
C739 C736 1.356 . S
C739 C741 1.358 . S
C739 H781 0.930 . S
C740 N737 1.314 . S
C740 C738 1.353 . S
C740 H782 0.930 . S
C741 N737 1.279 . S
C741 C739 1.358 . S
C741 H783 0.930 . S
C742 C743 1.348 . S
C742 C744 1.356 . S
C742 O767 1.325 . S
C743 C742 1.348 . S
C743 C745 1.353 . S
C743 H784 0.929 . S
C744 C742 1.356 . S
C744 C746 1.358 . S
C744 H785 0.930 . S
C745 C743 1.353 . S
C745 N747 1.314 . S
C745 H786 0.930 . S
C746 C744 1.358 . S
C746 N747 1.279 . S
C746 H787 0.930 . S
N747 C745 1.314 . S
N747 C746 1.279 . S
C748 C750 1.353 . S
C748 N751 1.314 . S
C748 H754 0.930 . S
C749 N751 1.279 . S
C749 C752 1.358 . S
C749 H755 0.930 . S
C750 C748 1.353 . S
C750 C753 1.348 . S
C750 H788 0.929 . S
N751 Li706 1.990 . S
N751 C748 1.314 . S
N751 C749 1.279 . S
C752 C749 1.358 . S
C752 C753 1.356 . S
C752 H789 0.930 . S
C753 C750 1.348 . S
C753 C752 1.356 . S
H754 C748 0.930 . S
H755 C749 0.930 . S
C756 N757 1.314 . S
C756 C758 1.353 . S
C756 H762 0.930 . S
N757 Li707 1.990 . S
N757 C756 1.314 . S
N757 C760 1.279 . S
C758 C756 1.353 . S
C758 C761 1.348 . S
C758 H790 0.929 . S
C759 C760 1.358 . S
C759 C761 1.356 . S
C759 H791 0.930 . S
C760 N757 1.279 . S
C760 C759 1.358 . S
C760 H763 0.930 . S
C761 C758 1.348 . S
C761 C759 1.356 . S
H762 C756 0.930 . S
H763 C760 0.930 . S
O764 Li704 1.956 . S
O764 Li705 1.970 . S
O764 Li706 1.961 . S
O764 C708 1.325 . S
O765 Li704 1.970 . S
O765 Li705 1.956 . S
O765 Li707 1.961 . S
O765 C714 1.325 . S
O766 Li704 1.961 . S
O766 Li706 1.956 . S
O766 Li707 1.970 . S
O766 C736 1.325 . S
O767 Li705 1.961 . S
O767 Li706 1.970 . S
O767 Li707 1.956 . S
O767 C742 1.325 . S
H768 C710 0.929 . S
H769 C711 0.930 . S
H770 C712 0.930 . S
H771 C713 0.930 . S
H772 C715 0.930 . S
H773 C717 0.929 . S
H774 C718 0.930 . S
H775 C719 0.930 . S
H776 C722 0.930 . S
H777 C725 0.929 . S
H778 C730 0.929 . S
H779 C731 0.930 . S
H780 C738 0.929 . S
H781 C739 0.930 . S
H782 C740 0.930 . S
H783 C741 0.930 . S
H784 C743 0.929 . S
H785 C744 0.930 . S
H786 C745 0.930 . S
H787 C746 0.930 . S
H788 C750 0.929 . S
H789 C752 0.930 . S
H790 C758 0.929 . S
H791 C759 0.930 . S
Li792 N809 1.990 . S
Li792 O852 1.956 . S
Li792 O853 1.970 . S
Li792 O854 1.961 . S
Li793 N817 1.990 . S
Li793 O852 1.970 . S
Li793 O853 1.956 . S
Li793 O855 1.961 . S
Li794 N839 1.990 . S
Li794 O852 1.961 . S
Li794 O854 1.956 . S
Li794 O855 1.970 . S
Li795 N845 1.990 . S
Li795 O853 1.961 . S
Li795 O854 1.970 . S
Li795 O855 1.956 . S
C796 C798 1.348 . S
C796 C799 1.356 . S
C796 O852 1.325 . S
N797 C800 1.314 . S
N797 C801 1.279 . S
C798 C796 1.348 . S
C798 C800 1.353 . S
C798 H856 0.929 . S
C799 C796 1.356 . S
C799 C801 1.358 . S
C799 H857 0.930 . S
C800 N797 1.314 . S
C800 C798 1.353 . S
C800 H858 0.930 . S
C801 N797 1.279 . S
C801 C799 1.358 . S
C801 H859 0.930 . S
C802 C805 1.348 . S
C802 C806 1.356 . S
C802 O853 1.325 . S
C803 N804 1.279 . S
C803 C806 1.358 . S
C803 H860 0.930 . S
N804 C803 1.279 . S
N804 C807 1.314 . S
C805 C802 1.348 . S
C805 C807 1.353 . S
C805 H861 0.929 . S
C806 C802 1.356 . S
C806 C803 1.358 . S
C806 H862 0.930 . S
C807 N804 1.314 . S
C807 C805 1.353 . S
C807 H863 0.930 . S
C808 N809 1.314 . S
C808 C813 1.353 . S
C808 H814 0.930 . S
N809 Li792 1.990 . S
N809 C808 1.314 . S
N809 C811 1.279 . S
C810 C811 1.358 . S
C810 C812 1.356 . S
C810 H864 0.930 . S
C811 N809 1.279 . S
C811 C810 1.358 . S
C811 H815 0.930 . S
C812 C810 1.356 . S
C812 C813 1.348 . S
C813 C808 1.353 . S
C813 C812 1.348 . S
C813 H865 0.929 . S
H814 C808 0.930 . S
H815 C811 0.930 . S
C816 N817 1.314 . S
C816 C818 1.353 . S
C816 H822 0.930 . S
N817 Li793 1.990 . S
N817 C816 1.314 . S
N817 C820 1.279 . S
C818 C816 1.353 . S
C818 C821 1.348 . S
C818 H866 0.929 . S
C819 C820 1.358 . S
C819 C821 1.356 . S
C819 H867 0.930 . S
C820 N817 1.279 . S
C820 C819 1.358 . S
C820 H823 0.930 . S
C821 C818 1.348 . S
C821 C819 1.356 . S
H822 C816 0.930 . S
H823 C820 0.930 . S
C824 C826 1.348 . S
C824 C827 1.356 . S
C824 O854 1.325 . S
N825 C828 1.314 . S
N825 C829 1.279 . S
C826 C824 1.348 . S
C826 C828 1.353 . S
C826 H868 0.929 . S
C827 C824 1.356 . S
C827 C829 1.358 . S
C827 H869 0.930 . S
C828 N825 1.314 . S
C828 C826 1.353 . S
C828 H870 0.930 . S
C829 N825 1.279 . S
C829 C827 1.358 . S
C829 H871 0.930 . S
C830 C831 1.348 . S
C830 C832 1.356 . S
C830 O855 1.325 . S
C831 C830 1.348 . S
C831 C833 1.353 . S
C831 H872 0.929 . S
C832 C830 1.356 . S
C832 C834 1.358 . S
C832 H873 0.930 . S
C833 C831 1.353 . S
C833 N835 1.314 . S
C833 H874 0.930 . S
C834 C832 1.358 . S
C834 N835 1.279 . S
C834 H875 0.930 . S
N835 C833 1.314 . S
N835 C834 1.279 . S
C836 C838 1.353 . S
C836 N839 1.314 . S
C836 H842 0.930 . S
C837 N839 1.279 . S
C837 C840 1.358 . S
C837 H843 0.930 . S
C838 C836 1.353 . S
C838 C841 1.348 . S
C838 H876 0.929 . S
N839 Li794 1.990 . S
N839 C836 1.314 . S
N839 C837 1.279 . S
C840 C837 1.358 . S
C840 C841 1.356 . S
C840 H877 0.930 . S
C841 C838 1.348 . S
C841 C840 1.356 . S
H842 C836 0.930 . S
H843 C837 0.930 . S
C844 N845 1.314 . S
C844 C846 1.353 . S
C844 H850 0.930 . S
N845 Li795 1.990 . S
N845 C844 1.314 . S
N845 C848 1.279 . S
C846 C844 1.353 . S
C846 C849 1.348 . S
C846 H878 0.929 . S
C847 C848 1.358 . S
C847 C849 1.356 . S
C847 H879 0.930 . S
C848 N845 1.279 . S
C848 C847 1.358 . S
C848 H851 0.930 . S
C849 C846 1.348 . S
C849 C847 1.356 . S
H850 C844 0.930 . S
H851 C848 0.930 . S
O852 Li792 1.956 . S
O852 Li793 1.970 . S
O852 Li794 1.961 . S
O852 C796 1.325 . S
O853 Li792 1.970 . S
O853 Li793 1.956 . S
O853 Li795 1.961 . S
O853 C802 1.325 . S
O854 Li792 1.961 . S
O854 Li794 1.956 . S
O854 Li795 1.970 . S
O854 C824 1.325 . S
O855 Li793 1.961 . S
O855 Li794 1.970 . S
O855 Li795 1.956 . S
O855 C830 1.325 . S
H856 C798 0.929 . S
H857 C799 0.930 . S
H858 C800 0.930 . S
H859 C801 0.930 . S
H860 C803 0.930 . S
H861 C805 0.929 . S
H862 C806 0.930 . S
H863 C807 0.930 . S
H864 C810 0.930 . S
H865 C813 0.929 . S
H866 C818 0.929 . S
H867 C819 0.930 . S
H868 C826 0.929 . S
H869 C827 0.930 . S
H870 C828 0.930 . S
H871 C829 0.930 . S
H872 C831 0.929 . S
H873 C832 0.930 . S
H874 C833 0.930 . S
H875 C834 0.930 . S
H876 C838 0.929 . S
H877 C840 0.930 . S
H878 C846 0.929 . S
H879 C847 0.930 . S
Li880 N897 1.990 . S
Li880 O940 1.956 . S
Li880 O941 1.970 . S
Li880 O942 1.961 . S
Li881 N905 1.990 . S
Li881 O940 1.970 . S
Li881 O941 1.956 . S
Li881 O943 1.921 1_545 S
Li882 N927 1.990 1_545 S
Li882 O940 1.961 . S
Li882 O942 1.956 . S
Li882 O943 1.971 1_545 S
Li883 N933 1.990 . S
Li883 O941 1.961 . S
Li883 O942 1.970 . S
Li883 O943 1.913 1_545 S
C884 C886 1.348 . S
C884 C887 1.356 . S
C884 O940 1.325 . S
N885 C888 1.314 . S
N885 C889 1.279 . S
C886 C884 1.348 . S
C886 C888 1.353 . S
C886 H944 0.929 . S
C887 C884 1.356 . S
C887 C889 1.358 . S
C887 H945 0.930 . S
C888 N885 1.314 . S
C888 C886 1.353 . S
C888 H946 0.930 . S
C889 N885 1.279 . S
C889 C887 1.358 . S
C889 H947 0.930 . S
C890 C893 1.348 . S
C890 C894 1.356 . S
C890 O941 1.325 . S
C891 N892 1.279 . S
C891 C894 1.358 . S
C891 H948 0.930 . S
N892 C891 1.279 . S
N892 C895 1.314 . S
C893 C890 1.348 . S
C893 C895 1.353 . S
C893 H949 0.929 . S
C894 C890 1.356 . S
C894 C891 1.358 . S
C894 H950 0.930 . S
C895 N892 1.314 . S
C895 C893 1.353 . S
C895 H951 0.930 . S
C896 N897 1.314 . S
C896 C901 1.353 . S
C896 H902 0.930 . S
N897 Li880 1.990 . S
N897 C896 1.314 . S
N897 C899 1.279 . S
C898 C899 1.358 . S
C898 C900 1.356 . S
C898 H952 0.930 . S
C899 N897 1.279 . S
C899 C898 1.358 . S
C899 H903 0.930 . S
C900 C898 1.356 . S
C900 C901 1.348 . S
C901 C896 1.353 . S
C901 C900 1.348 . S
C901 H953 0.929 . S
H902 C896 0.930 . S
H903 C899 0.930 . S
C904 N905 1.314 . S
C904 C906 1.353 . S
C904 H910 0.930 1_545 S
N905 Li881 1.990 . S
N905 C904 1.314 . S
N905 C908 1.279 . S
C906 C904 1.353 . S
C906 C909 1.348 . S
C906 H954 0.929 1_545 S
C907 C908 1.358 . S
C907 C909 1.356 . S
C907 H955 0.930 . S
C908 N905 1.279 . S
C908 C907 1.358 . S
C908 H911 0.930 . S
C909 C906 1.348 . S
C909 C907 1.356 . S
H910 C904 0.930 1_565 S
H911 C908 0.930 . S
C912 C914 1.348 . S
C912 C915 1.356 . S
C912 O942 1.325 . S
N913 C916 1.314 . S
N913 C917 1.279 . S
C914 C912 1.348 . S
C914 C916 1.353 . S
C914 H956 0.929 . S
C915 C912 1.356 . S
C915 C917 1.358 . S
C915 H957 0.930 . S
C916 N913 1.314 . S
C916 C914 1.353 . S
C916 H958 0.930 . S
C917 N913 1.279 . S
C917 C915 1.358 . S
C917 H959 0.930 . S
C918 C919 1.348 . S
C918 C920 1.356 . S
C918 O943 1.367 . S
C919 C918 1.348 . S
C919 C921 1.353 . S
C919 H960 0.929 . S
C920 C918 1.356 . S
C920 C922 1.358 . S
C920 H961 0.930 . S
C921 C919 1.353 . S
C921 N923 1.314 . S
C921 H962 0.930 . S
C922 C920 1.358 . S
C922 N923 1.279 . S
C922 H963 0.930 . S
N923 C921 1.314 . S
N923 C922 1.279 . S
C924 C926 1.353 . S
C924 N927 1.314 . S
C924 H930 0.930 . S
C925 N927 1.279 . S
C925 C928 1.358 . S
C925 H931 0.930 . S
C926 C924 1.353 . S
C926 C929 1.348 . S
C926 H964 0.929 . S
N927 Li882 1.990 1_565 S
N927 C924 1.314 . S
N927 C925 1.279 . S
C928 C925 1.358 . S
C928 C929 1.356 . S
C928 H965 0.930 . S
C929 C926 1.348 . S
C929 C928 1.356 . S
H930 C924 0.930 . S
H931 C925 0.930 . S
C932 N933 1.314 . S
C932 C934 1.353 . S
C932 H938 0.930 . S
N933 Li883 1.990 . S
N933 C932 1.314 . S
N933 C936 1.279 1_545 S
C934 C932 1.353 . S
C934 C937 1.348 . S
C934 H966 0.929 . S
C935 C936 1.358 . S
C935 C937 1.356 1_565 S
C935 H967 0.930 . S
C936 N933 1.279 1_565 S
C936 C935 1.358 . S
C936 H939 0.930 . S
C937 C934 1.348 . S
C937 C935 1.356 1_545 S
H938 C932 0.930 . S
H939 C936 0.930 . S
O940 Li880 1.956 . S
O940 Li881 1.970 . S
O940 Li882 1.961 . S
O940 C884 1.325 . S
O941 Li880 1.970 . S
O941 Li881 1.956 . S
O941 Li883 1.961 . S
O941 C890 1.325 . S
O942 Li880 1.961 . S
O942 Li882 1.956 . S
O942 Li883 1.970 . S
O942 C912 1.325 . S
O943 Li881 1.921 1_565 S
O943 Li882 1.971 1_565 S
O943 Li883 1.913 1_565 S
O943 C918 1.367 . S
H944 C886 0.929 . S
H945 C887 0.930 . S
H946 C888 0.930 . S
H947 C889 0.930 . S
H948 C891 0.930 . S
H949 C893 0.929 . S
H950 C894 0.930 . S
H951 C895 0.930 . S
H952 C898 0.930 . S
H953 C901 0.929 . S
H954 C906 0.929 1_565 S
H955 C907 0.930 . S
H956 C914 0.929 . S
H957 C915 0.930 . S
H958 C916 0.930 . S
H959 C917 0.930 . S
H960 C919 0.929 . S
H961 C920 0.930 . S
H962 C921 0.930 . S
H963 C922 0.930 . S
H964 C926 0.929 . S
H965 C928 0.930 . S
H966 C934 0.929 . S
H967 C935 0.930 . S
Li968 N985 1.990 . S
Li968 O1028 1.956 . S
Li968 O1029 1.970 . S
Li968 O1030 1.961 . S
Li969 N993 1.990 . S
Li969 O1028 1.970 . S
Li969 O1029 1.956 . S
Li969 O1031 1.961 . S
Li970 N1015 1.990 . S
Li970 O1028 1.961 . S
Li970 O1030 1.956 . S
Li970 O1031 1.970 . S
Li971 N1021 1.990 . S
Li971 O1029 1.961 . S
Li971 O1030 1.970 . S
Li971 O1031 1.956 . S
C972 C974 1.348 . S
C972 C975 1.356 . S
C972 O1028 1.325 . S
N973 C976 1.314 . S
N973 C977 1.279 . S
C974 C972 1.348 . S
C974 C976 1.353 . S
C974 H1032 0.929 . S
C975 C972 1.356 . S
C975 C977 1.358 . S
C975 H1033 0.930 . S
C976 N973 1.314 . S
C976 C974 1.353 . S
C976 H1034 0.930 . S
C977 N973 1.279 . S
C977 C975 1.358 . S
C977 H1035 0.930 . S
C978 C981 1.348 . S
C978 C982 1.356 . S
C978 O1029 1.325 . S
C979 N980 1.279 . S
C979 C982 1.358 . S
C979 H1036 0.930 . S
N980 C979 1.279 . S
N980 C983 1.314 . S
C981 C978 1.348 . S
C981 C983 1.353 . S
C981 H1037 0.929 . S
C982 C978 1.356 . S
C982 C979 1.358 . S
C982 H1038 0.930 . S
C983 N980 1.314 . S
C983 C981 1.353 . S
C983 H1039 0.930 . S
C984 N985 1.314 . S
C984 C989 1.353 . S
C984 H990 0.930 . S
N985 Li968 1.990 . S
N985 C984 1.314 . S
N985 C987 1.279 . S
C986 C987 1.358 . S
C986 C988 1.356 . S
C986 H1040 0.930 . S
C987 N985 1.279 . S
C987 C986 1.358 . S
C987 H991 0.930 . S
C988 C986 1.356 . S
C988 C989 1.348 . S
C989 C984 1.353 . S
C989 C988 1.348 . S
C989 H1041 0.929 . S
H990 C984 0.930 . S
H991 C987 0.930 . S
C992 N993 1.314 . S
C992 C994 1.353 . S
C992 H998 0.930 . S
N993 Li969 1.990 . S
N993 C992 1.314 . S
N993 C996 1.279 . S
C994 C992 1.353 . S
C994 C997 1.348 . S
C994 H1042 0.929 . S
C995 C996 1.358 . S
C995 C997 1.356 . S
C995 H1043 0.930 . S
C996 N993 1.279 . S
C996 C995 1.358 . S
C996 H999 0.930 . S
C997 C994 1.348 . S
C997 C995 1.356 . S
H998 C992 0.930 . S
H999 C996 0.930 . S
C1000 C1002 1.348 . S
C1000 C1003 1.356 . S
C1000 O1030 1.325 . S
N1001 C1004 1.314 . S
N1001 C1005 1.279 1_556 S
C1002 C1000 1.348 . S
C1002 C1004 1.353 1_554 S
C1002 H1044 0.929 . S
C1003 C1000 1.356 . S
C1003 C1005 1.358 . S
C1003 H1045 0.930 . S
C1004 N1001 1.314 . S
C1004 C1002 1.353 1_556 S
C1004 H1046 0.930 . S
C1005 N1001 1.279 1_554 S
C1005 C1003 1.358 . S
C1005 H1047 0.930 . S
C1006 C1007 1.348 . S
C1006 C1008 1.356 . S
C1006 O1031 1.325 . S
C1007 C1006 1.348 . S
C1007 C1009 1.353 . S
C1007 H1048 0.929 . S
C1008 C1006 1.356 . S
C1008 C1010 1.358 . S
C1008 H1049 0.930 . S
C1009 C1007 1.353 . S
C1009 N1011 1.314 . S
C1009 H1050 0.930 . S
C1010 C1008 1.358 . S
C1010 N1011 1.279 . S
C1010 H1051 0.930 . S
N1011 C1009 1.314 . S
N1011 C1010 1.279 . S
C1012 C1014 1.353 . S
C1012 N1015 1.314 . S
C1012 H1018 0.930 . S
C1013 N1015 1.279 . S
C1013 C1016 1.358 . S
C1013 H1019 0.930 . S
C1014 C1012 1.353 . S
C1014 C1017 1.348 . S
C1014 H1052 0.929 . S
N1015 Li970 1.990 . S
N1015 C1012 1.314 . S
N1015 C1013 1.279 . S
C1016 C1013 1.358 . S
C1016 C1017 1.356 . S
C1016 H1053 0.930 . S
C1017 C1014 1.348 . S
C1017 C1016 1.356 . S
H1018 C1012 0.930 . S
H1019 C1013 0.930 . S
C1020 N1021 1.314 . S
C1020 C1022 1.353 1_554 S
C1020 H1026 0.930 . S
N1021 Li971 1.990 . S
N1021 C1020 1.314 . S
N1021 C1024 1.279 . S
C1022 C1020 1.353 1_556 S
C1022 C1025 1.348 . S
C1022 H1054 0.929 . S
C1023 C1024 1.358 1_556 S
C1023 C1025 1.356 . S
C1023 H1055 0.930 . S
C1024 N1021 1.279 . S
C1024 C1023 1.358 1_554 S
C1024 H1027 0.930 . S
C1025 C1022 1.348 . S
C1025 C1023 1.356 . S
H1026 C1020 0.930 . S
H1027 C1024 0.930 . S
O1028 Li968 1.956 . S
O1028 Li969 1.970 . S
O1028 Li970 1.961 . S
O1028 C972 1.325 . S
O1029 Li968 1.970 . S
O1029 Li969 1.956 . S
O1029 Li971 1.961 . S
O1029 C978 1.325 . S
O1030 Li968 1.961 . S
O1030 Li970 1.956 . S
O1030 Li971 1.970 . S
O1030 C1000 1.325 . S
O1031 Li969 1.961 . S
O1031 Li970 1.970 . S
O1031 Li971 1.956 . S
O1031 C1006 1.325 . S
H1032 C974 0.929 . S
H1033 C975 0.930 . S
H1034 C976 0.930 . S
H1035 C977 0.930 . S
H1036 C979 0.930 . S
H1037 C981 0.929 . S
H1038 C982 0.930 . S
H1039 C983 0.930 . S
H1040 C986 0.930 . S
H1041 C989 0.929 . S
H1042 C994 0.929 . S
H1043 C995 0.930 . S
H1044 C1002 0.929 . S
H1045 C1003 0.930 . S
H1046 C1004 0.930 . S
H1047 C1005 0.930 . S
H1048 C1007 0.929 . S
H1049 C1008 0.930 . S
H1050 C1009 0.930 . S
H1051 C1010 0.930 . S
H1052 C1014 0.929 . S
H1053 C1016 0.930 . S
H1054 C1022 0.929 . S
H1055 C1023 0.930 . S
Li1056 N1073 1.990 . S
Li1056 O1116 1.956 . S
Li1056 O1117 1.970 . S
Li1056 O1118 1.961 . S
Li1057 N1081 1.990 . S
Li1057 O1116 1.970 . S
Li1057 O1117 1.956 . S
Li1057 O1119 1.961 . S
Li1058 N1103 1.990 . S
Li1058 O1116 1.961 . S
Li1058 O1118 1.956 . S
Li1058 O1119 1.970 . S
Li1059 N1109 1.990 . S
Li1059 O1117 1.961 . S
Li1059 O1118 1.970 . S
Li1059 O1119 1.956 . S
C1060 C1062 1.348 . S
C1060 C1063 1.356 . S
C1060 O1116 1.325 . S
N1061 C1064 1.314 . S
N1061 C1065 1.279 . S
C1062 C1060 1.348 . S
C1062 C1064 1.353 . S
C1062 H1120 0.929 . S
C1063 C1060 1.356 . S
C1063 C1065 1.358 . S
C1063 H1121 0.930 . S
C1064 N1061 1.314 . S
C1064 C1062 1.353 . S
C1064 H1122 0.930 . S
C1065 N1061 1.279 . S
C1065 C1063 1.358 . S
C1065 H1123 0.930 . S
C1066 C1069 1.348 . S
C1066 C1070 1.356 . S
C1066 O1117 1.325 . S
C1067 N1068 1.279 . S
C1067 C1070 1.358 . S
C1067 H1124 0.930 . S
N1068 C1067 1.279 . S
N1068 C1071 1.314 . S
C1069 C1066 1.348 . S
C1069 C1071 1.353 . S
C1069 H1125 0.929 . S
C1070 C1066 1.356 . S
C1070 C1067 1.358 . S
C1070 H1126 0.930 . S
C1071 N1068 1.314 . S
C1071 C1069 1.353 . S
C1071 H1127 0.930 . S
C1072 N1073 1.314 . S
C1072 C1077 1.353 . S
C1072 H1078 0.930 . S
N1073 Li1056 1.990 . S
N1073 C1072 1.314 . S
N1073 C1075 1.279 . S
C1074 C1075 1.358 . S
C1074 C1076 1.356 . S
C1074 H1128 0.930 . S
C1075 N1073 1.279 . S
C1075 C1074 1.358 . S
C1075 H1079 0.930 . S
C1076 C1074 1.356 . S
C1076 C1077 1.348 . S
C1077 C1072 1.353 . S
C1077 C1076 1.348 . S
C1077 H1129 0.929 . S
H1078 C1072 0.930 . S
H1079 C1075 0.930 . S
C1080 N1081 1.314 . S
C1080 C1082 1.353 . S
C1080 H1086 0.930 . S
N1081 Li1057 1.990 . S
N1081 C1080 1.314 . S
N1081 C1084 1.279 . S
C1082 C1080 1.353 . S
C1082 C1085 1.348 . S
C1082 H1130 0.929 . S
C1083 C1084 1.358 . S
C1083 C1085 1.356 . S
C1083 H1131 0.930 . S
C1084 N1081 1.279 . S
C1084 C1083 1.358 . S
C1084 H1087 0.930 . S
C1085 C1082 1.348 . S
C1085 C1083 1.356 . S
H1086 C1080 0.930 . S
H1087 C1084 0.930 . S
C1088 C1090 1.348 . S
C1088 C1091 1.356 . S
C1088 O1118 1.325 . S
N1089 C1092 1.314 . S
N1089 C1093 1.279 . S
C1090 C1088 1.348 . S
C1090 C1092 1.353 . S
C1090 H1132 0.929 . S
C1091 C1088 1.356 . S
C1091 C1093 1.358 . S
C1091 H1133 0.930 . S
C1092 N1089 1.314 . S
C1092 C1090 1.353 . S
C1092 H1134 0.930 . S
C1093 N1089 1.279 . S
C1093 C1091 1.358 . S
C1093 H1135 0.930 . S
C1094 C1095 1.348 . S
C1094 C1096 1.356 . S
C1094 O1119 1.325 . S
C1095 C1094 1.348 . S
C1095 C1097 1.353 . S
C1095 H1136 0.929 . S
C1096 C1094 1.356 . S
C1096 C1098 1.358 . S
C1096 H1137 0.930 . S
C1097 C1095 1.353 . S
C1097 N1099 1.314 . S
C1097 H1138 0.930 . S
C1098 C1096 1.358 . S
C1098 N1099 1.279 . S
C1098 H1139 0.930 . S
N1099 C1097 1.314 . S
N1099 C1098 1.279 . S
C1100 C1102 1.353 . S
C1100 N1103 1.314 . S
C1100 H1106 0.930 . S
C1101 N1103 1.279 . S
C1101 C1104 1.358 . S
C1101 H1107 0.930 . S
C1102 C1100 1.353 . S
C1102 C1105 1.348 . S
C1102 H1140 0.929 . S
N1103 Li1058 1.990 . S
N1103 C1100 1.314 . S
N1103 C1101 1.279 . S
C1104 C1101 1.358 . S
C1104 C1105 1.356 . S
C1104 H1141 0.930 . S
C1105 C1102 1.348 . S
C1105 C1104 1.356 . S
H1106 C1100 0.930 . S
H1107 C1101 0.930 . S
C1108 N1109 1.314 . S
C1108 C1110 1.353 . S
C1108 H1114 0.930 . S
N1109 Li1059 1.990 . S
N1109 C1108 1.314 . S
N1109 C1112 1.279 . S
C1110 C1108 1.353 . S
C1110 C1113 1.353 . S
C1110 H1142 0.932 . S
C1111 C1112 1.358 . S
C1111 C1113 1.363 . S
C1111 H1143 0.930 . S
C1112 N1109 1.279 . S
C1112 C1111 1.358 . S
C1112 H1115 0.930 . S
C1113 C1110 1.353 . S
C1113 C1111 1.363 . S
H1114 C1108 0.930 . S
H1115 C1112 0.930 . S
O1116 Li1056 1.956 . S
O1116 Li1057 1.970 . S
O1116 Li1058 1.961 . S
O1116 C1060 1.325 . S
O1117 Li1056 1.970 . S
O1117 Li1057 1.956 . S
O1117 Li1059 1.961 . S
O1117 C1066 1.325 . S
O1118 Li1056 1.961 . S
O1118 Li1058 1.956 . S
O1118 Li1059 1.970 . S
O1118 C1088 1.325 . S
O1119 Li1057 1.961 . S
O1119 Li1058 1.970 . S
O1119 Li1059 1.956 . S
O1119 C1094 1.325 . S
H1120 C1062 0.929 . S
H1121 C1063 0.930 . S
H1122 C1064 0.930 . S
H1123 C1065 0.930 . S
H1124 C1067 0.930 . S
H1125 C1069 0.929 . S
H1126 C1070 0.930 . S
H1127 C1071 0.930 . S
H1128 C1074 0.930 . S
H1129 C1077 0.929 . S
H1130 C1082 0.929 . S
H1131 C1083 0.930 . S
H1132 C1090 0.929 . S
H1133 C1091 0.930 . S
H1134 C1092 0.930 . S
H1135 C1093 0.930 . S
H1136 C1095 0.929 . S
H1137 C1096 0.930 . S
H1138 C1097 0.930 . S
H1139 C1098 0.930 . S
H1140 C1102 0.929 . S
H1141 C1104 0.930 . S
H1142 C1110 0.932 . S
H1143 C1111 0.930 . S
Li1144 N1161 1.990 . S
Li1144 O1204 1.956 . S
Li1144 O1205 1.970 . S
Li1144 O1206 1.961 . S
Li1145 N1169 1.990 . S
Li1145 O1204 1.970 . S
Li1145 O1205 1.956 . S
Li1145 O1207 1.961 1_554 S
Li1146 N1191 1.990 1_554 S
Li1146 O1204 1.961 . S
Li1146 O1206 1.956 . S
Li1146 O1207 1.970 1_554 S
Li1147 N1197 1.990 . S
Li1147 O1205 1.961 . S
Li1147 O1206 1.970 . S
Li1147 O1207 1.956 1_554 S
C1148 C1150 1.348 . S
C1148 C1151 1.356 . S
C1148 O1204 1.325 . S
N1149 C1152 1.314 . S
N1149 C1153 1.279 . S
C1150 C1148 1.348 . S
C1150 C1152 1.353 . S
C1150 H1208 0.929 . S
C1151 C1148 1.356 . S
C1151 C1153 1.358 . S
C1151 H1209 0.930 . S
C1152 N1149 1.314 . S
C1152 C1150 1.353 . S
C1152 H1210 0.930 . S
C1153 N1149 1.279 . S
C1153 C1151 1.358 . S
C1153 H1211 0.930 . S
C1154 C1157 1.348 . S
C1154 C1158 1.356 . S
C1154 O1205 1.325 . S
C1155 N1156 1.279 . S
C1155 C1158 1.358 . S
C1155 H1212 0.930 . S
N1156 C1155 1.279 . S
N1156 C1159 1.314 . S
C1157 C1154 1.348 . S
C1157 C1159 1.353 . S
C1157 H1213 0.929 . S
C1158 C1154 1.356 . S
C1158 C1155 1.358 . S
C1158 H1214 0.930 . S
C1159 N1156 1.314 . S
C1159 C1157 1.353 . S
C1159 H1215 0.930 . S
C1160 N1161 1.314 . S
C1160 C1165 1.353 . S
C1160 H1166 0.930 . S
N1161 Li1144 1.990 . S
N1161 C1160 1.314 . S
N1161 C1163 1.279 . S
C1162 C1163 1.358 . S
C1162 C1164 1.356 . S
C1162 H1216 0.930 . S
C1163 N1161 1.279 . S
C1163 C1162 1.358 . S
C1163 H1167 0.930 . S
C1164 C1162 1.356 . S
C1164 C1165 1.348 . S
C1165 C1160 1.353 . S
C1165 C1164 1.348 . S
C1165 H1217 0.929 . S
H1166 C1160 0.930 . S
H1167 C1163 0.930 . S
C1168 N1169 1.314 . S
C1168 C1170 1.353 . S
C1168 H1174 0.930 1_554 S
N1169 Li1145 1.990 . S
N1169 C1168 1.314 . S
N1169 C1172 1.279 . S
C1170 C1168 1.353 . S
C1170 C1173 1.348 . S
C1170 H1218 0.929 1_554 S
C1171 C1172 1.358 . S
C1171 C1173 1.356 . S
C1171 H1219 0.930 . S
C1172 N1169 1.279 . S
C1172 C1171 1.358 . S
C1172 H1175 0.930 . S
C1173 C1170 1.348 . S
C1173 C1171 1.356 . S
H1174 C1168 0.930 1_556 S
H1175 C1172 0.930 . S
C1176 C1178 1.348 . S
C1176 C1179 1.356 . S
C1176 O1206 1.325 . S
N1177 C1180 1.314 . S
N1177 C1181 1.279 . S
C1178 C1176 1.348 . S
C1178 C1180 1.353 . S
C1178 H1220 0.929 . S
C1179 C1176 1.356 . S
C1179 C1181 1.358 . S
C1179 H1221 0.930 . S
C1180 N1177 1.314 . S
C1180 C1178 1.353 . S
C1180 H1222 0.930 . S
C1181 N1177 1.279 . S
C1181 C1179 1.358 . S
C1181 H1223 0.930 . S
C1182 C1183 1.348 . S
C1182 C1184 1.356 . S
C1182 O1207 1.325 . S
C1183 C1182 1.348 . S
C1183 C1185 1.353 . S
C1183 H1224 0.929 . S
C1184 C1182 1.356 . S
C1184 C1186 1.358 . S
C1184 H1225 0.930 . S
C1185 C1183 1.353 . S
C1185 N1187 1.314 . S
C1185 H1226 0.930 . S
C1186 C1184 1.358 . S
C1186 N1187 1.279 . S
C1186 H1227 0.930 . S
N1187 C1185 1.314 . S
N1187 C1186 1.279 . S
C1188 C1190 1.353 . S
C1188 N1191 1.314 . S
C1188 H1194 0.930 . S
C1189 N1191 1.279 . S
C1189 C1192 1.358 . S
C1189 H1195 0.930 . S
C1190 C1188 1.353 . S
C1190 C1193 1.348 . S
C1190 H1228 0.929 . S
N1191 Li1146 1.990 1_556 S
N1191 C1188 1.314 . S
N1191 C1189 1.279 . S
C1192 C1189 1.358 . S
C1192 C1193 1.356 . S
C1192 H1229 0.930 . S
C1193 C1190 1.348 . S
C1193 C1192 1.356 . S
H1194 C1188 0.930 . S
H1195 C1189 0.930 . S
C1196 N1197 1.314 . S
C1196 C1198 1.353 . S
C1196 H1202 0.930 . S
N1197 Li1147 1.990 . S
N1197 C1196 1.314 . S
N1197 C1200 1.236 1_554 S
C1198 C1196 1.353 . S
C1198 C1201 1.348 . S
C1198 H1230 0.929 . S
C1199 C1200 1.357 . S
C1199 C1201 1.356 1_556 S
C1199 H1231 0.930 . S
C1200 N1197 1.236 1_556 S
C1200 C1199 1.357 . S
C1200 H1203 0.983 . S
C1201 C1198 1.348 . S
C1201 C1199 1.356 1_554 S
H1202 C1196 0.930 . S
H1203 C1200 0.983 . S
O1204 Li1144 1.956 . S
O1204 Li1145 1.970 . S
O1204 Li1146 1.961 . S
O1204 C1148 1.325 . S
O1205 Li1144 1.970 . S
O1205 Li1145 1.956 . S
O1205 Li1147 1.961 . S
O1205 C1154 1.325 . S
O1206 Li1144 1.961 . S
O1206 Li1146 1.956 . S
O1206 Li1147 1.970 . S
O1206 C1176 1.325 . S
O1207 Li1145 1.961 1_556 S
O1207 Li1146 1.970 1_556 S
O1207 Li1147 1.956 1_556 S
O1207 C1182 1.325 . S
H1208 C1150 0.929 . S
H1209 C1151 0.930 . S
H1210 C1152 0.930 . S
H1211 C1153 0.930 . S
H1212 C1155 0.930 . S
H1213 C1157 0.929 . S
H1214 C1158 0.930 . S
H1215 C1159 0.930 . S
H1216 C1162 0.930 . S
H1217 C1165 0.929 . S
H1218 C1170 0.929 1_556 S
H1219 C1171 0.930 . S
H1220 C1178 0.929 . S
H1221 C1179 0.930 . S
H1222 C1180 0.930 . S
H1223 C1181 0.930 . S
H1224 C1183 0.929 . S
H1225 C1184 0.930 . S
H1226 C1185 0.930 . S
H1227 C1186 0.930 . S
H1228 C1190 0.929 . S
H1229 C1192 0.930 . S
H1230 C1198 0.929 . S
H1231 C1199 0.930 . S
Li1232 N1249 1.990 . S
Li1232 O1292 1.956 . S
Li1232 O1293 1.970 . S
Li1232 O1294 1.961 . S
Li1233 N1257 1.990 . S
Li1233 O1292 1.970 . S
Li1233 O1293 1.956 . S
Li1233 O1295 1.961 . S
Li1234 N1279 1.990 . S
Li1234 O1292 1.961 . S
Li1234 O1294 1.956 . S
Li1234 O1295 1.970 . S
Li1235 N1285 1.990 . S
Li1235 O1293 1.961 . S
Li1235 O1294 1.970 . S
Li1235 O1295 1.956 . S
C1236 C1238 1.348 . S
C1236 C1239 1.356 . S
C1236 O1292 1.325 . S
N1237 C1240 1.314 . S
N1237 C1241 1.279 . S
C1238 C1236 1.348 . S
C1238 C1240 1.353 . S
C1238 H1296 0.929 . S
C1239 C1236 1.356 . S
C1239 C1241 1.358 . S
C1239 H1297 0.930 . S
C1240 N1237 1.314 . S
C1240 C1238 1.353 . S
C1240 H1298 0.930 . S
C1241 N1237 1.279 . S
C1241 C1239 1.358 . S
C1241 H1299 0.930 . S
C1242 C1245 1.348 . S
C1242 C1246 1.356 . S
C1242 O1293 1.325 . S
C1243 N1244 1.279 . S
C1243 C1246 1.358 . S
C1243 H1300 0.930 . S
N1244 C1243 1.279 . S
N1244 C1247 1.314 . S
C1245 C1242 1.348 . S
C1245 C1247 1.353 . S
C1245 H1301 0.929 . S
C1246 C1242 1.356 . S
C1246 C1243 1.358 . S
C1246 H1302 0.930 . S
C1247 N1244 1.314 . S
C1247 C1245 1.353 . S
C1247 H1303 0.930 . S
C1248 N1249 1.314 . S
C1248 C1253 1.353 . S
C1248 H1254 0.930 . S
N1249 Li1232 1.990 . S
N1249 C1248 1.314 . S
N1249 C1251 1.279 . S
C1250 C1251 1.358 . S
C1250 C1252 1.356 . S
C1250 H1304 0.930 . S
C1251 N1249 1.279 . S
C1251 C1250 1.358 . S
C1251 H1255 0.930 . S
C1252 C1250 1.356 . S
C1252 C1253 1.348 . S
C1253 C1248 1.353 . S
C1253 C1252 1.348 . S
C1253 H1305 0.929 . S
H1254 C1248 0.930 . S
H1255 C1251 0.930 . S
C1256 N1257 1.314 . S
C1256 C1258 1.353 . S
C1256 H1262 0.930 . S
N1257 Li1233 1.990 . S
N1257 C1256 1.314 . S
N1257 C1260 1.279 . S
C1258 C1256 1.353 . S
C1258 C1261 1.348 . S
C1258 H1306 0.929 . S
C1259 C1260 1.358 . S
C1259 C1261 1.356 . S
C1259 H1307 0.930 . S
C1260 N1257 1.279 . S
C1260 C1259 1.358 . S
C1260 H1263 0.930 . S
C1261 C1258 1.348 . S
C1261 C1259 1.356 . S
H1262 C1256 0.930 . S
H1263 C1260 0.930 . S
C1264 C1266 1.348 . S
C1264 C1267 1.356 . S
C1264 O1294 1.325 . S
N1265 C1268 1.314 . S
N1265 C1269 1.279 . S
C1266 C1264 1.348 . S
C1266 C1268 1.353 . S
C1266 H1308 0.929 . S
C1267 C1264 1.356 . S
C1267 C1269 1.358 . S
C1267 H1309 0.930 . S
C1268 N1265 1.314 . S
C1268 C1266 1.353 . S
C1268 H1310 0.930 . S
C1269 N1265 1.279 . S
C1269 C1267 1.358 . S
C1269 H1311 0.930 . S
C1270 C1271 1.348 . S
C1270 C1272 1.356 . S
C1270 O1295 1.325 . S
C1271 C1270 1.348 . S
C1271 C1273 1.353 . S
C1271 H1312 0.929 . S
C1272 C1270 1.356 . S
C1272 C1274 1.358 . S
C1272 H1313 0.930 . S
C1273 C1271 1.353 . S
C1273 N1275 1.314 . S
C1273 H1314 0.930 . S
C1274 C1272 1.358 . S
C1274 N1275 1.279 . S
C1274 H1315 0.930 . S
N1275 C1273 1.314 . S
N1275 C1274 1.279 . S
C1276 C1278 1.353 . S
C1276 N1279 1.314 . S
C1276 H1282 0.930 . S
C1277 N1279 1.279 . S
C1277 C1280 1.358 . S
C1277 H1283 0.930 . S
C1278 C1276 1.353 . S
C1278 C1281 1.348 . S
C1278 H1316 0.929 . S
N1279 Li1234 1.990 . S
N1279 C1276 1.314 . S
N1279 C1277 1.279 . S
C1280 C1277 1.358 . S
C1280 C1281 1.356 . S
C1280 H1317 0.930 . S
C1281 C1278 1.348 . S
C1281 C1280 1.356 . S
H1282 C1276 0.930 . S
H1283 C1277 0.930 . S
C1284 N1285 1.314 . S
C1284 C1286 1.353 . S
C1284 H1290 0.930 . S
N1285 Li1235 1.990 . S
N1285 C1284 1.314 . S
N1285 C1288 1.279 . S
C1286 C1284 1.353 . S
C1286 C1289 1.348 . S
C1286 H1318 0.929 . S
C1287 C1288 1.358 . S
C1287 C1289 1.356 . S
C1287 H1319 0.930 . S
C1288 N1285 1.279 . S
C1288 C1287 1.358 . S
C1288 H1291 0.930 . S
C1289 C1286 1.348 . S
C1289 C1287 1.356 . S
H1290 C1284 0.930 . S
H1291 C1288 0.930 . S
O1292 Li1232 1.956 . S
O1292 Li1233 1.970 . S
O1292 Li1234 1.961 . S
O1292 C1236 1.325 . S
O1293 Li1232 1.970 . S
O1293 Li1233 1.956 . S
O1293 Li1235 1.961 . S
O1293 C1242 1.325 . S
O1294 Li1232 1.961 . S
O1294 Li1234 1.956 . S
O1294 Li1235 1.970 . S
O1294 C1264 1.325 . S
O1295 Li1233 1.961 . S
O1295 Li1234 1.970 . S
O1295 Li1235 1.956 . S
O1295 C1270 1.325 . S
H1296 C1238 0.929 . S
H1297 C1239 0.930 . S
H1298 C1240 0.930 . S
H1299 C1241 0.930 . S
H1300 C1243 0.930 . S
H1301 C1245 0.929 . S
H1302 C1246 0.930 . S
H1303 C1247 0.930 . S
H1304 C1250 0.930 . S
H1305 C1253 0.929 . S
H1306 C1258 0.929 . S
H1307 C1259 0.930 . S
H1308 C1266 0.929 . S
H1309 C1267 0.930 . S
H1310 C1268 0.930 . S
H1311 C1269 0.930 . S
H1312 C1271 0.929 . S
H1313 C1272 0.930 . S
H1314 C1273 0.930 . S
H1315 C1274 0.930 . S
H1316 C1278 0.929 . S
H1317 C1280 0.930 . S
H1318 C1286 0.929 . S
H1319 C1287 0.930 . S
Li1320 N1337 1.990 . S
Li1320 O1380 1.956 . S
Li1320 O1381 1.970 . S
Li1320 O1382 1.961 . S
Li1321 N1345 1.990 . S
Li1321 O1380 1.970 . S
Li1321 O1381 1.956 . S
Li1321 O1383 1.961 . S
Li1322 N1367 1.990 . S
Li1322 O1380 1.961 . S
Li1322 O1382 1.956 . S
Li1322 O1383 1.970 . S
Li1323 N1373 1.990 . S
Li1323 O1381 1.961 . S
Li1323 O1382 1.970 . S
Li1323 O1383 1.956 . S
C1324 C1326 1.348 . S
C1324 C1327 1.356 . S
C1324 O1380 1.325 . S
N1325 C1328 1.314 . S
N1325 C1329 1.279 . S
C1326 C1324 1.348 . S
C1326 C1328 1.353 . S
C1326 H1384 0.929 . S
C1327 C1324 1.356 . S
C1327 C1329 1.358 . S
C1327 H1385 0.930 . S
C1328 N1325 1.314 . S
C1328 C1326 1.353 . S
C1328 H1386 0.930 . S
C1329 N1325 1.279 . S
C1329 C1327 1.358 . S
C1329 H1387 0.930 . S
C1330 C1333 1.348 . S
C1330 C1334 1.356 . S
C1330 O1381 1.325 . S
C1331 N1332 1.279 . S
C1331 C1334 1.358 . S
C1331 H1388 0.930 . S
N1332 C1331 1.279 . S
N1332 C1335 1.314 . S
C1333 C1330 1.348 . S
C1333 C1335 1.353 . S
C1333 H1389 0.929 . S
C1334 C1330 1.356 . S
C1334 C1331 1.358 . S
C1334 H1390 0.930 . S
C1335 N1332 1.314 . S
C1335 C1333 1.353 . S
C1335 H1391 0.930 . S
C1336 N1337 1.314 . S
C1336 C1341 1.353 . S
C1336 H1342 0.930 . S
N1337 Li1320 1.990 . S
N1337 C1336 1.314 . S
N1337 C1339 1.279 . S
C1338 C1339 1.358 . S
C1338 C1340 1.356 . S
C1338 H1392 0.930 . S
C1339 N1337 1.279 . S
C1339 C1338 1.358 . S
C1339 H1343 0.930 . S
C1340 C1338 1.356 . S
C1340 C1341 1.348 . S
C1341 C1336 1.353 . S
C1341 C1340 1.348 . S
C1341 H1393 0.929 . S
H1342 C1336 0.930 . S
H1343 C1339 0.930 . S
C1344 N1345 1.314 . S
C1344 C1346 1.353 . S
C1344 H1350 0.930 . S
N1345 Li1321 1.990 . S
N1345 C1344 1.314 . S
N1345 C1348 1.279 . S
C1346 C1344 1.353 . S
C1346 C1349 1.348 . S
C1346 H1394 0.929 . S
C1347 C1348 1.358 . S
C1347 C1349 1.356 . S
C1347 H1395 0.930 . S
C1348 N1345 1.279 . S
C1348 C1347 1.358 . S
C1348 H1351 0.930 . S
C1349 C1346 1.348 . S
C1349 C1347 1.356 . S
H1350 C1344 0.930 . S
H1351 C1348 0.930 . S
C1352 C1354 1.348 . S
C1352 C1355 1.356 . S
C1352 O1382 1.325 . S
N1353 C1356 1.314 . S
N1353 C1357 1.279 . S
C1354 C1352 1.348 . S
C1354 C1356 1.353 . S
C1354 H1396 0.929 . S
C1355 C1352 1.356 . S
C1355 C1357 1.358 . S
C1355 H1397 0.930 . S
C1356 N1353 1.314 . S
C1356 C1354 1.353 . S
C1356 H1398 0.930 . S
C1357 N1353 1.279 . S
C1357 C1355 1.358 . S
C1357 H1399 0.930 . S
C1358 C1359 1.348 . S
C1358 C1360 1.356 . S
C1358 O1383 1.325 . S
C1359 C1358 1.348 . S
C1359 C1361 1.353 . S
C1359 H1400 0.929 . S
C1360 C1358 1.356 . S
C1360 C1362 1.358 . S
C1360 H1401 0.930 . S
C1361 C1359 1.353 . S
C1361 N1363 1.314 . S
C1361 H1402 0.930 . S
C1362 C1360 1.358 . S
C1362 N1363 1.279 . S
C1362 H1403 0.930 . S
N1363 C1361 1.314 . S
N1363 C1362 1.279 . S
C1364 C1366 1.353 . S
C1364 N1367 1.314 . S
C1364 H1370 0.930 . S
C1365 N1367 1.279 . S
C1365 C1368 1.358 . S
C1365 H1371 0.930 . S
C1366 C1364 1.353 . S
C1366 C1369 1.348 . S
C1366 H1404 0.929 . S
N1367 Li1322 1.990 . S
N1367 C1364 1.314 . S
N1367 C1365 1.279 . S
C1368 C1365 1.358 . S
C1368 C1369 1.356 . S
C1368 H1405 0.930 . S
C1369 C1366 1.348 . S
C1369 C1368 1.356 . S
H1370 C1364 0.930 . S
H1371 C1365 0.930 . S
C1372 N1373 1.314 . S
C1372 C1374 1.353 . S
C1372 H1378 0.930 . S
N1373 Li1323 1.990 . S
N1373 C1372 1.314 . S
N1373 C1376 1.279 . S
C1374 C1372 1.353 . S
C1374 C1377 1.348 . S
C1374 H1406 0.929 . S
C1375 C1376 1.358 . S
C1375 C1377 1.356 . S
C1375 H1407 0.930 . S
C1376 N1373 1.279 . S
C1376 C1375 1.358 . S
C1376 H1379 0.930 . S
C1377 C1374 1.348 . S
C1377 C1375 1.356 . S
H1378 C1372 0.930 . S
H1379 C1376 0.930 . S
O1380 Li1320 1.956 . S
O1380 Li1321 1.970 . S
O1380 Li1322 1.961 . S
O1380 C1324 1.325 . S
O1381 Li1320 1.970 . S
O1381 Li1321 1.956 . S
O1381 Li1323 1.961 . S
O1381 C1330 1.325 . S
O1382 Li1320 1.961 . S
O1382 Li1322 1.956 . S
O1382 Li1323 1.970 . S
O1382 C1352 1.325 . S
O1383 Li1321 1.961 . S
O1383 Li1322 1.970 . S
O1383 Li1323 1.956 . S
O1383 C1358 1.325 . S
H1384 C1326 0.929 . S
H1385 C1327 0.930 . S
H1386 C1328 0.930 . S
H1387 C1329 0.930 . S
H1388 C1331 0.930 . S
H1389 C1333 0.929 . S
H1390 C1334 0.930 . S
H1391 C1335 0.930 . S
H1392 C1338 0.930 . S
H1393 C1341 0.929 . S
H1394 C1346 0.929 . S
H1395 C1347 0.930 . S
H1396 C1354 0.929 . S
H1397 C1355 0.930 . S
H1398 C1356 0.930 . S
H1399 C1357 0.930 . S
H1400 C1359 0.929 . S
H1401 C1360 0.930 . S
H1402 C1361 0.930 . S
H1403 C1362 0.930 . S
H1404 C1366 0.929 . S
H1405 C1368 0.930 . S
H1406 C1374 0.929 . S
H1407 C1375 0.930 . S
Li1408 N1425 1.990 . S
Li1408 O1468 1.956 . S
Li1408 O1469 1.970 . S
Li1408 O1470 1.961 . S
Li1409 N1433 1.990 . S
Li1409 O1468 1.970 . S
Li1409 O1469 1.956 . S
Li1409 O1471 1.961 . S
Li1410 N1455 1.990 . S
Li1410 O1468 1.961 . S
Li1410 O1470 1.956 . S
Li1410 O1471 1.970 . S
Li1411 N1461 1.990 . S
Li1411 O1469 1.961 . S
Li1411 O1470 1.970 . S
Li1411 O1471 1.956 . S
C1412 C1414 1.348 . S
C1412 C1415 1.356 . S
C1412 O1468 1.325 . S
N1413 C1416 1.314 . S
N1413 C1417 1.279 . S
C1414 C1412 1.348 . S
C1414 C1416 1.353 . S
C1414 H1472 0.929 . S
C1415 C1412 1.356 . S
C1415 C1417 1.358 . S
C1415 H1473 0.930 . S
C1416 N1413 1.314 . S
C1416 C1414 1.353 . S
C1416 H1474 0.930 . S
C1417 N1413 1.279 . S
C1417 C1415 1.358 . S
C1417 H1475 0.930 . S
C1418 C1421 1.348 . S
C1418 C1422 1.356 . S
C1418 O1469 1.325 . S
C1419 N1420 1.279 . S
C1419 C1422 1.358 . S
C1419 H1476 0.930 . S
N1420 C1419 1.279 . S
N1420 C1423 1.314 . S
C1421 C1418 1.348 . S
C1421 C1423 1.353 . S
C1421 H1477 0.929 . S
C1422 C1418 1.356 . S
C1422 C1419 1.358 . S
C1422 H1478 0.930 . S
C1423 N1420 1.314 . S
C1423 C1421 1.353 . S
C1423 H1479 0.930 . S
C1424 N1425 1.314 . S
C1424 C1429 1.353 . S
C1424 H1430 0.930 . S
N1425 Li1408 1.990 . S
N1425 C1424 1.314 . S
N1425 C1427 1.279 . S
C1426 C1427 1.358 . S
C1426 C1428 1.356 . S
C1426 H1480 0.930 . S
C1427 N1425 1.279 . S
C1427 C1426 1.358 . S
C1427 H1431 0.930 . S
C1428 C1426 1.356 . S
C1428 C1429 1.348 . S
C1429 C1424 1.353 . S
C1429 C1428 1.348 . S
C1429 H1481 0.929 . S
H1430 C1424 0.930 . S
H1431 C1427 0.930 . S
C1432 N1433 1.314 . S
C1432 C1434 1.353 . S
C1432 H1438 0.930 . S
N1433 Li1409 1.990 . S
N1433 C1432 1.314 . S
N1433 C1436 1.279 . S
C1434 C1432 1.353 . S
C1434 C1437 1.324 1_545 S
C1434 H1482 0.910 1_545 S
C1435 C1436 1.358 . S
C1435 C1437 1.324 1_545 S
C1435 H1483 0.930 . S
C1436 N1433 1.279 . S
C1436 C1435 1.358 . S
C1436 H1439 0.930 . S
C1437 C1434 1.324 1_565 S
C1437 C1435 1.324 1_565 S
H1438 C1432 0.930 . S
H1439 C1436 0.930 . S
C1440 C1442 1.348 . S
C1440 C1443 1.356 . S
C1440 O1470 1.325 . S
N1441 C1444 1.314 . S
N1441 C1445 1.279 . S
C1442 C1440 1.348 . S
C1442 C1444 1.353 . S
C1442 H1484 0.929 . S
C1443 C1440 1.356 . S
C1443 C1445 1.358 . S
C1443 H1485 0.930 . S
C1444 N1441 1.314 . S
C1444 C1442 1.353 . S
C1444 H1486 0.930 . S
C1445 N1441 1.279 . S
C1445 C1443 1.358 . S
C1445 H1487 0.930 . S
C1446 C1447 1.348 . S
C1446 C1448 1.356 . S
C1446 O1471 1.325 . S
C1447 C1446 1.348 . S
C1447 C1449 1.353 . S
C1447 H1488 0.929 . S
C1448 C1446 1.356 . S
C1448 C1450 1.358 . S
C1448 H1489 0.930 . S
C1449 C1447 1.353 . S
C1449 N1451 1.314 . S
C1449 H1490 0.930 . S
C1450 C1448 1.358 . S
C1450 N1451 1.279 . S
C1450 H1491 0.930 . S
N1451 C1449 1.314 . S
N1451 C1450 1.279 . S
C1452 C1454 1.353 . S
C1452 N1455 1.314 . S
C1452 H1458 0.930 . S
C1453 N1455 1.279 . S
C1453 C1456 1.358 . S
C1453 H1459 0.930 . S
C1454 C1452 1.353 . S
C1454 C1457 1.348 . S
C1454 H1492 0.929 . S
N1455 Li1410 1.990 . S
N1455 C1452 1.314 . S
N1455 C1453 1.279 . S
C1456 C1453 1.358 . S
C1456 C1457 1.356 . S
C1456 H1493 0.930 . S
C1457 C1454 1.348 . S
C1457 C1456 1.356 . S
H1458 C1452 0.930 . S
H1459 C1453 0.930 . S
C1460 N1461 1.314 . S
C1460 C1462 1.353 . S
C1460 H1466 0.930 . S
N1461 Li1411 1.990 . S
N1461 C1460 1.314 . S
N1461 C1464 1.279 . S
C1462 C1460 1.353 . S
C1462 C1465 1.348 . S
C1462 H1494 0.929 . S
C1463 C1464 1.358 . S
C1463 C1465 1.356 . S
C1463 H1495 0.930 . S
C1464 N1461 1.279 . S
C1464 C1463 1.358 . S
C1464 H1467 0.930 . S
C1465 C1462 1.348 . S
C1465 C1463 1.356 . S
H1466 C1460 0.930 . S
H1467 C1464 0.930 . S
O1468 Li1408 1.956 . S
O1468 Li1409 1.970 . S
O1468 Li1410 1.961 . S
O1468 C1412 1.325 . S
O1469 Li1408 1.970 . S
O1469 Li1409 1.956 . S
O1469 Li1411 1.961 . S
O1469 C1418 1.325 . S
O1470 Li1408 1.961 . S
O1470 Li1410 1.956 . S
O1470 Li1411 1.970 . S
O1470 C1440 1.325 . S
O1471 Li1409 1.961 . S
O1471 Li1410 1.970 . S
O1471 Li1411 1.956 . S
O1471 C1446 1.325 . S
H1472 C1414 0.929 . S
H1473 C1415 0.930 . S
H1474 C1416 0.930 . S
H1475 C1417 0.930 . S
H1476 C1419 0.930 . S
H1477 C1421 0.929 . S
H1478 C1422 0.930 . S
H1479 C1423 0.930 . S
H1480 C1426 0.930 . S
H1481 C1429 0.929 . S
H1482 C1434 0.910 1_565 S
H1483 C1435 0.930 . S
H1484 C1442 0.929 . S
H1485 C1443 0.930 . S
H1486 C1444 0.930 . S
H1487 C1445 0.930 . S
H1488 C1447 0.929 . S
H1489 C1448 0.930 . S
H1490 C1449 0.930 . S
H1491 C1450 0.930 . S
H1492 C1454 0.929 . S
H1493 C1456 0.930 . S
H1494 C1462 0.929 . S
H1495 C1463 0.930 . S
Li1496 N1513 1.990 . S
Li1496 O1556 1.956 . S
Li1496 O1557 1.970 . S
Li1496 O1558 1.961 . S
Li1497 N1521 1.990 . S
Li1497 O1556 1.970 . S
Li1497 O1557 1.956 . S
Li1497 O1559 1.961 . S
Li1498 N1543 1.990 . S
Li1498 O1556 1.961 . S
Li1498 O1558 1.956 . S
Li1498 O1559 1.970 . S
Li1499 N1549 1.990 . S
Li1499 O1557 1.961 . S
Li1499 O1558 1.970 . S
Li1499 O1559 1.956 . S
C1500 C1502 1.348 . S
C1500 C1503 1.356 . S
C1500 O1556 1.325 . S
N1501 C1504 1.314 . S
N1501 C1505 1.279 . S
C1502 C1500 1.348 . S
C1502 C1504 1.353 . S
C1502 H1560 0.929 . S
C1503 C1500 1.356 . S
C1503 C1505 1.358 . S
C1503 H1561 0.930 . S
C1504 N1501 1.314 . S
C1504 C1502 1.353 . S
C1504 H1562 0.930 . S
C1505 N1501 1.279 . S
C1505 C1503 1.358 . S
C1505 H1563 0.930 . S
C1506 C1509 1.348 . S
C1506 C1510 1.356 . S
C1506 O1557 1.325 . S
C1507 N1508 1.279 . S
C1507 C1510 1.358 . S
C1507 H1564 0.930 . S
N1508 C1507 1.279 . S
N1508 C1511 1.314 . S
C1509 C1506 1.348 . S
C1509 C1511 1.353 . S
C1509 H1565 0.929 . S
C1510 C1506 1.356 . S
C1510 C1507 1.358 . S
C1510 H1566 0.930 . S
C1511 N1508 1.314 . S
C1511 C1509 1.353 . S
C1511 H1567 0.930 . S
C1512 N1513 1.314 . S
C1512 C1517 1.353 . S
C1512 H1518 0.930 . S
N1513 Li1496 1.990 . S
N1513 C1512 1.314 . S
N1513 C1515 1.279 . S
C1514 C1515 1.358 . S
C1514 C1516 1.356 . S
C1514 H1568 0.930 . S
C1515 N1513 1.279 . S
C1515 C1514 1.358 . S
C1515 H1519 0.930 . S
C1516 C1514 1.356 . S
C1516 C1517 1.348 . S
C1517 C1512 1.353 . S
C1517 C1516 1.348 . S
C1517 H1569 0.929 . S
H1518 C1512 0.930 . S
H1519 C1515 0.930 . S
C1520 N1521 1.314 . S
C1520 C1522 1.353 . S
C1520 H1526 0.930 . S
N1521 Li1497 1.990 . S
N1521 C1520 1.314 . S
N1521 C1524 1.279 . S
C1522 C1520 1.353 . S
C1522 C1525 1.348 . S
C1522 H1570 0.929 . S
C1523 C1524 1.358 . S
C1523 C1525 1.356 . S
C1523 H1571 0.930 . S
C1524 N1521 1.279 . S
C1524 C1523 1.358 . S
C1524 H1527 0.930 . S
C1525 C1522 1.348 . S
C1525 C1523 1.356 . S
H1526 C1520 0.930 . S
H1527 C1524 0.930 . S
C1528 C1530 1.348 . S
C1528 C1531 1.356 . S
C1528 O1558 1.325 . S
N1529 C1532 1.314 . S
N1529 C1533 1.279 . S
C1530 C1528 1.348 . S
C1530 C1532 1.353 . S
C1530 H1572 0.929 . S
C1531 C1528 1.356 . S
C1531 C1533 1.358 . S
C1531 H1573 0.930 . S
C1532 N1529 1.314 . S
C1532 C1530 1.353 . S
C1532 H1574 0.930 . S
C1533 N1529 1.279 . S
C1533 C1531 1.358 . S
C1533 H1575 0.930 . S
C1534 C1535 1.348 . S
C1534 C1536 1.356 . S
C1534 O1559 1.325 . S
C1535 C1534 1.348 . S
C1535 C1537 1.353 . S
C1535 H1576 0.929 . S
C1536 C1534 1.356 . S
C1536 C1538 1.358 . S
C1536 H1577 0.930 . S
C1537 C1535 1.353 . S
C1537 N1539 1.314 . S
C1537 H1578 0.930 . S
C1538 C1536 1.358 . S
C1538 N1539 1.279 . S
C1538 H1579 0.930 . S
N1539 C1537 1.314 . S
N1539 C1538 1.279 . S
C1540 C1542 1.353 . S
C1540 N1543 1.314 . S
C1540 H1546 0.930 . S
C1541 N1543 1.279 . S
C1541 C1544 1.358 . S
C1541 H1547 0.930 . S
C1542 C1540 1.353 . S
C1542 C1545 1.348 . S
C1542 H1580 0.929 . S
N1543 Li1498 1.990 . S
N1543 C1540 1.314 . S
N1543 C1541 1.279 . S
C1544 C1541 1.358 . S
C1544 C1545 1.356 . S
C1544 H1581 0.930 . S
C1545 C1542 1.348 . S
C1545 C1544 1.356 . S
H1546 C1540 0.930 . S
H1547 C1541 0.930 . S
C1548 N1549 1.314 . S
C1548 C1550 1.353 . S
C1548 H1554 0.930 . S
N1549 Li1499 1.990 . S
N1549 C1548 1.314 . S
N1549 C1552 1.279 . S
C1550 C1548 1.353 . S
C1550 C1553 1.348 . S
C1550 H1582 0.929 . S
C1551 C1552 1.358 . S
C1551 C1553 1.356 . S
C1551 H1583 0.930 . S
C1552 N1549 1.279 . S
C1552 C1551 1.358 . S
C1552 H1555 0.930 . S
C1553 C1550 1.348 . S
C1553 C1551 1.356 . S
H1554 C1548 0.930 . S
H1555 C1552 0.930 . S
O1556 Li1496 1.956 . S
O1556 Li1497 1.970 . S
O1556 Li1498 1.961 . S
O1556 C1500 1.325 . S
O1557 Li1496 1.970 . S
O1557 Li1497 1.956 . S
O1557 Li1499 1.961 . S
O1557 C1506 1.325 . S
O1558 Li1496 1.961 . S
O1558 Li1498 1.956 . S
O1558 Li1499 1.970 . S
O1558 C1528 1.325 . S
O1559 Li1497 1.961 . S
O1559 Li1498 1.970 . S
O1559 Li1499 1.956 . S
O1559 C1534 1.325 . S
H1560 C1502 0.929 . S
H1561 C1503 0.930 . S
H1562 C1504 0.930 . S
H1563 C1505 0.930 . S
H1564 C1507 0.930 . S
H1565 C1509 0.929 . S
H1566 C1510 0.930 . S
H1567 C1511 0.930 . S
H1568 C1514 0.930 . S
H1569 C1517 0.929 . S
H1570 C1522 0.929 . S
H1571 C1523 0.930 . S
H1572 C1530 0.929 . S
H1573 C1531 0.930 . S
H1574 C1532 0.930 . S
H1575 C1533 0.930 . S
H1576 C1535 0.929 . S
H1577 C1536 0.930 . S
H1578 C1537 0.930 . S
H1579 C1538 0.930 . S
H1580 C1542 0.929 . S
H1581 C1544 0.930 . S
H1582 C1550 0.929 . S
H1583 C1551 0.930 . S
Li1584 N1601 1.990 . S
Li1584 O1644 1.956 . S
Li1584 O1645 1.970 . S
Li1584 O1646 1.961 . S
Li1585 N1609 1.990 . S
Li1585 O1644 1.970 . S
Li1585 O1645 1.956 . S
Li1585 O1647 1.961 . S
Li1586 N1631 1.990 . S
Li1586 O1644 1.961 . S
Li1586 O1646 1.956 . S
Li1586 O1647 1.970 . S
Li1587 N1637 1.990 . S
Li1587 O1645 1.961 . S
Li1587 O1646 1.970 . S
Li1587 O1647 1.956 . S
C1588 C1590 1.348 . S
C1588 C1591 1.356 . S
C1588 O1644 1.325 . S
N1589 C1592 1.314 . S
N1589 C1593 1.279 . S
C1590 C1588 1.348 . S
C1590 C1592 1.353 . S
C1590 H1648 0.929 . S
C1591 C1588 1.356 . S
C1591 C1593 1.358 . S
C1591 H1649 0.930 . S
C1592 N1589 1.314 . S
C1592 C1590 1.353 . S
C1592 H1650 0.930 . S
C1593 N1589 1.279 . S
C1593 C1591 1.358 . S
C1593 H1651 0.930 . S
C1594 C1597 1.348 . S
C1594 C1598 1.356 . S
C1594 O1645 1.325 . S
C1595 N1596 1.279 . S
C1595 C1598 1.358 . S
C1595 H1652 0.930 . S
N1596 C1595 1.279 . S
N1596 C1599 1.314 . S
C1597 C1594 1.348 . S
C1597 C1599 1.353 . S
C1597 H1653 0.929 . S
C1598 C1594 1.356 . S
C1598 C1595 1.358 . S
C1598 H1654 0.930 . S
C1599 N1596 1.314 . S
C1599 C1597 1.353 . S
C1599 H1655 0.930 . S
C1600 N1601 1.314 . S
C1600 C1605 1.353 . S
C1600 H1606 0.930 . S
N1601 Li1584 1.990 . S
N1601 C1600 1.314 . S
N1601 C1603 1.279 . S
C1602 C1603 1.358 . S
C1602 C1604 1.356 . S
C1602 H1656 0.930 . S
C1603 N1601 1.279 . S
C1603 C1602 1.358 . S
C1603 H1607 0.930 . S
C1604 C1602 1.356 . S
C1604 C1605 1.348 . S
C1605 C1600 1.353 . S
C1605 C1604 1.348 . S
C1605 H1657 0.929 . S
H1606 C1600 0.930 . S
H1607 C1603 0.930 . S
C1608 N1609 1.314 . S
C1608 C1610 1.353 . S
C1608 H1614 0.930 . S
N1609 Li1585 1.990 . S
N1609 C1608 1.314 . S
N1609 C1612 1.279 . S
C1610 C1608 1.353 . S
C1610 C1613 1.348 . S
C1610 H1658 0.929 . S
C1611 C1612 1.358 . S
C1611 C1613 1.356 . S
C1611 H1659 0.930 . S
C1612 N1609 1.279 . S
C1612 C1611 1.358 . S
C1612 H1615 0.930 . S
C1613 C1610 1.348 . S
C1613 C1611 1.356 . S
H1614 C1608 0.930 . S
H1615 C1612 0.930 . S
C1616 C1618 1.348 . S
C1616 C1619 1.356 . S
C1616 O1646 1.325 . S
N1617 C1620 1.314 . S
N1617 C1621 1.279 . S
C1618 C1616 1.348 . S
C1618 C1620 1.353 . S
C1618 H1660 0.929 . S
C1619 C1616 1.356 . S
C1619 C1621 1.358 . S
C1619 H1661 0.930 . S
C1620 N1617 1.314 . S
C1620 C1618 1.353 . S
C1620 H1662 0.930 . S
C1621 N1617 1.279 . S
C1621 C1619 1.358 . S
C1621 H1663 0.930 . S
C1622 C1623 1.348 . S
C1622 C1624 1.356 . S
C1622 O1647 1.325 . S
C1623 C1622 1.348 . S
C1623 C1625 1.353 . S
C1623 H1664 0.929 . S
C1624 C1622 1.356 . S
C1624 C1626 1.358 . S
C1624 H1665 0.930 . S
C1625 C1623 1.353 . S
C1625 N1627 1.314 . S
C1625 H1666 0.930 . S
C1626 C1624 1.358 . S
C1626 N1627 1.279 . S
C1626 H1667 0.930 . S
N1627 C1625 1.314 . S
N1627 C1626 1.279 . S
C1628 C1630 1.353 . S
C1628 N1631 1.314 . S
C1628 H1634 0.930 . S
C1629 N1631 1.279 . S
C1629 C1632 1.358 . S
C1629 H1635 0.930 . S
C1630 C1628 1.353 . S
C1630 C1633 1.348 . S
C1630 H1668 0.929 . S
N1631 Li1586 1.990 . S
N1631 C1628 1.314 . S
N1631 C1629 1.279 . S
C1632 C1629 1.358 . S
C1632 C1633 1.356 . S
C1632 H1669 0.930 . S
C1633 C1630 1.348 . S
C1633 C1632 1.356 . S
H1634 C1628 0.930 . S
H1635 C1629 0.930 . S
C1636 N1637 1.314 . S
C1636 C1638 1.353 . S
C1636 H1642 0.930 . S
N1637 Li1587 1.990 . S
N1637 C1636 1.314 . S
N1637 C1640 1.279 . S
C1638 C1636 1.353 . S
C1638 C1641 1.348 . S
C1638 H1670 0.929 . S
C1639 C1640 1.358 . S
C1639 C1641 1.356 . S
C1639 H1671 0.930 . S
C1640 N1637 1.279 . S
C1640 C1639 1.358 . S
C1640 H1643 0.930 . S
C1641 C1638 1.348 . S
C1641 C1639 1.356 . S
H1642 C1636 0.930 . S
H1643 C1640 0.930 . S
O1644 Li1584 1.956 . S
O1644 Li1585 1.970 . S
O1644 Li1586 1.961 . S
O1644 C1588 1.325 . S
O1645 Li1584 1.970 . S
O1645 Li1585 1.956 . S
O1645 Li1587 1.961 . S
O1645 C1594 1.325 . S
O1646 Li1584 1.961 . S
O1646 Li1586 1.956 . S
O1646 Li1587 1.970 . S
O1646 C1616 1.325 . S
O1647 Li1585 1.961 . S
O1647 Li1586 1.970 . S
O1647 Li1587 1.956 . S
O1647 C1622 1.325 . S
H1648 C1590 0.929 . S
H1649 C1591 0.930 . S
H1650 C1592 0.930 . S
H1651 C1593 0.930 . S
H1652 C1595 0.930 . S
H1653 C1597 0.929 . S
H1654 C1598 0.930 . S
H1655 C1599 0.930 . S
H1656 C1602 0.930 . S
H1657 C1605 0.929 . S
H1658 C1610 0.929 . S
H1659 C1611 0.930 . S
H1660 C1618 0.929 . S
H1661 C1619 0.930 . S
H1662 C1620 0.930 . S
H1663 C1621 0.930 . S
H1664 C1623 0.929 . S
H1665 C1624 0.930 . S
H1666 C1625 0.930 . S
H1667 C1626 0.930 . S
H1668 C1630 0.929 . S
H1669 C1632 0.930 . S
H1670 C1638 0.929 . S
H1671 C1639 0.930 . S
Li1672 N1689 1.991 . S
Li1672 O1732 1.999 . S
Li1672 O1733 1.965 . S
Li1672 O1734 1.921 1_545 S
Li1673 N1697 1.990 . S
Li1673 O1732 1.970 . S
Li1673 O1733 1.956 . S
Li1673 O1735 1.961 . S
Li1674 N1719 1.990 . S
Li1674 O1732 1.961 1_565 S
Li1674 O1734 1.956 . S
Li1674 O1735 1.970 1_565 S
Li1675 N1725 1.990 . S
Li1675 O1733 1.961 1_565 S
Li1675 O1734 1.970 . S
Li1675 O1735 1.956 1_565 S
C1676 C1678 1.348 . S
C1676 C1679 1.356 . S
C1676 O1732 1.325 . S
N1677 C1680 1.314 . S
N1677 C1681 1.279 . S
C1678 C1676 1.348 . S
C1678 C1680 1.353 . S
C1678 H1736 0.929 . S
C1679 C1676 1.356 . S
C1679 C1681 1.358 . S
C1679 H1737 0.930 . S
C1680 N1677 1.314 . S
C1680 C1678 1.353 . S
C1680 H1738 0.930 . S
C1681 N1677 1.279 . S
C1681 C1679 1.358 . S
C1681 H1739 0.930 . S
C1682 C1685 1.348 . S
C1682 C1686 1.356 . S
C1682 O1733 1.325 . S
C1683 N1684 1.279 . S
C1683 C1686 1.358 . S
C1683 H1740 0.930 . S
N1684 C1683 1.279 . S
N1684 C1687 1.314 . S
C1685 C1682 1.348 . S
C1685 C1687 1.353 . S
C1685 H1741 0.929 . S
C1686 C1682 1.356 . S
C1686 C1683 1.358 . S
C1686 H1742 0.930 . S
C1687 N1684 1.314 . S
C1687 C1685 1.353 . S
C1687 H1743 0.930 . S
C1688 N1689 1.294 1_565 S
C1688 C1693 1.353 . S
C1688 H1694 0.930 . S
N1689 Li1672 1.991 . S
N1689 C1688 1.294 1_545 S
N1689 C1691 1.299 . S
C1690 C1691 1.358 . S
C1690 C1692 1.317 1_545 S
C1690 H1744 0.930 . S
C1691 N1689 1.299 . S
C1691 C1690 1.358 . S
C1691 H1695 0.930 . S
C1692 C1690 1.317 1_565 S
C1692 C1693 1.387 . S
C1693 C1688 1.353 . S
C1693 C1692 1.387 . S
C1693 H1745 0.929 . S
H1694 C1688 0.930 . S
H1695 C1691 0.930 . S
C1696 N1697 1.314 . S
C1696 C1698 1.353 . S
C1696 H1702 0.930 . S
N1697 Li1673 1.990 . S
N1697 C1696 1.314 . S
N1697 C1700 1.279 . S
C1698 C1696 1.353 . S
C1698 C1701 1.348 . S
C1698 H1746 0.929 . S
C1699 C1700 1.358 . S
C1699 C1701 1.356 . S
C1699 H1747 0.930 . S
C1700 N1697 1.279 . S
C1700 C1699 1.358 . S
C1700 H1703 0.930 . S
C1701 C1698 1.348 . S
C1701 C1699 1.356 . S
H1702 C1696 0.930 . S
H1703 C1700 0.930 . S
C1704 C1706 1.348 . S
C1704 C1707 1.356 . S
C1704 O1734 1.325 . S
N1705 C1708 1.314 . S
N1705 C1709 1.279 . S
C1706 C1704 1.348 . S
C1706 C1708 1.353 . S
C1706 H1748 0.929 . S
C1707 C1704 1.356 . S
C1707 C1709 1.358 . S
C1707 H1749 0.930 . S
C1708 N1705 1.314 . S
C1708 C1706 1.353 . S
C1708 H1750 0.930 . S
C1709 N1705 1.279 . S
C1709 C1707 1.358 . S
C1709 H1751 0.930 . S
C1710 C1711 1.348 1_545 S
C1710 C1712 1.356 . S
C1710 O1735 1.325 . S
C1711 C1710 1.348 1_565 S
C1711 C1713 1.353 . S
C1711 H1752 0.929 . S
C1712 C1710 1.356 . S
C1712 C1714 1.358 . S
C1712 H1753 0.930 . S
C1713 C1711 1.353 . S
C1713 N1715 1.314 1_565 S
C1713 H1754 0.930 . S
C1714 C1712 1.358 . S
C1714 N1715 1.279 . S
C1714 H1755 0.930 . S
N1715 C1713 1.314 1_545 S
N1715 C1714 1.279 . S
C1716 C1718 1.353 . S
C1716 N1719 1.314 1_545 S
C1716 H1722 0.930 . S
C1717 N1719 1.279 . S
C1717 C1720 1.358 . S
C1717 H1723 0.930 . S
C1718 C1716 1.353 . S
C1718 C1721 1.348 1_545 S
C1718 H1756 0.929 . S
N1719 Li1674 1.990 . S
N1719 C1716 1.314 1_565 S
N1719 C1717 1.279 . S
C1720 C1717 1.358 . S
C1720 C1721 1.356 . S
C1720 H1757 0.930 . S
C1721 C1718 1.348 1_565 S
C1721 C1720 1.356 . S
H1722 C1716 0.930 . S
H1723 C1717 0.930 . S
C1724 N1725 1.314 . S
C1724 C1726 1.353 . S
C1724 H1730 0.930 . S
N1725 Li1675 1.990 . S
N1725 C1724 1.314 . S
N1725 C1728 1.279 . S
C1726 C1724 1.353 . S
C1726 C1729 1.348 . S
C1726 H1758 0.929 . S
C1727 C1728 1.358 . S
C1727 C1729 1.356 . S
C1727 H1759 0.930 . S
C1728 N1725 1.279 . S
C1728 C1727 1.358 . S
C1728 H1731 0.930 . S
C1729 C1726 1.348 . S
C1729 C1727 1.356 . S
H1730 C1724 0.930 . S
H1731 C1728 0.930 . S
O1732 Li1672 1.999 . S
O1732 Li1673 1.970 . S
O1732 Li1674 1.961 1_545 S
O1732 C1676 1.325 . S
O1733 Li1672 1.965 . S
O1733 Li1673 1.956 . S
O1733 Li1675 1.961 1_545 S
O1733 C1682 1.325 . S
O1734 Li1672 1.921 1_565 S
O1734 Li1674 1.956 . S
O1734 Li1675 1.970 . S
O1734 C1704 1.325 . S
O1735 Li1673 1.961 . S
O1735 Li1674 1.970 1_545 S
O1735 Li1675 1.956 1_545 S
O1735 C1710 1.325 . S
H1736 C1678 0.929 . S
H1737 C1679 0.930 . S
H1738 C1680 0.930 . S
H1739 C1681 0.930 . S
H1740 C1683 0.930 . S
H1741 C1685 0.929 . S
H1742 C1686 0.930 . S
H1743 C1687 0.930 . S
H1744 C1690 0.930 . S
H1745 C1693 0.929 . S
H1746 C1698 0.929 . S
H1747 C1699 0.930 . S
H1748 C1706 0.929 . S
H1749 C1707 0.930 . S
H1750 C1708 0.930 . S
H1751 C1709 0.930 . S
H1752 C1711 0.929 . S
H1753 C1712 0.930 . S
H1754 C1713 0.930 . S
H1755 C1714 0.930 . S
H1756 C1718 0.929 . S
H1757 C1720 0.930 . S
H1758 C1726 0.929 . S
H1759 C1727 0.930 . S
Li1760 N1777 1.990 . S
Li1760 O1820 1.956 . S
Li1760 O1821 1.970 . S
Li1760 O1822 1.975 . S
Li1761 N1785 1.990 . S
Li1761 O1820 1.967 . S
Li1761 O1821 1.989 . S
Li1761 O1823 1.931 1_554 S
Li1762 N1807 1.990 . S
Li1762 O1820 1.961 1_556 S
Li1762 O1822 1.939 1_556 S
Li1762 O1823 1.970 . S
Li1763 N1813 1.990 . S
Li1763 O1821 1.961 1_556 S
Li1763 O1822 1.971 1_556 S
Li1763 O1823 1.956 . S
C1764 C1766 1.348 . S
C1764 C1767 1.356 . S
C1764 O1820 1.325 . S
N1765 C1768 1.314 . S
N1765 C1769 1.279 . S
C1766 C1764 1.348 . S
C1766 C1768 1.353 . S
C1766 H1824 0.929 . S
C1767 C1764 1.356 . S
C1767 C1769 1.358 . S
C1767 H1825 0.925 1_554 S
C1768 N1765 1.314 . S
C1768 C1766 1.353 . S
C1768 H1826 0.930 . S
C1769 N1765 1.279 . S
C1769 C1767 1.358 . S
C1769 H1827 0.930 . S
C1770 C1773 1.348 . S
C1770 C1774 1.356 . S
C1770 O1821 1.325 . S
C1771 N1772 1.279 . S
C1771 C1774 1.358 . S
C1771 H1828 0.930 . S
N1772 C1771 1.279 . S
N1772 C1775 1.314 . S
C1773 C1770 1.348 . S
C1773 C1775 1.353 . S
C1773 H1829 0.929 . S
C1774 C1770 1.356 . S
C1774 C1771 1.358 . S
C1774 H1830 0.930 . S
C1775 N1772 1.314 . S
C1775 C1773 1.353 . S
C1775 H1831 0.930 . S
C1776 N1777 1.314 . S
C1776 C1781 1.353 . S
C1776 H1782 0.930 . S
N1777 Li1760 1.990 . S
N1777 C1776 1.314 . S
N1777 C1779 1.279 . S
C1778 C1779 1.358 . S
C1778 C1780 1.356 . S
C1778 H1832 0.930 . S
C1779 N1777 1.279 . S
C1779 C1778 1.358 . S
C1779 H1783 0.930 . S
C1780 C1778 1.356 . S
C1780 C1781 1.348 . S
C1781 C1776 1.353 . S
C1781 C1780 1.348 . S
C1781 H1833 0.929 . S
H1782 C1776 0.930 . S
H1783 C1779 0.930 . S
C1784 N1785 1.261 1_556 S
C1784 C1786 1.353 . S
C1784 H1790 0.930 . S
N1785 Li1761 1.990 . S
N1785 C1784 1.261 1_554 S
N1785 C1788 1.331 . S
C1786 C1784 1.353 . S
C1786 C1789 1.315 1_556 S
C1786 H1834 0.929 . S
C1787 C1788 1.358 . S
C1787 C1789 1.390 . S
C1787 H1835 0.930 . S
C1788 N1785 1.331 . S
C1788 C1787 1.358 . S
C1788 H1791 0.930 . S
C1789 C1786 1.315 1_554 S
C1789 C1787 1.390 . S
H1790 C1784 0.930 . S
H1791 C1788 0.930 . S
C1792 C1794 1.347 . S
C1792 C1795 1.356 1_556 S
C1792 O1822 1.325 1_556 S
N1793 C1796 1.314 . S
N1793 C1797 1.279 1_556 S
C1794 C1792 1.347 . S
C1794 C1796 1.353 . S
C1794 H1836 0.929 . S
C1795 C1792 1.356 1_554 S
C1795 C1797 1.358 . S
C1795 H1837 0.930 . S
C1796 N1793 1.314 . S
C1796 C1794 1.353 . S
C1796 H1838 0.930 . S
C1797 N1793 1.279 1_554 S
C1797 C1795 1.358 . S
C1797 H1839 0.930 . S
C1798 C1799 1.348 . S
C1798 C1800 1.356 . S
C1798 O1823 1.325 . S
C1799 C1798 1.348 . S
C1799 C1801 1.353 . S
C1799 H1840 0.929 . S
C1800 C1798 1.356 . S
C1800 C1802 1.358 . S
C1800 H1841 0.930 . S
C1801 C1799 1.353 . S
C1801 N1803 1.314 . S
C1801 H1842 0.930 . S
C1802 C1800 1.358 . S
C1802 N1803 1.279 . S
C1802 H1843 0.930 . S
N1803 C1801 1.314 . S
N1803 C1802 1.279 . S
C1804 C1806 1.353 . S
C1804 N1807 1.314 . S
C1804 H1810 0.930 . S
C1805 N1807 1.279 . S
C1805 C1808 1.358 . S
C1805 H1811 0.930 . S
C1806 C1804 1.353 . S
C1806 C1809 1.348 . S
C1806 H1844 0.929 . S
N1807 Li1762 1.990 . S
N1807 C1804 1.314 . S
N1807 C1805 1.279 . S
C1808 C1805 1.358 . S
C1808 C1809 1.356 . S
C1808 H1845 0.930 . S
C1809 C1806 1.348 . S
C1809 C1808 1.356 . S
H1810 C1804 0.930 . S
H1811 C1805 0.930 . S
C1812 N1813 1.314 1_554 S
C1812 C1814 1.353 . S
C1812 H1818 0.930 . S
N1813 Li1763 1.990 . S
N1813 C1812 1.314 1_556 S
N1813 C1816 1.279 . S
C1814 C1812 1.353 . S
C1814 C1817 1.348 1_554 S
C1814 H1846 0.929 . S
C1815 C1816 1.358 . S
C1815 C1817 1.356 . S
C1815 H1847 0.930 . S
C1816 N1813 1.279 . S
C1816 C1815 1.358 . S
C1816 H1819 0.930 . S
C1817 C1814 1.348 1_556 S
C1817 C1815 1.356 . S
H1818 C1812 0.930 . S
H1819 C1816 0.930 . S
O1820 Li1760 1.956 . S
O1820 Li1761 1.967 . S
O1820 Li1762 1.961 1_554 S
O1820 C1764 1.325 . S
O1821 Li1760 1.970 . S
O1821 Li1761 1.989 . S
O1821 Li1763 1.961 1_554 S
O1821 C1770 1.325 . S
O1822 Li1760 1.975 . S
O1822 Li1762 1.939 1_554 S
O1822 Li1763 1.971 1_554 S
O1822 C1792 1.325 1_554 S
O1823 Li1761 1.931 1_556 S
O1823 Li1762 1.970 . S
O1823 Li1763 1.956 . S
O1823 C1798 1.325 . S
H1824 C1766 0.929 . S
H1825 C1767 0.925 1_556 S
H1826 C1768 0.930 . S
H1827 C1769 0.930 . S
H1828 C1771 0.930 . S
H1829 C1773 0.929 . S
H1830 C1774 0.930 . S
H1831 C1775 0.930 . S
H1832 C1778 0.930 . S
H1833 C1781 0.929 . S
H1834 C1786 0.929 . S
H1835 C1787 0.930 . S
H1836 C1794 0.929 . S
H1837 C1795 0.930 . S
H1838 C1796 0.930 . S
H1839 C1797 0.930 . S
H1840 C1799 0.929 . S
H1841 C1800 0.930 . S
H1842 C1801 0.930 . S
H1843 C1802 0.930 . S
H1844 C1806 0.929 . S
H1845 C1808 0.930 . S
H1846 C1814 0.929 . S
H1847 C1815 0.930 . S
Li1848 N1865 1.990 . S
Li1848 O1908 1.956 . S
Li1848 O1909 1.970 . S
Li1848 O1910 1.961 . S
Li1849 N1873 1.990 . S
Li1849 O1908 1.970 . S
Li1849 O1909 1.956 . S
Li1849 O1911 1.961 . S
Li1850 N1895 1.990 . S
Li1850 O1908 1.961 . S
Li1850 O1910 1.956 . S
Li1850 O1911 1.970 . S
Li1851 N1901 1.990 . S
Li1851 O1909 1.961 . S
Li1851 O1910 1.970 . S
Li1851 O1911 1.956 . S
C1852 C1854 1.348 . S
C1852 C1855 1.356 . S
C1852 O1908 1.325 . S
N1853 C1856 1.314 . S
N1853 C1857 1.279 . S
C1854 C1852 1.348 . S
C1854 C1856 1.353 . S
C1854 H1912 0.929 . S
C1855 C1852 1.356 . S
C1855 C1857 1.358 . S
C1855 H1913 0.930 . S
C1856 N1853 1.314 . S
C1856 C1854 1.353 . S
C1856 H1914 0.930 . S
C1857 N1853 1.279 . S
C1857 C1855 1.358 . S
C1857 H1915 0.930 . S
C1858 C1861 1.348 . S
C1858 C1862 1.356 . S
C1858 O1909 1.325 . S
C1859 N1860 1.279 . S
C1859 C1862 1.358 . S
C1859 H1916 0.930 . S
N1860 C1859 1.279 . S
N1860 C1863 1.314 . S
C1861 C1858 1.348 . S
C1861 C1863 1.353 . S
C1861 H1917 0.929 . S
C1862 C1858 1.356 . S
C1862 C1859 1.358 . S
C1862 H1918 0.930 . S
C1863 N1860 1.314 . S
C1863 C1861 1.353 . S
C1863 H1919 0.930 . S
C1864 N1865 1.314 . S
C1864 C1869 1.353 . S
C1864 H1870 0.930 . S
N1865 Li1848 1.990 . S
N1865 C1864 1.314 . S
N1865 C1867 1.279 . S
C1866 C1867 1.358 . S
C1866 C1868 1.356 . S
C1866 H1920 0.930 . S
C1867 N1865 1.279 . S
C1867 C1866 1.358 . S
C1867 H1871 0.930 . S
C1868 C1866 1.356 . S
C1868 C1869 1.348 . S
C1869 C1864 1.353 . S
C1869 C1868 1.348 . S
C1869 H1921 0.929 . S
H1870 C1864 0.930 . S
H1871 C1867 0.930 . S
C1872 N1873 1.314 . S
C1872 C1874 1.353 . S
C1872 H1878 0.930 . S
N1873 Li1849 1.990 . S
N1873 C1872 1.314 . S
N1873 C1876 1.279 . S
C1874 C1872 1.353 . S
C1874 C1877 1.348 . S
C1874 H1922 0.929 . S
C1875 C1876 1.358 . S
C1875 C1877 1.356 . S
C1875 H1923 0.930 . S
C1876 N1873 1.279 . S
C1876 C1875 1.358 . S
C1876 H1879 0.930 . S
C1877 C1874 1.348 . S
C1877 C1875 1.356 . S
H1878 C1872 0.930 . S
H1879 C1876 0.930 . S
C1880 C1882 1.348 . S
C1880 C1883 1.356 . S
C1880 O1910 1.325 . S
N1881 C1884 1.314 . S
N1881 C1885 1.279 . S
C1882 C1880 1.348 . S
C1882 C1884 1.353 . S
C1882 H1924 0.929 . S
C1883 C1880 1.356 . S
C1883 C1885 1.358 . S
C1883 H1925 0.930 . S
C1884 N1881 1.314 . S
C1884 C1882 1.353 . S
C1884 H1926 0.930 . S
C1885 N1881 1.279 . S
C1885 C1883 1.358 . S
C1885 H1927 0.930 . S
C1886 C1887 1.348 . S
C1886 C1888 1.356 . S
C1886 O1911 1.325 . S
C1887 C1886 1.348 . S
C1887 C1889 1.353 . S
C1887 H1928 0.929 . S
C1888 C1886 1.356 . S
C1888 C1890 1.358 . S
C1888 H1929 0.930 . S
C1889 C1887 1.353 . S
C1889 N1891 1.314 . S
C1889 H1930 0.930 . S
C1890 C1888 1.358 . S
C1890 N1891 1.279 . S
C1890 H1931 0.930 . S
N1891 C1889 1.314 . S
N1891 C1890 1.279 . S
C1892 C1894 1.353 . S
C1892 N1895 1.314 . S
C1892 H1898 0.930 . S
C1893 N1895 1.279 . S
C1893 C1896 1.358 . S
C1893 H1899 0.930 . S
C1894 C1892 1.353 . S
C1894 C1897 1.348 . S
C1894 H1932 0.929 . S
N1895 Li1850 1.990 . S
N1895 C1892 1.314 . S
N1895 C1893 1.279 . S
C1896 C1893 1.358 . S
C1896 C1897 1.356 . S
C1896 H1933 0.930 . S
C1897 C1894 1.348 . S
C1897 C1896 1.356 . S
H1898 C1892 0.930 . S
H1899 C1893 0.930 . S
C1900 N1901 1.314 . S
C1900 C1902 1.353 . S
C1900 H1906 0.930 . S
N1901 Li1851 1.990 . S
N1901 C1900 1.314 . S
N1901 C1904 1.279 . S
C1902 C1900 1.353 . S
C1902 C1905 1.348 . S
C1902 H1934 0.929 . S
C1903 C1904 1.358 . S
C1903 C1905 1.356 . S
C1903 H1935 0.930 . S
C1904 N1901 1.279 . S
C1904 C1903 1.358 . S
C1904 H1907 0.930 . S
C1905 C1902 1.348 . S
C1905 C1903 1.356 . S
H1906 C1900 0.930 . S
H1907 C1904 0.930 . S
O1908 Li1848 1.956 . S
O1908 Li1849 1.970 . S
O1908 Li1850 1.961 . S
O1908 C1852 1.325 . S
O1909 Li1848 1.970 . S
O1909 Li1849 1.956 . S
O1909 Li1851 1.961 . S
O1909 C1858 1.325 . S
O1910 Li1848 1.961 . S
O1910 Li1850 1.956 . S
O1910 Li1851 1.970 . S
O1910 C1880 1.325 . S
O1911 Li1849 1.961 . S
O1911 Li1850 1.970 . S
O1911 Li1851 1.956 . S
O1911 C1886 1.325 . S
H1912 C1854 0.929 . S
H1913 C1855 0.930 . S
H1914 C1856 0.930 . S
H1915 C1857 0.930 . S
H1916 C1859 0.930 . S
H1917 C1861 0.929 . S
H1918 C1862 0.930 . S
H1919 C1863 0.930 . S
H1920 C1866 0.930 . S
H1921 C1869 0.929 . S
H1922 C1874 0.929 . S
H1923 C1875 0.930 . S
H1924 C1882 0.929 . S
H1925 C1883 0.930 . S
H1926 C1884 0.930 . S
H1927 C1885 0.930 . S
H1928 C1887 0.929 . S
H1929 C1888 0.930 . S
H1930 C1889 0.930 . S
H1931 C1890 0.930 . S
H1932 C1894 0.929 . S
H1933 C1896 0.930 . S
H1934 C1902 0.929 . S
H1935 C1903 0.930 . S
Li1936 N1953 1.990 . S
Li1936 O1996 1.956 . S
Li1936 O1997 1.970 . S
Li1936 O1998 1.961 . S
Li1937 N1961 1.990 . S
Li1937 O1996 1.970 . S
Li1937 O1997 1.956 . S
Li1937 O1999 1.961 . S
Li1938 N1983 1.990 . S
Li1938 O1996 1.961 . S
Li1938 O1998 1.956 . S
Li1938 O1999 1.970 . S
Li1939 N1989 1.990 . S
Li1939 O1997 1.961 . S
Li1939 O1998 1.970 . S
Li1939 O1999 1.956 . S
C1940 C1942 1.348 . S
C1940 C1943 1.356 . S
C1940 O1996 1.325 . S
N1941 C1944 1.314 . S
N1941 C1945 1.279 . S
C1942 C1940 1.348 . S
C1942 C1944 1.353 . S
C1942 H2000 0.929 . S
C1943 C1940 1.356 . S
C1943 C1945 1.358 . S
C1943 H2001 0.930 . S
C1944 N1941 1.314 . S
C1944 C1942 1.353 . S
C1944 H2002 0.930 . S
C1945 N1941 1.279 . S
C1945 C1943 1.358 . S
C1945 H2003 0.930 . S
C1946 C1949 1.348 . S
C1946 C1950 1.356 . S
C1946 O1997 1.325 . S
C1947 N1948 1.279 . S
C1947 C1950 1.358 . S
C1947 H2004 0.930 . S
N1948 C1947 1.279 . S
N1948 C1951 1.314 . S
C1949 C1946 1.348 . S
C1949 C1951 1.353 . S
C1949 H2005 0.929 . S
C1950 C1946 1.356 . S
C1950 C1947 1.358 . S
C1950 H2006 0.930 . S
C1951 N1948 1.314 . S
C1951 C1949 1.353 . S
C1951 H2007 0.930 . S
C1952 N1953 1.314 . S
C1952 C1957 1.353 . S
C1952 H1958 0.930 . S
N1953 Li1936 1.990 . S
N1953 C1952 1.314 . S
N1953 C1955 1.279 . S
C1954 C1955 1.358 . S
C1954 C1956 1.356 . S
C1954 H2008 0.930 . S
C1955 N1953 1.279 . S
C1955 C1954 1.358 . S
C1955 H1959 0.930 . S
C1956 C1954 1.356 . S
C1956 C1957 1.348 . S
C1957 C1952 1.353 . S
C1957 C1956 1.348 . S
C1957 H2009 0.929 . S
H1958 C1952 0.930 . S
H1959 C1955 0.930 . S
C1960 N1961 1.314 . S
C1960 C1962 1.353 . S
C1960 H1966 0.930 . S
N1961 Li1937 1.990 . S
N1961 C1960 1.314 . S
N1961 C1964 1.279 . S
C1962 C1960 1.353 . S
C1962 C1965 1.348 . S
C1962 H2010 0.929 . S
C1963 C1964 1.358 . S
C1963 C1965 1.356 . S
C1963 H2011 0.930 . S
C1964 N1961 1.279 . S
C1964 C1963 1.358 . S
C1964 H1967 0.930 . S
C1965 C1962 1.348 . S
C1965 C1963 1.356 . S
H1966 C1960 0.930 . S
H1967 C1964 0.930 . S
C1968 C1970 1.348 . S
C1968 C1971 1.356 . S
C1968 O1998 1.325 . S
N1969 C1972 1.314 . S
N1969 C1973 1.279 . S
C1970 C1968 1.348 . S
C1970 C1972 1.353 . S
C1970 H2012 0.929 . S
C1971 C1968 1.356 . S
C1971 C1973 1.358 . S
C1971 H2013 0.930 . S
C1972 N1969 1.314 . S
C1972 C1970 1.353 . S
C1972 H2014 0.930 . S
C1973 N1969 1.279 . S
C1973 C1971 1.358 . S
C1973 H2015 0.930 . S
C1974 C1975 1.348 . S
C1974 C1976 1.356 . S
C1974 O1999 1.325 . S
C1975 C1974 1.348 . S
C1975 C1977 1.353 . S
C1975 H2016 0.929 . S
C1976 C1974 1.356 . S
C1976 C1978 1.358 . S
C1976 H2017 0.930 . S
C1977 C1975 1.353 . S
C1977 N1979 1.314 . S
C1977 H2018 0.930 . S
C1978 C1976 1.358 . S
C1978 N1979 1.279 . S
C1978 H2019 0.930 . S
N1979 C1977 1.314 . S
N1979 C1978 1.279 . S
C1980 C1982 1.353 . S
C1980 N1983 1.314 . S
C1980 H1986 0.930 . S
C1981 N1983 1.279 . S
C1981 C1984 1.358 . S
C1981 H1987 0.930 . S
C1982 C1980 1.353 . S
C1982 C1985 1.348 . S
C1982 H2020 0.929 . S
N1983 Li1938 1.990 . S
N1983 C1980 1.314 . S
N1983 C1981 1.279 . S
C1984 C1981 1.358 . S
C1984 C1985 1.356 . S
C1984 H2021 0.930 . S
C1985 C1982 1.348 . S
C1985 C1984 1.356 . S
H1986 C1980 0.930 . S
H1987 C1981 0.930 . S
C1988 N1989 1.314 . S
C1988 C1990 1.353 . S
C1988 H1994 0.930 . S
N1989 Li1939 1.990 . S
N1989 C1988 1.314 . S
N1989 C1992 1.279 . S
C1990 C1988 1.353 . S
C1990 C1993 1.348 . S
C1990 H2022 0.929 . S
C1991 C1992 1.358 . S
C1991 C1993 1.356 . S
C1991 H2023 0.930 . S
C1992 N1989 1.279 . S
C1992 C1991 1.358 . S
C1992 H1995 0.930 . S
C1993 C1990 1.348 . S
C1993 C1991 1.356 . S
H1994 C1988 0.930 . S
H1995 C1992 0.930 . S
O1996 Li1936 1.956 . S
O1996 Li1937 1.970 . S
O1996 Li1938 1.961 . S
O1996 C1940 1.325 . S
O1997 Li1936 1.970 . S
O1997 Li1937 1.956 . S
O1997 Li1939 1.961 . S
O1997 C1946 1.325 . S
O1998 Li1936 1.961 . S
O1998 Li1938 1.956 . S
O1998 Li1939 1.970 . S
O1998 C1968 1.325 . S
O1999 Li1937 1.961 . S
O1999 Li1938 1.970 . S
O1999 Li1939 1.956 . S
O1999 C1974 1.325 . S
H2000 C1942 0.929 . S
H2001 C1943 0.930 . S
H2002 C1944 0.930 . S
H2003 C1945 0.930 . S
H2004 C1947 0.930 . S
H2005 C1949 0.929 . S
H2006 C1950 0.930 . S
H2007 C1951 0.930 . S
H2008 C1954 0.930 . S
H2009 C1957 0.929 . S
H2010 C1962 0.929 . S
H2011 C1963 0.930 . S
H2012 C1970 0.929 . S
H2013 C1971 0.930 . S
H2014 C1972 0.930 . S
H2015 C1973 0.930 . S
H2016 C1975 0.929 . S
H2017 C1976 0.930 . S
H2018 C1977 0.930 . S
H2019 C1978 0.930 . S
H2020 C1982 0.929 . S
H2021 C1984 0.930 . S
H2022 C1990 0.929 . S
H2023 C1991 0.930 . S
Li2024 N2041 1.990 . S
Li2024 O2084 1.956 . S
Li2024 O2085 1.970 . S
Li2024 O2086 1.961 . S
Li2025 N2049 1.990 . S
Li2025 O2084 1.970 . S
Li2025 O2085 1.956 . S
Li2025 O2087 1.961 . S
Li2026 N2071 1.990 . S
Li2026 O2084 1.961 . S
Li2026 O2086 1.956 . S
Li2026 O2087 1.970 . S
Li2027 N2077 1.990 . S
Li2027 O2085 1.961 . S
Li2027 O2086 1.970 . S
Li2027 O2087 1.956 . S
C2028 C2030 1.348 . S
C2028 C2031 1.356 . S
C2028 O2084 1.325 . S
N2029 C2032 1.314 . S
N2029 C2033 1.279 . S
C2030 C2028 1.348 . S
C2030 C2032 1.353 . S
C2030 H2088 0.929 . S
C2031 C2028 1.356 . S
C2031 C2033 1.358 . S
C2031 H2089 0.930 . S
C2032 N2029 1.314 . S
C2032 C2030 1.353 . S
C2032 H2090 0.930 . S
C2033 N2029 1.279 . S
C2033 C2031 1.358 . S
C2033 H2091 0.930 . S
C2034 C2037 1.348 . S
C2034 C2038 1.356 . S
C2034 O2085 1.325 . S
C2035 N2036 1.279 . S
C2035 C2038 1.358 . S
C2035 H2092 0.930 . S
N2036 C2035 1.279 . S
N2036 C2039 1.314 . S
C2037 C2034 1.348 . S
C2037 C2039 1.353 . S
C2037 H2093 0.929 . S
C2038 C2034 1.356 . S
C2038 C2035 1.358 . S
C2038 H2094 0.930 . S
C2039 N2036 1.314 . S
C2039 C2037 1.353 . S
C2039 H2095 0.930 . S
C2040 N2041 1.314 . S
C2040 C2045 1.353 . S
C2040 H2046 0.930 . S
N2041 Li2024 1.990 . S
N2041 C2040 1.314 . S
N2041 C2043 1.279 . S
C2042 C2043 1.358 . S
C2042 C2044 1.356 . S
C2042 H2096 0.930 . S
C2043 N2041 1.279 . S
C2043 C2042 1.358 . S
C2043 H2047 0.930 . S
C2044 C2042 1.356 . S
C2044 C2045 1.348 . S
C2045 C2040 1.353 . S
C2045 C2044 1.348 . S
C2045 H2097 0.929 . S
H2046 C2040 0.930 . S
H2047 C2043 0.930 . S
C2048 N2049 1.314 . S
C2048 C2050 1.353 . S
C2048 H2054 0.930 . S
N2049 Li2025 1.990 . S
N2049 C2048 1.314 . S
N2049 C2052 1.279 . S
C2050 C2048 1.353 . S
C2050 C2053 1.348 . S
C2050 H2098 0.929 . S
C2051 C2052 1.358 . S
C2051 C2053 1.356 . S
C2051 H2099 0.930 . S
C2052 N2049 1.279 . S
C2052 C2051 1.358 . S
C2052 H2055 0.930 . S
C2053 C2050 1.348 . S
C2053 C2051 1.356 . S
H2054 C2048 0.930 . S
H2055 C2052 0.930 . S
C2056 C2058 1.348 . S
C2056 C2059 1.356 . S
C2056 O2086 1.325 . S
N2057 C2060 1.314 . S
N2057 C2061 1.279 . S
C2058 C2056 1.348 . S
C2058 C2060 1.353 . S
C2058 H2100 0.929 . S
C2059 C2056 1.356 . S
C2059 C2061 1.358 . S
C2059 H2101 0.930 . S
C2060 N2057 1.314 . S
C2060 C2058 1.353 . S
C2060 H2102 0.930 . S
C2061 N2057 1.279 . S
C2061 C2059 1.358 . S
C2061 H2103 0.930 . S
C2062 C2063 1.348 . S
C2062 C2064 1.356 . S
C2062 O2087 1.325 . S
C2063 C2062 1.348 . S
C2063 C2065 1.353 . S
C2063 H2104 0.929 . S
C2064 C2062 1.356 . S
C2064 C2066 1.358 . S
C2064 H2105 0.930 . S
C2065 C2063 1.353 . S
C2065 N2067 1.314 . S
C2065 H2106 0.930 . S
C2066 C2064 1.358 . S
C2066 N2067 1.279 . S
C2066 H2107 0.930 . S
N2067 C2065 1.314 . S
N2067 C2066 1.279 . S
C2068 C2070 1.353 . S
C2068 N2071 1.314 . S
C2068 H2074 0.930 . S
C2069 N2071 1.279 . S
C2069 C2072 1.358 . S
C2069 H2075 0.930 . S
C2070 C2068 1.353 . S
C2070 C2073 1.348 . S
C2070 H2108 0.929 . S
N2071 Li2026 1.990 . S
N2071 C2068 1.314 . S
N2071 C2069 1.279 . S
C2072 C2069 1.358 . S
C2072 C2073 1.356 . S
C2072 H2109 0.930 . S
C2073 C2070 1.348 . S
C2073 C2072 1.356 . S
H2074 C2068 0.930 . S
H2075 C2069 0.930 . S
C2076 N2077 1.314 . S
C2076 C2078 1.353 . S
C2076 H2082 0.930 . S
N2077 Li2027 1.990 . S
N2077 C2076 1.314 . S
N2077 C2080 1.279 . S
C2078 C2076 1.353 . S
C2078 C2081 1.348 . S
C2078 H2110 0.929 . S
C2079 C2080 1.358 . S
C2079 C2081 1.356 . S
C2079 H2111 0.930 . S
C2080 N2077 1.279 . S
C2080 C2079 1.358 . S
C2080 H2083 0.930 . S
C2081 C2078 1.348 . S
C2081 C2079 1.356 . S
H2082 C2076 0.930 . S
H2083 C2080 0.930 . S
O2084 Li2024 1.956 . S
O2084 Li2025 1.970 . S
O2084 Li2026 1.961 . S
O2084 C2028 1.325 . S
O2085 Li2024 1.970 . S
O2085 Li2025 1.956 . S
O2085 Li2027 1.961 . S
O2085 C2034 1.325 . S
O2086 Li2024 1.961 . S
O2086 Li2026 1.956 . S
O2086 Li2027 1.970 . S
O2086 C2056 1.325 . S
O2087 Li2025 1.961 . S
O2087 Li2026 1.970 . S
O2087 Li2027 1.956 . S
O2087 C2062 1.325 . S
H2088 C2030 0.929 . S
H2089 C2031 0.930 . S
H2090 C2032 0.930 . S
H2091 C2033 0.930 . S
H2092 C2035 0.930 . S
H2093 C2037 0.929 . S
H2094 C2038 0.930 . S
H2095 C2039 0.930 . S
H2096 C2042 0.930 . S
H2097 C2045 0.929 . S
H2098 C2050 0.929 . S
H2099 C2051 0.930 . S
H2100 C2058 0.929 . S
H2101 C2059 0.930 . S
H2102 C2060 0.930 . S
H2103 C2061 0.930 . S
H2104 C2063 0.929 . S
H2105 C2064 0.930 . S
H2106 C2065 0.930 . S
H2107 C2066 0.930 . S
H2108 C2070 0.929 . S
H2109 C2072 0.930 . S
H2110 C2078 0.929 . S
H2111 C2079 0.930 . S
Nd2112 C2114 2.836 . S
Nd2112 O2132 2.500 . S
Nd2112 O2133 2.492 . S
Nd2112 O2134 2.487 . S
Nd2112 O2135 2.682 . S
Nd2112 O2136 2.410 . S
Nd2112 O2141 2.414 . S
Nd2112 O2143 2.424 . S
Nd2113 C2123 2.836 1_545 S
Nd2113 O2135 2.415 . S
Nd2113 O2137 2.424 1_455 S
Nd2113 O2138 2.500 1_545 S
Nd2113 O2139 2.492 1_445 S
Nd2113 O2140 2.487 1_455 S
Nd2113 O2141 2.682 . S
Nd2113 O2142 2.410 . S
C2114 Nd2112 2.836 . S
C2114 C2115 1.498 . S
C2114 O2132 1.258 . S
C2114 O2133 1.239 . S
C2115 C2114 1.498 . S
C2115 C2116 1.366 . S
C2115 C2120 1.407 . S
C2116 C2115 1.366 . S
C2116 C2117 1.392 . S
C2116 H2144 0.930 . S
C2117 C2116 1.392 . S
C2117 C2118 1.398 . S
C2117 H2145 0.929 . S
C2118 C2117 1.398 . S
C2118 C2119 1.352 . S
C2119 C2118 1.352 . S
C2119 C2120 1.384 . S
C2119 H2146 0.930 . S
C2120 C2115 1.407 . S
C2120 C2119 1.384 . S
C2120 H2147 0.929 . S
C2121 O2134 1.241 . S
C2121 O2135 1.273 . S
C2122 O2136 1.251 1_655 S
C2122 O2137 1.268 . S
C2123 Nd2113 2.836 1_565 S
C2123 C2124 1.498 . S
C2123 O2138 1.258 . S
C2123 O2139 1.239 1_455 S
C2124 C2123 1.498 . S
C2124 C2125 1.366 . S
C2124 C2129 1.407 . S
C2125 C2124 1.366 . S
C2125 C2126 1.392 . S
C2125 H2148 0.930 . S
C2126 C2125 1.392 . S
C2126 C2127 1.398 . S
C2126 H2149 0.929 . S
C2127 C2126 1.398 . S
C2127 C2128 1.352 . S
C2128 C2127 1.352 . S
C2128 C2129 1.384 . S
C2128 H2150 0.930 1_455 S
C2129 C2124 1.407 . S
C2129 C2128 1.384 . S
C2129 H2151 0.929 1_455 S
C2130 O2140 1.241 1_455 S
C2130 O2141 1.273 . S
C2131 O2142 1.251 . S
C2131 O2143 1.268 . S
O2132 Nd2112 2.500 . S
O2132 C2114 1.258 . S
O2133 Nd2112 2.492 . S
O2133 C2114 1.239 . S
O2134 Nd2112 2.487 . S
O2134 C2121 1.241 . S
O2135 Nd2112 2.682 . S
O2135 Nd2113 2.415 . S
O2135 C2121 1.273 . S
O2136 Nd2112 2.410 . S
O2136 C2122 1.251 1_455 S
O2137 Nd2113 2.424 1_655 S
O2137 C2122 1.268 . S
O2138 Nd2113 2.500 1_565 S
O2138 C2123 1.258 . S
O2139 Nd2113 2.492 1_665 S
O2139 C2123 1.239 1_655 S
O2140 Nd2113 2.487 1_655 S
O2140 C2130 1.241 1_655 S
O2141 Nd2112 2.414 . S
O2141 Nd2113 2.682 . S
O2141 C2130 1.273 . S
O2142 Nd2113 2.410 . S
O2142 C2131 1.251 . S
O2143 Nd2112 2.424 . S
O2143 C2131 1.268 . S
H2144 C2116 0.930 . S
H2145 C2117 0.929 . S
H2146 C2119 0.930 . S
H2147 C2120 0.929 . S
H2148 C2125 0.930 . S
H2149 C2126 0.929 . S
H2150 C2128 0.930 1_655 S
H2151 C2129 0.929 1_655 S
Nd2152 C2154 2.836 . S
Nd2152 O2172 2.500 . S
Nd2152 O2173 2.492 . S
Nd2152 O2174 2.487 . S
Nd2152 O2175 2.682 . S
Nd2152 O2176 2.410 . S
Nd2152 O2181 2.414 . S
Nd2152 O2183 2.424 . S
Nd2153 C2163 2.836 . S
Nd2153 O2175 2.414 . S
Nd2153 O2177 2.424 . S
Nd2153 O2178 2.500 . S
Nd2153 O2179 2.492 . S
Nd2153 O2180 2.487 . S
Nd2153 O2181 2.682 . S
Nd2153 O2182 2.410 . S
C2154 Nd2152 2.836 . S
C2154 C2155 1.498 . S
C2154 O2172 1.258 . S
C2154 O2173 1.239 . S
C2155 C2154 1.498 . S
C2155 C2156 1.366 . S
C2155 C2160 1.407 . S
C2156 C2155 1.366 . S
C2156 C2157 1.392 . S
C2156 H2184 0.930 . S
C2157 C2156 1.392 . S
C2157 C2158 1.398 . S
C2157 H2185 0.929 . S
C2158 C2157 1.398 . S
C2158 C2159 1.352 . S
C2159 C2158 1.352 . S
C2159 C2160 1.384 . S
C2159 H2186 0.930 . S
C2160 C2155 1.407 . S
C2160 C2159 1.384 . S
C2160 H2187 0.929 . S
C2161 O2174 1.241 . S
C2161 O2175 1.273 . S
C2162 O2176 1.251 . S
C2162 O2177 1.268 . S
C2163 Nd2153 2.836 . S
C2163 C2164 1.498 . S
C2163 O2178 1.258 . S
C2163 O2179 1.239 . S
C2164 C2163 1.498 . S
C2164 C2165 1.366 . S
C2164 C2169 1.407 . S
C2165 C2164 1.366 . S
C2165 C2166 1.392 . S
C2165 H2188 0.930 . S
C2166 C2165 1.392 . S
C2166 C2167 1.398 . S
C2166 H2189 0.929 . S
C2167 C2166 1.398 . S
C2167 C2168 1.352 . S
C2168 C2167 1.352 . S
C2168 C2169 1.384 . S
C2168 H2190 0.930 . S
C2169 C2164 1.407 . S
C2169 C2168 1.384 . S
C2169 H2191 0.929 . S
C2170 O2180 1.241 . S
C2170 O2181 1.273 . S
C2171 O2182 1.251 . S
C2171 O2183 1.268 . S
O2172 Nd2152 2.500 . S
O2172 C2154 1.258 . S
O2173 Nd2152 2.492 . S
O2173 C2154 1.239 . S
O2174 Nd2152 2.487 . S
O2174 C2161 1.241 . S
O2175 Nd2152 2.682 . S
O2175 Nd2153 2.414 . S
O2175 C2161 1.273 . S
O2176 Nd2152 2.410 . S
O2176 C2162 1.251 . S
O2177 Nd2153 2.424 . S
O2177 C2162 1.268 . S
O2178 Nd2153 2.500 . S
O2178 C2163 1.258 . S
O2179 Nd2153 2.492 . S
O2179 C2163 1.239 . S
O2180 Nd2153 2.487 . S
O2180 C2170 1.241 . S
O2181 Nd2152 2.414 . S
O2181 Nd2153 2.682 . S
O2181 C2170 1.273 . S
O2182 Nd2153 2.410 . S
O2182 C2171 1.251 . S
O2183 Nd2152 2.424 . S
O2183 C2171 1.268 . S
H2184 C2156 0.930 . S
H2185 C2157 0.929 . S
H2186 C2159 0.930 . S
H2187 C2160 0.929 . S
H2188 C2165 0.930 . S
H2189 C2166 0.929 . S
H2190 C2168 0.930 . S
H2191 C2169 0.929 . S
Nd2192 C2194 2.836 . S
Nd2192 O2212 2.500 . S
Nd2192 O2213 2.492 . S
Nd2192 O2214 2.487 . S
Nd2192 O2215 2.682 . S
Nd2192 O2216 2.410 . S
Nd2192 O2221 2.414 . S
Nd2192 O2223 2.424 . S
Nd2193 C2203 2.836 . S
Nd2193 O2215 2.414 . S
Nd2193 O2217 2.424 . S
Nd2193 O2218 2.500 . S
Nd2193 O2219 2.492 . S
Nd2193 O2220 2.487 . S
Nd2193 O2221 2.682 . S
Nd2193 O2222 2.410 . S
C2194 Nd2192 2.836 . S
C2194 C2195 1.498 . S
C2194 O2212 1.258 . S
C2194 O2213 1.239 . S
C2195 C2194 1.498 . S
C2195 C2196 1.366 . S
C2195 C2200 1.407 . S
C2196 C2195 1.366 . S
C2196 C2197 1.392 . S
C2196 H2224 0.930 . S
C2197 C2196 1.392 . S
C2197 C2198 1.398 . S
C2197 H2225 0.929 . S
C2198 C2197 1.398 . S
C2198 C2199 1.352 . S
C2199 C2198 1.352 . S
C2199 C2200 1.384 . S
C2199 H2226 0.930 . S
C2200 C2195 1.407 . S
C2200 C2199 1.384 . S
C2200 H2227 0.929 . S
C2201 O2214 1.241 . S
C2201 O2215 1.273 . S
C2202 O2216 1.251 . S
C2202 O2217 1.268 . S
C2203 Nd2193 2.836 . S
C2203 C2204 1.498 . S
C2203 O2218 1.258 . S
C2203 O2219 1.239 . S
C2204 C2203 1.498 . S
C2204 C2205 1.366 . S
C2204 C2209 1.407 . S
C2205 C2204 1.366 . S
C2205 C2206 1.392 . S
C2205 H2228 0.930 . S
C2206 C2205 1.392 . S
C2206 C2207 1.398 . S
C2206 H2229 0.929 . S
C2207 C2206 1.398 . S
C2207 C2208 1.352 . S
C2208 C2207 1.352 . S
C2208 C2209 1.384 . S
C2208 H2230 0.930 . S
C2209 C2204 1.407 . S
C2209 C2208 1.384 . S
C2209 H2231 0.929 . S
C2210 O2220 1.241 . S
C2210 O2221 1.273 . S
C2211 O2222 1.251 . S
C2211 O2223 1.268 . S
O2212 Nd2192 2.500 . S
O2212 C2194 1.258 . S
O2213 Nd2192 2.492 . S
O2213 C2194 1.239 . S
O2214 Nd2192 2.487 . S
O2214 C2201 1.241 . S
O2215 Nd2192 2.682 . S
O2215 Nd2193 2.414 . S
O2215 C2201 1.273 . S
O2216 Nd2192 2.410 . S
O2216 C2202 1.251 . S
O2217 Nd2193 2.424 . S
O2217 C2202 1.268 . S
O2218 Nd2193 2.500 . S
O2218 C2203 1.258 . S
O2219 Nd2193 2.492 . S
O2219 C2203 1.239 . S
O2220 Nd2193 2.487 . S
O2220 C2210 1.241 . S
O2221 Nd2192 2.414 . S
O2221 Nd2193 2.682 . S
O2221 C2210 1.273 . S
O2222 Nd2193 2.410 . S
O2222 C2211 1.251 . S
O2223 Nd2192 2.424 . S
O2223 C2211 1.268 . S
H2224 C2196 0.930 . S
H2225 C2197 0.929 . S
H2226 C2199 0.930 . S
H2227 C2200 0.929 . S
H2228 C2205 0.930 . S
H2229 C2206 0.929 . S
H2230 C2208 0.930 . S
H2231 C2209 0.929 . S
Nd2232 C2234 2.836 . S
Nd2232 O2252 2.500 . S
Nd2232 O2253 2.492 . S
Nd2232 O2254 2.487 . S
Nd2232 O2255 2.682 . S
Nd2232 O2256 2.410 . S
Nd2232 O2261 2.414 . S
Nd2232 O2263 2.424 . S
Nd2233 C2243 2.836 . S
Nd2233 O2255 2.414 . S
Nd2233 O2257 2.424 . S
Nd2233 O2258 2.500 . S
Nd2233 O2259 2.492 . S
Nd2233 O2260 2.487 . S
Nd2233 O2261 2.682 . S
Nd2233 O2262 2.410 . S
C2234 Nd2232 2.836 . S
C2234 C2235 1.498 . S
C2234 O2252 1.258 . S
C2234 O2253 1.239 . S
C2235 C2234 1.498 . S
C2235 C2236 1.366 . S
C2235 C2240 1.407 . S
C2236 C2235 1.366 . S
C2236 C2237 1.392 . S
C2236 H2264 0.930 . S
C2237 C2236 1.392 . S
C2237 C2238 1.398 . S
C2237 H2265 0.929 . S
C2238 C2237 1.398 . S
C2238 C2239 1.352 . S
C2239 C2238 1.352 . S
C2239 C2240 1.384 . S
C2239 H2266 0.930 . S
C2240 C2235 1.407 . S
C2240 C2239 1.384 . S
C2240 H2267 0.929 . S
C2241 O2254 1.241 . S
C2241 O2255 1.273 . S
C2242 O2256 1.251 . S
C2242 O2257 1.268 . S
C2243 Nd2233 2.836 . S
C2243 C2244 1.498 . S
C2243 O2258 1.258 . S
C2243 O2259 1.239 . S
C2244 C2243 1.498 . S
C2244 C2245 1.366 . S
C2244 C2249 1.407 . S
C2245 C2244 1.366 . S
C2245 C2246 1.392 . S
C2245 H2268 0.930 . S
C2246 C2245 1.392 . S
C2246 C2247 1.398 . S
C2246 H2269 0.929 . S
C2247 C2246 1.398 . S
C2247 C2248 1.352 . S
C2248 C2247 1.352 . S
C2248 C2249 1.384 . S
C2248 H2270 0.930 . S
C2249 C2244 1.407 . S
C2249 C2248 1.384 . S
C2249 H2271 0.929 . S
C2250 O2260 1.241 . S
C2250 O2261 1.273 . S
C2251 O2262 1.251 . S
C2251 O2263 1.268 . S
O2252 Nd2232 2.500 . S
O2252 C2234 1.258 . S
O2253 Nd2232 2.492 . S
O2253 C2234 1.239 . S
O2254 Nd2232 2.487 . S
O2254 C2241 1.241 . S
O2255 Nd2232 2.682 . S
O2255 Nd2233 2.414 . S
O2255 C2241 1.273 . S
O2256 Nd2232 2.410 . S
O2256 C2242 1.251 . S
O2257 Nd2233 2.424 . S
O2257 C2242 1.268 . S
O2258 Nd2233 2.500 . S
O2258 C2243 1.258 . S
O2259 Nd2233 2.492 . S
O2259 C2243 1.239 . S
O2260 Nd2233 2.487 . S
O2260 C2250 1.241 . S
O2261 Nd2232 2.414 . S
O2261 Nd2233 2.682 . S
O2261 C2250 1.273 . S
O2262 Nd2233 2.410 . S
O2262 C2251 1.251 . S
O2263 Nd2232 2.424 . S
O2263 C2251 1.268 . S
H2264 C2236 0.930 . S
H2265 C2237 0.929 . S
H2266 C2239 0.930 . S
H2267 C2240 0.929 . S
H2268 C2245 0.930 . S
H2269 C2246 0.929 . S
H2270 C2248 0.930 . S
H2271 C2249 0.929 . S
Nd2272 C2274 2.836 . S
Nd2272 O2292 2.500 1_455 S
Nd2272 O2293 2.492 . S
Nd2272 O2294 2.487 . S
Nd2272 O2295 2.682 . S
Nd2272 O2296 2.410 . S
Nd2272 O2301 2.414 1_455 S
Nd2272 O2303 2.424 . S
Nd2273 C2283 2.836 1_545 S
Nd2273 O2295 2.414 . S
Nd2273 O2297 2.424 . S
Nd2273 O2298 2.500 . S
Nd2273 O2299 2.492 1_545 S
Nd2273 O2300 2.487 1_455 S
Nd2273 O2301 2.682 1_455 S
Nd2273 O2302 2.410 . S
C2274 Nd2272 2.836 . S
C2274 C2275 1.498 . S
C2274 O2292 1.258 1_455 S
C2274 O2293 1.239 . S
C2275 C2274 1.498 . S
C2275 C2276 1.366 1_455 S
C2275 C2280 1.407 . S
C2276 C2275 1.366 1_655 S
C2276 C2277 1.392 . S
C2276 H2304 0.930 . S
C2277 C2276 1.392 . S
C2277 C2278 1.398 . S
C2277 H2305 0.929 . S
C2278 C2277 1.398 . S
C2278 C2279 1.352 1_655 S
C2279 C2278 1.352 1_455 S
C2279 C2280 1.384 . S
C2279 H2306 0.930 . S
C2280 C2275 1.407 . S
C2280 C2279 1.384 . S
C2280 H2307 0.929 . S
C2281 O2294 1.241 . S
C2281 O2295 1.273 . S
C2282 O2296 1.251 . S
C2282 O2297 1.268 . S
C2283 Nd2273 2.836 1_565 S
C2283 C2284 1.498 . S
C2283 O2298 1.258 1_565 S
C2283 O2299 1.239 . S
C2284 C2283 1.498 . S
C2284 C2285 1.366 . S
C2284 C2289 1.407 . S
C2285 C2284 1.366 . S
C2285 C2286 1.392 . S
C2285 H2308 0.930 . S
C2286 C2285 1.392 . S
C2286 C2287 1.398 . S
C2286 H2309 0.929 . S
C2287 C2286 1.398 . S
C2287 C2288 1.352 . S
C2288 C2287 1.352 . S
C2288 C2289 1.384 . S
C2288 H2310 0.930 . S
C2289 C2284 1.407 . S
C2289 C2288 1.384 . S
C2289 H2311 0.929 . S
C2290 O2300 1.241 . S
C2290 O2301 1.273 . S
C2291 O2302 1.251 . S
C2291 O2303 1.268 . S
O2292 Nd2272 2.500 1_655 S
O2292 C2274 1.258 1_655 S
O2293 Nd2272 2.492 . S
O2293 C2274 1.239 . S
O2294 Nd2272 2.487 . S
O2294 C2281 1.241 . S
O2295 Nd2272 2.682 . S
O2295 Nd2273 2.414 . S
O2295 C2281 1.273 . S
O2296 Nd2272 2.410 . S
O2296 C2282 1.251 . S
O2297 Nd2273 2.424 . S
O2297 C2282 1.268 . S
O2298 Nd2273 2.500 . S
O2298 C2283 1.258 1_545 S
O2299 Nd2273 2.492 1_565 S
O2299 C2283 1.239 . S
O2300 Nd2273 2.487 1_655 S
O2300 C2290 1.241 . S
O2301 Nd2272 2.414 1_655 S
O2301 Nd2273 2.682 1_655 S
O2301 C2290 1.273 . S
O2302 Nd2273 2.410 . S
O2302 C2291 1.251 . S
O2303 Nd2272 2.424 . S
O2303 C2291 1.268 . S
H2304 C2276 0.930 . S
H2305 C2277 0.929 . S
H2306 C2279 0.930 . S
H2307 C2280 0.929 . S
H2308 C2285 0.930 . S
H2309 C2286 0.929 . S
H2310 C2288 0.930 . S
H2311 C2289 0.929 . S
Nd2312 C2314 2.836 . S
Nd2312 O2332 2.500 . S
Nd2312 O2333 2.492 . S
Nd2312 O2334 2.487 . S
Nd2312 O2335 2.682 . S
Nd2312 O2336 2.410 . S
Nd2312 O2341 2.414 . S
Nd2312 O2343 2.424 . S
Nd2313 C2323 2.836 . S
Nd2313 O2335 2.414 . S
Nd2313 O2337 2.424 . S
Nd2313 O2338 2.500 . S
Nd2313 O2339 2.492 . S
Nd2313 O2340 2.487 . S
Nd2313 O2341 2.682 . S
Nd2313 O2342 2.410 . S
C2314 Nd2312 2.836 . S
C2314 C2315 1.498 . S
C2314 O2332 1.258 . S
C2314 O2333 1.239 . S
C2315 C2314 1.498 . S
C2315 C2316 1.366 . S
C2315 C2320 1.407 . S
C2316 C2315 1.366 . S
C2316 C2317 1.392 . S
C2316 H2344 0.930 . S
C2317 C2316 1.392 . S
C2317 C2318 1.398 . S
C2317 H2345 0.929 . S
C2318 C2317 1.398 . S
C2318 C2319 1.352 . S
C2319 C2318 1.352 . S
C2319 C2320 1.384 . S
C2319 H2346 0.930 . S
C2320 C2315 1.407 . S
C2320 C2319 1.384 . S
C2320 H2347 0.929 . S
C2321 O2334 1.241 . S
C2321 O2335 1.273 . S
C2322 O2336 1.251 . S
C2322 O2337 1.268 . S
C2323 Nd2313 2.836 . S
C2323 C2324 1.498 . S
C2323 O2338 1.258 . S
C2323 O2339 1.239 . S
C2324 C2323 1.498 . S
C2324 C2325 1.366 . S
C2324 C2329 1.407 . S
C2325 C2324 1.366 . S
C2325 C2326 1.392 . S
C2325 H2348 0.930 . S
C2326 C2325 1.392 . S
C2326 C2327 1.398 . S
C2326 H2349 0.929 . S
C2327 C2326 1.398 . S
C2327 C2328 1.352 . S
C2328 C2327 1.352 . S
C2328 C2329 1.384 . S
C2328 H2350 0.930 . S
C2329 C2324 1.407 . S
C2329 C2328 1.384 . S
C2329 H2351 0.929 . S
C2330 O2340 1.241 . S
C2330 O2341 1.273 . S
C2331 O2342 1.251 . S
C2331 O2343 1.268 . S
O2332 Nd2312 2.500 . S
O2332 C2314 1.258 . S
O2333 Nd2312 2.492 . S
O2333 C2314 1.239 . S
O2334 Nd2312 2.487 . S
O2334 C2321 1.241 . S
O2335 Nd2312 2.682 . S
O2335 Nd2313 2.414 . S
O2335 C2321 1.273 . S
O2336 Nd2312 2.410 . S
O2336 C2322 1.251 . S
O2337 Nd2313 2.424 . S
O2337 C2322 1.268 . S
O2338 Nd2313 2.500 . S
O2338 C2323 1.258 . S
O2339 Nd2313 2.492 . S
O2339 C2323 1.239 . S
O2340 Nd2313 2.487 . S
O2340 C2330 1.241 . S
O2341 Nd2312 2.414 . S
O2341 Nd2313 2.682 . S
O2341 C2330 1.273 . S
O2342 Nd2313 2.410 . S
O2342 C2331 1.251 . S
O2343 Nd2312 2.424 . S
O2343 C2331 1.268 . S
H2344 C2316 0.930 . S
H2345 C2317 0.929 . S
H2346 C2319 0.930 . S
H2347 C2320 0.929 . S
H2348 C2325 0.930 . S
H2349 C2326 0.929 . S
H2350 C2328 0.930 . S
H2351 C2329 0.929 . S
Nd2352 C2354 2.836 . S
Nd2352 O2372 2.500 . S
Nd2352 O2373 2.492 . S
Nd2352 O2374 2.487 . S
Nd2352 O2375 2.682 . S
Nd2352 O2376 2.410 . S
Nd2352 O2381 2.414 . S
Nd2352 O2383 2.424 . S
Nd2353 C2363 2.836 . S
Nd2353 O2375 2.414 . S
Nd2353 O2377 2.424 . S
Nd2353 O2378 2.500 . S
Nd2353 O2379 2.492 . S
Nd2353 O2380 2.487 . S
Nd2353 O2381 2.682 . S
Nd2353 O2382 2.410 . S
C2354 Nd2352 2.836 . S
C2354 C2355 1.498 . S
C2354 O2372 1.258 . S
C2354 O2373 1.239 . S
C2355 C2354 1.498 . S
C2355 C2356 1.366 . S
C2355 C2360 1.407 . S
C2356 C2355 1.366 . S
C2356 C2357 1.392 . S
C2356 H2384 0.930 . S
C2357 C2356 1.392 . S
C2357 C2358 1.398 . S
C2357 H2385 0.929 . S
C2358 C2357 1.398 . S
C2358 C2359 1.352 . S
C2359 C2358 1.352 . S
C2359 C2360 1.384 . S
C2359 H2386 0.930 1_545 S
C2360 C2355 1.407 . S
C2360 C2359 1.384 . S
C2360 H2387 0.907 1_545 S
C2361 O2374 1.241 . S
C2361 O2375 1.273 . S
C2362 O2376 1.251 . S
C2362 O2377 1.268 . S
C2363 Nd2353 2.836 . S
C2363 C2364 1.498 . S
C2363 O2378 1.258 . S
C2363 O2379 1.239 . S
C2364 C2363 1.498 . S
C2364 C2365 1.366 . S
C2364 C2369 1.407 . S
C2365 C2364 1.366 . S
C2365 C2366 1.392 . S
C2365 H2388 0.930 . S
C2366 C2365 1.392 . S
C2366 C2367 1.398 . S
C2366 H2389 0.929 . S
C2367 C2366 1.398 . S
C2367 C2368 1.352 . S
C2368 C2367 1.352 . S
C2368 C2369 1.384 . S
C2368 H2390 0.930 . S
C2369 C2364 1.407 . S
C2369 C2368 1.384 . S
C2369 H2391 0.929 . S
C2370 O2380 1.241 . S
C2370 O2381 1.273 . S
C2371 O2382 1.251 . S
C2371 O2383 1.268 . S
O2372 Nd2352 2.500 . S
O2372 C2354 1.258 . S
O2373 Nd2352 2.492 . S
O2373 C2354 1.239 . S
O2374 Nd2352 2.487 . S
O2374 C2361 1.241 . S
O2375 Nd2352 2.682 . S
O2375 Nd2353 2.414 . S
O2375 C2361 1.273 . S
O2376 Nd2352 2.410 . S
O2376 C2362 1.251 . S
O2377 Nd2353 2.424 . S
O2377 C2362 1.268 . S
O2378 Nd2353 2.500 . S
O2378 C2363 1.258 . S
O2379 Nd2353 2.492 . S
O2379 C2363 1.239 . S
O2380 Nd2353 2.487 . S
O2380 C2370 1.241 . S
O2381 Nd2352 2.414 . S
O2381 Nd2353 2.682 . S
O2381 C2370 1.273 . S
O2382 Nd2353 2.410 . S
O2382 C2371 1.251 . S
O2383 Nd2352 2.424 . S
O2383 C2371 1.268 . S
H2384 C2356 0.930 . S
H2385 C2357 0.929 . S
H2386 C2359 0.930 1_565 S
H2387 C2360 0.907 1_565 S
H2388 C2365 0.930 . S
H2389 C2366 0.929 . S
H2390 C2368 0.930 . S
H2391 C2369 0.929 . S
Nd2392 C2394 2.836 . S
Nd2392 O2412 2.500 . S
Nd2392 O2413 2.492 . S
Nd2392 O2414 2.487 . S
Nd2392 O2415 2.682 . S
Nd2392 O2416 2.410 . S
Nd2392 O2421 2.414 . S
Nd2392 O2423 2.424 . S
Nd2393 C2403 2.836 . S
Nd2393 O2415 2.414 . S
Nd2393 O2417 2.424 . S
Nd2393 O2418 2.500 . S
Nd2393 O2419 2.492 . S
Nd2393 O2420 2.487 . S
Nd2393 O2421 2.682 . S
Nd2393 O2422 2.410 . S
C2394 Nd2392 2.836 . S
C2394 C2395 1.498 . S
C2394 O2412 1.258 . S
C2394 O2413 1.239 . S
C2395 C2394 1.498 . S
C2395 C2396 1.366 . S
C2395 C2400 1.407 . S
C2396 C2395 1.366 . S
C2396 C2397 1.392 . S
C2396 H2424 0.930 . S
C2397 C2396 1.392 . S
C2397 C2398 1.398 . S
C2397 H2425 0.929 . S
C2398 C2397 1.398 . S
C2398 C2399 1.352 . S
C2399 C2398 1.352 . S
C2399 C2400 1.384 . S
C2399 H2426 0.930 . S
C2400 C2395 1.407 . S
C2400 C2399 1.384 . S
C2400 H2427 0.929 . S
C2401 O2414 1.241 . S
C2401 O2415 1.273 . S
C2402 O2416 1.251 . S
C2402 O2417 1.268 . S
C2403 Nd2393 2.836 . S
C2403 C2404 1.498 . S
C2403 O2418 1.258 . S
C2403 O2419 1.239 . S
C2404 C2403 1.498 . S
C2404 C2405 1.366 . S
C2404 C2409 1.407 . S
C2405 C2404 1.366 . S
C2405 C2406 1.392 . S
C2405 H2428 0.930 . S
C2406 C2405 1.392 . S
C2406 C2407 1.398 . S
C2406 H2429 0.929 . S
C2407 C2406 1.398 . S
C2407 C2408 1.352 . S
C2408 C2407 1.352 . S
C2408 C2409 1.384 . S
C2408 H2430 0.930 . S
C2409 C2404 1.407 . S
C2409 C2408 1.384 . S
C2409 H2431 0.929 . S
C2410 O2420 1.241 . S
C2410 O2421 1.273 . S
C2411 O2422 1.251 . S
C2411 O2423 1.268 . S
O2412 Nd2392 2.500 . S
O2412 C2394 1.258 . S
O2413 Nd2392 2.492 . S
O2413 C2394 1.239 . S
O2414 Nd2392 2.487 . S
O2414 C2401 1.241 . S
O2415 Nd2392 2.682 . S
O2415 Nd2393 2.414 . S
O2415 C2401 1.273 . S
O2416 Nd2392 2.410 . S
O2416 C2402 1.251 . S
O2417 Nd2393 2.424 . S
O2417 C2402 1.268 . S
O2418 Nd2393 2.500 . S
O2418 C2403 1.258 . S
O2419 Nd2393 2.492 . S
O2419 C2403 1.239 . S
O2420 Nd2393 2.487 . S
O2420 C2410 1.241 . S
O2421 Nd2392 2.414 . S
O2421 Nd2393 2.682 . S
O2421 C2410 1.273 . S
O2422 Nd2393 2.410 . S
O2422 C2411 1.251 . S
O2423 Nd2392 2.424 . S
O2423 C2411 1.268 . S
H2424 C2396 0.930 . S
H2425 C2397 0.929 . S
H2426 C2399 0.930 . S
H2427 C2400 0.929 . S
H2428 C2405 0.930 . S
H2429 C2406 0.929 . S
H2430 C2408 0.930 . S
H2431 C2409 0.929 . S
Nd2432 C2434 2.836 . S
Nd2432 O2452 2.500 . S
Nd2432 O2453 2.492 . S
Nd2432 O2454 2.487 . S
Nd2432 O2455 2.682 . S
Nd2432 O2456 2.410 . S
Nd2432 O2461 2.414 . S
Nd2432 O2463 2.424 . S
Nd2433 C2443 2.836 . S
Nd2433 O2455 2.414 . S
Nd2433 O2457 2.424 . S
Nd2433 O2458 2.500 . S
Nd2433 O2459 2.492 . S
Nd2433 O2460 2.487 . S
Nd2433 O2461 2.682 . S
Nd2433 O2462 2.410 . S
C2434 Nd2432 2.836 . S
C2434 C2435 1.498 . S
C2434 O2452 1.258 . S
C2434 O2453 1.239 . S
C2435 C2434 1.498 . S
C2435 C2436 1.366 . S
C2435 C2440 1.407 . S
C2436 C2435 1.366 . S
C2436 C2437 1.392 . S
C2436 H2464 0.930 . S
C2437 C2436 1.392 . S
C2437 C2438 1.398 . S
C2437 H2465 0.930 1_554 S
C2438 C2437 1.398 . S
C2438 C2439 1.352 . S
C2439 C2438 1.352 . S
C2439 C2440 1.384 . S
C2439 H2466 0.930 . S
C2440 C2435 1.407 . S
C2440 C2439 1.384 . S
C2440 H2467 0.929 . S
C2441 O2454 1.241 . S
C2441 O2455 1.273 . S
C2442 O2456 1.251 . S
C2442 O2457 1.268 . S
C2443 Nd2433 2.836 . S
C2443 C2444 1.498 . S
C2443 O2458 1.258 . S
C2443 O2459 1.239 . S
C2444 C2443 1.498 . S
C2444 C2445 1.366 . S
C2444 C2449 1.407 . S
C2445 C2444 1.366 . S
C2445 C2446 1.392 . S
C2445 H2468 0.930 . S
C2446 C2445 1.392 . S
C2446 C2447 1.398 . S
C2446 H2469 0.929 . S
C2447 C2446 1.398 . S
C2447 C2448 1.352 . S
C2448 C2447 1.352 . S
C2448 C2449 1.384 . S
C2448 H2470 0.930 . S
C2449 C2444 1.407 . S
C2449 C2448 1.384 . S
C2449 H2471 0.929 . S
C2450 O2460 1.241 . S
C2450 O2461 1.273 . S
C2451 O2462 1.251 . S
C2451 O2463 1.268 . S
O2452 Nd2432 2.500 . S
O2452 C2434 1.258 . S
O2453 Nd2432 2.492 . S
O2453 C2434 1.239 . S
O2454 Nd2432 2.487 . S
O2454 C2441 1.241 . S
O2455 Nd2432 2.682 . S
O2455 Nd2433 2.414 . S
O2455 C2441 1.273 . S
O2456 Nd2432 2.410 . S
O2456 C2442 1.251 . S
O2457 Nd2433 2.424 . S
O2457 C2442 1.268 . S
O2458 Nd2433 2.500 . S
O2458 C2443 1.258 . S
O2459 Nd2433 2.492 . S
O2459 C2443 1.239 . S
O2460 Nd2433 2.487 . S
O2460 C2450 1.241 . S
O2461 Nd2432 2.414 . S
O2461 Nd2433 2.682 . S
O2461 C2450 1.273 . S
O2462 Nd2433 2.410 . S
O2462 C2451 1.251 . S
O2463 Nd2432 2.424 . S
O2463 C2451 1.268 . S
H2464 C2436 0.930 . S
H2465 C2437 0.930 1_556 S
H2466 C2439 0.930 . S
H2467 C2440 0.929 . S
H2468 C2445 0.930 . S
H2469 C2446 0.929 . S
H2470 C2448 0.930 . S
H2471 C2449 0.929 . S
Nd2472 C2474 2.836 . S
Nd2472 O2492 2.500 . S
Nd2472 O2493 2.492 . S
Nd2472 O2494 2.487 . S
Nd2472 O2495 2.682 . S
Nd2472 O2496 2.410 . S
Nd2472 O2501 2.414 . S
Nd2472 O2503 2.424 . S
Nd2473 C2483 2.836 . S
Nd2473 O2495 2.414 . S
Nd2473 O2497 2.424 . S
Nd2473 O2498 2.500 . S
Nd2473 O2499 2.492 . S
Nd2473 O2500 2.487 . S
Nd2473 O2501 2.682 . S
Nd2473 O2502 2.410 . S
C2474 Nd2472 2.836 . S
C2474 C2475 1.498 . S
C2474 O2492 1.258 . S
C2474 O2493 1.239 . S
C2475 C2474 1.498 . S
C2475 C2476 1.366 . S
C2475 C2480 1.407 . S
C2476 C2475 1.366 . S
C2476 C2477 1.392 . S
C2476 H2504 0.930 . S
C2477 C2476 1.392 . S
C2477 C2478 1.398 . S
C2477 H2505 0.929 . S
C2478 C2477 1.398 . S
C2478 C2479 1.352 . S
C2479 C2478 1.352 . S
C2479 C2480 1.384 . S
C2479 H2506 0.930 . S
C2480 C2475 1.407 . S
C2480 C2479 1.384 . S
C2480 H2507 0.929 . S
C2481 O2494 1.241 . S
C2481 O2495 1.273 . S
C2482 O2496 1.251 . S
C2482 O2497 1.268 . S
C2483 Nd2473 2.836 . S
C2483 C2484 1.498 . S
C2483 O2498 1.258 . S
C2483 O2499 1.239 . S
C2484 C2483 1.498 . S
C2484 C2485 1.366 . S
C2484 C2489 1.407 . S
C2485 C2484 1.366 . S
C2485 C2486 1.392 . S
C2485 H2508 0.930 . S
C2486 C2485 1.392 . S
C2486 C2487 1.398 . S
C2486 H2509 0.929 . S
C2487 C2486 1.398 . S
C2487 C2488 1.352 . S
C2488 C2487 1.352 . S
C2488 C2489 1.384 . S
C2488 H2510 0.930 . S
C2489 C2484 1.407 . S
C2489 C2488 1.384 . S
C2489 H2511 0.929 . S
C2490 O2500 1.241 . S
C2490 O2501 1.273 . S
C2491 O2502 1.251 . S
C2491 O2503 1.268 . S
O2492 Nd2472 2.500 . S
O2492 C2474 1.258 . S
O2493 Nd2472 2.492 . S
O2493 C2474 1.239 . S
O2494 Nd2472 2.487 . S
O2494 C2481 1.241 . S
O2495 Nd2472 2.682 . S
O2495 Nd2473 2.414 . S
O2495 C2481 1.273 . S
O2496 Nd2472 2.410 . S
O2496 C2482 1.251 . S
O2497 Nd2473 2.424 . S
O2497 C2482 1.268 . S
O2498 Nd2473 2.500 . S
O2498 C2483 1.258 . S
O2499 Nd2473 2.492 . S
O2499 C2483 1.239 . S
O2500 Nd2473 2.487 . S
O2500 C2490 1.241 . S
O2501 Nd2472 2.414 . S
O2501 Nd2473 2.682 . S
O2501 C2490 1.273 . S
O2502 Nd2473 2.410 . S
O2502 C2491 1.251 . S
O2503 Nd2472 2.424 . S
O2503 C2491 1.268 . S
H2504 C2476 0.930 . S
H2505 C2477 0.929 . S
H2506 C2479 0.930 . S
H2507 C2480 0.929 . S
H2508 C2485 0.930 . S
H2509 C2486 0.929 . S
H2510 C2488 0.930 . S
H2511 C2489 0.929 . S
Nd2512 C2514 2.836 . S
Nd2512 O2532 2.500 . S
Nd2512 O2533 2.492 . S
Nd2512 O2534 2.468 1_655 S
Nd2512 O2535 2.682 1_655 S
Nd2512 O2536 2.410 . S
Nd2512 O2541 2.414 1_655 S
Nd2512 O2543 2.424 1_655 S
Nd2513 C2523 2.836 . S
Nd2513 O2535 2.414 . S
Nd2513 O2537 2.424 . S
Nd2513 O2538 2.500 . S
Nd2513 O2539 2.492 . S
Nd2513 O2540 2.487 . S
Nd2513 O2541 2.682 . S
Nd2513 O2542 2.410 . S
C2514 Nd2512 2.836 . S
C2514 C2515 1.498 . S
C2514 O2532 1.258 . S
C2514 O2533 1.239 . S
C2515 C2514 1.498 . S
C2515 C2516 1.366 . S
C2515 C2520 1.407 . S
C2516 C2515 1.366 . S
C2516 C2517 1.392 . S
C2516 H2544 0.930 . S
C2517 C2516 1.392 . S
C2517 C2518 1.398 . S
C2517 H2545 0.929 . S
C2518 C2517 1.398 . S
C2518 C2519 1.352 . S
C2519 C2518 1.352 . S
C2519 C2520 1.384 . S
C2519 H2546 0.930 . S
C2520 C2515 1.407 . S
C2520 C2519 1.384 . S
C2520 H2547 0.929 . S
C2521 O2534 1.281 . S
C2521 O2535 1.273 . S
C2522 O2536 1.251 1_455 S
C2522 O2537 1.268 . S
C2523 Nd2513 2.836 . S
C2523 C2524 1.498 . S
C2523 O2538 1.258 . S
C2523 O2539 1.239 . S
C2524 C2523 1.498 . S
C2524 C2525 1.366 . S
C2524 C2529 1.407 . S
C2525 C2524 1.366 . S
C2525 C2526 1.392 . S
C2525 H2548 0.930 . S
C2526 C2525 1.392 . S
C2526 C2527 1.398 . S
C2526 H2549 0.929 . S
C2527 C2526 1.398 . S
C2527 C2528 1.352 . S
C2528 C2527 1.352 . S
C2528 C2529 1.384 . S
C2528 H2550 0.930 . S
C2529 C2524 1.407 . S
C2529 C2528 1.384 . S
C2529 H2551 0.929 . S
C2530 O2540 1.241 . S
C2530 O2541 1.273 . S
C2531 O2542 1.251 . S
C2531 O2543 1.268 . S
O2532 Nd2512 2.500 . S
O2532 C2514 1.258 . S
O2533 Nd2512 2.492 . S
O2533 C2514 1.239 . S
O2534 Nd2512 2.468 1_455 S
O2534 C2521 1.281 . S
O2535 Nd2512 2.682 1_455 S
O2535 Nd2513 2.414 . S
O2535 C2521 1.273 . S
O2536 Nd2512 2.410 . S
O2536 C2522 1.251 1_655 S
O2537 Nd2513 2.424 . S
O2537 C2522 1.268 . S
O2538 Nd2513 2.500 . S
O2538 C2523 1.258 . S
O2539 Nd2513 2.492 . S
O2539 C2523 1.239 . S
O2540 Nd2513 2.487 . S
O2540 C2530 1.241 . S
O2541 Nd2512 2.414 1_455 S
O2541 Nd2513 2.682 . S
O2541 C2530 1.273 . S
O2542 Nd2513 2.410 . S
O2542 C2531 1.251 . S
O2543 Nd2512 2.424 1_455 S
O2543 C2531 1.268 . S
H2544 C2516 0.930 . S
H2545 C2517 0.929 . S
H2546 C2519 0.930 . S
H2547 C2520 0.929 . S
H2548 C2525 0.930 . S
H2549 C2526 0.929 . S
H2550 C2528 0.930 . S
H2551 C2529 0.929 . S
Nd2552 C2554 2.836 . S
Nd2552 O2572 2.500 . S
Nd2552 O2573 2.492 . S
Nd2552 O2574 2.487 . S
Nd2552 O2575 2.682 . S
Nd2552 O2576 2.410 . S
Nd2552 O2581 2.414 . S
Nd2552 O2583 2.424 . S
Nd2553 C2563 2.836 . S
Nd2553 O2575 2.414 . S
Nd2553 O2577 2.424 . S
Nd2553 O2578 2.500 . S
Nd2553 O2579 2.492 . S
Nd2553 O2580 2.487 . S
Nd2553 O2581 2.682 . S
Nd2553 O2582 2.410 . S
C2554 Nd2552 2.836 . S
C2554 C2555 1.498 . S
C2554 O2572 1.258 . S
C2554 O2573 1.239 . S
C2555 C2554 1.498 . S
C2555 C2556 1.366 . S
C2555 C2560 1.407 . S
C2556 C2555 1.366 . S
C2556 C2557 1.392 . S
C2556 H2584 0.930 . S
C2557 C2556 1.392 . S
C2557 C2558 1.398 . S
C2557 H2585 0.929 . S
C2558 C2557 1.398 . S
C2558 C2559 1.352 . S
C2559 C2558 1.352 . S
C2559 C2560 1.384 . S
C2559 H2586 0.930 . S
C2560 C2555 1.407 . S
C2560 C2559 1.384 . S
C2560 H2587 0.929 . S
C2561 O2574 1.241 . S
C2561 O2575 1.273 . S
C2562 O2576 1.251 . S
C2562 O2577 1.268 . S
C2563 Nd2553 2.836 . S
C2563 C2564 1.498 . S
C2563 O2578 1.258 . S
C2563 O2579 1.239 . S
C2564 C2563 1.498 . S
C2564 C2565 1.366 . S
C2564 C2569 1.407 . S
C2565 C2564 1.366 . S
C2565 C2566 1.392 . S
C2565 H2588 0.930 . S
C2566 C2565 1.392 . S
C2566 C2567 1.398 . S
C2566 H2589 0.929 . S
C2567 C2566 1.398 . S
C2567 C2568 1.352 . S
C2568 C2567 1.352 . S
C2568 C2569 1.384 . S
C2568 H2590 0.930 . S
C2569 C2564 1.407 . S
C2569 C2568 1.384 . S
C2569 H2591 0.929 . S
C2570 O2580 1.241 . S
C2570 O2581 1.273 . S
C2571 O2582 1.251 . S
C2571 O2583 1.268 . S
O2572 Nd2552 2.500 . S
O2572 C2554 1.258 . S
O2573 Nd2552 2.492 . S
O2573 C2554 1.239 . S
O2574 Nd2552 2.487 . S
O2574 C2561 1.241 . S
O2575 Nd2552 2.682 . S
O2575 Nd2553 2.414 . S
O2575 C2561 1.273 . S
O2576 Nd2552 2.410 . S
O2576 C2562 1.251 . S
O2577 Nd2553 2.424 . S
O2577 C2562 1.268 . S
O2578 Nd2553 2.500 . S
O2578 C2563 1.258 . S
O2579 Nd2553 2.492 . S
O2579 C2563 1.239 . S
O2580 Nd2553 2.487 . S
O2580 C2570 1.241 . S
O2581 Nd2552 2.414 . S
O2581 Nd2553 2.682 . S
O2581 C2570 1.273 . S
O2582 Nd2553 2.410 . S
O2582 C2571 1.251 . S
O2583 Nd2552 2.424 . S
O2583 C2571 1.268 . S
H2584 C2556 0.930 . S
H2585 C2557 0.929 . S
H2586 C2559 0.930 . S
H2587 C2560 0.929 . S
H2588 C2565 0.930 . S
H2589 C2566 0.929 . S
H2590 C2568 0.930 . S
H2591 C2569 0.929 . S
Nd2592 C2594 2.836 . S
Nd2592 O2612 2.500 . S
Nd2592 O2613 2.492 . S
Nd2592 O2614 2.487 . S
Nd2592 O2615 2.682 . S
Nd2592 O2616 2.410 . S
Nd2592 O2621 2.414 . S
Nd2592 O2623 2.424 . S
Nd2593 C2603 2.836 . S
Nd2593 O2615 2.414 . S
Nd2593 O2617 2.424 . S
Nd2593 O2618 2.500 . S
Nd2593 O2619 2.492 . S
Nd2593 O2620 2.487 . S
Nd2593 O2621 2.682 . S
Nd2593 O2622 2.410 . S
C2594 Nd2592 2.836 . S
C2594 C2595 1.498 . S
C2594 O2612 1.258 . S
C2594 O2613 1.239 . S
C2595 C2594 1.498 . S
C2595 C2596 1.366 . S
C2595 C2600 1.407 . S
C2596 C2595 1.366 . S
C2596 C2597 1.392 . S
C2596 H2624 0.930 . S
C2597 C2596 1.392 . S
C2597 C2598 1.398 . S
C2597 H2625 0.929 . S
C2598 C2597 1.398 . S
C2598 C2599 1.352 . S
C2599 C2598 1.352 . S
C2599 C2600 1.384 . S
C2599 H2626 0.930 . S
C2600 C2595 1.407 . S
C2600 C2599 1.384 . S
C2600 H2627 0.929 . S
C2601 O2614 1.241 . S
C2601 O2615 1.273 . S
C2602 O2616 1.251 . S
C2602 O2617 1.268 . S
C2603 Nd2593 2.836 . S
C2603 C2604 1.498 . S
C2603 O2618 1.258 . S
C2603 O2619 1.239 . S
C2604 C2603 1.498 . S
C2604 C2605 1.366 . S
C2604 C2609 1.407 . S
C2605 C2604 1.366 . S
C2605 C2606 1.392 . S
C2605 H2628 0.930 . S
C2606 C2605 1.392 . S
C2606 C2607 1.398 . S
C2606 H2629 0.929 . S
C2607 C2606 1.398 . S
C2607 C2608 1.352 . S
C2608 C2607 1.352 . S
C2608 C2609 1.384 . S
C2608 H2630 0.930 . S
C2609 C2604 1.407 . S
C2609 C2608 1.384 . S
C2609 H2631 0.929 . S
C2610 O2620 1.241 . S
C2610 O2621 1.273 . S
C2611 O2622 1.251 . S
C2611 O2623 1.268 . S
O2612 Nd2592 2.500 . S
O2612 C2594 1.258 . S
O2613 Nd2592 2.492 . S
O2613 C2594 1.239 . S
O2614 Nd2592 2.487 . S
O2614 C2601 1.241 . S
O2615 Nd2592 2.682 . S
O2615 Nd2593 2.414 . S
O2615 C2601 1.273 . S
O2616 Nd2592 2.410 . S
O2616 C2602 1.251 . S
O2617 Nd2593 2.424 . S
O2617 C2602 1.268 . S
O2618 Nd2593 2.500 . S
O2618 C2603 1.258 . S
O2619 Nd2593 2.492 . S
O2619 C2603 1.239 . S
O2620 Nd2593 2.487 . S
O2620 C2610 1.241 . S
O2621 Nd2592 2.414 . S
O2621 Nd2593 2.682 . S
O2621 C2610 1.273 . S
O2622 Nd2593 2.410 . S
O2622 C2611 1.251 . S
O2623 Nd2592 2.424 . S
O2623 C2611 1.268 . S
H2624 C2596 0.930 . S
H2625 C2597 0.929 . S
H2626 C2599 0.930 . S
H2627 C2600 0.929 . S
H2628 C2605 0.930 . S
H2629 C2606 0.929 . S
H2630 C2608 0.930 . S
H2631 C2609 0.929 . S
Nd2632 C2634 2.836 . S
Nd2632 O2652 2.500 . S
Nd2632 O2653 2.492 . S
Nd2632 O2654 2.487 . S
Nd2632 O2655 2.682 . S
Nd2632 O2656 2.410 . S
Nd2632 O2661 2.414 . S
Nd2632 O2663 2.424 . S
Nd2633 C2643 2.836 . S
Nd2633 O2655 2.414 . S
Nd2633 O2657 2.424 . S
Nd2633 O2658 2.500 . S
Nd2633 O2659 2.492 . S
Nd2633 O2660 2.487 . S
Nd2633 O2661 2.682 . S
Nd2633 O2662 2.410 . S
C2634 Nd2632 2.836 . S
C2634 C2635 1.498 . S
C2634 O2652 1.258 . S
C2634 O2653 1.239 . S
C2635 C2634 1.498 . S
C2635 C2636 1.366 . S
C2635 C2640 1.407 . S
C2636 C2635 1.366 . S
C2636 C2637 1.392 . S
C2636 H2664 0.930 . S
C2637 C2636 1.392 . S
C2637 C2638 1.398 . S
C2637 H2665 0.929 . S
C2638 C2637 1.398 . S
C2638 C2639 1.352 . S
C2639 C2638 1.352 . S
C2639 C2640 1.384 . S
C2639 H2666 0.930 . S
C2640 C2635 1.407 . S
C2640 C2639 1.384 . S
C2640 H2667 0.929 . S
C2641 O2654 1.241 . S
C2641 O2655 1.273 . S
C2642 O2656 1.251 . S
C2642 O2657 1.268 . S
C2643 Nd2633 2.836 . S
C2643 C2644 1.498 . S
C2643 O2658 1.258 . S
C2643 O2659 1.239 . S
C2644 C2643 1.498 . S
C2644 C2645 1.366 . S
C2644 C2649 1.407 . S
C2645 C2644 1.366 . S
C2645 C2646 1.392 . S
C2645 H2668 0.930 . S
C2646 C2645 1.392 . S
C2646 C2647 1.398 . S
C2646 H2669 0.929 . S
C2647 C2646 1.398 . S
C2647 C2648 1.352 . S
C2648 C2647 1.352 . S
C2648 C2649 1.384 . S
C2648 H2670 0.930 . S
C2649 C2644 1.407 . S
C2649 C2648 1.384 . S
C2649 H2671 0.929 . S
C2650 O2660 1.241 . S
C2650 O2661 1.273 . S
C2651 O2662 1.251 . S
C2651 O2663 1.268 . S
O2652 Nd2632 2.500 . S
O2652 C2634 1.258 . S
O2653 Nd2632 2.492 . S
O2653 C2634 1.239 . S
O2654 Nd2632 2.487 . S
O2654 C2641 1.241 . S
O2655 Nd2632 2.682 . S
O2655 Nd2633 2.414 . S
O2655 C2641 1.273 . S
O2656 Nd2632 2.410 . S
O2656 C2642 1.251 . S
O2657 Nd2633 2.424 . S
O2657 C2642 1.268 . S
O2658 Nd2633 2.500 . S
O2658 C2643 1.258 . S
O2659 Nd2633 2.492 . S
O2659 C2643 1.239 . S
O2660 Nd2633 2.487 . S
O2660 C2650 1.241 . S
O2661 Nd2632 2.414 . S
O2661 Nd2633 2.682 . S
O2661 C2650 1.273 . S
O2662 Nd2633 2.410 . S
O2662 C2651 1.251 . S
O2663 Nd2632 2.424 . S
O2663 C2651 1.268 . S
H2664 C2636 0.930 . S
H2665 C2637 0.929 . S
H2666 C2639 0.930 . S
H2667 C2640 0.929 . S
H2668 C2645 0.930 . S
H2669 C2646 0.929 . S
H2670 C2648 0.930 . S
H2671 C2649 0.929 . S
Nd2672 C2674 2.836 . S
Nd2672 O2692 2.500 . S
Nd2672 O2693 2.492 . S
Nd2672 O2694 2.487 . S
Nd2672 O2695 2.682 . S
Nd2672 O2696 2.410 . S
Nd2672 O2701 2.414 . S
Nd2672 O2703 2.424 . S
Nd2673 C2683 2.836 . S
Nd2673 O2695 2.414 . S
Nd2673 O2697 2.424 . S
Nd2673 O2698 2.500 . S
Nd2673 O2699 2.492 . S
Nd2673 O2700 2.487 . S
Nd2673 O2701 2.682 . S
Nd2673 O2702 2.410 . S
C2674 Nd2672 2.836 . S
C2674 C2675 1.498 . S
C2674 O2692 1.258 . S
C2674 O2693 1.239 . S
C2675 C2674 1.498 . S
C2675 C2676 1.366 . S
C2675 C2680 1.407 . S
C2676 C2675 1.366 . S
C2676 C2677 1.392 . S
C2676 H2704 0.930 . S
C2677 C2676 1.392 . S
C2677 C2678 1.398 . S
C2677 H2705 0.929 . S
C2678 C2677 1.398 . S
C2678 C2679 1.352 . S
C2679 C2678 1.352 . S
C2679 C2680 1.384 . S
C2679 H2706 0.930 . S
C2680 C2675 1.407 . S
C2680 C2679 1.384 . S
C2680 H2707 0.929 . S
C2681 O2694 1.241 . S
C2681 O2695 1.273 . S
C2682 O2696 1.251 . S
C2682 O2697 1.268 . S
C2683 Nd2673 2.836 . S
C2683 C2684 1.498 . S
C2683 O2698 1.258 . S
C2683 O2699 1.239 . S
C2684 C2683 1.498 . S
C2684 C2685 1.366 . S
C2684 C2689 1.407 . S
C2685 C2684 1.366 . S
C2685 C2686 1.392 . S
C2685 H2708 0.930 . S
C2686 C2685 1.392 . S
C2686 C2687 1.398 . S
C2686 H2709 0.929 . S
C2687 C2686 1.398 . S
C2687 C2688 1.352 . S
C2688 C2687 1.352 . S
C2688 C2689 1.384 . S
C2688 H2710 0.930 . S
C2689 C2684 1.407 . S
C2689 C2688 1.384 . S
C2689 H2711 0.929 . S
C2690 O2700 1.241 . S
C2690 O2701 1.273 . S
C2691 O2702 1.251 . S
C2691 O2703 1.268 . S
O2692 Nd2672 2.500 . S
O2692 C2674 1.258 . S
O2693 Nd2672 2.492 . S
O2693 C2674 1.239 . S
O2694 Nd2672 2.487 . S
O2694 C2681 1.241 . S
O2695 Nd2672 2.682 . S
O2695 Nd2673 2.414 . S
O2695 C2681 1.273 . S
O2696 Nd2672 2.410 . S
O2696 C2682 1.251 . S
O2697 Nd2673 2.424 . S
O2697 C2682 1.268 . S
O2698 Nd2673 2.500 . S
O2698 C2683 1.258 . S
O2699 Nd2673 2.492 . S
O2699 C2683 1.239 . S
O2700 Nd2673 2.487 . S
O2700 C2690 1.241 . S
O2701 Nd2672 2.414 . S
O2701 Nd2673 2.682 . S
O2701 C2690 1.273 . S
O2702 Nd2673 2.410 . S
O2702 C2691 1.251 . S
O2703 Nd2672 2.424 . S
O2703 C2691 1.268 . S
H2704 C2676 0.930 . S
H2705 C2677 0.929 . S
H2706 C2679 0.930 . S
H2707 C2680 0.929 . S
H2708 C2685 0.930 . S
H2709 C2686 0.929 . S
H2710 C2688 0.930 . S
H2711 C2689 0.929 . S
Nd2712 C2714 2.836 . S
Nd2712 O2732 2.500 . S
Nd2712 O2733 2.492 . S
Nd2712 O2734 2.487 . S
Nd2712 O2735 2.682 . S
Nd2712 O2736 2.410 . S
Nd2712 O2741 2.414 . S
Nd2712 O2743 2.424 . S
Nd2713 C2723 2.836 . S
Nd2713 O2735 2.414 1_655 S
Nd2713 O2737 2.424 1_655 S
Nd2713 O2738 2.500 . S
Nd2713 O2739 2.492 . S
Nd2713 O2740 2.487 . S
Nd2713 O2741 2.682 1_655 S
Nd2713 O2742 2.410 1_655 S
C2714 Nd2712 2.836 . S
C2714 C2715 1.498 . S
C2714 O2732 1.258 . S
C2714 O2733 1.239 . S
C2715 C2714 1.498 . S
C2715 C2716 1.366 . S
C2715 C2720 1.407 . S
C2716 C2715 1.366 . S
C2716 C2717 1.373 1_554 S
C2716 H2744 0.930 1_554 S
C2717 C2716 1.373 1_556 S
C2717 C2718 1.362 1_556 S
C2717 H2745 0.988 . S
C2718 C2717 1.362 1_554 S
C2718 C2719 1.352 . S
C2719 C2718 1.352 . S
C2719 C2720 1.384 . S
C2719 H2746 0.930 . S
C2720 C2715 1.407 . S
C2720 C2719 1.384 . S
C2720 H2747 0.929 . S
C2721 O2734 1.241 . S
C2721 O2735 1.273 . S
C2722 O2736 1.251 . S
C2722 O2737 1.268 . S
C2723 Nd2713 2.836 . S
C2723 C2724 1.498 . S
C2723 O2738 1.258 . S
C2723 O2739 1.239 . S
C2724 C2723 1.498 . S
C2724 C2725 1.366 . S
C2724 C2729 1.407 . S
C2725 C2724 1.366 . S
C2725 C2726 1.392 . S
C2725 H2748 0.930 . S
C2726 C2725 1.392 . S
C2726 C2727 1.398 . S
C2726 H2749 0.929 . S
C2727 C2726 1.398 . S
C2727 C2728 1.352 . S
C2728 C2727 1.352 . S
C2728 C2729 1.384 . S
C2728 H2750 0.930 . S
C2729 C2724 1.407 . S
C2729 C2728 1.384 . S
C2729 H2751 0.929 . S
C2730 O2740 1.241 1_455 S
C2730 O2741 1.273 . S
C2731 O2742 1.251 . S
C2731 O2743 1.268 . S
O2732 Nd2712 2.500 . S
O2732 C2714 1.258 . S
O2733 Nd2712 2.492 . S
O2733 C2714 1.239 . S
O2734 Nd2712 2.487 . S
O2734 C2721 1.241 . S
O2735 Nd2712 2.682 . S
O2735 Nd2713 2.414 1_455 S
O2735 C2721 1.273 . S
O2736 Nd2712 2.410 . S
O2736 C2722 1.251 . S
O2737 Nd2713 2.424 1_455 S
O2737 C2722 1.268 . S
O2738 Nd2713 2.500 . S
O2738 C2723 1.258 . S
O2739 Nd2713 2.492 . S
O2739 C2723 1.239 . S
O2740 Nd2713 2.487 . S
O2740 C2730 1.241 1_655 S
O2741 Nd2712 2.414 . S
O2741 Nd2713 2.682 1_455 S
O2741 C2730 1.273 . S
O2742 Nd2713 2.410 1_455 S
O2742 C2731 1.251 . S
O2743 Nd2712 2.424 . S
O2743 C2731 1.268 . S
H2744 C2716 0.930 1_556 S
H2745 C2717 0.988 . S
H2746 C2719 0.930 . S
H2747 C2720 0.929 . S
H2748 C2725 0.930 . S
H2749 C2726 0.929 . S
H2750 C2728 0.930 . S
H2751 C2729 0.929 . S
H2752 C2770 0.951 . S
H2753 C2772 0.951 . S
H2754 C2774 0.950 1_655 S
H2755 C2775 0.950 1_655 S
H2756 C2777 0.950 1_655 S
H2757 C2780 0.950 . S
H2758 C2781 0.950 . S
H2759 C2783 0.950 . S
H2760 C2784 0.950 . S
H2761 C2785 0.951 1_655 S
H2762 C2787 0.951 1_655 S
H2763 C2789 0.950 . S
H2764 C2790 0.950 . S
H2765 C2792 0.950 . S
H2766 C2795 0.950 . S
H2767 C2796 0.950 . S
H2768 C2798 0.950 . S
H2769 C2799 0.950 . S
C2770 H2752 0.951 . S
C2770 C2771 1.366 . S
C2770 C2772 1.388 . S
C2771 C2770 1.366 . S
C2771 C2775 1.385 . S
C2772 H2753 0.951 . S
C2772 C2770 1.388 . S
C2772 C2773 1.366 . S
C2773 C2772 1.366 . S
C2773 C2774 1.414 . S
C2773 C2776 1.499 . S
C2774 H2754 0.950 1_455 S
C2774 C2773 1.414 . S
C2774 C2775 1.374 . S
C2775 H2755 0.950 1_455 S
C2775 C2771 1.385 . S
C2775 C2774 1.374 . S
C2776 C2773 1.499 . S
C2776 C2777 1.373 . S
C2776 C2778 1.389 . S
C2777 H2756 0.950 1_455 S
C2777 C2776 1.373 . S
C2777 C2793 1.377 . S
C2778 C2776 1.389 . S
C2778 C2779 1.524 . S
C2778 C2792 1.377 . S
C2779 C2778 1.524 . S
C2779 C2780 1.397 . S
C2779 C2784 1.363 . S
C2780 H2757 0.950 . S
C2780 C2779 1.397 . S
C2780 C2781 1.334 . S
C2781 H2758 0.950 . S
C2781 C2780 1.334 . S
C2781 C2782 1.287 . S
C2782 C2781 1.287 . S
C2782 C2783 1.524 . S
C2782 H2801 0.913 . S
C2783 H2759 0.950 . S
C2783 C2782 1.524 . S
C2783 C2784 1.415 . S
C2784 H2760 0.950 . S
C2784 C2779 1.363 . S
C2784 C2783 1.415 . S
C2785 H2761 0.951 1_455 S
C2785 C2786 1.366 . S
C2785 C2787 1.388 1_554 S
C2786 C2785 1.366 . S
C2786 C2790 1.385 . S
C2787 H2762 0.951 1_455 S
C2787 C2785 1.388 1_556 S
C2787 C2788 1.374 . S
C2788 C2787 1.374 . S
C2788 C2789 1.368 1_556 S
C2788 C2791 1.538 . S
C2789 H2763 0.950 . S
C2789 C2788 1.368 1_554 S
C2789 C2790 1.374 . S
C2790 H2764 0.950 . S
C2790 C2786 1.385 . S
C2790 C2789 1.374 . S
C2791 C2788 1.538 . S
C2791 C2792 1.373 . S
C2791 C2793 1.389 . S
C2792 H2765 0.950 . S
C2792 C2778 1.377 . S
C2792 C2791 1.373 . S
C2793 C2777 1.377 . S
C2793 C2791 1.389 . S
C2793 C2794 1.524 1_455 S
C2794 C2793 1.524 1_655 S
C2794 C2795 1.397 1_556 S
C2794 C2799 1.363 . S
C2795 H2766 0.950 . S
C2795 C2794 1.397 1_554 S
C2795 C2796 1.334 . S
C2796 H2767 0.950 . S
C2796 C2795 1.334 . S
C2796 C2797 1.318 . S
C2797 C2796 1.318 . S
C2797 C2798 1.468 1_554 S
C2797 H2800 1.025 . S
C2798 H2768 0.950 . S
C2798 C2797 1.468 1_556 S
C2798 C2799 1.415 . S
C2799 H2769 0.950 . S
C2799 C2794 1.363 . S
C2799 C2798 1.415 . S
H2800 C2797 1.025 . S
H2801 C2782 0.913 . S
H2802 C2820 0.951 . S
H2803 C2822 0.951 . S
H2804 C2824 0.950 . S
H2805 C2825 0.950 . S
H2806 C2827 0.950 . S
H2807 C2830 0.950 . S
H2808 C2831 0.950 . S
H2809 C2833 0.950 . S
H2810 C2834 0.950 . S
H2811 C2835 0.951 . S
H2812 C2837 0.951 . S
H2813 C2839 0.950 . S
H2814 C2840 0.950 . S
H2815 C2842 0.950 . S
H2816 C2845 0.950 . S
H2817 C2846 0.950 . S
H2818 C2848 0.950 . S
H2819 C2849 0.950 . S
C2820 H2802 0.951 . S
C2820 C2821 1.366 . S
C2820 C2822 1.388 . S
C2821 C2820 1.366 . S
C2821 C2825 1.385 . S
C2822 H2803 0.951 . S
C2822 C2820 1.388 . S
C2822 C2823 1.366 . S
C2823 C2822 1.366 . S
C2823 C2824 1.414 . S
C2823 C2826 1.499 . S
C2824 H2804 0.950 . S
C2824 C2823 1.414 . S
C2824 C2825 1.374 . S
C2825 H2805 0.950 . S
C2825 C2821 1.385 . S
C2825 C2824 1.374 . S
C2826 C2823 1.499 . S
C2826 C2827 1.373 . S
C2826 C2828 1.389 . S
C2827 H2806 0.950 . S
C2827 C2826 1.373 . S
C2827 C2843 1.377 . S
C2828 C2826 1.389 . S
C2828 C2829 1.524 . S
C2828 C2842 1.377 . S
C2829 C2828 1.524 . S
C2829 C2830 1.397 . S
C2829 C2834 1.363 . S
C2830 H2807 0.950 . S
C2830 C2829 1.397 . S
C2830 C2831 1.334 . S
C2831 H2808 0.950 . S
C2831 C2830 1.334 . S
C2831 C2832 1.287 . S
C2832 C2831 1.287 . S
C2832 C2833 1.524 . S
C2832 H2851 0.913 . S
C2833 H2809 0.950 . S
C2833 C2832 1.524 . S
C2833 C2834 1.415 . S
C2834 H2810 0.950 . S
C2834 C2829 1.363 . S
C2834 C2833 1.415 . S
C2835 H2811 0.951 . S
C2835 C2836 1.366 . S
C2835 C2837 1.388 . S
C2836 C2835 1.366 . S
C2836 C2840 1.385 . S
C2837 H2812 0.951 . S
C2837 C2835 1.388 . S
C2837 C2838 1.366 . S
C2838 C2837 1.366 . S
C2838 C2839 1.414 . S
C2838 C2841 1.499 . S
C2839 H2813 0.950 . S
C2839 C2838 1.414 . S
C2839 C2840 1.374 . S
C2840 H2814 0.950 . S
C2840 C2836 1.385 . S
C2840 C2839 1.374 . S
C2841 C2838 1.499 . S
C2841 C2842 1.373 . S
C2841 C2843 1.389 . S
C2842 H2815 0.950 . S
C2842 C2828 1.377 . S
C2842 C2841 1.373 . S
C2843 C2827 1.377 . S
C2843 C2841 1.389 . S
C2843 C2844 1.524 . S
C2844 C2843 1.524 . S
C2844 C2845 1.397 . S
C2844 C2849 1.363 . S
C2845 H2816 0.950 . S
C2845 C2844 1.397 . S
C2845 C2846 1.334 . S
C2846 H2817 0.950 . S
C2846 C2845 1.334 . S
C2846 C2847 1.287 . S
C2847 C2846 1.287 . S
C2847 C2848 1.524 . S
C2847 H2850 0.999 . S
C2848 H2818 0.950 . S
C2848 C2847 1.524 . S
C2848 C2849 1.415 . S
C2849 H2819 0.950 . S
C2849 C2844 1.363 . S
C2849 C2848 1.415 . S
H2850 C2847 0.999 . S
H2851 C2832 0.913 . S
H2852 C2870 0.951 . S
H2853 C2872 0.951 . S
H2854 C2874 0.950 . S
H2855 C2875 0.950 . S
H2856 C2877 0.950 . S
H2857 C2880 0.950 . S
H2858 C2881 0.950 . S
H2859 C2883 0.950 . S
H2860 C2884 0.950 . S
H2861 C2885 0.884 1_545 S
H2862 C2887 0.951 . S
H2863 C2889 0.950 . S
H2864 C2890 0.950 . S
H2865 C2892 0.950 . S
H2866 C2895 0.950 . S
H2867 C2896 0.950 . S
H2868 C2898 0.950 . S
H2869 C2899 0.950 . S
C2870 H2852 0.951 . S
C2870 C2871 1.366 . S
C2870 C2872 1.388 . S
C2871 C2870 1.366 . S
C2871 C2875 1.385 . S
C2872 H2853 0.951 . S
C2872 C2870 1.388 . S
C2872 C2873 1.366 . S
C2873 C2872 1.366 . S
C2873 C2874 1.414 . S
C2873 C2876 1.499 . S
C2874 H2854 0.950 . S
C2874 C2873 1.414 . S
C2874 C2875 1.374 . S
C2875 H2855 0.950 . S
C2875 C2871 1.385 . S
C2875 C2874 1.374 . S
C2876 C2873 1.499 . S
C2876 C2877 1.373 . S
C2876 C2878 1.389 . S
C2877 H2856 0.950 . S
C2877 C2876 1.373 . S
C2877 C2893 1.377 . S
C2878 C2876 1.389 . S
C2878 C2879 1.524 . S
C2878 C2892 1.377 . S
C2879 C2878 1.524 . S
C2879 C2880 1.397 . S
C2879 C2884 1.363 . S
C2880 H2857 0.950 . S
C2880 C2879 1.397 . S
C2880 C2881 1.334 . S
C2881 H2858 0.950 . S
C2881 C2880 1.334 . S
C2881 C2882 1.287 . S
C2882 C2881 1.287 . S
C2882 C2883 1.524 . S
C2882 H2901 0.913 . S
C2883 H2859 0.950 . S
C2883 C2882 1.524 . S
C2883 C2884 1.415 . S
C2884 H2860 0.950 . S
C2884 C2879 1.363 . S
C2884 C2883 1.415 . S
C2885 H2861 0.884 1_565 S
C2885 C2886 1.368 1_565 S
C2885 C2887 1.456 . S
C2886 C2885 1.368 1_545 S
C2886 C2890 1.369 1_545 S
C2887 H2862 0.951 . S
C2887 C2885 1.456 . S
C2887 C2888 1.366 . S
C2888 C2887 1.366 . S
C2888 C2889 1.414 . S
C2888 C2891 1.499 . S
C2889 H2863 0.950 . S
C2889 C2888 1.414 . S
C2889 C2890 1.374 . S
C2890 H2864 0.950 . S
C2890 C2886 1.369 1_565 S
C2890 C2889 1.374 . S
C2891 C2888 1.499 . S
C2891 C2892 1.373 . S
C2891 C2893 1.389 . S
C2892 H2865 0.950 . S
C2892 C2878 1.377 . S
C2892 C2891 1.373 . S
C2893 C2877 1.377 . S
C2893 C2891 1.389 . S
C2893 C2894 1.524 . S
C2894 C2893 1.524 . S
C2894 C2895 1.397 . S
C2894 C2899 1.363 . S
C2895 H2866 0.950 . S
C2895 C2894 1.397 . S
C2895 C2896 1.334 . S
C2896 H2867 0.950 . S
C2896 C2895 1.334 . S
C2896 C2897 1.287 . S
C2897 C2896 1.287 . S
C2897 C2898 1.524 . S
C2897 H2900 1.030 . S
C2898 H2868 0.950 . S
C2898 C2897 1.524 . S
C2898 C2899 1.415 . S
C2899 H2869 0.950 . S
C2899 C2894 1.363 . S
C2899 C2898 1.415 . S
H2900 C2897 1.030 . S
H2901 C2882 0.913 . S
H2902 C2920 0.951 . S
H2903 C2922 0.951 . S
H2904 C2924 0.950 . S
H2905 C2925 0.950 . S
H2906 C2927 0.950 . S
H2907 C2930 0.950 . S
H2908 C2931 0.950 . S
H2909 C2933 0.950 . S
H2910 C2934 0.950 . S
H2911 C2935 0.951 . S
H2912 C2937 0.951 . S
H2913 C2939 0.950 . S
H2914 C2940 0.950 . S
H2915 C2942 0.950 . S
H2916 C2945 0.950 . S
H2917 C2946 0.950 . S
H2918 C2948 0.950 . S
H2919 C2949 0.950 . S
C2920 H2902 0.951 . S
C2920 C2921 1.366 . S
C2920 C2922 1.388 . S
C2921 C2920 1.366 . S
C2921 C2925 1.385 . S
C2922 H2903 0.951 . S
C2922 C2920 1.388 . S
C2922 C2923 1.366 . S
C2923 C2922 1.366 . S
C2923 C2924 1.414 . S
C2923 C2926 1.499 . S
C2924 H2904 0.950 . S
C2924 C2923 1.414 . S
C2924 C2925 1.374 . S
C2925 H2905 0.950 . S
C2925 C2921 1.385 . S
C2925 C2924 1.374 . S
C2926 C2923 1.499 . S
C2926 C2927 1.373 . S
C2926 C2928 1.389 . S
C2927 H2906 0.950 . S
C2927 C2926 1.373 . S
C2927 C2943 1.377 . S
C2928 C2926 1.389 . S
C2928 C2929 1.524 . S
C2928 C2942 1.377 . S
C2929 C2928 1.524 . S
C2929 C2930 1.397 . S
C2929 C2934 1.363 . S
C2930 H2907 0.950 . S
C2930 C2929 1.397 . S
C2930 C2931 1.334 . S
C2931 H2908 0.950 . S
C2931 C2930 1.334 . S
C2931 C2932 1.287 . S
C2932 C2931 1.287 . S
C2932 C2933 1.524 . S
C2932 H2951 0.913 . S
C2933 H2909 0.950 . S
C2933 C2932 1.524 . S
C2933 C2934 1.415 . S
C2934 H2910 0.950 . S
C2934 C2929 1.363 . S
C2934 C2933 1.415 . S
C2935 H2911 0.951 . S
C2935 C2936 1.366 . S
C2935 C2937 1.388 . S
C2936 C2935 1.366 . S
C2936 C2940 1.385 . S
C2937 H2912 0.951 . S
C2937 C2935 1.388 . S
C2937 C2938 1.366 . S
C2938 C2937 1.366 . S
C2938 C2939 1.414 . S
C2938 C2941 1.499 . S
C2939 H2913 0.950 . S
C2939 C2938 1.414 . S
C2939 C2940 1.374 . S
C2940 H2914 0.950 . S
C2940 C2936 1.385 . S
C2940 C2939 1.374 . S
C2941 C2938 1.499 . S
C2941 C2942 1.373 . S
C2941 C2943 1.389 . S
C2942 H2915 0.950 . S
C2942 C2928 1.377 . S
C2942 C2941 1.373 . S
C2943 C2927 1.377 . S
C2943 C2941 1.389 . S
C2943 C2944 1.524 . S
C2944 C2943 1.524 . S
C2944 C2945 1.397 . S
C2944 C2949 1.363 . S
C2945 H2916 0.950 . S
C2945 C2944 1.397 . S
C2945 C2946 1.334 . S
C2946 H2917 0.950 . S
C2946 C2945 1.334 . S
C2946 C2947 1.287 . S
C2947 C2946 1.287 . S
C2947 C2948 1.524 . S
C2947 H2950 0.999 . S
C2948 H2918 0.950 . S
C2948 C2947 1.524 . S
C2948 C2949 1.415 . S
C2949 H2919 0.950 . S
C2949 C2944 1.363 . S
C2949 C2948 1.415 . S
H2950 C2947 0.999 . S
H2951 C2932 0.913 . S
H2952 C2970 0.951 . S
H2953 C2972 0.951 1_655 S
H2954 C2974 0.950 . S
H2955 C2975 0.950 . S
H2956 C2977 0.950 . S
H2957 C2980 0.950 . S
H2958 C2981 0.950 . S
H2959 C2983 0.950 . S
H2960 C2984 0.950 . S
H2961 C2985 0.951 . S
H2962 C2987 0.951 . S
H2963 C2989 0.950 . S
H2964 C2990 0.950 . S
H2965 C2992 0.950 . S
H2966 C2995 0.950 . S
H2967 C2996 0.950 . S
H2968 C2998 0.950 . S
H2969 C2999 0.950 . S
C2970 H2952 0.951 . S
C2970 C2971 1.366 1_655 S
C2970 C2972 1.388 1_655 S
C2971 C2970 1.366 1_455 S
C2971 C2975 1.385 . S
C2972 H2953 0.951 1_455 S
C2972 C2970 1.388 1_455 S
C2972 C2973 1.366 . S
C2973 C2972 1.366 . S
C2973 C2974 1.414 . S
C2973 C2976 1.499 . S
C2974 H2954 0.950 . S
C2974 C2973 1.414 . S
C2974 C2975 1.374 . S
C2975 H2955 0.950 . S
C2975 C2971 1.385 . S
C2975 C2974 1.374 . S
C2976 C2973 1.499 . S
C2976 C2977 1.373 . S
C2976 C2978 1.389 . S
C2977 H2956 0.950 . S
C2977 C2976 1.373 . S
C2977 C2993 1.377 . S
C2978 C2976 1.389 . S
C2978 C2979 1.524 1_455 S
C2978 C2992 1.377 . S
C2979 C2978 1.524 1_655 S
C2979 C2980 1.397 . S
C2979 C2984 1.363 . S
C2980 H2957 0.950 . S
C2980 C2979 1.397 . S
C2980 C2981 1.334 . S
C2981 H2958 0.950 . S
C2981 C2980 1.334 . S
C2981 C2982 1.287 . S
C2982 C2981 1.287 . S
C2982 C2983 1.524 . S
C2982 H3001 0.913 . S
C2983 H2959 0.950 . S
C2983 C2982 1.524 . S
C2983 C2984 1.415 . S
C2984 H2960 0.950 . S
C2984 C2979 1.363 . S
C2984 C2983 1.415 . S
C2985 H2961 0.951 . S
C2985 C2986 1.366 . S
C2985 C2987 1.388 . S
C2986 C2985 1.366 . S
C2986 C2990 1.385 . S
C2987 H2962 0.951 . S
C2987 C2985 1.388 . S
C2987 C2988 1.366 . S
C2988 C2987 1.366 . S
C2988 C2989 1.414 . S
C2988 C2991 1.499 . S
C2989 H2963 0.950 . S
C2989 C2988 1.414 . S
C2989 C2990 1.374 . S
C2990 H2964 0.950 . S
C2990 C2986 1.385 . S
C2990 C2989 1.374 . S
C2991 C2988 1.499 . S
C2991 C2992 1.373 . S
C2991 C2993 1.389 . S
C2992 H2965 0.950 . S
C2992 C2978 1.377 . S
C2992 C2991 1.373 . S
C2993 C2977 1.377 . S
C2993 C2991 1.389 . S
C2993 C2994 1.524 . S
C2994 C2993 1.524 . S
C2994 C2995 1.397 . S
C2994 C2999 1.363 . S
C2995 H2966 0.950 . S
C2995 C2994 1.397 . S
C2995 C2996 1.334 . S
C2996 H2967 0.950 . S
C2996 C2995 1.334 . S
C2996 C2997 1.287 . S
C2997 C2996 1.287 . S
C2997 C2998 1.524 . S
C2997 H3000 0.999 . S
C2998 H2968 0.950 . S
C2998 C2997 1.524 . S
C2998 C2999 1.415 . S
C2999 H2969 0.950 . S
C2999 C2994 1.363 . S
C2999 C2998 1.415 . S
H3000 C2997 0.999 . S
H3001 C2982 0.913 . S
H3002 C3020 0.951 . S
H3003 C3022 0.951 . S
H3004 C3024 0.950 . S
H3005 C3025 0.950 . S
H3006 C3027 0.950 . S
H3007 C3030 0.950 . S
H3008 C3031 0.950 . S
H3009 C3033 0.950 . S
H3010 C3034 0.950 . S
H3011 C3035 0.951 . S
H3012 C3037 0.951 . S
H3013 C3039 0.950 . S
H3014 C3040 0.950 . S
H3015 C3042 0.950 . S
H3016 C3045 0.950 . S
H3017 C3046 0.950 . S
H3018 C3048 0.950 . S
H3019 C3049 0.950 . S
C3020 H3002 0.951 . S
C3020 C3021 1.366 . S
C3020 C3022 1.388 . S
C3021 C3020 1.366 . S
C3021 C3025 1.385 . S
C3022 H3003 0.951 . S
C3022 C3020 1.388 . S
C3022 C3023 1.366 . S
C3023 C3022 1.366 . S
C3023 C3024 1.414 . S
C3023 C3026 1.499 . S
C3024 H3004 0.950 . S
C3024 C3023 1.414 . S
C3024 C3025 1.374 . S
C3025 H3005 0.950 . S
C3025 C3021 1.385 . S
C3025 C3024 1.374 . S
C3026 C3023 1.499 . S
C3026 C3027 1.373 . S
C3026 C3028 1.389 . S
C3027 H3006 0.950 . S
C3027 C3026 1.373 . S
C3027 C3043 1.377 . S
C3028 C3026 1.389 . S
C3028 C3029 1.524 . S
C3028 C3042 1.377 . S
C3029 C3028 1.524 . S
C3029 C3030 1.397 . S
C3029 C3034 1.363 . S
C3030 H3007 0.950 . S
C3030 C3029 1.397 . S
C3030 C3031 1.334 . S
C3031 H3008 0.950 . S
C3031 C3030 1.334 . S
C3031 C3032 1.287 . S
C3032 C3031 1.287 . S
C3032 C3033 1.524 . S
C3032 H3051 0.913 . S
C3033 H3009 0.950 . S
C3033 C3032 1.524 . S
C3033 C3034 1.415 . S
C3034 H3010 0.950 . S
C3034 C3029 1.363 . S
C3034 C3033 1.415 . S
C3035 H3011 0.951 . S
C3035 C3036 1.366 . S
C3035 C3037 1.388 . S
C3036 C3035 1.366 . S
C3036 C3040 1.385 . S
C3037 H3012 0.951 . S
C3037 C3035 1.388 . S
C3037 C3038 1.366 . S
C3038 C3037 1.366 . S
C3038 C3039 1.414 . S
C3038 C3041 1.499 . S
C3039 H3013 0.950 . S
C3039 C3038 1.414 . S
C3039 C3040 1.374 . S
C3040 H3014 0.950 . S
C3040 C3036 1.385 . S
C3040 C3039 1.374 . S
C3041 C3038 1.499 . S
C3041 C3042 1.373 . S
C3041 C3043 1.389 . S
C3042 H3015 0.950 . S
C3042 C3028 1.377 . S
C3042 C3041 1.373 . S
C3043 C3027 1.377 . S
C3043 C3041 1.389 . S
C3043 C3044 1.524 . S
C3044 C3043 1.524 . S
C3044 C3045 1.397 . S
C3044 C3049 1.363 . S
C3045 H3016 0.950 . S
C3045 C3044 1.397 . S
C3045 C3046 1.334 . S
C3046 H3017 0.950 . S
C3046 C3045 1.334 . S
C3046 C3047 1.287 . S
C3047 C3046 1.287 . S
C3047 C3048 1.524 . S
C3047 H3050 0.999 . S
C3048 H3018 0.950 . S
C3048 C3047 1.524 . S
C3048 C3049 1.415 . S
C3049 H3019 0.950 . S
C3049 C3044 1.363 . S
C3049 C3048 1.415 . S
H3050 C3047 0.999 . S
H3051 C3032 0.913 . S
H3052 C3070 0.951 . S
H3053 C3072 0.951 . S
H3054 C3074 0.950 . S
H3055 C3075 0.950 . S
H3056 C3077 0.950 . S
H3057 C3080 0.950 . S
H3058 C3081 0.950 . S
H3059 C3083 0.950 . S
H3060 C3084 0.950 . S
H3061 C3085 0.951 . S
H3062 C3087 0.951 . S
H3063 C3089 0.950 . S
H3064 C3090 0.950 . S
H3065 C3092 0.950 . S
H3066 C3095 0.950 . S
H3067 C3096 0.950 . S
H3068 C3098 0.950 . S
H3069 C3099 0.950 . S
C3070 H3052 0.951 . S
C3070 C3071 1.366 . S
C3070 C3072 1.388 . S
C3071 C3070 1.366 . S
C3071 C3075 1.385 . S
C3072 H3053 0.951 . S
C3072 C3070 1.388 . S
C3072 C3073 1.366 . S
C3073 C3072 1.366 . S
C3073 C3074 1.414 . S
C3073 C3076 1.499 . S
C3074 H3054 0.950 . S
C3074 C3073 1.414 . S
C3074 C3075 1.374 . S
C3075 H3055 0.950 . S
C3075 C3071 1.385 . S
C3075 C3074 1.374 . S
C3076 C3073 1.499 . S
C3076 C3077 1.373 . S
C3076 C3078 1.389 . S
C3077 H3056 0.950 . S
C3077 C3076 1.373 . S
C3077 C3093 1.377 . S
C3078 C3076 1.389 . S
C3078 C3079 1.524 . S
C3078 C3092 1.377 . S
C3079 C3078 1.524 . S
C3079 C3080 1.397 . S
C3079 C3084 1.363 . S
C3080 H3057 0.950 . S
C3080 C3079 1.397 . S
C3080 C3081 1.334 . S
C3081 H3058 0.950 . S
C3081 C3080 1.334 . S
C3081 C3082 1.287 . S
C3082 C3081 1.287 . S
C3082 C3083 1.524 . S
C3082 H3101 0.913 . S
C3083 H3059 0.950 . S
C3083 C3082 1.524 . S
C3083 C3084 1.415 . S
C3084 H3060 0.950 . S
C3084 C3079 1.363 . S
C3084 C3083 1.415 . S
C3085 H3061 0.951 . S
C3085 C3086 1.366 . S
C3085 C3087 1.388 . S
C3086 C3085 1.366 . S
C3086 C3090 1.385 . S
C3087 H3062 0.951 . S
C3087 C3085 1.388 . S
C3087 C3088 1.366 . S
C3088 C3087 1.366 . S
C3088 C3089 1.414 . S
C3088 C3091 1.499 . S
C3089 H3063 0.950 . S
C3089 C3088 1.414 . S
C3089 C3090 1.374 . S
C3090 H3064 0.950 . S
C3090 C3086 1.385 . S
C3090 C3089 1.374 . S
C3091 C3088 1.499 . S
C3091 C3092 1.373 . S
C3091 C3093 1.389 . S
C3092 H3065 0.950 . S
C3092 C3078 1.377 . S
C3092 C3091 1.373 . S
C3093 C3077 1.377 . S
C3093 C3091 1.389 . S
C3093 C3094 1.524 . S
C3094 C3093 1.524 . S
C3094 C3095 1.397 . S
C3094 C3099 1.363 . S
C3095 H3066 0.950 . S
C3095 C3094 1.397 . S
C3095 C3096 1.334 . S
C3096 H3067 0.950 . S
C3096 C3095 1.334 . S
C3096 C3097 1.287 . S
C3097 C3096 1.287 . S
C3097 C3098 1.524 . S
C3097 H3100 0.999 . S
C3098 H3068 0.950 . S
C3098 C3097 1.524 . S
C3098 C3099 1.415 . S
C3099 H3069 0.950 . S
C3099 C3094 1.363 . S
C3099 C3098 1.415 . S
H3100 C3097 0.999 . S
H3101 C3082 0.913 . S
H3102 C3120 0.951 . S
H3103 C3122 0.951 . S
H3104 C3124 0.950 . S
H3105 C3125 0.950 . S
H3106 C3127 0.950 . S
H3107 C3130 0.950 . S
H3108 C3131 0.950 . S
H3109 C3133 0.950 . S
H3110 C3134 0.950 . S
H3111 C3135 0.951 . S
H3112 C3137 0.951 . S
H3113 C3139 0.950 . S
H3114 C3140 0.950 . S
H3115 C3142 0.950 . S
H3116 C3145 0.950 . S
H3117 C3146 0.950 . S
H3118 C3148 0.950 . S
H3119 C3149 0.950 . S
C3120 H3102 0.951 . S
C3120 C3121 1.366 . S
C3120 C3122 1.388 . S
C3121 C3120 1.366 . S
C3121 C3125 1.385 . S
C3122 H3103 0.951 . S
C3122 C3120 1.388 . S
C3122 C3123 1.366 . S
C3123 C3122 1.366 . S
C3123 C3124 1.414 . S
C3123 C3126 1.499 . S
C3124 H3104 0.950 . S
C3124 C3123 1.414 . S
C3124 C3125 1.374 . S
C3125 H3105 0.950 . S
C3125 C3121 1.385 . S
C3125 C3124 1.374 . S
C3126 C3123 1.499 . S
C3126 C3127 1.373 . S
C3126 C3128 1.389 . S
C3127 H3106 0.950 . S
C3127 C3126 1.373 . S
C3127 C3143 1.377 . S
C3128 C3126 1.389 . S
C3128 C3129 1.524 . S
C3128 C3142 1.377 . S
C3129 C3128 1.524 . S
C3129 C3130 1.397 . S
C3129 C3134 1.363 . S
C3130 H3107 0.950 . S
C3130 C3129 1.397 . S
C3130 C3131 1.334 . S
C3131 H3108 0.950 . S
C3131 C3130 1.334 . S
C3131 C3132 1.287 . S
C3132 C3131 1.287 . S
C3132 C3133 1.524 . S
C3132 H3151 0.913 . S
C3133 H3109 0.950 . S
C3133 C3132 1.524 . S
C3133 C3134 1.415 . S
C3134 H3110 0.950 . S
C3134 C3129 1.363 . S
C3134 C3133 1.415 . S
C3135 H3111 0.951 . S
C3135 C3136 1.366 . S
C3135 C3137 1.388 . S
C3136 C3135 1.366 . S
C3136 C3140 1.385 . S
C3137 H3112 0.951 . S
C3137 C3135 1.388 . S
C3137 C3138 1.366 . S
C3138 C3137 1.366 . S
C3138 C3139 1.414 . S
C3138 C3141 1.499 . S
C3139 H3113 0.950 . S
C3139 C3138 1.414 . S
C3139 C3140 1.374 . S
C3140 H3114 0.950 . S
C3140 C3136 1.385 . S
C3140 C3139 1.374 . S
C3141 C3138 1.499 . S
C3141 C3142 1.373 . S
C3141 C3143 1.389 . S
C3142 H3115 0.950 . S
C3142 C3128 1.377 . S
C3142 C3141 1.373 . S
C3143 C3127 1.377 . S
C3143 C3141 1.389 . S
C3143 C3144 1.524 . S
C3144 C3143 1.524 . S
C3144 C3145 1.397 . S
C3144 C3149 1.363 . S
C3145 H3116 0.950 . S
C3145 C3144 1.397 . S
C3145 C3146 1.334 . S
C3146 H3117 0.950 . S
C3146 C3145 1.334 . S
C3146 C3147 1.287 . S
C3147 C3146 1.287 . S
C3147 C3148 1.524 . S
C3147 H3150 0.999 . S
C3148 H3118 0.950 . S
C3148 C3147 1.524 . S
C3148 C3149 1.415 . S
C3149 H3119 0.950 . S
C3149 C3144 1.363 . S
C3149 C3148 1.415 . S
H3150 C3147 0.999 . S
H3151 C3132 0.913 . S
H3152 C3170 0.951 . S
H3153 C3172 0.951 . S
H3154 C3174 0.950 . S
H3155 C3175 0.950 . S
H3156 C3177 0.950 . S
H3157 C3180 0.950 . S
H3158 C3181 0.950 . S
H3159 C3183 0.892 1_455 S
H3160 C3184 0.950 1_455 S
H3161 C3185 0.951 . S
H3162 C3187 0.951 . S
H3163 C3189 0.977 . S
H3164 C3190 0.950 . S
H3165 C3192 0.950 . S
H3166 C3195 0.950 . S
H3167 C3196 0.950 . S
H3168 C3198 0.950 . S
H3169 C3199 0.950 . S
C3170 H3152 0.951 . S
C3170 C3171 1.366 . S
C3170 C3172 1.388 . S
C3171 C3170 1.366 . S
C3171 C3175 1.385 . S
C3172 H3153 0.951 . S
C3172 C3170 1.388 . S
C3172 C3173 1.366 . S
C3173 C3172 1.366 . S
C3173 C3174 1.414 . S
C3173 C3176 1.499 . S
C3174 H3154 0.950 . S
C3174 C3173 1.414 . S
C3174 C3175 1.374 . S
C3175 H3155 0.950 . S
C3175 C3171 1.385 . S
C3175 C3174 1.374 . S
C3176 C3173 1.499 . S
C3176 C3177 1.373 . S
C3176 C3178 1.389 . S
C3177 H3156 0.950 . S
C3177 C3176 1.373 . S
C3177 C3193 1.377 . S
C3178 C3176 1.389 . S
C3178 C3179 1.524 . S
C3178 C3192 1.377 . S
C3179 C3178 1.524 . S
C3179 C3180 1.397 . S
C3179 C3184 1.363 . S
C3180 H3157 0.950 . S
C3180 C3179 1.397 . S
C3180 C3181 1.334 . S
C3181 H3158 0.950 . S
C3181 C3180 1.334 . S
C3181 C3182 1.287 . S
C3182 C3181 1.287 . S
C3182 C3183 1.586 . S
C3182 H3201 0.913 . S
C3183 H3159 0.892 1_655 S
C3183 C3182 1.586 . S
C3183 C3184 1.421 . S
C3184 H3160 0.950 1_655 S
C3184 C3179 1.363 . S
C3184 C3183 1.421 . S
C3185 H3161 0.951 . S
C3185 C3186 1.435 . S
C3185 C3187 1.388 . S
C3186 C3185 1.435 . S
C3186 C3190 1.357 1_655 S
C3187 H3162 0.951 . S
C3187 C3185 1.388 . S
C3187 C3188 1.366 . S
C3188 C3187 1.366 . S
C3188 C3189 1.354 1_655 S
C3188 C3191 1.499 . S
C3189 H3163 0.977 . S
C3189 C3188 1.354 1_455 S
C3189 C3190 1.410 . S
C3190 H3164 0.950 . S
C3190 C3186 1.357 1_455 S
C3190 C3189 1.410 . S
C3191 C3188 1.499 . S
C3191 C3192 1.373 . S
C3191 C3193 1.389 . S
C3192 H3165 0.950 . S
C3192 C3178 1.377 . S
C3192 C3191 1.373 . S
C3193 C3177 1.377 . S
C3193 C3191 1.389 . S
C3193 C3194 1.524 . S
C3194 C3193 1.524 . S
C3194 C3195 1.397 . S
C3194 C3199 1.363 . S
C3195 H3166 0.950 . S
C3195 C3194 1.397 . S
C3195 C3196 1.334 . S
C3196 H3167 0.950 . S
C3196 C3195 1.334 . S
C3196 C3197 1.287 . S
C3197 C3196 1.287 . S
C3197 C3198 1.524 . S
C3197 H3200 0.999 1_545 S
C3198 H3168 0.950 . S
C3198 C3197 1.524 . S
C3198 C3199 1.415 . S
C3199 H3169 0.950 . S
C3199 C3194 1.363 . S
C3199 C3198 1.415 . S
H3200 C3197 0.999 1_565 S
H3201 C3182 0.913 . S
H3202 C3220 0.951 . S
H3203 C3222 0.951 . S
H3204 C3224 0.950 . S
H3205 C3225 0.950 . S
H3206 C3227 0.950 . S
H3207 C3230 0.950 . S
H3208 C3231 0.950 . S
H3209 C3233 0.950 . S
H3210 C3234 0.950 . S
H3211 C3235 0.951 . S
H3212 C3237 0.951 . S
H3213 C3239 0.950 . S
H3214 C3240 0.950 . S
H3215 C3242 0.950 . S
H3216 C3245 0.950 . S
H3217 C3246 0.950 . S
H3218 C3248 0.950 . S
H3219 C3249 0.950 . S
C3220 H3202 0.951 . S
C3220 C3221 1.366 . S
C3220 C3222 1.388 . S
C3221 C3220 1.366 . S
C3221 C3225 1.385 . S
C3222 H3203 0.951 . S
C3222 C3220 1.388 . S
C3222 C3223 1.366 . S
C3223 C3222 1.366 . S
C3223 C3224 1.414 . S
C3223 C3226 1.499 . S
C3224 H3204 0.950 . S
C3224 C3223 1.414 . S
C3224 C3225 1.374 . S
C3225 H3205 0.950 . S
C3225 C3221 1.385 . S
C3225 C3224 1.374 . S
C3226 C3223 1.499 . S
C3226 C3227 1.373 . S
C3226 C3228 1.389 . S
C3227 H3206 0.950 . S
C3227 C3226 1.373 . S
C3227 C3243 1.377 . S
C3228 C3226 1.389 . S
C3228 C3229 1.524 . S
C3228 C3242 1.377 . S
C3229 C3228 1.524 . S
C3229 C3230 1.397 . S
C3229 C3234 1.363 . S
C3230 H3207 0.950 . S
C3230 C3229 1.397 . S
C3230 C3231 1.334 . S
C3231 H3208 0.950 . S
C3231 C3230 1.334 . S
C3231 C3232 1.287 . S
C3232 C3231 1.287 . S
C3232 C3233 1.524 . S
C3232 H3251 0.913 . S
C3233 H3209 0.950 . S
C3233 C3232 1.524 . S
C3233 C3234 1.415 . S
C3234 H3210 0.950 . S
C3234 C3229 1.363 . S
C3234 C3233 1.415 . S
C3235 H3211 0.951 . S
C3235 C3236 1.366 . S
C3235 C3237 1.388 . S
C3236 C3235 1.366 . S
C3236 C3240 1.385 . S
C3237 H3212 0.951 . S
C3237 C3235 1.388 . S
C3237 C3238 1.366 . S
C3238 C3237 1.366 . S
C3238 C3239 1.414 . S
C3238 C3241 1.499 . S
C3239 H3213 0.950 . S
C3239 C3238 1.414 . S
C3239 C3240 1.374 . S
C3240 H3214 0.950 . S
C3240 C3236 1.385 . S
C3240 C3239 1.374 . S
C3241 C3238 1.499 . S
C3241 C3242 1.373 . S
C3241 C3243 1.389 . S
C3242 H3215 0.950 . S
C3242 C3228 1.377 . S
C3242 C3241 1.373 . S
C3243 C3227 1.377 . S
C3243 C3241 1.389 . S
C3243 C3244 1.524 . S
C3244 C3243 1.524 . S
C3244 C3245 1.397 . S
C3244 C3249 1.363 . S
C3245 H3216 0.950 . S
C3245 C3244 1.397 . S
C3245 C3246 1.334 . S
C3246 H3217 0.950 . S
C3246 C3245 1.334 . S
C3246 C3247 1.287 . S
C3247 C3246 1.287 . S
C3247 C3248 1.524 . S
C3247 H3250 0.999 . S
C3248 H3218 0.950 . S
C3248 C3247 1.524 . S
C3248 C3249 1.415 . S
C3249 H3219 0.950 . S
C3249 C3244 1.363 . S
C3249 C3248 1.415 . S
H3250 C3247 0.999 . S
H3251 C3232 0.913 . S
H3252 C3270 0.951 . S
H3253 C3272 0.951 . S
H3254 C3274 0.950 . S
H3255 C3275 0.950 . S
H3256 C3277 0.950 . S
H3257 C3280 0.950 . S
H3258 C3281 0.950 . S
H3259 C3283 0.950 . S
H3260 C3284 0.950 . S
H3261 C3285 0.951 . S
H3262 C3287 0.951 . S
H3263 C3289 0.950 . S
H3264 C3290 0.950 . S
H3265 C3292 0.950 . S
H3266 C3295 0.950 . S
H3267 C3296 0.950 . S
H3268 C3298 0.950 . S
H3269 C3299 0.950 . S
C3270 H3252 0.951 . S
C3270 C3271 1.366 1_545 S
C3270 C3272 1.388 . S
C3271 C3270 1.366 1_565 S
C3271 C3275 1.385 . S
C3272 H3253 0.951 . S
C3272 C3270 1.388 . S
C3272 C3273 1.366 . S
C3273 C3272 1.366 . S
C3273 C3274 1.414 1_545 S
C3273 C3276 1.499 . S
C3274 H3254 0.950 . S
C3274 C3273 1.414 1_565 S
C3274 C3275 1.374 . S
C3275 H3255 0.950 . S
C3275 C3271 1.385 . S
C3275 C3274 1.374 . S
C3276 C3273 1.499 . S
C3276 C3277 1.373 . S
C3276 C3278 1.389 . S
C3277 H3256 0.950 . S
C3277 C3276 1.373 . S
C3277 C3293 1.377 . S
C3278 C3276 1.389 . S
C3278 C3279 1.536 . S
C3278 C3292 1.377 . S
C3279 C3278 1.536 . S
C3279 C3280 1.361 1_545 S
C3279 C3284 1.386 . S
C3280 H3257 0.950 . S
C3280 C3279 1.361 1_565 S
C3280 C3281 1.334 . S
C3281 H3258 0.950 . S
C3281 C3280 1.334 . S
C3281 C3282 1.287 . S
C3282 C3281 1.287 . S
C3282 C3283 1.524 1_565 S
C3282 H3301 0.913 . S
C3283 H3259 0.950 . S
C3283 C3282 1.524 1_545 S
C3283 C3284 1.415 . S
C3284 H3260 0.950 . S
C3284 C3279 1.386 . S
C3284 C3283 1.415 . S
C3285 H3261 0.951 . S
C3285 C3286 1.366 . S
C3285 C3287 1.388 . S
C3286 C3285 1.366 . S
C3286 C3290 1.385 . S
C3287 H3262 0.951 . S
C3287 C3285 1.388 . S
C3287 C3288 1.366 . S
C3288 C3287 1.366 . S
C3288 C3289 1.414 . S
C3288 C3291 1.499 . S
C3289 H3263 0.950 . S
C3289 C3288 1.414 . S
C3289 C3290 1.374 . S
C3290 H3264 0.950 . S
C3290 C3286 1.385 . S
C3290 C3289 1.374 . S
C3291 C3288 1.499 . S
C3291 C3292 1.373 . S
C3291 C3293 1.389 . S
C3292 H3265 0.950 . S
C3292 C3278 1.377 . S
C3292 C3291 1.373 . S
C3293 C3277 1.377 . S
C3293 C3291 1.389 . S
C3293 C3294 1.524 . S
C3294 C3293 1.524 . S
C3294 C3295 1.397 . S
C3294 C3299 1.363 . S
C3295 H3266 0.950 . S
C3295 C3294 1.397 . S
C3295 C3296 1.334 . S
C3296 H3267 0.950 . S
C3296 C3295 1.334 . S
C3296 C3297 1.287 . S
C3297 C3296 1.287 . S
C3297 C3298 1.524 . S
C3297 H3300 0.999 . S
C3298 H3268 0.950 . S
C3298 C3297 1.524 . S
C3298 C3299 1.415 . S
C3299 H3269 0.950 . S
C3299 C3294 1.363 . S
C3299 C3298 1.415 . S
H3300 C3297 0.999 . S
H3301 C3282 0.913 . S
H3302 C3320 0.951 . S
H3303 C3322 0.951 . S
H3304 C3324 0.950 . S
H3305 C3325 0.950 . S
H3306 C3327 0.950 . S
H3307 C3330 0.950 . S
H3308 C3331 0.950 . S
H3309 C3333 0.950 . S
H3310 C3334 0.950 . S
H3311 C3335 0.951 . S
H3312 C3337 0.951 . S
H3313 C3339 0.950 . S
H3314 C3340 0.950 . S
H3315 C3342 0.950 . S
H3316 C3345 0.950 . S
H3317 C3346 0.950 . S
H3318 C3348 0.950 . S
H3319 C3349 0.950 . S
C3320 H3302 0.951 . S
C3320 C3321 1.366 1_556 S
C3320 C3322 1.388 . S
C3321 C3320 1.366 1_554 S
C3321 C3325 1.385 . S
C3322 H3303 0.951 . S
C3322 C3320 1.388 . S
C3322 C3323 1.366 . S
C3323 C3322 1.366 . S
C3323 C3324 1.414 . S
C3323 C3326 1.499 . S
C3324 H3304 0.950 . S
C3324 C3323 1.414 . S
C3324 C3325 1.374 1_556 S
C3325 H3305 0.950 . S
C3325 C3321 1.385 . S
C3325 C3324 1.374 1_554 S
C3326 C3323 1.499 . S
C3326 C3327 1.373 . S
C3326 C3328 1.389 . S
C3327 H3306 0.950 . S
C3327 C3326 1.373 . S
C3327 C3343 1.377 . S
C3328 C3326 1.389 . S
C3328 C3329 1.524 . S
C3328 C3342 1.377 . S
C3329 C3328 1.524 . S
C3329 C3330 1.397 . S
C3329 C3334 1.363 . S
C3330 H3307 0.950 . S
C3330 C3329 1.397 . S
C3330 C3331 1.334 . S
C3331 H3308 0.950 . S
C3331 C3330 1.334 . S
C3331 C3332 1.287 . S
C3332 C3331 1.287 . S
C3332 C3333 1.524 . S
C3332 H3351 0.913 . S
C3333 H3309 0.950 . S
C3333 C3332 1.524 . S
C3333 C3334 1.415 . S
C3334 H3310 0.950 . S
C3334 C3329 1.363 . S
C3334 C3333 1.415 . S
C3335 H3311 0.951 . S
C3335 C3336 1.366 . S
C3335 C3337 1.388 . S
C3336 C3335 1.366 . S
C3336 C3340 1.385 . S
C3337 H3312 0.951 . S
C3337 C3335 1.388 . S
C3337 C3338 1.366 . S
C3338 C3337 1.366 . S
C3338 C3339 1.414 . S
C3338 C3341 1.499 . S
C3339 H3313 0.950 . S
C3339 C3338 1.414 . S
C3339 C3340 1.374 . S
C3340 H3314 0.950 . S
C3340 C3336 1.385 . S
C3340 C3339 1.374 . S
C3341 C3338 1.499 . S
C3341 C3342 1.373 . S
C3341 C3343 1.389 . S
C3342 H3315 0.950 . S
C3342 C3328 1.377 . S
C3342 C3341 1.373 . S
C3343 C3327 1.377 . S
C3343 C3341 1.389 . S
C3343 C3344 1.524 . S
C3344 C3343 1.524 . S
C3344 C3345 1.397 . S
C3344 C3349 1.363 . S
C3345 H3316 0.950 . S
C3345 C3344 1.397 . S
C3345 C3346 1.334 . S
C3346 H3317 0.950 . S
C3346 C3345 1.334 . S
C3346 C3347 1.287 . S
C3347 C3346 1.287 . S
C3347 C3348 1.524 . S
C3347 H3350 0.999 . S
C3348 H3318 0.950 . S
C3348 C3347 1.524 . S
C3348 C3349 1.415 . S
C3349 H3319 0.950 . S
C3349 C3344 1.363 . S
C3349 C3348 1.415 . S
H3350 C3347 0.999 . S
H3351 C3332 0.913 . S
H3352 C3370 0.951 . S
H3353 C3372 0.951 . S
H3354 C3374 0.950 . S
H3355 C3375 0.950 . S
H3356 C3377 0.950 . S
H3357 C3380 0.950 . S
H3358 C3381 0.950 . S
H3359 C3383 0.950 . S
H3360 C3384 0.950 . S
H3361 C3385 0.951 1_455 S
H3362 C3387 0.951 . S
H3363 C3389 0.950 . S
H3364 C3390 0.950 . S
H3365 C3392 0.950 . S
H3366 C3395 0.950 . S
H3367 C3396 0.950 . S
H3368 C3398 0.950 . S
H3369 C3399 0.950 . S
C3370 H3352 0.951 . S
C3370 C3371 1.366 . S
C3370 C3372 1.388 . S
C3371 C3370 1.366 . S
C3371 C3375 1.385 . S
C3372 H3353 0.951 . S
C3372 C3370 1.388 . S
C3372 C3373 1.366 . S
C3373 C3372 1.366 . S
C3373 C3374 1.414 . S
C3373 C3376 1.499 . S
C3374 H3354 0.950 . S
C3374 C3373 1.414 . S
C3374 C3375 1.374 . S
C3375 H3355 0.950 . S
C3375 C3371 1.385 . S
C3375 C3374 1.374 . S
C3376 C3373 1.499 . S
C3376 C3377 1.373 . S
C3376 C3378 1.389 . S
C3377 H3356 0.950 . S
C3377 C3376 1.373 . S
C3377 C3393 1.377 . S
C3378 C3376 1.389 . S
C3378 C3379 1.524 . S
C3378 C3392 1.377 . S
C3379 C3378 1.524 . S
C3379 C3380 1.397 . S
C3379 C3384 1.363 . S
C3380 H3357 0.950 . S
C3380 C3379 1.397 . S
C3380 C3381 1.334 . S
C3381 H3358 0.950 . S
C3381 C3380 1.334 . S
C3381 C3382 1.287 . S
C3382 C3381 1.287 . S
C3382 C3383 1.524 . S
C3382 H3401 0.913 . S
C3383 H3359 0.950 . S
C3383 C3382 1.524 . S
C3383 C3384 1.415 . S
C3384 H3360 0.950 . S
C3384 C3379 1.363 . S
C3384 C3383 1.415 . S
C3385 H3361 0.951 1_655 S
C3385 C3386 1.366 . S
C3385 C3387 1.388 . S
C3386 C3385 1.366 . S
C3386 C3390 1.385 . S
C3387 H3362 0.951 . S
C3387 C3385 1.388 . S
C3387 C3388 1.366 . S
C3388 C3387 1.366 . S
C3388 C3389 1.414 . S
C3388 C3391 1.499 . S
C3389 H3363 0.950 . S
C3389 C3388 1.414 . S
C3389 C3390 1.374 . S
C3390 H3364 0.950 . S
C3390 C3386 1.385 . S
C3390 C3389 1.374 . S
C3391 C3388 1.499 . S
C3391 C3392 1.373 . S
C3391 C3393 1.389 . S
C3392 H3365 0.950 . S
C3392 C3378 1.377 . S
C3392 C3391 1.373 . S
C3393 C3377 1.377 . S
C3393 C3391 1.389 . S
C3393 C3394 1.524 1_655 S
C3394 C3393 1.524 1_455 S
C3394 C3395 1.397 . S
C3394 C3399 1.363 . S
C3395 H3366 0.950 . S
C3395 C3394 1.397 . S
C3395 C3396 1.334 . S
C3396 H3367 0.950 . S
C3396 C3395 1.334 . S
C3396 C3397 1.287 . S
C3397 C3396 1.287 . S
C3397 C3398 1.524 . S
C3397 H3400 0.999 . S
C3398 H3368 0.950 . S
C3398 C3397 1.524 . S
C3398 C3399 1.415 . S
C3399 H3369 0.950 . S
C3399 C3394 1.363 . S
C3399 C3398 1.415 . S
H3400 C3397 0.999 . S
H3401 C3382 0.913 . S
H3402 C3420 0.951 . S
H3403 C3422 0.951 . S
H3404 C3424 0.950 . S
H3405 C3425 0.950 . S
H3406 C3427 0.950 . S
H3407 C3430 0.950 . S
H3408 C3431 0.950 . S
H3409 C3433 0.950 . S
H3410 C3434 0.950 . S
H3411 C3435 0.951 . S
H3412 C3437 0.951 . S
H3413 C3439 0.950 . S
H3414 C3440 0.950 . S
H3415 C3442 0.950 . S
H3416 C3445 0.950 . S
H3417 C3446 0.950 . S
H3418 C3448 0.950 . S
H3419 C3449 0.950 . S
C3420 H3402 0.951 . S
C3420 C3421 1.366 . S
C3420 C3422 1.388 . S
C3421 C3420 1.366 . S
C3421 C3425 1.385 . S
C3422 H3403 0.951 . S
C3422 C3420 1.388 . S
C3422 C3423 1.366 . S
C3423 C3422 1.366 . S
C3423 C3424 1.414 . S
C3423 C3426 1.499 . S
C3424 H3404 0.950 . S
C3424 C3423 1.414 . S
C3424 C3425 1.374 . S
C3425 H3405 0.950 . S
C3425 C3421 1.385 . S
C3425 C3424 1.374 . S
C3426 C3423 1.499 . S
C3426 C3427 1.373 . S
C3426 C3428 1.389 . S
C3427 H3406 0.950 . S
C3427 C3426 1.373 . S
C3427 C3443 1.377 . S
C3428 C3426 1.389 . S
C3428 C3429 1.524 . S
C3428 C3442 1.377 . S
C3429 C3428 1.524 . S
C3429 C3430 1.397 . S
C3429 C3434 1.363 . S
C3430 H3407 0.950 . S
C3430 C3429 1.397 . S
C3430 C3431 1.334 . S
C3431 H3408 0.950 . S
C3431 C3430 1.334 . S
C3431 C3432 1.287 . S
C3432 C3431 1.287 . S
C3432 C3433 1.524 . S
C3432 H3451 0.913 . S
C3433 H3409 0.950 . S
C3433 C3432 1.524 . S
C3433 C3434 1.415 . S
C3434 H3410 0.950 . S
C3434 C3429 1.363 . S
C3434 C3433 1.415 . S
C3435 H3411 0.951 . S
C3435 C3436 1.366 . S
C3435 C3437 1.388 . S
C3436 C3435 1.366 . S
C3436 C3440 1.385 . S
C3437 H3412 0.951 . S
C3437 C3435 1.388 . S
C3437 C3438 1.366 . S
C3438 C3437 1.366 . S
C3438 C3439 1.414 . S
C3438 C3441 1.499 . S
C3439 H3413 0.950 . S
C3439 C3438 1.414 . S
C3439 C3440 1.374 . S
C3440 H3414 0.950 . S
C3440 C3436 1.385 . S
C3440 C3439 1.374 . S
C3441 C3438 1.499 . S
C3441 C3442 1.373 . S
C3441 C3443 1.389 . S
C3442 H3415 0.950 . S
C3442 C3428 1.377 . S
C3442 C3441 1.373 . S
C3443 C3427 1.377 . S
C3443 C3441 1.389 . S
C3443 C3444 1.524 . S
C3444 C3443 1.524 . S
C3444 C3445 1.397 . S
C3444 C3449 1.363 . S
C3445 H3416 0.950 . S
C3445 C3444 1.397 . S
C3445 C3446 1.334 . S
C3446 H3417 0.950 . S
C3446 C3445 1.334 . S
C3446 C3447 1.287 . S
C3447 C3446 1.287 . S
C3447 C3448 1.524 . S
C3447 H3450 0.999 . S
C3448 H3418 0.950 . S
C3448 C3447 1.524 . S
C3448 C3449 1.415 . S
C3449 H3419 0.950 . S
C3449 C3444 1.363 . S
C3449 C3448 1.415 . S
H3450 C3447 0.999 . S
H3451 C3432 0.913 . S
H3452 C3470 0.951 . S
H3453 C3472 0.951 . S
H3454 C3474 0.950 . S
H3455 C3475 0.950 1_565 S
H3456 C3477 0.929 1_565 S
H3457 C3480 0.950 . S
H3458 C3481 0.950 . S
H3459 C3483 0.950 . S
H3460 C3484 0.950 . S
H3461 C3485 0.951 1_554 S
H3462 C3487 0.951 . S
H3463 C3489 0.950 . S
H3464 C3490 0.950 . S
H3465 C3492 0.950 . S
H3466 C3495 0.907 1_545 S
H3467 C3496 0.950 . S
H3468 C3498 0.950 . S
H3469 C3499 0.967 . S
C3470 H3452 0.951 . S
C3470 C3471 1.366 . S
C3470 C3472 1.388 . S
C3471 C3470 1.366 . S
C3471 C3475 1.385 . S
C3472 H3453 0.951 . S
C3472 C3470 1.388 . S
C3472 C3473 1.366 . S
C3473 C3472 1.366 . S
C3473 C3474 1.414 . S
C3473 C3476 1.499 . S
C3474 H3454 0.950 . S
C3474 C3473 1.414 . S
C3474 C3475 1.374 . S
C3475 H3455 0.950 1_545 S
C3475 C3471 1.385 . S
C3475 C3474 1.374 . S
C3476 C3473 1.499 . S
C3476 C3477 1.373 . S
C3476 C3478 1.389 . S
C3477 H3456 0.929 1_545 S
C3477 C3476 1.373 . S
C3477 C3493 1.377 . S
C3478 C3476 1.389 . S
C3478 C3479 1.524 . S
C3478 C3492 1.377 . S
C3479 C3478 1.524 . S
C3479 C3480 1.397 . S
C3479 C3484 1.363 . S
C3480 H3457 0.950 . S
C3480 C3479 1.397 . S
C3480 C3481 1.334 . S
C3481 H3458 0.950 . S
C3481 C3480 1.334 . S
C3481 C3482 1.287 . S
C3482 C3481 1.287 . S
C3482 C3483 1.524 . S
C3482 H3501 0.913 . S
C3483 H3459 0.950 . S
C3483 C3482 1.524 . S
C3483 C3484 1.415 . S
C3484 H3460 0.950 . S
C3484 C3479 1.363 . S
C3484 C3483 1.415 . S
C3485 H3461 0.951 1_556 S
C3485 C3486 1.366 . S
C3485 C3487 1.388 . S
C3486 C3485 1.366 . S
C3486 C3490 1.385 . S
C3487 H3462 0.951 . S
C3487 C3485 1.388 . S
C3487 C3488 1.366 . S
C3488 C3487 1.366 . S
C3488 C3489 1.414 . S
C3488 C3491 1.499 . S
C3489 H3463 0.950 . S
C3489 C3488 1.414 . S
C3489 C3490 1.374 . S
C3490 H3464 0.950 . S
C3490 C3486 1.385 . S
C3490 C3489 1.374 . S
C3491 C3488 1.499 . S
C3491 C3492 1.373 . S
C3491 C3493 1.389 . S
C3492 H3465 0.950 . S
C3492 C3478 1.377 . S
C3492 C3491 1.373 . S
C3493 C3477 1.377 . S
C3493 C3491 1.389 . S
C3493 C3494 1.524 . S
C3494 C3493 1.524 . S
C3494 C3495 1.397 1_545 S
C3494 C3499 1.363 1_545 S
C3495 H3466 0.907 1_565 S
C3495 C3494 1.397 1_565 S
C3495 C3496 1.334 . S
C3496 H3467 0.950 . S
C3496 C3495 1.334 . S
C3496 C3497 1.287 . S
C3497 C3496 1.287 . S
C3497 C3498 1.524 . S
C3497 H3500 0.999 . S
C3498 H3468 0.950 . S
C3498 C3497 1.524 . S
C3498 C3499 1.415 . S
C3499 H3469 0.967 . S
C3499 C3494 1.363 1_565 S
C3499 C3498 1.415 . S
H3500 C3497 0.999 . S
H3501 C3482 0.913 . S
H3502 C3520 0.951 . S
H3503 C3522 0.951 . S
H3504 C3524 0.950 . S
H3505 C3525 0.950 . S
H3506 C3527 0.950 . S
H3507 C3530 0.950 . S
H3508 C3531 0.950 . S
H3509 C3533 0.950 . S
H3510 C3534 0.950 . S
H3511 C3535 0.951 . S
H3512 C3537 0.951 . S
H3513 C3539 0.950 . S
H3514 C3540 0.950 . S
H3515 C3542 0.950 . S
H3516 C3545 0.950 . S
H3517 C3546 0.950 . S
H3518 C3548 0.950 . S
H3519 C3549 0.950 . S
C3520 H3502 0.951 . S
C3520 C3521 1.366 . S
C3520 C3522 1.388 . S
C3521 C3520 1.366 . S
C3521 C3525 1.385 . S
C3522 H3503 0.951 . S
C3522 C3520 1.388 . S
C3522 C3523 1.366 . S
C3523 C3522 1.366 . S
C3523 C3524 1.414 . S
C3523 C3526 1.499 . S
C3524 H3504 0.950 . S
C3524 C3523 1.414 . S
C3524 C3525 1.374 . S
C3525 H3505 0.950 . S
C3525 C3521 1.385 . S
C3525 C3524 1.374 . S
C3526 C3523 1.499 . S
C3526 C3527 1.373 . S
C3526 C3528 1.389 . S
C3527 H3506 0.950 . S
C3527 C3526 1.373 . S
C3527 C3543 1.377 . S
C3528 C3526 1.389 . S
C3528 C3529 1.524 . S
C3528 C3542 1.377 . S
C3529 C3528 1.524 . S
C3529 C3530 1.397 . S
C3529 C3534 1.363 . S
C3530 H3507 0.950 . S
C3530 C3529 1.397 . S
C3530 C3531 1.334 . S
C3531 H3508 0.950 . S
C3531 C3530 1.334 . S
C3531 C3532 1.287 . S
C3532 C3531 1.287 . S
C3532 C3533 1.524 . S
C3532 H3551 0.913 . S
C3533 H3509 0.950 . S
C3533 C3532 1.524 . S
C3533 C3534 1.415 . S
C3534 H3510 0.950 . S
C3534 C3529 1.363 . S
C3534 C3533 1.415 . S
C3535 H3511 0.951 . S
C3535 C3536 1.366 . S
C3535 C3537 1.388 . S
C3536 C3535 1.366 . S
C3536 C3540 1.385 . S
C3537 H3512 0.951 . S
C3537 C3535 1.388 . S
C3537 C3538 1.366 . S
C3538 C3537 1.366 . S
C3538 C3539 1.414 . S
C3538 C3541 1.499 . S
C3539 H3513 0.950 . S
C3539 C3538 1.414 . S
C3539 C3540 1.374 . S
C3540 H3514 0.950 . S
C3540 C3536 1.385 . S
C3540 C3539 1.374 . S
C3541 C3538 1.499 . S
C3541 C3542 1.373 . S
C3541 C3543 1.389 . S
C3542 H3515 0.950 . S
C3542 C3528 1.377 . S
C3542 C3541 1.373 . S
C3543 C3527 1.377 . S
C3543 C3541 1.389 . S
C3543 C3544 1.524 . S
C3544 C3543 1.524 . S
C3544 C3545 1.397 . S
C3544 C3549 1.363 . S
C3545 H3516 0.950 . S
C3545 C3544 1.397 . S
C3545 C3546 1.334 . S
C3546 H3517 0.950 . S
C3546 C3545 1.334 . S
C3546 C3547 1.287 . S
C3547 C3546 1.287 . S
C3547 C3548 1.524 . S
C3547 H3550 0.999 . S
C3548 H3518 0.950 . S
C3548 C3547 1.524 . S
C3548 C3549 1.415 . S
C3549 H3519 0.950 . S
C3549 C3544 1.363 . S
C3549 C3548 1.415 . S
H3550 C3547 0.999 . S
H3551 C3532 0.913 . S
H3552 C3570 0.951 . S
H3553 C3572 0.951 . S
H3554 C3574 0.950 . S
H3555 C3575 0.950 . S
H3556 C3577 0.950 . S
H3557 C3580 0.950 . S
H3558 C3581 0.950 . S
H3559 C3583 0.950 . S
H3560 C3584 0.950 . S
H3561 C3585 0.951 1_565 S
H3562 C3587 0.951 . S
H3563 C3589 0.950 . S
H3564 C3590 0.950 . S
H3565 C3592 0.950 1_545 S
H3566 C3595 0.950 . S
H3567 C3596 0.950 . S
H3568 C3598 0.950 1_556 S
H3569 C3599 0.950 . S
C3570 H3552 0.951 . S
C3570 C3571 1.366 . S
C3570 C3572 1.388 . S
C3571 C3570 1.366 . S
C3571 C3575 1.385 . S
C3572 H3553 0.951 . S
C3572 C3570 1.388 . S
C3572 C3573 1.366 . S
C3573 C3572 1.366 . S
C3573 C3574 1.414 . S
C3573 C3576 1.499 . S
C3574 H3554 0.950 . S
C3574 C3573 1.414 . S
C3574 C3575 1.374 . S
C3575 H3555 0.950 . S
C3575 C3571 1.385 . S
C3575 C3574 1.374 . S
C3576 C3573 1.499 . S
C3576 C3577 1.373 . S
C3576 C3578 1.389 . S
C3577 H3556 0.950 . S
C3577 C3576 1.373 . S
C3577 C3593 1.377 . S
C3578 C3576 1.389 . S
C3578 C3579 1.524 . S
C3578 C3592 1.377 . S
C3579 C3578 1.524 . S
C3579 C3580 1.397 . S
C3579 C3584 1.363 1_565 S
C3580 H3557 0.950 . S
C3580 C3579 1.397 . S
C3580 C3581 1.334 . S
C3581 H3558 0.950 . S
C3581 C3580 1.334 . S
C3581 C3582 1.287 . S
C3582 C3581 1.287 . S
C3582 C3583 1.524 1_565 S
C3582 H3601 0.913 . S
C3583 H3559 0.950 . S
C3583 C3582 1.524 1_545 S
C3583 C3584 1.415 . S
C3584 H3560 0.950 . S
C3584 C3579 1.363 1_545 S
C3584 C3583 1.415 . S
C3585 H3561 0.951 1_545 S
C3585 C3586 1.366 . S
C3585 C3587 1.388 1_545 S
C3586 C3585 1.366 . S
C3586 C3590 1.385 . S
C3587 H3562 0.951 . S
C3587 C3585 1.388 1_565 S
C3587 C3588 1.359 1_565 S
C3588 C3587 1.359 1_545 S
C3588 C3589 1.437 . S
C3588 C3591 1.483 1_545 S
C3589 H3563 0.950 . S
C3589 C3588 1.437 . S
C3589 C3590 1.374 . S
C3590 H3564 0.950 . S
C3590 C3586 1.385 . S
C3590 C3589 1.374 . S
C3591 C3588 1.483 1_565 S
C3591 C3592 1.373 . S
C3591 C3593 1.389 . S
C3592 H3565 0.950 1_565 S
C3592 C3578 1.377 . S
C3592 C3591 1.373 . S
C3593 C3577 1.377 . S
C3593 C3591 1.389 . S
C3593 C3594 1.524 . S
C3594 C3593 1.524 . S
C3594 C3595 1.397 . S
C3594 C3599 1.363 . S
C3595 H3566 0.950 . S
C3595 C3594 1.397 . S
C3595 C3596 1.334 1_554 S
C3596 H3567 0.950 . S
C3596 C3595 1.334 1_556 S
C3596 C3597 1.287 . S
C3597 C3596 1.287 . S
C3597 C3598 1.524 1_556 S
C3597 H3600 0.999 . S
C3598 H3568 0.950 1_554 S
C3598 C3597 1.524 1_554 S
C3598 C3599 1.415 . S
C3599 H3569 0.950 . S
C3599 C3594 1.363 . S
C3599 C3598 1.415 . S
H3600 C3597 0.999 . S
H3601 C3582 0.913 . S
H3602 C3620 0.951 . S
H3603 C3622 0.951 . S
H3604 C3624 0.950 . S
H3605 C3625 0.950 . S
H3606 C3627 0.950 . S
H3607 C3630 0.950 . S
H3608 C3631 0.950 . S
H3609 C3633 0.950 . S
H3610 C3634 0.950 . S
H3611 C3635 0.951 . S
H3612 C3637 0.951 . S
H3613 C3639 0.950 . S
H3614 C3640 0.950 . S
H3615 C3642 0.950 . S
H3616 C3645 0.950 . S
H3617 C3646 0.950 . S
H3618 C3648 0.950 . S
H3619 C3649 0.950 . S
C3620 H3602 0.951 . S
C3620 C3621 1.366 1_554 S
C3620 C3622 1.388 . S
C3621 C3620 1.366 1_556 S
C3621 C3625 1.385 . S
C3622 H3603 0.951 . S
C3622 C3620 1.388 . S
C3622 C3623 1.366 . S
C3623 C3622 1.366 . S
C3623 C3624 1.414 1_554 S
C3623 C3626 1.499 . S
C3624 H3604 0.950 . S
C3624 C3623 1.414 1_556 S
C3624 C3625 1.374 . S
C3625 H3605 0.950 . S
C3625 C3621 1.385 . S
C3625 C3624 1.374 . S
C3626 C3623 1.499 . S
C3626 C3627 1.373 1_554 S
C3626 C3628 1.389 . S
C3627 H3606 0.950 . S
C3627 C3626 1.373 1_556 S
C3627 C3643 1.377 . S
C3628 C3626 1.389 . S
C3628 C3629 1.524 . S
C3628 C3642 1.377 . S
C3629 C3628 1.524 . S
C3629 C3630 1.397 . S
C3629 C3634 1.363 . S
C3630 H3607 0.950 . S
C3630 C3629 1.397 . S
C3630 C3631 1.334 . S
C3631 H3608 0.950 . S
C3631 C3630 1.334 . S
C3631 C3632 1.287 . S
C3632 C3631 1.287 . S
C3632 C3633 1.524 . S
C3632 H3651 0.913 . S
C3633 H3609 0.950 . S
C3633 C3632 1.524 . S
C3633 C3634 1.415 . S
C3634 H3610 0.950 . S
C3634 C3629 1.363 . S
C3634 C3633 1.415 . S
C3635 H3611 0.951 . S
C3635 C3636 1.366 . S
C3635 C3637 1.388 . S
C3636 C3635 1.366 . S
C3636 C3640 1.385 . S
C3637 H3612 0.951 . S
C3637 C3635 1.388 . S
C3637 C3638 1.366 . S
C3638 C3637 1.366 . S
C3638 C3639 1.414 . S
C3638 C3641 1.499 . S
C3639 H3613 0.950 . S
C3639 C3638 1.414 . S
C3639 C3640 1.374 . S
C3640 H3614 0.950 . S
C3640 C3636 1.385 . S
C3640 C3639 1.374 . S
C3641 C3638 1.499 . S
C3641 C3642 1.373 . S
C3641 C3643 1.389 1_554 S
C3642 H3615 0.950 . S
C3642 C3628 1.377 . S
C3642 C3641 1.373 . S
C3643 C3627 1.377 . S
C3643 C3641 1.389 1_556 S
C3643 C3644 1.524 . S
C3644 C3643 1.524 . S
C3644 C3645 1.397 . S
C3644 C3649 1.363 . S
C3645 H3616 0.950 . S
C3645 C3644 1.397 . S
C3645 C3646 1.334 . S
C3646 H3617 0.950 . S
C3646 C3645 1.334 . S
C3646 C3647 1.287 . S
C3647 C3646 1.287 . S
C3647 C3648 1.524 . S
C3647 H3650 0.999 . S
C3648 H3618 0.950 . S
C3648 C3647 1.524 . S
C3648 C3649 1.415 . S
C3649 H3619 0.950 . S
C3649 C3644 1.363 . S
C3649 C3648 1.415 . S
H3650 C3647 0.999 . S
H3651 C3632 0.913 . S
H3652 C3670 0.951 . S
H3653 C3672 0.951 . S
H3654 C3674 0.950 . S
H3655 C3675 0.950 . S
H3656 C3677 0.950 . S
H3657 C3680 0.950 . S
H3658 C3681 0.950 . S
H3659 C3683 0.950 . S
H3660 C3684 0.950 . S
H3661 C3685 0.951 . S
H3662 C3687 0.951 . S
H3663 C3689 0.950 . S
H3664 C3690 0.950 . S
H3665 C3692 0.950 . S
H3666 C3695 0.950 . S
H3667 C3696 0.950 . S
H3668 C3698 0.950 . S
H3669 C3699 0.950 . S
C3670 H3652 0.951 . S
C3670 C3671 1.366 . S
C3670 C3672 1.388 . S
C3671 C3670 1.366 . S
C3671 C3675 1.385 . S
C3672 H3653 0.951 . S
C3672 C3670 1.388 . S
C3672 C3673 1.366 . S
C3673 C3672 1.366 . S
C3673 C3674 1.414 . S
C3673 C3676 1.499 . S
C3674 H3654 0.950 . S
C3674 C3673 1.414 . S
C3674 C3675 1.374 . S
C3675 H3655 0.950 . S
C3675 C3671 1.385 . S
C3675 C3674 1.374 . S
C3676 C3673 1.499 . S
C3676 C3677 1.373 . S
C3676 C3678 1.389 . S
C3677 H3656 0.950 . S
C3677 C3676 1.373 . S
C3677 C3693 1.377 . S
C3678 C3676 1.389 . S
C3678 C3679 1.524 . S
C3678 C3692 1.377 . S
C3679 C3678 1.524 . S
C3679 C3680 1.397 . S
C3679 C3684 1.363 . S
C3680 H3657 0.950 . S
C3680 C3679 1.397 . S
C3680 C3681 1.334 . S
C3681 H3658 0.950 . S
C3681 C3680 1.334 . S
C3681 C3682 1.287 . S
C3682 C3681 1.287 . S
C3682 C3683 1.524 . S
C3682 H3701 0.913 . S
C3683 H3659 0.950 . S
C3683 C3682 1.524 . S
C3683 C3684 1.415 . S
C3684 H3660 0.950 . S
C3684 C3679 1.363 . S
C3684 C3683 1.415 . S
C3685 H3661 0.951 . S
C3685 C3686 1.366 . S
C3685 C3687 1.388 . S
C3686 C3685 1.366 . S
C3686 C3690 1.385 . S
C3687 H3662 0.951 . S
C3687 C3685 1.388 . S
C3687 C3688 1.366 . S
C3688 C3687 1.366 . S
C3688 C3689 1.414 . S
C3688 C3691 1.499 . S
C3689 H3663 0.950 . S
C3689 C3688 1.414 . S
C3689 C3690 1.374 . S
C3690 H3664 0.950 . S
C3690 C3686 1.385 . S
C3690 C3689 1.374 . S
C3691 C3688 1.499 . S
C3691 C3692 1.373 . S
C3691 C3693 1.389 . S
C3692 H3665 0.950 . S
C3692 C3678 1.377 . S
C3692 C3691 1.373 . S
C3693 C3677 1.377 . S
C3693 C3691 1.389 . S
C3693 C3694 1.524 . S
C3694 C3693 1.524 . S
C3694 C3695 1.397 . S
C3694 C3699 1.363 . S
C3695 H3666 0.950 . S
C3695 C3694 1.397 . S
C3695 C3696 1.334 . S
C3696 H3667 0.950 . S
C3696 C3695 1.334 . S
C3696 C3697 1.287 . S
C3697 C3696 1.287 . S
C3697 C3698 1.524 . S
C3697 H3700 0.999 . S
C3698 H3668 0.950 . S
C3698 C3697 1.524 . S
C3698 C3699 1.415 . S
C3699 H3669 0.950 . S
C3699 C3694 1.363 . S
C3699 C3698 1.415 . S
H3700 C3697 0.999 . S
H3701 C3682 0.913 . S
H3702 C3720 0.951 . S
H3703 C3722 0.951 . S
H3704 C3724 0.950 . S
H3705 C3725 0.950 . S
H3706 C3727 0.950 . S
H3707 C3730 0.950 . S
H3708 C3731 0.950 . S
H3709 C3733 0.950 . S
H3710 C3734 0.950 . S
H3711 C3735 0.951 . S
H3712 C3737 0.951 . S
H3713 C3739 0.950 . S
H3714 C3740 0.950 . S
H3715 C3742 0.950 . S
H3716 C3745 0.950 . S
H3717 C3746 0.950 . S
H3718 C3748 0.950 . S
H3719 C3749 0.950 . S
C3720 H3702 0.951 . S
C3720 C3721 1.366 . S
C3720 C3722 1.388 . S
C3721 C3720 1.366 . S
C3721 C3725 1.385 . S
C3722 H3703 0.951 . S
C3722 C3720 1.388 . S
C3722 C3723 1.366 . S
C3723 C3722 1.366 . S
C3723 C3724 1.414 . S
C3723 C3726 1.499 . S
C3724 H3704 0.950 . S
C3724 C3723 1.414 . S
C3724 C3725 1.374 . S
C3725 H3705 0.950 . S
C3725 C3721 1.385 . S
C3725 C3724 1.374 . S
C3726 C3723 1.499 . S
C3726 C3727 1.373 . S
C3726 C3728 1.389 . S
C3727 H3706 0.950 . S
C3727 C3726 1.373 . S
C3727 C3743 1.377 . S
C3728 C3726 1.389 . S
C3728 C3729 1.524 . S
C3728 C3742 1.377 . S
C3729 C3728 1.524 . S
C3729 C3730 1.397 . S
C3729 C3734 1.363 . S
C3730 H3707 0.950 . S
C3730 C3729 1.397 . S
C3730 C3731 1.334 . S
C3731 H3708 0.950 . S
C3731 C3730 1.334 . S
C3731 C3732 1.287 . S
C3732 C3731 1.287 . S
C3732 C3733 1.524 . S
C3732 H3751 0.913 . S
C3733 H3709 0.950 . S
C3733 C3732 1.524 . S
C3733 C3734 1.415 . S
C3734 H3710 0.950 . S
C3734 C3729 1.363 . S
C3734 C3733 1.415 . S
C3735 H3711 0.951 . S
C3735 C3736 1.366 . S
C3735 C3737 1.388 . S
C3736 C3735 1.366 . S
C3736 C3740 1.385 . S
C3737 H3712 0.951 . S
C3737 C3735 1.388 . S
C3737 C3738 1.366 . S
C3738 C3737 1.366 . S
C3738 C3739 1.414 . S
C3738 C3741 1.499 . S
C3739 H3713 0.950 . S
C3739 C3738 1.414 . S
C3739 C3740 1.374 . S
C3740 H3714 0.950 . S
C3740 C3736 1.385 . S
C3740 C3739 1.374 . S
C3741 C3738 1.499 . S
C3741 C3742 1.373 . S
C3741 C3743 1.389 . S
C3742 H3715 0.950 . S
C3742 C3728 1.377 . S
C3742 C3741 1.373 . S
C3743 C3727 1.377 . S
C3743 C3741 1.389 . S
C3743 C3744 1.524 . S
C3744 C3743 1.524 . S
C3744 C3745 1.397 . S
C3744 C3749 1.363 . S
C3745 H3716 0.950 . S
C3745 C3744 1.397 . S
C3745 C3746 1.334 . S
C3746 H3717 0.950 . S
C3746 C3745 1.334 . S
C3746 C3747 1.287 . S
C3747 C3746 1.287 . S
C3747 C3748 1.524 . S
C3747 H3750 0.999 . S
C3748 H3718 0.950 . S
C3748 C3747 1.524 . S
C3748 C3749 1.415 . S
C3749 H3719 0.950 . S
C3749 C3744 1.363 . S
C3749 C3748 1.415 . S
H3750 C3747 0.999 . S
H3751 C3732 0.913 . S
H3752 C3770 0.951 . S
H3753 C3772 0.951 . S
H3754 C3774 0.950 . S
H3755 C3775 0.950 . S
H3756 C3777 0.950 . S
H3757 C3780 0.950 . S
H3758 C3781 0.950 . S
H3759 C3783 0.950 . S
H3760 C3784 0.950 . S
H3761 C3785 0.951 . S
H3762 C3787 0.951 . S
H3763 C3789 0.950 . S
H3764 C3790 0.950 . S
H3765 C3792 0.950 . S
H3766 C3795 0.950 . S
H3767 C3796 0.950 . S
H3768 C3798 0.950 . S
H3769 C3799 0.950 . S
C3770 H3752 0.951 . S
C3770 C3771 1.366 . S
C3770 C3772 1.388 . S
C3771 C3770 1.366 . S
C3771 C3775 1.385 . S
C3772 H3753 0.951 . S
C3772 C3770 1.388 . S
C3772 C3773 1.366 . S
C3773 C3772 1.366 . S
C3773 C3774 1.414 . S
C3773 C3776 1.499 . S
C3774 H3754 0.950 . S
C3774 C3773 1.414 . S
C3774 C3775 1.374 . S
C3775 H3755 0.950 . S
C3775 C3771 1.385 . S
C3775 C3774 1.374 . S
C3776 C3773 1.499 . S
C3776 C3777 1.373 . S
C3776 C3778 1.389 . S
C3777 H3756 0.950 . S
C3777 C3776 1.373 . S
C3777 C3793 1.377 . S
C3778 C3776 1.389 . S
C3778 C3779 1.524 . S
C3778 C3792 1.377 . S
C3779 C3778 1.524 . S
C3779 C3780 1.397 . S
C3779 C3784 1.363 . S
C3780 H3757 0.950 . S
C3780 C3779 1.397 . S
C3780 C3781 1.334 . S
C3781 H3758 0.950 . S
C3781 C3780 1.334 . S
C3781 C3782 1.287 . S
C3782 C3781 1.287 . S
C3782 C3783 1.524 . S
C3782 H3801 0.913 . S
C3783 H3759 0.950 . S
C3783 C3782 1.524 . S
C3783 C3784 1.415 . S
C3784 H3760 0.950 . S
C3784 C3779 1.363 . S
C3784 C3783 1.415 . S
C3785 H3761 0.951 . S
C3785 C3786 1.366 . S
C3785 C3787 1.388 . S
C3786 C3785 1.366 . S
C3786 C3790 1.385 . S
C3787 H3762 0.951 . S
C3787 C3785 1.388 . S
C3787 C3788 1.366 . S
C3788 C3787 1.366 . S
C3788 C3789 1.414 . S
C3788 C3791 1.499 . S
C3789 H3763 0.950 . S
C3789 C3788 1.414 . S
C3789 C3790 1.374 . S
C3790 H3764 0.950 . S
C3790 C3786 1.385 . S
C3790 C3789 1.374 . S
C3791 C3788 1.499 . S
C3791 C3792 1.373 . S
C3791 C3793 1.389 . S
C3792 H3765 0.950 . S
C3792 C3778 1.377 . S
C3792 C3791 1.373 . S
C3793 C3777 1.377 . S
C3793 C3791 1.389 . S
C3793 C3794 1.524 . S
C3794 C3793 1.524 . S
C3794 C3795 1.397 . S
C3794 C3799 1.363 . S
C3795 H3766 0.950 . S
C3795 C3794 1.397 . S
C3795 C3796 1.334 . S
C3796 H3767 0.950 . S
C3796 C3795 1.334 . S
C3796 C3797 1.287 . S
C3797 C3796 1.287 . S
C3797 C3798 1.524 . S
C3797 H3800 0.999 . S
C3798 H3768 0.950 . S
C3798 C3797 1.524 . S
C3798 C3799 1.415 . S
C3799 H3769 0.950 . S
C3799 C3794 1.363 . S
C3799 C3798 1.415 . S
H3800 C3797 0.999 . S
H3801 C3782 0.913 . S
H3802 C3820 0.951 . S
H3803 C3822 0.951 . S
H3804 C3824 0.950 . S
H3805 C3825 0.950 . S
H3806 C3827 0.950 . S
H3807 C3830 0.950 . S
H3808 C3831 0.950 . S
H3809 C3833 0.950 . S
H3810 C3834 0.950 . S
H3811 C3835 0.951 . S
H3812 C3837 0.951 . S
H3813 C3839 0.950 . S
H3814 C3840 0.950 . S
H3815 C3842 0.950 . S
H3816 C3845 0.950 . S
H3817 C3846 0.950 . S
H3818 C3848 0.950 . S
H3819 C3849 0.950 . S
C3820 H3802 0.951 . S
C3820 C3821 1.366 . S
C3820 C3822 1.388 . S
C3821 C3820 1.366 . S
C3821 C3825 1.385 . S
C3822 H3803 0.951 . S
C3822 C3820 1.388 . S
C3822 C3823 1.366 . S
C3823 C3822 1.366 . S
C3823 C3824 1.414 . S
C3823 C3826 1.499 . S
C3824 H3804 0.950 . S
C3824 C3823 1.414 . S
C3824 C3825 1.374 . S
C3825 H3805 0.950 . S
C3825 C3821 1.385 . S
C3825 C3824 1.374 . S
C3826 C3823 1.499 . S
C3826 C3827 1.373 . S
C3826 C3828 1.389 . S
C3827 H3806 0.950 . S
C3827 C3826 1.373 . S
C3827 C3843 1.377 . S
C3828 C3826 1.389 . S
C3828 C3829 1.524 . S
C3828 C3842 1.377 . S
C3829 C3828 1.524 . S
C3829 C3830 1.397 . S
C3829 C3834 1.363 . S
C3830 H3807 0.950 . S
C3830 C3829 1.397 . S
C3830 C3831 1.334 . S
C3831 H3808 0.950 . S
C3831 C3830 1.334 . S
C3831 C3832 1.287 . S
C3832 C3831 1.287 . S
C3832 C3833 1.524 . S
C3832 H3851 0.913 . S
C3833 H3809 0.950 . S
C3833 C3832 1.524 . S
C3833 C3834 1.415 . S
C3834 H3810 0.950 . S
C3834 C3829 1.363 . S
C3834 C3833 1.415 . S
C3835 H3811 0.951 . S
C3835 C3836 1.366 . S
C3835 C3837 1.388 . S
C3836 C3835 1.366 . S
C3836 C3840 1.385 . S
C3837 H3812 0.951 . S
C3837 C3835 1.388 . S
C3837 C3838 1.366 . S
C3838 C3837 1.366 . S
C3838 C3839 1.414 . S
C3838 C3841 1.499 . S
C3839 H3813 0.950 . S
C3839 C3838 1.414 . S
C3839 C3840 1.374 . S
C3840 H3814 0.950 . S
C3840 C3836 1.385 . S
C3840 C3839 1.374 . S
C3841 C3838 1.499 . S
C3841 C3842 1.373 . S
C3841 C3843 1.389 . S
C3842 H3815 0.950 . S
C3842 C3828 1.377 . S
C3842 C3841 1.373 . S
C3843 C3827 1.377 . S
C3843 C3841 1.389 . S
C3843 C3844 1.524 . S
C3844 C3843 1.524 . S
C3844 C3845 1.397 . S
C3844 C3849 1.363 . S
C3845 H3816 0.950 . S
C3845 C3844 1.397 . S
C3845 C3846 1.334 . S
C3846 H3817 0.950 . S
C3846 C3845 1.334 . S
C3846 C3847 1.287 . S
C3847 C3846 1.287 . S
C3847 C3848 1.524 . S
C3847 H3850 0.999 . S
C3848 H3818 0.950 . S
C3848 C3847 1.524 . S
C3848 C3849 1.415 . S
C3849 H3819 0.950 . S
C3849 C3844 1.363 . S
C3849 C3848 1.415 . S
H3850 C3847 0.999 . S
H3851 C3832 0.913 . S
H3852 C3870 0.951 . S
H3853 C3872 0.951 . S
H3854 C3874 0.950 . S
H3855 C3875 0.950 . S
H3856 C3877 0.950 . S
H3857 C3880 0.950 . S
H3858 C3881 0.950 . S
H3859 C3883 0.950 . S
H3860 C3884 0.950 . S
H3861 C3885 0.951 . S
H3862 C3887 0.951 . S
H3863 C3889 0.950 . S
H3864 C3890 0.950 . S
H3865 C3892 0.950 . S
H3866 C3895 0.950 . S
H3867 C3896 0.950 . S
H3868 C3898 0.950 . S
H3869 C3899 0.950 . S
C3870 H3852 0.951 . S
C3870 C3871 1.366 . S
C3870 C3872 1.388 . S
C3871 C3870 1.366 . S
C3871 C3875 1.385 . S
C3872 H3853 0.951 . S
C3872 C3870 1.388 . S
C3872 C3873 1.366 . S
C3873 C3872 1.366 . S
C3873 C3874 1.414 . S
C3873 C3876 1.499 . S
C3874 H3854 0.950 . S
C3874 C3873 1.414 . S
C3874 C3875 1.374 . S
C3875 H3855 0.950 . S
C3875 C3871 1.385 . S
C3875 C3874 1.374 . S
C3876 C3873 1.499 . S
C3876 C3877 1.373 . S
C3876 C3878 1.389 . S
C3877 H3856 0.950 . S
C3877 C3876 1.373 . S
C3877 C3893 1.377 . S
C3878 C3876 1.389 . S
C3878 C3879 1.524 . S
C3878 C3892 1.377 . S
C3879 C3878 1.524 . S
C3879 C3880 1.397 . S
C3879 C3884 1.363 . S
C3880 H3857 0.950 . S
C3880 C3879 1.397 . S
C3880 C3881 1.334 . S
C3881 H3858 0.950 . S
C3881 C3880 1.334 . S
C3881 C3882 1.287 . S
C3882 C3881 1.287 . S
C3882 C3883 1.524 . S
C3882 H3901 0.913 . S
C3883 H3859 0.950 . S
C3883 C3882 1.524 . S
C3883 C3884 1.415 . S
C3884 H3860 0.950 . S
C3884 C3879 1.363 . S
C3884 C3883 1.415 . S
C3885 H3861 0.951 . S
C3885 C3886 1.366 . S
C3885 C3887 1.388 . S
C3886 C3885 1.366 . S
C3886 C3890 1.385 . S
C3887 H3862 0.951 . S
C3887 C3885 1.388 . S
C3887 C3888 1.366 . S
C3888 C3887 1.366 . S
C3888 C3889 1.414 . S
C3888 C3891 1.499 . S
C3889 H3863 0.950 . S
C3889 C3888 1.414 . S
C3889 C3890 1.374 . S
C3890 H3864 0.950 . S
C3890 C3886 1.385 . S
C3890 C3889 1.374 . S
C3891 C3888 1.499 . S
C3891 C3892 1.373 . S
C3891 C3893 1.389 . S
C3892 H3865 0.950 . S
C3892 C3878 1.377 . S
C3892 C3891 1.373 . S
C3893 C3877 1.377 . S
C3893 C3891 1.389 . S
C3893 C3894 1.524 . S
C3894 C3893 1.524 . S
C3894 C3895 1.397 . S
C3894 C3899 1.363 . S
C3895 H3866 0.950 . S
C3895 C3894 1.397 . S
C3895 C3896 1.334 . S
C3896 H3867 0.950 . S
C3896 C3895 1.334 . S
C3896 C3897 1.287 . S
C3897 C3896 1.287 . S
C3897 C3898 1.524 . S
C3897 H3900 0.999 . S
C3898 H3868 0.950 . S
C3898 C3897 1.524 . S
C3898 C3899 1.415 . S
C3899 H3869 0.950 . S
C3899 C3894 1.363 . S
C3899 C3898 1.415 . S
H3900 C3897 0.999 . S
H3901 C3882 0.913 . S
H3902 C3920 0.951 . S
H3903 C3922 0.951 . S
H3904 C3924 0.950 . S
H3905 C3925 0.950 . S
H3906 C3927 0.950 . S
H3907 C3930 0.950 . S
H3908 C3931 0.950 . S
H3909 C3933 0.950 . S
H3910 C3934 0.950 . S
H3911 C3935 0.951 . S
H3912 C3937 0.951 . S
H3913 C3939 0.950 . S
H3914 C3940 0.950 . S
H3915 C3942 0.950 . S
H3916 C3945 0.950 . S
H3917 C3946 0.950 . S
H3918 C3948 0.950 . S
H3919 C3949 0.950 . S
C3920 H3902 0.951 . S
C3920 C3921 1.366 . S
C3920 C3922 1.388 . S
C3921 C3920 1.366 . S
C3921 C3925 1.385 . S
C3922 H3903 0.951 . S
C3922 C3920 1.388 . S
C3922 C3923 1.366 . S
C3923 C3922 1.366 . S
C3923 C3924 1.414 . S
C3923 C3926 1.499 . S
C3924 H3904 0.950 . S
C3924 C3923 1.414 . S
C3924 C3925 1.374 . S
C3925 H3905 0.950 . S
C3925 C3921 1.385 . S
C3925 C3924 1.374 . S
C3926 C3923 1.499 . S
C3926 C3927 1.373 . S
C3926 C3928 1.389 . S
C3927 H3906 0.950 . S
C3927 C3926 1.373 . S
C3927 C3943 1.377 . S
C3928 C3926 1.389 . S
C3928 C3929 1.524 . S
C3928 C3942 1.377 . S
C3929 C3928 1.524 . S
C3929 C3930 1.397 . S
C3929 C3934 1.363 . S
C3930 H3907 0.950 . S
C3930 C3929 1.397 . S
C3930 C3931 1.334 . S
C3931 H3908 0.950 . S
C3931 C3930 1.334 . S
C3931 C3932 1.287 . S
C3932 C3931 1.287 . S
C3932 C3933 1.524 . S
C3932 H3951 0.913 . S
C3933 H3909 0.950 . S
C3933 C3932 1.524 . S
C3933 C3934 1.415 . S
C3934 H3910 0.950 . S
C3934 C3929 1.363 . S
C3934 C3933 1.415 . S
C3935 H3911 0.951 . S
C3935 C3936 1.366 . S
C3935 C3937 1.388 . S
C3936 C3935 1.366 . S
C3936 C3940 1.385 . S
C3937 H3912 0.951 . S
C3937 C3935 1.388 . S
C3937 C3938 1.366 . S
C3938 C3937 1.366 . S
C3938 C3939 1.414 . S
C3938 C3941 1.499 . S
C3939 H3913 0.950 . S
C3939 C3938 1.414 . S
C3939 C3940 1.374 . S
C3940 H3914 0.950 . S
C3940 C3936 1.385 . S
C3940 C3939 1.374 . S
C3941 C3938 1.499 . S
C3941 C3942 1.373 . S
C3941 C3943 1.389 . S
C3942 H3915 0.950 . S
C3942 C3928 1.377 . S
C3942 C3941 1.373 . S
C3943 C3927 1.377 . S
C3943 C3941 1.389 . S
C3943 C3944 1.524 . S
C3944 C3943 1.524 . S
C3944 C3945 1.397 . S
C3944 C3949 1.363 . S
C3945 H3916 0.950 . S
C3945 C3944 1.397 . S
C3945 C3946 1.334 . S
C3946 H3917 0.950 . S
C3946 C3945 1.334 . S
C3946 C3947 1.287 . S
C3947 C3946 1.287 . S
C3947 C3948 1.524 . S
C3947 H3950 0.999 . S
C3948 H3918 0.950 . S
C3948 C3947 1.524 . S
C3948 C3949 1.415 . S
C3949 H3919 0.950 . S
C3949 C3944 1.363 . S
C3949 C3948 1.415 . S
H3950 C3947 0.999 . S
H3951 C3932 0.913 . S
H3952 C3970 0.951 . S
H3953 C3972 0.951 . S
H3954 C3974 0.950 . S
H3955 C3975 0.950 . S
H3956 C3977 0.950 . S
H3957 C3980 0.950 . S
H3958 C3981 0.950 . S
H3959 C3983 0.950 . S
H3960 C3984 0.950 . S
H3961 C3985 0.951 . S
H3962 C3987 0.951 . S
H3963 C3989 0.950 . S
H3964 C3990 0.950 . S
H3965 C3992 0.918 1_655 S
H3966 C3995 0.950 . S
H3967 C3996 0.950 . S
H3968 C3998 0.950 . S
H3969 C3999 0.950 . S
C3970 H3952 0.951 . S
C3970 C3971 1.366 . S
C3970 C3972 1.388 . S
C3971 C3970 1.366 . S
C3971 C3975 1.385 . S
C3972 H3953 0.951 . S
C3972 C3970 1.388 . S
C3972 C3973 1.366 . S
C3973 C3972 1.366 . S
C3973 C3974 1.414 . S
C3973 C3976 1.499 . S
C3974 H3954 0.950 . S
C3974 C3973 1.414 . S
C3974 C3975 1.374 . S
C3975 H3955 0.950 . S
C3975 C3971 1.385 . S
C3975 C3974 1.374 . S
C3976 C3973 1.499 . S
C3976 C3977 1.373 . S
C3976 C3978 1.384 1_455 S
C3977 H3956 0.950 . S
C3977 C3976 1.373 . S
C3977 C3993 1.377 . S
C3978 C3976 1.384 1_655 S
C3978 C3979 1.530 . S
C3978 C3992 1.379 1_655 S
C3979 C3978 1.530 . S
C3979 C3980 1.397 . S
C3979 C3984 1.363 . S
C3980 H3957 0.950 . S
C3980 C3979 1.397 . S
C3980 C3981 1.334 . S
C3981 H3958 0.950 . S
C3981 C3980 1.334 . S
C3981 C3982 1.287 . S
C3982 C3981 1.287 . S
C3982 C3983 1.524 . S
C3982 H4001 0.913 . S
C3983 H3959 0.950 . S
C3983 C3982 1.524 . S
C3983 C3984 1.415 . S
C3984 H3960 0.950 . S
C3984 C3979 1.363 . S
C3984 C3983 1.415 . S
C3985 H3961 0.951 . S
C3985 C3986 1.366 . S
C3985 C3987 1.388 . S
C3986 C3985 1.366 . S
C3986 C3990 1.385 . S
C3987 H3962 0.951 . S
C3987 C3985 1.388 . S
C3987 C3988 1.366 . S
C3988 C3987 1.366 . S
C3988 C3989 1.414 . S
C3988 C3991 1.499 . S
C3989 H3963 0.950 . S
C3989 C3988 1.414 . S
C3989 C3990 1.374 . S
C3990 H3964 0.950 . S
C3990 C3986 1.385 . S
C3990 C3989 1.374 . S
C3991 C3988 1.499 . S
C3991 C3992 1.404 . S
C3991 C3993 1.389 . S
C3992 H3965 0.918 1_455 S
C3992 C3978 1.379 1_455 S
C3992 C3991 1.404 . S
C3993 C3977 1.377 . S
C3993 C3991 1.389 . S
C3993 C3994 1.524 . S
C3994 C3993 1.524 . S
C3994 C3995 1.397 . S
C3994 C3999 1.363 . S
C3995 H3966 0.950 . S
C3995 C3994 1.397 . S
C3995 C3996 1.334 . S
C3996 H3967 0.950 . S
C3996 C3995 1.334 . S
C3996 C3997 1.287 . S
C3997 C3996 1.287 . S
C3997 C3998 1.524 . S
C3997 H4000 0.999 . S
C3998 H3968 0.950 . S
C3998 C3997 1.524 . S
C3998 C3999 1.415 . S
C3999 H3969 0.950 . S
C3999 C3994 1.363 . S
C3999 C3998 1.415 . S
H4000 C3997 0.999 . S
H4001 C3982 0.913 . S
H4002 C4020 0.951 . S
H4003 C4022 0.951 . S
H4004 C4024 0.950 . S
H4005 C4025 0.950 . S
H4006 C4027 0.950 . S
H4007 C4030 0.950 . S
H4008 C4031 0.950 . S
H4009 C4033 0.950 . S
H4010 C4034 0.950 . S
H4011 C4035 0.951 . S
H4012 C4037 0.951 . S
H4013 C4039 0.950 . S
H4014 C4040 0.950 . S
H4015 C4042 0.950 . S
H4016 C4045 0.950 . S
H4017 C4046 0.950 . S
H4018 C4048 0.950 . S
H4019 C4049 0.950 . S
C4020 H4002 0.951 . S
C4020 C4021 1.366 . S
C4020 C4022 1.388 . S
C4021 C4020 1.366 . S
C4021 C4025 1.385 . S
C4022 H4003 0.951 . S
C4022 C4020 1.388 . S
C4022 C4023 1.366 . S
C4023 C4022 1.366 . S
C4023 C4024 1.414 . S
C4023 C4026 1.499 . S
C4024 H4004 0.950 . S
C4024 C4023 1.414 . S
C4024 C4025 1.374 . S
C4025 H4005 0.950 . S
C4025 C4021 1.385 . S
C4025 C4024 1.374 . S
C4026 C4023 1.499 . S
C4026 C4027 1.373 . S
C4026 C4028 1.389 . S
C4027 H4006 0.950 . S
C4027 C4026 1.373 . S
C4027 C4043 1.377 . S
C4028 C4026 1.389 . S
C4028 C4029 1.524 . S
C4028 C4042 1.377 . S
C4029 C4028 1.524 . S
C4029 C4030 1.397 . S
C4029 C4034 1.363 . S
C4030 H4007 0.950 . S
C4030 C4029 1.397 . S
C4030 C4031 1.334 . S
C4031 H4008 0.950 . S
C4031 C4030 1.334 . S
C4031 C4032 1.287 . S
C4032 C4031 1.287 . S
C4032 C4033 1.524 . S
C4032 H4051 0.913 . S
C4033 H4009 0.950 . S
C4033 C4032 1.524 . S
C4033 C4034 1.415 . S
C4034 H4010 0.950 . S
C4034 C4029 1.363 . S
C4034 C4033 1.415 . S
C4035 H4011 0.951 . S
C4035 C4036 1.366 . S
C4035 C4037 1.388 . S
C4036 C4035 1.366 . S
C4036 C4040 1.385 . S
C4037 H4012 0.951 . S
C4037 C4035 1.388 . S
C4037 C4038 1.366 . S
C4038 C4037 1.366 . S
C4038 C4039 1.414 . S
C4038 C4041 1.499 . S
C4039 H4013 0.950 . S
C4039 C4038 1.414 . S
C4039 C4040 1.374 . S
C4040 H4014 0.950 . S
C4040 C4036 1.385 . S
C4040 C4039 1.374 . S
C4041 C4038 1.499 . S
C4041 C4042 1.373 . S
C4041 C4043 1.389 . S
C4042 H4015 0.950 . S
C4042 C4028 1.377 . S
C4042 C4041 1.373 . S
C4043 C4027 1.377 . S
C4043 C4041 1.389 . S
C4043 C4044 1.524 . S
C4044 C4043 1.524 . S
C4044 C4045 1.397 . S
C4044 C4049 1.363 . S
C4045 H4016 0.950 . S
C4045 C4044 1.397 . S
C4045 C4046 1.334 . S
C4046 H4017 0.950 . S
C4046 C4045 1.334 . S
C4046 C4047 1.287 . S
C4047 C4046 1.287 . S
C4047 C4048 1.524 . S
C4047 H4050 0.999 . S
C4048 H4018 0.950 . S
C4048 C4047 1.524 . S
C4048 C4049 1.415 . S
C4049 H4019 0.950 . S
C4049 C4044 1.363 . S
C4049 C4048 1.415 . S
H4050 C4047 0.999 . S
H4051 C4032 0.913 . S
H4052 C4070 0.951 . S
H4053 C4072 0.951 . S
H4054 C4074 0.950 . S
H4055 C4075 0.950 . S
H4056 C4077 0.950 . S
H4057 C4080 0.950 . S
H4058 C4081 0.950 . S
H4059 C4083 0.950 . S
H4060 C4084 0.950 . S
H4061 C4085 0.951 . S
H4062 C4087 0.951 . S
H4063 C4089 0.950 . S
H4064 C4090 0.950 . S
H4065 C4092 0.950 . S
H4066 C4095 0.950 . S
H4067 C4096 0.950 . S
H4068 C4098 0.950 . S
H4069 C4099 0.950 . S
C4070 H4052 0.951 . S
C4070 C4071 1.366 . S
C4070 C4072 1.388 . S
C4071 C4070 1.366 . S
C4071 C4075 1.385 . S
C4072 H4053 0.951 . S
C4072 C4070 1.388 . S
C4072 C4073 1.366 . S
C4073 C4072 1.366 . S
C4073 C4074 1.414 . S
C4073 C4076 1.499 . S
C4074 H4054 0.950 . S
C4074 C4073 1.414 . S
C4074 C4075 1.374 . S
C4075 H4055 0.950 . S
C4075 C4071 1.385 . S
C4075 C4074 1.374 . S
C4076 C4073 1.499 . S
C4076 C4077 1.373 . S
C4076 C4078 1.389 . S
C4077 H4056 0.950 . S
C4077 C4076 1.373 . S
C4077 C4093 1.377 . S
C4078 C4076 1.389 . S
C4078 C4079 1.524 . S
C4078 C4092 1.377 . S
C4079 C4078 1.524 . S
C4079 C4080 1.397 . S
C4079 C4084 1.363 . S
C4080 H4057 0.950 . S
C4080 C4079 1.397 . S
C4080 C4081 1.334 . S
C4081 H4058 0.950 . S
C4081 C4080 1.334 . S
C4081 C4082 1.287 . S
C4082 C4081 1.287 . S
C4082 C4083 1.524 . S
C4082 H4101 0.913 . S
C4083 H4059 0.950 . S
C4083 C4082 1.524 . S
C4083 C4084 1.415 . S
C4084 H4060 0.950 . S
C4084 C4079 1.363 . S
C4084 C4083 1.415 . S
C4085 H4061 0.951 . S
C4085 C4086 1.366 . S
C4085 C4087 1.388 . S
C4086 C4085 1.366 . S
C4086 C4090 1.385 . S
C4087 H4062 0.951 . S
C4087 C4085 1.388 . S
C4087 C4088 1.366 . S
C4088 C4087 1.366 . S
C4088 C4089 1.414 . S
C4088 C4091 1.499 . S
C4089 H4063 0.950 . S
C4089 C4088 1.414 . S
C4089 C4090 1.374 . S
C4090 H4064 0.950 . S
C4090 C4086 1.385 . S
C4090 C4089 1.374 . S
C4091 C4088 1.499 . S
C4091 C4092 1.373 . S
C4091 C4093 1.389 . S
C4092 H4065 0.950 . S
C4092 C4078 1.377 . S
C4092 C4091 1.373 . S
C4093 C4077 1.377 . S
C4093 C4091 1.389 . S
C4093 C4094 1.524 . S
C4094 C4093 1.524 . S
C4094 C4095 1.397 . S
C4094 C4099 1.363 . S
C4095 H4066 0.950 . S
C4095 C4094 1.397 . S
C4095 C4096 1.334 . S
C4096 H4067 0.950 . S
C4096 C4095 1.334 . S
C4096 C4097 1.287 . S
C4097 C4096 1.287 . S
C4097 C4098 1.524 . S
C4097 H4100 0.999 . S
C4098 H4068 0.950 . S
C4098 C4097 1.524 . S
C4098 C4099 1.415 . S
C4099 H4069 0.950 . S
C4099 C4094 1.363 . S
C4099 C4098 1.415 . S
H4100 C4097 0.999 . S
H4101 C4082 0.913 . S
H4102 C4120 0.951 . S
H4103 C4122 0.951 . S
H4104 C4124 0.950 . S
H4105 C4125 0.950 . S
H4106 C4127 0.950 . S
H4107 C4130 0.950 . S
H4108 C4131 0.950 . S
H4109 C4133 0.950 . S
H4110 C4134 0.950 . S
H4111 C4135 0.951 . S
H4112 C4137 0.951 . S
H4113 C4139 0.950 . S
H4114 C4140 0.950 . S
H4115 C4142 0.950 . S
H4116 C4145 0.950 . S
H4117 C4146 0.950 . S
H4118 C4148 0.950 . S
H4119 C4149 0.950 . S
C4120 H4102 0.951 . S
C4120 C4121 1.366 . S
C4120 C4122 1.388 . S
C4121 C4120 1.366 . S
C4121 C4125 1.385 . S
C4122 H4103 0.951 . S
C4122 C4120 1.388 . S
C4122 C4123 1.366 . S
C4123 C4122 1.366 . S
C4123 C4124 1.414 . S
C4123 C4126 1.499 . S
C4124 H4104 0.950 . S
C4124 C4123 1.414 . S
C4124 C4125 1.374 . S
C4125 H4105 0.950 . S
C4125 C4121 1.385 . S
C4125 C4124 1.374 . S
C4126 C4123 1.499 . S
C4126 C4127 1.373 . S
C4126 C4128 1.389 . S
C4127 H4106 0.950 . S
C4127 C4126 1.373 . S
C4127 C4143 1.377 . S
C4128 C4126 1.389 . S
C4128 C4129 1.524 . S
C4128 C4142 1.377 . S
C4129 C4128 1.524 . S
C4129 C4130 1.397 . S
C4129 C4134 1.363 . S
C4130 H4107 0.950 . S
C4130 C4129 1.397 . S
C4130 C4131 1.334 . S
C4131 H4108 0.950 . S
C4131 C4130 1.334 . S
C4131 C4132 1.287 . S
C4132 C4131 1.287 . S
C4132 C4133 1.524 . S
C4132 H4151 0.913 . S
C4133 H4109 0.950 . S
C4133 C4132 1.524 . S
C4133 C4134 1.415 . S
C4134 H4110 0.950 . S
C4134 C4129 1.363 . S
C4134 C4133 1.415 . S
C4135 H4111 0.951 . S
C4135 C4136 1.366 . S
C4135 C4137 1.388 . S
C4136 C4135 1.366 . S
C4136 C4140 1.385 . S
C4137 H4112 0.951 . S
C4137 C4135 1.388 . S
C4137 C4138 1.366 . S
C4138 C4137 1.366 . S
C4138 C4139 1.414 . S
C4138 C4141 1.499 . S
C4139 H4113 0.950 . S
C4139 C4138 1.414 . S
C4139 C4140 1.374 . S
C4140 H4114 0.950 . S
C4140 C4136 1.385 . S
C4140 C4139 1.374 . S
C4141 C4138 1.499 . S
C4141 C4142 1.373 . S
C4141 C4143 1.389 . S
C4142 H4115 0.950 . S
C4142 C4128 1.377 . S
C4142 C4141 1.373 . S
C4143 C4127 1.377 . S
C4143 C4141 1.389 . S
C4143 C4144 1.524 . S
C4144 C4143 1.524 . S
C4144 C4145 1.397 . S
C4144 C4149 1.363 . S
C4145 H4116 0.950 . S
C4145 C4144 1.397 . S
C4145 C4146 1.334 . S
C4146 H4117 0.950 . S
C4146 C4145 1.334 . S
C4146 C4147 1.287 . S
C4147 C4146 1.287 . S
C4147 C4148 1.524 . S
C4147 H4150 0.999 . S
C4148 H4118 0.950 . S
C4148 C4147 1.524 . S
C4148 C4149 1.415 . S
C4149 H4119 0.950 . S
C4149 C4144 1.363 . S
C4149 C4148 1.415 . S
H4150 C4147 0.999 . S
H4151 C4132 0.913 . S
H4152 C4170 0.951 . S
H4153 C4172 0.951 1_655 S
H4154 C4174 0.950 . S
H4155 C4175 0.950 . S
H4156 C4177 0.950 . S
H4157 C4180 0.950 . S
H4158 C4181 0.950 . S
H4159 C4183 0.950 . S
H4160 C4184 0.950 . S
H4161 C4185 0.951 . S
H4162 C4187 0.951 . S
H4163 C4189 0.950 . S
H4164 C4190 0.950 . S
H4165 C4192 0.950 1_655 S
H4166 C4195 0.950 . S
H4167 C4196 0.930 1_655 S
H4168 C4198 0.950 . S
H4169 C4199 0.950 . S
C4170 H4152 0.951 . S
C4170 C4171 1.366 . S
C4170 C4172 1.388 . S
C4171 C4170 1.366 . S
C4171 C4175 1.385 . S
C4172 H4153 0.951 1_455 S
C4172 C4170 1.388 . S
C4172 C4173 1.366 . S
C4173 C4172 1.366 . S
C4173 C4174 1.414 . S
C4173 C4176 1.499 . S
C4174 H4154 0.950 . S
C4174 C4173 1.414 . S
C4174 C4175 1.374 . S
C4175 H4155 0.950 . S
C4175 C4171 1.385 . S
C4175 C4174 1.374 . S
C4176 C4173 1.499 . S
C4176 C4177 1.373 . S
C4176 C4178 1.389 . S
C4177 H4156 0.950 . S
C4177 C4176 1.373 . S
C4177 C4193 1.377 . S
C4178 C4176 1.389 . S
C4178 C4179 1.524 . S
C4178 C4192 1.377 . S
C4179 C4178 1.524 . S
C4179 C4180 1.397 . S
C4179 C4184 1.363 1_455 S
C4180 H4157 0.950 . S
C4180 C4179 1.397 . S
C4180 C4181 1.334 . S
C4181 H4158 0.950 . S
C4181 C4180 1.334 . S
C4181 C4182 1.287 . S
C4182 C4181 1.287 . S
C4182 C4183 1.524 1_455 S
C4182 H4201 0.913 . S
C4183 H4159 0.950 . S
C4183 C4182 1.524 1_655 S
C4183 C4184 1.415 . S
C4184 H4160 0.950 . S
C4184 C4179 1.363 1_655 S
C4184 C4183 1.415 . S
C4185 H4161 0.951 . S
C4185 C4186 1.366 1_455 S
C4185 C4187 1.388 . S
C4186 C4185 1.366 1_655 S
C4186 C4190 1.385 . S
C4187 H4162 0.951 . S
C4187 C4185 1.388 . S
C4187 C4188 1.368 1_455 S
C4188 C4187 1.368 1_655 S
C4188 C4189 1.411 . S
C4188 C4191 1.499 1_655 S
C4189 H4163 0.950 . S
C4189 C4188 1.411 . S
C4189 C4190 1.374 . S
C4190 H4164 0.950 . S
C4190 C4186 1.385 . S
C4190 C4189 1.374 . S
C4191 C4188 1.499 1_455 S
C4191 C4192 1.373 . S
C4191 C4193 1.389 . S
C4192 H4165 0.950 1_455 S
C4192 C4178 1.377 . S
C4192 C4191 1.373 . S
C4193 C4177 1.377 . S
C4193 C4191 1.389 . S
C4193 C4194 1.524 . S
C4194 C4193 1.524 . S
C4194 C4195 1.397 1_455 S
C4194 C4199 1.363 . S
C4195 H4166 0.950 . S
C4195 C4194 1.397 1_655 S
C4195 C4196 1.326 1_655 S
C4196 H4167 0.930 1_455 S
C4196 C4195 1.326 1_455 S
C4196 C4197 1.316 . S
C4197 C4196 1.316 . S
C4197 C4198 1.524 . S
C4197 H4200 0.999 . S
C4198 H4168 0.950 . S
C4198 C4197 1.524 . S
C4198 C4199 1.415 . S
C4199 H4169 0.950 . S
C4199 C4194 1.363 . S
C4199 C4198 1.415 . S
H4200 C4197 0.999 . S
H4201 C4182 0.913 . S
H4202 C4220 0.951 . S
H4203 C4222 0.951 . S
H4204 C4224 0.950 . S
H4205 C4225 0.950 . S
H4206 C4227 0.950 . S
H4207 C4230 0.950 . S
H4208 C4231 0.950 . S
H4209 C4233 0.950 . S
H4210 C4234 0.950 . S
H4211 C4235 0.951 . S
H4212 C4237 0.951 . S
H4213 C4239 0.950 . S
H4214 C4240 0.950 . S
H4215 C4242 0.950 . S
H4216 C4245 0.950 . S
H4217 C4246 0.950 . S
H4218 C4248 0.950 . S
H4219 C4249 0.950 . S
C4220 H4202 0.951 . S
C4220 C4221 1.366 . S
C4220 C4222 1.388 . S
C4221 C4220 1.366 . S
C4221 C4225 1.385 . S
C4222 H4203 0.951 . S
C4222 C4220 1.388 . S
C4222 C4223 1.366 . S
C4223 C4222 1.366 . S
C4223 C4224 1.414 . S
C4223 C4226 1.499 . S
C4224 H4204 0.950 . S
C4224 C4223 1.414 . S
C4224 C4225 1.374 . S
C4225 H4205 0.950 . S
C4225 C4221 1.385 . S
C4225 C4224 1.374 . S
C4226 C4223 1.499 . S
C4226 C4227 1.373 . S
C4226 C4228 1.389 . S
C4227 H4206 0.950 . S
C4227 C4226 1.373 . S
C4227 C4243 1.377 . S
C4228 C4226 1.389 . S
C4228 C4229 1.524 . S
C4228 C4242 1.377 . S
C4229 C4228 1.524 . S
C4229 C4230 1.397 . S
C4229 C4234 1.363 . S
C4230 H4207 0.950 . S
C4230 C4229 1.397 . S
C4230 C4231 1.334 . S
C4231 H4208 0.950 . S
C4231 C4230 1.334 . S
C4231 C4232 1.287 . S
C4232 C4231 1.287 . S
C4232 C4233 1.524 . S
C4232 H4251 0.913 . S
C4233 H4209 0.950 . S
C4233 C4232 1.524 . S
C4233 C4234 1.415 . S
C4234 H4210 0.950 . S
C4234 C4229 1.363 . S
C4234 C4233 1.415 . S
C4235 H4211 0.951 . S
C4235 C4236 1.366 . S
C4235 C4237 1.388 . S
C4236 C4235 1.366 . S
C4236 C4240 1.385 . S
C4237 H4212 0.951 . S
C4237 C4235 1.388 . S
C4237 C4238 1.366 . S
C4238 C4237 1.366 . S
C4238 C4239 1.414 . S
C4238 C4241 1.499 . S
C4239 H4213 0.950 . S
C4239 C4238 1.414 . S
C4239 C4240 1.374 . S
C4240 H4214 0.950 . S
C4240 C4236 1.385 . S
C4240 C4239 1.374 . S
C4241 C4238 1.499 . S
C4241 C4242 1.373 . S
C4241 C4243 1.389 . S
C4242 H4215 0.950 . S
C4242 C4228 1.377 . S
C4242 C4241 1.373 . S
C4243 C4227 1.377 . S
C4243 C4241 1.389 . S
C4243 C4244 1.524 . S
C4244 C4243 1.524 . S
C4244 C4245 1.397 . S
C4244 C4249 1.363 . S
C4245 H4216 0.950 . S
C4245 C4244 1.397 . S
C4245 C4246 1.334 . S
C4246 H4217 0.950 . S
C4246 C4245 1.334 . S
C4246 C4247 1.287 . S
C4247 C4246 1.287 . S
C4247 C4248 1.524 . S
C4247 H4250 0.999 . S
C4248 H4218 0.950 . S
C4248 C4247 1.524 . S
C4248 C4249 1.415 . S
C4249 H4219 0.950 . S
C4249 C4244 1.363 . S
C4249 C4248 1.415 . S
H4250 C4247 0.999 . S
H4251 C4232 0.913 . S
H4252 C4270 0.951 . S
H4253 C4272 0.951 . S
H4254 C4274 0.950 . S
H4255 C4275 0.950 . S
H4256 C4277 0.950 . S
H4257 C4280 0.950 . S
H4258 C4281 0.950 . S
H4259 C4283 0.950 . S
H4260 C4284 0.950 . S
H4261 C4285 0.951 . S
H4262 C4287 0.951 . S
H4263 C4289 0.950 . S
H4264 C4290 0.950 . S
H4265 C4292 0.950 . S
H4266 C4295 0.950 . S
H4267 C4296 0.950 . S
H4268 C4298 0.950 . S
H4269 C4299 0.950 . S
C4270 H4252 0.951 . S
C4270 C4271 1.366 . S
C4270 C4272 1.388 . S
C4271 C4270 1.366 . S
C4271 C4275 1.385 . S
C4272 H4253 0.951 . S
C4272 C4270 1.388 . S
C4272 C4273 1.366 . S
C4273 C4272 1.366 . S
C4273 C4274 1.414 . S
C4273 C4276 1.499 . S
C4274 H4254 0.950 . S
C4274 C4273 1.414 . S
C4274 C4275 1.374 . S
C4275 H4255 0.950 . S
C4275 C4271 1.385 . S
C4275 C4274 1.374 . S
C4276 C4273 1.499 . S
C4276 C4277 1.373 . S
C4276 C4278 1.389 1_556 S
C4277 H4256 0.950 . S
C4277 C4276 1.373 . S
C4277 C4293 1.377 . S
C4278 C4276 1.389 1_554 S
C4278 C4279 1.524 . S
C4278 C4292 1.377 . S
C4279 C4278 1.524 . S
C4279 C4280 1.397 . S
C4279 C4284 1.363 . S
C4280 H4257 0.950 . S
C4280 C4279 1.397 . S
C4280 C4281 1.334 . S
C4281 H4258 0.950 . S
C4281 C4280 1.334 . S
C4281 C4282 1.287 . S
C4282 C4281 1.287 . S
C4282 C4283 1.524 . S
C4282 H4301 0.913 . S
C4283 H4259 0.950 . S
C4283 C4282 1.524 . S
C4283 C4284 1.415 . S
C4284 H4260 0.950 . S
C4284 C4279 1.363 . S
C4284 C4283 1.415 . S
C4285 H4261 0.951 . S
C4285 C4286 1.366 1_565 S
C4285 C4287 1.388 . S
C4286 C4285 1.366 1_545 S
C4286 C4290 1.385 . S
C4287 H4262 0.951 . S
C4287 C4285 1.388 . S
C4287 C4288 1.366 . S
C4288 C4287 1.366 . S
C4288 C4289 1.414 . S
C4288 C4291 1.499 . S
C4289 H4263 0.950 . S
C4289 C4288 1.414 . S
C4289 C4290 1.374 1_565 S
C4290 H4264 0.950 . S
C4290 C4286 1.385 . S
C4290 C4289 1.374 1_545 S
C4291 C4288 1.499 . S
C4291 C4292 1.373 . S
C4291 C4293 1.389 1_554 S
C4292 H4265 0.950 . S
C4292 C4278 1.377 . S
C4292 C4291 1.373 . S
C4293 C4277 1.377 . S
C4293 C4291 1.389 1_556 S
C4293 C4294 1.524 . S
C4294 C4293 1.524 . S
C4294 C4295 1.397 . S
C4294 C4299 1.363 . S
C4295 H4266 0.950 . S
C4295 C4294 1.397 . S
C4295 C4296 1.334 . S
C4296 H4267 0.950 . S
C4296 C4295 1.334 . S
C4296 C4297 1.287 . S
C4297 C4296 1.287 . S
C4297 C4298 1.524 . S
C4297 H4300 0.999 . S
C4298 H4268 0.950 . S
C4298 C4297 1.524 . S
C4298 C4299 1.415 . S
C4299 H4269 0.950 . S
C4299 C4294 1.363 . S
C4299 C4298 1.415 . S
H4300 C4297 0.999 . S
H4301 C4282 0.913 . S
H4302 C4320 0.951 . S
H4303 C4322 0.951 . S
H4304 C4324 0.950 . S
H4305 C4325 0.950 . S
H4306 C4327 0.950 . S
H4307 C4330 0.950 . S
H4308 C4331 0.950 . S
H4309 C4333 0.950 . S
H4310 C4334 0.950 . S
H4311 C4335 0.951 . S
H4312 C4337 0.951 . S
H4313 C4339 0.950 . S
H4314 C4340 0.950 . S
H4315 C4342 0.950 . S
H4316 C4345 0.950 . S
H4317 C4346 0.950 . S
H4318 C4348 0.950 . S
H4319 C4349 0.950 . S
C4320 H4302 0.951 . S
C4320 C4321 1.366 . S
C4320 C4322 1.388 . S
C4321 C4320 1.366 . S
C4321 C4325 1.385 . S
C4322 H4303 0.951 . S
C4322 C4320 1.388 . S
C4322 C4323 1.366 . S
C4323 C4322 1.366 . S
C4323 C4324 1.414 . S
C4323 C4326 1.499 . S
C4324 H4304 0.950 . S
C4324 C4323 1.414 . S
C4324 C4325 1.374 . S
C4325 H4305 0.950 . S
C4325 C4321 1.385 . S
C4325 C4324 1.374 . S
C4326 C4323 1.499 . S
C4326 C4327 1.373 . S
C4326 C4328 1.389 . S
C4327 H4306 0.950 . S
C4327 C4326 1.373 . S
C4327 C4343 1.377 . S
C4328 C4326 1.389 . S
C4328 C4329 1.524 . S
C4328 C4342 1.377 . S
C4329 C4328 1.524 . S
C4329 C4330 1.397 . S
C4329 C4334 1.363 . S
C4330 H4307 0.950 . S
C4330 C4329 1.397 . S
C4330 C4331 1.334 . S
C4331 H4308 0.950 . S
C4331 C4330 1.334 . S
C4331 C4332 1.287 . S
C4332 C4331 1.287 . S
C4332 C4333 1.524 . S
C4332 H4351 0.913 . S
C4333 H4309 0.950 . S
C4333 C4332 1.524 . S
C4333 C4334 1.415 . S
C4334 H4310 0.950 . S
C4334 C4329 1.363 . S
C4334 C4333 1.415 . S
C4335 H4311 0.951 . S
C4335 C4336 1.366 . S
C4335 C4337 1.388 . S
C4336 C4335 1.366 . S
C4336 C4340 1.385 . S
C4337 H4312 0.951 . S
C4337 C4335 1.388 . S
C4337 C4338 1.366 . S
C4338 C4337 1.366 . S
C4338 C4339 1.414 . S
C4338 C4341 1.499 . S
C4339 H4313 0.950 . S
C4339 C4338 1.414 . S
C4339 C4340 1.374 . S
C4340 H4314 0.950 . S
C4340 C4336 1.385 . S
C4340 C4339 1.374 . S
C4341 C4338 1.499 . S
C4341 C4342 1.373 . S
C4341 C4343 1.389 . S
C4342 H4315 0.950 . S
C4342 C4328 1.377 . S
C4342 C4341 1.373 . S
C4343 C4327 1.377 . S
C4343 C4341 1.389 . S
C4343 C4344 1.524 . S
C4344 C4343 1.524 . S
C4344 C4345 1.397 . S
C4344 C4349 1.363 . S
C4345 H4316 0.950 . S
C4345 C4344 1.397 . S
C4345 C4346 1.334 . S
C4346 H4317 0.950 . S
C4346 C4345 1.334 . S
C4346 C4347 1.287 . S
C4347 C4346 1.287 . S
C4347 C4348 1.524 . S
C4347 H4350 0.999 . S
C4348 H4318 0.950 . S
C4348 C4347 1.524 . S
C4348 C4349 1.415 . S
C4349 H4319 0.950 . S
C4349 C4344 1.363 . S
C4349 C4348 1.415 . S
H4350 C4347 0.999 . S
H4351 C4332 0.913 . S
H4352 C4370 0.951 . S
H4353 C4372 0.951 . S
H4354 C4374 0.950 . S
H4355 C4375 0.950 . S
H4356 C4377 0.950 . S
H4357 C4380 0.950 . S
H4358 C4381 0.950 . S
H4359 C4383 0.950 . S
H4360 C4384 0.950 . S
H4361 C4385 0.951 . S
H4362 C4387 0.951 . S
H4363 C4389 0.950 . S
H4364 C4390 0.950 . S
H4365 C4392 0.950 . S
H4366 C4395 0.950 . S
H4367 C4396 0.950 . S
H4368 C4398 0.950 . S
H4369 C4399 0.950 . S
C4370 H4352 0.951 . S
C4370 C4371 1.366 . S
C4370 C4372 1.388 . S
C4371 C4370 1.366 . S
C4371 C4375 1.385 . S
C4372 H4353 0.951 . S
C4372 C4370 1.388 . S
C4372 C4373 1.366 . S
C4373 C4372 1.366 . S
C4373 C4374 1.414 . S
C4373 C4376 1.499 . S
C4374 H4354 0.950 . S
C4374 C4373 1.414 . S
C4374 C4375 1.374 . S
C4375 H4355 0.950 . S
C4375 C4371 1.385 . S
C4375 C4374 1.374 . S
C4376 C4373 1.499 . S
C4376 C4377 1.373 . S
C4376 C4378 1.389 . S
C4377 H4356 0.950 . S
C4377 C4376 1.373 . S
C4377 C4393 1.377 . S
C4378 C4376 1.389 . S
C4378 C4379 1.524 . S
C4378 C4392 1.377 . S
C4379 C4378 1.524 . S
C4379 C4380 1.397 . S
C4379 C4384 1.363 . S
C4380 H4357 0.950 . S
C4380 C4379 1.397 . S
C4380 C4381 1.334 . S
C4381 H4358 0.950 . S
C4381 C4380 1.334 . S
C4381 C4382 1.287 . S
C4382 C4381 1.287 . S
C4382 C4383 1.524 . S
C4382 H4401 0.913 . S
C4383 H4359 0.950 . S
C4383 C4382 1.524 . S
C4383 C4384 1.415 . S
C4384 H4360 0.950 . S
C4384 C4379 1.363 . S
C4384 C4383 1.415 . S
C4385 H4361 0.951 . S
C4385 C4386 1.366 . S
C4385 C4387 1.388 . S
C4386 C4385 1.366 . S
C4386 C4390 1.385 . S
C4387 H4362 0.951 . S
C4387 C4385 1.388 . S
C4387 C4388 1.366 . S
C4388 C4387 1.366 . S
C4388 C4389 1.414 . S
C4388 C4391 1.499 . S
C4389 H4363 0.950 . S
C4389 C4388 1.414 . S
C4389 C4390 1.374 . S
C4390 H4364 0.950 . S
C4390 C4386 1.385 . S
C4390 C4389 1.374 . S
C4391 C4388 1.499 . S
C4391 C4392 1.373 . S
C4391 C4393 1.389 . S
C4392 H4365 0.950 . S
C4392 C4378 1.377 . S
C4392 C4391 1.373 . S
C4393 C4377 1.377 . S
C4393 C4391 1.389 . S
C4393 C4394 1.524 . S
C4394 C4393 1.524 . S
C4394 C4395 1.397 1_545 S
C4394 C4399 1.363 . S
C4395 H4366 0.950 . S
C4395 C4394 1.397 1_565 S
C4395 C4396 1.334 . S
C4396 H4367 0.950 . S
C4396 C4395 1.334 . S
C4396 C4397 1.287 . S
C4397 C4396 1.287 . S
C4397 C4398 1.524 1_565 S
C4397 H4400 0.999 . S
C4398 H4368 0.950 . S
C4398 C4397 1.524 1_545 S
C4398 C4399 1.415 . S
C4399 H4369 0.950 . S
C4399 C4394 1.363 . S
C4399 C4398 1.415 . S
H4400 C4397 0.999 . S
H4401 C4382 0.913 . S
H4402 C4420 0.951 . S
H4403 C4422 0.951 . S
H4404 C4424 0.950 . S
H4405 C4425 0.950 . S
H4406 C4427 0.950 . S
H4407 C4430 0.950 . S
H4408 C4431 0.950 . S
H4409 C4433 0.950 . S
H4410 C4434 0.950 . S
H4411 C4435 0.951 . S
H4412 C4437 0.951 . S
H4413 C4439 0.950 . S
H4414 C4440 0.950 . S
H4415 C4442 0.950 . S
H4416 C4445 0.950 . S
H4417 C4446 0.950 . S
H4418 C4448 0.950 . S
H4419 C4449 0.950 . S
C4420 H4402 0.951 . S
C4420 C4421 1.366 . S
C4420 C4422 1.388 . S
C4421 C4420 1.366 . S
C4421 C4425 1.385 . S
C4422 H4403 0.951 . S
C4422 C4420 1.388 . S
C4422 C4423 1.366 . S
C4423 C4422 1.366 . S
C4423 C4424 1.414 . S
C4423 C4426 1.499 . S
C4424 H4404 0.950 . S
C4424 C4423 1.414 . S
C4424 C4425 1.374 . S
C4425 H4405 0.950 . S
C4425 C4421 1.385 . S
C4425 C4424 1.374 . S
C4426 C4423 1.499 . S
C4426 C4427 1.373 . S
C4426 C4428 1.389 . S
C4427 H4406 0.950 . S
C4427 C4426 1.373 . S
C4427 C4443 1.377 . S
C4428 C4426 1.389 . S
C4428 C4429 1.524 . S
C4428 C4442 1.377 . S
C4429 C4428 1.524 . S
C4429 C4430 1.397 . S
C4429 C4434 1.363 . S
C4430 H4407 0.950 . S
C4430 C4429 1.397 . S
C4430 C4431 1.334 . S
C4431 H4408 0.950 . S
C4431 C4430 1.334 . S
C4431 C4432 1.287 . S
C4432 C4431 1.287 . S
C4432 C4433 1.524 . S
C4432 H4451 0.913 . S
C4433 H4409 0.950 . S
C4433 C4432 1.524 . S
C4433 C4434 1.415 . S
C4434 H4410 0.950 . S
C4434 C4429 1.363 . S
C4434 C4433 1.415 . S
C4435 H4411 0.951 . S
C4435 C4436 1.366 . S
C4435 C4437 1.388 . S
C4436 C4435 1.366 . S
C4436 C4440 1.385 . S
C4437 H4412 0.951 . S
C4437 C4435 1.388 . S
C4437 C4438 1.366 . S
C4438 C4437 1.366 . S
C4438 C4439 1.414 . S
C4438 C4441 1.499 . S
C4439 H4413 0.950 . S
C4439 C4438 1.414 . S
C4439 C4440 1.374 . S
C4440 H4414 0.950 . S
C4440 C4436 1.385 . S
C4440 C4439 1.374 . S
C4441 C4438 1.499 . S
C4441 C4442 1.373 . S
C4441 C4443 1.389 . S
C4442 H4415 0.950 . S
C4442 C4428 1.377 . S
C4442 C4441 1.373 . S
C4443 C4427 1.377 . S
C4443 C4441 1.389 . S
C4443 C4444 1.524 . S
C4444 C4443 1.524 . S
C4444 C4445 1.397 . S
C4444 C4449 1.363 . S
C4445 H4416 0.950 . S
C4445 C4444 1.397 . S
C4445 C4446 1.334 . S
C4446 H4417 0.950 . S
C4446 C4445 1.334 . S
C4446 C4447 1.287 . S
C4447 C4446 1.287 . S
C4447 C4448 1.524 . S
C4447 H4450 0.999 . S
C4448 H4418 0.950 . S
C4448 C4447 1.524 . S
C4448 C4449 1.415 . S
C4449 H4419 0.950 . S
C4449 C4444 1.363 . S
C4449 C4448 1.415 . S
H4450 C4447 0.999 . S
H4451 C4432 0.913 . S
H4452 C4470 0.951 . S
H4453 C4472 0.951 . S
H4454 C4474 0.950 . S
H4455 C4475 0.950 . S
H4456 C4477 0.950 . S
H4457 C4480 0.950 . S
H4458 C4481 0.950 . S
H4459 C4483 0.950 . S
H4460 C4484 0.950 . S
H4461 C4485 0.951 . S
H4462 C4487 0.951 . S
H4463 C4489 0.950 . S
H4464 C4490 0.950 . S
H4465 C4492 0.950 . S
H4466 C4495 0.950 . S
H4467 C4496 0.950 . S
H4468 C4498 0.950 . S
H4469 C4499 0.950 . S
C4470 H4452 0.951 . S
C4470 C4471 1.366 . S
C4470 C4472 1.388 . S
C4471 C4470 1.366 . S
C4471 C4475 1.385 . S
C4472 H4453 0.951 . S
C4472 C4470 1.388 . S
C4472 C4473 1.366 . S
C4473 C4472 1.366 . S
C4473 C4474 1.414 . S
C4473 C4476 1.499 . S
C4474 H4454 0.950 . S
C4474 C4473 1.414 . S
C4474 C4475 1.374 . S
C4475 H4455 0.950 . S
C4475 C4471 1.385 . S
C4475 C4474 1.374 . S
C4476 C4473 1.499 . S
C4476 C4477 1.373 . S
C4476 C4478 1.389 . S
C4477 H4456 0.950 . S
C4477 C4476 1.373 . S
C4477 C4493 1.377 . S
C4478 C4476 1.389 . S
C4478 C4479 1.524 . S
C4478 C4492 1.377 . S
C4479 C4478 1.524 . S
C4479 C4480 1.397 . S
C4479 C4484 1.363 . S
C4480 H4457 0.950 . S
C4480 C4479 1.397 . S
C4480 C4481 1.334 . S
C4481 H4458 0.950 . S
C4481 C4480 1.334 . S
C4481 C4482 1.287 . S
C4482 C4481 1.287 . S
C4482 C4483 1.524 . S
C4482 H4501 0.913 . S
C4483 H4459 0.950 . S
C4483 C4482 1.524 . S
C4483 C4484 1.415 . S
C4484 H4460 0.950 . S
C4484 C4479 1.363 . S
C4484 C4483 1.415 . S
C4485 H4461 0.951 . S
C4485 C4486 1.366 . S
C4485 C4487 1.388 . S
C4486 C4485 1.366 . S
C4486 C4490 1.385 . S
C4487 H4462 0.951 . S
C4487 C4485 1.388 . S
C4487 C4488 1.366 . S
C4488 C4487 1.366 . S
C4488 C4489 1.414 . S
C4488 C4491 1.499 . S
C4489 H4463 0.950 . S
C4489 C4488 1.414 . S
C4489 C4490 1.374 . S
C4490 H4464 0.950 . S
C4490 C4486 1.385 . S
C4490 C4489 1.374 . S
C4491 C4488 1.499 . S
C4491 C4492 1.373 . S
C4491 C4493 1.389 . S
C4492 H4465 0.950 . S
C4492 C4478 1.377 . S
C4492 C4491 1.373 . S
C4493 C4477 1.377 . S
C4493 C4491 1.389 . S
C4493 C4494 1.524 . S
C4494 C4493 1.524 . S
C4494 C4495 1.397 . S
C4494 C4499 1.363 . S
C4495 H4466 0.950 . S
C4495 C4494 1.397 . S
C4495 C4496 1.334 . S
C4496 H4467 0.950 . S
C4496 C4495 1.334 . S
C4496 C4497 1.287 . S
C4497 C4496 1.287 . S
C4497 C4498 1.524 . S
C4497 H4500 0.999 . S
C4498 H4468 0.950 . S
C4498 C4497 1.524 . S
C4498 C4499 1.415 . S
C4499 H4469 0.950 . S
C4499 C4494 1.363 . S
C4499 C4498 1.415 . S
H4500 C4497 0.999 . S
H4501 C4482 0.913 . S
H4502 C4520 0.951 . S
H4503 C4522 0.951 . S
H4504 C4524 0.950 . S
H4505 C4525 0.950 . S
H4506 C4527 0.950 . S
H4507 C4530 0.950 . S
H4508 C4531 0.950 . S
H4509 C4533 0.950 . S
H4510 C4534 0.950 . S
H4511 C4535 0.951 . S
H4512 C4537 0.951 . S
H4513 C4539 0.950 . S
H4514 C4540 0.950 . S
H4515 C4542 0.950 . S
H4516 C4545 0.950 . S
H4517 C4546 0.950 . S
H4518 C4548 0.950 . S
H4519 C4549 0.950 . S
C4520 H4502 0.951 . S
C4520 C4521 1.366 . S
C4520 C4522 1.388 . S
C4521 C4520 1.366 . S
C4521 C4525 1.385 . S
C4522 H4503 0.951 . S
C4522 C4520 1.388 . S
C4522 C4523 1.366 . S
C4523 C4522 1.366 . S
C4523 C4524 1.414 . S
C4523 C4526 1.499 . S
C4524 H4504 0.950 . S
C4524 C4523 1.414 . S
C4524 C4525 1.374 . S
C4525 H4505 0.950 . S
C4525 C4521 1.385 . S
C4525 C4524 1.374 . S
C4526 C4523 1.499 . S
C4526 C4527 1.373 . S
C4526 C4528 1.389 . S
C4527 H4506 0.950 . S
C4527 C4526 1.373 . S
C4527 C4543 1.377 . S
C4528 C4526 1.389 . S
C4528 C4529 1.524 . S
C4528 C4542 1.377 . S
C4529 C4528 1.524 . S
C4529 C4530 1.397 . S
C4529 C4534 1.363 . S
C4530 H4507 0.950 . S
C4530 C4529 1.397 . S
C4530 C4531 1.334 . S
C4531 H4508 0.950 . S
C4531 C4530 1.334 . S
C4531 C4532 1.287 . S
C4532 C4531 1.287 . S
C4532 C4533 1.524 . S
C4532 H4551 0.913 . S
C4533 H4509 0.950 . S
C4533 C4532 1.524 . S
C4533 C4534 1.415 . S
C4534 H4510 0.950 . S
C4534 C4529 1.363 . S
C4534 C4533 1.415 . S
C4535 H4511 0.951 . S
C4535 C4536 1.366 . S
C4535 C4537 1.388 . S
C4536 C4535 1.366 . S
C4536 C4540 1.385 . S
C4537 H4512 0.951 . S
C4537 C4535 1.388 . S
C4537 C4538 1.366 . S
C4538 C4537 1.366 . S
C4538 C4539 1.414 . S
C4538 C4541 1.499 . S
C4539 H4513 0.950 . S
C4539 C4538 1.414 . S
C4539 C4540 1.374 . S
C4540 H4514 0.950 . S
C4540 C4536 1.385 . S
C4540 C4539 1.374 . S
C4541 C4538 1.499 . S
C4541 C4542 1.373 . S
C4541 C4543 1.389 . S
C4542 H4515 0.950 . S
C4542 C4528 1.377 . S
C4542 C4541 1.373 . S
C4543 C4527 1.377 . S
C4543 C4541 1.389 . S
C4543 C4544 1.524 . S
C4544 C4543 1.524 . S
C4544 C4545 1.397 . S
C4544 C4549 1.363 . S
C4545 H4516 0.950 . S
C4545 C4544 1.397 . S
C4545 C4546 1.334 . S
C4546 H4517 0.950 . S
C4546 C4545 1.334 . S
C4546 C4547 1.287 . S
C4547 C4546 1.287 . S
C4547 C4548 1.524 . S
C4547 H4550 0.999 . S
C4548 H4518 0.950 . S
C4548 C4547 1.524 . S
C4548 C4549 1.415 . S
C4549 H4519 0.950 . S
C4549 C4544 1.363 . S
C4549 C4548 1.415 . S
H4550 C4547 0.999 . S
H4551 C4532 0.913 . S
H4552 C4570 0.951 . S
H4553 C4572 0.951 . S
H4554 C4574 0.950 1_565 S
H4555 C4575 0.950 . S
H4556 C4577 0.950 . S
H4557 C4580 1.015 . S
H4558 C4581 0.943 1_565 S
H4559 C4583 0.950 . S
H4560 C4584 0.950 . S
H4561 C4585 0.951 . S
H4562 C4587 0.951 . S
H4563 C4589 0.950 . S
H4564 C4590 0.950 . S
H4565 C4592 0.950 . S
H4566 C4595 0.950 . S
H4567 C4596 0.950 . S
H4568 C4598 0.950 1_565 S
H4569 C4599 0.950 1_565 S
C4570 H4552 0.951 . S
C4570 C4571 1.366 . S
C4570 C4572 1.388 . S
C4571 C4570 1.366 . S
C4571 C4575 1.385 1_545 S
C4572 H4553 0.951 . S
C4572 C4570 1.388 . S
C4572 C4573 1.366 . S
C4573 C4572 1.366 . S
C4573 C4574 1.414 . S
C4573 C4576 1.499 . S
C4574 H4554 0.950 1_545 S
C4574 C4573 1.414 . S
C4574 C4575 1.374 1_545 S
C4575 H4555 0.950 . S
C4575 C4571 1.385 1_565 S
C4575 C4574 1.374 1_565 S
C4576 C4573 1.499 . S
C4576 C4577 1.373 . S
C4576 C4578 1.389 . S
C4577 H4556 0.950 . S
C4577 C4576 1.373 . S
C4577 C4593 1.377 . S
C4578 C4576 1.389 . S
C4578 C4579 1.524 . S
C4578 C4592 1.377 . S
C4579 C4578 1.524 . S
C4579 C4580 1.397 . S
C4579 C4584 1.363 . S
C4580 H4557 1.015 . S
C4580 C4579 1.397 . S
C4580 C4581 1.334 . S
C4581 H4558 0.943 1_545 S
C4581 C4580 1.334 . S
C4581 C4582 1.287 . S
C4582 C4581 1.287 . S
C4582 C4583 1.524 . S
C4582 H4601 0.913 . S
C4583 H4559 0.950 . S
C4583 C4582 1.524 . S
C4583 C4584 1.415 . S
C4584 H4560 0.950 . S
C4584 C4579 1.363 . S
C4584 C4583 1.415 . S
C4585 H4561 0.951 . S
C4585 C4586 1.366 . S
C4585 C4587 1.388 . S
C4586 C4585 1.366 . S
C4586 C4590 1.385 . S
C4587 H4562 0.951 . S
C4587 C4585 1.388 . S
C4587 C4588 1.366 . S
C4588 C4587 1.366 . S
C4588 C4589 1.414 . S
C4588 C4591 1.499 . S
C4589 H4563 0.950 . S
C4589 C4588 1.414 . S
C4589 C4590 1.374 . S
C4590 H4564 0.950 . S
C4590 C4586 1.385 . S
C4590 C4589 1.374 . S
C4591 C4588 1.499 . S
C4591 C4592 1.373 . S
C4591 C4593 1.389 . S
C4592 H4565 0.950 . S
C4592 C4578 1.377 . S
C4592 C4591 1.373 . S
C4593 C4577 1.377 . S
C4593 C4591 1.389 . S
C4593 C4594 1.524 . S
C4594 C4593 1.524 . S
C4594 C4595 1.397 . S
C4594 C4599 1.363 . S
C4595 H4566 0.950 . S
C4595 C4594 1.397 . S
C4595 C4596 1.334 . S
C4596 H4567 0.950 . S
C4596 C4595 1.334 . S
C4596 C4597 1.287 . S
C4597 C4596 1.287 . S
C4597 C4598 1.524 . S
C4597 H4600 0.999 . S
C4598 H4568 0.950 1_545 S
C4598 C4597 1.524 . S
C4598 C4599 1.415 . S
C4599 H4569 0.950 1_545 S
C4599 C4594 1.363 . S
C4599 C4598 1.415 . S
H4600 C4597 0.999 . S
H4601 C4582 0.913 . S
H4602 C4620 0.951 . S
H4603 C4622 0.951 . S
H4604 C4624 0.950 . S
H4605 C4625 0.950 . S
H4606 C4627 0.950 . S
H4607 C4630 0.950 . S
H4608 C4631 0.950 . S
H4609 C4633 0.950 . S
H4610 C4634 0.950 . S
H4611 C4635 0.951 . S
H4612 C4637 0.951 . S
H4613 C4639 0.950 . S
H4614 C4640 0.950 . S
H4615 C4642 0.950 . S
H4616 C4645 0.950 . S
H4617 C4646 0.950 . S
H4618 C4648 0.950 . S
H4619 C4649 0.950 . S
C4620 H4602 0.951 . S
C4620 C4621 1.366 . S
C4620 C4622 1.388 . S
C4621 C4620 1.366 . S
C4621 C4625 1.385 . S
C4622 H4603 0.951 . S
C4622 C4620 1.388 . S
C4622 C4623 1.366 . S
C4623 C4622 1.366 . S
C4623 C4624 1.414 . S
C4623 C4626 1.499 . S
C4624 H4604 0.950 . S
C4624 C4623 1.414 . S
C4624 C4625 1.374 . S
C4625 H4605 0.950 . S
C4625 C4621 1.385 . S
C4625 C4624 1.374 . S
C4626 C4623 1.499 . S
C4626 C4627 1.373 . S
C4626 C4628 1.389 . S
C4627 H4606 0.950 . S
C4627 C4626 1.373 . S
C4627 C4643 1.377 . S
C4628 C4626 1.389 . S
C4628 C4629 1.524 . S
C4628 C4642 1.377 . S
C4629 C4628 1.524 . S
C4629 C4630 1.397 . S
C4629 C4634 1.363 . S
C4630 H4607 0.950 . S
C4630 C4629 1.397 . S
C4630 C4631 1.334 . S
C4631 H4608 0.950 . S
C4631 C4630 1.334 . S
C4631 C4632 1.287 . S
C4632 C4631 1.287 . S
C4632 C4633 1.524 . S
C4632 H4651 0.913 . S
C4633 H4609 0.950 . S
C4633 C4632 1.524 . S
C4633 C4634 1.415 . S
C4634 H4610 0.950 . S
C4634 C4629 1.363 . S
C4634 C4633 1.415 . S
C4635 H4611 0.951 . S
C4635 C4636 1.366 . S
C4635 C4637 1.388 . S
C4636 C4635 1.366 . S
C4636 C4640 1.385 . S
C4637 H4612 0.951 . S
C4637 C4635 1.388 . S
C4637 C4638 1.366 . S
C4638 C4637 1.366 . S
C4638 C4639 1.414 . S
C4638 C4641 1.499 . S
C4639 H4613 0.950 . S
C4639 C4638 1.414 . S
C4639 C4640 1.374 . S
C4640 H4614 0.950 . S
C4640 C4636 1.385 . S
C4640 C4639 1.374 . S
C4641 C4638 1.499 . S
C4641 C4642 1.373 . S
C4641 C4643 1.389 . S
C4642 H4615 0.950 . S
C4642 C4628 1.377 . S
C4642 C4641 1.373 . S
C4643 C4627 1.377 . S
C4643 C4641 1.389 . S
C4643 C4644 1.524 . S
C4644 C4643 1.524 . S
C4644 C4645 1.397 . S
C4644 C4649 1.363 . S
C4645 H4616 0.950 . S
C4645 C4644 1.397 . S
C4645 C4646 1.334 . S
C4646 H4617 0.950 . S
C4646 C4645 1.334 . S
C4646 C4647 1.287 . S
C4647 C4646 1.287 . S
C4647 C4648 1.524 . S
C4647 H4650 0.999 . S
C4648 H4618 0.950 . S
C4648 C4647 1.524 . S
C4648 C4649 1.415 . S
C4649 H4619 0.950 . S
C4649 C4644 1.363 . S
C4649 C4648 1.415 . S
H4650 C4647 0.999 . S
H4651 C4632 0.913 . S
H4652 C4670 0.951 . S
H4653 C4672 0.951 . S
H4654 C4674 0.950 . S
H4655 C4675 0.950 . S
H4656 C4677 0.950 . S
H4657 C4680 0.950 . S
H4658 C4681 0.950 . S
H4659 C4683 0.950 . S
H4660 C4684 0.950 . S
H4661 C4685 0.951 . S
H4662 C4687 0.951 . S
H4663 C4689 0.950 . S
H4664 C4690 0.950 . S
H4665 C4692 0.950 . S
H4666 C4695 0.950 . S
H4667 C4696 0.950 . S
H4668 C4698 0.950 . S
H4669 C4699 0.950 . S
C4670 H4652 0.951 . S
C4670 C4671 1.366 . S
C4670 C4672 1.388 . S
C4671 C4670 1.366 . S
C4671 C4675 1.385 . S
C4672 H4653 0.951 . S
C4672 C4670 1.388 . S
C4672 C4673 1.366 . S
C4673 C4672 1.366 . S
C4673 C4674 1.414 . S
C4673 C4676 1.499 . S
C4674 H4654 0.950 . S
C4674 C4673 1.414 . S
C4674 C4675 1.374 . S
C4675 H4655 0.950 . S
C4675 C4671 1.385 . S
C4675 C4674 1.374 . S
C4676 C4673 1.499 . S
C4676 C4677 1.373 . S
C4676 C4678 1.389 . S
C4677 H4656 0.950 . S
C4677 C4676 1.373 . S
C4677 C4693 1.377 . S
C4678 C4676 1.389 . S
C4678 C4679 1.524 . S
C4678 C4692 1.377 . S
C4679 C4678 1.524 . S
C4679 C4680 1.397 . S
C4679 C4684 1.363 . S
C4680 H4657 0.950 . S
C4680 C4679 1.397 . S
C4680 C4681 1.334 . S
C4681 H4658 0.950 . S
C4681 C4680 1.334 . S
C4681 C4682 1.287 . S
C4682 C4681 1.287 . S
C4682 C4683 1.524 . S
C4682 H4701 0.913 . S
C4683 H4659 0.950 . S
C4683 C4682 1.524 . S
C4683 C4684 1.415 . S
C4684 H4660 0.950 . S
C4684 C4679 1.363 . S
C4684 C4683 1.415 . S
C4685 H4661 0.951 . S
C4685 C4686 1.366 . S
C4685 C4687 1.388 . S
C4686 C4685 1.366 . S
C4686 C4690 1.385 . S
C4687 H4662 0.951 . S
C4687 C4685 1.388 . S
C4687 C4688 1.366 . S
C4688 C4687 1.366 . S
C4688 C4689 1.414 . S
C4688 C4691 1.499 . S
C4689 H4663 0.950 . S
C4689 C4688 1.414 . S
C4689 C4690 1.374 . S
C4690 H4664 0.950 . S
C4690 C4686 1.385 . S
C4690 C4689 1.374 . S
C4691 C4688 1.499 . S
C4691 C4692 1.373 . S
C4691 C4693 1.389 . S
C4692 H4665 0.950 . S
C4692 C4678 1.377 . S
C4692 C4691 1.373 . S
C4693 C4677 1.377 . S
C4693 C4691 1.389 . S
C4693 C4694 1.524 . S
C4694 C4693 1.524 . S
C4694 C4695 1.397 . S
C4694 C4699 1.363 . S
C4695 H4666 0.950 . S
C4695 C4694 1.397 . S
C4695 C4696 1.334 . S
C4696 H4667 0.950 . S
C4696 C4695 1.334 . S
C4696 C4697 1.287 . S
C4697 C4696 1.287 . S
C4697 C4698 1.524 . S
C4697 H4700 0.999 . S
C4698 H4668 0.950 . S
C4698 C4697 1.524 . S
C4698 C4699 1.415 . S
C4699 H4669 0.950 . S
C4699 C4694 1.363 . S
C4699 C4698 1.415 . S
H4700 C4697 0.999 . S
H4701 C4682 0.913 . S
H4702 C4720 0.951 . S
H4703 C4722 0.951 . S
H4704 C4724 0.950 . S
H4705 C4725 0.950 . S
H4706 C4727 0.950 . S
H4707 C4730 0.950 . S
H4708 C4731 0.950 . S
H4709 C4733 0.950 . S
H4710 C4734 0.950 . S
H4711 C4735 0.951 . S
H4712 C4737 0.951 . S
H4713 C4739 0.950 . S
H4714 C4740 0.950 . S
H4715 C4742 0.950 . S
H4716 C4745 0.950 . S
H4717 C4746 0.950 . S
H4718 C4748 0.950 . S
H4719 C4749 0.950 . S
C4720 H4702 0.951 . S
C4720 C4721 1.366 . S
C4720 C4722 1.388 . S
C4721 C4720 1.366 . S
C4721 C4725 1.385 . S
C4722 H4703 0.951 . S
C4722 C4720 1.388 . S
C4722 C4723 1.366 . S
C4723 C4722 1.366 . S
C4723 C4724 1.414 . S
C4723 C4726 1.499 . S
C4724 H4704 0.950 . S
C4724 C4723 1.414 . S
C4724 C4725 1.374 . S
C4725 H4705 0.950 . S
C4725 C4721 1.385 . S
C4725 C4724 1.374 . S
C4726 C4723 1.499 . S
C4726 C4727 1.373 . S
C4726 C4728 1.389 . S
C4727 H4706 0.950 . S
C4727 C4726 1.373 . S
C4727 C4743 1.377 . S
C4728 C4726 1.389 . S
C4728 C4729 1.524 . S
C4728 C4742 1.377 . S
C4729 C4728 1.524 . S
C4729 C4730 1.397 . S
C4729 C4734 1.363 . S
C4730 H4707 0.950 . S
C4730 C4729 1.397 . S
C4730 C4731 1.334 . S
C4731 H4708 0.950 . S
C4731 C4730 1.334 . S
C4731 C4732 1.287 . S
C4732 C4731 1.287 . S
C4732 C4733 1.524 . S
C4732 H4751 0.913 . S
C4733 H4709 0.950 . S
C4733 C4732 1.524 . S
C4733 C4734 1.415 . S
C4734 H4710 0.950 . S
C4734 C4729 1.363 . S
C4734 C4733 1.415 . S
C4735 H4711 0.951 . S
C4735 C4736 1.366 . S
C4735 C4737 1.388 . S
C4736 C4735 1.366 . S
C4736 C4740 1.385 . S
C4737 H4712 0.951 . S
C4737 C4735 1.388 . S
C4737 C4738 1.366 . S
C4738 C4737 1.366 . S
C4738 C4739 1.414 . S
C4738 C4741 1.499 . S
C4739 H4713 0.950 . S
C4739 C4738 1.414 . S
C4739 C4740 1.374 . S
C4740 H4714 0.950 . S
C4740 C4736 1.385 . S
C4740 C4739 1.374 . S
C4741 C4738 1.499 . S
C4741 C4742 1.373 . S
C4741 C4743 1.389 . S
C4742 H4715 0.950 . S
C4742 C4728 1.377 . S
C4742 C4741 1.373 . S
C4743 C4727 1.377 . S
C4743 C4741 1.389 . S
C4743 C4744 1.524 . S
C4744 C4743 1.524 . S
C4744 C4745 1.397 . S
C4744 C4749 1.363 . S
C4745 H4716 0.950 . S
C4745 C4744 1.397 . S
C4745 C4746 1.334 . S
C4746 H4717 0.950 . S
C4746 C4745 1.334 . S
C4746 C4747 1.287 . S
C4747 C4746 1.287 . S
C4747 C4748 1.524 . S
C4747 H4750 0.999 . S
C4748 H4718 0.950 . S
C4748 C4747 1.524 . S
C4748 C4749 1.415 . S
C4749 H4719 0.950 . S
C4749 C4744 1.363 . S
C4749 C4748 1.415 . S
H4750 C4747 0.999 . S
H4751 C4732 0.913 . S
H4752 C4770 0.951 . S
H4753 C4772 0.951 . S
H4754 C4774 0.950 . S
H4755 C4775 0.950 . S
H4756 C4777 0.950 1_556 S
H4757 C4780 0.950 . S
H4758 C4781 0.950 . S
H4759 C4783 0.950 . S
H4760 C4784 0.950 . S
H4761 C4785 0.951 . S
H4762 C4787 0.951 . S
H4763 C4789 0.950 . S
H4764 C4790 0.950 . S
H4765 C4792 0.950 . S
H4766 C4795 0.950 . S
H4767 C4796 0.950 . S
H4768 C4798 0.950 . S
H4769 C4799 0.950 . S
C4770 H4752 0.951 . S
C4770 C4771 1.366 . S
C4770 C4772 1.388 . S
C4771 C4770 1.366 . S
C4771 C4775 1.385 . S
C4772 H4753 0.951 . S
C4772 C4770 1.388 . S
C4772 C4773 1.366 . S
C4773 C4772 1.366 . S
C4773 C4774 1.414 . S
C4773 C4776 1.499 . S
C4774 H4754 0.950 . S
C4774 C4773 1.414 . S
C4774 C4775 1.374 . S
C4775 H4755 0.950 . S
C4775 C4771 1.385 . S
C4775 C4774 1.374 . S
C4776 C4773 1.499 . S
C4776 C4777 1.373 . S
C4776 C4778 1.389 . S
C4777 H4756 0.950 1_554 S
C4777 C4776 1.373 . S
C4777 C4793 1.377 . S
C4778 C4776 1.389 . S
C4778 C4779 1.524 . S
C4778 C4792 1.377 . S
C4779 C4778 1.524 . S
C4779 C4780 1.397 . S
C4779 C4784 1.363 . S
C4780 H4757 0.950 . S
C4780 C4779 1.397 . S
C4780 C4781 1.334 . S
C4781 H4758 0.950 . S
C4781 C4780 1.334 . S
C4781 C4782 1.287 . S
C4782 C4781 1.287 . S
C4782 C4783 1.524 . S
C4782 H4801 0.913 . S
C4783 H4759 0.950 . S
C4783 C4782 1.524 . S
C4783 C4784 1.415 . S
C4784 H4760 0.950 . S
C4784 C4779 1.363 . S
C4784 C4783 1.415 . S
C4785 H4761 0.951 . S
C4785 C4786 1.366 . S
C4785 C4787 1.388 . S
C4786 C4785 1.366 . S
C4786 C4790 1.385 . S
C4787 H4762 0.951 . S
C4787 C4785 1.388 . S
C4787 C4788 1.366 . S
C4788 C4787 1.366 . S
C4788 C4789 1.414 . S
C4788 C4791 1.499 . S
C4789 H4763 0.950 . S
C4789 C4788 1.414 . S
C4789 C4790 1.374 . S
C4790 H4764 0.950 . S
C4790 C4786 1.385 . S
C4790 C4789 1.374 . S
C4791 C4788 1.499 . S
C4791 C4792 1.373 . S
C4791 C4793 1.389 . S
C4792 H4765 0.950 . S
C4792 C4778 1.377 . S
C4792 C4791 1.373 . S
C4793 C4777 1.377 . S
C4793 C4791 1.389 . S
C4793 C4794 1.524 1_554 S
C4794 C4793 1.524 1_556 S
C4794 C4795 1.397 . S
C4794 C4799 1.363 . S
C4795 H4766 0.950 . S
C4795 C4794 1.397 . S
C4795 C4796 1.334 . S
C4796 H4767 0.950 . S
C4796 C4795 1.334 . S
C4796 C4797 1.287 . S
C4797 C4796 1.287 . S
C4797 C4798 1.524 . S
C4797 H4800 0.999 . S
C4798 H4768 0.950 . S
C4798 C4797 1.524 . S
C4798 C4799 1.415 . S
C4799 H4769 0.950 . S
C4799 C4794 1.363 . S
C4799 C4798 1.415 . S
H4800 C4797 0.999 . S
H4801 C4782 0.913 . S
H4802 C4820 0.951 . S
H4803 C4822 0.951 . S
H4804 C4824 0.950 . S
H4805 C4825 0.950 . S
H4806 C4827 0.950 . S
H4807 C4830 0.950 . S
H4808 C4831 0.950 . S
H4809 C4833 0.950 . S
H4810 C4834 0.950 . S
H4811 C4835 0.951 . S
H4812 C4837 0.951 . S
H4813 C4839 0.950 . S
H4814 C4840 0.950 . S
H4815 C4842 0.950 . S
H4816 C4845 0.950 . S
H4817 C4846 0.950 . S
H4818 C4848 0.950 . S
H4819 C4849 0.950 . S
C4820 H4802 0.951 . S
C4820 C4821 1.366 . S
C4820 C4822 1.388 . S
C4821 C4820 1.366 . S
C4821 C4825 1.385 . S
C4822 H4803 0.951 . S
C4822 C4820 1.388 . S
C4822 C4823 1.366 . S
C4823 C4822 1.366 . S
C4823 C4824 1.414 . S
C4823 C4826 1.499 . S
C4824 H4804 0.950 . S
C4824 C4823 1.414 . S
C4824 C4825 1.374 . S
C4825 H4805 0.950 . S
C4825 C4821 1.385 . S
C4825 C4824 1.374 . S
C4826 C4823 1.499 . S
C4826 C4827 1.373 . S
C4826 C4828 1.389 . S
C4827 H4806 0.950 . S
C4827 C4826 1.373 . S
C4827 C4843 1.377 . S
C4828 C4826 1.389 . S
C4828 C4829 1.524 . S
C4828 C4842 1.377 . S
C4829 C4828 1.524 . S
C4829 C4830 1.397 . S
C4829 C4834 1.363 . S
C4830 H4807 0.950 . S
C4830 C4829 1.397 . S
C4830 C4831 1.334 . S
C4831 H4808 0.950 . S
C4831 C4830 1.334 . S
C4831 C4832 1.287 . S
C4832 C4831 1.287 . S
C4832 C4833 1.524 . S
C4832 H4851 0.913 . S
C4833 H4809 0.950 . S
C4833 C4832 1.524 . S
C4833 C4834 1.415 . S
C4834 H4810 0.950 . S
C4834 C4829 1.363 . S
C4834 C4833 1.415 . S
C4835 H4811 0.951 . S
C4835 C4836 1.366 . S
C4835 C4837 1.388 . S
C4836 C4835 1.366 . S
C4836 C4840 1.385 . S
C4837 H4812 0.951 . S
C4837 C4835 1.388 . S
C4837 C4838 1.366 . S
C4838 C4837 1.366 . S
C4838 C4839 1.414 . S
C4838 C4841 1.499 . S
C4839 H4813 0.950 . S
C4839 C4838 1.414 . S
C4839 C4840 1.374 . S
C4840 H4814 0.950 . S
C4840 C4836 1.385 . S
C4840 C4839 1.374 . S
C4841 C4838 1.499 . S
C4841 C4842 1.373 . S
C4841 C4843 1.389 . S
C4842 H4815 0.950 . S
C4842 C4828 1.377 . S
C4842 C4841 1.373 . S
C4843 C4827 1.377 . S
C4843 C4841 1.389 . S
C4843 C4844 1.524 . S
C4844 C4843 1.524 . S
C4844 C4845 1.397 . S
C4844 C4849 1.363 . S
C4845 H4816 0.950 . S
C4845 C4844 1.397 . S
C4845 C4846 1.334 . S
C4846 H4817 0.950 . S
C4846 C4845 1.334 . S
C4846 C4847 1.287 . S
C4847 C4846 1.287 . S
C4847 C4848 1.524 . S
C4847 H4850 0.999 . S
C4848 H4818 0.950 . S
C4848 C4847 1.524 . S
C4848 C4849 1.415 . S
C4849 H4819 0.950 . S
C4849 C4844 1.363 . S
C4849 C4848 1.415 . S
H4850 C4847 0.999 . S
H4851 C4832 0.913 . S
H4852 C4870 0.951 . S
H4853 C4872 0.951 . S
H4854 C4874 0.950 . S
H4855 C4875 0.950 . S
H4856 C4877 0.950 . S
H4857 C4880 0.950 . S
H4858 C4881 0.950 . S
H4859 C4883 0.950 . S
H4860 C4884 0.950 . S
H4861 C4885 0.951 . S
H4862 C4887 0.951 . S
H4863 C4889 0.950 . S
H4864 C4890 0.950 . S
H4865 C4892 0.950 . S
H4866 C4895 0.950 . S
H4867 C4896 0.950 . S
H4868 C4898 0.950 . S
H4869 C4899 0.950 . S
C4870 H4852 0.951 . S
C4870 C4871 1.366 . S
C4870 C4872 1.388 . S
C4871 C4870 1.366 . S
C4871 C4875 1.385 . S
C4872 H4853 0.951 . S
C4872 C4870 1.388 . S
C4872 C4873 1.366 . S
C4873 C4872 1.366 . S
C4873 C4874 1.414 . S
C4873 C4876 1.499 . S
C4874 H4854 0.950 . S
C4874 C4873 1.414 . S
C4874 C4875 1.374 . S
C4875 H4855 0.950 . S
C4875 C4871 1.385 . S
C4875 C4874 1.374 . S
C4876 C4873 1.499 . S
C4876 C4877 1.373 . S
C4876 C4878 1.389 . S
C4877 H4856 0.950 . S
C4877 C4876 1.373 . S
C4877 C4893 1.377 . S
C4878 C4876 1.389 . S
C4878 C4879 1.524 . S
C4878 C4892 1.377 . S
C4879 C4878 1.524 . S
C4879 C4880 1.397 . S
C4879 C4884 1.363 . S
C4880 H4857 0.950 . S
C4880 C4879 1.397 . S
C4880 C4881 1.334 . S
C4881 H4858 0.950 . S
C4881 C4880 1.334 . S
C4881 C4882 1.287 . S
C4882 C4881 1.287 . S
C4882 C4883 1.524 . S
C4882 H4901 0.913 . S
C4883 H4859 0.950 . S
C4883 C4882 1.524 . S
C4883 C4884 1.415 . S
C4884 H4860 0.950 . S
C4884 C4879 1.363 . S
C4884 C4883 1.415 . S
C4885 H4861 0.951 . S
C4885 C4886 1.366 . S
C4885 C4887 1.388 . S
C4886 C4885 1.366 . S
C4886 C4890 1.385 . S
C4887 H4862 0.951 . S
C4887 C4885 1.388 . S
C4887 C4888 1.366 . S
C4888 C4887 1.366 . S
C4888 C4889 1.414 . S
C4888 C4891 1.499 . S
C4889 H4863 0.950 . S
C4889 C4888 1.414 . S
C4889 C4890 1.374 . S
C4890 H4864 0.950 . S
C4890 C4886 1.385 . S
C4890 C4889 1.374 . S
C4891 C4888 1.499 . S
C4891 C4892 1.373 . S
C4891 C4893 1.389 . S
C4892 H4865 0.950 . S
C4892 C4878 1.377 . S
C4892 C4891 1.373 . S
C4893 C4877 1.377 . S
C4893 C4891 1.389 . S
C4893 C4894 1.524 . S
C4894 C4893 1.524 . S
C4894 C4895 1.397 . S
C4894 C4899 1.363 . S
C4895 H4866 0.950 . S
C4895 C4894 1.397 . S
C4895 C4896 1.334 . S
C4896 H4867 0.950 . S
C4896 C4895 1.334 . S
C4896 C4897 1.287 . S
C4897 C4896 1.287 . S
C4897 C4898 1.524 . S
C4897 H4900 0.999 . S
C4898 H4868 0.950 . S
C4898 C4897 1.524 . S
C4898 C4899 1.415 . S
C4899 H4869 0.950 . S
C4899 C4894 1.363 . S
C4899 C4898 1.415 . S
H4900 C4897 0.999 . S
H4901 C4882 0.913 . S
H4902 C4920 0.951 . S
H4903 C4922 0.951 . S
H4904 C4924 0.950 . S
H4905 C4925 0.950 . S
H4906 C4927 0.950 . S
H4907 C4930 0.950 . S
H4908 C4931 0.950 . S
H4909 C4933 0.950 . S
H4910 C4934 0.950 . S
H4911 C4935 0.951 . S
H4912 C4937 0.951 . S
H4913 C4939 0.950 . S
H4914 C4940 0.950 . S
H4915 C4942 0.950 . S
H4916 C4945 0.950 . S
H4917 C4946 0.950 . S
H4918 C4948 0.950 . S
H4919 C4949 0.950 . S
C4920 H4902 0.951 . S
C4920 C4921 1.366 . S
C4920 C4922 1.388 . S
C4921 C4920 1.366 . S
C4921 C4925 1.385 . S
C4922 H4903 0.951 . S
C4922 C4920 1.388 . S
C4922 C4923 1.366 . S
C4923 C4922 1.366 . S
C4923 C4924 1.414 . S
C4923 C4926 1.499 . S
C4924 H4904 0.950 . S
C4924 C4923 1.414 . S
C4924 C4925 1.374 . S
C4925 H4905 0.950 . S
C4925 C4921 1.385 . S
C4925 C4924 1.374 . S
C4926 C4923 1.499 . S
C4926 C4927 1.373 . S
C4926 C4928 1.389 . S
C4927 H4906 0.950 . S
C4927 C4926 1.373 . S
C4927 C4943 1.377 . S
C4928 C4926 1.389 . S
C4928 C4929 1.524 . S
C4928 C4942 1.377 . S
C4929 C4928 1.524 . S
C4929 C4930 1.397 . S
C4929 C4934 1.363 . S
C4930 H4907 0.950 . S
C4930 C4929 1.397 . S
C4930 C4931 1.334 . S
C4931 H4908 0.950 . S
C4931 C4930 1.334 . S
C4931 C4932 1.287 . S
C4932 C4931 1.287 . S
C4932 C4933 1.524 . S
C4932 H4951 0.913 . S
C4933 H4909 0.950 . S
C4933 C4932 1.524 . S
C4933 C4934 1.415 . S
C4934 H4910 0.950 . S
C4934 C4929 1.363 . S
C4934 C4933 1.415 . S
C4935 H4911 0.951 . S
C4935 C4936 1.366 . S
C4935 C4937 1.388 . S
C4936 C4935 1.366 . S
C4936 C4940 1.385 . S
C4937 H4912 0.951 . S
C4937 C4935 1.388 . S
C4937 C4938 1.366 . S
C4938 C4937 1.366 . S
C4938 C4939 1.414 . S
C4938 C4941 1.499 . S
C4939 H4913 0.950 . S
C4939 C4938 1.414 . S
C4939 C4940 1.374 . S
C4940 H4914 0.950 . S
C4940 C4936 1.385 . S
C4940 C4939 1.374 . S
C4941 C4938 1.499 . S
C4941 C4942 1.373 . S
C4941 C4943 1.389 . S
C4942 H4915 0.950 . S
C4942 C4928 1.377 . S
C4942 C4941 1.373 . S
C4943 C4927 1.377 . S
C4943 C4941 1.389 . S
C4943 C4944 1.524 . S
C4944 C4943 1.524 . S
C4944 C4945 1.397 . S
C4944 C4949 1.363 . S
C4945 H4916 0.950 . S
C4945 C4944 1.397 . S
C4945 C4946 1.334 . S
C4946 H4917 0.950 . S
C4946 C4945 1.334 . S
C4946 C4947 1.287 . S
C4947 C4946 1.287 . S
C4947 C4948 1.524 . S
C4947 H4950 0.999 . S
C4948 H4918 0.950 . S
C4948 C4947 1.524 . S
C4948 C4949 1.415 . S
C4949 H4919 0.950 . S
C4949 C4944 1.363 . S
C4949 C4948 1.415 . S
H4950 C4947 0.999 . S
H4951 C4932 0.913 . S
H4952 C4970 0.951 . S
H4953 C4972 0.951 . S
H4954 C4974 0.950 . S
H4955 C4975 0.950 . S
H4956 C4977 0.950 . S
H4957 C4980 0.950 . S
H4958 C4981 0.950 . S
H4959 C4983 0.950 . S
H4960 C4984 0.950 . S
H4961 C4985 0.951 . S
H4962 C4987 0.951 . S
H4963 C4989 0.950 . S
H4964 C4990 0.950 . S
H4965 C4992 0.950 . S
H4966 C4995 0.950 . S
H4967 C4996 0.950 . S
H4968 C4998 0.950 . S
H4969 C4999 0.950 . S
C4970 H4952 0.951 . S
C4970 C4971 1.366 . S
C4970 C4972 1.388 . S
C4971 C4970 1.366 . S
C4971 C4975 1.385 . S
C4972 H4953 0.951 . S
C4972 C4970 1.388 . S
C4972 C4973 1.366 . S
C4973 C4972 1.366 . S
C4973 C4974 1.414 . S
C4973 C4976 1.499 . S
C4974 H4954 0.950 . S
C4974 C4973 1.414 . S
C4974 C4975 1.374 . S
C4975 H4955 0.950 . S
C4975 C4971 1.385 . S
C4975 C4974 1.374 . S
C4976 C4973 1.499 . S
C4976 C4977 1.373 . S
C4976 C4978 1.389 . S
C4977 H4956 0.950 . S
C4977 C4976 1.373 . S
C4977 C4993 1.377 . S
C4978 C4976 1.389 . S
C4978 C4979 1.524 . S
C4978 C4992 1.377 . S
C4979 C4978 1.524 . S
C4979 C4980 1.397 . S
C4979 C4984 1.363 . S
C4980 H4957 0.950 . S
C4980 C4979 1.397 . S
C4980 C4981 1.334 . S
C4981 H4958 0.950 . S
C4981 C4980 1.334 . S
C4981 C4982 1.287 . S
C4982 C4981 1.287 . S
C4982 C4983 1.524 . S
C4982 H5001 0.913 . S
C4983 H4959 0.950 . S
C4983 C4982 1.524 . S
C4983 C4984 1.415 . S
C4984 H4960 0.950 . S
C4984 C4979 1.363 . S
C4984 C4983 1.415 . S
C4985 H4961 0.951 . S
C4985 C4986 1.366 . S
C4985 C4987 1.388 . S
C4986 C4985 1.366 . S
C4986 C4990 1.385 . S
C4987 H4962 0.951 . S
C4987 C4985 1.388 . S
C4987 C4988 1.366 . S
C4988 C4987 1.366 . S
C4988 C4989 1.414 . S
C4988 C4991 1.499 . S
C4989 H4963 0.950 . S
C4989 C4988 1.414 . S
C4989 C4990 1.374 . S
C4990 H4964 0.950 . S
C4990 C4986 1.385 . S
C4990 C4989 1.374 . S
C4991 C4988 1.499 . S
C4991 C4992 1.373 . S
C4991 C4993 1.389 . S
C4992 H4965 0.950 . S
C4992 C4978 1.377 . S
C4992 C4991 1.373 . S
C4993 C4977 1.377 . S
C4993 C4991 1.389 . S
C4993 C4994 1.524 . S
C4994 C4993 1.524 . S
C4994 C4995 1.397 . S
C4994 C4999 1.363 . S
C4995 H4966 0.950 . S
C4995 C4994 1.397 . S
C4995 C4996 1.334 . S
C4996 H4967 0.950 . S
C4996 C4995 1.334 . S
C4996 C4997 1.287 . S
C4997 C4996 1.287 . S
C4997 C4998 1.524 . S
C4997 H5000 0.999 . S
C4998 H4968 0.950 . S
C4998 C4997 1.524 . S
C4998 C4999 1.415 . S
C4999 H4969 0.950 . S
C4999 C4994 1.363 . S
C4999 C4998 1.415 . S
H5000 C4997 0.999 . S
H5001 C4982 0.913 . S
H5002 C5020 0.951 . S
H5003 C5022 0.951 . S
H5004 C5024 0.950 1_545 S
H5005 C5025 0.950 . S
H5006 C5027 0.950 . S
H5007 C5030 0.950 . S
H5008 C5031 0.950 . S
H5009 C5033 0.950 . S
H5010 C5034 0.950 . S
H5011 C5035 0.951 . S
H5012 C5037 0.951 . S
H5013 C5039 0.950 . S
H5014 C5040 0.950 . S
H5015 C5042 0.950 . S
H5016 C5045 0.950 . S
H5017 C5046 0.972 . S
H5018 C5048 0.950 . S
H5019 C5049 0.950 . S
C5020 H5002 0.951 . S
C5020 C5021 1.366 . S
C5020 C5022 1.388 . S
C5021 C5020 1.366 . S
C5021 C5025 1.385 . S
C5022 H5003 0.951 . S
C5022 C5020 1.388 . S
C5022 C5023 1.366 . S
C5023 C5022 1.366 . S
C5023 C5024 1.414 . S
C5023 C5026 1.499 . S
C5024 H5004 0.950 1_565 S
C5024 C5023 1.414 . S
C5024 C5025 1.374 . S
C5025 H5005 0.950 . S
C5025 C5021 1.385 . S
C5025 C5024 1.374 . S
C5026 C5023 1.499 . S
C5026 C5027 1.373 . S
C5026 C5028 1.389 . S
C5027 H5006 0.950 . S
C5027 C5026 1.373 . S
C5027 C5043 1.377 . S
C5028 C5026 1.389 . S
C5028 C5029 1.524 . S
C5028 C5042 1.377 . S
C5029 C5028 1.524 . S
C5029 C5030 1.397 . S
C5029 C5034 1.363 . S
C5030 H5007 0.950 . S
C5030 C5029 1.397 . S
C5030 C5031 1.334 . S
C5031 H5008 0.950 . S
C5031 C5030 1.334 . S
C5031 C5032 1.287 . S
C5032 C5031 1.287 . S
C5032 C5033 1.524 . S
C5032 H5051 0.913 . S
C5033 H5009 0.950 . S
C5033 C5032 1.524 . S
C5033 C5034 1.415 . S
C5034 H5010 0.950 . S
C5034 C5029 1.363 . S
C5034 C5033 1.415 . S
C5035 H5011 0.951 . S
C5035 C5036 1.366 . S
C5035 C5037 1.388 . S
C5036 C5035 1.366 . S
C5036 C5040 1.385 1_545 S
C5037 H5012 0.951 . S
C5037 C5035 1.388 . S
C5037 C5038 1.366 1_545 S
C5038 C5037 1.366 1_565 S
C5038 C5039 1.414 . S
C5038 C5041 1.499 . S
C5039 H5013 0.950 . S
C5039 C5038 1.414 . S
C5039 C5040 1.374 . S
C5040 H5014 0.950 . S
C5040 C5036 1.385 1_565 S
C5040 C5039 1.374 . S
C5041 C5038 1.499 . S
C5041 C5042 1.373 . S
C5041 C5043 1.389 . S
C5042 H5015 0.950 . S
C5042 C5028 1.377 . S
C5042 C5041 1.373 . S
C5043 C5027 1.377 . S
C5043 C5041 1.389 . S
C5043 C5044 1.524 1_565 S
C5044 C5043 1.524 1_545 S
C5044 C5045 1.397 1_545 S
C5044 C5049 1.363 . S
C5045 H5016 0.950 . S
C5045 C5044 1.397 1_565 S
C5045 C5046 1.357 . S
C5046 H5017 0.972 . S
C5046 C5045 1.357 . S
C5046 C5047 1.246 1_565 S
C5047 C5046 1.246 1_545 S
C5047 C5048 1.524 . S
C5047 H5050 0.999 . S
C5048 H5018 0.950 . S
C5048 C5047 1.524 . S
C5048 C5049 1.415 . S
C5049 H5019 0.950 . S
C5049 C5044 1.363 . S
C5049 C5048 1.415 . S
H5050 C5047 0.999 . S
H5051 C5032 0.913 . S
H5052 C5070 0.951 . S
H5053 C5072 0.951 . S
H5054 C5074 0.950 . S
H5055 C5075 0.950 . S
H5056 C5077 0.950 . S
H5057 C5080 0.950 . S
H5058 C5081 0.950 . S
H5059 C5083 0.950 . S
H5060 C5084 0.950 . S
H5061 C5085 0.951 . S
H5062 C5087 0.951 . S
H5063 C5089 0.950 . S
H5064 C5090 0.950 . S
H5065 C5092 0.950 . S
H5066 C5095 0.950 . S
H5067 C5096 0.950 . S
H5068 C5098 0.950 . S
H5069 C5099 0.950 . S
C5070 H5052 0.951 . S
C5070 C5071 1.366 . S
C5070 C5072 1.388 . S
C5071 C5070 1.366 . S
C5071 C5075 1.385 . S
C5072 H5053 0.951 . S
C5072 C5070 1.388 . S
C5072 C5073 1.366 . S
C5073 C5072 1.366 . S
C5073 C5074 1.414 . S
C5073 C5076 1.499 . S
C5074 H5054 0.950 . S
C5074 C5073 1.414 . S
C5074 C5075 1.374 . S
C5075 H5055 0.950 . S
C5075 C5071 1.385 . S
C5075 C5074 1.374 . S
C5076 C5073 1.499 . S
C5076 C5077 1.373 . S
C5076 C5078 1.389 . S
C5077 H5056 0.950 . S
C5077 C5076 1.373 . S
C5077 C5093 1.377 . S
C5078 C5076 1.389 . S
C5078 C5079 1.524 . S
C5078 C5092 1.377 . S
C5079 C5078 1.524 . S
C5079 C5080 1.397 . S
C5079 C5084 1.363 . S
C5080 H5057 0.950 . S
C5080 C5079 1.397 . S
C5080 C5081 1.334 . S
C5081 H5058 0.950 . S
C5081 C5080 1.334 . S
C5081 C5082 1.287 . S
C5082 C5081 1.287 . S
C5082 C5083 1.524 . S
C5082 H5101 0.913 . S
C5083 H5059 0.950 . S
C5083 C5082 1.524 . S
C5083 C5084 1.415 . S
C5084 H5060 0.950 . S
C5084 C5079 1.363 . S
C5084 C5083 1.415 . S
C5085 H5061 0.951 . S
C5085 C5086 1.366 . S
C5085 C5087 1.388 . S
C5086 C5085 1.366 . S
C5086 C5090 1.385 . S
C5087 H5062 0.951 . S
C5087 C5085 1.388 . S
C5087 C5088 1.366 . S
C5088 C5087 1.366 . S
C5088 C5089 1.414 . S
C5088 C5091 1.499 . S
C5089 H5063 0.950 . S
C5089 C5088 1.414 . S
C5089 C5090 1.374 . S
C5090 H5064 0.950 . S
C5090 C5086 1.385 . S
C5090 C5089 1.374 . S
C5091 C5088 1.499 . S
C5091 C5092 1.373 . S
C5091 C5093 1.389 . S
C5092 H5065 0.950 . S
C5092 C5078 1.377 . S
C5092 C5091 1.373 . S
C5093 C5077 1.377 . S
C5093 C5091 1.389 . S
C5093 C5094 1.524 . S
C5094 C5093 1.524 . S
C5094 C5095 1.397 . S
C5094 C5099 1.363 . S
C5095 H5066 0.950 . S
C5095 C5094 1.397 . S
C5095 C5096 1.334 . S
C5096 H5067 0.950 . S
C5096 C5095 1.334 . S
C5096 C5097 1.287 . S
C5097 C5096 1.287 . S
C5097 C5098 1.524 . S
C5097 H5100 0.999 . S
C5098 H5068 0.950 . S
C5098 C5097 1.524 . S
C5098 C5099 1.415 . S
C5099 H5069 0.950 . S
C5099 C5094 1.363 . S
C5099 C5098 1.415 . S
H5100 C5097 0.999 . S
H5101 C5082 0.913 . S
H5102 C5120 0.951 . S
H5103 C5122 0.951 . S
H5104 C5124 0.950 . S
H5105 C5125 0.950 . S
H5106 C5127 0.950 . S
H5107 C5130 0.950 . S
H5108 C5131 0.950 . S
H5109 C5133 0.950 . S
H5110 C5134 0.950 . S
H5111 C5135 0.951 . S
H5112 C5137 0.951 . S
H5113 C5139 0.950 . S
H5114 C5140 0.950 . S
H5115 C5142 0.950 . S
H5116 C5145 0.950 . S
H5117 C5146 0.950 . S
H5118 C5148 0.950 . S
H5119 C5149 0.950 . S
C5120 H5102 0.951 . S
C5120 C5121 1.366 . S
C5120 C5122 1.388 . S
C5121 C5120 1.366 . S
C5121 C5125 1.385 . S
C5122 H5103 0.951 . S
C5122 C5120 1.388 . S
C5122 C5123 1.366 . S
C5123 C5122 1.366 . S
C5123 C5124 1.414 . S
C5123 C5126 1.499 . S
C5124 H5104 0.950 . S
C5124 C5123 1.414 . S
C5124 C5125 1.374 . S
C5125 H5105 0.950 . S
C5125 C5121 1.385 . S
C5125 C5124 1.374 . S
C5126 C5123 1.499 . S
C5126 C5127 1.373 . S
C5126 C5128 1.389 . S
C5127 H5106 0.950 . S
C5127 C5126 1.373 . S
C5127 C5143 1.377 . S
C5128 C5126 1.389 . S
C5128 C5129 1.524 . S
C5128 C5142 1.377 . S
C5129 C5128 1.524 . S
C5129 C5130 1.397 . S
C5129 C5134 1.363 . S
C5130 H5107 0.950 . S
C5130 C5129 1.397 . S
C5130 C5131 1.334 . S
C5131 H5108 0.950 . S
C5131 C5130 1.334 . S
C5131 C5132 1.287 . S
C5132 C5131 1.287 . S
C5132 C5133 1.524 . S
C5132 H5151 0.913 . S
C5133 H5109 0.950 . S
C5133 C5132 1.524 . S
C5133 C5134 1.415 . S
C5134 H5110 0.950 . S
C5134 C5129 1.363 . S
C5134 C5133 1.415 . S
C5135 H5111 0.951 . S
C5135 C5136 1.366 . S
C5135 C5137 1.388 . S
C5136 C5135 1.366 . S
C5136 C5140 1.385 . S
C5137 H5112 0.951 . S
C5137 C5135 1.388 . S
C5137 C5138 1.366 . S
C5138 C5137 1.366 . S
C5138 C5139 1.414 . S
C5138 C5141 1.499 . S
C5139 H5113 0.950 . S
C5139 C5138 1.414 . S
C5139 C5140 1.374 . S
C5140 H5114 0.950 . S
C5140 C5136 1.385 . S
C5140 C5139 1.374 . S
C5141 C5138 1.499 . S
C5141 C5142 1.373 . S
C5141 C5143 1.389 . S
C5142 H5115 0.950 . S
C5142 C5128 1.377 . S
C5142 C5141 1.373 . S
C5143 C5127 1.377 . S
C5143 C5141 1.389 . S
C5143 C5144 1.524 . S
C5144 C5143 1.524 . S
C5144 C5145 1.397 . S
C5144 C5149 1.363 . S
C5145 H5116 0.950 . S
C5145 C5144 1.397 . S
C5145 C5146 1.334 . S
C5146 H5117 0.950 . S
C5146 C5145 1.334 . S
C5146 C5147 1.287 . S
C5147 C5146 1.287 . S
C5147 C5148 1.524 . S
C5147 H5150 0.999 . S
C5148 H5118 0.950 . S
C5148 C5147 1.524 . S
C5148 C5149 1.415 . S
C5149 H5119 0.950 . S
C5149 C5144 1.363 . S
C5149 C5148 1.415 . S
H5150 C5147 0.999 . S
H5151 C5132 0.913 . S
H5152 C5170 0.951 . S
H5153 C5172 0.951 . S
H5154 C5174 0.950 . S
H5155 C5175 0.950 . S
H5156 C5177 0.950 . S
H5157 C5180 0.950 . S
H5158 C5181 0.950 . S
H5159 C5183 0.950 . S
H5160 C5184 0.950 . S
H5161 C5185 0.951 . S
H5162 C5187 0.951 . S
H5163 C5189 0.950 . S
H5164 C5190 0.950 . S
H5165 C5192 0.950 . S
H5166 C5195 0.950 . S
H5167 C5196 0.950 . S
H5168 C5198 0.950 . S
H5169 C5199 0.950 . S
C5170 H5152 0.951 . S
C5170 C5171 1.366 . S
C5170 C5172 1.388 . S
C5171 C5170 1.366 . S
C5171 C5175 1.385 . S
C5172 H5153 0.951 . S
C5172 C5170 1.388 . S
C5172 C5173 1.366 . S
C5173 C5172 1.366 . S
C5173 C5174 1.414 . S
C5173 C5176 1.499 . S
C5174 H5154 0.950 . S
C5174 C5173 1.414 . S
C5174 C5175 1.374 . S
C5175 H5155 0.950 . S
C5175 C5171 1.385 . S
C5175 C5174 1.374 . S
C5176 C5173 1.499 . S
C5176 C5177 1.373 . S
C5176 C5178 1.389 . S
C5177 H5156 0.950 . S
C5177 C5176 1.373 . S
C5177 C5193 1.377 . S
C5178 C5176 1.389 . S
C5178 C5179 1.524 . S
C5178 C5192 1.377 . S
C5179 C5178 1.524 . S
C5179 C5180 1.397 . S
C5179 C5184 1.363 . S
C5180 H5157 0.950 . S
C5180 C5179 1.397 . S
C5180 C5181 1.334 . S
C5181 H5158 0.950 . S
C5181 C5180 1.334 . S
C5181 C5182 1.287 . S
C5182 C5181 1.287 . S
C5182 C5183 1.524 . S
C5182 H5201 0.913 . S
C5183 H5159 0.950 . S
C5183 C5182 1.524 . S
C5183 C5184 1.415 . S
C5184 H5160 0.950 . S
C5184 C5179 1.363 . S
C5184 C5183 1.415 . S
C5185 H5161 0.951 . S
C5185 C5186 1.366 . S
C5185 C5187 1.388 . S
C5186 C5185 1.366 . S
C5186 C5190 1.385 . S
C5187 H5162 0.951 . S
C5187 C5185 1.388 . S
C5187 C5188 1.366 . S
C5188 C5187 1.366 . S
C5188 C5189 1.414 . S
C5188 C5191 1.499 . S
C5189 H5163 0.950 . S
C5189 C5188 1.414 . S
C5189 C5190 1.374 . S
C5190 H5164 0.950 . S
C5190 C5186 1.385 . S
C5190 C5189 1.374 . S
C5191 C5188 1.499 . S
C5191 C5192 1.373 . S
C5191 C5193 1.389 . S
C5192 H5165 0.950 . S
C5192 C5178 1.377 . S
C5192 C5191 1.373 . S
C5193 C5177 1.377 . S
C5193 C5191 1.389 . S
C5193 C5194 1.524 . S
C5194 C5193 1.524 . S
C5194 C5195 1.397 . S
C5194 C5199 1.363 . S
C5195 H5166 0.950 . S
C5195 C5194 1.397 . S
C5195 C5196 1.334 . S
C5196 H5167 0.950 . S
C5196 C5195 1.334 . S
C5196 C5197 1.287 . S
C5197 C5196 1.287 . S
C5197 C5198 1.524 . S
C5197 H5200 0.999 . S
C5198 H5168 0.950 . S
C5198 C5197 1.524 . S
C5198 C5199 1.415 . S
C5199 H5169 0.950 . S
C5199 C5194 1.363 . S
C5199 C5198 1.415 . S
H5200 C5197 0.999 . S
H5201 C5182 0.913 . S
H5202 C5220 0.951 . S
H5203 C5222 0.951 . S
H5204 C5224 0.950 . S
H5205 C5225 0.950 . S
H5206 C5227 0.950 . S
H5207 C5230 0.950 . S
H5208 C5231 0.950 . S
H5209 C5233 0.950 . S
H5210 C5234 0.950 . S
H5211 C5235 0.951 . S
H5212 C5237 0.951 . S
H5213 C5239 0.950 . S
H5214 C5240 0.950 . S
H5215 C5242 0.950 . S
H5216 C5245 0.950 . S
H5217 C5246 0.950 . S
H5218 C5248 0.950 . S
H5219 C5249 0.950 . S
C5220 H5202 0.951 . S
C5220 C5221 1.366 . S
C5220 C5222 1.388 . S
C5221 C5220 1.366 . S
C5221 C5225 1.385 . S
C5222 H5203 0.951 . S
C5222 C5220 1.388 . S
C5222 C5223 1.366 . S
C5223 C5222 1.366 . S
C5223 C5224 1.414 . S
C5223 C5226 1.499 . S
C5224 H5204 0.950 . S
C5224 C5223 1.414 . S
C5224 C5225 1.374 . S
C5225 H5205 0.950 . S
C5225 C5221 1.385 . S
C5225 C5224 1.374 . S
C5226 C5223 1.499 . S
C5226 C5227 1.373 . S
C5226 C5228 1.389 . S
C5227 H5206 0.950 . S
C5227 C5226 1.373 . S
C5227 C5243 1.377 . S
C5228 C5226 1.389 . S
C5228 C5229 1.524 . S
C5228 C5242 1.377 . S
C5229 C5228 1.524 . S
C5229 C5230 1.397 . S
C5229 C5234 1.363 . S
C5230 H5207 0.950 . S
C5230 C5229 1.397 . S
C5230 C5231 1.334 . S
C5231 H5208 0.950 . S
C5231 C5230 1.334 . S
C5231 C5232 1.287 . S
C5232 C5231 1.287 . S
C5232 C5233 1.524 . S
C5232 H5251 0.913 . S
C5233 H5209 0.950 . S
C5233 C5232 1.524 . S
C5233 C5234 1.415 . S
C5234 H5210 0.950 . S
C5234 C5229 1.363 . S
C5234 C5233 1.415 . S
C5235 H5211 0.951 . S
C5235 C5236 1.366 . S
C5235 C5237 1.388 . S
C5236 C5235 1.366 . S
C5236 C5240 1.385 . S
C5237 H5212 0.951 . S
C5237 C5235 1.388 . S
C5237 C5238 1.366 . S
C5238 C5237 1.366 . S
C5238 C5239 1.414 . S
C5238 C5241 1.499 . S
C5239 H5213 0.950 . S
C5239 C5238 1.414 . S
C5239 C5240 1.374 . S
C5240 H5214 0.950 . S
C5240 C5236 1.385 . S
C5240 C5239 1.374 . S
C5241 C5238 1.499 . S
C5241 C5242 1.373 . S
C5241 C5243 1.389 . S
C5242 H5215 0.950 . S
C5242 C5228 1.377 . S
C5242 C5241 1.373 . S
C5243 C5227 1.377 . S
C5243 C5241 1.389 . S
C5243 C5244 1.524 . S
C5244 C5243 1.524 . S
C5244 C5245 1.397 . S
C5244 C5249 1.363 . S
C5245 H5216 0.950 . S
C5245 C5244 1.397 . S
C5245 C5246 1.334 . S
C5246 H5217 0.950 . S
C5246 C5245 1.334 . S
C5246 C5247 1.287 . S
C5247 C5246 1.287 . S
C5247 C5248 1.524 . S
C5247 H5250 0.999 . S
C5248 H5218 0.950 . S
C5248 C5247 1.524 . S
C5248 C5249 1.415 . S
C5249 H5219 0.950 . S
C5249 C5244 1.363 . S
C5249 C5248 1.415 . S
H5250 C5247 0.999 . S
H5251 C5232 0.913 . S
H5252 C5270 0.951 . S
H5253 C5272 0.951 . S
H5254 C5274 0.950 . S
H5255 C5275 0.950 . S
H5256 C5277 0.950 . S
H5257 C5280 0.950 . S
H5258 C5281 0.950 . S
H5259 C5283 0.950 . S
H5260 C5284 0.950 . S
H5261 C5285 0.951 . S
H5262 C5287 0.951 . S
H5263 C5289 0.950 . S
H5264 C5290 0.967 . S
H5265 C5292 0.950 . S
H5266 C5295 0.950 . S
H5267 C5296 0.950 . S
H5268 C5298 0.950 . S
H5269 C5299 0.946 1_554 S
C5270 H5252 0.951 . S
C5270 C5271 1.366 . S
C5270 C5272 1.388 . S
C5271 C5270 1.366 . S
C5271 C5275 1.385 . S
C5272 H5253 0.951 . S
C5272 C5270 1.388 . S
C5272 C5273 1.366 . S
C5273 C5272 1.366 . S
C5273 C5274 1.414 . S
C5273 C5276 1.499 . S
C5274 H5254 0.950 . S
C5274 C5273 1.414 . S
C5274 C5275 1.374 . S
C5275 H5255 0.950 . S
C5275 C5271 1.385 . S
C5275 C5274 1.374 . S
C5276 C5273 1.499 . S
C5276 C5277 1.373 . S
C5276 C5278 1.389 . S
C5277 H5256 0.950 . S
C5277 C5276 1.373 . S
C5277 C5293 1.377 . S
C5278 C5276 1.389 . S
C5278 C5279 1.524 . S
C5278 C5292 1.377 . S
C5279 C5278 1.524 . S
C5279 C5280 1.397 . S
C5279 C5284 1.363 . S
C5280 H5257 0.950 . S
C5280 C5279 1.397 . S
C5280 C5281 1.334 . S
C5281 H5258 0.950 . S
C5281 C5280 1.334 . S
C5281 C5282 1.287 . S
C5282 C5281 1.287 . S
C5282 C5283 1.524 . S
C5282 H5301 0.913 . S
C5283 H5259 0.950 . S
C5283 C5282 1.524 . S
C5283 C5284 1.415 . S
C5284 H5260 0.950 . S
C5284 C5279 1.363 . S
C5284 C5283 1.415 . S
C5285 H5261 0.951 . S
C5285 C5286 1.366 . S
C5285 C5287 1.388 . S
C5286 C5285 1.366 . S
C5286 C5290 1.356 1_554 S
C5287 H5262 0.951 . S
C5287 C5285 1.388 . S
C5287 C5288 1.366 1_554 S
C5288 C5287 1.366 1_556 S
C5288 C5289 1.414 . S
C5288 C5291 1.499 . S
C5289 H5263 0.950 . S
C5289 C5288 1.414 . S
C5289 C5290 1.387 . S
C5290 H5264 0.967 . S
C5290 C5286 1.356 1_556 S
C5290 C5289 1.387 . S
C5291 C5288 1.499 . S
C5291 C5292 1.373 . S
C5291 C5293 1.389 . S
C5292 H5265 0.950 . S
C5292 C5278 1.377 . S
C5292 C5291 1.373 . S
C5293 C5277 1.377 . S
C5293 C5291 1.389 . S
C5293 C5294 1.524 1_455 S
C5294 C5293 1.524 1_655 S
C5294 C5295 1.397 . S
C5294 C5299 1.372 . S
C5295 H5266 0.950 . S
C5295 C5294 1.397 . S
C5295 C5296 1.334 . S
C5296 H5267 0.950 . S
C5296 C5295 1.334 . S
C5296 C5297 1.287 . S
C5297 C5296 1.287 . S
C5297 C5298 1.524 1_556 S
C5297 H5300 0.999 . S
C5298 H5268 0.950 . S
C5298 C5297 1.524 1_554 S
C5298 C5299 1.411 1_554 S
C5299 H5269 0.946 1_556 S
C5299 C5294 1.372 . S
C5299 C5298 1.411 1_556 S
H5300 C5297 0.999 . S
H5301 C5282 0.913 . S
H5302 C5320 0.951 . S
H5303 C5322 0.951 . S
H5304 C5324 0.950 . S
H5305 C5325 0.950 . S
H5306 C5327 0.950 . S
H5307 C5330 0.950 . S
H5308 C5331 0.950 . S
H5309 C5333 0.950 . S
H5310 C5334 0.950 . S
H5311 C5335 0.951 . S
H5312 C5337 0.951 . S
H5313 C5339 0.950 . S
H5314 C5340 0.950 . S
H5315 C5342 0.950 . S
H5316 C5345 0.950 . S
H5317 C5346 0.950 . S
H5318 C5348 0.950 . S
H5319 C5349 0.950 . S
C5320 H5302 0.951 . S
C5320 C5321 1.366 . S
C5320 C5322 1.388 . S
C5321 C5320 1.366 . S
C5321 C5325 1.385 . S
C5322 H5303 0.951 . S
C5322 C5320 1.388 . S
C5322 C5323 1.366 . S
C5323 C5322 1.366 . S
C5323 C5324 1.414 . S
C5323 C5326 1.499 . S
C5324 H5304 0.950 . S
C5324 C5323 1.414 . S
C5324 C5325 1.374 . S
C5325 H5305 0.950 . S
C5325 C5321 1.385 . S
C5325 C5324 1.374 . S
C5326 C5323 1.499 . S
C5326 C5327 1.373 . S
C5326 C5328 1.389 . S
C5327 H5306 0.950 . S
C5327 C5326 1.373 . S
C5327 C5343 1.377 . S
C5328 C5326 1.389 . S
C5328 C5329 1.524 . S
C5328 C5342 1.377 . S
C5329 C5328 1.524 . S
C5329 C5330 1.397 . S
C5329 C5334 1.363 . S
C5330 H5307 0.950 . S
C5330 C5329 1.397 . S
C5330 C5331 1.334 . S
C5331 H5308 0.950 . S
C5331 C5330 1.334 . S
C5331 C5332 1.287 . S
C5332 C5331 1.287 . S
C5332 C5333 1.524 . S
C5332 H5351 0.913 . S
C5333 H5309 0.950 . S
C5333 C5332 1.524 . S
C5333 C5334 1.415 . S
C5334 H5310 0.950 . S
C5334 C5329 1.363 . S
C5334 C5333 1.415 . S
C5335 H5311 0.951 . S
C5335 C5336 1.366 . S
C5335 C5337 1.388 . S
C5336 C5335 1.366 . S
C5336 C5340 1.385 . S
C5337 H5312 0.951 . S
C5337 C5335 1.388 . S
C5337 C5338 1.366 . S
C5338 C5337 1.366 . S
C5338 C5339 1.414 . S
C5338 C5341 1.499 . S
C5339 H5313 0.950 . S
C5339 C5338 1.414 . S
C5339 C5340 1.374 . S
C5340 H5314 0.950 . S
C5340 C5336 1.385 . S
C5340 C5339 1.374 . S
C5341 C5338 1.499 . S
C5341 C5342 1.373 . S
C5341 C5343 1.389 . S
C5342 H5315 0.950 . S
C5342 C5328 1.377 . S
C5342 C5341 1.373 . S
C5343 C5327 1.377 . S
C5343 C5341 1.389 . S
C5343 C5344 1.524 . S
C5344 C5343 1.524 . S
C5344 C5345 1.397 . S
C5344 C5349 1.363 . S
C5345 H5316 0.950 . S
C5345 C5344 1.397 . S
C5345 C5346 1.334 . S
C5346 H5317 0.950 . S
C5346 C5345 1.334 . S
C5346 C5347 1.287 . S
C5347 C5346 1.287 . S
C5347 C5348 1.524 . S
C5347 H5350 0.999 . S
C5348 H5318 0.950 . S
C5348 C5347 1.524 . S
C5348 C5349 1.415 . S
C5349 H5319 0.950 . S
C5349 C5344 1.363 . S
C5349 C5348 1.415 . S
H5350 C5347 0.999 . S
H5351 C5332 0.913 . S
H5352 C5370 0.951 . S
H5353 C5372 0.951 . S
H5354 C5374 0.950 . S
H5355 C5375 0.950 . S
H5356 C5377 0.950 . S
H5357 C5380 0.950 . S
H5358 C5381 0.950 . S
H5359 C5383 0.950 . S
H5360 C5384 0.950 . S
H5361 C5385 0.951 . S
H5362 C5387 0.951 . S
H5363 C5389 0.950 . S
H5364 C5390 0.950 . S
H5365 C5392 0.950 . S
H5366 C5395 0.950 . S
H5367 C5396 0.950 . S
H5368 C5398 0.950 . S
H5369 C5399 0.950 . S
C5370 H5352 0.951 . S
C5370 C5371 1.366 . S
C5370 C5372 1.388 . S
C5371 C5370 1.366 . S
C5371 C5375 1.385 . S
C5372 H5353 0.951 . S
C5372 C5370 1.388 . S
C5372 C5373 1.366 . S
C5373 C5372 1.366 . S
C5373 C5374 1.414 . S
C5373 C5376 1.499 . S
C5374 H5354 0.950 . S
C5374 C5373 1.414 . S
C5374 C5375 1.374 . S
C5375 H5355 0.950 . S
C5375 C5371 1.385 . S
C5375 C5374 1.374 . S
C5376 C5373 1.499 . S
C5376 C5377 1.373 . S
C5376 C5378 1.389 . S
C5377 H5356 0.950 . S
C5377 C5376 1.373 . S
C5377 C5393 1.377 . S
C5378 C5376 1.389 . S
C5378 C5379 1.524 . S
C5378 C5392 1.377 . S
C5379 C5378 1.524 . S
C5379 C5380 1.397 . S
C5379 C5384 1.363 . S
C5380 H5357 0.950 . S
C5380 C5379 1.397 . S
C5380 C5381 1.334 . S
C5381 H5358 0.950 . S
C5381 C5380 1.334 . S
C5381 C5382 1.287 . S
C5382 C5381 1.287 . S
C5382 C5383 1.524 . S
C5382 H5401 0.913 . S
C5383 H5359 0.950 . S
C5383 C5382 1.524 . S
C5383 C5384 1.415 . S
C5384 H5360 0.950 . S
C5384 C5379 1.363 . S
C5384 C5383 1.415 . S
C5385 H5361 0.951 . S
C5385 C5386 1.366 . S
C5385 C5387 1.388 . S
C5386 C5385 1.366 . S
C5386 C5390 1.385 . S
C5387 H5362 0.951 . S
C5387 C5385 1.388 . S
C5387 C5388 1.366 . S
C5388 C5387 1.366 . S
C5388 C5389 1.414 . S
C5388 C5391 1.499 . S
C5389 H5363 0.950 . S
C5389 C5388 1.414 . S
C5389 C5390 1.374 . S
C5390 H5364 0.950 . S
C5390 C5386 1.385 . S
C5390 C5389 1.374 . S
C5391 C5388 1.499 . S
C5391 C5392 1.373 . S
C5391 C5393 1.389 . S
C5392 H5365 0.950 . S
C5392 C5378 1.377 . S
C5392 C5391 1.373 . S
C5393 C5377 1.377 . S
C5393 C5391 1.389 . S
C5393 C5394 1.524 . S
C5394 C5393 1.524 . S
C5394 C5395 1.397 . S
C5394 C5399 1.363 . S
C5395 H5366 0.950 . S
C5395 C5394 1.397 . S
C5395 C5396 1.334 . S
C5396 H5367 0.950 . S
C5396 C5395 1.334 . S
C5396 C5397 1.287 . S
C5397 C5396 1.287 . S
C5397 C5398 1.524 . S
C5397 H5400 0.999 . S
C5398 H5368 0.950 . S
C5398 C5397 1.524 . S
C5398 C5399 1.415 . S
C5399 H5369 0.950 . S
C5399 C5394 1.363 . S
C5399 C5398 1.415 . S
H5400 C5397 0.999 . S
H5401 C5382 0.913 . S
H5402 C5420 0.951 . S
H5403 C5422 0.951 . S
H5404 C5424 0.950 . S
H5405 C5425 0.950 . S
H5406 C5427 0.950 . S
H5407 C5430 0.950 . S
H5408 C5431 0.950 . S
H5409 C5433 0.950 . S
H5410 C5434 0.950 . S
H5411 C5435 0.951 . S
H5412 C5437 0.951 . S
H5413 C5439 0.950 . S
H5414 C5440 0.950 . S
H5415 C5442 0.950 . S
H5416 C5445 0.950 . S
H5417 C5446 0.950 . S
H5418 C5448 0.950 . S
H5419 C5449 0.950 . S
C5420 H5402 0.951 . S
C5420 C5421 1.366 . S
C5420 C5422 1.388 . S
C5421 C5420 1.366 . S
C5421 C5425 1.385 . S
C5422 H5403 0.951 . S
C5422 C5420 1.388 . S
C5422 C5423 1.366 . S
C5423 C5422 1.366 . S
C5423 C5424 1.414 . S
C5423 C5426 1.499 . S
C5424 H5404 0.950 . S
C5424 C5423 1.414 . S
C5424 C5425 1.374 . S
C5425 H5405 0.950 . S
C5425 C5421 1.385 . S
C5425 C5424 1.374 . S
C5426 C5423 1.499 . S
C5426 C5427 1.373 . S
C5426 C5428 1.389 . S
C5427 H5406 0.950 . S
C5427 C5426 1.373 . S
C5427 C5443 1.377 . S
C5428 C5426 1.389 . S
C5428 C5429 1.524 . S
C5428 C5442 1.377 . S
C5429 C5428 1.524 . S
C5429 C5430 1.397 . S
C5429 C5434 1.363 . S
C5430 H5407 0.950 . S
C5430 C5429 1.397 . S
C5430 C5431 1.334 . S
C5431 H5408 0.950 . S
C5431 C5430 1.334 . S
C5431 C5432 1.287 . S
C5432 C5431 1.287 . S
C5432 C5433 1.524 . S
C5432 H5451 0.913 . S
C5433 H5409 0.950 . S
C5433 C5432 1.524 . S
C5433 C5434 1.415 . S
C5434 H5410 0.950 . S
C5434 C5429 1.363 . S
C5434 C5433 1.415 . S
C5435 H5411 0.951 . S
C5435 C5436 1.366 . S
C5435 C5437 1.388 . S
C5436 C5435 1.366 . S
C5436 C5440 1.385 . S
C5437 H5412 0.951 . S
C5437 C5435 1.388 . S
C5437 C5438 1.366 . S
C5438 C5437 1.366 . S
C5438 C5439 1.414 . S
C5438 C5441 1.499 . S
C5439 H5413 0.950 . S
C5439 C5438 1.414 . S
C5439 C5440 1.374 . S
C5440 H5414 0.950 . S
C5440 C5436 1.385 . S
C5440 C5439 1.374 . S
C5441 C5438 1.499 . S
C5441 C5442 1.373 . S
C5441 C5443 1.389 . S
C5442 H5415 0.950 . S
C5442 C5428 1.377 . S
C5442 C5441 1.373 . S
C5443 C5427 1.377 . S
C5443 C5441 1.389 . S
C5443 C5444 1.524 . S
C5444 C5443 1.524 . S
C5444 C5445 1.397 . S
C5444 C5449 1.363 . S
C5445 H5416 0.950 . S
C5445 C5444 1.397 . S
C5445 C5446 1.334 . S
C5446 H5417 0.950 . S
C5446 C5445 1.334 . S
C5446 C5447 1.287 . S
C5447 C5446 1.287 . S
C5447 C5448 1.524 . S
C5447 H5450 0.999 . S
C5448 H5418 0.950 . S
C5448 C5447 1.524 . S
C5448 C5449 1.415 . S
C5449 H5419 0.950 . S
C5449 C5444 1.363 . S
C5449 C5448 1.415 . S
H5450 C5447 0.999 . S
H5451 C5432 0.913 . S
H5452 C5470 0.951 1_455 S
H5453 C5472 0.989 . S
H5454 C5474 0.950 . S
H5455 C5475 0.950 . S
H5456 C5477 0.950 . S
H5457 C5480 0.950 . S
H5458 C5481 0.950 . S
H5459 C5483 0.950 . S
H5460 C5484 0.950 . S
H5461 C5485 0.941 1_655 S
H5462 C5487 0.951 . S
H5463 C5489 0.950 . S
H5464 C5490 0.950 . S
H5465 C5492 0.950 . S
H5466 C5495 0.950 . S
H5467 C5496 0.950 . S
H5468 C5498 0.950 . S
H5469 C5499 0.950 . S
C5470 H5452 0.951 1_655 S
C5470 C5471 1.366 . S
C5470 C5472 1.365 1_655 S
C5471 C5470 1.366 . S
C5471 C5475 1.385 . S
C5472 H5453 0.989 . S
C5472 C5470 1.365 1_455 S
C5472 C5473 1.354 1_455 S
C5473 C5472 1.354 1_655 S
C5473 C5474 1.414 . S
C5473 C5476 1.499 . S
C5474 H5454 0.950 . S
C5474 C5473 1.414 . S
C5474 C5475 1.374 . S
C5475 H5455 0.950 . S
C5475 C5471 1.385 . S
C5475 C5474 1.374 . S
C5476 C5473 1.499 . S
C5476 C5477 1.373 . S
C5476 C5478 1.389 1_655 S
C5477 H5456 0.950 . S
C5477 C5476 1.373 . S
C5477 C5493 1.377 . S
C5478 C5476 1.389 1_455 S
C5478 C5479 1.524 . S
C5478 C5492 1.377 . S
C5479 C5478 1.524 . S
C5479 C5480 1.397 . S
C5479 C5484 1.363 . S
C5480 H5457 0.950 . S
C5480 C5479 1.397 . S
C5480 C5481 1.334 . S
C5481 H5458 0.950 . S
C5481 C5480 1.334 . S
C5481 C5482 1.287 . S
C5482 C5481 1.287 . S
C5482 C5483 1.524 . S
C5482 H5501 0.913 . S
C5483 H5459 0.950 . S
C5483 C5482 1.524 . S
C5483 C5484 1.415 . S
C5484 H5460 0.950 . S
C5484 C5479 1.363 . S
C5484 C5483 1.415 . S
C5485 H5461 0.941 1_455 S
C5485 C5486 1.397 . S
C5485 C5487 1.369 1_455 S
C5486 C5485 1.397 . S
C5486 C5490 1.385 . S
C5487 H5462 0.951 . S
C5487 C5485 1.369 1_655 S
C5487 C5488 1.366 1_655 S
C5488 C5487 1.366 1_455 S
C5488 C5489 1.414 . S
C5488 C5491 1.499 . S
C5489 H5463 0.950 . S
C5489 C5488 1.414 . S
C5489 C5490 1.374 . S
C5490 H5464 0.950 . S
C5490 C5486 1.385 . S
C5490 C5489 1.374 . S
C5491 C5488 1.499 . S
C5491 C5492 1.373 . S
C5491 C5493 1.389 1_455 S
C5492 H5465 0.950 . S
C5492 C5478 1.377 . S
C5492 C5491 1.373 . S
C5493 C5477 1.377 . S
C5493 C5491 1.389 1_655 S
C5493 C5494 1.524 . S
C5494 C5493 1.524 . S
C5494 C5495 1.397 . S
C5494 C5499 1.363 . S
C5495 H5466 0.950 . S
C5495 C5494 1.397 . S
C5495 C5496 1.334 . S
C5496 H5467 0.950 . S
C5496 C5495 1.334 . S
C5496 C5497 1.287 . S
C5497 C5496 1.287 . S
C5497 C5498 1.524 . S
C5497 H5500 0.999 . S
C5498 H5468 0.950 . S
C5498 C5497 1.524 . S
C5498 C5499 1.415 . S
C5499 H5469 0.950 . S
C5499 C5494 1.363 . S
C5499 C5498 1.415 . S
H5500 C5497 0.999 . S
H5501 C5482 0.913 . S
H5502 C5520 0.951 . S
H5503 C5522 0.951 . S
H5504 C5524 0.950 . S
H5505 C5525 0.950 . S
H5506 C5527 0.950 . S
H5507 C5530 0.950 . S
H5508 C5531 0.950 . S
H5509 C5533 0.950 . S
H5510 C5534 0.950 . S
H5511 C5535 0.951 . S
H5512 C5537 0.951 . S
H5513 C5539 0.950 . S
H5514 C5540 0.950 . S
H5515 C5542 0.950 . S
H5516 C5545 0.950 . S
H5517 C5546 0.950 . S
H5518 C5548 0.950 . S
H5519 C5549 0.950 . S
C5520 H5502 0.951 . S
C5520 C5521 1.366 . S
C5520 C5522 1.388 . S
C5521 C5520 1.366 . S
C5521 C5525 1.385 . S
C5522 H5503 0.951 . S
C5522 C5520 1.388 . S
C5522 C5523 1.366 . S
C5523 C5522 1.366 . S
C5523 C5524 1.414 . S
C5523 C5526 1.499 . S
C5524 H5504 0.950 . S
C5524 C5523 1.414 . S
C5524 C5525 1.374 . S
C5525 H5505 0.950 . S
C5525 C5521 1.385 . S
C5525 C5524 1.374 . S
C5526 C5523 1.499 . S
C5526 C5527 1.373 . S
C5526 C5528 1.389 . S
C5527 H5506 0.950 . S
C5527 C5526 1.373 . S
C5527 C5543 1.377 . S
C5528 C5526 1.389 . S
C5528 C5529 1.524 . S
C5528 C5542 1.377 . S
C5529 C5528 1.524 . S
C5529 C5530 1.397 . S
C5529 C5534 1.363 . S
C5530 H5507 0.950 . S
C5530 C5529 1.397 . S
C5530 C5531 1.334 . S
C5531 H5508 0.950 . S
C5531 C5530 1.334 . S
C5531 C5532 1.287 . S
C5532 C5531 1.287 . S
C5532 C5533 1.524 . S
C5532 H5551 0.913 . S
C5533 H5509 0.950 . S
C5533 C5532 1.524 . S
C5533 C5534 1.415 . S
C5534 H5510 0.950 . S
C5534 C5529 1.363 . S
C5534 C5533 1.415 . S
C5535 H5511 0.951 . S
C5535 C5536 1.366 . S
C5535 C5537 1.388 . S
C5536 C5535 1.366 . S
C5536 C5540 1.385 . S
C5537 H5512 0.951 . S
C5537 C5535 1.388 . S
C5537 C5538 1.366 . S
C5538 C5537 1.366 . S
C5538 C5539 1.414 . S
C5538 C5541 1.499 . S
C5539 H5513 0.950 . S
C5539 C5538 1.414 . S
C5539 C5540 1.374 . S
C5540 H5514 0.950 . S
C5540 C5536 1.385 . S
C5540 C5539 1.374 . S
C5541 C5538 1.499 . S
C5541 C5542 1.373 . S
C5541 C5543 1.389 . S
C5542 H5515 0.950 . S
C5542 C5528 1.377 . S
C5542 C5541 1.373 . S
C5543 C5527 1.377 . S
C5543 C5541 1.389 . S
C5543 C5544 1.524 . S
C5544 C5543 1.524 . S
C5544 C5545 1.397 . S
C5544 C5549 1.363 . S
C5545 H5516 0.950 . S
C5545 C5544 1.397 . S
C5545 C5546 1.334 . S
C5546 H5517 0.950 . S
C5546 C5545 1.334 . S
C5546 C5547 1.287 . S
C5547 C5546 1.287 . S
C5547 C5548 1.524 . S
C5547 H5550 0.999 . S
C5548 H5518 0.950 . S
C5548 C5547 1.524 . S
C5548 C5549 1.415 . S
C5549 H5519 0.950 . S
C5549 C5544 1.363 . S
C5549 C5548 1.415 . S
H5550 C5547 0.999 . S
H5551 C5532 0.913 . S
H5552 C5570 0.951 . S
H5553 C5572 0.951 . S
H5554 C5574 0.950 . S
H5555 C5575 0.950 . S
H5556 C5577 0.950 . S
H5557 C5580 0.950 . S
H5558 C5581 0.950 . S
H5559 C5583 0.950 . S
H5560 C5584 0.950 . S
H5561 C5585 0.951 . S
H5562 C5587 0.951 . S
H5563 C5589 0.950 . S
H5564 C5590 0.950 . S
H5565 C5592 0.950 . S
H5566 C5595 0.950 . S
H5567 C5596 0.950 . S
H5568 C5598 0.950 . S
H5569 C5599 0.950 . S
C5570 H5552 0.951 . S
C5570 C5571 1.366 . S
C5570 C5572 1.388 . S
C5571 C5570 1.366 . S
C5571 C5575 1.385 . S
C5572 H5553 0.951 . S
C5572 C5570 1.388 . S
C5572 C5573 1.366 . S
C5573 C5572 1.366 . S
C5573 C5574 1.414 . S
C5573 C5576 1.499 . S
C5574 H5554 0.950 . S
C5574 C5573 1.414 . S
C5574 C5575 1.374 . S
C5575 H5555 0.950 . S
C5575 C5571 1.385 . S
C5575 C5574 1.374 . S
C5576 C5573 1.499 . S
C5576 C5577 1.373 . S
C5576 C5578 1.389 . S
C5577 H5556 0.950 . S
C5577 C5576 1.373 . S
C5577 C5593 1.377 . S
C5578 C5576 1.389 . S
C5578 C5579 1.524 . S
C5578 C5592 1.377 . S
C5579 C5578 1.524 . S
C5579 C5580 1.397 . S
C5579 C5584 1.363 . S
C5580 H5557 0.950 . S
C5580 C5579 1.397 . S
C5580 C5581 1.334 . S
C5581 H5558 0.950 . S
C5581 C5580 1.334 . S
C5581 C5582 1.287 . S
C5582 C5581 1.287 . S
C5582 C5583 1.524 . S
C5582 H5601 0.913 . S
C5583 H5559 0.950 . S
C5583 C5582 1.524 . S
C5583 C5584 1.415 . S
C5584 H5560 0.950 . S
C5584 C5579 1.363 . S
C5584 C5583 1.415 . S
C5585 H5561 0.951 . S
C5585 C5586 1.366 . S
C5585 C5587 1.388 . S
C5586 C5585 1.366 . S
C5586 C5590 1.385 . S
C5587 H5562 0.951 . S
C5587 C5585 1.388 . S
C5587 C5588 1.366 . S
C5588 C5587 1.366 . S
C5588 C5589 1.414 . S
C5588 C5591 1.499 . S
C5589 H5563 0.950 . S
C5589 C5588 1.414 . S
C5589 C5590 1.374 . S
C5590 H5564 0.950 . S
C5590 C5586 1.385 . S
C5590 C5589 1.374 . S
C5591 C5588 1.499 . S
C5591 C5592 1.373 . S
C5591 C5593 1.389 . S
C5592 H5565 0.950 . S
C5592 C5578 1.377 . S
C5592 C5591 1.373 . S
C5593 C5577 1.377 . S
C5593 C5591 1.389 . S
C5593 C5594 1.524 . S
C5594 C5593 1.524 . S
C5594 C5595 1.397 . S
C5594 C5599 1.363 . S
C5595 H5566 0.950 . S
C5595 C5594 1.397 . S
C5595 C5596 1.334 . S
C5596 H5567 0.950 . S
C5596 C5595 1.334 . S
C5596 C5597 1.287 . S
C5597 C5596 1.287 . S
C5597 C5598 1.524 . S
C5597 H5600 0.999 . S
C5598 H5568 0.950 . S
C5598 C5597 1.524 . S
C5598 C5599 1.415 . S
C5599 H5569 0.950 . S
C5599 C5594 1.363 . S
C5599 C5598 1.415 . S
H5600 C5597 0.999 . S
H5601 C5582 0.913 . S
H5602 C5620 0.951 . S
H5603 C5622 0.951 . S
H5604 C5624 0.950 . S
H5605 C5625 0.950 . S
H5606 C5627 0.950 . S
H5607 C5630 0.950 . S
H5608 C5631 0.950 . S
H5609 C5633 0.950 . S
H5610 C5634 0.950 . S
H5611 C5635 0.951 . S
H5612 C5637 0.951 . S
H5613 C5639 0.950 . S
H5614 C5640 0.950 . S
H5615 C5642 0.950 . S
H5616 C5645 0.950 . S
H5617 C5646 0.950 . S
H5618 C5648 0.950 . S
H5619 C5649 0.950 . S
C5620 H5602 0.951 . S
C5620 C5621 1.366 . S
C5620 C5622 1.388 . S
C5621 C5620 1.366 . S
C5621 C5625 1.385 . S
C5622 H5603 0.951 . S
C5622 C5620 1.388 . S
C5622 C5623 1.366 . S
C5623 C5622 1.366 . S
C5623 C5624 1.414 . S
C5623 C5626 1.499 . S
C5624 H5604 0.950 . S
C5624 C5623 1.414 . S
C5624 C5625 1.374 . S
C5625 H5605 0.950 . S
C5625 C5621 1.385 . S
C5625 C5624 1.374 . S
C5626 C5623 1.499 . S
C5626 C5627 1.373 . S
C5626 C5628 1.389 . S
C5627 H5606 0.950 . S
C5627 C5626 1.373 . S
C5627 C5643 1.377 . S
C5628 C5626 1.389 . S
C5628 C5629 1.524 . S
C5628 C5642 1.377 . S
C5629 C5628 1.524 . S
C5629 C5630 1.397 . S
C5629 C5634 1.363 . S
C5630 H5607 0.950 . S
C5630 C5629 1.397 . S
C5630 C5631 1.334 . S
C5631 H5608 0.950 . S
C5631 C5630 1.334 . S
C5631 C5632 1.287 . S
C5632 C5631 1.287 . S
C5632 C5633 1.524 . S
C5632 H5651 0.913 . S
C5633 H5609 0.950 . S
C5633 C5632 1.524 . S
C5633 C5634 1.415 . S
C5634 H5610 0.950 . S
C5634 C5629 1.363 . S
C5634 C5633 1.415 . S
C5635 H5611 0.951 . S
C5635 C5636 1.366 . S
C5635 C5637 1.388 . S
C5636 C5635 1.366 . S
C5636 C5640 1.385 . S
C5637 H5612 0.951 . S
C5637 C5635 1.388 . S
C5637 C5638 1.366 . S
C5638 C5637 1.366 . S
C5638 C5639 1.414 . S
C5638 C5641 1.499 . S
C5639 H5613 0.950 . S
C5639 C5638 1.414 . S
C5639 C5640 1.374 . S
C5640 H5614 0.950 . S
C5640 C5636 1.385 . S
C5640 C5639 1.374 . S
C5641 C5638 1.499 . S
C5641 C5642 1.373 . S
C5641 C5643 1.389 . S
C5642 H5615 0.950 . S
C5642 C5628 1.377 . S
C5642 C5641 1.373 . S
C5643 C5627 1.377 . S
C5643 C5641 1.389 . S
C5643 C5644 1.524 . S
C5644 C5643 1.524 . S
C5644 C5645 1.397 . S
C5644 C5649 1.363 . S
C5645 H5616 0.950 . S
C5645 C5644 1.397 . S
C5645 C5646 1.334 . S
C5646 H5617 0.950 . S
C5646 C5645 1.334 . S
C5646 C5647 1.287 . S
C5647 C5646 1.287 . S
C5647 C5648 1.524 . S
C5647 H5650 0.999 . S
C5648 H5618 0.950 . S
C5648 C5647 1.524 . S
C5648 C5649 1.415 . S
C5649 H5619 0.950 . S
C5649 C5644 1.363 . S
C5649 C5648 1.415 . S
H5650 C5647 0.999 . S
H5651 C5632 0.913 . S
H5652 C5670 0.951 . S
H5653 C5672 0.951 . S
H5654 C5674 0.950 . S
H5655 C5675 0.950 . S
H5656 C5677 0.950 . S
H5657 C5680 0.950 . S
H5658 C5681 0.950 . S
H5659 C5683 0.950 . S
H5660 C5684 0.950 . S
H5661 C5685 0.951 . S
H5662 C5687 0.951 . S
H5663 C5689 0.950 . S
H5664 C5690 0.950 . S
H5665 C5692 0.950 . S
H5666 C5695 0.950 . S
H5667 C5696 0.950 . S
H5668 C5698 0.950 . S
H5669 C5699 0.950 . S
C5670 H5652 0.951 . S
C5670 C5671 1.366 . S
C5670 C5672 1.388 . S
C5671 C5670 1.366 . S
C5671 C5675 1.385 . S
C5672 H5653 0.951 . S
C5672 C5670 1.388 . S
C5672 C5673 1.366 . S
C5673 C5672 1.366 . S
C5673 C5674 1.414 . S
C5673 C5676 1.499 . S
C5674 H5654 0.950 . S
C5674 C5673 1.414 . S
C5674 C5675 1.374 . S
C5675 H5655 0.950 . S
C5675 C5671 1.385 . S
C5675 C5674 1.374 . S
C5676 C5673 1.499 . S
C5676 C5677 1.373 . S
C5676 C5678 1.389 . S
C5677 H5656 0.950 . S
C5677 C5676 1.373 . S
C5677 C5693 1.377 . S
C5678 C5676 1.389 . S
C5678 C5679 1.524 . S
C5678 C5692 1.377 . S
C5679 C5678 1.524 . S
C5679 C5680 1.397 . S
C5679 C5684 1.363 . S
C5680 H5657 0.950 . S
C5680 C5679 1.397 . S
C5680 C5681 1.334 . S
C5681 H5658 0.950 . S
C5681 C5680 1.334 . S
C5681 C5682 1.287 . S
C5682 C5681 1.287 . S
C5682 C5683 1.524 . S
C5682 H5701 0.913 . S
C5683 H5659 0.950 . S
C5683 C5682 1.524 . S
C5683 C5684 1.415 . S
C5684 H5660 0.950 . S
C5684 C5679 1.363 . S
C5684 C5683 1.415 . S
C5685 H5661 0.951 . S
C5685 C5686 1.366 . S
C5685 C5687 1.388 . S
C5686 C5685 1.366 . S
C5686 C5690 1.385 . S
C5687 H5662 0.951 . S
C5687 C5685 1.388 . S
C5687 C5688 1.366 . S
C5688 C5687 1.366 . S
C5688 C5689 1.414 . S
C5688 C5691 1.499 . S
C5689 H5663 0.950 . S
C5689 C5688 1.414 . S
C5689 C5690 1.374 . S
C5690 H5664 0.950 . S
C5690 C5686 1.385 . S
C5690 C5689 1.374 . S
C5691 C5688 1.499 . S
C5691 C5692 1.373 . S
C5691 C5693 1.389 . S
C5692 H5665 0.950 . S
C5692 C5678 1.377 . S
C5692 C5691 1.373 . S
C5693 C5677 1.377 . S
C5693 C5691 1.389 . S
C5693 C5694 1.524 . S
C5694 C5693 1.524 . S
C5694 C5695 1.397 . S
C5694 C5699 1.363 . S
C5695 H5666 0.950 . S
C5695 C5694 1.397 . S
C5695 C5696 1.334 . S
C5696 H5667 0.950 . S
C5696 C5695 1.334 . S
C5696 C5697 1.287 1_455 S
C5697 C5696 1.287 1_655 S
C5697 C5698 1.524 . S
C5697 H5700 0.999 . S
C5698 H5668 0.950 . S
C5698 C5697 1.524 . S
C5698 C5699 1.415 1_655 S
C5699 H5669 0.950 . S
C5699 C5694 1.363 . S
C5699 C5698 1.415 1_455 S
H5700 C5697 0.999 . S
H5701 C5682 0.913 . S
H5702 C5720 0.951 . S
H5703 C5722 0.951 . S
H5704 C5724 0.950 . S
H5705 C5725 0.950 . S
H5706 C5727 0.950 . S
H5707 C5730 0.950 . S
H5708 C5731 0.950 . S
H5709 C5733 0.950 . S
H5710 C5734 0.950 . S
H5711 C5735 0.951 . S
H5712 C5737 0.951 . S
H5713 C5739 0.950 . S
H5714 C5740 0.950 . S
H5715 C5742 0.950 . S
H5716 C5745 0.950 . S
H5717 C5746 0.950 . S
H5718 C5748 0.950 . S
H5719 C5749 0.950 . S
C5720 H5702 0.951 . S
C5720 C5721 1.366 . S
C5720 C5722 1.388 . S
C5721 C5720 1.366 . S
C5721 C5725 1.385 . S
C5722 H5703 0.951 . S
C5722 C5720 1.388 . S
C5722 C5723 1.366 . S
C5723 C5722 1.366 . S
C5723 C5724 1.414 . S
C5723 C5726 1.499 . S
C5724 H5704 0.950 . S
C5724 C5723 1.414 . S
C5724 C5725 1.374 . S
C5725 H5705 0.950 . S
C5725 C5721 1.385 . S
C5725 C5724 1.374 . S
C5726 C5723 1.499 . S
C5726 C5727 1.373 . S
C5726 C5728 1.389 . S
C5727 H5706 0.950 . S
C5727 C5726 1.373 . S
C5727 C5743 1.377 . S
C5728 C5726 1.389 . S
C5728 C5729 1.524 . S
C5728 C5742 1.377 . S
C5729 C5728 1.524 . S
C5729 C5730 1.397 . S
C5729 C5734 1.363 . S
C5730 H5707 0.950 . S
C5730 C5729 1.397 . S
C5730 C5731 1.334 . S
C5731 H5708 0.950 . S
C5731 C5730 1.334 . S
C5731 C5732 1.287 . S
C5732 C5731 1.287 . S
C5732 C5733 1.524 . S
C5732 H5751 0.913 . S
C5733 H5709 0.950 . S
C5733 C5732 1.524 . S
C5733 C5734 1.415 . S
C5734 H5710 0.950 . S
C5734 C5729 1.363 . S
C5734 C5733 1.415 . S
C5735 H5711 0.951 . S
C5735 C5736 1.366 . S
C5735 C5737 1.388 . S
C5736 C5735 1.366 . S
C5736 C5740 1.385 . S
C5737 H5712 0.951 . S
C5737 C5735 1.388 . S
C5737 C5738 1.366 . S
C5738 C5737 1.366 . S
C5738 C5739 1.414 . S
C5738 C5741 1.499 . S
C5739 H5713 0.950 . S
C5739 C5738 1.414 . S
C5739 C5740 1.374 . S
C5740 H5714 0.950 . S
C5740 C5736 1.385 . S
C5740 C5739 1.374 . S
C5741 C5738 1.499 . S
C5741 C5742 1.373 . S
C5741 C5743 1.389 . S
C5742 H5715 0.950 . S
C5742 C5728 1.377 . S
C5742 C5741 1.373 . S
C5743 C5727 1.377 . S
C5743 C5741 1.389 . S
C5743 C5744 1.524 . S
C5744 C5743 1.524 . S
C5744 C5745 1.397 . S
C5744 C5749 1.363 . S
C5745 H5716 0.950 . S
C5745 C5744 1.397 . S
C5745 C5746 1.334 . S
C5746 H5717 0.950 . S
C5746 C5745 1.334 . S
C5746 C5747 1.287 . S
C5747 C5746 1.287 . S
C5747 C5748 1.524 . S
C5747 H5750 0.999 . S
C5748 H5718 0.950 . S
C5748 C5747 1.524 . S
C5748 C5749 1.415 . S
C5749 H5719 0.950 . S
C5749 C5744 1.363 . S
C5749 C5748 1.415 . S
H5750 C5747 0.999 . S
H5751 C5732 0.913 . S
H5752 C5770 0.951 . S
H5753 C5772 0.951 . S
H5754 C5774 0.950 . S
H5755 C5775 0.950 . S
H5756 C5777 0.950 . S
H5757 C5780 0.950 . S
H5758 C5781 0.950 . S
H5759 C5783 0.950 . S
H5760 C5784 0.950 . S
H5761 C5785 0.951 . S
H5762 C5787 0.951 . S
H5763 C5789 0.950 . S
H5764 C5790 0.950 . S
H5765 C5792 0.950 . S
H5766 C5795 0.950 . S
H5767 C5796 0.950 . S
H5768 C5798 0.950 . S
H5769 C5799 0.950 . S
C5770 H5752 0.951 . S
C5770 C5771 1.366 . S
C5770 C5772 1.388 . S
C5771 C5770 1.366 . S
C5771 C5775 1.385 . S
C5772 H5753 0.951 . S
C5772 C5770 1.388 . S
C5772 C5773 1.366 . S
C5773 C5772 1.366 . S
C5773 C5774 1.414 . S
C5773 C5776 1.499 . S
C5774 H5754 0.950 . S
C5774 C5773 1.414 . S
C5774 C5775 1.374 . S
C5775 H5755 0.950 . S
C5775 C5771 1.385 . S
C5775 C5774 1.374 . S
C5776 C5773 1.499 . S
C5776 C5777 1.373 . S
C5776 C5778 1.389 . S
C5777 H5756 0.950 . S
C5777 C5776 1.373 . S
C5777 C5793 1.377 . S
C5778 C5776 1.389 . S
C5778 C5779 1.524 . S
C5778 C5792 1.377 . S
C5779 C5778 1.524 . S
C5779 C5780 1.397 . S
C5779 C5784 1.363 . S
C5780 H5757 0.950 . S
C5780 C5779 1.397 . S
C5780 C5781 1.334 . S
C5781 H5758 0.950 . S
C5781 C5780 1.334 . S
C5781 C5782 1.287 . S
C5782 C5781 1.287 . S
C5782 C5783 1.524 . S
C5782 H5801 0.913 . S
C5783 H5759 0.950 . S
C5783 C5782 1.524 . S
C5783 C5784 1.415 . S
C5784 H5760 0.950 . S
C5784 C5779 1.363 . S
C5784 C5783 1.415 . S
C5785 H5761 0.951 . S
C5785 C5786 1.366 . S
C5785 C5787 1.388 . S
C5786 C5785 1.366 . S
C5786 C5790 1.385 . S
C5787 H5762 0.951 . S
C5787 C5785 1.388 . S
C5787 C5788 1.366 . S
C5788 C5787 1.366 . S
C5788 C5789 1.414 . S
C5788 C5791 1.499 . S
C5789 H5763 0.950 . S
C5789 C5788 1.414 . S
C5789 C5790 1.374 . S
C5790 H5764 0.950 . S
C5790 C5786 1.385 . S
C5790 C5789 1.374 . S
C5791 C5788 1.499 . S
C5791 C5792 1.373 . S
C5791 C5793 1.389 . S
C5792 H5765 0.950 . S
C5792 C5778 1.377 . S
C5792 C5791 1.373 . S
C5793 C5777 1.377 . S
C5793 C5791 1.389 . S
C5793 C5794 1.524 . S
C5794 C5793 1.524 . S
C5794 C5795 1.397 . S
C5794 C5799 1.363 . S
C5795 H5766 0.950 . S
C5795 C5794 1.397 . S
C5795 C5796 1.334 . S
C5796 H5767 0.950 . S
C5796 C5795 1.334 . S
C5796 C5797 1.287 . S
C5797 C5796 1.287 . S
C5797 C5798 1.524 . S
C5797 H5800 0.999 . S
C5798 H5768 0.950 . S
C5798 C5797 1.524 . S
C5798 C5799 1.415 . S
C5799 H5769 0.950 . S
C5799 C5794 1.363 . S
C5799 C5798 1.415 . S
H5800 C5797 0.999 . S
H5801 C5782 0.913 . S
H5802 C5820 0.951 . S
H5803 C5822 0.951 . S
H5804 C5824 0.950 . S
H5805 C5825 0.950 . S
H5806 C5827 0.950 . S
H5807 C5830 0.950 . S
H5808 C5831 0.950 . S
H5809 C5833 0.950 . S
H5810 C5834 0.950 . S
H5811 C5835 0.951 . S
H5812 C5837 0.951 . S
H5813 C5839 0.950 . S
H5814 C5840 0.950 . S
H5815 C5842 0.950 . S
H5816 C5845 0.950 . S
H5817 C5846 0.950 . S
H5818 C5848 0.950 . S
H5819 C5849 0.950 . S
C5820 H5802 0.951 . S
C5820 C5821 1.366 . S
C5820 C5822 1.388 . S
C5821 C5820 1.366 . S
C5821 C5825 1.385 . S
C5822 H5803 0.951 . S
C5822 C5820 1.388 . S
C5822 C5823 1.366 . S
C5823 C5822 1.366 . S
C5823 C5824 1.414 . S
C5823 C5826 1.499 . S
C5824 H5804 0.950 . S
C5824 C5823 1.414 . S
C5824 C5825 1.374 . S
C5825 H5805 0.950 . S
C5825 C5821 1.385 . S
C5825 C5824 1.374 . S
C5826 C5823 1.499 . S
C5826 C5827 1.373 . S
C5826 C5828 1.389 . S
C5827 H5806 0.950 . S
C5827 C5826 1.373 . S
C5827 C5843 1.377 . S
C5828 C5826 1.389 . S
C5828 C5829 1.524 . S
C5828 C5842 1.377 . S
C5829 C5828 1.524 . S
C5829 C5830 1.397 . S
C5829 C5834 1.363 . S
C5830 H5807 0.950 . S
C5830 C5829 1.397 . S
C5830 C5831 1.334 . S
C5831 H5808 0.950 . S
C5831 C5830 1.334 . S
C5831 C5832 1.287 . S
C5832 C5831 1.287 . S
C5832 C5833 1.524 . S
C5832 H5851 0.913 . S
C5833 H5809 0.950 . S
C5833 C5832 1.524 . S
C5833 C5834 1.415 . S
C5834 H5810 0.950 . S
C5834 C5829 1.363 . S
C5834 C5833 1.415 . S
C5835 H5811 0.951 . S
C5835 C5836 1.366 . S
C5835 C5837 1.388 . S
C5836 C5835 1.366 . S
C5836 C5840 1.385 . S
C5837 H5812 0.951 . S
C5837 C5835 1.388 . S
C5837 C5838 1.366 . S
C5838 C5837 1.366 . S
C5838 C5839 1.414 . S
C5838 C5841 1.499 . S
C5839 H5813 0.950 . S
C5839 C5838 1.414 . S
C5839 C5840 1.374 . S
C5840 H5814 0.950 . S
C5840 C5836 1.385 . S
C5840 C5839 1.374 . S
C5841 C5838 1.499 . S
C5841 C5842 1.373 . S
C5841 C5843 1.389 . S
C5842 H5815 0.950 . S
C5842 C5828 1.377 . S
C5842 C5841 1.373 . S
C5843 C5827 1.377 . S
C5843 C5841 1.389 . S
C5843 C5844 1.524 . S
C5844 C5843 1.524 . S
C5844 C5845 1.397 . S
C5844 C5849 1.363 . S
C5845 H5816 0.950 . S
C5845 C5844 1.397 . S
C5845 C5846 1.334 . S
C5846 H5817 0.950 . S
C5846 C5845 1.334 . S
C5846 C5847 1.287 . S
C5847 C5846 1.287 . S
C5847 C5848 1.524 . S
C5847 H5850 0.999 . S
C5848 H5818 0.950 . S
C5848 C5847 1.524 . S
C5848 C5849 1.415 . S
C5849 H5819 0.950 . S
C5849 C5844 1.363 . S
C5849 C5848 1.415 . S
H5850 C5847 0.999 . S
H5851 C5832 0.913 . S
H5852 C5870 0.951 . S
H5853 C5872 0.951 . S
H5854 C5874 0.950 . S
H5855 C5875 0.950 . S
H5856 C5877 0.950 . S
H5857 C5880 0.950 . S
H5858 C5881 0.950 . S
H5859 C5883 0.950 . S
H5860 C5884 0.950 . S
H5861 C5885 0.951 . S
H5862 C5887 0.951 . S
H5863 C5889 0.950 . S
H5864 C5890 0.950 . S
H5865 C5892 0.950 . S
H5866 C5895 0.950 . S
H5867 C5896 0.950 . S
H5868 C5898 0.950 . S
H5869 C5899 0.950 . S
C5870 H5852 0.951 . S
C5870 C5871 1.366 . S
C5870 C5872 1.388 . S
C5871 C5870 1.366 . S
C5871 C5875 1.385 . S
C5872 H5853 0.951 . S
C5872 C5870 1.388 . S
C5872 C5873 1.366 . S
C5873 C5872 1.366 . S
C5873 C5874 1.414 . S
C5873 C5876 1.499 . S
C5874 H5854 0.950 . S
C5874 C5873 1.414 . S
C5874 C5875 1.374 . S
C5875 H5855 0.950 . S
C5875 C5871 1.385 . S
C5875 C5874 1.374 . S
C5876 C5873 1.499 . S
C5876 C5877 1.373 . S
C5876 C5878 1.389 . S
C5877 H5856 0.950 . S
C5877 C5876 1.373 . S
C5877 C5893 1.377 . S
C5878 C5876 1.389 . S
C5878 C5879 1.524 . S
C5878 C5892 1.377 . S
C5879 C5878 1.524 . S
C5879 C5880 1.397 . S
C5879 C5884 1.363 . S
C5880 H5857 0.950 . S
C5880 C5879 1.397 . S
C5880 C5881 1.334 . S
C5881 H5858 0.950 . S
C5881 C5880 1.334 . S
C5881 C5882 1.287 . S
C5882 C5881 1.287 . S
C5882 C5883 1.524 . S
C5882 H5901 0.913 . S
C5883 H5859 0.950 . S
C5883 C5882 1.524 . S
C5883 C5884 1.415 . S
C5884 H5860 0.950 . S
C5884 C5879 1.363 . S
C5884 C5883 1.415 . S
C5885 H5861 0.951 . S
C5885 C5886 1.366 . S
C5885 C5887 1.388 . S
C5886 C5885 1.366 . S
C5886 C5890 1.385 . S
C5887 H5862 0.951 . S
C5887 C5885 1.388 . S
C5887 C5888 1.366 . S
C5888 C5887 1.366 . S
C5888 C5889 1.414 . S
C5888 C5891 1.499 . S
C5889 H5863 0.950 . S
C5889 C5888 1.414 . S
C5889 C5890 1.374 . S
C5890 H5864 0.950 . S
C5890 C5886 1.385 . S
C5890 C5889 1.374 . S
C5891 C5888 1.499 . S
C5891 C5892 1.373 . S
C5891 C5893 1.389 . S
C5892 H5865 0.950 . S
C5892 C5878 1.377 . S
C5892 C5891 1.373 . S
C5893 C5877 1.377 . S
C5893 C5891 1.389 . S
C5893 C5894 1.524 . S
C5894 C5893 1.524 . S
C5894 C5895 1.397 . S
C5894 C5899 1.363 . S
C5895 H5866 0.950 . S
C5895 C5894 1.397 . S
C5895 C5896 1.334 . S
C5896 H5867 0.950 . S
C5896 C5895 1.334 . S
C5896 C5897 1.287 1_455 S
C5897 C5896 1.287 1_655 S
C5897 C5898 1.524 . S
C5897 H5900 0.999 . S
C5898 H5868 0.950 . S
C5898 C5897 1.524 . S
C5898 C5899 1.415 1_655 S
C5899 H5869 0.950 . S
C5899 C5894 1.363 . S
C5899 C5898 1.415 1_455 S
H5900 C5897 0.999 . S
H5901 C5882 0.913 . S
H5902 C5920 0.951 . S
H5903 C5922 0.951 . S
H5904 C5924 0.950 . S
H5905 C5925 0.950 . S
H5906 C5927 0.950 . S
H5907 C5930 0.950 . S
H5908 C5931 0.950 . S
H5909 C5933 0.950 . S
H5910 C5934 0.950 . S
H5911 C5935 0.951 . S
H5912 C5937 0.951 . S
H5913 C5939 0.950 . S
H5914 C5940 0.950 . S
H5915 C5942 0.950 . S
H5916 C5945 0.950 . S
H5917 C5946 0.950 . S
H5918 C5948 0.950 . S
H5919 C5949 0.950 . S
C5920 H5902 0.951 . S
C5920 C5921 1.366 . S
C5920 C5922 1.388 . S
C5921 C5920 1.366 . S
C5921 C5925 1.385 . S
C5922 H5903 0.951 . S
C5922 C5920 1.388 . S
C5922 C5923 1.366 . S
C5923 C5922 1.366 . S
C5923 C5924 1.414 . S
C5923 C5926 1.499 . S
C5924 H5904 0.950 . S
C5924 C5923 1.414 . S
C5924 C5925 1.374 . S
C5925 H5905 0.950 . S
C5925 C5921 1.385 . S
C5925 C5924 1.374 . S
C5926 C5923 1.499 . S
C5926 C5927 1.373 . S
C5926 C5928 1.389 . S
C5927 H5906 0.950 . S
C5927 C5926 1.373 . S
C5927 C5943 1.377 . S
C5928 C5926 1.389 . S
C5928 C5929 1.524 . S
C5928 C5942 1.377 . S
C5929 C5928 1.524 . S
C5929 C5930 1.397 . S
C5929 C5934 1.363 . S
C5930 H5907 0.950 . S
C5930 C5929 1.397 . S
C5930 C5931 1.334 . S
C5931 H5908 0.950 . S
C5931 C5930 1.334 . S
C5931 C5932 1.287 . S
C5932 C5931 1.287 . S
C5932 C5933 1.524 . S
C5932 H5951 0.913 . S
C5933 H5909 0.950 . S
C5933 C5932 1.524 . S
C5933 C5934 1.415 . S
C5934 H5910 0.950 . S
C5934 C5929 1.363 . S
C5934 C5933 1.415 . S
C5935 H5911 0.951 . S
C5935 C5936 1.366 . S
C5935 C5937 1.388 . S
C5936 C5935 1.366 . S
C5936 C5940 1.385 . S
C5937 H5912 0.951 . S
C5937 C5935 1.388 . S
C5937 C5938 1.366 . S
C5938 C5937 1.366 . S
C5938 C5939 1.414 . S
C5938 C5941 1.499 . S
C5939 H5913 0.950 . S
C5939 C5938 1.414 . S
C5939 C5940 1.374 . S
C5940 H5914 0.950 . S
C5940 C5936 1.385 . S
C5940 C5939 1.374 . S
C5941 C5938 1.499 . S
C5941 C5942 1.373 . S
C5941 C5943 1.389 . S
C5942 H5915 0.950 . S
C5942 C5928 1.377 . S
C5942 C5941 1.373 . S
C5943 C5927 1.377 . S
C5943 C5941 1.389 . S
C5943 C5944 1.524 . S
C5944 C5943 1.524 . S
C5944 C5945 1.397 . S
C5944 C5949 1.363 . S
C5945 H5916 0.950 . S
C5945 C5944 1.397 . S
C5945 C5946 1.334 . S
C5946 H5917 0.950 . S
C5946 C5945 1.334 . S
C5946 C5947 1.287 . S
C5947 C5946 1.287 . S
C5947 C5948 1.524 . S
C5947 H5950 0.999 . S
C5948 H5918 0.950 . S
C5948 C5947 1.524 . S
C5948 C5949 1.415 . S
C5949 H5919 0.950 . S
C5949 C5944 1.363 . S
C5949 C5948 1.415 . S
H5950 C5947 0.999 . S
H5951 C5932 0.913 . S
H5952 C5970 0.951 . S
H5953 C5972 0.951 . S
H5954 C5974 0.950 . S
H5955 C5975 0.950 . S
H5956 C5977 0.950 . S
H5957 C5980 0.950 . S
H5958 C5981 0.950 . S
H5959 C5983 0.950 . S
H5960 C5984 0.950 . S
H5961 C5985 0.951 . S
H5962 C5987 0.951 . S
H5963 C5989 0.950 . S
H5964 C5990 0.950 . S
H5965 C5992 0.950 . S
H5966 C5995 0.950 . S
H5967 C5996 0.950 . S
H5968 C5998 0.950 . S
H5969 C5999 0.950 . S
C5970 H5952 0.951 . S
C5970 C5971 1.366 . S
C5970 C5972 1.388 . S
C5971 C5970 1.366 . S
C5971 C5975 1.385 . S
C5972 H5953 0.951 . S
C5972 C5970 1.388 . S
C5972 C5973 1.366 . S
C5973 C5972 1.366 . S
C5973 C5974 1.414 . S
C5973 C5976 1.499 . S
C5974 H5954 0.950 . S
C5974 C5973 1.414 . S
C5974 C5975 1.374 . S
C5975 H5955 0.950 . S
C5975 C5971 1.385 . S
C5975 C5974 1.374 . S
C5976 C5973 1.499 . S
C5976 C5977 1.373 . S
C5976 C5978 1.389 . S
C5977 H5956 0.950 . S
C5977 C5976 1.373 . S
C5977 C5993 1.377 . S
C5978 C5976 1.389 . S
C5978 C5979 1.524 . S
C5978 C5992 1.377 . S
C5979 C5978 1.524 . S
C5979 C5980 1.397 . S
C5979 C5984 1.363 . S
C5980 H5957 0.950 . S
C5980 C5979 1.397 . S
C5980 C5981 1.334 . S
C5981 H5958 0.950 . S
C5981 C5980 1.334 . S
C5981 C5982 1.287 . S
C5982 C5981 1.287 . S
C5982 C5983 1.524 . S
C5982 H6001 0.913 . S
C5983 H5959 0.950 . S
C5983 C5982 1.524 . S
C5983 C5984 1.415 . S
C5984 H5960 0.950 . S
C5984 C5979 1.363 . S
C5984 C5983 1.415 . S
C5985 H5961 0.951 . S
C5985 C5986 1.366 . S
C5985 C5987 1.388 . S
C5986 C5985 1.366 . S
C5986 C5990 1.385 . S
C5987 H5962 0.951 . S
C5987 C5985 1.388 . S
C5987 C5988 1.366 . S
C5988 C5987 1.366 . S
C5988 C5989 1.414 . S
C5988 C5991 1.499 . S
C5989 H5963 0.950 . S
C5989 C5988 1.414 . S
C5989 C5990 1.374 . S
C5990 H5964 0.950 . S
C5990 C5986 1.385 . S
C5990 C5989 1.374 . S
C5991 C5988 1.499 . S
C5991 C5992 1.373 . S
C5991 C5993 1.389 . S
C5992 H5965 0.950 . S
C5992 C5978 1.377 . S
C5992 C5991 1.373 . S
C5993 C5977 1.377 . S
C5993 C5991 1.389 . S
C5993 C5994 1.524 . S
C5994 C5993 1.524 . S
C5994 C5995 1.397 . S
C5994 C5999 1.363 . S
C5995 H5966 0.950 . S
C5995 C5994 1.397 . S
C5995 C5996 1.334 . S
C5996 H5967 0.950 . S
C5996 C5995 1.334 . S
C5996 C5997 1.287 . S
C5997 C5996 1.287 . S
C5997 C5998 1.524 . S
C5997 H6000 0.999 . S
C5998 H5968 0.950 . S
C5998 C5997 1.524 . S
C5998 C5999 1.415 . S
C5999 H5969 0.950 . S
C5999 C5994 1.363 . S
C5999 C5998 1.415 . S
H6000 C5997 0.999 . S
H6001 C5982 0.913 . S
H6002 C6020 0.951 . S
H6003 C6022 0.951 . S
H6004 C6024 0.950 . S
H6005 C6025 0.950 . S
H6006 C6027 0.950 . S
H6007 C6030 0.950 . S
H6008 C6031 0.950 . S
H6009 C6033 0.950 . S
H6010 C6034 0.950 . S
H6011 C6035 0.951 . S
H6012 C6037 0.951 . S
H6013 C6039 0.950 . S
H6014 C6040 0.950 . S
H6015 C6042 0.950 . S
H6016 C6045 0.950 . S
H6017 C6046 0.950 . S
H6018 C6048 0.950 . S
H6019 C6049 0.950 . S
C6020 H6002 0.951 . S
C6020 C6021 1.366 . S
C6020 C6022 1.388 . S
C6021 C6020 1.366 . S
C6021 C6025 1.385 . S
C6022 H6003 0.951 . S
C6022 C6020 1.388 . S
C6022 C6023 1.366 . S
C6023 C6022 1.366 . S
C6023 C6024 1.414 . S
C6023 C6026 1.499 . S
C6024 H6004 0.950 . S
C6024 C6023 1.414 . S
C6024 C6025 1.374 . S
C6025 H6005 0.950 . S
C6025 C6021 1.385 . S
C6025 C6024 1.374 . S
C6026 C6023 1.499 . S
C6026 C6027 1.373 . S
C6026 C6028 1.389 . S
C6027 H6006 0.950 . S
C6027 C6026 1.373 . S
C6027 C6043 1.377 . S
C6028 C6026 1.389 . S
C6028 C6029 1.524 . S
C6028 C6042 1.377 . S
C6029 C6028 1.524 . S
C6029 C6030 1.397 . S
C6029 C6034 1.363 . S
C6030 H6007 0.950 . S
C6030 C6029 1.397 . S
C6030 C6031 1.334 . S
C6031 H6008 0.950 . S
C6031 C6030 1.334 . S
C6031 C6032 1.287 . S
C6032 C6031 1.287 . S
C6032 C6033 1.524 . S
C6032 H6051 0.913 . S
C6033 H6009 0.950 . S
C6033 C6032 1.524 . S
C6033 C6034 1.415 . S
C6034 H6010 0.950 . S
C6034 C6029 1.363 . S
C6034 C6033 1.415 . S
C6035 H6011 0.951 . S
C6035 C6036 1.366 . S
C6035 C6037 1.388 . S
C6036 C6035 1.366 . S
C6036 C6040 1.385 . S
C6037 H6012 0.951 . S
C6037 C6035 1.388 . S
C6037 C6038 1.366 . S
C6038 C6037 1.366 . S
C6038 C6039 1.414 . S
C6038 C6041 1.499 . S
C6039 H6013 0.950 . S
C6039 C6038 1.414 . S
C6039 C6040 1.374 . S
C6040 H6014 0.950 . S
C6040 C6036 1.385 . S
C6040 C6039 1.374 . S
C6041 C6038 1.499 . S
C6041 C6042 1.373 . S
C6041 C6043 1.389 . S
C6042 H6015 0.950 . S
C6042 C6028 1.377 . S
C6042 C6041 1.373 . S
C6043 C6027 1.377 . S
C6043 C6041 1.389 . S
C6043 C6044 1.524 . S
C6044 C6043 1.524 . S
C6044 C6045 1.397 . S
C6044 C6049 1.363 . S
C6045 H6016 0.950 . S
C6045 C6044 1.397 . S
C6045 C6046 1.334 . S
C6046 H6017 0.950 . S
C6046 C6045 1.334 . S
C6046 C6047 1.287 . S
C6047 C6046 1.287 . S
C6047 C6048 1.524 . S
C6047 H6050 0.999 . S
C6048 H6018 0.950 . S
C6048 C6047 1.524 . S
C6048 C6049 1.415 . S
C6049 H6019 0.950 . S
C6049 C6044 1.363 . S
C6049 C6048 1.415 . S
H6050 C6047 0.999 . S
H6051 C6032 0.913 . S
H6052 C6070 0.951 . S
H6053 C6072 0.951 . S
H6054 C6074 0.950 . S
H6055 C6075 0.950 . S
H6056 C6077 0.950 . S
H6057 C6080 0.950 . S
H6058 C6081 0.950 . S
H6059 C6083 0.950 . S
H6060 C6084 0.950 . S
H6061 C6085 0.951 . S
H6062 C6087 0.951 . S
H6063 C6089 0.950 . S
H6064 C6090 0.950 . S
H6065 C6092 0.950 . S
H6066 C6095 0.950 . S
H6067 C6096 0.950 . S
H6068 C6098 0.950 . S
H6069 C6099 0.950 . S
C6070 H6052 0.951 . S
C6070 C6071 1.366 . S
C6070 C6072 1.388 . S
C6071 C6070 1.366 . S
C6071 C6075 1.385 . S
C6072 H6053 0.951 . S
C6072 C6070 1.388 . S
C6072 C6073 1.366 . S
C6073 C6072 1.366 . S
C6073 C6074 1.414 . S
C6073 C6076 1.499 . S
C6074 H6054 0.950 . S
C6074 C6073 1.414 . S
C6074 C6075 1.374 . S
C6075 H6055 0.950 . S
C6075 C6071 1.385 . S
C6075 C6074 1.374 . S
C6076 C6073 1.499 . S
C6076 C6077 1.373 . S
C6076 C6078 1.389 . S
C6077 H6056 0.950 . S
C6077 C6076 1.373 . S
C6077 C6093 1.377 . S
C6078 C6076 1.389 . S
C6078 C6079 1.524 . S
C6078 C6092 1.377 . S
C6079 C6078 1.524 . S
C6079 C6080 1.397 . S
C6079 C6084 1.363 . S
C6080 H6057 0.950 . S
C6080 C6079 1.397 . S
C6080 C6081 1.334 . S
C6081 H6058 0.950 . S
C6081 C6080 1.334 . S
C6081 C6082 1.287 . S
C6082 C6081 1.287 . S
C6082 C6083 1.524 . S
C6082 H6101 0.913 . S
C6083 H6059 0.950 . S
C6083 C6082 1.524 . S
C6083 C6084 1.415 . S
C6084 H6060 0.950 . S
C6084 C6079 1.363 . S
C6084 C6083 1.415 . S
C6085 H6061 0.951 . S
C6085 C6086 1.366 . S
C6085 C6087 1.388 . S
C6086 C6085 1.366 . S
C6086 C6090 1.385 . S
C6087 H6062 0.951 . S
C6087 C6085 1.388 . S
C6087 C6088 1.366 . S
C6088 C6087 1.366 . S
C6088 C6089 1.414 . S
C6088 C6091 1.499 . S
C6089 H6063 0.950 . S
C6089 C6088 1.414 . S
C6089 C6090 1.374 . S
C6090 H6064 0.950 . S
C6090 C6086 1.385 . S
C6090 C6089 1.374 . S
C6091 C6088 1.499 . S
C6091 C6092 1.373 . S
C6091 C6093 1.389 . S
C6092 H6065 0.950 . S
C6092 C6078 1.377 . S
C6092 C6091 1.373 . S
C6093 C6077 1.377 . S
C6093 C6091 1.389 . S
C6093 C6094 1.524 . S
C6094 C6093 1.524 . S
C6094 C6095 1.397 . S
C6094 C6099 1.363 . S
C6095 H6066 0.950 . S
C6095 C6094 1.397 . S
C6095 C6096 1.334 . S
C6096 H6067 0.950 . S
C6096 C6095 1.334 . S
C6096 C6097 1.287 . S
C6097 C6096 1.287 . S
C6097 C6098 1.524 . S
C6097 H6100 0.999 . S
C6098 H6068 0.950 . S
C6098 C6097 1.524 . S
C6098 C6099 1.415 . S
C6099 H6069 0.950 . S
C6099 C6094 1.363 . S
C6099 C6098 1.415 . S
H6100 C6097 0.999 . S
H6101 C6082 0.913 . S
H6102 C6120 0.951 . S
H6103 C6122 0.951 . S
H6104 C6124 0.950 . S
H6105 C6125 0.950 . S
H6106 C6127 0.950 . S
H6107 C6130 0.950 . S
H6108 C6131 0.950 . S
H6109 C6133 0.950 . S
H6110 C6134 0.950 . S
H6111 C6135 0.951 . S
H6112 C6137 0.951 . S
H6113 C6139 0.950 . S
H6114 C6140 0.950 . S
H6115 C6142 0.950 1_545 S
H6116 C6145 0.950 . S
H6117 C6146 0.950 . S
H6118 C6148 0.950 . S
H6119 C6149 0.950 . S
C6120 H6102 0.951 . S
C6120 C6121 1.366 . S
C6120 C6122 1.388 . S
C6121 C6120 1.366 . S
C6121 C6125 1.385 . S
C6122 H6103 0.951 . S
C6122 C6120 1.388 . S
C6122 C6123 1.366 . S
C6123 C6122 1.366 . S
C6123 C6124 1.414 . S
C6123 C6126 1.499 . S
C6124 H6104 0.950 . S
C6124 C6123 1.414 . S
C6124 C6125 1.374 . S
C6125 H6105 0.950 . S
C6125 C6121 1.385 . S
C6125 C6124 1.374 . S
C6126 C6123 1.499 . S
C6126 C6127 1.373 . S
C6126 C6128 1.389 . S
C6127 H6106 0.950 . S
C6127 C6126 1.373 . S
C6127 C6143 1.377 . S
C6128 C6126 1.389 . S
C6128 C6129 1.524 . S
C6128 C6142 1.377 . S
C6129 C6128 1.524 . S
C6129 C6130 1.397 . S
C6129 C6134 1.363 1_565 S
C6130 H6107 0.950 . S
C6130 C6129 1.397 . S
C6130 C6131 1.334 . S
C6131 H6108 0.950 . S
C6131 C6130 1.334 . S
C6131 C6132 1.346 . S
C6132 C6131 1.346 . S
C6132 C6133 1.489 1_565 S
C6132 H6151 0.887 1_565 S
C6133 H6109 0.950 . S
C6133 C6132 1.489 1_545 S
C6133 C6134 1.415 . S
C6134 H6110 0.950 . S
C6134 C6129 1.363 1_545 S
C6134 C6133 1.415 . S
C6135 H6111 0.951 . S
C6135 C6136 1.366 1_565 S
C6135 C6137 1.388 . S
C6136 C6135 1.366 1_545 S
C6136 C6140 1.385 . S
C6137 H6112 0.951 . S
C6137 C6135 1.388 . S
C6137 C6138 1.366 . S
C6138 C6137 1.366 . S
C6138 C6139 1.414 1_565 S
C6138 C6141 1.499 . S
C6139 H6113 0.950 . S
C6139 C6138 1.414 1_545 S
C6139 C6140 1.374 . S
C6140 H6114 0.950 . S
C6140 C6136 1.385 . S
C6140 C6139 1.374 . S
C6141 C6138 1.499 . S
C6141 C6142 1.373 . S
C6141 C6143 1.389 . S
C6142 H6115 0.950 1_565 S
C6142 C6128 1.377 . S
C6142 C6141 1.373 . S
C6143 C6127 1.377 . S
C6143 C6141 1.389 . S
C6143 C6144 1.524 . S
C6144 C6143 1.524 . S
C6144 C6145 1.397 . S
C6144 C6149 1.363 . S
C6145 H6116 0.950 . S
C6145 C6144 1.397 . S
C6145 C6146 1.334 . S
C6146 H6117 0.950 . S
C6146 C6145 1.334 . S
C6146 C6147 1.287 . S
C6147 C6146 1.287 . S
C6147 C6148 1.524 . S
C6147 H6150 0.999 . S
C6148 H6118 0.950 . S
C6148 C6147 1.524 . S
C6148 C6149 1.415 . S
C6149 H6119 0.950 . S
C6149 C6144 1.363 . S
C6149 C6148 1.415 . S
H6150 C6147 0.999 . S
H6151 C6132 0.887 1_545 S
H6152 C6170 0.951 . S
H6153 C6172 0.951 . S
H6154 C6174 0.950 . S
H6155 C6175 0.950 . S
H6156 C6177 0.950 . S
H6157 C6180 0.950 . S
H6158 C6181 0.950 . S
H6159 C6183 0.950 . S
H6160 C6184 0.950 . S
H6161 C6185 0.951 . S
H6162 C6187 0.951 . S
H6163 C6189 0.950 . S
H6164 C6190 0.950 . S
H6165 C6192 0.950 . S
H6166 C6195 0.950 . S
H6167 C6196 0.950 . S
H6168 C6198 0.950 . S
H6169 C6199 0.950 . S
C6170 H6152 0.951 . S
C6170 C6171 1.366 . S
C6170 C6172 1.388 . S
C6171 C6170 1.366 . S
C6171 C6175 1.385 . S
C6172 H6153 0.951 . S
C6172 C6170 1.388 . S
C6172 C6173 1.366 . S
C6173 C6172 1.366 . S
C6173 C6174 1.414 . S
C6173 C6176 1.499 . S
C6174 H6154 0.950 . S
C6174 C6173 1.414 . S
C6174 C6175 1.374 . S
C6175 H6155 0.950 . S
C6175 C6171 1.385 . S
C6175 C6174 1.374 . S
C6176 C6173 1.499 . S
C6176 C6177 1.373 . S
C6176 C6178 1.389 . S
C6177 H6156 0.950 . S
C6177 C6176 1.373 . S
C6177 C6193 1.377 . S
C6178 C6176 1.389 . S
C6178 C6179 1.524 . S
C6178 C6192 1.377 . S
C6179 C6178 1.524 . S
C6179 C6180 1.397 . S
C6179 C6184 1.363 . S
C6180 H6157 0.950 . S
C6180 C6179 1.397 . S
C6180 C6181 1.334 . S
C6181 H6158 0.950 . S
C6181 C6180 1.334 . S
C6181 C6182 1.287 . S
C6182 C6181 1.287 . S
C6182 C6183 1.524 . S
C6182 H6201 0.913 . S
C6183 H6159 0.950 . S
C6183 C6182 1.524 . S
C6183 C6184 1.415 . S
C6184 H6160 0.950 . S
C6184 C6179 1.363 . S
C6184 C6183 1.415 . S
C6185 H6161 0.951 . S
C6185 C6186 1.366 . S
C6185 C6187 1.388 . S
C6186 C6185 1.366 . S
C6186 C6190 1.385 . S
C6187 H6162 0.951 . S
C6187 C6185 1.388 . S
C6187 C6188 1.366 . S
C6188 C6187 1.366 . S
C6188 C6189 1.414 . S
C6188 C6191 1.499 . S
C6189 H6163 0.950 . S
C6189 C6188 1.414 . S
C6189 C6190 1.374 . S
C6190 H6164 0.950 . S
C6190 C6186 1.385 . S
C6190 C6189 1.374 . S
C6191 C6188 1.499 . S
C6191 C6192 1.373 . S
C6191 C6193 1.389 . S
C6192 H6165 0.950 . S
C6192 C6178 1.377 . S
C6192 C6191 1.373 . S
C6193 C6177 1.377 . S
C6193 C6191 1.389 . S
C6193 C6194 1.524 . S
C6194 C6193 1.524 . S
C6194 C6195 1.397 . S
C6194 C6199 1.363 . S
C6195 H6166 0.950 . S
C6195 C6194 1.397 . S
C6195 C6196 1.334 . S
C6196 H6167 0.950 . S
C6196 C6195 1.334 . S
C6196 C6197 1.287 . S
C6197 C6196 1.287 . S
C6197 C6198 1.524 . S
C6197 H6200 0.999 . S
C6198 H6168 0.950 . S
C6198 C6197 1.524 . S
C6198 C6199 1.415 . S
C6199 H6169 0.950 . S
C6199 C6194 1.363 . S
C6199 C6198 1.415 . S
H6200 C6197 0.999 . S
H6201 C6182 0.913 . S
H6202 C6220 0.951 1_556 S
H6203 C6222 0.951 . S
H6204 C6224 0.950 . S
H6205 C6225 0.950 . S
H6206 C6227 0.950 . S
H6207 C6230 0.950 . S
H6208 C6231 0.950 . S
H6209 C6233 0.950 . S
H6210 C6234 0.950 1_554 S
H6211 C6235 0.951 . S
H6212 C6237 0.951 . S
H6213 C6239 0.950 . S
H6214 C6240 0.950 . S
H6215 C6242 0.950 . S
H6216 C6245 0.950 . S
H6217 C6246 0.950 . S
H6218 C6248 0.950 . S
H6219 C6249 0.950 . S
C6220 H6202 0.951 1_554 S
C6220 C6221 1.360 . S
C6220 C6222 1.388 . S
C6221 C6220 1.360 . S
C6221 C6225 1.406 . S
C6222 H6203 0.951 . S
C6222 C6220 1.388 . S
C6222 C6223 1.366 . S
C6223 C6222 1.366 . S
C6223 C6224 1.414 . S
C6223 C6226 1.499 . S
C6224 H6204 0.950 . S
C6224 C6223 1.414 . S
C6224 C6225 1.374 . S
C6225 H6205 0.950 . S
C6225 C6221 1.406 . S
C6225 C6224 1.374 . S
C6226 C6223 1.499 . S
C6226 C6227 1.373 . S
C6226 C6228 1.389 . S
C6227 H6206 0.950 . S
C6227 C6226 1.373 . S
C6227 C6243 1.377 . S
C6228 C6226 1.389 . S
C6228 C6229 1.524 1_554 S
C6228 C6242 1.377 . S
C6229 C6228 1.524 1_556 S
C6229 C6230 1.397 . S
C6229 C6234 1.363 . S
C6230 H6207 0.950 . S
C6230 C6229 1.397 . S
C6230 C6231 1.334 . S
C6231 H6208 0.950 . S
C6231 C6230 1.334 . S
C6231 C6232 1.287 . S
C6232 C6231 1.287 . S
C6232 C6233 1.524 . S
C6232 H6251 0.913 . S
C6233 H6209 0.950 . S
C6233 C6232 1.524 . S
C6233 C6234 1.415 . S
C6234 H6210 0.950 1_556 S
C6234 C6229 1.363 . S
C6234 C6233 1.415 . S
C6235 H6211 0.951 . S
C6235 C6236 1.366 . S
C6235 C6237 1.388 . S
C6236 C6235 1.366 . S
C6236 C6240 1.385 . S
C6237 H6212 0.951 . S
C6237 C6235 1.388 . S
C6237 C6238 1.366 . S
C6238 C6237 1.366 . S
C6238 C6239 1.414 . S
C6238 C6241 1.499 . S
C6239 H6213 0.950 . S
C6239 C6238 1.414 . S
C6239 C6240 1.374 . S
C6240 H6214 0.950 . S
C6240 C6236 1.385 . S
C6240 C6239 1.374 . S
C6241 C6238 1.499 . S
C6241 C6242 1.373 . S
C6241 C6243 1.389 . S
C6242 H6215 0.950 . S
C6242 C6228 1.377 . S
C6242 C6241 1.373 . S
C6243 C6227 1.377 . S
C6243 C6241 1.389 . S
C6243 C6244 1.524 . S
C6244 C6243 1.524 . S
C6244 C6245 1.397 . S
C6244 C6249 1.363 . S
C6245 H6216 0.950 . S
C6245 C6244 1.397 . S
C6245 C6246 1.334 . S
C6246 H6217 0.950 . S
C6246 C6245 1.334 . S
C6246 C6247 1.287 . S
C6247 C6246 1.287 . S
C6247 C6248 1.524 . S
C6247 H6250 0.999 . S
C6248 H6218 0.950 . S
C6248 C6247 1.524 . S
C6248 C6249 1.415 . S
C6249 H6219 0.950 . S
C6249 C6244 1.363 . S
C6249 C6248 1.415 . S
H6250 C6247 0.999 . S
H6251 C6232 0.913 . S
H6252 C6270 0.951 . S
H6253 C6272 0.951 . S
H6254 C6274 0.950 . S
H6255 C6275 0.950 . S
H6256 C6277 0.950 . S
H6257 C6280 0.950 . S
H6258 C6281 0.950 . S
H6259 C6283 0.950 . S
H6260 C6284 0.950 . S
H6261 C6285 0.951 . S
H6262 C6287 0.951 . S
H6263 C6289 0.950 . S
H6264 C6290 0.950 . S
H6265 C6292 0.950 . S
H6266 C6295 0.950 . S
H6267 C6296 0.950 . S
H6268 C6298 0.950 . S
H6269 C6299 0.950 . S
C6270 H6252 0.951 . S
C6270 C6271 1.366 . S
C6270 C6272 1.388 . S
C6271 C6270 1.366 . S
C6271 C6275 1.385 . S
C6272 H6253 0.951 . S
C6272 C6270 1.388 . S
C6272 C6273 1.366 . S
C6273 C6272 1.366 . S
C6273 C6274 1.414 . S
C6273 C6276 1.499 . S
C6274 H6254 0.950 . S
C6274 C6273 1.414 . S
C6274 C6275 1.374 . S
C6275 H6255 0.950 . S
C6275 C6271 1.385 . S
C6275 C6274 1.374 . S
C6276 C6273 1.499 . S
C6276 C6277 1.373 . S
C6276 C6278 1.389 . S
C6277 H6256 0.950 . S
C6277 C6276 1.373 . S
C6277 C6293 1.377 . S
C6278 C6276 1.389 . S
C6278 C6279 1.524 . S
C6278 C6292 1.377 . S
C6279 C6278 1.524 . S
C6279 C6280 1.397 . S
C6279 C6284 1.363 . S
C6280 H6257 0.950 . S
C6280 C6279 1.397 . S
C6280 C6281 1.334 . S
C6281 H6258 0.950 . S
C6281 C6280 1.334 . S
C6281 C6282 1.287 . S
C6282 C6281 1.287 . S
C6282 C6283 1.524 . S
C6282 H6301 0.913 . S
C6283 H6259 0.950 . S
C6283 C6282 1.524 . S
C6283 C6284 1.415 . S
C6284 H6260 0.950 . S
C6284 C6279 1.363 . S
C6284 C6283 1.415 . S
C6285 H6261 0.951 . S
C6285 C6286 1.366 . S
C6285 C6287 1.388 . S
C6286 C6285 1.366 . S
C6286 C6290 1.385 . S
C6287 H6262 0.951 . S
C6287 C6285 1.388 . S
C6287 C6288 1.366 . S
C6288 C6287 1.366 . S
C6288 C6289 1.414 . S
C6288 C6291 1.499 . S
C6289 H6263 0.950 . S
C6289 C6288 1.414 . S
C6289 C6290 1.374 . S
C6290 H6264 0.950 . S
C6290 C6286 1.385 . S
C6290 C6289 1.374 . S
C6291 C6288 1.499 . S
C6291 C6292 1.373 . S
C6291 C6293 1.389 . S
C6292 H6265 0.950 . S
C6292 C6278 1.377 . S
C6292 C6291 1.373 . S
C6293 C6277 1.377 . S
C6293 C6291 1.389 . S
C6293 C6294 1.524 . S
C6294 C6293 1.524 . S
C6294 C6295 1.397 . S
C6294 C6299 1.363 . S
C6295 H6266 0.950 . S
C6295 C6294 1.397 . S
C6295 C6296 1.334 . S
C6296 H6267 0.950 . S
C6296 C6295 1.334 . S
C6296 C6297 1.287 . S
C6297 C6296 1.287 . S
C6297 C6298 1.524 . S
C6297 H6300 0.999 . S
C6298 H6268 0.950 . S
C6298 C6297 1.524 . S
C6298 C6299 1.415 . S
C6299 H6269 0.950 . S
C6299 C6294 1.363 . S
C6299 C6298 1.415 . S
H6300 C6297 0.999 . S
H6301 C6282 0.913 . S
H6302 C6320 0.951 . S
H6303 C6322 0.951 . S
H6304 C6324 0.950 . S
H6305 C6325 0.950 . S
H6306 C6327 0.950 . S
H6307 C6330 0.950 . S
H6308 C6331 0.950 . S
H6309 C6333 0.950 . S
H6310 C6334 0.950 . S
H6311 C6335 0.951 . S
H6312 C6337 0.951 . S
H6313 C6339 0.950 . S
H6314 C6340 0.950 . S
H6315 C6342 0.950 . S
H6316 C6345 0.950 . S
H6317 C6346 0.950 . S
H6318 C6348 0.950 . S
H6319 C6349 0.950 . S
C6320 H6302 0.951 . S
C6320 C6321 1.366 . S
C6320 C6322 1.388 1_545 S
C6321 C6320 1.366 . S
C6321 C6325 1.385 . S
C6322 H6303 0.951 . S
C6322 C6320 1.388 1_565 S
C6322 C6323 1.366 . S
C6323 C6322 1.366 . S
C6323 C6324 1.414 . S
C6323 C6326 1.499 . S
C6324 H6304 0.950 . S
C6324 C6323 1.414 . S
C6324 C6325 1.374 1_565 S
C6325 H6305 0.950 . S
C6325 C6321 1.385 . S
C6325 C6324 1.374 1_545 S
C6326 C6323 1.499 . S
C6326 C6327 1.373 . S
C6326 C6328 1.389 . S
C6327 H6306 0.950 . S
C6327 C6326 1.373 . S
C6327 C6343 1.377 . S
C6328 C6326 1.389 . S
C6328 C6329 1.524 . S
C6328 C6342 1.377 . S
C6329 C6328 1.524 . S
C6329 C6330 1.397 . S
C6329 C6334 1.363 . S
C6330 H6307 0.950 . S
C6330 C6329 1.397 . S
C6330 C6331 1.334 . S
C6331 H6308 0.950 . S
C6331 C6330 1.334 . S
C6331 C6332 1.287 . S
C6332 C6331 1.287 . S
C6332 C6333 1.524 . S
C6332 H6351 0.913 . S
C6333 H6309 0.950 . S
C6333 C6332 1.524 . S
C6333 C6334 1.415 . S
C6334 H6310 0.950 . S
C6334 C6329 1.363 . S
C6334 C6333 1.415 . S
C6335 H6311 0.951 . S
C6335 C6336 1.366 . S
C6335 C6337 1.388 . S
C6336 C6335 1.366 . S
C6336 C6340 1.385 . S
C6337 H6312 0.951 . S
C6337 C6335 1.388 . S
C6337 C6338 1.366 . S
C6338 C6337 1.366 . S
C6338 C6339 1.414 . S
C6338 C6341 1.499 . S
C6339 H6313 0.950 . S
C6339 C6338 1.414 . S
C6339 C6340 1.374 . S
C6340 H6314 0.950 . S
C6340 C6336 1.385 . S
C6340 C6339 1.374 . S
C6341 C6338 1.499 . S
C6341 C6342 1.373 . S
C6341 C6343 1.389 . S
C6342 H6315 0.950 . S
C6342 C6328 1.377 . S
C6342 C6341 1.373 . S
C6343 C6327 1.377 . S
C6343 C6341 1.389 . S
C6343 C6344 1.524 . S
C6344 C6343 1.524 . S
C6344 C6345 1.397 . S
C6344 C6349 1.363 . S
C6345 H6316 0.950 . S
C6345 C6344 1.397 . S
C6345 C6346 1.334 . S
C6346 H6317 0.950 . S
C6346 C6345 1.334 . S
C6346 C6347 1.287 . S
C6347 C6346 1.287 . S
C6347 C6348 1.524 . S
C6347 H6350 0.999 . S
C6348 H6318 0.950 . S
C6348 C6347 1.524 . S
C6348 C6349 1.415 . S
C6349 H6319 0.950 . S
C6349 C6344 1.363 . S
C6349 C6348 1.415 . S
H6350 C6347 0.999 . S
H6351 C6332 0.913 . S
H6352 C6370 0.951 . S
H6353 C6372 0.951 . S
H6354 C6374 0.950 . S
H6355 C6375 0.950 . S
H6356 C6377 0.950 . S
H6357 C6380 0.950 . S
H6358 C6381 0.950 . S
H6359 C6383 0.950 . S
H6360 C6384 0.950 . S
H6361 C6385 0.951 . S
H6362 C6387 0.951 . S
H6363 C6389 0.950 . S
H6364 C6390 0.950 . S
H6365 C6392 0.950 . S
H6366 C6395 0.950 . S
H6367 C6396 0.950 . S
H6368 C6398 0.950 . S
H6369 C6399 0.950 . S
C6370 H6352 0.951 . S
C6370 C6371 1.366 . S
C6370 C6372 1.388 . S
C6371 C6370 1.366 . S
C6371 C6375 1.385 . S
C6372 H6353 0.951 . S
C6372 C6370 1.388 . S
C6372 C6373 1.366 . S
C6373 C6372 1.366 . S
C6373 C6374 1.414 . S
C6373 C6376 1.499 . S
C6374 H6354 0.950 . S
C6374 C6373 1.414 . S
C6374 C6375 1.374 . S
C6375 H6355 0.950 . S
C6375 C6371 1.385 . S
C6375 C6374 1.374 . S
C6376 C6373 1.499 . S
C6376 C6377 1.373 . S
C6376 C6378 1.389 . S
C6377 H6356 0.950 . S
C6377 C6376 1.373 . S
C6377 C6393 1.377 . S
C6378 C6376 1.389 . S
C6378 C6379 1.524 . S
C6378 C6392 1.377 . S
C6379 C6378 1.524 . S
C6379 C6380 1.397 . S
C6379 C6384 1.363 . S
C6380 H6357 0.950 . S
C6380 C6379 1.397 . S
C6380 C6381 1.334 . S
C6381 H6358 0.950 . S
C6381 C6380 1.334 . S
C6381 C6382 1.287 . S
C6382 C6381 1.287 . S
C6382 C6383 1.524 . S
C6382 H6401 0.913 . S
C6383 H6359 0.950 . S
C6383 C6382 1.524 . S
C6383 C6384 1.415 . S
C6384 H6360 0.950 . S
C6384 C6379 1.363 . S
C6384 C6383 1.415 . S
C6385 H6361 0.951 . S
C6385 C6386 1.366 . S
C6385 C6387 1.388 . S
C6386 C6385 1.366 . S
C6386 C6390 1.385 . S
C6387 H6362 0.951 . S
C6387 C6385 1.388 . S
C6387 C6388 1.366 . S
C6388 C6387 1.366 . S
C6388 C6389 1.414 . S
C6388 C6391 1.499 . S
C6389 H6363 0.950 . S
C6389 C6388 1.414 . S
C6389 C6390 1.374 . S
C6390 H6364 0.950 . S
C6390 C6386 1.385 . S
C6390 C6389 1.374 . S
C6391 C6388 1.499 . S
C6391 C6392 1.373 . S
C6391 C6393 1.389 . S
C6392 H6365 0.950 . S
C6392 C6378 1.377 . S
C6392 C6391 1.373 . S
C6393 C6377 1.377 . S
C6393 C6391 1.389 . S
C6393 C6394 1.524 . S
C6394 C6393 1.524 . S
C6394 C6395 1.397 . S
C6394 C6399 1.363 . S
C6395 H6366 0.950 . S
C6395 C6394 1.397 . S
C6395 C6396 1.334 . S
C6396 H6367 0.950 . S
C6396 C6395 1.334 . S
C6396 C6397 1.287 . S
C6397 C6396 1.287 . S
C6397 C6398 1.524 . S
C6397 H6400 0.999 . S
C6398 H6368 0.950 . S
C6398 C6397 1.524 . S
C6398 C6399 1.415 . S
C6399 H6369 0.950 . S
C6399 C6394 1.363 . S
C6399 C6398 1.415 . S
H6400 C6397 0.999 . S
H6401 C6382 0.913 . S
H6402 C6420 0.951 . S
H6403 C6422 0.951 . S
H6404 C6424 0.950 . S
H6405 C6425 0.950 . S
H6406 C6427 0.950 . S
H6407 C6430 0.950 . S
H6408 C6431 0.950 . S
H6409 C6433 0.950 . S
H6410 C6434 0.950 . S
H6411 C6435 0.951 . S
H6412 C6437 0.951 . S
H6413 C6439 0.950 . S
H6414 C6440 0.950 . S
H6415 C6442 0.950 . S
H6416 C6445 0.950 . S
H6417 C6446 0.950 . S
H6418 C6448 0.950 . S
H6419 C6449 0.950 . S
C6420 H6402 0.951 . S
C6420 C6421 1.366 . S
C6420 C6422 1.388 . S
C6421 C6420 1.366 . S
C6421 C6425 1.385 . S
C6422 H6403 0.951 . S
C6422 C6420 1.388 . S
C6422 C6423 1.366 . S
C6423 C6422 1.366 . S
C6423 C6424 1.414 . S
C6423 C6426 1.499 . S
C6424 H6404 0.950 . S
C6424 C6423 1.414 . S
C6424 C6425 1.374 . S
C6425 H6405 0.950 . S
C6425 C6421 1.385 . S
C6425 C6424 1.374 . S
C6426 C6423 1.499 . S
C6426 C6427 1.373 . S
C6426 C6428 1.389 . S
C6427 H6406 0.950 . S
C6427 C6426 1.373 . S
C6427 C6443 1.377 . S
C6428 C6426 1.389 . S
C6428 C6429 1.524 . S
C6428 C6442 1.377 . S
C6429 C6428 1.524 . S
C6429 C6430 1.397 . S
C6429 C6434 1.363 . S
C6430 H6407 0.950 . S
C6430 C6429 1.397 . S
C6430 C6431 1.334 . S
C6431 H6408 0.950 . S
C6431 C6430 1.334 . S
C6431 C6432 1.287 . S
C6432 C6431 1.287 . S
C6432 C6433 1.524 . S
C6432 H6451 0.913 . S
C6433 H6409 0.950 . S
C6433 C6432 1.524 . S
C6433 C6434 1.415 . S
C6434 H6410 0.950 . S
C6434 C6429 1.363 . S
C6434 C6433 1.415 . S
C6435 H6411 0.951 . S
C6435 C6436 1.366 . S
C6435 C6437 1.388 . S
C6436 C6435 1.366 . S
C6436 C6440 1.385 . S
C6437 H6412 0.951 . S
C6437 C6435 1.388 . S
C6437 C6438 1.366 . S
C6438 C6437 1.366 . S
C6438 C6439 1.414 . S
C6438 C6441 1.499 . S
C6439 H6413 0.950 . S
C6439 C6438 1.414 . S
C6439 C6440 1.374 . S
C6440 H6414 0.950 . S
C6440 C6436 1.385 . S
C6440 C6439 1.374 . S
C6441 C6438 1.499 . S
C6441 C6442 1.373 . S
C6441 C6443 1.389 . S
C6442 H6415 0.950 . S
C6442 C6428 1.377 . S
C6442 C6441 1.373 . S
C6443 C6427 1.377 . S
C6443 C6441 1.389 . S
C6443 C6444 1.524 . S
C6444 C6443 1.524 . S
C6444 C6445 1.397 . S
C6444 C6449 1.363 . S
C6445 H6416 0.950 . S
C6445 C6444 1.397 . S
C6445 C6446 1.334 . S
C6446 H6417 0.950 . S
C6446 C6445 1.334 . S
C6446 C6447 1.287 . S
C6447 C6446 1.287 . S
C6447 C6448 1.524 . S
C6447 H6450 0.999 . S
C6448 H6418 0.950 . S
C6448 C6447 1.524 . S
C6448 C6449 1.415 . S
C6449 H6419 0.950 . S
C6449 C6444 1.363 . S
C6449 C6448 1.415 . S
H6450 C6447 0.999 . S
H6451 C6432 0.913 . S
H6452 C6470 0.951 . S
H6453 C6472 0.951 . S
H6454 C6474 0.950 . S
H6455 C6475 0.950 . S
H6456 C6477 0.986 . S
H6457 C6480 0.950 . S
H6458 C6481 0.950 . S
H6459 C6483 0.950 . S
H6460 C6484 0.950 . S
H6461 C6485 0.951 . S
H6462 C6487 0.951 . S
H6463 C6489 0.950 . S
H6464 C6490 0.950 . S
H6465 C6492 0.950 . S
H6466 C6495 0.950 . S
H6467 C6496 0.950 . S
H6468 C6498 0.950 . S
H6469 C6499 0.916 1_455 S
C6470 H6452 0.951 . S
C6470 C6471 1.366 . S
C6470 C6472 1.388 . S
C6471 C6470 1.366 . S
C6471 C6475 1.383 1_655 S
C6472 H6453 0.951 . S
C6472 C6470 1.388 . S
C6472 C6473 1.366 1_655 S
C6473 C6472 1.366 1_455 S
C6473 C6474 1.414 . S
C6473 C6476 1.499 . S
C6474 H6454 0.950 . S
C6474 C6473 1.414 . S
C6474 C6475 1.374 . S
C6475 H6455 0.950 . S
C6475 C6471 1.383 1_455 S
C6475 C6474 1.374 . S
C6476 C6473 1.499 . S
C6476 C6477 1.358 1_455 S
C6476 C6478 1.389 . S
C6477 H6456 0.986 . S
C6477 C6476 1.358 1_655 S
C6477 C6493 1.368 . S
C6478 C6476 1.389 . S
C6478 C6479 1.524 . S
C6478 C6492 1.377 . S
C6479 C6478 1.524 . S
C6479 C6480 1.397 . S
C6479 C6484 1.363 . S
C6480 H6457 0.950 . S
C6480 C6479 1.397 . S
C6480 C6481 1.334 . S
C6481 H6458 0.950 . S
C6481 C6480 1.334 . S
C6481 C6482 1.287 . S
C6482 C6481 1.287 . S
C6482 C6483 1.524 . S
C6482 H6501 0.913 . S
C6483 H6459 0.950 . S
C6483 C6482 1.524 . S
C6483 C6484 1.415 . S
C6484 H6460 0.950 . S
C6484 C6479 1.363 . S
C6484 C6483 1.415 . S
C6485 H6461 0.951 . S
C6485 C6486 1.366 . S
C6485 C6487 1.388 . S
C6486 C6485 1.366 . S
C6486 C6490 1.385 . S
C6487 H6462 0.951 . S
C6487 C6485 1.388 . S
C6487 C6488 1.366 . S
C6488 C6487 1.366 . S
C6488 C6489 1.414 . S
C6488 C6491 1.499 . S
C6489 H6463 0.950 . S
C6489 C6488 1.414 . S
C6489 C6490 1.374 . S
C6490 H6464 0.950 . S
C6490 C6486 1.385 . S
C6490 C6489 1.374 . S
C6491 C6488 1.499 . S
C6491 C6492 1.373 . S
C6491 C6493 1.373 1_455 S
C6492 H6465 0.950 . S
C6492 C6478 1.377 . S
C6492 C6491 1.373 . S
C6493 C6477 1.368 . S
C6493 C6491 1.373 1_655 S
C6493 C6494 1.536 . S
C6494 C6493 1.536 . S
C6494 C6495 1.397 . S
C6494 C6499 1.363 . S
C6495 H6466 0.950 . S
C6495 C6494 1.397 . S
C6495 C6496 1.334 . S
C6496 H6467 0.950 . S
C6496 C6495 1.334 . S
C6496 C6497 1.287 . S
C6497 C6496 1.287 . S
C6497 C6498 1.524 . S
C6497 H6500 0.999 . S
C6498 H6468 0.950 . S
C6498 C6497 1.524 . S
C6498 C6499 1.415 . S
C6499 H6469 0.916 1_655 S
C6499 C6494 1.363 . S
C6499 C6498 1.415 . S
H6500 C6497 0.999 . S
H6501 C6482 0.913 . S
H6502 C6520 0.951 . S
H6503 C6522 0.951 . S
H6504 C6524 0.950 . S
H6505 C6525 0.950 . S
H6506 C6527 0.950 . S
H6507 C6530 0.950 . S
H6508 C6531 0.950 . S
H6509 C6533 0.950 . S
H6510 C6534 0.950 . S
H6511 C6535 0.951 . S
H6512 C6537 0.951 . S
H6513 C6539 0.950 . S
H6514 C6540 0.950 . S
H6515 C6542 0.950 . S
H6516 C6545 0.950 . S
H6517 C6546 0.950 . S
H6518 C6548 0.950 . S
H6519 C6549 0.950 . S
C6520 H6502 0.951 . S
C6520 C6521 1.366 . S
C6520 C6522 1.388 . S
C6521 C6520 1.366 . S
C6521 C6525 1.385 . S
C6522 H6503 0.951 . S
C6522 C6520 1.388 . S
C6522 C6523 1.366 . S
C6523 C6522 1.366 . S
C6523 C6524 1.414 . S
C6523 C6526 1.499 . S
C6524 H6504 0.950 . S
C6524 C6523 1.414 . S
C6524 C6525 1.374 . S
C6525 H6505 0.950 . S
C6525 C6521 1.385 . S
C6525 C6524 1.374 . S
C6526 C6523 1.499 . S
C6526 C6527 1.373 . S
C6526 C6528 1.389 . S
C6527 H6506 0.950 . S
C6527 C6526 1.373 . S
C6527 C6543 1.377 . S
C6528 C6526 1.389 . S
C6528 C6529 1.524 . S
C6528 C6542 1.377 . S
C6529 C6528 1.524 . S
C6529 C6530 1.397 . S
C6529 C6534 1.363 . S
C6530 H6507 0.950 . S
C6530 C6529 1.397 . S
C6530 C6531 1.334 . S
C6531 H6508 0.950 . S
C6531 C6530 1.334 . S
C6531 C6532 1.287 . S
C6532 C6531 1.287 . S
C6532 C6533 1.524 . S
C6532 H6551 0.913 . S
C6533 H6509 0.950 . S
C6533 C6532 1.524 . S
C6533 C6534 1.415 . S
C6534 H6510 0.950 . S
C6534 C6529 1.363 . S
C6534 C6533 1.415 . S
C6535 H6511 0.951 . S
C6535 C6536 1.366 . S
C6535 C6537 1.388 . S
C6536 C6535 1.366 . S
C6536 C6540 1.385 . S
C6537 H6512 0.951 . S
C6537 C6535 1.388 . S
C6537 C6538 1.366 . S
C6538 C6537 1.366 . S
C6538 C6539 1.414 . S
C6538 C6541 1.499 . S
C6539 H6513 0.950 . S
C6539 C6538 1.414 . S
C6539 C6540 1.374 . S
C6540 H6514 0.950 . S
C6540 C6536 1.385 . S
C6540 C6539 1.374 . S
C6541 C6538 1.499 . S
C6541 C6542 1.373 . S
C6541 C6543 1.389 . S
C6542 H6515 0.950 . S
C6542 C6528 1.377 . S
C6542 C6541 1.373 . S
C6543 C6527 1.377 . S
C6543 C6541 1.389 . S
C6543 C6544 1.524 . S
C6544 C6543 1.524 . S
C6544 C6545 1.397 . S
C6544 C6549 1.363 . S
C6545 H6516 0.950 . S
C6545 C6544 1.397 . S
C6545 C6546 1.334 . S
C6546 H6517 0.950 . S
C6546 C6545 1.334 . S
C6546 C6547 1.287 . S
C6547 C6546 1.287 . S
C6547 C6548 1.524 . S
C6547 H6550 0.999 . S
C6548 H6518 0.950 . S
C6548 C6547 1.524 . S
C6548 C6549 1.415 . S
C6549 H6519 0.950 . S
C6549 C6544 1.363 . S
C6549 C6548 1.415 . S
H6550 C6547 0.999 . S
H6551 C6532 0.913 . S
H6552 C6570 0.951 . S
H6553 C6572 0.983 . S
H6554 C6574 0.950 . S
H6555 C6575 0.950 . S
H6556 C6577 0.950 . S
H6557 C6580 0.950 . S
H6558 C6581 0.950 . S
H6559 C6583 0.950 . S
H6560 C6584 0.950 . S
H6561 C6585 0.951 . S
H6562 C6587 0.951 . S
H6563 C6589 0.950 . S
H6564 C6590 0.950 . S
H6565 C6592 0.950 . S
H6566 C6595 0.950 . S
H6567 C6596 0.950 . S
H6568 C6598 0.950 . S
H6569 C6599 0.950 . S
C6570 H6552 0.951 . S
C6570 C6571 1.366 . S
C6570 C6572 1.388 . S
C6571 C6570 1.366 . S
C6571 C6575 1.385 . S
C6572 H6553 0.983 . S
C6572 C6570 1.388 . S
C6572 C6573 1.366 . S
C6573 C6572 1.366 . S
C6573 C6574 1.414 . S
C6573 C6576 1.499 . S
C6574 H6554 0.950 . S
C6574 C6573 1.414 . S
C6574 C6575 1.374 . S
C6575 H6555 0.950 . S
C6575 C6571 1.385 . S
C6575 C6574 1.374 . S
C6576 C6573 1.499 . S
C6576 C6577 1.373 . S
C6576 C6578 1.421 . S
C6577 H6556 0.950 . S
C6577 C6576 1.373 . S
C6577 C6593 1.377 . S
C6578 C6576 1.421 . S
C6578 C6579 1.503 1_556 S
C6578 C6592 1.366 1_556 S
C6579 C6578 1.503 1_554 S
C6579 C6580 1.397 . S
C6579 C6584 1.363 . S
C6580 H6557 0.950 . S
C6580 C6579 1.397 . S
C6580 C6581 1.334 . S
C6581 H6558 0.950 . S
C6581 C6580 1.334 . S
C6581 C6582 1.287 . S
C6582 C6581 1.287 . S
C6582 C6583 1.524 . S
C6582 H6601 0.913 . S
C6583 H6559 0.950 . S
C6583 C6582 1.524 . S
C6583 C6584 1.415 . S
C6584 H6560 0.950 . S
C6584 C6579 1.363 . S
C6584 C6583 1.415 . S
C6585 H6561 0.951 . S
C6585 C6586 1.411 . S
C6585 C6587 1.388 . S
C6586 C6585 1.411 . S
C6586 C6590 1.357 1_556 S
C6587 H6562 0.951 . S
C6587 C6585 1.388 . S
C6587 C6588 1.366 . S
C6588 C6587 1.366 . S
C6588 C6589 1.414 1_556 S
C6588 C6591 1.499 . S
C6589 H6563 0.950 . S
C6589 C6588 1.414 1_554 S
C6589 C6590 1.374 . S
C6590 H6564 0.950 . S
C6590 C6586 1.357 1_554 S
C6590 C6589 1.374 . S
C6591 C6588 1.499 . S
C6591 C6592 1.373 1_556 S
C6591 C6593 1.389 . S
C6592 H6565 0.950 . S
C6592 C6578 1.366 1_554 S
C6592 C6591 1.373 1_554 S
C6593 C6577 1.377 . S
C6593 C6591 1.389 . S
C6593 C6594 1.524 . S
C6594 C6593 1.524 . S
C6594 C6595 1.397 . S
C6594 C6599 1.363 . S
C6595 H6566 0.950 . S
C6595 C6594 1.397 . S
C6595 C6596 1.334 . S
C6596 H6567 0.950 . S
C6596 C6595 1.334 . S
C6596 C6597 1.287 . S
C6597 C6596 1.287 . S
C6597 C6598 1.524 . S
C6597 H6600 0.999 . S
C6598 H6568 0.950 . S
C6598 C6597 1.524 . S
C6598 C6599 1.415 . S
C6599 H6569 0.950 . S
C6599 C6594 1.363 . S
C6599 C6598 1.415 . S
H6600 C6597 0.999 . S
H6601 C6582 0.913 . S
H6602 C6620 0.951 . S
H6603 C6622 0.951 . S
H6604 C6624 0.950 . S
H6605 C6625 0.950 . S
H6606 C6627 0.950 . S
H6607 C6630 0.950 . S
H6608 C6631 0.950 . S
H6609 C6633 0.950 . S
H6610 C6634 0.950 . S
H6611 C6635 0.951 . S
H6612 C6637 0.951 . S
H6613 C6639 0.950 . S
H6614 C6640 0.950 . S
H6615 C6642 0.950 . S
H6616 C6645 0.950 . S
H6617 C6646 0.950 . S
H6618 C6648 0.950 . S
H6619 C6649 0.950 . S
C6620 H6602 0.951 . S
C6620 C6621 1.366 . S
C6620 C6622 1.388 . S
C6621 C6620 1.366 . S
C6621 C6625 1.385 . S
C6622 H6603 0.951 . S
C6622 C6620 1.388 . S
C6622 C6623 1.366 . S
C6623 C6622 1.366 . S
C6623 C6624 1.414 . S
C6623 C6626 1.499 . S
C6624 H6604 0.950 . S
C6624 C6623 1.414 . S
C6624 C6625 1.374 . S
C6625 H6605 0.950 . S
C6625 C6621 1.385 . S
C6625 C6624 1.374 . S
C6626 C6623 1.499 . S
C6626 C6627 1.373 . S
C6626 C6628 1.389 . S
C6627 H6606 0.950 . S
C6627 C6626 1.373 . S
C6627 C6643 1.377 . S
C6628 C6626 1.389 . S
C6628 C6629 1.524 . S
C6628 C6642 1.377 . S
C6629 C6628 1.524 . S
C6629 C6630 1.397 . S
C6629 C6634 1.363 . S
C6630 H6607 0.950 . S
C6630 C6629 1.397 . S
C6630 C6631 1.334 . S
C6631 H6608 0.950 . S
C6631 C6630 1.334 . S
C6631 C6632 1.287 . S
C6632 C6631 1.287 . S
C6632 C6633 1.524 . S
C6632 H6651 0.913 . S
C6633 H6609 0.950 . S
C6633 C6632 1.524 . S
C6633 C6634 1.415 . S
C6634 H6610 0.950 . S
C6634 C6629 1.363 . S
C6634 C6633 1.415 . S
C6635 H6611 0.951 . S
C6635 C6636 1.366 . S
C6635 C6637 1.388 . S
C6636 C6635 1.366 . S
C6636 C6640 1.385 . S
C6637 H6612 0.951 . S
C6637 C6635 1.388 . S
C6637 C6638 1.366 . S
C6638 C6637 1.366 . S
C6638 C6639 1.414 . S
C6638 C6641 1.499 . S
C6639 H6613 0.950 . S
C6639 C6638 1.414 . S
C6639 C6640 1.374 . S
C6640 H6614 0.950 . S
C6640 C6636 1.385 . S
C6640 C6639 1.374 . S
C6641 C6638 1.499 . S
C6641 C6642 1.373 . S
C6641 C6643 1.389 . S
C6642 H6615 0.950 . S
C6642 C6628 1.377 . S
C6642 C6641 1.373 . S
C6643 C6627 1.377 . S
C6643 C6641 1.389 . S
C6643 C6644 1.524 . S
C6644 C6643 1.524 . S
C6644 C6645 1.397 . S
C6644 C6649 1.363 . S
C6645 H6616 0.950 . S
C6645 C6644 1.397 . S
C6645 C6646 1.334 . S
C6646 H6617 0.950 . S
C6646 C6645 1.334 . S
C6646 C6647 1.287 . S
C6647 C6646 1.287 . S
C6647 C6648 1.524 . S
C6647 H6650 0.999 . S
C6648 H6618 0.950 . S
C6648 C6647 1.524 . S
C6648 C6649 1.415 . S
C6649 H6619 0.950 . S
C6649 C6644 1.363 . S
C6649 C6648 1.415 . S
H6650 C6647 0.999 . S
H6651 C6632 0.913 . S
H6652 C6670 0.951 . S
H6653 C6672 0.951 . S
H6654 C6674 0.950 . S
H6655 C6675 0.950 . S
H6656 C6677 0.950 . S
H6657 C6680 0.950 . S
H6658 C6681 0.950 . S
H6659 C6683 0.950 . S
H6660 C6684 0.950 . S
H6661 C6685 0.951 . S
H6662 C6687 0.951 . S
H6663 C6689 0.950 . S
H6664 C6690 0.950 . S
H6665 C6692 0.950 . S
H6666 C6695 0.950 . S
H6667 C6696 0.950 . S
H6668 C6698 0.950 . S
H6669 C6699 0.950 . S
C6670 H6652 0.951 . S
C6670 C6671 1.366 . S
C6670 C6672 1.388 . S
C6671 C6670 1.366 . S
C6671 C6675 1.385 . S
C6672 H6653 0.951 . S
C6672 C6670 1.388 . S
C6672 C6673 1.366 . S
C6673 C6672 1.366 . S
C6673 C6674 1.414 . S
C6673 C6676 1.499 . S
C6674 H6654 0.950 . S
C6674 C6673 1.414 . S
C6674 C6675 1.374 . S
C6675 H6655 0.950 . S
C6675 C6671 1.385 . S
C6675 C6674 1.374 . S
C6676 C6673 1.499 . S
C6676 C6677 1.373 . S
C6676 C6678 1.389 . S
C6677 H6656 0.950 . S
C6677 C6676 1.373 . S
C6677 C6693 1.377 . S
C6678 C6676 1.389 . S
C6678 C6679 1.524 . S
C6678 C6692 1.377 . S
C6679 C6678 1.524 . S
C6679 C6680 1.397 . S
C6679 C6684 1.363 . S
C6680 H6657 0.950 . S
C6680 C6679 1.397 . S
C6680 C6681 1.334 . S
C6681 H6658 0.950 . S
C6681 C6680 1.334 . S
C6681 C6682 1.287 . S
C6682 C6681 1.287 . S
C6682 C6683 1.524 . S
C6682 H6701 0.913 . S
C6683 H6659 0.950 . S
C6683 C6682 1.524 . S
C6683 C6684 1.415 . S
C6684 H6660 0.950 . S
C6684 C6679 1.363 . S
C6684 C6683 1.415 . S
C6685 H6661 0.951 . S
C6685 C6686 1.366 . S
C6685 C6687 1.388 . S
C6686 C6685 1.366 . S
C6686 C6690 1.385 . S
C6687 H6662 0.951 . S
C6687 C6685 1.388 . S
C6687 C6688 1.366 . S
C6688 C6687 1.366 . S
C6688 C6689 1.414 . S
C6688 C6691 1.499 . S
C6689 H6663 0.950 . S
C6689 C6688 1.414 . S
C6689 C6690 1.374 . S
C6690 H6664 0.950 . S
C6690 C6686 1.385 . S
C6690 C6689 1.374 . S
C6691 C6688 1.499 . S
C6691 C6692 1.373 . S
C6691 C6693 1.389 . S
C6692 H6665 0.950 . S
C6692 C6678 1.377 . S
C6692 C6691 1.373 . S
C6693 C6677 1.377 . S
C6693 C6691 1.389 . S
C6693 C6694 1.524 . S
C6694 C6693 1.524 . S
C6694 C6695 1.397 . S
C6694 C6699 1.363 . S
C6695 H6666 0.950 . S
C6695 C6694 1.397 . S
C6695 C6696 1.334 . S
C6696 H6667 0.950 . S
C6696 C6695 1.334 . S
C6696 C6697 1.287 . S
C6697 C6696 1.287 . S
C6697 C6698 1.524 . S
C6697 H6700 0.999 . S
C6698 H6668 0.950 . S
C6698 C6697 1.524 . S
C6698 C6699 1.415 . S
C6699 H6669 0.950 . S
C6699 C6694 1.363 . S
C6699 C6698 1.415 . S
H6700 C6697 0.999 . S
H6701 C6682 0.913 . S
H6702 C6720 0.951 . S
H6703 C6722 0.951 . S
H6704 C6724 0.950 . S
H6705 C6725 0.950 . S
H6706 C6727 0.950 . S
H6707 C6730 0.950 . S
H6708 C6731 0.950 . S
H6709 C6733 0.950 . S
H6710 C6734 0.950 . S
H6711 C6735 0.951 . S
H6712 C6737 0.951 . S
H6713 C6739 0.950 . S
H6714 C6740 0.950 . S
H6715 C6742 0.950 . S
H6716 C6745 0.950 . S
H6717 C6746 0.950 . S
H6718 C6748 0.950 . S
H6719 C6749 0.950 . S
C6720 H6702 0.951 . S
C6720 C6721 1.366 . S
C6720 C6722 1.388 . S
C6721 C6720 1.366 . S
C6721 C6725 1.385 . S
C6722 H6703 0.951 . S
C6722 C6720 1.388 . S
C6722 C6723 1.366 . S
C6723 C6722 1.366 . S
C6723 C6724 1.414 . S
C6723 C6726 1.499 . S
C6724 H6704 0.950 . S
C6724 C6723 1.414 . S
C6724 C6725 1.374 . S
C6725 H6705 0.950 . S
C6725 C6721 1.385 . S
C6725 C6724 1.374 . S
C6726 C6723 1.499 . S
C6726 C6727 1.373 . S
C6726 C6728 1.389 . S
C6727 H6706 0.950 . S
C6727 C6726 1.373 . S
C6727 C6743 1.377 . S
C6728 C6726 1.389 . S
C6728 C6729 1.524 . S
C6728 C6742 1.377 . S
C6729 C6728 1.524 . S
C6729 C6730 1.397 . S
C6729 C6734 1.363 . S
C6730 H6707 0.950 . S
C6730 C6729 1.397 . S
C6730 C6731 1.334 . S
C6731 H6708 0.950 . S
C6731 C6730 1.334 . S
C6731 C6732 1.287 . S
C6732 C6731 1.287 . S
C6732 C6733 1.524 . S
C6732 H6751 0.913 . S
C6733 H6709 0.950 . S
C6733 C6732 1.524 . S
C6733 C6734 1.415 . S
C6734 H6710 0.950 . S
C6734 C6729 1.363 . S
C6734 C6733 1.415 . S
C6735 H6711 0.951 . S
C6735 C6736 1.366 . S
C6735 C6737 1.388 . S
C6736 C6735 1.366 . S
C6736 C6740 1.385 . S
C6737 H6712 0.951 . S
C6737 C6735 1.388 . S
C6737 C6738 1.366 . S
C6738 C6737 1.366 . S
C6738 C6739 1.414 . S
C6738 C6741 1.499 . S
C6739 H6713 0.950 . S
C6739 C6738 1.414 . S
C6739 C6740 1.374 . S
C6740 H6714 0.950 . S
C6740 C6736 1.385 . S
C6740 C6739 1.374 . S
C6741 C6738 1.499 . S
C6741 C6742 1.373 . S
C6741 C6743 1.389 . S
C6742 H6715 0.950 . S
C6742 C6728 1.377 . S
C6742 C6741 1.373 . S
C6743 C6727 1.377 . S
C6743 C6741 1.389 . S
C6743 C6744 1.524 . S
C6744 C6743 1.524 . S
C6744 C6745 1.397 . S
C6744 C6749 1.363 . S
C6745 H6716 0.950 . S
C6745 C6744 1.397 . S
C6745 C6746 1.334 . S
C6746 H6717 0.950 . S
C6746 C6745 1.334 . S
C6746 C6747 1.287 . S
C6747 C6746 1.287 . S
C6747 C6748 1.524 . S
C6747 H6750 0.999 . S
C6748 H6718 0.950 . S
C6748 C6747 1.524 . S
C6748 C6749 1.415 . S
C6749 H6719 0.950 . S
C6749 C6744 1.363 . S
C6749 C6748 1.415 . S
H6750 C6747 0.999 . S
H6751 C6732 0.913 . S
H6752 C6770 0.951 . S
H6753 C6772 0.951 . S
H6754 C6774 0.950 . S
H6755 C6775 0.950 . S
H6756 C6777 0.950 . S
H6757 C6780 0.950 . S
H6758 C6781 0.950 . S
H6759 C6783 0.950 . S
H6760 C6784 0.950 . S
H6761 C6785 0.951 . S
H6762 C6787 0.951 . S
H6763 C6789 0.950 . S
H6764 C6790 0.950 . S
H6765 C6792 0.950 . S
H6766 C6795 0.950 . S
H6767 C6796 0.950 . S
H6768 C6798 0.950 . S
H6769 C6799 0.950 . S
C6770 H6752 0.951 . S
C6770 C6771 1.366 . S
C6770 C6772 1.388 . S
C6771 C6770 1.366 . S
C6771 C6775 1.385 . S
C6772 H6753 0.951 . S
C6772 C6770 1.388 . S
C6772 C6773 1.366 . S
C6773 C6772 1.366 . S
C6773 C6774 1.414 . S
C6773 C6776 1.499 . S
C6774 H6754 0.950 . S
C6774 C6773 1.414 . S
C6774 C6775 1.374 . S
C6775 H6755 0.950 . S
C6775 C6771 1.385 . S
C6775 C6774 1.374 . S
C6776 C6773 1.499 . S
C6776 C6777 1.373 . S
C6776 C6778 1.389 . S
C6777 H6756 0.950 . S
C6777 C6776 1.373 . S
C6777 C6793 1.377 . S
C6778 C6776 1.389 . S
C6778 C6779 1.524 . S
C6778 C6792 1.377 . S
C6779 C6778 1.524 . S
C6779 C6780 1.397 . S
C6779 C6784 1.363 . S
C6780 H6757 0.950 . S
C6780 C6779 1.397 . S
C6780 C6781 1.334 . S
C6781 H6758 0.950 . S
C6781 C6780 1.334 . S
C6781 C6782 1.287 . S
C6782 C6781 1.287 . S
C6782 C6783 1.524 . S
C6782 H6801 0.913 . S
C6783 H6759 0.950 . S
C6783 C6782 1.524 . S
C6783 C6784 1.415 . S
C6784 H6760 0.950 . S
C6784 C6779 1.363 . S
C6784 C6783 1.415 . S
C6785 H6761 0.951 . S
C6785 C6786 1.366 . S
C6785 C6787 1.388 . S
C6786 C6785 1.366 . S
C6786 C6790 1.385 . S
C6787 H6762 0.951 . S
C6787 C6785 1.388 . S
C6787 C6788 1.366 . S
C6788 C6787 1.366 . S
C6788 C6789 1.414 . S
C6788 C6791 1.499 . S
C6789 H6763 0.950 . S
C6789 C6788 1.414 . S
C6789 C6790 1.374 . S
C6790 H6764 0.950 . S
C6790 C6786 1.385 . S
C6790 C6789 1.374 . S
C6791 C6788 1.499 . S
C6791 C6792 1.373 . S
C6791 C6793 1.389 . S
C6792 H6765 0.950 . S
C6792 C6778 1.377 . S
C6792 C6791 1.373 . S
C6793 C6777 1.377 . S
C6793 C6791 1.389 . S
C6793 C6794 1.524 . S
C6794 C6793 1.524 . S
C6794 C6795 1.397 . S
C6794 C6799 1.363 . S
C6795 H6766 0.950 . S
C6795 C6794 1.397 . S
C6795 C6796 1.334 . S
C6796 H6767 0.950 . S
C6796 C6795 1.334 . S
C6796 C6797 1.287 . S
C6797 C6796 1.287 . S
C6797 C6798 1.524 . S
C6797 H6800 0.999 . S
C6798 H6768 0.950 . S
C6798 C6797 1.524 . S
C6798 C6799 1.415 . S
C6799 H6769 0.950 . S
C6799 C6794 1.363 . S
C6799 C6798 1.415 . S
H6800 C6797 0.999 . S
H6801 C6782 0.913 . S
H6802 C6820 0.951 . S
H6803 C6822 0.951 . S
H6804 C6824 0.950 . S
H6805 C6825 0.950 . S
H6806 C6827 0.950 . S
H6807 C6830 0.950 . S
H6808 C6831 0.950 . S
H6809 C6833 0.950 . S
H6810 C6834 0.950 . S
H6811 C6835 0.951 . S
H6812 C6837 0.951 . S
H6813 C6839 0.950 . S
H6814 C6840 0.950 . S
H6815 C6842 0.950 . S
H6816 C6845 0.950 . S
H6817 C6846 0.950 . S
H6818 C6848 0.950 . S
H6819 C6849 0.950 . S
C6820 H6802 0.951 . S
C6820 C6821 1.366 . S
C6820 C6822 1.388 . S
C6821 C6820 1.366 . S
C6821 C6825 1.385 . S
C6822 H6803 0.951 . S
C6822 C6820 1.388 . S
C6822 C6823 1.366 . S
C6823 C6822 1.366 . S
C6823 C6824 1.414 . S
C6823 C6826 1.499 . S
C6824 H6804 0.950 . S
C6824 C6823 1.414 . S
C6824 C6825 1.374 . S
C6825 H6805 0.950 . S
C6825 C6821 1.385 . S
C6825 C6824 1.374 . S
C6826 C6823 1.499 . S
C6826 C6827 1.373 . S
C6826 C6828 1.389 . S
C6827 H6806 0.950 . S
C6827 C6826 1.373 . S
C6827 C6843 1.377 . S
C6828 C6826 1.389 . S
C6828 C6829 1.524 . S
C6828 C6842 1.377 . S
C6829 C6828 1.524 . S
C6829 C6830 1.397 . S
C6829 C6834 1.363 . S
C6830 H6807 0.950 . S
C6830 C6829 1.397 . S
C6830 C6831 1.334 . S
C6831 H6808 0.950 . S
C6831 C6830 1.334 . S
C6831 C6832 1.287 . S
C6832 C6831 1.287 . S
C6832 C6833 1.524 . S
C6832 H6851 0.913 . S
C6833 H6809 0.950 . S
C6833 C6832 1.524 . S
C6833 C6834 1.415 . S
C6834 H6810 0.950 . S
C6834 C6829 1.363 . S
C6834 C6833 1.415 . S
C6835 H6811 0.951 . S
C6835 C6836 1.366 . S
C6835 C6837 1.388 . S
C6836 C6835 1.366 . S
C6836 C6840 1.385 . S
C6837 H6812 0.951 . S
C6837 C6835 1.388 . S
C6837 C6838 1.366 . S
C6838 C6837 1.366 . S
C6838 C6839 1.414 . S
C6838 C6841 1.499 . S
C6839 H6813 0.950 . S
C6839 C6838 1.414 . S
C6839 C6840 1.374 . S
C6840 H6814 0.950 . S
C6840 C6836 1.385 . S
C6840 C6839 1.374 . S
C6841 C6838 1.499 . S
C6841 C6842 1.373 . S
C6841 C6843 1.389 . S
C6842 H6815 0.950 . S
C6842 C6828 1.377 . S
C6842 C6841 1.373 . S
C6843 C6827 1.377 . S
C6843 C6841 1.389 . S
C6843 C6844 1.524 . S
C6844 C6843 1.524 . S
C6844 C6845 1.397 . S
C6844 C6849 1.363 . S
C6845 H6816 0.950 . S
C6845 C6844 1.397 . S
C6845 C6846 1.334 . S
C6846 H6817 0.950 . S
C6846 C6845 1.334 . S
C6846 C6847 1.287 . S
C6847 C6846 1.287 . S
C6847 C6848 1.524 . S
C6847 H6850 0.999 . S
C6848 H6818 0.950 . S
C6848 C6847 1.524 . S
C6848 C6849 1.415 . S
C6849 H6819 0.950 . S
C6849 C6844 1.363 . S
C6849 C6848 1.415 . S
H6850 C6847 0.999 . S
H6851 C6832 0.913 . S
H6852 C6870 0.951 . S
H6853 C6872 0.951 . S
H6854 C6874 0.950 . S
H6855 C6875 0.950 . S
H6856 C6877 0.950 . S
H6857 C6880 0.950 1_655 S
H6858 C6881 0.950 . S
H6859 C6883 0.950 . S
H6860 C6884 0.950 . S
H6861 C6885 0.951 . S
H6862 C6887 0.951 . S
H6863 C6889 0.950 . S
H6864 C6890 0.950 . S
H6865 C6892 0.950 . S
H6866 C6895 0.950 . S
H6867 C6896 0.950 . S
H6868 C6898 0.950 . S
H6869 C6899 0.950 . S
C6870 H6852 0.951 . S
C6870 C6871 1.366 . S
C6870 C6872 1.388 . S
C6871 C6870 1.366 . S
C6871 C6875 1.385 . S
C6872 H6853 0.951 . S
C6872 C6870 1.388 . S
C6872 C6873 1.366 . S
C6873 C6872 1.366 . S
C6873 C6874 1.414 . S
C6873 C6876 1.499 . S
C6874 H6854 0.950 . S
C6874 C6873 1.414 . S
C6874 C6875 1.374 . S
C6875 H6855 0.950 . S
C6875 C6871 1.385 . S
C6875 C6874 1.374 . S
C6876 C6873 1.499 . S
C6876 C6877 1.373 . S
C6876 C6878 1.389 . S
C6877 H6856 0.950 . S
C6877 C6876 1.373 . S
C6877 C6893 1.377 . S
C6878 C6876 1.389 . S
C6878 C6879 1.524 1_655 S
C6878 C6892 1.377 1_655 S
C6879 C6878 1.524 1_455 S
C6879 C6880 1.397 . S
C6879 C6884 1.363 . S
C6880 H6857 0.950 1_455 S
C6880 C6879 1.397 . S
C6880 C6881 1.334 . S
C6881 H6858 0.950 . S
C6881 C6880 1.334 . S
C6881 C6882 1.287 . S
C6882 C6881 1.287 . S
C6882 C6883 1.524 . S
C6882 H6901 0.913 . S
C6883 H6859 0.950 . S
C6883 C6882 1.524 . S
C6883 C6884 1.415 . S
C6884 H6860 0.950 . S
C6884 C6879 1.363 . S
C6884 C6883 1.415 . S
C6885 H6861 0.951 . S
C6885 C6886 1.366 1_655 S
C6885 C6887 1.388 . S
C6886 C6885 1.366 1_455 S
C6886 C6890 1.385 . S
C6887 H6862 0.951 . S
C6887 C6885 1.388 . S
C6887 C6888 1.366 . S
C6888 C6887 1.366 . S
C6888 C6889 1.414 1_655 S
C6888 C6891 1.499 . S
C6889 H6863 0.950 . S
C6889 C6888 1.414 1_455 S
C6889 C6890 1.374 . S
C6890 H6864 0.950 . S
C6890 C6886 1.385 . S
C6890 C6889 1.374 . S
C6891 C6888 1.499 . S
C6891 C6892 1.373 1_655 S
C6891 C6893 1.389 . S
C6892 H6865 0.950 . S
C6892 C6878 1.377 1_455 S
C6892 C6891 1.373 1_455 S
C6893 C6877 1.377 . S
C6893 C6891 1.389 . S
C6893 C6894 1.524 . S
C6894 C6893 1.524 . S
C6894 C6895 1.397 . S
C6894 C6899 1.363 . S
C6895 H6866 0.950 . S
C6895 C6894 1.397 . S
C6895 C6896 1.334 . S
C6896 H6867 0.950 . S
C6896 C6895 1.334 . S
C6896 C6897 1.287 . S
C6897 C6896 1.287 . S
C6897 C6898 1.524 . S
C6897 H6900 0.999 . S
C6898 H6868 0.950 . S
C6898 C6897 1.524 . S
C6898 C6899 1.415 . S
C6899 H6869 0.950 . S
C6899 C6894 1.363 . S
C6899 C6898 1.415 . S
H6900 C6897 0.999 . S
H6901 C6882 0.913 . S
H6902 C6920 0.951 . S
H6903 C6922 0.951 . S
H6904 C6924 0.950 . S
H6905 C6925 0.950 . S
H6906 C6927 0.950 . S
H6907 C6930 0.950 . S
H6908 C6931 0.950 . S
H6909 C6933 0.950 . S
H6910 C6934 0.950 . S
H6911 C6935 0.951 . S
H6912 C6937 0.951 . S
H6913 C6939 0.950 . S
H6914 C6940 0.950 . S
H6915 C6942 0.950 . S
H6916 C6945 0.950 . S
H6917 C6946 0.950 . S
H6918 C6948 0.950 . S
H6919 C6949 0.950 . S
C6920 H6902 0.951 . S
C6920 C6921 1.366 . S
C6920 C6922 1.388 . S
C6921 C6920 1.366 . S
C6921 C6925 1.385 . S
C6922 H6903 0.951 . S
C6922 C6920 1.388 . S
C6922 C6923 1.366 . S
C6923 C6922 1.366 . S
C6923 C6924 1.414 . S
C6923 C6926 1.499 . S
C6924 H6904 0.950 . S
C6924 C6923 1.414 . S
C6924 C6925 1.374 . S
C6925 H6905 0.950 . S
C6925 C6921 1.385 . S
C6925 C6924 1.374 . S
C6926 C6923 1.499 . S
C6926 C6927 1.373 . S
C6926 C6928 1.389 . S
C6927 H6906 0.950 . S
C6927 C6926 1.373 . S
C6927 C6943 1.377 . S
C6928 C6926 1.389 . S
C6928 C6929 1.524 . S
C6928 C6942 1.377 . S
C6929 C6928 1.524 . S
C6929 C6930 1.397 . S
C6929 C6934 1.363 . S
C6930 H6907 0.950 . S
C6930 C6929 1.397 . S
C6930 C6931 1.334 . S
C6931 H6908 0.950 . S
C6931 C6930 1.334 . S
C6931 C6932 1.287 . S
C6932 C6931 1.287 . S
C6932 C6933 1.524 . S
C6932 H6951 0.913 . S
C6933 H6909 0.950 . S
C6933 C6932 1.524 . S
C6933 C6934 1.415 . S
C6934 H6910 0.950 . S
C6934 C6929 1.363 . S
C6934 C6933 1.415 . S
C6935 H6911 0.951 . S
C6935 C6936 1.366 . S
C6935 C6937 1.388 . S
C6936 C6935 1.366 . S
C6936 C6940 1.385 . S
C6937 H6912 0.951 . S
C6937 C6935 1.388 . S
C6937 C6938 1.366 . S
C6938 C6937 1.366 . S
C6938 C6939 1.414 . S
C6938 C6941 1.499 . S
C6939 H6913 0.950 . S
C6939 C6938 1.414 . S
C6939 C6940 1.374 . S
C6940 H6914 0.950 . S
C6940 C6936 1.385 . S
C6940 C6939 1.374 . S
C6941 C6938 1.499 . S
C6941 C6942 1.373 . S
C6941 C6943 1.389 . S
C6942 H6915 0.950 . S
C6942 C6928 1.377 . S
C6942 C6941 1.373 . S
C6943 C6927 1.377 . S
C6943 C6941 1.389 . S
C6943 C6944 1.524 . S
C6944 C6943 1.524 . S
C6944 C6945 1.397 . S
C6944 C6949 1.363 . S
C6945 H6916 0.950 . S
C6945 C6944 1.397 . S
C6945 C6946 1.334 . S
C6946 H6917 0.950 . S
C6946 C6945 1.334 . S
C6946 C6947 1.287 . S
C6947 C6946 1.287 . S
C6947 C6948 1.524 . S
C6947 H6950 0.999 . S
C6948 H6918 0.950 . S
C6948 C6947 1.524 . S
C6948 C6949 1.415 . S
C6949 H6919 0.950 . S
C6949 C6944 1.363 . S
C6949 C6948 1.415 . S
H6950 C6947 0.999 . S
H6951 C6932 0.913 . S
H6952 C6970 0.951 . S
H6953 C6972 0.951 . S
H6954 C6974 0.950 . S
H6955 C6975 0.950 . S
H6956 C6977 0.950 . S
H6957 C6980 0.950 . S
H6958 C6981 0.950 . S
H6959 C6983 0.950 . S
H6960 C6984 0.950 . S
H6961 C6985 0.951 . S
H6962 C6987 0.951 . S
H6963 C6989 0.950 . S
H6964 C6990 0.950 . S
H6965 C6992 0.950 . S
H6966 C6995 0.950 . S
H6967 C6996 0.950 . S
H6968 C6998 0.950 . S
H6969 C6999 0.950 . S
C6970 H6952 0.951 . S
C6970 C6971 1.366 . S
C6970 C6972 1.388 . S
C6971 C6970 1.366 . S
C6971 C6975 1.385 . S
C6972 H6953 0.951 . S
C6972 C6970 1.388 . S
C6972 C6973 1.366 . S
C6973 C6972 1.366 . S
C6973 C6974 1.414 . S
C6973 C6976 1.499 . S
C6974 H6954 0.950 . S
C6974 C6973 1.414 . S
C6974 C6975 1.374 . S
C6975 H6955 0.950 . S
C6975 C6971 1.385 . S
C6975 C6974 1.374 . S
C6976 C6973 1.499 . S
C6976 C6977 1.373 . S
C6976 C6978 1.389 . S
C6977 H6956 0.950 . S
C6977 C6976 1.373 . S
C6977 C6993 1.377 . S
C6978 C6976 1.389 . S
C6978 C6979 1.524 . S
C6978 C6992 1.377 . S
C6979 C6978 1.524 . S
C6979 C6980 1.397 . S
C6979 C6984 1.363 . S
C6980 H6957 0.950 . S
C6980 C6979 1.397 . S
C6980 C6981 1.334 . S
C6981 H6958 0.950 . S
C6981 C6980 1.334 . S
C6981 C6982 1.287 . S
C6982 C6981 1.287 . S
C6982 C6983 1.524 . S
C6982 H7001 0.913 . S
C6983 H6959 0.950 . S
C6983 C6982 1.524 . S
C6983 C6984 1.415 . S
C6984 H6960 0.950 . S
C6984 C6979 1.363 . S
C6984 C6983 1.415 . S
C6985 H6961 0.951 . S
C6985 C6986 1.366 . S
C6985 C6987 1.388 . S
C6986 C6985 1.366 . S
C6986 C6990 1.385 . S
C6987 H6962 0.951 . S
C6987 C6985 1.388 . S
C6987 C6988 1.366 . S
C6988 C6987 1.366 . S
C6988 C6989 1.414 . S
C6988 C6991 1.499 . S
C6989 H6963 0.950 . S
C6989 C6988 1.414 . S
C6989 C6990 1.374 . S
C6990 H6964 0.950 . S
C6990 C6986 1.385 . S
C6990 C6989 1.374 . S
C6991 C6988 1.499 . S
C6991 C6992 1.373 . S
C6991 C6993 1.389 . S
C6992 H6965 0.950 . S
C6992 C6978 1.377 . S
C6992 C6991 1.373 . S
C6993 C6977 1.377 . S
C6993 C6991 1.389 . S
C6993 C6994 1.524 . S
C6994 C6993 1.524 . S
C6994 C6995 1.397 . S
C6994 C6999 1.363 . S
C6995 H6966 0.950 . S
C6995 C6994 1.397 . S
C6995 C6996 1.334 . S
C6996 H6967 0.950 . S
C6996 C6995 1.334 . S
C6996 C6997 1.287 . S
C6997 C6996 1.287 . S
C6997 C6998 1.524 . S
C6997 H7000 0.999 . S
C6998 H6968 0.950 . S
C6998 C6997 1.524 . S
C6998 C6999 1.415 . S
C6999 H6969 0.950 . S
C6999 C6994 1.363 . S
C6999 C6998 1.415 . S
H7000 C6997 0.999 . S
H7001 C6982 0.913 . S
H7002 C7020 0.951 . S
H7003 C7022 0.951 . S
H7004 C7024 0.950 . S
H7005 C7025 0.950 . S
H7006 C7027 0.950 . S
H7007 C7030 0.950 . S
H7008 C7031 0.950 . S
H7009 C7033 0.950 . S
H7010 C7034 0.950 . S
H7011 C7035 0.951 . S
H7012 C7037 0.951 . S
H7013 C7039 0.950 . S
H7014 C7040 0.950 . S
H7015 C7042 0.950 . S
H7016 C7045 0.950 . S
H7017 C7046 0.950 . S
H7018 C7048 0.950 . S
H7019 C7049 0.950 . S
C7020 H7002 0.951 . S
C7020 C7021 1.366 . S
C7020 C7022 1.388 . S
C7021 C7020 1.366 . S
C7021 C7025 1.385 . S
C7022 H7003 0.951 . S
C7022 C7020 1.388 . S
C7022 C7023 1.366 . S
C7023 C7022 1.366 . S
C7023 C7024 1.414 . S
C7023 C7026 1.499 . S
C7024 H7004 0.950 . S
C7024 C7023 1.414 . S
C7024 C7025 1.374 . S
C7025 H7005 0.950 . S
C7025 C7021 1.385 . S
C7025 C7024 1.374 . S
C7026 C7023 1.499 . S
C7026 C7027 1.373 . S
C7026 C7028 1.389 . S
C7027 H7006 0.950 . S
C7027 C7026 1.373 . S
C7027 C7043 1.377 . S
C7028 C7026 1.389 . S
C7028 C7029 1.524 . S
C7028 C7042 1.377 . S
C7029 C7028 1.524 . S
C7029 C7030 1.397 . S
C7029 C7034 1.363 . S
C7030 H7007 0.950 . S
C7030 C7029 1.397 . S
C7030 C7031 1.334 . S
C7031 H7008 0.950 . S
C7031 C7030 1.334 . S
C7031 C7032 1.287 . S
C7032 C7031 1.287 . S
C7032 C7033 1.524 . S
C7032 H7051 0.913 . S
C7033 H7009 0.950 . S
C7033 C7032 1.524 . S
C7033 C7034 1.415 . S
C7034 H7010 0.950 . S
C7034 C7029 1.363 . S
C7034 C7033 1.415 . S
C7035 H7011 0.951 . S
C7035 C7036 1.366 . S
C7035 C7037 1.388 . S
C7036 C7035 1.366 . S
C7036 C7040 1.385 . S
C7037 H7012 0.951 . S
C7037 C7035 1.388 . S
C7037 C7038 1.366 . S
C7038 C7037 1.366 . S
C7038 C7039 1.414 . S
C7038 C7041 1.499 . S
C7039 H7013 0.950 . S
C7039 C7038 1.414 . S
C7039 C7040 1.374 . S
C7040 H7014 0.950 . S
C7040 C7036 1.385 . S
C7040 C7039 1.374 . S
C7041 C7038 1.499 . S
C7041 C7042 1.373 . S
C7041 C7043 1.389 . S
C7042 H7015 0.950 . S
C7042 C7028 1.377 . S
C7042 C7041 1.373 . S
C7043 C7027 1.377 . S
C7043 C7041 1.389 . S
C7043 C7044 1.524 . S
C7044 C7043 1.524 . S
C7044 C7045 1.397 . S
C7044 C7049 1.363 . S
C7045 H7016 0.950 . S
C7045 C7044 1.397 . S
C7045 C7046 1.334 . S
C7046 H7017 0.950 . S
C7046 C7045 1.334 . S
C7046 C7047 1.287 . S
C7047 C7046 1.287 . S
C7047 C7048 1.524 . S
C7047 H7050 0.999 . S
C7048 H7018 0.950 . S
C7048 C7047 1.524 . S
C7048 C7049 1.415 . S
C7049 H7019 0.950 . S
C7049 C7044 1.363 . S
C7049 C7048 1.415 . S
H7050 C7047 0.999 . S
H7051 C7032 0.913 . S
H7052 C7070 0.951 . S
H7053 C7072 0.951 . S
H7054 C7074 0.950 . S
H7055 C7075 0.950 . S
H7056 C7077 0.950 . S
H7057 C7080 0.950 . S
H7058 C7081 0.950 . S
H7059 C7083 0.950 . S
H7060 C7084 0.950 . S
H7061 C7085 0.951 . S
H7062 C7087 0.951 . S
H7063 C7089 0.950 . S
H7064 C7090 0.950 . S
H7065 C7092 0.950 . S
H7066 C7095 0.970 . S
H7067 C7096 0.950 . S
H7068 C7098 0.950 . S
H7069 C7099 0.950 . S
C7070 H7052 0.951 . S
C7070 C7071 1.366 . S
C7070 C7072 1.388 . S
C7071 C7070 1.366 . S
C7071 C7075 1.385 . S
C7072 H7053 0.951 . S
C7072 C7070 1.388 . S
C7072 C7073 1.366 . S
C7073 C7072 1.366 . S
C7073 C7074 1.414 . S
C7073 C7076 1.499 . S
C7074 H7054 0.950 . S
C7074 C7073 1.414 . S
C7074 C7075 1.374 . S
C7075 H7055 0.950 . S
C7075 C7071 1.385 . S
C7075 C7074 1.374 . S
C7076 C7073 1.499 . S
C7076 C7077 1.373 . S
C7076 C7078 1.389 . S
C7077 H7056 0.950 . S
C7077 C7076 1.373 . S
C7077 C7093 1.377 . S
C7078 C7076 1.389 . S
C7078 C7079 1.524 . S
C7078 C7092 1.377 . S
C7079 C7078 1.524 . S
C7079 C7080 1.397 . S
C7079 C7084 1.363 . S
C7080 H7057 0.950 . S
C7080 C7079 1.397 . S
C7080 C7081 1.334 . S
C7081 H7058 0.950 . S
C7081 C7080 1.334 . S
C7081 C7082 1.287 . S
C7082 C7081 1.287 . S
C7082 C7083 1.524 . S
C7082 H7101 0.913 . S
C7083 H7059 0.950 . S
C7083 C7082 1.524 . S
C7083 C7084 1.415 . S
C7084 H7060 0.950 . S
C7084 C7079 1.363 . S
C7084 C7083 1.415 . S
C7085 H7061 0.951 . S
C7085 C7086 1.366 1_455 S
C7085 C7087 1.388 . S
C7086 C7085 1.366 1_655 S
C7086 C7090 1.385 . S
C7087 H7062 0.951 . S
C7087 C7085 1.388 . S
C7087 C7088 1.366 1_455 S
C7088 C7087 1.366 1_655 S
C7088 C7089 1.414 . S
C7088 C7091 1.499 . S
C7089 H7063 0.950 . S
C7089 C7088 1.414 . S
C7089 C7090 1.374 . S
C7090 H7064 0.950 . S
C7090 C7086 1.385 . S
C7090 C7089 1.374 . S
C7091 C7088 1.499 . S
C7091 C7092 1.373 . S
C7091 C7093 1.389 . S
C7092 H7065 0.950 . S
C7092 C7078 1.377 . S
C7092 C7091 1.373 . S
C7093 C7077 1.377 . S
C7093 C7091 1.389 . S
C7093 C7094 1.524 1_655 S
C7094 C7093 1.524 1_455 S
C7094 C7095 1.394 1_455 S
C7094 C7099 1.363 . S
C7095 H7066 0.970 . S
C7095 C7094 1.394 1_655 S
C7095 C7096 1.318 1_655 S
C7096 H7067 0.950 . S
C7096 C7095 1.318 1_455 S
C7096 C7097 1.287 . S
C7097 C7096 1.287 . S
C7097 C7098 1.524 . S
C7097 H7100 0.999 . S
C7098 H7068 0.950 . S
C7098 C7097 1.524 . S
C7098 C7099 1.415 . S
C7099 H7069 0.950 . S
C7099 C7094 1.363 . S
C7099 C7098 1.415 . S
H7100 C7097 0.999 . S
H7101 C7082 0.913 . S
H7102 C7120 0.951 . S
H7103 C7122 0.951 . S
H7104 C7124 0.950 . S
H7105 C7125 0.950 . S
H7106 C7127 0.950 . S
H7107 C7130 0.950 . S
H7108 C7131 0.950 . S
H7109 C7133 0.950 . S
H7110 C7134 0.950 . S
H7111 C7135 0.951 . S
H7112 C7137 0.951 . S
H7113 C7139 0.950 . S
H7114 C7140 0.950 . S
H7115 C7142 0.950 . S
H7116 C7145 0.950 . S
H7117 C7146 0.950 . S
H7118 C7148 0.950 . S
H7119 C7149 0.950 . S
C7120 H7102 0.951 . S
C7120 C7121 1.366 . S
C7120 C7122 1.388 . S
C7121 C7120 1.366 . S
C7121 C7125 1.385 . S
C7122 H7103 0.951 . S
C7122 C7120 1.388 . S
C7122 C7123 1.366 . S
C7123 C7122 1.366 . S
C7123 C7124 1.414 . S
C7123 C7126 1.499 . S
C7124 H7104 0.950 . S
C7124 C7123 1.414 . S
C7124 C7125 1.374 . S
C7125 H7105 0.950 . S
C7125 C7121 1.385 . S
C7125 C7124 1.374 . S
C7126 C7123 1.499 . S
C7126 C7127 1.373 . S
C7126 C7128 1.389 . S
C7127 H7106 0.950 . S
C7127 C7126 1.373 . S
C7127 C7143 1.377 . S
C7128 C7126 1.389 . S
C7128 C7129 1.524 . S
C7128 C7142 1.377 . S
C7129 C7128 1.524 . S
C7129 C7130 1.397 . S
C7129 C7134 1.363 . S
C7130 H7107 0.950 . S
C7130 C7129 1.397 . S
C7130 C7131 1.334 . S
C7131 H7108 0.950 . S
C7131 C7130 1.334 . S
C7131 C7132 1.287 . S
C7132 C7131 1.287 . S
C7132 C7133 1.524 . S
C7132 H7151 0.913 . S
C7133 H7109 0.950 . S
C7133 C7132 1.524 . S
C7133 C7134 1.415 . S
C7134 H7110 0.950 . S
C7134 C7129 1.363 . S
C7134 C7133 1.415 . S
C7135 H7111 0.951 . S
C7135 C7136 1.366 . S
C7135 C7137 1.388 . S
C7136 C7135 1.366 . S
C7136 C7140 1.385 . S
C7137 H7112 0.951 . S
C7137 C7135 1.388 . S
C7137 C7138 1.366 . S
C7138 C7137 1.366 . S
C7138 C7139 1.414 . S
C7138 C7141 1.499 . S
C7139 H7113 0.950 . S
C7139 C7138 1.414 . S
C7139 C7140 1.374 . S
C7140 H7114 0.950 . S
C7140 C7136 1.385 . S
C7140 C7139 1.374 . S
C7141 C7138 1.499 . S
C7141 C7142 1.373 . S
C7141 C7143 1.389 . S
C7142 H7115 0.950 . S
C7142 C7128 1.377 . S
C7142 C7141 1.373 . S
C7143 C7127 1.377 . S
C7143 C7141 1.389 . S
C7143 C7144 1.524 . S
C7144 C7143 1.524 . S
C7144 C7145 1.397 . S
C7144 C7149 1.363 . S
C7145 H7116 0.950 . S
C7145 C7144 1.397 . S
C7145 C7146 1.334 . S
C7146 H7117 0.950 . S
C7146 C7145 1.334 . S
C7146 C7147 1.287 . S
C7147 C7146 1.287 . S
C7147 C7148 1.524 . S
C7147 H7150 0.999 . S
C7148 H7118 0.950 . S
C7148 C7147 1.524 . S
C7148 C7149 1.415 . S
C7149 H7119 0.950 . S
C7149 C7144 1.363 . S
C7149 C7148 1.415 . S
H7150 C7147 0.999 . S
H7151 C7132 0.913 . S
H7152 C7170 0.951 . S
H7153 C7172 0.951 . S
H7154 C7174 0.950 . S
H7155 C7175 0.950 . S
H7156 C7177 0.950 . S
H7157 C7180 0.950 . S
H7158 C7181 0.950 . S
H7159 C7183 0.950 . S
H7160 C7184 0.950 . S
H7161 C7185 0.951 . S
H7162 C7187 0.951 . S
H7163 C7189 0.950 . S
H7164 C7190 0.950 . S
H7165 C7192 0.950 . S
H7166 C7195 0.950 . S
H7167 C7196 0.950 . S
H7168 C7198 0.950 . S
H7169 C7199 0.950 . S
C7170 H7152 0.951 . S
C7170 C7171 1.366 . S
C7170 C7172 1.388 . S
C7171 C7170 1.366 . S
C7171 C7175 1.385 . S
C7172 H7153 0.951 . S
C7172 C7170 1.388 . S
C7172 C7173 1.366 . S
C7173 C7172 1.366 . S
C7173 C7174 1.414 . S
C7173 C7176 1.499 . S
C7174 H7154 0.950 . S
C7174 C7173 1.414 . S
C7174 C7175 1.374 . S
C7175 H7155 0.950 . S
C7175 C7171 1.385 . S
C7175 C7174 1.374 . S
C7176 C7173 1.499 . S
C7176 C7177 1.373 . S
C7176 C7178 1.389 . S
C7177 H7156 0.950 . S
C7177 C7176 1.373 . S
C7177 C7193 1.377 . S
C7178 C7176 1.389 . S
C7178 C7179 1.524 . S
C7178 C7192 1.377 . S
C7179 C7178 1.524 . S
C7179 C7180 1.397 . S
C7179 C7184 1.363 . S
C7180 H7157 0.950 . S
C7180 C7179 1.397 . S
C7180 C7181 1.334 . S
C7181 H7158 0.950 . S
C7181 C7180 1.334 . S
C7181 C7182 1.287 . S
C7182 C7181 1.287 . S
C7182 C7183 1.524 . S
C7182 H7201 0.913 . S
C7183 H7159 0.950 . S
C7183 C7182 1.524 . S
C7183 C7184 1.415 . S
C7184 H7160 0.950 . S
C7184 C7179 1.363 . S
C7184 C7183 1.415 . S
C7185 H7161 0.951 . S
C7185 C7186 1.366 . S
C7185 C7187 1.388 . S
C7186 C7185 1.366 . S
C7186 C7190 1.385 . S
C7187 H7162 0.951 . S
C7187 C7185 1.388 . S
C7187 C7188 1.366 . S
C7188 C7187 1.366 . S
C7188 C7189 1.414 . S
C7188 C7191 1.499 . S
C7189 H7163 0.950 . S
C7189 C7188 1.414 . S
C7189 C7190 1.374 . S
C7190 H7164 0.950 . S
C7190 C7186 1.385 . S
C7190 C7189 1.374 . S
C7191 C7188 1.499 . S
C7191 C7192 1.373 . S
C7191 C7193 1.389 . S
C7192 H7165 0.950 . S
C7192 C7178 1.377 . S
C7192 C7191 1.373 . S
C7193 C7177 1.377 . S
C7193 C7191 1.389 . S
C7193 C7194 1.524 . S
C7194 C7193 1.524 . S
C7194 C7195 1.397 . S
C7194 C7199 1.363 . S
C7195 H7166 0.950 . S
C7195 C7194 1.397 . S
C7195 C7196 1.334 . S
C7196 H7167 0.950 . S
C7196 C7195 1.334 . S
C7196 C7197 1.287 . S
C7197 C7196 1.287 . S
C7197 C7198 1.524 . S
C7197 H7200 0.999 . S
C7198 H7168 0.950 . S
C7198 C7197 1.524 . S
C7198 C7199 1.415 . S
C7199 H7169 0.950 . S
C7199 C7194 1.363 . S
C7199 C7198 1.415 . S
H7200 C7197 0.999 . S
H7201 C7182 0.913 . S
H7202 C7220 0.951 . S
H7203 C7222 0.951 . S
H7204 C7224 0.950 . S
H7205 C7225 0.950 . S
H7206 C7227 0.950 . S
H7207 C7230 0.950 . S
H7208 C7231 0.950 . S
H7209 C7233 0.950 . S
H7210 C7234 0.950 . S
H7211 C7235 0.951 . S
H7212 C7237 0.951 . S
H7213 C7239 0.950 . S
H7214 C7240 0.950 . S
H7215 C7242 0.950 . S
H7216 C7245 0.950 . S
H7217 C7246 0.950 . S
H7218 C7248 0.950 . S
H7219 C7249 0.950 . S
C7220 H7202 0.951 . S
C7220 C7221 1.366 1_545 S
C7220 C7222 1.388 . S
C7221 C7220 1.366 1_565 S
C7221 C7225 1.385 . S
C7222 H7203 0.951 . S
C7222 C7220 1.388 . S
C7222 C7223 1.362 1_545 S
C7223 C7222 1.362 1_565 S
C7223 C7224 1.420 . S
C7223 C7226 1.497 1_565 S
C7224 H7204 0.950 . S
C7224 C7223 1.420 . S
C7224 C7225 1.374 . S
C7225 H7205 0.950 . S
C7225 C7221 1.385 . S
C7225 C7224 1.374 . S
C7226 C7223 1.497 1_545 S
C7226 C7227 1.373 1_545 S
C7226 C7228 1.389 . S
C7227 H7206 0.950 . S
C7227 C7226 1.373 1_565 S
C7227 C7243 1.377 . S
C7228 C7226 1.389 . S
C7228 C7229 1.524 . S
C7228 C7242 1.377 . S
C7229 C7228 1.524 . S
C7229 C7230 1.397 . S
C7229 C7234 1.363 . S
C7230 H7207 0.950 . S
C7230 C7229 1.397 . S
C7230 C7231 1.334 . S
C7231 H7208 0.950 . S
C7231 C7230 1.334 . S
C7231 C7232 1.287 . S
C7232 C7231 1.287 . S
C7232 C7233 1.524 . S
C7232 H7251 0.913 . S
C7233 H7209 0.950 . S
C7233 C7232 1.524 . S
C7233 C7234 1.415 . S
C7234 H7210 0.950 . S
C7234 C7229 1.363 . S
C7234 C7233 1.415 . S
C7235 H7211 0.951 . S
C7235 C7236 1.366 . S
C7235 C7237 1.388 . S
C7236 C7235 1.366 . S
C7236 C7240 1.385 . S
C7237 H7212 0.951 . S
C7237 C7235 1.388 . S
C7237 C7238 1.366 . S
C7238 C7237 1.366 . S
C7238 C7239 1.414 . S
C7238 C7241 1.499 . S
C7239 H7213 0.950 . S
C7239 C7238 1.414 . S
C7239 C7240 1.374 . S
C7240 H7214 0.950 . S
C7240 C7236 1.385 . S
C7240 C7239 1.374 . S
C7241 C7238 1.499 . S
C7241 C7242 1.373 . S
C7241 C7243 1.389 1_545 S
C7242 H7215 0.950 . S
C7242 C7228 1.377 . S
C7242 C7241 1.373 . S
C7243 C7227 1.377 . S
C7243 C7241 1.389 1_565 S
C7243 C7244 1.524 . S
C7244 C7243 1.524 . S
C7244 C7245 1.397 . S
C7244 C7249 1.363 . S
C7245 H7216 0.950 . S
C7245 C7244 1.397 . S
C7245 C7246 1.334 . S
C7246 H7217 0.950 . S
C7246 C7245 1.334 . S
C7246 C7247 1.287 . S
C7247 C7246 1.287 . S
C7247 C7248 1.524 . S
C7247 H7250 0.999 . S
C7248 H7218 0.950 . S
C7248 C7247 1.524 . S
C7248 C7249 1.415 . S
C7249 H7219 0.950 . S
C7249 C7244 1.363 . S
C7249 C7248 1.415 . S
H7250 C7247 0.999 . S
H7251 C7232 0.913 . S
H7252 C7270 0.951 . S
H7253 C7272 0.951 . S
H7254 C7274 0.950 . S
H7255 C7275 0.950 . S
H7256 C7277 0.950 . S
H7257 C7280 0.950 . S
H7258 C7281 0.950 . S
H7259 C7283 0.950 . S
H7260 C7284 0.950 . S
H7261 C7285 0.951 . S
H7262 C7287 0.951 . S
H7263 C7289 0.950 . S
H7264 C7290 0.950 . S
H7265 C7292 0.950 . S
H7266 C7295 0.950 . S
H7267 C7296 0.950 . S
H7268 C7298 0.950 . S
H7269 C7299 0.950 . S
C7270 H7252 0.951 . S
C7270 C7271 1.366 . S
C7270 C7272 1.388 . S
C7271 C7270 1.366 . S
C7271 C7275 1.385 . S
C7272 H7253 0.951 . S
C7272 C7270 1.388 . S
C7272 C7273 1.366 . S
C7273 C7272 1.366 . S
C7273 C7274 1.414 . S
C7273 C7276 1.499 . S
C7274 H7254 0.950 . S
C7274 C7273 1.414 . S
C7274 C7275 1.374 . S
C7275 H7255 0.950 . S
C7275 C7271 1.385 . S
C7275 C7274 1.374 . S
C7276 C7273 1.499 . S
C7276 C7277 1.373 . S
C7276 C7278 1.389 . S
C7277 H7256 0.950 . S
C7277 C7276 1.373 . S
C7277 C7293 1.377 . S
C7278 C7276 1.389 . S
C7278 C7279 1.524 . S
C7278 C7292 1.377 . S
C7279 C7278 1.524 . S
C7279 C7280 1.397 . S
C7279 C7284 1.363 . S
C7280 H7257 0.950 . S
C7280 C7279 1.397 . S
C7280 C7281 1.334 . S
C7281 H7258 0.950 . S
C7281 C7280 1.334 . S
C7281 C7282 1.287 . S
C7282 C7281 1.287 . S
C7282 C7283 1.524 . S
C7282 H7301 0.913 . S
C7283 H7259 0.950 . S
C7283 C7282 1.524 . S
C7283 C7284 1.415 . S
C7284 H7260 0.950 . S
C7284 C7279 1.363 . S
C7284 C7283 1.415 . S
C7285 H7261 0.951 . S
C7285 C7286 1.366 . S
C7285 C7287 1.388 . S
C7286 C7285 1.366 . S
C7286 C7290 1.385 . S
C7287 H7262 0.951 . S
C7287 C7285 1.388 . S
C7287 C7288 1.366 . S
C7288 C7287 1.366 . S
C7288 C7289 1.414 . S
C7288 C7291 1.499 . S
C7289 H7263 0.950 . S
C7289 C7288 1.414 . S
C7289 C7290 1.374 . S
C7290 H7264 0.950 . S
C7290 C7286 1.385 . S
C7290 C7289 1.374 . S
C7291 C7288 1.499 . S
C7291 C7292 1.373 . S
C7291 C7293 1.389 . S
C7292 H7265 0.950 . S
C7292 C7278 1.377 . S
C7292 C7291 1.373 . S
C7293 C7277 1.377 . S
C7293 C7291 1.389 . S
C7293 C7294 1.524 . S
C7294 C7293 1.524 . S
C7294 C7295 1.397 . S
C7294 C7299 1.363 . S
C7295 H7266 0.950 . S
C7295 C7294 1.397 . S
C7295 C7296 1.334 . S
C7296 H7267 0.950 . S
C7296 C7295 1.334 . S
C7296 C7297 1.287 . S
C7297 C7296 1.287 . S
C7297 C7298 1.524 . S
C7297 H7300 0.999 . S
C7298 H7268 0.950 . S
C7298 C7297 1.524 . S
C7298 C7299 1.415 . S
C7299 H7269 0.950 . S
C7299 C7294 1.363 . S
C7299 C7298 1.415 . S
H7300 C7297 0.999 . S
H7301 C7282 0.913 . S
H7302 C7320 0.951 . S
H7303 C7322 0.951 . S
H7304 C7324 0.950 . S
H7305 C7325 0.950 . S
H7306 C7327 0.950 . S
H7307 C7330 0.950 . S
H7308 C7331 0.950 . S
H7309 C7333 0.950 . S
H7310 C7334 0.950 . S
H7311 C7335 0.951 . S
H7312 C7337 0.951 . S
H7313 C7339 0.950 . S
H7314 C7340 0.950 . S
H7315 C7342 0.950 . S
H7316 C7345 0.950 . S
H7317 C7346 0.950 . S
H7318 C7348 0.950 . S
H7319 C7349 0.950 . S
C7320 H7302 0.951 . S
C7320 C7321 1.366 . S
C7320 C7322 1.388 . S
C7321 C7320 1.366 . S
C7321 C7325 1.385 . S
C7322 H7303 0.951 . S
C7322 C7320 1.388 . S
C7322 C7323 1.366 . S
C7323 C7322 1.366 . S
C7323 C7324 1.414 . S
C7323 C7326 1.499 . S
C7324 H7304 0.950 . S
C7324 C7323 1.414 . S
C7324 C7325 1.374 . S
C7325 H7305 0.950 . S
C7325 C7321 1.385 . S
C7325 C7324 1.374 . S
C7326 C7323 1.499 . S
C7326 C7327 1.373 . S
C7326 C7328 1.389 . S
C7327 H7306 0.950 . S
C7327 C7326 1.373 . S
C7327 C7343 1.377 . S
C7328 C7326 1.389 . S
C7328 C7329 1.524 1_554 S
C7328 C7342 1.377 . S
C7329 C7328 1.524 1_556 S
C7329 C7330 1.397 . S
C7329 C7334 1.363 . S
C7330 H7307 0.950 . S
C7330 C7329 1.397 . S
C7330 C7331 1.334 . S
C7331 H7308 0.950 . S
C7331 C7330 1.334 . S
C7331 C7332 1.287 . S
C7332 C7331 1.287 . S
C7332 C7333 1.524 . S
C7332 H7351 0.913 . S
C7333 H7309 0.950 . S
C7333 C7332 1.524 . S
C7333 C7334 1.415 . S
C7334 H7310 0.950 . S
C7334 C7329 1.363 . S
C7334 C7333 1.415 . S
C7335 H7311 0.951 . S
C7335 C7336 1.366 . S
C7335 C7337 1.388 . S
C7336 C7335 1.366 . S
C7336 C7340 1.385 . S
C7337 H7312 0.951 . S
C7337 C7335 1.388 . S
C7337 C7338 1.366 . S
C7338 C7337 1.366 . S
C7338 C7339 1.414 . S
C7338 C7341 1.499 . S
C7339 H7313 0.950 . S
C7339 C7338 1.414 . S
C7339 C7340 1.374 . S
C7340 H7314 0.950 . S
C7340 C7336 1.385 . S
C7340 C7339 1.374 . S
C7341 C7338 1.499 . S
C7341 C7342 1.373 . S
C7341 C7343 1.389 . S
C7342 H7315 0.950 . S
C7342 C7328 1.377 . S
C7342 C7341 1.373 . S
C7343 C7327 1.377 . S
C7343 C7341 1.389 . S
C7343 C7344 1.524 . S
C7344 C7343 1.524 . S
C7344 C7345 1.397 . S
C7344 C7349 1.363 . S
C7345 H7316 0.950 . S
C7345 C7344 1.397 . S
C7345 C7346 1.334 . S
C7346 H7317 0.950 . S
C7346 C7345 1.334 . S
C7346 C7347 1.287 . S
C7347 C7346 1.287 . S
C7347 C7348 1.524 . S
C7347 H7350 0.999 . S
C7348 H7318 0.950 . S
C7348 C7347 1.524 . S
C7348 C7349 1.415 . S
C7349 H7319 0.950 . S
C7349 C7344 1.363 . S
C7349 C7348 1.415 . S
H7350 C7347 0.999 . S
H7351 C7332 0.913 . S
H7352 C7370 0.951 . S
H7353 C7372 0.951 . S
H7354 C7374 0.950 . S
H7355 C7375 0.950 . S
H7356 C7377 0.950 . S
H7357 C7380 0.950 . S
H7358 C7381 0.950 . S
H7359 C7383 0.950 . S
H7360 C7384 0.950 . S
H7361 C7385 0.951 . S
H7362 C7387 0.951 . S
H7363 C7389 0.950 . S
H7364 C7390 0.950 . S
H7365 C7392 0.950 . S
H7366 C7395 0.950 . S
H7367 C7396 0.950 . S
H7368 C7398 0.950 . S
H7369 C7399 0.950 . S
C7370 H7352 0.951 . S
C7370 C7371 1.366 . S
C7370 C7372 1.388 . S
C7371 C7370 1.366 . S
C7371 C7375 1.385 . S
C7372 H7353 0.951 . S
C7372 C7370 1.388 . S
C7372 C7373 1.366 . S
C7373 C7372 1.366 . S
C7373 C7374 1.414 . S
C7373 C7376 1.499 . S
C7374 H7354 0.950 . S
C7374 C7373 1.414 . S
C7374 C7375 1.374 . S
C7375 H7355 0.950 . S
C7375 C7371 1.385 . S
C7375 C7374 1.374 . S
C7376 C7373 1.499 . S
C7376 C7377 1.373 . S
C7376 C7378 1.389 . S
C7377 H7356 0.950 . S
C7377 C7376 1.373 . S
C7377 C7393 1.377 . S
C7378 C7376 1.389 . S
C7378 C7379 1.524 . S
C7378 C7392 1.377 . S
C7379 C7378 1.524 . S
C7379 C7380 1.397 . S
C7379 C7384 1.363 . S
C7380 H7357 0.950 . S
C7380 C7379 1.397 . S
C7380 C7381 1.334 . S
C7381 H7358 0.950 . S
C7381 C7380 1.334 . S
C7381 C7382 1.287 . S
C7382 C7381 1.287 . S
C7382 C7383 1.524 . S
C7382 H7401 0.913 . S
C7383 H7359 0.950 . S
C7383 C7382 1.524 . S
C7383 C7384 1.415 . S
C7384 H7360 0.950 . S
C7384 C7379 1.363 . S
C7384 C7383 1.415 . S
C7385 H7361 0.951 . S
C7385 C7386 1.366 . S
C7385 C7387 1.388 . S
C7386 C7385 1.366 . S
C7386 C7390 1.385 . S
C7387 H7362 0.951 . S
C7387 C7385 1.388 . S
C7387 C7388 1.366 . S
C7388 C7387 1.366 . S
C7388 C7389 1.414 . S
C7388 C7391 1.499 . S
C7389 H7363 0.950 . S
C7389 C7388 1.414 . S
C7389 C7390 1.374 . S
C7390 H7364 0.950 . S
C7390 C7386 1.385 . S
C7390 C7389 1.374 . S
C7391 C7388 1.499 . S
C7391 C7392 1.373 . S
C7391 C7393 1.389 . S
C7392 H7365 0.950 . S
C7392 C7378 1.377 . S
C7392 C7391 1.373 . S
C7393 C7377 1.377 . S
C7393 C7391 1.389 . S
C7393 C7394 1.524 . S
C7394 C7393 1.524 . S
C7394 C7395 1.397 . S
C7394 C7399 1.363 . S
C7395 H7366 0.950 . S
C7395 C7394 1.397 . S
C7395 C7396 1.334 . S
C7396 H7367 0.950 . S
C7396 C7395 1.334 . S
C7396 C7397 1.287 . S
C7397 C7396 1.287 . S
C7397 C7398 1.524 . S
C7397 H7400 0.999 . S
C7398 H7368 0.950 . S
C7398 C7397 1.524 . S
C7398 C7399 1.415 . S
C7399 H7369 0.950 . S
C7399 C7394 1.363 . S
C7399 C7398 1.415 . S
H7400 C7397 0.999 . S
H7401 C7382 0.913 . S
H7402 C7420 0.951 . S
H7403 C7422 0.951 . S
H7404 C7424 0.950 . S
H7405 C7425 0.950 . S
H7406 C7427 0.950 . S
H7407 C7430 0.950 . S
H7408 C7431 0.950 . S
H7409 C7433 0.950 . S
H7410 C7434 0.950 . S
H7411 C7435 0.951 . S
H7412 C7437 0.951 . S
H7413 C7439 0.950 . S
H7414 C7440 0.950 1_556 S
H7415 C7442 0.950 . S
H7416 C7445 0.970 . S
H7417 C7446 0.950 . S
H7418 C7448 0.950 . S
H7419 C7449 0.950 . S
C7420 H7402 0.951 . S
C7420 C7421 1.366 . S
C7420 C7422 1.388 . S
C7421 C7420 1.366 . S
C7421 C7425 1.385 . S
C7422 H7403 0.951 . S
C7422 C7420 1.388 . S
C7422 C7423 1.366 . S
C7423 C7422 1.366 . S
C7423 C7424 1.414 . S
C7423 C7426 1.499 . S
C7424 H7404 0.950 . S
C7424 C7423 1.414 . S
C7424 C7425 1.374 . S
C7425 H7405 0.950 . S
C7425 C7421 1.385 . S
C7425 C7424 1.374 . S
C7426 C7423 1.499 . S
C7426 C7427 1.373 . S
C7426 C7428 1.389 . S
C7427 H7406 0.950 . S
C7427 C7426 1.373 . S
C7427 C7443 1.377 . S
C7428 C7426 1.389 . S
C7428 C7429 1.524 . S
C7428 C7442 1.377 . S
C7429 C7428 1.524 . S
C7429 C7430 1.397 . S
C7429 C7434 1.363 . S
C7430 H7407 0.950 . S
C7430 C7429 1.397 . S
C7430 C7431 1.334 . S
C7431 H7408 0.950 . S
C7431 C7430 1.334 . S
C7431 C7432 1.287 . S
C7432 C7431 1.287 . S
C7432 C7433 1.524 . S
C7432 H7451 0.913 . S
C7433 H7409 0.950 . S
C7433 C7432 1.524 . S
C7433 C7434 1.415 . S
C7434 H7410 0.950 . S
C7434 C7429 1.363 . S
C7434 C7433 1.415 . S
C7435 H7411 0.951 . S
C7435 C7436 1.366 . S
C7435 C7437 1.388 . S
C7436 C7435 1.366 . S
C7436 C7440 1.385 . S
C7437 H7412 0.951 . S
C7437 C7435 1.388 . S
C7437 C7438 1.366 . S
C7438 C7437 1.366 . S
C7438 C7439 1.414 . S
C7438 C7441 1.499 . S
C7439 H7413 0.950 . S
C7439 C7438 1.414 . S
C7439 C7440 1.374 . S
C7440 H7414 0.950 1_554 S
C7440 C7436 1.385 . S
C7440 C7439 1.374 . S
C7441 C7438 1.499 . S
C7441 C7442 1.373 . S
C7441 C7443 1.389 . S
C7442 H7415 0.950 . S
C7442 C7428 1.377 . S
C7442 C7441 1.373 . S
C7443 C7427 1.377 . S
C7443 C7441 1.389 . S
C7443 C7444 1.524 . S
C7444 C7443 1.524 . S
C7444 C7445 1.397 . S
C7444 C7449 1.363 . S
C7445 H7416 0.970 . S
C7445 C7444 1.397 . S
C7445 C7446 1.334 1_554 S
C7446 H7417 0.950 . S
C7446 C7445 1.334 1_556 S
C7446 C7447 1.287 1_556 S
C7447 C7446 1.287 1_554 S
C7447 C7448 1.524 . S
C7447 H7450 0.999 1_554 S
C7448 H7418 0.950 . S
C7448 C7447 1.524 . S
C7448 C7449 1.415 . S
C7449 H7419 0.950 . S
C7449 C7444 1.363 . S
C7449 C7448 1.415 . S
H7450 C7447 0.999 1_556 S
H7451 C7432 0.913 . S
H7452 C7470 0.951 . S
H7453 C7472 0.951 . S
H7454 C7474 0.950 . S
H7455 C7475 0.950 . S
H7456 C7477 0.950 . S
H7457 C7480 0.950 . S
H7458 C7481 0.950 . S
H7459 C7483 0.950 . S
H7460 C7484 0.950 . S
H7461 C7485 0.951 . S
H7462 C7487 0.951 . S
H7463 C7489 0.950 . S
H7464 C7490 0.950 . S
H7465 C7492 0.950 . S
H7466 C7495 0.950 . S
H7467 C7496 0.950 . S
H7468 C7498 0.950 . S
H7469 C7499 0.950 . S
C7470 H7452 0.951 . S
C7470 C7471 1.366 . S
C7470 C7472 1.388 . S
C7471 C7470 1.366 . S
C7471 C7475 1.385 . S
C7472 H7453 0.951 . S
C7472 C7470 1.388 . S
C7472 C7473 1.366 . S
C7473 C7472 1.366 . S
C7473 C7474 1.414 . S
C7473 C7476 1.499 . S
C7474 H7454 0.950 . S
C7474 C7473 1.414 . S
C7474 C7475 1.374 . S
C7475 H7455 0.950 . S
C7475 C7471 1.385 . S
C7475 C7474 1.374 . S
C7476 C7473 1.499 . S
C7476 C7477 1.373 . S
C7476 C7478 1.389 . S
C7477 H7456 0.950 . S
C7477 C7476 1.373 . S
C7477 C7493 1.377 . S
C7478 C7476 1.389 . S
C7478 C7479 1.524 . S
C7478 C7492 1.377 . S
C7479 C7478 1.524 . S
C7479 C7480 1.397 . S
C7479 C7484 1.363 . S
C7480 H7457 0.950 . S
C7480 C7479 1.397 . S
C7480 C7481 1.334 . S
C7481 H7458 0.950 . S
C7481 C7480 1.334 . S
C7481 C7482 1.287 . S
C7482 C7481 1.287 . S
C7482 C7483 1.524 . S
C7482 H7501 0.913 . S
C7483 H7459 0.950 . S
C7483 C7482 1.524 . S
C7483 C7484 1.415 . S
C7484 H7460 0.950 . S
C7484 C7479 1.363 . S
C7484 C7483 1.415 . S
C7485 H7461 0.951 . S
C7485 C7486 1.366 . S
C7485 C7487 1.388 . S
C7486 C7485 1.366 . S
C7486 C7490 1.385 . S
C7487 H7462 0.951 . S
C7487 C7485 1.388 . S
C7487 C7488 1.366 . S
C7488 C7487 1.366 . S
C7488 C7489 1.414 . S
C7488 C7491 1.499 . S
C7489 H7463 0.950 . S
C7489 C7488 1.414 . S
C7489 C7490 1.374 . S
C7490 H7464 0.950 . S
C7490 C7486 1.385 . S
C7490 C7489 1.374 . S
C7491 C7488 1.499 . S
C7491 C7492 1.373 . S
C7491 C7493 1.389 . S
C7492 H7465 0.950 . S
C7492 C7478 1.377 . S
C7492 C7491 1.373 . S
C7493 C7477 1.377 . S
C7493 C7491 1.389 . S
C7493 C7494 1.524 . S
C7494 C7493 1.524 . S
C7494 C7495 1.397 . S
C7494 C7499 1.363 . S
C7495 H7466 0.950 . S
C7495 C7494 1.397 . S
C7495 C7496 1.334 . S
C7496 H7467 0.950 . S
C7496 C7495 1.334 . S
C7496 C7497 1.287 . S
C7497 C7496 1.287 . S
C7497 C7498 1.524 . S
C7497 H7500 0.999 . S
C7498 H7468 0.950 . S
C7498 C7497 1.524 . S
C7498 C7499 1.415 . S
C7499 H7469 0.950 . S
C7499 C7494 1.363 . S
C7499 C7498 1.415 . S
H7500 C7497 0.999 . S
H7501 C7482 0.913 . S
H7502 C7520 0.951 . S
H7503 C7522 0.951 . S
H7504 C7524 0.950 . S
H7505 C7525 0.950 . S
H7506 C7527 0.950 . S
H7507 C7530 0.950 . S
H7508 C7531 0.950 . S
H7509 C7533 0.950 . S
H7510 C7534 0.950 . S
H7511 C7535 0.951 . S
H7512 C7537 0.951 . S
H7513 C7539 0.950 . S
H7514 C7540 0.950 . S
H7515 C7542 0.950 . S
H7516 C7545 0.950 . S
H7517 C7546 0.950 . S
H7518 C7548 0.950 . S
H7519 C7549 0.950 . S
C7520 H7502 0.951 . S
C7520 C7521 1.366 . S
C7520 C7522 1.388 . S
C7521 C7520 1.366 . S
C7521 C7525 1.385 . S
C7522 H7503 0.951 . S
C7522 C7520 1.388 . S
C7522 C7523 1.366 . S
C7523 C7522 1.366 . S
C7523 C7524 1.414 . S
C7523 C7526 1.499 . S
C7524 H7504 0.950 . S
C7524 C7523 1.414 . S
C7524 C7525 1.374 . S
C7525 H7505 0.950 . S
C7525 C7521 1.385 . S
C7525 C7524 1.374 . S
C7526 C7523 1.499 . S
C7526 C7527 1.373 . S
C7526 C7528 1.389 . S
C7527 H7506 0.950 . S
C7527 C7526 1.373 . S
C7527 C7543 1.377 . S
C7528 C7526 1.389 . S
C7528 C7529 1.524 . S
C7528 C7542 1.377 . S
C7529 C7528 1.524 . S
C7529 C7530 1.397 . S
C7529 C7534 1.363 . S
C7530 H7507 0.950 . S
C7530 C7529 1.397 . S
C7530 C7531 1.334 . S
C7531 H7508 0.950 . S
C7531 C7530 1.334 . S
C7531 C7532 1.287 . S
C7532 C7531 1.287 . S
C7532 C7533 1.524 . S
C7532 H7551 0.913 . S
C7533 H7509 0.950 . S
C7533 C7532 1.524 . S
C7533 C7534 1.415 . S
C7534 H7510 0.950 . S
C7534 C7529 1.363 . S
C7534 C7533 1.415 . S
C7535 H7511 0.951 . S
C7535 C7536 1.366 . S
C7535 C7537 1.388 . S
C7536 C7535 1.366 . S
C7536 C7540 1.385 . S
C7537 H7512 0.951 . S
C7537 C7535 1.388 . S
C7537 C7538 1.366 . S
C7538 C7537 1.366 . S
C7538 C7539 1.414 . S
C7538 C7541 1.499 . S
C7539 H7513 0.950 . S
C7539 C7538 1.414 . S
C7539 C7540 1.374 . S
C7540 H7514 0.950 . S
C7540 C7536 1.385 . S
C7540 C7539 1.374 . S
C7541 C7538 1.499 . S
C7541 C7542 1.373 . S
C7541 C7543 1.389 . S
C7542 H7515 0.950 . S
C7542 C7528 1.377 . S
C7542 C7541 1.373 . S
C7543 C7527 1.377 . S
C7543 C7541 1.389 . S
C7543 C7544 1.524 . S
C7544 C7543 1.524 . S
C7544 C7545 1.397 . S
C7544 C7549 1.363 . S
C7545 H7516 0.950 . S
C7545 C7544 1.397 . S
C7545 C7546 1.334 . S
C7546 H7517 0.950 . S
C7546 C7545 1.334 . S
C7546 C7547 1.287 . S
C7547 C7546 1.287 . S
C7547 C7548 1.524 . S
C7547 H7550 0.999 . S
C7548 H7518 0.950 . S
C7548 C7547 1.524 . S
C7548 C7549 1.415 . S
C7549 H7519 0.950 . S
C7549 C7544 1.363 . S
C7549 C7548 1.415 . S
H7550 C7547 0.999 . S
H7551 C7532 0.913 . S
C2771 C665 0.935 . S
C2786 C2118 0.917 . S
C2821 C381 1.846 . S
C2836 C2170 1.761 . S
C2871 C460 1.098 . S
C2886 C2202 1.119 . S
C2936 C2251 2.613 . S
C2921 C585 2.602 . S
C2971 C108 0.850 . S
C2986 C2287 0.843 . S
C3036 C2318 0.580 . S
C3021 C196 0.505 . S
C3086 C2370 0.467 . S
C3071 C313 0.412 . S
C3121 C49 0.529 . S
C3136 C2398 0.566 . S
C3186 C2130 1.686 1_655 S
C3171 C1457 1.833 . S
C3221 C1545 1.378 . S
C3236 C2171 1.389 . S
C3286 C2201 2.129 . S
C3271 C1721 2.207 . S
C3336 C2238 0.441 . S
C3321 C1113 0.337 . S
C3371 C1428 1.788 . S
C3386 C2282 1.811 1_655 S
C3436 C2330 2.181 . S
C3421 C1516 2.194 . S
C3486 C2371 1.234 1_556 S
C3471 C1692 1.225 1_545 S
C3536 C2410 1.324 . S
C3521 C1085 1.442 . S
C3586 C2131 2.137 . S
C3571 C988 2.141 . S
C3621 C1817 1.821 . S
C3636 C2441 1.771 . S
C3686 C2491 2.347 . S
C3671 C2081 2.353 . S
C3736 C2518 0.840 . S
C3721 C1993 0.840 . S
C3771 C761 2.355 . S
C3786 C2411 2.349 . S
C3821 C821 0.757 . S
C3836 C2207 0.756 . S
C3871 C2053 2.514 . S
C3886 C2570 2.432 . S
C3936 C2598 0.648 . S
C3921 C1868 0.640 . S
C3986 C2127 0.916 . S
C3971 C372 0.933 . S
C4036 C2601 1.757 . S
C4021 C645 1.842 . S
C4071 C577 1.093 . S
C4086 C2211 1.098 . S
C4121 C497 2.595 . S
C4136 C2562 2.607 . S
C4186 C2278 0.839 . S
C4171 C57 0.846 . S
C4221 C293 0.511 . S
C4236 C2487 0.585 . S
C4286 C2361 0.466 . S
C4271 C205 0.414 . S
C4336 C2647 0.569 . S
C4321 C145 0.528 . S
C4386 C2121 1.713 1_556 S
C4371 C909 1.829 . S
C4436 C2602 1.382 . S
C4421 C1956 1.375 . S
C4471 C724 2.198 . S
C4486 C2210 2.123 . S
C4521 C1780 0.324 . S
C4536 C2567 0.448 . S
C4571 C937 1.785 . S
C4586 C2291 1.805 . S
C4636 C2481 2.178 . S
C4621 C1985 2.186 . S
C4671 C753 1.225 . S
C4686 C2362 1.227 . S
C4721 C1809 1.442 . S
C4736 C2641 1.330 . S
C4771 C1173 2.137 . S
C4786 C2122 2.133 . S
C4821 C1105 1.811 . S
C4836 C2450 1.768 . S
C4871 C1633 2.349 . S
C4886 C2322 2.342 . S
C4921 C1553 0.834 . S
C4936 C2527 0.835 . S
C4986 C2642 2.346 . S
C4971 C1729 2.353 . S
C5021 C1340 0.754 . S
C5036 C2198 0.755 . S
C5086 C2241 2.428 . S
C5071 C1604 2.508 . S
C5136 C2167 0.645 . S
C5121 C1252 0.635 . S
C5171 C489 0.935 . S
C5186 C2678 0.918 . S
C5236 C2610 1.761 . S
C5221 C557 1.846 . S
C5271 C636 1.097 . S
C5286 C2722 1.104 . S
C5321 C409 2.603 . S
C5336 C2571 2.613 . S
C5371 C284 0.850 . S
C5386 C2447 0.844 . S
C5436 C2478 0.580 . S
C5421 C20 0.505 . S
C5486 C2530 0.465 . S
C5471 C137 0.415 . S
C5536 C2638 0.564 . S
C5521 C225 0.528 . S
C5586 C2690 1.716 . S
C5571 C1641 1.833 . S
C5621 C1193 1.378 . S
C5636 C2611 1.389 . S
C5686 C2721 2.128 . S
C5671 C1289 2.207 . S
C5736 C2558 0.438 . S
C5721 C1377 0.327 . S
C5786 C2442 1.811 1_556 S
C5771 C1613 1.788 . S
C5821 C1164 2.193 . S
C5836 C2490 2.181 . S
C5886 C2531 1.234 . S
C5871 C1261 1.229 . S
C5921 C1349 1.442 . S
C5936 C2650 1.323 . S
C5986 C2691 2.137 . S
C5971 C1965 2.141 . S
C6021 C849 1.821 . S
C6036 C2281 1.774 . S
C6086 C2331 2.348 . S
C6071 C929 2.353 . S
C6136 C2358 0.840 . S
C6121 C1017 0.840 . S
C6186 C2651 2.349 . S
C6171 C1897 2.355 . S
C6221 C1789 0.757 . S
C6236 C2727 0.758 . S
C6286 C2250 2.432 . S
C6271 C900 2.514 . S
C6336 C2158 0.648 . S
C6321 C733 0.639 . S
C6371 C548 0.933 . S
C6386 C2687 0.917 . S
C6436 C2161 1.758 . S
C6421 C469 1.842 . S
C6471 C401 1.101 1_655 S
C6486 C2731 1.098 . S
C6521 C673 2.595 . S
C6536 C2242 2.607 . S
C6571 C233 0.846 . S
C6586 C2438 0.818 1_556 S
C6636 C2327 0.585 . S
C6621 C117 0.511 . S
C6671 C29 0.415 . S
C6686 C2521 0.464 . S
C6721 C321 0.526 . S
C6736 C2407 0.567 . S
C6786 C2681 1.713 . S
C6771 C2044 1.829 . S
C6821 C997 1.376 . S
C6836 C2162 1.383 . S
C6886 C2730 2.124 1_556 S
C6871 C1877 2.198 . S
C6921 C812 0.324 . S
C6936 C2247 0.445 . S
C6971 C2073 1.785 . S
C6986 C2451 1.805 . S
C7036 C2321 2.178 . S
C7021 C1025 2.186 . S
C7071 C1905 1.225 . S
C7086 C2522 1.228 1_655 S
C7136 C2401 1.322 . S
C7121 C841 1.442 . S
C7186 C2682 2.133 . S
C7171 C1525 2.137 . S
C7236 C2290 1.768 . S
C7221 C1369 1.811 . S
C7271 C1465 2.348 . S
C7286 C2482 2.342 . S
C7336 C2367 0.835 . S
C7321 C1201 0.834 . S
C7371 C1281 2.353 . S
C7386 C2402 2.346 . S
C7421 C1076 0.753 . S
C7436 C2718 0.752 . S
C7486 C2561 2.428 . S
C7471 C1437 2.564 . S
C7536 C2607 0.646 . S
C7521 C1701 0.634 . S
