# Generated by pormake.
# Topology gar, (4,6)-cn, num edge types: 1
# Building blocks:
#     Node 0, Type 0, BuildingBlock: UXUYUI_clean_sbu_0, # of connection points: 4
#     Node 1, Type 0, BuildingBlock: UXUYUI_clean_sbu_0, # of connection points: 4
#     Node 2, Type 0, BuildingBlock: UXUYUI_clean_sbu_0, # of connection points: 4
#     Node 3, Type 0, BuildingBlock: UXUYUI_clean_sbu_0, # of connection points: 4
#     Node 4, Type 0, BuildingBlock: UXUYUI_clean_sbu_0, # of connection points: 4
#     Node 5, Type 0, BuildingBlock: UXUYUI_clean_sbu_0, # of connection points: 4
#     Node 6, Type 0, BuildingBlock: UXUYUI_clean_sbu_0, # of connection points: 4
#     Node 7, Type 0, BuildingBlock: UXUYUI_clean_sbu_0, # of connection points: 4
#     Node 8, Type 0, BuildingBlock: UXUYUI_clean_sbu_0, # of connection points: 4
#     Node 9, Type 0, BuildingBlock: UXUYUI_clean_sbu_0, # of connection points: 4
#     Node 10, Type 0, BuildingBlock: UXUYUI_clean_sbu_0, # of connection points: 4
#     Node 11, Type 0, BuildingBlock: UXUYUI_clean_sbu_0, # of connection points: 4
#     Node 12, Type 0, BuildingBlock: UXUYUI_clean_sbu_0, # of connection points: 4
#     Node 13, Type 0, BuildingBlock: UXUYUI_clean_sbu_0, # of connection points: 4
#     Node 14, Type 0, BuildingBlock: UXUYUI_clean_sbu_0, # of connection points: 4
#     Node 15, Type 0, BuildingBlock: UXUYUI_clean_sbu_0, # of connection points: 4
#     Node 16, Type 0, BuildingBlock: UXUYUI_clean_sbu_0, # of connection points: 4
#     Node 17, Type 0, BuildingBlock: UXUYUI_clean_sbu_0, # of connection points: 4
#     Node 18, Type 0, BuildingBlock: UXUYUI_clean_sbu_0, # of connection points: 4
#     Node 19, Type 0, BuildingBlock: UXUYUI_clean_sbu_0, # of connection points: 4
#     Node 20, Type 0, BuildingBlock: UXUYUI_clean_sbu_0, # of connection points: 4
#     Node 21, Type 0, BuildingBlock: UXUYUI_clean_sbu_0, # of connection points: 4
#     Node 22, Type 0, BuildingBlock: UXUYUI_clean_sbu_0, # of connection points: 4
#     Node 23, Type 0, BuildingBlock: UXUYUI_clean_sbu_0, # of connection points: 4
#     Node 24, Type 1, BuildingBlock: KUMJIN_clean_sbu_0, # of connection points: 6
#     Node 25, Type 1, BuildingBlock: KUMJIN_clean_sbu_0, # of connection points: 6
#     Node 26, Type 1, BuildingBlock: KUMJIN_clean_sbu_0, # of connection points: 6
#     Node 27, Type 1, BuildingBlock: KUMJIN_clean_sbu_0, # of connection points: 6
#     Node 28, Type 1, BuildingBlock: KUMJIN_clean_sbu_0, # of connection points: 6
#     Node 29, Type 1, BuildingBlock: KUMJIN_clean_sbu_0, # of connection points: 6
#     Node 30, Type 1, BuildingBlock: KUMJIN_clean_sbu_0, # of connection points: 6
#     Node 31, Type 1, BuildingBlock: KUMJIN_clean_sbu_0, # of connection points: 6
#     Node 32, Type 1, BuildingBlock: KUMJIN_clean_sbu_0, # of connection points: 6
#     Node 33, Type 1, BuildingBlock: KUMJIN_clean_sbu_0, # of connection points: 6
#     Node 34, Type 1, BuildingBlock: KUMJIN_clean_sbu_0, # of connection points: 6
#     Node 35, Type 1, BuildingBlock: KUMJIN_clean_sbu_0, # of connection points: 6
#     Node 36, Type 1, BuildingBlock: KUMJIN_clean_sbu_0, # of connection points: 6
#     Node 37, Type 1, BuildingBlock: KUMJIN_clean_sbu_0, # of connection points: 6
#     Node 38, Type 1, BuildingBlock: KUMJIN_clean_sbu_0, # of connection points: 6
#     Node 39, Type 1, BuildingBlock: KUMJIN_clean_sbu_0, # of connection points: 6
#     Edge 40, Type (0, 1), None
#     Edge 41, Type (0, 1), None
#     Edge 42, Type (0, 1), None
#     Edge 43, Type (0, 1), None
#     Edge 44, Type (0, 1), None
#     Edge 45, Type (0, 1), None
#     Edge 46, Type (0, 1), None
#     Edge 47, Type (0, 1), None
#     Edge 48, Type (0, 1), None
#     Edge 49, Type (0, 1), None
#     Edge 50, Type (0, 1), None
#     Edge 51, Type (0, 1), None
#     Edge 52, Type (0, 1), None
#     Edge 53, Type (0, 1), None
#     Edge 54, Type (0, 1), None
#     Edge 55, Type (0, 1), None
#     Edge 56, Type (0, 1), None
#     Edge 57, Type (0, 1), None
#     Edge 58, Type (0, 1), None
#     Edge 59, Type (0, 1), None
#     Edge 60, Type (0, 1), None
#     Edge 61, Type (0, 1), None
#     Edge 62, Type (0, 1), None
#     Edge 63, Type (0, 1), None
#     Edge 64, Type (0, 1), None
#     Edge 65, Type (0, 1), None
#     Edge 66, Type (0, 1), None
#     Edge 67, Type (0, 1), None
#     Edge 68, Type (0, 1), None
#     Edge 69, Type (0, 1), None
#     Edge 70, Type (0, 1), None
#     Edge 71, Type (0, 1), None
#     Edge 72, Type (0, 1), None
#     Edge 73, Type (0, 1), None
#     Edge 74, Type (0, 1), None
#     Edge 75, Type (0, 1), None
#     Edge 76, Type (0, 1), None
#     Edge 77, Type (0, 1), None
#     Edge 78, Type (0, 1), None
#     Edge 79, Type (0, 1), None
#     Edge 80, Type (0, 1), None
#     Edge 81, Type (0, 1), None
#     Edge 82, Type (0, 1), None
#     Edge 83, Type (0, 1), None
#     Edge 84, Type (0, 1), None
#     Edge 85, Type (0, 1), None
#     Edge 86, Type (0, 1), None
#     Edge 87, Type (0, 1), None
#     Edge 88, Type (0, 1), None
#     Edge 89, Type (0, 1), None
#     Edge 90, Type (0, 1), None
#     Edge 91, Type (0, 1), None
#     Edge 92, Type (0, 1), None
#     Edge 93, Type (0, 1), None
#     Edge 94, Type (0, 1), None
#     Edge 95, Type (0, 1), None
#     Edge 96, Type (0, 1), None
#     Edge 97, Type (0, 1), None
#     Edge 98, Type (0, 1), None
#     Edge 99, Type (0, 1), None
#     Edge 100, Type (0, 1), None
#     Edge 101, Type (0, 1), None
#     Edge 102, Type (0, 1), None
#     Edge 103, Type (0, 1), None
#     Edge 104, Type (0, 1), None
#     Edge 105, Type (0, 1), None
#     Edge 106, Type (0, 1), None
#     Edge 107, Type (0, 1), None
#     Edge 108, Type (0, 1), None
#     Edge 109, Type (0, 1), None
#     Edge 110, Type (0, 1), None
#     Edge 111, Type (0, 1), None
#     Edge 112, Type (0, 1), None
#     Edge 113, Type (0, 1), None
#     Edge 114, Type (0, 1), None
#     Edge 115, Type (0, 1), None
#     Edge 116, Type (0, 1), None
#     Edge 117, Type (0, 1), None
#     Edge 118, Type (0, 1), None
#     Edge 119, Type (0, 1), None
#     Edge 120, Type (0, 1), None
#     Edge 121, Type (0, 1), None
#     Edge 122, Type (0, 1), None
#     Edge 123, Type (0, 1), None
#     Edge 124, Type (0, 1), None
#     Edge 125, Type (0, 1), None
#     Edge 126, Type (0, 1), None
#     Edge 127, Type (0, 1), None
#     Edge 128, Type (0, 1), None
#     Edge 129, Type (0, 1), None
#     Edge 130, Type (0, 1), None
#     Edge 131, Type (0, 1), None
#     Edge 132, Type (0, 1), None
#     Edge 133, Type (0, 1), None
#     Edge 134, Type (0, 1), None
#     Edge 135, Type (0, 1), None
# Relax obj value: 0.182
# Max RMSD: 0.354
# Mean RMSD: 0.202
data_MOF--net-gar--node1-UXUYUI_clean_sbu_0--node2-KUMJIN_clean_sbu_0--edge1-none
_symmetry_space_group_name_H-M    P1
_symmetry_Int_Tables_number       1
_symmetry_cell_setting            triclinic
loop_
_symmetry_equiv_pos_as_xyz
'x, y, z'
_cell_length_a     44.375655
_cell_length_b     39.417987
_cell_length_c     39.612703
_cell_angle_alpha  101.91071
_cell_angle_beta   94.32289
_cell_angle_gamma 102.76133
loop_
_atom_site_label
_atom_site_type_symbol
_atom_site_fract_x
_atom_site_fract_y
_atom_site_fract_z
_atom_type_partial_charge
Li0 Li 0.12649 0.33325 0.35051 0.0
Li1 Li 0.15607 0.37865 0.39673 0.0
Li2 Li 0.18014 0.33474 0.36111 0.0
Li3 Li 0.14409 0.31545 0.40331 0.0
C4 C 0.1855 0.40006 0.34427 0.0
N5 N 0.23722 0.44975 0.33624 0.0
C6 C 0.20988 0.41448 0.37147 0.0
C7 C 0.18703 0.41196 0.31339 0.0
C8 C 0.2359 0.43947 0.36686 0.0
C9 C 0.21354 0.4369 0.30974 0.0
C10 C 0.0952 0.36265 0.41238 0.0
C11 C 0.06713 0.37744 0.46099 0.0
N12 N 0.05374 0.39801 0.44387 0.0
C13 C 0.0809 0.38365 0.3951 0.0
C14 C 0.08823 0.35948 0.44558 0.0
C15 C 0.06017 0.4015 0.41155 0.0
C16 C 0.0629 0.31238 0.32392 0.0
N17 N 0.09167 0.3289 0.31833 0.0
C18 C 0.07012 0.35457 0.27574 0.0
C19 C 0.09575 0.34906 0.29435 0.0
C20 C 0.03988 0.33889 0.28164 0.0
C21 C 0.03649 0.31651 0.3053 0.0
H22 H 0.06055 0.29771 0.3442 0.0
H23 H 0.11894 0.36267 0.29123 0.0
C24 C 0.15813 0.42945 0.45731 0.0
N25 N 0.15497 0.42474 0.42224 0.0
C26 C 0.14645 0.45567 0.47757 0.0
C27 C 0.13043 0.47353 0.42562 0.0
C28 C 0.14265 0.44693 0.40619 0.0
C29 C 0.13087 0.47682 0.46161 0.0
H30 H 0.1674 0.41094 0.46925 0.0
H31 H 0.13962 0.44184 0.3781 0.0
C32 C 0.1296 0.26785 0.32381 0.0
N33 N 0.09601 0.22206 0.26376 0.0
C34 C 0.11335 0.23337 0.32451 0.0
C35 C 0.12956 0.27861 0.29235 0.0
C36 C 0.0968 0.21049 0.29378 0.0
C37 C 0.1116 0.2555 0.26252 0.0
C38 C 0.20935 0.34822 0.434 0.0
C39 C 0.21274 0.31422 0.4359 0.0
C40 C 0.23071 0.37843 0.45428 0.0
C41 C 0.23817 0.31102 0.45697 0.0
C42 C 0.25565 0.37412 0.47535 0.0
N43 N 0.25891 0.34077 0.47613 0.0
C44 C 0.23487 0.30727 0.35391 0.0
C45 C 0.22611 0.34219 0.31405 0.0
C46 C 0.26395 0.30591 0.34313 0.0
N47 N 0.21726 0.32684 0.34067 0.0
C48 C 0.25522 0.34208 0.30293 0.0
C49 C 0.27453 0.32392 0.31767 0.0
H50 H 0.22682 0.29331 0.3734 0.0
H51 H 0.2111 0.35543 0.30195 0.0
C52 C 0.11525 0.25738 0.43254 0.0
N53 N 0.13492 0.29033 0.4386 0.0
C54 C 0.10691 0.24208 0.46039 0.0
C55 C 0.13954 0.29479 0.49988 0.0
C56 C 0.14706 0.30905 0.47142 0.0
C57 C 0.1188 0.26113 0.49465 0.0
H58 H 0.10519 0.24357 0.40629 0.0
H59 H 0.16185 0.33568 0.47559 0.0
O60 O 0.16126 0.37269 0.34656 0.0
O61 O 0.11576 0.3451 0.39687 0.0
O62 O 0.14575 0.29082 0.35365 0.0
O63 O 0.18443 0.35205 0.41379 0.0
H64 H 0.20912 0.40627 0.39569 0.0
H65 H 0.16859 0.40084 0.29191 0.0
H66 H 0.25518 0.45048 0.38747 0.0
H67 H 0.21556 0.44569 0.28571 0.0
H68 H 0.06133 0.3749 0.48653 0.0
H69 H 0.08613 0.38663 0.36948 0.0
H70 H 0.09888 0.34324 0.4593 0.0
H71 H 0.04922 0.41814 0.39864 0.0
H72 H 0.07418 0.37268 0.25851 0.0
H73 H 1.01375 0.3033 0.31038 0.0
H74 H 0.14861 0.45838 0.50538 0.0
H75 H 0.11898 0.48957 0.41237 0.0
H76 H 0.11371 0.22422 0.3484 0.0
H77 H 0.14274 0.30486 0.29115 0.0
H78 H 0.08425 0.18367 0.2939 0.0
H79 H 0.11063 0.2639 0.23821 0.0
H80 H 0.19603 0.29052 0.42098 0.0
H81 H 0.22795 0.40495 0.45394 0.0
H82 H 0.24149 0.28491 0.45801 0.0
H83 H 0.27239 0.39728 0.4911 0.0
H84 H 0.27839 0.2919 0.35537 0.0
H85 H 0.26303 0.35726 0.28401 0.0
H86 H 0.09043 0.2163 0.45521 0.0
H87 H 0.14952 0.31025 0.52576 0.0
Li88 Li 0.03 0.7822 0.65768 0.0
Li89 Li 0.04969 0.75864 0.70705 0.0
Li90 Li 0.01821 0.71702 0.65676 0.0
Li91 Li 0.99406 0.75451 0.69824 0.0
C92 C 0.07995 0.73709 0.64247 0.0
N93 N 0.12355 0.70754 0.60866 0.0
C94 C 0.09328 0.71294 0.65598 0.0
C95 C 0.08885 0.74629 0.61181 0.0
C96 C 0.11511 0.69808 0.63837 0.0
C97 C 0.11109 0.73123 0.59524 0.0
C98 C 0.04466 0.82194 0.73933 0.0
C99 C 0.06338 0.83288 0.80033 0.0
N100 N 0.07669 0.86744 0.8003 0.0
C101 C 0.05861 0.85752 0.73987 0.0
C102 C 0.0467 0.8096 0.76989 0.0
C103 C 0.0745 0.88017 0.77103 0.0
C104 C 0.02864 0.81798 0.60058 0.0
N105 N 0.04351 0.81743 0.63171 0.0
C106 C 0.08722 0.86243 0.62523 0.0
C107 C 0.07204 0.8394 0.64442 0.0
C108 C 0.07322 0.86239 0.59218 0.0
C109 C 0.04332 0.84017 0.58014 0.0
H110 H 1.00604 0.80021 0.5909 0.0
H111 H 0.08358 0.8379 0.66891 0.0
C112 C 0.0853 0.73384 0.75231 0.0
N113 N 0.0857 0.76196 0.73738 0.0
C114 C 0.11209 0.73118 0.77099 0.0
C115 C 0.13957 0.78658 0.75857 0.0
C116 C 0.11198 0.78827 0.74021 0.0
C117 C 0.13982 0.75738 0.77378 0.0
H118 H 0.06468 0.71231 0.74798 0.0
H119 H 0.11173 0.80968 0.72704 0.0
C120 C 0.96549 0.72321 0.6204 0.0
N121 N 0.91932 0.67785 0.57012 0.0
C122 C 0.94019 0.70069 0.62999 0.0
C123 C 0.96713 0.72272 0.58519 0.0
C124 C 0.91702 0.67814 0.6042 0.0
C125 C 0.94373 0.69942 0.56017 0.0
C126 C 0.99757 0.69366 0.72105 0.0
C127 C 0.97485 0.66499 0.70058 0.0
C128 C 1.00227 0.69739 0.757 0.0
C129 C 0.95727 0.64032 0.71652 0.0
C130 C 0.98395 0.67248 0.77194 0.0
N131 N 0.96217 0.64454 0.75155 0.0
C132 C 0.02958 0.64778 0.64368 0.0
C133 C 0.01929 0.66903 0.59334 0.0
C134 C 0.041 0.62046 0.62429 0.0
N135 N 0.01993 0.67203 0.62814 0.0
C136 C 0.02985 0.64185 0.57303 0.0
C137 C 0.04262 0.61844 0.58873 0.0
H138 H 0.03106 0.65145 0.67162 0.0
H139 H 1.01308 0.68933 0.58168 0.0
C140 C 0.93276 0.76418 0.70445 0.0
N141 N 0.95795 0.75872 0.72236 0.0
C142 C 0.90655 0.76852 0.72076 0.0
C143 C 0.93225 0.76146 0.77387 0.0
C144 C 0.95824 0.75779 0.75663 0.0
C145 C 0.90626 0.76757 0.75601 0.0
H146 H 0.93317 0.7657 0.67754 0.0
H147 H 0.97886 0.75505 0.77096 0.0
O148 O 0.05843 0.75186 0.65923 0.0
O149 O 0.02848 0.79951 0.70927 0.0
O150 O 0.98808 0.74625 0.6453 0.0
O151 O 0.01593 0.71731 0.7059 0.0
H152 H 0.08654 0.70535 0.67955 0.0
H153 H 0.07877 0.76497 0.601 0.0
H154 H 0.12537 0.67907 0.64834 0.0
H155 H 0.11843 0.73834 0.57167 0.0
H156 H 0.06538 0.8236 0.82407 0.0
H157 H 0.05683 0.86768 0.71661 0.0
H158 H 0.03567 0.78229 0.77 0.0
H159 H 0.08525 0.90784 0.77189 0.0
H160 H 0.11013 0.87934 0.63572 0.0
H161 H 0.03214 0.8386 0.55446 0.0
H162 H 0.11148 0.70772 0.7814 0.0
H163 H 0.16059 0.80725 0.76008 0.0
H164 H 0.93835 0.70067 0.65705 0.0
H165 H 0.98664 0.73955 0.57713 0.0
H166 H 0.89729 0.66073 0.6112 0.0
H167 H 0.94498 0.69849 0.53283 0.0
H168 H 0.9712 0.66158 0.67271 0.0
H169 H 0.0196 0.71956 0.77336 0.0
H170 H 0.93982 0.61782 0.70113 0.0
H171 H 0.98697 0.67559 0.79976 0.0
H172 H 0.05035 0.6028 0.63742 0.0
H173 H 0.02935 0.64032 0.54546 0.0
H174 H 0.88682 0.77301 0.70603 0.0
H175 H 0.93286 0.76071 0.80108 0.0
Li176 Li 0.62957 0.84355 0.85137 0.0
Li177 Li 0.66022 0.88349 0.90349 0.0
Li178 Li 0.68162 0.84018 0.86628 0.0
Li179 Li 0.64157 0.81913 0.90257 0.0
C180 C 0.69378 0.89778 0.84347 0.0
N181 N 0.74945 0.92143 0.81924 0.0
C182 C 0.7213 0.91079 0.86657 0.0
C183 C 0.69432 0.89827 0.80833 0.0
C184 C 0.74931 0.92209 0.85369 0.0
C185 C 0.72275 0.91044 0.79659 0.0
C186 C 0.59982 0.87016 0.91913 0.0
C187 C 0.5832 0.88595 0.9756 0.0
N188 N 0.5649 0.90501 0.96272 0.0
C189 C 0.5807 0.8897 0.90635 0.0
C190 C 0.60116 0.86832 0.95404 0.0
C191 C 0.56335 0.9073 0.92887 0.0
C192 C 0.56778 0.82109 0.81884 0.0
N193 N 0.59589 0.84368 0.81953 0.0
C194 C 0.57325 0.87657 0.78489 0.0
C195 C 0.59918 0.87077 0.80278 0.0
C196 C 0.54363 0.85441 0.78451 0.0
C197 C 0.54117 0.82578 0.80109 0.0
H198 H 0.56592 0.80059 0.83352 0.0
H199 H 0.62164 0.88915 0.80503 0.0
C200 C 0.66873 0.9369 0.96597 0.0
N201 N 0.6614 0.92934 0.93092 0.0
C202 C 0.65979 0.96527 0.98672 0.0
C203 C 0.63758 0.97861 0.93484 0.0
C204 C 0.64738 0.95033 0.91503 0.0
C205 C 0.64243 0.98521 0.97124 0.0
H206 H 0.67941 0.91938 0.9779 0.0
H207 H 0.64128 0.94309 0.88708 0.0
C208 C 0.62916 0.77751 0.82178 0.0
N209 N 0.59669 0.73448 0.7599 0.0
C210 C 0.61204 0.74291 0.82076 0.0
C211 C 0.63036 0.78991 0.79118 0.0
C212 C 0.59601 0.72146 0.78915 0.0
C213 C 0.61317 0.76806 0.76034 0.0
C214 C 0.70212 0.83333 0.9346 0.0
C215 C 0.69938 0.79701 0.92044 0.0
C216 C 0.72384 0.85108 0.96377 0.0
C217 C 0.71919 0.77941 0.93507 0.0
C218 C 0.74297 0.83236 0.97788 0.0
N219 N 0.74039 0.7973 0.96323 0.0
C220 C 0.74427 0.83088 0.86803 0.0
C221 C 0.72114 0.82798 0.81154 0.0
C222 C 0.77178 0.82636 0.85547 0.0
N223 N 0.71919 0.83113 0.84625 0.0
C224 C 0.74954 0.82675 0.79835 0.0
C225 C 0.77502 0.82484 0.8204 0.0
H226 H 0.74415 0.83629 0.89557 0.0
H227 H 0.70126 0.82858 0.79439 0.0
C228 C 0.59743 0.76257 0.91621 0.0
N229 N 0.6246 0.7869 0.92994 0.0
C230 C 0.58237 0.73996 0.93585 0.0
C231 C 0.62365 0.76776 0.9834 0.0
C232 C 0.63773 0.79005 0.96297 0.0
C233 C 0.59544 0.74261 0.96999 0.0
H234 H 0.58708 0.76144 0.8903 0.0
H235 H 0.65857 0.81059 0.97401 0.0
O236 O 0.66697 0.88226 0.85483 0.0
O237 O 0.61715 0.85292 0.89758 0.0
O238 O 0.64505 0.7989 0.85246 0.0
O239 O 0.68406 0.85169 0.91982 0.0
H240 H 0.72121 0.91053 0.89384 0.0
H241 H 0.67327 0.88809 0.79007 0.0
H242 H 0.77095 0.93109 0.87103 0.0
H243 H 0.72368 0.91043 0.76938 0.0
H244 H 0.58378 0.88437 1.00256 0.0
H245 H 0.57948 0.89151 0.8794 0.0
H246 H 0.61602 0.85362 0.96446 0.0
H247 H 0.54859 0.92269 0.91942 0.0
H248 H 0.57622 0.89941 0.77317 0.0
H249 H 0.51884 0.8079 0.80124 0.0
H250 H 0.66511 0.97037 0.01465 0.0
H251 H 0.62455 0.99347 0.92182 0.0
H252 H 0.61152 0.73252 0.84398 0.0
H253 H 0.64388 0.81643 0.79143 0.0
H254 H 0.58285 0.69454 0.78791 0.0
H255 H 0.61336 0.77761 0.73662 0.0
H256 H 0.68272 0.78279 0.89789 0.0
H257 H 0.72611 0.87911 0.97511 0.0
H258 H 0.7178 0.75156 0.92393 0.0
H259 H 0.76002 0.84578 1.00032 0.0
H260 H 0.79138 0.82716 0.87386 0.0
H261 H 0.7518 0.8285 0.77171 0.0
H262 H 0.5606 0.72085 0.92459 0.0
H263 H 0.63409 0.77111 1.00986 0.0
Li264 Li 0.53206 0.28487 0.1628 0.0
Li265 Li 0.5508 0.25947 0.2119 0.0
Li266 Li 0.52064 0.21973 0.16014 0.0
Li267 Li 0.49548 0.25501 0.20172 0.0
C268 C 0.5792 0.24085 0.14211 0.0
N269 N 0.61551 0.21143 0.09628 0.0
C270 C 0.59999 0.22221 0.15319 0.0
C271 C 0.577 0.2447 0.10779 0.0
C272 C 0.61801 0.20734 0.12956 0.0
C273 C 0.59564 0.22974 0.08505 0.0
C274 C 0.54724 0.32362 0.24339 0.0
C275 C 0.56756 0.33722 0.30416 0.0
N276 N 0.58116 0.37115 0.30227 0.0
C277 C 0.56152 0.35856 0.24201 0.0
C278 C 0.55009 0.31288 0.27475 0.0
C279 C 0.57843 0.38225 0.27211 0.0
C280 C 0.52945 0.32376 0.1082 0.0
N281 N 0.54592 0.32083 0.13741 0.0
C282 C 0.59074 0.36231 0.12747 0.0
C283 C 0.57585 0.34001 0.14754 0.0
C284 C 0.57502 0.36422 0.09598 0.0
C285 C 0.54382 0.34489 0.08673 0.0
H286 H 0.50564 0.30857 0.1007 0.0
H287 H 0.58856 0.33681 0.1706 0.0
C288 C 0.585 0.23202 0.25573 0.0
N289 N 0.5865 0.26087 0.24168 0.0
C290 C 0.61199 0.22536 0.27019 0.0
C291 C 0.6417 0.27918 0.25684 0.0
C292 C 0.61394 0.28472 0.24239 0.0
C293 C 0.64098 0.24849 0.27002 0.0
H294 H 0.56317 0.21263 0.25338 0.0
H295 H 0.61444 0.30669 0.22982 0.0
C296 C 0.46967 0.22531 0.12245 0.0
N297 N 0.42849 0.17728 0.06896 0.0
C298 C 0.44722 0.19763 0.12958 0.0
C299 C 0.47088 0.22878 0.0881 0.0
C300 C 0.4268 0.17348 0.10214 0.0
C301 C 0.44982 0.20429 0.06145 0.0
C302 C 0.49798 0.19333 0.22273 0.0
C303 C 0.47827 0.16228 0.20163 0.0
C304 C 0.49909 0.19917 0.25883 0.0
C305 C 0.45979 0.13781 0.21715 0.0
C306 C 0.47958 0.17466 0.27321 0.0
N307 N 0.46076 0.14453 0.2523 0.0
C308 C 0.53927 0.15615 0.14836 0.0
C309 C 0.51851 0.16798 0.09637 0.0
C310 C 0.55197 0.1298 0.12951 0.0
N311 N 0.52386 0.17545 0.13162 0.0
C312 C 0.53011 0.14137 0.07658 0.0
C313 C 0.54857 0.12327 0.09311 0.0
H314 H 0.54408 0.16332 0.17643 0.0
H315 H 0.50742 0.18429 0.08343 0.0
C316 C 0.43228 0.25834 0.20629 0.0
N317 N 0.45892 0.25784 0.22533 0.0
C318 C 0.40592 0.26233 0.22244 0.0
C319 C 0.4342 0.26418 0.27753 0.0
C320 C 0.46034 0.26102 0.26041 0.0
C321 C 0.40684 0.26574 0.25855 0.0
H322 H 0.4317 0.25653 0.17864 0.0
H323 H 0.482 0.26228 0.27545 0.0
O324 O 0.56099 0.25511 0.16471 0.0
O325 O 0.52963 0.30046 0.21453 0.0
O326 O 0.49034 0.24883 0.14891 0.0
O327 O 0.51699 0.2173 0.20835 0.0
H328 H 0.6019 0.21884 0.17963 0.0
H329 H 0.56092 0.25889 0.09872 0.0
H330 H 0.63396 0.19253 0.13766 0.0
H331 H 0.59428 0.23263 0.05846 0.0
H332 H 0.57003 0.32925 0.32857 0.0
H333 H 0.55916 0.36747 0.21808 0.0
H334 H 0.53891 0.28606 0.27635 0.0
H335 H 0.58946 0.40944 0.27147 0.0
H336 H 0.61468 0.37706 0.13602 0.0
H337 H 0.53123 0.34458 0.06225 0.0
H338 H 0.61023 0.20096 0.27923 0.0
H339 H 0.6635 0.29789 0.25642 0.0
H340 H 0.44564 0.19472 0.15598 0.0
H341 H 0.48847 0.24936 0.08181 0.0
H342 H 0.40991 0.1514 0.10708 0.0
H343 H 0.45074 0.20645 0.03474 0.0
H344 H 0.47751 0.15686 0.17365 0.0
H345 H 0.51466 0.22262 0.27563 0.0
H346 H 0.44463 0.11351 0.20142 0.0
H347 H 0.4794 0.17967 0.30102 0.0
H348 H 0.56582 0.11635 0.14336 0.0
H349 H 0.52592 0.13642 0.04855 0.0
H350 H 0.38518 0.26341 0.20689 0.0
H351 H 0.43579 0.267 0.30543 0.0
Li352 Li 0.13662 0.87028 0.10546 0.0
Li353 Li 0.17666 0.84462 0.14938 0.0
Li354 Li 0.13385 0.79801 0.10358 0.0
Li355 Li 0.11791 0.83679 0.15274 0.0
C356 C 0.17811 0.82518 0.0635 0.0
N357 N 0.19415 0.79825 0.99906 0.0
C358 C 0.19983 0.80422 0.06064 0.0
C359 C 0.16449 0.83232 0.03361 0.0
C360 C 0.20772 0.79098 0.02782 0.0
C361 C 0.17284 0.81842 1.00126 0.0
C362 C 0.1526 0.90545 0.19055 0.0
C363 C 0.16248 0.91804 0.25318 0.0
N364 N 0.15556 0.95025 0.25508 0.0
C365 C 0.14609 0.93894 0.19312 0.0
C366 C 0.16129 0.89518 0.2208 0.0
C367 C 0.14752 0.96111 0.22596 0.0
C368 C 0.10852 0.93486 0.10422 0.0
N369 N 0.12686 0.91568 0.08601 0.0
C370 C 0.13176 0.95871 0.04837 0.0
C371 C 0.13806 0.92743 0.05793 0.0
C372 C 0.11357 0.97948 0.06735 0.0
C373 C 0.10267 0.96685 0.09625 0.0
H374 H 0.09875 0.92601 0.12601 0.0
H375 H 0.15274 0.91325 0.04302 0.0
C376 C 0.23259 0.81841 0.1659 0.0
N377 N 0.21915 0.84627 0.17642 0.0
C378 C 0.2593 0.8146 0.18542 0.0
C379 C 0.25827 0.8676 0.22734 0.0
C380 C 0.23217 0.87107 0.20649 0.0
C381 C 0.27243 0.83898 0.21716 0.0
H382 H 0.22194 0.79806 0.14281 0.0
H383 H 0.22193 0.89324 0.21519 0.0
C384 C 0.07888 0.80741 0.07505 0.0
N385 N 0.03644 0.76742 0.01857 0.0
C386 C 0.05812 0.77602 0.07765 0.0
C387 C 0.07789 0.81864 0.04384 0.0
C388 C 0.0368 0.75619 0.04882 0.0
C389 C 0.05637 0.79792 0.01551 0.0
C390 C 0.13552 0.78386 0.17772 0.0
C391 C 0.10673 0.75894 0.17125 0.0
C392 C 0.15493 0.78869 0.20869 0.0
C393 C 0.09768 0.73949 0.19608 0.0
C394 C 0.14503 0.76868 0.23285 0.0
N395 N 0.11685 0.74473 0.22611 0.0
C396 C 0.14016 0.72547 0.10325 0.0
C397 C 0.10816 0.72206 0.05206 0.0
C398 C 0.13304 0.68778 0.09752 0.0
N399 N 0.1267 0.74261 0.08178 0.0
C400 C 0.1016 0.68383 0.04446 0.0
C401 C 0.11362 0.6658 0.06775 0.0
H402 H 0.15564 0.74101 0.1262 0.0
H403 H 0.09728 0.73496 0.03466 0.0
C404 C 0.05537 0.82617 0.16972 0.0
N405 N 0.08573 0.8339 0.18389 0.0
C406 C 0.03117 0.81856 0.18995 0.0
C407 C 0.06979 0.82932 0.23957 0.0
C408 C 0.09311 0.83587 0.2183 0.0
C409 C 0.03817 0.81927 0.22539 0.0
H410 H 0.04982 0.82455 0.14232 0.0
H411 H 0.11707 0.84093 0.22922 0.0
O412 O 0.17033 0.83897 0.09535 0.0
O413 O 0.15145 0.88325 0.15866 0.0
O414 O 0.10012 0.82702 0.10289 0.0
O415 O 0.14477 0.80315 0.15366 0.0
H416 H 0.2106 0.79841 0.08346 0.0
H417 H 0.14773 0.84855 0.0354 0.0
H418 H 0.22476 0.77511 0.0252 0.0
H419 H 0.16247 0.82378 0.97792 0.0
H420 H 0.16894 0.91017 0.27678 0.0
H421 H 0.14049 0.94807 0.17011 0.0
H422 H 0.16692 0.86962 0.21927 0.0
H423 H 0.14242 0.98703 0.22829 0.0
H424 H 0.14233 0.96745 0.02689 0.0
H425 H 0.08969 0.98189 0.11306 0.0
H426 H 0.26859 0.79163 0.17646 0.0
H427 H 0.26712 0.88715 0.25156 0.0
H428 H 0.05852 0.76699 0.10164 0.0
H429 H 0.09351 0.84311 0.04153 0.0
H430 H 0.02065 0.73179 0.05043 0.0
H431 H 0.0555 0.8061 0.99108 0.0
H432 H 0.09152 0.75478 0.14735 0.0
H433 H 0.17736 0.80769 0.21407 0.0
H434 H 0.07541 0.72023 0.19146 0.0
H435 H 0.15978 0.77217 0.25695 0.0
H436 H 0.14246 0.67581 0.11689 0.0
H437 H 0.08564 0.66856 0.02162 0.0
H438 H 1.00734 0.81074 0.1775 0.0
H439 H 0.07671 0.83125 0.26682 0.0
Li440 Li 0.54625 0.82258 0.46573 0.0
Li441 Li 0.50349 0.77588 0.41987 0.0
Li442 Li 0.54313 0.7475 0.4603 0.0
Li443 Li 0.56141 0.78205 0.41313 0.0
C444 C 0.49923 0.79126 0.50394 0.0
N445 N 0.47556 0.8116 0.56546 0.0
C446 C 0.48249 0.81768 0.50755 0.0
C447 C 0.50423 0.77548 0.53172 0.0
C448 C 0.47055 0.82743 0.53882 0.0
C449 C 0.49208 0.78614 0.56262 0.0
C450 C 0.52201 0.83546 0.39534 0.0
C451 C 0.51034 0.84976 0.34023 0.0
N452 N 0.49301 0.87173 0.35539 0.0
C453 C 0.50406 0.85817 0.41038 0.0
C454 C 0.52515 0.83116 0.35997 0.0
C455 C 0.4896 0.87627 0.38974 0.0
C456 C 0.57038 0.8949 0.46156 0.0
N457 N 0.5584 0.87839 0.48638 0.0
C458 C 0.56365 0.93794 0.52372 0.0
C459 C 0.55517 0.8996 0.51749 0.0
C460 C 0.57383 0.95521 0.4971 0.0
C461 C 0.5772 0.93229 0.46591 0.0
H462 H 0.57438 0.87892 0.43748 0.0
H463 H 0.54608 0.88714 0.53773 0.0
C464 C 0.45769 0.76258 0.35696 0.0
N465 N 0.46154 0.77517 0.39221 0.0
C466 C 0.43217 0.76623 0.33554 0.0
C467 C 0.41448 0.79686 0.38603 0.0
C468 C 0.43997 0.79173 0.40679 0.0
C469 C 0.41036 0.78464 0.34947 0.0
H470 H 0.47518 0.75088 0.34493 0.0
H471 H 0.44313 0.80256 0.43454 0.0
C472 C 0.60967 0.79993 0.47503 0.0
N473 N 0.673 0.8171 0.496 0.0
C474 C 0.62712 0.77493 0.46485 0.0
C475 C 0.62432 0.83346 0.49617 0.0
C476 C 0.65923 0.78436 0.47533 0.0
C477 C 0.65632 0.84156 0.50665 0.0
C478 C 0.53175 0.71193 0.37937 0.0
C479 C 0.56099 0.70455 0.37633 0.0
C480 C 0.50685 0.69393 0.35358 0.0
C481 C 0.56496 0.67992 0.34716 0.0
C482 C 0.51177 0.66956 0.32474 0.0
N483 N 0.54049 0.66316 0.32213 0.0
C484 C 0.55282 0.6718 0.45303 0.0
C485 C 0.55762 0.69708 0.51252 0.0
C486 C 0.55983 0.6401 0.45988 0.0
N487 N 0.55205 0.70064 0.4788 0.0
C488 C 0.56387 0.66491 0.52056 0.0
C489 C 0.56593 0.63546 0.49401 0.0
H490 H 0.54766 0.67272 0.42638 0.0
H491 H 0.55718 0.71907 0.53378 0.0
C492 C 0.62179 0.80647 0.39162 0.0
N493 N 0.59219 0.78651 0.38003 0.0
C494 C 0.64432 0.81001 0.36878 0.0
C495 C 0.60538 0.77395 0.32182 0.0
C496 C 0.58363 0.77106 0.34557 0.0
C497 C 0.63631 0.79365 0.33325 0.0
H498 H 0.62799 0.82049 0.41849 0.0
H499 H 0.5598 0.75651 0.33633 0.0
O500 O 0.51034 0.78035 0.47328 0.0
O501 O 0.53604 0.81715 0.41509 0.0
O502 O 0.57846 0.79202 0.46412 0.0
O503 O 0.52742 0.73628 0.40759 0.0
H504 H 0.47874 0.83049 0.48647 0.0
H505 H 0.51714 0.75499 0.5293 0.0
H506 H 0.45714 0.8474 0.54191 0.0
H507 H 0.49565 0.77403 0.58427 0.0
H508 H 0.51262 0.84676 0.31285 0.0
H509 H 0.50114 0.86158 0.43766 0.0
H510 H 0.53878 0.81359 0.34786 0.0
H511 H 0.47561 0.89387 0.40102 0.0
H512 H 0.56207 0.95368 0.54902 0.0
H513 H 0.5857 0.9432 0.44451 0.0
H514 H 0.43002 0.75512 0.30795 0.0
H515 H 0.39865 0.81121 0.39856 0.0
H516 H 0.61608 0.74878 0.44867 0.0
H517 H 0.61107 0.85301 0.50441 0.0
H518 H 0.67315 0.76549 0.46731 0.0
H519 H 0.66789 0.86737 0.52315 0.0
H520 H 0.58046 0.7179 0.39622 0.0
H521 H 0.48384 0.69832 0.35603 0.0
H522 H 0.58751 0.67421 0.34439 0.0
H523 H 0.4927 0.6556 0.30452 0.0
H524 H 0.56014 0.61876 0.43785 0.0
H525 H 0.56698 0.66328 0.54748 0.0
H526 H 0.66754 0.82636 0.37874 0.0
H527 H 0.59794 0.76085 0.29469 0.0
Li528 Li 0.63602 0.36613 0.60263 0.0
Li529 Li 0.67398 0.33964 0.64849 0.0
Li530 Li 0.63205 0.29371 0.6006 0.0
Li531 Li 0.61533 0.33252 0.64947 0.0
C532 C 0.68172 0.32111 0.56547 0.0
N533 N 0.70681 0.29504 0.50668 0.0
C534 C 0.70619 0.3044 0.56814 0.0
C535 C 0.66998 0.32457 0.53295 0.0
C536 C 0.71864 0.29152 0.53811 0.0
C537 C 0.68292 0.31111 0.5035 0.0
C538 C 0.6527 0.40128 0.68861 0.0
C539 C 0.66449 0.41303 0.75103 0.0
N540 N 0.66041 0.44663 0.75373 0.0
C541 C 0.64934 0.43623 0.69199 0.0
C542 C 0.66095 0.38989 0.71834 0.0
C543 C 0.65306 0.45863 0.72511 0.0
C544 C 0.61214 0.4331 0.6032 0.0
N545 N 0.62731 0.41176 0.58252 0.0
C546 C 0.62877 0.45299 0.5429 0.0
C547 C 0.63513 0.42143 0.55219 0.0
C548 C 0.61437 0.47624 0.56492 0.0
C549 C 0.60674 0.46535 0.59574 0.0
H550 H 0.60422 0.42545 0.62629 0.0
H551 H 0.6468 0.40506 0.53493 0.0
C552 C 0.72454 0.30904 0.67207 0.0
N553 N 0.71476 0.34008 0.67825 0.0
C554 C 0.74967 0.30435 0.69345 0.0
C555 C 0.75471 0.36319 0.72842 0.0
C556 C 0.72994 0.36718 0.70581 0.0
C557 C 0.76509 0.33132 0.72269 0.0
H558 H 0.71222 0.28716 0.6509 0.0
H559 H 0.72256 0.39189 0.71102 0.0
C560 C 0.57816 0.3042 0.57056 0.0
N561 N 0.53689 0.26544 0.51266 0.0
C562 C 0.55572 0.27387 0.57264 0.0
C563 C 0.57953 0.31492 0.53911 0.0
C564 C 0.53502 0.25466 0.54308 0.0
C565 C 0.55853 0.29488 0.51009 0.0
C566 C 0.62994 0.27751 0.67322 0.0
C567 C 0.60101 0.25291 0.66409 0.0
C568 C 0.64726 0.28095 0.70523 0.0
C569 C 0.58977 0.2323 0.68728 0.0
C570 C 0.63521 0.25983 0.72771 0.0
N571 N 0.60695 0.23617 0.71835 0.0
C572 C 0.63763 0.22063 0.59902 0.0
C573 C 0.60634 0.21864 0.54777 0.0
C574 C 0.63022 0.18287 0.59244 0.0
N575 N 0.6247 0.23848 0.57789 0.0
C576 C 0.59943 0.18038 0.53937 0.0
C577 C 0.6109 0.16159 0.56225 0.0
H578 H 0.65282 0.23564 0.6224 0.0
H579 H 0.59583 0.23214 0.53068 0.0
C580 C 0.55264 0.32204 0.66626 0.0
N581 N 0.58307 0.32999 0.68018 0.0
C582 C 0.52871 0.31476 0.68688 0.0
C583 C 0.56779 0.32623 0.73624 0.0
C584 C 0.5908 0.33245 0.71462 0.0
C585 C 0.53614 0.31604 0.72237 0.0
H586 H 0.54686 0.32001 0.6388 0.0
H587 H 0.6148 0.33761 0.72531 0.0
O588 O 0.66961 0.33457 0.5946 0.0
O589 O 0.64919 0.37875 0.65642 0.0
O590 O 0.59879 0.32324 0.59912 0.0
O591 O 0.64123 0.29805 0.65084 0.0
H592 H 0.71564 0.30169 0.59315 0.0
H593 H 0.65117 0.33764 0.53052 0.0
H594 H 0.73779 0.27883 0.53982 0.0
H595 H 0.67406 0.31357 0.47815 0.0
H596 H 0.67059 0.40431 0.77424 0.0
H597 H 0.64452 0.44634 0.6694 0.0
H598 H 0.66465 0.36336 0.71616 0.0
H599 H 0.65033 0.48564 0.72804 0.0
H600 H 0.63619 0.45971 0.5192 0.0
H601 H 0.59598 0.48171 0.6142 0.0
H602 H 0.75633 0.27915 0.68761 0.0
H603 H 0.76572 0.38509 0.75022 0.0
H604 H 0.55431 0.26519 0.59677 0.0
H605 H 0.5966 0.33848 0.53714 0.0
H606 H 0.51757 0.23111 0.54428 0.0
H607 H 0.55944 0.30267 0.48551 0.0
H608 H 0.58737 0.24983 0.63937 0.0
H609 H 0.66971 0.2998 0.71274 0.0
H610 H 0.56738 0.21323 0.68057 0.0
H611 H 0.64831 0.26228 0.75262 0.0
H612 H 0.63928 0.17027 0.61146 0.0
H613 H 0.58359 0.16569 0.51625 0.0
H614 H 0.50477 0.30678 0.67474 0.0
H615 H 0.57496 0.32852 0.76351 0.0
Li616 Li 0.04874 0.32711 0.96687 0.0
Li617 Li 1.00655 0.28105 0.92073 0.0
Li618 Li 0.04471 0.25179 0.96144 0.0
Li619 Li 0.06373 0.28601 0.91485 0.0
C620 C 1.00291 0.29712 1.00556 0.0
N621 N 0.98313 0.31992 0.06895 0.0
C622 C 0.98761 0.32486 1.01031 0.0
C623 C 1.00838 0.2812 0.03309 0.0
C624 C 0.97764 0.33585 0.04253 0.0
C625 C 0.99824 0.29313 0.06496 0.0
C626 C 0.02519 0.3402 0.89646 0.0
C627 C 1.01186 0.35279 0.84091 0.0
N628 N 0.99548 0.37575 0.85632 0.0
C629 C 1.00816 0.36391 0.91174 0.0
C630 C 0.02704 0.33458 0.86075 0.0
C631 C 0.99336 0.38166 0.89102 0.0
C632 C 0.07292 0.40009 0.96362 0.0
N633 N 0.06081 0.38295 0.988 0.0
C634 C 0.06529 0.44196 0.02602 0.0
C635 C 0.05714 0.4036 0.01921 0.0
C636 C 0.07564 0.45989 0.99989 0.0
C637 C 0.07944 0.43757 0.96853 0.0
H638 H 0.07717 0.38456 0.93942 0.0
H639 H 0.04793 0.39067 0.03911 0.0
C640 C 0.95962 0.26747 0.85819 0.0
N641 N 0.96516 0.28119 0.89332 0.0
C642 C 0.9341 0.27238 0.83767 0.0
C643 C 0.92058 0.30707 0.88878 0.0
C644 C 0.9457 0.30049 0.90862 0.0
C645 C 0.91413 0.29301 0.85254 0.0
H646 H 0.97575 0.25387 0.84551 0.0
H647 H 0.95055 0.31259 0.93613 0.0
C648 C 0.11148 0.30246 0.97708 0.0
N649 N 0.17428 0.31627 0.99973 0.0
C650 C 0.12641 0.27443 0.97384 0.0
C651 C 0.12834 0.3374 0.99216 0.0
C652 C 0.15826 0.28203 0.9853 0.0
C653 C 0.16008 0.34384 1.00341 0.0
C654 C 0.0356 0.2168 0.88129 0.0
C655 C 0.06513 0.20968 0.88095 0.0
C656 C 1.01231 0.19902 0.85362 0.0
C657 C 0.07103 0.18555 0.85254 0.0
C658 C 0.01915 0.17515 0.82563 0.0
N659 N 0.04813 0.169 0.82565 0.0
C660 C 0.05126 0.17476 0.95369 0.0
C661 C 0.06005 0.20154 0.01308 0.0
C662 C 0.05765 0.14271 0.9604 0.0
N663 N 0.05286 0.20452 0.97947 0.0
C664 C 0.06548 0.16901 0.021 0.0
C665 C 0.0656 0.13872 0.99437 0.0
H666 H 0.04426 0.17506 0.92723 0.0
H667 H 0.06123 0.22416 0.03434 0.0
C668 C 0.12446 0.30695 0.89305 0.0
N669 N 0.09422 0.28924 0.8817 0.0
C670 C 0.14645 0.31028 0.86966 0.0
C671 C 0.10594 0.27766 0.82288 0.0
C672 C 0.08471 0.27514 0.84716 0.0
C673 C 0.13736 0.29562 0.83393 0.0
H674 H 0.13161 0.31938 0.92016 0.0
H675 H 0.06051 0.26193 0.8383 0.0
O676 O 1.01226 0.28519 0.97407 0.0
O677 O 0.03941 0.32207 0.91628 0.0
O678 O 0.08043 0.29586 0.96595 0.0
O679 O 0.02943 0.24061 0.90877 0.0
H680 H 0.98357 0.33783 0.98944 0.0
H681 H 0.02016 0.25968 0.02977 0.0
H682 H 0.96544 0.35693 0.04656 0.0
H683 H 1.0022 0.28095 0.08646 0.0
H684 H 1.01308 0.34863 0.81324 0.0
H685 H 1.00606 0.36824 0.93925 0.0
H686 H 0.03988 0.31621 0.8484 0.0
H687 H 0.98005 0.39999 0.9025 0.0
H688 H 0.06336 0.45722 0.05141 0.0
H689 H 0.08802 0.44903 0.94746 0.0
H690 H 0.93054 0.26057 0.8101 0.0
H691 H 0.90709 0.32423 0.90172 0.0
H692 H 0.11359 0.24719 0.96247 0.0
H693 H 0.11705 0.35933 0.995 0.0
H694 H 0.17028 0.26075 0.98271 0.0
H695 H 0.17339 0.3708 0.01499 0.0
H696 H 0.08335 0.22287 0.90234 0.0
H697 H 0.98907 0.20317 0.85395 0.0
H698 H 0.09383 0.18005 0.85184 0.0
H699 H 1.00136 0.16135 0.80398 0.0
H700 H 0.05539 0.12032 0.9385 0.0
H701 H 0.06915 0.16761 0.04794 0.0
H702 H 0.17015 0.32515 0.87945 0.0
H703 H 0.09772 0.26565 0.79568 0.0
Li704 Li 0.4691 0.06922 0.35705 0.0
Li705 Li 0.42637 1.01803 0.33413 0.0
Li706 Li 0.46697 0.03829 0.3008 0.0
Li707 Li 0.42944 0.07406 0.3143 0.0
C708 C 0.50033 1.01427 0.34724 0.0
N709 N 0.55995 1.0048 0.35817 0.0
C710 C 0.50524 0.98451 0.35895 0.0
C711 C 0.52587 0.03892 0.34075 0.0
C712 C 0.53553 0.98033 0.36451 0.0
C713 C 0.55576 0.03372 0.34645 0.0
C714 C 0.3949 0.06507 0.37111 0.0
C715 C 0.33918 0.04901 0.35546 0.0
N716 N 0.33556 0.06178 0.38914 0.0
C717 C 0.39064 0.07804 0.40557 0.0
C718 C 0.369 0.05047 0.34584 0.0
C719 C 0.36045 0.07619 0.41415 0.0
C720 C 0.52774 0.10423 0.40234 0.0
N721 N 0.49728 0.08602 0.39837 0.0
C722 C 0.5073 0.05674 0.4431 0.0
C723 C 0.48666 0.0639 0.41913 0.0
C724 C 0.53913 0.07371 0.44694 0.0
C725 C 0.54922 0.09872 0.4271 0.0
H726 H 0.53618 0.12003 0.38432 0.0
H727 H 0.46272 0.04848 0.41407 0.0
C728 C 0.4167 0.95665 0.35677 0.0
N729 N 0.40091 0.97581 0.34059 0.0
C730 C 0.40795 0.91954 0.34755 0.0
C731 C 0.36293 0.92318 0.31116 0.0
C732 C 0.37351 0.96029 0.31971 0.0
C733 C 0.38154 0.90265 0.32335 0.0
H734 H 0.43806 0.97011 0.37364 0.0
H735 H 0.36206 0.97606 0.30619 0.0
C736 C 0.49313 0.12398 0.3322 0.0
N737 N 0.5287 0.19124 0.36517 0.0
C738 C 0.48211 0.14519 0.35897 0.0
C739 C 0.52221 0.13703 0.32213 0.0
C740 C 0.5005 0.17907 0.3754 0.0
C741 C 0.53981 0.17113 0.33909 0.0
C742 C 0.42142 1.00547 0.25332 0.0
C743 C 0.41557 0.96819 0.24569 0.0
C744 C 0.42918 0.02378 0.22723 0.0
C745 C 0.41768 0.94985 0.21213 0.0
C746 C 0.43136 1.00444 0.1941 0.0
N747 N 0.42556 0.96819 0.18727 0.0
C748 C 0.49276 0.98646 0.26245 0.0
C749 C 0.5074 0.04421 0.25078 0.0
C750 C 0.51143 0.97348 0.23877 0.0
N751 N 0.49104 1.02114 0.26765 0.0
C752 C 0.52655 0.03252 0.22717 0.0
C753 C 0.52834 0.99662 0.22063 0.0
H754 H 0.47946 0.96892 0.27659 0.0
H755 H 0.50536 0.07156 0.25557 0.0
C756 C 0.38404 0.07862 0.26543 0.0
N757 N 0.40444 0.09961 0.29309 0.0
C758 C 0.37007 0.09376 0.24174 0.0
C759 C 0.39522 0.15226 0.27745 0.0
C760 C 0.40938 0.13584 0.30029 0.0
C761 C 0.37644 0.13091 0.24705 0.0
H762 H 0.37973 0.04993 0.26057 0.0
H763 H 0.42571 0.15206 0.32236 0.0
O764 O 0.47066 1.01858 0.34113 0.0
O765 O 0.42432 0.06579 0.36267 0.0
O766 O 0.47536 0.0909 0.31554 0.0
O767 O 0.42089 0.02408 0.28646 0.0
H768 H 0.48601 0.96454 0.36348 0.0
H769 H 0.52269 0.06187 0.33129 0.0
H770 H 0.5396 0.9575 0.37367 0.0
H771 H 0.57562 0.05269 0.3415 0.0
H772 H 0.31891 0.03761 0.33619 0.0
H773 H 0.41047 0.08924 0.4255 0.0
H774 H 0.37186 0.04003 0.31918 0.0
H775 H 0.3568 0.08608 0.44068 0.0
H776 H 0.49837 0.03655 0.457 0.0
H777 H 0.57358 0.11229 0.42928 0.0
H778 H 0.42266 0.90424 0.35741 0.0
H779 H 0.34266 0.91078 0.292 0.0
H780 H 0.4597 0.13547 0.36712 0.0
H781 H 0.53114 0.12106 0.30149 0.0
H782 H 0.49234 0.19571 0.39625 0.0
H783 H 0.56231 0.1816 0.33153 0.0
H784 H 0.41018 0.95357 0.26561 0.0
H785 H 0.43435 0.05267 0.2328 0.0
H786 H 0.41352 0.9211 0.206 0.0
H787 H 0.43813 1.01824 0.17394 0.0
H788 H 0.512 0.94558 0.23406 0.0
H789 H 0.53956 0.05126 0.21389 0.0
H790 H 0.35515 0.07659 0.21889 0.0
H791 H 0.40043 0.18115 0.28228 0.0
Li792 Li 0.3145 0.23072 0.55477 0.0
Li793 Li 0.33262 0.18232 0.51595 0.0
Li794 Li 0.31443 0.22745 0.48459 0.0
Li795 Li 0.27668 0.18248 0.50967 0.0
C796 C 0.37197 0.26398 0.54415 0.0
N797 N 0.41498 0.32256 0.58495 0.0
C798 C 0.38821 0.26104 0.57464 0.0
C799 C 0.37754 0.29671 0.53445 0.0
C800 C 0.40987 0.29096 0.59491 0.0
C801 C 0.39942 0.32602 0.55541 0.0
C802 C 0.30805 0.15186 0.56494 0.0
C803 C 0.29348 0.091 0.57124 0.0
N804 N 0.31918 0.0976 0.59484 0.0
C805 C 0.33425 0.15806 0.58943 0.0
C806 C 0.28743 0.11807 0.55585 0.0
C807 C 0.3395 0.13028 0.60417 0.0
C808 C 0.30757 0.2289 0.62519 0.0
N809 N 0.31888 0.25377 0.60698 0.0
C810 C 0.33683 0.29724 0.66204 0.0
C811 C 0.3329 0.28797 0.62496 0.0
C812 C 0.32724 0.27085 0.68093 0.0
C813 C 0.31299 0.23626 0.66157 0.0
H814 H 0.29473 0.20255 0.6116 0.0
H815 H 0.34192 0.30794 0.61082 0.0
C816 C 0.39307 0.16947 0.52787 0.0
N817 N 0.36236 0.15344 0.51763 0.0
C818 C 0.41392 0.14945 0.5359 0.0
C819 C 0.37154 0.09653 0.52074 0.0
C820 C 0.35161 0.1175 0.51298 0.0
C821 C 0.40296 0.11261 0.53344 0.0
H822 H 0.40117 0.19805 0.53134 0.0
H823 H 0.32714 0.10528 0.50521 0.0
C824 C 0.25184 0.24013 0.51821 0.0
N825 N 0.19079 0.24552 0.5189 0.0
C826 C 0.23032 0.22565 0.48826 0.0
C827 C 0.24234 0.25761 0.54847 0.0
C828 C 0.19955 0.22852 0.48915 0.0
C829 C 0.21135 0.26007 0.54826 0.0
C830 C 0.28642 0.14958 0.44316 0.0
C831 C 0.26692 0.16092 0.42075 0.0
C832 C 0.28815 0.11386 0.43585 0.0
C833 C 0.24893 0.13618 0.39193 0.0
C834 C 0.26985 0.08994 0.4067 0.0
N835 N 0.25072 0.10148 0.38557 0.0
C836 C 0.32847 0.22519 0.41287 0.0
C837 C 0.32644 0.28353 0.4401 0.0
C838 C 0.334 0.23558 0.38134 0.0
N839 N 0.32402 0.24868 0.44166 0.0
C840 C 0.3331 0.29535 0.40927 0.0
C841 C 0.33661 0.27117 0.37891 0.0
H842 H 0.32761 0.19788 0.41406 0.0
H843 H 0.32311 0.3024 0.4627 0.0
C844 C 0.22104 0.1615 0.53835 0.0
N845 N 0.23422 0.15272 0.5088 0.0
C846 C 0.19205 0.14124 0.54296 0.0
C847 C 0.19055 0.1022 0.48705 0.0
C848 C 0.21946 0.12352 0.48332 0.0
C849 C 0.17637 0.11086 0.51726 0.0
H850 H 0.23337 0.1841 0.55882 0.0
H851 H 0.23015 0.1161 0.4603 0.0
O852 O 0.3505 0.23505 0.52411 0.0
O853 O 0.30271 0.17876 0.54997 0.0
O854 O 0.28204 0.23725 0.51804 0.0
O855 O 0.30395 0.17338 0.47181 0.0
H856 H 0.384 0.23597 0.58267 0.0
H857 H 0.36511 0.29944 0.51098 0.0
H858 H 0.42255 0.28909 0.61861 0.0
H859 H 0.40401 0.35152 0.54819 0.0
H860 H 0.27779 0.06469 0.56432 0.0
H861 H 0.3505 0.184 0.59674 0.0
H862 H 0.26715 0.11261 0.53686 0.0
H863 H 0.35977 0.13467 0.62296 0.0
H864 H 0.34884 0.32417 0.67567 0.0
H865 H 0.3055 0.21484 0.67465 0.0
H866 H 0.43795 0.16301 0.54566 0.0
H867 H 0.36217 0.06814 0.51786 0.0
H868 H 0.2372 0.21215 0.46462 0.0
H869 H 0.25877 0.26916 0.57181 0.0
H870 H 0.18265 0.21729 0.46618 0.0
H871 H 0.20357 0.27351 0.5714 0.0
H872 H 0.26589 0.18859 0.42536 0.0
H873 H 0.30337 0.1046 0.45243 0.0
H874 H 0.23351 0.14456 0.37463 0.0
H875 H 0.2708 0.06218 0.40092 0.0
H876 H 0.33659 0.21579 0.35903 0.0
H877 H 0.33441 0.32301 0.40889 0.0
H878 H 0.18228 0.14911 0.56675 0.0
H879 H 0.17943 0.07916 0.46639 0.0
Li880 Li 0.23601 0.06802 0.7825 0.0
Li881 Li 0.19265 0.03318 0.81649 0.0
Li882 Li 0.23452 0.99551 0.77583 0.0
Li883 Li 0.18915 0.02724 0.73777 0.0
C884 C 0.26894 0.05537 0.8404 0.0
N885 N 0.32548 0.09063 0.87977 0.0
C886 C 0.27031 0.08255 0.86977 0.0
C887 C 0.29629 0.04604 0.83108 0.0
C888 C 0.29913 0.1001 0.88932 0.0
C889 C 0.32466 0.06418 0.85133 0.0
C890 C 0.18572 0.10065 0.79249 0.0
C891 C 0.16548 0.14997 0.78183 0.0
N892 N 0.17882 0.16949 0.81404 0.0
C893 C 0.19916 0.12119 0.82548 0.0
C894 C 0.16862 0.11503 0.77044 0.0
C895 C 0.19543 0.15592 0.83591 0.0
C896 C 0.24981 0.14101 0.76481 0.0
N897 N 0.26314 0.1215 0.78388 0.0
C898 C 0.3078 0.17361 0.80187 0.0
C899 C 0.2921 0.1377 0.80212 0.0
C900 C 0.29403 0.19455 0.78308 0.0
C901 C 0.26433 0.17698 0.76449 0.0
H902 H 0.22752 0.12871 0.74931 0.0
H903 H 0.30342 0.123 0.81714 0.0
C904 C 0.17778 0.06779 0.89427 0.0
N905 N 0.16738 0.03881 0.86624 0.0
C906 C 0.16292 0.07253 0.9258 0.0
C907 C 0.12585 1.01801 0.90168 0.0
C908 C 0.14132 1.01416 0.87052 0.0
C909 C 0.13595 0.0477 0.9309 0.0
H910 H 0.19809 0.08812 0.89281 0.0
H911 H 0.132 0.99072 0.84969 0.0
C912 C 0.26134 0.04381 0.72417 0.0
N913 N 0.31175 0.0765 0.6958 0.0
C914 C 0.2898 0.03457 0.72841 0.0
C915 C 0.25848 0.06961 0.70547 0.0
C916 C 0.31502 0.0514 0.71385 0.0
C917 C 0.28425 0.08587 0.69135 0.0
C918 C 0.16964 0.95263 0.76564 0.0
C919 C 0.15769 0.93281 0.73194 0.0
C920 C 0.16843 0.93568 0.79337 0.0
C921 C 0.14479 0.89613 0.72652 0.0
C922 C 0.15541 0.89893 0.78685 0.0
N923 N 0.14404 0.8801 0.75384 0.0
C924 C 0.2692 0.93928 0.80556 0.0
C925 C 0.26855 0.92715 0.74565 0.0
C926 C 0.2848 0.9108 0.80762 0.0
N927 N 0.26054 0.94803 0.77484 0.0
C928 C 0.28426 0.89812 0.74673 0.0
C929 C 0.29352 0.88871 0.77831 0.0
H930 H 0.26382 0.95425 0.82952 0.0
H931 H 0.26258 0.93229 0.72051 0.0
C932 C 0.13369 0.03512 0.68058 0.0
N933 N 0.1635 0.03016 0.68591 0.0
C934 C 0.11955 0.03814 0.64723 0.0
C935 C 0.16617 0.03211 0.62395 0.0
C936 C 0.17926 0.02872 0.6572 0.0
C937 C 0.13578 0.03762 0.61746 0.0
H938 H 0.12007 0.03646 0.70212 0.0
H939 H 0.20252 0.02451 0.65953 0.0
O940 O 0.24109 0.03804 0.82056 0.0
O941 O 0.18953 0.06672 0.78199 0.0
O942 O 0.23658 0.02805 0.73878 0.0
O943 O 0.1838 0.98815 0.7712 0.0
H944 H 0.2494 0.09007 0.87738 0.0
H945 H 0.2956 0.025 0.80843 0.0
H946 H 0.30056 0.12127 0.91208 0.0
H947 H 0.34601 0.05725 0.84441 0.0
H948 H 0.15253 0.1617 0.76514 0.0
H949 H 0.2127 0.11052 0.84261 0.0
H950 H 0.15815 0.09948 0.74476 0.0
H951 H 0.20583 0.17214 0.86134 0.0
H952 H 0.33053 0.18502 0.81684 0.0
H953 H 0.2522 0.1908 0.7492 0.0
H954 H 0.17286 0.0961 0.94632 0.0
H955 H 0.10594 0.99706 0.90284 0.0
H956 H 0.29237 1.0146 0.74279 0.0
H957 H 0.23667 0.07727 0.70221 0.0
H958 H 0.3372 0.04452 0.71693 0.0
H959 H 0.28241 0.10599 0.67692 0.0
H960 H 0.15867 0.94558 0.71019 0.0
H961 H 0.17779 0.9507 0.81957 0.0
H962 H 0.13556 0.88037 0.7006 0.0
H963 H 0.15439 0.88535 0.808 0.0
H964 H 0.28985 0.90585 0.83309 0.0
H965 H 0.28868 0.88279 0.72242 0.0
H966 H 0.09558 0.04005 0.6448 0.0
H967 H 0.18011 0.02964 0.60269 0.0
Li968 Li 0.3598 1.00338 0.02037 0.0
Li969 Li 0.37385 0.95039 0.03083 0.0
Li970 Li 0.40991 0.99287 1.00466 0.0
Li971 Li 0.36082 0.95602 0.97203 0.0
C972 C 0.4068 0.02955 0.07853 0.0
N973 N 0.42848 0.08865 0.13292 0.0
C974 C 0.39725 0.02921 0.11132 0.0
C975 C 0.42776 0.05972 0.07359 0.0
C976 C 0.40811 0.05958 0.13834 0.0
C977 C 0.43864 0.08924 0.10147 0.0
C978 C 0.31045 0.94429 0.0287 0.0
C979 C 0.25967 0.91048 0.03517 0.0
N980 N 0.26393 0.92745 0.06937 0.0
C981 C 0.31439 0.96125 0.06393 0.0
C982 C 0.28292 0.91865 0.01416 0.0
C983 C 0.29056 0.95246 0.08404 0.0
C984 C 0.30445 0.0235 0.01981 0.0
N985 N 0.33399 0.03452 0.0366 0.0
C986 C 0.31901 0.07751 0.07959 0.0
C987 C 0.34186 0.06187 0.06534 0.0
C988 C 0.28786 0.06489 0.06427 0.0
C989 C 0.28085 0.03813 0.03337 0.0
H990 H 0.29883 1.00172 0.99695 0.0
H991 H 0.3655 0.07087 0.07797 0.0
C992 C 0.40894 0.92291 0.06869 0.0
N993 N 0.37844 0.91822 0.05695 0.0
C994 C 0.41822 0.89879 0.08561 0.0
C995 C 0.36426 0.86559 0.07819 0.0
C996 C 0.35606 0.8901 0.06068 0.0
C997 C 0.39569 0.87006 0.09072 0.0
H998 H 0.42601 0.94545 0.06464 0.0
H999 H 0.33214 0.88667 0.05004 0.0
C1000 C 0.39403 0.03936 0.96932 0.0
N1001 N 0.42564 0.10255 0.95515 0.0
C1002 C 0.40852 0.03889 0.93915 0.0
C1003 C 0.39578 0.07197 0.99237 0.0
C1004 C 0.42416 0.07112 0.93233 0.0
C1005 C 0.41199 0.10361 0.98482 0.0
C1006 C 0.40395 0.9147 0.9684 0.0
C1007 C 0.41954 0.92237 0.94046 0.0
C1008 C 0.39728 0.87981 0.9733 0.0
C1009 C 0.42794 0.89489 0.91768 0.0
C1010 C 0.40602 0.85308 0.9499 0.0
N1011 N 0.42102 0.8611 0.9228 0.0
C1012 C 0.4661 0.97637 1.00759 0.0
C1013 C 0.47229 0.03499 0.99896 0.0
C1014 C 0.49749 0.97808 1.00628 0.0
N1015 N 0.4538 1.00404 1.00299 0.0
C1016 C 0.50451 0.03881 1.00027 0.0
C1017 C 0.51746 1.00988 1.00338 0.0
H1018 H 0.45175 0.95291 0.01322 0.0
H1019 H 0.4624 0.05718 0.99637 0.0
C1020 C 0.3362 0.89137 0.92996 0.0
N1021 N 0.3457 0.92637 0.92931 0.0
C1022 C 0.33954 0.86527 0.902 0.0
C1023 C 0.35888 0.91195 0.87219 0.0
C1024 C 0.35589 0.93718 0.90103 0.0
C1025 C 0.3514 0.87552 0.87286 0.0
H1026 H 0.32982 0.88406 0.95379 0.0
H1027 H 0.36429 0.9653 0.9021 0.0
O1028 O 0.39624 1.00021 0.05167 0.0
O1029 O 0.33343 0.95235 1.00839 0.0
O1030 O 0.37789 1.00805 0.97586 0.0
O1031 O 0.3958 0.94138 0.99125 0.0
H1032 H 0.38153 1.00584 0.11584 0.0
H1033 H 0.43554 0.06038 0.04854 0.0
H1034 H 0.40058 0.05989 0.16373 0.0
H1035 H 0.45507 0.11264 0.09808 0.0
H1036 H 0.23825 0.89065 0.02429 0.0
H1037 H 0.33554 0.98108 0.07553 0.0
H1038 H 0.27959 0.90516 0.98693 0.0
H1039 H 0.29324 0.96551 0.11131 0.0
H1040 H 0.32548 0.09861 0.10288 0.0
H1041 H 0.25718 0.02725 0.0207 0.0
H1042 H 0.44246 0.90339 0.09597 0.0
H1043 H 0.34637 0.8439 0.08258 0.0
H1044 H 0.40774 1.01393 0.92116 0.0
H1045 H 0.3849 0.07293 0.0159 0.0
H1046 H 0.43501 0.07113 0.90881 0.0
H1047 H 0.41357 0.12902 1.00246 0.0
H1048 H 0.42495 0.94926 0.93636 0.0
H1049 H 0.38525 0.87335 0.99474 0.0
H1050 H 0.43986 0.90041 0.89585 0.0
H1051 H 0.40081 0.82593 0.95325 0.0
H1052 H 0.50626 0.95539 1.01007 0.0
H1053 H 0.51896 0.06453 1.00035 0.0
H1054 H 0.33452 0.83769 0.90398 0.0
H1055 H 0.36816 0.92115 0.85035 0.0
Li1056 Li 0.34571 0.42389 0.04421 0.0
Li1057 Li 0.36283 0.3801 0.07405 0.0
Li1058 Li 0.3996 0.4224 0.04587 0.0
Li1059 Li 0.36011 0.37469 1.00171 0.0
C1060 C 0.36755 0.4585 0.11043 0.0
N1061 N 0.34862 0.509 0.15807 0.0
C1062 C 0.34745 0.44788 0.13392 0.0
C1063 C 0.37824 0.49488 0.11147 0.0
C1064 C 0.33817 0.4738 0.1578 0.0
C1065 C 0.36828 0.51997 0.13559 0.0
C1066 C 0.29594 0.37197 0.03598 0.0
C1067 C 0.24722 0.37571 1.00758 0.0
N1068 N 0.23544 0.37836 0.03848 0.0
C1069 C 0.28329 0.37443 0.06739 0.0
C1070 C 0.27776 0.37233 1.00574 0.0
C1071 C 0.25263 0.37766 0.06812 0.0
C1072 C 0.31262 0.46136 1.00917 0.0
N1073 N 0.31603 0.45358 0.04095 0.0
C1074 C 0.27921 0.48747 0.06045 0.0
C1075 C 0.29903 0.46535 0.06619 0.0
C1076 C 0.27718 0.49776 0.02857 0.0
C1077 C 0.29372 0.48374 1.00259 0.0
H1078 H 0.32479 0.45036 0.98871 0.0
H1079 H 0.30067 0.45765 0.09072 0.0
C1080 C 0.37897 0.37594 0.14625 0.0
N1081 N 0.35908 0.35787 0.11682 0.0
C1082 C 0.37646 0.36529 0.17814 0.0
C1083 C 0.33362 0.31647 0.14959 0.0
C1084 C 0.33671 0.3283 0.11821 0.0
C1085 C 0.35341 0.33518 0.18061 0.0
H1086 H 0.3965 0.39955 0.14536 0.0
H1087 H 0.32068 0.31409 0.09512 0.0
C1088 C 0.3878 0.4542 0.9944 0.0
N1089 N 0.42055 0.51014 0.96945 0.0
C1090 C 0.40189 0.44737 0.96411 0.0
C1091 C 0.3902 0.48955 1.01179 0.0
C1092 C 0.41837 0.47599 0.95196 0.0
C1093 C 0.40691 0.51744 0.99884 0.0
C1094 C 0.42323 0.36581 0.03876 0.0
C1095 C 0.43464 0.35182 1.00838 0.0
C1096 C 0.44324 0.37933 0.06994 0.0
C1097 C 0.46634 0.35273 1.00945 0.0
C1098 C 0.47478 0.37974 0.06992 0.0
N1099 N 0.48555 0.36677 0.03988 0.0
C1100 C 0.45677 0.44283 0.01815 0.0
C1101 C 0.45573 0.48064 0.07254 0.0
C1102 C 0.48531 0.46435 0.01428 0.0
N1103 N 0.44224 0.45129 0.0467 0.0
C1104 C 0.48451 0.50296 0.0698 0.0
C1105 C 0.49954 0.49521 0.04007 0.0
H1106 H 0.44567 0.41985 0.99757 0.0
H1107 H 0.44397 0.48714 0.09505 0.0
C1108 C 0.34134 0.37637 0.93366 0.0
N1109 N 0.35066 0.35238 0.94976 0.0
C1110 C 0.33752 0.37099 0.89742 0.0
C1111 C 0.3485 0.31341 0.89288 0.0
C1112 C 0.35401 0.32087 0.92992 0.0
C1113 C 0.34142 0.33946 0.87596 0.0
H1114 H 0.3376 0.40068 0.94907 0.0
H1115 H 0.36109 0.30151 0.94253 0.0
O1116 O 0.37702 0.4335 0.08693 0.0
O1117 O 0.32632 0.3704 0.03513 0.0
O1118 O 0.37191 0.42647 1.0071 0.0
O1119 O 0.39285 0.36763 0.03768 0.0
H1120 H 0.33871 0.41993 0.13345 0.0
H1121 H 0.39416 0.50374 0.09396 0.0
H1122 H 0.3225 0.46592 0.17597 0.0
H1123 H 0.37626 0.54818 0.13652 0.0
H1124 H 0.23291 0.37636 0.98448 0.0
H1125 H 0.29713 0.37425 0.09101 0.0
H1126 H 0.28733 0.37061 0.98127 0.0
H1127 H 0.24256 0.37984 0.09228 0.0
H1128 H 0.2663 0.49713 0.08095 0.0
H1129 H 0.29212 0.49014 0.9773 0.0
H1130 H 0.39241 0.38092 0.20084 0.0
H1131 H 0.31536 0.29316 0.14963 0.0
H1132 H 0.40077 0.42026 0.95058 0.0
H1133 H 0.37914 0.49538 0.03495 0.0
H1134 H 0.4296 0.47104 0.92873 0.0
H1135 H 0.40901 0.5449 0.01215 0.0
H1136 H 0.41928 0.3412 0.98413 0.0
H1137 H 0.43464 0.39026 0.09364 0.0
H1138 H 0.47578 0.3427 0.98609 0.0
H1139 H 0.49073 0.39063 0.09369 0.0
H1140 H 0.49591 0.45693 0.99099 0.0
H1141 H 0.49473 0.5261 0.09068 0.0
H1142 H 0.33121 0.39172 0.88626 0.0
H1143 H 0.35003 0.28777 0.8778 0.0
Li1144 Li 0.82001 0.18159 0.06122 0.0
Li1145 Li 0.82629 0.12713 0.02127 0.0
Li1146 Li 0.7993 0.17005 1.00088 0.0
Li1147 Li 0.77594 0.13519 0.03903 0.0
C1148 C 0.87125 0.20171 0.03722 0.0
N1149 N 0.92601 0.24783 0.07234 0.0
C1150 C 0.89414 0.18845 0.05271 0.0
C1151 C 0.87613 0.23849 0.0399 0.0
C1152 C 0.92167 0.21219 0.07032 0.0
C1153 C 0.90401 0.26135 0.05764 0.0
C1154 C 0.79915 0.10695 0.08481 0.0
C1155 C 0.78173 0.04548 0.08847 0.0
N1156 N 0.76921 0.05628 0.11791 0.0
C1157 C 0.78589 0.11739 0.11503 0.0
C1158 C 0.79693 0.07067 0.07136 0.0
C1159 C 0.77094 0.0914 0.13141 0.0
C1160 C 0.83074 0.24831 0.10817 0.0
N1161 N 0.83466 0.21457 0.10393 0.0
C1162 C 0.83741 0.21839 0.16496 0.0
C1163 C 0.83965 0.20014 0.13155 0.0
C1164 C 0.83096 0.25214 0.16976 0.0
C1165 C 0.829 0.26788 0.14123 0.0
H1166 H 0.82728 0.25925 0.08584 0.0
H1167 H 0.84312 0.17339 0.12743 0.0
C1168 C 0.86205 0.09776 0.97464 0.0
N1169 N 0.85457 0.09865 1.00736 0.0
C1170 C 0.88408 0.07959 0.96225 0.0
C1171 C 0.89014 0.06321 0.01745 0.0
C1172 C 0.86831 0.08223 0.02897 0.0
C1173 C 0.89844 0.06175 0.98363 0.0
H1174 H 0.85117 0.11173 0.95833 0.0
H1175 H 0.8626 0.08421 0.05526 0.0
C1176 C 0.75972 0.20331 0.02826 0.0
N1177 N 0.72034 0.23726 0.99786 0.0
C1178 C 0.73048 0.18394 1.01069 0.0
C1179 C 0.7688 0.24008 0.03026 0.0
C1180 C 0.71097 0.20154 0.99555 0.0
C1181 C 0.74859 0.25672 0.0148 0.0
C1182 C 0.76505 0.08374 0.97905 0.0
C1183 C 0.73372 0.08115 0.96811 0.0
C1184 C 0.77556 0.05248 0.97664 0.0
C1185 C 0.71347 0.04749 0.95537 0.0
C1186 C 0.75457 1.0193 0.96379 0.0
N1187 N 0.72421 1.0175 0.95351 0.0
C1188 C 0.80294 0.22381 0.96153 0.0
C1189 C 0.76429 0.16997 0.93937 0.0
C1190 C 0.78954 0.24051 0.93861 0.0
N1191 N 0.78944 0.18956 0.96234 0.0
C1192 C 0.75005 0.18557 0.91614 0.0
C1193 C 0.76205 0.22167 0.9165 0.0
H1194 H 0.8226 0.23901 0.98037 0.0
H1195 H 0.75399 0.14298 0.94075 0.0
C1196 C 0.72559 0.14308 0.07415 0.0
N1197 N 0.73732 0.1172 0.05513 0.0
C1198 C 0.6943 0.13601 0.0791 0.0
C1199 C 0.68982 0.07402 0.05216 0.0
C1200 C 0.721 0.08254 0.04675 0.0
C1201 C 0.67556 0.10162 0.0656 0.0
H1202 H 0.73973 0.17008 0.08278 0.0
H1203 H 0.73142 0.06192 0.03378 0.0
O1204 O 0.84405 0.17885 0.02001 0.0
O1205 O 0.81375 0.13202 0.0682 0.0
O1206 O 0.7798 0.18623 0.04207 0.0
O1207 O 0.78555 0.11656 0.99067 0.0
H1208 H 0.89067 0.16016 0.05132 0.0
H1209 H 0.85851 0.24938 0.0287 0.0
H1210 H 0.93959 0.20229 0.08241 0.0
H1211 H 0.90812 0.28985 0.05982 0.0
H1212 H 0.7798 1.01732 0.07827 0.0
H1213 H 0.78658 0.14519 0.12545 0.0
H1214 H 0.80656 0.06194 0.04779 0.0
H1215 H 0.76058 0.09916 0.15475 0.0
H1216 H 0.84032 0.20608 0.18666 0.0
H1217 H 0.8251 0.29447 0.14431 0.0
H1218 H 0.89008 0.08014 0.93636 0.0
H1219 H 0.90018 0.04964 0.03486 0.0
H1220 H 0.723 0.15551 1.00825 0.0
H1221 H 0.79152 0.25558 0.04266 0.0
H1222 H 0.68849 0.18675 0.98171 0.0
H1223 H 0.75554 0.28506 0.01594 0.0
H1224 H 0.72493 0.10474 0.96947 0.0
H1225 H 0.7997 0.05369 0.98433 0.0
H1226 H 0.68921 0.04526 0.94695 0.0
H1227 H 0.76245 0.99496 0.96184 0.0
H1228 H 0.79933 0.26852 0.93987 0.0
H1229 H 0.72916 0.17002 0.89911 0.0
H1230 H 0.68435 0.15778 0.09054 0.0
H1231 H 0.67661 0.04676 0.04284 0.0
Li1232 Li 0.25818 0.61193 0.2396 0.0
Li1233 Li 0.2181 0.60122 0.2774 0.0
Li1234 Li 0.24844 0.56077 0.26096 0.0
Li1235 Li 0.20963 0.56619 0.21889 0.0
C1236 C 0.28074 0.60907 0.31801 0.0
N1237 N 0.31585 0.60442 0.37695 0.0
C1238 C 0.26765 0.60873 0.34905 0.0
C1239 C 0.31179 0.60712 0.31712 0.0
C1240 C 0.28577 0.60644 0.37854 0.0
C1241 C 0.32909 0.60468 0.34711 0.0
C1242 C 0.19783 0.64196 0.24027 0.0
C1243 C 0.14811 0.6572 0.23662 0.0
N1244 N 0.16221 0.69148 0.25331 0.0
C1245 C 0.21178 0.67736 0.25749 0.0
C1246 C 0.1657 0.63176 0.22985 0.0
C1247 C 0.1934 0.70199 0.26381 0.0
C1248 C 0.26928 0.66874 0.21019 0.0
N1249 N 0.28457 0.65056 0.22827 0.0
C1250 C 0.32239 0.70351 0.25647 0.0
C1251 C 0.31178 0.66656 0.24923 0.0
C1252 C 0.30389 0.7233 0.24292 0.0
C1253 C 0.27801 0.70583 0.21818 0.0
H1254 H 0.24751 0.65509 0.19399 0.0
H1255 H 0.32296 0.65148 0.26381 0.0
C1256 C 0.1682 0.60609 0.31417 0.0
N1257 N 0.19736 0.62362 0.31083 0.0
C1258 C 0.15293 0.62027 0.34098 0.0
C1259 C 0.19706 0.67155 0.35829 0.0
C1260 C 0.21162 0.65622 0.33136 0.0
C1261 C 0.16804 0.65267 0.36419 0.0
H1262 H 0.15744 0.58046 0.29689 0.0
H1263 H 0.23482 0.66948 0.32769 0.0
C1264 C 0.2751 0.56885 0.18978 0.0
N1265 N 0.31929 0.58435 0.1459 0.0
C1266 C 0.26646 0.56126 0.15381 0.0
C1267 C 0.30647 0.58311 0.20318 0.0
C1268 C 0.28906 0.56969 0.13213 0.0
C1269 C 0.3284 0.59105 0.18066 0.0
C1270 C 0.18995 0.51262 0.25273 0.0
C1271 C 0.19899 0.49156 0.22418 0.0
C1272 C 0.16748 0.49664 0.27128 0.0
C1273 C 0.18523 0.45492 0.21456 0.0
C1274 C 0.15419 0.45994 0.26076 0.0
N1275 N 0.16326 0.44001 0.23285 0.0
C1276 C 0.26312 0.52566 0.31082 0.0
C1277 C 0.29313 0.52212 0.26368 0.0
C1278 C 0.28376 0.51267 0.32987 0.0
N1279 N 0.26878 0.531 0.27891 0.0
C1280 C 0.31388 0.50824 0.28139 0.0
C1281 C 0.30926 0.50317 0.31496 0.0
H1282 H 0.24367 0.53363 0.32229 0.0
H1283 H 0.2972 0.52728 0.23849 0.0
C1284 C 0.19066 0.5733 0.15955 0.0
N1285 N 0.18004 0.55146 0.18047 0.0
C1286 C 0.17146 0.57531 0.13157 0.0
C1287 C 0.13001 0.53182 0.14669 0.0
C1288 C 0.15041 0.53081 0.17507 0.0
C1289 C 0.14064 0.55473 0.12489 0.0
H1290 H 0.21375 0.59083 0.16597 0.0
H1291 H 0.14225 0.51515 0.19346 0.0
O1292 O 0.26328 0.6112 0.28874 0.0
O1293 O 0.21547 0.61736 0.23408 0.0
O1294 O 0.25319 0.56165 0.21168 0.0
O1295 O 0.20199 0.54885 0.26208 0.0
H1296 H 0.24359 0.60944 0.35033 0.0
H1297 H 0.32229 0.60666 0.29337 0.0
H1298 H 0.27584 0.60599 0.40262 0.0
H1299 H 0.353 0.60277 0.3466 0.0
H1300 H 0.12323 0.64967 0.22867 0.0
H1301 H 0.23644 0.68558 0.26667 0.0
H1302 H 0.15437 0.60446 0.21684 0.0
H1303 H 0.20391 0.7294 0.27726 0.0
H1304 H 0.34241 0.71646 0.27584 0.0
H1305 H 0.26338 0.72068 0.20743 0.0
H1306 H 0.13046 0.60511 0.34489 0.0
H1307 H 0.20929 0.69646 0.37578 0.0
H1308 H 0.24262 0.54875 0.1426 0.0
H1309 H 0.31376 0.58845 0.2308 0.0
H1310 H 0.28257 0.5645 0.10433 0.0
H1311 H 0.35266 0.60255 0.19084 0.0
H1312 H 0.21612 0.50324 0.20926 0.0
H1313 H 0.16021 0.51253 0.29344 0.0
H1314 H 0.19191 0.43836 0.19244 0.0
H1315 H 0.13671 0.44728 0.27483 0.0
H1316 H 0.27952 0.50987 0.3558 0.0
H1317 H 0.33378 0.50253 0.26918 0.0
H1318 H 0.18073 0.59382 0.11606 0.0
H1319 H 0.10627 0.51575 0.14239 0.0
Li1320 Li 0.8435 0.92357 0.54316 0.0
Li1321 Li 0.85966 0.8796 0.57362 0.0
Li1322 Li 0.89751 0.92085 0.54555 0.0
Li1323 Li 0.85799 0.87361 0.5014 0.0
C1324 C 0.86603 0.95754 0.61064 0.0
N1325 N 0.85032 1.00742 0.66184 0.0
C1326 C 0.84491 0.94651 0.63302 0.0
C1327 C 0.87913 0.99397 0.61436 0.0
C1328 C 0.83725 0.97214 0.65871 0.0
C1329 C 0.87089 1.01876 0.64038 0.0
C1330 C 0.7932 0.87216 0.53278 0.0
C1331 C 0.74586 0.87492 0.50057 0.0
N1332 N 0.73281 0.87982 0.53064 0.0
C1333 C 0.77922 0.8768 0.5633 0.0
C1334 C 0.77637 0.87089 0.50109 0.0
C1335 C 0.74865 0.88069 0.56169 0.0
C1336 C 0.80983 0.95875 0.50606 0.0
N1337 N 0.81424 0.95379 0.53891 0.0
C1338 C 0.77867 0.99004 0.55699 0.0
C1339 C 0.79857 0.96841 0.56418 0.0
C1340 C 0.77523 0.99693 0.52363 0.0
C1341 C 0.79078 0.98045 0.49797 0.0
H1342 H 0.8213 0.94594 0.48589 0.0
H1343 H 0.80134 0.96339 0.58986 0.0
C1344 C 0.87595 0.8749 0.64571 0.0
N1345 N 0.85489 0.85825 0.61686 0.0
C1346 C 0.87304 0.86479 0.67783 0.0
C1347 C 0.827 0.81989 0.65093 0.0
C1348 C 0.83064 0.83097 0.61923 0.0
C1349 C 0.84821 0.83685 0.68133 0.0
H1350 H 0.89486 0.89696 0.64419 0.0
H1351 H 0.81359 0.81803 0.59668 0.0
C1352 C 0.88575 0.95429 0.49524 0.0
N1353 N 0.91757 1.01272 0.47313 0.0
C1354 C 0.89983 0.94944 0.46475 0.0
C1355 C 0.88774 0.98892 0.51434 0.0
C1356 C 0.91585 0.97929 0.45405 0.0
C1357 C 0.90395 1.0181 0.50277 0.0
C1358 C 0.92039 0.864 0.54022 0.0
C1359 C 0.93276 0.85033 0.51041 0.0
C1360 C 0.93937 0.8765 0.57217 0.0
C1361 C 0.96431 0.85026 0.51294 0.0
C1362 C 0.97078 0.87589 0.57361 0.0
N1363 N 0.98248 0.86306 0.54418 0.0
C1364 C 0.95459 0.97739 0.57263 0.0
C1365 C 0.9544 0.94054 0.51732 0.0
C1366 C 0.9835 0.99935 0.56982 0.0
N1367 N 0.94039 0.94879 0.54634 0.0
C1368 C 0.98309 0.96177 0.51338 0.0
C1369 C 0.99796 0.99203 0.53957 0.0
H1370 H 0.9433 0.98359 0.59557 0.0
H1371 H 0.94274 0.91804 0.49648 0.0
C1372 C 0.84071 0.87551 0.43325 0.0
N1373 N 0.84933 0.85127 0.4495 0.0
C1374 C 0.83735 0.87021 0.39704 0.0
C1375 C 0.84765 0.81232 0.39274 0.0
C1376 C 0.85263 0.81967 0.4298 0.0
C1377 C 0.84108 0.83854 0.37573 0.0
H1378 H 0.83707 0.89991 0.4485 0.0
H1379 H 0.85926 0.80016 0.44253 0.0
O1380 O 0.87448 0.9328 0.58591 0.0
O1381 O 0.82358 0.87014 0.53412 0.0
O1382 O 0.87037 0.92534 0.50656 0.0
O1383 O 0.89007 0.86619 0.53793 0.0
H1384 H 0.83434 0.91852 0.63048 0.0
H1385 H 0.89567 1.00308 0.59753 0.0
H1386 H 0.82088 0.96399 0.67613 0.0
H1387 H 0.88097 0.04702 0.64358 0.0
H1388 H 0.73259 0.87432 0.4763 0.0
H1389 H 0.79196 0.8778 0.58801 0.0
H1390 H 0.78694 0.8674 0.47726 0.0
H1391 H 0.73757 0.88459 0.58512 0.0
H1392 H 0.76678 1.00195 0.57745 0.0
H1393 H 0.78826 0.98437 0.47172 0.0
H1394 H 0.89018 0.87925 0.69991 0.0
H1395 H 0.80734 0.79848 0.65139 0.0
H1396 H 0.89901 0.92288 0.4499 0.0
H1397 H 0.87681 0.99321 0.5378 0.0
H1398 H 0.92705 0.97587 0.43066 0.0
H1399 H 0.9057 0.04502 0.51738 0.0
H1400 H 0.91825 0.84055 0.48554 0.0
H1401 H 0.93007 0.88724 0.59542 0.0
H1402 H 0.97445 0.84033 0.49007 0.0
H1403 H 0.98591 0.88582 0.59805 0.0
H1404 H 0.99428 1.0219 0.59108 0.0
H1405 H 0.99325 0.9547 0.48969 0.0
H1406 H 0.83148 0.89111 0.38579 0.0
H1407 H 0.84916 0.78665 0.37772 0.0
Li1408 Li 0.98826 0.08392 0.32149 0.0
Li1409 Li 0.94106 0.04201 0.27462 0.0
Li1410 Li 0.98787 0.08018 0.24332 0.0
Li1411 Li 0.94531 0.11601 0.28103 0.0
C1412 C 0.99871 1.01468 0.27642 0.0
N1413 N 0.01766 0.95205 0.27341 0.0
C1414 C 0.99465 0.99698 0.30352 0.0
C1415 C 1.01289 1.00092 0.24811 0.0
C1416 C 1.004 0.96506 0.30124 0.0
C1417 C 0.02242 0.96927 0.24714 0.0
C1418 C 0.9169 0.0694 0.33532 0.0
C1419 C 0.86563 0.06739 0.35233 0.0
N1420 N 0.86898 0.04214 0.37016 0.0
C1421 C 0.91982 0.04334 0.35367 0.0
C1422 C 0.88959 0.08149 0.33449 0.0
C1423 C 0.89534 0.02994 0.3712 0.0
C1424 C 0.99685 0.08092 0.40243 0.0
N1425 N 1.0128 0.07896 0.37384 0.0
C1426 C 0.05498 0.06709 0.41246 0.0
C1427 C 0.04184 0.07185 0.37927 0.0
C1428 C 0.03852 0.06831 0.44214 0.0
C1429 C 1.00884 0.07573 0.43544 0.0
H1430 H 0.97411 0.08652 0.4001 0.0
H1431 H 0.05551 0.06964 0.35779 0.0
C1432 C 0.92474 0.95953 0.25893 0.0
N1433 N 0.91255 0.98836 0.27042 0.0
C1434 C 0.90937 0.92399 0.25996 0.0
C1435 C 0.86676 0.94584 0.28129 0.0
C1436 C 0.88342 0.98133 0.28093 0.0
C1437 C 0.87975 0.91603 0.27138 0.0
H1438 H 0.94686 0.96367 0.24895 0.0
H1439 H 0.87289 1.00331 0.28971 0.0
C1440 C 1.00818 0.15951 0.29316 0.0
N1441 N 0.02996 0.23227 0.30241 0.0
C1442 C 1.00794 0.17514 0.26457 0.0
C1443 C 0.01953 0.18076 0.32643 0.0
C1444 C 0.01905 0.21206 0.2698 0.0
C1445 C 0.03049 0.21757 0.33057 0.0
C1446 C 0.91614 0.06867 0.21119 0.0
C1447 C 0.923 0.07646 0.17936 0.0
C1448 C 0.88514 0.05704 0.21654 0.0
C1449 C 0.8986 0.07238 0.15325 0.0
C1450 C 0.86141 0.05328 0.18977 0.0
N1451 N 0.86857 0.06097 0.15896 0.0
C1452 C 1.00296 0.04746 0.16615 0.0
C1453 C 0.03948 0.10092 0.19088 0.0
C1454 C 0.01783 0.04352 0.13466 0.0
N1455 N 1.01347 0.0759 0.19456 0.0
C1456 C 0.05493 0.09794 0.15976 0.0
C1457 C 0.04477 0.06877 0.13011 0.0
H1458 H 0.98252 0.0271 0.16739 0.0
H1459 H 0.04871 0.12399 0.21214 0.0
C1460 C 0.90986 0.18407 0.30659 0.0
N1461 N 0.92022 0.16371 0.27885 0.0
C1462 C 0.89496 0.21335 0.30374 0.0
C1463 C 0.9002 0.20219 0.24393 0.0
C1464 C 0.91492 0.17339 0.24774 0.0
C1465 C 0.889 0.22362 0.2717 0.0
H1466 H 0.91322 0.17826 0.33193 0.0
H1467 H 0.9224 0.15895 0.22486 0.0
O1468 O 0.98829 0.04493 0.27718 0.0
O1469 O 0.94052 0.08273 0.31787 0.0
O1470 O 0.99577 0.12379 0.28877 0.0
O1471 O 0.93964 0.07292 0.2372 0.0
H1472 H 0.98363 1.00726 0.32556 0.0
H1473 H 0.01628 1.0144 0.22702 0.0
H1474 H 1.00021 0.95047 0.32146 0.0
H1475 H 0.03337 0.95825 0.22537 0.0
H1476 H 0.84435 0.07651 0.35197 0.0
H1477 H 0.94064 0.03334 0.35411 0.0
H1478 H 0.88695 0.10152 0.32021 0.0
H1479 H 0.89724 1.00973 0.38548 0.0
H1480 H 0.0781 0.06242 0.41459 0.0
H1481 H 0.99437 0.07783 0.45622 0.0
H1482 H 0.92073 0.90264 0.25137 0.0
H1483 H 0.84414 0.94206 0.29039 0.0
H1484 H 0.99891 0.15894 0.23871 0.0
H1485 H 0.0196 0.16894 0.3488 0.0
H1486 H 0.01898 0.22469 0.24801 0.0
H1487 H 0.0394 0.23446 0.35614 0.0
H1488 H 0.94691 0.08568 0.17495 0.0
H1489 H 0.87951 0.05104 0.24113 0.0
H1490 H 0.90352 0.07833 0.12847 0.0
H1491 H 0.83729 0.04429 0.19349 0.0
H1492 H 1.00791 1.02034 0.11371 0.0
H1493 H 0.07487 0.1191 0.15901 0.0
H1494 H 0.88843 0.22814 0.32708 0.0
H1495 H 0.89782 0.20787 0.2184 0.0
Li1496 Li 0.30776 0.65254 0.57781 0.0
Li1497 Li 0.31844 0.6022 0.53489 0.0
Li1498 Li 0.28632 0.64106 0.51721 0.0
Li1499 Li 0.2682 0.60064 0.55343 0.0
C1500 C 0.35937 0.67838 0.54912 0.0
N1501 N 0.41676 0.72529 0.574 0.0
C1502 C 0.38465 0.66575 0.56014 0.0
C1503 C 0.36339 0.71497 0.55085 0.0
C1504 C 0.41346 0.68986 0.57251 0.0
C1505 C 0.39254 0.73823 0.56356 0.0
C1506 C 0.29453 0.58266 0.60428 0.0
C1507 C 0.26904 0.52513 0.61334 0.0
N1508 N 0.26514 0.54106 0.64606 0.0
C1509 C 0.29049 0.59843 0.63808 0.0
C1510 C 0.28402 0.54569 0.59187 0.0
C1511 C 0.27551 0.57694 0.65878 0.0
C1512 C 0.29295 0.69495 0.6337 0.0
N1513 N 0.31827 0.68841 0.61865 0.0
C1514 C 0.35208 0.73442 0.66226 0.0
C1515 C 0.34761 0.7069 0.63269 0.0
C1516 C 0.32611 0.74236 0.67723 0.0
C1517 C 0.29633 0.72202 0.66316 0.0
H1518 H 0.26997 0.67917 0.6229 0.0
H1519 H 0.36747 0.70009 0.62147 0.0
C1520 C 0.3579 0.58999 0.48746 0.0
N1521 N 0.34836 0.57944 0.51625 0.0
C1522 C 0.38162 0.57766 0.47167 0.0
C1523 C 0.38457 0.54278 0.51489 0.0
C1524 C 0.36088 0.55615 0.53012 0.0
C1525 C 0.39552 0.55391 0.48548 0.0
H1526 H 0.34746 0.60876 0.47728 0.0
H1527 H 0.35274 0.54833 0.5531 0.0
C1528 C 0.25221 0.6774 0.55537 0.0
N1529 N 0.22473 0.73256 0.54871 0.0
C1530 C 0.21987 0.6708 0.54779 0.0
C1531 C 0.27056 0.71207 0.55941 0.0
C1532 C 0.20642 0.69906 0.54473 0.0
C1533 C 0.25624 0.73956 0.55585 0.0
C1534 C 0.26037 0.55646 0.4861 0.0
C1535 C 0.23315 0.55468 0.46491 0.0
C1536 C 0.26998 0.52519 0.48712 0.0
C1537 C 0.21577 0.5215 0.44534 0.0
C1538 C 0.25196 0.49253 0.46716 0.0
N1539 N 0.22545 0.49137 0.44687 0.0
C1540 C 0.29988 0.6885 0.47628 0.0
C1541 C 0.24575 0.6621 0.4717 0.0
C1542 C 0.294 0.7135 0.45837 0.0
N1543 N 0.27588 0.66428 0.48339 0.0
C1544 C 0.23875 0.68667 0.4535 0.0
C1545 C 0.2631 0.713 0.44713 0.0
H1546 H 0.32352 0.68927 0.48572 0.0
H1547 H 0.22716 0.64254 0.47804 0.0
C1548 C 0.22022 0.60234 0.59121 0.0
N1549 N 0.23003 0.57872 0.56698 0.0
C1550 C 0.18858 0.60086 0.59112 0.0
C1551 C 0.17803 0.54558 0.54761 0.0
C1552 C 0.20991 0.549 0.54731 0.0
C1553 C 0.16729 0.57361 0.5671 0.0
H1554 H 0.23686 0.62522 0.60716 0.0
H1555 H 0.21819 0.53008 0.5288 0.0
O1556 O 0.33095 0.65513 0.53664 0.0
O1557 O 0.30834 0.6034 0.5833 0.0
O1558 O 0.26587 0.64991 0.55814 0.0
O1559 O 0.27814 0.58881 0.50461 0.0
H1560 H 0.38206 0.63775 0.55963 0.0
H1561 H 0.34422 0.72546 0.54268 0.0
H1562 H 0.43315 0.68043 0.58115 0.0
H1563 H 0.39589 0.76658 0.56517 0.0
H1564 H 0.26045 0.49653 0.60396 0.0
H1565 H 0.29869 0.62697 0.64819 0.0
H1566 H 0.28702 0.53309 0.5658 0.0
H1567 H 0.27208 0.5888 0.68494 0.0
H1568 H 0.37548 0.74806 0.67406 0.0
H1569 H 0.27596 0.72684 0.67497 0.0
H1570 H 0.38946 0.58744 0.44944 0.0
H1571 H 0.39417 0.52399 0.52605 0.0
H1572 H 0.20531 0.64404 0.54365 0.0
H1573 H 0.29559 0.71765 0.56506 0.0
H1574 H 0.18144 0.69434 0.53911 0.0
H1575 H 0.27019 0.76647 0.5588 0.0
H1576 H 0.22553 0.57866 0.46357 0.0
H1577 H 0.29121 0.52614 0.50298 0.0
H1578 H 0.19468 0.51974 0.42883 0.0
H1579 H 0.25916 0.46814 0.46767 0.0
H1580 H 0.31343 0.73347 0.45396 0.0
H1581 H 0.21477 0.68531 0.44477 0.0
H1582 H 0.18116 0.62265 0.60697 0.0
H1583 H 0.16243 0.52343 0.52973 0.0
Li1584 Li 0.44112 0.54329 0.77546 0.0
Li1585 Li 0.48888 0.58494 0.82177 0.0
Li1586 Li 0.44599 0.61755 0.78252 0.0
Li1587 Li 0.48781 0.58138 0.74354 0.0
C1588 C 0.41799 0.57069 0.8368 0.0
N1589 N 0.37054 0.54327 0.87216 0.0
C1590 C 0.42141 0.54508 0.85556 0.0
C1591 C 0.39043 0.58227 0.83588 0.0
C1592 C 0.39715 0.53158 0.87332 0.0
C1593 C 0.3667 0.5681 0.85398 0.0
C1594 C 0.49915 0.51607 0.77641 0.0
C1595 C 0.52372 0.47152 0.74713 0.0
N1596 N 0.51952 0.45433 0.77349 0.0
C1597 C 0.49559 0.49837 0.80355 0.0
C1598 C 0.51347 0.50272 0.74805 0.0
C1599 C 0.5057 0.46692 0.80134 0.0
C1600 C 0.42494 0.46078 0.75972 0.0
N1601 N 0.41273 0.48956 0.77137 0.0
C1602 C 0.36703 0.44687 0.7822 0.0
C1603 C 0.38367 0.48243 0.78203 0.0
C1604 C 0.38 0.41707 0.77201 0.0
C1605 C 0.4096 0.42516 0.76058 0.0
H1606 H 0.44706 0.46501 0.74974 0.0
H1607 H 0.37317 0.50438 0.79105 0.0
C1608 C 0.49902 0.58393 0.90309 0.0
N1609 N 0.51365 0.57936 0.87361 0.0
C1610 C 0.51159 0.57937 0.93614 0.0
C1611 C 0.55533 0.56538 0.91111 0.0
C1612 C 0.5417 0.56973 0.87799 0.0
C1613 C 0.54027 0.56937 0.94179 0.0
H1614 H 0.47709 0.59157 0.90157 0.0
H1615 H 0.55436 0.56557 0.85581 0.0
C1616 C 0.41548 0.57258 0.71352 0.0
N1617 N 0.36703 0.57011 0.66427 0.0
C1618 C 0.42169 0.58444 0.68328 0.0
C1619 C 0.38467 0.55958 0.71882 0.0
C1620 C 0.39685 0.58294 0.65866 0.0
C1621 C 0.36049 0.55851 0.69357 0.0
C1622 C 0.5079 0.66115 0.79381 0.0
C1623 C 0.50806 0.67667 0.76511 0.0
C1624 C 0.51746 0.68278 0.82727 0.0
C1625 C 0.51771 0.71379 0.77041 0.0
C1626 C 0.52696 0.7198 0.83146 0.0
N1627 N 0.52681 0.73437 0.8032 0.0
C1628 C 0.41112 0.68601 0.81007 0.0
C1629 C 0.41545 0.67599 0.75107 0.0
C1630 C 0.39636 0.71562 0.80802 0.0
N1631 N 0.42107 0.66581 0.78185 0.0
C1632 C 0.40085 0.70507 0.74805 0.0
C1633 C 0.3902 0.72647 0.77634 0.0
H1634 H 0.41469 0.6798 0.8352 0.0
H1635 H 0.42254 0.66171 0.72784 0.0
C1636 C 0.49834 0.55412 0.66279 0.0
N1637 N 0.51312 0.57593 0.69432 0.0
C1638 C 0.51325 0.54968 0.63128 0.0
C1639 C 0.55926 0.58972 0.66285 0.0
C1640 C 0.54362 0.59346 0.69383 0.0
C1641 C 0.54466 0.56753 0.62987 0.0
H1642 H 0.4744 0.53958 0.66147 0.0
H1643 H 0.55655 0.61084 0.71771 0.0
O1644 O 0.44133 0.584 0.81902 0.0
O1645 O 0.4882 0.54598 0.77722 0.0
O1646 O 0.43941 0.57442 0.7382 0.0
O1647 O 0.49654 0.62515 0.78927 0.0
H1648 H 0.44246 0.53551 0.85613 0.0
H1649 H 0.3874 0.60195 0.82129 0.0
H1650 H 0.39944 0.51171 0.8879 0.0
H1651 H 0.34524 0.57682 0.85353 0.0
H1652 H 0.5348 0.46082 0.72534 0.0
H1653 H 0.48443 0.5083 0.8256 0.0
H1654 H 0.51644 0.51619 0.72689 0.0
H1655 H 0.50236 0.45235 0.82162 0.0
H1656 H 0.34445 0.44302 0.79139 0.0
H1657 H 0.42095 0.40384 0.75182 0.0
H1658 H 0.49864 0.58457 0.95796 0.0
H1659 H 0.5781 0.55972 0.91261 0.0
H1660 H 0.44542 0.59487 0.67898 0.0
H1661 H 0.37953 0.5505 0.74223 0.0
H1662 H 0.40127 0.59204 0.63513 0.0
H1663 H 0.33652 0.54851 0.69727 0.0
H1664 H 0.50039 0.66022 0.73909 0.0
H1665 H 0.51714 0.67113 0.84975 0.0
H1666 H 0.51789 0.72626 0.7485 0.0
H1667 H 0.53421 0.73695 0.85718 0.0
H1668 H 0.39009 0.73015 0.83166 0.0
H1669 H 0.39809 0.71097 0.72264 0.0
H1670 H 0.49976 0.53211 0.60778 0.0
H1671 H 0.58317 0.60439 0.66516 0.0
Li1672 Li 0.70194 0.08581 0.76811 0.0
Li1673 Li 0.74942 0.10803 0.74362 0.0
Li1674 Li 0.70741 0.0589 0.71069 0.0
Li1675 Li 0.73942 0.0515 0.75748 0.0
C1676 C 0.67702 0.113 0.71726 0.0
N1677 N 0.61897 0.1205 0.69412 0.0
C1678 C 0.67442 0.14045 0.70056 0.0
C1679 C 0.65 0.08906 0.72151 0.0
C1680 C 0.64488 0.14383 0.68913 0.0
C1681 C 0.62097 0.09344 0.70994 0.0
C1682 C 0.75913 0.09679 0.82062 0.0
C1683 C 0.80467 0.09539 0.85724 0.0
N1684 N 0.78688 0.09019 0.88306 0.0
C1685 C 0.74143 0.09199 0.84775 0.0
C1686 C 0.79107 0.0987 0.82547 0.0
C1687 C 0.75582 0.08834 0.87893 0.0
C1688 C 0.6526 0.08034 0.8085 0.0
N1689 N 0.67572 0.10265 0.79762 0.0
C1690 C 0.6657 0.15384 0.83399 0.0
C1691 C 0.68184 0.1387 0.80867 0.0
C1692 C 0.64359 0.13141 0.84808 0.0
C1693 C 0.63584 0.09435 0.83383 0.0
H1694 H 0.64826 0.05176 0.79866 0.0
H1695 H 0.70031 0.15547 0.79894 0.0
C1696 C 0.76299 0.17843 0.74526 0.0
N1697 N 0.77774 0.1524 0.74866 0.0
C1698 C 0.77758 0.21399 0.75947 0.0
C1699 C 0.82306 0.19576 0.77951 0.0
C1700 C 0.80742 0.16032 0.76497 0.0
C1701 C 0.80775 0.22267 0.77701 0.0
H1702 H 0.73907 0.17152 0.73385 0.0
H1703 H 0.81828 0.13945 0.76906 0.0
C1704 C 0.68669 0.99756 0.73518 0.0
N1705 N 0.67424 0.92425 0.71093 0.0
C1706 C 0.70167 0.98278 0.70803 0.0
C1707 C 0.66552 0.97498 0.75008 0.0
C1708 C 0.69498 0.94568 0.69608 0.0
C1709 C 0.65952 0.93801 0.73745 0.0
C1710 C 0.77829 0.06859 0.69587 0.0
C1711 C 0.77468 0.06238 0.65955 0.0
C1712 C 0.80827 0.07919 0.71411 0.0
C1713 C 0.80103 0.06809 0.6423 0.0
C1714 C 0.83404 0.08451 0.69598 0.0
N1715 N 0.82991 0.079 0.66074 0.0
C1716 C 0.69315 0.06686 0.64796 0.0
C1717 C 0.65419 1.02164 0.66174 0.0
C1718 C 0.67277 0.0705 0.62166 0.0
N1719 N 0.68344 0.04335 0.66769 0.0
C1720 C 0.63282 0.02429 0.63526 0.0
C1721 C 0.64198 0.04973 0.61559 0.0
H1722 H 0.71556 0.08575 0.65535 0.0
H1723 H 0.64655 1.00489 0.6794 0.0
C1724 C 0.7523 1.01368 0.80653 0.0
N1725 N 0.7595 1.02176 0.77597 0.0
C1726 C 0.7728 1.00071 0.8258 0.0
C1727 C 0.8057 1.00138 0.77975 0.0
C1728 C 0.7847 1.0144 0.76161 0.0
C1729 C 0.80003 0.99452 0.81246 0.0
H1730 H 0.73161 1.01934 0.81683 0.0
H1731 H 0.78911 1.0199 0.7367 0.0
O1732 O 0.7058 0.10917 0.72876 0.0
O1733 O 0.74511 0.09886 0.78936 0.0
O1734 O 0.69331 0.03376 0.74818 0.0
O1735 O 0.75277 0.06199 0.71321 0.0
H1736 H 0.69488 0.1588 0.69603 0.0
H1737 H 0.65129 0.06695 0.73327 0.0
H1738 H 0.64255 0.16499 0.67628 0.0
H1739 H 0.6001 0.07513 0.71353 0.0
H1740 H 0.82928 0.09645 0.86118 0.0
H1741 H 0.7167 0.09025 0.84459 0.0
H1742 H 0.80507 0.10163 0.80467 0.0
H1743 H 0.74218 0.08381 0.8997 0.0
H1744 H 0.67217 0.1824 0.84426 0.0
H1745 H 0.61861 0.07632 0.84395 0.0
H1746 H 0.76506 0.23441 0.75778 0.0
H1747 H 0.84625 0.20199 0.79354 0.0
H1748 H 0.71822 0.99959 0.69616 0.0
H1749 H 0.65397 0.98594 0.77135 0.0
H1750 H 0.70633 0.93393 0.67504 0.0
H1751 H 0.64321 0.92025 0.74879 0.0
H1752 H 0.75189 0.05238 0.64463 0.0
H1753 H 0.81163 0.08234 0.74196 0.0
H1754 H 0.79854 0.06358 0.61425 0.0
H1755 H 0.85733 0.09267 0.70991 0.0
H1756 H 0.68077 0.09095 0.60767 0.0
H1757 H 0.60921 1.0079 0.63127 0.0
H1758 H 0.76728 0.99559 0.8507 0.0
H1759 H 0.82656 0.99769 0.7685 0.0
Li1760 Li 0.81513 0.73065 0.05476 0.0
Li1761 Li 0.8337 0.68264 0.01586 0.0
Li1762 Li 0.81526 0.72769 0.9846 0.0
Li1763 Li 0.77766 0.68227 1.00957 0.0
C1764 C 0.87248 0.7645 0.04447 0.0
N1765 N 0.91497 0.82332 0.08563 0.0
C1766 C 0.88833 0.76175 0.07528 0.0
C1767 C 0.87817 0.79716 0.03463 0.0
C1768 C 0.90973 0.7918 0.09573 0.0
C1769 C 0.89979 0.82659 0.05577 0.0
C1770 C 0.80916 0.65165 0.06456 0.0
C1771 C 0.79489 0.59048 0.07003 0.0
N1772 N 0.8203 0.59711 0.09404 0.0
C1773 C 0.8351 0.65786 0.08941 0.0
C1774 C 0.78884 0.61768 0.05483 0.0
C1775 C 0.84035 0.62995 0.10395 0.0
C1776 C 0.8081 0.72844 0.1251 0.0
N1777 N 0.81925 0.75348 0.10701 0.0
C1778 C 0.83686 0.79684 0.1622 0.0
C1779 C 0.83299 0.78772 0.12512 0.0
C1780 C 0.82747 0.77029 0.18097 0.0
C1781 C 0.81346 0.73568 0.16149 0.0
H1782 H 0.79546 0.70205 0.1114 0.0
H1783 H 0.84187 0.80783 0.11108 0.0
C1784 C 0.89417 0.67069 0.02894 0.0
N1785 N 0.86369 0.65414 0.01777 0.0
C1786 C 0.9151 0.65117 0.03791 0.0
C1787 C 0.87337 0.59763 0.02163 0.0
C1788 C 0.85335 0.61812 0.0129 0.0
C1789 C 0.90446 0.6143 0.03543 0.0
H1790 H 0.90194 0.69932 0.03255 0.0
H1791 H 0.82903 0.6055 1.0045 0.0
C1792 C 0.75209 0.73861 0.01843 0.0
N1793 N 0.69032 0.74079 0.01973 0.0
C1794 C 0.73049 0.72311 0.9887 0.0
C1795 C 0.74231 0.75549 0.04878 0.0
C1796 C 0.69934 0.72425 0.98994 0.0
C1797 C 0.71097 0.75637 0.04886 0.0
C1798 C 0.78802 0.64977 0.94277 0.0
C1799 C 0.76842 0.66082 0.9202 0.0
C1800 C 0.79074 0.61441 0.93505 0.0
C1801 C 0.75137 0.63613 0.89077 0.0
C1802 C 0.77342 0.59056 0.90529 0.0
N1803 N 0.75419 0.60179 0.884 0.0
C1804 C 0.82949 0.72591 0.91285 0.0
C1805 C 0.82805 0.78429 0.94053 0.0
C1806 C 0.8351 0.73652 0.88143 0.0
N1807 N 0.82513 0.74928 0.94178 0.0
C1808 C 0.8349 0.79634 0.90983 0.0
C1809 C 0.83787 0.77221 0.87916 0.0
H1810 H 0.82849 0.69852 0.91382 0.0
H1811 H 0.825 0.80315 0.96329 0.0
C1812 C 0.72317 0.65967 0.03946 0.0
N1813 N 0.73539 0.65207 1.00902 0.0
C1814 C 0.69442 0.63916 0.04444 0.0
C1815 C 0.69105 0.60241 0.98692 0.0
C1816 C 0.71985 0.62386 0.98292 0.0
C1817 C 0.67788 0.60984 0.0181 0.0
H1818 H 0.73608 0.68156 0.0603 0.0
H1819 H 0.72982 0.61744 0.95912 0.0
O1820 O 0.85124 0.73546 0.02425 0.0
O1821 O 0.80381 0.67869 0.04981 0.0
O1822 O 0.7826 0.73707 0.018 0.0
O1823 O 0.80501 0.6736 0.97173 0.0
H1824 H 0.88399 0.73675 0.08343 0.0
H1825 H 0.86605 0.79974 1.01091 0.0
H1826 H 0.9221 0.79007 0.11968 0.0
H1827 H 0.90447 0.85204 0.04845 0.0
H1828 H 0.77943 0.56404 0.06263 0.0
H1829 H 0.85114 0.68392 0.09718 0.0
H1830 H 0.76883 0.61216 0.03547 0.0
H1831 H 0.86041 0.63436 0.12304 0.0
H1832 H 0.84868 0.82379 0.17593 0.0
H1833 H 0.80615 0.71413 0.17446 0.0
H1834 H 0.93887 0.66514 0.04846 0.0
H1835 H 0.8643 0.56919 0.01877 0.0
H1836 H 0.73757 0.71001 0.96501 0.0
H1837 H 0.75879 0.76776 0.07197 0.0
H1838 H 0.68236 0.71215 0.96716 0.0
H1839 H 0.70297 0.76936 0.07206 0.0
H1840 H 0.76669 0.68827 0.92508 0.0
H1841 H 0.80621 0.60545 0.95162 0.0
H1842 H 0.73596 0.64425 0.87326 0.0
H1843 H 0.77531 0.56312 0.8991 0.0
H1844 H 0.83754 0.71676 0.85902 0.0
H1845 H 0.83682 0.82419 0.90987 0.0
H1846 H 0.68545 0.64609 0.06896 0.0
H1847 H 0.67924 0.58021 0.96574 0.0
Li1848 Li 0.93942 0.51963 0.83578 0.0
Li1849 Li 0.98201 0.5727 0.85658 0.0
Li1850 Li 0.94127 0.57707 0.81989 0.0
Li1851 Li 0.97946 0.54266 0.7994 0.0
C1852 C 0.91325 0.57873 0.87656 0.0
N1853 N 0.86288 0.60486 0.8968 0.0
C1854 C 0.91794 0.61311 0.89754 0.0
C1855 C 0.88294 0.55759 0.86608 0.0
C1856 C 0.89217 0.62584 0.90747 0.0
C1857 C 0.85778 0.5713 0.87648 0.0
C1858 C 1.00902 0.5147 0.85578 0.0
C1859 C 0.06108 0.50551 0.85729 0.0
N1860 N 0.05869 0.49714 0.88876 0.0
C1861 C 1.00728 0.50648 0.88841 0.0
C1862 C 0.0363 0.51452 0.84026 0.0
C1863 C 0.03256 0.49747 0.90453 0.0
C1864 C 0.92535 0.45311 0.85411 0.0
N1865 N 0.91421 0.47587 0.83792 0.0
C1866 C 0.87474 0.42825 0.80258 0.0
C1867 C 0.88868 0.46449 0.81367 0.0
C1868 C 0.88672 0.40408 0.81756 0.0
C1869 C 0.91179 0.41657 0.84413 0.0
H1870 H 0.94624 0.46271 0.8724 0.0
H1871 H 0.88106 0.48315 0.80051 0.0
C1872 C 0.04262 0.59472 0.89236 0.0
N1873 N 1.01193 0.59236 0.89541 0.0
C1874 C 0.06254 0.59259 0.92033 0.0
C1875 C 0.01945 0.5896 0.95441 0.0
C1876 C 1.00048 0.59203 0.92607 0.0
C1877 C 0.05017 0.58726 0.95083 0.0
H1878 H 0.05078 0.59364 0.86724 0.0
H1879 H 0.97589 0.58961 0.92744 0.0
C1880 C 0.92854 0.51988 0.75378 0.0
N1881 N 0.92216 0.50153 0.68195 0.0
C1882 C 0.93765 0.54604 0.73506 0.0
C1883 C 0.91632 0.48436 0.73594 0.0
C1884 C 0.93449 0.53618 0.69878 0.0
C1885 C 0.91296 0.47572 0.69966 0.0
C1886 C 1.00796 0.62577 0.83154 0.0
C1887 C 1.00089 0.65018 0.85891 0.0
C1888 C 0.03721 0.63327 0.82003 0.0
C1889 C 0.0234 0.68144 0.87472 0.0
C1890 C 0.05905 0.6649 0.83643 0.0
N1891 N 0.05177 0.6881 0.86324 0.0
C1892 C 0.8868 0.57901 0.78396 0.0
C1893 C 0.91883 0.63714 0.80775 0.0
C1894 C 0.86884 0.59208 0.76187 0.0
N1895 N 0.91245 0.60118 0.80443 0.0
C1896 C 0.90105 0.65157 0.78642 0.0
C1897 C 0.87698 0.62841 0.76183 0.0
H1898 H 0.88175 0.55064 0.78265 0.0
H1899 H 0.93916 0.65416 0.8246 0.0
C1900 C 0.99232 0.48616 0.75581 0.0
N1901 N 0.99824 0.52239 0.76238 0.0
C1902 C 1.00291 0.46728 0.72737 0.0
C1903 C 0.02641 0.52366 0.71381 0.0
C1904 C 1.01502 0.54144 0.74233 0.0
C1905 C 0.01986 0.48604 0.70572 0.0
H1906 H 0.97858 0.47195 0.77227 0.0
H1907 H 0.01886 0.57019 0.748 0.0
O1908 O 0.93819 0.56555 0.86697 0.0
O1909 O 0.98403 0.52211 0.83875 0.0
O1910 O 0.93313 0.52881 0.78941 0.0
O1911 O 0.98601 0.59532 0.81534 0.0
H1912 H 0.94123 0.62968 0.90636 0.0
H1913 H 0.87886 0.53091 0.85002 0.0
H1914 H 0.89545 0.65236 0.92377 0.0
H1915 H 0.83421 0.55523 0.86846 0.0
H1916 H 0.08219 0.50508 0.84542 0.0
H1917 H 0.98688 0.50763 0.90147 0.0
H1918 H 0.03846 0.52136 0.81537 0.0
H1919 H 0.0315 0.4909 0.92965 0.0
H1920 H 0.85611 0.41906 0.78107 0.0
H1921 H 0.92191 0.39815 0.85538 0.0
H1922 H 0.08629 0.59158 0.91691 0.0
H1923 H 1.00941 0.58733 0.97798 0.0
H1924 H 0.94776 0.57348 0.74852 0.0
H1925 H 0.90986 0.46351 0.74983 0.0
H1926 H 0.94209 0.55595 0.68398 0.0
H1927 H 0.90322 0.44845 0.68566 0.0
H1928 H 0.9783 0.64492 0.8679 0.0
H1929 H 0.04307 0.61482 0.79879 0.0
H1930 H 0.01829 0.70045 0.89607 0.0
H1931 H 0.08181 0.671 0.82786 0.0
H1932 H 0.85014 0.57369 0.74337 0.0
H1933 H 0.9078 0.67983 0.78686 0.0
H1934 H 0.99696 0.43834 0.72173 0.0
H1935 H 0.03977 0.53915 0.69795 0.0
Li1936 Li 0.87767 0.46784 0.53289 0.0
Li1937 Li 0.85815 0.51061 0.50939 0.0
Li1938 Li 0.85978 0.45391 0.47101 0.0
Li1939 Li 0.90805 0.49941 0.49385 0.0
C1940 C 0.81061 0.4496 0.5275 0.0
N1941 N 0.76215 0.42651 0.56385 0.0
C1942 C 0.80525 0.47221 0.55743 0.0
C1943 C 0.79083 0.41542 0.5158 0.0
C1944 C 0.78077 0.46002 0.5755 0.0
C1945 C 0.76661 0.40417 0.5346 0.0
C1946 C 0.90138 0.54173 0.57256 0.0
C1947 C 0.92767 0.59666 0.61325 0.0
N1948 N 0.90988 0.58676 0.63766 0.0
C1949 C 0.88371 0.53189 0.59827 0.0
C1950 C 0.92367 0.57432 0.58019 0.0
C1951 C 0.88814 0.55515 0.63092 0.0
C1952 C 0.91437 0.45631 0.58694 0.0
N1953 N 0.8849 0.44663 0.56999 0.0
C1954 C 0.87118 0.39855 0.59786 0.0
C1955 C 0.86324 0.41877 0.57539 0.0
C1956 C 0.90156 0.40749 0.61552 0.0
C1957 C 0.92326 0.43709 0.6102 0.0
H1958 H 0.93125 0.47817 0.58138 0.0
H1959 H 0.84041 0.41074 0.56069 0.0
C1960 C 0.80198 0.53085 0.51136 0.0
N1961 N 0.83323 0.54426 0.51964 0.0
C1962 C 0.78136 0.55032 0.52534 0.0
C1963 C 0.82544 0.59922 0.55182 0.0
C1964 C 0.84522 0.57823 0.53848 0.0
C1965 C 0.79299 0.58463 0.54707 0.0
H1966 H 0.79304 0.50384 0.49604 0.0
H1967 H 0.87009 0.58863 0.54466 0.0
C1968 C 0.9015 0.41517 0.49581 0.0
N1969 N 0.90766 0.34788 0.50031 0.0
C1970 C 0.93087 0.40766 0.49695 0.0
C1971 C 0.87543 0.38861 0.49769 0.0
C1972 C 0.93347 0.37343 0.49902 0.0
C1973 C 0.87894 0.35474 0.49977 0.0
C1974 C 0.8819 0.53522 0.45256 0.0
C1975 C 0.87926 0.53631 0.41744 0.0
C1976 C 0.89659 0.56624 0.47759 0.0
C1977 C 0.89141 0.56844 0.40806 0.0
C1978 C 0.90795 0.59795 0.46725 0.0
N1979 N 0.90526 0.59836 0.43294 0.0
C1980 C 0.83116 0.38422 0.42717 0.0
C1981 C 0.86552 0.42785 0.40589 0.0
C1982 C 0.8321 0.35797 0.39799 0.0
N1983 N 0.848 0.41827 0.43053 0.0
C1984 C 0.86647 0.40285 0.37608 0.0
C1985 C 0.84955 0.36737 0.37178 0.0
H1986 H 0.81848 0.37683 0.44774 0.0
H1987 H 0.87996 0.45466 0.41018 0.0
C1988 C 0.95838 0.48509 0.46308 0.0
N1989 N 0.94846 0.51243 0.48212 0.0
C1990 C 0.99014 0.48686 0.46386 0.0
C1991 C 1.00038 0.54731 0.49834 0.0
C1992 C 0.96847 0.54406 0.49767 0.0
C1993 C 1.01144 0.51747 0.48367 0.0
H1994 H 0.94168 0.46047 0.45034 0.0
H1995 H 0.95991 0.5656 0.51198 0.0
O1996 O 0.83446 0.46089 0.50916 0.0
O1997 O 0.89812 0.51898 0.54064 0.0
O1998 O 0.89843 0.44866 0.49408 0.0
O1999 O 0.87318 0.50323 0.46193 0.0
H2000 H 0.8194 0.49914 0.56634 0.0
H2001 H 0.79414 0.39764 0.49253 0.0
H2002 H 0.77646 0.4773 0.59869 0.0
H2003 H 0.75132 0.3777 0.5259 0.0
H2004 H 0.94498 0.62179 0.61947 0.0
H2005 H 0.86727 0.50629 0.59345 0.0
H2006 H 0.93781 0.58237 0.56088 0.0
H2007 H 0.87461 0.54785 0.65106 0.0
H2008 H 0.8539 0.37534 0.60031 0.0
H2009 H 0.9468 0.44512 0.62357 0.0
H2010 H 0.75676 0.53743 0.52085 0.0
H2011 H 0.83574 0.62601 0.56709 0.0
H2012 H 0.95153 0.42803 0.49654 0.0
H2013 H 0.85278 0.3944 0.49839 0.0
H2014 H 0.95604 0.36724 0.49975 0.0
H2015 H 0.85887 0.334 0.50123 0.0
H2016 H 0.86862 0.51241 0.39756 0.0
H2017 H 0.90007 0.56567 0.50463 0.0
H2018 H 0.89031 0.5695 0.38099 0.0
H2019 H 0.91941 0.62207 0.48646 0.0
H2020 H 0.81989 0.33068 0.39641 0.0
H2021 H 0.88076 0.41134 0.35694 0.0
H2022 H 0.99781 0.46347 0.45187 0.0
H2023 H 0.01588 0.57176 0.51302 0.0
Li2024 Li 0.69386 0.53081 0.31589 0.0
Li2025 Li 0.73667 0.56668 0.28212 0.0
Li2026 Li 0.69006 0.526 0.23743 0.0
Li2027 Li 0.73554 0.49429 0.27482 0.0
C2028 C 0.68524 0.59822 0.29241 0.0
N2029 N 0.67627 0.66618 0.31358 0.0
C2030 C 0.69529 0.6176 0.32665 0.0
C2031 C 0.67016 0.61313 0.26904 0.0
C2032 C 0.69058 0.65195 0.33684 0.0
C2033 C 0.66606 0.64767 0.28021 0.0
C2034 C 0.7702 0.55469 0.33855 0.0
C2035 C 0.82614 0.56575 0.3467 0.0
N2036 N 0.82734 0.59286 0.3747 0.0
C2037 C 0.77188 0.58272 0.36728 0.0
C2038 C 0.79748 0.54604 0.32822 0.0
C2039 C 0.80103 0.60159 0.38535 0.0
C2040 C 0.68599 0.54775 0.39868 0.0
N2041 N 0.66933 0.53502 0.36582 0.0
C2042 C 0.62212 0.5298 0.39662 0.0
C2043 C 0.63738 0.52619 0.36536 0.0
C2044 C 0.63865 0.54284 0.43088 0.0
C2045 C 0.67154 0.55186 0.43051 0.0
H2046 H 0.71112 0.55513 0.4009 0.0
H2047 H 0.62295 0.51631 0.34046 0.0
C2048 C 0.75004 0.64009 0.26515 0.0
N2049 N 0.76364 0.62037 0.28369 0.0
C2050 C 0.76447 0.67611 0.26491 0.0
C2051 C 0.80851 0.67234 0.30109 0.0
C2052 C 0.79289 0.6364 0.30129 0.0
C2053 C 0.79442 0.69351 0.28294 0.0
H2054 H 0.72769 0.62786 0.24981 0.0
H2055 H 0.80457 0.6215 0.31566 0.0
C2056 C 0.67163 0.45059 0.26453 0.0
N2057 N 0.64793 0.37766 0.2524 0.0
C2058 C 0.66026 0.43066 0.23074 0.0
C2059 C 0.67085 0.43354 0.29219 0.0
C2060 C 0.64834 0.39378 0.22515 0.0
C2061 C 0.65877 0.39659 0.2855 0.0
C2062 C 0.76195 0.54338 0.22353 0.0
C2063 C 0.79061 0.53449 0.22741 0.0
C2064 C 0.75866 0.5693 0.20514 0.0
C2065 C 0.81559 0.55182 0.21286 0.0
C2066 C 0.78421 0.58605 0.191 0.0
N2067 N 0.81191 0.57704 0.19512 0.0
C2068 C 0.63533 0.53616 0.181 0.0
C2069 C 0.68019 0.52754 0.15712 0.0
C2070 C 0.62141 0.53976 0.14781 0.0
N2071 N 0.66464 0.52978 0.18597 0.0
C2072 C 0.66732 0.53143 0.124 0.0
C2073 C 0.63741 0.53832 0.11784 0.0
H2074 H 0.62194 0.53823 0.20273 0.0
H2075 H 0.70309 0.52229 0.15922 0.0
C2076 C 0.76502 0.43281 0.30203 0.0
N2077 N 0.76113 0.44666 0.27309 0.0
C2078 C 0.77972 0.40332 0.30273 0.0
C2079 C 0.78803 0.40034 0.24424 0.0
C2080 C 0.77318 0.43016 0.24449 0.0
C2081 C 0.79255 0.38572 0.27394 0.0
H2082 H 0.75608 0.44404 0.32534 0.0
H2083 H 0.77094 0.43933 0.22071 0.0
O2084 O 0.69015 0.56478 0.28202 0.0
O2085 O 0.74216 0.53635 0.3198 0.0
O2086 O 0.68492 0.48635 0.27026 0.0
O2087 O 0.73742 0.52716 0.23817 0.0
H2088 H 0.70676 0.60627 0.34509 0.0
H2089 H 0.66222 0.59846 0.24244 0.0
H2090 H 0.69839 0.66732 0.36322 0.0
H2091 H 0.65492 0.65986 0.26236 0.0
H2092 H 0.84739 0.55959 0.33855 0.0
H2093 H 0.751 0.59006 0.37533 0.0
H2094 H 0.79651 0.52448 0.30595 0.0
H2095 H 0.80275 0.62337 0.40764 0.0
H2096 H 0.597 0.52282 0.39356 0.0
H2097 H 0.68652 0.56215 0.45506 0.0
H2098 H 0.75208 0.69006 0.25005 0.0
H2099 H 0.83147 0.68358 0.31558 0.0
H2100 H 0.66096 0.4435 0.20904 0.0
H2101 H 0.67982 0.44864 0.31845 0.0
H2102 H 0.63965 0.37795 0.19914 0.0
H2103 H 0.65808 0.38294 0.30659 0.0
H2104 H 0.7935 0.51441 0.2415 0.0
H2105 H 0.73669 0.57667 0.20212 0.0
H2106 H 0.83792 0.54522 0.21567 0.0
H2107 H 0.78204 0.60628 0.17682 0.0
H2108 H 0.59777 0.54288 0.14565 0.0
H2109 H 0.68099 0.52816 0.10256 0.0
H2110 H 0.7803 0.39359 0.32636 0.0
H2111 H 0.79525 0.38818 0.2201 0.0
Eu2112 Eu 0.05522 0.02892 1.00725 0.0
C2113 C 0.13193 0.16073 0.11263 0.0
C2114 C 0.13497 0.20938 0.08312 0.0
C2115 C 0.13783 0.22151 0.14614 0.0
C2116 C 0.13084 0.17256 0.0819 0.0
C2117 C 0.13615 0.1853 0.14506 0.0
C2118 C 0.1374 0.23354 0.11525 0.0
C2119 C 0.14158 0.1377 0.1732 0.0
N2120 N 0.13158 0.12582 0.11093 0.0
C2121 C 0.13786 0.11445 0.14054 0.0
C2122 C 0.14007 0.17308 0.17548 0.0
Eu2123 Eu 0.12528 0.08892 0.05416 0.0
N2124 N 0.12894 0.14872 0.05113 0.0
C2125 C 0.13444 0.16029 0.02148 0.0
C2126 C 0.13829 0.22108 0.05223 0.0
C2127 C 0.1387 0.1965 0.02144 0.0
H2128 H 0.13898 0.08708 0.13892 0.0
H2129 H 0.14208 0.20529 0.99759 0.0
H2130 H 0.14017 0.26182 0.11661 0.0
H2131 H 0.14556 0.12833 0.19659 0.0
H2132 H 0.13498 0.14163 0.99758 0.0
H2133 H 0.04305 0.90845 0.05741 0.0
H2134 H 0.14163 0.24912 0.05209 0.0
H2135 H 0.03608 0.03063 0.92308 0.0
H2136 H 0.04312 0.97166 0.05927 0.0
H2137 H 0.03275 0.99173 0.86464 0.0
H2138 H 0.14083 0.24068 0.1708 0.0
H2139 H 0.05341 0.87025 1.00386 0.0
H2140 H 0.06074 0.86246 0.94055 0.0
H2141 H 0.14292 0.19096 0.20083 0.0
H2142 H 0.05825 0.88561 0.88756 0.0
N2143 N 0.0545 0.96914 1.00787 0.0
C2144 C 0.04767 0.95508 0.03584 0.0
C2145 C 0.05346 0.89784 1.00456 0.0
C2146 C 0.05712 0.91155 0.97483 0.0
C2147 C 0.0475 0.91931 0.03481 0.0
C2148 C 0.05652 0.94754 0.97705 0.0
H2149 H 0.04445 0.93235 0.85861 0.0
N2150 N 0.04989 0.99373 0.94972 0.0
C2151 C 0.0391 0.98271 0.88758 0.0
C2152 C 0.05394 0.96012 0.947 0.0
C2153 C 0.04094 1.00464 0.92069 0.0
C2154 C 0.04582 0.94924 0.88429 0.0
C2155 C 0.05289 0.93734 0.91421 0.0
O2156 O 1.00879 0.99289 0.99565 0.0
O2157 O 0.08229 0.08679 0.019 0.0
O2158 O 0.0878 0.08889 0.09396 0.0
O2159 O 0.04934 0.03805 0.0676 0.0
O2160 O 0.04502 0.07325 0.98161 0.0
O2161 O 1.01385 0.04835 0.01989 0.0
O2162 O 0.17241 0.12286 0.06833 0.0
O2163 O 0.09748 0.03175 0.04386 0.0
O2164 O 0.09216 0.0294 0.96681 0.0
O2165 O 0.13184 0.07863 0.99378 0.0
O2166 O 0.13544 0.04485 0.08052 0.0
O2167 O 0.16563 0.0686 0.03889 0.0
C2168 C 0.06589 0.10059 0.99957 0.0
C2169 C 0.96806 1.01939 0.981 0.0
C2170 C 0.92159 0.0415 0.97058 0.0
C2171 C 0.94686 0.03934 0.9932 0.0
C2172 C 0.91849 0.02391 0.93529 0.0
C2173 C 0.96379 1.00119 0.94589 0.0
C2174 C 0.93925 1.0037 0.92319 0.0
C2175 C 0.06136 0.06513 0.09549 0.0
C2176 C 0.99447 1.01802 1.00524 0.0
C2177 C 0.05756 0.90295 0.91237 0.0
C2178 C 0.0593 0.88988 0.94262 0.0
C2179 C 0.1137 1.01796 0.06345 0.0
C2180 C 0.21242 0.0937 0.07718 0.0
C2181 C 0.23671 0.08232 0.06121 0.0
C2182 C 0.26268 0.07828 0.08128 0.0
C2183 C 0.26397 0.0861 0.11778 0.0
C2184 C 0.21424 0.10153 0.1136 0.0
C2185 C 0.23993 0.09776 0.13374 0.0
C2186 C 0.11923 0.05214 0.96557 0.0
C2187 C 0.18576 0.09778 0.05533 0.0
H2188 H 0.95042 0.05352 0.02026 0.0
H2189 H 0.89979 0.02528 0.91694 0.0
H2190 H 0.97939 0.9851 0.93588 0.0
H2191 H 0.93626 0.98987 0.8961 0.0
H2192 H 0.23542 0.07698 0.03311 0.0
H2193 H 0.28328 0.08265 0.13406 0.0
H2194 H 0.19599 0.11073 0.12651 0.0
H2195 H 0.24115 0.10372 0.1618 0.0
Eu2196 Eu 0.3682 0.80937 0.24905 0.0
C2197 C 0.27989 0.87779 0.34268 0.0
C2198 C 0.31458 0.92335 0.38806 0.0
C2199 C 0.26366 0.93116 0.36912 0.0
C2200 C 0.30826 0.89044 0.36338 0.0
C2201 C 0.2569 0.8975 0.34594 0.0
C2202 C 0.2925 0.94411 0.3901 0.0
C2203 C 0.22136 0.84775 0.30564 0.0
N2204 N 0.27408 0.84512 0.32083 0.0
C2205 C 0.24489 0.82921 0.30347 0.0
C2206 C 0.22752 0.88227 0.3266 0.0
Eu2207 Eu 0.31565 0.81622 0.31636 0.0
N2208 N 0.32881 0.86944 0.36104 0.0
C2209 C 0.35484 0.87825 0.38484 0.0
C2210 C 0.34235 0.93372 0.41082 0.0
C2211 C 0.36224 0.9107 0.40967 0.0
H2212 H 0.24011 0.80262 0.28699 0.0
H2213 H 0.3834 0.91802 0.42775 0.0
H2214 H 0.2971 0.96966 0.40859 0.0
H2215 H 0.19854 0.83544 0.2911 0.0
H2216 H 0.37062 0.86099 0.38419 0.0
H2217 H 0.29917 0.70879 0.1372 0.0
H2218 H 0.34812 0.95883 0.43008 0.0
H2219 H 0.44429 0.82231 0.27476 0.0
H2220 H 0.31331 0.76598 0.18033 0.0
H2221 H 0.4857 0.78933 0.26819 0.0
H2222 H 0.24645 0.9469 0.37174 0.0
H2223 H 0.33274 0.6662 0.13544 0.0
H2224 H 0.38327 0.65403 0.1565 0.0
H2225 H 0.20922 0.89654 0.32837 0.0
H2226 H 0.4347 0.67644 0.19175 0.0
N2227 N 0.35395 0.75582 0.2044 0.0
C2228 C 0.32828 0.74792 0.18021 0.0
C2229 C 0.33905 0.69135 0.15465 0.0
C2230 C 0.36681 0.70102 0.17734 0.0
C2231 C 0.32014 0.71538 0.15547 0.0
C2232 C 0.37384 0.73404 0.20196 0.0
H2233 H 0.47353 0.72748 0.23248 0.0
N2234 N 0.40911 0.77941 0.24317 0.0
C2235 C 0.46235 0.77684 0.25521 0.0
C2236 C 0.40252 0.74638 0.22188 0.0
C2237 C 0.43889 0.79545 0.25874 0.0
C2238 C 0.45535 0.74186 0.23517 0.0
C2239 C 0.42528 0.7264 0.21767 0.0
O2240 O 0.4063 0.84629 0.23411 0.0
O2241 O 0.35206 0.84493 0.29085 0.0
O2242 O 0.29837 0.84269 0.27489 0.0
O2243 O 0.31961 0.81627 0.22711 0.0
O2244 O 0.39949 0.85543 0.28959 0.0
O2245 O 0.36032 0.83145 0.20427 0.0
O2246 O 0.2788 0.77349 0.32474 0.0
O2247 O 0.33275 0.78084 0.27528 0.0
O2248 O 0.38692 0.785 0.29159 0.0
O2249 O 0.36337 0.80795 0.33912 0.0
O2250 O 0.28502 0.77084 0.2746 0.0
O2251 O 0.31869 0.79793 0.36451 0.0
C2252 C 0.37755 0.86535 0.30548 0.0
C2253 C 0.40287 0.84034 0.17341 0.0
C2254 C 0.40419 0.84983 0.11528 0.0
C2255 C 0.39258 0.85505 0.14711 0.0
C2256 C 0.42624 0.82936 0.10945 0.0
C2257 C 0.42443 0.81912 0.16761 0.0
C2258 C 0.43603 0.81364 0.13555 0.0
C2259 C 0.29863 0.83311 0.24076 0.0
C2260 C 0.38966 0.84714 0.20596 0.0
C2261 C 0.4177 0.69243 0.19497 0.0
C2262 C 0.38843 0.67968 0.1749 0.0
C2263 C 0.30746 0.76058 0.26001 0.0
C2264 C 0.27174 0.77019 0.38219 0.0
C2265 C 0.2755 0.74505 0.40098 0.0
C2266 C 0.25706 0.73883 0.42711 0.0
C2267 C 0.23375 0.75749 0.43367 0.0
C2268 C 0.24871 0.78913 0.3887 0.0
C2269 C 0.2296 0.78255 0.41438 0.0
C2270 C 0.38518 0.79242 0.32563 0.0
C2271 C 0.292 0.77447 0.35545 0.0
H2272 H 0.37611 0.87168 0.15183 0.0
H2273 H 0.43591 0.82585 0.08502 0.0
H2274 H 0.43237 0.80703 0.18764 0.0
H2275 H 0.45286 0.7976 0.13111 0.0
H2276 H 0.29291 0.72995 0.39496 0.0
H2277 H 0.21915 0.75302 0.45381 0.0
H2278 H 0.24546 0.80863 0.374 0.0
H2279 H 0.2117 0.79697 0.41946 0.0
Eu2280 Eu 0.62602 0.06291 0.5095 0.0
C2281 C 0.52543 1.00788 0.60224 0.0
C2282 C 0.49359 0.95171 0.56738 0.0
C2283 C 0.49663 0.96383 0.63039 0.0
C2284 C 0.51416 0.9853 0.57003 0.0
C2285 C 0.51622 0.99774 0.63277 0.0
C2286 C 0.48537 0.94083 0.59774 0.0
C2287 C 0.54375 0.05669 0.66538 0.0
N2288 N 0.54386 0.04066 0.60362 0.0
C2289 C 0.55272 0.06532 0.63451 0.0
C2290 C 0.52592 1.02255 0.66463 0.0
Eu2291 Eu 0.5552 0.0549 0.55009 0.0
N2292 N 0.52206 0.99689 0.54119 0.0
C2293 C 0.50923 0.97668 0.50885 0.0
C2294 C 0.48118 0.9305 0.53428 0.0
C2295 C 0.48892 0.94312 0.5049 0.0
H2296 H 0.56649 0.09179 0.63536 0.0
H2297 H 0.47915 0.92708 0.47918 0.0
H2298 H 0.46973 0.91504 0.59622 0.0
H2299 H 0.55023 0.07653 0.68969 0.0
H2300 H 0.51467 0.98604 0.48581 0.0
H2301 H 0.70354 0.1917 0.57474 0.0
H2302 H 0.46505 0.90477 0.53109 0.0
H2303 H 0.61211 0.02351 0.42399 0.0
H2304 H 0.66952 0.13215 0.57057 0.0
H2305 H 0.62449 0.03794 0.3683 0.0
H2306 H 0.48945 0.95549 0.65356 0.0
H2307 H 0.71348 0.21336 0.52137 0.0
H2308 H 0.70596 0.20135 0.4562 0.0
H2309 H 0.51899 1.01599 0.68862 0.0
H2310 H 0.6846 0.15941 0.40002 0.0
N2311 N 0.65889 0.12061 0.51554 0.0
C2312 C 0.67324 0.14134 0.54708 0.0
C2313 C 0.69815 0.18736 0.51943 0.0
C2314 C 0.68467 0.16528 0.48704 0.0
C2315 C 0.69269 0.17515 0.54957 0.0
C2316 C 0.66502 0.1315 0.48593 0.0
H2317 H 0.65466 0.09826 0.36705 0.0
N2318 N 0.63567 0.07503 0.45453 0.0
C2319 C 0.63232 0.05802 0.39231 0.0
C2320 C 0.65316 0.10792 0.45442 0.0
C2321 C 0.62553 0.0499 0.42406 0.0
C2322 C 0.64945 0.09208 0.39171 0.0
C2323 C 0.66036 0.11746 0.42301 0.0
O2324 O 0.65409 0.02518 0.49074 0.0
O2325 O 0.58778 1.02249 0.52574 0.0
O2326 O 0.59039 0.03954 0.58449 0.0
O2327 O 0.63225 0.07577 0.56819 0.0
O2328 O 0.6014 1.00718 0.47796 0.0
O2329 O 0.66922 0.0632 0.53991 0.0
O2330 O 0.5282 0.09319 0.57034 0.0
O2331 O 0.59367 0.09469 0.53451 0.0
O2332 O 0.59104 0.08024 0.47625 0.0
O2333 O 0.54909 0.04341 0.4913 0.0
O2334 O 0.57945 0.11157 0.58165 0.0
O2335 O 0.5115 0.05518 0.52136 0.0
C2336 C 0.58384 0.99578 0.49973 0.0
C2337 C 0.70811 0.04142 0.51125 0.0
C2338 C 0.75683 1.02217 0.51527 0.0
C2339 C 0.72562 1.01869 0.52178 0.0
C2340 C 0.77034 0.0492 0.49884 0.0
C2341 C 0.72211 0.06813 0.49496 0.0
C2342 C 0.75313 0.07205 0.48895 0.0
C2343 C 0.62041 0.05496 0.58839 0.0
C2344 C 0.67542 0.03719 0.51768 0.0
C2345 C 0.67893 0.15155 0.42388 0.0
C2346 C 0.69107 0.17544 0.45586 0.0
C2347 C 0.59783 0.12178 0.56007 0.0
C2348 C 0.47383 0.07647 0.55251 0.0
C2349 C 0.45464 0.09617 0.53964 0.0
C2350 C 0.42344 0.09149 0.54631 0.0
C2351 C 0.41188 0.06686 0.56621 0.0
C2352 C 0.46184 0.05209 0.57221 0.0
C2353 C 0.43099 0.04735 0.57901 0.0
C2354 C 0.56089 0.0653 0.47208 0.0
C2355 C 0.50598 0.08108 0.54431 0.0
H2356 H 0.71477 0.99787 0.53421 0.0
H2357 H 0.79431 0.05265 0.49364 0.0
H2358 H 0.70905 0.08588 0.48688 0.0
H2359 H 0.76384 0.09273 0.47636 0.0
H2360 H 0.46392 0.11473 0.52408 0.0
H2361 H 0.38818 0.06306 0.57239 0.0
H2362 H 0.47627 0.03675 0.58228 0.0
H2363 H 0.42186 0.02857 0.59435 0.0
Eu2364 Eu 0.29828 0.31521 0.77331 0.0
C2365 C 0.40337 0.26374 0.84171 0.0
C2366 C 0.42433 0.31219 0.89225 0.0
C2367 C 0.42817 0.25193 0.89353 0.0
C2368 C 0.40864 0.29952 0.85804 0.0
C2369 C 0.41399 0.23979 0.85892 0.0
C2370 C 0.43331 0.28805 0.91015 0.0
C2371 C 0.39977 0.1948 0.80505 0.0
N2372 N 0.39036 0.25299 0.80798 0.0
C2373 C 0.38996 0.21961 0.789 0.0
C2374 C 0.41136 0.20475 0.84034 0.0
Eu2375 Eu 0.3742 0.29652 0.7825 0.0
N2376 N 0.39963 0.32221 0.84005 0.0
C2377 C 0.40738 0.35821 0.85408 0.0
C2378 C 0.43117 0.34887 0.90715 0.0
C2379 C 0.42293 0.37198 0.88782 0.0
H2380 H 0.38106 0.2119 0.76164 0.0
H2381 H 0.42859 0.40046 0.89886 0.0
H2382 H 0.44499 0.29716 0.93654 0.0
H2383 H 0.3985 0.1681 0.79017 0.0
H2384 H 0.40109 0.37663 0.83983 0.0
H2385 H 0.23557 0.21602 0.65724 0.0
H2386 H 0.44336 0.35971 0.93321 0.0
H2387 H 0.28924 0.399 0.7969 0.0
H2388 H 0.26242 0.23718 0.71665 0.0
H2389 H 0.27564 0.44545 0.76945 0.0
H2390 H 0.43614 0.23384 0.9073 0.0
H2391 H 0.22933 0.25911 0.62178 0.0
H2392 H 0.23513 0.32321 0.61818 0.0
H2393 H 0.41925 0.18558 0.85264 0.0
H2394 H 0.24603 0.38631 0.64909 0.0
N2395 N 0.27234 0.29236 0.71547 0.0
C2396 C 0.26004 0.25667 0.70191 0.0
C2397 C 0.24142 0.26881 0.64791 0.0
C2398 C 0.25198 0.3054 0.66267 0.0
C2399 C 0.24464 0.24439 0.66799 0.0
C2400 C 0.26694 0.31646 0.69723 0.0
H2401 H 0.26012 0.432 0.70588 0.0
N2402 N 0.28293 0.36026 0.74912 0.0
C2403 C 0.27489 0.41929 0.75366 0.0
C2404 C 0.27262 0.35175 0.71467 0.0
C2405 C 0.2824 0.39289 0.76912 0.0
C2406 C 0.26634 0.41166 0.71776 0.0
C2407 C 0.26419 0.37724 0.69794 0.0
O2408 O 0.26591 0.33412 0.80755 0.0
O2409 O 0.33503 0.30837 0.8124 0.0
O2410 O 0.3404 0.24646 0.79265 0.0
O2411 O 0.2928 0.25406 0.77113 0.0
O2412 O 0.31672 0.35254 0.82548 0.0
O2413 O 0.25514 0.27907 0.7799 0.0
O2414 O 0.40449 0.27633 0.74623 0.0
O2415 O 0.3373 0.30332 0.74378 0.0
O2416 O 0.33266 0.3676 0.76842 0.0
O2417 O 0.38125 0.35649 0.7801 0.0
O2418 O 0.35474 0.25846 0.73031 0.0
O2419 O 0.41991 0.32962 0.77862 0.0
C2420 C 0.335 0.33507 0.83692 0.0
C2421 C 0.21271 0.30473 0.79178 0.0
C2422 C 0.16007 0.30042 0.80825 0.0
C2423 C 0.19145 0.29945 0.81595 0.0
C2424 C 0.15056 0.30678 0.77587 0.0
C2425 C 0.20256 0.31084 0.75972 0.0
C2426 C 0.17165 0.31184 0.75185 0.0
C2427 C 0.30994 0.23367 0.78245 0.0
C2428 C 0.24536 0.30368 0.80018 0.0
C2429 C 0.25217 0.36702 0.66254 0.0
C2430 C 0.24599 0.33107 0.64493 0.0
C2431 C 0.3363 0.27615 0.7195 0.0
C2432 C 0.4589 0.29963 0.76117 0.0
C2433 C 0.48146 0.31071 0.73987 0.0
C2434 C 0.51162 0.30469 0.74453 0.0
C2435 C 0.51836 0.28694 0.7706 0.0
C2436 C 0.46677 0.28305 0.78745 0.0
C2437 C 0.49622 0.2766 0.792 0.0
C2438 C 0.36366 0.37845 0.77365 0.0
C2439 C 0.42718 0.30501 0.75552 0.0
H2440 H 0.19933 0.29425 0.84053 0.0
H2441 H 0.12691 0.30847 0.76922 0.0
H2442 H 0.21848 0.31484 0.74078 0.0
H2443 H 0.16403 0.31677 0.72709 0.0
H2444 H 0.47551 0.32419 0.72001 0.0
H2445 H 0.54068 0.28053 0.77436 0.0
H2446 H 0.45019 0.27482 0.80436 0.0
H2447 H 0.50186 0.26325 0.81207 0.0
Eu2448 Eu 0.07865 0.09096 0.55202 0.0
C2449 C 0.13311 0.99868 0.44186 0.0
C2450 C 0.09701 0.98561 0.38904 0.0
C2451 C 0.15161 0.98674 0.38529 0.0
C2452 C 0.10318 0.99473 0.4257 0.0
C2453 C 0.15749 0.99424 0.42172 0.0
C2454 C 0.12145 0.98238 0.369 0.0
C2455 C 0.19142 1.00239 0.47491 0.0
N2456 N 0.1381 1.00534 0.47718 0.0
C2457 C 0.16657 1.0063 0.49382 0.0
C2458 C 0.18695 0.99661 0.43874 0.0
Eu2459 Eu 0.09438 1.0124 0.50643 0.0
N2460 N 0.07978 0.99754 0.44563 0.0
C2461 C 0.04955 0.9889 0.43062 0.0
C2462 C 0.06624 0.97874 0.37355 0.0
C2463 C 0.04237 0.97983 0.39444 0.0
H2464 H 0.17051 1.01114 0.52178 0.0
H2465 H 0.0184 0.97382 0.38281 0.0
H2466 H 0.11713 0.97566 0.34084 0.0
H2467 H 0.21403 1.00386 0.48827 0.0
H2468 H 0.03073 0.98926 0.44622 0.0
H2469 H 0.16355 0.13254 0.66968 0.0
H2470 H 0.06066 0.97162 0.34552 0.0
H2471 H 1.00183 0.09136 0.54544 0.0
H2472 H 0.14676 0.11729 0.6071 0.0
H2473 H 0.96108 0.09484 0.58382 0.0
H2474 H 0.17009 0.98342 0.36945 0.0
H2475 H 0.1245 0.13015 0.71091 0.0
H2476 H 0.0689 0.12134 0.72124 0.0
H2477 H 0.20624 0.99341 0.42417 0.0
H2478 H 1.01394 0.11103 0.698 0.0
N2479 N 0.09812 0.10502 0.61189 0.0
C2480 C 0.12915 0.11585 0.62431 0.0
C2481 C 0.11688 0.12333 0.68328 0.0
C2482 C 0.0852 0.11425 0.67064 0.0
C2483 C 0.13895 0.12477 0.66007 0.0
C2484 C 0.0763 0.10552 0.63431 0.0
H2485 H 0.97373 0.10176 0.64706 0.0
N2486 N 0.03732 0.09454 0.58623 0.0
C2487 C 0.98455 0.09612 0.59462 0.0
C2488 C 0.04514 0.10003 0.62118 0.0
C2489 C 1.00781 0.09411 0.57291 0.0
C2490 C 0.99178 0.09991 0.63029 0.0
C2491 C 0.02242 0.10264 0.64409 0.0
O2492 O 0.07591 0.14506 0.57617 0.0
O2493 O 0.07614 0.06035 0.49481 0.0
O2494 O 0.13371 0.05764 0.50001 0.0
O2495 O 0.13071 0.10118 0.54762 0.0
O2496 O 0.03973 0.08229 0.50672 0.0
O2497 O 0.09599 0.13571 0.52755 0.0
O2498 O 0.0931 0.95617 0.48528 0.0
O2499 O 0.10324 0.04821 0.56122 0.0
O2500 O 0.04167 0.04399 0.55953 0.0
O2501 O 0.04218 1.00558 0.50779 0.0
O2502 O 0.12649 1.00934 0.55402 0.0
O2503 O 0.0694 0.97031 0.5297 0.0
C2504 C 0.0505 0.06555 0.48052 0.0
C2505 C 0.0939 0.1971 0.55288 0.0
C2506 C 0.10853 0.24698 0.52491 0.0
C2507 C 0.1044 0.21046 0.52449 0.0
C2508 C 0.10226 0.27001 0.55432 0.0
C2509 C 0.08792 0.22061 0.58199 0.0
C2510 C 0.09215 0.25686 0.58266 0.0
C2511 C 0.14542 0.08887 0.52174 0.0
C2512 C 0.08855 0.15871 0.55204 0.0
C2513 C 0.03112 0.10923 0.68009 0.0
C2514 C 0.06242 0.11508 0.69332 0.0
C2515 C 0.12097 0.03345 0.57849 0.0
C2516 C 0.09366 0.92278 0.52886 0.0
C2517 C 0.07644 0.90274 0.54973 0.0
C2518 C 0.09081 0.88342 0.56961 0.0
C2519 C 0.12246 0.88402 0.5678 0.0
C2520 C 0.12527 0.92293 0.52768 0.0
C2521 C 0.13946 0.90358 0.54696 0.0
C2522 C 0.02847 1.01505 0.53543 0.0
C2523 C 0.07909 0.94512 0.51019 0.0
H2524 H 0.10937 0.19248 0.50213 0.0
H2525 H 0.10465 0.29814 0.55523 0.0
H2526 H 0.07983 0.211 0.60423 0.0
H2527 H 0.08731 0.27478 0.60509 0.0
H2528 H 0.05218 0.90295 0.55115 0.0
H2529 H 0.13408 0.86901 0.58224 0.0
H2530 H 0.13917 0.93827 0.51214 0.0
H2531 H 0.16381 0.90385 0.54586 0.0
Eu2532 Eu 0.37565 0.8324 0.76407 0.0
C2533 C 0.30171 0.75423 0.85949 0.0
C2534 C 0.31654 0.69768 0.85033 0.0
C2535 C 0.30003 0.72152 0.90549 0.0
C2536 C 0.3129 0.7282 0.83857 0.0
C2537 C 0.29411 0.75041 0.89273 0.0
C2538 C 0.31121 0.69519 0.88432 0.0
C2539 C 0.27048 0.80034 0.89608 0.0
N2540 N 0.2952 0.78122 0.84597 0.0
C2541 C 0.27826 0.80297 0.86301 0.0
C2542 C 0.27907 0.77448 0.91136 0.0
Eu2543 Eu 0.30943 0.78336 0.78946 0.0
N2544 N 0.31693 0.73075 0.80545 0.0
C2545 C 0.32137 0.70221 0.78189 0.0
C2546 C 0.32351 0.66953 0.82691 0.0
C2547 C 0.32509 0.67141 0.7923 0.0
H2548 H 0.27065 0.82264 0.8516 0.0
H2549 H 0.32933 0.64926 0.77364 0.0
H2550 H 0.31427 0.67218 0.8939 0.0
H2551 H 0.25772 0.81819 0.90968 0.0
H2552 H 0.3223 0.70314 0.75494 0.0
H2553 H 0.34954 0.96208 0.7668 0.0
H2554 H 0.32634 0.6456 0.8349 0.0
H2555 H 0.4222 0.79621 0.70946 0.0
H2556 H 0.35915 0.912 0.79078 0.0
H2557 H 0.43607 0.79593 0.65078 0.0
H2558 H 0.29465 0.71842 0.93109 0.0
H2559 H 0.3537 0.96126 0.70476 0.0
H2560 H 0.36908 0.93219 0.64831 0.0
H2561 H 0.27272 0.77231 0.93685 0.0
H2562 H 0.39282 0.88648 0.61646 0.0
N2563 N 0.36681 0.88192 0.74263 0.0
C2564 C 0.36047 0.91094 0.76359 0.0
C2565 C 0.35761 0.93898 0.71511 0.0
C2566 C 0.36686 0.91071 0.69447 0.0
C2567 C 0.35535 0.93961 0.75014 0.0
C2568 C 0.37187 0.88248 0.70936 0.0
H2569 H 0.41836 0.83588 0.61735 0.0
N2570 N 0.39335 0.83293 0.70852 0.0
C2571 C 0.42139 0.81286 0.6617 0.0
C2572 C 0.38558 0.85712 0.69165 0.0
C2573 C 0.4129 0.8127 0.69496 0.0
C2574 C 0.41134 0.83542 0.64291 0.0
C2575 C 0.39411 0.8588 0.65828 0.0
O2576 O 0.42094 0.83253 0.79076 0.0
O2577 O 0.36155 0.78228 0.78743 0.0
O2578 O 0.33825 0.8155 0.83917 0.0
O2579 O 0.36493 0.86022 0.81577 0.0
O2580 O 0.39033 0.77898 0.74993 0.0
O2581 O 0.41288 0.88122 0.78039 0.0
O2582 O 0.26327 0.78532 0.76694 0.0
O2583 O 0.32308 0.83349 0.76622 0.0
O2584 O 0.3501 0.79918 0.71358 0.0
O2585 O 0.31699 0.75723 0.73557 0.0
O2586 O 0.29405 0.83609 0.80392 0.0
O2587 O 0.27123 0.73535 0.77376 0.0
C2588 C 0.37725 0.7607 0.77064 0.0
C2589 C 0.46247 0.87042 0.77267 0.0
C2590 C 0.51544 0.86295 0.76913 0.0
C2591 C 0.48837 0.86003 0.78588 0.0
C2592 C 0.51597 0.87591 0.73859 0.0
C2593 C 0.46398 0.88441 0.74274 0.0
C2594 C 0.49043 0.8867 0.72565 0.0
C2595 C 0.35395 0.84857 0.84227 0.0
C2596 C 0.43363 0.86509 0.78932 0.0
C2597 C 0.38675 0.88502 0.6422 0.0
C2598 C 0.3732 0.91102 0.66032 0.0
C2599 C 0.30687 0.85456 0.78316 0.0
C2600 C 0.22247 0.74678 0.78506 0.0
C2601 C 0.19586 0.75627 0.7725 0.0
C2602 C 0.16912 0.75192 0.78962 0.0
C2603 C 0.16966 0.739 0.82015 0.0
C2604 C 0.22217 0.73282 0.815 0.0
C2605 C 0.19606 0.7295 0.83269 0.0
C2606 C 0.33012 0.76842 0.70992 0.0
C2607 C 0.25051 0.75247 0.76722 0.0
H2608 H 0.48751 0.85025 0.80952 0.0
H2609 H 0.53619 0.87787 0.72475 0.0
H2610 H 0.44461 0.89317 0.73216 0.0
H2611 H 0.49115 0.89692 0.70229 0.0
H2612 H 0.19572 0.766 0.74881 0.0
H2613 H 0.14944 0.73567 0.83398 0.0
H2614 H 0.24204 0.7245 0.82487 0.0
H2615 H 0.19617 0.71912 0.85594 0.0
Eu2616 Eu 0.59659 0.02826 0.06619 0.0
C2617 C 0.5436 0.10444 0.95743 0.0
C2618 C 0.51909 0.05391 0.91 0.0
C2619 C 0.50233 0.10924 0.9159 0.0
C2620 C 0.54142 0.06965 0.93962 0.0
C2621 C 0.52418 0.12467 0.94562 0.0
C2622 C 0.49974 0.07392 0.89819 0.0
C2623 C 0.54989 0.17442 0.99291 0.0
N2624 N 0.56446 0.11847 0.98649 0.0
C2625 C 0.5686 0.15336 1.00359 0.0
C2626 C 0.52741 0.15993 0.96391 0.0
Eu2627 Eu 0.5977 0.08284 1.00112 0.0
N2628 N 0.56043 0.05089 0.95176 0.0
C2629 C 0.55805 1.0161 0.93517 0.0
C2630 C 0.51665 1.01839 0.8932 0.0
C2631 C 0.53615 0.99942 0.90592 0.0
H2632 H 0.5863 0.16479 0.02578 0.0
H2633 H 0.53429 0.97182 0.89322 0.0
H2634 H 0.4826 0.06227 0.87542 0.0
H2635 H 0.5529 0.20183 1.00691 0.0
H2636 H 0.57219 1.0003 0.94464 0.0
H2637 H 0.66781 0.13313 0.17379 0.0
H2638 H 0.49967 1.00533 0.87054 0.0
H2639 H 0.59993 0.94305 0.04148 0.0
H2640 H 0.62364 0.10564 0.12831 0.0
H2641 H 0.63438 0.90391 0.05258 0.0
H2642 H 0.48721 0.12435 0.90648 0.0
H2643 H 0.70729 0.09995 0.1849 0.0
H2644 H 0.72501 0.04305 0.17174 0.0
H2645 H 0.51294 0.17628 0.95564 0.0
H2646 H 0.71627 0.98099 0.13851 0.0
N2647 N 0.63786 0.05705 0.11224 0.0
C2648 C 0.6404 0.09044 0.13249 0.0
C2649 C 0.6879 0.08763 0.16457 0.0
C2650 C 0.68447 0.05286 0.14498 0.0
C2651 C 0.66562 0.10638 0.15846 0.0
C2652 C 0.65892 0.03812 0.11862 0.0
H2653 H 0.68244 0.92882 0.09435 0.0
N2654 N 0.62877 0.98957 0.07562 0.0
C2655 C 0.64034 0.93184 0.06591 0.0
C2656 C 0.65416 1.00329 0.09981 0.0
C2657 C 0.62093 0.95398 0.05968 0.0
C2658 C 0.66747 0.94603 0.08942 0.0
C2659 C 0.67442 0.98199 0.10714 0.0
O2660 O 0.56545 0.9811 0.07599 0.0
O2661 O 0.56905 0.04375 0.0256 0.0
O2662 O 0.56642 0.10146 0.03931 0.0
O2663 O 0.57941 0.07888 0.08711 0.0
O2664 O 0.56135 0.99013 0.02309 0.0
O2665 O 0.57095 0.03313 0.11077 0.0
O2666 O 0.62908 0.13325 0.99929 0.0
O2667 O 0.62492 0.06703 0.04167 0.0
O2668 O 0.62348 1.00542 0.02475 0.0
O2669 O 0.61757 0.03478 0.97977 0.0
O2670 O 0.63144 0.12082 0.04618 0.0
O2671 O 0.62503 0.08585 0.95812 0.0
C2672 C 0.55146 1.01409 1.01068 0.0
C2673 C 0.56097 0.98348 0.13554 0.0
C2674 C 0.54599 0.98314 0.19304 0.0
C2675 C 0.54342 0.99383 0.16166 0.0
C2676 C 0.56549 0.96036 0.19758 0.0
C2677 C 0.58071 0.961 0.14017 0.0
C2678 C 0.58272 0.94928 0.17108 0.0
C2679 C 0.56571 0.09995 0.07228 0.0
C2680 C 0.55914 0.99877 0.10507 0.0
C2681 C 0.70033 0.99684 0.13266 0.0
C2682 C 0.70531 0.03218 0.15158 0.0
C2683 C 0.64164 0.09666 0.05783 0.0
C2684 C 0.63192 0.14114 0.94194 0.0
C2685 C 0.63749 0.12742 0.90835 0.0
C2686 C 0.6341 0.1454 0.88189 0.0
C2687 C 0.62535 0.178 0.88936 0.0
C2688 C 0.6235 0.17403 0.94944 0.0
C2689 C 0.62003 0.19218 0.92311 0.0
C2690 C 0.62709 1.00998 0.993 0.0
C2691 C 0.63552 0.12056 0.96835 0.0
H2692 H 0.52792 1.01083 0.15762 0.0
H2693 H 0.56783 0.95175 0.2217 0.0
H2694 H 0.59464 0.95273 0.12029 0.0
H2695 H 0.59798 0.93201 0.1747 0.0
H2696 H 0.64549 0.10296 0.90308 0.0
H2697 H 0.62309 0.1926 0.86934 0.0
H2698 H 0.61994 0.18594 0.97552 0.0
H2699 H 0.61358 0.21749 0.92898 0.0
Eu2700 Eu 0.36887 0.34753 0.30329 0.0
C2701 C 0.24342 0.26321 0.24988 0.0
C2702 C 0.21652 0.2197 0.27961 0.0
C2703 C 0.18697 0.24989 0.24703 0.0
C2704 C 0.24437 0.23863 0.27017 0.0
C2705 C 0.21455 0.2692 0.23837 0.0
C2706 C 0.18788 0.22554 0.26797 0.0
C2707 C 0.2421 0.31451 0.21187 0.0
N2708 N 0.27058 0.28189 0.24205 0.0
C2709 C 0.27017 0.30805 0.22409 0.0
C2710 C 0.21412 0.29471 0.21868 0.0
Eu2711 Eu 0.31635 0.26349 0.25821 0.0
N2712 N 0.27231 0.23274 0.28027 0.0
C2713 C 0.27358 0.20655 0.29805 0.0
C2714 C 0.21813 0.19472 0.2997 0.0
C2715 C 0.24679 0.18793 0.30871 0.0
H2716 H 0.29121 0.32514 0.21971 0.0
H2717 H 0.24822 0.1677 0.32311 0.0
H2718 H 0.16627 0.21093 0.27453 0.0
H2719 H 0.24213 0.33511 0.19755 0.0
H2720 H 0.29528 0.1993 0.30339 0.0
H2721 H 0.47278 0.34884 0.23624 0.0
H2722 H 0.19729 0.17983 0.30753 0.0
H2723 H 0.36807 0.37752 0.38931 0.0
H2724 H 0.41781 0.34541 0.24052 0.0
H2725 H 0.40234 0.38814 0.44433 0.0
H2726 H 0.16485 0.25363 0.23736 0.0
H2727 H 0.50865 0.35335 0.28845 0.0
H2728 H 0.51708 0.35452 0.3517 0.0
H2729 H 0.19238 0.29992 0.20935 0.0
H2730 H 0.49751 0.36408 0.40853 0.0
N2731 N 0.42125 0.34658 0.29494 0.0
C2732 C 0.43258 0.34686 0.26376 0.0
C2733 C 0.48421 0.35074 0.29041 0.0
C2734 C 0.47289 0.35123 0.32237 0.0
C2735 C 0.46406 0.34877 0.26103 0.0
C2736 C 0.44103 0.35005 0.3241 0.0
H2737 H 0.45538 0.37813 0.44333 0.0
N2738 N 0.40051 0.35921 0.35748 0.0
C2739 C 0.41038 0.37869 0.41981 0.0
C2740 C 0.43023 0.35603 0.35622 0.0
C2741 C 0.39103 0.37259 0.38858 0.0
C2742 C 0.44022 0.37289 0.41912 0.0
C2743 C 0.4508 0.36245 0.3871 0.0
O2744 O 0.39483 0.40322 0.322 0.0
O2745 O 0.3191 0.31922 0.28502 0.0
O2746 O 0.32962 0.29352 0.21523 0.0
O2747 O 0.36643 0.34555 0.24416 0.0
O2748 O 0.32908 0.35178 0.3352 0.0
O2749 O 0.35227 0.3904 0.28704 0.0
O2750 O 0.32303 0.23988 0.20502 0.0
O2751 O 0.36583 0.29491 0.26852 0.0
O2752 O 0.35927 0.31386 0.34479 0.0
O2753 O 0.3243 0.2605 0.31578 0.0
O2754 O 0.358 0.24447 0.27729 0.0
O2755 O 0.29763 0.20665 0.23512 0.0
C2756 C 0.30748 0.33029 0.31217 0.0
C2757 C 0.36217 0.44344 0.32998 0.0
C2758 C 0.33008 0.48637 0.33331 0.0
C2759 C 0.34264 0.46018 0.31385 0.0
C2760 C 0.33678 0.49502 0.36981 0.0
C2761 C 0.36886 0.45234 0.3664 0.0
C2762 C 0.35572 0.47764 0.38617 0.0
C2763 C 0.3497 0.3241 0.2151 0.0
C2764 C 0.37355 0.41557 0.3078 0.0
C2765 C 0.48171 0.36014 0.38511 0.0
C2766 C 0.4928 0.35473 0.35279 0.0
C2767 C 0.37945 0.27198 0.27572 0.0
C2768 C 0.33179 0.18265 0.20017 0.0
C2769 C 0.34429 0.16906 0.22679 0.0
C2770 C 0.36465 0.14675 0.21976 0.0
C2771 C 0.37271 0.13819 0.186 0.0
C2772 C 0.34001 0.17386 0.16659 0.0
C2773 C 0.36048 0.15182 0.15967 0.0
C2774 C 0.34083 0.2822 0.34462 0.0
C2775 C 0.31153 0.20739 0.20758 0.0
H2776 H 0.33665 0.45187 0.28585 0.0
H2777 H 0.32765 0.51526 0.38573 0.0
H2778 H 0.3839 0.43971 0.37959 0.0
H2779 H 0.36043 0.48401 0.41427 0.0
H2780 H 0.33793 0.1753 0.25284 0.0
H2781 H 0.38846 0.12101 0.18008 0.0
H2782 H 0.33077 0.18426 0.14584 0.0
H2783 H 0.36669 0.14514 0.13376 0.0
Eu2784 Eu 0.58161 0.59339 0.05313 0.0
C2785 C 0.63463 0.49853 0.94304 0.0
C2786 C 0.59874 0.48424 0.88992 0.0
C2787 C 0.65352 0.48593 0.88678 0.0
C2788 C 0.60475 0.49396 0.92657 0.0
C2789 C 0.65923 0.49421 0.92325 0.0
C2790 C 0.62335 0.48088 0.87016 0.0
C2791 C 0.69309 0.50434 0.97691 0.0
N2792 N 0.63944 0.50604 0.97839 0.0
C2793 C 0.66799 0.50806 0.99547 0.0
C2794 C 0.68876 0.49762 0.94067 0.0
Eu2795 Eu 0.59531 0.5124 1.00712 0.0
N2796 N 0.58128 0.49708 0.94627 0.0
C2797 C 0.55112 0.48862 0.93109 0.0
C2798 C 0.56801 0.47709 0.87419 0.0
C2799 C 0.54406 0.4788 0.89491 0.0
H2800 H 0.67182 0.51366 0.02348 0.0
H2801 H 0.52013 0.47273 0.88312 0.0
H2802 H 0.61917 0.47367 0.84199 0.0
H2803 H 0.71577 0.50668 0.99059 0.0
H2804 H 0.53226 0.48956 0.94659 0.0
H2805 H 0.65671 0.63238 0.17725 0.0
H2806 H 0.56251 0.46945 0.84615 0.0
H2807 H 0.50506 0.5915 0.03689 0.0
H2808 H 0.64464 0.61672 0.11342 0.0
H2809 H 0.46088 0.59737 0.06991 0.0
H2810 H 0.67216 0.48265 0.87117 0.0
H2811 H 0.61409 0.63306 0.21401 0.0
H2812 H 0.5573 0.62767 0.21821 0.0
H2813 H 0.70825 0.49459 0.92638 0.0
H2814 H 0.50427 0.61867 0.18913 0.0
N2815 N 0.59558 0.60729 0.11389 0.0
C2816 C 0.62578 0.61659 0.12906 0.0
C2817 C 0.60867 0.62603 0.18598 0.0
C2818 C 0.57788 0.61844 0.17025 0.0
C2819 C 0.63277 0.62574 0.1653 0.0
C2820 C 0.57194 0.60935 0.1336 0.0
H2821 H 0.46826 0.60789 0.13404 0.0
N2822 N 0.53721 0.59794 0.08184 0.0
C2823 C 0.48354 0.59943 0.08349 0.0
C2824 C 0.54198 0.60467 0.11718 0.0
C2825 C 0.50869 0.59627 0.06488 0.0
C2826 C 0.48779 0.60525 0.11969 0.0
C2827 C 0.51731 0.60837 0.13703 0.0
O2828 O 0.58353 0.64932 0.07638 0.0
O2829 O 0.57199 0.55691 0.99813 0.0
O2830 O 0.63356 0.55829 0.99944 0.0
O2831 O 0.6337 0.59831 0.05075 0.0
O2832 O 0.55047 0.59736 1.00527 0.0
O2833 O 0.60567 0.63637 0.03046 0.0
O2834 O 0.59124 0.45538 0.98624 0.0
O2835 O 0.6054 0.54947 0.0616 0.0
O2836 O 0.54354 0.54703 0.0603 0.0
O2837 O 0.54351 0.50901 1.00805 0.0
O2838 O 0.62707 0.50906 0.05477 0.0
O2839 O 0.571 0.47195 0.03269 0.0
C2840 C 0.55514 0.57268 0.98074 0.0
C2841 C 0.57956 0.68234 0.03332 0.0
C2842 C 0.579 0.72058 0.99217 0.0
C2843 C 0.59521 0.70312 0.01222 0.0
C2844 C 0.54697 0.71725 0.99369 0.0
C2845 C 0.54757 0.67969 0.03475 0.0
C2846 C 0.53145 0.69707 0.01502 0.0
C2847 C 0.647 0.58785 0.02291 0.0
C2848 C 0.59604 0.66093 0.05096 0.0
C2849 C 0.52297 0.61589 0.17348 0.0
C2850 C 0.55317 0.62095 0.19004 0.0
C2851 C 0.6225 0.53411 0.07898 0.0
C2852 C 0.59344 0.42288 0.03049 0.0
C2853 C 0.57715 0.40412 0.05294 0.0
C2854 C 0.59177 0.38426 0.072 0.0
C2855 C 0.62279 0.38318 0.06777 0.0
C2856 C 0.62445 0.42147 0.0271 0.0
C2857 C 0.6389 0.40165 0.04555 0.0
C2858 C 0.53009 0.51821 0.03602 0.0
C2859 C 0.57866 0.44563 0.01252 0.0
H2860 H 0.61978 0.70485 1.01066 0.0
H2861 H 0.53402 0.73069 0.97874 0.0
H2862 H 0.53485 0.66371 0.05061 0.0
H2863 H 0.50679 0.6947 0.01611 0.0
H2864 H 0.55342 0.40572 0.05614 0.0
H2865 H 0.63459 0.36766 0.08135 0.0
H2866 H 0.63771 0.43596 1.01045 0.0
H2867 H 0.66278 0.40066 0.04268 0.0
Eu2868 Eu 0.87473 0.33042 0.26179 0.0
C2869 C 0.79034 0.25119 0.35189 0.0
C2870 C 0.80703 0.19636 0.3498 0.0
C2871 C 0.7827 0.22052 0.39915 0.0
C2872 C 0.80453 0.22564 0.33531 0.0
C2873 C 0.77849 0.24833 0.38356 0.0
C2874 C 0.79698 0.19458 0.38231 0.0
C2875 C 0.75581 0.29795 0.38006 0.0
N2876 N 0.78597 0.27727 0.33566 0.0
C2877 C 0.76797 0.29976 0.34874 0.0
C2878 C 0.7615 0.2725 0.39784 0.0
Eu2879 Eu 0.80598 0.27705 0.2813 0.0
N2880 N 0.81295 0.22742 0.30337 0.0
C2881 C 0.82115 0.19918 0.28324 0.0
C2882 C 0.8178 0.16865 0.33026 0.0
C2883 C 0.82412 0.16965 0.29647 0.0
H2884 H 0.76324 0.31976 0.33572 0.0
H2885 H 0.83118 0.14767 0.28053 0.0
H2886 H 0.79897 0.17248 0.39396 0.0
H2887 H 0.74211 0.31628 0.39049 0.0
H2888 H 0.82499 0.19927 0.25664 0.0
H2889 H 0.85537 0.46469 0.27952 0.0
H2890 H 0.81993 0.14564 0.34039 0.0
H2891 H 0.90546 0.28465 0.19426 0.0
H2892 H 0.85977 0.40927 0.29663 0.0
H2893 H 0.91869 0.29022 0.13692 0.0
H2894 H 0.77397 0.21808 0.42358 0.0
H2895 H 0.86302 0.47135 0.21985 0.0
H2896 H 0.87718 0.44651 0.16145 0.0
H2897 H 0.75191 0.27107 0.42202 0.0
H2898 H 0.89445 0.3992 0.12285 0.0
N2899 N 0.86894 0.38399 0.24691 0.0
C2900 C 0.86291 0.41154 0.27041 0.0
C2901 C 0.86483 0.44678 0.22716 0.0
C2902 C 0.87238 0.41913 0.20362 0.0
C2903 C 0.86059 0.44318 0.26088 0.0
C2904 C 0.87454 0.38767 0.21443 0.0
H2905 H 0.91031 0.34134 0.11365 0.0
N2906 N 0.88803 0.33182 0.20456 0.0
C2907 C 0.90881 0.31014 0.15215 0.0
C2908 C 0.88443 0.36096 0.19268 0.0
C2909 C 0.90107 0.30714 0.18511 0.0
C2910 C 0.90401 0.33899 0.13912 0.0
C2911 C 0.89213 0.36511 0.15955 0.0
O2912 O 0.91897 0.32906 0.28959 0.0
O2913 O 0.85889 0.27804 0.28117 0.0
O2914 O 0.83003 0.30948 0.33348 0.0
O2915 O 0.8625 0.35429 0.31423 0.0
O2916 O 0.89087 0.2778 0.2471 0.0
O2917 O 0.91373 0.37776 0.27667 0.0
O2918 O 0.76034 0.2745 0.25412 0.0
O2919 O 0.82455 0.33248 0.26991 0.0
O2920 O 0.84276 0.30613 0.21251 0.0
O2921 O 0.82058 0.25492 0.22896 0.0
O2922 O 0.78089 0.32307 0.2823 0.0
O2923 O 0.77267 0.22587 0.25878 0.0
C2924 C 0.87625 0.25782 0.26567 0.0
C2925 C 0.9616 0.36215 0.26915 0.0
C2926 C 1.01247 0.34836 0.26538 0.0
C2927 C 0.98666 0.35123 0.28353 0.0
C2928 C 1.0125 0.35636 0.23232 0.0
C2929 C 0.96295 0.37164 0.23689 0.0
C2930 C 0.98808 0.36835 0.21848 0.0
C2931 C 0.84861 0.34161 0.3389 0.0
C2932 C 0.93323 0.36054 0.28652 0.0
C2933 C 0.88875 0.3957 0.14824 0.0
C2934 C 0.8789 0.42264 0.17021 0.0
C2935 C 0.801 0.34783 0.27378 0.0
C2936 C 0.72191 0.23099 0.26954 0.0
C2937 C 0.69558 0.2435 0.26153 0.0
C2938 C 0.67002 0.2384 0.28057 0.0
C2939 C 0.67152 0.2212 0.30823 0.0
C2940 C 0.72217 0.21245 0.2963 0.0
C2941 C 0.69731 0.20807 0.31577 0.0
C2942 C 0.82905 0.27215 0.20472 0.0
C2943 C 0.75007 0.24062 0.2525 0.0
H2944 H 0.98592 0.34531 0.30901 0.0
H2945 H 0.03143 0.35353 0.2171 0.0
H2946 H 0.94443 0.38111 0.22554 0.0
H2947 H 0.98854 0.37494 0.19328 0.0
H2948 H 0.69501 0.25688 0.24027 0.0
H2949 H 0.65258 0.21753 0.32388 0.0
H2950 H 0.74181 0.20192 0.30277 0.0
H2951 H 0.69808 0.19451 0.33685 0.0
Eu2952 Eu 0.08004 0.51533 0.55443 0.0
C2953 C 0.04729 0.618 0.46862 0.0
C2954 C 0.01629 0.57485 0.41866 0.0
C2955 C 1.00388 0.63224 0.43777 0.0
C2956 C 0.04119 0.58482 0.44592 0.0
C2957 C 0.02946 0.64261 0.46391 0.0
C2958 C 0.99718 0.59833 0.41533 0.0
C2959 C 0.06517 0.68698 0.50911 0.0
N2960 N 0.07163 0.62697 0.4942 0.0
C2961 C 0.08175 0.66146 0.51324 0.0
C2962 C 0.03848 0.67728 0.4849 0.0
Eu2963 Eu 0.09802 0.58188 0.50017 0.0
N2964 N 0.0601 0.5627 0.44983 0.0
C2965 C 0.05647 0.53117 0.42586 0.0
C2966 C 1.0116 0.54182 0.39519 0.0
C2967 C 0.03206 0.52014 0.39853 0.0
H2968 H 0.10203 0.66879 0.53256 0.0
H2969 H 0.02888 0.49471 0.38024 0.0
H2970 H 0.97769 0.59089 0.39488 0.0
H2971 H 0.07273 0.71397 0.52483 0.0
H2972 H 0.07142 0.51349 0.42813 0.0
H2973 H 0.14069 0.614 0.67324 0.0
H2974 H 0.99264 0.53312 0.37405 0.0
H2975 H 0.08558 0.43069 0.52798 0.0
H2976 H 0.10088 0.5891 0.62335 0.0
H2977 H 0.11985 0.39194 0.54013 0.0
H2978 H 0.98956 0.65053 0.4342 0.0
H2979 H 0.18008 0.58126 0.6858 0.0
H2980 H 0.20079 0.52672 0.67048 0.0
H2981 H 0.0255 0.697 0.48195 0.0
H2982 H 0.19552 0.46661 0.63405 0.0
N2983 N 0.116 0.54107 0.60666 0.0
C2984 C 0.11691 0.57342 0.62824 0.0
C2985 C 0.16213 0.56964 0.66378 0.0
C2986 C 0.16074 0.53621 0.64245 0.0
C2987 C 0.13991 0.58812 0.65683 0.0
C2988 C 0.13698 0.52231 0.61392 0.0
H2989 H 0.16505 0.41587 0.58601 0.0
N2990 N 0.11116 0.47612 0.56626 0.0
C2991 C 0.12442 0.41923 0.55509 0.0
C2992 C 0.13447 0.48886 0.59307 0.0
C2993 C 0.10501 0.44122 0.54835 0.0
C2994 C 0.14991 0.43286 0.58092 0.0
C2995 C 0.15495 0.46787 0.60066 0.0
O2996 O 0.04766 0.46513 0.55568 0.0
O2997 O 0.06205 0.54133 0.51559 0.0
O2998 O 0.07054 0.60468 0.54074 0.0
O2999 O 0.06205 0.56463 0.57735 0.0
O3000 O 0.04606 0.4868 0.50596 0.0
O3001 O 0.04623 0.51435 0.59122 0.0
O3002 O 0.13738 0.62737 0.5047 0.0
O3003 O 0.11596 0.55373 0.53708 0.0
O3004 O 0.10474 0.49114 0.51117 0.0
O3005 O 0.1122 0.53093 0.47406 0.0
O3006 O 0.13405 0.60779 0.54785 0.0
O3007 O 0.12469 0.58632 0.45664 0.0
C3008 C 0.04297 0.51512 0.49588 0.0
C3009 C 0.0364 0.46247 0.61286 0.0
C3010 C 0.02904 0.46654 0.67366 0.0
C3011 C 0.02623 0.47886 0.64315 0.0
C3012 C 0.04058 0.43599 0.67309 0.0
C3013 C 0.04787 0.4319 0.61249 0.0
C3014 C 0.04972 0.41864 0.6425 0.0
C3015 C 0.05969 0.59471 0.56827 0.0
C3016 C 0.03668 0.47957 0.5832 0.0
C3017 C 0.17926 0.48209 0.62819 0.0
C3018 C 0.18221 0.51625 0.64898 0.0
C3019 C 0.1363 0.57856 0.55652 0.0
C3020 C 0.1453 0.64574 0.45211 0.0
C3021 C 0.15174 0.6368 0.41796 0.0
C3022 C 0.15703 0.6625 0.39802 0.0
C3023 C 0.15563 0.69765 0.41241 0.0
C3024 C 0.14393 0.68107 0.46643 0.0
C3025 C 0.14884 0.70677 0.44649 0.0
C3026 C 0.11419 0.50054 0.48272 0.0
C3027 C 0.14181 0.618 0.47232 0.0
H3028 H 0.01656 0.50183 0.64306 0.0
H3029 H 0.04302 0.42588 0.69632 0.0
H3030 H 0.05575 0.41852 0.58934 0.0
H3031 H 0.05876 0.39525 0.64222 0.0
H3032 H 0.1541 0.60996 0.40737 0.0
H3033 H 0.16031 0.71803 0.39756 0.0
H3034 H 0.13958 0.68909 0.49302 0.0
H3035 H 0.14801 0.73396 0.45773 0.0
Eu3036 Eu 0.79814 0.81413 0.27325 0.0
C3037 C 0.90354 0.76365 0.34229 0.0
C3038 C 0.92367 0.81223 0.39293 0.0
C3039 C 0.92794 0.75218 0.39453 0.0
C3040 C 0.90839 0.79939 0.35854 0.0
C3041 C 0.91419 0.7399 0.35976 0.0
C3042 C 0.93266 0.78827 0.41107 0.0
C3043 C 0.90081 0.69485 0.30591 0.0
N3044 N 0.8909 0.75276 0.30844 0.0
C3045 C 0.89094 0.71947 0.28961 0.0
C3046 C 0.912 0.70491 0.3413 0.0
Eu3047 Eu 0.8745 0.79592 0.28256 0.0
N3048 N 0.89943 0.8219 0.34029 0.0
C3049 C 0.90696 0.85793 0.35422 0.0
C3050 C 0.93012 0.84889 0.40777 0.0
C3051 C 0.92203 0.87186 0.38817 0.0
H3052 H 0.88234 0.71165 0.26216 0.0
H3053 H 0.92741 0.90034 0.39917 0.0
H3054 H 0.94404 0.79752 0.43758 0.0
H3055 H 0.89989 0.6682 0.29113 0.0
H3056 H 0.90076 0.87622 0.33974 0.0
H3057 H 0.73582 0.71325 0.15805 0.0
H3058 H 0.94192 0.85983 0.43401 0.0
H3059 H 0.7889 0.89797 0.29545 0.0
H3060 H 0.76257 0.73534 0.2174 0.0
H3061 H 0.77516 0.94372 0.26704 0.0
H3062 H 0.93593 0.73424 0.40849 0.0
H3063 H 0.72939 0.75555 0.12178 0.0
H3064 H 0.73493 0.81937 0.11717 0.0
H3065 H 0.91992 0.6859 0.35381 0.0
H3066 H 0.74562 0.88271 0.14716 0.0
N3067 N 0.77219 0.79032 0.21549 0.0
C3068 C 0.7601 0.75452 0.20235 0.0
C3069 C 0.7414 0.76568 0.14792 0.0
C3070 C 0.75178 0.80239 0.1622 0.0
C3071 C 0.74473 0.7417 0.16845 0.0
C3072 C 0.76668 0.814 0.19678 0.0
H3073 H 0.75961 0.92919 0.20342 0.0
N3074 N 0.78263 0.85855 0.24815 0.0
C3075 C 0.77445 0.91739 0.25164 0.0
C3076 C 0.77228 0.84945 0.21369 0.0
C3077 C 0.78204 0.89138 0.26764 0.0
C3078 C 0.76589 0.90915 0.21572 0.0
C3079 C 0.7638 0.87453 0.19643 0.0
O3080 O 0.7657 0.83368 0.30711 0.0
O3081 O 0.83507 0.80749 0.31228 0.0
O3082 O 0.84082 0.74533 0.29193 0.0
O3083 O 0.79289 0.75316 0.27165 0.0
O3084 O 0.81667 0.85165 0.32521 0.0
O3085 O 0.75513 0.7783 0.2808 0.0
O3086 O 0.90552 0.77609 0.24697 0.0
O3087 O 0.83737 0.80244 0.24391 0.0
O3088 O 0.83248 0.86656 0.26828 0.0
O3089 O 0.88121 0.8557 0.27982 0.0
O3090 O 0.8554 0.75807 0.23015 0.0
O3091 O 0.91998 0.82966 0.27874 0.0
C3092 C 0.83494 0.83422 0.33672 0.0
C3093 C 0.71243 0.80381 0.29207 0.0
C3094 C 0.65943 0.79873 0.30796 0.0
C3095 C 0.69101 0.79869 0.31623 0.0
C3096 C 0.64994 0.80423 0.2752 0.0
C3097 C 0.7022 0.80911 0.25965 0.0
C3098 C 0.67117 0.80935 0.25135 0.0
C3099 C 0.81026 0.73267 0.28232 0.0
C3100 C 0.74526 0.80319 0.30056 0.0
C3101 C 0.75181 0.86373 0.16103 0.0
C3102 C 0.74573 0.82764 0.14394 0.0
C3103 C 0.83663 0.77547 0.2195 0.0
C3104 C 0.95987 0.80062 0.26233 0.0
C3105 C 0.9828 0.81256 0.2417 0.0
C3106 C 1.01326 0.80734 0.24702 0.0
C3107 C 0.01986 0.78957 0.27312 0.0
C3108 C 0.96768 0.78402 0.28862 0.0
C3109 C 0.99738 0.7784 0.29384 0.0
C3110 C 0.86349 0.8775 0.27333 0.0
C3111 C 0.92785 0.80515 0.25611 0.0
H3112 H 0.69887 0.79423 0.34116 0.0
H3113 H 0.62614 0.80516 0.26812 0.0
H3114 H 0.71819 0.81301 0.24075 0.0
H3115 H 0.66352 0.81362 0.2263 0.0
H3116 H 0.9769 0.82604 0.22183 0.0
H3117 H 0.04233 0.78366 0.27738 0.0
H3118 H 0.95083 0.77509 0.30501 0.0
H3119 H 1.00294 0.76502 0.31391 0.0
Eu3120 Eu 0.85895 0.3047 0.75083 0.0
C3121 C 0.84504 0.40309 0.88065 0.0
C3122 C 0.86874 0.39263 0.93355 0.0
C3123 C 0.87056 0.45336 0.92853 0.0
C3124 C 0.85313 0.37962 0.89933 0.0
C3125 C 0.85256 0.44015 0.89581 0.0
C3126 C 0.87862 0.42963 0.9474 0.0
C3127 C 0.82007 0.44793 0.84782 0.0
N3128 N 0.82744 0.38954 0.84909 0.0
C3129 C 0.81342 0.41111 0.83367 0.0
C3130 C 0.84042 0.46266 0.87851 0.0
Eu3131 Eu 0.81935 0.3269 0.82659 0.0
N3132 N 0.8431 0.34397 0.88541 0.0
C3133 C 0.8445 0.32009 0.90583 0.0
C3134 C 0.87244 0.3681 0.95357 0.0
C3135 C 0.85945 0.33173 0.93999 0.0
H3136 H 0.79721 0.40059 0.81032 0.0
H3137 H 0.86145 0.31258 0.95556 0.0
H3138 H 0.89122 0.44009 0.97333 0.0
H3139 H 0.80954 0.46494 0.83495 0.0
H3140 H 0.83577 0.29181 0.8951 0.0
H3141 H 0.78519 0.18149 0.66768 0.0
H3142 H 0.8842 0.37705 0.97998 0.0
H3143 H 0.93841 0.32824 0.76542 0.0
H3144 H 0.79787 0.24389 0.7001 0.0
H3145 H 0.98188 0.29926 0.76002 0.0
H3146 H 0.87708 0.48178 0.94018 0.0
H3147 H 0.82496 0.14661 0.66634 0.0
H3148 H 0.88028 0.14478 0.68189 0.0
H3149 H 0.8455 0.49117 0.88941 0.0
H3150 H 0.93366 0.17666 0.70748 0.0
N3151 N 0.84413 0.24428 0.71952 0.0
C3152 C 0.8155 0.2291 0.70063 0.0
C3153 C 0.83064 0.17387 0.68142 0.0
C3154 C 0.86061 0.19019 0.69874 0.0
C3155 C 0.80816 0.19358 0.6819 0.0
C3156 C 0.86691 0.22611 0.71753 0.0
H3157 H 0.97179 0.23425 0.73595 0.0
N3158 N 0.90313 0.27978 0.7466 0.0
C3159 C 0.95819 0.28344 0.75226 0.0
C3160 C 0.89723 0.24433 0.73147 0.0
C3161 C 0.93328 0.29973 0.75551 0.0
C3162 C 0.95239 0.24673 0.73872 0.0
C3163 C 0.92175 0.22684 0.72739 0.0
O3164 O 0.86546 0.35019 0.72622 0.0
O3165 O 0.84958 0.34881 0.79093 0.0
O3166 O 0.79826 0.34452 0.77946 0.0
O3167 O 0.80725 0.30206 0.73451 0.0
O3168 O 0.89587 0.35143 0.78275 0.0
O3169 O 0.86397 0.29779 0.69563 0.0
O3170 O 0.77096 0.29557 0.81301 0.0
O3171 O 0.82163 0.28509 0.78056 0.0
O3172 O 0.88657 0.29084 0.79577 0.0
O3173 O 0.86716 0.31658 0.84575 0.0
O3174 O 0.82029 0.26999 0.82791 0.0
O3175 O 0.78387 0.3351 0.86085 0.0
C3176 C 0.87732 0.36639 0.80065 0.0
C3177 C 0.8937 0.3473 0.67846 0.0
C3178 C 0.91008 0.38557 0.63911 0.0
C3179 C 0.88783 0.37113 0.65885 0.0
C3180 C 0.93939 0.37743 0.64101 0.0
C3181 C 0.92271 0.33868 0.67977 0.0
C3182 C 0.94565 0.35419 0.66146 0.0
C3183 C 0.79148 0.32601 0.74656 0.0
C3184 C 0.86842 0.33154 0.69623 0.0
C3185 C 0.91516 0.19052 0.71065 0.0
C3186 C 0.88469 0.1723 0.6962 0.0
C3187 C 0.82144 0.25949 0.79499 0.0
C3188 C 0.74491 0.28376 0.8602 0.0
C3189 C 0.76069 0.26399 0.87761 0.0
C3190 C 0.74478 0.24041 0.89606 0.0
C3191 C 0.71253 0.23634 0.89645 0.0
C3192 C 0.71276 0.27938 0.86067 0.0
C3193 C 0.69665 0.25569 0.87873 0.0
C3194 C 0.88785 0.30054 0.83027 0.0
C3195 C 0.76196 0.30926 0.84195 0.0
H3196 H 0.86548 0.37804 0.65867 0.0
H3197 H 0.95707 0.38809 0.62601 0.0
H3198 H 0.92751 0.31986 0.69449 0.0
H3199 H 0.96807 0.34759 0.66249 0.0
H3200 H 0.78532 0.26693 0.87682 0.0
H3201 H 0.6997 0.21868 0.91088 0.0
H3202 H 0.70021 0.2944 0.84726 0.0
H3203 H 0.67184 0.25247 0.87921 0.0
Eu3204 Eu 0.86835 0.84769 0.802 0.0
C3205 C 0.74103 0.75663 0.74277 0.0
C3206 C 0.71521 0.7362 0.78912 0.0
C3207 C 0.68527 0.75073 0.74274 0.0
C3208 C 0.74263 0.74569 0.77365 0.0
C3209 C 0.71199 0.75762 0.72618 0.0
C3210 C 0.68685 0.74 0.77417 0.0
C3211 C 0.73625 0.76332 0.6747 0.0
N3212 N 0.76709 0.7622 0.72693 0.0
C3213 C 0.76418 0.76144 0.69212 0.0
C3214 C 0.71022 0.76279 0.69229 0.0
Eu3215 Eu 0.81495 0.76179 0.7585 0.0
N3216 N 0.77013 0.74047 0.78636 0.0
C3217 C 0.7698 0.71981 0.81045 0.0
C3218 C 0.7166 0.72084 0.81777 0.0
C3219 C 0.74383 0.71159 0.82779 0.0
H3220 H 0.7831 0.75819 0.67729 0.0
H3221 H 0.7446 0.69719 0.84818 0.0
H3222 H 0.66573 0.7326 0.78563 0.0
H3223 H 0.73459 0.76408 0.64747 0.0
H3224 H 0.78949 0.70925 0.81659 0.0
H3225 H 0.97245 0.85207 0.73477 0.0
H3226 H 0.69619 0.71363 0.83061 0.0
H3227 H 0.8693 0.87854 0.8884 0.0
H3228 H 0.91799 0.85067 0.73981 0.0
H3229 H 0.90374 0.8871 0.94294 0.0
H3230 H 0.66301 0.75167 0.73042 0.0
H3231 H 1.00763 0.85191 0.78574 0.0
H3232 H 0.01563 0.84898 0.84788 0.0
H3233 H 0.6884 0.76363 0.67865 0.0
H3234 H 0.99652 0.85746 0.9051 0.0
N3235 N 0.92074 0.84721 0.79317 0.0
C3236 C 0.93231 0.84953 0.7624 0.0
C3237 C 0.98331 0.84971 0.78787 0.0
C3238 C 0.97192 0.84872 0.8196 0.0
C3239 C 0.96356 0.85046 0.75924 0.0
C3240 C 0.94031 0.84851 0.82179 0.0
H3241 H 0.95557 0.87374 0.94088 0.0
N3242 N 0.90052 0.85848 0.85583 0.0
C3243 C 0.91124 0.87732 0.91818 0.0
C3244 C 0.92977 0.85393 0.85404 0.0
C3245 C 0.89187 0.87256 0.88724 0.0
C3246 C 0.94038 0.86959 0.9169 0.0
C3247 C 0.95036 0.85884 0.88459 0.0
O3248 O 0.89325 0.90368 0.82195 0.0
O3249 O 0.81818 0.81837 0.78464 0.0
O3250 O 0.82257 0.7984 0.71877 0.0
O3251 O 0.86611 0.84429 0.74322 0.0
O3252 O 0.82918 0.85384 0.83332 0.0
O3253 O 0.85241 0.89023 0.78436 0.0
O3254 O 0.8261 0.73417 0.70901 0.0
O3255 O 0.86402 0.79497 0.76664 0.0
O3256 O 0.85903 0.81504 0.8443 0.0
O3257 O 0.82535 0.76082 0.81608 0.0
O3258 O 0.85825 0.74481 0.77606 0.0
O3259 O 0.79914 0.70398 0.74096 0.0
C3260 C 0.80704 0.8317 0.81145 0.0
C3261 C 0.85835 0.94142 0.82874 0.0
C3262 C 0.82188 0.97944 0.83135 0.0
C3263 C 0.83708 0.95579 0.81224 0.0
C3264 C 0.82754 0.98778 0.86788 0.0
C3265 C 0.864 0.94999 0.86525 0.0
C3266 C 0.84818 0.97262 0.88465 0.0
C3267 C 0.84514 0.82606 0.7162 0.0
C3268 C 0.87211 0.91554 0.80687 0.0
C3269 C 0.9808 0.85499 0.88199 0.0
C3270 C 0.99165 0.85016 0.84951 0.0
C3271 C 0.87866 0.7727 0.77332 0.0
C3272 C 0.83433 0.67748 0.70958 0.0
C3273 C 0.84559 0.66531 0.73786 0.0
C3274 C 0.86402 0.64064 0.73263 0.0
C3275 C 0.87065 0.62757 0.69904 0.0
C3276 C 0.84256 0.6657 0.67652 0.0
C3277 C 0.8601 0.64021 0.67113 0.0
C3278 C 0.84145 0.78318 0.84467 0.0
C3279 C 0.81429 0.70264 0.71403 0.0
H3280 H 0.83186 0.9476 0.78416 0.0
H3281 H 0.81627 1.00605 0.88346 0.0
H3282 H 0.88026 0.93906 0.8788 0.0
H3283 H 0.85212 0.97868 0.91278 0.0
H3284 H 0.83992 0.67462 0.76376 0.0
H3285 H 0.88433 0.60792 0.69473 0.0
H3286 H 0.83519 0.67614 0.65492 0.0
H3287 H 0.86544 0.63017 0.64534 0.0
Eu3288 Eu 0.5573 0.528 0.50688 0.0
C3289 C 0.63016 0.66756 0.59395 0.0
C3290 C 0.63583 0.7041 0.55156 0.0
C3291 C 0.63388 0.73154 0.6118 0.0
C3292 C 0.63186 0.67032 0.55988 0.0
C3293 C 0.63197 0.69841 0.62042 0.0
C3294 C 0.63596 0.73441 0.57744 0.0
C3295 C 0.63512 0.6631 0.66285 0.0
N3296 N 0.62925 0.63541 0.60168 0.0
C3297 C 0.63395 0.63353 0.63587 0.0
C3298 C 0.6333 0.69548 0.65501 0.0
Eu3299 Eu 0.62572 0.58574 0.55359 0.0
N3300 N 0.63134 0.64051 0.53517 0.0
C3301 C 0.63737 0.64347 0.50236 0.0
C3302 C 0.64023 0.70664 0.51759 0.0
C3303 C 0.64145 0.67633 0.49299 0.0
H3304 H 0.63566 0.60858 0.64231 0.0
H3305 H 0.64542 0.6782 0.46674 0.0
H3306 H 0.63849 0.76037 0.57129 0.0
H3307 H 0.63751 0.6609 0.68966 0.0
H3308 H 0.6383 0.62058 0.48273 0.0
H3309 H 0.53547 0.41781 0.57378 0.0
H3310 H 0.6433 0.73201 0.5104 0.0
H3311 H 0.54019 0.51577 0.41916 0.0
H3312 H 0.53855 0.47887 0.56709 0.0
H3313 H 0.54048 0.47028 0.36598 0.0
H3314 H 0.63498 0.75535 0.63173 0.0
H3315 H 0.54827 0.37334 0.52689 0.0
H3316 H 0.5604 0.35719 0.46565 0.0
H3317 H 0.6342 0.71839 0.67588 0.0
H3318 H 0.56242 0.37194 0.40848 0.0
N3319 N 0.5537 0.46996 0.51684 0.0
C3320 C 0.54416 0.46008 0.54617 0.0
C3321 C 0.5496 0.40022 0.52363 0.0
C3322 C 0.55648 0.40954 0.49239 0.0
C3323 C 0.54221 0.42521 0.55009 0.0
C3324 C 0.55734 0.44479 0.48929 0.0
H3325 H 0.55371 0.41363 0.37073 0.0
N3326 N 0.55329 0.48512 0.45363 0.0
C3327 C 0.54556 0.46511 0.39133 0.0
C3328 C 0.55754 0.45278 0.45676 0.0
C3329 C 0.54506 0.4906 0.42147 0.0
C3330 C 0.55319 0.43324 0.39414 0.0
C3331 C 0.55808 0.42613 0.42704 0.0
O3332 O 0.51076 0.49476 0.48572 0.0
O3333 O 0.57894 0.58796 0.52645 0.0
O3334 O 0.58964 0.58436 0.59488 0.0
O3335 O 0.54757 0.53942 0.566 0.0
O3336 O 0.55818 0.57013 0.47516 0.0
O3337 O 0.51538 0.54707 0.51809 0.0
O3338 O 0.66723 0.59637 0.59048 0.0
O3339 O 0.60362 0.52604 0.5343 0.0
O3340 O 0.59156 0.53301 0.46413 0.0
O3341 O 0.63822 0.56524 0.49653 0.0
O3342 O 0.62752 0.54201 0.58349 0.0
O3343 O 0.67248 0.59503 0.53576 0.0
C3344 C 0.5713 0.59866 0.49884 0.0
C3345 C 0.47094 0.52412 0.47566 0.0
C3346 C 0.42154 0.54133 0.46956 0.0
C3347 C 0.44655 0.53646 0.49057 0.0
C3348 C 0.4218 0.53443 0.43328 0.0
C3349 C 0.47009 0.51619 0.43933 0.0
C3350 C 0.44573 0.52158 0.41833 0.0
C3351 C 0.56144 0.56352 0.59526 0.0
C3352 C 0.49633 0.51874 0.49859 0.0
C3353 C 0.56132 0.39248 0.43092 0.0
C3354 C 0.56019 0.38407 0.46351 0.0
C3355 C 0.61181 0.51414 0.56079 0.0
C3356 C 0.71996 0.61087 0.57761 0.0
C3357 C 0.74 0.59694 0.55583 0.0
C3358 C 0.77202 0.60327 0.56758 0.0
C3359 C 0.78348 0.62514 0.60096 0.0
C3360 C 0.7322 0.63331 0.61035 0.0
C3361 C 0.76388 0.6406 0.6218 0.0
C3362 C 0.62208 0.54711 0.46557 0.0
C3363 C 0.6861 0.60052 0.56737 0.0
H3364 H 0.44729 0.54256 0.51863 0.0
H3365 H 0.40327 0.53839 0.41629 0.0
H3366 H 0.48804 0.50572 0.4271 0.0
H3367 H 0.44533 0.51563 0.39034 0.0
H3368 H 0.73031 0.5803 0.53032 0.0
H3369 H 0.80742 0.62927 0.61161 0.0
H3370 H 0.71716 0.64471 0.62732 0.0
H3371 H 0.77309 0.65735 0.64736 0.0
Eu3372 Eu 0.1297 0.56663 0.01663 0.0
C3373 C 0.02646 0.50963 0.10302 0.0
C3374 C 0.99432 0.45503 0.06545 0.0
C3375 C 0.99676 0.4636 0.12825 0.0
C3376 C 1.01537 0.48865 0.06994 0.0
C3377 C 0.01701 0.4975 0.13254 0.0
C3378 C 0.98539 0.44245 0.09478 0.0
C3379 C 0.04641 0.55435 0.16828 0.0
N3380 N 0.04541 0.54259 0.10629 0.0
C3381 C 0.05478 0.5654 0.13822 0.0
C3382 C 0.02758 0.52018 0.16546 0.0
Eu3383 Eu 0.05757 0.55955 0.05413 0.0
N3384 N 0.02424 0.50164 0.04211 0.0
C3385 C 1.01191 0.48312 1.0091 0.0
C3386 C 0.98231 0.43546 0.03159 0.0
C3387 C 0.99107 0.44964 1.0033 0.0
H3388 H 0.06921 0.5919 0.14049 0.0
H3389 H 0.98162 0.43492 0.97704 0.0
H3390 H 0.96931 0.41667 0.09188 0.0
H3391 H 0.05432 0.57227 0.19358 0.0
H3392 H 0.01815 0.49411 0.98713 0.0
H3393 H 0.20748 0.6935 0.08657 0.0
H3394 H 0.9658 0.40977 0.02697 0.0
H3395 H 0.11941 0.5287 0.93064 0.0
H3396 H 0.17185 0.6345 0.08008 0.0
H3397 H 0.1338 0.54461 0.87621 0.0
H3398 H 0.98928 0.45378 0.15062 0.0
H3399 H 0.22069 0.71613 0.03455 0.0
H3400 H 0.21557 0.70574 0.96942 0.0
H3401 H 0.02087 0.51182 0.18878 0.0
H3402 H 0.19567 0.66514 0.9122 0.0
N3403 N 0.16368 0.62407 0.0249 0.0
C3404 C 0.17701 0.64406 0.05709 0.0
C3405 C 0.20462 0.69037 0.03149 0.0
C3406 C 0.19198 0.66914 0.99847 0.0
C3407 C 0.19735 0.67759 0.06091 0.0
C3408 C 0.1715 0.63552 0.99599 0.0
H3409 H 0.16556 0.60489 0.87727 0.0
N3410 N 0.14243 0.57968 0.96275 0.0
C3411 C 0.14133 0.56405 0.90068 0.0
C3412 C 0.16062 0.61258 0.9639 0.0
C3413 C 0.13324 0.55514 0.93175 0.0
C3414 C 0.15925 0.59812 0.90138 0.0
C3415 C 0.16945 0.62276 0.93326 0.0
O3416 O 0.15714 0.52809 0.99829 0.0
O3417 O 0.08969 0.52631 0.03036 0.0
O3418 O 0.09093 0.54216 0.08899 0.0
O3419 O 0.13408 0.57838 0.07515 0.0
O3420 O 0.1035 0.5127 0.98254 0.0
O3421 O 0.17156 0.56492 0.0482 0.0
O3422 O 0.03003 0.59663 0.07591 0.0
O3423 O 0.09739 0.59897 0.04078 0.0
O3424 O 0.09847 0.58771 0.98305 0.0
O3425 O 0.05231 0.55508 0.9956 0.0
O3426 O 0.08142 0.61599 0.08673 0.0
O3427 O 1.01346 0.55932 0.02622 0.0
C3428 C 0.08525 0.50066 1.00339 0.0
C3429 C 0.21085 0.54401 0.01976 0.0
C3430 C 0.25921 0.52404 0.02226 0.0
C3431 C 0.22783 0.51994 0.02819 0.0
C3432 C 0.27344 0.55301 1.00864 0.0
C3433 C 0.22553 0.57258 1.00614 0.0
C3434 C 0.25673 0.57711 1.00079 0.0
C3435 C 0.12087 0.55786 0.09491 0.0
C3436 C 0.17801 0.53935 0.02565 0.0
C3437 C 0.18877 0.65679 0.93546 0.0
C3438 C 0.20006 0.67992 0.96803 0.0
C3439 C 0.10106 0.62604 0.06622 0.0
C3440 C 0.97556 0.57988 0.05757 0.0
C3441 C 0.95632 0.59887 0.04365 0.0
C3442 C 0.92489 0.59378 0.04941 0.0
C3443 C 0.91312 0.56942 0.06947 0.0
C3444 C 0.96342 0.55579 0.07748 0.0
C3445 C 0.9323 0.55062 0.08338 0.0
C3446 C 0.06788 0.57638 0.97767 0.0
C3447 C 1.00782 0.58471 0.04978 0.0
H3448 H 0.21647 0.49768 0.03853 0.0
H3449 H 0.29761 0.55701 1.00408 0.0
H3450 H 0.21291 0.59137 0.99967 0.0
H3451 H 0.26796 0.59928 0.99033 0.0
H3452 H 0.96573 0.61718 0.0279 0.0
H3453 H 0.88919 0.56531 0.07493 0.0
H3454 H 0.97788 0.54097 0.08835 0.0
H3455 H 0.92301 0.53205 0.09885 0.0
loop_
_geom_bond_atom_site_label_1
_geom_bond_atom_site_label_2
_geom_bond_distance
_geom_bond_site_symmetry_2
_ccdc_geom_bond_type
Li0 N17 1.990 . S
Li0 O60 1.956 . S
Li0 O61 1.970 . S
Li0 O62 1.961 . S
Li1 N25 1.990 . S
Li1 O60 1.970 . S
Li1 O61 1.956 . S
Li1 O63 1.961 . S
Li2 N47 1.990 . S
Li2 O60 1.961 . S
Li2 O62 1.956 . S
Li2 O63 1.970 . S
Li3 N53 1.990 . S
Li3 O61 1.961 . S
Li3 O62 1.970 . S
Li3 O63 1.956 . S
C4 C6 1.348 . S
C4 C7 1.356 . S
C4 O60 1.325 . S
N5 C8 1.314 . S
N5 C9 1.279 . S
C6 C4 1.348 . S
C6 C8 1.353 . S
C6 H64 0.929 . S
C7 C4 1.356 . S
C7 C9 1.358 . S
C7 H65 0.930 . S
C8 N5 1.314 . S
C8 C6 1.353 . S
C8 H66 0.930 . S
C9 N5 1.279 . S
C9 C7 1.358 . S
C9 H67 0.930 . S
C10 C13 1.348 . S
C10 C14 1.356 . S
C10 O61 1.325 . S
C11 N12 1.279 . S
C11 C14 1.358 . S
C11 H68 0.930 . S
N12 C11 1.279 . S
N12 C15 1.314 . S
C13 C10 1.348 . S
C13 C15 1.353 . S
C13 H69 0.929 . S
C14 C10 1.356 . S
C14 C11 1.358 . S
C14 H70 0.930 . S
C15 N12 1.314 . S
C15 C13 1.353 . S
C15 H71 0.930 . S
C16 N17 1.314 . S
C16 C21 1.353 . S
C16 H22 0.930 . S
N17 Li0 1.990 . S
N17 C16 1.314 . S
N17 C19 1.279 . S
C18 C19 1.358 . S
C18 C20 1.356 . S
C18 H72 0.930 . S
C19 N17 1.279 . S
C19 C18 1.358 . S
C19 H23 0.930 . S
C20 C18 1.356 . S
C20 C21 1.348 . S
C21 C16 1.353 . S
C21 C20 1.348 . S
C21 H73 0.929 . S
H22 C16 0.930 . S
H23 C19 0.930 . S
C24 N25 1.314 . S
C24 C26 1.353 . S
C24 H30 0.930 . S
N25 Li1 1.990 . S
N25 C24 1.314 . S
N25 C28 1.279 . S
C26 C24 1.353 . S
C26 C29 1.348 . S
C26 H74 0.929 . S
C27 C28 1.358 . S
C27 C29 1.356 . S
C27 H75 0.930 . S
C28 N25 1.279 . S
C28 C27 1.358 . S
C28 H31 0.930 . S
C29 C26 1.348 . S
C29 C27 1.356 . S
H30 C24 0.930 . S
H31 C28 0.930 . S
C32 C34 1.348 . S
C32 C35 1.356 . S
C32 O62 1.325 . S
N33 C36 1.314 . S
N33 C37 1.279 . S
C34 C32 1.348 . S
C34 C36 1.353 . S
C34 H76 0.929 . S
C35 C32 1.356 . S
C35 C37 1.358 . S
C35 H77 0.930 . S
C36 N33 1.314 . S
C36 C34 1.353 . S
C36 H78 0.930 . S
C37 N33 1.279 . S
C37 C35 1.358 . S
C37 H79 0.930 . S
C38 C39 1.348 . S
C38 C40 1.356 . S
C38 O63 1.325 . S
C39 C38 1.348 . S
C39 C41 1.353 . S
C39 H80 0.929 . S
C40 C38 1.356 . S
C40 C42 1.358 . S
C40 H81 0.930 . S
C41 C39 1.353 . S
C41 N43 1.314 . S
C41 H82 0.930 . S
C42 C40 1.358 . S
C42 N43 1.279 . S
C42 H83 0.930 . S
N43 C41 1.314 . S
N43 C42 1.279 . S
C44 C46 1.353 . S
C44 N47 1.314 . S
C44 H50 0.930 . S
C45 N47 1.279 . S
C45 C48 1.358 . S
C45 H51 0.930 . S
C46 C44 1.353 . S
C46 C49 1.348 . S
C46 H84 0.929 . S
N47 Li2 1.990 . S
N47 C44 1.314 . S
N47 C45 1.279 . S
C48 C45 1.358 . S
C48 C49 1.356 . S
C48 H85 0.930 . S
C49 C46 1.348 . S
C49 C48 1.356 . S
H50 C44 0.930 . S
H51 C45 0.930 . S
C52 N53 1.314 . S
C52 C54 1.353 . S
C52 H58 0.930 . S
N53 Li3 1.990 . S
N53 C52 1.314 . S
N53 C56 1.279 . S
C54 C52 1.353 . S
C54 C57 1.348 . S
C54 H86 0.929 . S
C55 C56 1.358 . S
C55 C57 1.356 . S
C55 H87 0.930 . S
C56 N53 1.279 . S
C56 C55 1.358 . S
C56 H59 0.930 . S
C57 C54 1.348 . S
C57 C55 1.356 . S
H58 C52 0.930 . S
H59 C56 0.930 . S
O60 Li0 1.956 . S
O60 Li1 1.970 . S
O60 Li2 1.961 . S
O60 C4 1.325 . S
O61 Li0 1.970 . S
O61 Li1 1.956 . S
O61 Li3 1.961 . S
O61 C10 1.325 . S
O62 Li0 1.961 . S
O62 Li2 1.956 . S
O62 Li3 1.970 . S
O62 C32 1.325 . S
O63 Li1 1.961 . S
O63 Li2 1.970 . S
O63 Li3 1.956 . S
O63 C38 1.325 . S
H64 C6 0.929 . S
H65 C7 0.930 . S
H66 C8 0.930 . S
H67 C9 0.930 . S
H68 C11 0.930 . S
H69 C13 0.929 . S
H70 C14 0.930 . S
H71 C15 0.930 . S
H72 C18 0.930 . S
H73 C21 0.929 . S
H74 C26 0.929 . S
H75 C27 0.930 . S
H76 C34 0.929 . S
H77 C35 0.930 . S
H78 C36 0.930 . S
H79 C37 0.930 . S
H80 C39 0.929 . S
H81 C40 0.930 . S
H82 C41 0.930 . S
H83 C42 0.930 . S
H84 C46 0.929 . S
H85 C48 0.930 . S
H86 C54 0.929 . S
H87 C55 0.930 . S
Li88 N105 1.990 . S
Li88 O148 1.956 . S
Li88 O149 1.970 . S
Li88 O150 1.961 1_455 S
Li89 N113 1.990 . S
Li89 O148 1.970 . S
Li89 O149 1.956 . S
Li89 O151 1.961 1_455 S
Li90 N135 1.990 . S
Li90 O148 1.961 1_655 S
Li90 O150 1.956 . S
Li90 O151 1.970 . S
Li91 N141 1.990 . S
Li91 O149 1.961 1_655 S
Li91 O150 1.970 . S
Li91 O151 1.956 . S
C92 C94 1.348 . S
C92 C95 1.356 . S
C92 O148 1.325 . S
N93 C96 1.314 . S
N93 C97 1.279 . S
C94 C92 1.348 . S
C94 C96 1.353 . S
C94 H152 0.929 . S
C95 C92 1.356 . S
C95 C97 1.358 . S
C95 H153 0.930 . S
C96 N93 1.314 . S
C96 C94 1.353 . S
C96 H154 0.930 . S
C97 N93 1.279 . S
C97 C95 1.358 . S
C97 H155 0.930 . S
C98 C101 1.348 . S
C98 C102 1.356 . S
C98 O149 1.325 . S
C99 N100 1.279 . S
C99 C102 1.358 . S
C99 H156 0.930 . S
N100 C99 1.279 . S
N100 C103 1.314 . S
C101 C98 1.348 . S
C101 C103 1.353 . S
C101 H157 0.929 . S
C102 C98 1.356 . S
C102 C99 1.358 . S
C102 H158 0.930 . S
C103 N100 1.314 . S
C103 C101 1.353 . S
C103 H159 0.930 . S
C104 N105 1.314 1_655 S
C104 C109 1.353 . S
C104 H110 0.930 . S
N105 Li88 1.990 . S
N105 C104 1.314 1_455 S
N105 C107 1.279 . S
C106 C107 1.358 . S
C106 C108 1.356 . S
C106 H160 0.930 . S
C107 N105 1.279 . S
C107 C106 1.358 . S
C107 H111 0.930 . S
C108 C106 1.356 . S
C108 C109 1.348 1_455 S
C109 C104 1.353 . S
C109 C108 1.348 1_655 S
C109 H161 0.929 . S
H110 C104 0.930 . S
H111 C107 0.930 . S
C112 N113 1.314 . S
C112 C114 1.353 . S
C112 H118 0.930 . S
N113 Li89 1.990 . S
N113 C112 1.314 . S
N113 C116 1.279 . S
C114 C112 1.353 . S
C114 C117 1.348 . S
C114 H162 0.929 . S
C115 C116 1.358 . S
C115 C117 1.356 . S
C115 H163 0.930 . S
C116 N113 1.279 . S
C116 C115 1.358 . S
C116 H119 0.930 . S
C117 C114 1.348 . S
C117 C115 1.356 . S
H118 C112 0.930 . S
H119 C116 0.930 . S
C120 C122 1.348 . S
C120 C123 1.356 . S
C120 O150 1.325 . S
N121 C124 1.314 . S
N121 C125 1.279 . S
C122 C120 1.348 . S
C122 C124 1.353 . S
C122 H164 0.929 . S
C123 C120 1.356 . S
C123 C125 1.358 . S
C123 H165 0.930 . S
C124 N121 1.314 . S
C124 C122 1.353 . S
C124 H166 0.930 . S
C125 N121 1.279 . S
C125 C123 1.358 . S
C125 H167 0.930 . S
C126 C127 1.348 . S
C126 C128 1.356 1_655 S
C126 O151 1.325 . S
C127 C126 1.348 . S
C127 C129 1.353 . S
C127 H168 0.929 . S
C128 C126 1.356 1_455 S
C128 C130 1.358 . S
C128 H169 0.930 . S
C129 C127 1.353 . S
C129 N131 1.314 . S
C129 H170 0.930 . S
C130 C128 1.358 . S
C130 N131 1.279 1_455 S
C130 H171 0.932 . S
N131 C129 1.314 . S
N131 C130 1.279 1_655 S
C132 C134 1.353 . S
C132 N135 1.314 1_455 S
C132 H138 0.930 . S
C133 N135 1.279 . S
C133 C136 1.358 . S
C133 H139 0.930 . S
C134 C132 1.353 . S
C134 C137 1.348 1_455 S
C134 H172 0.929 . S
N135 Li90 1.990 . S
N135 C132 1.314 1_655 S
N135 C133 1.279 . S
C136 C133 1.358 . S
C136 C137 1.356 . S
C136 H173 0.930 . S
C137 C134 1.348 1_655 S
C137 C136 1.356 . S
H138 C132 0.930 . S
H139 C133 0.930 . S
C140 N141 1.314 . S
C140 C142 1.353 . S
C140 H146 0.930 . S
N141 Li91 1.990 . S
N141 C140 1.314 . S
N141 C144 1.279 . S
C142 C140 1.353 . S
C142 C145 1.348 . S
C142 H174 0.929 . S
C143 C144 1.358 . S
C143 C145 1.356 . S
C143 H175 0.930 . S
C144 N141 1.279 . S
C144 C143 1.358 . S
C144 H147 0.930 . S
C145 C142 1.348 . S
C145 C143 1.356 . S
H146 C140 0.930 . S
H147 C144 0.930 . S
O148 Li88 1.956 . S
O148 Li89 1.970 . S
O148 Li90 1.961 1_455 S
O148 C92 1.325 . S
O149 Li88 1.970 . S
O149 Li89 1.956 . S
O149 Li91 1.961 1_455 S
O149 C98 1.325 . S
O150 Li88 1.961 1_655 S
O150 Li90 1.956 . S
O150 Li91 1.970 . S
O150 C120 1.325 . S
O151 Li89 1.961 1_655 S
O151 Li90 1.970 . S
O151 Li91 1.956 . S
O151 C126 1.325 . S
H152 C94 0.929 . S
H153 C95 0.930 . S
H154 C96 0.930 . S
H155 C97 0.930 . S
H156 C99 0.930 . S
H157 C101 0.929 . S
H158 C102 0.930 . S
H159 C103 0.930 . S
H160 C106 0.930 . S
H161 C109 0.929 . S
H162 C114 0.929 . S
H163 C115 0.930 . S
H164 C122 0.929 . S
H165 C123 0.930 . S
H166 C124 0.930 . S
H167 C125 0.930 . S
H168 C127 0.929 . S
H169 C128 0.930 . S
H170 C129 0.930 . S
H171 C130 0.932 . S
H172 C134 0.929 . S
H173 C136 0.930 . S
H174 C142 0.929 . S
H175 C143 0.930 . S
Li176 N193 1.990 . S
Li176 O236 1.956 . S
Li176 O237 1.970 . S
Li176 O238 1.961 . S
Li177 N201 1.990 . S
Li177 O236 1.970 . S
Li177 O237 1.956 . S
Li177 O239 1.961 . S
Li178 N223 1.990 . S
Li178 O236 1.961 . S
Li178 O238 1.956 . S
Li178 O239 1.970 . S
Li179 N229 1.990 . S
Li179 O237 1.961 . S
Li179 O238 1.970 . S
Li179 O239 1.956 . S
C180 C182 1.348 . S
C180 C183 1.356 . S
C180 O236 1.325 . S
N181 C184 1.314 . S
N181 C185 1.279 . S
C182 C180 1.348 . S
C182 C184 1.353 . S
C182 H240 0.929 . S
C183 C180 1.356 . S
C183 C185 1.358 . S
C183 H241 0.930 . S
C184 N181 1.314 . S
C184 C182 1.353 . S
C184 H242 0.930 . S
C185 N181 1.279 . S
C185 C183 1.358 . S
C185 H243 0.930 . S
C186 C189 1.348 . S
C186 C190 1.356 . S
C186 O237 1.325 . S
C187 N188 1.279 . S
C187 C190 1.358 . S
C187 H244 0.930 1_556 S
N188 C187 1.279 . S
N188 C191 1.314 . S
C189 C186 1.348 . S
C189 C191 1.353 . S
C189 H245 0.929 . S
C190 C186 1.356 . S
C190 C187 1.358 . S
C190 H246 0.930 . S
C191 N188 1.314 . S
C191 C189 1.353 . S
C191 H247 0.930 . S
C192 N193 1.314 . S
C192 C197 1.353 . S
C192 H198 0.930 . S
N193 Li176 1.990 . S
N193 C192 1.314 . S
N193 C195 1.279 . S
C194 C195 1.358 . S
C194 C196 1.356 . S
C194 H248 0.930 . S
C195 N193 1.279 . S
C195 C194 1.358 . S
C195 H199 0.930 . S
C196 C194 1.356 . S
C196 C197 1.348 . S
C197 C192 1.353 . S
C197 C196 1.348 . S
C197 H249 0.929 . S
H198 C192 0.930 . S
H199 C195 0.930 . S
C200 N201 1.314 . S
C200 C202 1.353 . S
C200 H206 0.930 . S
N201 Li177 1.990 . S
N201 C200 1.314 . S
N201 C204 1.279 . S
C202 C200 1.353 . S
C202 C205 1.348 1_565 S
C202 H250 0.929 1_565 S
C203 C204 1.358 . S
C203 C205 1.356 1_565 S
C203 H251 0.926 1_556 S
C204 N201 1.279 . S
C204 C203 1.358 . S
C204 H207 0.930 . S
C205 C202 1.348 1_545 S
C205 C203 1.356 1_545 S
H206 C200 0.930 . S
H207 C204 0.930 . S
C208 C210 1.348 . S
C208 C211 1.356 . S
C208 O238 1.325 . S
N209 C212 1.314 . S
N209 C213 1.279 . S
C210 C208 1.348 . S
C210 C212 1.353 . S
C210 H252 0.929 . S
C211 C208 1.356 . S
C211 C213 1.358 . S
C211 H253 0.930 . S
C212 N209 1.314 . S
C212 C210 1.353 . S
C212 H254 0.930 . S
C213 N209 1.279 . S
C213 C211 1.358 . S
C213 H255 0.930 . S
C214 C215 1.348 . S
C214 C216 1.356 . S
C214 O239 1.325 . S
C215 C214 1.348 . S
C215 C217 1.353 . S
C215 H256 0.929 . S
C216 C214 1.356 . S
C216 C218 1.358 . S
C216 H257 0.930 . S
C217 C215 1.353 . S
C217 N219 1.314 . S
C217 H258 0.930 . S
C218 C216 1.358 . S
C218 N219 1.279 . S
C218 H259 0.930 1_556 S
N219 C217 1.314 . S
N219 C218 1.279 . S
C220 C222 1.353 . S
C220 N223 1.314 . S
C220 H226 0.930 . S
C221 N223 1.279 . S
C221 C224 1.358 . S
C221 H227 0.930 . S
C222 C220 1.353 . S
C222 C225 1.348 . S
C222 H260 0.929 . S
N223 Li178 1.990 . S
N223 C220 1.314 . S
N223 C221 1.279 . S
C224 C221 1.358 . S
C224 C225 1.356 . S
C224 H261 0.930 . S
C225 C222 1.348 . S
C225 C224 1.356 . S
H226 C220 0.930 . S
H227 C221 0.930 . S
C228 N229 1.314 . S
C228 C230 1.353 . S
C228 H234 0.930 . S
N229 Li179 1.990 . S
N229 C228 1.314 . S
N229 C232 1.279 . S
C230 C228 1.353 . S
C230 C233 1.348 . S
C230 H262 0.929 . S
C231 C232 1.358 . S
C231 C233 1.356 . S
C231 H263 0.930 . S
C232 N229 1.279 . S
C232 C231 1.358 . S
C232 H235 0.930 . S
C233 C230 1.348 . S
C233 C231 1.356 . S
H234 C228 0.930 . S
H235 C232 0.930 . S
O236 Li176 1.956 . S
O236 Li177 1.970 . S
O236 Li178 1.961 . S
O236 C180 1.325 . S
O237 Li176 1.970 . S
O237 Li177 1.956 . S
O237 Li179 1.961 . S
O237 C186 1.325 . S
O238 Li176 1.961 . S
O238 Li178 1.956 . S
O238 Li179 1.970 . S
O238 C208 1.325 . S
O239 Li177 1.961 . S
O239 Li178 1.970 . S
O239 Li179 1.956 . S
O239 C214 1.325 . S
H240 C182 0.929 . S
H241 C183 0.930 . S
H242 C184 0.930 . S
H243 C185 0.930 . S
H244 C187 0.930 1_554 S
H245 C189 0.929 . S
H246 C190 0.930 . S
H247 C191 0.930 . S
H248 C194 0.930 . S
H249 C197 0.929 . S
H250 C202 0.929 1_545 S
H251 C203 0.926 1_554 S
H252 C210 0.929 . S
H253 C211 0.930 . S
H254 C212 0.930 . S
H255 C213 0.930 . S
H256 C215 0.929 . S
H257 C216 0.930 . S
H258 C217 0.930 . S
H259 C218 0.930 1_554 S
H260 C222 0.929 . S
H261 C224 0.930 . S
H262 C230 0.929 . S
H263 C231 0.930 . S
Li264 N281 1.990 . S
Li264 O324 1.956 . S
Li264 O325 1.970 . S
Li264 O326 1.961 . S
Li265 N289 1.990 . S
Li265 O324 1.970 . S
Li265 O325 1.956 . S
Li265 O327 1.961 . S
Li266 N311 1.990 . S
Li266 O324 1.961 . S
Li266 O326 1.956 . S
Li266 O327 1.970 . S
Li267 N317 1.990 . S
Li267 O325 1.961 . S
Li267 O326 1.970 . S
Li267 O327 1.956 . S
C268 C270 1.348 . S
C268 C271 1.356 . S
C268 O324 1.325 . S
N269 C272 1.314 . S
N269 C273 1.279 . S
C270 C268 1.348 . S
C270 C272 1.353 . S
C270 H328 0.929 . S
C271 C268 1.356 . S
C271 C273 1.358 . S
C271 H329 0.930 . S
C272 N269 1.314 . S
C272 C270 1.353 . S
C272 H330 0.930 . S
C273 N269 1.279 . S
C273 C271 1.358 . S
C273 H331 0.930 . S
C274 C277 1.348 . S
C274 C278 1.356 . S
C274 O325 1.325 . S
C275 N276 1.279 . S
C275 C278 1.358 . S
C275 H332 0.930 . S
N276 C275 1.279 . S
N276 C279 1.314 . S
C277 C274 1.348 . S
C277 C279 1.353 . S
C277 H333 0.929 . S
C278 C274 1.356 . S
C278 C275 1.358 . S
C278 H334 0.930 . S
C279 N276 1.314 . S
C279 C277 1.353 . S
C279 H335 0.930 . S
C280 N281 1.314 . S
C280 C285 1.353 . S
C280 H286 0.930 . S
N281 Li264 1.990 . S
N281 C280 1.314 . S
N281 C283 1.279 . S
C282 C283 1.358 . S
C282 C284 1.356 . S
C282 H336 0.930 . S
C283 N281 1.279 . S
C283 C282 1.358 . S
C283 H287 0.930 . S
C284 C282 1.356 . S
C284 C285 1.348 . S
C285 C280 1.353 . S
C285 C284 1.348 . S
C285 H337 0.929 . S
H286 C280 0.930 . S
H287 C283 0.930 . S
C288 N289 1.314 . S
C288 C290 1.353 . S
C288 H294 0.930 . S
N289 Li265 1.990 . S
N289 C288 1.314 . S
N289 C292 1.279 . S
C290 C288 1.353 . S
C290 C293 1.348 . S
C290 H338 0.929 . S
C291 C292 1.358 . S
C291 C293 1.356 . S
C291 H339 0.930 . S
C292 N289 1.279 . S
C292 C291 1.358 . S
C292 H295 0.930 . S
C293 C290 1.348 . S
C293 C291 1.356 . S
H294 C288 0.930 . S
H295 C292 0.930 . S
C296 C298 1.348 . S
C296 C299 1.356 . S
C296 O326 1.325 . S
N297 C300 1.314 . S
N297 C301 1.279 . S
C298 C296 1.348 . S
C298 C300 1.353 . S
C298 H340 0.929 . S
C299 C296 1.356 . S
C299 C301 1.358 . S
C299 H341 0.930 . S
C300 N297 1.314 . S
C300 C298 1.353 . S
C300 H342 0.930 . S
C301 N297 1.279 . S
C301 C299 1.358 . S
C301 H343 0.930 . S
C302 C303 1.348 . S
C302 C304 1.356 . S
C302 O327 1.325 . S
C303 C302 1.348 . S
C303 C305 1.353 . S
C303 H344 0.929 . S
C304 C302 1.356 . S
C304 C306 1.358 . S
C304 H345 0.930 . S
C305 C303 1.353 . S
C305 N307 1.314 . S
C305 H346 0.930 . S
C306 C304 1.358 . S
C306 N307 1.279 . S
C306 H347 0.930 . S
N307 C305 1.314 . S
N307 C306 1.279 . S
C308 C310 1.353 . S
C308 N311 1.314 . S
C308 H314 0.930 . S
C309 N311 1.279 . S
C309 C312 1.358 . S
C309 H315 0.930 . S
C310 C308 1.353 . S
C310 C313 1.348 . S
C310 H348 0.929 . S
N311 Li266 1.990 . S
N311 C308 1.314 . S
N311 C309 1.279 . S
C312 C309 1.358 . S
C312 C313 1.356 . S
C312 H349 0.930 . S
C313 C310 1.348 . S
C313 C312 1.356 . S
H314 C308 0.930 . S
H315 C309 0.930 . S
C316 N317 1.314 . S
C316 C318 1.353 . S
C316 H322 0.930 . S
N317 Li267 1.990 . S
N317 C316 1.314 . S
N317 C320 1.279 . S
C318 C316 1.353 . S
C318 C321 1.348 . S
C318 H350 0.929 . S
C319 C320 1.358 . S
C319 C321 1.356 . S
C319 H351 0.930 . S
C320 N317 1.279 . S
C320 C319 1.358 . S
C320 H323 0.930 . S
C321 C318 1.348 . S
C321 C319 1.356 . S
H322 C316 0.930 . S
H323 C320 0.930 . S
O324 Li264 1.956 . S
O324 Li265 1.970 . S
O324 Li266 1.961 . S
O324 C268 1.325 . S
O325 Li264 1.970 . S
O325 Li265 1.956 . S
O325 Li267 1.961 . S
O325 C274 1.325 . S
O326 Li264 1.961 . S
O326 Li266 1.956 . S
O326 Li267 1.970 . S
O326 C296 1.325 . S
O327 Li265 1.961 . S
O327 Li266 1.970 . S
O327 Li267 1.956 . S
O327 C302 1.325 . S
H328 C270 0.929 . S
H329 C271 0.930 . S
H330 C272 0.930 . S
H331 C273 0.930 . S
H332 C275 0.930 . S
H333 C277 0.929 . S
H334 C278 0.930 . S
H335 C279 0.930 . S
H336 C282 0.930 . S
H337 C285 0.929 . S
H338 C290 0.929 . S
H339 C291 0.930 . S
H340 C298 0.929 . S
H341 C299 0.930 . S
H342 C300 0.930 . S
H343 C301 0.930 . S
H344 C303 0.929 . S
H345 C304 0.930 . S
H346 C305 0.930 . S
H347 C306 0.930 . S
H348 C310 0.929 . S
H349 C312 0.930 . S
H350 C318 0.929 . S
H351 C319 0.930 . S
Li352 N369 1.990 . S
Li352 O412 1.956 . S
Li352 O413 1.970 . S
Li352 O414 1.961 . S
Li353 N377 1.990 . S
Li353 O412 1.970 . S
Li353 O413 1.956 . S
Li353 O415 1.961 . S
Li354 N399 1.990 . S
Li354 O412 1.961 . S
Li354 O414 1.956 . S
Li354 O415 1.970 . S
Li355 N405 1.990 . S
Li355 O413 1.961 . S
Li355 O414 1.970 . S
Li355 O415 1.956 . S
C356 C358 1.348 . S
C356 C359 1.356 . S
C356 O412 1.325 . S
N357 C360 1.314 . S
N357 C361 1.279 1_554 S
C358 C356 1.348 . S
C358 C360 1.353 . S
C358 H416 0.929 . S
C359 C356 1.356 . S
C359 C361 1.358 1_554 S
C359 H417 0.930 . S
C360 N357 1.314 . S
C360 C358 1.353 . S
C360 H418 0.930 . S
C361 N357 1.279 1_556 S
C361 C359 1.358 1_556 S
C361 H419 0.930 . S
C362 C365 1.348 . S
C362 C366 1.356 . S
C362 O413 1.325 . S
C363 N364 1.279 . S
C363 C366 1.358 . S
C363 H420 0.930 . S
N364 C363 1.279 . S
N364 C367 1.314 . S
C365 C362 1.348 . S
C365 C367 1.353 . S
C365 H421 0.929 . S
C366 C362 1.356 . S
C366 C363 1.358 . S
C366 H422 0.930 . S
C367 N364 1.314 . S
C367 C365 1.353 . S
C367 H423 0.930 . S
C368 N369 1.314 . S
C368 C373 1.353 . S
C368 H374 0.930 . S
N369 Li352 1.990 . S
N369 C368 1.314 . S
N369 C371 1.279 . S
C370 C371 1.358 . S
C370 C372 1.356 . S
C370 H424 0.930 . S
C371 N369 1.279 . S
C371 C370 1.358 . S
C371 H375 0.930 . S
C372 C370 1.356 . S
C372 C373 1.348 . S
C373 C368 1.353 . S
C373 C372 1.348 . S
C373 H425 0.929 . S
H374 C368 0.930 . S
H375 C371 0.930 . S
C376 N377 1.314 . S
C376 C378 1.353 . S
C376 H382 0.930 . S
N377 Li353 1.990 . S
N377 C376 1.314 . S
N377 C380 1.279 . S
C378 C376 1.353 . S
C378 C381 1.348 . S
C378 H426 0.929 . S
C379 C380 1.358 . S
C379 C381 1.356 . S
C379 H427 0.930 . S
C380 N377 1.279 . S
C380 C379 1.358 . S
C380 H383 0.930 . S
C381 C378 1.348 . S
C381 C379 1.356 . S
H382 C376 0.930 . S
H383 C380 0.930 . S
C384 C386 1.348 . S
C384 C387 1.356 . S
C384 O414 1.325 . S
N385 C388 1.314 1_556 S
N385 C389 1.279 . S
C386 C384 1.348 . S
C386 C388 1.353 . S
C386 H428 0.929 . S
C387 C384 1.356 . S
C387 C389 1.358 1_554 S
C387 H429 0.930 . S
C388 N385 1.314 1_554 S
C388 C386 1.353 . S
C388 H430 0.930 1_455 S
C389 N385 1.279 . S
C389 C387 1.358 1_556 S
C389 H431 0.930 . S
C390 C391 1.348 . S
C390 C392 1.356 . S
C390 O415 1.325 . S
C391 C390 1.348 . S
C391 C393 1.353 . S
C391 H432 0.929 . S
C392 C390 1.356 . S
C392 C394 1.358 . S
C392 H433 0.930 . S
C393 C391 1.353 . S
C393 N395 1.314 . S
C393 H434 0.930 . S
C394 C392 1.358 . S
C394 N395 1.279 . S
C394 H435 0.930 . S
N395 C393 1.314 . S
N395 C394 1.279 . S
C396 C398 1.353 . S
C396 N399 1.314 . S
C396 H402 0.930 . S
C397 N399 1.279 . S
C397 C400 1.358 1_554 S
C397 H403 0.930 . S
C398 C396 1.353 . S
C398 C401 1.348 1_554 S
C398 H436 0.929 . S
N399 Li354 1.990 . S
N399 C396 1.314 . S
N399 C397 1.279 . S
C400 C397 1.358 1_556 S
C400 C401 1.356 . S
C400 H437 0.930 . S
C401 C398 1.348 1_556 S
C401 C400 1.356 . S
H402 C396 0.930 . S
H403 C397 0.930 . S
C404 N405 1.314 . S
C404 C406 1.353 . S
C404 H410 0.930 . S
N405 Li355 1.990 . S
N405 C404 1.314 . S
N405 C408 1.279 . S
C406 C404 1.353 . S
C406 C409 1.348 . S
C406 H438 0.929 . S
C407 C408 1.358 . S
C407 C409 1.356 . S
C407 H439 0.930 . S
C408 N405 1.279 . S
C408 C407 1.358 . S
C408 H411 0.930 . S
C409 C406 1.348 . S
C409 C407 1.356 . S
H410 C404 0.930 . S
H411 C408 0.930 . S
O412 Li352 1.956 . S
O412 Li353 1.970 . S
O412 Li354 1.961 . S
O412 C356 1.325 . S
O413 Li352 1.970 . S
O413 Li353 1.956 . S
O413 Li355 1.961 . S
O413 C362 1.325 . S
O414 Li352 1.961 . S
O414 Li354 1.956 . S
O414 Li355 1.970 . S
O414 C384 1.325 . S
O415 Li353 1.961 . S
O415 Li354 1.970 . S
O415 Li355 1.956 . S
O415 C390 1.325 . S
H416 C358 0.929 . S
H417 C359 0.930 . S
H418 C360 0.930 . S
H419 C361 0.930 . S
H420 C363 0.930 . S
H421 C365 0.929 . S
H422 C366 0.930 . S
H423 C367 0.930 . S
H424 C370 0.930 . S
H425 C373 0.929 . S
H426 C378 0.929 . S
H427 C379 0.930 . S
H428 C386 0.929 . S
H429 C387 0.930 . S
H430 C388 0.930 1_655 S
H431 C389 0.930 . S
H432 C391 0.929 . S
H433 C392 0.930 . S
H434 C393 0.930 . S
H435 C394 0.930 . S
H436 C398 0.929 . S
H437 C400 0.930 . S
H438 C406 0.929 . S
H439 C407 0.930 . S
Li440 N457 1.990 . S
Li440 O500 1.956 . S
Li440 O501 1.970 . S
Li440 O502 1.961 . S
Li441 N465 1.990 . S
Li441 O500 1.970 . S
Li441 O501 1.956 . S
Li441 O503 1.961 . S
Li442 N487 1.990 . S
Li442 O500 1.961 . S
Li442 O502 1.956 . S
Li442 O503 1.970 . S
Li443 N493 1.990 . S
Li443 O501 1.961 . S
Li443 O502 1.970 . S
Li443 O503 1.956 . S
C444 C446 1.348 . S
C444 C447 1.356 . S
C444 O500 1.325 . S
N445 C448 1.314 . S
N445 C449 1.279 . S
C446 C444 1.348 . S
C446 C448 1.353 . S
C446 H504 0.929 . S
C447 C444 1.356 . S
C447 C449 1.358 . S
C447 H505 0.930 . S
C448 N445 1.314 . S
C448 C446 1.353 . S
C448 H506 0.930 . S
C449 N445 1.279 . S
C449 C447 1.358 . S
C449 H507 0.930 . S
C450 C453 1.348 . S
C450 C454 1.356 . S
C450 O501 1.325 . S
C451 N452 1.279 . S
C451 C454 1.358 . S
C451 H508 0.930 . S
N452 C451 1.279 . S
N452 C455 1.314 . S
C453 C450 1.348 . S
C453 C455 1.353 . S
C453 H509 0.929 . S
C454 C450 1.356 . S
C454 C451 1.358 . S
C454 H510 0.930 . S
C455 N452 1.314 . S
C455 C453 1.353 . S
C455 H511 0.930 . S
C456 N457 1.314 . S
C456 C461 1.353 . S
C456 H462 0.930 . S
N457 Li440 1.990 . S
N457 C456 1.314 . S
N457 C459 1.279 . S
C458 C459 1.358 . S
C458 C460 1.356 . S
C458 H512 0.930 . S
C459 N457 1.279 . S
C459 C458 1.358 . S
C459 H463 0.930 . S
C460 C458 1.356 . S
C460 C461 1.348 . S
C461 C456 1.353 . S
C461 C460 1.348 . S
C461 H513 0.929 . S
H462 C456 0.930 . S
H463 C459 0.930 . S
C464 N465 1.314 . S
C464 C466 1.353 . S
C464 H470 0.930 . S
N465 Li441 1.990 . S
N465 C464 1.314 . S
N465 C468 1.279 . S
C466 C464 1.353 . S
C466 C469 1.348 . S
C466 H514 0.929 . S
C467 C468 1.358 . S
C467 C469 1.356 . S
C467 H515 0.930 . S
C468 N465 1.279 . S
C468 C467 1.358 . S
C468 H471 0.930 . S
C469 C466 1.348 . S
C469 C467 1.356 . S
H470 C464 0.930 . S
H471 C468 0.930 . S
C472 C474 1.348 . S
C472 C475 1.356 . S
C472 O502 1.325 . S
N473 C476 1.314 . S
N473 C477 1.279 . S
C474 C472 1.348 . S
C474 C476 1.353 . S
C474 H516 0.929 . S
C475 C472 1.356 . S
C475 C477 1.358 . S
C475 H517 0.930 . S
C476 N473 1.314 . S
C476 C474 1.353 . S
C476 H518 0.930 . S
C477 N473 1.279 . S
C477 C475 1.358 . S
C477 H519 0.930 . S
C478 C479 1.348 . S
C478 C480 1.356 . S
C478 O503 1.325 . S
C479 C478 1.348 . S
C479 C481 1.353 . S
C479 H520 0.929 . S
C480 C478 1.356 . S
C480 C482 1.358 . S
C480 H521 0.930 . S
C481 C479 1.353 . S
C481 N483 1.314 . S
C481 H522 0.930 . S
C482 C480 1.358 . S
C482 N483 1.279 . S
C482 H523 0.930 . S
N483 C481 1.314 . S
N483 C482 1.279 . S
C484 C486 1.353 . S
C484 N487 1.314 . S
C484 H490 0.930 . S
C485 N487 1.279 . S
C485 C488 1.358 . S
C485 H491 0.930 . S
C486 C484 1.353 . S
C486 C489 1.348 . S
C486 H524 0.929 . S
N487 Li442 1.990 . S
N487 C484 1.314 . S
N487 C485 1.279 . S
C488 C485 1.358 . S
C488 C489 1.356 . S
C488 H525 0.930 . S
C489 C486 1.348 . S
C489 C488 1.356 . S
H490 C484 0.930 . S
H491 C485 0.930 . S
C492 N493 1.314 . S
C492 C494 1.353 . S
C492 H498 0.930 . S
N493 Li443 1.990 . S
N493 C492 1.314 . S
N493 C496 1.279 . S
C494 C492 1.353 . S
C494 C497 1.348 . S
C494 H526 0.929 . S
C495 C496 1.358 . S
C495 C497 1.356 . S
C495 H527 0.930 . S
C496 N493 1.279 . S
C496 C495 1.358 . S
C496 H499 0.930 . S
C497 C494 1.348 . S
C497 C495 1.356 . S
H498 C492 0.930 . S
H499 C496 0.930 . S
O500 Li440 1.956 . S
O500 Li441 1.970 . S
O500 Li442 1.961 . S
O500 C444 1.325 . S
O501 Li440 1.970 . S
O501 Li441 1.956 . S
O501 Li443 1.961 . S
O501 C450 1.325 . S
O502 Li440 1.961 . S
O502 Li442 1.956 . S
O502 Li443 1.970 . S
O502 C472 1.325 . S
O503 Li441 1.961 . S
O503 Li442 1.970 . S
O503 Li443 1.956 . S
O503 C478 1.325 . S
H504 C446 0.929 . S
H505 C447 0.930 . S
H506 C448 0.930 . S
H507 C449 0.930 . S
H508 C451 0.930 . S
H509 C453 0.929 . S
H510 C454 0.930 . S
H511 C455 0.930 . S
H512 C458 0.930 . S
H513 C461 0.929 . S
H514 C466 0.929 . S
H515 C467 0.930 . S
H516 C474 0.929 . S
H517 C475 0.930 . S
H518 C476 0.930 . S
H519 C477 0.930 . S
H520 C479 0.929 . S
H521 C480 0.930 . S
H522 C481 0.930 . S
H523 C482 0.930 . S
H524 C486 0.929 . S
H525 C488 0.930 . S
H526 C494 0.929 . S
H527 C495 0.930 . S
Li528 N545 1.990 . S
Li528 O588 1.956 . S
Li528 O589 1.970 . S
Li528 O590 1.961 . S
Li529 N553 1.990 . S
Li529 O588 1.970 . S
Li529 O589 1.956 . S
Li529 O591 1.961 . S
Li530 N575 1.990 . S
Li530 O588 1.961 . S
Li530 O590 1.956 . S
Li530 O591 1.970 . S
Li531 N581 1.990 . S
Li531 O589 1.961 . S
Li531 O590 1.970 . S
Li531 O591 1.956 . S
C532 C534 1.348 . S
C532 C535 1.356 . S
C532 O588 1.325 . S
N533 C536 1.314 . S
N533 C537 1.279 . S
C534 C532 1.348 . S
C534 C536 1.353 . S
C534 H592 0.929 . S
C535 C532 1.356 . S
C535 C537 1.358 . S
C535 H593 0.930 . S
C536 N533 1.314 . S
C536 C534 1.353 . S
C536 H594 0.930 . S
C537 N533 1.279 . S
C537 C535 1.358 . S
C537 H595 0.930 . S
C538 C541 1.348 . S
C538 C542 1.356 . S
C538 O589 1.325 . S
C539 N540 1.279 . S
C539 C542 1.358 . S
C539 H596 0.930 . S
N540 C539 1.279 . S
N540 C543 1.314 . S
C541 C538 1.348 . S
C541 C543 1.353 . S
C541 H597 0.929 . S
C542 C538 1.356 . S
C542 C539 1.358 . S
C542 H598 0.930 . S
C543 N540 1.314 . S
C543 C541 1.353 . S
C543 H599 0.930 . S
C544 N545 1.314 . S
C544 C549 1.353 . S
C544 H550 0.930 . S
N545 Li528 1.990 . S
N545 C544 1.314 . S
N545 C547 1.279 . S
C546 C547 1.358 . S
C546 C548 1.356 . S
C546 H600 0.930 . S
C547 N545 1.279 . S
C547 C546 1.358 . S
C547 H551 0.930 . S
C548 C546 1.356 . S
C548 C549 1.348 . S
C549 C544 1.353 . S
C549 C548 1.348 . S
C549 H601 0.929 . S
H550 C544 0.930 . S
H551 C547 0.930 . S
C552 N553 1.314 . S
C552 C554 1.353 . S
C552 H558 0.930 . S
N553 Li529 1.990 . S
N553 C552 1.314 . S
N553 C556 1.279 . S
C554 C552 1.353 . S
C554 C557 1.348 . S
C554 H602 0.929 . S
C555 C556 1.358 . S
C555 C557 1.356 . S
C555 H603 0.930 . S
C556 N553 1.279 . S
C556 C555 1.358 . S
C556 H559 0.930 . S
C557 C554 1.348 . S
C557 C555 1.356 . S
H558 C552 0.930 . S
H559 C556 0.930 . S
C560 C562 1.348 . S
C560 C563 1.356 . S
C560 O590 1.325 . S
N561 C564 1.314 . S
N561 C565 1.279 . S
C562 C560 1.348 . S
C562 C564 1.353 . S
C562 H604 0.929 . S
C563 C560 1.356 . S
C563 C565 1.358 . S
C563 H605 0.930 . S
C564 N561 1.314 . S
C564 C562 1.353 . S
C564 H606 0.930 . S
C565 N561 1.279 . S
C565 C563 1.358 . S
C565 H607 0.930 . S
C566 C567 1.348 . S
C566 C568 1.356 . S
C566 O591 1.325 . S
C567 C566 1.348 . S
C567 C569 1.353 . S
C567 H608 0.929 . S
C568 C566 1.356 . S
C568 C570 1.358 . S
C568 H609 0.930 . S
C569 C567 1.353 . S
C569 N571 1.314 . S
C569 H610 0.930 . S
C570 C568 1.358 . S
C570 N571 1.279 . S
C570 H611 0.930 . S
N571 C569 1.314 . S
N571 C570 1.279 . S
C572 C574 1.353 . S
C572 N575 1.314 . S
C572 H578 0.930 . S
C573 N575 1.279 . S
C573 C576 1.358 . S
C573 H579 0.930 . S
C574 C572 1.353 . S
C574 C577 1.348 . S
C574 H612 0.929 . S
N575 Li530 1.990 . S
N575 C572 1.314 . S
N575 C573 1.279 . S
C576 C573 1.358 . S
C576 C577 1.356 . S
C576 H613 0.930 . S
C577 C574 1.348 . S
C577 C576 1.356 . S
H578 C572 0.930 . S
H579 C573 0.930 . S
C580 N581 1.314 . S
C580 C582 1.353 . S
C580 H586 0.930 . S
N581 Li531 1.990 . S
N581 C580 1.314 . S
N581 C584 1.279 . S
C582 C580 1.353 . S
C582 C585 1.348 . S
C582 H614 0.929 . S
C583 C584 1.358 . S
C583 C585 1.356 . S
C583 H615 0.930 . S
C584 N581 1.279 . S
C584 C583 1.358 . S
C584 H587 0.930 . S
C585 C582 1.348 . S
C585 C583 1.356 . S
H586 C580 0.930 . S
H587 C584 0.930 . S
O588 Li528 1.956 . S
O588 Li529 1.970 . S
O588 Li530 1.961 . S
O588 C532 1.325 . S
O589 Li528 1.970 . S
O589 Li529 1.956 . S
O589 Li531 1.961 . S
O589 C538 1.325 . S
O590 Li528 1.961 . S
O590 Li530 1.956 . S
O590 Li531 1.970 . S
O590 C560 1.325 . S
O591 Li529 1.961 . S
O591 Li530 1.970 . S
O591 Li531 1.956 . S
O591 C566 1.325 . S
H592 C534 0.929 . S
H593 C535 0.930 . S
H594 C536 0.930 . S
H595 C537 0.930 . S
H596 C539 0.930 . S
H597 C541 0.929 . S
H598 C542 0.930 . S
H599 C543 0.930 . S
H600 C546 0.930 . S
H601 C549 0.929 . S
H602 C554 0.929 . S
H603 C555 0.930 . S
H604 C562 0.929 . S
H605 C563 0.930 . S
H606 C564 0.930 . S
H607 C565 0.930 . S
H608 C567 0.929 . S
H609 C568 0.930 . S
H610 C569 0.930 . S
H611 C570 0.930 . S
H612 C574 0.929 . S
H613 C576 0.930 . S
H614 C582 0.929 . S
H615 C583 0.930 . S
Li616 N633 1.990 1_556 S
Li616 O676 1.937 1_455 S
Li616 O677 1.970 . S
Li616 O678 1.961 . S
Li617 N641 2.001 . S
Li617 O676 1.969 . S
Li617 O677 1.948 1_655 S
Li617 O679 1.951 1_655 S
Li618 N663 1.990 . S
Li618 O676 1.935 1_455 S
Li618 O678 1.956 . S
Li618 O679 1.970 . S
Li619 N669 1.990 . S
Li619 O677 1.961 . S
Li619 O678 1.970 . S
Li619 O679 1.956 . S
C620 C622 1.348 . S
C620 C623 1.356 1_556 S
C620 O676 1.350 . S
N621 C624 1.314 1_554 S
N621 C625 1.279 . S
C622 C620 1.348 . S
C622 C624 1.353 . S
C622 H680 0.929 . S
C623 C620 1.356 1_554 S
C623 C625 1.358 . S
C623 H681 0.930 . S
C624 N621 1.314 1_556 S
C624 C622 1.353 . S
C624 H682 0.930 . S
C625 N621 1.279 . S
C625 C623 1.358 . S
C625 H683 0.930 . S
C626 C629 1.348 . S
C626 C630 1.356 . S
C626 O677 1.325 . S
C627 N628 1.279 . S
C627 C630 1.358 . S
C627 H684 0.930 . S
N628 C627 1.279 . S
N628 C631 1.314 . S
C629 C626 1.348 . S
C629 C631 1.353 . S
C629 H685 0.929 . S
C630 C626 1.356 . S
C630 C627 1.358 . S
C630 H686 0.930 . S
C631 N628 1.314 . S
C631 C629 1.353 . S
C631 H687 0.930 . S
C632 N633 1.314 . S
C632 C637 1.353 . S
C632 H638 0.930 . S
N633 Li616 1.990 1_554 S
N633 C632 1.314 . S
N633 C635 1.279 . S
C634 C635 1.358 . S
C634 C636 1.356 . S
C634 H688 0.930 . S
C635 N633 1.279 . S
C635 C634 1.358 . S
C635 H639 0.930 . S
C636 C634 1.356 . S
C636 C637 1.348 . S
C637 C632 1.353 . S
C637 C636 1.348 . S
C637 H689 0.929 . S
H638 C632 0.930 . S
H639 C635 0.930 . S
C640 N641 1.314 . S
C640 C642 1.353 . S
C640 H646 0.930 . S
N641 Li617 2.001 . S
N641 C640 1.314 . S
N641 C644 1.279 . S
C642 C640 1.353 . S
C642 C645 1.348 . S
C642 H690 0.929 . S
C643 C644 1.358 . S
C643 C645 1.356 . S
C643 H691 0.930 . S
C644 N641 1.279 . S
C644 C643 1.358 . S
C644 H647 0.930 . S
C645 C642 1.348 . S
C645 C643 1.356 . S
H646 C640 0.930 . S
H647 C644 0.930 . S
C648 C650 1.348 . S
C648 C651 1.356 1_556 S
C648 O678 1.325 . S
N649 C652 1.314 . S
N649 C653 1.279 . S
C650 C648 1.348 . S
C650 C652 1.353 1_556 S
C650 H692 0.929 . S
C651 C648 1.356 1_554 S
C651 C653 1.358 . S
C651 H693 0.930 . S
C652 N649 1.314 . S
C652 C650 1.353 1_554 S
C652 H694 0.925 1_554 S
C653 N649 1.279 . S
C653 C651 1.358 . S
C653 H695 0.930 . S
C654 C655 1.348 . S
C654 C656 1.356 . S
C654 O679 1.325 . S
C655 C654 1.348 . S
C655 C657 1.353 . S
C655 H696 0.929 . S
C656 C654 1.356 . S
C656 C658 1.358 . S
C656 H697 0.930 . S
C657 C655 1.353 . S
C657 N659 1.314 . S
C657 H698 0.930 . S
C658 C656 1.358 . S
C658 N659 1.279 . S
C658 H699 0.930 . S
N659 C657 1.314 . S
N659 C658 1.279 . S
C660 C662 1.354 1_456 S
C660 N663 1.336 . S
C660 H666 0.904 1_455 S
C661 N663 1.279 1_554 S
C661 C664 1.358 . S
C661 H667 0.930 . S
C662 C660 1.354 1_654 S
C662 C665 1.348 1_655 S
C662 H700 0.929 . S
N663 Li618 1.990 . S
N663 C660 1.336 . S
N663 C661 1.279 1_556 S
C664 C661 1.358 . S
C664 C665 1.356 . S
C664 H701 0.930 . S
C665 C662 1.348 1_455 S
C665 C664 1.356 . S
H666 C660 0.904 1_655 S
H667 C661 0.930 . S
C668 N669 1.314 . S
C668 C670 1.353 . S
C668 H674 0.930 . S
N669 Li619 1.990 . S
N669 C668 1.314 . S
N669 C672 1.279 . S
C670 C668 1.353 . S
C670 C673 1.348 . S
C670 H702 0.929 . S
C671 C672 1.358 . S
C671 C673 1.356 . S
C671 H703 0.930 . S
C672 N669 1.279 . S
C672 C671 1.358 . S
C672 H675 0.930 . S
C673 C670 1.348 . S
C673 C671 1.356 . S
H674 C668 0.930 . S
H675 C672 0.930 . S
O676 Li616 1.937 1_655 S
O676 Li617 1.969 . S
O676 Li618 1.935 1_655 S
O676 C620 1.350 . S
O677 Li616 1.970 . S
O677 Li617 1.948 1_455 S
O677 Li619 1.961 . S
O677 C626 1.325 . S
O678 Li616 1.961 . S
O678 Li618 1.956 . S
O678 Li619 1.970 . S
O678 C648 1.325 . S
O679 Li617 1.951 1_455 S
O679 Li618 1.970 . S
O679 Li619 1.956 . S
O679 C654 1.325 . S
H680 C622 0.929 . S
H681 C623 0.930 . S
H682 C624 0.930 . S
H683 C625 0.930 . S
H684 C627 0.930 . S
H685 C629 0.929 . S
H686 C630 0.930 . S
H687 C631 0.930 . S
H688 C634 0.930 . S
H689 C637 0.929 . S
H690 C642 0.929 . S
H691 C643 0.930 . S
H692 C650 0.929 . S
H693 C651 0.930 . S
H694 C652 0.925 1_556 S
H695 C653 0.930 . S
H696 C655 0.929 . S
H697 C656 0.930 . S
H698 C657 0.930 . S
H699 C658 0.930 . S
H700 C662 0.929 . S
H701 C664 0.930 . S
H702 C670 0.929 . S
H703 C671 0.930 . S
Li704 N721 1.990 . S
Li704 O764 1.956 1_545 S
Li704 O765 1.970 . S
Li704 O766 1.961 . S
Li705 N729 1.990 . S
Li705 O764 1.970 . S
Li705 O765 1.956 1_565 S
Li705 O767 1.961 . S
Li706 N751 1.990 . S
Li706 O764 1.961 1_545 S
Li706 O766 1.956 . S
Li706 O767 1.970 1_545 S
Li707 N757 1.990 . S
Li707 O765 1.961 . S
Li707 O766 1.970 . S
Li707 O767 1.956 1_545 S
C708 C710 1.348 . S
C708 C711 1.356 . S
C708 O764 1.325 . S
N709 C712 1.314 . S
N709 C713 1.279 . S
C710 C708 1.348 . S
C710 C712 1.353 . S
C710 H768 0.929 . S
C711 C708 1.356 . S
C711 C713 1.358 . S
C711 H769 0.930 . S
C712 N709 1.314 . S
C712 C710 1.353 . S
C712 H770 0.930 . S
C713 N709 1.279 . S
C713 C711 1.358 . S
C713 H771 0.930 . S
C714 C717 1.348 1_545 S
C714 C718 1.356 . S
C714 O765 1.325 . S
C715 N716 1.276 1_545 S
C715 C718 1.358 . S
C715 H772 0.930 . S
N716 C715 1.276 1_565 S
N716 C719 1.317 . S
C717 C714 1.348 1_565 S
C717 C719 1.353 . S
C717 H773 0.929 . S
C718 C714 1.356 . S
C718 C715 1.358 . S
C718 H774 0.930 . S
C719 N716 1.317 . S
C719 C717 1.353 . S
C719 H775 0.930 . S
C720 N721 1.314 . S
C720 C725 1.353 . S
C720 H726 0.930 . S
N721 Li704 1.990 . S
N721 C720 1.314 . S
N721 C723 1.279 1_545 S
C722 C723 1.358 1_545 S
C722 C724 1.356 . S
C722 H776 0.930 1_545 S
C723 N721 1.279 1_565 S
C723 C722 1.358 1_565 S
C723 H727 0.930 . S
C724 C722 1.356 . S
C724 C725 1.348 . S
C725 C720 1.353 . S
C725 C724 1.348 . S
C725 H777 0.929 . S
H726 C720 0.930 . S
H727 C723 0.930 . S
C728 N729 1.314 . S
C728 C730 1.353 . S
C728 H734 0.930 . S
N729 Li705 1.990 . S
N729 C728 1.314 . S
N729 C732 1.279 . S
C730 C728 1.353 . S
C730 C733 1.348 . S
C730 H778 0.929 . S
C731 C732 1.358 . S
C731 C733 1.356 . S
C731 H779 0.930 . S
C732 N729 1.279 . S
C732 C731 1.358 . S
C732 H735 0.930 . S
C733 C730 1.348 . S
C733 C731 1.356 . S
H734 C728 0.930 . S
H735 C732 0.930 . S
C736 C738 1.348 . S
C736 C739 1.356 . S
C736 O766 1.325 . S
N737 C740 1.314 . S
N737 C741 1.279 . S
C738 C736 1.348 . S
C738 C740 1.353 . S
C738 H780 0.929 . S
C739 C736 1.356 . S
C739 C741 1.358 . S
C739 H781 0.930 . S
C740 N737 1.314 . S
C740 C738 1.353 . S
C740 H782 0.930 . S
C741 N737 1.279 . S
C741 C739 1.358 . S
C741 H783 0.930 . S
C742 C743 1.348 . S
C742 C744 1.356 . S
C742 O767 1.325 . S
C743 C742 1.348 . S
C743 C745 1.353 . S
C743 H784 0.929 1_565 S
C744 C742 1.356 . S
C744 C746 1.358 . S
C744 H785 0.930 . S
C745 C743 1.353 . S
C745 N747 1.314 . S
C745 H786 0.930 . S
C746 C744 1.358 . S
C746 N747 1.279 . S
C746 H787 0.930 . S
N747 C745 1.314 . S
N747 C746 1.279 . S
C748 C750 1.353 . S
C748 N751 1.314 1_565 S
C748 H754 0.930 . S
C749 N751 1.279 . S
C749 C752 1.358 . S
C749 H755 0.930 . S
C750 C748 1.353 . S
C750 C753 1.350 . S
C750 H788 0.929 . S
N751 Li706 1.990 . S
N751 C748 1.314 1_545 S
N751 C749 1.279 . S
C752 C749 1.358 . S
C752 C753 1.354 1_545 S
C752 H789 0.930 . S
C753 C750 1.350 . S
C753 C752 1.354 1_565 S
H754 C748 0.930 . S
H755 C749 0.930 . S
C756 N757 1.314 . S
C756 C758 1.353 . S
C756 H762 0.930 . S
N757 Li707 1.990 . S
N757 C756 1.314 . S
N757 C760 1.279 . S
C758 C756 1.353 . S
C758 C761 1.348 . S
C758 H790 0.929 . S
C759 C760 1.358 . S
C759 C761 1.356 . S
C759 H791 0.930 . S
C760 N757 1.279 . S
C760 C759 1.358 . S
C760 H763 0.930 . S
C761 C758 1.348 . S
C761 C759 1.356 . S
H762 C756 0.930 . S
H763 C760 0.930 . S
O764 Li704 1.956 1_565 S
O764 Li705 1.970 . S
O764 Li706 1.961 1_565 S
O764 C708 1.325 . S
O765 Li704 1.970 . S
O765 Li705 1.956 1_545 S
O765 Li707 1.961 . S
O765 C714 1.325 . S
O766 Li704 1.961 . S
O766 Li706 1.956 . S
O766 Li707 1.970 . S
O766 C736 1.325 . S
O767 Li705 1.961 . S
O767 Li706 1.970 1_565 S
O767 Li707 1.956 1_565 S
O767 C742 1.325 . S
H768 C710 0.929 . S
H769 C711 0.930 . S
H770 C712 0.930 . S
H771 C713 0.930 . S
H772 C715 0.930 . S
H773 C717 0.929 . S
H774 C718 0.930 . S
H775 C719 0.930 . S
H776 C722 0.930 1_565 S
H777 C725 0.929 . S
H778 C730 0.929 . S
H779 C731 0.930 . S
H780 C738 0.929 . S
H781 C739 0.930 . S
H782 C740 0.930 . S
H783 C741 0.930 . S
H784 C743 0.929 1_545 S
H785 C744 0.930 . S
H786 C745 0.930 . S
H787 C746 0.930 . S
H788 C750 0.929 . S
H789 C752 0.930 . S
H790 C758 0.929 . S
H791 C759 0.930 . S
Li792 N809 1.990 . S
Li792 O852 1.956 . S
Li792 O853 1.970 . S
Li792 O854 1.961 . S
Li793 N817 1.990 . S
Li793 O852 1.970 . S
Li793 O853 1.956 . S
Li793 O855 1.961 . S
Li794 N839 1.990 . S
Li794 O852 1.961 . S
Li794 O854 1.956 . S
Li794 O855 1.970 . S
Li795 N845 1.990 . S
Li795 O853 1.961 . S
Li795 O854 1.970 . S
Li795 O855 1.956 . S
C796 C798 1.348 . S
C796 C799 1.356 . S
C796 O852 1.325 . S
N797 C800 1.314 . S
N797 C801 1.279 . S
C798 C796 1.348 . S
C798 C800 1.353 . S
C798 H856 0.929 . S
C799 C796 1.356 . S
C799 C801 1.358 . S
C799 H857 0.930 . S
C800 N797 1.314 . S
C800 C798 1.353 . S
C800 H858 0.930 . S
C801 N797 1.279 . S
C801 C799 1.358 . S
C801 H859 0.930 . S
C802 C805 1.348 . S
C802 C806 1.356 . S
C802 O853 1.325 . S
C803 N804 1.279 . S
C803 C806 1.358 . S
C803 H860 0.930 . S
N804 C803 1.279 . S
N804 C807 1.314 . S
C805 C802 1.348 . S
C805 C807 1.353 . S
C805 H861 0.929 . S
C806 C802 1.356 . S
C806 C803 1.358 . S
C806 H862 0.930 . S
C807 N804 1.314 . S
C807 C805 1.353 . S
C807 H863 0.930 . S
C808 N809 1.314 . S
C808 C813 1.353 . S
C808 H814 0.930 . S
N809 Li792 1.990 . S
N809 C808 1.314 . S
N809 C811 1.279 . S
C810 C811 1.358 . S
C810 C812 1.356 . S
C810 H864 0.930 . S
C811 N809 1.279 . S
C811 C810 1.358 . S
C811 H815 0.930 . S
C812 C810 1.356 . S
C812 C813 1.348 . S
C813 C808 1.353 . S
C813 C812 1.348 . S
C813 H865 0.929 . S
H814 C808 0.930 . S
H815 C811 0.930 . S
C816 N817 1.314 . S
C816 C818 1.353 . S
C816 H822 0.930 . S
N817 Li793 1.990 . S
N817 C816 1.314 . S
N817 C820 1.279 . S
C818 C816 1.353 . S
C818 C821 1.348 . S
C818 H866 0.929 . S
C819 C820 1.358 . S
C819 C821 1.356 . S
C819 H867 0.930 . S
C820 N817 1.279 . S
C820 C819 1.358 . S
C820 H823 0.930 . S
C821 C818 1.348 . S
C821 C819 1.356 . S
H822 C816 0.930 . S
H823 C820 0.930 . S
C824 C826 1.348 . S
C824 C827 1.356 . S
C824 O854 1.325 . S
N825 C828 1.314 . S
N825 C829 1.279 . S
C826 C824 1.348 . S
C826 C828 1.353 . S
C826 H868 0.929 . S
C827 C824 1.356 . S
C827 C829 1.358 . S
C827 H869 0.930 . S
C828 N825 1.314 . S
C828 C826 1.353 . S
C828 H870 0.930 . S
C829 N825 1.279 . S
C829 C827 1.358 . S
C829 H871 0.930 . S
C830 C831 1.348 . S
C830 C832 1.356 . S
C830 O855 1.325 . S
C831 C830 1.348 . S
C831 C833 1.353 . S
C831 H872 0.929 . S
C832 C830 1.356 . S
C832 C834 1.358 . S
C832 H873 0.930 . S
C833 C831 1.353 . S
C833 N835 1.314 . S
C833 H874 0.930 . S
C834 C832 1.358 . S
C834 N835 1.279 . S
C834 H875 0.930 . S
N835 C833 1.314 . S
N835 C834 1.279 . S
C836 C838 1.353 . S
C836 N839 1.314 . S
C836 H842 0.930 . S
C837 N839 1.279 . S
C837 C840 1.358 . S
C837 H843 0.930 . S
C838 C836 1.353 . S
C838 C841 1.348 . S
C838 H876 0.929 . S
N839 Li794 1.990 . S
N839 C836 1.314 . S
N839 C837 1.279 . S
C840 C837 1.358 . S
C840 C841 1.356 . S
C840 H877 0.930 . S
C841 C838 1.348 . S
C841 C840 1.356 . S
H842 C836 0.930 . S
H843 C837 0.930 . S
C844 N845 1.314 . S
C844 C846 1.353 . S
C844 H850 0.930 . S
N845 Li795 1.990 . S
N845 C844 1.314 . S
N845 C848 1.279 . S
C846 C844 1.353 . S
C846 C849 1.348 . S
C846 H878 0.929 . S
C847 C848 1.358 . S
C847 C849 1.356 . S
C847 H879 0.930 . S
C848 N845 1.279 . S
C848 C847 1.358 . S
C848 H851 0.930 . S
C849 C846 1.348 . S
C849 C847 1.356 . S
H850 C844 0.930 . S
H851 C848 0.930 . S
O852 Li792 1.956 . S
O852 Li793 1.970 . S
O852 Li794 1.961 . S
O852 C796 1.325 . S
O853 Li792 1.970 . S
O853 Li793 1.956 . S
O853 Li795 1.961 . S
O853 C802 1.325 . S
O854 Li792 1.961 . S
O854 Li794 1.956 . S
O854 Li795 1.970 . S
O854 C824 1.325 . S
O855 Li793 1.961 . S
O855 Li794 1.970 . S
O855 Li795 1.956 . S
O855 C830 1.325 . S
H856 C798 0.929 . S
H857 C799 0.930 . S
H858 C800 0.930 . S
H859 C801 0.930 . S
H860 C803 0.930 . S
H861 C805 0.929 . S
H862 C806 0.930 . S
H863 C807 0.930 . S
H864 C810 0.930 . S
H865 C813 0.929 . S
H866 C818 0.929 . S
H867 C819 0.930 . S
H868 C826 0.929 . S
H869 C827 0.930 . S
H870 C828 0.930 . S
H871 C829 0.930 . S
H872 C831 0.929 . S
H873 C832 0.930 . S
H874 C833 0.930 . S
H875 C834 0.930 . S
H876 C838 0.929 . S
H877 C840 0.930 . S
H878 C846 0.929 . S
H879 C847 0.930 . S
Li880 N897 1.990 . S
Li880 O940 1.956 . S
Li880 O941 1.970 . S
Li880 O942 1.961 . S
Li881 N905 1.990 . S
Li881 O940 1.970 . S
Li881 O941 1.956 . S
Li881 O943 1.961 1_545 S
Li882 N927 1.990 . S
Li882 O940 1.961 1_565 S
Li882 O942 1.956 1_565 S
Li882 O943 1.970 . S
Li883 N933 1.990 . S
Li883 O941 1.961 1_565 S
Li883 O942 1.970 1_565 S
Li883 O943 1.956 . S
C884 C886 1.348 . S
C884 C887 1.356 . S
C884 O940 1.325 . S
N885 C888 1.314 . S
N885 C889 1.279 . S
C886 C884 1.348 . S
C886 C888 1.353 . S
C886 H944 0.929 . S
C887 C884 1.356 . S
C887 C889 1.358 . S
C887 H945 0.930 . S
C888 N885 1.314 . S
C888 C886 1.353 . S
C888 H946 0.930 . S
C889 N885 1.279 . S
C889 C887 1.358 . S
C889 H947 0.930 . S
C890 C893 1.348 . S
C890 C894 1.356 . S
C890 O941 1.325 . S
C891 N892 1.279 . S
C891 C894 1.358 . S
C891 H948 0.930 . S
N892 C891 1.279 . S
N892 C895 1.314 . S
C893 C890 1.348 . S
C893 C895 1.353 . S
C893 H949 0.929 . S
C894 C890 1.356 . S
C894 C891 1.358 . S
C894 H950 0.930 . S
C895 N892 1.314 . S
C895 C893 1.353 . S
C895 H951 0.930 . S
C896 N897 1.314 . S
C896 C901 1.353 . S
C896 H902 0.930 . S
N897 Li880 1.990 . S
N897 C896 1.314 . S
N897 C899 1.279 . S
C898 C899 1.358 . S
C898 C900 1.356 . S
C898 H952 0.930 . S
C899 N897 1.279 . S
C899 C898 1.358 . S
C899 H903 0.930 . S
C900 C898 1.356 . S
C900 C901 1.348 . S
C901 C896 1.353 . S
C901 C900 1.348 . S
C901 H953 0.929 . S
H902 C896 0.930 . S
H903 C899 0.930 . S
C904 N905 1.314 1_565 S
C904 C906 1.353 . S
C904 H910 0.930 . S
N905 Li881 1.990 . S
N905 C904 1.314 1_545 S
N905 C908 1.279 . S
C906 C904 1.353 . S
C906 C909 1.348 1_565 S
C906 H954 0.929 . S
C907 C908 1.358 . S
C907 C909 1.356 . S
C907 H955 0.930 . S
C908 N905 1.279 . S
C908 C907 1.358 . S
C908 H911 0.930 . S
C909 C906 1.348 1_545 S
C909 C907 1.356 . S
H910 C904 0.930 . S
H911 C908 0.930 . S
C912 C914 1.347 1_545 S
C912 C915 1.356 . S
C912 O942 1.325 . S
N913 C916 1.314 . S
N913 C917 1.279 1_565 S
C914 C912 1.347 1_565 S
C914 C916 1.353 . S
C914 H956 0.929 . S
C915 C912 1.356 . S
C915 C917 1.358 . S
C915 H957 0.930 . S
C916 N913 1.314 . S
C916 C914 1.353 . S
C916 H958 0.930 . S
C917 N913 1.279 1_545 S
C917 C915 1.358 . S
C917 H959 0.930 . S
C918 C919 1.348 . S
C918 C920 1.356 . S
C918 O943 1.325 . S
C919 C918 1.348 . S
C919 C921 1.353 . S
C919 H960 0.929 . S
C920 C918 1.356 . S
C920 C922 1.358 . S
C920 H961 0.930 . S
C921 C919 1.353 . S
C921 N923 1.314 . S
C921 H962 0.930 . S
C922 C920 1.358 . S
C922 N923 1.279 . S
C922 H963 0.930 . S
N923 C921 1.314 . S
N923 C922 1.279 . S
C924 C926 1.353 . S
C924 N927 1.314 . S
C924 H930 0.930 . S
C925 N927 1.279 . S
C925 C928 1.358 . S
C925 H931 0.930 . S
C926 C924 1.353 . S
C926 C929 1.348 . S
C926 H964 0.929 . S
N927 Li882 1.990 . S
N927 C924 1.314 . S
N927 C925 1.279 . S
C928 C925 1.358 . S
C928 C929 1.356 . S
C928 H965 0.930 . S
C929 C926 1.348 . S
C929 C928 1.356 . S
H930 C924 0.930 . S
H931 C925 0.930 . S
C932 N933 1.314 1_545 S
C932 C934 1.351 . S
C932 H938 0.930 . S
N933 Li883 1.990 . S
N933 C932 1.314 1_565 S
N933 C936 1.279 . S
C934 C932 1.351 . S
C934 C937 1.342 1_545 S
C934 H966 0.937 . S
C935 C936 1.358 . S
C935 C937 1.356 . S
C935 H967 0.930 . S
C936 N933 1.279 . S
C936 C935 1.358 . S
C936 H939 0.930 . S
C937 C934 1.342 1_565 S
C937 C935 1.356 . S
H938 C932 0.930 . S
H939 C936 0.930 . S
O940 Li880 1.956 . S
O940 Li881 1.970 . S
O940 Li882 1.961 1_545 S
O940 C884 1.325 . S
O941 Li880 1.970 . S
O941 Li881 1.956 . S
O941 Li883 1.961 1_545 S
O941 C890 1.325 . S
O942 Li880 1.961 . S
O942 Li882 1.956 1_545 S
O942 Li883 1.970 1_545 S
O942 C912 1.325 . S
O943 Li881 1.961 1_565 S
O943 Li882 1.970 . S
O943 Li883 1.956 . S
O943 C918 1.325 . S
H944 C886 0.929 . S
H945 C887 0.930 . S
H946 C888 0.930 . S
H947 C889 0.930 . S
H948 C891 0.930 . S
H949 C893 0.929 . S
H950 C894 0.930 . S
H951 C895 0.930 . S
H952 C898 0.930 . S
H953 C901 0.929 . S
H954 C906 0.929 . S
H955 C907 0.930 . S
H956 C914 0.929 . S
H957 C915 0.930 . S
H958 C916 0.930 . S
H959 C917 0.930 . S
H960 C919 0.929 . S
H961 C920 0.930 . S
H962 C921 0.930 . S
H963 C922 0.930 . S
H964 C926 0.929 . S
H965 C928 0.930 . S
H966 C934 0.937 . S
H967 C935 0.930 . S
Li968 N985 1.990 . S
Li968 O1028 1.956 . S
Li968 O1029 1.970 1_554 S
Li968 O1030 1.961 1_554 S
Li969 N993 1.990 . S
Li969 O1028 1.970 . S
Li969 O1029 1.956 1_554 S
Li969 O1031 1.961 1_554 S
Li970 N1015 1.990 1_565 S
Li970 O1028 1.961 . S
Li970 O1030 1.956 1_554 S
Li970 O1031 1.970 1_554 S
Li971 N1021 1.990 . S
Li971 O1029 1.961 . S
Li971 O1030 1.970 . S
Li971 O1031 1.956 . S
C972 C974 1.348 . S
C972 C975 1.356 1_565 S
C972 O1028 1.325 . S
N973 C976 1.314 . S
N973 C977 1.279 . S
C974 C972 1.348 . S
C974 C976 1.353 1_565 S
C974 H1032 0.929 . S
C975 C972 1.356 1_545 S
C975 C977 1.358 . S
C975 H1033 0.930 . S
C976 N973 1.314 . S
C976 C974 1.353 1_545 S
C976 H1034 0.930 . S
C977 N973 1.279 . S
C977 C975 1.358 . S
C977 H1035 0.930 . S
C978 C981 1.348 . S
C978 C982 1.356 . S
C978 O1029 1.325 . S
C979 N980 1.279 . S
C979 C982 1.358 . S
C979 H1036 0.930 . S
N980 C979 1.279 . S
N980 C983 1.314 . S
C981 C978 1.348 . S
C981 C983 1.353 . S
C981 H1037 0.929 1_556 S
C982 C978 1.356 . S
C982 C979 1.358 . S
C982 H1038 0.930 . S
C983 N980 1.314 . S
C983 C981 1.353 . S
C983 H1039 0.929 . S
C984 N985 1.314 1_556 S
C984 C989 1.353 1_565 S
C984 H990 0.930 . S
N985 Li968 1.990 . S
N985 C984 1.314 1_554 S
N985 C987 1.279 1_565 S
C986 C987 1.358 . S
C986 C988 1.356 . S
C986 H1040 0.930 . S
C987 N985 1.279 1_545 S
C987 C986 1.358 . S
C987 H991 0.930 . S
C988 C986 1.356 . S
C988 C989 1.348 1_554 S
C989 C984 1.353 1_545 S
C989 C988 1.348 1_556 S
C989 H1041 0.929 . S
H990 C984 0.930 . S
H991 C987 0.930 . S
C992 N993 1.314 . S
C992 C994 1.353 . S
C992 H998 0.930 . S
N993 Li969 1.990 . S
N993 C992 1.314 . S
N993 C996 1.279 . S
C994 C992 1.353 . S
C994 C997 1.348 . S
C994 H1042 0.929 . S
C995 C996 1.358 . S
C995 C997 1.356 . S
C995 H1043 0.930 . S
C996 N993 1.279 . S
C996 C995 1.358 . S
C996 H999 0.930 . S
C997 C994 1.348 . S
C997 C995 1.356 . S
H998 C992 0.930 . S
H999 C996 0.930 . S
C1000 C1002 1.348 . S
C1000 C1003 1.356 1_565 S
C1000 O1030 1.325 . S
N1001 C1004 1.314 1_545 S
N1001 C1005 1.279 . S
C1002 C1000 1.348 . S
C1002 C1004 1.353 . S
C1002 H1044 0.929 . S
C1003 C1000 1.356 1_545 S
C1003 C1005 1.358 . S
C1003 H1045 0.930 . S
C1004 N1001 1.314 1_565 S
C1004 C1002 1.353 . S
C1004 H1046 0.930 . S
C1005 N1001 1.279 . S
C1005 C1003 1.358 . S
C1005 H1047 0.930 . S
C1006 C1007 1.348 . S
C1006 C1008 1.356 . S
C1006 O1031 1.325 . S
C1007 C1006 1.348 . S
C1007 C1009 1.353 . S
C1007 H1048 0.929 . S
C1008 C1006 1.356 . S
C1008 C1010 1.358 . S
C1008 H1049 0.930 . S
C1009 C1007 1.353 . S
C1009 N1011 1.314 . S
C1009 H1050 0.930 . S
C1010 C1008 1.358 . S
C1010 N1011 1.279 . S
C1010 H1051 0.930 . S
N1011 C1009 1.314 . S
N1011 C1010 1.279 . S
C1012 C1014 1.353 . S
C1012 N1015 1.314 . S
C1012 H1018 0.930 . S
C1013 N1015 1.279 1_556 S
C1013 C1016 1.358 . S
C1013 H1019 0.930 . S
C1014 C1012 1.353 . S
C1014 C1017 1.348 . S
C1014 H1052 0.929 . S
N1015 Li970 1.990 1_545 S
N1015 C1012 1.314 . S
N1015 C1013 1.279 1_554 S
C1016 C1013 1.358 . S
C1016 C1017 1.356 1_556 S
C1016 H1053 0.930 . S
C1017 C1014 1.348 . S
C1017 C1016 1.356 1_554 S
H1018 C1012 0.930 . S
H1019 C1013 0.930 . S
C1020 N1021 1.314 . S
C1020 C1022 1.353 . S
C1020 H1026 0.930 . S
N1021 Li971 1.990 . S
N1021 C1020 1.314 . S
N1021 C1024 1.279 . S
C1022 C1020 1.353 . S
C1022 C1025 1.348 . S
C1022 H1054 0.929 . S
C1023 C1024 1.358 . S
C1023 C1025 1.356 . S
C1023 H1055 0.930 . S
C1024 N1021 1.279 . S
C1024 C1023 1.358 . S
C1024 H1027 0.930 . S
C1025 C1022 1.348 . S
C1025 C1023 1.356 . S
H1026 C1020 0.930 . S
H1027 C1024 0.930 . S
O1028 Li968 1.956 . S
O1028 Li969 1.970 . S
O1028 Li970 1.961 . S
O1028 C972 1.325 . S
O1029 Li968 1.970 1_556 S
O1029 Li969 1.956 1_556 S
O1029 Li971 1.961 . S
O1029 C978 1.325 . S
O1030 Li968 1.961 1_556 S
O1030 Li970 1.956 1_556 S
O1030 Li971 1.970 . S
O1030 C1000 1.325 . S
O1031 Li969 1.961 1_556 S
O1031 Li970 1.970 1_556 S
O1031 Li971 1.956 . S
O1031 C1006 1.325 . S
H1032 C974 0.929 . S
H1033 C975 0.930 . S
H1034 C976 0.930 . S
H1035 C977 0.930 . S
H1036 C979 0.930 . S
H1037 C981 0.929 1_554 S
H1038 C982 0.930 . S
H1039 C983 0.929 . S
H1040 C986 0.930 . S
H1041 C989 0.929 . S
H1042 C994 0.929 . S
H1043 C995 0.930 . S
H1044 C1002 0.929 . S
H1045 C1003 0.930 . S
H1046 C1004 0.930 . S
H1047 C1005 0.930 . S
H1048 C1007 0.929 . S
H1049 C1008 0.930 . S
H1050 C1009 0.930 . S
H1051 C1010 0.930 . S
H1052 C1014 0.929 . S
H1053 C1016 0.930 . S
H1054 C1022 0.929 . S
H1055 C1023 0.930 . S
Li1056 N1073 1.990 . S
Li1056 O1116 1.956 . S
Li1056 O1117 1.970 . S
Li1056 O1118 1.961 . S
Li1057 N1081 1.990 . S
Li1057 O1116 1.970 . S
Li1057 O1117 1.956 . S
Li1057 O1119 1.961 . S
Li1058 N1103 1.990 . S
Li1058 O1116 1.961 . S
Li1058 O1118 1.956 . S
Li1058 O1119 1.970 . S
Li1059 N1109 1.969 1_554 S
Li1059 O1117 1.980 . S
Li1059 O1118 1.966 . S
Li1059 O1119 1.975 . S
C1060 C1062 1.348 . S
C1060 C1063 1.356 . S
C1060 O1116 1.325 . S
N1061 C1064 1.314 . S
N1061 C1065 1.279 . S
C1062 C1060 1.348 . S
C1062 C1064 1.353 . S
C1062 H1120 0.929 . S
C1063 C1060 1.356 . S
C1063 C1065 1.358 . S
C1063 H1121 0.930 . S
C1064 N1061 1.314 . S
C1064 C1062 1.353 . S
C1064 H1122 0.930 . S
C1065 N1061 1.279 . S
C1065 C1063 1.358 . S
C1065 H1123 0.930 . S
C1066 C1069 1.348 . S
C1066 C1070 1.356 . S
C1066 O1117 1.325 . S
C1067 N1068 1.279 . S
C1067 C1070 1.358 . S
C1067 H1124 0.930 . S
N1068 C1067 1.279 . S
N1068 C1071 1.314 . S
C1069 C1066 1.348 . S
C1069 C1071 1.353 . S
C1069 H1125 0.929 . S
C1070 C1066 1.356 . S
C1070 C1067 1.358 . S
C1070 H1126 0.930 . S
C1071 N1068 1.314 . S
C1071 C1069 1.353 . S
C1071 H1127 0.930 . S
C1072 N1073 1.314 . S
C1072 C1077 1.353 . S
C1072 H1078 0.930 1_554 S
N1073 Li1056 1.990 . S
N1073 C1072 1.314 . S
N1073 C1075 1.279 . S
C1074 C1075 1.358 . S
C1074 C1076 1.356 . S
C1074 H1128 0.930 . S
C1075 N1073 1.279 . S
C1075 C1074 1.358 . S
C1075 H1079 0.930 . S
C1076 C1074 1.356 . S
C1076 C1077 1.348 . S
C1077 C1072 1.353 . S
C1077 C1076 1.348 . S
C1077 H1129 0.929 1_554 S
H1078 C1072 0.930 1_556 S
H1079 C1075 0.930 . S
C1080 N1081 1.314 . S
C1080 C1082 1.353 . S
C1080 H1086 0.930 . S
N1081 Li1057 1.990 . S
N1081 C1080 1.314 . S
N1081 C1084 1.279 . S
C1082 C1080 1.353 . S
C1082 C1085 1.348 . S
C1082 H1130 0.929 . S
C1083 C1084 1.358 . S
C1083 C1085 1.356 . S
C1083 H1131 0.930 . S
C1084 N1081 1.279 . S
C1084 C1083 1.358 . S
C1084 H1087 0.930 . S
C1085 C1082 1.348 . S
C1085 C1083 1.356 . S
H1086 C1080 0.930 . S
H1087 C1084 0.930 . S
C1088 C1090 1.348 . S
C1088 C1091 1.356 . S
C1088 O1118 1.325 1_556 S
N1089 C1092 1.314 . S
N1089 C1093 1.279 . S
C1090 C1088 1.348 . S
C1090 C1092 1.353 . S
C1090 H1132 0.929 . S
C1091 C1088 1.356 . S
C1091 C1093 1.358 . S
C1091 H1133 0.930 1_556 S
C1092 N1089 1.314 . S
C1092 C1090 1.353 . S
C1092 H1134 0.930 . S
C1093 N1089 1.279 . S
C1093 C1091 1.358 . S
C1093 H1135 0.930 . S
C1094 C1095 1.348 . S
C1094 C1096 1.356 . S
C1094 O1119 1.325 . S
C1095 C1094 1.348 . S
C1095 C1097 1.353 . S
C1095 H1136 0.929 . S
C1096 C1094 1.356 . S
C1096 C1098 1.358 . S
C1096 H1137 0.930 . S
C1097 C1095 1.353 . S
C1097 N1099 1.314 . S
C1097 H1138 0.930 . S
C1098 C1096 1.358 . S
C1098 N1099 1.279 . S
C1098 H1139 0.930 . S
N1099 C1097 1.314 . S
N1099 C1098 1.279 . S
C1100 C1102 1.353 . S
C1100 N1103 1.314 . S
C1100 H1106 0.930 . S
C1101 N1103 1.279 . S
C1101 C1104 1.358 . S
C1101 H1107 0.930 . S
C1102 C1100 1.353 . S
C1102 C1105 1.348 . S
C1102 H1140 0.929 . S
N1103 Li1058 1.990 . S
N1103 C1100 1.314 . S
N1103 C1101 1.279 . S
C1104 C1101 1.358 . S
C1104 C1105 1.356 . S
C1104 H1141 0.930 . S
C1105 C1102 1.348 . S
C1105 C1104 1.356 . S
H1106 C1100 0.930 . S
H1107 C1101 0.930 . S
C1108 N1109 1.314 . S
C1108 C1110 1.353 . S
C1108 H1114 0.930 . S
N1109 Li1059 1.969 1_556 S
N1109 C1108 1.314 . S
N1109 C1112 1.279 . S
C1110 C1108 1.353 . S
C1110 C1113 1.348 . S
C1110 H1142 0.929 . S
C1111 C1112 1.358 . S
C1111 C1113 1.356 . S
C1111 H1143 0.930 . S
C1112 N1109 1.279 . S
C1112 C1111 1.358 . S
C1112 H1115 0.930 . S
C1113 C1110 1.348 . S
C1113 C1111 1.356 . S
H1114 C1108 0.930 . S
H1115 C1112 0.930 . S
O1116 Li1056 1.956 . S
O1116 Li1057 1.970 . S
O1116 Li1058 1.961 . S
O1116 C1060 1.325 . S
O1117 Li1056 1.970 . S
O1117 Li1057 1.956 . S
O1117 Li1059 1.980 . S
O1117 C1066 1.325 . S
O1118 Li1056 1.961 . S
O1118 Li1058 1.956 . S
O1118 Li1059 1.966 . S
O1118 C1088 1.325 1_554 S
O1119 Li1057 1.961 . S
O1119 Li1058 1.970 . S
O1119 Li1059 1.975 . S
O1119 C1094 1.325 . S
H1120 C1062 0.929 . S
H1121 C1063 0.930 . S
H1122 C1064 0.930 . S
H1123 C1065 0.930 . S
H1124 C1067 0.930 . S
H1125 C1069 0.929 . S
H1126 C1070 0.930 . S
H1127 C1071 0.930 . S
H1128 C1074 0.930 . S
H1129 C1077 0.929 1_556 S
H1130 C1082 0.929 . S
H1131 C1083 0.930 . S
H1132 C1090 0.929 . S
H1133 C1091 0.930 1_554 S
H1134 C1092 0.930 . S
H1135 C1093 0.930 . S
H1136 C1095 0.929 . S
H1137 C1096 0.930 . S
H1138 C1097 0.930 . S
H1139 C1098 0.930 . S
H1140 C1102 0.929 . S
H1141 C1104 0.930 . S
H1142 C1110 0.929 . S
H1143 C1111 0.930 . S
Li1144 N1161 1.990 . S
Li1144 O1204 1.956 . S
Li1144 O1205 1.970 . S
Li1144 O1206 1.961 . S
Li1145 N1169 1.990 . S
Li1145 O1204 1.970 . S
Li1145 O1205 1.956 . S
Li1145 O1207 1.961 1_554 S
Li1146 N1191 1.990 1_554 S
Li1146 O1204 1.961 . S
Li1146 O1206 1.956 . S
Li1146 O1207 1.970 1_554 S
Li1147 N1197 1.990 . S
Li1147 O1205 1.961 . S
Li1147 O1206 1.970 . S
Li1147 O1207 1.956 1_554 S
C1148 C1150 1.348 . S
C1148 C1151 1.356 . S
C1148 O1204 1.325 . S
N1149 C1152 1.314 . S
N1149 C1153 1.279 . S
C1150 C1148 1.348 . S
C1150 C1152 1.353 . S
C1150 H1208 0.929 . S
C1151 C1148 1.356 . S
C1151 C1153 1.358 . S
C1151 H1209 0.930 . S
C1152 N1149 1.314 . S
C1152 C1150 1.353 . S
C1152 H1210 0.930 . S
C1153 N1149 1.279 . S
C1153 C1151 1.358 . S
C1153 H1211 0.930 . S
C1154 C1157 1.348 . S
C1154 C1158 1.356 . S
C1154 O1205 1.325 . S
C1155 N1156 1.279 . S
C1155 C1158 1.358 . S
C1155 H1212 0.930 . S
N1156 C1155 1.279 . S
N1156 C1159 1.314 . S
C1157 C1154 1.348 . S
C1157 C1159 1.353 . S
C1157 H1213 0.929 . S
C1158 C1154 1.356 . S
C1158 C1155 1.358 . S
C1158 H1214 0.930 . S
C1159 N1156 1.314 . S
C1159 C1157 1.353 . S
C1159 H1215 0.930 . S
C1160 N1161 1.314 . S
C1160 C1165 1.353 . S
C1160 H1166 0.930 . S
N1161 Li1144 1.990 . S
N1161 C1160 1.314 . S
N1161 C1163 1.279 . S
C1162 C1163 1.358 . S
C1162 C1164 1.356 . S
C1162 H1216 0.930 . S
C1163 N1161 1.279 . S
C1163 C1162 1.358 . S
C1163 H1167 0.930 . S
C1164 C1162 1.356 . S
C1164 C1165 1.348 . S
C1165 C1160 1.353 . S
C1165 C1164 1.348 . S
C1165 H1217 0.929 . S
H1166 C1160 0.930 . S
H1167 C1163 0.930 . S
C1168 N1169 1.314 . S
C1168 C1170 1.353 . S
C1168 H1174 0.930 1_554 S
N1169 Li1145 1.990 . S
N1169 C1168 1.314 . S
N1169 C1172 1.279 . S
C1170 C1168 1.353 . S
C1170 C1173 1.348 . S
C1170 H1218 0.929 1_554 S
C1171 C1172 1.358 . S
C1171 C1173 1.356 . S
C1171 H1219 0.930 . S
C1172 N1169 1.279 . S
C1172 C1171 1.358 . S
C1172 H1175 0.930 . S
C1173 C1170 1.348 . S
C1173 C1171 1.356 . S
H1174 C1168 0.930 1_556 S
H1175 C1172 0.930 . S
C1176 C1178 1.348 . S
C1176 C1179 1.356 . S
C1176 O1206 1.325 . S
N1177 C1180 1.314 . S
N1177 C1181 1.279 . S
C1178 C1176 1.348 . S
C1178 C1180 1.353 . S
C1178 H1220 0.929 . S
C1179 C1176 1.356 . S
C1179 C1181 1.358 . S
C1179 H1221 0.930 . S
C1180 N1177 1.314 . S
C1180 C1178 1.353 . S
C1180 H1222 0.930 . S
C1181 N1177 1.279 . S
C1181 C1179 1.358 . S
C1181 H1223 0.930 . S
C1182 C1183 1.348 . S
C1182 C1184 1.356 . S
C1182 O1207 1.325 . S
C1183 C1182 1.348 . S
C1183 C1185 1.353 . S
C1183 H1224 0.929 . S
C1184 C1182 1.356 . S
C1184 C1186 1.358 . S
C1184 H1225 0.930 . S
C1185 C1183 1.353 . S
C1185 N1187 1.314 . S
C1185 H1226 0.930 . S
C1186 C1184 1.358 . S
C1186 N1187 1.279 . S
C1186 H1227 0.930 1_545 S
N1187 C1185 1.314 . S
N1187 C1186 1.279 . S
C1188 C1190 1.353 . S
C1188 N1191 1.314 . S
C1188 H1194 0.930 . S
C1189 N1191 1.279 . S
C1189 C1192 1.358 . S
C1189 H1195 0.930 . S
C1190 C1188 1.353 . S
C1190 C1193 1.348 . S
C1190 H1228 0.929 . S
N1191 Li1146 1.990 1_556 S
N1191 C1188 1.314 . S
N1191 C1189 1.279 . S
C1192 C1189 1.358 . S
C1192 C1193 1.356 . S
C1192 H1229 0.930 . S
C1193 C1190 1.348 . S
C1193 C1192 1.356 . S
H1194 C1188 0.930 . S
H1195 C1189 0.930 . S
C1196 N1197 1.314 . S
C1196 C1198 1.353 . S
C1196 H1202 0.930 . S
N1197 Li1147 1.990 . S
N1197 C1196 1.314 . S
N1197 C1200 1.279 1_554 S
C1198 C1196 1.353 . S
C1198 C1201 1.348 . S
C1198 H1230 0.929 . S
C1199 C1200 1.358 . S
C1199 C1201 1.356 1_556 S
C1199 H1231 0.930 . S
C1200 N1197 1.279 1_556 S
C1200 C1199 1.358 . S
C1200 H1203 0.930 . S
C1201 C1198 1.348 . S
C1201 C1199 1.356 1_554 S
H1202 C1196 0.930 . S
H1203 C1200 0.930 . S
O1204 Li1144 1.956 . S
O1204 Li1145 1.970 . S
O1204 Li1146 1.961 . S
O1204 C1148 1.325 . S
O1205 Li1144 1.970 . S
O1205 Li1145 1.956 . S
O1205 Li1147 1.961 . S
O1205 C1154 1.325 . S
O1206 Li1144 1.961 . S
O1206 Li1146 1.956 . S
O1206 Li1147 1.970 . S
O1206 C1176 1.325 . S
O1207 Li1145 1.961 1_556 S
O1207 Li1146 1.970 1_556 S
O1207 Li1147 1.956 1_556 S
O1207 C1182 1.325 . S
H1208 C1150 0.929 . S
H1209 C1151 0.930 . S
H1210 C1152 0.930 . S
H1211 C1153 0.930 . S
H1212 C1155 0.930 . S
H1213 C1157 0.929 . S
H1214 C1158 0.930 . S
H1215 C1159 0.930 . S
H1216 C1162 0.930 . S
H1217 C1165 0.929 . S
H1218 C1170 0.929 1_556 S
H1219 C1171 0.930 . S
H1220 C1178 0.929 . S
H1221 C1179 0.930 . S
H1222 C1180 0.930 . S
H1223 C1181 0.930 . S
H1224 C1183 0.929 . S
H1225 C1184 0.930 . S
H1226 C1185 0.930 . S
H1227 C1186 0.930 1_565 S
H1228 C1190 0.929 . S
H1229 C1192 0.930 . S
H1230 C1198 0.929 . S
H1231 C1199 0.930 . S
Li1232 N1249 1.990 . S
Li1232 O1292 1.956 . S
Li1232 O1293 1.970 . S
Li1232 O1294 1.961 . S
Li1233 N1257 1.990 . S
Li1233 O1292 1.970 . S
Li1233 O1293 1.956 . S
Li1233 O1295 1.961 . S
Li1234 N1279 1.990 . S
Li1234 O1292 1.961 . S
Li1234 O1294 1.956 . S
Li1234 O1295 1.970 . S
Li1235 N1285 1.990 . S
Li1235 O1293 1.961 . S
Li1235 O1294 1.970 . S
Li1235 O1295 1.956 . S
C1236 C1238 1.348 . S
C1236 C1239 1.356 . S
C1236 O1292 1.325 . S
N1237 C1240 1.314 . S
N1237 C1241 1.279 . S
C1238 C1236 1.348 . S
C1238 C1240 1.353 . S
C1238 H1296 0.929 . S
C1239 C1236 1.356 . S
C1239 C1241 1.358 . S
C1239 H1297 0.930 . S
C1240 N1237 1.314 . S
C1240 C1238 1.353 . S
C1240 H1298 0.930 . S
C1241 N1237 1.279 . S
C1241 C1239 1.358 . S
C1241 H1299 0.930 . S
C1242 C1245 1.348 . S
C1242 C1246 1.356 . S
C1242 O1293 1.325 . S
C1243 N1244 1.279 . S
C1243 C1246 1.358 . S
C1243 H1300 0.930 . S
N1244 C1243 1.279 . S
N1244 C1247 1.314 . S
C1245 C1242 1.348 . S
C1245 C1247 1.353 . S
C1245 H1301 0.929 . S
C1246 C1242 1.356 . S
C1246 C1243 1.358 . S
C1246 H1302 0.930 . S
C1247 N1244 1.314 . S
C1247 C1245 1.353 . S
C1247 H1303 0.930 . S
C1248 N1249 1.314 . S
C1248 C1253 1.353 . S
C1248 H1254 0.930 . S
N1249 Li1232 1.990 . S
N1249 C1248 1.314 . S
N1249 C1251 1.279 . S
C1250 C1251 1.358 . S
C1250 C1252 1.356 . S
C1250 H1304 0.930 . S
C1251 N1249 1.279 . S
C1251 C1250 1.358 . S
C1251 H1255 0.930 . S
C1252 C1250 1.356 . S
C1252 C1253 1.348 . S
C1253 C1248 1.353 . S
C1253 C1252 1.348 . S
C1253 H1305 0.929 . S
H1254 C1248 0.930 . S
H1255 C1251 0.930 . S
C1256 N1257 1.314 . S
C1256 C1258 1.353 . S
C1256 H1262 0.930 . S
N1257 Li1233 1.990 . S
N1257 C1256 1.314 . S
N1257 C1260 1.279 . S
C1258 C1256 1.353 . S
C1258 C1261 1.348 . S
C1258 H1306 0.929 . S
C1259 C1260 1.358 . S
C1259 C1261 1.356 . S
C1259 H1307 0.930 . S
C1260 N1257 1.279 . S
C1260 C1259 1.358 . S
C1260 H1263 0.930 . S
C1261 C1258 1.348 . S
C1261 C1259 1.356 . S
H1262 C1256 0.930 . S
H1263 C1260 0.930 . S
C1264 C1266 1.348 . S
C1264 C1267 1.356 . S
C1264 O1294 1.325 . S
N1265 C1268 1.314 . S
N1265 C1269 1.279 . S
C1266 C1264 1.348 . S
C1266 C1268 1.353 . S
C1266 H1308 0.929 . S
C1267 C1264 1.356 . S
C1267 C1269 1.358 . S
C1267 H1309 0.930 . S
C1268 N1265 1.314 . S
C1268 C1266 1.353 . S
C1268 H1310 0.930 . S
C1269 N1265 1.279 . S
C1269 C1267 1.358 . S
C1269 H1311 0.930 . S
C1270 C1271 1.348 . S
C1270 C1272 1.356 . S
C1270 O1295 1.325 . S
C1271 C1270 1.348 . S
C1271 C1273 1.353 . S
C1271 H1312 0.929 . S
C1272 C1270 1.356 . S
C1272 C1274 1.358 . S
C1272 H1313 0.930 . S
C1273 C1271 1.353 . S
C1273 N1275 1.314 . S
C1273 H1314 0.930 . S
C1274 C1272 1.358 . S
C1274 N1275 1.279 . S
C1274 H1315 0.930 . S
N1275 C1273 1.314 . S
N1275 C1274 1.279 . S
C1276 C1278 1.353 . S
C1276 N1279 1.314 . S
C1276 H1282 0.930 . S
C1277 N1279 1.279 . S
C1277 C1280 1.358 . S
C1277 H1283 0.930 . S
C1278 C1276 1.353 . S
C1278 C1281 1.348 . S
C1278 H1316 0.929 . S
N1279 Li1234 1.990 . S
N1279 C1276 1.314 . S
N1279 C1277 1.279 . S
C1280 C1277 1.358 . S
C1280 C1281 1.356 . S
C1280 H1317 0.930 . S
C1281 C1278 1.348 . S
C1281 C1280 1.356 . S
H1282 C1276 0.930 . S
H1283 C1277 0.930 . S
C1284 N1285 1.314 . S
C1284 C1286 1.353 . S
C1284 H1290 0.930 . S
N1285 Li1235 1.990 . S
N1285 C1284 1.314 . S
N1285 C1288 1.279 . S
C1286 C1284 1.353 . S
C1286 C1289 1.348 . S
C1286 H1318 0.929 . S
C1287 C1288 1.358 . S
C1287 C1289 1.356 . S
C1287 H1319 0.930 . S
C1288 N1285 1.279 . S
C1288 C1287 1.358 . S
C1288 H1291 0.930 . S
C1289 C1286 1.348 . S
C1289 C1287 1.356 . S
H1290 C1284 0.930 . S
H1291 C1288 0.930 . S
O1292 Li1232 1.956 . S
O1292 Li1233 1.970 . S
O1292 Li1234 1.961 . S
O1292 C1236 1.325 . S
O1293 Li1232 1.970 . S
O1293 Li1233 1.956 . S
O1293 Li1235 1.961 . S
O1293 C1242 1.325 . S
O1294 Li1232 1.961 . S
O1294 Li1234 1.956 . S
O1294 Li1235 1.970 . S
O1294 C1264 1.325 . S
O1295 Li1233 1.961 . S
O1295 Li1234 1.970 . S
O1295 Li1235 1.956 . S
O1295 C1270 1.325 . S
H1296 C1238 0.929 . S
H1297 C1239 0.930 . S
H1298 C1240 0.930 . S
H1299 C1241 0.930 . S
H1300 C1243 0.930 . S
H1301 C1245 0.929 . S
H1302 C1246 0.930 . S
H1303 C1247 0.930 . S
H1304 C1250 0.930 . S
H1305 C1253 0.929 . S
H1306 C1258 0.929 . S
H1307 C1259 0.930 . S
H1308 C1266 0.929 . S
H1309 C1267 0.930 . S
H1310 C1268 0.930 . S
H1311 C1269 0.930 . S
H1312 C1271 0.929 . S
H1313 C1272 0.930 . S
H1314 C1273 0.930 . S
H1315 C1274 0.930 . S
H1316 C1278 0.929 . S
H1317 C1280 0.930 . S
H1318 C1286 0.929 . S
H1319 C1287 0.930 . S
Li1320 N1337 1.990 . S
Li1320 O1380 1.956 . S
Li1320 O1381 1.970 . S
Li1320 O1382 1.961 . S
Li1321 N1345 1.990 . S
Li1321 O1380 1.970 . S
Li1321 O1381 1.956 . S
Li1321 O1383 1.961 . S
Li1322 N1367 1.990 . S
Li1322 O1380 1.961 . S
Li1322 O1382 1.956 . S
Li1322 O1383 1.970 . S
Li1323 N1373 1.990 . S
Li1323 O1381 1.961 . S
Li1323 O1382 1.970 . S
Li1323 O1383 1.956 . S
C1324 C1326 1.348 . S
C1324 C1327 1.356 . S
C1324 O1380 1.325 . S
N1325 C1328 1.314 . S
N1325 C1329 1.279 . S
C1326 C1324 1.348 . S
C1326 C1328 1.353 . S
C1326 H1384 0.929 . S
C1327 C1324 1.356 . S
C1327 C1329 1.358 . S
C1327 H1385 0.930 . S
C1328 N1325 1.314 . S
C1328 C1326 1.353 . S
C1328 H1386 0.930 . S
C1329 N1325 1.279 . S
C1329 C1327 1.358 . S
C1329 H1387 0.930 1_565 S
C1330 C1333 1.348 . S
C1330 C1334 1.356 . S
C1330 O1381 1.325 . S
C1331 N1332 1.279 . S
C1331 C1334 1.358 . S
C1331 H1388 0.930 . S
N1332 C1331 1.279 . S
N1332 C1335 1.314 . S
C1333 C1330 1.348 . S
C1333 C1335 1.353 . S
C1333 H1389 0.929 . S
C1334 C1330 1.356 . S
C1334 C1331 1.358 . S
C1334 H1390 0.930 . S
C1335 N1332 1.314 . S
C1335 C1333 1.353 . S
C1335 H1391 0.930 . S
C1336 N1337 1.314 . S
C1336 C1341 1.353 . S
C1336 H1342 0.930 . S
N1337 Li1320 1.990 . S
N1337 C1336 1.314 . S
N1337 C1339 1.279 . S
C1338 C1339 1.358 . S
C1338 C1340 1.356 . S
C1338 H1392 0.930 . S
C1339 N1337 1.279 . S
C1339 C1338 1.358 . S
C1339 H1343 0.930 . S
C1340 C1338 1.356 . S
C1340 C1341 1.348 . S
C1341 C1336 1.353 . S
C1341 C1340 1.348 . S
C1341 H1393 0.929 . S
H1342 C1336 0.930 . S
H1343 C1339 0.930 . S
C1344 N1345 1.314 . S
C1344 C1346 1.353 . S
C1344 H1350 0.930 . S
N1345 Li1321 1.990 . S
N1345 C1344 1.314 . S
N1345 C1348 1.279 . S
C1346 C1344 1.353 . S
C1346 C1349 1.348 . S
C1346 H1394 0.929 . S
C1347 C1348 1.358 . S
C1347 C1349 1.356 . S
C1347 H1395 0.930 . S
C1348 N1345 1.279 . S
C1348 C1347 1.358 . S
C1348 H1351 0.930 . S
C1349 C1346 1.348 . S
C1349 C1347 1.356 . S
H1350 C1344 0.930 . S
H1351 C1348 0.930 . S
C1352 C1354 1.348 . S
C1352 C1355 1.356 . S
C1352 O1382 1.325 . S
N1353 C1356 1.314 . S
N1353 C1357 1.279 . S
C1354 C1352 1.348 . S
C1354 C1356 1.353 . S
C1354 H1396 0.929 . S
C1355 C1352 1.356 . S
C1355 C1357 1.358 . S
C1355 H1397 0.930 . S
C1356 N1353 1.314 . S
C1356 C1354 1.353 . S
C1356 H1398 0.930 . S
C1357 N1353 1.279 . S
C1357 C1355 1.358 . S
C1357 H1399 0.930 . S
C1358 C1359 1.348 . S
C1358 C1360 1.356 . S
C1358 O1383 1.325 . S
C1359 C1358 1.348 . S
C1359 C1361 1.353 . S
C1359 H1400 0.929 . S
C1360 C1358 1.356 . S
C1360 C1362 1.358 . S
C1360 H1401 0.930 . S
C1361 C1359 1.353 . S
C1361 N1363 1.314 . S
C1361 H1402 0.930 . S
C1362 C1360 1.358 . S
C1362 N1363 1.279 . S
C1362 H1403 0.930 . S
N1363 C1361 1.314 . S
N1363 C1362 1.279 . S
C1364 C1366 1.353 . S
C1364 N1367 1.314 . S
C1364 H1370 0.930 . S
C1365 N1367 1.279 . S
C1365 C1368 1.358 . S
C1365 H1371 0.930 . S
C1366 C1364 1.353 . S
C1366 C1369 1.348 . S
C1366 H1404 0.929 . S
N1367 Li1322 1.990 . S
N1367 C1364 1.314 . S
N1367 C1365 1.279 . S
C1368 C1365 1.358 . S
C1368 C1369 1.356 . S
C1368 H1405 0.930 . S
C1369 C1366 1.348 . S
C1369 C1368 1.356 . S
H1370 C1364 0.930 . S
H1371 C1365 0.930 . S
C1372 N1373 1.314 . S
C1372 C1374 1.353 . S
C1372 H1378 0.930 . S
N1373 Li1323 1.990 . S
N1373 C1372 1.314 . S
N1373 C1376 1.279 . S
C1374 C1372 1.353 . S
C1374 C1377 1.348 . S
C1374 H1406 0.929 . S
C1375 C1376 1.358 . S
C1375 C1377 1.356 . S
C1375 H1407 0.930 . S
C1376 N1373 1.279 . S
C1376 C1375 1.358 . S
C1376 H1379 0.930 . S
C1377 C1374 1.348 . S
C1377 C1375 1.356 . S
H1378 C1372 0.930 . S
H1379 C1376 0.930 . S
O1380 Li1320 1.956 . S
O1380 Li1321 1.970 . S
O1380 Li1322 1.961 . S
O1380 C1324 1.325 . S
O1381 Li1320 1.970 . S
O1381 Li1321 1.956 . S
O1381 Li1323 1.961 . S
O1381 C1330 1.325 . S
O1382 Li1320 1.961 . S
O1382 Li1322 1.956 . S
O1382 Li1323 1.970 . S
O1382 C1352 1.325 . S
O1383 Li1321 1.961 . S
O1383 Li1322 1.970 . S
O1383 Li1323 1.956 . S
O1383 C1358 1.325 . S
H1384 C1326 0.929 . S
H1385 C1327 0.930 . S
H1386 C1328 0.930 . S
H1387 C1329 0.930 1_545 S
H1388 C1331 0.930 . S
H1389 C1333 0.929 . S
H1390 C1334 0.930 . S
H1391 C1335 0.930 . S
H1392 C1338 0.930 . S
H1393 C1341 0.929 . S
H1394 C1346 0.929 . S
H1395 C1347 0.930 . S
H1396 C1354 0.929 . S
H1397 C1355 0.930 . S
H1398 C1356 0.930 . S
H1399 C1357 0.930 . S
H1400 C1359 0.929 . S
H1401 C1360 0.930 . S
H1402 C1361 0.930 . S
H1403 C1362 0.930 . S
H1404 C1366 0.929 . S
H1405 C1368 0.930 . S
H1406 C1374 0.929 . S
H1407 C1375 0.930 . S
Li1408 N1425 1.990 1_655 S
Li1408 O1468 1.956 . S
Li1408 O1469 1.970 . S
Li1408 O1470 1.961 . S
Li1409 N1433 1.990 1_545 S
Li1409 O1468 1.970 . S
Li1409 O1469 1.956 . S
Li1409 O1471 1.961 . S
Li1410 N1455 1.990 1_655 S
Li1410 O1468 1.961 . S
Li1410 O1470 1.956 . S
Li1410 O1471 1.970 . S
Li1411 N1461 1.990 . S
Li1411 O1469 1.961 . S
Li1411 O1470 1.970 . S
Li1411 O1471 1.956 . S
C1412 C1414 1.348 1_545 S
C1412 C1415 1.356 1_655 S
C1412 O1468 1.325 . S
N1413 C1416 1.314 . S
N1413 C1417 1.279 . S
C1414 C1412 1.348 1_565 S
C1414 C1416 1.353 1_655 S
C1414 H1472 0.929 . S
C1415 C1412 1.356 1_455 S
C1415 C1417 1.358 1_545 S
C1415 H1473 0.930 . S
C1416 N1413 1.314 . S
C1416 C1414 1.353 1_455 S
C1416 H1474 0.930 1_455 S
C1417 N1413 1.279 . S
C1417 C1415 1.358 1_565 S
C1417 H1475 0.932 . S
C1418 C1421 1.348 . S
C1418 C1422 1.356 . S
C1418 O1469 1.325 . S
C1419 N1420 1.279 . S
C1419 C1422 1.358 . S
C1419 H1476 0.930 . S
N1420 C1419 1.279 . S
N1420 C1423 1.314 . S
C1421 C1418 1.348 . S
C1421 C1423 1.353 . S
C1421 H1477 0.929 . S
C1422 C1418 1.356 . S
C1422 C1419 1.358 . S
C1422 H1478 0.930 . S
C1423 N1420 1.314 . S
C1423 C1421 1.353 . S
C1423 H1479 0.930 . S
C1424 N1425 1.314 . S
C1424 C1429 1.353 . S
C1424 H1430 0.930 . S
N1425 Li1408 1.990 1_455 S
N1425 C1424 1.314 . S
N1425 C1427 1.279 . S
C1426 C1427 1.358 . S
C1426 C1428 1.356 . S
C1426 H1480 0.930 . S
C1427 N1425 1.279 . S
C1427 C1426 1.358 . S
C1427 H1431 0.930 . S
C1428 C1426 1.356 . S
C1428 C1429 1.348 . S
C1429 C1424 1.353 . S
C1429 C1428 1.348 . S
C1429 H1481 0.929 . S
H1430 C1424 0.930 . S
H1431 C1427 0.930 . S
C1432 N1433 1.314 . S
C1432 C1434 1.353 . S
C1432 H1438 0.930 . S
N1433 Li1409 1.990 1_565 S
N1433 C1432 1.314 . S
N1433 C1436 1.279 . S
C1434 C1432 1.353 . S
C1434 C1437 1.348 . S
C1434 H1482 0.929 . S
C1435 C1436 1.358 . S
C1435 C1437 1.356 . S
C1435 H1483 0.930 . S
C1436 N1433 1.279 . S
C1436 C1435 1.358 . S
C1436 H1439 0.930 . S
C1437 C1434 1.348 . S
C1437 C1435 1.356 . S
H1438 C1432 0.930 . S
H1439 C1436 0.930 . S
C1440 C1442 1.348 . S
C1440 C1443 1.356 . S
C1440 O1470 1.325 1_455 S
N1441 C1444 1.314 . S
N1441 C1445 1.279 . S
C1442 C1440 1.348 . S
C1442 C1444 1.353 . S
C1442 H1484 0.929 1_455 S
C1443 C1440 1.356 . S
C1443 C1445 1.358 . S
C1443 H1485 0.930 . S
C1444 N1441 1.314 . S
C1444 C1442 1.353 . S
C1444 H1486 0.930 . S
C1445 N1441 1.279 . S
C1445 C1443 1.358 . S
C1445 H1487 0.930 . S
C1446 C1447 1.348 . S
C1446 C1448 1.356 . S
C1446 O1471 1.325 . S
C1447 C1446 1.348 . S
C1447 C1449 1.353 . S
C1447 H1488 0.929 . S
C1448 C1446 1.356 . S
C1448 C1450 1.358 . S
C1448 H1489 0.930 . S
C1449 C1447 1.353 . S
C1449 N1451 1.314 . S
C1449 H1490 0.930 . S
C1450 C1448 1.358 . S
C1450 N1451 1.279 . S
C1450 H1491 0.930 . S
N1451 C1449 1.314 . S
N1451 C1450 1.279 . S
C1452 C1454 1.353 . S
C1452 N1455 1.314 . S
C1452 H1458 0.930 1_455 S
C1453 N1455 1.279 . S
C1453 C1456 1.358 . S
C1453 H1459 0.930 . S
C1454 C1452 1.353 . S
C1454 C1457 1.348 . S
C1454 H1492 0.929 . S
N1455 Li1410 1.990 1_455 S
N1455 C1452 1.314 . S
N1455 C1453 1.279 . S
C1456 C1453 1.358 . S
C1456 C1457 1.356 . S
C1456 H1493 0.930 . S
C1457 C1454 1.348 . S
C1457 C1456 1.356 . S
H1458 C1452 0.930 1_655 S
H1459 C1453 0.930 . S
C1460 N1461 1.314 . S
C1460 C1462 1.353 . S
C1460 H1466 0.930 . S
N1461 Li1411 1.990 . S
N1461 C1460 1.314 . S
N1461 C1464 1.279 . S
C1462 C1460 1.353 . S
C1462 C1465 1.348 . S
C1462 H1494 0.929 . S
C1463 C1464 1.358 . S
C1463 C1465 1.356 . S
C1463 H1495 0.930 . S
C1464 N1461 1.279 . S
C1464 C1463 1.358 . S
C1464 H1467 0.930 . S
C1465 C1462 1.348 . S
C1465 C1463 1.356 . S
H1466 C1460 0.930 . S
H1467 C1464 0.930 . S
O1468 Li1408 1.956 . S
O1468 Li1409 1.970 . S
O1468 Li1410 1.961 . S
O1468 C1412 1.325 . S
O1469 Li1408 1.970 . S
O1469 Li1409 1.956 . S
O1469 Li1411 1.961 . S
O1469 C1418 1.325 . S
O1470 Li1408 1.961 . S
O1470 Li1410 1.956 . S
O1470 Li1411 1.970 . S
O1470 C1440 1.325 1_655 S
O1471 Li1409 1.961 . S
O1471 Li1410 1.970 . S
O1471 Li1411 1.956 . S
O1471 C1446 1.325 . S
H1472 C1414 0.929 . S
H1473 C1415 0.930 . S
H1474 C1416 0.930 1_655 S
H1475 C1417 0.932 . S
H1476 C1419 0.930 . S
H1477 C1421 0.929 . S
H1478 C1422 0.930 . S
H1479 C1423 0.930 . S
H1480 C1426 0.930 . S
H1481 C1429 0.929 . S
H1482 C1434 0.929 . S
H1483 C1435 0.930 . S
H1484 C1442 0.929 1_655 S
H1485 C1443 0.930 . S
H1486 C1444 0.930 . S
H1487 C1445 0.930 . S
H1488 C1447 0.929 . S
H1489 C1448 0.930 . S
H1490 C1449 0.930 . S
H1491 C1450 0.930 . S
H1492 C1454 0.929 . S
H1493 C1456 0.930 . S
H1494 C1462 0.929 . S
H1495 C1463 0.930 . S
Li1496 N1513 1.990 . S
Li1496 O1556 1.956 . S
Li1496 O1557 1.970 . S
Li1496 O1558 1.961 . S
Li1497 N1521 1.990 . S
Li1497 O1556 1.970 . S
Li1497 O1557 1.956 . S
Li1497 O1559 1.961 . S
Li1498 N1543 1.990 . S
Li1498 O1556 1.961 . S
Li1498 O1558 1.956 . S
Li1498 O1559 1.970 . S
Li1499 N1549 1.990 . S
Li1499 O1557 1.961 . S
Li1499 O1558 1.970 . S
Li1499 O1559 1.956 . S
C1500 C1502 1.348 . S
C1500 C1503 1.356 . S
C1500 O1556 1.325 . S
N1501 C1504 1.314 . S
N1501 C1505 1.279 . S
C1502 C1500 1.348 . S
C1502 C1504 1.353 . S
C1502 H1560 0.929 . S
C1503 C1500 1.356 . S
C1503 C1505 1.358 . S
C1503 H1561 0.930 . S
C1504 N1501 1.314 . S
C1504 C1502 1.353 . S
C1504 H1562 0.930 . S
C1505 N1501 1.279 . S
C1505 C1503 1.358 . S
C1505 H1563 0.930 . S
C1506 C1509 1.348 . S
C1506 C1510 1.356 . S
C1506 O1557 1.325 . S
C1507 N1508 1.279 . S
C1507 C1510 1.358 . S
C1507 H1564 0.930 . S
N1508 C1507 1.279 . S
N1508 C1511 1.314 . S
C1509 C1506 1.348 . S
C1509 C1511 1.353 . S
C1509 H1565 0.929 . S
C1510 C1506 1.356 . S
C1510 C1507 1.358 . S
C1510 H1566 0.930 . S
C1511 N1508 1.314 . S
C1511 C1509 1.353 . S
C1511 H1567 0.930 . S
C1512 N1513 1.314 . S
C1512 C1517 1.353 . S
C1512 H1518 0.930 . S
N1513 Li1496 1.990 . S
N1513 C1512 1.314 . S
N1513 C1515 1.279 . S
C1514 C1515 1.358 . S
C1514 C1516 1.356 . S
C1514 H1568 0.930 . S
C1515 N1513 1.279 . S
C1515 C1514 1.358 . S
C1515 H1519 0.930 . S
C1516 C1514 1.356 . S
C1516 C1517 1.348 . S
C1517 C1512 1.353 . S
C1517 C1516 1.348 . S
C1517 H1569 0.929 . S
H1518 C1512 0.930 . S
H1519 C1515 0.930 . S
C1520 N1521 1.314 . S
C1520 C1522 1.353 . S
C1520 H1526 0.930 . S
N1521 Li1497 1.990 . S
N1521 C1520 1.314 . S
N1521 C1524 1.279 . S
C1522 C1520 1.353 . S
C1522 C1525 1.348 . S
C1522 H1570 0.929 . S
C1523 C1524 1.358 . S
C1523 C1525 1.356 . S
C1523 H1571 0.930 . S
C1524 N1521 1.279 . S
C1524 C1523 1.358 . S
C1524 H1527 0.930 . S
C1525 C1522 1.348 . S
C1525 C1523 1.356 . S
H1526 C1520 0.930 . S
H1527 C1524 0.930 . S
C1528 C1530 1.348 . S
C1528 C1531 1.356 . S
C1528 O1558 1.325 . S
N1529 C1532 1.314 . S
N1529 C1533 1.279 . S
C1530 C1528 1.348 . S
C1530 C1532 1.353 . S
C1530 H1572 0.929 . S
C1531 C1528 1.356 . S
C1531 C1533 1.358 . S
C1531 H1573 0.930 . S
C1532 N1529 1.314 . S
C1532 C1530 1.353 . S
C1532 H1574 0.930 . S
C1533 N1529 1.279 . S
C1533 C1531 1.358 . S
C1533 H1575 0.930 . S
C1534 C1535 1.348 . S
C1534 C1536 1.356 . S
C1534 O1559 1.325 . S
C1535 C1534 1.348 . S
C1535 C1537 1.353 . S
C1535 H1576 0.929 . S
C1536 C1534 1.356 . S
C1536 C1538 1.358 . S
C1536 H1577 0.930 . S
C1537 C1535 1.353 . S
C1537 N1539 1.314 . S
C1537 H1578 0.930 . S
C1538 C1536 1.358 . S
C1538 N1539 1.279 . S
C1538 H1579 0.930 . S
N1539 C1537 1.314 . S
N1539 C1538 1.279 . S
C1540 C1542 1.353 . S
C1540 N1543 1.314 . S
C1540 H1546 0.930 . S
C1541 N1543 1.279 . S
C1541 C1544 1.358 . S
C1541 H1547 0.930 . S
C1542 C1540 1.353 . S
C1542 C1545 1.348 . S
C1542 H1580 0.929 . S
N1543 Li1498 1.990 . S
N1543 C1540 1.314 . S
N1543 C1541 1.279 . S
C1544 C1541 1.358 . S
C1544 C1545 1.356 . S
C1544 H1581 0.930 . S
C1545 C1542 1.348 . S
C1545 C1544 1.356 . S
H1546 C1540 0.930 . S
H1547 C1541 0.930 . S
C1548 N1549 1.314 . S
C1548 C1550 1.353 . S
C1548 H1554 0.930 . S
N1549 Li1499 1.990 . S
N1549 C1548 1.314 . S
N1549 C1552 1.279 . S
C1550 C1548 1.353 . S
C1550 C1553 1.348 . S
C1550 H1582 0.929 . S
C1551 C1552 1.358 . S
C1551 C1553 1.356 . S
C1551 H1583 0.930 . S
C1552 N1549 1.279 . S
C1552 C1551 1.358 . S
C1552 H1555 0.930 . S
C1553 C1550 1.348 . S
C1553 C1551 1.356 . S
H1554 C1548 0.930 . S
H1555 C1552 0.930 . S
O1556 Li1496 1.956 . S
O1556 Li1497 1.970 . S
O1556 Li1498 1.961 . S
O1556 C1500 1.325 . S
O1557 Li1496 1.970 . S
O1557 Li1497 1.956 . S
O1557 Li1499 1.961 . S
O1557 C1506 1.325 . S
O1558 Li1496 1.961 . S
O1558 Li1498 1.956 . S
O1558 Li1499 1.970 . S
O1558 C1528 1.325 . S
O1559 Li1497 1.961 . S
O1559 Li1498 1.970 . S
O1559 Li1499 1.956 . S
O1559 C1534 1.325 . S
H1560 C1502 0.929 . S
H1561 C1503 0.930 . S
H1562 C1504 0.930 . S
H1563 C1505 0.930 . S
H1564 C1507 0.930 . S
H1565 C1509 0.929 . S
H1566 C1510 0.930 . S
H1567 C1511 0.930 . S
H1568 C1514 0.930 . S
H1569 C1517 0.929 . S
H1570 C1522 0.929 . S
H1571 C1523 0.930 . S
H1572 C1530 0.929 . S
H1573 C1531 0.930 . S
H1574 C1532 0.930 . S
H1575 C1533 0.930 . S
H1576 C1535 0.929 . S
H1577 C1536 0.930 . S
H1578 C1537 0.930 . S
H1579 C1538 0.930 . S
H1580 C1542 0.929 . S
H1581 C1544 0.930 . S
H1582 C1550 0.929 . S
H1583 C1551 0.930 . S
Li1584 N1601 1.990 . S
Li1584 O1644 1.956 . S
Li1584 O1645 1.970 . S
Li1584 O1646 1.961 . S
Li1585 N1609 1.990 . S
Li1585 O1644 1.970 . S
Li1585 O1645 1.956 . S
Li1585 O1647 1.961 . S
Li1586 N1631 1.990 . S
Li1586 O1644 1.961 . S
Li1586 O1646 1.956 . S
Li1586 O1647 1.970 . S
Li1587 N1637 1.990 . S
Li1587 O1645 1.961 . S
Li1587 O1646 1.970 . S
Li1587 O1647 1.956 . S
C1588 C1590 1.348 . S
C1588 C1591 1.356 . S
C1588 O1644 1.325 . S
N1589 C1592 1.314 . S
N1589 C1593 1.279 . S
C1590 C1588 1.348 . S
C1590 C1592 1.353 . S
C1590 H1648 0.929 . S
C1591 C1588 1.356 . S
C1591 C1593 1.358 . S
C1591 H1649 0.930 . S
C1592 N1589 1.314 . S
C1592 C1590 1.353 . S
C1592 H1650 0.930 . S
C1593 N1589 1.279 . S
C1593 C1591 1.358 . S
C1593 H1651 0.930 . S
C1594 C1597 1.348 . S
C1594 C1598 1.356 . S
C1594 O1645 1.325 . S
C1595 N1596 1.279 . S
C1595 C1598 1.358 . S
C1595 H1652 0.930 . S
N1596 C1595 1.279 . S
N1596 C1599 1.314 . S
C1597 C1594 1.348 . S
C1597 C1599 1.353 . S
C1597 H1653 0.929 . S
C1598 C1594 1.356 . S
C1598 C1595 1.358 . S
C1598 H1654 0.930 . S
C1599 N1596 1.314 . S
C1599 C1597 1.353 . S
C1599 H1655 0.930 . S
C1600 N1601 1.314 . S
C1600 C1605 1.353 . S
C1600 H1606 0.930 . S
N1601 Li1584 1.990 . S
N1601 C1600 1.314 . S
N1601 C1603 1.279 . S
C1602 C1603 1.358 . S
C1602 C1604 1.356 . S
C1602 H1656 0.930 . S
C1603 N1601 1.279 . S
C1603 C1602 1.358 . S
C1603 H1607 0.930 . S
C1604 C1602 1.356 . S
C1604 C1605 1.348 . S
C1605 C1600 1.353 . S
C1605 C1604 1.348 . S
C1605 H1657 0.929 . S
H1606 C1600 0.930 . S
H1607 C1603 0.930 . S
C1608 N1609 1.314 . S
C1608 C1610 1.353 . S
C1608 H1614 0.930 . S
N1609 Li1585 1.990 . S
N1609 C1608 1.314 . S
N1609 C1612 1.279 . S
C1610 C1608 1.353 . S
C1610 C1613 1.348 . S
C1610 H1658 0.929 . S
C1611 C1612 1.358 . S
C1611 C1613 1.356 . S
C1611 H1659 0.930 . S
C1612 N1609 1.279 . S
C1612 C1611 1.358 . S
C1612 H1615 0.930 . S
C1613 C1610 1.348 . S
C1613 C1611 1.356 . S
H1614 C1608 0.930 . S
H1615 C1612 0.930 . S
C1616 C1618 1.348 . S
C1616 C1619 1.356 . S
C1616 O1646 1.325 . S
N1617 C1620 1.314 . S
N1617 C1621 1.279 . S
C1618 C1616 1.348 . S
C1618 C1620 1.353 . S
C1618 H1660 0.929 . S
C1619 C1616 1.356 . S
C1619 C1621 1.358 . S
C1619 H1661 0.930 . S
C1620 N1617 1.314 . S
C1620 C1618 1.353 . S
C1620 H1662 0.930 . S
C1621 N1617 1.279 . S
C1621 C1619 1.358 . S
C1621 H1663 0.930 . S
C1622 C1623 1.348 . S
C1622 C1624 1.356 . S
C1622 O1647 1.325 . S
C1623 C1622 1.348 . S
C1623 C1625 1.353 . S
C1623 H1664 0.929 . S
C1624 C1622 1.356 . S
C1624 C1626 1.358 . S
C1624 H1665 0.930 . S
C1625 C1623 1.353 . S
C1625 N1627 1.314 . S
C1625 H1666 0.930 . S
C1626 C1624 1.358 . S
C1626 N1627 1.279 . S
C1626 H1667 0.930 . S
N1627 C1625 1.314 . S
N1627 C1626 1.279 . S
C1628 C1630 1.353 . S
C1628 N1631 1.314 . S
C1628 H1634 0.930 . S
C1629 N1631 1.279 . S
C1629 C1632 1.358 . S
C1629 H1635 0.930 . S
C1630 C1628 1.353 . S
C1630 C1633 1.348 . S
C1630 H1668 0.929 . S
N1631 Li1586 1.990 . S
N1631 C1628 1.314 . S
N1631 C1629 1.279 . S
C1632 C1629 1.358 . S
C1632 C1633 1.356 . S
C1632 H1669 0.930 . S
C1633 C1630 1.348 . S
C1633 C1632 1.356 . S
H1634 C1628 0.930 . S
H1635 C1629 0.930 . S
C1636 N1637 1.314 . S
C1636 C1638 1.353 . S
C1636 H1642 0.930 . S
N1637 Li1587 1.990 . S
N1637 C1636 1.314 . S
N1637 C1640 1.279 . S
C1638 C1636 1.353 . S
C1638 C1641 1.348 . S
C1638 H1670 0.929 . S
C1639 C1640 1.358 . S
C1639 C1641 1.356 . S
C1639 H1671 0.930 . S
C1640 N1637 1.279 . S
C1640 C1639 1.358 . S
C1640 H1643 0.930 . S
C1641 C1638 1.348 . S
C1641 C1639 1.356 . S
H1642 C1636 0.930 . S
H1643 C1640 0.930 . S
O1644 Li1584 1.956 . S
O1644 Li1585 1.970 . S
O1644 Li1586 1.961 . S
O1644 C1588 1.325 . S
O1645 Li1584 1.970 . S
O1645 Li1585 1.956 . S
O1645 Li1587 1.961 . S
O1645 C1594 1.325 . S
O1646 Li1584 1.961 . S
O1646 Li1586 1.956 . S
O1646 Li1587 1.970 . S
O1646 C1616 1.325 . S
O1647 Li1585 1.961 . S
O1647 Li1586 1.970 . S
O1647 Li1587 1.956 . S
O1647 C1622 1.325 . S
H1648 C1590 0.929 . S
H1649 C1591 0.930 . S
H1650 C1592 0.930 . S
H1651 C1593 0.930 . S
H1652 C1595 0.930 . S
H1653 C1597 0.929 . S
H1654 C1598 0.930 . S
H1655 C1599 0.930 . S
H1656 C1602 0.930 . S
H1657 C1605 0.929 . S
H1658 C1610 0.929 . S
H1659 C1611 0.930 . S
H1660 C1618 0.929 . S
H1661 C1619 0.930 . S
H1662 C1620 0.930 . S
H1663 C1621 0.930 . S
H1664 C1623 0.929 . S
H1665 C1624 0.930 . S
H1666 C1625 0.930 . S
H1667 C1626 0.930 . S
H1668 C1630 0.929 . S
H1669 C1632 0.930 . S
H1670 C1638 0.929 . S
H1671 C1639 0.930 . S
Li1672 N1689 1.990 . S
Li1672 O1732 1.956 . S
Li1672 O1733 1.970 . S
Li1672 O1734 1.961 . S
Li1673 N1697 1.990 . S
Li1673 O1732 1.970 . S
Li1673 O1733 1.956 . S
Li1673 O1735 1.961 . S
Li1674 N1719 1.990 . S
Li1674 O1732 1.961 . S
Li1674 O1734 1.956 . S
Li1674 O1735 1.970 . S
Li1675 N1725 1.990 . S
Li1675 O1733 1.961 . S
Li1675 O1734 1.970 . S
Li1675 O1735 1.956 . S
C1676 C1678 1.348 . S
C1676 C1679 1.356 . S
C1676 O1732 1.325 . S
N1677 C1680 1.314 . S
N1677 C1681 1.279 . S
C1678 C1676 1.348 . S
C1678 C1680 1.353 . S
C1678 H1736 0.929 . S
C1679 C1676 1.356 . S
C1679 C1681 1.358 . S
C1679 H1737 0.930 . S
C1680 N1677 1.314 . S
C1680 C1678 1.353 . S
C1680 H1738 0.930 . S
C1681 N1677 1.279 . S
C1681 C1679 1.358 . S
C1681 H1739 0.930 . S
C1682 C1685 1.348 . S
C1682 C1686 1.356 . S
C1682 O1733 1.325 . S
C1683 N1684 1.279 . S
C1683 C1686 1.358 . S
C1683 H1740 0.930 . S
N1684 C1683 1.279 . S
N1684 C1687 1.314 . S
C1685 C1682 1.348 . S
C1685 C1687 1.353 . S
C1685 H1741 0.929 . S
C1686 C1682 1.356 . S
C1686 C1683 1.358 . S
C1686 H1742 0.930 . S
C1687 N1684 1.314 . S
C1687 C1685 1.353 . S
C1687 H1743 0.930 . S
C1688 N1689 1.314 . S
C1688 C1693 1.353 . S
C1688 H1694 0.930 . S
N1689 Li1672 1.990 . S
N1689 C1688 1.314 . S
N1689 C1691 1.279 . S
C1690 C1691 1.358 . S
C1690 C1692 1.356 . S
C1690 H1744 0.930 . S
C1691 N1689 1.279 . S
C1691 C1690 1.358 . S
C1691 H1695 0.930 . S
C1692 C1690 1.356 . S
C1692 C1693 1.348 . S
C1693 C1688 1.353 . S
C1693 C1692 1.348 . S
C1693 H1745 0.929 . S
H1694 C1688 0.930 . S
H1695 C1691 0.930 . S
C1696 N1697 1.314 . S
C1696 C1698 1.353 . S
C1696 H1702 0.930 . S
N1697 Li1673 1.990 . S
N1697 C1696 1.314 . S
N1697 C1700 1.279 . S
C1698 C1696 1.353 . S
C1698 C1701 1.348 . S
C1698 H1746 0.929 . S
C1699 C1700 1.358 . S
C1699 C1701 1.356 . S
C1699 H1747 0.930 . S
C1700 N1697 1.279 . S
C1700 C1699 1.358 . S
C1700 H1703 0.930 . S
C1701 C1698 1.348 . S
C1701 C1699 1.356 . S
H1702 C1696 0.930 . S
H1703 C1700 0.930 . S
C1704 C1706 1.348 . S
C1704 C1707 1.356 . S
C1704 O1734 1.325 1_565 S
N1705 C1708 1.314 . S
N1705 C1709 1.279 . S
C1706 C1704 1.348 . S
C1706 C1708 1.353 . S
C1706 H1748 0.929 . S
C1707 C1704 1.356 . S
C1707 C1709 1.358 . S
C1707 H1749 0.930 1_565 S
C1708 N1705 1.314 . S
C1708 C1706 1.353 . S
C1708 H1750 0.930 . S
C1709 N1705 1.279 . S
C1709 C1707 1.358 . S
C1709 H1751 0.930 . S
C1710 C1711 1.348 . S
C1710 C1712 1.356 . S
C1710 O1735 1.325 . S
C1711 C1710 1.348 . S
C1711 C1713 1.353 . S
C1711 H1752 0.929 . S
C1712 C1710 1.356 . S
C1712 C1714 1.358 . S
C1712 H1753 0.930 . S
C1713 C1711 1.353 . S
C1713 N1715 1.314 . S
C1713 H1754 0.930 . S
C1714 C1712 1.358 . S
C1714 N1715 1.279 . S
C1714 H1755 0.930 . S
N1715 C1713 1.314 . S
N1715 C1714 1.279 . S
C1716 C1718 1.353 . S
C1716 N1719 1.314 . S
C1716 H1722 0.930 . S
C1717 N1719 1.279 . S
C1717 C1720 1.358 . S
C1717 H1723 0.907 1_545 S
C1718 C1716 1.353 . S
C1718 C1721 1.348 . S
C1718 H1756 0.929 . S
N1719 Li1674 1.990 . S
N1719 C1716 1.314 . S
N1719 C1717 1.279 . S
C1720 C1717 1.358 . S
C1720 C1721 1.356 . S
C1720 H1757 0.930 1_545 S
C1721 C1718 1.348 . S
C1721 C1720 1.356 . S
H1722 C1716 0.930 . S
H1723 C1717 0.907 1_565 S
C1724 N1725 1.314 1_565 S
C1724 C1726 1.353 . S
C1724 H1730 0.930 . S
N1725 Li1675 1.990 . S
N1725 C1724 1.314 1_545 S
N1725 C1728 1.279 1_545 S
C1726 C1724 1.353 . S
C1726 C1729 1.348 . S
C1726 H1758 0.929 . S
C1727 C1728 1.358 . S
C1727 C1729 1.356 . S
C1727 H1759 0.930 . S
C1728 N1725 1.279 1_565 S
C1728 C1727 1.358 . S
C1728 H1731 0.929 1_565 S
C1729 C1726 1.348 . S
C1729 C1727 1.356 . S
H1730 C1724 0.930 . S
H1731 C1728 0.929 1_545 S
O1732 Li1672 1.956 . S
O1732 Li1673 1.970 . S
O1732 Li1674 1.961 . S
O1732 C1676 1.325 . S
O1733 Li1672 1.970 . S
O1733 Li1673 1.956 . S
O1733 Li1675 1.961 . S
O1733 C1682 1.325 . S
O1734 Li1672 1.961 . S
O1734 Li1674 1.956 . S
O1734 Li1675 1.970 . S
O1734 C1704 1.325 1_545 S
O1735 Li1673 1.961 . S
O1735 Li1674 1.970 . S
O1735 Li1675 1.956 . S
O1735 C1710 1.325 . S
H1736 C1678 0.929 . S
H1737 C1679 0.930 . S
H1738 C1680 0.930 . S
H1739 C1681 0.930 . S
H1740 C1683 0.930 . S
H1741 C1685 0.929 . S
H1742 C1686 0.930 . S
H1743 C1687 0.930 . S
H1744 C1690 0.930 . S
H1745 C1693 0.929 . S
H1746 C1698 0.929 . S
H1747 C1699 0.930 . S
H1748 C1706 0.929 . S
H1749 C1707 0.930 1_545 S
H1750 C1708 0.930 . S
H1751 C1709 0.930 . S
H1752 C1711 0.929 . S
H1753 C1712 0.930 . S
H1754 C1713 0.930 . S
H1755 C1714 0.930 . S
H1756 C1718 0.929 . S
H1757 C1720 0.930 1_565 S
H1758 C1726 0.929 . S
H1759 C1727 0.930 . S
Li1760 N1777 1.990 . S
Li1760 O1820 1.956 . S
Li1760 O1821 1.970 . S
Li1760 O1822 1.961 . S
Li1761 N1785 1.990 . S
Li1761 O1820 1.973 1_556 S
Li1761 O1821 1.939 1_556 S
Li1761 O1823 1.977 . S
Li1762 N1807 1.990 . S
Li1762 O1820 1.961 1_556 S
Li1762 O1822 1.956 1_556 S
Li1762 O1823 1.970 . S
Li1763 N1813 1.990 . S
Li1763 O1821 1.961 1_556 S
Li1763 O1822 1.970 1_556 S
Li1763 O1823 1.956 . S
C1764 C1766 1.348 . S
C1764 C1767 1.356 . S
C1764 O1820 1.325 . S
N1765 C1768 1.314 . S
N1765 C1769 1.279 . S
C1766 C1764 1.348 . S
C1766 C1768 1.353 . S
C1766 H1824 0.929 . S
C1767 C1764 1.356 . S
C1767 C1769 1.358 . S
C1767 H1825 0.930 . S
C1768 N1765 1.314 . S
C1768 C1766 1.353 . S
C1768 H1826 0.930 . S
C1769 N1765 1.279 . S
C1769 C1767 1.358 . S
C1769 H1827 0.930 . S
C1770 C1773 1.348 . S
C1770 C1774 1.356 . S
C1770 O1821 1.325 . S
C1771 N1772 1.279 . S
C1771 C1774 1.358 . S
C1771 H1828 0.930 . S
N1772 C1771 1.279 . S
N1772 C1775 1.314 . S
C1773 C1770 1.348 . S
C1773 C1775 1.353 . S
C1773 H1829 0.929 . S
C1774 C1770 1.356 . S
C1774 C1771 1.358 . S
C1774 H1830 0.930 . S
C1775 N1772 1.314 . S
C1775 C1773 1.353 . S
C1775 H1831 0.930 . S
C1776 N1777 1.314 . S
C1776 C1781 1.353 . S
C1776 H1782 0.930 . S
N1777 Li1760 1.990 . S
N1777 C1776 1.314 . S
N1777 C1779 1.279 . S
C1778 C1779 1.358 . S
C1778 C1780 1.356 . S
C1778 H1832 0.930 . S
C1779 N1777 1.279 . S
C1779 C1778 1.358 . S
C1779 H1783 0.930 . S
C1780 C1778 1.356 . S
C1780 C1781 1.348 . S
C1781 C1776 1.353 . S
C1781 C1780 1.348 . S
C1781 H1833 0.929 . S
H1782 C1776 0.930 . S
H1783 C1779 0.930 . S
C1784 N1785 1.314 . S
C1784 C1786 1.353 . S
C1784 H1790 0.930 . S
N1785 Li1761 1.990 . S
N1785 C1784 1.314 . S
N1785 C1788 1.279 1_556 S
C1786 C1784 1.353 . S
C1786 C1789 1.348 . S
C1786 H1834 0.929 . S
C1787 C1788 1.358 . S
C1787 C1789 1.356 1_554 S
C1787 H1835 0.930 . S
C1788 N1785 1.279 1_554 S
C1788 C1787 1.358 . S
C1788 H1791 0.930 . S
C1789 C1786 1.348 . S
C1789 C1787 1.356 1_556 S
H1790 C1784 0.930 . S
H1791 C1788 0.930 . S
C1792 C1794 1.348 1_554 S
C1792 C1795 1.356 . S
C1792 O1822 1.325 . S
N1793 C1796 1.314 1_554 S
N1793 C1797 1.279 . S
C1794 C1792 1.348 1_556 S
C1794 C1796 1.353 . S
C1794 H1836 0.929 . S
C1795 C1792 1.356 . S
C1795 C1797 1.358 . S
C1795 H1837 0.930 . S
C1796 N1793 1.314 1_556 S
C1796 C1794 1.353 . S
C1796 H1838 0.930 . S
C1797 N1793 1.279 . S
C1797 C1795 1.358 . S
C1797 H1839 0.930 . S
C1798 C1799 1.348 . S
C1798 C1800 1.356 . S
C1798 O1823 1.325 . S
C1799 C1798 1.348 . S
C1799 C1801 1.353 . S
C1799 H1840 0.929 . S
C1800 C1798 1.356 . S
C1800 C1802 1.358 . S
C1800 H1841 0.930 . S
C1801 C1799 1.353 . S
C1801 N1803 1.314 . S
C1801 H1842 0.930 . S
C1802 C1800 1.358 . S
C1802 N1803 1.279 . S
C1802 H1843 0.930 . S
N1803 C1801 1.314 . S
N1803 C1802 1.279 . S
C1804 C1806 1.353 . S
C1804 N1807 1.314 . S
C1804 H1810 0.930 . S
C1805 N1807 1.279 . S
C1805 C1808 1.358 . S
C1805 H1811 0.930 . S
C1806 C1804 1.353 . S
C1806 C1809 1.348 . S
C1806 H1844 0.929 . S
N1807 Li1762 1.990 . S
N1807 C1804 1.314 . S
N1807 C1805 1.279 . S
C1808 C1805 1.358 . S
C1808 C1809 1.356 . S
C1808 H1845 0.930 . S
C1809 C1806 1.348 . S
C1809 C1808 1.356 . S
H1810 C1804 0.930 . S
H1811 C1805 0.930 . S
C1812 N1813 1.314 1_554 S
C1812 C1814 1.353 . S
C1812 H1818 0.930 . S
N1813 Li1763 1.990 . S
N1813 C1812 1.314 1_556 S
N1813 C1816 1.279 . S
C1814 C1812 1.353 . S
C1814 C1817 1.348 1_554 S
C1814 H1846 0.929 . S
C1815 C1816 1.358 . S
C1815 C1817 1.356 . S
C1815 H1847 0.930 . S
C1816 N1813 1.279 . S
C1816 C1815 1.358 . S
C1816 H1819 0.930 . S
C1817 C1814 1.348 1_556 S
C1817 C1815 1.356 . S
H1818 C1812 0.930 . S
H1819 C1816 0.930 . S
O1820 Li1760 1.956 . S
O1820 Li1761 1.973 1_554 S
O1820 Li1762 1.961 1_554 S
O1820 C1764 1.325 . S
O1821 Li1760 1.970 . S
O1821 Li1761 1.939 1_554 S
O1821 Li1763 1.961 1_554 S
O1821 C1770 1.325 . S
O1822 Li1760 1.961 . S
O1822 Li1762 1.956 1_554 S
O1822 Li1763 1.970 1_554 S
O1822 C1792 1.325 . S
O1823 Li1761 1.977 . S
O1823 Li1762 1.970 . S
O1823 Li1763 1.956 . S
O1823 C1798 1.325 . S
H1824 C1766 0.929 . S
H1825 C1767 0.930 . S
H1826 C1768 0.930 . S
H1827 C1769 0.930 . S
H1828 C1771 0.930 . S
H1829 C1773 0.929 . S
H1830 C1774 0.930 . S
H1831 C1775 0.930 . S
H1832 C1778 0.930 . S
H1833 C1781 0.929 . S
H1834 C1786 0.929 . S
H1835 C1787 0.930 . S
H1836 C1794 0.929 . S
H1837 C1795 0.930 . S
H1838 C1796 0.930 . S
H1839 C1797 0.930 . S
H1840 C1799 0.929 . S
H1841 C1800 0.930 . S
H1842 C1801 0.930 . S
H1843 C1802 0.930 . S
H1844 C1806 0.929 . S
H1845 C1808 0.930 . S
H1846 C1814 0.929 . S
H1847 C1815 0.930 . S
Li1848 N1865 1.990 . S
Li1848 O1908 1.956 . S
Li1848 O1909 1.970 . S
Li1848 O1910 1.961 . S
Li1849 N1873 1.990 . S
Li1849 O1908 1.970 . S
Li1849 O1909 1.956 . S
Li1849 O1911 1.961 . S
Li1850 N1895 1.990 . S
Li1850 O1908 1.961 . S
Li1850 O1910 1.956 . S
Li1850 O1911 1.970 . S
Li1851 N1901 1.990 . S
Li1851 O1909 1.961 . S
Li1851 O1910 1.970 . S
Li1851 O1911 1.956 . S
C1852 C1854 1.348 . S
C1852 C1855 1.356 . S
C1852 O1908 1.325 . S
N1853 C1856 1.314 . S
N1853 C1857 1.279 . S
C1854 C1852 1.348 . S
C1854 C1856 1.353 . S
C1854 H1912 0.929 . S
C1855 C1852 1.356 . S
C1855 C1857 1.358 . S
C1855 H1913 0.930 . S
C1856 N1853 1.314 . S
C1856 C1854 1.353 . S
C1856 H1914 0.930 . S
C1857 N1853 1.279 . S
C1857 C1855 1.358 . S
C1857 H1915 0.930 . S
C1858 C1861 1.348 . S
C1858 C1862 1.356 . S
C1858 O1909 1.325 . S
C1859 N1860 1.279 1_455 S
C1859 C1862 1.358 1_455 S
C1859 H1916 0.930 . S
N1860 C1859 1.279 1_655 S
N1860 C1863 1.314 . S
C1861 C1858 1.348 . S
C1861 C1863 1.353 . S
C1861 H1917 0.929 . S
C1862 C1858 1.356 . S
C1862 C1859 1.358 1_655 S
C1862 H1918 0.930 1_655 S
C1863 N1860 1.314 . S
C1863 C1861 1.353 . S
C1863 H1919 0.930 . S
C1864 N1865 1.314 . S
C1864 C1869 1.353 . S
C1864 H1870 0.930 . S
N1865 Li1848 1.990 . S
N1865 C1864 1.314 . S
N1865 C1867 1.279 . S
C1866 C1867 1.358 . S
C1866 C1868 1.356 . S
C1866 H1920 0.930 . S
C1867 N1865 1.279 . S
C1867 C1866 1.358 . S
C1867 H1871 0.930 . S
C1868 C1866 1.356 . S
C1868 C1869 1.348 . S
C1869 C1864 1.353 . S
C1869 C1868 1.348 . S
C1869 H1921 0.929 . S
H1870 C1864 0.930 . S
H1871 C1867 0.930 . S
C1872 N1873 1.314 . S
C1872 C1874 1.353 1_655 S
C1872 H1878 0.930 . S
N1873 Li1849 1.990 . S
N1873 C1872 1.314 . S
N1873 C1876 1.279 . S
C1874 C1872 1.353 1_455 S
C1874 C1877 1.348 . S
C1874 H1922 0.929 . S
C1875 C1876 1.358 1_455 S
C1875 C1877 1.356 . S
C1875 H1923 0.930 . S
C1876 N1873 1.279 . S
C1876 C1875 1.358 1_655 S
C1876 H1879 0.930 . S
C1877 C1874 1.348 . S
C1877 C1875 1.356 . S
H1878 C1872 0.930 . S
H1879 C1876 0.930 . S
C1880 C1882 1.348 . S
C1880 C1883 1.356 . S
C1880 O1910 1.325 . S
N1881 C1884 1.314 . S
N1881 C1885 1.279 . S
C1882 C1880 1.348 . S
C1882 C1884 1.353 . S
C1882 H1924 0.929 . S
C1883 C1880 1.356 . S
C1883 C1885 1.358 . S
C1883 H1925 0.930 . S
C1884 N1881 1.314 . S
C1884 C1882 1.353 . S
C1884 H1926 0.930 . S
C1885 N1881 1.279 . S
C1885 C1883 1.358 . S
C1885 H1927 0.930 . S
C1886 C1887 1.348 . S
C1886 C1888 1.356 1_655 S
C1886 O1911 1.325 . S
C1887 C1886 1.348 . S
C1887 C1889 1.353 . S
C1887 H1928 0.929 . S
C1888 C1886 1.356 1_455 S
C1888 C1890 1.358 . S
C1888 H1929 0.930 . S
C1889 C1887 1.353 . S
C1889 N1891 1.314 1_655 S
C1889 H1930 0.930 . S
C1890 C1888 1.358 . S
C1890 N1891 1.279 . S
C1890 H1931 0.930 . S
N1891 C1889 1.314 1_455 S
N1891 C1890 1.279 . S
C1892 C1894 1.353 . S
C1892 N1895 1.314 . S
C1892 H1898 0.930 . S
C1893 N1895 1.279 . S
C1893 C1896 1.358 . S
C1893 H1899 0.930 . S
C1894 C1892 1.353 . S
C1894 C1897 1.348 . S
C1894 H1932 0.929 . S
N1895 Li1850 1.990 . S
N1895 C1892 1.314 . S
N1895 C1893 1.279 . S
C1896 C1893 1.358 . S
C1896 C1897 1.356 . S
C1896 H1933 0.930 . S
C1897 C1894 1.348 . S
C1897 C1896 1.356 . S
H1898 C1892 0.930 . S
H1899 C1893 0.930 . S
C1900 N1901 1.314 . S
C1900 C1902 1.353 . S
C1900 H1906 0.930 . S
N1901 Li1851 1.990 . S
N1901 C1900 1.314 . S
N1901 C1904 1.279 . S
C1902 C1900 1.353 . S
C1902 C1905 1.348 1_655 S
C1902 H1934 0.929 . S
C1903 C1904 1.358 1_455 S
C1903 C1905 1.356 . S
C1903 H1935 0.930 . S
C1904 N1901 1.279 . S
C1904 C1903 1.358 1_655 S
C1904 H1907 0.930 . S
C1905 C1902 1.348 1_455 S
C1905 C1903 1.356 . S
H1906 C1900 0.930 . S
H1907 C1904 0.930 . S
O1908 Li1848 1.956 . S
O1908 Li1849 1.970 . S
O1908 Li1850 1.961 . S
O1908 C1852 1.325 . S
O1909 Li1848 1.970 . S
O1909 Li1849 1.956 . S
O1909 Li1851 1.961 . S
O1909 C1858 1.325 . S
O1910 Li1848 1.961 . S
O1910 Li1850 1.956 . S
O1910 Li1851 1.970 . S
O1910 C1880 1.325 . S
O1911 Li1849 1.961 . S
O1911 Li1850 1.970 . S
O1911 Li1851 1.956 . S
O1911 C1886 1.325 . S
H1912 C1854 0.929 . S
H1913 C1855 0.930 . S
H1914 C1856 0.930 . S
H1915 C1857 0.930 . S
H1916 C1859 0.930 . S
H1917 C1861 0.929 . S
H1918 C1862 0.930 1_455 S
H1919 C1863 0.930 . S
H1920 C1866 0.930 . S
H1921 C1869 0.929 . S
H1922 C1874 0.929 . S
H1923 C1875 0.930 . S
H1924 C1882 0.929 . S
H1925 C1883 0.930 . S
H1926 C1884 0.930 . S
H1927 C1885 0.930 . S
H1928 C1887 0.929 . S
H1929 C1888 0.930 . S
H1930 C1889 0.930 . S
H1931 C1890 0.930 . S
H1932 C1894 0.929 . S
H1933 C1896 0.930 . S
H1934 C1902 0.929 . S
H1935 C1903 0.930 . S
Li1936 N1953 1.990 . S
Li1936 O1996 1.956 . S
Li1936 O1997 1.970 . S
Li1936 O1998 1.961 . S
Li1937 N1961 1.990 . S
Li1937 O1996 1.970 . S
Li1937 O1997 1.956 . S
Li1937 O1999 1.961 . S
Li1938 N1983 1.990 . S
Li1938 O1996 1.961 . S
Li1938 O1998 1.956 . S
Li1938 O1999 1.970 . S
Li1939 N1989 1.990 . S
Li1939 O1997 1.961 . S
Li1939 O1998 1.970 . S
Li1939 O1999 1.956 . S
C1940 C1942 1.348 . S
C1940 C1943 1.356 . S
C1940 O1996 1.325 . S
N1941 C1944 1.314 . S
N1941 C1945 1.279 . S
C1942 C1940 1.348 . S
C1942 C1944 1.353 . S
C1942 H2000 0.929 . S
C1943 C1940 1.356 . S
C1943 C1945 1.358 . S
C1943 H2001 0.930 . S
C1944 N1941 1.314 . S
C1944 C1942 1.353 . S
C1944 H2002 0.930 . S
C1945 N1941 1.279 . S
C1945 C1943 1.358 . S
C1945 H2003 0.930 . S
C1946 C1949 1.348 . S
C1946 C1950 1.356 . S
C1946 O1997 1.325 . S
C1947 N1948 1.279 . S
C1947 C1950 1.358 . S
C1947 H2004 0.930 . S
N1948 C1947 1.279 . S
N1948 C1951 1.314 . S
C1949 C1946 1.348 . S
C1949 C1951 1.353 . S
C1949 H2005 0.929 . S
C1950 C1946 1.356 . S
C1950 C1947 1.358 . S
C1950 H2006 0.930 . S
C1951 N1948 1.314 . S
C1951 C1949 1.353 . S
C1951 H2007 0.930 . S
C1952 N1953 1.314 . S
C1952 C1957 1.353 . S
C1952 H1958 0.930 . S
N1953 Li1936 1.990 . S
N1953 C1952 1.314 . S
N1953 C1955 1.279 . S
C1954 C1955 1.358 . S
C1954 C1956 1.356 . S
C1954 H2008 0.930 . S
C1955 N1953 1.279 . S
C1955 C1954 1.358 . S
C1955 H1959 0.930 . S
C1956 C1954 1.356 . S
C1956 C1957 1.348 . S
C1957 C1952 1.353 . S
C1957 C1956 1.348 . S
C1957 H2009 0.929 . S
H1958 C1952 0.930 . S
H1959 C1955 0.930 . S
C1960 N1961 1.314 . S
C1960 C1962 1.353 . S
C1960 H1966 0.930 . S
N1961 Li1937 1.990 . S
N1961 C1960 1.314 . S
N1961 C1964 1.279 . S
C1962 C1960 1.353 . S
C1962 C1965 1.348 . S
C1962 H2010 0.929 . S
C1963 C1964 1.358 . S
C1963 C1965 1.356 . S
C1963 H2011 0.930 . S
C1964 N1961 1.279 . S
C1964 C1963 1.358 . S
C1964 H1967 0.930 . S
C1965 C1962 1.348 . S
C1965 C1963 1.356 . S
H1966 C1960 0.930 . S
H1967 C1964 0.930 . S
C1968 C1970 1.348 . S
C1968 C1971 1.356 . S
C1968 O1998 1.325 . S
N1969 C1972 1.314 . S
N1969 C1973 1.279 . S
C1970 C1968 1.348 . S
C1970 C1972 1.353 . S
C1970 H2012 0.929 . S
C1971 C1968 1.356 . S
C1971 C1973 1.358 . S
C1971 H2013 0.930 . S
C1972 N1969 1.314 . S
C1972 C1970 1.353 . S
C1972 H2014 0.930 . S
C1973 N1969 1.279 . S
C1973 C1971 1.358 . S
C1973 H2015 0.930 . S
C1974 C1975 1.348 . S
C1974 C1976 1.356 . S
C1974 O1999 1.325 . S
C1975 C1974 1.348 . S
C1975 C1977 1.353 . S
C1975 H2016 0.929 . S
C1976 C1974 1.356 . S
C1976 C1978 1.358 . S
C1976 H2017 0.930 . S
C1977 C1975 1.353 . S
C1977 N1979 1.314 . S
C1977 H2018 0.930 . S
C1978 C1976 1.358 . S
C1978 N1979 1.279 . S
C1978 H2019 0.930 . S
N1979 C1977 1.314 . S
N1979 C1978 1.279 . S
C1980 C1982 1.353 . S
C1980 N1983 1.314 . S
C1980 H1986 0.930 . S
C1981 N1983 1.279 . S
C1981 C1984 1.358 . S
C1981 H1987 0.930 . S
C1982 C1980 1.353 . S
C1982 C1985 1.348 . S
C1982 H2020 0.929 . S
N1983 Li1938 1.990 . S
N1983 C1980 1.314 . S
N1983 C1981 1.279 . S
C1984 C1981 1.358 . S
C1984 C1985 1.356 . S
C1984 H2021 0.930 . S
C1985 C1982 1.348 . S
C1985 C1984 1.356 . S
H1986 C1980 0.930 . S
H1987 C1981 0.930 . S
C1988 N1989 1.314 . S
C1988 C1990 1.353 1_655 S
C1988 H1994 0.930 . S
N1989 Li1939 1.990 . S
N1989 C1988 1.314 . S
N1989 C1992 1.279 . S
C1990 C1988 1.353 1_455 S
C1990 C1993 1.348 . S
C1990 H2022 0.929 . S
C1991 C1992 1.358 . S
C1991 C1993 1.356 1_655 S
C1991 H2023 0.930 1_655 S
C1992 N1989 1.279 . S
C1992 C1991 1.358 . S
C1992 H1995 0.930 . S
C1993 C1990 1.348 . S
C1993 C1991 1.356 1_455 S
H1994 C1988 0.930 . S
H1995 C1992 0.930 . S
O1996 Li1936 1.956 . S
O1996 Li1937 1.970 . S
O1996 Li1938 1.961 . S
O1996 C1940 1.325 . S
O1997 Li1936 1.970 . S
O1997 Li1937 1.956 . S
O1997 Li1939 1.961 . S
O1997 C1946 1.325 . S
O1998 Li1936 1.961 . S
O1998 Li1938 1.956 . S
O1998 Li1939 1.970 . S
O1998 C1968 1.325 . S
O1999 Li1937 1.961 . S
O1999 Li1938 1.970 . S
O1999 Li1939 1.956 . S
O1999 C1974 1.325 . S
H2000 C1942 0.929 . S
H2001 C1943 0.930 . S
H2002 C1944 0.930 . S
H2003 C1945 0.930 . S
H2004 C1947 0.930 . S
H2005 C1949 0.929 . S
H2006 C1950 0.930 . S
H2007 C1951 0.930 . S
H2008 C1954 0.930 . S
H2009 C1957 0.929 . S
H2010 C1962 0.929 . S
H2011 C1963 0.930 . S
H2012 C1970 0.929 . S
H2013 C1971 0.930 . S
H2014 C1972 0.930 . S
H2015 C1973 0.930 . S
H2016 C1975 0.929 . S
H2017 C1976 0.930 . S
H2018 C1977 0.930 . S
H2019 C1978 0.930 . S
H2020 C1982 0.929 . S
H2021 C1984 0.930 . S
H2022 C1990 0.929 . S
H2023 C1991 0.930 1_455 S
Li2024 N2041 1.990 . S
Li2024 O2084 1.956 . S
Li2024 O2085 1.970 . S
Li2024 O2086 1.961 . S
Li2025 N2049 1.990 . S
Li2025 O2084 1.970 . S
Li2025 O2085 1.956 . S
Li2025 O2087 1.961 . S
Li2026 N2071 1.990 . S
Li2026 O2084 1.961 . S
Li2026 O2086 1.956 . S
Li2026 O2087 1.970 . S
Li2027 N2077 1.990 . S
Li2027 O2085 1.961 . S
Li2027 O2086 1.970 . S
Li2027 O2087 1.956 . S
C2028 C2030 1.348 . S
C2028 C2031 1.356 . S
C2028 O2084 1.325 . S
N2029 C2032 1.314 . S
N2029 C2033 1.279 . S
C2030 C2028 1.348 . S
C2030 C2032 1.353 . S
C2030 H2088 0.929 . S
C2031 C2028 1.356 . S
C2031 C2033 1.358 . S
C2031 H2089 0.930 . S
C2032 N2029 1.314 . S
C2032 C2030 1.353 . S
C2032 H2090 0.930 . S
C2033 N2029 1.279 . S
C2033 C2031 1.358 . S
C2033 H2091 0.930 . S
C2034 C2037 1.348 . S
C2034 C2038 1.356 . S
C2034 O2085 1.325 . S
C2035 N2036 1.279 . S
C2035 C2038 1.358 . S
C2035 H2092 0.930 . S
N2036 C2035 1.279 . S
N2036 C2039 1.314 . S
C2037 C2034 1.348 . S
C2037 C2039 1.353 . S
C2037 H2093 0.929 . S
C2038 C2034 1.356 . S
C2038 C2035 1.358 . S
C2038 H2094 0.930 . S
C2039 N2036 1.314 . S
C2039 C2037 1.353 . S
C2039 H2095 0.930 . S
C2040 N2041 1.314 . S
C2040 C2045 1.353 . S
C2040 H2046 0.930 . S
N2041 Li2024 1.990 . S
N2041 C2040 1.314 . S
N2041 C2043 1.279 . S
C2042 C2043 1.358 . S
C2042 C2044 1.356 . S
C2042 H2096 0.930 . S
C2043 N2041 1.279 . S
C2043 C2042 1.358 . S
C2043 H2047 0.930 . S
C2044 C2042 1.356 . S
C2044 C2045 1.348 . S
C2045 C2040 1.353 . S
C2045 C2044 1.348 . S
C2045 H2097 0.929 . S
H2046 C2040 0.930 . S
H2047 C2043 0.930 . S
C2048 N2049 1.314 . S
C2048 C2050 1.353 . S
C2048 H2054 0.930 . S
N2049 Li2025 1.990 . S
N2049 C2048 1.314 . S
N2049 C2052 1.279 . S
C2050 C2048 1.353 . S
C2050 C2053 1.348 . S
C2050 H2098 0.929 . S
C2051 C2052 1.358 . S
C2051 C2053 1.356 . S
C2051 H2099 0.930 . S
C2052 N2049 1.279 . S
C2052 C2051 1.358 . S
C2052 H2055 0.930 . S
C2053 C2050 1.348 . S
C2053 C2051 1.356 . S
H2054 C2048 0.930 . S
H2055 C2052 0.930 . S
C2056 C2058 1.348 . S
C2056 C2059 1.356 . S
C2056 O2086 1.325 . S
N2057 C2060 1.314 . S
N2057 C2061 1.279 . S
C2058 C2056 1.348 . S
C2058 C2060 1.353 . S
C2058 H2100 0.929 . S
C2059 C2056 1.356 . S
C2059 C2061 1.358 . S
C2059 H2101 0.930 . S
C2060 N2057 1.314 . S
C2060 C2058 1.353 . S
C2060 H2102 0.930 . S
C2061 N2057 1.279 . S
C2061 C2059 1.358 . S
C2061 H2103 0.930 . S
C2062 C2063 1.348 . S
C2062 C2064 1.356 . S
C2062 O2087 1.325 . S
C2063 C2062 1.348 . S
C2063 C2065 1.353 . S
C2063 H2104 0.929 . S
C2064 C2062 1.356 . S
C2064 C2066 1.358 . S
C2064 H2105 0.930 . S
C2065 C2063 1.353 . S
C2065 N2067 1.314 . S
C2065 H2106 0.930 . S
C2066 C2064 1.358 . S
C2066 N2067 1.279 . S
C2066 H2107 0.930 . S
N2067 C2065 1.314 . S
N2067 C2066 1.279 . S
C2068 C2070 1.353 . S
C2068 N2071 1.314 . S
C2068 H2074 0.930 . S
C2069 N2071 1.279 . S
C2069 C2072 1.358 . S
C2069 H2075 0.930 . S
C2070 C2068 1.353 . S
C2070 C2073 1.348 . S
C2070 H2108 0.929 . S
N2071 Li2026 1.990 . S
N2071 C2068 1.314 . S
N2071 C2069 1.279 . S
C2072 C2069 1.358 . S
C2072 C2073 1.356 . S
C2072 H2109 0.930 . S
C2073 C2070 1.348 . S
C2073 C2072 1.356 . S
H2074 C2068 0.930 . S
H2075 C2069 0.930 . S
C2076 N2077 1.314 . S
C2076 C2078 1.353 . S
C2076 H2082 0.930 . S
N2077 Li2027 1.990 . S
N2077 C2076 1.314 . S
N2077 C2080 1.279 . S
C2078 C2076 1.353 . S
C2078 C2081 1.348 . S
C2078 H2110 0.929 . S
C2079 C2080 1.358 . S
C2079 C2081 1.356 . S
C2079 H2111 0.930 . S
C2080 N2077 1.279 . S
C2080 C2079 1.358 . S
C2080 H2083 0.930 . S
C2081 C2078 1.348 . S
C2081 C2079 1.356 . S
H2082 C2076 0.930 . S
H2083 C2080 0.930 . S
O2084 Li2024 1.956 . S
O2084 Li2025 1.970 . S
O2084 Li2026 1.961 . S
O2084 C2028 1.325 . S
O2085 Li2024 1.970 . S
O2085 Li2025 1.956 . S
O2085 Li2027 1.961 . S
O2085 C2034 1.325 . S
O2086 Li2024 1.961 . S
O2086 Li2026 1.956 . S
O2086 Li2027 1.970 . S
O2086 C2056 1.325 . S
O2087 Li2025 1.961 . S
O2087 Li2026 1.970 . S
O2087 Li2027 1.956 . S
O2087 C2062 1.325 . S
H2088 C2030 0.929 . S
H2089 C2031 0.930 . S
H2090 C2032 0.930 . S
H2091 C2033 0.930 . S
H2092 C2035 0.930 . S
H2093 C2037 0.929 . S
H2094 C2038 0.930 . S
H2095 C2039 0.930 . S
H2096 C2042 0.930 . S
H2097 C2045 0.929 . S
H2098 C2050 0.929 . S
H2099 C2051 0.930 . S
H2100 C2058 0.929 . S
H2101 C2059 0.930 . S
H2102 C2060 0.930 . S
H2103 C2061 0.930 . S
H2104 C2063 0.929 . S
H2105 C2064 0.930 . S
H2106 C2065 0.930 . S
H2107 C2066 0.930 . S
H2108 C2070 0.929 . S
H2109 C2072 0.930 . S
H2110 C2078 0.929 . S
H2111 C2079 0.930 . S
Eu2112 N2143 2.657 1_546 S
Eu2112 N2150 2.609 1_545 S
Eu2112 O2156 2.558 1_455 S
Eu2112 O2157 2.612 1_556 S
Eu2112 O2159 2.339 1_556 S
Eu2112 O2160 2.563 . S
Eu2112 O2161 2.419 1_456 S
Eu2112 O2163 2.380 1_546 S
Eu2112 O2164 2.432 . S
Eu2112 C2176 2.848 1_455 S
C2113 C2116 1.429 . S
C2113 C2117 1.411 . S
C2113 N2120 1.377 . S
C2114 C2116 1.420 . S
C2114 C2118 1.423 . S
C2114 C2126 1.392 1_554 S
C2115 C2117 1.420 . S
C2115 C2118 1.351 . S
C2115 H2138 0.931 . S
C2116 C2113 1.429 . S
C2116 C2114 1.420 . S
C2116 N2124 1.362 . S
C2117 C2113 1.411 . S
C2117 C2115 1.420 . S
C2117 C2122 1.395 . S
C2118 C2114 1.423 . S
C2118 C2115 1.351 . S
C2118 H2130 0.930 . S
C2119 C2121 1.400 . S
C2119 C2122 1.386 . S
C2119 H2131 0.930 . S
N2120 C2113 1.377 . S
N2120 C2121 1.321 . S
N2120 Eu2123 2.609 . S
C2121 C2119 1.400 . S
C2121 N2120 1.321 . S
C2121 H2128 0.930 . S
C2122 C2117 1.395 . S
C2122 C2119 1.386 . S
C2122 H2141 0.930 . S
Eu2123 N2120 2.609 . S
Eu2123 N2124 2.657 . S
Eu2123 O2157 2.380 . S
Eu2123 O2158 2.432 . S
Eu2123 O2162 2.558 . S
Eu2123 O2163 2.612 1_545 S
Eu2123 O2165 2.339 1_554 S
Eu2123 O2166 2.563 1_545 S
Eu2123 O2167 2.419 . S
Eu2123 C2187 2.848 . S
N2124 C2116 1.362 . S
N2124 Eu2123 2.657 . S
N2124 C2125 1.334 1_554 S
C2125 N2124 1.334 1_556 S
C2125 C2127 1.413 . S
C2125 H2132 0.929 . S
C2126 C2114 1.392 1_556 S
C2126 C2127 1.367 . S
C2126 H2134 0.930 . S
C2127 C2125 1.413 . S
C2127 C2126 1.367 . S
C2127 H2129 0.930 . S
H2128 C2121 0.930 . S
H2129 C2127 0.930 . S
H2130 C2118 0.930 . S
H2131 C2119 0.930 . S
H2132 C2125 0.929 . S
H2133 C2147 0.930 . S
H2134 C2126 0.930 . S
H2135 C2153 0.930 . S
H2136 C2144 0.929 . S
H2137 C2151 0.930 . S
H2138 C2115 0.931 . S
H2139 C2145 0.930 . S
H2140 C2178 0.930 . S
H2141 C2122 0.930 . S
H2142 C2177 0.931 . S
N2143 Eu2112 2.657 1_564 S
N2143 C2144 1.334 . S
N2143 C2148 1.362 1_454 S
C2144 H2136 0.929 . S
C2144 N2143 1.334 . S
C2144 C2147 1.413 . S
C2145 H2139 0.930 . S
C2145 C2146 1.392 . S
C2145 C2147 1.367 1_655 S
C2146 C2145 1.392 . S
C2146 C2148 1.420 1_554 S
C2146 C2178 1.423 1_554 S
C2147 H2133 0.930 . S
C2147 C2144 1.413 . S
C2147 C2145 1.367 1_455 S
C2148 N2143 1.362 1_656 S
C2148 C2146 1.420 1_556 S
C2148 C2152 1.429 . S
H2149 C2154 0.930 . S
N2150 Eu2112 2.609 1_565 S
N2150 C2152 1.377 1_455 S
N2150 C2153 1.321 . S
C2151 H2137 0.930 . S
C2151 C2153 1.400 1_655 S
C2151 C2154 1.386 . S
C2152 C2148 1.429 . S
C2152 N2150 1.377 1_655 S
C2152 C2155 1.411 . S
C2153 H2135 0.930 . S
C2153 N2150 1.321 . S
C2153 C2151 1.400 1_455 S
C2154 H2149 0.930 . S
C2154 C2151 1.386 . S
C2154 C2155 1.395 . S
C2155 C2152 1.411 . S
C2155 C2154 1.395 . S
C2155 C2177 1.420 . S
O2156 Eu2112 2.558 1_655 S
O2156 C2176 1.257 . S
O2157 Eu2112 2.612 1_554 S
O2157 Eu2123 2.380 . S
O2157 C2168 1.276 . S
O2158 Eu2123 2.432 . S
O2158 C2175 1.264 . S
O2159 Eu2112 2.339 1_554 S
O2159 C2175 1.254 . S
O2160 Eu2112 2.563 . S
O2160 C2168 1.235 1_556 S
O2161 Eu2112 2.419 1_654 S
O2161 C2176 1.249 1_554 S
O2162 Eu2123 2.558 . S
O2162 C2187 1.257 . S
O2163 Eu2112 2.380 1_564 S
O2163 Eu2123 2.612 1_565 S
O2163 C2179 1.276 . S
O2164 Eu2112 2.432 . S
O2164 C2186 1.264 . S
O2165 Eu2123 2.339 1_556 S
O2165 C2186 1.254 . S
O2166 Eu2123 2.563 1_565 S
O2166 C2179 1.235 . S
O2167 Eu2123 2.419 . S
O2167 C2187 1.249 . S
C2168 O2157 1.276 . S
C2168 O2160 1.235 1_554 S
C2169 C2171 1.393 . S
C2169 C2173 1.395 . S
C2169 C2176 1.492 . S
C2170 C2171 1.392 . S
C2170 C2172 1.386 . S
C2171 C2169 1.393 . S
C2171 C2170 1.392 . S
C2171 H2188 0.930 1_556 S
C2172 C2170 1.386 . S
C2172 C2174 1.395 . S
C2172 H2189 0.930 . S
C2173 C2169 1.395 . S
C2173 C2174 1.379 . S
C2173 H2190 0.930 1_545 S
C2174 C2172 1.395 . S
C2174 C2173 1.379 . S
C2174 H2191 0.930 1_545 S
C2175 O2158 1.264 . S
C2175 O2159 1.254 . S
C2176 Eu2112 2.848 1_655 S
C2176 O2156 1.257 . S
C2176 O2161 1.249 1_556 S
C2176 C2169 1.492 . S
C2177 H2142 0.931 . S
C2177 C2155 1.420 . S
C2177 C2178 1.351 . S
C2178 H2140 0.930 . S
C2178 C2146 1.423 1_556 S
C2178 C2177 1.351 . S
C2179 O2163 1.276 . S
C2179 O2166 1.235 . S
C2180 C2181 1.393 . S
C2180 C2184 1.395 . S
C2180 C2187 1.492 . S
C2181 C2180 1.393 . S
C2181 C2182 1.392 . S
C2181 H2192 0.930 . S
C2182 C2181 1.392 . S
C2182 C2183 1.386 . S
C2183 C2182 1.386 . S
C2183 C2185 1.395 . S
C2183 H2193 0.930 . S
C2184 C2180 1.395 . S
C2184 C2185 1.379 . S
C2184 H2194 0.930 . S
C2185 C2183 1.395 . S
C2185 C2184 1.379 . S
C2185 H2195 0.930 . S
C2186 O2164 1.264 . S
C2186 O2165 1.254 . S
C2187 Eu2123 2.848 . S
C2187 O2162 1.257 . S
C2187 O2167 1.249 . S
C2187 C2180 1.492 . S
H2188 C2171 0.930 1_554 S
H2189 C2172 0.930 . S
H2190 C2173 0.930 1_565 S
H2191 C2174 0.930 1_565 S
H2192 C2181 0.930 . S
H2193 C2183 0.930 . S
H2194 C2184 0.930 . S
H2195 C2185 0.930 . S
Eu2196 N2227 2.657 . S
Eu2196 N2234 2.609 . S
Eu2196 O2240 2.558 . S
Eu2196 O2241 2.612 . S
Eu2196 O2243 2.339 . S
Eu2196 O2244 2.563 . S
Eu2196 O2245 2.419 . S
Eu2196 O2247 2.380 . S
Eu2196 O2248 2.432 . S
Eu2196 C2260 2.848 . S
C2197 C2200 1.429 . S
C2197 C2201 1.411 . S
C2197 N2204 1.377 . S
C2198 C2200 1.420 . S
C2198 C2202 1.423 . S
C2198 C2210 1.392 . S
C2199 C2201 1.420 . S
C2199 C2202 1.351 . S
C2199 H2222 0.931 . S
C2200 C2197 1.429 . S
C2200 C2198 1.420 . S
C2200 N2208 1.362 . S
C2201 C2197 1.411 . S
C2201 C2199 1.420 . S
C2201 C2206 1.395 . S
C2202 C2198 1.423 . S
C2202 C2199 1.351 . S
C2202 H2214 0.930 . S
C2203 C2205 1.400 . S
C2203 C2206 1.386 . S
C2203 H2215 0.930 . S
N2204 C2197 1.377 . S
N2204 C2205 1.321 . S
N2204 Eu2207 2.609 . S
C2205 C2203 1.400 . S
C2205 N2204 1.321 . S
C2205 H2212 0.930 . S
C2206 C2201 1.395 . S
C2206 C2203 1.386 . S
C2206 H2225 0.930 . S
Eu2207 N2204 2.609 . S
Eu2207 N2208 2.657 . S
Eu2207 O2241 2.380 . S
Eu2207 O2242 2.432 . S
Eu2207 O2246 2.558 . S
Eu2207 O2247 2.612 . S
Eu2207 O2249 2.339 . S
Eu2207 O2250 2.563 . S
Eu2207 O2251 2.419 . S
Eu2207 C2271 2.848 . S
N2208 C2200 1.362 . S
N2208 Eu2207 2.657 . S
N2208 C2209 1.334 . S
C2209 N2208 1.334 . S
C2209 C2211 1.413 . S
C2209 H2216 0.929 . S
C2210 C2198 1.392 . S
C2210 C2211 1.367 . S
C2210 H2218 0.930 . S
C2211 C2209 1.413 . S
C2211 C2210 1.367 . S
C2211 H2213 0.930 . S
H2212 C2205 0.930 . S
H2213 C2211 0.930 . S
H2214 C2202 0.930 . S
H2215 C2203 0.930 . S
H2216 C2209 0.929 . S
H2217 C2231 0.930 . S
H2218 C2210 0.930 . S
H2219 C2237 0.930 . S
H2220 C2228 0.929 . S
H2221 C2235 0.930 . S
H2222 C2199 0.931 . S
H2223 C2229 0.930 . S
H2224 C2262 0.930 . S
H2225 C2206 0.930 . S
H2226 C2261 0.931 . S
N2227 Eu2196 2.657 . S
N2227 C2228 1.334 . S
N2227 C2232 1.362 . S
C2228 H2220 0.929 . S
C2228 N2227 1.334 . S
C2228 C2231 1.413 . S
C2229 H2223 0.930 . S
C2229 C2230 1.392 . S
C2229 C2231 1.367 . S
C2230 C2229 1.392 . S
C2230 C2232 1.420 . S
C2230 C2262 1.423 . S
C2231 H2217 0.930 . S
C2231 C2228 1.413 . S
C2231 C2229 1.367 . S
C2232 N2227 1.362 . S
C2232 C2230 1.420 . S
C2232 C2236 1.429 . S
H2233 C2238 0.930 . S
N2234 Eu2196 2.609 . S
N2234 C2236 1.377 . S
N2234 C2237 1.321 . S
C2235 H2221 0.930 . S
C2235 C2237 1.400 . S
C2235 C2238 1.386 . S
C2236 C2232 1.429 . S
C2236 N2234 1.377 . S
C2236 C2239 1.411 . S
C2237 H2219 0.930 . S
C2237 N2234 1.321 . S
C2237 C2235 1.400 . S
C2238 H2233 0.930 . S
C2238 C2235 1.386 . S
C2238 C2239 1.395 . S
C2239 C2236 1.411 . S
C2239 C2238 1.395 . S
C2239 C2261 1.420 . S
O2240 Eu2196 2.558 . S
O2240 C2260 1.257 . S
O2241 Eu2196 2.612 . S
O2241 Eu2207 2.380 . S
O2241 C2252 1.276 . S
O2242 Eu2207 2.432 . S
O2242 C2259 1.264 . S
O2243 Eu2196 2.339 . S
O2243 C2259 1.254 . S
O2244 Eu2196 2.563 . S
O2244 C2252 1.235 . S
O2245 Eu2196 2.419 . S
O2245 C2260 1.249 . S
O2246 Eu2207 2.558 . S
O2246 C2271 1.257 . S
O2247 Eu2196 2.380 . S
O2247 Eu2207 2.612 . S
O2247 C2263 1.276 . S
O2248 Eu2196 2.432 . S
O2248 C2270 1.264 . S
O2249 Eu2207 2.339 . S
O2249 C2270 1.254 . S
O2250 Eu2207 2.563 . S
O2250 C2263 1.235 . S
O2251 Eu2207 2.419 . S
O2251 C2271 1.249 . S
C2252 O2241 1.276 . S
C2252 O2244 1.235 . S
C2253 C2255 1.393 . S
C2253 C2257 1.395 . S
C2253 C2260 1.492 . S
C2254 C2255 1.392 . S
C2254 C2256 1.386 . S
C2255 C2253 1.393 . S
C2255 C2254 1.392 . S
C2255 H2272 0.930 . S
C2256 C2254 1.386 . S
C2256 C2258 1.395 . S
C2256 H2273 0.930 . S
C2257 C2253 1.395 . S
C2257 C2258 1.379 . S
C2257 H2274 0.930 . S
C2258 C2256 1.395 . S
C2258 C2257 1.379 . S
C2258 H2275 0.930 . S
C2259 O2242 1.264 . S
C2259 O2243 1.254 . S
C2260 Eu2196 2.848 . S
C2260 O2240 1.257 . S
C2260 O2245 1.249 . S
C2260 C2253 1.492 . S
C2261 H2226 0.931 . S
C2261 C2239 1.420 . S
C2261 C2262 1.351 . S
C2262 H2224 0.930 . S
C2262 C2230 1.423 . S
C2262 C2261 1.351 . S
C2263 O2247 1.276 . S
C2263 O2250 1.235 . S
C2264 C2265 1.393 . S
C2264 C2268 1.395 . S
C2264 C2271 1.492 . S
C2265 C2264 1.393 . S
C2265 C2266 1.392 . S
C2265 H2276 0.930 . S
C2266 C2265 1.392 . S
C2266 C2267 1.386 . S
C2267 C2266 1.386 . S
C2267 C2269 1.395 . S
C2267 H2277 0.930 . S
C2268 C2264 1.395 . S
C2268 C2269 1.379 . S
C2268 H2278 0.930 . S
C2269 C2267 1.395 . S
C2269 C2268 1.379 . S
C2269 H2279 0.930 . S
C2270 O2248 1.264 . S
C2270 O2249 1.254 . S
C2271 Eu2207 2.848 . S
C2271 O2246 1.257 . S
C2271 O2251 1.249 . S
C2271 C2264 1.492 . S
H2272 C2255 0.930 . S
H2273 C2256 0.930 . S
H2274 C2257 0.930 . S
H2275 C2258 0.930 . S
H2276 C2265 0.930 . S
H2277 C2267 0.930 . S
H2278 C2268 0.930 . S
H2279 C2269 0.930 . S
Eu2280 N2311 2.657 . S
Eu2280 N2318 2.609 . S
Eu2280 O2324 2.558 . S
Eu2280 O2325 2.612 1_545 S
Eu2280 O2327 2.339 . S
Eu2280 O2328 2.563 1_545 S
Eu2280 O2329 2.419 . S
Eu2280 O2331 2.380 . S
Eu2280 O2332 2.432 . S
Eu2280 C2344 2.848 . S
C2281 C2284 1.429 . S
C2281 C2285 1.411 . S
C2281 N2288 1.381 . S
C2282 C2284 1.420 . S
C2282 C2286 1.423 . S
C2282 C2294 1.392 . S
C2283 C2285 1.420 . S
C2283 C2286 1.351 . S
C2283 H2306 0.931 . S
C2284 C2281 1.429 . S
C2284 C2282 1.420 . S
C2284 N2292 1.362 . S
C2285 C2281 1.411 . S
C2285 C2283 1.420 . S
C2285 C2290 1.395 . S
C2286 C2282 1.423 . S
C2286 C2283 1.351 . S
C2286 H2298 0.930 . S
C2287 C2289 1.400 1_565 S
C2287 C2290 1.386 . S
C2287 H2299 0.930 1_565 S
N2288 C2281 1.381 . S
N2288 C2289 1.320 1_565 S
N2288 Eu2291 2.605 1_565 S
C2289 C2287 1.400 1_545 S
C2289 N2288 1.320 1_545 S
C2289 H2296 0.930 . S
C2290 C2285 1.395 . S
C2290 C2287 1.386 . S
C2290 H2309 0.930 . S
Eu2291 N2288 2.605 1_545 S
Eu2291 N2292 2.657 1_545 S
Eu2291 O2325 2.380 1_545 S
Eu2291 O2326 2.432 . S
Eu2291 O2330 2.558 . S
Eu2291 O2331 2.612 . S
Eu2291 O2333 2.339 . S
Eu2291 O2334 2.563 . S
Eu2291 O2335 2.419 . S
Eu2291 C2355 2.848 . S
N2292 C2284 1.362 . S
N2292 Eu2291 2.657 1_565 S
N2292 C2293 1.334 . S
C2293 N2292 1.334 . S
C2293 C2295 1.413 . S
C2293 H2300 0.929 . S
C2294 C2282 1.392 . S
C2294 C2295 1.367 . S
C2294 H2302 0.930 . S
C2295 C2293 1.413 . S
C2295 C2294 1.367 . S
C2295 H2297 0.930 . S
H2296 C2289 0.930 . S
H2297 C2295 0.930 . S
H2298 C2286 0.930 . S
H2299 C2287 0.930 1_545 S
H2300 C2293 0.929 . S
H2301 C2315 0.930 . S
H2302 C2294 0.930 . S
H2303 C2321 0.930 . S
H2304 C2312 0.929 . S
H2305 C2319 0.930 . S
H2306 C2283 0.931 . S
H2307 C2313 0.930 . S
H2308 C2346 0.930 . S
H2309 C2290 0.930 . S
H2310 C2345 0.931 . S
N2311 Eu2280 2.657 . S
N2311 C2312 1.334 . S
N2311 C2316 1.362 . S
C2312 H2304 0.929 . S
C2312 N2311 1.334 . S
C2312 C2315 1.413 . S
C2313 H2307 0.930 . S
C2313 C2314 1.392 . S
C2313 C2315 1.367 . S
C2314 C2313 1.392 . S
C2314 C2316 1.420 . S
C2314 C2346 1.423 . S
C2315 H2301 0.930 . S
C2315 C2312 1.413 . S
C2315 C2313 1.367 . S
C2316 N2311 1.362 . S
C2316 C2314 1.420 . S
C2316 C2320 1.429 . S
H2317 C2322 0.930 . S
N2318 Eu2280 2.609 . S
N2318 C2320 1.377 . S
N2318 C2321 1.321 . S
C2319 H2305 0.930 . S
C2319 C2321 1.400 . S
C2319 C2322 1.386 . S
C2320 C2316 1.429 . S
C2320 N2318 1.377 . S
C2320 C2323 1.411 . S
C2321 H2303 0.930 . S
C2321 N2318 1.321 . S
C2321 C2319 1.400 . S
C2322 H2317 0.930 . S
C2322 C2319 1.386 . S
C2322 C2323 1.395 . S
C2323 C2320 1.411 . S
C2323 C2322 1.395 . S
C2323 C2345 1.420 . S
O2324 Eu2280 2.558 . S
O2324 C2344 1.257 . S
O2325 Eu2280 2.612 1_565 S
O2325 Eu2291 2.380 1_565 S
O2325 C2336 1.276 . S
O2326 Eu2291 2.432 . S
O2326 C2343 1.264 . S
O2327 Eu2280 2.339 . S
O2327 C2343 1.254 . S
O2328 Eu2280 2.563 1_565 S
O2328 C2336 1.235 . S
O2329 Eu2280 2.419 . S
O2329 C2344 1.249 . S
O2330 Eu2291 2.558 . S
O2330 C2355 1.257 . S
O2331 Eu2280 2.380 . S
O2331 Eu2291 2.612 . S
O2331 C2347 1.276 . S
O2332 Eu2280 2.432 . S
O2332 C2354 1.264 . S
O2333 Eu2291 2.339 . S
O2333 C2354 1.254 . S
O2334 Eu2291 2.563 . S
O2334 C2347 1.235 . S
O2335 Eu2291 2.419 . S
O2335 C2355 1.249 . S
C2336 O2325 1.276 . S
C2336 O2328 1.235 . S
C2337 C2339 1.393 . S
C2337 C2341 1.395 . S
C2337 C2344 1.492 1_565 S
C2338 C2339 1.392 . S
C2338 C2340 1.386 . S
C2339 C2337 1.393 . S
C2339 C2338 1.392 . S
C2339 H2356 0.930 . S
C2340 C2338 1.386 . S
C2340 C2342 1.395 . S
C2340 H2357 0.930 . S
C2341 C2337 1.395 . S
C2341 C2342 1.379 . S
C2341 H2358 0.930 . S
C2342 C2340 1.395 . S
C2342 C2341 1.379 . S
C2342 H2359 0.930 . S
C2343 O2326 1.264 . S
C2343 O2327 1.254 . S
C2344 Eu2280 2.848 . S
C2344 O2324 1.257 . S
C2344 O2329 1.249 . S
C2344 C2337 1.492 1_545 S
C2345 H2310 0.931 . S
C2345 C2323 1.420 . S
C2345 C2346 1.351 . S
C2346 H2308 0.930 . S
C2346 C2314 1.423 . S
C2346 C2345 1.351 . S
C2347 O2331 1.276 . S
C2347 O2334 1.235 . S
C2348 C2349 1.393 . S
C2348 C2352 1.395 . S
C2348 C2355 1.492 . S
C2349 C2348 1.393 . S
C2349 C2350 1.392 . S
C2349 H2360 0.930 . S
C2350 C2349 1.392 . S
C2350 C2351 1.386 . S
C2351 C2350 1.386 . S
C2351 C2353 1.395 . S
C2351 H2361 0.930 . S
C2352 C2348 1.395 . S
C2352 C2353 1.379 . S
C2352 H2362 0.930 . S
C2353 C2351 1.395 . S
C2353 C2352 1.379 . S
C2353 H2363 0.930 . S
C2354 O2332 1.264 . S
C2354 O2333 1.254 . S
C2355 Eu2291 2.848 . S
C2355 O2330 1.257 . S
C2355 O2335 1.249 . S
C2355 C2348 1.492 . S
H2356 C2339 0.930 . S
H2357 C2340 0.930 . S
H2358 C2341 0.930 . S
H2359 C2342 0.930 . S
H2360 C2349 0.930 . S
H2361 C2351 0.930 . S
H2362 C2352 0.930 . S
H2363 C2353 0.930 . S
Eu2364 N2395 2.657 . S
Eu2364 N2402 2.609 . S
Eu2364 O2408 2.558 . S
Eu2364 O2409 2.612 . S
Eu2364 O2411 2.339 . S
Eu2364 O2412 2.563 . S
Eu2364 O2413 2.419 . S
Eu2364 O2415 2.380 . S
Eu2364 O2416 2.432 . S
Eu2364 C2428 2.848 . S
C2365 C2368 1.429 . S
C2365 C2369 1.411 . S
C2365 N2372 1.377 . S
C2366 C2368 1.420 . S
C2366 C2370 1.423 . S
C2366 C2378 1.392 . S
C2367 C2369 1.420 . S
C2367 C2370 1.351 . S
C2367 H2390 0.931 . S
C2368 C2365 1.429 . S
C2368 C2366 1.420 . S
C2368 N2376 1.362 . S
C2369 C2365 1.411 . S
C2369 C2367 1.420 . S
C2369 C2374 1.395 . S
C2370 C2366 1.423 . S
C2370 C2367 1.351 . S
C2370 H2382 0.930 . S
C2371 C2373 1.400 . S
C2371 C2374 1.386 . S
C2371 H2383 0.930 . S
N2372 C2365 1.377 . S
N2372 C2373 1.321 . S
N2372 Eu2375 2.609 . S
C2373 C2371 1.400 . S
C2373 N2372 1.321 . S
C2373 H2380 0.930 . S
C2374 C2369 1.395 . S
C2374 C2371 1.386 . S
C2374 H2393 0.930 . S
Eu2375 N2372 2.609 . S
Eu2375 N2376 2.657 . S
Eu2375 O2409 2.380 . S
Eu2375 O2410 2.432 . S
Eu2375 O2414 2.558 . S
Eu2375 O2415 2.612 . S
Eu2375 O2417 2.339 . S
Eu2375 O2418 2.563 . S
Eu2375 O2419 2.419 . S
Eu2375 C2439 2.848 . S
N2376 C2368 1.362 . S
N2376 Eu2375 2.657 . S
N2376 C2377 1.334 . S
C2377 N2376 1.334 . S
C2377 C2379 1.413 . S
C2377 H2384 0.929 . S
C2378 C2366 1.392 . S
C2378 C2379 1.367 . S
C2378 H2386 0.930 . S
C2379 C2377 1.413 . S
C2379 C2378 1.367 . S
C2379 H2381 0.930 . S
H2380 C2373 0.930 . S
H2381 C2379 0.930 . S
H2382 C2370 0.930 . S
H2383 C2371 0.930 . S
H2384 C2377 0.929 . S
H2385 C2399 0.930 . S
H2386 C2378 0.930 . S
H2387 C2405 0.930 . S
H2388 C2396 0.929 . S
H2389 C2403 0.930 . S
H2390 C2367 0.931 . S
H2391 C2397 0.930 . S
H2392 C2430 0.930 . S
H2393 C2374 0.930 . S
H2394 C2429 0.931 . S
N2395 Eu2364 2.657 . S
N2395 C2396 1.334 . S
N2395 C2400 1.362 . S
C2396 H2388 0.929 . S
C2396 N2395 1.334 . S
C2396 C2399 1.413 . S
C2397 H2391 0.930 . S
C2397 C2398 1.392 . S
C2397 C2399 1.367 . S
C2398 C2397 1.392 . S
C2398 C2400 1.420 . S
C2398 C2430 1.423 . S
C2399 H2385 0.930 . S
C2399 C2396 1.413 . S
C2399 C2397 1.367 . S
C2400 N2395 1.362 . S
C2400 C2398 1.420 . S
C2400 C2404 1.429 . S
H2401 C2406 0.930 . S
N2402 Eu2364 2.609 . S
N2402 C2404 1.377 . S
N2402 C2405 1.321 . S
C2403 H2389 0.930 . S
C2403 C2405 1.400 . S
C2403 C2406 1.386 . S
C2404 C2400 1.429 . S
C2404 N2402 1.377 . S
C2404 C2407 1.411 . S
C2405 H2387 0.930 . S
C2405 N2402 1.321 . S
C2405 C2403 1.400 . S
C2406 H2401 0.930 . S
C2406 C2403 1.386 . S
C2406 C2407 1.395 . S
C2407 C2404 1.411 . S
C2407 C2406 1.395 . S
C2407 C2429 1.420 . S
O2408 Eu2364 2.558 . S
O2408 C2428 1.257 . S
O2409 Eu2364 2.612 . S
O2409 Eu2375 2.380 . S
O2409 C2420 1.276 . S
O2410 Eu2375 2.432 . S
O2410 C2427 1.264 . S
O2411 Eu2364 2.339 . S
O2411 C2427 1.254 . S
O2412 Eu2364 2.563 . S
O2412 C2420 1.235 . S
O2413 Eu2364 2.419 . S
O2413 C2428 1.249 . S
O2414 Eu2375 2.558 . S
O2414 C2439 1.257 . S
O2415 Eu2364 2.380 . S
O2415 Eu2375 2.612 . S
O2415 C2431 1.276 . S
O2416 Eu2364 2.432 . S
O2416 C2438 1.264 . S
O2417 Eu2375 2.339 . S
O2417 C2438 1.254 . S
O2418 Eu2375 2.563 . S
O2418 C2431 1.235 . S
O2419 Eu2375 2.419 . S
O2419 C2439 1.249 . S
C2420 O2409 1.276 . S
C2420 O2412 1.235 . S
C2421 C2423 1.393 . S
C2421 C2425 1.395 . S
C2421 C2428 1.492 . S
C2422 C2423 1.392 . S
C2422 C2424 1.386 . S
C2423 C2421 1.393 . S
C2423 C2422 1.392 . S
C2423 H2440 0.930 . S
C2424 C2422 1.386 . S
C2424 C2426 1.395 . S
C2424 H2441 0.930 . S
C2425 C2421 1.395 . S
C2425 C2426 1.379 . S
C2425 H2442 0.930 . S
C2426 C2424 1.395 . S
C2426 C2425 1.379 . S
C2426 H2443 0.930 . S
C2427 O2410 1.264 . S
C2427 O2411 1.254 . S
C2428 Eu2364 2.848 . S
C2428 O2408 1.257 . S
C2428 O2413 1.249 . S
C2428 C2421 1.492 . S
C2429 H2394 0.931 . S
C2429 C2407 1.420 . S
C2429 C2430 1.351 . S
C2430 H2392 0.930 . S
C2430 C2398 1.423 . S
C2430 C2429 1.351 . S
C2431 O2415 1.276 . S
C2431 O2418 1.235 . S
C2432 C2433 1.393 . S
C2432 C2436 1.395 . S
C2432 C2439 1.492 . S
C2433 C2432 1.393 . S
C2433 C2434 1.392 . S
C2433 H2444 0.930 . S
C2434 C2433 1.392 . S
C2434 C2435 1.386 . S
C2435 C2434 1.386 . S
C2435 C2437 1.395 . S
C2435 H2445 0.930 . S
C2436 C2432 1.395 . S
C2436 C2437 1.379 . S
C2436 H2446 0.930 . S
C2437 C2435 1.395 . S
C2437 C2436 1.379 . S
C2437 H2447 0.930 . S
C2438 O2416 1.264 . S
C2438 O2417 1.254 . S
C2439 Eu2375 2.848 . S
C2439 O2414 1.257 . S
C2439 O2419 1.249 . S
C2439 C2432 1.492 . S
H2440 C2423 0.930 . S
H2441 C2424 0.930 . S
H2442 C2425 0.930 . S
H2443 C2426 0.930 . S
H2444 C2433 0.930 . S
H2445 C2435 0.930 . S
H2446 C2436 0.930 . S
H2447 C2437 0.930 . S
Eu2448 N2479 2.657 . S
Eu2448 N2486 2.609 . S
Eu2448 O2492 2.558 . S
Eu2448 O2493 2.612 . S
Eu2448 O2495 2.339 . S
Eu2448 O2496 2.563 . S
Eu2448 O2497 2.419 . S
Eu2448 O2499 2.380 . S
Eu2448 O2500 2.432 . S
Eu2448 C2512 2.848 . S
C2449 C2452 1.429 . S
C2449 C2453 1.411 . S
C2449 N2456 1.377 . S
C2450 C2452 1.420 . S
C2450 C2454 1.423 . S
C2450 C2462 1.392 . S
C2451 C2453 1.420 . S
C2451 C2454 1.351 . S
C2451 H2474 0.931 . S
C2452 C2449 1.429 . S
C2452 C2450 1.420 . S
C2452 N2460 1.362 . S
C2453 C2449 1.411 . S
C2453 C2451 1.420 . S
C2453 C2458 1.395 . S
C2454 C2450 1.423 . S
C2454 C2451 1.351 . S
C2454 H2466 0.930 . S
C2455 C2457 1.400 . S
C2455 C2458 1.386 . S
C2455 H2467 0.930 . S
N2456 C2449 1.377 . S
N2456 C2457 1.321 . S
N2456 Eu2459 2.609 . S
C2457 C2455 1.400 . S
C2457 N2456 1.321 . S
C2457 H2464 0.930 . S
C2458 C2453 1.395 . S
C2458 C2455 1.386 . S
C2458 H2477 0.930 . S
Eu2459 N2456 2.609 . S
Eu2459 N2460 2.657 . S
Eu2459 O2493 2.380 1_565 S
Eu2459 O2494 2.432 1_565 S
Eu2459 O2498 2.558 . S
Eu2459 O2499 2.612 1_565 S
Eu2459 O2501 2.339 . S
Eu2459 O2502 2.563 . S
Eu2459 O2503 2.419 . S
Eu2459 C2523 2.848 . S
N2460 C2452 1.362 . S
N2460 Eu2459 2.657 . S
N2460 C2461 1.334 . S
C2461 N2460 1.334 . S
C2461 C2463 1.413 1_455 S
C2461 H2468 0.929 . S
C2462 C2450 1.392 . S
C2462 C2463 1.367 1_455 S
C2462 H2470 0.930 1_455 S
C2463 C2461 1.413 1_655 S
C2463 C2462 1.367 1_655 S
C2463 H2465 0.930 . S
H2464 C2457 0.930 . S
H2465 C2463 0.930 . S
H2466 C2454 0.930 . S
H2467 C2455 0.930 . S
H2468 C2461 0.929 . S
H2469 C2483 0.930 . S
H2470 C2462 0.930 1_655 S
H2471 C2489 0.930 . S
H2472 C2480 0.929 . S
H2473 C2487 0.930 1_655 S
H2474 C2451 0.931 . S
H2475 C2481 0.930 . S
H2476 C2514 0.930 . S
H2477 C2458 0.930 . S
H2478 C2513 0.931 . S
N2479 Eu2448 2.657 . S
N2479 C2480 1.334 . S
N2479 C2484 1.362 . S
C2480 H2472 0.929 . S
C2480 N2479 1.334 . S
C2480 C2483 1.413 . S
C2481 H2475 0.930 . S
C2481 C2482 1.392 . S
C2481 C2483 1.367 . S
C2482 C2481 1.392 . S
C2482 C2484 1.420 . S
C2482 C2514 1.423 . S
C2483 H2469 0.930 . S
C2483 C2480 1.413 . S
C2483 C2481 1.367 . S
C2484 N2479 1.362 . S
C2484 C2482 1.420 . S
C2484 C2488 1.429 . S
H2485 C2490 0.930 . S
N2486 Eu2448 2.609 . S
N2486 C2488 1.377 . S
N2486 C2489 1.321 . S
C2487 H2473 0.930 1_455 S
C2487 C2489 1.400 . S
C2487 C2490 1.386 . S
C2488 C2484 1.429 . S
C2488 N2486 1.377 . S
C2488 C2491 1.411 . S
C2489 H2471 0.930 . S
C2489 N2486 1.321 . S
C2489 C2487 1.400 . S
C2490 H2485 0.930 . S
C2490 C2487 1.386 . S
C2490 C2491 1.395 . S
C2491 C2488 1.411 . S
C2491 C2490 1.395 . S
C2491 C2513 1.420 . S
O2492 Eu2448 2.558 . S
O2492 C2512 1.257 . S
O2493 Eu2448 2.612 . S
O2493 Eu2459 2.380 1_545 S
O2493 C2504 1.276 . S
O2494 Eu2459 2.432 1_545 S
O2494 C2511 1.264 . S
O2495 Eu2448 2.339 . S
O2495 C2511 1.254 . S
O2496 Eu2448 2.563 . S
O2496 C2504 1.235 . S
O2497 Eu2448 2.419 . S
O2497 C2512 1.249 . S
O2498 Eu2459 2.558 . S
O2498 C2523 1.257 . S
O2499 Eu2448 2.380 . S
O2499 Eu2459 2.612 1_545 S
O2499 C2515 1.276 . S
O2500 Eu2448 2.432 . S
O2500 C2522 1.264 . S
O2501 Eu2459 2.339 . S
O2501 C2522 1.254 1_565 S
O2502 Eu2459 2.563 . S
O2502 C2515 1.235 1_565 S
O2503 Eu2459 2.419 . S
O2503 C2523 1.249 . S
C2504 O2493 1.276 . S
C2504 O2496 1.235 . S
C2505 C2507 1.393 . S
C2505 C2509 1.395 . S
C2505 C2512 1.492 . S
C2506 C2507 1.392 . S
C2506 C2508 1.386 . S
C2507 C2505 1.393 . S
C2507 C2506 1.392 . S
C2507 H2524 0.930 . S
C2508 C2506 1.386 . S
C2508 C2510 1.395 . S
C2508 H2525 0.930 . S
C2509 C2505 1.395 . S
C2509 C2510 1.379 . S
C2509 H2526 0.930 . S
C2510 C2508 1.395 . S
C2510 C2509 1.379 . S
C2510 H2527 0.930 . S
C2511 O2494 1.264 . S
C2511 O2495 1.254 . S
C2512 Eu2448 2.848 . S
C2512 O2492 1.257 . S
C2512 O2497 1.249 . S
C2512 C2505 1.492 . S
C2513 H2478 0.931 . S
C2513 C2491 1.420 . S
C2513 C2514 1.351 . S
C2514 H2476 0.930 . S
C2514 C2482 1.423 . S
C2514 C2513 1.351 . S
C2515 O2499 1.276 . S
C2515 O2502 1.235 1_545 S
C2516 C2517 1.393 . S
C2516 C2520 1.395 . S
C2516 C2523 1.492 . S
C2517 C2516 1.393 . S
C2517 C2518 1.392 . S
C2517 H2528 0.930 . S
C2518 C2517 1.392 . S
C2518 C2519 1.386 . S
C2519 C2518 1.386 . S
C2519 C2521 1.395 . S
C2519 H2529 0.930 . S
C2520 C2516 1.395 . S
C2520 C2521 1.379 . S
C2520 H2530 0.930 . S
C2521 C2519 1.395 . S
C2521 C2520 1.379 . S
C2521 H2531 0.930 . S
C2522 O2500 1.264 . S
C2522 O2501 1.254 1_545 S
C2523 Eu2459 2.848 . S
C2523 O2498 1.257 . S
C2523 O2503 1.249 . S
C2523 C2516 1.492 . S
H2524 C2507 0.930 . S
H2525 C2508 0.930 . S
H2526 C2509 0.930 . S
H2527 C2510 0.930 . S
H2528 C2517 0.930 . S
H2529 C2519 0.930 . S
H2530 C2520 0.930 . S
H2531 C2521 0.930 . S
Eu2532 N2563 2.657 . S
Eu2532 N2570 2.609 . S
Eu2532 O2576 2.558 . S
Eu2532 O2577 2.612 . S
Eu2532 O2579 2.339 . S
Eu2532 O2580 2.563 . S
Eu2532 O2581 2.419 . S
Eu2532 O2583 2.380 . S
Eu2532 O2584 2.432 . S
Eu2532 C2596 2.848 . S
C2533 C2536 1.429 . S
C2533 C2537 1.411 . S
C2533 N2540 1.377 . S
C2534 C2536 1.420 . S
C2534 C2538 1.423 . S
C2534 C2546 1.392 . S
C2535 C2537 1.420 . S
C2535 C2538 1.351 . S
C2535 H2558 0.931 . S
C2536 C2533 1.429 . S
C2536 C2534 1.420 . S
C2536 N2544 1.362 . S
C2537 C2533 1.411 . S
C2537 C2535 1.420 . S
C2537 C2542 1.395 . S
C2538 C2534 1.423 . S
C2538 C2535 1.351 . S
C2538 H2550 0.930 . S
C2539 C2541 1.400 . S
C2539 C2542 1.386 . S
C2539 H2551 0.930 . S
N2540 C2533 1.377 . S
N2540 C2541 1.321 . S
N2540 Eu2543 2.609 . S
C2541 C2539 1.400 . S
C2541 N2540 1.321 . S
C2541 H2548 0.930 . S
C2542 C2537 1.395 . S
C2542 C2539 1.386 . S
C2542 H2561 0.930 . S
Eu2543 N2540 2.609 . S
Eu2543 N2544 2.657 . S
Eu2543 O2577 2.380 . S
Eu2543 O2578 2.432 . S
Eu2543 O2582 2.558 . S
Eu2543 O2583 2.612 . S
Eu2543 O2585 2.339 . S
Eu2543 O2586 2.563 . S
Eu2543 O2587 2.419 . S
Eu2543 C2607 2.848 . S
N2544 C2536 1.362 . S
N2544 Eu2543 2.657 . S
N2544 C2545 1.334 . S
C2545 N2544 1.334 . S
C2545 C2547 1.413 . S
C2545 H2552 0.929 . S
C2546 C2534 1.392 . S
C2546 C2547 1.367 . S
C2546 H2554 0.930 . S
C2547 C2545 1.413 . S
C2547 C2546 1.367 . S
C2547 H2549 0.930 . S
H2548 C2541 0.930 . S
H2549 C2547 0.930 . S
H2550 C2538 0.930 . S
H2551 C2539 0.930 . S
H2552 C2545 0.929 . S
H2553 C2567 0.930 . S
H2554 C2546 0.930 . S
H2555 C2573 0.930 . S
H2556 C2564 0.929 . S
H2557 C2571 0.930 . S
H2558 C2535 0.931 . S
H2559 C2565 0.930 . S
H2560 C2598 0.930 . S
H2561 C2542 0.930 . S
H2562 C2597 0.931 . S
N2563 Eu2532 2.657 . S
N2563 C2564 1.334 . S
N2563 C2568 1.362 . S
C2564 H2556 0.929 . S
C2564 N2563 1.334 . S
C2564 C2567 1.413 . S
C2565 H2559 0.930 . S
C2565 C2566 1.392 . S
C2565 C2567 1.367 . S
C2566 C2565 1.392 . S
C2566 C2568 1.420 . S
C2566 C2598 1.423 . S
C2567 H2553 0.930 . S
C2567 C2564 1.413 . S
C2567 C2565 1.367 . S
C2568 N2563 1.362 . S
C2568 C2566 1.420 . S
C2568 C2572 1.429 . S
H2569 C2574 0.930 . S
N2570 Eu2532 2.609 . S
N2570 C2572 1.377 . S
N2570 C2573 1.321 . S
C2571 H2557 0.930 . S
C2571 C2573 1.400 . S
C2571 C2574 1.386 . S
C2572 C2568 1.429 . S
C2572 N2570 1.377 . S
C2572 C2575 1.411 . S
C2573 H2555 0.930 . S
C2573 N2570 1.321 . S
C2573 C2571 1.400 . S
C2574 H2569 0.930 . S
C2574 C2571 1.386 . S
C2574 C2575 1.395 . S
C2575 C2572 1.411 . S
C2575 C2574 1.395 . S
C2575 C2597 1.420 . S
O2576 Eu2532 2.558 . S
O2576 C2596 1.257 . S
O2577 Eu2532 2.612 . S
O2577 Eu2543 2.380 . S
O2577 C2588 1.276 . S
O2578 Eu2543 2.432 . S
O2578 C2595 1.264 . S
O2579 Eu2532 2.339 . S
O2579 C2595 1.254 . S
O2580 Eu2532 2.563 . S
O2580 C2588 1.235 . S
O2581 Eu2532 2.419 . S
O2581 C2596 1.249 . S
O2582 Eu2543 2.558 . S
O2582 C2607 1.257 . S
O2583 Eu2532 2.380 . S
O2583 Eu2543 2.612 . S
O2583 C2599 1.276 . S
O2584 Eu2532 2.432 . S
O2584 C2606 1.264 . S
O2585 Eu2543 2.339 . S
O2585 C2606 1.254 . S
O2586 Eu2543 2.563 . S
O2586 C2599 1.235 . S
O2587 Eu2543 2.419 . S
O2587 C2607 1.249 . S
C2588 O2577 1.276 . S
C2588 O2580 1.235 . S
C2589 C2591 1.393 . S
C2589 C2593 1.395 . S
C2589 C2596 1.492 . S
C2590 C2591 1.392 . S
C2590 C2592 1.386 . S
C2591 C2589 1.393 . S
C2591 C2590 1.392 . S
C2591 H2608 0.930 . S
C2592 C2590 1.386 . S
C2592 C2594 1.395 . S
C2592 H2609 0.930 . S
C2593 C2589 1.395 . S
C2593 C2594 1.379 . S
C2593 H2610 0.930 . S
C2594 C2592 1.395 . S
C2594 C2593 1.379 . S
C2594 H2611 0.930 . S
C2595 O2578 1.264 . S
C2595 O2579 1.254 . S
C2596 Eu2532 2.848 . S
C2596 O2576 1.257 . S
C2596 O2581 1.249 . S
C2596 C2589 1.492 . S
C2597 H2562 0.931 . S
C2597 C2575 1.420 . S
C2597 C2598 1.351 . S
C2598 H2560 0.930 . S
C2598 C2566 1.423 . S
C2598 C2597 1.351 . S
C2599 O2583 1.276 . S
C2599 O2586 1.235 . S
C2600 C2601 1.393 . S
C2600 C2604 1.395 . S
C2600 C2607 1.492 . S
C2601 C2600 1.393 . S
C2601 C2602 1.392 . S
C2601 H2612 0.930 . S
C2602 C2601 1.392 . S
C2602 C2603 1.386 . S
C2603 C2602 1.386 . S
C2603 C2605 1.395 . S
C2603 H2613 0.930 . S
C2604 C2600 1.395 . S
C2604 C2605 1.379 . S
C2604 H2614 0.930 . S
C2605 C2603 1.395 . S
C2605 C2604 1.379 . S
C2605 H2615 0.930 . S
C2606 O2584 1.264 . S
C2606 O2585 1.254 . S
C2607 Eu2543 2.848 . S
C2607 O2582 1.257 . S
C2607 O2587 1.249 . S
C2607 C2600 1.492 . S
H2608 C2591 0.930 . S
H2609 C2592 0.930 . S
H2610 C2593 0.930 . S
H2611 C2594 0.930 . S
H2612 C2601 0.930 . S
H2613 C2603 0.930 . S
H2614 C2604 0.930 . S
H2615 C2605 0.930 . S
Eu2616 N2647 2.657 . S
Eu2616 N2654 2.609 1_545 S
Eu2616 O2660 2.558 1_545 S
Eu2616 O2661 2.612 . S
Eu2616 O2663 2.339 . S
Eu2616 O2664 2.563 1_545 S
Eu2616 O2665 2.419 . S
Eu2616 O2667 2.380 . S
Eu2616 O2668 2.432 1_545 S
Eu2616 C2680 2.848 1_545 S
C2617 C2620 1.429 . S
C2617 C2621 1.411 . S
C2617 N2624 1.377 . S
C2618 C2620 1.420 1_565 S
C2618 C2622 1.423 1_565 S
C2618 C2630 1.392 . S
C2619 C2621 1.420 . S
C2619 C2622 1.351 . S
C2619 H2642 0.931 . S
C2620 C2617 1.429 . S
C2620 C2618 1.420 1_545 S
C2620 N2628 1.362 . S
C2621 C2617 1.411 . S
C2621 C2619 1.420 . S
C2621 C2626 1.395 . S
C2622 C2618 1.423 1_545 S
C2622 C2619 1.351 . S
C2622 H2634 0.930 1_545 S
C2623 C2625 1.400 . S
C2623 C2626 1.386 . S
C2623 H2635 0.930 . S
N2624 C2617 1.377 . S
N2624 C2625 1.321 . S
N2624 Eu2627 2.609 . S
C2625 C2623 1.400 . S
C2625 N2624 1.321 . S
C2625 H2632 0.930 . S
C2626 C2621 1.395 . S
C2626 C2623 1.386 . S
C2626 H2645 0.930 . S
Eu2627 N2624 2.609 . S
Eu2627 N2628 2.657 . S
Eu2627 O2661 2.380 1_556 S
Eu2627 O2662 2.432 1_556 S
Eu2627 O2666 2.558 . S
Eu2627 O2667 2.612 1_556 S
Eu2627 O2669 2.339 1_545 S
Eu2627 O2670 2.563 . S
Eu2627 O2671 2.419 . S
Eu2627 C2691 2.848 . S
N2628 C2620 1.362 . S
N2628 Eu2627 2.657 . S
N2628 C2629 1.334 1_545 S
C2629 N2628 1.334 1_565 S
C2629 C2631 1.413 . S
C2629 H2636 0.929 . S
C2630 C2618 1.392 . S
C2630 C2631 1.367 . S
C2630 H2638 0.930 . S
C2631 C2629 1.413 . S
C2631 C2630 1.367 . S
C2631 H2633 0.930 . S
H2632 C2625 0.930 . S
H2633 C2631 0.930 . S
H2634 C2622 0.930 1_565 S
H2635 C2623 0.930 . S
H2636 C2629 0.929 . S
H2637 C2651 0.930 . S
H2638 C2630 0.930 . S
H2639 C2657 0.930 . S
H2640 C2648 0.929 . S
H2641 C2655 0.930 . S
H2642 C2619 0.931 . S
H2643 C2649 0.930 . S
H2644 C2682 0.930 . S
H2645 C2626 0.930 . S
H2646 C2681 0.931 . S
N2647 Eu2616 2.657 . S
N2647 C2648 1.334 . S
N2647 C2652 1.362 . S
C2648 H2640 0.929 . S
C2648 N2647 1.334 . S
C2648 C2651 1.413 . S
C2649 H2643 0.930 . S
C2649 C2650 1.392 . S
C2649 C2651 1.367 . S
C2650 C2649 1.392 . S
C2650 C2652 1.420 . S
C2650 C2682 1.423 . S
C2651 H2637 0.930 . S
C2651 C2648 1.413 . S
C2651 C2649 1.367 . S
C2652 N2647 1.362 . S
C2652 C2650 1.420 . S
C2652 C2656 1.429 . S
H2653 C2658 0.930 . S
N2654 Eu2616 2.609 1_565 S
N2654 C2656 1.377 1_565 S
N2654 C2657 1.321 . S
C2655 H2641 0.930 . S
C2655 C2657 1.400 . S
C2655 C2658 1.386 . S
C2656 C2652 1.429 . S
C2656 N2654 1.377 1_545 S
C2656 C2659 1.411 . S
C2657 H2639 0.930 . S
C2657 N2654 1.321 . S
C2657 C2655 1.400 . S
C2658 H2653 0.930 . S
C2658 C2655 1.386 . S
C2658 C2659 1.395 1_565 S
C2659 C2656 1.411 . S
C2659 C2658 1.395 1_545 S
C2659 C2681 1.420 . S
O2660 Eu2616 2.558 1_565 S
O2660 C2680 1.257 . S
O2661 Eu2616 2.612 . S
O2661 Eu2627 2.380 1_554 S
O2661 C2672 1.276 . S
O2662 Eu2627 2.432 1_554 S
O2662 C2679 1.264 . S
O2663 Eu2616 2.339 . S
O2663 C2679 1.254 . S
O2664 Eu2616 2.563 1_565 S
O2664 C2672 1.235 1_565 S
O2665 Eu2616 2.419 . S
O2665 C2680 1.249 1_545 S
O2666 Eu2627 2.558 . S
O2666 C2691 1.257 . S
O2667 Eu2616 2.380 . S
O2667 Eu2627 2.612 1_554 S
O2667 C2683 1.276 . S
O2668 Eu2616 2.432 1_565 S
O2668 C2690 1.264 1_554 S
O2669 Eu2627 2.339 1_565 S
O2669 C2690 1.254 . S
O2670 Eu2627 2.563 . S
O2670 C2683 1.235 1_556 S
O2671 Eu2627 2.419 . S
O2671 C2691 1.249 . S
C2672 O2661 1.276 . S
C2672 O2664 1.235 1_545 S
C2673 C2675 1.393 1_565 S
C2673 C2677 1.395 . S
C2673 C2680 1.492 . S
C2674 C2675 1.392 1_565 S
C2674 C2676 1.386 . S
C2675 C2673 1.393 1_545 S
C2675 C2674 1.392 1_545 S
C2675 H2692 0.930 . S
C2676 C2674 1.386 . S
C2676 C2678 1.395 . S
C2676 H2693 0.930 . S
C2677 C2673 1.395 . S
C2677 C2678 1.379 . S
C2677 H2694 0.930 . S
C2678 C2676 1.395 . S
C2678 C2677 1.379 . S
C2678 H2695 0.930 . S
C2679 O2662 1.264 . S
C2679 O2663 1.254 . S
C2680 Eu2616 2.848 1_565 S
C2680 O2660 1.257 . S
C2680 O2665 1.249 1_565 S
C2680 C2673 1.492 . S
C2681 H2646 0.931 . S
C2681 C2659 1.420 . S
C2681 C2682 1.351 . S
C2682 H2644 0.930 . S
C2682 C2650 1.423 . S
C2682 C2681 1.351 . S
C2683 O2667 1.276 . S
C2683 O2670 1.235 1_554 S
C2684 C2685 1.393 . S
C2684 C2688 1.395 . S
C2684 C2691 1.492 . S
C2685 C2684 1.393 . S
C2685 C2686 1.392 . S
C2685 H2696 0.930 . S
C2686 C2685 1.392 . S
C2686 C2687 1.386 . S
C2687 C2686 1.386 . S
C2687 C2689 1.395 . S
C2687 H2697 0.930 . S
C2688 C2684 1.395 . S
C2688 C2689 1.379 . S
C2688 H2698 0.930 . S
C2689 C2687 1.395 . S
C2689 C2688 1.379 . S
C2689 H2699 0.930 . S
C2690 O2668 1.264 1_556 S
C2690 O2669 1.254 . S
C2691 Eu2627 2.848 . S
C2691 O2666 1.257 . S
C2691 O2671 1.249 . S
C2691 C2684 1.492 . S
H2692 C2675 0.930 . S
H2693 C2676 0.930 . S
H2694 C2677 0.930 . S
H2695 C2678 0.930 . S
H2696 C2685 0.930 . S
H2697 C2687 0.930 . S
H2698 C2688 0.930 . S
H2699 C2689 0.930 . S
Eu2700 N2731 2.657 . S
Eu2700 N2738 2.609 . S
Eu2700 O2744 2.558 . S
Eu2700 O2745 2.612 . S
Eu2700 O2747 2.339 . S
Eu2700 O2748 2.563 . S
Eu2700 O2749 2.419 . S
Eu2700 O2751 2.380 . S
Eu2700 O2752 2.432 . S
Eu2700 C2764 2.848 . S
C2701 C2704 1.429 . S
C2701 C2705 1.411 . S
C2701 N2708 1.377 . S
C2702 C2704 1.420 . S
C2702 C2706 1.423 . S
C2702 C2714 1.392 . S
C2703 C2705 1.420 . S
C2703 C2706 1.351 . S
C2703 H2726 0.931 . S
C2704 C2701 1.429 . S
C2704 C2702 1.420 . S
C2704 N2712 1.362 . S
C2705 C2701 1.411 . S
C2705 C2703 1.420 . S
C2705 C2710 1.395 . S
C2706 C2702 1.423 . S
C2706 C2703 1.351 . S
C2706 H2718 0.930 . S
C2707 C2709 1.400 . S
C2707 C2710 1.386 . S
C2707 H2719 0.930 . S
N2708 C2701 1.377 . S
N2708 C2709 1.321 . S
N2708 Eu2711 2.609 . S
C2709 C2707 1.400 . S
C2709 N2708 1.321 . S
C2709 H2716 0.930 . S
C2710 C2705 1.395 . S
C2710 C2707 1.386 . S
C2710 H2729 0.930 . S
Eu2711 N2708 2.609 . S
Eu2711 N2712 2.657 . S
Eu2711 O2745 2.380 . S
Eu2711 O2746 2.432 . S
Eu2711 O2750 2.558 . S
Eu2711 O2751 2.612 . S
Eu2711 O2753 2.339 . S
Eu2711 O2754 2.563 . S
Eu2711 O2755 2.419 . S
Eu2711 C2775 2.848 . S
N2712 C2704 1.362 . S
N2712 Eu2711 2.657 . S
N2712 C2713 1.334 . S
C2713 N2712 1.334 . S
C2713 C2715 1.413 . S
C2713 H2720 0.929 . S
C2714 C2702 1.392 . S
C2714 C2715 1.367 . S
C2714 H2722 0.930 . S
C2715 C2713 1.413 . S
C2715 C2714 1.367 . S
C2715 H2717 0.930 . S
H2716 C2709 0.930 . S
H2717 C2715 0.930 . S
H2718 C2706 0.930 . S
H2719 C2707 0.930 . S
H2720 C2713 0.929 . S
H2721 C2735 0.930 . S
H2722 C2714 0.930 . S
H2723 C2741 0.930 . S
H2724 C2732 0.929 . S
H2725 C2739 0.930 . S
H2726 C2703 0.931 . S
H2727 C2733 0.930 . S
H2728 C2766 0.930 . S
H2729 C2710 0.930 . S
H2730 C2765 0.931 . S
N2731 Eu2700 2.657 . S
N2731 C2732 1.334 . S
N2731 C2736 1.362 . S
C2732 H2724 0.929 . S
C2732 N2731 1.334 . S
C2732 C2735 1.413 . S
C2733 H2727 0.930 . S
C2733 C2734 1.392 . S
C2733 C2735 1.367 . S
C2734 C2733 1.392 . S
C2734 C2736 1.420 . S
C2734 C2766 1.423 . S
C2735 H2721 0.930 . S
C2735 C2732 1.413 . S
C2735 C2733 1.367 . S
C2736 N2731 1.362 . S
C2736 C2734 1.420 . S
C2736 C2740 1.429 . S
H2737 C2742 0.930 . S
N2738 Eu2700 2.609 . S
N2738 C2740 1.377 . S
N2738 C2741 1.321 . S
C2739 H2725 0.930 . S
C2739 C2741 1.400 . S
C2739 C2742 1.386 . S
C2740 C2736 1.429 . S
C2740 N2738 1.377 . S
C2740 C2743 1.411 . S
C2741 H2723 0.930 . S
C2741 N2738 1.321 . S
C2741 C2739 1.400 . S
C2742 H2737 0.930 . S
C2742 C2739 1.386 . S
C2742 C2743 1.395 . S
C2743 C2740 1.411 . S
C2743 C2742 1.395 . S
C2743 C2765 1.420 . S
O2744 Eu2700 2.558 . S
O2744 C2764 1.257 . S
O2745 Eu2700 2.612 . S
O2745 Eu2711 2.380 . S
O2745 C2756 1.276 . S
O2746 Eu2711 2.432 . S
O2746 C2763 1.264 . S
O2747 Eu2700 2.339 . S
O2747 C2763 1.254 . S
O2748 Eu2700 2.563 . S
O2748 C2756 1.235 . S
O2749 Eu2700 2.419 . S
O2749 C2764 1.249 . S
O2750 Eu2711 2.558 . S
O2750 C2775 1.257 . S
O2751 Eu2700 2.380 . S
O2751 Eu2711 2.612 . S
O2751 C2767 1.276 . S
O2752 Eu2700 2.432 . S
O2752 C2774 1.264 . S
O2753 Eu2711 2.339 . S
O2753 C2774 1.254 . S
O2754 Eu2711 2.563 . S
O2754 C2767 1.235 . S
O2755 Eu2711 2.419 . S
O2755 C2775 1.249 . S
C2756 O2745 1.276 . S
C2756 O2748 1.235 . S
C2757 C2759 1.393 . S
C2757 C2761 1.395 . S
C2757 C2764 1.492 . S
C2758 C2759 1.392 . S
C2758 C2760 1.386 . S
C2759 C2757 1.393 . S
C2759 C2758 1.392 . S
C2759 H2776 0.930 . S
C2760 C2758 1.386 . S
C2760 C2762 1.395 . S
C2760 H2777 0.930 . S
C2761 C2757 1.395 . S
C2761 C2762 1.379 . S
C2761 H2778 0.930 . S
C2762 C2760 1.395 . S
C2762 C2761 1.379 . S
C2762 H2779 0.930 . S
C2763 O2746 1.264 . S
C2763 O2747 1.254 . S
C2764 Eu2700 2.848 . S
C2764 O2744 1.257 . S
C2764 O2749 1.249 . S
C2764 C2757 1.492 . S
C2765 H2730 0.931 . S
C2765 C2743 1.420 . S
C2765 C2766 1.351 . S
C2766 H2728 0.930 . S
C2766 C2734 1.423 . S
C2766 C2765 1.351 . S
C2767 O2751 1.276 . S
C2767 O2754 1.235 . S
C2768 C2769 1.393 . S
C2768 C2772 1.395 . S
C2768 C2775 1.492 . S
C2769 C2768 1.393 . S
C2769 C2770 1.392 . S
C2769 H2780 0.930 . S
C2770 C2769 1.392 . S
C2770 C2771 1.386 . S
C2771 C2770 1.386 . S
C2771 C2773 1.395 . S
C2771 H2781 0.930 . S
C2772 C2768 1.395 . S
C2772 C2773 1.379 . S
C2772 H2782 0.930 . S
C2773 C2771 1.395 . S
C2773 C2772 1.379 . S
C2773 H2783 0.930 . S
C2774 O2752 1.264 . S
C2774 O2753 1.254 . S
C2775 Eu2711 2.848 . S
C2775 O2750 1.257 . S
C2775 O2755 1.249 . S
C2775 C2768 1.492 . S
H2776 C2759 0.930 . S
H2777 C2760 0.930 . S
H2778 C2761 0.930 . S
H2779 C2762 0.930 . S
H2780 C2769 0.930 . S
H2781 C2771 0.930 . S
H2782 C2772 0.930 . S
H2783 C2773 0.930 . S
Eu2784 N2815 2.657 . S
Eu2784 N2822 2.609 . S
Eu2784 O2828 2.558 . S
Eu2784 O2829 2.612 1_554 S
Eu2784 O2831 2.339 . S
Eu2784 O2832 2.563 1_554 S
Eu2784 O2833 2.419 . S
Eu2784 O2835 2.380 . S
Eu2784 O2836 2.432 . S
Eu2784 C2848 2.848 . S
C2785 C2788 1.429 . S
C2785 C2789 1.411 . S
C2785 N2792 1.377 . S
C2786 C2788 1.420 . S
C2786 C2790 1.423 . S
C2786 C2798 1.392 . S
C2787 C2789 1.420 . S
C2787 C2790 1.351 . S
C2787 H2810 0.931 . S
C2788 C2785 1.429 . S
C2788 C2786 1.420 . S
C2788 N2796 1.362 . S
C2789 C2785 1.411 . S
C2789 C2787 1.420 . S
C2789 C2794 1.395 . S
C2790 C2786 1.423 . S
C2790 C2787 1.351 . S
C2790 H2802 0.930 . S
C2791 C2793 1.400 . S
C2791 C2794 1.386 . S
C2791 H2803 0.930 . S
N2792 C2785 1.377 . S
N2792 C2793 1.321 . S
N2792 Eu2795 2.609 1_556 S
C2793 C2791 1.400 . S
C2793 N2792 1.321 . S
C2793 H2800 0.930 . S
C2794 C2789 1.395 . S
C2794 C2791 1.386 . S
C2794 H2813 0.930 . S
Eu2795 N2792 2.609 1_554 S
Eu2795 N2796 2.657 1_554 S
Eu2795 O2829 2.380 1_554 S
Eu2795 O2830 2.432 . S
Eu2795 O2834 2.558 . S
Eu2795 O2835 2.612 . S
Eu2795 O2837 2.339 . S
Eu2795 O2838 2.563 . S
Eu2795 O2839 2.419 . S
Eu2795 C2859 2.848 . S
N2796 C2788 1.362 . S
N2796 Eu2795 2.657 1_556 S
N2796 C2797 1.334 . S
C2797 N2796 1.334 . S
C2797 C2799 1.413 . S
C2797 H2804 0.929 . S
C2798 C2786 1.392 . S
C2798 C2799 1.367 . S
C2798 H2806 0.930 . S
C2799 C2797 1.413 . S
C2799 C2798 1.367 . S
C2799 H2801 0.930 . S
H2800 C2793 0.930 . S
H2801 C2799 0.930 . S
H2802 C2790 0.930 . S
H2803 C2791 0.930 . S
H2804 C2797 0.929 . S
H2805 C2819 0.930 . S
H2806 C2798 0.930 . S
H2807 C2825 0.930 . S
H2808 C2816 0.929 . S
H2809 C2823 0.930 . S
H2810 C2787 0.931 . S
H2811 C2817 0.930 . S
H2812 C2850 0.930 . S
H2813 C2794 0.930 . S
H2814 C2849 0.931 . S
N2815 Eu2784 2.657 . S
N2815 C2816 1.334 . S
N2815 C2820 1.362 . S
C2816 H2808 0.929 . S
C2816 N2815 1.334 . S
C2816 C2819 1.413 . S
C2817 H2811 0.930 . S
C2817 C2818 1.392 . S
C2817 C2819 1.367 . S
C2818 C2817 1.392 . S
C2818 C2820 1.420 . S
C2818 C2850 1.423 . S
C2819 H2805 0.930 . S
C2819 C2816 1.413 . S
C2819 C2817 1.367 . S
C2820 N2815 1.362 . S
C2820 C2818 1.420 . S
C2820 C2824 1.429 . S
H2821 C2826 0.930 . S
N2822 Eu2784 2.609 . S
N2822 C2824 1.377 . S
N2822 C2825 1.321 . S
C2823 H2809 0.930 . S
C2823 C2825 1.400 . S
C2823 C2826 1.386 . S
C2824 C2820 1.429 . S
C2824 N2822 1.377 . S
C2824 C2827 1.411 . S
C2825 H2807 0.930 . S
C2825 N2822 1.321 . S
C2825 C2823 1.400 . S
C2826 H2821 0.930 . S
C2826 C2823 1.386 . S
C2826 C2827 1.395 . S
C2827 C2824 1.411 . S
C2827 C2826 1.395 . S
C2827 C2849 1.420 . S
O2828 Eu2784 2.558 . S
O2828 C2848 1.257 . S
O2829 Eu2784 2.612 1_556 S
O2829 Eu2795 2.380 1_556 S
O2829 C2840 1.276 . S
O2830 Eu2795 2.432 . S
O2830 C2847 1.264 . S
O2831 Eu2784 2.339 . S
O2831 C2847 1.254 . S
O2832 Eu2784 2.563 1_556 S
O2832 C2840 1.235 . S
O2833 Eu2784 2.419 . S
O2833 C2848 1.249 . S
O2834 Eu2795 2.558 . S
O2834 C2859 1.257 . S
O2835 Eu2784 2.380 . S
O2835 Eu2795 2.612 . S
O2835 C2851 1.276 . S
O2836 Eu2784 2.432 . S
O2836 C2858 1.264 . S
O2837 Eu2795 2.339 . S
O2837 C2858 1.254 . S
O2838 Eu2795 2.563 . S
O2838 C2851 1.235 . S
O2839 Eu2795 2.419 . S
O2839 C2859 1.249 . S
C2840 O2829 1.276 . S
C2840 O2832 1.235 . S
C2841 C2843 1.393 . S
C2841 C2845 1.395 . S
C2841 C2848 1.492 . S
C2842 C2843 1.392 1_556 S
C2842 C2844 1.386 1_556 S
C2843 C2841 1.393 . S
C2843 C2842 1.392 1_554 S
C2843 H2860 0.930 1_554 S
C2844 C2842 1.386 1_554 S
C2844 C2846 1.395 . S
C2844 H2861 0.930 . S
C2845 C2841 1.395 . S
C2845 C2846 1.379 . S
C2845 H2862 0.930 . S
C2846 C2844 1.395 . S
C2846 C2845 1.379 . S
C2846 H2863 0.930 . S
C2847 O2830 1.264 . S
C2847 O2831 1.254 . S
C2848 Eu2784 2.848 . S
C2848 O2828 1.257 . S
C2848 O2833 1.249 . S
C2848 C2841 1.492 . S
C2849 H2814 0.931 . S
C2849 C2827 1.420 . S
C2849 C2850 1.351 . S
C2850 H2812 0.930 . S
C2850 C2818 1.423 . S
C2850 C2849 1.351 . S
C2851 O2835 1.276 . S
C2851 O2838 1.235 . S
C2852 C2853 1.393 . S
C2852 C2856 1.395 . S
C2852 C2859 1.492 . S
C2853 C2852 1.393 . S
C2853 C2854 1.392 . S
C2853 H2864 0.930 . S
C2854 C2853 1.392 . S
C2854 C2855 1.386 . S
C2855 C2854 1.386 . S
C2855 C2857 1.395 . S
C2855 H2865 0.930 . S
C2856 C2852 1.395 . S
C2856 C2857 1.379 . S
C2856 H2866 0.930 1_554 S
C2857 C2855 1.395 . S
C2857 C2856 1.379 . S
C2857 H2867 0.930 . S
C2858 O2836 1.264 . S
C2858 O2837 1.254 . S
C2859 Eu2795 2.848 . S
C2859 O2834 1.257 . S
C2859 O2839 1.249 . S
C2859 C2852 1.492 . S
H2860 C2843 0.930 1_556 S
H2861 C2844 0.930 . S
H2862 C2845 0.930 . S
H2863 C2846 0.930 . S
H2864 C2853 0.930 . S
H2865 C2855 0.930 . S
H2866 C2856 0.930 1_556 S
H2867 C2857 0.930 . S
Eu2868 N2899 2.657 . S
Eu2868 N2906 2.609 . S
Eu2868 O2912 2.558 . S
Eu2868 O2913 2.612 . S
Eu2868 O2915 2.339 . S
Eu2868 O2916 2.563 . S
Eu2868 O2917 2.419 . S
Eu2868 O2919 2.380 . S
Eu2868 O2920 2.432 . S
Eu2868 C2932 2.848 . S
C2869 C2872 1.429 . S
C2869 C2873 1.411 . S
C2869 N2876 1.377 . S
C2870 C2872 1.420 . S
C2870 C2874 1.423 . S
C2870 C2882 1.392 . S
C2871 C2873 1.420 . S
C2871 C2874 1.351 . S
C2871 H2894 0.931 . S
C2872 C2869 1.429 . S
C2872 C2870 1.420 . S
C2872 N2880 1.362 . S
C2873 C2869 1.411 . S
C2873 C2871 1.420 . S
C2873 C2878 1.395 . S
C2874 C2870 1.423 . S
C2874 C2871 1.351 . S
C2874 H2886 0.930 . S
C2875 C2877 1.400 . S
C2875 C2878 1.386 . S
C2875 H2887 0.930 . S
N2876 C2869 1.377 . S
N2876 C2877 1.321 . S
N2876 Eu2879 2.609 . S
C2877 C2875 1.400 . S
C2877 N2876 1.321 . S
C2877 H2884 0.930 . S
C2878 C2873 1.395 . S
C2878 C2875 1.386 . S
C2878 H2897 0.930 . S
Eu2879 N2876 2.609 . S
Eu2879 N2880 2.657 . S
Eu2879 O2913 2.380 . S
Eu2879 O2914 2.432 . S
Eu2879 O2918 2.558 . S
Eu2879 O2919 2.612 . S
Eu2879 O2921 2.339 . S
Eu2879 O2922 2.563 . S
Eu2879 O2923 2.419 . S
Eu2879 C2943 2.848 . S
N2880 C2872 1.362 . S
N2880 Eu2879 2.657 . S
N2880 C2881 1.334 . S
C2881 N2880 1.334 . S
C2881 C2883 1.413 . S
C2881 H2888 0.929 . S
C2882 C2870 1.392 . S
C2882 C2883 1.367 . S
C2882 H2890 0.930 . S
C2883 C2881 1.413 . S
C2883 C2882 1.367 . S
C2883 H2885 0.930 . S
H2884 C2877 0.930 . S
H2885 C2883 0.930 . S
H2886 C2874 0.930 . S
H2887 C2875 0.930 . S
H2888 C2881 0.929 . S
H2889 C2903 0.930 . S
H2890 C2882 0.930 . S
H2891 C2909 0.930 . S
H2892 C2900 0.929 . S
H2893 C2907 0.930 . S
H2894 C2871 0.931 . S
H2895 C2901 0.930 . S
H2896 C2934 0.930 . S
H2897 C2878 0.930 . S
H2898 C2933 0.931 . S
N2899 Eu2868 2.657 . S
N2899 C2900 1.334 . S
N2899 C2904 1.362 . S
C2900 H2892 0.929 . S
C2900 N2899 1.334 . S
C2900 C2903 1.413 . S
C2901 H2895 0.930 . S
C2901 C2902 1.392 . S
C2901 C2903 1.367 . S
C2902 C2901 1.392 . S
C2902 C2904 1.420 . S
C2902 C2934 1.423 . S
C2903 H2889 0.930 . S
C2903 C2900 1.413 . S
C2903 C2901 1.367 . S
C2904 N2899 1.362 . S
C2904 C2902 1.420 . S
C2904 C2908 1.429 . S
H2905 C2910 0.930 . S
N2906 Eu2868 2.609 . S
N2906 C2908 1.377 . S
N2906 C2909 1.321 . S
C2907 H2893 0.930 . S
C2907 C2909 1.400 . S
C2907 C2910 1.386 . S
C2908 C2904 1.429 . S
C2908 N2906 1.377 . S
C2908 C2911 1.411 . S
C2909 H2891 0.930 . S
C2909 N2906 1.321 . S
C2909 C2907 1.400 . S
C2910 H2905 0.930 . S
C2910 C2907 1.386 . S
C2910 C2911 1.395 . S
C2911 C2908 1.411 . S
C2911 C2910 1.395 . S
C2911 C2933 1.420 . S
O2912 Eu2868 2.558 . S
O2912 C2932 1.257 . S
O2913 Eu2868 2.612 . S
O2913 Eu2879 2.380 . S
O2913 C2924 1.276 . S
O2914 Eu2879 2.432 . S
O2914 C2931 1.264 . S
O2915 Eu2868 2.339 . S
O2915 C2931 1.254 . S
O2916 Eu2868 2.563 . S
O2916 C2924 1.235 . S
O2917 Eu2868 2.419 . S
O2917 C2932 1.249 . S
O2918 Eu2879 2.558 . S
O2918 C2943 1.257 . S
O2919 Eu2868 2.380 . S
O2919 Eu2879 2.612 . S
O2919 C2935 1.276 . S
O2920 Eu2868 2.432 . S
O2920 C2942 1.264 . S
O2921 Eu2879 2.339 . S
O2921 C2942 1.254 . S
O2922 Eu2879 2.563 . S
O2922 C2935 1.235 . S
O2923 Eu2879 2.419 . S
O2923 C2943 1.249 . S
C2924 O2913 1.276 . S
C2924 O2916 1.235 . S
C2925 C2927 1.393 . S
C2925 C2929 1.395 . S
C2925 C2932 1.492 . S
C2926 C2927 1.392 1_455 S
C2926 C2928 1.386 . S
C2927 C2925 1.393 . S
C2927 C2926 1.392 1_655 S
C2927 H2944 0.930 . S
C2928 C2926 1.386 . S
C2928 C2930 1.395 . S
C2928 H2945 0.930 . S
C2929 C2925 1.395 . S
C2929 C2930 1.379 1_655 S
C2929 H2946 0.930 . S
C2930 C2928 1.395 . S
C2930 C2929 1.379 1_455 S
C2930 H2947 0.930 . S
C2931 O2914 1.264 . S
C2931 O2915 1.254 . S
C2932 Eu2868 2.848 . S
C2932 O2912 1.257 . S
C2932 O2917 1.249 . S
C2932 C2925 1.492 . S
C2933 H2898 0.931 . S
C2933 C2911 1.420 . S
C2933 C2934 1.351 . S
C2934 H2896 0.930 . S
C2934 C2902 1.423 . S
C2934 C2933 1.351 . S
C2935 O2919 1.276 . S
C2935 O2922 1.235 . S
C2936 C2937 1.393 . S
C2936 C2940 1.395 . S
C2936 C2943 1.492 . S
C2937 C2936 1.393 . S
C2937 C2938 1.392 . S
C2937 H2948 0.930 . S
C2938 C2937 1.392 . S
C2938 C2939 1.386 . S
C2939 C2938 1.386 . S
C2939 C2941 1.395 . S
C2939 H2949 0.930 . S
C2940 C2936 1.395 . S
C2940 C2941 1.379 . S
C2940 H2950 0.930 . S
C2941 C2939 1.395 . S
C2941 C2940 1.379 . S
C2941 H2951 0.930 . S
C2942 O2920 1.264 . S
C2942 O2921 1.254 . S
C2943 Eu2879 2.848 . S
C2943 O2918 1.257 . S
C2943 O2923 1.249 . S
C2943 C2936 1.492 . S
H2944 C2927 0.930 . S
H2945 C2928 0.930 . S
H2946 C2929 0.930 . S
H2947 C2930 0.930 . S
H2948 C2937 0.930 . S
H2949 C2939 0.930 . S
H2950 C2940 0.930 . S
H2951 C2941 0.930 . S
Eu2952 N2983 2.657 . S
Eu2952 N2990 2.609 . S
Eu2952 O2996 2.558 . S
Eu2952 O2997 2.612 . S
Eu2952 O2999 2.339 . S
Eu2952 O3000 2.563 . S
Eu2952 O3001 2.419 . S
Eu2952 O3003 2.380 . S
Eu2952 O3004 2.432 . S
Eu2952 C3016 2.848 . S
C2953 C2956 1.422 . S
C2953 C2957 1.411 1_455 S
C2953 N2960 1.377 . S
C2954 C2956 1.397 1_655 S
C2954 C2958 1.423 . S
C2954 C2966 1.392 . S
C2955 C2957 1.420 . S
C2955 C2958 1.351 . S
C2955 H2978 0.931 . S
C2956 C2953 1.422 . S
C2956 C2954 1.397 1_455 S
C2956 N2964 1.392 . S
C2957 C2953 1.411 1_655 S
C2957 C2955 1.420 . S
C2957 C2962 1.395 . S
C2958 C2954 1.423 . S
C2958 C2955 1.351 . S
C2958 H2970 0.930 . S
C2959 C2961 1.400 . S
C2959 C2962 1.386 1_455 S
C2959 H2971 0.930 . S
N2960 C2953 1.377 . S
N2960 C2961 1.321 . S
N2960 Eu2963 2.609 . S
C2961 C2959 1.400 . S
C2961 N2960 1.321 . S
C2961 H2968 0.930 . S
C2962 C2957 1.395 . S
C2962 C2959 1.386 1_655 S
C2962 H2981 0.930 . S
Eu2963 N2960 2.609 . S
Eu2963 N2964 2.657 . S
Eu2963 O2997 2.380 . S
Eu2963 O2998 2.432 . S
Eu2963 O3002 2.558 . S
Eu2963 O3003 2.612 . S
Eu2963 O3005 2.339 . S
Eu2963 O3006 2.563 . S
Eu2963 O3007 2.419 . S
Eu2963 C3027 2.848 . S
N2964 C2956 1.392 . S
N2964 Eu2963 2.657 . S
N2964 C2965 1.334 . S
C2965 N2964 1.334 . S
C2965 C2967 1.413 1_455 S
C2965 H2972 0.929 . S
C2966 C2954 1.392 . S
C2966 C2967 1.367 . S
C2966 H2974 0.930 . S
C2967 C2965 1.413 1_655 S
C2967 C2966 1.367 . S
C2967 H2969 0.930 . S
H2968 C2961 0.930 . S
H2969 C2967 0.930 . S
H2970 C2958 0.930 . S
H2971 C2959 0.930 . S
H2972 C2965 0.929 . S
H2973 C2987 0.930 . S
H2974 C2966 0.930 . S
H2975 C2993 0.930 . S
H2976 C2984 0.929 . S
H2977 C2991 0.930 . S
H2978 C2955 0.931 . S
H2979 C2985 0.930 . S
H2980 C3018 0.930 . S
H2981 C2962 0.930 . S
H2982 C3017 0.931 . S
N2983 Eu2952 2.657 . S
N2983 C2984 1.334 . S
N2983 C2988 1.362 . S
C2984 H2976 0.929 . S
C2984 N2983 1.334 . S
C2984 C2987 1.413 . S
C2985 H2979 0.930 . S
C2985 C2986 1.392 . S
C2985 C2987 1.367 . S
C2986 C2985 1.392 . S
C2986 C2988 1.420 . S
C2986 C3018 1.423 . S
C2987 H2973 0.930 . S
C2987 C2984 1.413 . S
C2987 C2985 1.367 . S
C2988 N2983 1.362 . S
C2988 C2986 1.420 . S
C2988 C2992 1.429 . S
H2989 C2994 0.930 . S
N2990 Eu2952 2.609 . S
N2990 C2992 1.377 . S
N2990 C2993 1.321 . S
C2991 H2977 0.930 . S
C2991 C2993 1.400 . S
C2991 C2994 1.386 . S
C2992 C2988 1.429 . S
C2992 N2990 1.377 . S
C2992 C2995 1.411 . S
C2993 H2975 0.930 . S
C2993 N2990 1.321 . S
C2993 C2991 1.400 . S
C2994 H2989 0.930 . S
C2994 C2991 1.386 . S
C2994 C2995 1.395 . S
C2995 C2992 1.411 . S
C2995 C2994 1.395 . S
C2995 C3017 1.420 . S
O2996 Eu2952 2.558 . S
O2996 C3016 1.257 . S
O2997 Eu2952 2.612 . S
O2997 Eu2963 2.380 . S
O2997 C3008 1.276 . S
O2998 Eu2963 2.432 . S
O2998 C3015 1.264 . S
O2999 Eu2952 2.339 . S
O2999 C3015 1.254 . S
O3000 Eu2952 2.563 . S
O3000 C3008 1.235 . S
O3001 Eu2952 2.419 . S
O3001 C3016 1.249 . S
O3002 Eu2963 2.558 . S
O3002 C3027 1.257 . S
O3003 Eu2952 2.380 . S
O3003 Eu2963 2.612 . S
O3003 C3019 1.276 . S
O3004 Eu2952 2.432 . S
O3004 C3026 1.264 . S
O3005 Eu2963 2.339 . S
O3005 C3026 1.254 . S
O3006 Eu2963 2.563 . S
O3006 C3019 1.235 . S
O3007 Eu2963 2.419 . S
O3007 C3027 1.249 . S
C3008 O2997 1.276 . S
C3008 O3000 1.235 . S
C3009 C3011 1.393 . S
C3009 C3013 1.395 . S
C3009 C3016 1.492 . S
C3010 C3011 1.392 . S
C3010 C3012 1.386 . S
C3011 C3009 1.393 . S
C3011 C3010 1.392 . S
C3011 H3028 0.930 . S
C3012 C3010 1.386 . S
C3012 C3014 1.395 . S
C3012 H3029 0.916 1_455 S
C3013 C3009 1.395 . S
C3013 C3014 1.379 . S
C3013 H3030 0.930 . S
C3014 C3012 1.395 . S
C3014 C3013 1.379 . S
C3014 H3031 0.930 . S
C3015 O2998 1.264 . S
C3015 O2999 1.254 . S
C3016 Eu2952 2.848 . S
C3016 O2996 1.257 . S
C3016 O3001 1.249 . S
C3016 C3009 1.492 . S
C3017 H2982 0.931 . S
C3017 C2995 1.420 . S
C3017 C3018 1.351 . S
C3018 H2980 0.930 . S
C3018 C2986 1.423 . S
C3018 C3017 1.351 . S
C3019 O3003 1.276 . S
C3019 O3006 1.235 . S
C3020 C3021 1.393 . S
C3020 C3024 1.395 . S
C3020 C3027 1.492 . S
C3021 C3020 1.393 . S
C3021 C3022 1.392 . S
C3021 H3032 0.930 . S
C3022 C3021 1.392 . S
C3022 C3023 1.386 . S
C3023 C3022 1.386 . S
C3023 C3025 1.395 . S
C3023 H3033 0.930 . S
C3024 C3020 1.395 . S
C3024 C3025 1.379 . S
C3024 H3034 0.930 . S
C3025 C3023 1.395 . S
C3025 C3024 1.379 . S
C3025 H3035 0.930 . S
C3026 O3004 1.264 . S
C3026 O3005 1.254 . S
C3027 Eu2963 2.848 . S
C3027 O3002 1.257 . S
C3027 O3007 1.249 . S
C3027 C3020 1.492 . S
H3028 C3011 0.930 . S
H3029 C3012 0.916 1_655 S
H3030 C3013 0.930 . S
H3031 C3014 0.930 . S
H3032 C3021 0.930 . S
H3033 C3023 0.930 . S
H3034 C3024 0.930 . S
H3035 C3025 0.930 . S
Eu3036 N3067 2.657 . S
Eu3036 N3074 2.609 . S
Eu3036 O3080 2.558 . S
Eu3036 O3081 2.612 . S
Eu3036 O3083 2.339 . S
Eu3036 O3084 2.563 . S
Eu3036 O3085 2.419 . S
Eu3036 O3087 2.380 . S
Eu3036 O3088 2.432 . S
Eu3036 C3100 2.848 . S
C3037 C3040 1.429 . S
C3037 C3041 1.411 . S
C3037 N3044 1.377 . S
C3038 C3040 1.420 . S
C3038 C3042 1.423 . S
C3038 C3050 1.392 . S
C3039 C3041 1.420 . S
C3039 C3042 1.351 . S
C3039 H3062 0.931 . S
C3040 C3037 1.429 . S
C3040 C3038 1.420 . S
C3040 N3048 1.362 . S
C3041 C3037 1.411 . S
C3041 C3039 1.420 . S
C3041 C3046 1.395 . S
C3042 C3038 1.423 . S
C3042 C3039 1.351 . S
C3042 H3054 0.930 . S
C3043 C3045 1.400 . S
C3043 C3046 1.386 . S
C3043 H3055 0.930 . S
N3044 C3037 1.377 . S
N3044 C3045 1.321 . S
N3044 Eu3047 2.609 . S
C3045 C3043 1.400 . S
C3045 N3044 1.321 . S
C3045 H3052 0.930 . S
C3046 C3041 1.395 . S
C3046 C3043 1.386 . S
C3046 H3065 0.930 . S
Eu3047 N3044 2.609 . S
Eu3047 N3048 2.657 . S
Eu3047 O3081 2.380 . S
Eu3047 O3082 2.432 . S
Eu3047 O3086 2.558 . S
Eu3047 O3087 2.612 . S
Eu3047 O3089 2.339 . S
Eu3047 O3090 2.563 . S
Eu3047 O3091 2.419 . S
Eu3047 C3111 2.848 . S
N3048 C3040 1.362 . S
N3048 Eu3047 2.657 . S
N3048 C3049 1.334 . S
C3049 N3048 1.334 . S
C3049 C3051 1.413 . S
C3049 H3056 0.929 . S
C3050 C3038 1.392 . S
C3050 C3051 1.367 . S
C3050 H3058 0.930 . S
C3051 C3049 1.413 . S
C3051 C3050 1.367 . S
C3051 H3053 0.930 . S
H3052 C3045 0.930 . S
H3053 C3051 0.930 . S
H3054 C3042 0.930 . S
H3055 C3043 0.930 . S
H3056 C3049 0.929 . S
H3057 C3071 0.930 . S
H3058 C3050 0.930 . S
H3059 C3077 0.930 . S
H3060 C3068 0.929 . S
H3061 C3075 0.930 . S
H3062 C3039 0.931 . S
H3063 C3069 0.930 . S
H3064 C3102 0.930 . S
H3065 C3046 0.930 . S
H3066 C3101 0.931 . S
N3067 Eu3036 2.657 . S
N3067 C3068 1.334 . S
N3067 C3072 1.362 . S
C3068 H3060 0.929 . S
C3068 N3067 1.334 . S
C3068 C3071 1.413 . S
C3069 H3063 0.930 . S
C3069 C3070 1.392 . S
C3069 C3071 1.367 . S
C3070 C3069 1.392 . S
C3070 C3072 1.420 . S
C3070 C3102 1.423 . S
C3071 H3057 0.930 . S
C3071 C3068 1.413 . S
C3071 C3069 1.367 . S
C3072 N3067 1.362 . S
C3072 C3070 1.420 . S
C3072 C3076 1.429 . S
H3073 C3078 0.930 . S
N3074 Eu3036 2.609 . S
N3074 C3076 1.377 . S
N3074 C3077 1.321 . S
C3075 H3061 0.930 . S
C3075 C3077 1.400 . S
C3075 C3078 1.386 . S
C3076 C3072 1.429 . S
C3076 N3074 1.377 . S
C3076 C3079 1.411 . S
C3077 H3059 0.930 . S
C3077 N3074 1.321 . S
C3077 C3075 1.400 . S
C3078 H3073 0.930 . S
C3078 C3075 1.386 . S
C3078 C3079 1.395 . S
C3079 C3076 1.411 . S
C3079 C3078 1.395 . S
C3079 C3101 1.420 . S
O3080 Eu3036 2.558 . S
O3080 C3100 1.257 . S
O3081 Eu3036 2.612 . S
O3081 Eu3047 2.380 . S
O3081 C3092 1.276 . S
O3082 Eu3047 2.432 . S
O3082 C3099 1.264 . S
O3083 Eu3036 2.339 . S
O3083 C3099 1.254 . S
O3084 Eu3036 2.563 . S
O3084 C3092 1.235 . S
O3085 Eu3036 2.419 . S
O3085 C3100 1.249 . S
O3086 Eu3047 2.558 . S
O3086 C3111 1.257 . S
O3087 Eu3036 2.380 . S
O3087 Eu3047 2.612 . S
O3087 C3103 1.276 . S
O3088 Eu3036 2.432 . S
O3088 C3110 1.264 . S
O3089 Eu3047 2.339 . S
O3089 C3110 1.254 . S
O3090 Eu3047 2.563 . S
O3090 C3103 1.235 . S
O3091 Eu3047 2.419 . S
O3091 C3111 1.249 . S
C3092 O3081 1.276 . S
C3092 O3084 1.235 . S
C3093 C3095 1.393 . S
C3093 C3097 1.395 . S
C3093 C3100 1.492 . S
C3094 C3095 1.392 . S
C3094 C3096 1.386 . S
C3095 C3093 1.393 . S
C3095 C3094 1.392 . S
C3095 H3112 0.930 . S
C3096 C3094 1.386 . S
C3096 C3098 1.395 . S
C3096 H3113 0.930 . S
C3097 C3093 1.395 . S
C3097 C3098 1.379 . S
C3097 H3114 0.930 . S
C3098 C3096 1.395 . S
C3098 C3097 1.379 . S
C3098 H3115 0.930 . S
C3099 O3082 1.264 . S
C3099 O3083 1.254 . S
C3100 Eu3036 2.848 . S
C3100 O3080 1.257 . S
C3100 O3085 1.249 . S
C3100 C3093 1.492 . S
C3101 H3066 0.931 . S
C3101 C3079 1.420 . S
C3101 C3102 1.351 . S
C3102 H3064 0.930 . S
C3102 C3070 1.423 . S
C3102 C3101 1.351 . S
C3103 O3087 1.276 . S
C3103 O3090 1.235 . S
C3104 C3105 1.393 . S
C3104 C3108 1.395 . S
C3104 C3111 1.492 . S
C3105 C3104 1.393 . S
C3105 C3106 1.392 . S
C3105 H3116 0.930 . S
C3106 C3105 1.392 . S
C3106 C3107 1.386 . S
C3107 C3106 1.386 . S
C3107 C3109 1.395 . S
C3107 H3117 0.930 1_655 S
C3108 C3104 1.395 . S
C3108 C3109 1.379 . S
C3108 H3118 0.930 . S
C3109 C3107 1.395 . S
C3109 C3108 1.379 . S
C3109 H3119 0.930 . S
C3110 O3088 1.264 . S
C3110 O3089 1.254 . S
C3111 Eu3047 2.848 . S
C3111 O3086 1.257 . S
C3111 O3091 1.249 . S
C3111 C3104 1.492 . S
H3112 C3095 0.930 . S
H3113 C3096 0.930 . S
H3114 C3097 0.930 . S
H3115 C3098 0.930 . S
H3116 C3105 0.930 . S
H3117 C3107 0.930 1_455 S
H3118 C3108 0.930 . S
H3119 C3109 0.930 . S
Eu3120 N3151 2.657 . S
Eu3120 N3158 2.609 . S
Eu3120 O3164 2.558 . S
Eu3120 O3165 2.612 . S
Eu3120 O3167 2.339 . S
Eu3120 O3168 2.563 . S
Eu3120 O3169 2.419 . S
Eu3120 O3171 2.380 . S
Eu3120 O3172 2.432 . S
Eu3120 C3184 2.848 . S
C3121 C3124 1.429 . S
C3121 C3125 1.411 . S
C3121 N3128 1.377 . S
C3122 C3124 1.420 . S
C3122 C3126 1.423 . S
C3122 C3134 1.392 . S
C3123 C3125 1.420 . S
C3123 C3126 1.351 . S
C3123 H3146 0.931 . S
C3124 C3121 1.429 . S
C3124 C3122 1.420 . S
C3124 N3132 1.362 . S
C3125 C3121 1.411 . S
C3125 C3123 1.420 . S
C3125 C3130 1.395 . S
C3126 C3122 1.423 . S
C3126 C3123 1.351 . S
C3126 H3138 0.930 . S
C3127 C3129 1.400 . S
C3127 C3130 1.386 . S
C3127 H3139 0.930 . S
N3128 C3121 1.377 . S
N3128 C3129 1.321 . S
N3128 Eu3131 2.609 . S
C3129 C3127 1.400 . S
C3129 N3128 1.321 . S
C3129 H3136 0.930 . S
C3130 C3125 1.395 . S
C3130 C3127 1.386 . S
C3130 H3149 0.930 . S
Eu3131 N3128 2.609 . S
Eu3131 N3132 2.657 . S
Eu3131 O3165 2.380 . S
Eu3131 O3166 2.432 . S
Eu3131 O3170 2.558 . S
Eu3131 O3171 2.612 . S
Eu3131 O3173 2.339 . S
Eu3131 O3174 2.563 . S
Eu3131 O3175 2.419 . S
Eu3131 C3195 2.848 . S
N3132 C3124 1.362 . S
N3132 Eu3131 2.657 . S
N3132 C3133 1.334 . S
C3133 N3132 1.334 . S
C3133 C3135 1.413 . S
C3133 H3140 0.929 . S
C3134 C3122 1.392 . S
C3134 C3135 1.367 . S
C3134 H3142 0.930 . S
C3135 C3133 1.413 . S
C3135 C3134 1.367 . S
C3135 H3137 0.930 . S
H3136 C3129 0.930 . S
H3137 C3135 0.930 . S
H3138 C3126 0.930 . S
H3139 C3127 0.930 . S
H3140 C3133 0.929 . S
H3141 C3155 0.930 . S
H3142 C3134 0.930 . S
H3143 C3161 0.930 . S
H3144 C3152 0.929 . S
H3145 C3159 0.930 . S
H3146 C3123 0.931 . S
H3147 C3153 0.930 . S
H3148 C3186 0.930 . S
H3149 C3130 0.930 . S
H3150 C3185 0.931 . S
N3151 Eu3120 2.657 . S
N3151 C3152 1.334 . S
N3151 C3156 1.362 . S
C3152 H3144 0.929 . S
C3152 N3151 1.334 . S
C3152 C3155 1.413 . S
C3153 H3147 0.930 . S
C3153 C3154 1.392 . S
C3153 C3155 1.367 . S
C3154 C3153 1.392 . S
C3154 C3156 1.420 . S
C3154 C3186 1.423 . S
C3155 H3141 0.930 . S
C3155 C3152 1.413 . S
C3155 C3153 1.367 . S
C3156 N3151 1.362 . S
C3156 C3154 1.420 . S
C3156 C3160 1.429 . S
H3157 C3162 0.930 . S
N3158 Eu3120 2.609 . S
N3158 C3160 1.377 . S
N3158 C3161 1.321 . S
C3159 H3145 0.930 . S
C3159 C3161 1.400 . S
C3159 C3162 1.386 . S
C3160 C3156 1.429 . S
C3160 N3158 1.377 . S
C3160 C3163 1.411 . S
C3161 H3143 0.930 . S
C3161 N3158 1.321 . S
C3161 C3159 1.400 . S
C3162 H3157 0.930 . S
C3162 C3159 1.386 . S
C3162 C3163 1.395 . S
C3163 C3160 1.411 . S
C3163 C3162 1.395 . S
C3163 C3185 1.420 . S
O3164 Eu3120 2.558 . S
O3164 C3184 1.257 . S
O3165 Eu3120 2.612 . S
O3165 Eu3131 2.380 . S
O3165 C3176 1.276 . S
O3166 Eu3131 2.432 . S
O3166 C3183 1.264 . S
O3167 Eu3120 2.339 . S
O3167 C3183 1.254 . S
O3168 Eu3120 2.563 . S
O3168 C3176 1.235 . S
O3169 Eu3120 2.419 . S
O3169 C3184 1.249 . S
O3170 Eu3131 2.558 . S
O3170 C3195 1.257 . S
O3171 Eu3120 2.380 . S
O3171 Eu3131 2.612 . S
O3171 C3187 1.276 . S
O3172 Eu3120 2.432 . S
O3172 C3194 1.264 . S
O3173 Eu3131 2.339 . S
O3173 C3194 1.254 . S
O3174 Eu3131 2.563 . S
O3174 C3187 1.235 . S
O3175 Eu3131 2.419 . S
O3175 C3195 1.249 . S
C3176 O3165 1.276 . S
C3176 O3168 1.235 . S
C3177 C3179 1.393 . S
C3177 C3181 1.395 . S
C3177 C3184 1.492 . S
C3178 C3179 1.392 . S
C3178 C3180 1.386 . S
C3179 C3177 1.393 . S
C3179 C3178 1.392 . S
C3179 H3196 0.930 . S
C3180 C3178 1.386 . S
C3180 C3182 1.395 . S
C3180 H3197 0.930 . S
C3181 C3177 1.395 . S
C3181 C3182 1.379 . S
C3181 H3198 0.930 . S
C3182 C3180 1.395 . S
C3182 C3181 1.379 . S
C3182 H3199 0.930 . S
C3183 O3166 1.264 . S
C3183 O3167 1.254 . S
C3184 Eu3120 2.848 . S
C3184 O3164 1.257 . S
C3184 O3169 1.249 . S
C3184 C3177 1.492 . S
C3185 H3150 0.931 . S
C3185 C3163 1.420 . S
C3185 C3186 1.351 . S
C3186 H3148 0.930 . S
C3186 C3154 1.423 . S
C3186 C3185 1.351 . S
C3187 O3171 1.276 . S
C3187 O3174 1.235 . S
C3188 C3189 1.393 . S
C3188 C3192 1.395 . S
C3188 C3195 1.492 . S
C3189 C3188 1.393 . S
C3189 C3190 1.392 . S
C3189 H3200 0.930 . S
C3190 C3189 1.392 . S
C3190 C3191 1.386 . S
C3191 C3190 1.386 . S
C3191 C3193 1.395 . S
C3191 H3201 0.930 . S
C3192 C3188 1.395 . S
C3192 C3193 1.379 . S
C3192 H3202 0.930 . S
C3193 C3191 1.395 . S
C3193 C3192 1.379 . S
C3193 H3203 0.930 . S
C3194 O3172 1.264 . S
C3194 O3173 1.254 . S
C3195 Eu3131 2.848 . S
C3195 O3170 1.257 . S
C3195 O3175 1.249 . S
C3195 C3188 1.492 . S
H3196 C3179 0.930 . S
H3197 C3180 0.930 . S
H3198 C3181 0.930 . S
H3199 C3182 0.930 . S
H3200 C3189 0.930 . S
H3201 C3191 0.930 . S
H3202 C3192 0.930 . S
H3203 C3193 0.930 . S
Eu3204 N3235 2.657 . S
Eu3204 N3242 2.609 . S
Eu3204 O3248 2.558 . S
Eu3204 O3249 2.612 . S
Eu3204 O3251 2.339 . S
Eu3204 O3252 2.563 . S
Eu3204 O3253 2.419 . S
Eu3204 O3255 2.380 . S
Eu3204 O3256 2.432 . S
Eu3204 C3268 2.848 . S
C3205 C3208 1.429 . S
C3205 C3209 1.411 . S
C3205 N3212 1.377 . S
C3206 C3208 1.420 . S
C3206 C3210 1.423 . S
C3206 C3218 1.392 . S
C3207 C3209 1.420 . S
C3207 C3210 1.351 . S
C3207 H3230 0.931 . S
C3208 C3205 1.429 . S
C3208 C3206 1.420 . S
C3208 N3216 1.362 . S
C3209 C3205 1.411 . S
C3209 C3207 1.420 . S
C3209 C3214 1.395 . S
C3210 C3206 1.423 . S
C3210 C3207 1.351 . S
C3210 H3222 0.930 . S
C3211 C3213 1.400 . S
C3211 C3214 1.386 . S
C3211 H3223 0.930 . S
N3212 C3205 1.377 . S
N3212 C3213 1.321 . S
N3212 Eu3215 2.609 . S
C3213 C3211 1.400 . S
C3213 N3212 1.321 . S
C3213 H3220 0.930 . S
C3214 C3209 1.395 . S
C3214 C3211 1.386 . S
C3214 H3233 0.930 . S
Eu3215 N3212 2.609 . S
Eu3215 N3216 2.657 . S
Eu3215 O3249 2.380 . S
Eu3215 O3250 2.432 . S
Eu3215 O3254 2.558 . S
Eu3215 O3255 2.612 . S
Eu3215 O3257 2.339 . S
Eu3215 O3258 2.563 . S
Eu3215 O3259 2.419 . S
Eu3215 C3279 2.848 . S
N3216 C3208 1.362 . S
N3216 Eu3215 2.657 . S
N3216 C3217 1.334 . S
C3217 N3216 1.334 . S
C3217 C3219 1.413 . S
C3217 H3224 0.929 . S
C3218 C3206 1.392 . S
C3218 C3219 1.367 . S
C3218 H3226 0.930 . S
C3219 C3217 1.413 . S
C3219 C3218 1.367 . S
C3219 H3221 0.930 . S
H3220 C3213 0.930 . S
H3221 C3219 0.930 . S
H3222 C3210 0.930 . S
H3223 C3211 0.930 . S
H3224 C3217 0.929 . S
H3225 C3239 0.930 . S
H3226 C3218 0.930 . S
H3227 C3245 0.930 . S
H3228 C3236 0.929 . S
H3229 C3243 0.930 . S
H3230 C3207 0.931 . S
H3231 C3237 0.930 . S
H3232 C3270 0.930 . S
H3233 C3214 0.930 . S
H3234 C3269 0.931 . S
N3235 Eu3204 2.657 . S
N3235 C3236 1.334 . S
N3235 C3240 1.362 . S
C3236 H3228 0.929 . S
C3236 N3235 1.334 . S
C3236 C3239 1.413 . S
C3237 H3231 0.930 . S
C3237 C3238 1.392 . S
C3237 C3239 1.367 . S
C3238 C3237 1.392 . S
C3238 C3240 1.420 . S
C3238 C3270 1.423 . S
C3239 H3225 0.930 . S
C3239 C3236 1.413 . S
C3239 C3237 1.367 . S
C3240 N3235 1.362 . S
C3240 C3238 1.420 . S
C3240 C3244 1.429 . S
H3241 C3246 0.930 . S
N3242 Eu3204 2.609 . S
N3242 C3244 1.377 . S
N3242 C3245 1.321 . S
C3243 H3229 0.930 . S
C3243 C3245 1.400 . S
C3243 C3246 1.386 . S
C3244 C3240 1.429 . S
C3244 N3242 1.377 . S
C3244 C3247 1.411 . S
C3245 H3227 0.930 . S
C3245 N3242 1.321 . S
C3245 C3243 1.400 . S
C3246 H3241 0.930 . S
C3246 C3243 1.386 . S
C3246 C3247 1.395 . S
C3247 C3244 1.411 . S
C3247 C3246 1.395 . S
C3247 C3269 1.420 . S
O3248 Eu3204 2.558 . S
O3248 C3268 1.257 . S
O3249 Eu3204 2.612 . S
O3249 Eu3215 2.380 . S
O3249 C3260 1.276 . S
O3250 Eu3215 2.432 . S
O3250 C3267 1.264 . S
O3251 Eu3204 2.339 . S
O3251 C3267 1.254 . S
O3252 Eu3204 2.563 . S
O3252 C3260 1.235 . S
O3253 Eu3204 2.419 . S
O3253 C3268 1.249 . S
O3254 Eu3215 2.558 . S
O3254 C3279 1.257 . S
O3255 Eu3204 2.380 . S
O3255 Eu3215 2.612 . S
O3255 C3271 1.276 . S
O3256 Eu3204 2.432 . S
O3256 C3278 1.264 . S
O3257 Eu3215 2.339 . S
O3257 C3278 1.254 . S
O3258 Eu3215 2.563 . S
O3258 C3271 1.235 . S
O3259 Eu3215 2.419 . S
O3259 C3279 1.249 . S
C3260 O3249 1.276 . S
C3260 O3252 1.235 . S
C3261 C3263 1.393 . S
C3261 C3265 1.395 . S
C3261 C3268 1.492 . S
C3262 C3263 1.392 . S
C3262 C3264 1.386 1_565 S
C3263 C3261 1.393 . S
C3263 C3262 1.392 . S
C3263 H3280 0.930 . S
C3264 C3262 1.386 1_545 S
C3264 C3266 1.395 1_545 S
C3264 H3281 0.930 . S
C3265 C3261 1.395 . S
C3265 C3266 1.379 . S
C3265 H3282 0.930 . S
C3266 C3264 1.395 1_565 S
C3266 C3265 1.379 . S
C3266 H3283 0.930 1_565 S
C3267 O3250 1.264 . S
C3267 O3251 1.254 . S
C3268 Eu3204 2.848 . S
C3268 O3248 1.257 . S
C3268 O3253 1.249 . S
C3268 C3261 1.492 . S
C3269 H3234 0.931 . S
C3269 C3247 1.420 . S
C3269 C3270 1.351 . S
C3270 H3232 0.930 . S
C3270 C3238 1.423 . S
C3270 C3269 1.351 . S
C3271 O3255 1.276 . S
C3271 O3258 1.235 . S
C3272 C3273 1.393 . S
C3272 C3276 1.395 . S
C3272 C3279 1.492 . S
C3273 C3272 1.393 . S
C3273 C3274 1.392 . S
C3273 H3284 0.930 . S
C3274 C3273 1.392 . S
C3274 C3275 1.386 . S
C3275 C3274 1.386 . S
C3275 C3277 1.395 . S
C3275 H3285 0.930 . S
C3276 C3272 1.395 . S
C3276 C3277 1.379 . S
C3276 H3286 0.930 . S
C3277 C3275 1.395 . S
C3277 C3276 1.379 . S
C3277 H3287 0.930 . S
C3278 O3256 1.264 . S
C3278 O3257 1.254 . S
C3279 Eu3215 2.848 . S
C3279 O3254 1.257 . S
C3279 O3259 1.249 . S
C3279 C3272 1.492 . S
H3280 C3263 0.930 . S
H3281 C3264 0.930 . S
H3282 C3265 0.930 . S
H3283 C3266 0.930 1_545 S
H3284 C3273 0.930 . S
H3285 C3275 0.930 . S
H3286 C3276 0.930 . S
H3287 C3277 0.930 . S
Eu3288 N3319 2.657 . S
Eu3288 N3326 2.609 . S
Eu3288 O3332 2.558 . S
Eu3288 O3333 2.612 . S
Eu3288 O3335 2.339 . S
Eu3288 O3336 2.563 . S
Eu3288 O3337 2.419 . S
Eu3288 O3339 2.380 . S
Eu3288 O3340 2.432 . S
Eu3288 C3352 2.848 . S
C3289 C3292 1.429 . S
C3289 C3293 1.411 . S
C3289 N3296 1.377 . S
C3290 C3292 1.420 . S
C3290 C3294 1.423 . S
C3290 C3302 1.392 . S
C3291 C3293 1.420 . S
C3291 C3294 1.351 . S
C3291 H3314 0.931 . S
C3292 C3289 1.429 . S
C3292 C3290 1.420 . S
C3292 N3300 1.362 . S
C3293 C3289 1.411 . S
C3293 C3291 1.420 . S
C3293 C3298 1.395 . S
C3294 C3290 1.423 . S
C3294 C3291 1.351 . S
C3294 H3306 0.930 . S
C3295 C3297 1.400 . S
C3295 C3298 1.386 . S
C3295 H3307 0.930 . S
N3296 C3289 1.377 . S
N3296 C3297 1.321 . S
N3296 Eu3299 2.609 . S
C3297 C3295 1.400 . S
C3297 N3296 1.321 . S
C3297 H3304 0.930 . S
C3298 C3293 1.395 . S
C3298 C3295 1.386 . S
C3298 H3317 0.930 . S
Eu3299 N3296 2.609 . S
Eu3299 N3300 2.657 . S
Eu3299 O3333 2.380 . S
Eu3299 O3334 2.432 . S
Eu3299 O3338 2.558 . S
Eu3299 O3339 2.612 . S
Eu3299 O3341 2.339 . S
Eu3299 O3342 2.563 . S
Eu3299 O3343 2.419 . S
Eu3299 C3363 2.848 . S
N3300 C3292 1.362 . S
N3300 Eu3299 2.657 . S
N3300 C3301 1.334 . S
C3301 N3300 1.334 . S
C3301 C3303 1.413 . S
C3301 H3308 0.929 . S
C3302 C3290 1.392 . S
C3302 C3303 1.367 . S
C3302 H3310 0.930 . S
C3303 C3301 1.413 . S
C3303 C3302 1.367 . S
C3303 H3305 0.930 . S
H3304 C3297 0.930 . S
H3305 C3303 0.930 . S
H3306 C3294 0.930 . S
H3307 C3295 0.930 . S
H3308 C3301 0.929 . S
H3309 C3323 0.930 . S
H3310 C3302 0.930 . S
H3311 C3329 0.930 . S
H3312 C3320 0.929 . S
H3313 C3327 0.930 . S
H3314 C3291 0.931 . S
H3315 C3321 0.930 . S
H3316 C3354 0.930 . S
H3317 C3298 0.930 . S
H3318 C3353 0.931 . S
N3319 Eu3288 2.657 . S
N3319 C3320 1.334 . S
N3319 C3324 1.362 . S
C3320 H3312 0.929 . S
C3320 N3319 1.334 . S
C3320 C3323 1.413 . S
C3321 H3315 0.930 . S
C3321 C3322 1.392 . S
C3321 C3323 1.367 . S
C3322 C3321 1.392 . S
C3322 C3324 1.420 . S
C3322 C3354 1.423 . S
C3323 H3309 0.930 . S
C3323 C3320 1.413 . S
C3323 C3321 1.367 . S
C3324 N3319 1.362 . S
C3324 C3322 1.420 . S
C3324 C3328 1.429 . S
H3325 C3330 0.930 . S
N3326 Eu3288 2.609 . S
N3326 C3328 1.377 . S
N3326 C3329 1.321 . S
C3327 H3313 0.930 . S
C3327 C3329 1.400 . S
C3327 C3330 1.386 . S
C3328 C3324 1.429 . S
C3328 N3326 1.377 . S
C3328 C3331 1.411 . S
C3329 H3311 0.930 . S
C3329 N3326 1.321 . S
C3329 C3327 1.400 . S
C3330 H3325 0.930 . S
C3330 C3327 1.386 . S
C3330 C3331 1.395 . S
C3331 C3328 1.411 . S
C3331 C3330 1.395 . S
C3331 C3353 1.420 . S
O3332 Eu3288 2.558 . S
O3332 C3352 1.257 . S
O3333 Eu3288 2.612 . S
O3333 Eu3299 2.380 . S
O3333 C3344 1.276 . S
O3334 Eu3299 2.432 . S
O3334 C3351 1.264 . S
O3335 Eu3288 2.339 . S
O3335 C3351 1.254 . S
O3336 Eu3288 2.563 . S
O3336 C3344 1.235 . S
O3337 Eu3288 2.419 . S
O3337 C3352 1.249 . S
O3338 Eu3299 2.558 . S
O3338 C3363 1.257 . S
O3339 Eu3288 2.380 . S
O3339 Eu3299 2.612 . S
O3339 C3355 1.276 . S
O3340 Eu3288 2.432 . S
O3340 C3362 1.264 . S
O3341 Eu3299 2.339 . S
O3341 C3362 1.254 . S
O3342 Eu3299 2.563 . S
O3342 C3355 1.235 . S
O3343 Eu3299 2.419 . S
O3343 C3363 1.249 . S
C3344 O3333 1.276 . S
C3344 O3336 1.235 . S
C3345 C3347 1.393 . S
C3345 C3349 1.395 . S
C3345 C3352 1.492 . S
C3346 C3347 1.392 . S
C3346 C3348 1.386 . S
C3347 C3345 1.393 . S
C3347 C3346 1.392 . S
C3347 H3364 0.930 . S
C3348 C3346 1.386 . S
C3348 C3350 1.395 . S
C3348 H3365 0.930 . S
C3349 C3345 1.395 . S
C3349 C3350 1.379 . S
C3349 H3366 0.930 . S
C3350 C3348 1.395 . S
C3350 C3349 1.379 . S
C3350 H3367 0.930 . S
C3351 O3334 1.264 . S
C3351 O3335 1.254 . S
C3352 Eu3288 2.848 . S
C3352 O3332 1.257 . S
C3352 O3337 1.249 . S
C3352 C3345 1.492 . S
C3353 H3318 0.931 . S
C3353 C3331 1.420 . S
C3353 C3354 1.351 . S
C3354 H3316 0.930 . S
C3354 C3322 1.423 . S
C3354 C3353 1.351 . S
C3355 O3339 1.276 . S
C3355 O3342 1.235 . S
C3356 C3357 1.393 . S
C3356 C3360 1.395 . S
C3356 C3363 1.492 . S
C3357 C3356 1.393 . S
C3357 C3358 1.392 . S
C3357 H3368 0.930 . S
C3358 C3357 1.392 . S
C3358 C3359 1.386 . S
C3359 C3358 1.386 . S
C3359 C3361 1.395 . S
C3359 H3369 0.930 . S
C3360 C3356 1.395 . S
C3360 C3361 1.379 . S
C3360 H3370 0.930 . S
C3361 C3359 1.395 . S
C3361 C3360 1.379 . S
C3361 H3371 0.930 . S
C3362 O3340 1.264 . S
C3362 O3341 1.254 . S
C3363 Eu3299 2.848 . S
C3363 O3338 1.257 . S
C3363 O3343 1.249 . S
C3363 C3356 1.492 . S
H3364 C3347 0.930 . S
H3365 C3348 0.930 . S
H3366 C3349 0.930 . S
H3367 C3350 0.930 . S
H3368 C3357 0.930 . S
H3369 C3359 0.930 . S
H3370 C3360 0.930 . S
H3371 C3361 0.930 . S
Eu3372 N3403 2.657 1_556 S
Eu3372 N3410 2.609 . S
Eu3372 O3416 2.558 . S
Eu3372 O3417 2.612 1_556 S
Eu3372 O3419 2.339 1_556 S
Eu3372 O3420 2.563 . S
Eu3372 O3421 2.419 1_556 S
Eu3372 O3423 2.380 1_556 S
Eu3372 O3424 2.432 . S
Eu3372 C3436 2.848 . S
C3373 C3376 1.429 . S
C3373 C3377 1.411 . S
C3373 N3380 1.377 1_655 S
C3374 C3376 1.420 . S
C3374 C3378 1.423 . S
C3374 C3386 1.392 1_554 S
C3375 C3377 1.420 . S
C3375 C3378 1.351 . S
C3375 H3398 0.931 . S
C3376 C3373 1.429 . S
C3376 C3374 1.420 . S
C3376 N3384 1.362 . S
C3377 C3373 1.411 . S
C3377 C3375 1.420 . S
C3377 C3382 1.395 . S
C3378 C3374 1.423 . S
C3378 C3375 1.351 . S
C3378 H3390 0.930 . S
C3379 C3381 1.400 . S
C3379 C3382 1.386 1_455 S
C3379 H3391 0.930 . S
N3380 C3373 1.377 1_455 S
N3380 C3381 1.321 . S
N3380 Eu3383 2.609 . S
C3381 C3379 1.400 . S
C3381 N3380 1.321 . S
C3381 H3388 0.930 . S
C3382 C3377 1.395 . S
C3382 C3379 1.386 1_655 S
C3382 H3401 0.930 . S
Eu3383 N3380 2.609 . S
Eu3383 N3384 2.657 1_455 S
Eu3383 O3417 2.380 . S
Eu3383 O3418 2.432 . S
Eu3383 O3422 2.558 . S
Eu3383 O3423 2.612 . S
Eu3383 O3425 2.339 1_554 S
Eu3383 O3426 2.563 . S
Eu3383 O3427 2.419 1_455 S
Eu3383 C3447 2.848 1_455 S
N3384 C3376 1.362 . S
N3384 Eu3383 2.657 1_655 S
N3384 C3385 1.334 1_554 S
C3385 N3384 1.334 1_556 S
C3385 C3387 1.413 . S
C3385 H3392 0.929 . S
C3386 C3374 1.392 1_556 S
C3386 C3387 1.367 . S
C3386 H3394 0.930 . S
C3387 C3385 1.413 . S
C3387 C3386 1.367 . S
C3387 H3389 0.930 . S
H3388 C3381 0.930 . S
H3389 C3387 0.930 . S
H3390 C3378 0.930 . S
H3391 C3379 0.930 . S
H3392 C3385 0.929 . S
H3393 C3407 0.930 . S
H3394 C3386 0.930 . S
H3395 C3413 0.930 . S
H3396 C3404 0.929 . S
H3397 C3411 0.930 . S
H3398 C3375 0.931 . S
H3399 C3405 0.930 . S
H3400 C3438 0.930 . S
H3401 C3382 0.930 . S
H3402 C3437 0.931 . S
N3403 Eu3372 2.657 1_554 S
N3403 C3404 1.334 . S
N3403 C3408 1.336 1_554 S
C3404 H3396 0.929 . S
C3404 N3403 1.334 . S
C3404 C3407 1.413 . S
C3405 H3399 0.930 . S
C3405 C3406 1.392 . S
C3405 C3407 1.367 . S
C3406 C3405 1.392 . S
C3406 C3408 1.419 1_554 S
C3406 C3438 1.423 1_554 S
C3407 H3393 0.930 . S
C3407 C3404 1.413 . S
C3407 C3405 1.367 . S
C3408 N3403 1.336 1_556 S
C3408 C3406 1.419 1_556 S
C3408 C3412 1.458 . S
H3409 C3414 0.930 . S
N3410 Eu3372 2.609 . S
N3410 C3412 1.377 . S
N3410 C3413 1.321 . S
C3411 H3397 0.930 . S
C3411 C3413 1.400 . S
C3411 C3414 1.386 . S
C3412 C3408 1.458 . S
C3412 N3410 1.377 . S
C3412 C3415 1.411 . S
C3413 H3395 0.930 . S
C3413 N3410 1.321 . S
C3413 C3411 1.400 . S
C3414 H3409 0.930 . S
C3414 C3411 1.386 . S
C3414 C3415 1.395 . S
C3415 C3412 1.411 . S
C3415 C3414 1.395 . S
C3415 C3437 1.420 . S
O3416 Eu3372 2.558 . S
O3416 C3436 1.257 . S
O3417 Eu3372 2.612 1_554 S
O3417 Eu3383 2.380 . S
O3417 C3428 1.276 . S
O3418 Eu3383 2.432 . S
O3418 C3435 1.264 . S
O3419 Eu3372 2.339 1_554 S
O3419 C3435 1.254 . S
O3420 Eu3372 2.563 . S
O3420 C3428 1.235 1_556 S
O3421 Eu3372 2.419 1_554 S
O3421 C3436 1.249 1_554 S
O3422 Eu3383 2.558 . S
O3422 C3447 1.257 1_455 S
O3423 Eu3372 2.380 1_554 S
O3423 Eu3383 2.612 . S
O3423 C3439 1.276 . S
O3424 Eu3372 2.432 . S
O3424 C3446 1.264 . S
O3425 Eu3383 2.339 1_556 S
O3425 C3446 1.254 . S
O3426 Eu3383 2.563 . S
O3426 C3439 1.235 . S
O3427 Eu3383 2.419 1_655 S
O3427 C3447 1.249 . S
C3428 O3417 1.276 . S
C3428 O3420 1.235 1_554 S
C3429 C3431 1.393 . S
C3429 C3433 1.395 . S
C3429 C3436 1.492 . S
C3430 C3431 1.392 . S
C3430 C3432 1.386 . S
C3431 C3429 1.393 . S
C3431 C3430 1.392 . S
C3431 H3448 0.930 1_556 S
C3432 C3430 1.386 . S
C3432 C3434 1.395 . S
C3432 H3449 0.930 . S
C3433 C3429 1.395 . S
C3433 C3434 1.379 . S
C3433 H3450 0.930 . S
C3434 C3432 1.395 . S
C3434 C3433 1.379 . S
C3434 H3451 0.930 . S
C3435 O3418 1.264 . S
C3435 O3419 1.254 . S
C3436 Eu3372 2.848 . S
C3436 O3416 1.257 . S
C3436 O3421 1.249 1_556 S
C3436 C3429 1.492 . S
C3437 H3402 0.931 . S
C3437 C3415 1.420 . S
C3437 C3438 1.351 . S
C3438 H3400 0.930 . S
C3438 C3406 1.423 1_556 S
C3438 C3437 1.351 . S
C3439 O3423 1.276 . S
C3439 O3426 1.235 . S
C3440 C3441 1.393 . S
C3440 C3444 1.395 . S
C3440 C3447 1.492 . S
C3441 C3440 1.393 . S
C3441 C3442 1.392 . S
C3441 H3452 0.930 . S
C3442 C3441 1.392 . S
C3442 C3443 1.386 . S
C3443 C3442 1.386 . S
C3443 C3445 1.395 . S
C3443 H3453 0.930 . S
C3444 C3440 1.395 . S
C3444 C3445 1.379 . S
C3444 H3454 0.930 . S
C3445 C3443 1.395 . S
C3445 C3444 1.379 . S
C3445 H3455 0.930 . S
C3446 O3424 1.264 . S
C3446 O3425 1.254 . S
C3447 Eu3383 2.848 1_655 S
C3447 O3422 1.257 1_655 S
C3447 O3427 1.249 . S
C3447 C3440 1.492 . S
H3448 C3431 0.930 1_554 S
H3449 C3432 0.930 . S
H3450 C3433 0.930 . S
H3451 C3434 0.930 . S
H3452 C3441 0.930 . S
H3453 C3443 0.930 . S
H3454 C3444 0.930 . S
H3455 C3445 0.930 . S
C665 C2168 3.196 . S
C381 C2259 3.281 . S
C460 C2336 3.293 . S
C2434 C585 1.385 . S
C108 C2518 2.812 . S
C2590 C196 1.294 . S
C2679 C313 3.548 . S
C49 C2756 2.435 . S
C2175 C1457 2.807 . S
C1545 C2266 0.698 . S
C2343 C1721 1.069 . S
C2420 C1113 2.975 . S
C1428 C2504 3.351 . S
C2606 C1516 1.043 . S
C2686 C1692 0.303 . S
C2763 C1085 2.471 . S
C2182 C988 2.079 . S
C1817 C2847 2.352 1_556 S
C2935 C2081 3.207 . S
C3008 C1993 2.057 . S
C761 C2770 3.392 . S
C821 C2350 2.679 . S
C2053 C3099 3.014 . S
C3176 C1868 1.255 . S
C2179 C372 3.198 . S
C3194 C645 3.270 . S
C577 C2347 3.282 . S
C497 C3094 1.392 . S
C2506 C57 2.830 . S
C293 C2938 1.296 . S
C2690 C205 3.532 1_565 S
C3271 C145 2.451 . S
C2186 C909 2.801 . S
C3178 C1956 0.721 . S
C724 C2354 1.070 . S
C1780 C3103 2.964 . S
C937 C2515 3.355 1_565 S
C2931 C1985 1.050 . S
C753 C2674 0.316 . S
C1809 C3278 2.471 . S
C1173 C2170 2.094 1_554 S
C1105 C2858 2.341 . S
C1633 C2588 3.202 . S
C1553 C3019 2.043 . S
C3262 C1729 3.417 . S
C1340 C2338 2.695 . S
C2438 C1604 3.006 . S
C2263 C1252 1.235 . S
C489 C3344 3.196 . S
C3183 C557 3.281 . S
C636 C3428 3.293 . S
C409 C3106 1.386 1_455 S
C284 C2854 2.816 . S
C2926 C20 1.293 . S
C3015 C137 3.543 1_455 S
C3260 C225 2.435 . S
C3351 C1641 2.807 . S
C1193 C3190 0.699 . S
C3435 C1289 1.070 . S
C3092 C1377 2.975 . S
C2840 C1613 3.350 . S
C1164 C2942 1.044 . S
C3022 C1261 0.303 . S
C1349 C3267 2.471 . S
C3358 C1965 2.085 . S
C849 C2511 2.352 . S
C2599 C929 3.206 . S
C2672 C1017 2.059 . S
C3274 C1897 3.389 . S
C1789 C3442 2.678 1_556 S
C2427 C900 3.014 . S
C2252 C733 1.255 . S
C548 C3355 3.198 . S
C2270 C469 3.269 . S
C401 C3439 3.281 1_556 S
C673 C2422 1.392 . S
C233 C2842 2.830 . S
C2602 C117 1.293 . S
C29 C3026 3.531 . S
C321 C2767 2.449 . S
C3362 C2044 2.800 . S
C997 C2254 0.725 . S
C3446 C1877 1.070 . S
C812 C2431 2.965 . S
C2073 C2851 3.355 . S
C2595 C1025 1.054 . S
C1905 C3010 0.314 . S
C2774 C841 2.470 . S
C3346 C1525 2.094 . S
C2522 C1369 2.341 1_445 S
C1465 C2924 3.201 . S
C2683 C1201 2.045 . S
C1281 C2758 3.414 . S
C1076 C3430 2.695 1_554 S
C3110 C1437 3.006 . S
C3187 C1701 1.234 . S
