# Generated by pormake.
# Topology ocu, (6,8)-cn, num edge types: 1
# Building blocks:
#     Node 0, Type 0, BuildingBlock: KUMBOL_clean_sbu_1, # of connection points: 6
#     Node 1, Type 0, BuildingBlock: KUMBOL_clean_sbu_1, # of connection points: 6
#     Node 2, Type 0, BuildingBlock: KUMBOL_clean_sbu_1, # of connection points: 6
#     Node 3, Type 0, BuildingBlock: KUMBOL_clean_sbu_1, # of connection points: 6
#     Node 4, Type 0, BuildingBlock: KUMBOL_clean_sbu_1, # of connection points: 6
#     Node 5, Type 0, BuildingBlock: KUMBOL_clean_sbu_1, # of connection points: 6
#     Node 6, Type 0, BuildingBlock: KUMBOL_clean_sbu_1, # of connection points: 6
#     Node 7, Type 0, BuildingBlock: KUMBOL_clean_sbu_1, # of connection points: 6
#     Node 8, Type 1, BuildingBlock: VETTIZ_charged_sbu_0, # of connection points: 8
#     Node 9, Type 1, BuildingBlock: VETTIZ_charged_sbu_0, # of connection points: 8
#     Node 10, Type 1, BuildingBlock: VETTIZ_charged_sbu_0, # of connection points: 8
#     Node 11, Type 1, BuildingBlock: VETTIZ_charged_sbu_0, # of connection points: 8
#     Node 12, Type 1, BuildingBlock: VETTIZ_charged_sbu_0, # of connection points: 8
#     Node 13, Type 1, BuildingBlock: VETTIZ_charged_sbu_0, # of connection points: 8
#     Edge 14, Type (0, 1), BuildingBlock: MIFKUJ_clean_linker_0, # of connection points: 2
#     Edge 15, Type (0, 1), BuildingBlock: MIFKUJ_clean_linker_0, # of connection points: 2
#     Edge 16, Type (0, 1), BuildingBlock: MIFKUJ_clean_linker_0, # of connection points: 2
#     Edge 17, Type (0, 1), BuildingBlock: MIFKUJ_clean_linker_0, # of connection points: 2
#     Edge 18, Type (0, 1), BuildingBlock: MIFKUJ_clean_linker_0, # of connection points: 2
#     Edge 19, Type (0, 1), BuildingBlock: MIFKUJ_clean_linker_0, # of connection points: 2
#     Edge 20, Type (0, 1), BuildingBlock: MIFKUJ_clean_linker_0, # of connection points: 2
#     Edge 21, Type (0, 1), BuildingBlock: MIFKUJ_clean_linker_0, # of connection points: 2
#     Edge 22, Type (0, 1), BuildingBlock: MIFKUJ_clean_linker_0, # of connection points: 2
#     Edge 23, Type (0, 1), BuildingBlock: MIFKUJ_clean_linker_0, # of connection points: 2
#     Edge 24, Type (0, 1), BuildingBlock: MIFKUJ_clean_linker_0, # of connection points: 2
#     Edge 25, Type (0, 1), BuildingBlock: MIFKUJ_clean_linker_0, # of connection points: 2
#     Edge 26, Type (0, 1), BuildingBlock: MIFKUJ_clean_linker_0, # of connection points: 2
#     Edge 27, Type (0, 1), BuildingBlock: MIFKUJ_clean_linker_0, # of connection points: 2
#     Edge 28, Type (0, 1), BuildingBlock: MIFKUJ_clean_linker_0, # of connection points: 2
#     Edge 29, Type (0, 1), BuildingBlock: MIFKUJ_clean_linker_0, # of connection points: 2
#     Edge 30, Type (0, 1), BuildingBlock: MIFKUJ_clean_linker_0, # of connection points: 2
#     Edge 31, Type (0, 1), BuildingBlock: MIFKUJ_clean_linker_0, # of connection points: 2
#     Edge 32, Type (0, 1), BuildingBlock: MIFKUJ_clean_linker_0, # of connection points: 2
#     Edge 33, Type (0, 1), BuildingBlock: MIFKUJ_clean_linker_0, # of connection points: 2
#     Edge 34, Type (0, 1), BuildingBlock: MIFKUJ_clean_linker_0, # of connection points: 2
#     Edge 35, Type (0, 1), BuildingBlock: MIFKUJ_clean_linker_0, # of connection points: 2
#     Edge 36, Type (0, 1), BuildingBlock: MIFKUJ_clean_linker_0, # of connection points: 2
#     Edge 37, Type (0, 1), BuildingBlock: MIFKUJ_clean_linker_0, # of connection points: 2
#     Edge 38, Type (0, 1), BuildingBlock: MIFKUJ_clean_linker_0, # of connection points: 2
#     Edge 39, Type (0, 1), BuildingBlock: MIFKUJ_clean_linker_0, # of connection points: 2
#     Edge 40, Type (0, 1), BuildingBlock: MIFKUJ_clean_linker_0, # of connection points: 2
#     Edge 41, Type (0, 1), BuildingBlock: MIFKUJ_clean_linker_0, # of connection points: 2
#     Edge 42, Type (0, 1), BuildingBlock: MIFKUJ_clean_linker_0, # of connection points: 2
#     Edge 43, Type (0, 1), BuildingBlock: MIFKUJ_clean_linker_0, # of connection points: 2
#     Edge 44, Type (0, 1), BuildingBlock: MIFKUJ_clean_linker_0, # of connection points: 2
#     Edge 45, Type (0, 1), BuildingBlock: MIFKUJ_clean_linker_0, # of connection points: 2
#     Edge 46, Type (0, 1), BuildingBlock: MIFKUJ_clean_linker_0, # of connection points: 2
#     Edge 47, Type (0, 1), BuildingBlock: MIFKUJ_clean_linker_0, # of connection points: 2
#     Edge 48, Type (0, 1), BuildingBlock: MIFKUJ_clean_linker_0, # of connection points: 2
#     Edge 49, Type (0, 1), BuildingBlock: MIFKUJ_clean_linker_0, # of connection points: 2
#     Edge 50, Type (0, 1), BuildingBlock: MIFKUJ_clean_linker_0, # of connection points: 2
#     Edge 51, Type (0, 1), BuildingBlock: MIFKUJ_clean_linker_0, # of connection points: 2
#     Edge 52, Type (0, 1), BuildingBlock: MIFKUJ_clean_linker_0, # of connection points: 2
#     Edge 53, Type (0, 1), BuildingBlock: MIFKUJ_clean_linker_0, # of connection points: 2
#     Edge 54, Type (0, 1), BuildingBlock: MIFKUJ_clean_linker_0, # of connection points: 2
#     Edge 55, Type (0, 1), BuildingBlock: MIFKUJ_clean_linker_0, # of connection points: 2
#     Edge 56, Type (0, 1), BuildingBlock: MIFKUJ_clean_linker_0, # of connection points: 2
#     Edge 57, Type (0, 1), BuildingBlock: MIFKUJ_clean_linker_0, # of connection points: 2
#     Edge 58, Type (0, 1), BuildingBlock: MIFKUJ_clean_linker_0, # of connection points: 2
#     Edge 59, Type (0, 1), BuildingBlock: MIFKUJ_clean_linker_0, # of connection points: 2
#     Edge 60, Type (0, 1), BuildingBlock: MIFKUJ_clean_linker_0, # of connection points: 2
#     Edge 61, Type (0, 1), BuildingBlock: MIFKUJ_clean_linker_0, # of connection points: 2
# Relax obj value: 0.058
# Max RMSD: 0.138
# Mean RMSD: 0.098
data_MOF--net-ocu--node1-KUMBOL_clean_sbu_1--node2-VETTIZ_charged_sbu_0--edge1-MIFKUJ_clean_linker_0
_symmetry_space_group_name_H-M    P1
_symmetry_Int_Tables_number       1
_symmetry_cell_setting            triclinic
loop_
_symmetry_equiv_pos_as_xyz
'x, y, z'
_cell_length_a     49.9382
_cell_length_b     50.148098
_cell_length_c     52.016295
_cell_angle_alpha  98.031503
_cell_angle_beta   82.37005
_cell_angle_gamma 101.74213
loop_
_atom_site_label
_atom_site_type_symbol
_atom_site_fract_x
_atom_site_fract_y
_atom_site_fract_z
_atom_type_partial_charge
C0 C 0.31261 0.32695 0.31762 0.0
C1 C 0.28663 0.32783 0.36057 0.0
C2 C 0.29187 0.31467 0.33513 0.0
C3 C 0.30179 0.35401 0.36779 0.0
C4 C 0.32839 0.35292 0.32508 0.0
C5 C 0.32254 0.36657 0.35006 0.0
N6 N 0.31824 0.31294 0.29382 0.0
C7 C 0.34038 0.32306 0.2772 0.0
C8 C 0.35007 0.36409 0.30746 0.0
C9 C 0.35626 0.34895 0.28354 0.0
Gd10 Gd 0.23298 0.25432 0.23352 0.0
Gd11 Gd 0.28979 0.26993 0.28518 0.0
N12 N 0.27709 0.28958 0.32742 0.0
C13 C 0.26642 0.31415 0.37803 0.0
C14 C 0.25849 0.2755 0.34476 0.0
C15 C 0.2525 0.28775 0.37016 0.0
H16 H 0.2482 0.25495 0.33883 0.0
H17 H 0.2373 0.27676 0.38369 0.0
H18 H 0.27065 0.2879 0.18506 0.0
H19 H 0.34618 0.31107 0.25916 0.0
H20 H 0.29106 0.2765 0.14004 0.0
H21 H 0.26176 0.32358 0.39773 0.0
H22 H 0.29787 0.36457 0.38715 0.0
H23 H 0.19795 0.19471 0.25373 0.0
H24 H 0.36263 0.38401 0.31244 0.0
H25 H 0.37353 0.35705 0.27013 0.0
H26 H 0.26221 0.17918 0.12302 0.0
H27 H 0.33436 0.3866 0.35606 0.0
H28 H 0.20648 0.13138 0.19073 0.0
H29 H 0.18801 0.14603 0.23584 0.0
N30 N 0.22297 0.20737 0.21956 0.0
C31 C 0.23287 0.19992 0.19444 0.0
C32 C 0.20675 0.18855 0.23428 0.0
C33 C 0.21119 0.15278 0.19856 0.0
C34 C 0.2008 0.16095 0.22409 0.0
C35 C 0.22737 0.17232 0.18337 0.0
H36 H 0.23407 0.14395 0.14877 0.0
N37 N 0.2546 0.24644 0.19117 0.0
C38 C 0.24914 0.21994 0.17994 0.0
C39 C 0.27529 0.23324 0.13968 0.0
C40 C 0.2597 0.21263 0.15395 0.0
C41 C 0.26863 0.26675 0.17695 0.0
C42 C 0.27956 0.26042 0.15116 0.0
O43 O 0.25447 0.29368 0.29805 0.0
O44 O 0.22289 0.28548 0.26734 0.0
O45 O 0.21551 0.27569 0.20782 0.0
O46 O 0.18936 0.24296 0.22849 0.0
O47 O 0.2555 0.23244 0.28464 0.0
O48 O 0.21599 0.24163 0.27338 0.0
O49 O 0.26574 0.22694 0.23155 0.0
O50 O 0.30534 0.25515 0.24367 0.0
O51 O 0.29597 0.23267 0.29871 0.0
O52 O 0.3275 0.26905 0.30129 0.0
O53 O 0.26149 0.29577 0.23494 0.0
O54 O 0.30189 0.28789 0.24667 0.0
C55 C 0.23205 0.2979 0.28941 0.0
C56 C 0.2289 0.23187 0.28933 0.0
C57 C 0.16679 0.26526 0.20088 0.0
C58 C 0.14237 0.29388 0.1814 0.0
C59 C 0.11936 0.24851 0.19197 0.0
C60 C 0.14302 0.24472 0.20138 0.0
C61 C 0.11893 0.27292 0.18223 0.0
C62 C 0.16653 0.28979 0.19042 0.0
C63 C 0.19093 0.26141 0.21272 0.0
C64 C 0.2542 0.18513 0.14294 0.0
C65 C 0.23813 0.16506 0.15759 0.0
H66 H 0.28374 0.22844 0.11967 0.0
C67 C 0.2929 0.23392 0.22899 0.0
C68 C 0.28836 0.30165 0.23478 0.0
C69 C 0.34204 0.22668 0.29497 0.0
C70 C 0.37278 0.19709 0.30276 0.0
C71 C 0.37308 0.21002 0.25938 0.0
C72 C 0.35312 0.22573 0.26876 0.0
C73 C 0.38311 0.196 0.27622 0.0
C74 C 0.35178 0.21218 0.312 0.0
C75 C 0.32079 0.24321 0.30458 0.0
H76 H 0.10117 0.23253 0.19245 0.0
H77 H 0.14265 0.22572 0.20922 0.0
H78 H 0.10023 0.27538 0.17514 0.0
H79 H 0.18462 0.30594 0.19014 0.0
H80 H 0.38069 0.20872 0.23896 0.0
H81 H 0.3463 0.23708 0.2555 0.0
H82 H 0.39878 0.18406 0.26848 0.0
H83 H 0.34352 0.21313 0.33239 0.0
C84 C 0.83874 0.226 0.20664 0.0
C85 C 0.88285 0.25229 0.21783 0.0
C86 C 0.85444 0.24333 0.22458 0.0
C87 C 0.89493 0.24433 0.19273 0.0
C88 C 0.85081 0.21795 0.18141 0.0
C89 C 0.87894 0.22736 0.17451 0.0
N90 N 0.81153 0.21719 0.2138 0.0
C91 C 0.79536 0.19987 0.197 0.0
C92 C 0.83423 0.20061 0.16388 0.0
C93 C 0.80642 0.1915 0.17176 0.0
Gd94 Gd 0.75099 0.29027 0.26763 0.0
Gd95 Gd 0.79539 0.23074 0.25699 0.0
N96 N 0.84219 0.25058 0.24885 0.0
C97 C 0.89847 0.26828 0.23679 0.0
C98 C 0.85781 0.26458 0.2678 0.0
C99 C 0.88588 0.2743 0.26189 0.0
H100 H 0.84926 0.2672 0.28782 0.0
H101 H 0.89793 0.28567 0.27695 0.0
H102 H 0.69526 0.25255 0.2401 0.0
H103 H 0.77407 0.19206 0.20318 0.0
H104 H 0.64729 0.23294 0.2539 0.0
H105 H 0.92041 0.27514 0.23262 0.0
H106 H 0.91674 0.25076 0.18733 0.0
H107 H 0.77453 0.33198 0.31926 0.0
H108 H 0.84274 0.19398 0.14433 0.0
H109 H 0.79355 0.17781 0.1585 0.0
H110 H 0.63353 0.26935 0.34384 0.0
H111 H 0.8886 0.22136 0.15525 0.0
H112 H 0.70911 0.32998 0.38147 0.0
H113 H 0.75743 0.34685 0.36462 0.0
N114 N 0.73661 0.30619 0.3108 0.0
C115 C 0.70978 0.2972 0.31943 0.0
C116 C 0.75359 0.32404 0.32655 0.0
C117 C 0.71655 0.32327 0.36157 0.0
C118 C 0.74387 0.33275 0.35217 0.0
C119 C 0.69911 0.30532 0.34517 0.0
H120 H 0.66304 0.30097 0.37356 0.0
N121 N 0.70424 0.27123 0.27803 0.0
C122 C 0.69322 0.27903 0.30267 0.0
C123 C 0.64901 0.25162 0.29365 0.0
C124 C 0.66542 0.26903 0.31124 0.0
C125 C 0.68773 0.25595 0.26034 0.0
C126 C 0.66012 0.24542 0.26797 0.0
O127 O 0.79973 0.25799 0.22485 0.0
O128 O 0.79444 0.29921 0.24781 0.0
O129 O 0.73402 0.30876 0.23872 0.0
O130 O 0.74997 0.33349 0.27336 0.0
O131 O 0.79987 0.26175 0.29387 0.0
O132 O 0.79352 0.30205 0.28113 0.0
O133 O 0.74425 0.26143 0.29946 0.0
O134 O 0.75218 0.22126 0.27598 0.0
O135 O 0.81368 0.21141 0.28354 0.0
O136 O 0.79404 0.18688 0.25127 0.0
O137 O 0.74476 0.25864 0.23153 0.0
O138 O 0.75305 0.21853 0.24336 0.0
C139 C 0.80511 0.28484 0.22742 0.0
C140 C 0.80397 0.28886 0.29637 0.0
C141 C 0.73269 0.3583 0.24441 0.0
C142 C 0.71827 0.38373 0.21341 0.0
C143 C 0.73468 0.40754 0.25392 0.0
C144 C 0.7387 0.38297 0.26095 0.0
C145 C 0.72471 0.408 0.23027 0.0
C146 C 0.72202 0.35871 0.22062 0.0
C147 C 0.73895 0.33296 0.25201 0.0
C148 C 0.65479 0.27696 0.33691 0.0
C149 C 0.67157 0.29504 0.35382 0.0
H150 H 0.62757 0.24353 0.29947 0.0
C151 C 0.74144 0.23455 0.29692 0.0
C152 C 0.74141 0.23157 0.22892 0.0
C153 C 0.83309 0.17355 0.263 0.0
C154 C 0.86705 0.15148 0.27706 0.0
C155 C 0.86661 0.15494 0.23099 0.0
C156 C 0.84416 0.16815 0.23693 0.0
C157 C 0.87801 0.14659 0.25089 0.0
C158 C 0.84465 0.16518 0.28296 0.0
C159 C 0.80936 0.18748 0.26974 0.0
H160 H 0.73947 0.42637 0.26681 0.0
H161 H 0.74682 0.38341 0.27934 0.0
H162 H 0.72177 0.42737 0.22519 0.0
H163 H 0.71726 0.33995 0.20759 0.0
H164 H 0.8751 0.15101 0.21088 0.0
H165 H 0.8354 0.17385 0.22107 0.0
H166 H 0.89547 0.13641 0.24583 0.0
H167 H 0.83581 0.16885 0.30304 0.0
C168 C 0.83188 0.80898 0.18827 0.0
C169 C 0.82498 0.77837 0.14806 0.0
C170 C 0.81537 0.788 0.17369 0.0
C171 C 0.85158 0.78945 0.13743 0.0
C172 C 0.85852 0.82028 0.17745 0.0
C173 C 0.86833 0.81023 0.15211 0.0
N174 N 0.82172 0.81866 0.21267 0.0
C175 C 0.83676 0.84034 0.22668 0.0
C176 C 0.87439 0.8417 0.19222 0.0
C177 C 0.86339 0.85186 0.21684 0.0
Gd178 Gd 0.76838 0.74413 0.28039 0.0
Gd179 Gd 0.77624 0.79801 0.22583 0.0
N180 N 0.78987 0.77708 0.1846 0.0
C181 C 0.80739 0.75808 0.13377 0.0
C182 C 0.77256 0.75758 0.17068 0.0
C183 C 0.78111 0.74758 0.14513 0.0
H184 H 0.75195 0.75033 0.17901 0.0
H185 H 0.76727 0.73217 0.13405 0.0
H186 H 0.78088 0.79014 0.33227 0.0
H187 H 0.82829 0.84943 0.24519 0.0
H188 H 0.75875 0.80197 0.37669 0.0
H189 H 0.81364 0.75087 0.11376 0.0
H190 H 0.85935 0.78215 0.11781 0.0
H191 H 0.73423 0.68176 0.25898 0.0
H192 H 0.89495 0.8509 0.18459 0.0
H193 H 0.87528 0.8689 0.22811 0.0
H194 H 0.67614 0.73367 0.3837 0.0
H195 H 0.88876 0.81866 0.14355 0.0
H196 H 0.66308 0.66131 0.31329 0.0
H197 H 0.69126 0.65012 0.27184 0.0
N198 N 0.72893 0.71176 0.29145 0.0
C199 C 0.71443 0.71774 0.31483 0.0
C200 C 0.72144 0.6874 0.27651 0.0
C201 C 0.68153 0.6756 0.30739 0.0
C202 C 0.69736 0.66922 0.28397 0.0
C203 C 0.69031 0.6998 0.32345 0.0
H204 H 0.65758 0.69266 0.35496 0.0
N205 N 0.74827 0.75759 0.32227 0.0
C206 C 0.72466 0.74106 0.33092 0.0
C207 C 0.72355 0.76929 0.37258 0.0
C208 C 0.71138 0.74674 0.35619 0.0
C209 C 0.76115 0.77849 0.33872 0.0
C210 C 0.74875 0.785 0.36392 0.0
O211 O 0.80386 0.765 0.21867 0.0
O212 O 0.78367 0.72655 0.23951 0.0
O213 O 0.80488 0.74841 0.30013 0.0
O214 O 0.77913 0.70854 0.29337 0.0
O215 O 0.73735 0.76675 0.23335 0.0
O216 O 0.74777 0.72738 0.24377 0.0
O217 O 0.74108 0.77733 0.29181 0.0
O218 O 0.7521 0.81169 0.2639 0.0
O219 O 0.74542 0.80475 0.20289 0.0
O220 O 0.77765 0.83845 0.21487 0.0
O221 O 0.80315 0.77779 0.26917 0.0
O222 O 0.7921 0.81742 0.26354 0.0
C223 C 0.80154 0.73869 0.22156 0.0
C224 C 0.73459 0.73998 0.23037 0.0
C225 C 0.82689 0.71039 0.29186 0.0
C226 C 0.86064 0.68332 0.29819 0.0
C227 C 0.86375 0.70352 0.25768 0.0
C228 C 0.8408 0.71515 0.26723 0.0
C229 C 0.87355 0.68762 0.27293 0.0
C230 C 0.83693 0.6946 0.30742 0.0
C231 C 0.80219 0.72222 0.30135 0.0
C232 C 0.68681 0.72947 0.36447 0.0
C233 C 0.67624 0.70611 0.34809 0.0
H234 H 0.71402 0.77432 0.39214 0.0
C235 C 0.73847 0.80125 0.28496 0.0
C236 C 0.80303 0.80351 0.27728 0.0
C237 C 0.75846 0.84072 0.17629 0.0
C238 C 0.73886 0.8639 0.14725 0.0
C239 C 0.78231 0.84864 0.13351 0.0
C240 C 0.78103 0.83872 0.15748 0.0
C241 C 0.76136 0.86114 0.12835 0.0
C242 C 0.73749 0.85334 0.17114 0.0
C243 C 0.75644 0.8305 0.20169 0.0
H244 H 0.87405 0.70697 0.23843 0.0
H245 H 0.83402 0.72805 0.25548 0.0
H246 H 0.89128 0.67866 0.26486 0.0
H247 H 0.82664 0.69165 0.32679 0.0
H248 H 0.79969 0.84684 0.11898 0.0
H249 H 0.79776 0.82986 0.16131 0.0
H250 H 0.76277 0.8686 0.10957 0.0
H251 H 0.72046 0.85552 0.18605 0.0
C252 C 0.28292 0.68393 0.30938 0.0
C253 C 0.24885 0.64502 0.29436 0.0
C254 C 0.2672 0.66975 0.28982 0.0
C255 C 0.24545 0.63566 0.31901 0.0
C256 C 0.28013 0.67412 0.3339 0.0
C257 C 0.26109 0.65012 0.3387 0.0
N258 N 0.30082 0.70748 0.30448 0.0
C259 C 0.31733 0.72155 0.32276 0.0
C260 C 0.29649 0.68882 0.35297 0.0
C261 C 0.31526 0.71253 0.34731 0.0
Gd262 Gd 0.26118 0.77744 0.25992 0.0
Gd263 Gd 0.3037 0.72005 0.2623 0.0
N264 N 0.27086 0.67927 0.26604 0.0
C265 C 0.23528 0.62979 0.27365 0.0
C266 C 0.2603 0.66264 0.24522 0.0
C267 C 0.2416 0.63833 0.24883 0.0
H268 H 0.26695 0.66732 0.22552 0.0
H269 H 0.23283 0.62578 0.23225 0.0
H270 H 0.31781 0.82561 0.26055 0.0
H271 H 0.33207 0.7397 0.31833 0.0
H272 H 0.3408 0.86419 0.23588 0.0
H273 H 0.22108 0.61068 0.27631 0.0
H274 H 0.23122 0.61689 0.32288 0.0
H275 H 0.20171 0.75148 0.23463 0.0
H276 H 0.2949 0.68196 0.37206 0.0
H277 H 0.32822 0.7238 0.36181 0.0
H278 H 0.28253 0.86091 0.16859 0.0
H279 H 0.2585 0.64243 0.3575 0.0
H280 H 0.19945 0.79308 0.16869 0.0
H281 H 0.17819 0.75743 0.19753 0.0
N282 N 0.23667 0.78216 0.22585 0.0
C283 C 0.24843 0.80217 0.21057 0.0
C284 C 0.21156 0.76647 0.22167 0.0
C285 C 0.21007 0.79023 0.18467 0.0
C286 C 0.19802 0.77005 0.20088 0.0
C287 C 0.23546 0.8068 0.18957 0.0
H288 H 0.23845 0.83177 0.1581 0.0
N289 N 0.28542 0.81295 0.23634 0.0
C290 C 0.27334 0.81839 0.21628 0.0
C291 C 0.31061 0.85638 0.20844 0.0
C292 C 0.28584 0.83997 0.20145 0.0
C293 C 0.30902 0.82941 0.24387 0.0
C294 C 0.32206 0.85125 0.22993 0.0
O295 O 0.2758 0.73386 0.29793 0.0
O296 O 0.23923 0.74108 0.28032 0.0
O297 O 0.26224 0.81159 0.28993 0.0
O298 O 0.22367 0.79303 0.27403 0.0
O299 O 0.27713 0.71594 0.22852 0.0
O300 O 0.24025 0.73418 0.24852 0.0
O301 O 0.29235 0.77077 0.22485 0.0
O302 O 0.32703 0.75446 0.2394 0.0
O303 O 0.32293 0.693 0.23272 0.0
O304 O 0.33989 0.70528 0.26945 0.0
O305 O 0.29278 0.78606 0.28944 0.0
O306 O 0.3278 0.76155 0.2761 0.0
C307 C 0.24919 0.73167 0.29847 0.0
C308 C 0.25086 0.71753 0.23015 0.0
C309 C 0.22277 0.81081 0.31875 0.0
C310 C 0.21471 0.83836 0.36018 0.0
C311 C 0.19987 0.78879 0.35644 0.0
C312 C 0.20988 0.78695 0.32996 0.0
C313 C 0.20197 0.81441 0.37151 0.0
C314 C 0.22581 0.83606 0.33401 0.0
C315 C 0.23578 0.81035 0.29196 0.0
C316 C 0.27317 0.84453 0.18033 0.0
C317 C 0.24807 0.82793 0.17435 0.0
H318 H 0.32087 0.87322 0.1976 0.0
C319 C 0.31813 0.7677 0.2231 0.0
C320 C 0.31818 0.7824 0.28981 0.0
C321 C 0.33297 0.65802 0.25343 0.0
C322 C 0.31328 0.61068 0.23817 0.0
C323 C 0.32457 0.62269 0.28277 0.0
C324 C 0.33384 0.65006 0.27816 0.0
C325 C 0.31429 0.603 0.26288 0.0
C326 C 0.32318 0.63802 0.23354 0.0
C327 C 0.33806 0.68722 0.24896 0.0
H328 H 0.19016 0.77041 0.36521 0.0
H329 H 0.20781 0.76709 0.31845 0.0
H330 H 0.19293 0.8155 0.39164 0.0
H331 H 0.23676 0.85416 0.32525 0.0
H332 H 0.3251 0.61678 0.3019 0.0
H333 H 0.34094 0.66502 0.29411 0.0
H334 H 0.30722 0.5819 0.26672 0.0
H335 H 0.32298 0.64386 0.21427 0.0
C336 C 0.32419 0.72771 0.71044 0.0
C337 C 0.36741 0.76041 0.70895 0.0
C338 C 0.34059 0.75159 0.72085 0.0
C339 C 0.37741 0.74506 0.68635 0.0
C340 C 0.33417 0.71229 0.68773 0.0
C341 C 0.36083 0.72111 0.67574 0.0
N342 N 0.29851 0.71958 0.72248 0.0
C343 C 0.28178 0.69623 0.71298 0.0
C344 C 0.31704 0.68844 0.67772 0.0
C345 C 0.29075 0.68038 0.69042 0.0
Gd346 Gd 0.23595 0.80177 0.76389 0.0
Gd347 Gd 0.28567 0.74758 0.76006 0.0
N348 N 0.33008 0.76649 0.74236 0.0
C349 C 0.38337 0.78444 0.72011 0.0
C350 C 0.34588 0.78941 0.75382 0.0
C351 C 0.37261 0.79888 0.74274 0.0
H352 H 0.33806 0.80033 0.77157 0.0
H353 H 0.38497 0.81721 0.75176 0.0
H354 H 0.18999 0.7665 0.72325 0.0
H355 H 0.26166 0.68956 0.72305 0.0
H356 H 0.14214 0.74167 0.7265 0.0
H357 H 0.40408 0.79188 0.71155 0.0
H358 H 0.39795 0.75156 0.67689 0.0
H359 H 0.24557 0.83679 0.82249 0.0
H360 H 0.32395 0.67605 0.66028 0.0
H361 H 0.27745 0.66187 0.68292 0.0
H362 H 0.10902 0.76078 0.81662 0.0
H363 H 0.36884 0.70952 0.65827 0.0
H364 H 0.17023 0.82016 0.87253 0.0
H365 H 0.2188 0.84365 0.86566 0.0
N366 N 0.21261 0.80923 0.80554 0.0
C367 C 0.18579 0.79657 0.80866 0.0
C368 C 0.22445 0.8263 0.82545 0.0
C369 C 0.18189 0.81703 0.85361 0.0
C370 C 0.20933 0.8303 0.84983 0.0
C371 C 0.16974 0.80003 0.83289 0.0
H372 H 0.12954 0.78888 0.85415 0.0
N373 N 0.19042 0.77734 0.76427 0.0
C374 C 0.17451 0.77991 0.78756 0.0
C375 C 0.13511 0.75245 0.76799 0.0
C376 C 0.14652 0.76714 0.79011 0.0
C377 C 0.17867 0.76514 0.74229 0.0
C378 C 0.15117 0.75179 0.74392 0.0
O379 O 0.29528 0.7764 0.7281 0.0
O380 O 0.27924 0.8154 0.7465 0.0
O381 O 0.22042 0.82117 0.73488 0.0
O382 O 0.23039 0.84379 0.77252 0.0
O383 O 0.28922 0.78235 0.79335 0.0
O384 O 0.27581 0.81996 0.78106 0.0
O385 O 0.23317 0.77532 0.79684 0.0
O386 O 0.24116 0.73449 0.77523 0.0
O387 O 0.29917 0.74262 0.79683 0.0
O388 O 0.29676 0.70912 0.76579 0.0
O389 O 0.23845 0.77047 0.72748 0.0
O390 O 0.24503 0.73198 0.74346 0.0
C391 C 0.29409 0.80245 0.72822 0.0
C392 C 0.28957 0.80891 0.79533 0.0
C393 C 0.21384 0.86907 0.74352 0.0
C394 C 0.20191 0.89559 0.71209 0.0
C395 C 0.20802 0.91619 0.75659 0.0
C396 C 0.21387 0.89192 0.76257 0.0
C397 C 0.20221 0.91811 0.73154 0.0
C398 C 0.20749 0.87088 0.71824 0.0
C399 C 0.22174 0.84421 0.75016 0.0
C400 C 0.13056 0.7703 0.81431 0.0
C401 C 0.14218 0.78654 0.83567 0.0
H402 H 0.11365 0.74262 0.76899 0.0
C403 C 0.22834 0.74842 0.7945 0.0
C404 C 0.2357 0.74357 0.72616 0.0
C405 C 0.3308 0.71301 0.79447 0.0
C406 C 0.35742 0.6896 0.81729 0.0
C407 C 0.3807 0.7225 0.78757 0.0
C408 C 0.35541 0.72696 0.78235 0.0
C409 C 0.38175 0.70395 0.80484 0.0
C410 C 0.33185 0.69445 0.81217 0.0
C411 C 0.30409 0.71806 0.78902 0.0
H412 H 0.20812 0.93365 0.77141 0.0
H413 H 0.21861 0.89116 0.78215 0.0
H414 H 0.19761 0.93719 0.72743 0.0
H415 H 0.20755 0.8535 0.7033 0.0
H416 H 0.39957 0.73351 0.77819 0.0
H417 H 0.3552 0.74136 0.76892 0.0
H418 H 0.40169 0.701 0.80868 0.0
H419 H 0.31291 0.68355 0.82158 0.0
C420 C 0.33423 0.30967 0.71095 0.0
C421 C 0.33372 0.28288 0.66834 0.0
C422 C 0.32061 0.28995 0.69335 0.0
C423 C 0.36138 0.29472 0.66189 0.0
C424 C 0.36156 0.32268 0.70404 0.0
C425 C 0.37531 0.31452 0.67974 0.0
N426 N 0.32007 0.31765 0.73394 0.0
C427 C 0.33123 0.3402 0.74972 0.0
C428 C 0.37387 0.34428 0.72127 0.0
C429 C 0.35845 0.35338 0.744 0.0
Gd430 Gd 0.26802 0.23768 0.79383 0.0
Gd431 Gd 0.27515 0.29249 0.74246 0.0
N432 N 0.29395 0.27875 0.7002 0.0
C433 C 0.31831 0.26491 0.65026 0.0
C434 C 0.27827 0.26264 0.68221 0.0
C435 C 0.29034 0.25518 0.65707 0.0
H436 H 0.25668 0.25502 0.68764 0.0
H437 H 0.27824 0.24177 0.64305 0.0
H438 H 0.31273 0.26975 0.83702 0.0
H439 H 0.3192 0.34829 0.76674 0.0
H440 H 0.31068 0.29357 0.88178 0.0
H441 H 0.3276 0.25902 0.63081 0.0
H442 H 0.37194 0.28931 0.64288 0.0
H443 H 0.2045 0.20399 0.78571 0.0
H444 H 0.39483 0.35478 0.7167 0.0
H445 H 0.36739 0.3708 0.75692 0.0
H446 H 0.2148 0.27705 0.91288 0.0
H447 H 0.39639 0.3241 0.67421 0.0
H448 H 0.15253 0.21959 0.85647 0.0
H449 H 0.15856 0.19698 0.81118 0.0
N450 N 0.22372 0.23083 0.81608 0.0
C451 C 0.22121 0.24231 0.84134 0.0
C452 C 0.20189 0.21403 0.8054 0.0
C453 C 0.17267 0.22267 0.84541 0.0
C454 C 0.17596 0.20994 0.81981 0.0
C455 C 0.19545 0.23898 0.85654 0.0
H456 H 0.17361 0.2499 0.89416 0.0
N457 N 0.26924 0.25954 0.83688 0.0
C458 C 0.24451 0.25765 0.8518 0.0
C459 C 0.26658 0.28386 0.8884 0.0
C460 C 0.2425 0.27001 0.87789 0.0
C461 C 0.29294 0.27102 0.84777 0.0
C462 C 0.29192 0.28394 0.87341 0.0
O463 O 0.29216 0.25259 0.7282 0.0
O464 O 0.30662 0.24183 0.76487 0.0
O465 O 0.28301 0.2135 0.81881 0.0
O466 O 0.26044 0.19329 0.78583 0.0
O467 O 0.23731 0.25923 0.74499 0.0
O468 O 0.25066 0.22124 0.75574 0.0
O469 O 0.23522 0.26453 0.79566 0.0
O470 O 0.25962 0.30569 0.78446 0.0
O471 O 0.2382 0.29832 0.72769 0.0
O472 O 0.27343 0.33103 0.7284 0.0
O473 O 0.30784 0.26887 0.79076 0.0
O474 O 0.29297 0.30647 0.78115 0.0
C475 C 0.30721 0.23938 0.73926 0.0
C476 C 0.23604 0.23263 0.74277 0.0
C477 C 0.27493 0.16344 0.81204 0.0
C478 C 0.29583 0.13499 0.83491 0.0
C479 C 0.25685 0.11455 0.81077 0.0
C480 C 0.25604 0.14011 0.80351 0.0
C481 C 0.2765 0.11198 0.82652 0.0
C482 C 0.29504 0.16073 0.82757 0.0
C483 C 0.27273 0.19056 0.8056 0.0
C484 C 0.21673 0.26751 0.89287 0.0
C485 C 0.19328 0.25197 0.88225 0.0
H486 H 0.26593 0.29366 0.90835 0.0
C487 C 0.2391 0.29155 0.79845 0.0
C488 C 0.31027 0.29555 0.79142 0.0
C489 C 0.22944 0.34331 0.73436 0.0
C490 C 0.19506 0.37002 0.72828 0.0
C491 C 0.20921 0.37032 0.77143 0.0
C492 C 0.22731 0.35279 0.76105 0.0
C493 C 0.19319 0.37885 0.75527 0.0
C494 C 0.21337 0.35207 0.71794 0.0
C495 C 0.2478 0.32372 0.72388 0.0
H496 H 0.24209 0.09669 0.80428 0.0
H497 H 0.24031 0.14169 0.79162 0.0
H498 H 0.27683 0.09197 0.83195 0.0
H499 H 0.30976 0.17858 0.83425 0.0
H500 H 0.20773 0.37751 0.79209 0.0
H501 H 0.23975 0.34668 0.77382 0.0
H502 H 0.17975 0.39291 0.7639 0.0
H503 H 0.21493 0.34469 0.6973 0.0
C504 C 0.79119 0.21681 0.81216 0.0
C505 C 0.77137 0.16892 0.80039 0.0
C506 C 0.7784 0.19625 0.79437 0.0
C507 C 0.77637 0.16274 0.82461 0.0
C508 C 0.79598 0.21057 0.83659 0.0
C509 C 0.78834 0.18352 0.84275 0.0
N510 N 0.79904 0.24285 0.80559 0.0
C511 C 0.81235 0.26327 0.82216 0.0
C512 C 0.80855 0.23171 0.8541 0.0
C513 C 0.81671 0.25816 0.84686 0.0
Gd514 Gd 0.73693 0.29387 0.75864 0.0
Gd515 Gd 0.79199 0.24835 0.76321 0.0
N516 N 0.77421 0.2026 0.77075 0.0
C517 C 0.7604 0.14836 0.78154 0.0
C518 C 0.76478 0.18226 0.75188 0.0
C519 C 0.75704 0.15507 0.75723 0.0
H520 H 0.76425 0.18648 0.73219 0.0
H521 H 0.74934 0.13915 0.74228 0.0
H522 H 0.71078 0.29035 0.82185 0.0
H523 H 0.82008 0.28337 0.81625 0.0
H524 H 0.70551 0.32223 0.86202 0.0
H525 H 0.75526 0.1271 0.78521 0.0
H526 H 0.77147 0.14185 0.82939 0.0
H527 H 0.74907 0.33294 0.70931 0.0
H528 H 0.81237 0.22776 0.87311 0.0
H529 H 0.8268 0.27451 0.86014 0.0
H530 H 0.73971 0.41134 0.83419 0.0
H531 H 0.79203 0.17836 0.86136 0.0
H532 H 0.76399 0.41699 0.74258 0.0
H533 H 0.7623 0.38225 0.70375 0.0
N534 N 0.74553 0.33982 0.75074 0.0
C535 C 0.74485 0.35852 0.77229 0.0
C536 C 0.75054 0.34798 0.72633 0.0
C537 C 0.75861 0.3954 0.74511 0.0
C538 C 0.75769 0.37586 0.72314 0.0
C539 C 0.75154 0.38687 0.77005 0.0
H540 H 0.75557 0.42762 0.79129 0.0
N541 N 0.72891 0.32187 0.79801 0.0
C542 C 0.73599 0.34932 0.79656 0.0
C543 C 0.7228 0.35829 0.84292 0.0
C544 C 0.7335 0.36826 0.81909 0.0
C545 C 0.71734 0.31207 0.821 0.0
C546 C 0.71434 0.3301 0.84379 0.0
O547 O 0.76041 0.25226 0.79853 0.0
O548 O 0.72301 0.25611 0.7793 0.0
O549 O 0.70058 0.26469 0.74878 0.0
O550 O 0.70114 0.30788 0.74928 0.0
O551 O 0.756 0.23149 0.7391 0.0
O552 O 0.75003 0.26862 0.72167 0.0
O553 O 0.77274 0.30164 0.72748 0.0
O554 O 0.80841 0.28176 0.73634 0.0
O555 O 0.8142 0.22437 0.7329 0.0
O556 O 0.83406 0.24559 0.76662 0.0
O557 O 0.76502 0.30438 0.79181 0.0
O558 O 0.80616 0.29352 0.77356 0.0
C559 C 0.73368 0.24783 0.79773 0.0
C560 C 0.7473 0.24203 0.72075 0.0
C561 C 0.65874 0.27858 0.75961 0.0
C562 C 0.62856 0.27814 0.80031 0.0
C563 C 0.60965 0.26264 0.75887 0.0
C564 C 0.63604 0.26824 0.74557 0.0
C565 C 0.60582 0.26774 0.78612 0.0
C566 C 0.65495 0.28271 0.78678 0.0
C567 C 0.6866 0.28314 0.7462 0.0
C568 C 0.7412 0.39649 0.81705 0.0
C569 C 0.75026 0.40577 0.79261 0.0
H570 H 0.72047 0.3722 0.86063 0.0
C571 C 0.79857 0.29827 0.72385 0.0
C572 C 0.79218 0.31007 0.78889 0.0
C573 C 0.8397 0.2 0.75332 0.0
C574 C 0.83252 0.15021 0.74377 0.0
C575 C 0.8483 0.1723 0.78509 0.0
C576 C 0.84816 0.19793 0.77763 0.0
C577 C 0.84025 0.1485 0.76841 0.0
C578 C 0.83273 0.17608 0.73627 0.0
C579 C 0.83436 0.2262 0.74716 0.0
H580 H 0.59209 0.25478 0.74802 0.0
H581 H 0.63877 0.26434 0.72446 0.0
H582 H 0.58509 0.26448 0.79593 0.0
H583 H 0.67268 0.28989 0.79737 0.0
H584 H 0.85423 0.17086 0.80405 0.0
H585 H 0.85367 0.21599 0.79132 0.0
H586 H 0.8401 0.12881 0.77477 0.0
H587 H 0.82706 0.17765 0.71721 0.0
C588 C 0.8131 0.82927 0.82894 0.0
C589 C 0.7839 0.82939 0.87029 0.0
C590 C 0.79197 0.81605 0.84564 0.0
C591 C 0.79613 0.85676 0.87734 0.0
C592 C 0.82638 0.85632 0.83665 0.0
C593 C 0.81725 0.87022 0.86053 0.0
N594 N 0.8221 0.81502 0.80627 0.0
C595 C 0.84586 0.82574 0.79194 0.0
C596 C 0.84929 0.86818 0.82072 0.0
C597 C 0.85939 0.85259 0.79859 0.0
Gd598 Gd 0.74211 0.76082 0.7414 0.0
Gd599 Gd 0.79696 0.77024 0.79728 0.0
N600 N 0.78028 0.78956 0.8383 0.0
C601 C 0.76454 0.81445 0.88753 0.0
C602 C 0.76272 0.7744 0.85556 0.0
C603 C 0.75438 0.7867 0.88035 0.0
H604 H 0.75493 0.75294 0.85001 0.0
H605 H 0.7399 0.77485 0.89378 0.0
H606 H 0.7875 0.78079 0.69193 0.0
H607 H 0.85494 0.81353 0.77564 0.0
H608 H 0.80111 0.76348 0.64612 0.0
H609 H 0.75792 0.82394 0.9067 0.0
H610 H 0.78999 0.86745 0.89609 0.0
H611 H 0.68503 0.71584 0.7618 0.0
H612 H 0.86009 0.88886 0.82599 0.0
H613 H 0.87797 0.861 0.78695 0.0
H614 H 0.74294 0.67488 0.63333 0.0
H615 H 0.82707 0.89107 0.86661 0.0
H616 H 0.67421 0.64746 0.70277 0.0
H617 H 0.6598 0.67043 0.7461 0.0
N618 N 0.71567 0.71759 0.72896 0.0
C619 C 0.72329 0.70578 0.7046 0.0
C620 C 0.69262 0.70559 0.74345 0.0
C621 C 0.686 0.66711 0.70988 0.0
C622 C 0.67783 0.67999 0.73438 0.0
C623 C 0.70858 0.68023 0.69441 0.0
H624 H 0.70523 0.64934 0.6608 0.0
N625 N 0.75864 0.74467 0.69925 0.0
C626 C 0.74497 0.71993 0.68914 0.0
C627 C 0.77253 0.72505 0.64759 0.0
C628 C 0.75189 0.70926 0.66309 0.0
C629 C 0.77806 0.76057 0.68405 0.0
C630 C 0.78551 0.75091 0.65808 0.0
O631 O 0.75977 0.79252 0.80782 0.0
O632 O 0.72491 0.78087 0.78005 0.0
O633 O 0.73939 0.79666 0.72342 0.0
O634 O 0.70374 0.76431 0.72785 0.0
O635 O 0.76564 0.73283 0.78632 0.0
O636 O 0.72517 0.74179 0.77868 0.0
O637 O 0.77777 0.73623 0.73036 0.0
O638 O 0.81144 0.74619 0.75955 0.0
O639 O 0.79978 0.73827 0.82062 0.0
O640 O 0.83614 0.76758 0.80922 0.0
O641 O 0.77516 0.79784 0.75059 0.0
O642 O 0.81453 0.78702 0.75937 0.0
C643 C 0.73546 0.79436 0.80118 0.0
C644 C 0.7393 0.73119 0.79279 0.0
C645 C 0.7061 0.79196 0.69387 0.0
C646 C 0.68622 0.81891 0.66827 0.0
C647 C 0.70432 0.77875 0.64737 0.0
C648 C 0.71127 0.77417 0.67127 0.0
C649 C 0.69197 0.80099 0.6458 0.0
C650 C 0.69337 0.8142 0.69233 0.0
C651 C 0.71378 0.78786 0.71921 0.0
C652 C 0.73773 0.68353 0.6532 0.0
C653 C 0.71625 0.66898 0.66887 0.0
H654 H 0.77832 0.71763 0.62746 0.0
C655 C 0.80142 0.7332 0.7379 0.0
C656 C 0.80161 0.79856 0.74497 0.0
C657 C 0.83493 0.74937 0.84879 0.0
C658 C 0.85532 0.72966 0.87996 0.0
C659 C 0.84606 0.77592 0.88998 0.0
C660 C 0.83587 0.7737 0.86591 0.0
C661 C 0.85596 0.75412 0.89693 0.0
C662 C 0.84436 0.72726 0.85603 0.0
C663 C 0.82587 0.74718 0.82271 0.0
H664 H 0.70841 0.76493 0.63 0.0
H665 H 0.72053 0.75673 0.67205 0.0
H666 H 0.68648 0.80391 0.62706 0.0
H667 H 0.68934 0.82798 0.70979 0.0
H668 H 0.84672 0.79476 0.90309 0.0
H669 H 0.82931 0.79116 0.86052 0.0
H670 H 0.86407 0.75633 0.91558 0.0
H671 H 0.84408 0.70859 0.84266 0.0
Fe672 Fe 1.00849 0.08177 0.53209 0.0
O673 O 1.00025 0.03784 0.52841 0.0
Fe674 Fe 0.04926 0.02998 0.51977 0.0
Fe675 Fe 0.96328 1.00875 0.51669 0.0
O676 O 1.01402 0.0435 0.52324 0.0
O677 O 0.02733 0.99537 0.53536 0.0
O678 O 0.99883 0.99818 0.50424 0.0
Fe679 Fe 1.01008 0.96456 0.51038 0.0
C680 C 0.96144 0.05679 0.56008 0.0
O681 O 0.98027 0.077 0.50432 0.0
O682 O 0.96763 0.03228 0.48635 0.0
O683 O 0.03784 0.97025 0.47821 0.0
O684 O 0.04454 0.01549 0.48115 0.0
O685 O 0.07222 0.0645 0.50437 0.0
O686 O 0.0394 0.08815 0.50123 0.0
O687 O 0.94846 0.97302 0.49352 0.0
O688 O 0.97951 0.9442 0.48752 0.0
C689 C 0.06353 0.08274 0.49455 0.0
O690 O 0.04564 0.9828 0.53224 0.0
O691 O 0.08237 1.01106 0.51744 0.0
O692 O 0.97715 0.07945 0.56404 0.0
O693 O 0.97063 0.04267 0.54062 0.0
C694 C 0.97075 0.05846 0.48613 0.0
C695 C 0.95667 0.95058 0.48359 0.0
C696 C 0.96434 0.967 0.55576 0.0
O697 O 0.95656 0.98743 0.54898 0.0
O698 O 0.98343 0.95602 0.54272 0.0
C699 C 0.04799 0.99261 0.46881 0.0
O700 O 0.05578 0.04827 0.55654 0.0
O701 O 0.03705 0.08625 0.55895 0.0
C702 C 0.07252 0.98734 0.52469 0.0
C703 C 0.05202 0.07197 0.56736 0.0
Fe704 Fe 0.51475 0.98527 1.00968 0.0
O705 O 0.53565 0.01864 0.99384 0.0
Fe706 Fe 0.45313 1.00638 0.03621 0.0
Fe707 Fe 0.57614 0.02761 0.98944 0.0
O708 O 0.49344 1.01226 0.031 0.0
O709 O 0.49363 0.01539 0.03191 0.0
O710 O 0.53583 0.02179 0.99471 0.0
Fe711 Fe 0.51463 0.04881 0.01618 0.0
C712 C 0.5662 0.99288 0.035 0.0
O713 O 0.54149 0.96144 0.98452 0.0
O714 O 0.57136 0.99347 0.96152 0.0
O715 O 0.48871 0.04274 0.98741 0.0
O716 O 0.44845 0.03351 1.01157 0.0
O717 O 0.44825 0.97534 1.00556 0.0
O718 O 0.48849 0.97728 0.98077 0.0
O719 O 0.57087 0.05724 0.96774 0.0
O720 O 0.54024 0.07996 0.99548 0.0
C721 C 0.46236 0.97016 0.98379 0.0
O722 O 0.4879 0.07248 0.04146 0.0
O723 O 0.45795 0.04032 0.06437 0.0
O724 O 0.54036 0.99161 0.03838 0.0
O725 O 0.58088 1.00092 0.01458 0.0
C726 C 0.56077 0.96824 0.96549 0.0
C727 C 0.55925 0.07836 0.97568 0.0
C728 C 0.56741 0.06448 0.04154 0.0
O729 O 0.58108 0.059 0.01962 0.0
O730 O 0.54128 0.05689 0.04512 0.0
C731 C 0.46284 0.04163 0.99105 0.0
O732 O 0.45821 0.97651 0.05773 0.0
O733 O 0.48945 0.95412 0.03063 0.0
C734 C 0.46858 0.06556 0.06043 0.0
C735 C 0.47027 0.9556 0.05031 0.0
Fe736 Fe 0.02179 0.54497 0.01551 0.0
O737 O 0.99912 0.51156 0.03009 0.0
Fe738 Fe 0.08229 0.52113 0.98995 0.0
Fe739 Fe 0.95853 0.50361 0.03327 0.0
O740 O 0.04213 0.51705 0.99428 0.0
O741 O 0.04169 0.51369 0.99295 0.0
O742 O 0.99867 0.50821 0.02877 0.0
Fe743 Fe 0.01886 0.48034 1.00741 0.0
C744 C 0.97503 0.56247 0.05862 0.0
O745 O 0.99694 0.54071 0.98615 0.0
O746 O 0.95542 0.53089 1.00818 0.0
O747 O 0.04486 0.45577 0.98218 0.0
O748 O 0.07687 0.488 0.96145 0.0
O749 O 0.07878 0.55137 0.96825 0.0
O750 O 0.04886 0.57561 0.99514 0.0
O751 O 0.95312 0.47226 1.00302 0.0
O752 O 0.9929 0.47408 0.97774 0.0
C753 C 0.06717 0.57266 0.97492 0.0
O754 O 0.04373 0.48442 0.03686 0.0
O755 O 0.08517 0.49289 0.01467 0.0
O756 O 0.9955 0.56951 0.04065 0.0
O757 O 0.96363 0.53719 0.06142 0.0
C758 C 0.97115 0.54008 0.98878 0.0
C759 C 0.96666 0.4672 0.98095 0.0
C760 C 0.97416 0.45281 0.04834 0.0
O761 O 0.96264 0.47411 0.05522 0.0
O762 O 0.99193 0.4497 0.02774 0.0
C763 C 0.0653 0.46276 0.96419 0.0
O764 O 0.08768 0.55192 0.02055 0.0
O765 O 0.04754 0.55151 0.04516 0.0
C766 C 0.06929 0.48383 0.03409 0.0
C767 C 0.0738 0.55792 0.04219 0.0
Fe768 Fe 0.52809 0.52533 0.95661 0.0
O769 O 0.52305 0.53182 0.9953 0.0
Fe770 Fe 0.48567 0.51093 0.0137 0.0
Fe771 Fe 0.54915 0.52245 0.01734 0.0
O772 O 0.52006 0.53038 0.99472 0.0
O773 O 0.51187 0.50184 0.03566 0.0
O774 O 0.51467 0.50347 0.03634 0.0
Fe775 Fe 0.50673 0.50699 0.07416 0.0
C776 C 0.55714 0.48241 0.97021 0.0
O777 O 0.56038 0.55747 0.96204 0.0
O778 O 0.58209 0.54387 0.99324 0.0
O779 O 0.47696 0.5305 0.07614 0.0
O780 O 0.48315 0.54641 0.03764 0.0
O781 O 0.46315 0.52456 0.98784 0.0
O782 O 0.49667 0.54689 0.95881 0.0
O783 O 0.54941 0.55872 0.04159 0.0
O784 O 0.53603 0.5419 0.07975 0.0
C785 C 0.47139 0.54052 0.9693 0.0
O786 O 0.47534 0.4741 0.06762 0.0
O787 O 0.45297 0.48844 0.03729 0.0
O788 O 0.55627 0.49984 0.95488 0.0
O789 O 0.55026 0.48645 0.99448 0.0
C790 C 0.58149 0.55858 0.97449 0.0
C791 C 0.54815 0.5612 0.06643 0.0
C792 C 0.56356 0.49137 0.06018 0.0
O793 O 0.57188 0.50839 0.04259 0.0
O794 O 0.53852 0.48582 0.07131 0.0
C795 C 0.47221 0.54652 0.06106 0.0
O796 O 0.48614 0.4747 0.98964 0.0
O797 O 0.498 0.49109 0.95128 0.0
C798 C 0.45417 0.47279 0.05512 0.0
C799 C 0.48692 0.47182 0.9649 0.0
Fe800 Fe 0.03297 0.46005 0.51252 0.0
O801 O 0.03469 0.49976 0.51356 0.0
Fe802 Fe 0.02343 0.51324 0.48052 0.0
Fe803 Fe 1.01547 0.52241 0.5426 0.0
O804 O 0.03531 0.49922 0.51047 0.0
O805 O 1.00413 0.53592 0.50948 0.0
O806 O 1.00326 0.53629 0.51266 0.0
Fe807 Fe 1.00647 0.57574 0.51034 0.0
C808 C 0.98061 0.46782 0.54949 0.0
O809 O 0.05688 0.47379 0.54289 0.0
O810 O 0.0329 0.5042 0.56952 0.0
O811 O 0.03983 0.58025 0.48206 0.0
O812 O 0.0587 0.54312 0.47905 0.0
O813 O 0.04641 0.48676 0.45413 0.0
O814 O 0.06381 0.4641 0.48185 0.0
O815 O 0.05053 0.55243 0.54277 0.0
O816 O 0.03267 0.58873 0.53946 0.0
C817 C 0.06314 0.47141 0.45902 0.0
O818 O 0.9831 0.56243 0.47953 0.0
O819 O 1.00704 0.53171 0.45344 0.0
O820 O 1.00066 0.45565 0.54139 0.0
O821 O 0.98054 0.49201 0.54462 0.0
C822 C 0.05135 0.48834 0.565 0.0
C823 C 0.05095 0.57807 0.54699 0.0
C824 C 0.9754 0.56475 0.56365 0.0
O825 O 0.99194 0.54921 0.56888 0.0
O826 O 0.97524 0.57183 0.5406 0.0
C827 C 0.05986 0.56779 0.47497 0.0
O828 O 0.98833 0.48314 0.47956 0.0
O829 O 1.00573 0.44681 0.48409 0.0
C830 C 0.98887 0.54773 0.45762 0.0
C831 C 0.98769 0.45737 0.47588 0.0
Fe832 Fe 0.53231 0.95875 0.51365 0.0
O833 O 0.5346 0.99852 0.51562 0.0
Fe834 Fe 0.52626 1.01345 0.48193 0.0
Fe835 Fe 0.51487 0.02093 0.54462 0.0
O836 O 0.53597 0.99831 0.51232 0.0
O837 O 0.50633 0.03592 0.51084 0.0
O838 O 0.50508 0.03624 0.51427 0.0
Fe839 Fe 0.5096 0.07603 0.51284 0.0
C840 C 0.47769 0.96604 0.54778 0.0
O841 O 0.55397 0.97097 0.54562 0.0
O842 O 0.52984 1.00141 0.5719 0.0
O843 O 0.54342 0.08052 0.48567 0.0
O844 O 0.56196 0.04308 0.4816 0.0
O845 O 0.54996 0.98647 0.45597 0.0
O846 O 0.56495 0.96327 0.48479 0.0
O847 O 0.55051 0.04967 0.54677 0.0
O848 O 0.53595 0.08763 0.5422 0.0
C849 C 0.56521 0.9698 0.46146 0.0
O850 O 0.48724 0.06411 0.48104 0.0
O851 O 0.51143 0.03345 0.45488 0.0
O852 O 0.49771 0.95369 0.54004 0.0
O853 O 0.47914 0.99131 0.54524 0.0
C854 C 0.54792 0.98528 0.56769 0.0
C855 C 0.55292 0.07557 0.55022 0.0
C856 C 0.47658 0.06498 0.56552 0.0
O857 O 0.4918 0.0482 0.57079 0.0
O858 O 0.47743 0.0725 0.54248 0.0
C859 C 0.56347 0.06817 0.47849 0.0
O860 O 0.49082 0.98372 0.47928 0.0
O861 O 0.50774 0.94699 0.48332 0.0
C862 C 0.4938 0.05011 0.45888 0.0
C863 C 0.49035 0.95799 0.47475 0.0
H864 H 0.24627 0.19868 0.3191 0.0
H865 H 0.2194 0.17294 0.35354 0.0
H866 H 0.14703 0.20147 0.34054 0.0
H867 H 0.17392 0.22771 0.3064 0.0
H868 H 0.15058 0.20529 0.39127 0.0
H869 H 0.15773 0.13489 0.3194 0.0
H870 H 0.18188 0.10767 0.28406 0.0
H871 H 0.22412 0.0816 0.34 0.0
H872 H 0.20059 0.10909 0.37565 0.0
H873 H 0.04964 0.1169 0.46373 0.0
H874 H 0.07833 0.14081 0.42927 0.0
H875 H 0.14724 0.10705 0.44302 0.0
H876 H 0.11832 0.08233 0.47734 0.0
H877 H 0.14702 0.10592 0.39258 0.0
H878 H 0.14004 0.17615 0.46442 0.0
H879 H 0.11607 0.20347 0.49986 0.0
H880 H 0.07398 0.22995 0.44406 0.0
H881 H 0.09751 0.20259 0.40831 0.0
C882 C 0.22461 0.19943 0.32344 0.0
C883 C 0.21232 0.2153 0.30978 0.0
C884 C 0.20918 0.18453 0.34315 0.0
C885 C 0.18097 0.18488 0.34962 0.0
C886 C 0.16869 0.20073 0.33601 0.0
C887 C 0.18411 0.21566 0.31633 0.0
C888 C 0.16438 0.16931 0.3709 0.0
C889 C 0.14956 0.18348 0.39132 0.0
C890 C 0.16353 0.14095 0.37159 0.0
C891 C 0.1776 0.1243 0.35018 0.0
C892 C 0.17234 0.12355 0.32415 0.0
C893 C 0.1859 0.10804 0.30406 0.0
C894 C 0.20458 0.09297 0.30977 0.0
C895 C 0.20969 0.09333 0.3356 0.0
C896 C 0.19624 0.10887 0.35576 0.0
C897 C 0.07094 0.11458 0.45966 0.0
C898 C 0.08162 0.0978 0.47374 0.0
C899 C 0.08743 0.12842 0.43983 0.0
C900 C 0.11527 0.12632 0.43365 0.0
C901 C 0.12593 0.10924 0.44737 0.0
C902 C 0.10934 0.09516 0.46714 0.0
C903 C 0.13303 0.14188 0.41287 0.0
C904 C 0.1481 0.12774 0.39257 0.0
C905 C 0.13421 0.17032 0.41229 0.0
C906 C 0.12035 0.18712 0.43372 0.0
C907 C 0.12557 0.18769 0.45973 0.0
C908 C 0.11208 0.20321 0.47987 0.0
C909 C 0.09347 0.21839 0.47422 0.0
C910 C 0.0884 0.21819 0.44841 0.0
C911 C 0.10184 0.20272 0.4282 0.0
H912 H 0.08302 0.23036 0.48984 0.0
H913 H 0.21504 0.08097 0.29419 0.0
H914 H 0.88153 0.10184 0.27707 0.0
H915 H 0.90051 0.08584 0.31183 0.0
H916 H 0.89716 0.16299 0.35947 0.0
H917 H 0.87869 0.17936 0.32453 0.0
H918 H 0.94613 0.14646 0.35949 0.0
H919 H 0.84965 0.10705 0.37071 0.0
H920 H 0.80544 0.07974 0.3582 0.0
H921 H 0.8412 1.00742 0.3416 0.0
H922 H 0.8858 0.0344 0.35352 0.0
H923 H 0.95972 0.10901 0.48276 0.0
H924 H 0.94419 0.1244 0.44578 0.0
H925 H 0.94759 0.04574 0.40112 0.0
H926 H 0.96217 0.02971 0.43829 0.0
H927 H 0.89952 0.06205 0.39865 0.0
H928 H 0.99528 0.09976 0.38666 0.0
H929 H 0.03969 0.12545 0.40018 0.0
H930 H 1.00613 0.19903 0.4182 0.0
H931 H 0.96134 0.17367 0.40503 0.0
C932 C 0.88505 0.11547 0.29487 0.0
C933 C 0.87863 0.14185 0.29811 0.0
C934 C 0.89567 0.10623 0.31477 0.0
C935 C 0.89998 0.12315 0.33828 0.0
C936 C 0.89389 0.1496 0.34148 0.0
C937 C 0.88318 0.15884 0.32161 0.0
C938 C 0.91103 0.11333 0.35948 0.0
C939 C 0.93577 0.12819 0.36828 0.0
C940 C 0.89791 0.08901 0.37034 0.0
C941 C 0.87121 0.07287 0.36266 0.0
C942 C 0.84821 0.08541 0.36406 0.0
C943 C 0.82305 0.06996 0.35713 0.0
C944 C 0.82054 0.04188 0.349 0.0
C945 C 0.84319 0.02919 0.3478 0.0
C946 C 0.86842 0.04455 0.35463 0.0
C947 C 0.9572 0.09495 0.46508 0.0
C948 C 0.96202 0.06806 0.46355 0.0
C949 C 0.94842 0.10382 0.44393 0.0
C950 C 0.94472 0.08615 0.42076 0.0
C951 C 0.9499 0.05948 0.419 0.0
C952 C 0.95835 0.05044 0.44024 0.0
C953 C 0.93449 0.09523 0.39868 0.0
C954 C 0.90992 0.08024 0.38974 0.0
C955 C 0.94787 0.11926 0.38755 0.0
C956 C 0.97488 0.13475 0.39507 0.0
C957 C 0.99731 0.12139 0.39366 0.0
C958 C 0.02256 0.13589 0.40124 0.0
C959 C 0.0257 0.16384 0.41014 0.0
C960 C 1.00364 0.17737 0.41133 0.0
C961 C 0.97832 0.16295 0.40376 0.0
H962 H 0.04524 0.17501 0.41606 0.0
H963 H 0.80102 0.02995 0.34371 0.0
H964 H 0.84866 0.79121 0.29271 0.0
H965 H 0.87389 0.81462 0.32917 0.0
H966 H 0.81682 0.87051 0.34735 0.0
H967 H 0.79241 0.84792 0.31006 0.0
H968 H 0.8651 0.89762 0.35105 0.0
H969 H 0.81556 0.81492 0.38273 0.0
H970 H 0.79977 0.76489 0.38113 0.0
H971 H 0.88274 0.75426 0.38234 0.0
H972 H 0.89915 0.80423 0.38342 0.0
H973 H 0.90418 0.95256 0.47552 0.0
H974 H 0.87712 0.92546 0.44204 0.0
H975 H 0.94175 0.8793 0.41634 0.0
H976 H 0.96916 0.90627 0.45005 0.0
H977 H 0.88936 0.84681 0.4172 0.0
H978 H 0.93658 0.9331 0.38616 0.0
H979 H 0.94875 0.98336 0.38643 0.0
H980 H 0.86373 0.98726 0.38599 0.0
H981 H 0.85094 0.93716 0.38635 0.0
C982 C 0.84154 0.80847 0.30457 0.0
C983 C 0.81857 0.81774 0.29883 0.0
C984 C 0.85585 0.82173 0.32546 0.0
C985 C 0.84692 0.84397 0.34137 0.0
C986 C 0.82408 0.85338 0.3354 0.0
C987 C 0.81018 0.84053 0.31412 0.0
C988 C 0.86179 0.85794 0.36384 0.0
C989 C 0.86998 0.88652 0.36576 0.0
C990 C 0.86854 0.84337 0.38279 0.0
C991 C 0.85863 0.81335 0.38293 0.0
C992 C 0.83048 0.80192 0.38253 0.0
C993 C 0.82141 0.77357 0.38169 0.0
C994 C 0.84026 0.75641 0.38157 0.0
C995 C 0.86819 0.76759 0.3824 0.0
C996 C 0.87738 0.79593 0.38313 0.0
C997 C 0.91268 0.93652 0.46294 0.0
C998 C 0.93908 0.93186 0.46528 0.0
C999 C 0.89713 0.92108 0.44377 0.0
C1000 C 0.90768 0.90079 0.42643 0.0
C1001 C 0.93336 0.89503 0.42949 0.0
C1002 C 0.94898 0.91047 0.44876 0.0
C1003 C 0.8924 0.88646 0.40441 0.0
C1004 C 0.88426 0.85782 0.40255 0.0
C1005 C 0.885 0.90104 0.38586 0.0
C1006 C 0.89277 0.93134 0.38655 0.0
C1007 C 0.92043 0.94469 0.38649 0.0
C1008 C 0.92744 0.97317 0.38648 0.0
C1009 C 0.907 0.98845 0.38625 0.0
C1010 C 0.87951 0.97538 0.38621 0.0
C1011 C 0.87238 0.94697 0.38636 0.0
H1012 H 0.9124 1.01041 0.38593 0.0
H1013 H 0.83321 0.73445 0.38087 0.0
H1014 H 0.20614 0.88266 0.34012 0.0
H1015 H 0.19751 0.92536 0.36322 0.0
H1016 H 0.21143 0.90008 0.43557 0.0
H1017 H 0.22112 0.85659 0.41196 0.0
H1018 H 0.16105 0.90534 0.43576 0.0
H1019 H 0.24408 0.9651 0.41855 0.0
H1020 H 0.28743 0.98534 0.39409 0.0
H1021 H 0.24214 1.00996 0.33978 0.0
H1022 H 0.19852 0.98947 0.36354 0.0
H1023 H 0.09617 0.02873 0.46583 0.0
H1024 H 0.13934 0.01541 0.44693 0.0
H1025 H 0.0947 0.94354 0.40461 0.0
H1026 H 0.05125 0.95554 0.42546 0.0
H1027 H 0.17153 0.99694 0.40578 0.0
H1028 H 0.11352 0.88791 0.41858 0.0
H1029 H 0.06895 0.86423 0.43824 0.0
H1030 H 0.06432 0.9334 0.49597 0.0
H1031 H 0.1096 0.95732 0.47744 0.0
C1032 C 0.20882 0.88646 0.36072 0.0
C1033 C 0.21409 0.866 0.37424 0.0
C1034 C 0.20411 0.91127 0.37396 0.0
C1035 C 0.20408 0.91613 0.40112 0.0
C1036 C 0.21163 0.89678 0.41452 0.0
C1037 C 0.21661 0.87179 0.40112 0.0
C1038 C 0.1881 0.93644 0.41505 0.0
C1039 C 0.16374 0.92569 0.42978 0.0
C1040 C 0.19169 0.96306 0.40739 0.0
C1041 C 0.21791 0.9758 0.39301 0.0
C1042 C 0.24332 0.97474 0.40134 0.0
C1043 C 0.26797 0.98625 0.38757 0.0
C1044 C 0.26754 0.99896 0.36542 0.0
C1045 C 0.24245 1.00019 0.35699 0.0
C1046 C 0.21773 0.98869 0.37068 0.0
C1047 C 0.0955 1.01073 0.45158 0.0
C1048 C 0.07059 0.99244 0.44786 0.0
C1049 C 0.12027 1.00317 0.44078 0.0
C1050 C 0.11998 0.97777 0.42562 0.0
C1051 C 0.0951 0.96271 0.41722 0.0
C1052 C 0.07032 0.96963 0.42891 0.0
C1053 C 0.14389 0.96435 0.42387 0.0
C1054 C 0.16942 0.97689 0.41221 0.0
C1055 C 0.14134 0.93896 0.43388 0.0
C1056 C 0.11495 0.92444 0.44653 0.0
C1057 C 0.10325 0.89796 0.43577 0.0
C1058 C 0.0779 0.88451 0.44674 0.0
C1059 C 0.06394 0.89734 0.46847 0.0
C1060 C 0.07544 0.92352 0.47939 0.0
C1061 C 0.10099 0.937 0.46872 0.0
H1062 H 0.04417 0.88703 0.47681 0.0
H1063 H 0.28665 1.00784 0.35477 0.0
H1064 H 0.16338 0.86223 0.68319 0.0
H1065 H 0.14652 0.87284 0.64426 0.0
H1066 H 0.20887 0.94632 0.64294 0.0
H1067 H 0.22532 0.93603 0.68194 0.0
H1068 H 0.15939 0.95784 0.64438 0.0
H1069 H 0.20857 0.89185 0.59434 0.0
H1070 H 0.22199 0.84666 0.58297 0.0
H1071 H 0.13861 0.80948 0.57068 0.0
H1072 H 0.12457 0.85443 0.58237 0.0
H1073 H 0.12732 1.00405 0.53204 0.0
H1074 H 0.15377 0.98354 0.55781 0.0
H1075 H 0.08449 0.91792 0.57011 0.0
H1076 H 0.0576 0.93869 0.54516 0.0
H1077 H 0.13857 0.90111 0.56083 0.0
H1078 H 0.0883 0.96315 0.6154 0.0
H1079 H 0.07174 1.00615 0.63153 0.0
H1080 H 0.15477 0.04851 0.63846 0.0
H1081 H 0.17191 1.00578 0.62189 0.0
C1082 C 0.1739 0.88022 0.67411 0.0
C1083 C 0.19539 0.89852 0.68573 0.0
C1084 C 0.16429 0.88628 0.65186 0.0
C1085 C 0.17632 0.91051 0.64072 0.0
C1086 C 0.19909 0.92766 0.65128 0.0
C1087 C 0.20847 0.92178 0.67356 0.0
C1088 C 0.16329 0.91991 0.62034 0.0
C1089 C 0.15549 0.94563 0.62586 0.0
C1090 C 0.15707 0.90354 0.59662 0.0
C1091 C 0.16548 0.87651 0.58939 0.0
C1092 C 0.19304 0.87402 0.58939 0.0
C1093 C 0.20077 0.84845 0.58286 0.0
C1094 C 0.18117 0.82523 0.57608 0.0
C1095 C 0.15378 0.82751 0.57589 0.0
C1096 C 0.14592 0.85304 0.58244 0.0
C1097 C 0.11782 0.98504 0.53988 0.0
C1098 C 0.09023 0.97315 0.53673 0.0
C1099 C 0.13299 0.97332 0.55455 0.0
C1100 C 0.12105 0.94924 0.56591 0.0
C1101 C 0.09414 0.93641 0.56141 0.0
C1102 C 0.07878 0.94841 0.54724 0.0
C1103 C 0.13544 0.93923 0.5848 0.0
C1104 C 0.1431 0.9134 0.57916 0.0
C1105 C 0.14138 0.9553 0.60864 0.0
C1106 C 0.1314 0.98137 0.61707 0.0
C1107 C 0.10307 0.98173 0.6199 0.0
C1108 C 0.09357 1.006 0.62925 0.0
C1109 C 0.11219 0.02996 0.63608 0.0
C1110 C 0.14039 0.02987 0.63319 0.0
C1111 C 0.15001 1.00565 0.62379 0.0
H1112 H 0.10473 0.04855 0.64376 0.0
H1113 H 0.18724 0.80548 0.57091 0.0
H1114 H 0.23873 0.18132 0.71852 0.0
H1115 H 0.20614 0.15214 0.6903 0.0
H1116 H 0.156 0.21432 0.70207 0.0
H1117 H 0.18873 0.24383 0.72987 0.0
H1118 H 0.12627 0.15933 0.70788 0.0
H1119 H 0.18957 0.21066 0.64731 0.0
H1120 H 0.23436 0.23021 0.62487 0.0
H1121 H 0.25156 0.14934 0.60139 0.0
H1122 H 0.2068 0.12926 0.62384 0.0
H1123 H 0.04272 0.11541 0.60324 0.0
H1124 H 0.07267 0.14011 0.63578 0.0
H1125 H 0.12816 0.08331 0.61271 0.0
H1126 H 0.09821 0.05823 0.58045 0.0
H1127 H 0.15507 0.13435 0.61405 0.0
H1128 H 0.08759 0.08342 0.67287 0.0
H1129 H 0.04071 0.06621 0.69273 0.0
H1130 H 0.02986 0.14881 0.71878 0.0
H1131 H 0.07658 0.16648 0.69869 0.0
C1132 C 0.22068 0.18868 0.71517 0.0
C1133 C 0.21618 0.21478 0.72635 0.0
C1134 C 0.20219 0.17207 0.69903 0.0
C1135 C 0.17875 0.18116 0.69421 0.0
C1136 C 0.17397 0.207 0.70568 0.0
C1137 C 0.19272 0.22383 0.72141 0.0
C1138 C 0.15939 0.16383 0.67684 0.0
C1139 C 0.13241 0.15398 0.68731 0.0
C1140 C 0.16766 0.15664 0.65018 0.0
C1141 C 0.19506 0.16851 0.63759 0.0
C1142 C 0.2031 0.19706 0.63771 0.0
C1143 C 0.22846 0.20822 0.62494 0.0
C1144 C 0.24602 0.19104 0.61202 0.0
C1145 C 0.23811 0.16262 0.61168 0.0
C1146 C 0.2127 0.15133 0.62435 0.0
C1147 C 0.06102 0.10785 0.60545 0.0
C1148 C 0.06802 0.08482 0.58931 0.0
C1149 C 0.07806 0.12192 0.62414 0.0
C1150 C 0.10243 0.11326 0.62695 0.0
C1151 C 0.10925 0.09008 0.6111 0.0
C1152 C 0.09204 0.07574 0.59272 0.0
C1153 C 0.12181 0.1295 0.64503 0.0
C1154 C 0.14889 0.13929 0.63468 0.0
C1155 C 0.11348 0.13678 0.67175 0.0
C1156 C 0.08547 0.12624 0.68402 0.0
C1157 C 0.07511 0.09789 0.68261 0.0
C1158 C 0.04859 0.08806 0.69396 0.0
C1159 C 0.03228 0.10641 0.70695 0.0
C1160 C 0.0425 0.13462 0.70868 0.0
C1161 C 0.06902 0.14455 0.69734 0.0
H1162 H 1.01174 0.09877 0.71572 0.0
H1163 H 0.26566 0.19973 0.60212 0.0
H1164 H 0.8585 0.10667 0.73396 0.0
H1165 H 0.85467 0.07126 0.69714 0.0
H1166 H 0.78831 0.10222 0.67359 0.0
H1167 H 0.79202 0.13806 0.71063 0.0
H1168 H 0.81997 0.0302 0.6744 0.0
H1169 H 0.79603 0.09715 0.60854 0.0
H1170 H 0.79171 0.14494 0.60617 0.0
H1171 H 0.85933 0.17449 0.65219 0.0
H1172 H 0.86417 0.12685 0.65455 0.0
H1173 H 0.91527 0.02533 0.54167 0.0
H1174 H 0.86868 0.01772 0.56518 0.0
H1175 H 0.90143 0.06059 0.6354 0.0
H1176 H 0.94742 0.0696 0.61174 0.0
H1177 H 0.85571 0.07728 0.59574 0.0
H1178 H 0.86418 1.00801 0.67371 0.0
H1179 H 0.86114 0.9595 0.6799 0.0
H1180 H 0.82211 0.93398 0.60942 0.0
H1181 H 0.82574 0.98224 0.60245 0.0
C1182 C 0.84236 0.1054 0.7216 0.0
C1183 C 0.82585 0.1254 0.72504 0.0
C1184 C 0.84011 0.08505 0.7005 0.0
C1185 C 0.8213 0.08429 0.68245 0.0
C1186 C 0.80296 0.10258 0.68723 0.0
C1187 C 0.80529 0.12311 0.70832 0.0
C1188 C 0.82488 0.06758 0.65695 0.0
C1189 C 0.82742 0.04029 0.65697 0.0
C1190 C 0.83263 0.07998 0.63356 0.0
C1191 C 0.83027 0.10858 0.63189 0.0
C1192 C 0.81001 0.11389 0.61804 0.0
C1193 C 0.8075 0.14092 0.61668 0.0
C1194 C 0.8252 0.16273 0.62907 0.0
C1195 C 0.84561 0.15758 0.64266 0.0
C1196 C 0.84829 0.1306 0.64396 0.0
C1197 C 0.91245 0.03259 0.56229 0.0
C1198 C 0.93461 0.04849 0.57495 0.0
C1199 C 0.88597 0.02794 0.57567 0.0
C1200 C 0.88179 0.0382 0.60204 0.0
C1201 C 0.90442 0.05206 0.61512 0.0
C1202 C 0.93056 0.05756 0.60159 0.0
C1203 C 0.85429 0.04141 0.6147 0.0
C1204 C 0.84676 0.06636 0.61238 0.0
C1205 C 0.84232 0.02708 0.63608 0.0
C1206 C 0.84535 0.99865 0.6375 0.0
C1207 C 0.85551 0.99199 0.65927 0.0
C1208 C 0.85356 0.96456 0.66298 0.0
C1209 C 0.84108 0.94368 0.64528 0.0
C1210 C 0.83161 0.95015 0.62323 0.0
C1211 C 0.834 0.97754 0.61916 0.0
H1212 H 0.83896 0.9225 0.64858 0.0
H1213 H 0.82313 0.18363 0.6281 0.0
H1214 H 0.85606 0.80243 0.72675 0.0
H1215 H 0.8835 0.83286 0.69626 0.0
H1216 H 0.81226 0.86656 0.68949 0.0
H1217 H 0.78471 0.83656 0.72049 0.0
H1218 H 0.84162 0.85356 0.6412 0.0
H1219 H 0.86047 0.90405 0.72469 0.0
H1220 H 0.87467 0.91085 0.76915 0.0
H1221 H 0.95363 0.89202 0.73819 0.0
H1222 H 0.9398 0.88488 0.69355 0.0
H1223 H 0.9111 0.9678 0.5759 0.0
H1224 H 0.88356 0.9399 0.60817 0.0
H1225 H 0.95433 0.90769 0.61916 0.0
H1226 H 0.98203 0.93486 0.58598 0.0
H1227 H 0.9247 0.92033 0.66578 0.0
H1228 H 0.90734 0.87272 0.5819 0.0
H1229 H 0.89377 0.86651 0.53731 0.0
H1230 H 0.81216 0.87769 0.56807 0.0
H1231 H 0.8253 0.8843 0.61284 0.0
C1232 C 0.84622 0.8165 0.71904 0.0
C1233 C 0.81816 0.81713 0.72631 0.0
C1234 C 0.86197 0.83387 0.70153 0.0
C1235 C 0.85003 0.85219 0.69072 0.0
C1236 C 0.82194 0.85262 0.6976 0.0
C1237 C 0.80621 0.83543 0.71535 0.0
C1238 C 0.86687 0.87071 0.67212 0.0
C1239 C 0.85956 0.86845 0.64665 0.0
C1240 C 0.89072 0.8896 0.67901 0.0
C1241 C 0.89902 0.89372 0.70582 0.0
C1242 C 0.88078 0.90117 0.72739 0.0
C1243 C 0.8888 0.90518 0.7526 0.0
C1244 C 0.91504 0.90187 0.75649 0.0
C1245 C 0.93333 0.89458 0.73515 0.0
C1246 C 0.92543 0.8906 0.70989 0.0
C1247 C 0.92097 0.95516 0.58548 0.0
C1248 C 0.94878 0.95354 0.57831 0.0
C1249 C 0.90509 0.93913 0.60398 0.0
C1250 C 0.9167 0.9216 0.61619 0.0
C1251 C 0.94483 0.921 0.61002 0.0
C1252 C 0.96064 0.93655 0.59105 0.0
C1253 C 0.89942 0.90335 0.63481 0.0
C1254 C 0.90671 0.90554 0.66028 0.0
C1255 C 0.87565 0.88424 0.62779 0.0
C1256 C 0.86755 0.87973 0.6008 0.0
C1257 C 0.8866 0.87423 0.57919 0.0
C1258 C 0.87895 0.87052 0.55385 0.0
C1259 C 0.85217 0.8719 0.54984 0.0
C1260 C 0.83294 0.87677 0.57118 0.0
C1261 C 0.8405 0.88051 0.59656 0.0
H1262 H 0.84629 0.86904 0.53021 0.0
H1263 H 0.92118 0.90493 0.77603 0.0
H1264 H 0.3107 0.1877 0.23746 0.0
H1265 H 0.3432 0.16268 0.20885 0.0
H1266 H 0.34713 0.21622 0.15 0.0
H1267 H 0.31651 0.24249 0.17944 0.0
H1268 H 0.33745 0.15405 0.13259 0.0
H1269 H 0.39844 0.22813 0.17267 0.0
H1270 H 0.4235 0.2607 0.20528 0.0
H1271 H 0.44753 0.19418 0.23462 0.0
H1272 H 0.42197 0.1611 0.20262 0.0
H1273 H 0.45218 0.11063 0.04658 0.0
H1274 H 0.42322 0.14055 0.07369 0.0
H1275 H 0.42487 0.09863 0.14015 0.0
H1276 H 0.45293 0.06829 0.11304 0.0
H1277 H 0.43256 0.15694 0.15214 0.0
H1278 H 0.37185 0.08323 0.1081 0.0
H1279 H 0.35282 0.05416 0.07009 0.0
H1280 H 0.33128 0.12398 0.04444 0.0
H1281 H 0.35139 0.1538 0.08164 0.0
C1282 C 0.3184 0.19404 0.21836 0.0
C1283 C 0.31041 0.21682 0.21057 0.0
C1284 C 0.33714 0.17977 0.202 0.0
C1285 C 0.34789 0.18737 0.17703 0.0
C1286 C 0.33934 0.20974 0.16903 0.0
C1287 C 0.32145 0.22461 0.18578 0.0
C1288 C 0.36752 0.17175 0.15921 0.0
C1289 C 0.35834 0.15499 0.1368 0.0
C1290 C 0.39493 0.17259 0.16443 0.0
C1291 C 0.40775 0.19204 0.18555 0.0
C1292 C 0.40844 0.22034 0.18649 0.0
C1293 C 0.42297 0.23894 0.20472 0.0
C1294 C 0.43711 0.22952 0.22201 0.0
C1295 C 0.4366 0.20146 0.22121 0.0
C1296 C 0.42197 0.18276 0.20311 0.0
C1297 C 0.44688 0.10818 0.0671 0.0
C1298 C 0.45533 0.08716 0.07761 0.0
C1299 C 0.43 0.12515 0.08259 0.0
C1300 C 0.42149 0.12195 0.10916 0.0
C1301 C 0.43094 0.10172 0.11985 0.0
C1302 C 0.44717 0.08438 0.10427 0.0
C1303 C 0.40239 0.13902 0.12582 0.0
C1304 C 0.41162 0.15597 0.14804 0.0
C1305 C 0.37525 0.13871 0.12015 0.0
C1306 C 0.36358 0.12087 0.09749 0.0
C1307 C 0.36357 0.09253 0.0941 0.0
C1308 C 0.35259 0.07591 0.07267 0.0
C1309 C 0.3411 0.08728 0.05471 0.0
C1310 C 0.3405 0.11528 0.05819 0.0
C1311 C 0.35178 0.13208 0.0794 0.0
H1312 H 0.3325 0.07436 0.0382 0.0
H1313 H 0.44842 0.24395 0.23604 0.0
H1314 H 0.82537 0.26362 0.17895 0.0
H1315 H 0.86008 0.28696 0.14764 0.0
H1316 H 0.86301 0.36267 0.19874 0.0
H1317 H 0.82984 0.33905 0.2311 0.0
H1318 H 0.85033 0.35846 0.14077 0.0
H1319 H 0.914 0.34832 0.19816 0.0
H1320 H 0.94065 0.3272 0.22353 0.0
H1321 H 0.96747 0.27847 0.15395 0.0
H1322 H 0.94064 0.2991 0.12819 0.0
H1323 H 0.95888 0.45905 0.10019 0.0
H1324 H 0.93362 0.42424 0.12706 0.0
H1325 H 0.94221 0.36142 0.06257 0.0
H1326 H 0.9674 0.39668 0.03492 0.0
H1327 H 0.94948 0.35375 0.12262 0.0
H1328 H 0.88779 0.37141 0.06505 0.0
H1329 H 0.86806 0.40194 0.04271 0.0
H1330 H 0.84081 0.44283 0.11678 0.0
H1331 H 0.86086 0.41288 0.13955 0.0
C1332 C 0.8341 0.28497 0.184 0.0
C1333 C 0.82534 0.29921 0.20791 0.0
C1334 C 0.85378 0.29833 0.16596 0.0
C1335 C 0.86443 0.32639 0.17112 0.0
C1336 C 0.85531 0.34087 0.19463 0.0
C1337 C 0.83619 0.32737 0.21299 0.0
C1338 C 0.88303 0.34117 0.15096 0.0
C1339 C 0.87197 0.35732 0.13674 0.0
C1340 C 0.9112 0.33942 0.14553 0.0
C1341 C 0.92481 0.32482 0.16134 0.0
C1342 C 0.92499 0.3326 0.18836 0.0
C1343 C 0.9404 0.32096 0.20276 0.0
C1344 C 0.95577 0.30153 0.19035 0.0
C1345 C 0.95555 0.29352 0.16354 0.0
C1346 C 0.94021 0.30514 0.14904 0.0
C1347 C 0.95584 0.43779 0.09171 0.0
C1348 C 0.96475 0.43062 0.06529 0.0
C1349 C 0.94142 0.41795 0.10715 0.0
C1350 C 0.93574 0.39043 0.09665 0.0
C1351 C 0.94639 0.38268 0.0709 0.0
C1352 C 0.96084 0.40275 0.05521 0.0
C1353 C 0.9167 0.37076 0.11241 0.0
C1354 C 0.92761 0.35399 0.12602 0.0
C1355 C 0.88847 0.37224 0.11762 0.0
C1356 C 0.87604 0.39004 0.10399 0.0
C1357 C 0.87782 0.38707 0.07657 0.0
C1358 C 0.86654 0.40425 0.06382 0.0
C1359 C 0.85324 0.42435 0.07831 0.0
C1360 C 0.85114 0.42727 0.10558 0.0
C1361 C 0.86244 0.41018 0.11841 0.0
H1362 H 0.84451 0.43763 0.06841 0.0
H1363 H 0.96778 0.29261 0.20152 0.0
H1364 H 0.68307 0.84994 0.15975 0.0
H1365 H 0.64759 0.87353 0.15075 0.0
H1366 H 0.71017 0.93335 0.11399 0.0
H1367 H 0.74574 0.91066 0.12392 0.0
H1368 H 0.67101 0.95752 0.14294 0.0
H1369 H 0.6745 0.87728 0.07854 0.0
H1370 H 0.67139 0.82773 0.06478 0.0
H1371 H 0.58855 0.81196 0.1019 0.0
H1372 H 0.59131 0.86143 0.11616 0.0
H1373 H 0.62069 1.00262 0.04129 0.0
H1374 H 0.64312 0.98195 0.07018 0.0
H1375 H 0.56425 0.93856 0.10091 0.0
H1376 H 0.54149 0.95925 0.07197 0.0
H1377 H 0.60282 0.90502 0.08447 0.0
H1378 H 0.5965 0.9866 0.14067 0.0
H1379 H 0.59913 0.03646 0.15134 0.0
H1380 H 0.68622 0.05011 0.1286 0.0
H1381 H 0.68409 1.00033 0.11748 0.0
C1382 C 0.68929 0.86836 0.15011 0.0
C1383 C 0.71721 0.87828 0.14229 0.0
C1384 C 0.66899 0.88172 0.14487 0.0
C1385 C 0.67625 0.90502 0.13148 0.0
C1386 C 0.70412 0.91539 0.12434 0.0
C1387 C 0.7244 0.90217 0.1297 0.0
C1388 C 0.65501 0.9178 0.1233 0.0
C1389 C 0.65606 0.94606 0.1302 0.0
C1390 C 0.63492 0.90265 0.10738 0.0
C1391 C 0.63324 0.87297 0.0987 0.0
C1392 C 0.6557 0.86321 0.08393 0.0
C1393 C 0.65399 0.83516 0.07601 0.0
C1394 C 0.62982 0.8167 0.08254 0.0
C1395 C 0.60728 0.82627 0.09692 0.0
C1396 C 0.6089 0.85431 0.10492 0.0
C1397 C 0.60806 0.98891 0.05437 0.0
C1398 C 0.57936 0.98244 0.05427 0.0
C1399 C 0.62089 0.97726 0.07098 0.0
C1400 C 0.60528 0.95891 0.08776 0.0
C1401 C 0.57657 0.95278 0.08814 0.0
C1402 C 0.56365 0.96468 0.07168 0.0
C1403 C 0.61951 0.94483 0.10336 0.0
C1404 C 0.61718 0.91635 0.09786 0.0
C1405 C 0.63839 0.95977 0.12053 0.0
C1406 C 0.64011 0.98969 0.12816 0.0
C1407 C 0.61622 1.00023 0.13789 0.0
C1408 C 0.61761 0.02848 0.14402 0.0
C1409 C 0.64281 0.04643 0.14065 0.0
C1410 C 0.66672 0.03617 0.13127 0.0
C1411 C 0.66544 1.00791 0.1251 0.0
H1412 H 0.64373 0.06827 0.14533 0.0
H1413 H 0.62853 0.79499 0.07639 0.0
H1414 H 0.19527 0.70092 0.23914 0.0
H1415 H 0.16367 0.67339 0.20939 0.0
H1416 H 0.23194 0.66493 0.15067 0.0
H1417 H 0.26382 0.69299 0.18047 0.0
H1418 H 0.18938 0.67941 0.13081 0.0
H1419 H 0.19739 0.60832 0.18322 0.0
H1420 H 0.19512 0.58828 0.2244 0.0
H1421 H 0.11175 0.59986 0.24448 0.0
H1422 H 0.1133 0.61938 0.20317 0.0
H1423 H 0.12933 0.57569 0.04049 0.0
H1424 H 0.15603 0.60237 0.07413 0.0
H1425 H 0.08201 0.60375 0.12697 0.0
H1426 H 0.05461 0.57653 0.09294 0.0
H1427 H 0.12403 0.59465 0.15186 0.0
H1428 H 0.11227 0.6595 0.09922 0.0
H1429 H 0.11163 0.68099 0.05958 0.0
H1430 H 0.199 0.68674 0.04265 0.0
H1431 H 0.20008 0.66447 0.08176 0.0
C1432 C 0.20365 0.69325 0.21988 0.0
C1433 C 0.23213 0.69943 0.21212 0.0
C1434 C 0.1855 0.67722 0.20294 0.0
C1435 C 0.1953 0.66678 0.17776 0.0
C1436 C 0.2238 0.67267 0.17 0.0
C1437 C 0.24204 0.68865 0.18706 0.0
C1438 C 0.17571 0.65085 0.15919 0.0
C1439 C 0.17545 0.66061 0.13522 0.0
C1440 C 0.1564 0.62709 0.16542 0.0
C1441 C 0.15554 0.61549 0.19025 0.0
C1442 C 0.17863 0.6067 0.19649 0.0
C1443 C 0.17746 0.59539 0.21981 0.0
C1444 C 0.15343 0.59307 0.23715 0.0
C1445 C 0.13039 0.60175 0.23107 0.0
C1446 C 0.13133 0.61276 0.20764 0.0
C1447 C 0.11843 0.58154 0.05918 0.0
C1448 C 0.08955 0.57393 0.06376 0.0
C1449 C 0.1339 0.597 0.07849 0.0
C1450 C 0.12115 0.60553 0.10307 0.0
C1451 C 0.09239 0.59755 0.10812 0.0
C1452 C 0.07671 0.58202 0.08861 0.0
C1453 C 0.13828 0.62278 0.12308 0.0
C1454 C 0.13799 0.61341 0.14736 0.0
C1455 C 0.15678 0.64724 0.11733 0.0
C1456 C 0.1562 0.66 0.09334 0.0
C1457 C 0.13131 0.66495 0.08685 0.0
C1458 C 0.13086 0.6773 0.06447 0.0
C1459 C 0.15523 0.68512 0.04855 0.0
C1460 C 0.1801 0.68054 0.05493 0.0
C1461 C 0.18064 0.66801 0.07719 0.0
H1462 H 0.15483 0.69487 0.03136 0.0
H1463 H 0.15263 0.58443 0.25524 0.0
H1464 H 0.31398 0.86262 0.79219 0.0
H1465 H 0.34673 0.89163 0.82026 0.0
H1466 H 0.33787 0.82613 0.86827 0.0
H1467 H 0.30636 0.79669 0.83947 0.0
H1468 H 0.34655 0.91353 0.86684 0.0
H1469 H 0.39475 0.82623 0.89515 0.0
H1470 H 0.40364 0.78074 0.87551 0.0
H1471 H 0.40474 0.80355 0.79878 0.0
H1472 H 0.39646 0.84937 0.8179 0.0
H1473 H 0.40675 0.95535 0.98268 0.0
H1474 H 0.38147 0.93016 0.94727 0.0
H1475 H 0.45772 0.92455 0.89898 0.0
H1476 H 0.48354 0.94977 0.93477 0.0
H1477 H 0.42194 0.87632 0.89388 0.0
H1478 H 0.42024 0.9683 0.88783 0.0
H1479 H 0.41494 0.01589 0.90294 0.0
H1480 H 0.32884 0.9885 0.92517 0.0
H1481 H 0.33376 0.94055 0.91092 0.0
C1482 C 0.31898 0.85446 0.80879 0.0
C1483 C 0.3077 0.82728 0.8135 0.0
C1484 C 0.33774 0.87108 0.82486 0.0
C1485 C 0.34539 0.86104 0.84621 0.0
C1486 C 0.33314 0.83423 0.85153 0.0
C1487 C 0.3149 0.81743 0.83514 0.0
C1488 C 0.36614 0.87842 0.86288 0.0
C1489 C 0.36303 0.90534 0.87266 0.0
C1490 C 0.38851 0.86834 0.86975 0.0
C1491 C 0.39477 0.84122 0.85802 0.0
C1492 C 0.39716 0.82166 0.87409 0.0
C1493 C 0.40205 0.79579 0.86304 0.0
C1494 C 0.40469 0.78924 0.83592 0.0
C1495 C 0.40266 0.80863 0.81978 0.0
C1496 C 0.39789 0.83457 0.83072 0.0
C1497 C 0.41834 0.94882 0.96461 0.0
C1498 C 0.44732 0.95475 0.96169 0.0
C1499 C 0.40374 0.93445 0.94425 0.0
C1500 C 0.41759 0.92567 0.92028 0.0
C1501 C 0.44654 0.93115 0.91727 0.0
C1502 C 0.46128 0.94568 0.93773 0.0
C1503 C 0.40147 0.91083 0.89864 0.0
C1504 C 0.40554 0.88449 0.88787 0.0
C1505 C 0.38069 0.92184 0.89001 0.0
C1506 C 0.37743 0.95071 0.89845 0.0
C1507 C 0.4002 0.97235 0.89614 0.0
C1508 C 0.39726 0.99943 0.90454 0.0
C1509 C 0.37156 1.00525 0.91497 0.0
C1510 C 0.34875 0.98396 0.91707 0.0
C1511 C 0.3516 0.95681 0.90885 0.0
H1512 H 0.36931 0.02623 0.9214 0.0
H1513 H 0.40836 0.76917 0.82743 0.0
H1514 H 0.18536 0.27241 0.81771 0.0
H1515 H 0.15407 0.29715 0.84754 0.0
H1516 H 0.21667 0.37047 0.84886 0.0
H1517 H 0.24851 0.34516 0.82063 0.0
H1518 H 0.19261 0.37057 0.89446 0.0
H1519 H 0.15718 0.35798 0.8121 0.0
H1520 H 0.1402 0.33229 0.77163 0.0
H1521 H 0.07327 0.28543 0.81671 0.0
H1522 H 0.09009 0.31068 0.85747 0.0
H1523 H 0.11 0.47159 0.9276 0.0
H1524 H 0.1357 0.43909 0.9021 0.0
H1525 H 0.07863 0.37228 0.93406 0.0
H1526 H 0.05248 0.40522 0.96073 0.0
H1527 H 0.09723 0.3658 0.87448 0.0
H1528 H 0.1342 0.38697 0.95794 0.0
H1529 H 0.15277 0.41869 0.99478 0.0
H1530 H 0.21935 0.45617 0.94261 0.0
H1531 H 0.20089 0.42502 0.90538 0.0
C1532 C 0.19266 0.29364 0.82477 0.0
C1533 C 0.21966 0.30657 0.81676 0.0
C1534 C 0.17449 0.30805 0.84158 0.0
C1535 C 0.18247 0.33614 0.85042 0.0
C1536 C 0.20961 0.34895 0.84258 0.0
C1537 C 0.22787 0.33442 0.82614 0.0
C1538 C 0.1628 0.35223 0.86763 0.0
C1539 C 0.17184 0.36948 0.88984 0.0
C1540 C 0.13536 0.35109 0.86221 0.0
C1541 C 0.12507 0.33598 0.83781 0.0
C1542 C 0.13896 0.34206 0.81336 0.0
C1543 C 0.12935 0.32761 0.79038 0.0
C1544 C 0.10572 0.30717 0.7916 0.0
C1545 C 0.0916 0.30123 0.8158 0.0
C1546 C 0.10115 0.31562 0.83885 0.0
C1547 C 0.10242 0.45004 0.92938 0.0
C1548 C 0.07881 0.44137 0.94665 0.0
C1549 C 0.11742 0.43135 0.91458 0.0
C1550 C 0.10942 0.40311 0.91609 0.0
C1551 C 0.08534 0.39398 0.93247 0.0
C1552 C 0.07034 0.41288 0.94775 0.0
C1553 C 0.12715 0.38386 0.9011 0.0
C1554 C 0.11785 0.36633 0.87923 0.0
C1555 C 0.15463 0.38535 0.90635 0.0
C1556 C 0.16604 0.40376 0.92883 0.0
C1557 C 0.15269 0.4021 0.95429 0.0
C1558 C 0.16321 0.41997 0.97525 0.0
C1559 C 0.18721 0.43945 0.97104 0.0
C1560 C 0.20076 0.44107 0.94585 0.0
C1561 C 0.19029 0.42329 0.92482 0.0
H1562 H 0.19531 0.45327 0.98729 0.0
H1563 H 0.0983 0.29598 0.77379 0.0
H1564 H 0.74548 0.22992 0.84207 0.0
H1565 H 0.71355 0.20358 0.87334 0.0
H1566 H 0.64581 0.20809 0.83169 0.0
H1567 H 0.67766 0.2331 0.79967 0.0
H1568 H 0.63384 0.21919 0.8849 0.0
H1569 H 0.66677 0.14983 0.8247 0.0
H1570 H 0.69762 0.12156 0.79808 0.0
H1571 H 0.72975 0.10922 0.86717 0.0
H1572 H 0.69934 0.13773 0.89422 0.0
H1573 H 0.53825 0.10565 0.94282 0.0
H1574 H 0.5653 0.13993 0.91502 0.0
H1575 H 0.63739 0.1398 0.9524 0.0
H1576 H 0.61065 0.10579 0.97974 0.0
H1577 H 0.64499 0.12681 0.89994 0.0
H1578 H 0.60744 0.19496 0.96027 0.0
H1579 H 0.57133 0.21815 0.98493 0.0
H1580 H 0.54439 0.23045 0.91317 0.0
H1581 H 0.57993 0.20676 0.88804 0.0
C1582 C 0.72396 0.22476 0.83915 0.0
C1583 C 0.71445 0.23299 0.8178 0.0
C1584 C 0.70562 0.20993 0.85724 0.0
C1585 C 0.67726 0.20357 0.85473 0.0
C1586 C 0.66757 0.21261 0.834 0.0
C1587 C 0.68593 0.22692 0.81565 0.0
C1588 C 0.65774 0.18739 0.87363 0.0
C1589 C 0.63608 0.19886 0.88805 0.0
C1590 C 0.6607 0.16095 0.87786 0.0
C1591 C 0.68094 0.14613 0.86147 0.0
C1592 C 0.68077 0.14152 0.83419 0.0
C1593 C 0.69802 0.12527 0.81904 0.0
C1594 C 0.71543 0.11341 0.83097 0.0
C1595 C 0.7161 0.11827 0.858 0.0
C1596 C 0.6989 0.13451 0.87323 0.0
C1597 C 0.55963 0.11375 0.9456 0.0
C1598 C 0.57242 0.1033 0.96344 0.0
C1599 C 0.57509 0.13324 0.92971 0.0
C1600 C 0.60347 0.14239 0.93153 0.0
C1601 C 0.61562 0.13306 0.95054 0.0
C1602 C 0.60031 0.11372 0.96624 0.0
C1603 C 0.62148 0.15879 0.91182 0.0
C1604 C 0.64281 0.14724 0.89702 0.0
C1605 C 0.61789 0.18493 0.90712 0.0
C1606 C 0.5961 0.19863 0.92225 0.0
C1607 C 0.59355 0.20219 0.94972 0.0
C1608 C 0.57322 0.21552 0.9638 0.0
C1609 C 0.55548 0.22564 0.95063 0.0
C1610 C 0.55805 0.22249 0.92335 0.0
C1611 C 0.57827 0.20908 0.90919 0.0
H1612 H 0.53981 0.23602 0.96157 0.0
H1613 H 0.7285 0.1005 0.81928 0.0
H1614 H 0.90569 0.73264 0.8958 0.0
H1615 H 0.9244 0.69545 0.90861 0.0
H1616 H 0.84932 0.63874 0.89342 0.0
H1617 H 0.83084 0.67574 0.87965 0.0
H1618 H 0.87607 0.64803 0.94896 0.0
H1619 H 0.88905 0.62326 0.85457 0.0
H1620 H 0.90575 0.6339 0.80968 0.0
H1621 H 0.98816 0.65908 0.83083 0.0
H1622 H 0.97184 0.64901 0.87598 0.0
H1623 H 0.91736 0.53258 0.9799 0.0
H1624 H 0.89683 0.56035 0.95587 0.0
H1625 H 0.97742 0.60636 0.93328 0.0
H1626 H 0.99819 0.57826 0.95683 0.0
H1627 H 0.94613 0.60086 0.89488 0.0
H1628 H 0.93798 0.62983 0.98612 0.0
H1629 H 0.92605 0.62564 0.03312 0.0
H1630 H 0.84068 0.60037 0.02134 0.0
H1631 H 0.85215 0.60399 0.97415 0.0
C1632 C 0.89325 0.7122 0.8951 0.0
C1633 C 0.86676 0.70701 0.88698 0.0
C1634 C 0.90398 0.69104 0.90228 0.0
C1635 C 0.88821 0.66449 0.90184 0.0
C1636 C 0.86177 0.65916 0.89373 0.0
C1637 C 0.85126 0.68022 0.88594 0.0
C1638 C 0.89903 0.64275 0.9112 0.0
C1639 C 0.8909 0.63719 0.93703 0.0
C1640 C 0.91933 0.62977 0.89588 0.0
C1641 C 0.92916 0.63568 0.86872 0.0
C1642 C 0.91067 0.63136 0.84972 0.0
C1643 C 0.92008 0.63721 0.82421 0.0
C1644 C 0.94798 0.64724 0.81742 0.0
C1645 C 0.96654 0.65136 0.83612 0.0
C1646 C 0.95723 0.64555 0.86166 0.0
C1647 C 0.93076 0.54833 0.96948 0.0
C1648 C 0.95935 0.55354 0.97061 0.0
C1649 C 0.91899 0.56422 0.9558 0.0
C1650 C 0.93554 0.58586 0.94333 0.0
C1651 C 0.96425 0.58986 0.94288 0.0
C1652 C 0.97609 0.57377 0.95636 0.0
C1653 C 0.92279 0.60561 0.93265 0.0
C1654 C 0.93084 0.61117 0.90674 0.0
C1655 C 0.90297 0.61928 0.94818 0.0
C1656 C 0.89596 0.61686 0.97653 0.0
C1657 C 0.91669 0.62312 0.9935 0.0
C1658 C 0.91001 0.6209 0.02018 0.0
C1659 C 0.88264 0.61268 0.0302 0.0
C1660 C 0.86188 0.60669 0.01354 0.0
C1661 C 0.86846 0.60882 0.98682 0.0
H1662 H 0.87751 0.61104 0.05087 0.0
H1663 H 0.95523 0.65176 0.79767 0.0
H1664 H 0.10454 0.3265 0.19731 0.0
H1665 H 0.09647 0.3642 0.17601 0.0
H1666 H 0.16768 0.35694 0.12057 0.0
H1667 H 0.17605 0.31928 0.14229 0.0
H1668 H 0.1611 0.4113 0.13358 0.0
H1669 H 0.10405 0.32412 0.1065 0.0
H1670 H 0.07041 0.28183 0.11409 0.0
H1671 H 1.01075 0.32975 0.151 0.0
H1672 H 0.04419 0.3723 0.14403 0.0
H1673 H 0.11996 0.46919 0.03005 0.0
H1674 H 0.13606 0.44228 0.05849 0.0
H1675 H 0.06002 0.44019 0.10907 0.0
H1676 H 0.04351 0.46645 0.08039 0.0
H1677 H 0.0701 0.39153 0.09943 0.0
H1678 H 0.12364 0.47821 0.12616 0.0
H1679 H 0.15619 0.52191 0.12218 0.0
H1680 H 0.22076 0.47811 0.09012 0.0
H1681 H 0.18845 0.4341 0.09334 0.0
C1682 C 0.11876 0.33328 0.18086 0.0
C1683 C 0.14076 0.31978 0.17126 0.0
C1684 C 0.11411 0.35479 0.16866 0.0
C1685 C 0.13104 0.36301 0.14626 0.0
C1686 C 0.1542 0.35087 0.1377 0.0
C1687 C 0.15904 0.32941 0.15013 0.0
C1688 C 0.12306 0.3824 0.13062 0.0
C1689 C 0.14137 0.40689 0.1258 0.0
C1690 C 0.09695 0.37705 0.12111 0.0
C1691 C 0.07672 0.3514 0.12494 0.0
C1692 C 0.08382 0.32563 0.11638 0.0
C1693 C 0.06477 0.3016 0.12057 0.0
C1694 C 0.03847 0.30309 0.13307 0.0
C1695 C 0.03113 0.3286 0.14135 0.0
C1696 C 0.05012 0.35268 0.13728 0.0
C1697 C 0.10678 0.46335 0.04742 0.0
C1698 C 0.08036 0.47 0.05282 0.0
C1699 C 0.11611 0.44802 0.06379 0.0
C1700 C 0.09939 0.43925 0.08614 0.0
C1701 C 0.07334 0.44658 0.09195 0.0
C1702 C 0.06393 0.46171 0.07552 0.0
C1703 C 0.10804 0.42074 0.10237 0.0
C1704 C 0.08986 0.3962 0.1072 0.0
C1705 C 0.13408 0.42634 0.11216 0.0
C1706 C 0.15348 0.4528 0.10969 0.0
C1707 C 0.14468 0.47786 0.11793 0.0
C1708 C 0.16311 0.5027 0.11586 0.0
C1709 C 0.1905 0.50278 0.10581 0.0
C1710 C 0.19951 0.47801 0.09781 0.0
C1711 C 0.18114 0.45311 0.09974 0.0
H1712 H 0.20475 0.52203 0.1043 0.0
H1713 H 0.02376 0.28447 0.1363 0.0
H1714 H 0.20256 0.69477 0.78874 0.0
H1715 H 0.17076 0.66947 0.82068 0.0
H1716 H 0.17684 0.74255 0.8759 0.0
H1717 H 0.20983 0.76761 0.84435 0.0
H1718 H 0.18081 0.69961 0.899 0.0
H1719 H 0.11441 0.71509 0.84374 0.0
H1720 H 0.09486 0.7131 0.80214 0.0
H1721 H 0.09436 0.62674 0.78705 0.0
H1722 H 0.11307 0.62795 0.82887 0.0
H1723 H 0.07745 0.62887 0.98833 0.0
H1724 H 0.10043 0.66371 0.95945 0.0
H1725 H 0.10158 0.60044 0.89415 0.0
H1726 H 0.07872 0.56612 0.92255 0.0
H1727 H 0.09069 0.64358 0.87843 0.0
H1728 H 0.15673 0.62452 0.92793 0.0
H1729 H 0.17857 0.62093 0.96677 0.0
H1730 H 0.18613 0.70769 0.98875 0.0
H1731 H 0.16363 0.71169 0.95035 0.0
C1732 C 0.19711 0.7055 0.80767 0.0
C1733 C 0.20847 0.73336 0.81385 0.0
C1734 C 0.17862 0.69106 0.82586 0.0
C1735 C 0.17078 0.70417 0.85061 0.0
C1736 C 0.18225 0.73198 0.85688 0.0
C1737 C 0.20093 0.74639 0.83873 0.0
C1738 C 0.15186 0.68843 0.87033 0.0
C1739 C 0.16079 0.6879 0.89475 0.0
C1740 C 0.12617 0.67224 0.86455 0.0
C1741 C 0.11528 0.67166 0.83931 0.0
C1742 C 0.11025 0.69572 0.83147 0.0
C1743 C 0.0993 0.69473 0.80789 0.0
C1744 C 0.09372 0.66994 0.79183 0.0
C1745 C 0.09876 0.64596 0.79946 0.0
C1746 C 0.10932 0.64673 0.82318 0.0
C1747 C 0.08206 0.62263 0.9677 0.0
C1748 C 0.0764 0.59477 0.95772 0.0
C1749 C 0.09543 0.64246 0.95125 0.0
C1750 C 0.10311 0.6347 0.9246 0.0
C1751 C 0.09598 0.60706 0.91454 0.0
C1752 C 0.08294 0.5874 0.93087 0.0
C1753 C 0.11967 0.65464 0.90709 0.0
C1754 C 0.11038 0.65586 0.88302 0.0
C1755 C 0.1454 0.67077 0.9129 0.0
C1756 C 0.15804 0.66833 0.93651 0.0
C1757 C 0.16261 0.64277 0.94127 0.0
C1758 C 0.17517 0.64066 0.96317 0.0
C1759 C 0.18362 0.66404 0.98027 0.0
C1760 C 0.17945 0.68957 0.97555 0.0
C1761 C 0.16672 0.69176 0.95376 0.0
H1762 H 0.19355 0.66236 0.99708 0.0
H1763 H 0.08535 0.6693 0.77355 0.0
H1764 H 0.35162 0.14653 0.82425 0.0
H1765 H 0.38588 0.13591 0.84926 0.0
H1766 H 0.32099 0.10578 0.90737 0.0
H1767 H 0.28677 0.1157 0.88214 0.0
H1768 H 0.37099 0.14021 0.92744 0.0
H1769 H 0.3402 0.06062 0.86597 0.0
H1770 H 0.33217 0.0375 0.82186 0.0
H1771 H 0.41812 0.06046 0.79602 0.0
H1772 H 0.42656 0.0841 0.83994 0.0
H1773 H 0.40891 0.04603 0.9947 0.0
H1774 H 0.38674 0.06672 0.96578 0.0
H1775 H 0.46276 0.08194 0.91545 0.0
H1776 H 0.48549 0.06126 0.94454 0.0
H1777 H 0.41518 0.06154 0.88854 0.0
H1778 H 0.44734 0.13217 0.95306 0.0
H1779 H 0.45551 0.15415 0.99743 0.0
H1780 H 0.36879 0.15034 0.01758 0.0
H1781 H 0.35985 0.12702 0.97375 0.0
C1782 C 0.34484 0.13803 0.84257 0.0
C1783 C 0.31669 0.13178 0.85132 0.0
C1784 C 0.36432 0.13196 0.85677 0.0
C1785 C 0.35588 0.12004 0.88009 0.0
C1786 C 0.32787 0.11507 0.88946 0.0
C1787 C 0.30839 0.12061 0.87504 0.0
C1788 C 0.37577 0.11064 0.89378 0.0
C1789 C 0.38063 0.12298 0.91905 0.0
C1790 C 0.38894 0.08872 0.8824 0.0
C1791 C 0.38393 0.07444 0.85608 0.0
C1792 C 0.35733 0.06097 0.8508 0.0
C1793 C 0.35272 0.04772 0.82586 0.0
C1794 C 0.37461 0.0476 0.80612 0.0
C1795 C 0.40117 0.06064 0.81131 0.0
C1796 C 0.40588 0.07396 0.83622 0.0
C1797 C 0.42103 0.0536 0.97745 0.0
C1798 C 0.44912 0.05224 0.97213 0.0
C1799 C 0.40828 0.06549 0.96097 0.0
C1800 C 0.42325 0.07624 0.93877 0.0
C1801 C 0.45095 0.07389 0.93264 0.0
C1802 C 0.46388 0.06213 0.9493 0.0
C1803 C 0.40971 0.09048 0.92261 0.0
C1804 C 0.40602 0.07908 0.89686 0.0
C1805 C 0.39773 0.11338 0.93358 0.0
C1806 C 0.40289 0.12751 0.96008 0.0
C1807 C 0.42992 0.13558 0.96705 0.0
C1808 C 0.43469 0.14823 0.99216 0.0
C1809 C 0.41264 0.15337 1.01041 0.0
C1810 C 0.38579 0.14598 1.00354 0.0
C1811 C 0.38086 0.133 0.97856 0.0
H1812 H 0.41636 0.16325 0.02982 0.0
H1813 H 0.371 0.03732 0.78682 0.0
H1814 H 0.84432 0.33776 0.77838 0.0
H1815 H 0.8743 0.36702 0.80862 0.0
H1816 H 0.80766 0.3594 0.8706 0.0
H1817 H 0.7772 0.33046 0.83995 0.0
H1818 H 0.83772 0.4103 0.87531 0.0
H1819 H 0.86083 0.3195 0.86156 0.0
H1820 H 0.87525 0.27892 0.83501 0.0
H1821 H 0.94952 0.32949 0.80475 0.0
H1822 H 0.93555 0.37034 0.83092 0.0
H1823 H 0.91187 0.44477 0.98427 0.0
H1824 H 0.8842 0.42131 0.95003 0.0
H1825 H 0.9557 0.43147 0.89338 0.0
H1826 H 0.98414 0.45493 0.92816 0.0
H1827 H 0.92519 0.38143 0.88373 0.0
H1828 H 0.9056 0.47107 0.89684 0.0
H1829 H 0.89367 0.5133 0.92185 0.0
H1830 H 0.81533 0.46811 0.95044 0.0
H1831 H 0.82694 0.42548 0.92581 0.0
C1832 C 0.83586 0.34261 0.79838 0.0
C1833 C 0.80832 0.33158 0.80672 0.0
C1834 C 0.85319 0.35921 0.81579 0.0
C1835 C 0.84372 0.36491 0.84229 0.0
C1836 C 0.81572 0.35519 0.85039 0.0
C1837 C 0.79819 0.33874 0.83279 0.0
C1838 C 0.86318 0.38032 0.86148 0.0
C1839 C 0.85663 0.4037 0.87735 0.0
C1840 C 0.88861 0.37261 0.86365 0.0
C1841 C 0.89701 0.34799 0.84802 0.0
C1842 C 0.88014 0.32196 0.84911 0.0
C1843 C 0.88823 0.29893 0.83416 0.0
C1844 C 0.91318 0.30166 0.81815 0.0
C1845 C 0.93017 0.32741 0.81713 0.0
C1846 C 0.92221 0.35049 0.83204 0.0
C1847 C 0.922 0.44219 0.96458 0.0
C1848 C 0.95047 0.45211 0.95917 0.0
C1849 C 0.90591 0.42876 0.94484 0.0
C1850 C 0.91749 0.42496 0.9188 0.0
C1851 C 0.94606 0.43423 0.91324 0.0
C1852 C 0.96236 0.44771 0.93317 0.0
C1853 C 0.8995 0.41115 0.89782 0.0
C1854 C 0.90632 0.38808 0.88164 0.0
C1855 C 0.87455 0.4194 0.89504 0.0
C1856 C 0.86724 0.44502 0.90964 0.0
C1857 C 0.88589 0.47009 0.90859 0.0
C1858 C 0.87918 0.49412 0.92269 0.0
C1859 C 0.8538 0.49339 0.93781 0.0
C1860 C 0.83501 0.46864 0.93875 0.0
C1861 C 0.84162 0.44454 0.92468 0.0
H1862 H 0.84866 0.51201 0.94874 0.0
H1863 H 0.91937 0.28381 0.80659 0.0
H1864 H 0.71337 0.78878 0.85211 0.0
H1865 H 0.68463 0.81712 0.88106 0.0
H1866 H 0.68502 0.86523 0.81843 0.0
H1867 H 0.71538 0.83785 0.79017 0.0
H1868 H 0.68892 0.89869 0.86161 0.0
H1869 H 0.62841 0.81222 0.83977 0.0
H1870 H 0.6147 0.76187 0.8372 0.0
H1871 H 0.61246 0.76628 0.92048 0.0
H1872 H 0.62652 0.81663 0.9235 0.0
H1873 H 0.58148 0.96845 0.91404 0.0
H1874 H 0.60901 0.93772 0.88732 0.0
H1875 H 0.60023 0.88913 0.95113 0.0
H1876 H 0.5713 0.91936 0.97761 0.0
H1877 H 0.60181 0.85557 0.90941 0.0
H1878 H 0.66155 0.9402 0.93273 0.0
H1879 H 0.67834 0.99023 0.93715 0.0
H1880 H 0.68514 0.98931 0.85388 0.0
H1881 H 0.66806 0.93932 0.84898 0.0
C1882 C 0.70831 0.80607 0.84488 0.0
C1883 C 0.7178 0.81166 0.81913 0.0
C1884 C 0.69109 0.82195 0.86127 0.0
C1885 C 0.68206 0.84353 0.85219 0.0
C1886 C 0.6915 0.84897 0.8263 0.0
C1887 C 0.70888 0.83319 0.81002 0.0
C1888 C 0.66281 0.8603 0.86933 0.0
C1889 C 0.6697 0.88913 0.87171 0.0
C1890 C 0.63797 0.84831 0.88357 0.0
C1891 C 0.62871 0.81816 0.88183 0.0
C1892 C 0.62506 0.80243 0.85752 0.0
C1893 C 0.61726 0.7739 0.85599 0.0
C1894 C 0.61278 0.76088 0.87866 0.0
C1895 C 0.61596 0.77638 0.90293 0.0
C1896 C 0.62382 0.80492 0.90457 0.0
C1897 C 0.58498 0.95098 0.92235 0.0
C1898 C 0.57393 0.94657 0.94815 0.0
C1899 C 0.6012 0.93346 0.90705 0.0
C1900 C 0.6079 0.91125 0.91715 0.0
C1901 C 0.59585 0.90605 0.94258 0.0
C1902 C 0.57907 0.92337 0.9578 0.0
C1903 C 0.6277 0.89407 0.90137 0.0
C1904 C 0.62099 0.86518 0.8993 0.0
C1905 C 0.65296 0.90599 0.88766 0.0
C1906 C 0.66327 0.93605 0.89052 0.0
C1907 C 0.66646 0.9507 0.91538 0.0
C1908 C 0.67605 0.97905 0.91797 0.0
C1909 C 0.68273 0.99295 0.89582 0.0
C1910 C 0.67991 0.97852 0.87102 0.0
C1911 C 0.6703 0.95018 0.86833 0.0
H1912 H 0.69015 0.01489 0.89786 0.0
H1913 H 0.6068 0.73878 0.87742 0.0
H1914 H 0.8485 0.75658 0.18891 0.0
H1915 H 0.87876 0.72958 0.1606 0.0
H1916 H 0.82979 0.65559 0.18748 0.0
H1917 H 0.79868 0.68249 0.21503 0.0
H1918 H 0.88338 0.65515 0.18772 0.0
H1919 H 0.82918 0.67055 0.12305 0.0
H1920 H 0.80868 0.69587 0.09581 0.0
H1921 H 0.88884 0.74048 0.07141 0.0
H1922 H 0.90983 0.71528 0.0984 0.0
H1923 H 0.93407 0.55361 0.09881 0.0
H1924 H 0.90793 0.58514 0.12488 0.0
H1925 H 0.95747 0.65206 0.08643 0.0
H1926 H 0.98348 0.61973 0.05876 0.0
H1927 H 0.90681 0.65929 0.09251 0.0
H1928 H 0.96156 0.64037 0.15378 0.0
H1929 H 0.98203 0.61187 0.1778 0.0
H1930 H 0.90147 0.5741 0.20905 0.0
H1931 H 0.88049 0.60209 0.18493 0.0
C1932 C 0.84349 0.73453 0.18827 0.0
C1933 C 0.82034 0.72195 0.20394 0.0
C1934 C 0.86114 0.71897 0.17208 0.0
C1935 C 0.85667 0.69021 0.17132 0.0
C1936 C 0.83388 0.67763 0.18733 0.0
C1937 C 0.81596 0.69315 0.20319 0.0
C1938 C 0.87624 0.67342 0.15485 0.0
C1939 C 0.8882 0.65592 0.16684 0.0
C1940 C 0.8837 0.6748 0.12766 0.0
C1941 C 0.87102 0.69124 0.11291 0.0
C1942 C 0.84239 0.68597 0.1121 0.0
C1943 C 0.83072 0.70011 0.09652 0.0
C1944 C 0.84747 0.71966 0.08179 0.0
C1945 C 0.87591 0.72526 0.08275 0.0
C1946 C 0.8877 0.71101 0.09812 0.0
C1947 C 0.93993 0.57502 0.09575 0.0
C1948 C 0.96148 0.58377 0.07643 0.0
C1949 C 0.92481 0.59332 0.11112 0.0
C1950 C 0.93079 0.62149 0.10851 0.0
C1951 C 0.95233 0.63056 0.08929 0.0
C1952 C 0.96747 0.61201 0.07352 0.0
C1953 C 0.91379 0.64077 0.1253 0.0
C1954 C 0.90229 0.65873 0.11343 0.0
C1955 C 0.90689 0.63995 0.1527 0.0
C1956 C 0.91945 0.62321 0.16738 0.0
C1957 C 0.9482 0.62587 0.16565 0.0
C1958 C 0.9599 0.60982 0.1793 0.0
C1959 C 0.94306 0.59115 0.1949 0.0
C1960 C 0.91449 0.58856 0.19694 0.0
C1961 C 0.90269 0.60454 0.18331 0.0
H1962 H 0.95216 0.57873 0.20544 0.0
H1963 H 0.83839 0.73059 0.06974 0.0
H1964 H 0.37493 0.77794 0.21855 0.0
H1965 H 0.40665 0.80378 0.18668 0.0
H1966 H 0.33754 0.81586 0.15077 0.0
H1967 H 0.30634 0.78796 0.18068 0.0
H1968 H 0.37338 0.8091 0.1147 0.0
H1969 H 0.37904 0.86777 0.19756 0.0
H1970 H 0.38835 0.87996 0.24371 0.0
H1971 H 0.47085 0.86592 0.22319 0.0
H1972 H 0.46204 0.85363 0.17703 0.0
H1973 H 0.41721 0.93763 0.06796 0.0
H1974 H 0.39802 0.9001 0.09404 0.0
H1975 H 0.47874 0.88119 0.09216 0.0
H1976 H 0.49826 0.91889 0.06523 0.0
H1977 H 0.44538 0.88667 0.14466 0.0
H1978 H 0.43922 0.83758 0.05901 0.0
H1979 H 0.42796 0.83019 0.0135 0.0
H1980 H 0.3429 0.83032 0.04041 0.0
H1981 H 0.35369 0.83813 0.08609 0.0
C1982 C 0.36657 0.78576 0.20359 0.0
C1983 C 0.33794 0.78135 0.20265 0.0
C1984 C 0.38475 0.80096 0.18555 0.0
C1985 C 0.37469 0.81267 0.16655 0.0
C1986 C 0.34613 0.80736 0.16515 0.0
C1987 C 0.32813 0.79161 0.18262 0.0
C1988 C 0.39341 0.83043 0.14802 0.0
C1989 C 0.38897 0.82612 0.12146 0.0
C1990 C 0.41457 0.8523 0.15625 0.0
C1991 C 0.41975 0.85941 0.18399 0.0
C1992 C 0.39906 0.86706 0.20299 0.0
C1993 C 0.40426 0.87403 0.22909 0.0
C1994 C 0.43007 0.87352 0.23637 0.0
C1995 C 0.45082 0.86621 0.21755 0.0
C1996 C 0.44577 0.85929 0.19142 0.0
C1997 C 0.43096 0.92543 0.07292 0.0
C1998 C 0.4593 0.93131 0.06459 0.0
C1999 C 0.4199 0.90391 0.0878 0.0
C2000 C 0.43688 0.8878 0.09507 0.0
C2001 C 0.46525 0.89338 0.08674 0.0
C2002 C 0.47635 0.91477 0.07126 0.0
C2003 C 0.42446 0.86575 0.11191 0.0
C2004 C 0.43008 0.8693 0.13802 0.0
C2005 C 0.40394 0.84356 0.10345 0.0
C2006 C 0.39732 0.83858 0.07599 0.0
C2007 C 0.41814 0.83622 0.05523 0.0
C2008 C 0.41184 0.83192 0.0294 0.0
C2009 C 0.38474 0.82982 0.02407 0.0
C2010 C 0.36388 0.83195 0.04457 0.0
C2011 C 0.37008 0.83627 0.07043 0.0
H2012 H 0.3799 0.8265 1.00406 0.0
H2013 H 0.43403 0.87892 0.25658 0.0
H2014 H 0.71903 0.17695 0.22751 0.0
H2015 H 0.68776 0.14902 0.19782 0.0
H2016 H 0.68921 0.21939 0.15822 0.0
H2017 H 0.72034 0.24782 0.18841 0.0
H2018 H 0.63773 0.19034 0.16385 0.0
H2019 H 0.72501 0.16559 0.12281 0.0
H2020 H 0.76957 0.15144 0.12275 0.0
H2021 H 0.72925 0.08308 0.16375 0.0
H2022 H 0.68444 0.09666 0.1636 0.0
H2023 H 0.62216 0.08667 0.0381 0.0
H2024 H 0.64874 0.11439 0.0713 0.0
H2025 H 0.57617 0.10813 0.12689 0.0
H2026 H 0.54885 0.08046 0.09311 0.0
H2027 H 0.66231 0.10513 0.11442 0.0
H2028 H 0.58318 0.1664 0.17212 0.0
H2029 H 0.54165 0.1829 0.1652 0.0
H2030 H 0.56972 0.18405 0.0836 0.0
H2031 H 0.61153 0.1679 0.0901 0.0
C2032 C 0.71289 0.18659 0.21242 0.0
C2033 C 0.72247 0.21471 0.21031 0.0
C2034 C 0.69498 0.17047 0.19533 0.0
C2035 C 0.68633 0.18185 0.17539 0.0
C2036 C 0.69555 0.21002 0.17338 0.0
C2037 C 0.71345 0.22626 0.19061 0.0
C2038 C 0.66789 0.16422 0.15665 0.0
C2039 C 0.64304 0.17163 0.15314 0.0
C2040 C 0.6747 0.13992 0.14234 0.0
C2041 C 0.70151 0.13209 0.14319 0.0
C2042 C 0.72574 0.14761 0.13188 0.0
C2043 C 0.751 0.13968 0.13185 0.0
C2044 C 0.75229 0.1165 0.14342 0.0
C2045 C 0.72825 0.10105 0.15483 0.0
C2046 C 0.70289 0.10872 0.15462 0.0
C2047 C 0.61159 0.09106 0.05733 0.0
C2048 C 0.58313 0.08123 0.06274 0.0
C2049 C 0.62701 0.10696 0.07644 0.0
C2050 C 0.61464 0.11363 0.10172 0.0
C2051 C 0.58625 0.10366 0.10746 0.0
C2052 C 0.57063 0.08772 0.08814 0.0
C2053 C 0.63188 0.13102 0.1216 0.0
C2054 C 0.65663 0.12358 0.12536 0.0
C2055 C 0.62515 0.15556 0.13564 0.0
C2056 C 0.60029 0.16564 0.13157 0.0
C2057 C 0.5805 0.17026 0.15273 0.0
C2058 C 0.55692 0.17954 0.14887 0.0
C2059 C 0.55299 0.18441 0.12396 0.0
C2060 C 0.57272 0.18015 0.10286 0.0
C2061 C 0.59635 0.17091 0.10662 0.0
H2062 H 0.53471 0.19156 0.12101 0.0
H2063 H 0.77189 0.11046 0.14347 0.0
H2064 H 0.68967 0.7348 0.82101 0.0
H2065 H 0.66685 0.70876 0.85692 0.0
H2066 H 0.73359 0.66424 0.84784 0.0
H2067 H 0.75685 0.69092 0.81272 0.0
H2068 H 0.64641 0.65783 0.85887 0.0
H2069 H 0.74016 0.64099 0.90534 0.0
H2070 H 0.78777 0.66393 0.91152 0.0
H2071 H 0.76753 0.74183 0.9056 0.0
H2072 H 0.71947 0.71949 0.90001 0.0
H2073 H 0.61131 0.54585 0.92935 0.0
H2074 H 0.64246 0.57823 0.90288 0.0
H2075 H 0.63819 0.64283 0.96646 0.0
H2076 H 0.60651 0.61025 0.99304 0.0
H2077 H 0.69334 0.64386 0.93292 0.0
H2078 H 0.59714 0.6416 0.92852 0.0
H2079 H 0.54926 0.61844 0.92363 0.0
H2080 H 0.57447 0.58192 0.84688 0.0
H2081 H 0.62263 0.60446 0.85154 0.0
C2082 C 0.69945 0.71946 0.82672 0.0
C2083 C 0.72506 0.71494 0.81405 0.0
C2084 C 0.68642 0.70461 0.8473 0.0
C2085 C 0.6986 0.68472 0.85552 0.0
C2086 C 0.72401 0.67991 0.8425 0.0
C2087 C 0.73724 0.69507 0.82223 0.0
C2088 C 0.68421 0.66827 0.87692 0.0
C2089 C 0.65676 0.65504 0.87509 0.0
C2090 C 0.69747 0.66455 0.89835 0.0
C2091 C 0.72619 0.67847 0.90206 0.0
C2092 C 0.74577 0.66304 0.9055 0.0
C2093 C 0.77285 0.67595 0.90887 0.0
C2094 C 0.78066 0.70431 0.90881 0.0
C2095 C 0.76139 0.71985 0.9055 0.0
C2096 C 0.73421 0.70708 0.90227 0.0
C2097 C 0.61802 0.56667 0.9381 0.0
C2098 C 0.60697 0.57547 0.96337 0.0
C2099 C 0.63562 0.58521 0.92288 0.0
C2100 C 0.64248 0.61299 0.9326 0.0
C2101 C 0.63328 0.62145 0.95864 0.0
C2102 C 0.61539 0.60282 0.97389 0.0
C2103 C 0.65604 0.63332 0.91436 0.0
C2104 C 0.68316 0.64708 0.91676 0.0
C2105 C 0.64253 0.63778 0.89352 0.0
C2106 C 0.61353 0.6245 0.89049 0.0
C2107 C 0.59252 0.62843 0.9107 0.0
C2108 C 0.56532 0.61545 0.90795 0.0
C2109 C 0.55883 0.59867 0.88498 0.0
C2110 C 0.57953 0.5949 0.86468 0.0
C2111 C 0.60678 0.60778 0.86736 0.0
H2112 H 0.53776 0.58863 0.88289 0.0
H2113 H 0.80161 0.71427 0.91149 0.0
H2114 H 0.38836 0.64979 0.80859 0.0
H2115 H 0.39582 0.62021 0.83933 0.0
H2116 H 0.33858 0.65456 0.89776 0.0
H2117 H 0.33124 0.68468 0.86685 0.0
H2118 H 0.38612 0.65345 0.91738 0.0
H2119 H 0.32139 0.5888 0.87147 0.0
H2120 H 0.29938 0.56288 0.83351 0.0
H2121 H 0.37166 0.52847 0.80734 0.0
H2122 H 0.39431 0.5545 0.84492 0.0
H2123 H 0.42391 0.55792 0.99302 0.0
H2124 H 0.3929 0.57896 0.97244 0.0
H2125 H 0.44157 0.56737 0.89823 0.0
H2126 H 0.47235 0.5468 0.91848 0.0
H2127 H 0.38535 0.55396 0.89415 0.0
H2128 H 0.45204 0.62662 0.93587 0.0
H2129 H 0.47389 0.65311 0.97371 0.0
H2130 H 0.39612 0.67259 1.00804 0.0
H2131 H 0.37367 0.64557 0.9707 0.0
C2132 C 0.37715 0.6509 0.82791 0.0
C2133 C 0.35928 0.66963 0.83533 0.0
C2134 C 0.38127 0.63381 0.84543 0.0
C2135 C 0.36758 0.63491 0.87084 0.0
C2136 C 0.34927 0.65323 0.87823 0.0
C2137 C 0.34496 0.67029 0.86053 0.0
C2138 C 0.37411 0.6181 0.88982 0.0
C2139 C 0.38523 0.63154 0.91267 0.0
C2140 C 0.37311 0.58952 0.8837 0.0
C2141 C 0.35961 0.57375 0.861 0.0
C2142 C 0.33269 0.57587 0.85753 0.0
C2143 C 0.32008 0.56113 0.83608 0.0
C2144 C 0.33412 0.54407 0.81801 0.0
C2145 C 0.3608 0.54169 0.82137 0.0
C2146 C 0.37352 0.55641 0.84276 0.0
C2147 C 0.42771 0.55959 0.97229 0.0
C2148 C 0.45074 0.55099 0.95744 0.0
C2149 C 0.41006 0.57168 0.96058 0.0
C2150 C 0.41502 0.57487 0.9338 0.0
C2151 C 0.43732 0.56517 0.91888 0.0
C2152 C 0.45503 0.55357 0.93056 0.0
C2153 C 0.39834 0.58954 0.921 0.0
C2154 C 0.38538 0.57569 0.89927 0.0
C2155 C 0.39757 0.61769 0.92822 0.0
C2156 C 0.41109 0.63368 0.95072 0.0
C2157 C 0.43953 0.63622 0.95166 0.0
C2158 C 0.45203 0.65137 0.973 0.0
C2159 C 0.43637 0.66438 0.99336 0.0
C2160 C 0.4082 0.66235 0.99235 0.0
C2161 C 0.39556 0.64707 0.97114 0.0
H2162 H 0.44609 0.67613 1.00985 0.0
H2163 H 0.32432 0.53267 0.80142 0.0
H2164 H 0.36459 0.2949 0.79187 0.0
H2165 H 0.39613 0.32314 0.82156 0.0
H2166 H 0.33004 0.36265 0.86048 0.0
H2167 H 0.29947 0.33624 0.82915 0.0
H2168 H 0.37083 0.39851 0.86082 0.0
H2169 H 0.35759 0.30773 0.88517 0.0
H2170 H 0.35642 0.25779 0.8784 0.0
H2171 H 0.443 0.27196 0.85283 0.0
H2172 H 0.44439 0.32191 0.85892 0.0
H2173 H 0.43408 0.44706 0.97818 0.0
H2174 H 0.40454 0.41398 0.94954 0.0
H2175 H 0.47431 0.4087 0.89186 0.0
H2176 H 0.50365 0.44244 0.92 0.0
H2177 H 0.43256 0.35553 0.90246 0.0
H2178 H 0.44255 0.44912 0.88077 0.0
H2179 H 0.44027 0.49805 0.89262 0.0
H2180 H 0.35463 0.47645 0.92011 0.0
H2181 H 0.35654 0.42734 0.90889 0.0
C2182 C 0.35706 0.30991 0.80662 0.0
C2183 C 0.32974 0.31351 0.80829 0.0
C2184 C 0.37494 0.3258 0.82387 0.0
C2185 C 0.36547 0.34464 0.844 0.0
C2186 C 0.33811 0.3484 0.84527 0.0
C2187 C 0.32058 0.33331 0.82736 0.0
C2188 C 0.38392 0.3606 0.86356 0.0
C2189 C 0.38392 0.38881 0.8701 0.0
C2190 C 0.40154 0.34842 0.87574 0.0
C2191 C 0.40092 0.31845 0.87209 0.0
C2192 C 0.37623 0.30009 0.8778 0.0
C2193 C 0.37556 0.27183 0.87414 0.0
C2194 C 0.39961 0.2617 0.86509 0.0
C2195 C 0.42437 0.27983 0.85976 0.0
C2196 C 0.42509 0.30812 0.86329 0.0
C2197 C 0.44323 0.43813 0.95976 0.0
C2198 C 0.4711 0.4471 0.95127 0.0
C2199 C 0.42634 0.41944 0.94337 0.0
C2200 C 0.43728 0.4091 0.91857 0.0
C2201 C 0.46554 0.41644 0.91095 0.0
C2202 C 0.48226 0.43562 0.92701 0.0
C2203 C 0.41891 0.39284 0.89956 0.0
C2204 C 0.41917 0.36483 0.89311 0.0
C2205 C 0.401 0.40498 0.88801 0.0
C2206 C 0.39978 0.43454 0.8943 0.0
C2207 C 0.4233 0.45479 0.88959 0.0
C2208 C 0.42207 0.48256 0.89615 0.0
C2209 C 0.39734 0.49034 0.9072 0.0
C2210 C 0.37378 0.47038 0.91161 0.0
C2211 C 0.37493 0.44258 0.90515 0.0
H2212 H 0.39641 0.51183 0.9123 0.0
H2213 H 0.39908 0.23981 0.86229 0.0
H2214 H 0.59238 0.25376 0.83894 0.0
H2215 H 0.58034 0.27563 0.88307 0.0
H2216 H 0.64454 0.34558 0.8689 0.0
H2217 H 0.65618 0.32452 0.82551 0.0
H2218 H 0.63606 0.34099 0.91954 0.0
H2219 H 0.58048 0.33829 0.84633 0.0
H2220 H 0.54947 0.3136 0.81397 0.0
H2221 H 0.49263 0.27862 0.87533 0.0
H2222 H 0.52363 0.3028 0.90797 0.0
H2223 H 0.56436 0.46088 0.91913 0.0
H2224 H 0.5753 0.41594 0.90241 0.0
H2225 H 0.5788 0.39925 0.98094 0.0
H2226 H 0.56825 0.44428 0.99789 0.0
H2227 H 0.54625 0.36551 0.91212 0.0
H2228 H 0.63175 0.35686 0.97328 0.0
H2229 H 0.66613 0.38676 0.99972 0.0
H2230 H 0.66836 0.45261 0.9544 0.0
H2231 H 0.63449 0.42297 0.92737 0.0
C2232 C 0.60425 0.27353 0.84558 0.0
C2233 C 0.62482 0.28764 0.82856 0.0
C2234 C 0.59759 0.28581 0.87084 0.0
C2235 C 0.61124 0.31241 0.87904 0.0
C2236 C 0.63377 0.32501 0.86309 0.0
C2237 C 0.64036 0.31287 0.83806 0.0
C2238 C 0.59892 0.3301 0.90052 0.0
C2239 C 0.61603 0.34586 0.91863 0.0
C2240 C 0.57294 0.33664 0.89902 0.0
C2241 C 0.55445 0.32198 0.87947 0.0
C2242 C 0.56144 0.32518 0.85284 0.0
C2243 C 0.54389 0.31129 0.83448 0.0
C2244 C 0.51912 0.29448 0.84258 0.0
C2245 C 0.51187 0.29155 0.86907 0.0
C2246 C 0.52944 0.30529 0.88751 0.0
C2247 C 0.56772 0.44779 0.93282 0.0
C2248 C 0.5655 0.45615 0.95977 0.0
C2249 C 0.5737 0.42205 0.9233 0.0
C2250 C 0.57769 0.40435 0.94053 0.0
C2251 C 0.57581 0.41269 0.96741 0.0
C2252 C 0.56979 0.43842 0.97697 0.0
C2253 C 0.58412 0.37731 0.9299 0.0
C2254 C 0.56564 0.35982 0.91418 0.0
C2255 C 0.60928 0.36987 0.93293 0.0
C2256 C 0.63003 0.38786 0.94874 0.0
C2257 C 0.63962 0.37771 0.96893 0.0
C2258 C 0.65907 0.3946 0.98399 0.0
C2259 C 0.66925 0.42164 0.97889 0.0
C2260 C 0.66026 0.43175 0.95851 0.0
C2261 C 0.6409 0.41491 0.94333 0.0
H2262 H 0.68422 0.43471 0.99064 0.0
H2263 H 0.50552 0.2838 0.82835 0.0
H2264 H 0.74475 0.41122 0.17318 0.0
H2265 H 0.72387 0.42436 0.13799 0.0
H2266 H 0.64588 0.37567 0.16399 0.0
H2267 H 0.66709 0.36187 0.19881 0.0
H2268 H 0.65148 0.37589 0.11123 0.0
H2269 H 0.66285 0.44297 0.18686 0.0
H2270 H 0.68925 0.47364 0.21981 0.0
H2271 H 0.73919 0.51697 0.15938 0.0
H2272 H 0.71336 0.48619 0.12601 0.0
H2273 H 0.55206 0.44734 0.0878 0.0
H2274 H 0.58375 0.42554 0.1051 0.0
H2275 H 0.65249 0.48049 0.07002 0.0
H2276 H 0.62051 0.50315 0.05276 0.0
H2277 H 0.65746 0.47674 0.12074 0.0
H2278 H 0.63593 0.41352 0.04602 0.0
H2279 H 0.60465 0.38404 0.01637 0.0
H2280 H 0.57048 0.33289 0.07674 0.0
H2281 H 0.60041 0.36285 0.10731 0.0
C2282 C 0.72339 0.40259 0.17076 0.0
C2283 C 0.70748 0.38556 0.18863 0.0
C2284 C 0.71141 0.41025 0.15079 0.0
C2285 C 0.68313 0.40155 0.14868 0.0
C2286 C 0.66771 0.38273 0.16524 0.0
C2287 C 0.67982 0.37478 0.18509 0.0
C2288 C 0.66907 0.41454 0.13155 0.0
C2289 C 0.65269 0.39791 0.1133 0.0
C2290 C 0.67106 0.44338 0.13388 0.0
C2291 C 0.68641 0.46208 0.15393 0.0
C2292 C 0.67959 0.45891 0.18059 0.0
C2293 C 0.69444 0.47632 0.19934 0.0
C2294 C 0.71594 0.49719 0.19169 0.0
C2295 C 0.72258 0.50075 0.16527 0.0
C2296 C 0.70785 0.48332 0.14643 0.0
C2297 C 0.5739 0.45489 0.08353 0.0
C2298 C 0.58365 0.4772 0.06889 0.0
C2299 C 0.59206 0.44213 0.09332 0.0
C2300 C 0.62055 0.45104 0.08859 0.0
C2301 C 0.63056 0.47312 0.07377 0.0
C2302 C 0.61226 0.48599 0.06384 0.0
C2303 C 0.63944 0.43811 0.10063 0.0
C2304 C 0.65668 0.45476 0.11809 0.0
C2305 C 0.63784 0.40927 0.09777 0.0
C2306 C 0.62043 0.3906 0.07908 0.0
C2307 C 0.62164 0.39611 0.0531 0.0
C2308 C 0.60412 0.37931 0.03609 0.0
C2309 C 0.58578 0.35651 0.04458 0.0
C2310 C 0.58477 0.35054 0.07016 0.0
C2311 C 0.60193 0.36749 0.08738 0.0
H2312 H 0.57229 0.3435 0.03134 0.0
H2313 H 0.72741 0.51066 0.20623 0.0
H2314 H 0.69832 0.75803 0.20488 0.0
H2315 H 0.66709 0.7312 0.17452 0.0
H2316 H 0.69362 0.65753 0.18629 0.0
H2317 H 0.72614 0.6845 0.21545 0.0
H2318 H 0.68831 0.65517 0.13768 0.0
H2319 H 0.631 0.6747 0.21608 0.0
H2320 H 0.61174 0.70342 0.25355 0.0
H2321 H 0.58147 0.74661 0.20128 0.0
H2322 H 0.60089 0.71836 0.16345 0.0
H2323 H 0.54153 0.57792 0.11844 0.0
H2324 H 0.57278 0.61177 0.14375 0.0
H2325 H 0.6223 0.63426 0.07277 0.0
H2326 H 0.59126 0.59946 0.04709 0.0
H2327 H 0.59005 0.66364 0.14956 0.0
H2328 H 0.69041 0.64837 0.08422 0.0
H2329 H 0.70771 0.61302 0.05209 0.0
H2330 H 0.64845 0.55004 0.0872 0.0
H2331 H 0.63108 0.58496 0.11974 0.0
C2332 C 0.69749 0.7361 0.20111 0.0
C2333 C 0.71447 0.72338 0.21303 0.0
C2334 C 0.67952 0.72074 0.18375 0.0
C2335 C 0.67759 0.69221 0.17836 0.0
C2336 C 0.69463 0.67949 0.19013 0.0
C2337 C 0.71296 0.69491 0.20716 0.0
C2338 C 0.6576 0.6756 0.16075 0.0
C2339 C 0.66686 0.65714 0.14024 0.0
C2340 C 0.62943 0.67764 0.16427 0.0
C2341 C 0.61765 0.69462 0.18694 0.0
C2342 C 0.62041 0.69045 0.21258 0.0
C2343 C 0.60944 0.70663 0.23388 0.0
C2344 C 0.59546 0.72688 0.2298 0.0
C2345 C 0.59235 0.73094 0.2044 0.0
C2346 C 0.60331 0.71485 0.18302 0.0
C2347 C 0.55884 0.59028 0.10808 0.0
C2348 C 0.56407 0.58571 0.08072 0.0
C2349 C 0.57669 0.60977 0.12264 0.0
C2350 C 0.60021 0.62529 0.11027 0.0
C2351 C 0.60453 0.62218 0.0828 0.0
C2352 C 0.58663 0.60248 0.06812 0.0
C2353 C 0.62074 0.64325 0.1265 0.0
C2354 C 0.61159 0.66197 0.14677 0.0
C2355 C 0.64871 0.64051 0.12348 0.0
C2356 C 0.65922 0.61933 0.10417 0.0
C2357 C 0.68113 0.62697 0.0851 0.0
C2358 C 0.69094 0.60701 0.06683 0.0
C2359 C 0.67911 0.57931 0.06753 0.0
C2360 C 0.65752 0.5715 0.0866 0.0
C2361 C 0.64767 0.59138 0.10495 0.0
H2362 H 0.68672 0.5639 0.05335 0.0
H2363 H 0.58698 0.73938 0.24631 0.0
H2364 H 0.27695 0.61339 0.2042 0.0
H2365 H 0.2798 0.59283 0.15878 0.0
H2366 H 0.33464 0.54298 0.17616 0.0
H2367 H 0.3316 0.56329 0.22132 0.0
H2368 H 0.32909 0.60908 0.13694 0.0
H2369 H 0.347 0.49605 0.13259 0.0
H2370 H 0.32077 0.45254 0.14683 0.0
H2371 H 0.24497 0.48015 0.14588 0.0
H2372 H 0.27073 0.52384 0.13148 0.0
H2373 H 0.45692 0.57571 0.10662 0.0
H2374 H 0.41032 0.58353 0.12203 0.0
H2375 H 0.38312 0.54676 0.04761 0.0
H2376 H 0.4299 0.53951 0.03199 0.0
H2377 H 0.35488 0.5217 0.09454 0.0
H2378 H 0.37386 0.60522 0.05889 0.0
H2379 H 0.40202 0.64898 0.04709 0.0
H2380 H 0.40326 0.68009 0.12818 0.0
H2381 H 0.37573 0.63626 0.14058 0.0
C2382 C 0.28832 0.59688 0.19857 0.0
C2383 C 0.30474 0.59042 0.21593 0.0
C2384 C 0.28988 0.5851 0.17261 0.0
C2385 C 0.30787 0.56679 0.16387 0.0
C2386 C 0.32046 0.55695 0.18233 0.0
C2387 C 0.31885 0.56868 0.20829 0.0
C2388 C 0.32055 0.56503 0.13643 0.0
C2389 C 0.33406 0.58987 0.12716 0.0
C2390 C 0.32639 0.54 0.12304 0.0
C2391 C 0.31085 0.51328 0.13086 0.0
C2392 C 0.32473 0.49277 0.13509 0.0
C2393 C 0.30993 0.46809 0.14334 0.0
C2394 C 0.2812 0.46359 0.1473 0.0
C2395 C 0.26722 0.4837 0.14289 0.0
C2396 C 0.28192 0.50846 0.13476 0.0
C2397 C 0.44123 0.57039 0.09328 0.0
C2398 C 0.44695 0.55761 0.06802 0.0
C2399 C 0.41469 0.57472 0.10203 0.0
C2400 C 0.39347 0.56575 0.08583 0.0
C2401 C 0.39936 0.55403 0.06021 0.0
C2402 C 0.42609 0.55025 0.05125 0.0
C2403 C 0.36491 0.56577 0.09732 0.0
C2404 C 0.34866 0.54069 0.10343 0.0
C2405 C 0.3565 0.59057 0.10786 0.0
C2406 C 0.37257 0.61738 0.10066 0.0
C2407 C 0.38019 0.62134 0.07424 0.0
C2408 C 0.39608 0.64618 0.06743 0.0
C2409 C 0.40435 0.66735 0.08685 0.0
C2410 C 0.39676 0.66371 0.11315 0.0
C2411 C 0.38097 0.63885 0.12008 0.0
H2412 H 0.41666 0.68656 0.08152 0.0
H2413 H 0.26973 0.44457 0.15385 0.0
H2414 H 0.27336 0.34695 0.22136 0.0
H2415 H 0.29782 0.37715 0.18916 0.0
H2416 H 0.3623 0.32946 0.1742 0.0
H2417 H 0.3386 0.30026 0.20729 0.0
H2418 H 0.38494 0.37908 0.17385 0.0
H2419 H 0.30711 0.32472 0.13402 0.0
H2420 H 0.25783 0.30607 0.13035 0.0
H2421 H 0.24296 0.38738 0.13011 0.0
H2422 H 0.29204 0.40638 0.134 0.0
H2423 H 0.45038 0.41861 0.05617 0.0
H2424 H 0.41706 0.38962 0.08417 0.0
H2425 H 0.37056 0.45453 0.1053 0.0
H2426 H 0.40392 0.48361 0.07674 0.0
H2427 H 0.33732 0.39935 0.10299 0.0
H2428 H 0.4167 0.45253 0.1423 0.0
H2429 H 0.46652 0.46935 0.14359 0.0
H2430 H 0.47886 0.38686 0.14213 0.0
H2431 H 0.42914 0.36949 0.14036 0.0
C2432 C 0.29293 0.34318 0.21139 0.0
C2433 C 0.30414 0.32135 0.21696 0.0
C2434 C 0.30679 0.36027 0.19275 0.0
C2435 C 0.33173 0.35536 0.17867 0.0
C2436 C 0.34314 0.33382 0.18468 0.0
C2437 C 0.32962 0.31714 0.20371 0.0
C2438 C 0.34617 0.37258 0.15781 0.0
C2439 C 0.37444 0.38313 0.15826 0.0
C2440 C 0.33257 0.37863 0.13758 0.0
C2441 C 0.30314 0.36704 0.13483 0.0
C2442 C 0.29325 0.3386 0.13344 0.0
C2443 C 0.26539 0.32795 0.13126 0.0
C2444 C 0.24727 0.34553 0.13015 0.0
C2445 C 0.25699 0.37377 0.13109 0.0
C2446 C 0.28481 0.38449 0.13329 0.0
C2447 C 0.43238 0.42624 0.06587 0.0
C2448 C 0.42957 0.45321 0.06414 0.0
C2449 C 0.41348 0.40976 0.08206 0.0
C2450 C 0.39163 0.42009 0.09726 0.0
C2451 C 0.38729 0.44616 0.09378 0.0
C2452 C 0.40621 0.46268 0.07731 0.0
C2453 C 0.3759 0.40506 0.11896 0.0
C2454 C 0.34756 0.39516 0.11871 0.0
C2455 C 0.38941 0.39921 0.13922 0.0
C2456 C 0.41922 0.4097 0.141 0.0
C2457 C 0.43005 0.43797 0.14211 0.0
C2458 C 0.45828 0.4476 0.14293 0.0
C2459 C 0.47586 0.42918 0.14289 0.0
C2460 C 0.46522 0.4011 0.14214 0.0
C2461 C 0.43702 0.39135 0.14125 0.0
H2462 H 0.49771 0.43667 0.14348 0.0
H2463 H 0.22574 0.33726 0.12842 0.0
H2464 H 0.84389 0.71225 0.75153 0.0
H2465 H 0.87197 0.6818 0.7253 0.0
H2466 H 0.82774 0.68085 0.65933 0.0
H2467 H 0.7987 0.71013 0.68618 0.0
H2468 H 0.83655 0.63326 0.65712 0.0
H2469 H 0.89936 0.71913 0.66907 0.0
H2470 H 0.92421 0.75997 0.69415 0.0
H2471 H 0.96047 0.70852 0.73332 0.0
H2472 H 0.93556 0.66735 0.7087 0.0
H2473 H 0.93071 0.58548 0.55673 0.0
H2474 H 0.9025 0.61148 0.58774 0.0
H2475 H 0.94612 0.5997 0.65012 0.0
H2476 H 0.9758 0.57403 0.61835 0.0
H2477 H 0.93799 0.65157 0.65652 0.0
H2478 H 0.87627 0.56546 0.6408 0.0
H2479 H 0.85193 0.52596 0.61369 0.0
H2480 H 0.81402 0.57988 0.57926 0.0
H2481 H 0.83839 0.61973 0.60592 0.0
C2482 C 0.84004 0.70573 0.73139 0.0
C2483 C 0.81877 0.71429 0.7211 0.0
C2484 C 0.85649 0.68827 0.71616 0.0
C2485 C 0.85294 0.67912 0.68969 0.0
C2486 C 0.83145 0.68737 0.67949 0.0
C2487 C 0.81467 0.70443 0.69494 0.0
C2488 C 0.87104 0.66075 0.67288 0.0
C2489 C 0.85875 0.63766 0.65689 0.0
C2490 C 0.90021 0.66545 0.6726 0.0
C2491 C 0.91539 0.69016 0.68723 0.0
C2492 C 0.91252 0.71653 0.68314 0.0
C2493 C 0.92662 0.73974 0.69726 0.0
C2494 C 0.94385 0.73684 0.71536 0.0
C2495 C 0.94709 0.71073 0.71932 0.0
C2496 C 0.933 0.68746 0.70527 0.0
C2497 C 0.93445 0.58801 0.57704 0.0
C2498 C 0.95588 0.57722 0.58468 0.0
C2499 C 0.91788 0.60295 0.59501 0.0
C2500 C 0.92142 0.60753 0.62174 0.0
C2501 C 0.94256 0.59655 0.62974 0.0
C2502 C 0.95946 0.58152 0.61152 0.0
C2503 C 0.90346 0.62436 0.64064 0.0
C2504 C 0.91577 0.64716 0.65695 0.0
C2505 C 0.87431 0.6196 0.641 0.0
C2506 C 0.85929 0.5956 0.62527 0.0
C2507 C 0.86284 0.5689 0.62737 0.0
C2508 C 0.84903 0.54645 0.61208 0.0
C2509 C 0.83148 0.55041 0.59474 0.0
C2510 C 0.82762 0.57683 0.5927 0.0
C2511 C 0.84139 0.59936 0.60793 0.0
H2512 H 0.82083 0.53301 0.5829 0.0
H2513 H 0.95474 0.75483 0.72629 0.0
H2514 H 0.30076 0.8576 0.7262 0.0
H2515 H 0.32928 0.88505 0.69414 0.0
H2516 H 0.35662 0.81287 0.6532 0.0
H2517 H 0.32764 0.78491 0.68519 0.0
H2518 H 0.39937 0.85672 0.65915 0.0
H2519 H 0.31058 0.83991 0.6286 0.0
H2520 H 0.26059 0.83849 0.63206 0.0
H2521 H 0.27353 0.92569 0.65298 0.0
H2522 H 0.32363 0.92761 0.64997 0.0
H2523 H 0.46158 0.91071 0.54453 0.0
H2524 H 0.42816 0.88409 0.57412 0.0
H2525 H 0.40547 0.95845 0.61504 0.0
H2526 H 0.43932 0.98558 0.58523 0.0
H2527 H 0.36 0.91442 0.60953 0.0
H2528 H 0.44881 0.93112 0.64012 0.0
H2529 H 0.49866 0.9323 0.63752 0.0
H2530 H 0.48551 0.84502 0.61721 0.0
H2531 H 0.43554 0.84333 0.61938 0.0
C2532 C 0.31275 0.84737 0.7104 0.0
C2533 C 0.31195 0.8189 0.70849 0.0
C2534 C 0.32902 0.8632 0.69198 0.0
C2535 C 0.34492 0.85107 0.67106 0.0
C2536 C 0.3445 0.82272 0.66916 0.0
C2537 C 0.328 0.80675 0.68756 0.0
C2538 C 0.3622 0.86818 0.65149 0.0
C2539 C 0.39069 0.86898 0.648 0.0
C2540 C 0.351 0.88488 0.6375 0.0
C2541 C 0.32088 0.88387 0.63927 0.0
C2542 C 0.30277 0.85877 0.63414 0.0
C2543 C 0.27441 0.85787 0.63599 0.0
C2544 C 0.26389 0.88197 0.64278 0.0
C2545 C 0.28171 0.90703 0.64773 0.0
C2546 C 0.3101 0.90804 0.64592 0.0
C2547 C 0.44925 0.92152 0.55956 0.0
C2548 C 0.4534 0.95038 0.56264 0.0
C2549 C 0.43016 0.9062 0.57655 0.0
C2550 C 0.4147 0.91924 0.59718 0.0
C2551 C 0.41733 0.94794 0.59934 0.0
C2552 C 0.43658 0.96343 0.58222 0.0
C2553 C 0.39714 0.90277 0.61708 0.0
C2554 C 0.36865 0.90213 0.62067 0.0
C2555 C 0.40831 0.88619 0.63123 0.0
C2556 C 0.43841 0.88715 0.62963 0.0
C2557 C 0.45655 0.91221 0.63483 0.0
C2558 C 0.48484 0.91297 0.63347 0.0
C2559 C 0.49527 0.88878 0.62709 0.0
C2560 C 0.47741 0.86376 0.6221 0.0
C2561 C 0.44909 0.86288 0.62341 0.0
H2562 H 0.51718 0.8894 0.62609 0.0
H2563 H 0.24194 0.88121 0.64411 0.0
H2564 H 0.21106 0.38706 0.67959 0.0
H2565 H 0.18533 0.40873 0.6542 0.0
H2566 H 0.1161 0.39936 0.71348 0.0
H2567 H 0.14133 0.37686 0.7385 0.0
H2568 H 0.09822 0.39006 0.66644 0.0
H2569 H 0.16178 0.46061 0.71044 0.0
H2570 H 0.20708 0.48434 0.72348 0.0
H2571 H 0.23692 0.49367 0.64331 0.0
H2572 H 0.19191 0.4696 0.62975 0.0
H2573 H 0.03194 0.48216 0.61637 0.0
H2574 H 0.05523 0.46504 0.64781 0.0
H2575 H 0.12787 0.46731 0.59248 0.0
H2576 H 0.10495 0.48452 0.56145 0.0
H2577 H 0.14205 0.48195 0.64094 0.0
H2578 H 0.07942 0.40867 0.59695 0.0
H2579 H 0.03371 0.38638 0.58388 0.0
H2580 H 1.0017 0.38328 0.66443 0.0
H2581 H 0.04717 0.40596 0.67799 0.0
C2582 C 0.19018 0.38913 0.68701 0.0
C2583 C 0.17846 0.38047 0.7113 0.0
C2584 C 0.17556 0.40183 0.67259 0.0
C2585 C 0.14891 0.40631 0.68214 0.0
C2586 C 0.13667 0.39643 0.70573 0.0
C2587 C 0.15125 0.38373 0.72014 0.0
C2588 C 0.13422 0.42209 0.66807 0.0
C2589 C 0.10769 0.41031 0.66122 0.0
C2590 C 0.14648 0.4485 0.66096 0.0
C2591 C 0.17355 0.46305 0.66906 0.0
C2592 C 0.17806 0.46753 0.69557 0.0
C2593 C 0.20368 0.48107 0.70306 0.0
C2594 C 0.22489 0.49044 0.68423 0.0
C2595 C 0.22049 0.48635 0.65787 0.0
C2596 C 0.19493 0.47278 0.65028 0.0
C2597 C 0.05316 0.47981 0.61133 0.0
C2598 C 0.06659 0.48456 0.58643 0.0
C2599 C 0.06636 0.46971 0.62915 0.0
C2600 C 0.09317 0.46429 0.62232 0.0
C2601 C 0.10718 0.47107 0.59821 0.0
C2602 C 0.09403 0.48095 0.58047 0.0
C2603 C 0.10623 0.44983 0.6391 0.0
C2604 C 0.13248 0.46182 0.64641 0.0
C2605 C 0.0937 0.42368 0.64663 0.0
C2606 C 0.06661 0.40927 0.63849 0.0
C2607 C 0.0626 0.40335 0.61188 0.0
C2608 C 0.03674 0.39066 0.60438 0.0
C2609 C 1.01479 0.38351 0.62332 0.0
C2610 C 0.01871 0.38889 0.64979 0.0
C2611 C 0.04452 0.40165 0.65739 0.0
H2612 H 0.99476 0.37375 0.61748 0.0
H2613 H 0.2447 0.50093 0.69006 0.0
H2614 H 0.71523 0.1916 0.72743 0.0
H2615 H 0.6832 0.16319 0.69852 0.0
H2616 H 0.70526 0.22302 0.64352 0.0
H2617 H 0.73644 0.25214 0.67312 0.0
H2618 H 0.65228 0.20594 0.64726 0.0
H2619 H 0.72932 0.15616 0.63771 0.0
H2620 H 0.7599 0.13323 0.65695 0.0
H2621 H 0.6899 0.07761 0.68819 0.0
H2622 H 0.65892 0.10045 0.66957 0.0
H2623 H 0.58434 0.12634 0.54329 0.0
H2624 H 0.6199 0.15303 0.56978 0.0
H2625 H 0.60544 0.08882 0.62009 0.0
H2626 H 0.57164 0.06135 0.59235 0.0
H2627 H 0.65498 0.1078 0.61914 0.0
H2628 H 0.57813 0.15122 0.63131 0.0
H2629 H 0.54268 0.17097 0.61642 0.0
H2630 H 0.60402 0.23781 0.59043 0.0
H2631 H 0.64035 0.2171 0.60317 0.0
C2632 C 0.71358 0.19857 0.70902 0.0
C2633 C 0.72883 0.224 0.70242 0.0
C2634 C 0.69519 0.1822 0.69237 0.0
C2635 C 0.69211 0.1904 0.66827 0.0
C2636 C 0.70724 0.21594 0.6618 0.0
C2637 C 0.72521 0.23259 0.67871 0.0
C2638 C 0.67281 0.17282 0.65005 0.0
C2639 C 0.65324 0.18461 0.64075 0.0
C2640 C 0.67289 0.14452 0.64239 0.0
C2641 C 0.69181 0.13008 0.65232 0.0
C2642 C 0.72049 0.13901 0.64864 0.0
C2643 C 0.73788 0.12604 0.65947 0.0
C2644 C 0.72683 0.10396 0.67375 0.0
C2645 C 0.69841 0.09473 0.67716 0.0
C2646 C 0.68094 0.10763 0.66643 0.0
C2647 C 0.58893 0.11792 0.55992 0.0
C2648 C 0.57497 0.09184 0.56584 0.0
C2649 C 0.60922 0.13326 0.57523 0.0
C2650 C 0.61513 0.12353 0.59765 0.0
C2651 C 0.60152 0.09712 0.60311 0.0
C2652 C 0.58198 0.0814 0.58727 0.0
C2653 C 0.63464 0.14102 0.61587 0.0
C2654 C 0.65414 0.12922 0.62531 0.0
C2655 C 0.63383 0.16908 0.62445 0.0
C2656 C 0.61203 0.18239 0.6179 0.0
C2657 C 0.58415 0.17004 0.62225 0.0
C2658 C 0.56386 0.1814 0.61413 0.0
C2659 C 0.57096 0.20587 0.60278 0.0
C2660 C 0.59851 0.21886 0.59925 0.0
C2661 C 0.61903 0.20715 0.60666 0.0
H2662 H 0.55514 0.21471 0.59664 0.0
H2663 H 0.74018 0.09397 0.68226 0.0
H2664 H 0.83414 0.34084 0.29454 0.0
H2665 H 0.86447 0.36794 0.32596 0.0
H2666 H 0.84553 0.30193 0.37413 0.0
H2667 H 0.81556 0.27431 0.34235 0.0
H2668 H 0.84222 0.36168 0.40029 0.0
H2669 H 0.90803 0.30572 0.35156 0.0
H2670 H 0.9325 0.28604 0.31123 0.0
H2671 H 0.95587 0.36571 0.28469 0.0
H2672 H 0.93211 0.38591 0.32524 0.0
H2673 H 0.98425 0.40275 0.45758 0.0
H2674 H 0.95214 0.37401 0.42886 0.0
H2675 H 0.91159 0.44191 0.42803 0.0
H2676 H 0.94377 0.47096 0.45677 0.0
H2677 H 0.94364 0.3798 0.37914 0.0
H2678 H 0.84097 0.41312 0.42029 0.0
H2679 H 0.8192 0.43351 0.4617 0.0
H2680 H 0.86924 0.39968 0.50475 0.0
H2681 H 0.89061 0.37819 0.4637 0.0
C2682 C 0.83634 0.33203 0.31183 0.0
C2683 C 0.82226 0.30533 0.31588 0.0
C2684 C 0.85379 0.34757 0.32977 0.0
C2685 C 0.85731 0.33709 0.35252 0.0
C2686 C 0.84314 0.31054 0.35679 0.0
C2687 C 0.82605 0.29473 0.33856 0.0
C2688 C 0.87584 0.35392 0.37166 0.0
C2689 C 0.86439 0.36566 0.39569 0.0
C2690 C 0.90476 0.35929 0.36583 0.0
C2691 C 0.91821 0.34721 0.34121 0.0
C2692 C 0.91834 0.31897 0.33705 0.0
C2693 C 0.93227 0.30779 0.3143 0.0
C2694 C 0.94568 0.32461 0.29538 0.0
C2695 C 0.94545 0.35271 0.29934 0.0
C2696 C 0.93194 0.36406 0.32227 0.0
C2697 C 0.9684 0.41163 0.45154 0.0
C2698 C 0.96672 0.43932 0.45973 0.0
C2699 C 0.95006 0.39512 0.43492 0.0
C2700 C 0.92924 0.4056 0.4262 0.0
C2701 C 0.92723 0.43313 0.43458 0.0
C2702 C 0.94574 0.44977 0.45107 0.0
C2703 C 0.91016 0.3878 0.40796 0.0
C2704 C 0.92148 0.37595 0.38392 0.0
C2705 C 0.8811 0.38254 0.41387 0.0
C2706 C 0.86763 0.39431 0.43884 0.0
C2707 C 0.84715 0.40979 0.4386 0.0
C2708 C 0.83484 0.42149 0.46203 0.0
C2709 C 0.84284 0.41785 0.48584 0.0
C2710 C 0.86301 0.40235 0.48629 0.0
C2711 C 0.87521 0.39039 0.46294 0.0
H2712 H 0.8334 0.42706 0.50395 0.0
H2713 H 0.95621 0.31585 0.27765 0.0
H2714 H 0.73041 0.85275 0.27877 0.0
H2715 H 0.70105 0.88133 0.30567 0.0
H2716 H 0.67515 0.81954 0.35831 0.0
H2717 H 0.70338 0.79 0.33028 0.0
H2718 H 0.63305 0.83923 0.35601 0.0
H2719 H 0.72395 0.88512 0.37055 0.0
H2720 H 0.7722 0.90695 0.35923 0.0
H2721 H 0.74541 0.96749 0.32317 0.0
H2722 H 0.69697 0.94573 0.33387 0.0
H2723 H 0.5844 0.92342 0.46522 0.0
H2724 H 0.61223 0.89745 0.43376 0.0
H2725 H 0.61452 0.95353 0.37761 0.0
H2726 H 0.58591 0.98032 0.40967 0.0
H2727 H 0.6676 0.93836 0.38005 0.0
H2728 H 0.57487 0.89139 0.37004 0.0
H2729 H 0.5279 0.86947 0.38593 0.0
H2730 H 0.56045 0.81039 0.41872 0.0
H2731 H 0.60765 0.83223 0.40342 0.0
C2732 C 0.71859 0.845 0.29607 0.0
C2733 C 0.72007 0.81881 0.30232 0.0
C2734 C 0.70177 0.86175 0.31179 0.0
C2735 C 0.686 0.85342 0.33486 0.0
C2736 C 0.68705 0.82705 0.34095 0.0
C2737 C 0.70363 0.81007 0.32494 0.0
C2738 C 0.66825 0.87188 0.35215 0.0
C2739 C 0.64094 0.86081 0.36136 0.0
C2740 C 0.67772 0.90046 0.35925 0.0
C2741 C 0.70682 0.91361 0.35277 0.0
C2742 C 0.72835 0.90296 0.36002 0.0
C2743 C 0.75573 0.91533 0.35374 0.0
C2744 C 0.76187 0.93856 0.34044 0.0
C2745 C 0.74062 0.94947 0.33343 0.0
C2746 C 0.7132 0.93713 0.3396 0.0
C2747 C 0.59069 0.9307 0.4463 0.0
C2748 C 0.58261 0.9545 0.44045 0.0
C2749 C 0.60672 0.91543 0.42807 0.0
C2750 C 0.61564 0.92305 0.40295 0.0
C2751 C 0.60802 0.94695 0.39679 0.0
C2752 C 0.59148 0.9623 0.41517 0.0
C2753 C 0.63264 0.90561 0.38369 0.0
C2754 C 0.65979 0.91683 0.37433 0.0
C2755 C 0.62325 0.87705 0.3769 0.0
C2756 C 0.59483 0.86358 0.38571 0.0
C2757 C 0.57203 0.87382 0.38077 0.0
C2758 C 0.54536 0.8614 0.38966 0.0
C2759 C 0.5412 0.83858 0.40335 0.0
C2760 C 0.5637 0.82808 0.40811 0.0
C2761 C 0.59042 0.84045 0.39931 0.0
H2762 H 0.52054 0.829 0.41024 0.0
H2763 H 0.78308 0.94814 0.33562 0.0
H2764 H 0.20073 0.69735 0.2901 0.0
H2765 H 0.17038 0.66868 0.32053 0.0
H2766 H 0.2243 0.70104 0.38041 0.0
H2767 H 0.25505 0.72942 0.34964 0.0
H2768 H 0.20846 0.6467 0.38007 0.0
H2769 H 0.16131 0.72187 0.38085 0.0
H2770 H 0.14004 0.75352 0.36135 0.0
H2771 H 0.08402 0.68537 0.32706 0.0
H2772 H 0.10496 0.6533 0.34625 0.0
H2773 H 0.11027 0.59748 0.48611 0.0
H2774 H 0.14455 0.62435 0.45641 0.0
H2775 H 0.09356 0.59488 0.39372 0.0
H2776 H 0.05948 0.56838 0.4234 0.0
H2777 H 0.10872 0.64861 0.39656 0.0
H2778 H 0.15448 0.57341 0.39521 0.0
H2779 H 0.17506 0.54062 0.41369 0.0
H2780 H 0.23351 0.607 0.44734 0.0
H2781 H 0.21299 0.64026 0.42939 0.0
C2782 C 0.20591 0.69858 0.30986 0.0
C2783 C 0.23019 0.71564 0.31757 0.0
C2784 C 0.18857 0.68216 0.32726 0.0
C2785 C 0.19476 0.68288 0.35298 0.0
C2786 C 0.21898 0.7001 0.36074 0.0
C2787 C 0.23649 0.71637 0.34321 0.0
C2788 C 0.17602 0.66555 0.37162 0.0
C2789 C 0.18673 0.64744 0.38399 0.0
C2790 C 0.14748 0.66588 0.37631 0.0
C2791 C 0.13485 0.68518 0.36482 0.0
C2792 C 0.14457 0.71363 0.36901 0.0
C2793 C 0.13257 0.73164 0.35804 0.0
C2794 C 0.11081 0.72145 0.34289 0.0
C2795 C 0.10091 0.69323 0.33877 0.0
C2796 C 0.11278 0.67513 0.34974 0.0
C2797 C 0.10683 0.59638 0.46583 0.0
C2798 C 0.08251 0.58072 0.45685 0.0
C2799 C 0.12633 0.61172 0.44887 0.0
C2800 C 0.12175 0.61165 0.4227 0.0
C2801 C 0.09763 0.59539 0.41374 0.0
C2802 C 0.07824 0.58012 0.43064 0.0
C2803 C 0.14108 0.62962 0.40497 0.0
C2804 C 0.13047 0.64791 0.39275 0.0
C2805 C 0.16963 0.62929 0.40034 0.0
C2806 C 0.18196 0.60936 0.41124 0.0
C2807 C 0.17154 0.58105 0.40678 0.0
C2808 C 0.18323 0.56237 0.41711 0.0
C2809 C 0.20552 0.57173 0.43175 0.0
C2810 C 0.21621 0.59979 0.43604 0.0
C2811 C 0.20456 0.61856 0.42578 0.0
H2812 H 0.21456 0.55723 0.43972 0.0
H2813 H 0.10157 0.73543 0.33441 0.0
H2814 H 0.34502 0.15996 0.33554 0.0
H2815 H 0.3648 0.13229 0.36066 0.0
H2816 H 0.4464 0.17405 0.33494 0.0
H2817 H 0.42666 0.20078 0.30907 0.0
H2818 H 0.44699 0.12304 0.3301 0.0
H2819 H 0.41288 0.18457 0.40003 0.0
H2820 H 0.37851 0.2085 0.427 0.0
H2821 H 0.32942 0.13128 0.44512 0.0
H2822 H 0.36334 0.10685 0.41799 0.0
H2823 H 0.52025 0.08148 0.42182 0.0
H2824 H 0.49891 0.10367 0.39299 0.0
H2825 H 0.41931 0.05735 0.41826 0.0
H2826 H 0.44075 0.03606 0.44788 0.0
H2827 H 0.41669 0.10896 0.42271 0.0
H2828 H 0.45087 0.0481 0.35094 0.0
H2829 H 0.48644 0.02485 0.32489 0.0
H2830 H 0.53676 0.10299 0.31152 0.0
H2831 H 0.50159 0.12654 0.33775 0.0
C2832 C 0.36714 0.16342 0.3356 0.0
C2833 C 0.38432 0.18245 0.32036 0.0
C2834 C 0.37848 0.14765 0.35 0.0
C2835 C 0.4072 0.1511 0.34994 0.0
C2836 C 0.42424 0.17076 0.33526 0.0
C2837 C 0.41295 0.18613 0.32055 0.0
C2838 C 0.41968 0.13352 0.36409 0.0
C2839 C 0.44053 0.1203 0.35047 0.0
C2840 C 0.41099 0.12923 0.39051 0.0
C2841 C 0.39051 0.14387 0.40675 0.0
C2842 C 0.39464 0.17268 0.40959 0.0
C2843 C 0.37526 0.18634 0.42494 0.0
C2844 C 0.35176 0.17142 0.4377 0.0
C2845 C 0.34761 0.14281 0.43519 0.0
C2846 C 0.36692 0.12905 0.41985 0.0
C2847 C 0.49839 0.07523 0.42027 0.0
C2848 C 0.48219 0.05663 0.43646 0.0
C2849 C 0.48612 0.08799 0.40389 0.0
C2850 C 0.45742 0.08209 0.40315 0.0
C2851 C 0.44145 0.0623 0.4184 0.0
C2852 C 0.4537 0.04988 0.43507 0.0
C2853 C 0.4439 0.0985 0.38869 0.0
C2854 C 0.42296 0.1116 0.40229 0.0
C2855 C 0.45267 0.10293 0.36236 0.0
C2856 C 0.47379 0.08896 0.34648 0.0
C2857 C 0.46967 0.06021 0.34262 0.0
C2858 C 0.48968 0.04702 0.32776 0.0
C2859 C 0.51383 0.06245 0.31653 0.0
C2860 C 0.51802 0.09108 0.32017 0.0
C2861 C 0.49804 0.10434 0.33499 0.0
H2862 H 0.5293 0.05222 0.30502 0.0
H2863 H 0.33679 0.18203 0.44958 0.0
H2864 H 0.64252 0.83502 0.69999 0.0
H2865 H 0.61804 0.87132 0.69451 0.0
H2866 H 0.67454 0.89138 0.62671 0.0
H2867 H 0.69907 0.85538 0.63218 0.0
H2868 H 0.66303 0.93756 0.65771 0.0
H2869 H 0.6138 0.85043 0.62059 0.0
H2870 H 0.5879 0.80304 0.62092 0.0
H2871 H 0.52636 0.83089 0.67825 0.0
H2872 H 0.5522 0.87844 0.67863 0.0
H2873 H 0.60174 0.98416 0.56507 0.0
H2874 H 0.62412 0.96469 0.59459 0.0
H2875 H 0.54995 0.95659 0.64828 0.0
H2876 H 0.52703 0.97568 0.61788 0.0
H2877 H 0.56646 0.90947 0.63702 0.0
H2878 H 0.61261 0.9994 0.66495 0.0
H2879 H 0.6379 0.04612 0.65883 0.0
H2880 H 0.7052 1.01308 0.61493 0.0
H2881 H 0.6802 0.96617 0.62037 0.0
C2882 C 0.64993 0.84747 0.68416 0.0
C2883 C 0.6726 0.84223 0.66639 0.0
C2884 C 0.63586 0.8681 0.68099 0.0
C2885 C 0.64435 0.88397 0.66011 0.0
C2886 C 0.66762 0.87943 0.64298 0.0
C2887 C 0.68149 0.85871 0.64599 0.0
C2888 C 0.62835 0.90427 0.65493 0.0
C2889 C 0.64187 0.93152 0.65328 0.0
C2890 C 0.60047 0.89656 0.6499 0.0
C2891 C 0.58522 0.86791 0.65003 0.0
C2892 C 0.59496 0.8464 0.63356 0.0
C2893 C 0.58024 0.81952 0.63355 0.0
C2894 C 0.55558 0.81393 0.64971 0.0
C2895 C 0.54554 0.83523 0.66585 0.0
C2896 C 0.56023 0.86214 0.666 0.0
C2897 C 0.59046 0.9791 0.58358 0.0
C2898 C 0.56268 0.98138 0.58922 0.0
C2899 C 0.60335 0.96808 0.60059 0.0
C2900 C 0.58891 0.95935 0.6239 0.0
C2901 C 0.56159 0.96333 0.63048 0.0
C2902 C 0.54857 0.97445 0.61329 0.0
C2903 C 0.60136 0.94269 0.63894 0.0
C2904 C 0.58725 0.91598 0.6424 0.0
C2905 C 0.62878 0.95087 0.64539 0.0
C2906 C 0.64444 0.97918 0.64305 0.0
C2907 C 0.63279 1.00207 0.65397 0.0
C2908 C 0.64707 0.02861 0.65058 0.0
C2909 C 0.67309 0.03254 0.63643 0.0
C2910 C 0.68503 1.00998 0.62588 0.0
C2911 C 0.67084 0.98341 0.62916 0.0
H2912 H 0.68401 0.05304 0.63355 0.0
H2913 H 0.54418 0.79311 0.64963 0.0
H2914 H 0.71511 0.25215 0.34471 0.0
H2915 H 0.68661 0.22364 0.37648 0.0
H2916 H 0.70171 0.15078 0.32655 0.0
H2917 H 0.72884 0.17885 0.29446 0.0
H2918 H 0.65069 0.14272 0.34493 0.0
H2919 H 0.73549 0.17673 0.38279 0.0
H2920 H 0.7732 0.21241 0.39894 0.0
H2921 H 0.71568 0.24696 0.45622 0.0
H2922 H 0.67756 0.21168 0.44016 0.0
H2923 H 0.59856 0.04836 0.43812 0.0
H2924 H 0.63202 0.07571 0.4083 0.0
H2925 H 0.61515 0.15004 0.45446 0.0
H2926 H 0.58239 0.12302 0.48431 0.0
H2927 H 0.66815 0.15636 0.43795 0.0
H2928 H 0.58317 0.12439 0.39639 0.0
H2929 H 0.54585 0.08911 0.37877 0.0
H2930 H 0.60524 0.04965 0.32865 0.0
H2931 H 0.64291 0.08496 0.34557 0.0
C2932 C 0.71205 0.2301 0.34035 0.0
C2933 C 0.72417 0.21796 0.31684 0.0
C2934 C 0.69598 0.21375 0.3587 0.0
C2935 C 0.69216 0.18492 0.35414 0.0
C2936 C 0.70418 0.17288 0.33063 0.0
C2937 C 0.71989 0.18911 0.31227 0.0
C2938 C 0.67578 0.16702 0.37361 0.0
C2939 C 0.65482 0.14557 0.36519 0.0
C2940 C 0.68075 0.17072 0.40019 0.0
C2941 C 0.70365 0.19172 0.41012 0.0
C2942 C 0.73087 0.19204 0.39873 0.0
C2943 C 0.75231 0.21218 0.40787 0.0
C2944 C 0.74683 0.23198 0.42855 0.0
C2945 C 0.71989 0.23163 0.44018 0.0
C2946 C 0.69836 0.21155 0.43108 0.0
C2947 C 0.6026 0.0705 0.44225 0.0
C2948 C 0.58774 0.08351 0.4635 0.0
C2949 C 0.62143 0.08615 0.42501 0.0
C2950 C 0.62571 0.11504 0.42877 0.0
C2951 C 0.61217 0.12788 0.45096 0.0
C2952 C 0.59339 0.11235 0.46804 0.0
C2953 C 0.64313 0.13214 0.40921 0.0
C2954 C 0.6642 0.15348 0.41764 0.0
C2955 C 0.63842 0.12826 0.38258 0.0
C2956 C 0.61581 0.10708 0.37245 0.0
C2957 C 0.58824 0.1081 0.3817 0.0
C2958 C 0.56704 0.08815 0.37183 0.0
C2959 C 0.57318 0.067 0.35287 0.0
C2960 C 0.60052 0.06598 0.34343 0.0
C2961 C 0.6218 0.08602 0.35304 0.0
H2962 H 0.55676 0.05143 0.34545 0.0
H2963 H 0.76346 0.24757 0.43559 0.0
H2964 H 0.83299 0.64624 0.33158 0.0
H2965 H 0.85283 0.61908 0.35714 0.0
H2966 H 0.93442 0.65663 0.32721 0.0
H2967 H 0.91495 0.68432 0.30229 0.0
H2968 H 0.92774 0.60011 0.32424 0.0
H2969 H 0.90971 0.67617 0.38734 0.0
H2970 H 0.8808 0.707 0.41305 0.0
H2971 H 0.82932 0.63863 0.44731 0.0
H2972 H 0.85763 0.6073 0.42141 0.0
H2973 H 1.01152 0.56749 0.41192 0.0
H2974 H 0.98756 0.58595 0.38232 0.0
H2975 H 0.90975 0.5561 0.42556 0.0
H2976 H 0.93396 0.53895 0.45583 0.0
H2977 H 0.91187 0.60618 0.42083 0.0
H2978 H 0.93034 0.52993 0.35955 0.0
H2979 H 0.95855 0.49857 0.33361 0.0
H2980 H 1.00794 0.56562 0.29582 0.0
H2981 H 0.98026 0.59746 0.32179 0.0
C2982 C 0.85515 0.649 0.3307 0.0
C2983 C 0.87232 0.66737 0.31466 0.0
C2984 C 0.86646 0.63334 0.34521 0.0
C2985 C 0.89512 0.63575 0.34398 0.0
C2986 C 0.91226 0.65421 0.32823 0.0
C2987 C 0.90103 0.66997 0.3139 0.0
C2988 C 0.90745 0.61911 0.35903 0.0
C2989 C 0.92446 0.60153 0.34539 0.0
C2990 C 0.90258 0.62048 0.38654 0.0
C2991 C 0.8856 0.63934 0.40218 0.0
C2992 C 0.89206 0.66766 0.40016 0.0
C2993 C 0.87581 0.68524 0.4148 0.0
C2994 C 0.85319 0.67477 0.43175 0.0
C2995 C 0.84681 0.64671 0.43413 0.0
C2996 C 0.86295 0.62903 0.41947 0.0
C2997 C 0.98926 0.56406 0.41445 0.0
C2998 C 0.97449 0.55156 0.43587 0.0
C2999 C 0.97551 0.57467 0.39758 0.0
C3000 C 0.94671 0.5724 0.40156 0.0
C3001 C 0.93192 0.55829 0.42208 0.0
C3002 C 0.9457 0.54822 0.4392 0.0
C3003 C 0.93229 0.58695 0.3861 0.0
C3004 C 0.91495 0.60433 0.39967 0.0
C3005 C 0.93672 0.58523 0.3585 0.0
C3006 C 0.95334 0.56612 0.34278 0.0
C3007 C 0.94734 0.53802 0.34584 0.0
C3008 C 0.96321 0.52015 0.33111 0.0
C3009 C 0.98505 0.53011 0.31312 0.0
C3010 C 0.99102 0.55794 0.30978 0.0
C3011 C 0.97522 0.5759 0.32447 0.0
H3012 H 0.99732 0.51624 0.30174 0.0
H3013 H 0.84064 0.68841 0.44308 0.0
H3014 H 0.36939 0.77907 0.30202 0.0
H3015 H 0.39717 0.8096 0.33352 0.0
H3016 H 0.33564 0.86048 0.35031 0.0
H3017 H 0.30759 0.82998 0.31906 0.0
H3018 H 0.38907 0.89143 0.34564 0.0
H3019 H 0.33867 0.81696 0.39191 0.0
H3020 H 0.32247 0.76851 0.39927 0.0
H3021 H 0.40587 0.75862 0.39935 0.0
H3022 H 0.4226 0.80692 0.3916 0.0
H3023 H 0.44343 0.96926 0.45913 0.0
H3024 H 0.41267 0.94034 0.42903 0.0
H3025 H 0.46314 0.87852 0.41914 0.0
H3026 H 0.49299 0.90661 0.44998 0.0
H3027 H 0.41334 0.85359 0.42078 0.0
H3028 H 0.46473 0.92568 0.37213 0.0
H3029 H 0.48262 0.97431 0.36629 0.0
H3030 H 0.40015 0.98838 0.36989 0.0
H3031 H 0.38173 0.93983 0.37602 0.0
C3032 C 0.3617 0.79675 0.31233 0.0
C3033 C 0.33598 0.80175 0.30804 0.0
C3034 C 0.37765 0.81423 0.33043 0.0
C3035 C 0.36846 0.83731 0.34457 0.0
C3036 C 0.34324 0.84285 0.33974 0.0
C3037 C 0.32713 0.82523 0.32186 0.0
C3038 C 0.3848 0.8552 0.36484 0.0
C3039 C 0.3941 0.88321 0.36222 0.0
C3040 C 0.39192 0.84455 0.38631 0.0
C3041 C 0.3819 0.8155 0.39095 0.0
C3042 C 0.35357 0.80439 0.39328 0.0
C3043 C 0.34429 0.77698 0.39758 0.0
C3044 C 0.36314 0.7605 0.39977 0.0
C3045 C 0.3913 0.77141 0.39765 0.0
C3046 C 0.40069 0.79881 0.39333 0.0
C3047 C 0.44785 0.94943 0.45067 0.0
C3048 C 0.47075 0.94037 0.45712 0.0
C3049 C 0.43033 0.93291 0.43324 0.0
C3050 C 0.43567 0.90723 0.42124 0.0
C3051 C 0.45833 0.89809 0.428 0.0
C3052 C 0.47551 0.91432 0.44572 0.0
C3053 C 0.41803 0.88987 0.4015 0.0
C3054 C 0.40839 0.86191 0.40421 0.0
C3055 C 0.41093 0.90049 0.37994 0.0
C3056 C 0.42187 0.92923 0.37477 0.0
C3057 C 0.45042 0.93915 0.37166 0.0
C3058 C 0.46064 0.96668 0.36833 0.0
C3059 C 0.44252 0.98441 0.36787 0.0
C3060 C 0.41414 0.97459 0.37034 0.0
C3061 C 0.40379 0.94706 0.37368 0.0
H3062 H 0.4505 1.00575 0.36566 0.0
H3063 H 0.35591 0.73929 0.40313 0.0
H3064 H 0.18121 0.30703 0.28158 0.0
H3065 H 0.15305 0.3374 0.30803 0.0
H3066 H 0.21501 0.36283 0.36129 0.0
H3067 H 0.24337 0.33264 0.33469 0.0
H3068 H 0.16445 0.35362 0.38811 0.0
H3069 H 0.20523 0.40456 0.31608 0.0
H3070 H 0.21652 0.41104 0.26947 0.0
H3071 H 0.1305 0.39659 0.25977 0.0
H3072 H 0.11869 0.3897 0.30627 0.0
H3073 H 0.11545 0.46515 0.46173 0.0
H3074 H 0.14355 0.43774 0.43136 0.0
H3075 H 0.08148 0.42046 0.378 0.0
H3076 H 0.05342 0.44887 0.40838 0.0
H3077 H 0.13022 0.42419 0.35032 0.0
H3078 H 0.08834 0.37357 0.42069 0.0
H3079 H 0.07505 0.36437 0.46644 0.0
H3080 H 0.16013 0.37473 0.4785 0.0
H3081 H 0.17397 0.38439 0.4329 0.0
C3082 C 0.18908 0.31909 0.29885 0.0
C3083 C 0.21489 0.31696 0.30588 0.0
C3084 C 0.17281 0.33666 0.31403 0.0
C3085 C 0.18175 0.35288 0.33677 0.0
C3086 C 0.20737 0.35066 0.34396 0.0
C3087 C 0.2237 0.33317 0.32869 0.0
C3088 C 0.16439 0.37186 0.3531 0.0
C3089 C 0.15737 0.3693 0.37985 0.0
C3090 C 0.15403 0.39183 0.34244 0.0
C3091 C 0.16108 0.39639 0.31459 0.0
C3092 C 0.18872 0.40262 0.30397 0.0
C3093 C 0.19521 0.40638 0.27758 0.0
C3094 C 0.17424 0.40416 0.26165 0.0
C3095 C 0.14672 0.39828 0.27212 0.0
C3096 C 0.14012 0.39448 0.2985 0.0
C3097 C 0.10793 0.45601 0.44329 0.0
C3098 C 0.08208 0.4594 0.43761 0.0
C3099 C 0.12398 0.43995 0.42595 0.0
C3100 C 0.11454 0.42605 0.40248 0.0
C3101 C 0.08937 0.43063 0.39598 0.0
C3102 C 0.07334 0.44711 0.41332 0.0
C3103 C 0.13061 0.40626 0.3855 0.0
C3104 C 0.13732 0.40856 0.35863 0.0
C3105 C 0.14041 0.38574 0.39597 0.0
C3106 C 0.13219 0.37998 0.42344 0.0
C3107 C 0.10423 0.37411 0.43315 0.0
C3108 C 0.09659 0.36878 0.45905 0.0
C3109 C 0.11673 0.36904 0.47539 0.0
C3110 C 0.14456 0.37458 0.46584 0.0
C3111 C 0.15231 0.37997 0.43996 0.0
H3112 H 0.11078 0.3649 0.49543 0.0
H3113 H 0.17931 0.40705 0.24122 0.0
H3114 H 0.30879 0.22188 0.68622 0.0
H3115 H 0.33666 0.19141 0.6595 0.0
H3116 H 0.37183 0.18095 0.72789 0.0
H3117 H 0.34485 0.21261 0.75442 0.0
H3118 H 0.41104 0.18393 0.68989 0.0
H3119 H 0.31903 0.13165 0.69574 0.0
H3120 H 0.26936 0.12217 0.69111 0.0
H3121 H 0.287 0.12475 0.60833 0.0
H3122 H 0.33668 0.1352 0.61256 0.0
H3123 H 0.47752 0.07496 0.62013 0.0
H3124 H 0.44912 0.10188 0.65184 0.0
H3125 H 0.40507 0.11394 0.58985 0.0
H3126 H 0.43242 0.08684 0.55877 0.0
H3127 H 0.36937 0.10742 0.62787 0.0
H3128 H 0.45575 0.17535 0.62441 0.0
H3129 H 0.50489 0.19393 0.62802 0.0
H3130 H 0.49786 0.16346 0.70231 0.0
H3131 H 0.44823 0.14578 0.69955 0.0
C3132 C 0.32274 0.21359 0.69559 0.0
C3133 C 0.32454 0.2204 0.72263 0.0
C3134 C 0.33853 0.19556 0.68024 0.0
C3135 C 0.35641 0.18304 0.69139 0.0
C3136 C 0.35838 0.18997 0.71842 0.0
C3137 C 0.34272 0.20819 0.73373 0.0
C3138 C 0.37313 0.16311 0.67503 0.0
C3139 C 0.40162 0.16692 0.67673 0.0
C3140 C 0.36161 0.14099 0.65706 0.0
C3141 C 0.33164 0.13447 0.65452 0.0
C3142 C 0.31232 0.13047 0.67658 0.0
C3143 C 0.28413 0.12498 0.67404 0.0
C3144 C 0.275 0.12303 0.64947 0.0
C3145 C 0.29404 0.12648 0.62739 0.0
C3146 C 0.32223 0.13222 0.62985 0.0
C3147 C 0.4615 0.08297 0.61333 0.0
C3148 C 0.45758 0.07836 0.58655 0.0
C3149 C 0.4454 0.09892 0.63152 0.0
C3150 C 0.42481 0.11081 0.6236 0.0
C3151 C 0.42052 0.1054 0.59702 0.0
C3152 C 0.43646 0.08968 0.57902 0.0
C3153 C 0.40741 0.12855 0.6424 0.0
C3154 C 0.37871 0.12426 0.64123 0.0
C3155 C 0.41869 0.15043 0.66063 0.0
C3156 C 0.44861 0.15885 0.66154 0.0
C3157 C 0.46483 0.17234 0.64134 0.0
C3158 C 0.49269 0.18289 0.64334 0.0
C3159 C 0.50464 0.17955 0.66523 0.0
C3160 C 0.48863 0.16589 0.6853 0.0
C3161 C 0.4606 0.1558 0.68363 0.0
H3162 H 0.52625 0.18771 0.66673 0.0
H3163 H 0.25317 0.11873 0.64753 0.0
H3164 H 0.85443 0.31581 0.72173 0.0
H3165 H 0.88357 0.34581 0.69145 0.0
H3166 H 0.81314 0.34618 0.65167 0.0
H3167 H 0.78436 0.31548 0.68106 0.0
H3168 H 0.85693 0.34359 0.61729 0.0
H3169 H 0.83557 0.39911 0.69659 0.0
H3170 H 0.8319 0.41156 0.7443 0.0
H3171 H 0.9196 0.42196 0.74271 0.0
H3172 H 0.92376 0.40908 0.695 0.0
H3173 H 0.92415 0.46172 0.55246 0.0
H3174 H 0.89013 0.4346 0.58237 0.0
H3175 H 0.95605 0.41752 0.61956 0.0
H3176 H 0.98969 0.4438 0.58973 0.0
H3177 H 0.91108 0.43111 0.6552 0.0
H3178 H 0.93059 0.37263 0.57516 0.0
H3179 H 0.93256 0.35879 0.52767 0.0
H3180 H 0.84543 0.35445 0.53101 0.0
H3181 H 0.84304 0.36892 0.57847 0.0
C3182 C 0.84531 0.32196 0.70625 0.0
C3183 C 0.81701 0.31375 0.70409 0.0
C3184 C 0.86189 0.33928 0.68911 0.0
C3185 C 0.8504 0.34874 0.66962 0.0
C3186 C 0.82243 0.3394 0.66667 0.0
C3187 C 0.80593 0.32208 0.6837 0.0
C3188 C 0.86723 0.36907 0.65285 0.0
C3189 C 0.86843 0.36291 0.62559 0.0
C3190 C 0.88225 0.39429 0.66365 0.0
C3191 C 0.87996 0.40292 0.69223 0.0
C3192 C 0.85408 0.40394 0.70642 0.0
C3193 C 0.8519 0.41106 0.73347 0.0
C3194 C 0.8755 0.41749 0.74654 0.0
C3195 C 0.90134 0.41695 0.73256 0.0
C3196 C 0.90362 0.40976 0.7055 0.0
C3197 C 0.93118 0.45245 0.56729 0.0
C3198 C 0.95943 0.45461 0.56872 0.0
C3199 C 0.91185 0.43695 0.58426 0.0
C3200 C 0.92064 0.424 0.6031 0.0
C3201 C 0.94882 0.42736 0.60524 0.0
C3202 C 0.968 0.44226 0.58809 0.0
C3203 C 0.90097 0.40546 0.61969 0.0
C3204 C 0.89926 0.41195 0.64694 0.0
C3205 C 0.8852 0.3807 0.60888 0.0
C3206 C 0.88671 0.37226 0.58031 0.0
C3207 C 0.9119 0.36908 0.56573 0.0
C3208 C 0.91309 0.36106 0.53882 0.0
C3209 C 0.88914 0.3558 0.52632 0.0
C3210 C 0.86396 0.35855 0.54072 0.0
C3211 C 0.86269 0.36673 0.56761 0.0
H3212 H 0.89009 0.34957 0.50549 0.0
H3213 H 0.87378 0.42294 0.7675 0.0
H3214 H 0.23441 0.75068 0.67514 0.0
H3215 H 0.20556 0.72184 0.64345 0.0
H3216 H 0.16853 0.66862 0.70221 0.0
H3217 H 0.19896 0.69625 0.73308 0.0
H3218 H 0.1707 0.63798 0.66138 0.0
H3219 H 0.13715 0.72138 0.68139 0.0
H3220 H 0.13956 0.77148 0.68699 0.0
H3221 H 0.16575 0.77403 0.6052 0.0
H3222 H 0.16408 0.72406 0.59927 0.0
H3223 H 0.04538 0.62482 0.5794 0.0
H3224 H 0.07734 0.65171 0.60913 0.0
H3225 H 0.13584 0.59891 0.58067 0.0
H3226 H 0.10298 0.57086 0.55214 0.0
H3227 H 0.12223 0.68234 0.60702 0.0
H3228 H 0.17836 0.59651 0.62529 0.0
H3229 H 0.16822 0.5465 0.62722 0.0
H3230 H 0.08211 0.54827 0.6448 0.0
H3231 H 0.09174 0.59832 0.64347 0.0
C3232 C 0.22026 0.73266 0.68112 0.0
C3233 C 0.21892 0.72573 0.70656 0.0
C3234 C 0.2035 0.71625 0.66307 0.0
C3235 C 0.18411 0.69317 0.67036 0.0
C3236 C 0.18318 0.68612 0.69579 0.0
C3237 C 0.20058 0.702 0.71353 0.0
C3238 C 0.1646 0.67663 0.65178 0.0
C3239 C 0.16015 0.64778 0.64953 0.0
C3240 C 0.14997 0.68903 0.63662 0.0
C3241 C 0.15082 0.71906 0.63998 0.0
C3242 C 0.14366 0.73271 0.66467 0.0
C3243 C 0.14489 0.76107 0.66789 0.0
C3244 C 0.15292 0.77596 0.64647 0.0
C3245 C 0.15964 0.7625 0.62178 0.0
C3246 C 0.15856 0.73416 0.61849 0.0
C3247 C 0.0651 0.61897 0.57942 0.0
C3248 C 0.07157 0.59562 0.56342 0.0
C3249 C 0.08348 0.63444 0.59647 0.0
C3250 C 0.1091 0.62733 0.5977 0.0
C3251 C 0.11601 0.60456 0.58089 0.0
C3252 C 0.09728 0.58861 0.56434 0.0
C3253 C 0.12829 0.64369 0.61662 0.0
C3254 C 0.13278 0.67252 0.61886 0.0
C3255 C 0.14172 0.63124 0.63282 0.0
C3256 C 0.13577 0.60115 0.63396 0.0
C3257 C 0.15727 0.58625 0.62967 0.0
C3258 C 0.15161 0.5579 0.63066 0.0
C3259 C 0.12454 0.54424 0.63605 0.0
C3260 C 0.10306 0.55889 0.64055 0.0
C3261 C 0.10861 0.58724 0.63968 0.0
H3262 H 0.1202 0.52234 0.63685 0.0
H3263 H 0.15385 0.79792 0.64897 0.0
loop_
_geom_bond_atom_site_label_1
_geom_bond_atom_site_label_2
_geom_bond_distance
_geom_bond_site_symmetry_2
_ccdc_geom_bond_type
C0 C2 1.422 . S
C0 C4 1.415 . S
C0 N6 1.369 . S
C1 C2 1.421 . S
C1 C3 1.417 . S
C1 C13 1.422 . S
C2 C0 1.422 . S
C2 C1 1.421 . S
C2 N12 1.359 . S
C3 C1 1.417 . S
C3 C5 1.329 . S
C3 H22 0.930 . S
C4 C0 1.415 . S
C4 C5 1.437 . S
C4 C8 1.413 . S
C5 C3 1.329 . S
C5 C4 1.437 . S
C5 H27 0.929 . S
N6 C0 1.369 . S
N6 C7 1.338 . S
N6 Gd11 2.622 . S
C7 N6 1.338 . S
C7 C9 1.378 . S
C7 H19 0.929 . S
C8 C4 1.413 . S
C8 C9 1.348 . S
C8 H24 0.931 . S
C9 C7 1.378 . S
C9 C8 1.348 . S
C9 H25 0.930 . S
Gd10 N30 2.622 . S
Gd10 N37 2.570 . S
Gd10 O44 2.353 . S
Gd10 O45 2.468 . S
Gd10 O46 2.427 . S
Gd10 O48 2.388 . S
Gd10 O49 2.386 . S
Gd10 O53 2.307 . S
Gd10 C63 2.805 . S
Gd11 N6 2.622 . S
Gd11 N12 2.570 . S
Gd11 O43 2.386 . S
Gd11 O47 2.307 . S
Gd11 O50 2.353 . S
Gd11 O51 2.468 . S
Gd11 O52 2.427 . S
Gd11 O54 2.388 . S
Gd11 C75 2.805 . S
N12 C2 1.359 . S
N12 Gd11 2.570 . S
N12 C14 1.343 . S
C13 C1 1.422 . S
C13 C15 1.321 . S
C13 H21 0.931 . S
C14 N12 1.343 . S
C14 C15 1.390 . S
C14 H16 0.931 . S
C15 C13 1.321 . S
C15 C14 1.390 . S
C15 H17 0.930 . S
H16 C14 0.931 . S
H17 C15 0.930 . S
H18 C41 0.931 . S
H19 C7 0.929 . S
H20 C42 0.930 . S
H21 C13 0.931 . S
H22 C3 0.930 . S
H23 C32 0.929 . S
H24 C8 0.931 . S
H25 C9 0.930 . S
H26 C64 0.930 . S
H27 C5 0.929 . S
H28 C33 0.931 . S
H29 C34 0.930 . S
N30 Gd10 2.622 . S
N30 C31 1.369 . S
N30 C32 1.338 . S
C31 N30 1.369 . S
C31 C35 1.415 . S
C31 C38 1.422 . S
C32 H23 0.929 . S
C32 N30 1.338 . S
C32 C34 1.378 . S
C33 H28 0.931 . S
C33 C34 1.348 . S
C33 C35 1.413 . S
C34 H29 0.930 . S
C34 C32 1.378 . S
C34 C33 1.348 . S
C35 C31 1.415 . S
C35 C33 1.413 . S
C35 C65 1.437 . S
H36 C65 0.929 . S
N37 Gd10 2.570 . S
N37 C38 1.359 . S
N37 C41 1.343 . S
C38 C31 1.422 . S
C38 N37 1.359 . S
C38 C40 1.421 . S
C39 C40 1.422 . S
C39 C42 1.321 . S
C39 H66 0.931 . S
C40 C38 1.421 . S
C40 C39 1.422 . S
C40 C64 1.417 . S
C41 H18 0.931 . S
C41 N37 1.343 . S
C41 C42 1.390 . S
C42 H20 0.930 . S
C42 C39 1.321 . S
C42 C41 1.390 . S
O43 Gd11 2.386 . S
O43 C55 1.265 . S
O44 Gd10 2.353 . S
O44 C55 1.242 . S
O45 Gd10 2.468 . S
O45 C63 1.263 . S
O46 Gd10 2.427 . S
O46 C63 1.252 . S
O47 Gd11 2.307 . S
O47 C56 1.261 . S
O48 Gd10 2.388 . S
O48 C56 1.252 . S
O49 Gd10 2.386 . S
O49 C67 1.265 . S
O50 Gd11 2.353 . S
O50 C67 1.242 . S
O51 Gd11 2.468 . S
O51 C75 1.263 . S
O52 Gd11 2.427 . S
O52 C75 1.252 . S
O53 Gd10 2.307 . S
O53 C68 1.261 . S
O54 Gd11 2.388 . S
O54 C68 1.252 . S
C55 O43 1.265 . S
C55 O44 1.242 . S
C56 O47 1.261 . S
C56 O48 1.252 . S
C57 C60 1.394 . S
C57 C62 1.370 . S
C57 C63 1.500 . S
C58 C61 1.383 . S
C58 C62 1.395 . S
C59 C60 1.396 . S
C59 C61 1.365 . S
C59 H76 0.929 . S
C60 C57 1.394 . S
C60 C59 1.396 . S
C60 H77 0.930 . S
C61 C58 1.383 . S
C61 C59 1.365 . S
C61 H78 0.931 . S
C62 C57 1.370 . S
C62 C58 1.395 . S
C62 H79 0.930 . S
C63 Gd10 2.805 . S
C63 O45 1.263 . S
C63 O46 1.252 . S
C63 C57 1.500 . S
C64 H26 0.930 . S
C64 C40 1.417 . S
C64 C65 1.329 . S
C65 C35 1.437 . S
C65 H36 0.929 . S
C65 C64 1.329 . S
H66 C39 0.931 . S
C67 O49 1.265 . S
C67 O50 1.242 . S
C68 O53 1.261 . S
C68 O54 1.252 . S
C69 C72 1.394 . S
C69 C74 1.370 . S
C69 C75 1.500 . S
C70 C73 1.383 . S
C70 C74 1.395 . S
C71 C72 1.396 . S
C71 C73 1.365 . S
C71 H80 0.929 . S
C72 C69 1.394 . S
C72 C71 1.396 . S
C72 H81 0.930 . S
C73 C70 1.383 . S
C73 C71 1.365 . S
C73 H82 0.931 . S
C74 C69 1.370 . S
C74 C70 1.395 . S
C74 H83 0.930 . S
C75 Gd11 2.805 . S
C75 O51 1.263 . S
C75 O52 1.252 . S
C75 C69 1.500 . S
H76 C59 0.929 . S
H77 C60 0.930 . S
H78 C61 0.931 . S
H79 C62 0.930 . S
H80 C71 0.929 . S
H81 C72 0.930 . S
H82 C73 0.931 . S
H83 C74 0.930 . S
C84 C86 1.422 . S
C84 C88 1.415 . S
C84 N90 1.369 . S
C85 C86 1.421 . S
C85 C87 1.417 . S
C85 C97 1.422 . S
C86 C84 1.422 . S
C86 C85 1.421 . S
C86 N96 1.359 . S
C87 C85 1.417 . S
C87 C89 1.329 . S
C87 H106 0.930 . S
C88 C84 1.415 . S
C88 C89 1.437 . S
C88 C92 1.413 . S
C89 C87 1.329 . S
C89 C88 1.437 . S
C89 H111 0.929 . S
N90 C84 1.369 . S
N90 C91 1.338 . S
N90 Gd95 2.622 . S
C91 N90 1.338 . S
C91 C93 1.378 . S
C91 H103 0.929 . S
C92 C88 1.413 . S
C92 C93 1.348 . S
C92 H108 0.931 . S
C93 C91 1.378 . S
C93 C92 1.348 . S
C93 H109 0.930 . S
Gd94 N114 2.622 . S
Gd94 N121 2.570 . S
Gd94 O128 2.353 . S
Gd94 O129 2.468 . S
Gd94 O130 2.427 . S
Gd94 O132 2.388 . S
Gd94 O133 2.386 . S
Gd94 O137 2.307 . S
Gd94 C147 2.805 . S
Gd95 N90 2.622 . S
Gd95 N96 2.570 . S
Gd95 O127 2.386 . S
Gd95 O131 2.307 . S
Gd95 O134 2.353 . S
Gd95 O135 2.468 . S
Gd95 O136 2.427 . S
Gd95 O138 2.388 . S
Gd95 C159 2.805 . S
N96 C86 1.359 . S
N96 Gd95 2.570 . S
N96 C98 1.343 . S
C97 C85 1.422 . S
C97 C99 1.321 . S
C97 H105 0.931 . S
C98 N96 1.343 . S
C98 C99 1.390 . S
C98 H100 0.931 . S
C99 C97 1.321 . S
C99 C98 1.390 . S
C99 H101 0.930 . S
H100 C98 0.931 . S
H101 C99 0.930 . S
H102 C125 0.931 . S
H103 C91 0.929 . S
H104 C126 0.930 . S
H105 C97 0.931 . S
H106 C87 0.930 . S
H107 C116 0.929 . S
H108 C92 0.931 . S
H109 C93 0.930 . S
H110 C148 0.930 . S
H111 C89 0.929 . S
H112 C117 0.931 . S
H113 C118 0.930 . S
N114 Gd94 2.622 . S
N114 C115 1.369 . S
N114 C116 1.338 . S
C115 N114 1.369 . S
C115 C119 1.415 . S
C115 C122 1.422 . S
C116 H107 0.929 . S
C116 N114 1.338 . S
C116 C118 1.378 . S
C117 H112 0.931 . S
C117 C118 1.348 . S
C117 C119 1.413 . S
C118 H113 0.930 . S
C118 C116 1.378 . S
C118 C117 1.348 . S
C119 C115 1.415 . S
C119 C117 1.413 . S
C119 C149 1.437 . S
H120 C149 0.929 . S
N121 Gd94 2.570 . S
N121 C122 1.359 . S
N121 C125 1.343 . S
C122 C115 1.422 . S
C122 N121 1.359 . S
C122 C124 1.421 . S
C123 C124 1.422 . S
C123 C126 1.321 . S
C123 H150 0.931 . S
C124 C122 1.421 . S
C124 C123 1.422 . S
C124 C148 1.417 . S
C125 H102 0.931 . S
C125 N121 1.343 . S
C125 C126 1.390 . S
C126 H104 0.930 . S
C126 C123 1.321 . S
C126 C125 1.390 . S
O127 Gd95 2.386 . S
O127 C139 1.265 . S
O128 Gd94 2.353 . S
O128 C139 1.242 . S
O129 Gd94 2.468 . S
O129 C147 1.263 . S
O130 Gd94 2.427 . S
O130 C147 1.252 . S
O131 Gd95 2.307 . S
O131 C140 1.261 . S
O132 Gd94 2.388 . S
O132 C140 1.252 . S
O133 Gd94 2.386 . S
O133 C151 1.265 . S
O134 Gd95 2.353 . S
O134 C151 1.242 . S
O135 Gd95 2.468 . S
O135 C159 1.263 . S
O136 Gd95 2.427 . S
O136 C159 1.252 . S
O137 Gd94 2.307 . S
O137 C152 1.261 . S
O138 Gd95 2.388 . S
O138 C152 1.252 . S
C139 O127 1.265 . S
C139 O128 1.242 . S
C140 O131 1.261 . S
C140 O132 1.252 . S
C141 C144 1.394 . S
C141 C146 1.370 . S
C141 C147 1.500 . S
C142 C145 1.383 . S
C142 C146 1.395 . S
C143 C144 1.396 . S
C143 C145 1.365 . S
C143 H160 0.929 . S
C144 C141 1.394 . S
C144 C143 1.396 . S
C144 H161 0.930 . S
C145 C142 1.383 . S
C145 C143 1.365 . S
C145 H162 0.931 . S
C146 C141 1.370 . S
C146 C142 1.395 . S
C146 H163 0.930 . S
C147 Gd94 2.805 . S
C147 O129 1.263 . S
C147 O130 1.252 . S
C147 C141 1.500 . S
C148 H110 0.930 . S
C148 C124 1.417 . S
C148 C149 1.329 . S
C149 C119 1.437 . S
C149 H120 0.929 . S
C149 C148 1.329 . S
H150 C123 0.931 . S
C151 O133 1.265 . S
C151 O134 1.242 . S
C152 O137 1.261 . S
C152 O138 1.252 . S
C153 C156 1.394 . S
C153 C158 1.370 . S
C153 C159 1.500 . S
C154 C157 1.383 . S
C154 C158 1.395 . S
C155 C156 1.396 . S
C155 C157 1.365 . S
C155 H164 0.929 . S
C156 C153 1.394 . S
C156 C155 1.396 . S
C156 H165 0.930 . S
C157 C154 1.383 . S
C157 C155 1.365 . S
C157 H166 0.931 . S
C158 C153 1.370 . S
C158 C154 1.395 . S
C158 H167 0.930 . S
C159 Gd95 2.805 . S
C159 O135 1.263 . S
C159 O136 1.252 . S
C159 C153 1.500 . S
H160 C143 0.929 . S
H161 C144 0.930 . S
H162 C145 0.931 . S
H163 C146 0.930 . S
H164 C155 0.929 . S
H165 C156 0.930 . S
H166 C157 0.931 . S
H167 C158 0.930 . S
C168 C170 1.422 . S
C168 C172 1.415 . S
C168 N174 1.369 . S
C169 C170 1.421 . S
C169 C171 1.417 . S
C169 C181 1.422 . S
C170 C168 1.422 . S
C170 C169 1.421 . S
C170 N180 1.359 . S
C171 C169 1.417 . S
C171 C173 1.329 . S
C171 H190 0.930 . S
C172 C168 1.415 . S
C172 C173 1.437 . S
C172 C176 1.413 . S
C173 C171 1.329 . S
C173 C172 1.437 . S
C173 H195 0.929 . S
N174 C168 1.369 . S
N174 C175 1.338 . S
N174 Gd179 2.622 . S
C175 N174 1.338 . S
C175 C177 1.378 . S
C175 H187 0.929 . S
C176 C172 1.413 . S
C176 C177 1.348 . S
C176 H192 0.931 . S
C177 C175 1.378 . S
C177 C176 1.348 . S
C177 H193 0.930 . S
Gd178 N198 2.622 . S
Gd178 N205 2.570 . S
Gd178 O212 2.353 . S
Gd178 O213 2.468 . S
Gd178 O214 2.427 . S
Gd178 O216 2.388 . S
Gd178 O217 2.386 . S
Gd178 O221 2.307 . S
Gd178 C231 2.805 . S
Gd179 N174 2.622 . S
Gd179 N180 2.570 . S
Gd179 O211 2.386 . S
Gd179 O215 2.307 . S
Gd179 O218 2.353 . S
Gd179 O219 2.468 . S
Gd179 O220 2.427 . S
Gd179 O222 2.388 . S
Gd179 C243 2.805 . S
N180 C170 1.359 . S
N180 Gd179 2.570 . S
N180 C182 1.343 . S
C181 C169 1.422 . S
C181 C183 1.321 . S
C181 H189 0.931 . S
C182 N180 1.343 . S
C182 C183 1.390 . S
C182 H184 0.931 . S
C183 C181 1.321 . S
C183 C182 1.390 . S
C183 H185 0.930 . S
H184 C182 0.931 . S
H185 C183 0.930 . S
H186 C209 0.931 . S
H187 C175 0.929 . S
H188 C210 0.930 . S
H189 C181 0.931 . S
H190 C171 0.930 . S
H191 C200 0.929 . S
H192 C176 0.931 . S
H193 C177 0.930 . S
H194 C232 0.930 . S
H195 C173 0.929 . S
H196 C201 0.931 . S
H197 C202 0.930 . S
N198 Gd178 2.622 . S
N198 C199 1.369 . S
N198 C200 1.338 . S
C199 N198 1.369 . S
C199 C203 1.415 . S
C199 C206 1.422 . S
C200 H191 0.929 . S
C200 N198 1.338 . S
C200 C202 1.378 . S
C201 H196 0.931 . S
C201 C202 1.348 . S
C201 C203 1.413 . S
C202 H197 0.930 . S
C202 C200 1.378 . S
C202 C201 1.348 . S
C203 C199 1.415 . S
C203 C201 1.413 . S
C203 C233 1.437 . S
H204 C233 0.929 . S
N205 Gd178 2.570 . S
N205 C206 1.359 . S
N205 C209 1.343 . S
C206 C199 1.422 . S
C206 N205 1.359 . S
C206 C208 1.421 . S
C207 C208 1.422 . S
C207 C210 1.321 . S
C207 H234 0.931 . S
C208 C206 1.421 . S
C208 C207 1.422 . S
C208 C232 1.417 . S
C209 H186 0.931 . S
C209 N205 1.343 . S
C209 C210 1.390 . S
C210 H188 0.930 . S
C210 C207 1.321 . S
C210 C209 1.390 . S
O211 Gd179 2.386 . S
O211 C223 1.265 . S
O212 Gd178 2.353 . S
O212 C223 1.242 . S
O213 Gd178 2.468 . S
O213 C231 1.263 . S
O214 Gd178 2.427 . S
O214 C231 1.252 . S
O215 Gd179 2.307 . S
O215 C224 1.261 . S
O216 Gd178 2.388 . S
O216 C224 1.252 . S
O217 Gd178 2.386 . S
O217 C235 1.265 . S
O218 Gd179 2.353 . S
O218 C235 1.242 . S
O219 Gd179 2.468 . S
O219 C243 1.263 . S
O220 Gd179 2.427 . S
O220 C243 1.252 . S
O221 Gd178 2.307 . S
O221 C236 1.261 . S
O222 Gd179 2.388 . S
O222 C236 1.252 . S
C223 O211 1.265 . S
C223 O212 1.242 . S
C224 O215 1.261 . S
C224 O216 1.252 . S
C225 C228 1.394 . S
C225 C230 1.370 . S
C225 C231 1.500 . S
C226 C229 1.383 . S
C226 C230 1.395 . S
C227 C228 1.396 . S
C227 C229 1.365 . S
C227 H244 0.929 . S
C228 C225 1.394 . S
C228 C227 1.396 . S
C228 H245 0.930 . S
C229 C226 1.383 . S
C229 C227 1.365 . S
C229 H246 0.931 . S
C230 C225 1.370 . S
C230 C226 1.395 . S
C230 H247 0.930 . S
C231 Gd178 2.805 . S
C231 O213 1.263 . S
C231 O214 1.252 . S
C231 C225 1.500 . S
C232 H194 0.930 . S
C232 C208 1.417 . S
C232 C233 1.329 . S
C233 C203 1.437 . S
C233 H204 0.929 . S
C233 C232 1.329 . S
H234 C207 0.931 . S
C235 O217 1.265 . S
C235 O218 1.242 . S
C236 O221 1.261 . S
C236 O222 1.252 . S
C237 C240 1.394 . S
C237 C242 1.370 . S
C237 C243 1.500 . S
C238 C241 1.383 . S
C238 C242 1.395 . S
C239 C240 1.396 . S
C239 C241 1.365 . S
C239 H248 0.929 . S
C240 C237 1.394 . S
C240 C239 1.396 . S
C240 H249 0.930 . S
C241 C238 1.383 . S
C241 C239 1.365 . S
C241 H250 0.931 . S
C242 C237 1.370 . S
C242 C238 1.395 . S
C242 H251 0.930 . S
C243 Gd179 2.805 . S
C243 O219 1.263 . S
C243 O220 1.252 . S
C243 C237 1.500 . S
H244 C227 0.929 . S
H245 C228 0.930 . S
H246 C229 0.931 . S
H247 C230 0.930 . S
H248 C239 0.929 . S
H249 C240 0.930 . S
H250 C241 0.931 . S
H251 C242 0.930 . S
C252 C254 1.422 . S
C252 C256 1.415 . S
C252 N258 1.369 . S
C253 C254 1.421 . S
C253 C255 1.417 . S
C253 C265 1.422 . S
C254 C252 1.422 . S
C254 C253 1.421 . S
C254 N264 1.359 . S
C255 C253 1.417 . S
C255 C257 1.329 . S
C255 H274 0.930 . S
C256 C252 1.415 . S
C256 C257 1.437 . S
C256 C260 1.413 . S
C257 C255 1.329 . S
C257 C256 1.437 . S
C257 H279 0.929 . S
N258 C252 1.369 . S
N258 C259 1.338 . S
N258 Gd263 2.622 . S
C259 N258 1.338 . S
C259 C261 1.378 . S
C259 H271 0.929 . S
C260 C256 1.413 . S
C260 C261 1.348 . S
C260 H276 0.931 . S
C261 C259 1.378 . S
C261 C260 1.348 . S
C261 H277 0.930 . S
Gd262 N282 2.622 . S
Gd262 N289 2.570 . S
Gd262 O296 2.353 . S
Gd262 O297 2.468 . S
Gd262 O298 2.427 . S
Gd262 O300 2.388 . S
Gd262 O301 2.386 . S
Gd262 O305 2.307 . S
Gd262 C315 2.805 . S
Gd263 N258 2.622 . S
Gd263 N264 2.570 . S
Gd263 O295 2.386 . S
Gd263 O299 2.307 . S
Gd263 O302 2.353 . S
Gd263 O303 2.468 . S
Gd263 O304 2.427 . S
Gd263 O306 2.388 . S
Gd263 C327 2.805 . S
N264 C254 1.359 . S
N264 Gd263 2.570 . S
N264 C266 1.343 . S
C265 C253 1.422 . S
C265 C267 1.321 . S
C265 H273 0.931 . S
C266 N264 1.343 . S
C266 C267 1.390 . S
C266 H268 0.931 . S
C267 C265 1.321 . S
C267 C266 1.390 . S
C267 H269 0.930 . S
H268 C266 0.931 . S
H269 C267 0.930 . S
H270 C293 0.931 . S
H271 C259 0.929 . S
H272 C294 0.930 . S
H273 C265 0.931 . S
H274 C255 0.930 . S
H275 C284 0.929 . S
H276 C260 0.931 . S
H277 C261 0.930 . S
H278 C316 0.930 . S
H279 C257 0.929 . S
H280 C285 0.931 . S
H281 C286 0.930 . S
N282 Gd262 2.622 . S
N282 C283 1.369 . S
N282 C284 1.338 . S
C283 N282 1.369 . S
C283 C287 1.415 . S
C283 C290 1.422 . S
C284 H275 0.929 . S
C284 N282 1.338 . S
C284 C286 1.378 . S
C285 H280 0.931 . S
C285 C286 1.348 . S
C285 C287 1.413 . S
C286 H281 0.930 . S
C286 C284 1.378 . S
C286 C285 1.348 . S
C287 C283 1.415 . S
C287 C285 1.413 . S
C287 C317 1.437 . S
H288 C317 0.929 . S
N289 Gd262 2.570 . S
N289 C290 1.359 . S
N289 C293 1.343 . S
C290 C283 1.422 . S
C290 N289 1.359 . S
C290 C292 1.421 . S
C291 C292 1.422 . S
C291 C294 1.321 . S
C291 H318 0.931 . S
C292 C290 1.421 . S
C292 C291 1.422 . S
C292 C316 1.417 . S
C293 H270 0.931 . S
C293 N289 1.343 . S
C293 C294 1.390 . S
C294 H272 0.930 . S
C294 C291 1.321 . S
C294 C293 1.390 . S
O295 Gd263 2.386 . S
O295 C307 1.265 . S
O296 Gd262 2.353 . S
O296 C307 1.242 . S
O297 Gd262 2.468 . S
O297 C315 1.263 . S
O298 Gd262 2.427 . S
O298 C315 1.252 . S
O299 Gd263 2.307 . S
O299 C308 1.261 . S
O300 Gd262 2.388 . S
O300 C308 1.252 . S
O301 Gd262 2.386 . S
O301 C319 1.265 . S
O302 Gd263 2.353 . S
O302 C319 1.242 . S
O303 Gd263 2.468 . S
O303 C327 1.263 . S
O304 Gd263 2.427 . S
O304 C327 1.252 . S
O305 Gd262 2.307 . S
O305 C320 1.261 . S
O306 Gd263 2.388 . S
O306 C320 1.252 . S
C307 O295 1.265 . S
C307 O296 1.242 . S
C308 O299 1.261 . S
C308 O300 1.252 . S
C309 C312 1.394 . S
C309 C314 1.370 . S
C309 C315 1.500 . S
C310 C313 1.383 . S
C310 C314 1.395 . S
C311 C312 1.396 . S
C311 C313 1.365 . S
C311 H328 0.929 . S
C312 C309 1.394 . S
C312 C311 1.396 . S
C312 H329 0.930 . S
C313 C310 1.383 . S
C313 C311 1.365 . S
C313 H330 0.931 . S
C314 C309 1.370 . S
C314 C310 1.395 . S
C314 H331 0.930 . S
C315 Gd262 2.805 . S
C315 O297 1.263 . S
C315 O298 1.252 . S
C315 C309 1.500 . S
C316 H278 0.930 . S
C316 C292 1.417 . S
C316 C317 1.329 . S
C317 C287 1.437 . S
C317 H288 0.929 . S
C317 C316 1.329 . S
H318 C291 0.931 . S
C319 O301 1.265 . S
C319 O302 1.242 . S
C320 O305 1.261 . S
C320 O306 1.252 . S
C321 C324 1.394 . S
C321 C326 1.370 . S
C321 C327 1.500 . S
C322 C325 1.383 . S
C322 C326 1.395 . S
C323 C324 1.396 . S
C323 C325 1.365 . S
C323 H332 0.929 . S
C324 C321 1.394 . S
C324 C323 1.396 . S
C324 H333 0.930 . S
C325 C322 1.383 . S
C325 C323 1.365 . S
C325 H334 0.931 . S
C326 C321 1.370 . S
C326 C322 1.395 . S
C326 H335 0.930 . S
C327 Gd263 2.805 . S
C327 O303 1.263 . S
C327 O304 1.252 . S
C327 C321 1.500 . S
H328 C311 0.929 . S
H329 C312 0.930 . S
H330 C313 0.931 . S
H331 C314 0.930 . S
H332 C323 0.929 . S
H333 C324 0.930 . S
H334 C325 0.931 . S
H335 C326 0.930 . S
C336 C338 1.422 . S
C336 C340 1.415 . S
C336 N342 1.369 . S
C337 C338 1.421 . S
C337 C339 1.417 . S
C337 C349 1.422 . S
C338 C336 1.422 . S
C338 C337 1.421 . S
C338 N348 1.359 . S
C339 C337 1.417 . S
C339 C341 1.329 . S
C339 H358 0.930 . S
C340 C336 1.415 . S
C340 C341 1.437 . S
C340 C344 1.413 . S
C341 C339 1.329 . S
C341 C340 1.437 . S
C341 H363 0.929 . S
N342 C336 1.369 . S
N342 C343 1.338 . S
N342 Gd347 2.622 . S
C343 N342 1.338 . S
C343 C345 1.378 . S
C343 H355 0.929 . S
C344 C340 1.413 . S
C344 C345 1.348 . S
C344 H360 0.931 . S
C345 C343 1.378 . S
C345 C344 1.348 . S
C345 H361 0.930 . S
Gd346 N366 2.622 . S
Gd346 N373 2.570 . S
Gd346 O380 2.353 . S
Gd346 O381 2.468 . S
Gd346 O382 2.427 . S
Gd346 O384 2.388 . S
Gd346 O385 2.386 . S
Gd346 O389 2.307 . S
Gd346 C399 2.805 . S
Gd347 N342 2.622 . S
Gd347 N348 2.570 . S
Gd347 O379 2.386 . S
Gd347 O383 2.307 . S
Gd347 O386 2.353 . S
Gd347 O387 2.468 . S
Gd347 O388 2.427 . S
Gd347 O390 2.388 . S
Gd347 C411 2.805 . S
N348 C338 1.359 . S
N348 Gd347 2.570 . S
N348 C350 1.343 . S
C349 C337 1.422 . S
C349 C351 1.321 . S
C349 H357 0.931 . S
C350 N348 1.343 . S
C350 C351 1.390 . S
C350 H352 0.931 . S
C351 C349 1.321 . S
C351 C350 1.390 . S
C351 H353 0.930 . S
H352 C350 0.931 . S
H353 C351 0.930 . S
H354 C377 0.931 . S
H355 C343 0.929 . S
H356 C378 0.930 . S
H357 C349 0.931 . S
H358 C339 0.930 . S
H359 C368 0.929 . S
H360 C344 0.931 . S
H361 C345 0.930 . S
H362 C400 0.930 . S
H363 C341 0.929 . S
H364 C369 0.931 . S
H365 C370 0.930 . S
N366 Gd346 2.622 . S
N366 C367 1.369 . S
N366 C368 1.338 . S
C367 N366 1.369 . S
C367 C371 1.415 . S
C367 C374 1.422 . S
C368 H359 0.929 . S
C368 N366 1.338 . S
C368 C370 1.378 . S
C369 H364 0.931 . S
C369 C370 1.348 . S
C369 C371 1.413 . S
C370 H365 0.930 . S
C370 C368 1.378 . S
C370 C369 1.348 . S
C371 C367 1.415 . S
C371 C369 1.413 . S
C371 C401 1.437 . S
H372 C401 0.929 . S
N373 Gd346 2.570 . S
N373 C374 1.359 . S
N373 C377 1.343 . S
C374 C367 1.422 . S
C374 N373 1.359 . S
C374 C376 1.421 . S
C375 C376 1.422 . S
C375 C378 1.321 . S
C375 H402 0.931 . S
C376 C374 1.421 . S
C376 C375 1.422 . S
C376 C400 1.417 . S
C377 H354 0.931 . S
C377 N373 1.343 . S
C377 C378 1.390 . S
C378 H356 0.930 . S
C378 C375 1.321 . S
C378 C377 1.390 . S
O379 Gd347 2.386 . S
O379 C391 1.265 . S
O380 Gd346 2.353 . S
O380 C391 1.242 . S
O381 Gd346 2.468 . S
O381 C399 1.263 . S
O382 Gd346 2.427 . S
O382 C399 1.252 . S
O383 Gd347 2.307 . S
O383 C392 1.261 . S
O384 Gd346 2.388 . S
O384 C392 1.252 . S
O385 Gd346 2.386 . S
O385 C403 1.265 . S
O386 Gd347 2.353 . S
O386 C403 1.242 . S
O387 Gd347 2.468 . S
O387 C411 1.263 . S
O388 Gd347 2.427 . S
O388 C411 1.252 . S
O389 Gd346 2.307 . S
O389 C404 1.261 . S
O390 Gd347 2.388 . S
O390 C404 1.252 . S
C391 O379 1.265 . S
C391 O380 1.242 . S
C392 O383 1.261 . S
C392 O384 1.252 . S
C393 C396 1.394 . S
C393 C398 1.370 . S
C393 C399 1.500 . S
C394 C397 1.383 . S
C394 C398 1.395 . S
C395 C396 1.396 . S
C395 C397 1.365 . S
C395 H412 0.929 . S
C396 C393 1.394 . S
C396 C395 1.396 . S
C396 H413 0.930 . S
C397 C394 1.383 . S
C397 C395 1.365 . S
C397 H414 0.931 . S
C398 C393 1.370 . S
C398 C394 1.395 . S
C398 H415 0.930 . S
C399 Gd346 2.805 . S
C399 O381 1.263 . S
C399 O382 1.252 . S
C399 C393 1.500 . S
C400 H362 0.930 . S
C400 C376 1.417 . S
C400 C401 1.329 . S
C401 C371 1.437 . S
C401 H372 0.929 . S
C401 C400 1.329 . S
H402 C375 0.931 . S
C403 O385 1.265 . S
C403 O386 1.242 . S
C404 O389 1.261 . S
C404 O390 1.252 . S
C405 C408 1.394 . S
C405 C410 1.370 . S
C405 C411 1.500 . S
C406 C409 1.383 . S
C406 C410 1.395 . S
C407 C408 1.396 . S
C407 C409 1.365 . S
C407 H416 0.929 . S
C408 C405 1.394 . S
C408 C407 1.396 . S
C408 H417 0.930 . S
C409 C406 1.383 . S
C409 C407 1.365 . S
C409 H418 0.931 . S
C410 C405 1.370 . S
C410 C406 1.395 . S
C410 H419 0.930 . S
C411 Gd347 2.805 . S
C411 O387 1.263 . S
C411 O388 1.252 . S
C411 C405 1.500 . S
H412 C395 0.929 . S
H413 C396 0.930 . S
H414 C397 0.931 . S
H415 C398 0.930 . S
H416 C407 0.929 . S
H417 C408 0.930 . S
H418 C409 0.931 . S
H419 C410 0.930 . S
C420 C422 1.422 . S
C420 C424 1.415 . S
C420 N426 1.369 . S
C421 C422 1.421 . S
C421 C423 1.417 . S
C421 C433 1.422 . S
C422 C420 1.422 . S
C422 C421 1.421 . S
C422 N432 1.359 . S
C423 C421 1.417 . S
C423 C425 1.329 . S
C423 H442 0.930 . S
C424 C420 1.415 . S
C424 C425 1.437 . S
C424 C428 1.413 . S
C425 C423 1.329 . S
C425 C424 1.437 . S
C425 H447 0.929 . S
N426 C420 1.369 . S
N426 C427 1.338 . S
N426 Gd431 2.622 . S
C427 N426 1.338 . S
C427 C429 1.378 . S
C427 H439 0.929 . S
C428 C424 1.413 . S
C428 C429 1.348 . S
C428 H444 0.931 . S
C429 C427 1.378 . S
C429 C428 1.348 . S
C429 H445 0.930 . S
Gd430 N450 2.622 . S
Gd430 N457 2.570 . S
Gd430 O464 2.353 . S
Gd430 O465 2.468 . S
Gd430 O466 2.427 . S
Gd430 O468 2.388 . S
Gd430 O469 2.386 . S
Gd430 O473 2.307 . S
Gd430 C483 2.805 . S
Gd431 N426 2.622 . S
Gd431 N432 2.570 . S
Gd431 O463 2.386 . S
Gd431 O467 2.307 . S
Gd431 O470 2.353 . S
Gd431 O471 2.468 . S
Gd431 O472 2.427 . S
Gd431 O474 2.388 . S
Gd431 C495 2.805 . S
N432 C422 1.359 . S
N432 Gd431 2.570 . S
N432 C434 1.343 . S
C433 C421 1.422 . S
C433 C435 1.321 . S
C433 H441 0.931 . S
C434 N432 1.343 . S
C434 C435 1.390 . S
C434 H436 0.931 . S
C435 C433 1.321 . S
C435 C434 1.390 . S
C435 H437 0.930 . S
H436 C434 0.931 . S
H437 C435 0.930 . S
H438 C461 0.931 . S
H439 C427 0.929 . S
H440 C462 0.930 . S
H441 C433 0.931 . S
H442 C423 0.930 . S
H443 C452 0.929 . S
H444 C428 0.931 . S
H445 C429 0.930 . S
H446 C484 0.930 . S
H447 C425 0.929 . S
H448 C453 0.931 . S
H449 C454 0.930 . S
N450 Gd430 2.622 . S
N450 C451 1.369 . S
N450 C452 1.338 . S
C451 N450 1.369 . S
C451 C455 1.415 . S
C451 C458 1.422 . S
C452 H443 0.929 . S
C452 N450 1.338 . S
C452 C454 1.378 . S
C453 H448 0.931 . S
C453 C454 1.348 . S
C453 C455 1.413 . S
C454 H449 0.930 . S
C454 C452 1.378 . S
C454 C453 1.348 . S
C455 C451 1.415 . S
C455 C453 1.413 . S
C455 C485 1.437 . S
H456 C485 0.929 . S
N457 Gd430 2.570 . S
N457 C458 1.359 . S
N457 C461 1.343 . S
C458 C451 1.422 . S
C458 N457 1.359 . S
C458 C460 1.421 . S
C459 C460 1.422 . S
C459 C462 1.321 . S
C459 H486 0.931 . S
C460 C458 1.421 . S
C460 C459 1.422 . S
C460 C484 1.417 . S
C461 H438 0.931 . S
C461 N457 1.343 . S
C461 C462 1.390 . S
C462 H440 0.930 . S
C462 C459 1.321 . S
C462 C461 1.390 . S
O463 Gd431 2.386 . S
O463 C475 1.265 . S
O464 Gd430 2.353 . S
O464 C475 1.242 . S
O465 Gd430 2.468 . S
O465 C483 1.263 . S
O466 Gd430 2.427 . S
O466 C483 1.252 . S
O467 Gd431 2.307 . S
O467 C476 1.261 . S
O468 Gd430 2.388 . S
O468 C476 1.252 . S
O469 Gd430 2.386 . S
O469 C487 1.265 . S
O470 Gd431 2.353 . S
O470 C487 1.242 . S
O471 Gd431 2.468 . S
O471 C495 1.263 . S
O472 Gd431 2.427 . S
O472 C495 1.252 . S
O473 Gd430 2.307 . S
O473 C488 1.261 . S
O474 Gd431 2.388 . S
O474 C488 1.252 . S
C475 O463 1.265 . S
C475 O464 1.242 . S
C476 O467 1.261 . S
C476 O468 1.252 . S
C477 C480 1.394 . S
C477 C482 1.370 . S
C477 C483 1.500 . S
C478 C481 1.383 . S
C478 C482 1.395 . S
C479 C480 1.396 . S
C479 C481 1.365 . S
C479 H496 0.929 . S
C480 C477 1.394 . S
C480 C479 1.396 . S
C480 H497 0.930 . S
C481 C478 1.383 . S
C481 C479 1.365 . S
C481 H498 0.931 . S
C482 C477 1.370 . S
C482 C478 1.395 . S
C482 H499 0.930 . S
C483 Gd430 2.805 . S
C483 O465 1.263 . S
C483 O466 1.252 . S
C483 C477 1.500 . S
C484 H446 0.930 . S
C484 C460 1.417 . S
C484 C485 1.329 . S
C485 C455 1.437 . S
C485 H456 0.929 . S
C485 C484 1.329 . S
H486 C459 0.931 . S
C487 O469 1.265 . S
C487 O470 1.242 . S
C488 O473 1.261 . S
C488 O474 1.252 . S
C489 C492 1.394 . S
C489 C494 1.370 . S
C489 C495 1.500 . S
C490 C493 1.383 . S
C490 C494 1.395 . S
C491 C492 1.396 . S
C491 C493 1.365 . S
C491 H500 0.929 . S
C492 C489 1.394 . S
C492 C491 1.396 . S
C492 H501 0.930 . S
C493 C490 1.383 . S
C493 C491 1.365 . S
C493 H502 0.931 . S
C494 C489 1.370 . S
C494 C490 1.395 . S
C494 H503 0.930 . S
C495 Gd431 2.805 . S
C495 O471 1.263 . S
C495 O472 1.252 . S
C495 C489 1.500 . S
H496 C479 0.929 . S
H497 C480 0.930 . S
H498 C481 0.931 . S
H499 C482 0.930 . S
H500 C491 0.929 . S
H501 C492 0.930 . S
H502 C493 0.931 . S
H503 C494 0.930 . S
C504 C506 1.422 . S
C504 C508 1.415 . S
C504 N510 1.369 . S
C505 C506 1.421 . S
C505 C507 1.417 . S
C505 C517 1.422 . S
C506 C504 1.422 . S
C506 C505 1.421 . S
C506 N516 1.359 . S
C507 C505 1.417 . S
C507 C509 1.329 . S
C507 H526 0.930 . S
C508 C504 1.415 . S
C508 C509 1.437 . S
C508 C512 1.413 . S
C509 C507 1.329 . S
C509 C508 1.437 . S
C509 H531 0.929 . S
N510 C504 1.369 . S
N510 C511 1.338 . S
N510 Gd515 2.622 . S
C511 N510 1.338 . S
C511 C513 1.378 . S
C511 H523 0.929 . S
C512 C508 1.413 . S
C512 C513 1.348 . S
C512 H528 0.931 . S
C513 C511 1.378 . S
C513 C512 1.348 . S
C513 H529 0.930 . S
Gd514 N534 2.622 . S
Gd514 N541 2.570 . S
Gd514 O548 2.353 . S
Gd514 O549 2.468 . S
Gd514 O550 2.427 . S
Gd514 O552 2.388 . S
Gd514 O553 2.386 . S
Gd514 O557 2.307 . S
Gd514 C567 2.805 . S
Gd515 N510 2.622 . S
Gd515 N516 2.570 . S
Gd515 O547 2.386 . S
Gd515 O551 2.307 . S
Gd515 O554 2.353 . S
Gd515 O555 2.468 . S
Gd515 O556 2.427 . S
Gd515 O558 2.388 . S
Gd515 C579 2.805 . S
N516 C506 1.359 . S
N516 Gd515 2.570 . S
N516 C518 1.343 . S
C517 C505 1.422 . S
C517 C519 1.321 . S
C517 H525 0.931 . S
C518 N516 1.343 . S
C518 C519 1.390 . S
C518 H520 0.931 . S
C519 C517 1.321 . S
C519 C518 1.390 . S
C519 H521 0.930 . S
H520 C518 0.931 . S
H521 C519 0.930 . S
H522 C545 0.931 . S
H523 C511 0.929 . S
H524 C546 0.930 . S
H525 C517 0.931 . S
H526 C507 0.930 . S
H527 C536 0.929 . S
H528 C512 0.931 . S
H529 C513 0.930 . S
H530 C568 0.930 . S
H531 C509 0.929 . S
H532 C537 0.931 . S
H533 C538 0.930 . S
N534 Gd514 2.622 . S
N534 C535 1.369 . S
N534 C536 1.338 . S
C535 N534 1.369 . S
C535 C539 1.415 . S
C535 C542 1.422 . S
C536 H527 0.929 . S
C536 N534 1.338 . S
C536 C538 1.378 . S
C537 H532 0.931 . S
C537 C538 1.348 . S
C537 C539 1.413 . S
C538 H533 0.930 . S
C538 C536 1.378 . S
C538 C537 1.348 . S
C539 C535 1.415 . S
C539 C537 1.413 . S
C539 C569 1.437 . S
H540 C569 0.929 . S
N541 Gd514 2.570 . S
N541 C542 1.359 . S
N541 C545 1.343 . S
C542 C535 1.422 . S
C542 N541 1.359 . S
C542 C544 1.421 . S
C543 C544 1.422 . S
C543 C546 1.321 . S
C543 H570 0.931 . S
C544 C542 1.421 . S
C544 C543 1.422 . S
C544 C568 1.417 . S
C545 H522 0.931 . S
C545 N541 1.343 . S
C545 C546 1.390 . S
C546 H524 0.930 . S
C546 C543 1.321 . S
C546 C545 1.390 . S
O547 Gd515 2.386 . S
O547 C559 1.265 . S
O548 Gd514 2.353 . S
O548 C559 1.242 . S
O549 Gd514 2.468 . S
O549 C567 1.263 . S
O550 Gd514 2.427 . S
O550 C567 1.252 . S
O551 Gd515 2.307 . S
O551 C560 1.261 . S
O552 Gd514 2.388 . S
O552 C560 1.252 . S
O553 Gd514 2.386 . S
O553 C571 1.265 . S
O554 Gd515 2.353 . S
O554 C571 1.242 . S
O555 Gd515 2.468 . S
O555 C579 1.263 . S
O556 Gd515 2.427 . S
O556 C579 1.252 . S
O557 Gd514 2.307 . S
O557 C572 1.261 . S
O558 Gd515 2.388 . S
O558 C572 1.252 . S
C559 O547 1.265 . S
C559 O548 1.242 . S
C560 O551 1.261 . S
C560 O552 1.252 . S
C561 C564 1.394 . S
C561 C566 1.370 . S
C561 C567 1.500 . S
C562 C565 1.383 . S
C562 C566 1.395 . S
C563 C564 1.396 . S
C563 C565 1.365 . S
C563 H580 0.929 . S
C564 C561 1.394 . S
C564 C563 1.396 . S
C564 H581 0.930 . S
C565 C562 1.383 . S
C565 C563 1.365 . S
C565 H582 0.931 . S
C566 C561 1.370 . S
C566 C562 1.395 . S
C566 H583 0.930 . S
C567 Gd514 2.805 . S
C567 O549 1.263 . S
C567 O550 1.252 . S
C567 C561 1.500 . S
C568 H530 0.930 . S
C568 C544 1.417 . S
C568 C569 1.329 . S
C569 C539 1.437 . S
C569 H540 0.929 . S
C569 C568 1.329 . S
H570 C543 0.931 . S
C571 O553 1.265 . S
C571 O554 1.242 . S
C572 O557 1.261 . S
C572 O558 1.252 . S
C573 C576 1.394 . S
C573 C578 1.370 . S
C573 C579 1.500 . S
C574 C577 1.383 . S
C574 C578 1.395 . S
C575 C576 1.396 . S
C575 C577 1.365 . S
C575 H584 0.929 . S
C576 C573 1.394 . S
C576 C575 1.396 . S
C576 H585 0.930 . S
C577 C574 1.383 . S
C577 C575 1.365 . S
C577 H586 0.931 . S
C578 C573 1.370 . S
C578 C574 1.395 . S
C578 H587 0.930 . S
C579 Gd515 2.805 . S
C579 O555 1.263 . S
C579 O556 1.252 . S
C579 C573 1.500 . S
H580 C563 0.929 . S
H581 C564 0.930 . S
H582 C565 0.931 . S
H583 C566 0.930 . S
H584 C575 0.929 . S
H585 C576 0.930 . S
H586 C577 0.931 . S
H587 C578 0.930 . S
C588 C590 1.422 . S
C588 C592 1.415 . S
C588 N594 1.369 . S
C589 C590 1.421 . S
C589 C591 1.417 . S
C589 C601 1.422 . S
C590 C588 1.422 . S
C590 C589 1.421 . S
C590 N600 1.359 . S
C591 C589 1.417 . S
C591 C593 1.329 . S
C591 H610 0.930 . S
C592 C588 1.415 . S
C592 C593 1.437 . S
C592 C596 1.413 . S
C593 C591 1.329 . S
C593 C592 1.437 . S
C593 H615 0.929 . S
N594 C588 1.369 . S
N594 C595 1.338 . S
N594 Gd599 2.622 . S
C595 N594 1.338 . S
C595 C597 1.378 . S
C595 H607 0.929 . S
C596 C592 1.413 . S
C596 C597 1.348 . S
C596 H612 0.931 . S
C597 C595 1.378 . S
C597 C596 1.348 . S
C597 H613 0.930 . S
Gd598 N618 2.622 . S
Gd598 N625 2.570 . S
Gd598 O632 2.353 . S
Gd598 O633 2.468 . S
Gd598 O634 2.427 . S
Gd598 O636 2.388 . S
Gd598 O637 2.386 . S
Gd598 O641 2.307 . S
Gd598 C651 2.805 . S
Gd599 N594 2.622 . S
Gd599 N600 2.570 . S
Gd599 O631 2.386 . S
Gd599 O635 2.307 . S
Gd599 O638 2.353 . S
Gd599 O639 2.468 . S
Gd599 O640 2.427 . S
Gd599 O642 2.388 . S
Gd599 C663 2.805 . S
N600 C590 1.359 . S
N600 Gd599 2.570 . S
N600 C602 1.343 . S
C601 C589 1.422 . S
C601 C603 1.321 . S
C601 H609 0.931 . S
C602 N600 1.343 . S
C602 C603 1.390 . S
C602 H604 0.931 . S
C603 C601 1.321 . S
C603 C602 1.390 . S
C603 H605 0.930 . S
H604 C602 0.931 . S
H605 C603 0.930 . S
H606 C629 0.931 . S
H607 C595 0.929 . S
H608 C630 0.930 . S
H609 C601 0.931 . S
H610 C591 0.930 . S
H611 C620 0.929 . S
H612 C596 0.931 . S
H613 C597 0.930 . S
H614 C652 0.930 . S
H615 C593 0.929 . S
H616 C621 0.931 . S
H617 C622 0.930 . S
N618 Gd598 2.622 . S
N618 C619 1.369 . S
N618 C620 1.338 . S
C619 N618 1.369 . S
C619 C623 1.415 . S
C619 C626 1.422 . S
C620 H611 0.929 . S
C620 N618 1.338 . S
C620 C622 1.378 . S
C621 H616 0.931 . S
C621 C622 1.348 . S
C621 C623 1.413 . S
C622 H617 0.930 . S
C622 C620 1.378 . S
C622 C621 1.348 . S
C623 C619 1.415 . S
C623 C621 1.413 . S
C623 C653 1.437 . S
H624 C653 0.929 . S
N625 Gd598 2.570 . S
N625 C626 1.359 . S
N625 C629 1.343 . S
C626 C619 1.422 . S
C626 N625 1.359 . S
C626 C628 1.421 . S
C627 C628 1.422 . S
C627 C630 1.321 . S
C627 H654 0.931 . S
C628 C626 1.421 . S
C628 C627 1.422 . S
C628 C652 1.417 . S
C629 H606 0.931 . S
C629 N625 1.343 . S
C629 C630 1.390 . S
C630 H608 0.930 . S
C630 C627 1.321 . S
C630 C629 1.390 . S
O631 Gd599 2.386 . S
O631 C643 1.265 . S
O632 Gd598 2.353 . S
O632 C643 1.242 . S
O633 Gd598 2.468 . S
O633 C651 1.263 . S
O634 Gd598 2.427 . S
O634 C651 1.252 . S
O635 Gd599 2.307 . S
O635 C644 1.261 . S
O636 Gd598 2.388 . S
O636 C644 1.252 . S
O637 Gd598 2.386 . S
O637 C655 1.265 . S
O638 Gd599 2.353 . S
O638 C655 1.242 . S
O639 Gd599 2.468 . S
O639 C663 1.263 . S
O640 Gd599 2.427 . S
O640 C663 1.252 . S
O641 Gd598 2.307 . S
O641 C656 1.261 . S
O642 Gd599 2.388 . S
O642 C656 1.252 . S
C643 O631 1.265 . S
C643 O632 1.242 . S
C644 O635 1.261 . S
C644 O636 1.252 . S
C645 C648 1.394 . S
C645 C650 1.370 . S
C645 C651 1.500 . S
C646 C649 1.383 . S
C646 C650 1.395 . S
C647 C648 1.396 . S
C647 C649 1.365 . S
C647 H664 0.929 . S
C648 C645 1.394 . S
C648 C647 1.396 . S
C648 H665 0.930 . S
C649 C646 1.383 . S
C649 C647 1.365 . S
C649 H666 0.931 . S
C650 C645 1.370 . S
C650 C646 1.395 . S
C650 H667 0.930 . S
C651 Gd598 2.805 . S
C651 O633 1.263 . S
C651 O634 1.252 . S
C651 C645 1.500 . S
C652 H614 0.930 . S
C652 C628 1.417 . S
C652 C653 1.329 . S
C653 C623 1.437 . S
C653 H624 0.929 . S
C653 C652 1.329 . S
H654 C627 0.931 . S
C655 O637 1.265 . S
C655 O638 1.242 . S
C656 O641 1.261 . S
C656 O642 1.252 . S
C657 C660 1.394 . S
C657 C662 1.370 . S
C657 C663 1.500 . S
C658 C661 1.383 . S
C658 C662 1.395 . S
C659 C660 1.396 . S
C659 C661 1.365 . S
C659 H668 0.929 . S
C660 C657 1.394 . S
C660 C659 1.396 . S
C660 H669 0.930 . S
C661 C658 1.383 . S
C661 C659 1.365 . S
C661 H670 0.931 . S
C662 C657 1.370 . S
C662 C658 1.395 . S
C662 H671 0.930 . S
C663 Gd599 2.805 . S
C663 O639 1.263 . S
C663 O640 1.252 . S
C663 C657 1.500 . S
H664 C647 0.929 . S
H665 C648 0.930 . S
H666 C649 0.931 . S
H667 C650 0.930 . S
H668 C659 0.929 . S
H669 C660 0.930 . S
H670 C661 0.931 . S
H671 C662 0.930 . S
Fe672 O673 1.886 1_455 S
Fe672 O676 1.715 . S
Fe672 O681 2.077 1_455 S
Fe672 O686 1.935 . S
Fe672 O692 2.077 1_455 S
Fe672 O701 1.935 . S
O673 Fe672 1.886 1_655 S
O673 Fe675 1.715 1_545 S
Fe674 O676 1.886 . S
Fe674 O677 1.715 1_545 S
Fe674 O684 1.935 1_545 S
Fe674 O685 2.077 . S
Fe674 O691 1.935 1_545 S
Fe674 O700 2.077 . S
Fe675 O673 1.715 1_565 S
Fe675 O678 1.886 . S
Fe675 O682 1.935 1_565 S
Fe675 O687 2.077 . S
Fe675 O693 1.935 1_565 S
Fe675 O697 2.077 . S
O676 Fe672 1.715 . S
O676 Fe674 1.886 . S
O677 Fe674 1.715 1_565 S
O677 Fe679 1.886 1_455 S
O678 Fe675 1.886 . S
O678 Fe679 1.715 . S
Fe679 O677 1.886 1_655 S
Fe679 O678 1.715 . S
Fe679 O683 2.077 1_655 S
Fe679 O688 1.935 . S
Fe679 O690 2.077 1_655 S
Fe679 O698 1.935 . S
C680 O692 1.381 . S
C680 O693 1.421 . S
O681 Fe672 2.077 1_655 S
O681 C694 1.381 . S
O682 Fe675 1.935 1_545 S
O682 C694 1.421 . S
O683 Fe679 2.077 1_455 S
O683 C699 1.381 . S
O684 Fe674 1.935 1_565 S
O684 C699 1.421 . S
O685 Fe674 2.077 . S
O685 C689 1.381 . S
O686 Fe672 1.935 . S
O686 C689 1.421 . S
O687 Fe675 2.077 . S
O687 C695 1.381 . S
O688 Fe679 1.935 . S
O688 C695 1.421 . S
C689 O685 1.381 . S
C689 O686 1.421 . S
O690 Fe679 2.077 1_455 S
O690 C702 1.381 . S
O691 Fe674 1.935 1_565 S
O691 C702 1.421 . S
O692 Fe672 2.077 1_655 S
O692 C680 1.381 . S
O693 Fe675 1.935 1_545 S
O693 C680 1.421 . S
C694 O681 1.381 . S
C694 O682 1.421 . S
C695 O687 1.381 . S
C695 O688 1.421 . S
C696 O697 1.381 . S
C696 O698 1.421 . S
O697 Fe675 2.077 . S
O697 C696 1.381 . S
O698 Fe679 1.935 . S
O698 C696 1.421 . S
C699 O683 1.381 . S
C699 O684 1.421 . S
O700 Fe674 2.077 . S
O700 C703 1.381 . S
O701 Fe672 1.935 . S
O701 C703 1.421 . S
C702 O690 1.381 . S
C702 O691 1.421 . S
C703 O700 1.381 . S
C703 O701 1.421 . S
Fe704 O705 1.886 . S
Fe704 O708 1.715 . S
Fe704 O713 2.077 . S
Fe704 O718 1.935 . S
Fe704 O724 2.077 1_556 S
Fe704 O733 1.935 1_556 S
O705 Fe704 1.886 . S
O705 Fe707 1.715 1_565 S
Fe706 O708 1.886 1_554 S
Fe706 O709 1.715 1_565 S
Fe706 O716 1.935 1_564 S
Fe706 O717 2.077 1_554 S
Fe706 O723 1.935 1_565 S
Fe706 O732 2.077 . S
Fe707 O705 1.715 1_545 S
Fe707 O710 1.887 1_556 S
Fe707 O714 1.935 1_545 S
Fe707 O719 2.077 . S
Fe707 O725 1.935 1_546 S
Fe707 O729 2.077 1_556 S
O708 Fe704 1.715 . S
O708 Fe706 1.886 1_556 S
O709 Fe706 1.715 1_545 S
O709 Fe711 1.886 . S
O710 Fe707 1.887 1_554 S
O710 Fe711 1.714 . S
Fe711 O709 1.886 . S
Fe711 O710 1.714 . S
Fe711 O715 2.077 1_554 S
Fe711 O720 1.935 1_554 S
Fe711 O722 2.077 . S
Fe711 O730 1.935 . S
C712 O724 1.381 . S
C712 O725 1.421 . S
O713 Fe704 2.077 . S
O713 C726 1.381 . S
O714 Fe707 1.935 1_565 S
O714 C726 1.421 . S
O715 Fe711 2.077 1_556 S
O715 C731 1.381 . S
O716 Fe706 1.935 1_546 S
O716 C731 1.421 . S
O717 Fe706 2.077 1_556 S
O717 C721 1.381 . S
O718 Fe704 1.935 . S
O718 C721 1.421 . S
O719 Fe707 2.077 . S
O719 C727 1.381 . S
O720 Fe711 1.935 1_556 S
O720 C727 1.421 . S
C721 O717 1.381 . S
C721 O718 1.421 . S
O722 Fe711 2.077 . S
O722 C734 1.381 . S
O723 Fe706 1.935 1_545 S
O723 C734 1.421 . S
O724 Fe704 2.077 1_554 S
O724 C712 1.381 . S
O725 Fe707 1.935 1_564 S
O725 C712 1.421 . S
C726 O713 1.381 . S
C726 O714 1.421 . S
C727 O719 1.381 . S
C727 O720 1.421 . S
C728 O729 1.381 . S
C728 O730 1.421 . S
O729 Fe707 2.077 1_554 S
O729 C728 1.381 . S
O730 Fe711 1.935 . S
O730 C728 1.421 . S
C731 O715 1.381 . S
C731 O716 1.421 . S
O732 Fe706 2.077 . S
O732 C735 1.381 . S
O733 Fe704 1.935 1_554 S
O733 C735 1.421 . S
C734 O722 1.381 . S
C734 O723 1.421 . S
C735 O732 1.381 . S
C735 O733 1.421 . S
Fe736 O737 1.886 1_455 S
Fe736 O740 1.714 . S
Fe736 O745 2.077 1_454 S
Fe736 O750 1.935 1_554 S
Fe736 O756 2.077 1_455 S
Fe736 O765 1.935 . S
O737 Fe736 1.886 1_655 S
O737 Fe739 1.715 . S
Fe738 O740 1.886 1_556 S
Fe738 O741 1.715 . S
Fe738 O748 1.935 . S
Fe738 O749 2.077 . S
Fe738 O755 1.935 1_556 S
Fe738 O764 2.077 1_556 S
Fe739 O737 1.715 . S
Fe739 O742 1.886 1_554 S
Fe739 O746 1.935 1_554 S
Fe739 O751 2.077 1_554 S
Fe739 O757 1.935 . S
Fe739 O761 2.077 . S
O740 Fe736 1.714 . S
O740 Fe738 1.886 1_554 S
O741 Fe738 1.715 . S
O741 Fe743 1.886 1_455 S
O742 Fe739 1.886 1_556 S
O742 Fe743 1.715 . S
Fe743 O741 1.886 1_655 S
Fe743 O742 1.715 . S
Fe743 O747 2.077 1_655 S
Fe743 O752 1.935 . S
Fe743 O754 2.077 1_656 S
Fe743 O762 1.935 1_556 S
C744 O756 1.381 . S
C744 O757 1.421 . S
O745 Fe736 2.077 1_656 S
O745 C758 1.381 . S
O746 Fe739 1.935 1_556 S
O746 C758 1.421 . S
O747 Fe743 2.077 1_455 S
O747 C763 1.381 . S
O748 Fe738 1.935 . S
O748 C763 1.421 . S
O749 Fe738 2.077 . S
O749 C753 1.381 . S
O750 Fe736 1.935 1_556 S
O750 C753 1.421 . S
O751 Fe739 2.077 1_556 S
O751 C759 1.381 . S
O752 Fe743 1.935 . S
O752 C759 1.421 . S
C753 O749 1.381 . S
C753 O750 1.421 . S
O754 Fe743 2.077 1_454 S
O754 C766 1.381 . S
O755 Fe738 1.935 1_554 S
O755 C766 1.421 . S
O756 Fe736 2.077 1_655 S
O756 C744 1.381 . S
O757 Fe739 1.935 . S
O757 C744 1.421 . S
C758 O745 1.381 . S
C758 O746 1.421 . S
C759 O751 1.381 . S
C759 O752 1.421 . S
C760 O761 1.381 . S
C760 O762 1.421 . S
O761 Fe739 2.077 . S
O761 C760 1.381 . S
O762 Fe743 1.935 1_554 S
O762 C760 1.421 . S
C763 O747 1.381 . S
C763 O748 1.421 . S
O764 Fe738 2.077 1_554 S
O764 C767 1.381 . S
O765 Fe736 1.935 . S
O765 C767 1.421 . S
C766 O754 1.381 . S
C766 O755 1.421 . S
C767 O764 1.381 . S
C767 O765 1.421 . S
Fe768 O769 1.886 . S
Fe768 O772 1.715 . S
Fe768 O777 2.077 . S
Fe768 O782 1.935 . S
Fe768 O788 2.077 . S
Fe768 O797 1.935 . S
O769 Fe768 1.886 . S
O769 Fe771 1.715 . S
Fe770 O772 1.886 1_554 S
Fe770 O773 1.715 . S
Fe770 O780 1.935 . S
Fe770 O781 2.077 1_554 S
Fe770 O787 1.935 . S
Fe770 O796 2.077 1_554 S
Fe771 O769 1.715 . S
Fe771 O774 1.886 1_556 S
Fe771 O778 1.935 . S
Fe771 O783 2.077 1_556 S
Fe771 O789 1.935 . S
Fe771 O793 2.077 1_556 S
O772 Fe768 1.715 . S
O772 Fe770 1.886 1_556 S
O773 Fe770 1.715 . S
O773 Fe775 1.886 . S
O774 Fe771 1.886 1_554 S
O774 Fe775 1.715 . S
Fe775 O773 1.886 . S
Fe775 O774 1.715 . S
Fe775 O779 2.077 . S
Fe775 O784 1.935 . S
Fe775 O786 2.077 . S
Fe775 O794 1.935 . S
C776 O788 1.381 . S
C776 O789 1.421 . S
O777 Fe768 2.077 . S
O777 C790 1.381 . S
O778 Fe771 1.935 . S
O778 C790 1.421 . S
O779 Fe775 2.077 . S
O779 C795 1.381 . S
O780 Fe770 1.935 . S
O780 C795 1.421 . S
O781 Fe770 2.077 1_556 S
O781 C785 1.381 . S
O782 Fe768 1.935 . S
O782 C785 1.421 . S
O783 Fe771 2.077 1_554 S
O783 C791 1.381 . S
O784 Fe775 1.935 . S
O784 C791 1.421 . S
C785 O781 1.381 . S
C785 O782 1.421 . S
O786 Fe775 2.077 . S
O786 C798 1.381 . S
O787 Fe770 1.935 . S
O787 C798 1.421 . S
O788 Fe768 2.077 . S
O788 C776 1.381 . S
O789 Fe771 1.935 . S
O789 C776 1.421 . S
C790 O777 1.381 . S
C790 O778 1.421 . S
C791 O783 1.381 . S
C791 O784 1.421 . S
C792 O793 1.381 . S
C792 O794 1.421 . S
O793 Fe771 2.077 1_554 S
O793 C792 1.381 . S
O794 Fe775 1.935 . S
O794 C792 1.421 . S
C795 O779 1.381 . S
C795 O780 1.421 . S
O796 Fe770 2.077 1_556 S
O796 C799 1.381 . S
O797 Fe768 1.935 . S
O797 C799 1.421 . S
C798 O786 1.381 . S
C798 O787 1.421 . S
C799 O796 1.381 . S
C799 O797 1.421 . S
Fe800 O801 1.886 . S
Fe800 O804 1.715 . S
Fe800 O809 2.077 1_655 S
Fe800 O814 1.935 1_655 S
Fe800 O820 2.077 . S
Fe800 O829 1.935 . S
O801 Fe800 1.886 . S
O801 Fe803 1.715 . S
Fe802 O804 1.886 1_455 S
Fe802 O805 1.715 . S
Fe802 O812 1.935 . S
Fe802 O813 2.077 . S
Fe802 O819 1.935 1_455 S
Fe802 O828 2.077 1_455 S
Fe803 O801 1.715 . S
Fe803 O806 1.886 1_655 S
Fe803 O810 1.935 1_655 S
Fe803 O815 2.077 1_655 S
Fe803 O821 1.935 . S
Fe803 O825 2.077 . S
O804 Fe800 1.715 . S
O804 Fe802 1.886 1_655 S
O805 Fe802 1.715 . S
O805 Fe807 1.886 . S
O806 Fe803 1.886 1_455 S
O806 Fe807 1.715 . S
Fe807 O805 1.886 . S
Fe807 O806 1.715 . S
Fe807 O811 2.077 . S
Fe807 O816 1.935 . S
Fe807 O818 2.077 1_455 S
Fe807 O826 1.935 1_455 S
C808 O820 1.381 . S
C808 O821 1.421 . S
O809 Fe800 2.077 1_455 S
O809 C822 1.381 . S
O810 Fe803 1.935 1_455 S
O810 C822 1.421 . S
O811 Fe807 2.077 . S
O811 C827 1.381 . S
O812 Fe802 1.935 . S
O812 C827 1.421 . S
O813 Fe802 2.077 . S
O813 C817 1.381 . S
O814 Fe800 1.935 1_455 S
O814 C817 1.421 . S
O815 Fe803 2.077 1_455 S
O815 C823 1.381 . S
O816 Fe807 1.935 . S
O816 C823 1.421 . S
C817 O813 1.381 . S
C817 O814 1.421 . S
O818 Fe807 2.077 1_655 S
O818 C830 1.381 . S
O819 Fe802 1.935 1_655 S
O819 C830 1.421 . S
O820 Fe800 2.077 . S
O820 C808 1.381 . S
O821 Fe803 1.935 . S
O821 C808 1.421 . S
C822 O809 1.381 . S
C822 O810 1.421 . S
C823 O815 1.381 . S
C823 O816 1.421 . S
C824 O825 1.381 . S
C824 O826 1.421 . S
O825 Fe803 2.077 . S
O825 C824 1.381 . S
O826 Fe807 1.935 1_655 S
O826 C824 1.421 . S
C827 O811 1.381 . S
C827 O812 1.421 . S
O828 Fe802 2.077 1_655 S
O828 C831 1.381 . S
O829 Fe800 1.935 . S
O829 C831 1.421 . S
C830 O818 1.381 . S
C830 O819 1.421 . S
C831 O828 1.381 . S
C831 O829 1.421 . S
Fe832 O833 1.886 . S
Fe832 O836 1.715 . S
Fe832 O841 2.077 . S
Fe832 O846 1.935 . S
Fe832 O852 2.077 . S
Fe832 O861 1.935 . S
O833 Fe832 1.886 . S
O833 Fe835 1.715 1_565 S
Fe834 O836 1.886 . S
Fe834 O837 1.715 1_565 S
Fe834 O844 1.935 1_565 S
Fe834 O845 2.077 . S
Fe834 O851 1.935 1_565 S
Fe834 O860 2.077 . S
Fe835 O833 1.715 1_545 S
Fe835 O838 1.886 . S
Fe835 O842 1.935 1_545 S
Fe835 O847 2.077 . S
Fe835 O853 1.935 1_545 S
Fe835 O857 2.077 . S
O836 Fe832 1.715 . S
O836 Fe834 1.886 . S
O837 Fe834 1.715 1_545 S
O837 Fe839 1.886 . S
O838 Fe835 1.886 . S
O838 Fe839 1.715 . S
Fe839 O837 1.886 . S
Fe839 O838 1.715 . S
Fe839 O843 2.077 . S
Fe839 O848 1.935 . S
Fe839 O850 2.077 . S
Fe839 O858 1.935 . S
C840 O852 1.381 . S
C840 O853 1.421 . S
O841 Fe832 2.077 . S
O841 C854 1.381 . S
O842 Fe835 1.935 1_565 S
O842 C854 1.421 . S
O843 Fe839 2.077 . S
O843 C859 1.381 . S
O844 Fe834 1.935 1_545 S
O844 C859 1.421 . S
O845 Fe834 2.077 . S
O845 C849 1.381 . S
O846 Fe832 1.935 . S
O846 C849 1.421 . S
O847 Fe835 2.077 . S
O847 C855 1.381 . S
O848 Fe839 1.935 . S
O848 C855 1.421 . S
C849 O845 1.381 . S
C849 O846 1.421 . S
O850 Fe839 2.077 . S
O850 C862 1.381 . S
O851 Fe834 1.935 1_545 S
O851 C862 1.421 . S
O852 Fe832 2.077 . S
O852 C840 1.381 . S
O853 Fe835 1.935 1_565 S
O853 C840 1.421 . S
C854 O841 1.381 . S
C854 O842 1.421 . S
C855 O847 1.381 . S
C855 O848 1.421 . S
C856 O857 1.381 . S
C856 O858 1.421 . S
O857 Fe835 2.077 . S
O857 C856 1.381 . S
O858 Fe839 1.935 . S
O858 C856 1.421 . S
C859 O843 1.381 . S
C859 O844 1.421 . S
O860 Fe834 2.077 . S
O860 C863 1.381 . S
O861 Fe832 1.935 . S
O861 C863 1.421 . S
C862 O850 1.381 . S
C862 O851 1.421 . S
C863 O860 1.381 . S
C863 O861 1.421 . S
H864 C882 0.951 . S
H865 C884 0.951 . S
H866 C886 0.950 . S
H867 C887 0.950 . S
H868 C889 0.950 . S
H869 C892 0.950 . S
H870 C893 0.950 . S
H871 C895 0.950 . S
H872 C896 0.950 . S
H873 C897 0.951 . S
H874 C899 0.951 . S
H875 C901 0.950 . S
H876 C902 0.950 . S
H877 C904 0.950 . S
H878 C907 0.950 . S
H879 C908 0.950 . S
H880 C910 0.950 . S
H881 C911 0.950 . S
C882 H864 0.951 . S
C882 C883 1.366 . S
C882 C884 1.388 . S
C883 C882 1.366 . S
C883 C887 1.385 . S
C884 H865 0.951 . S
C884 C882 1.388 . S
C884 C885 1.366 . S
C885 C884 1.366 . S
C885 C886 1.414 . S
C885 C888 1.499 . S
C886 H866 0.950 . S
C886 C885 1.414 . S
C886 C887 1.374 . S
C887 H867 0.950 . S
C887 C883 1.385 . S
C887 C886 1.374 . S
C888 C885 1.499 . S
C888 C889 1.373 . S
C888 C890 1.389 . S
C889 H868 0.950 . S
C889 C888 1.373 . S
C889 C905 1.377 . S
C890 C888 1.389 . S
C890 C891 1.524 . S
C890 C904 1.377 . S
C891 C890 1.524 . S
C891 C892 1.397 . S
C891 C896 1.363 . S
C892 H869 0.950 . S
C892 C891 1.397 . S
C892 C893 1.334 . S
C893 H870 0.950 . S
C893 C892 1.334 . S
C893 C894 1.287 . S
C894 C893 1.287 . S
C894 C895 1.524 . S
C894 H913 0.913 . S
C895 H871 0.950 . S
C895 C894 1.524 . S
C895 C896 1.415 . S
C896 H872 0.950 . S
C896 C891 1.363 . S
C896 C895 1.415 . S
C897 H873 0.951 . S
C897 C898 1.366 . S
C897 C899 1.388 . S
C898 C897 1.366 . S
C898 C902 1.385 . S
C899 H874 0.951 . S
C899 C897 1.388 . S
C899 C900 1.366 . S
C900 C899 1.366 . S
C900 C901 1.414 . S
C900 C903 1.499 . S
C901 H875 0.950 . S
C901 C900 1.414 . S
C901 C902 1.374 . S
C902 H876 0.950 . S
C902 C898 1.385 . S
C902 C901 1.374 . S
C903 C900 1.499 . S
C903 C904 1.373 . S
C903 C905 1.389 . S
C904 H877 0.950 . S
C904 C890 1.377 . S
C904 C903 1.373 . S
C905 C889 1.377 . S
C905 C903 1.389 . S
C905 C906 1.524 . S
C906 C905 1.524 . S
C906 C907 1.397 . S
C906 C911 1.363 . S
C907 H878 0.950 . S
C907 C906 1.397 . S
C907 C908 1.334 . S
C908 H879 0.950 . S
C908 C907 1.334 . S
C908 C909 1.287 . S
C909 C908 1.287 . S
C909 C910 1.524 . S
C909 H912 0.999 . S
C910 H880 0.950 . S
C910 C909 1.524 . S
C910 C911 1.415 . S
C911 H881 0.950 . S
C911 C906 1.363 . S
C911 C910 1.415 . S
H912 C909 0.999 . S
H913 C894 0.913 . S
H914 C932 0.951 . S
H915 C934 0.951 . S
H916 C936 0.950 . S
H917 C937 0.950 . S
H918 C939 0.950 . S
H919 C942 0.950 . S
H920 C943 0.950 . S
H921 C945 0.950 . S
H922 C946 0.950 . S
H923 C947 0.951 . S
H924 C949 0.951 . S
H925 C951 0.950 . S
H926 C952 0.950 . S
H927 C954 0.950 . S
H928 C957 0.950 . S
H929 C958 0.940 1_455 S
H930 C960 0.950 1_455 S
H931 C961 0.950 . S
C932 H914 0.951 . S
C932 C933 1.366 . S
C932 C934 1.388 . S
C933 C932 1.366 . S
C933 C937 1.385 . S
C934 H915 0.951 . S
C934 C932 1.388 . S
C934 C935 1.366 . S
C935 C934 1.366 . S
C935 C936 1.414 . S
C935 C938 1.499 . S
C936 H916 0.950 . S
C936 C935 1.414 . S
C936 C937 1.374 . S
C937 H917 0.950 . S
C937 C933 1.385 . S
C937 C936 1.374 . S
C938 C935 1.499 . S
C938 C939 1.373 . S
C938 C940 1.389 . S
C939 H918 0.950 . S
C939 C938 1.373 . S
C939 C955 1.377 . S
C940 C938 1.389 . S
C940 C941 1.524 . S
C940 C954 1.377 . S
C941 C940 1.524 . S
C941 C942 1.397 . S
C941 C946 1.363 . S
C942 H919 0.950 . S
C942 C941 1.397 . S
C942 C943 1.334 . S
C943 H920 0.950 . S
C943 C942 1.334 . S
C943 C944 1.287 . S
C944 C943 1.287 . S
C944 C945 1.524 . S
C944 H963 0.913 . S
C945 H921 0.950 . S
C945 C944 1.524 . S
C945 C946 1.415 . S
C946 H922 0.950 . S
C946 C941 1.363 . S
C946 C945 1.415 . S
C947 H923 0.951 . S
C947 C948 1.366 . S
C947 C949 1.388 . S
C948 C947 1.366 . S
C948 C952 1.385 . S
C949 H924 0.951 . S
C949 C947 1.388 . S
C949 C950 1.366 . S
C950 C949 1.366 . S
C950 C951 1.414 . S
C950 C953 1.499 . S
C951 H925 0.950 . S
C951 C950 1.414 . S
C951 C952 1.374 . S
C952 H926 0.950 . S
C952 C948 1.385 . S
C952 C951 1.374 . S
C953 C950 1.499 . S
C953 C954 1.373 . S
C953 C955 1.389 . S
C954 H927 0.950 . S
C954 C940 1.377 . S
C954 C953 1.373 . S
C955 C939 1.377 . S
C955 C953 1.389 . S
C955 C956 1.524 . S
C956 C955 1.524 . S
C956 C957 1.397 . S
C956 C961 1.363 . S
C957 H928 0.950 . S
C957 C956 1.397 . S
C957 C958 1.334 . S
C958 H929 0.940 1_655 S
C958 C957 1.334 . S
C958 C959 1.287 1_655 S
C959 C958 1.287 1_455 S
C959 C960 1.524 1_455 S
C959 H962 0.999 . S
C960 H930 0.950 1_655 S
C960 C959 1.524 1_655 S
C960 C961 1.415 . S
C961 H931 0.950 . S
C961 C956 1.363 . S
C961 C960 1.415 . S
H962 C959 0.999 . S
H963 C944 0.913 . S
H964 C982 0.951 . S
H965 C984 0.951 . S
H966 C986 0.950 . S
H967 C987 0.950 . S
H968 C989 0.950 . S
H969 C992 0.950 . S
H970 C993 0.950 . S
H971 C995 0.950 . S
H972 C996 0.950 . S
H973 C997 0.951 . S
H974 C999 0.951 . S
H975 C1001 0.950 . S
H976 C1002 0.950 . S
H977 C1004 0.950 . S
H978 C1007 0.950 . S
H979 C1008 0.950 . S
H980 C1010 0.950 . S
H981 C1011 0.950 . S
C982 H964 0.951 . S
C982 C983 1.366 . S
C982 C984 1.388 . S
C983 C982 1.366 . S
C983 C987 1.385 . S
C984 H965 0.951 . S
C984 C982 1.388 . S
C984 C985 1.366 . S
C985 C984 1.366 . S
C985 C986 1.414 . S
C985 C988 1.499 . S
C986 H966 0.950 . S
C986 C985 1.414 . S
C986 C987 1.374 . S
C987 H967 0.950 . S
C987 C983 1.385 . S
C987 C986 1.374 . S
C988 C985 1.499 . S
C988 C989 1.373 . S
C988 C990 1.389 . S
C989 H968 0.950 . S
C989 C988 1.373 . S
C989 C1005 1.377 . S
C990 C988 1.389 . S
C990 C991 1.524 . S
C990 C1004 1.377 . S
C991 C990 1.524 . S
C991 C992 1.397 . S
C991 C996 1.363 . S
C992 H969 0.950 . S
C992 C991 1.397 . S
C992 C993 1.334 . S
C993 H970 0.950 . S
C993 C992 1.334 . S
C993 C994 1.287 . S
C994 C993 1.287 . S
C994 C995 1.524 . S
C994 H1013 0.913 . S
C995 H971 0.950 . S
C995 C994 1.524 . S
C995 C996 1.415 . S
C996 H972 0.950 . S
C996 C991 1.363 . S
C996 C995 1.415 . S
C997 H973 0.951 . S
C997 C998 1.366 . S
C997 C999 1.388 . S
C998 C997 1.366 . S
C998 C1002 1.385 . S
C999 H974 0.951 . S
C999 C997 1.388 . S
C999 C1000 1.366 . S
C1000 C999 1.366 . S
C1000 C1001 1.414 . S
C1000 C1003 1.499 . S
C1001 H975 0.950 . S
C1001 C1000 1.414 . S
C1001 C1002 1.374 . S
C1002 H976 0.950 . S
C1002 C998 1.385 . S
C1002 C1001 1.374 . S
C1003 C1000 1.499 . S
C1003 C1004 1.373 . S
C1003 C1005 1.389 . S
C1004 H977 0.950 . S
C1004 C990 1.377 . S
C1004 C1003 1.373 . S
C1005 C989 1.377 . S
C1005 C1003 1.389 . S
C1005 C1006 1.524 . S
C1006 C1005 1.524 . S
C1006 C1007 1.397 . S
C1006 C1011 1.363 . S
C1007 H978 0.950 . S
C1007 C1006 1.397 . S
C1007 C1008 1.334 . S
C1008 H979 0.950 . S
C1008 C1007 1.334 . S
C1008 C1009 1.287 . S
C1009 C1008 1.287 . S
C1009 C1010 1.524 . S
C1009 H1012 0.999 . S
C1010 H980 0.950 . S
C1010 C1009 1.524 . S
C1010 C1011 1.415 . S
C1011 H981 0.950 . S
C1011 C1006 1.363 . S
C1011 C1010 1.415 . S
H1012 C1009 0.999 . S
H1013 C994 0.913 . S
H1014 C1032 0.951 . S
H1015 C1034 0.951 . S
H1016 C1036 0.950 . S
H1017 C1037 0.950 . S
H1018 C1039 0.950 . S
H1019 C1042 0.950 . S
H1020 C1043 0.950 . S
H1021 C1045 0.950 . S
H1022 C1046 0.950 . S
H1023 C1047 0.951 . S
H1024 C1049 0.951 . S
H1025 C1051 0.950 . S
H1026 C1052 0.950 . S
H1027 C1054 0.950 . S
H1028 C1057 0.950 . S
H1029 C1058 0.950 1_655 S
H1030 C1060 0.950 . S
H1031 C1061 0.950 . S
C1032 H1014 0.951 . S
C1032 C1033 1.366 . S
C1032 C1034 1.388 . S
C1033 C1032 1.366 . S
C1033 C1037 1.385 . S
C1034 H1015 0.951 . S
C1034 C1032 1.388 . S
C1034 C1035 1.366 . S
C1035 C1034 1.366 . S
C1035 C1036 1.414 . S
C1035 C1038 1.499 . S
C1036 H1016 0.950 . S
C1036 C1035 1.414 . S
C1036 C1037 1.374 . S
C1037 H1017 0.950 . S
C1037 C1033 1.385 . S
C1037 C1036 1.374 . S
C1038 C1035 1.499 . S
C1038 C1039 1.373 . S
C1038 C1040 1.389 . S
C1039 H1018 0.950 . S
C1039 C1038 1.373 . S
C1039 C1055 1.377 . S
C1040 C1038 1.389 . S
C1040 C1041 1.524 . S
C1040 C1054 1.377 . S
C1041 C1040 1.524 . S
C1041 C1042 1.397 . S
C1041 C1046 1.363 . S
C1042 H1019 0.950 . S
C1042 C1041 1.397 . S
C1042 C1043 1.334 . S
C1043 H1020 0.950 . S
C1043 C1042 1.334 . S
C1043 C1044 1.287 . S
C1044 C1043 1.287 . S
C1044 C1045 1.524 . S
C1044 H1063 0.913 . S
C1045 H1021 0.950 . S
C1045 C1044 1.524 . S
C1045 C1046 1.415 . S
C1046 H1022 0.950 . S
C1046 C1041 1.363 . S
C1046 C1045 1.415 . S
C1047 H1023 0.951 . S
C1047 C1048 1.366 . S
C1047 C1049 1.388 . S
C1048 C1047 1.366 . S
C1048 C1052 1.385 . S
C1049 H1024 0.951 . S
C1049 C1047 1.388 . S
C1049 C1050 1.366 . S
C1050 C1049 1.366 . S
C1050 C1051 1.414 . S
C1050 C1053 1.499 . S
C1051 H1025 0.950 . S
C1051 C1050 1.414 . S
C1051 C1052 1.374 . S
C1052 H1026 0.950 . S
C1052 C1048 1.385 . S
C1052 C1051 1.374 . S
C1053 C1050 1.499 . S
C1053 C1054 1.373 . S
C1053 C1055 1.389 . S
C1054 H1027 0.950 . S
C1054 C1040 1.377 . S
C1054 C1053 1.373 . S
C1055 C1039 1.377 . S
C1055 C1053 1.389 . S
C1055 C1056 1.524 . S
C1056 C1055 1.524 . S
C1056 C1057 1.397 . S
C1056 C1061 1.363 . S
C1057 H1028 0.950 . S
C1057 C1056 1.397 . S
C1057 C1058 1.334 . S
C1058 H1029 0.950 1_455 S
C1058 C1057 1.334 . S
C1058 C1059 1.287 . S
C1059 C1058 1.287 . S
C1059 C1060 1.524 . S
C1059 H1062 0.999 1_455 S
C1060 H1030 0.950 . S
C1060 C1059 1.524 . S
C1060 C1061 1.415 . S
C1061 H1031 0.950 . S
C1061 C1056 1.363 . S
C1061 C1060 1.415 . S
H1062 C1059 0.999 1_655 S
H1063 C1044 0.913 . S
H1064 C1082 0.951 . S
H1065 C1084 0.951 . S
H1066 C1086 0.950 . S
H1067 C1087 0.950 . S
H1068 C1089 0.950 . S
H1069 C1092 0.950 . S
H1070 C1093 0.950 . S
H1071 C1095 0.950 . S
H1072 C1096 0.950 . S
H1073 C1097 0.951 . S
H1074 C1099 0.951 . S
H1075 C1101 0.950 . S
H1076 C1102 0.950 . S
H1077 C1104 0.950 . S
H1078 C1107 0.950 . S
H1079 C1108 0.950 . S
H1080 C1110 0.950 . S
H1081 C1111 0.950 . S
C1082 H1064 0.951 . S
C1082 C1083 1.366 . S
C1082 C1084 1.388 . S
C1083 C1082 1.366 . S
C1083 C1087 1.385 . S
C1084 H1065 0.951 . S
C1084 C1082 1.388 . S
C1084 C1085 1.366 . S
C1085 C1084 1.366 . S
C1085 C1086 1.414 . S
C1085 C1088 1.499 . S
C1086 H1066 0.950 . S
C1086 C1085 1.414 . S
C1086 C1087 1.374 . S
C1087 H1067 0.950 . S
C1087 C1083 1.385 . S
C1087 C1086 1.374 . S
C1088 C1085 1.499 . S
C1088 C1089 1.373 . S
C1088 C1090 1.389 . S
C1089 H1068 0.950 . S
C1089 C1088 1.373 . S
C1089 C1105 1.377 . S
C1090 C1088 1.389 . S
C1090 C1091 1.524 . S
C1090 C1104 1.377 . S
C1091 C1090 1.524 . S
C1091 C1092 1.397 . S
C1091 C1096 1.363 . S
C1092 H1069 0.950 . S
C1092 C1091 1.397 . S
C1092 C1093 1.334 . S
C1093 H1070 0.950 . S
C1093 C1092 1.334 . S
C1093 C1094 1.287 . S
C1094 C1093 1.287 . S
C1094 C1095 1.524 . S
C1094 H1113 0.913 . S
C1095 H1071 0.950 . S
C1095 C1094 1.524 . S
C1095 C1096 1.415 . S
C1096 H1072 0.950 . S
C1096 C1091 1.363 . S
C1096 C1095 1.415 . S
C1097 H1073 0.951 . S
C1097 C1098 1.366 . S
C1097 C1099 1.388 . S
C1098 C1097 1.366 . S
C1098 C1102 1.385 . S
C1099 H1074 0.951 . S
C1099 C1097 1.388 . S
C1099 C1100 1.366 . S
C1100 C1099 1.366 . S
C1100 C1101 1.414 . S
C1100 C1103 1.499 . S
C1101 H1075 0.950 . S
C1101 C1100 1.414 . S
C1101 C1102 1.374 . S
C1102 H1076 0.950 . S
C1102 C1098 1.385 . S
C1102 C1101 1.374 . S
C1103 C1100 1.499 . S
C1103 C1104 1.373 . S
C1103 C1105 1.389 . S
C1104 H1077 0.950 . S
C1104 C1090 1.377 . S
C1104 C1103 1.373 . S
C1105 C1089 1.377 . S
C1105 C1103 1.389 . S
C1105 C1106 1.524 . S
C1106 C1105 1.524 . S
C1106 C1107 1.397 . S
C1106 C1111 1.363 . S
C1107 H1078 0.950 . S
C1107 C1106 1.397 . S
C1107 C1108 1.334 . S
C1108 H1079 0.950 . S
C1108 C1107 1.334 . S
C1108 C1109 1.287 . S
C1109 C1108 1.287 . S
C1109 C1110 1.524 . S
C1109 H1112 0.999 . S
C1110 H1080 0.950 . S
C1110 C1109 1.524 . S
C1110 C1111 1.415 . S
C1111 H1081 0.950 . S
C1111 C1106 1.363 . S
C1111 C1110 1.415 . S
H1112 C1109 0.999 . S
H1113 C1094 0.913 . S
H1114 C1132 0.951 . S
H1115 C1134 0.951 . S
H1116 C1136 0.950 . S
H1117 C1137 0.950 . S
H1118 C1139 0.950 . S
H1119 C1142 0.950 . S
H1120 C1143 0.950 . S
H1121 C1145 0.950 . S
H1122 C1146 0.950 . S
H1123 C1147 0.951 . S
H1124 C1149 0.951 . S
H1125 C1151 0.950 . S
H1126 C1152 0.950 . S
H1127 C1154 0.950 . S
H1128 C1157 0.950 . S
H1129 C1158 0.950 . S
H1130 C1160 0.950 . S
H1131 C1161 0.950 . S
C1132 H1114 0.951 . S
C1132 C1133 1.366 . S
C1132 C1134 1.388 . S
C1133 C1132 1.366 . S
C1133 C1137 1.385 . S
C1134 H1115 0.951 . S
C1134 C1132 1.388 . S
C1134 C1135 1.366 . S
C1135 C1134 1.366 . S
C1135 C1136 1.414 . S
C1135 C1138 1.499 . S
C1136 H1116 0.950 . S
C1136 C1135 1.414 . S
C1136 C1137 1.374 . S
C1137 H1117 0.950 . S
C1137 C1133 1.385 . S
C1137 C1136 1.374 . S
C1138 C1135 1.499 . S
C1138 C1139 1.373 . S
C1138 C1140 1.389 . S
C1139 H1118 0.950 . S
C1139 C1138 1.373 . S
C1139 C1155 1.377 . S
C1140 C1138 1.389 . S
C1140 C1141 1.524 . S
C1140 C1154 1.377 . S
C1141 C1140 1.524 . S
C1141 C1142 1.397 . S
C1141 C1146 1.363 . S
C1142 H1119 0.950 . S
C1142 C1141 1.397 . S
C1142 C1143 1.334 . S
C1143 H1120 0.950 . S
C1143 C1142 1.334 . S
C1143 C1144 1.287 . S
C1144 C1143 1.287 . S
C1144 C1145 1.524 . S
C1144 H1163 0.913 . S
C1145 H1121 0.950 . S
C1145 C1144 1.524 . S
C1145 C1146 1.415 . S
C1146 H1122 0.950 . S
C1146 C1141 1.363 . S
C1146 C1145 1.415 . S
C1147 H1123 0.951 . S
C1147 C1148 1.366 . S
C1147 C1149 1.388 . S
C1148 C1147 1.366 . S
C1148 C1152 1.385 . S
C1149 H1124 0.951 . S
C1149 C1147 1.388 . S
C1149 C1150 1.366 . S
C1150 C1149 1.366 . S
C1150 C1151 1.414 . S
C1150 C1153 1.499 . S
C1151 H1125 0.950 . S
C1151 C1150 1.414 . S
C1151 C1152 1.374 . S
C1152 H1126 0.950 . S
C1152 C1148 1.385 . S
C1152 C1151 1.374 . S
C1153 C1150 1.499 . S
C1153 C1154 1.373 . S
C1153 C1155 1.389 . S
C1154 H1127 0.950 . S
C1154 C1140 1.377 . S
C1154 C1153 1.373 . S
C1155 C1139 1.377 . S
C1155 C1153 1.389 . S
C1155 C1156 1.524 . S
C1156 C1155 1.524 . S
C1156 C1157 1.397 . S
C1156 C1161 1.363 . S
C1157 H1128 0.950 . S
C1157 C1156 1.397 . S
C1157 C1158 1.334 . S
C1158 H1129 0.950 . S
C1158 C1157 1.334 . S
C1158 C1159 1.287 . S
C1159 C1158 1.287 . S
C1159 C1160 1.524 . S
C1159 H1162 0.999 . S
C1160 H1130 0.950 . S
C1160 C1159 1.524 . S
C1160 C1161 1.415 . S
C1161 H1131 0.950 . S
C1161 C1156 1.363 . S
C1161 C1160 1.415 . S
H1162 C1159 0.999 . S
H1163 C1144 0.913 . S
H1164 C1182 0.951 . S
H1165 C1184 0.951 . S
H1166 C1186 0.950 . S
H1167 C1187 0.950 . S
H1168 C1189 0.950 . S
H1169 C1192 0.950 . S
H1170 C1193 0.950 . S
H1171 C1195 0.950 . S
H1172 C1196 0.950 . S
H1173 C1197 0.951 . S
H1174 C1199 0.951 . S
H1175 C1201 0.950 . S
H1176 C1202 0.950 . S
H1177 C1204 0.950 . S
H1178 C1207 0.950 . S
H1179 C1208 0.950 1_565 S
H1180 C1210 0.950 . S
H1181 C1211 0.950 . S
C1182 H1164 0.951 . S
C1182 C1183 1.366 . S
C1182 C1184 1.388 . S
C1183 C1182 1.366 . S
C1183 C1187 1.385 . S
C1184 H1165 0.951 . S
C1184 C1182 1.388 . S
C1184 C1185 1.366 . S
C1185 C1184 1.366 . S
C1185 C1186 1.414 . S
C1185 C1188 1.499 . S
C1186 H1166 0.950 . S
C1186 C1185 1.414 . S
C1186 C1187 1.374 . S
C1187 H1167 0.950 . S
C1187 C1183 1.385 . S
C1187 C1186 1.374 . S
C1188 C1185 1.499 . S
C1188 C1189 1.373 . S
C1188 C1190 1.389 . S
C1189 H1168 0.950 . S
C1189 C1188 1.373 . S
C1189 C1205 1.377 . S
C1190 C1188 1.389 . S
C1190 C1191 1.524 . S
C1190 C1204 1.377 . S
C1191 C1190 1.524 . S
C1191 C1192 1.397 . S
C1191 C1196 1.363 . S
C1192 H1169 0.950 . S
C1192 C1191 1.397 . S
C1192 C1193 1.334 . S
C1193 H1170 0.950 . S
C1193 C1192 1.334 . S
C1193 C1194 1.287 . S
C1194 C1193 1.287 . S
C1194 C1195 1.524 . S
C1194 H1213 0.913 . S
C1195 H1171 0.950 . S
C1195 C1194 1.524 . S
C1195 C1196 1.415 . S
C1196 H1172 0.950 . S
C1196 C1191 1.363 . S
C1196 C1195 1.415 . S
C1197 H1173 0.951 . S
C1197 C1198 1.366 . S
C1197 C1199 1.388 . S
C1198 C1197 1.366 . S
C1198 C1202 1.385 . S
C1199 H1174 0.951 . S
C1199 C1197 1.388 . S
C1199 C1200 1.366 . S
C1200 C1199 1.366 . S
C1200 C1201 1.414 . S
C1200 C1203 1.499 . S
C1201 H1175 0.950 . S
C1201 C1200 1.414 . S
C1201 C1202 1.374 . S
C1202 H1176 0.950 . S
C1202 C1198 1.385 . S
C1202 C1201 1.374 . S
C1203 C1200 1.499 . S
C1203 C1204 1.373 . S
C1203 C1205 1.389 . S
C1204 H1177 0.950 . S
C1204 C1190 1.377 . S
C1204 C1203 1.373 . S
C1205 C1189 1.377 . S
C1205 C1203 1.389 . S
C1205 C1206 1.524 . S
C1206 C1205 1.524 . S
C1206 C1207 1.397 . S
C1206 C1211 1.363 . S
C1207 H1178 0.950 . S
C1207 C1206 1.397 . S
C1207 C1208 1.334 . S
C1208 H1179 0.950 1_545 S
C1208 C1207 1.334 . S
C1208 C1209 1.287 1_545 S
C1209 C1208 1.287 1_565 S
C1209 C1210 1.524 1_565 S
C1209 H1212 0.999 . S
C1210 H1180 0.950 . S
C1210 C1209 1.524 1_545 S
C1210 C1211 1.415 . S
C1211 H1181 0.950 . S
C1211 C1206 1.363 . S
C1211 C1210 1.415 . S
H1212 C1209 0.999 . S
H1213 C1194 0.913 . S
H1214 C1232 0.951 . S
H1215 C1234 0.951 . S
H1216 C1236 0.950 . S
H1217 C1237 0.950 . S
H1218 C1239 0.950 . S
H1219 C1242 0.950 . S
H1220 C1243 0.950 . S
H1221 C1245 0.950 . S
H1222 C1246 0.950 . S
H1223 C1247 0.951 . S
H1224 C1249 0.951 . S
H1225 C1251 0.950 . S
H1226 C1252 0.950 . S
H1227 C1254 0.950 . S
H1228 C1257 0.950 . S
H1229 C1258 0.950 . S
H1230 C1260 0.950 . S
H1231 C1261 0.950 . S
C1232 H1214 0.951 . S
C1232 C1233 1.366 . S
C1232 C1234 1.388 . S
C1233 C1232 1.366 . S
C1233 C1237 1.385 . S
C1234 H1215 0.951 . S
C1234 C1232 1.388 . S
C1234 C1235 1.366 . S
C1235 C1234 1.366 . S
C1235 C1236 1.414 . S
C1235 C1238 1.499 . S
C1236 H1216 0.950 . S
C1236 C1235 1.414 . S
C1236 C1237 1.374 . S
C1237 H1217 0.950 . S
C1237 C1233 1.385 . S
C1237 C1236 1.374 . S
C1238 C1235 1.499 . S
C1238 C1239 1.373 . S
C1238 C1240 1.389 . S
C1239 H1218 0.950 . S
C1239 C1238 1.373 . S
C1239 C1255 1.377 . S
C1240 C1238 1.389 . S
C1240 C1241 1.524 . S
C1240 C1254 1.377 . S
C1241 C1240 1.524 . S
C1241 C1242 1.397 . S
C1241 C1246 1.363 . S
C1242 H1219 0.950 . S
C1242 C1241 1.397 . S
C1242 C1243 1.334 . S
C1243 H1220 0.950 . S
C1243 C1242 1.334 . S
C1243 C1244 1.287 . S
C1244 C1243 1.287 . S
C1244 C1245 1.524 . S
C1244 H1263 0.913 . S
C1245 H1221 0.950 . S
C1245 C1244 1.524 . S
C1245 C1246 1.415 . S
C1246 H1222 0.950 . S
C1246 C1241 1.363 . S
C1246 C1245 1.415 . S
C1247 H1223 0.951 . S
C1247 C1248 1.366 . S
C1247 C1249 1.388 . S
C1248 C1247 1.366 . S
C1248 C1252 1.385 . S
C1249 H1224 0.951 . S
C1249 C1247 1.388 . S
C1249 C1250 1.366 . S
C1250 C1249 1.366 . S
C1250 C1251 1.414 . S
C1250 C1253 1.499 . S
C1251 H1225 0.950 . S
C1251 C1250 1.414 . S
C1251 C1252 1.374 . S
C1252 H1226 0.950 . S
C1252 C1248 1.385 . S
C1252 C1251 1.374 . S
C1253 C1250 1.499 . S
C1253 C1254 1.373 . S
C1253 C1255 1.389 . S
C1254 H1227 0.950 . S
C1254 C1240 1.377 . S
C1254 C1253 1.373 . S
C1255 C1239 1.377 . S
C1255 C1253 1.389 . S
C1255 C1256 1.524 . S
C1256 C1255 1.524 . S
C1256 C1257 1.397 . S
C1256 C1261 1.363 . S
C1257 H1228 0.950 . S
C1257 C1256 1.397 . S
C1257 C1258 1.334 . S
C1258 H1229 0.950 . S
C1258 C1257 1.334 . S
C1258 C1259 1.287 . S
C1259 C1258 1.287 . S
C1259 C1260 1.524 . S
C1259 H1262 0.999 . S
C1260 H1230 0.950 . S
C1260 C1259 1.524 . S
C1260 C1261 1.415 . S
C1261 H1231 0.950 . S
C1261 C1256 1.363 . S
C1261 C1260 1.415 . S
H1262 C1259 0.999 . S
H1263 C1244 0.913 . S
H1264 C1282 0.951 . S
H1265 C1284 0.951 . S
H1266 C1286 0.950 . S
H1267 C1287 0.950 . S
H1268 C1289 0.950 . S
H1269 C1292 0.950 . S
H1270 C1293 0.950 . S
H1271 C1295 0.950 . S
H1272 C1296 0.950 . S
H1273 C1297 0.951 . S
H1274 C1299 0.951 . S
H1275 C1301 0.950 . S
H1276 C1302 0.950 . S
H1277 C1304 0.950 . S
H1278 C1307 0.950 . S
H1279 C1308 0.950 . S
H1280 C1310 0.950 . S
H1281 C1311 0.950 . S
C1282 H1264 0.951 . S
C1282 C1283 1.366 . S
C1282 C1284 1.388 . S
C1283 C1282 1.366 . S
C1283 C1287 1.385 . S
C1284 H1265 0.951 . S
C1284 C1282 1.388 . S
C1284 C1285 1.366 . S
C1285 C1284 1.366 . S
C1285 C1286 1.414 . S
C1285 C1288 1.499 . S
C1286 H1266 0.950 . S
C1286 C1285 1.414 . S
C1286 C1287 1.374 . S
C1287 H1267 0.950 . S
C1287 C1283 1.385 . S
C1287 C1286 1.374 . S
C1288 C1285 1.499 . S
C1288 C1289 1.373 . S
C1288 C1290 1.389 . S
C1289 H1268 0.950 . S
C1289 C1288 1.373 . S
C1289 C1305 1.377 . S
C1290 C1288 1.389 . S
C1290 C1291 1.524 . S
C1290 C1304 1.377 . S
C1291 C1290 1.524 . S
C1291 C1292 1.397 . S
C1291 C1296 1.363 . S
C1292 H1269 0.950 . S
C1292 C1291 1.397 . S
C1292 C1293 1.334 . S
C1293 H1270 0.950 . S
C1293 C1292 1.334 . S
C1293 C1294 1.287 . S
C1294 C1293 1.287 . S
C1294 C1295 1.524 . S
C1294 H1313 0.913 . S
C1295 H1271 0.950 . S
C1295 C1294 1.524 . S
C1295 C1296 1.415 . S
C1296 H1272 0.950 . S
C1296 C1291 1.363 . S
C1296 C1295 1.415 . S
C1297 H1273 0.951 . S
C1297 C1298 1.366 . S
C1297 C1299 1.388 . S
C1298 C1297 1.366 . S
C1298 C1302 1.385 . S
C1299 H1274 0.951 . S
C1299 C1297 1.388 . S
C1299 C1300 1.366 . S
C1300 C1299 1.366 . S
C1300 C1301 1.414 . S
C1300 C1303 1.499 . S
C1301 H1275 0.950 . S
C1301 C1300 1.414 . S
C1301 C1302 1.374 . S
C1302 H1276 0.950 . S
C1302 C1298 1.385 . S
C1302 C1301 1.374 . S
C1303 C1300 1.499 . S
C1303 C1304 1.373 . S
C1303 C1305 1.389 . S
C1304 H1277 0.950 . S
C1304 C1290 1.377 . S
C1304 C1303 1.373 . S
C1305 C1289 1.377 . S
C1305 C1303 1.389 . S
C1305 C1306 1.524 . S
C1306 C1305 1.524 . S
C1306 C1307 1.397 . S
C1306 C1311 1.363 . S
C1307 H1278 0.950 . S
C1307 C1306 1.397 . S
C1307 C1308 1.334 . S
C1308 H1279 0.950 . S
C1308 C1307 1.334 . S
C1308 C1309 1.287 . S
C1309 C1308 1.287 . S
C1309 C1310 1.524 . S
C1309 H1312 0.999 . S
C1310 H1280 0.950 . S
C1310 C1309 1.524 . S
C1310 C1311 1.415 . S
C1311 H1281 0.950 . S
C1311 C1306 1.363 . S
C1311 C1310 1.415 . S
H1312 C1309 0.999 . S
H1313 C1294 0.913 . S
H1314 C1332 0.951 . S
H1315 C1334 0.951 . S
H1316 C1336 0.950 . S
H1317 C1337 0.950 . S
H1318 C1339 0.950 . S
H1319 C1342 0.950 . S
H1320 C1343 0.950 . S
H1321 C1345 0.950 . S
H1322 C1346 0.950 . S
H1323 C1347 0.951 . S
H1324 C1349 0.951 . S
H1325 C1351 0.950 . S
H1326 C1352 0.950 . S
H1327 C1354 0.950 . S
H1328 C1357 0.950 . S
H1329 C1358 0.950 . S
H1330 C1360 0.950 . S
H1331 C1361 0.950 . S
C1332 H1314 0.951 . S
C1332 C1333 1.366 . S
C1332 C1334 1.388 . S
C1333 C1332 1.366 . S
C1333 C1337 1.385 . S
C1334 H1315 0.951 . S
C1334 C1332 1.388 . S
C1334 C1335 1.366 . S
C1335 C1334 1.366 . S
C1335 C1336 1.414 . S
C1335 C1338 1.499 . S
C1336 H1316 0.950 . S
C1336 C1335 1.414 . S
C1336 C1337 1.374 . S
C1337 H1317 0.950 . S
C1337 C1333 1.385 . S
C1337 C1336 1.374 . S
C1338 C1335 1.499 . S
C1338 C1339 1.373 . S
C1338 C1340 1.389 . S
C1339 H1318 0.950 . S
C1339 C1338 1.373 . S
C1339 C1355 1.377 . S
C1340 C1338 1.389 . S
C1340 C1341 1.524 . S
C1340 C1354 1.377 . S
C1341 C1340 1.524 . S
C1341 C1342 1.397 . S
C1341 C1346 1.363 . S
C1342 H1319 0.950 . S
C1342 C1341 1.397 . S
C1342 C1343 1.334 . S
C1343 H1320 0.950 . S
C1343 C1342 1.334 . S
C1343 C1344 1.287 . S
C1344 C1343 1.287 . S
C1344 C1345 1.524 . S
C1344 H1363 0.913 . S
C1345 H1321 0.950 . S
C1345 C1344 1.524 . S
C1345 C1346 1.415 . S
C1346 H1322 0.950 . S
C1346 C1341 1.363 . S
C1346 C1345 1.415 . S
C1347 H1323 0.951 . S
C1347 C1348 1.366 . S
C1347 C1349 1.388 . S
C1348 C1347 1.366 . S
C1348 C1352 1.385 . S
C1349 H1324 0.951 . S
C1349 C1347 1.388 . S
C1349 C1350 1.366 . S
C1350 C1349 1.366 . S
C1350 C1351 1.414 . S
C1350 C1353 1.499 . S
C1351 H1325 0.950 . S
C1351 C1350 1.414 . S
C1351 C1352 1.374 . S
C1352 H1326 0.950 . S
C1352 C1348 1.385 . S
C1352 C1351 1.374 . S
C1353 C1350 1.499 . S
C1353 C1354 1.373 . S
C1353 C1355 1.389 . S
C1354 H1327 0.950 . S
C1354 C1340 1.377 . S
C1354 C1353 1.373 . S
C1355 C1339 1.377 . S
C1355 C1353 1.389 . S
C1355 C1356 1.524 . S
C1356 C1355 1.524 . S
C1356 C1357 1.397 . S
C1356 C1361 1.363 . S
C1357 H1328 0.950 . S
C1357 C1356 1.397 . S
C1357 C1358 1.334 . S
C1358 H1329 0.950 . S
C1358 C1357 1.334 . S
C1358 C1359 1.287 . S
C1359 C1358 1.287 . S
C1359 C1360 1.524 . S
C1359 H1362 0.999 . S
C1360 H1330 0.950 . S
C1360 C1359 1.524 . S
C1360 C1361 1.415 . S
C1361 H1331 0.950 . S
C1361 C1356 1.363 . S
C1361 C1360 1.415 . S
H1362 C1359 0.999 . S
H1363 C1344 0.913 . S
H1364 C1382 0.951 . S
H1365 C1384 0.951 . S
H1366 C1386 0.950 . S
H1367 C1387 0.950 . S
H1368 C1389 0.950 . S
H1369 C1392 0.950 . S
H1370 C1393 0.950 . S
H1371 C1395 0.950 . S
H1372 C1396 0.950 . S
H1373 C1397 0.951 . S
H1374 C1399 0.951 . S
H1375 C1401 0.950 . S
H1376 C1402 0.950 . S
H1377 C1404 0.950 . S
H1378 C1407 0.950 . S
H1379 C1408 0.950 . S
H1380 C1410 0.950 . S
H1381 C1411 0.950 . S
C1382 H1364 0.951 . S
C1382 C1383 1.366 . S
C1382 C1384 1.388 . S
C1383 C1382 1.366 . S
C1383 C1387 1.385 . S
C1384 H1365 0.951 . S
C1384 C1382 1.388 . S
C1384 C1385 1.366 . S
C1385 C1384 1.366 . S
C1385 C1386 1.414 . S
C1385 C1388 1.499 . S
C1386 H1366 0.950 . S
C1386 C1385 1.414 . S
C1386 C1387 1.374 . S
C1387 H1367 0.950 . S
C1387 C1383 1.385 . S
C1387 C1386 1.374 . S
C1388 C1385 1.499 . S
C1388 C1389 1.373 . S
C1388 C1390 1.389 . S
C1389 H1368 0.950 . S
C1389 C1388 1.373 . S
C1389 C1405 1.377 . S
C1390 C1388 1.389 . S
C1390 C1391 1.524 . S
C1390 C1404 1.377 . S
C1391 C1390 1.524 . S
C1391 C1392 1.397 . S
C1391 C1396 1.363 . S
C1392 H1369 0.950 . S
C1392 C1391 1.397 . S
C1392 C1393 1.334 . S
C1393 H1370 0.950 . S
C1393 C1392 1.334 . S
C1393 C1394 1.287 . S
C1394 C1393 1.287 . S
C1394 C1395 1.524 . S
C1394 H1413 0.913 . S
C1395 H1371 0.950 . S
C1395 C1394 1.524 . S
C1395 C1396 1.415 . S
C1396 H1372 0.950 . S
C1396 C1391 1.363 . S
C1396 C1395 1.415 . S
C1397 H1373 0.951 . S
C1397 C1398 1.366 . S
C1397 C1399 1.388 . S
C1398 C1397 1.366 . S
C1398 C1402 1.385 . S
C1399 H1374 0.951 . S
C1399 C1397 1.388 . S
C1399 C1400 1.366 . S
C1400 C1399 1.366 . S
C1400 C1401 1.414 . S
C1400 C1403 1.499 . S
C1401 H1375 0.950 . S
C1401 C1400 1.414 . S
C1401 C1402 1.374 . S
C1402 H1376 0.950 . S
C1402 C1398 1.385 . S
C1402 C1401 1.374 . S
C1403 C1400 1.499 . S
C1403 C1404 1.373 . S
C1403 C1405 1.389 . S
C1404 H1377 0.950 . S
C1404 C1390 1.377 . S
C1404 C1403 1.373 . S
C1405 C1389 1.377 . S
C1405 C1403 1.389 . S
C1405 C1406 1.524 . S
C1406 C1405 1.524 . S
C1406 C1407 1.397 . S
C1406 C1411 1.363 . S
C1407 H1378 0.950 . S
C1407 C1406 1.397 . S
C1407 C1408 1.334 . S
C1408 H1379 0.950 . S
C1408 C1407 1.334 . S
C1408 C1409 1.287 . S
C1409 C1408 1.287 . S
C1409 C1410 1.524 . S
C1409 H1412 0.999 . S
C1410 H1380 0.950 . S
C1410 C1409 1.524 . S
C1410 C1411 1.415 . S
C1411 H1381 0.950 . S
C1411 C1406 1.363 . S
C1411 C1410 1.415 . S
H1412 C1409 0.999 . S
H1413 C1394 0.913 . S
H1414 C1432 0.951 . S
H1415 C1434 0.951 . S
H1416 C1436 0.950 . S
H1417 C1437 0.950 . S
H1418 C1439 0.950 . S
H1419 C1442 0.950 . S
H1420 C1443 0.950 . S
H1421 C1445 0.950 . S
H1422 C1446 0.950 . S
H1423 C1447 0.951 . S
H1424 C1449 0.951 . S
H1425 C1451 0.950 . S
H1426 C1452 0.950 . S
H1427 C1454 0.950 . S
H1428 C1457 0.950 . S
H1429 C1458 0.950 . S
H1430 C1460 0.950 . S
H1431 C1461 0.950 . S
C1432 H1414 0.951 . S
C1432 C1433 1.366 . S
C1432 C1434 1.388 . S
C1433 C1432 1.366 . S
C1433 C1437 1.385 . S
C1434 H1415 0.951 . S
C1434 C1432 1.388 . S
C1434 C1435 1.366 . S
C1435 C1434 1.366 . S
C1435 C1436 1.414 . S
C1435 C1438 1.499 . S
C1436 H1416 0.950 . S
C1436 C1435 1.414 . S
C1436 C1437 1.374 . S
C1437 H1417 0.950 . S
C1437 C1433 1.385 . S
C1437 C1436 1.374 . S
C1438 C1435 1.499 . S
C1438 C1439 1.373 . S
C1438 C1440 1.389 . S
C1439 H1418 0.950 . S
C1439 C1438 1.373 . S
C1439 C1455 1.377 . S
C1440 C1438 1.389 . S
C1440 C1441 1.524 . S
C1440 C1454 1.377 . S
C1441 C1440 1.524 . S
C1441 C1442 1.397 . S
C1441 C1446 1.363 . S
C1442 H1419 0.950 . S
C1442 C1441 1.397 . S
C1442 C1443 1.334 . S
C1443 H1420 0.950 . S
C1443 C1442 1.334 . S
C1443 C1444 1.287 . S
C1444 C1443 1.287 . S
C1444 C1445 1.524 . S
C1444 H1463 0.913 . S
C1445 H1421 0.950 . S
C1445 C1444 1.524 . S
C1445 C1446 1.415 . S
C1446 H1422 0.950 . S
C1446 C1441 1.363 . S
C1446 C1445 1.415 . S
C1447 H1423 0.951 . S
C1447 C1448 1.366 . S
C1447 C1449 1.388 . S
C1448 C1447 1.366 . S
C1448 C1452 1.385 . S
C1449 H1424 0.951 . S
C1449 C1447 1.388 . S
C1449 C1450 1.366 . S
C1450 C1449 1.366 . S
C1450 C1451 1.414 . S
C1450 C1453 1.499 . S
C1451 H1425 0.950 . S
C1451 C1450 1.414 . S
C1451 C1452 1.374 . S
C1452 H1426 0.950 . S
C1452 C1448 1.385 . S
C1452 C1451 1.374 . S
C1453 C1450 1.499 . S
C1453 C1454 1.373 . S
C1453 C1455 1.389 . S
C1454 H1427 0.950 . S
C1454 C1440 1.377 . S
C1454 C1453 1.373 . S
C1455 C1439 1.377 . S
C1455 C1453 1.389 . S
C1455 C1456 1.524 . S
C1456 C1455 1.524 . S
C1456 C1457 1.397 . S
C1456 C1461 1.363 . S
C1457 H1428 0.950 . S
C1457 C1456 1.397 . S
C1457 C1458 1.334 . S
C1458 H1429 0.950 . S
C1458 C1457 1.334 . S
C1458 C1459 1.287 . S
C1459 C1458 1.287 . S
C1459 C1460 1.524 . S
C1459 H1462 0.999 . S
C1460 H1430 0.950 . S
C1460 C1459 1.524 . S
C1460 C1461 1.415 . S
C1461 H1431 0.950 . S
C1461 C1456 1.363 . S
C1461 C1460 1.415 . S
H1462 C1459 0.999 . S
H1463 C1444 0.913 . S
H1464 C1482 0.951 . S
H1465 C1484 0.951 . S
H1466 C1486 0.950 . S
H1467 C1487 0.950 . S
H1468 C1489 0.950 . S
H1469 C1492 0.950 . S
H1470 C1493 0.950 . S
H1471 C1495 0.950 . S
H1472 C1496 0.950 . S
H1473 C1497 0.951 . S
H1474 C1499 0.951 . S
H1475 C1501 0.950 . S
H1476 C1502 0.950 . S
H1477 C1504 0.950 . S
H1478 C1507 0.950 . S
H1479 C1508 0.950 . S
H1480 C1510 0.950 . S
H1481 C1511 0.950 . S
C1482 H1464 0.951 . S
C1482 C1483 1.366 . S
C1482 C1484 1.388 . S
C1483 C1482 1.366 . S
C1483 C1487 1.385 . S
C1484 H1465 0.951 . S
C1484 C1482 1.388 . S
C1484 C1485 1.366 . S
C1485 C1484 1.366 . S
C1485 C1486 1.414 . S
C1485 C1488 1.499 . S
C1486 H1466 0.950 . S
C1486 C1485 1.414 . S
C1486 C1487 1.374 . S
C1487 H1467 0.950 . S
C1487 C1483 1.385 . S
C1487 C1486 1.374 . S
C1488 C1485 1.499 . S
C1488 C1489 1.373 . S
C1488 C1490 1.389 . S
C1489 H1468 0.950 . S
C1489 C1488 1.373 . S
C1489 C1505 1.377 . S
C1490 C1488 1.389 . S
C1490 C1491 1.524 . S
C1490 C1504 1.377 . S
C1491 C1490 1.524 . S
C1491 C1492 1.397 . S
C1491 C1496 1.363 . S
C1492 H1469 0.950 . S
C1492 C1491 1.397 . S
C1492 C1493 1.334 . S
C1493 H1470 0.950 . S
C1493 C1492 1.334 . S
C1493 C1494 1.287 . S
C1494 C1493 1.287 . S
C1494 C1495 1.524 . S
C1494 H1513 0.913 . S
C1495 H1471 0.950 . S
C1495 C1494 1.524 . S
C1495 C1496 1.415 . S
C1496 H1472 0.950 . S
C1496 C1491 1.363 . S
C1496 C1495 1.415 . S
C1497 H1473 0.951 . S
C1497 C1498 1.366 . S
C1497 C1499 1.388 . S
C1498 C1497 1.366 . S
C1498 C1502 1.385 . S
C1499 H1474 0.951 . S
C1499 C1497 1.388 . S
C1499 C1500 1.366 . S
C1500 C1499 1.366 . S
C1500 C1501 1.414 . S
C1500 C1503 1.499 . S
C1501 H1475 0.950 . S
C1501 C1500 1.414 . S
C1501 C1502 1.374 . S
C1502 H1476 0.950 . S
C1502 C1498 1.385 . S
C1502 C1501 1.374 . S
C1503 C1500 1.499 . S
C1503 C1504 1.373 . S
C1503 C1505 1.389 . S
C1504 H1477 0.950 . S
C1504 C1490 1.377 . S
C1504 C1503 1.373 . S
C1505 C1489 1.377 . S
C1505 C1503 1.389 . S
C1505 C1506 1.524 . S
C1506 C1505 1.524 . S
C1506 C1507 1.397 . S
C1506 C1511 1.363 . S
C1507 H1478 0.950 . S
C1507 C1506 1.397 . S
C1507 C1508 1.334 . S
C1508 H1479 0.950 . S
C1508 C1507 1.334 . S
C1508 C1509 1.287 . S
C1509 C1508 1.287 . S
C1509 C1510 1.524 . S
C1509 H1512 0.999 . S
C1510 H1480 0.950 . S
C1510 C1509 1.524 . S
C1510 C1511 1.415 . S
C1511 H1481 0.950 . S
C1511 C1506 1.363 . S
C1511 C1510 1.415 . S
H1512 C1509 0.999 . S
H1513 C1494 0.913 . S
H1514 C1532 0.951 . S
H1515 C1534 0.951 . S
H1516 C1536 0.950 . S
H1517 C1537 0.950 . S
H1518 C1539 0.950 . S
H1519 C1542 0.950 . S
H1520 C1543 0.950 . S
H1521 C1545 0.950 . S
H1522 C1546 0.950 . S
H1523 C1547 0.951 . S
H1524 C1549 0.951 . S
H1525 C1551 0.950 . S
H1526 C1552 0.950 . S
H1527 C1554 0.950 . S
H1528 C1557 0.950 . S
H1529 C1558 0.950 . S
H1530 C1560 0.950 . S
H1531 C1561 0.950 . S
C1532 H1514 0.951 . S
C1532 C1533 1.366 . S
C1532 C1534 1.388 . S
C1533 C1532 1.366 . S
C1533 C1537 1.385 . S
C1534 H1515 0.951 . S
C1534 C1532 1.388 . S
C1534 C1535 1.366 . S
C1535 C1534 1.366 . S
C1535 C1536 1.414 . S
C1535 C1538 1.499 . S
C1536 H1516 0.950 . S
C1536 C1535 1.414 . S
C1536 C1537 1.374 . S
C1537 H1517 0.950 . S
C1537 C1533 1.385 . S
C1537 C1536 1.374 . S
C1538 C1535 1.499 . S
C1538 C1539 1.373 . S
C1538 C1540 1.389 . S
C1539 H1518 0.950 . S
C1539 C1538 1.373 . S
C1539 C1555 1.377 . S
C1540 C1538 1.389 . S
C1540 C1541 1.524 . S
C1540 C1554 1.377 . S
C1541 C1540 1.524 . S
C1541 C1542 1.397 . S
C1541 C1546 1.363 . S
C1542 H1519 0.950 . S
C1542 C1541 1.397 . S
C1542 C1543 1.334 . S
C1543 H1520 0.950 . S
C1543 C1542 1.334 . S
C1543 C1544 1.287 . S
C1544 C1543 1.287 . S
C1544 C1545 1.524 . S
C1544 H1563 0.913 . S
C1545 H1521 0.950 . S
C1545 C1544 1.524 . S
C1545 C1546 1.415 . S
C1546 H1522 0.950 . S
C1546 C1541 1.363 . S
C1546 C1545 1.415 . S
C1547 H1523 0.951 . S
C1547 C1548 1.366 . S
C1547 C1549 1.388 . S
C1548 C1547 1.366 . S
C1548 C1552 1.385 . S
C1549 H1524 0.951 . S
C1549 C1547 1.388 . S
C1549 C1550 1.366 . S
C1550 C1549 1.366 . S
C1550 C1551 1.414 . S
C1550 C1553 1.499 . S
C1551 H1525 0.950 . S
C1551 C1550 1.414 . S
C1551 C1552 1.374 . S
C1552 H1526 0.950 . S
C1552 C1548 1.385 . S
C1552 C1551 1.374 . S
C1553 C1550 1.499 . S
C1553 C1554 1.373 . S
C1553 C1555 1.389 . S
C1554 H1527 0.950 . S
C1554 C1540 1.377 . S
C1554 C1553 1.373 . S
C1555 C1539 1.377 . S
C1555 C1553 1.389 . S
C1555 C1556 1.524 . S
C1556 C1555 1.524 . S
C1556 C1557 1.397 . S
C1556 C1561 1.363 . S
C1557 H1528 0.950 . S
C1557 C1556 1.397 . S
C1557 C1558 1.334 . S
C1558 H1529 0.950 . S
C1558 C1557 1.334 . S
C1558 C1559 1.287 . S
C1559 C1558 1.287 . S
C1559 C1560 1.524 . S
C1559 H1562 0.999 . S
C1560 H1530 0.950 . S
C1560 C1559 1.524 . S
C1560 C1561 1.415 . S
C1561 H1531 0.950 . S
C1561 C1556 1.363 . S
C1561 C1560 1.415 . S
H1562 C1559 0.999 . S
H1563 C1544 0.913 . S
H1564 C1582 0.951 . S
H1565 C1584 0.951 . S
H1566 C1586 0.950 . S
H1567 C1587 0.950 . S
H1568 C1589 0.950 . S
H1569 C1592 0.950 . S
H1570 C1593 0.950 . S
H1571 C1595 0.950 . S
H1572 C1596 0.950 . S
H1573 C1597 0.951 . S
H1574 C1599 0.951 . S
H1575 C1601 0.950 . S
H1576 C1602 0.950 . S
H1577 C1604 0.950 . S
H1578 C1607 0.950 . S
H1579 C1608 0.950 . S
H1580 C1610 0.950 . S
H1581 C1611 0.950 . S
C1582 H1564 0.951 . S
C1582 C1583 1.366 . S
C1582 C1584 1.388 . S
C1583 C1582 1.366 . S
C1583 C1587 1.385 . S
C1584 H1565 0.951 . S
C1584 C1582 1.388 . S
C1584 C1585 1.366 . S
C1585 C1584 1.366 . S
C1585 C1586 1.414 . S
C1585 C1588 1.499 . S
C1586 H1566 0.950 . S
C1586 C1585 1.414 . S
C1586 C1587 1.374 . S
C1587 H1567 0.950 . S
C1587 C1583 1.385 . S
C1587 C1586 1.374 . S
C1588 C1585 1.499 . S
C1588 C1589 1.373 . S
C1588 C1590 1.389 . S
C1589 H1568 0.950 . S
C1589 C1588 1.373 . S
C1589 C1605 1.377 . S
C1590 C1588 1.389 . S
C1590 C1591 1.524 . S
C1590 C1604 1.377 . S
C1591 C1590 1.524 . S
C1591 C1592 1.397 . S
C1591 C1596 1.363 . S
C1592 H1569 0.950 . S
C1592 C1591 1.397 . S
C1592 C1593 1.334 . S
C1593 H1570 0.950 . S
C1593 C1592 1.334 . S
C1593 C1594 1.287 . S
C1594 C1593 1.287 . S
C1594 C1595 1.524 . S
C1594 H1613 0.913 . S
C1595 H1571 0.950 . S
C1595 C1594 1.524 . S
C1595 C1596 1.415 . S
C1596 H1572 0.950 . S
C1596 C1591 1.363 . S
C1596 C1595 1.415 . S
C1597 H1573 0.951 . S
C1597 C1598 1.366 . S
C1597 C1599 1.388 . S
C1598 C1597 1.366 . S
C1598 C1602 1.385 . S
C1599 H1574 0.951 . S
C1599 C1597 1.388 . S
C1599 C1600 1.366 . S
C1600 C1599 1.366 . S
C1600 C1601 1.414 . S
C1600 C1603 1.499 . S
C1601 H1575 0.950 . S
C1601 C1600 1.414 . S
C1601 C1602 1.374 . S
C1602 H1576 0.950 . S
C1602 C1598 1.385 . S
C1602 C1601 1.374 . S
C1603 C1600 1.499 . S
C1603 C1604 1.373 . S
C1603 C1605 1.389 . S
C1604 H1577 0.950 . S
C1604 C1590 1.377 . S
C1604 C1603 1.373 . S
C1605 C1589 1.377 . S
C1605 C1603 1.389 . S
C1605 C1606 1.524 . S
C1606 C1605 1.524 . S
C1606 C1607 1.397 . S
C1606 C1611 1.363 . S
C1607 H1578 0.950 . S
C1607 C1606 1.397 . S
C1607 C1608 1.334 . S
C1608 H1579 0.950 . S
C1608 C1607 1.334 . S
C1608 C1609 1.287 . S
C1609 C1608 1.287 . S
C1609 C1610 1.524 . S
C1609 H1612 0.999 . S
C1610 H1580 0.950 . S
C1610 C1609 1.524 . S
C1610 C1611 1.415 . S
C1611 H1581 0.950 . S
C1611 C1606 1.363 . S
C1611 C1610 1.415 . S
H1612 C1609 0.999 . S
H1613 C1594 0.913 . S
H1614 C1632 0.951 . S
H1615 C1634 0.951 . S
H1616 C1636 0.950 . S
H1617 C1637 0.950 . S
H1618 C1639 0.950 . S
H1619 C1642 0.950 . S
H1620 C1643 0.950 . S
H1621 C1645 0.950 . S
H1622 C1646 0.950 . S
H1623 C1647 0.951 . S
H1624 C1649 0.951 . S
H1625 C1651 0.950 . S
H1626 C1652 0.950 . S
H1627 C1654 0.950 . S
H1628 C1657 0.950 . S
H1629 C1658 0.950 1_554 S
H1630 C1660 0.950 . S
H1631 C1661 0.950 . S
C1632 H1614 0.951 . S
C1632 C1633 1.366 . S
C1632 C1634 1.388 . S
C1633 C1632 1.366 . S
C1633 C1637 1.385 . S
C1634 H1615 0.951 . S
C1634 C1632 1.388 . S
C1634 C1635 1.366 . S
C1635 C1634 1.366 . S
C1635 C1636 1.414 . S
C1635 C1638 1.499 . S
C1636 H1616 0.950 . S
C1636 C1635 1.414 . S
C1636 C1637 1.374 . S
C1637 H1617 0.950 . S
C1637 C1633 1.385 . S
C1637 C1636 1.374 . S
C1638 C1635 1.499 . S
C1638 C1639 1.373 . S
C1638 C1640 1.389 . S
C1639 H1618 0.950 . S
C1639 C1638 1.373 . S
C1639 C1655 1.377 . S
C1640 C1638 1.389 . S
C1640 C1641 1.524 . S
C1640 C1654 1.377 . S
C1641 C1640 1.524 . S
C1641 C1642 1.397 . S
C1641 C1646 1.363 . S
C1642 H1619 0.950 . S
C1642 C1641 1.397 . S
C1642 C1643 1.334 . S
C1643 H1620 0.950 . S
C1643 C1642 1.334 . S
C1643 C1644 1.287 . S
C1644 C1643 1.287 . S
C1644 C1645 1.524 . S
C1644 H1663 0.913 . S
C1645 H1621 0.950 . S
C1645 C1644 1.524 . S
C1645 C1646 1.415 . S
C1646 H1622 0.950 . S
C1646 C1641 1.363 . S
C1646 C1645 1.415 . S
C1647 H1623 0.951 . S
C1647 C1648 1.366 . S
C1647 C1649 1.388 . S
C1648 C1647 1.366 . S
C1648 C1652 1.385 . S
C1649 H1624 0.951 . S
C1649 C1647 1.388 . S
C1649 C1650 1.366 . S
C1650 C1649 1.366 . S
C1650 C1651 1.414 . S
C1650 C1653 1.499 . S
C1651 H1625 0.950 . S
C1651 C1650 1.414 . S
C1651 C1652 1.374 . S
C1652 H1626 0.950 . S
C1652 C1648 1.385 . S
C1652 C1651 1.374 . S
C1653 C1650 1.499 . S
C1653 C1654 1.373 . S
C1653 C1655 1.389 . S
C1654 H1627 0.950 . S
C1654 C1640 1.377 . S
C1654 C1653 1.373 . S
C1655 C1639 1.377 . S
C1655 C1653 1.389 . S
C1655 C1656 1.524 . S
C1656 C1655 1.524 . S
C1656 C1657 1.397 . S
C1656 C1661 1.363 . S
C1657 H1628 0.950 . S
C1657 C1656 1.397 . S
C1657 C1658 1.334 . S
C1658 H1629 0.950 1_556 S
C1658 C1657 1.334 . S
C1658 C1659 1.287 . S
C1659 C1658 1.287 . S
C1659 C1660 1.524 . S
C1659 H1662 0.999 1_556 S
C1660 H1630 0.950 . S
C1660 C1659 1.524 . S
C1660 C1661 1.415 . S
C1661 H1631 0.950 . S
C1661 C1656 1.363 . S
C1661 C1660 1.415 . S
H1662 C1659 0.999 1_554 S
H1663 C1644 0.913 . S
H1664 C1682 0.951 . S
H1665 C1684 0.951 . S
H1666 C1686 0.950 . S
H1667 C1687 0.950 . S
H1668 C1689 0.950 . S
H1669 C1692 0.950 . S
H1670 C1693 0.950 . S
H1671 C1695 0.950 . S
H1672 C1696 0.950 . S
H1673 C1697 0.951 . S
H1674 C1699 0.951 . S
H1675 C1701 0.950 . S
H1676 C1702 0.950 . S
H1677 C1704 0.950 . S
H1678 C1707 0.950 . S
H1679 C1708 0.950 . S
H1680 C1710 0.950 . S
H1681 C1711 0.950 . S
C1682 H1664 0.951 . S
C1682 C1683 1.366 . S
C1682 C1684 1.388 . S
C1683 C1682 1.366 . S
C1683 C1687 1.385 . S
C1684 H1665 0.951 . S
C1684 C1682 1.388 . S
C1684 C1685 1.366 . S
C1685 C1684 1.366 . S
C1685 C1686 1.414 . S
C1685 C1688 1.499 . S
C1686 H1666 0.950 . S
C1686 C1685 1.414 . S
C1686 C1687 1.374 . S
C1687 H1667 0.950 . S
C1687 C1683 1.385 . S
C1687 C1686 1.374 . S
C1688 C1685 1.499 . S
C1688 C1689 1.373 . S
C1688 C1690 1.389 . S
C1689 H1668 0.950 . S
C1689 C1688 1.373 . S
C1689 C1705 1.377 . S
C1690 C1688 1.389 . S
C1690 C1691 1.524 . S
C1690 C1704 1.377 . S
C1691 C1690 1.524 . S
C1691 C1692 1.397 . S
C1691 C1696 1.363 . S
C1692 H1669 0.950 . S
C1692 C1691 1.397 . S
C1692 C1693 1.334 . S
C1693 H1670 0.950 . S
C1693 C1692 1.334 . S
C1693 C1694 1.287 . S
C1694 C1693 1.287 . S
C1694 C1695 1.524 . S
C1694 H1713 0.913 . S
C1695 H1671 0.950 . S
C1695 C1694 1.524 . S
C1695 C1696 1.415 . S
C1696 H1672 0.950 . S
C1696 C1691 1.363 . S
C1696 C1695 1.415 . S
C1697 H1673 0.951 . S
C1697 C1698 1.366 . S
C1697 C1699 1.388 . S
C1698 C1697 1.366 . S
C1698 C1702 1.385 . S
C1699 H1674 0.951 . S
C1699 C1697 1.388 . S
C1699 C1700 1.366 . S
C1700 C1699 1.366 . S
C1700 C1701 1.414 . S
C1700 C1703 1.499 . S
C1701 H1675 0.950 . S
C1701 C1700 1.414 . S
C1701 C1702 1.374 . S
C1702 H1676 0.950 . S
C1702 C1698 1.385 . S
C1702 C1701 1.374 . S
C1703 C1700 1.499 . S
C1703 C1704 1.373 . S
C1703 C1705 1.389 . S
C1704 H1677 0.950 . S
C1704 C1690 1.377 . S
C1704 C1703 1.373 . S
C1705 C1689 1.377 . S
C1705 C1703 1.389 . S
C1705 C1706 1.524 . S
C1706 C1705 1.524 . S
C1706 C1707 1.397 . S
C1706 C1711 1.363 . S
C1707 H1678 0.950 . S
C1707 C1706 1.397 . S
C1707 C1708 1.334 . S
C1708 H1679 0.950 . S
C1708 C1707 1.334 . S
C1708 C1709 1.287 . S
C1709 C1708 1.287 . S
C1709 C1710 1.524 . S
C1709 H1712 0.999 . S
C1710 H1680 0.950 . S
C1710 C1709 1.524 . S
C1710 C1711 1.415 . S
C1711 H1681 0.950 . S
C1711 C1706 1.363 . S
C1711 C1710 1.415 . S
H1712 C1709 0.999 . S
H1713 C1694 0.913 . S
H1714 C1732 0.951 . S
H1715 C1734 0.951 . S
H1716 C1736 0.950 . S
H1717 C1737 0.950 . S
H1718 C1739 0.950 . S
H1719 C1742 0.950 . S
H1720 C1743 0.950 . S
H1721 C1745 0.950 . S
H1722 C1746 0.950 . S
H1723 C1747 0.951 . S
H1724 C1749 0.951 . S
H1725 C1751 0.950 . S
H1726 C1752 0.950 . S
H1727 C1754 0.950 . S
H1728 C1757 0.950 . S
H1729 C1758 0.950 . S
H1730 C1760 0.950 . S
H1731 C1761 0.950 . S
C1732 H1714 0.951 . S
C1732 C1733 1.366 . S
C1732 C1734 1.388 . S
C1733 C1732 1.366 . S
C1733 C1737 1.385 . S
C1734 H1715 0.951 . S
C1734 C1732 1.388 . S
C1734 C1735 1.366 . S
C1735 C1734 1.366 . S
C1735 C1736 1.414 . S
C1735 C1738 1.499 . S
C1736 H1716 0.950 . S
C1736 C1735 1.414 . S
C1736 C1737 1.374 . S
C1737 H1717 0.950 . S
C1737 C1733 1.385 . S
C1737 C1736 1.374 . S
C1738 C1735 1.499 . S
C1738 C1739 1.373 . S
C1738 C1740 1.389 . S
C1739 H1718 0.950 . S
C1739 C1738 1.373 . S
C1739 C1755 1.377 . S
C1740 C1738 1.389 . S
C1740 C1741 1.524 . S
C1740 C1754 1.377 . S
C1741 C1740 1.524 . S
C1741 C1742 1.397 . S
C1741 C1746 1.363 . S
C1742 H1719 0.950 . S
C1742 C1741 1.397 . S
C1742 C1743 1.334 . S
C1743 H1720 0.950 . S
C1743 C1742 1.334 . S
C1743 C1744 1.287 . S
C1744 C1743 1.287 . S
C1744 C1745 1.524 . S
C1744 H1763 0.913 . S
C1745 H1721 0.950 . S
C1745 C1744 1.524 . S
C1745 C1746 1.415 . S
C1746 H1722 0.950 . S
C1746 C1741 1.363 . S
C1746 C1745 1.415 . S
C1747 H1723 0.951 . S
C1747 C1748 1.366 . S
C1747 C1749 1.388 . S
C1748 C1747 1.366 . S
C1748 C1752 1.385 . S
C1749 H1724 0.951 . S
C1749 C1747 1.388 . S
C1749 C1750 1.366 . S
C1750 C1749 1.366 . S
C1750 C1751 1.414 . S
C1750 C1753 1.499 . S
C1751 H1725 0.950 . S
C1751 C1750 1.414 . S
C1751 C1752 1.374 . S
C1752 H1726 0.950 . S
C1752 C1748 1.385 . S
C1752 C1751 1.374 . S
C1753 C1750 1.499 . S
C1753 C1754 1.373 . S
C1753 C1755 1.389 . S
C1754 H1727 0.950 . S
C1754 C1740 1.377 . S
C1754 C1753 1.373 . S
C1755 C1739 1.377 . S
C1755 C1753 1.389 . S
C1755 C1756 1.524 . S
C1756 C1755 1.524 . S
C1756 C1757 1.397 . S
C1756 C1761 1.363 . S
C1757 H1728 0.950 . S
C1757 C1756 1.397 . S
C1757 C1758 1.334 . S
C1758 H1729 0.950 . S
C1758 C1757 1.334 . S
C1758 C1759 1.287 . S
C1759 C1758 1.287 . S
C1759 C1760 1.524 . S
C1759 H1762 0.999 . S
C1760 H1730 0.950 . S
C1760 C1759 1.524 . S
C1760 C1761 1.415 . S
C1761 H1731 0.950 . S
C1761 C1756 1.363 . S
C1761 C1760 1.415 . S
H1762 C1759 0.999 . S
H1763 C1744 0.913 . S
H1764 C1782 0.951 . S
H1765 C1784 0.951 . S
H1766 C1786 0.950 . S
H1767 C1787 0.950 . S
H1768 C1789 0.950 . S
H1769 C1792 0.950 . S
H1770 C1793 0.950 . S
H1771 C1795 0.950 . S
H1772 C1796 0.950 . S
H1773 C1797 0.951 . S
H1774 C1799 0.951 . S
H1775 C1801 0.950 . S
H1776 C1802 0.950 . S
H1777 C1804 0.950 . S
H1778 C1807 0.950 . S
H1779 C1808 0.950 . S
H1780 C1810 0.950 . S
H1781 C1811 0.950 . S
C1782 H1764 0.951 . S
C1782 C1783 1.366 . S
C1782 C1784 1.388 . S
C1783 C1782 1.366 . S
C1783 C1787 1.385 . S
C1784 H1765 0.951 . S
C1784 C1782 1.388 . S
C1784 C1785 1.366 . S
C1785 C1784 1.366 . S
C1785 C1786 1.414 . S
C1785 C1788 1.499 . S
C1786 H1766 0.950 . S
C1786 C1785 1.414 . S
C1786 C1787 1.374 . S
C1787 H1767 0.950 . S
C1787 C1783 1.385 . S
C1787 C1786 1.374 . S
C1788 C1785 1.499 . S
C1788 C1789 1.373 . S
C1788 C1790 1.389 . S
C1789 H1768 0.950 . S
C1789 C1788 1.373 . S
C1789 C1805 1.377 . S
C1790 C1788 1.389 . S
C1790 C1791 1.524 . S
C1790 C1804 1.377 . S
C1791 C1790 1.524 . S
C1791 C1792 1.397 . S
C1791 C1796 1.363 . S
C1792 H1769 0.950 . S
C1792 C1791 1.397 . S
C1792 C1793 1.334 . S
C1793 H1770 0.950 . S
C1793 C1792 1.334 . S
C1793 C1794 1.287 . S
C1794 C1793 1.287 . S
C1794 C1795 1.524 . S
C1794 H1813 0.913 . S
C1795 H1771 0.950 . S
C1795 C1794 1.524 . S
C1795 C1796 1.415 . S
C1796 H1772 0.950 . S
C1796 C1791 1.363 . S
C1796 C1795 1.415 . S
C1797 H1773 0.951 . S
C1797 C1798 1.366 . S
C1797 C1799 1.388 . S
C1798 C1797 1.366 . S
C1798 C1802 1.385 . S
C1799 H1774 0.951 . S
C1799 C1797 1.388 . S
C1799 C1800 1.366 . S
C1800 C1799 1.366 . S
C1800 C1801 1.414 . S
C1800 C1803 1.499 . S
C1801 H1775 0.950 . S
C1801 C1800 1.414 . S
C1801 C1802 1.374 . S
C1802 H1776 0.950 . S
C1802 C1798 1.385 . S
C1802 C1801 1.374 . S
C1803 C1800 1.499 . S
C1803 C1804 1.373 . S
C1803 C1805 1.389 . S
C1804 H1777 0.950 . S
C1804 C1790 1.377 . S
C1804 C1803 1.373 . S
C1805 C1789 1.377 . S
C1805 C1803 1.389 . S
C1805 C1806 1.524 . S
C1806 C1805 1.524 . S
C1806 C1807 1.397 . S
C1806 C1811 1.363 . S
C1807 H1778 0.950 . S
C1807 C1806 1.397 . S
C1807 C1808 1.334 . S
C1808 H1779 0.950 . S
C1808 C1807 1.334 . S
C1808 C1809 1.287 . S
C1809 C1808 1.287 . S
C1809 C1810 1.524 . S
C1809 H1812 0.999 . S
C1810 H1780 0.950 . S
C1810 C1809 1.524 . S
C1810 C1811 1.415 . S
C1811 H1781 0.950 . S
C1811 C1806 1.363 . S
C1811 C1810 1.415 . S
H1812 C1809 0.999 . S
H1813 C1794 0.913 . S
H1814 C1832 0.951 . S
H1815 C1834 0.951 . S
H1816 C1836 0.950 . S
H1817 C1837 0.950 . S
H1818 C1839 0.950 . S
H1819 C1842 0.950 . S
H1820 C1843 0.950 . S
H1821 C1845 0.950 . S
H1822 C1846 0.950 . S
H1823 C1847 0.951 . S
H1824 C1849 0.951 . S
H1825 C1851 0.950 . S
H1826 C1852 0.950 . S
H1827 C1854 0.950 . S
H1828 C1857 0.950 . S
H1829 C1858 0.950 . S
H1830 C1860 0.950 . S
H1831 C1861 0.950 . S
C1832 H1814 0.951 . S
C1832 C1833 1.366 . S
C1832 C1834 1.388 . S
C1833 C1832 1.366 . S
C1833 C1837 1.385 . S
C1834 H1815 0.951 . S
C1834 C1832 1.388 . S
C1834 C1835 1.366 . S
C1835 C1834 1.366 . S
C1835 C1836 1.414 . S
C1835 C1838 1.499 . S
C1836 H1816 0.950 . S
C1836 C1835 1.414 . S
C1836 C1837 1.374 . S
C1837 H1817 0.950 . S
C1837 C1833 1.385 . S
C1837 C1836 1.374 . S
C1838 C1835 1.499 . S
C1838 C1839 1.373 . S
C1838 C1840 1.389 . S
C1839 H1818 0.950 . S
C1839 C1838 1.373 . S
C1839 C1855 1.377 . S
C1840 C1838 1.389 . S
C1840 C1841 1.524 . S
C1840 C1854 1.377 . S
C1841 C1840 1.524 . S
C1841 C1842 1.397 . S
C1841 C1846 1.363 . S
C1842 H1819 0.950 . S
C1842 C1841 1.397 . S
C1842 C1843 1.334 . S
C1843 H1820 0.950 . S
C1843 C1842 1.334 . S
C1843 C1844 1.287 . S
C1844 C1843 1.287 . S
C1844 C1845 1.524 . S
C1844 H1863 0.913 . S
C1845 H1821 0.950 . S
C1845 C1844 1.524 . S
C1845 C1846 1.415 . S
C1846 H1822 0.950 . S
C1846 C1841 1.363 . S
C1846 C1845 1.415 . S
C1847 H1823 0.951 . S
C1847 C1848 1.366 . S
C1847 C1849 1.388 . S
C1848 C1847 1.366 . S
C1848 C1852 1.385 . S
C1849 H1824 0.951 . S
C1849 C1847 1.388 . S
C1849 C1850 1.366 . S
C1850 C1849 1.366 . S
C1850 C1851 1.414 . S
C1850 C1853 1.499 . S
C1851 H1825 0.950 . S
C1851 C1850 1.414 . S
C1851 C1852 1.374 . S
C1852 H1826 0.950 . S
C1852 C1848 1.385 . S
C1852 C1851 1.374 . S
C1853 C1850 1.499 . S
C1853 C1854 1.373 . S
C1853 C1855 1.389 . S
C1854 H1827 0.950 . S
C1854 C1840 1.377 . S
C1854 C1853 1.373 . S
C1855 C1839 1.377 . S
C1855 C1853 1.389 . S
C1855 C1856 1.524 . S
C1856 C1855 1.524 . S
C1856 C1857 1.397 . S
C1856 C1861 1.363 . S
C1857 H1828 0.950 . S
C1857 C1856 1.397 . S
C1857 C1858 1.334 . S
C1858 H1829 0.950 . S
C1858 C1857 1.334 . S
C1858 C1859 1.287 . S
C1859 C1858 1.287 . S
C1859 C1860 1.524 . S
C1859 H1862 0.999 . S
C1860 H1830 0.950 . S
C1860 C1859 1.524 . S
C1860 C1861 1.415 . S
C1861 H1831 0.950 . S
C1861 C1856 1.363 . S
C1861 C1860 1.415 . S
H1862 C1859 0.999 . S
H1863 C1844 0.913 . S
H1864 C1882 0.951 . S
H1865 C1884 0.951 . S
H1866 C1886 0.950 . S
H1867 C1887 0.950 . S
H1868 C1889 0.950 . S
H1869 C1892 0.950 . S
H1870 C1893 0.950 . S
H1871 C1895 0.950 . S
H1872 C1896 0.950 . S
H1873 C1897 0.951 . S
H1874 C1899 0.951 . S
H1875 C1901 0.950 . S
H1876 C1902 0.950 . S
H1877 C1904 0.950 . S
H1878 C1907 0.950 . S
H1879 C1908 0.950 . S
H1880 C1910 0.950 . S
H1881 C1911 0.950 . S
C1882 H1864 0.951 . S
C1882 C1883 1.366 . S
C1882 C1884 1.388 . S
C1883 C1882 1.366 . S
C1883 C1887 1.385 . S
C1884 H1865 0.951 . S
C1884 C1882 1.388 . S
C1884 C1885 1.366 . S
C1885 C1884 1.366 . S
C1885 C1886 1.414 . S
C1885 C1888 1.499 . S
C1886 H1866 0.950 . S
C1886 C1885 1.414 . S
C1886 C1887 1.374 . S
C1887 H1867 0.950 . S
C1887 C1883 1.385 . S
C1887 C1886 1.374 . S
C1888 C1885 1.499 . S
C1888 C1889 1.373 . S
C1888 C1890 1.389 . S
C1889 H1868 0.950 . S
C1889 C1888 1.373 . S
C1889 C1905 1.377 . S
C1890 C1888 1.389 . S
C1890 C1891 1.524 . S
C1890 C1904 1.377 . S
C1891 C1890 1.524 . S
C1891 C1892 1.397 . S
C1891 C1896 1.363 . S
C1892 H1869 0.950 . S
C1892 C1891 1.397 . S
C1892 C1893 1.334 . S
C1893 H1870 0.950 . S
C1893 C1892 1.334 . S
C1893 C1894 1.287 . S
C1894 C1893 1.287 . S
C1894 C1895 1.524 . S
C1894 H1913 0.913 . S
C1895 H1871 0.950 . S
C1895 C1894 1.524 . S
C1895 C1896 1.415 . S
C1896 H1872 0.950 . S
C1896 C1891 1.363 . S
C1896 C1895 1.415 . S
C1897 H1873 0.951 . S
C1897 C1898 1.366 . S
C1897 C1899 1.388 . S
C1898 C1897 1.366 . S
C1898 C1902 1.385 . S
C1899 H1874 0.951 . S
C1899 C1897 1.388 . S
C1899 C1900 1.366 . S
C1900 C1899 1.366 . S
C1900 C1901 1.414 . S
C1900 C1903 1.499 . S
C1901 H1875 0.950 . S
C1901 C1900 1.414 . S
C1901 C1902 1.374 . S
C1902 H1876 0.950 . S
C1902 C1898 1.385 . S
C1902 C1901 1.374 . S
C1903 C1900 1.499 . S
C1903 C1904 1.373 . S
C1903 C1905 1.389 . S
C1904 H1877 0.950 . S
C1904 C1890 1.377 . S
C1904 C1903 1.373 . S
C1905 C1889 1.377 . S
C1905 C1903 1.389 . S
C1905 C1906 1.524 . S
C1906 C1905 1.524 . S
C1906 C1907 1.397 . S
C1906 C1911 1.363 . S
C1907 H1878 0.950 . S
C1907 C1906 1.397 . S
C1907 C1908 1.334 . S
C1908 H1879 0.950 . S
C1908 C1907 1.334 . S
C1908 C1909 1.287 . S
C1909 C1908 1.287 . S
C1909 C1910 1.524 . S
C1909 H1912 0.999 1_565 S
C1910 H1880 0.950 . S
C1910 C1909 1.524 . S
C1910 C1911 1.415 . S
C1911 H1881 0.950 . S
C1911 C1906 1.363 . S
C1911 C1910 1.415 . S
H1912 C1909 0.999 1_545 S
H1913 C1894 0.913 . S
H1914 C1932 0.951 . S
H1915 C1934 0.951 . S
H1916 C1936 0.950 . S
H1917 C1937 0.950 . S
H1918 C1939 0.950 . S
H1919 C1942 0.950 . S
H1920 C1943 0.950 . S
H1921 C1945 0.950 . S
H1922 C1946 0.950 . S
H1923 C1947 0.951 . S
H1924 C1949 0.951 . S
H1925 C1951 0.950 . S
H1926 C1952 0.950 . S
H1927 C1954 0.950 . S
H1928 C1957 0.950 . S
H1929 C1958 0.950 . S
H1930 C1960 0.950 . S
H1931 C1961 0.950 . S
C1932 H1914 0.951 . S
C1932 C1933 1.366 . S
C1932 C1934 1.388 . S
C1933 C1932 1.366 . S
C1933 C1937 1.385 . S
C1934 H1915 0.951 . S
C1934 C1932 1.388 . S
C1934 C1935 1.366 . S
C1935 C1934 1.366 . S
C1935 C1936 1.414 . S
C1935 C1938 1.499 . S
C1936 H1916 0.950 . S
C1936 C1935 1.414 . S
C1936 C1937 1.374 . S
C1937 H1917 0.950 . S
C1937 C1933 1.385 . S
C1937 C1936 1.374 . S
C1938 C1935 1.499 . S
C1938 C1939 1.373 . S
C1938 C1940 1.389 . S
C1939 H1918 0.950 . S
C1939 C1938 1.373 . S
C1939 C1955 1.377 . S
C1940 C1938 1.389 . S
C1940 C1941 1.524 . S
C1940 C1954 1.377 . S
C1941 C1940 1.524 . S
C1941 C1942 1.397 . S
C1941 C1946 1.363 . S
C1942 H1919 0.950 . S
C1942 C1941 1.397 . S
C1942 C1943 1.334 . S
C1943 H1920 0.950 . S
C1943 C1942 1.334 . S
C1943 C1944 1.287 . S
C1944 C1943 1.287 . S
C1944 C1945 1.524 . S
C1944 H1963 0.913 . S
C1945 H1921 0.950 . S
C1945 C1944 1.524 . S
C1945 C1946 1.415 . S
C1946 H1922 0.950 . S
C1946 C1941 1.363 . S
C1946 C1945 1.415 . S
C1947 H1923 0.951 . S
C1947 C1948 1.366 . S
C1947 C1949 1.388 . S
C1948 C1947 1.366 . S
C1948 C1952 1.385 . S
C1949 H1924 0.951 . S
C1949 C1947 1.388 . S
C1949 C1950 1.366 . S
C1950 C1949 1.366 . S
C1950 C1951 1.414 . S
C1950 C1953 1.499 . S
C1951 H1925 0.950 . S
C1951 C1950 1.414 . S
C1951 C1952 1.374 . S
C1952 H1926 0.950 . S
C1952 C1948 1.385 . S
C1952 C1951 1.374 . S
C1953 C1950 1.499 . S
C1953 C1954 1.373 . S
C1953 C1955 1.389 . S
C1954 H1927 0.950 . S
C1954 C1940 1.377 . S
C1954 C1953 1.373 . S
C1955 C1939 1.377 . S
C1955 C1953 1.389 . S
C1955 C1956 1.524 . S
C1956 C1955 1.524 . S
C1956 C1957 1.397 . S
C1956 C1961 1.363 . S
C1957 H1928 0.950 . S
C1957 C1956 1.397 . S
C1957 C1958 1.334 . S
C1958 H1929 0.950 . S
C1958 C1957 1.334 . S
C1958 C1959 1.287 . S
C1959 C1958 1.287 . S
C1959 C1960 1.524 . S
C1959 H1962 0.999 . S
C1960 H1930 0.950 . S
C1960 C1959 1.524 . S
C1960 C1961 1.415 . S
C1961 H1931 0.950 . S
C1961 C1956 1.363 . S
C1961 C1960 1.415 . S
H1962 C1959 0.999 . S
H1963 C1944 0.913 . S
H1964 C1982 0.951 . S
H1965 C1984 0.951 . S
H1966 C1986 0.950 . S
H1967 C1987 0.950 . S
H1968 C1989 0.950 . S
H1969 C1992 0.950 . S
H1970 C1993 0.950 . S
H1971 C1995 0.950 . S
H1972 C1996 0.950 . S
H1973 C1997 0.951 . S
H1974 C1999 0.951 . S
H1975 C2001 0.950 . S
H1976 C2002 0.950 . S
H1977 C2004 0.950 . S
H1978 C2007 0.950 . S
H1979 C2008 0.950 . S
H1980 C2010 0.950 . S
H1981 C2011 0.950 . S
C1982 H1964 0.951 . S
C1982 C1983 1.366 . S
C1982 C1984 1.388 . S
C1983 C1982 1.366 . S
C1983 C1987 1.385 . S
C1984 H1965 0.951 . S
C1984 C1982 1.388 . S
C1984 C1985 1.366 . S
C1985 C1984 1.366 . S
C1985 C1986 1.414 . S
C1985 C1988 1.499 . S
C1986 H1966 0.950 . S
C1986 C1985 1.414 . S
C1986 C1987 1.374 . S
C1987 H1967 0.950 . S
C1987 C1983 1.385 . S
C1987 C1986 1.374 . S
C1988 C1985 1.499 . S
C1988 C1989 1.373 . S
C1988 C1990 1.389 . S
C1989 H1968 0.950 . S
C1989 C1988 1.373 . S
C1989 C2005 1.377 . S
C1990 C1988 1.389 . S
C1990 C1991 1.524 . S
C1990 C2004 1.377 . S
C1991 C1990 1.524 . S
C1991 C1992 1.397 . S
C1991 C1996 1.363 . S
C1992 H1969 0.950 . S
C1992 C1991 1.397 . S
C1992 C1993 1.334 . S
C1993 H1970 0.950 . S
C1993 C1992 1.334 . S
C1993 C1994 1.287 . S
C1994 C1993 1.287 . S
C1994 C1995 1.524 . S
C1994 H2013 0.913 . S
C1995 H1971 0.950 . S
C1995 C1994 1.524 . S
C1995 C1996 1.415 . S
C1996 H1972 0.950 . S
C1996 C1991 1.363 . S
C1996 C1995 1.415 . S
C1997 H1973 0.951 . S
C1997 C1998 1.366 . S
C1997 C1999 1.388 . S
C1998 C1997 1.366 . S
C1998 C2002 1.385 . S
C1999 H1974 0.951 . S
C1999 C1997 1.388 . S
C1999 C2000 1.366 . S
C2000 C1999 1.366 . S
C2000 C2001 1.414 . S
C2000 C2003 1.499 . S
C2001 H1975 0.950 . S
C2001 C2000 1.414 . S
C2001 C2002 1.374 . S
C2002 H1976 0.950 . S
C2002 C1998 1.385 . S
C2002 C2001 1.374 . S
C2003 C2000 1.499 . S
C2003 C2004 1.373 . S
C2003 C2005 1.389 . S
C2004 H1977 0.950 . S
C2004 C1990 1.377 . S
C2004 C2003 1.373 . S
C2005 C1989 1.377 . S
C2005 C2003 1.389 . S
C2005 C2006 1.524 . S
C2006 C2005 1.524 . S
C2006 C2007 1.397 . S
C2006 C2011 1.363 . S
C2007 H1978 0.950 . S
C2007 C2006 1.397 . S
C2007 C2008 1.334 . S
C2008 H1979 0.950 . S
C2008 C2007 1.334 . S
C2008 C2009 1.287 . S
C2009 C2008 1.287 . S
C2009 C2010 1.524 . S
C2009 H2012 0.999 . S
C2010 H1980 0.950 . S
C2010 C2009 1.524 . S
C2010 C2011 1.415 . S
C2011 H1981 0.950 . S
C2011 C2006 1.363 . S
C2011 C2010 1.415 . S
H2012 C2009 0.999 . S
H2013 C1994 0.913 . S
H2014 C2032 0.951 . S
H2015 C2034 0.951 . S
H2016 C2036 0.950 . S
H2017 C2037 0.950 . S
H2018 C2039 0.950 . S
H2019 C2042 0.950 . S
H2020 C2043 0.950 . S
H2021 C2045 0.950 . S
H2022 C2046 0.950 . S
H2023 C2047 0.951 . S
H2024 C2049 0.951 . S
H2025 C2051 0.950 . S
H2026 C2052 0.950 . S
H2027 C2054 0.950 . S
H2028 C2057 0.950 . S
H2029 C2058 0.950 . S
H2030 C2060 0.950 . S
H2031 C2061 0.950 . S
C2032 H2014 0.951 . S
C2032 C2033 1.366 . S
C2032 C2034 1.388 . S
C2033 C2032 1.366 . S
C2033 C2037 1.385 . S
C2034 H2015 0.951 . S
C2034 C2032 1.388 . S
C2034 C2035 1.366 . S
C2035 C2034 1.366 . S
C2035 C2036 1.414 . S
C2035 C2038 1.499 . S
C2036 H2016 0.950 . S
C2036 C2035 1.414 . S
C2036 C2037 1.374 . S
C2037 H2017 0.950 . S
C2037 C2033 1.385 . S
C2037 C2036 1.374 . S
C2038 C2035 1.499 . S
C2038 C2039 1.373 . S
C2038 C2040 1.389 . S
C2039 H2018 0.950 . S
C2039 C2038 1.373 . S
C2039 C2055 1.377 . S
C2040 C2038 1.389 . S
C2040 C2041 1.524 . S
C2040 C2054 1.377 . S
C2041 C2040 1.524 . S
C2041 C2042 1.397 . S
C2041 C2046 1.363 . S
C2042 H2019 0.950 . S
C2042 C2041 1.397 . S
C2042 C2043 1.334 . S
C2043 H2020 0.950 . S
C2043 C2042 1.334 . S
C2043 C2044 1.287 . S
C2044 C2043 1.287 . S
C2044 C2045 1.524 . S
C2044 H2063 0.913 . S
C2045 H2021 0.950 . S
C2045 C2044 1.524 . S
C2045 C2046 1.415 . S
C2046 H2022 0.950 . S
C2046 C2041 1.363 . S
C2046 C2045 1.415 . S
C2047 H2023 0.951 . S
C2047 C2048 1.366 . S
C2047 C2049 1.388 . S
C2048 C2047 1.366 . S
C2048 C2052 1.385 . S
C2049 H2024 0.951 . S
C2049 C2047 1.388 . S
C2049 C2050 1.366 . S
C2050 C2049 1.366 . S
C2050 C2051 1.414 . S
C2050 C2053 1.499 . S
C2051 H2025 0.950 . S
C2051 C2050 1.414 . S
C2051 C2052 1.374 . S
C2052 H2026 0.950 . S
C2052 C2048 1.385 . S
C2052 C2051 1.374 . S
C2053 C2050 1.499 . S
C2053 C2054 1.373 . S
C2053 C2055 1.389 . S
C2054 H2027 0.950 . S
C2054 C2040 1.377 . S
C2054 C2053 1.373 . S
C2055 C2039 1.377 . S
C2055 C2053 1.389 . S
C2055 C2056 1.524 . S
C2056 C2055 1.524 . S
C2056 C2057 1.397 . S
C2056 C2061 1.363 . S
C2057 H2028 0.950 . S
C2057 C2056 1.397 . S
C2057 C2058 1.334 . S
C2058 H2029 0.950 . S
C2058 C2057 1.334 . S
C2058 C2059 1.287 . S
C2059 C2058 1.287 . S
C2059 C2060 1.524 . S
C2059 H2062 0.999 . S
C2060 H2030 0.950 . S
C2060 C2059 1.524 . S
C2060 C2061 1.415 . S
C2061 H2031 0.950 . S
C2061 C2056 1.363 . S
C2061 C2060 1.415 . S
H2062 C2059 0.999 . S
H2063 C2044 0.913 . S
H2064 C2082 0.951 . S
H2065 C2084 0.951 . S
H2066 C2086 0.950 . S
H2067 C2087 0.950 . S
H2068 C2089 0.950 . S
H2069 C2092 0.950 . S
H2070 C2093 0.950 . S
H2071 C2095 0.950 . S
H2072 C2096 0.950 . S
H2073 C2097 0.951 . S
H2074 C2099 0.951 . S
H2075 C2101 0.950 . S
H2076 C2102 0.950 . S
H2077 C2104 0.950 . S
H2078 C2107 0.950 . S
H2079 C2108 0.950 . S
H2080 C2110 0.950 . S
H2081 C2111 0.950 . S
C2082 H2064 0.951 . S
C2082 C2083 1.366 . S
C2082 C2084 1.388 . S
C2083 C2082 1.366 . S
C2083 C2087 1.385 . S
C2084 H2065 0.951 . S
C2084 C2082 1.388 . S
C2084 C2085 1.366 . S
C2085 C2084 1.366 . S
C2085 C2086 1.414 . S
C2085 C2088 1.499 . S
C2086 H2066 0.950 . S
C2086 C2085 1.414 . S
C2086 C2087 1.374 . S
C2087 H2067 0.950 . S
C2087 C2083 1.385 . S
C2087 C2086 1.374 . S
C2088 C2085 1.499 . S
C2088 C2089 1.373 . S
C2088 C2090 1.389 . S
C2089 H2068 0.950 . S
C2089 C2088 1.373 . S
C2089 C2105 1.377 . S
C2090 C2088 1.389 . S
C2090 C2091 1.524 . S
C2090 C2104 1.377 . S
C2091 C2090 1.524 . S
C2091 C2092 1.397 . S
C2091 C2096 1.363 . S
C2092 H2069 0.950 . S
C2092 C2091 1.397 . S
C2092 C2093 1.334 . S
C2093 H2070 0.950 . S
C2093 C2092 1.334 . S
C2093 C2094 1.287 . S
C2094 C2093 1.287 . S
C2094 C2095 1.524 . S
C2094 H2113 0.913 . S
C2095 H2071 0.950 . S
C2095 C2094 1.524 . S
C2095 C2096 1.415 . S
C2096 H2072 0.950 . S
C2096 C2091 1.363 . S
C2096 C2095 1.415 . S
C2097 H2073 0.951 . S
C2097 C2098 1.366 . S
C2097 C2099 1.388 . S
C2098 C2097 1.366 . S
C2098 C2102 1.385 . S
C2099 H2074 0.951 . S
C2099 C2097 1.388 . S
C2099 C2100 1.366 . S
C2100 C2099 1.366 . S
C2100 C2101 1.414 . S
C2100 C2103 1.499 . S
C2101 H2075 0.950 . S
C2101 C2100 1.414 . S
C2101 C2102 1.374 . S
C2102 H2076 0.950 . S
C2102 C2098 1.385 . S
C2102 C2101 1.374 . S
C2103 C2100 1.499 . S
C2103 C2104 1.373 . S
C2103 C2105 1.389 . S
C2104 H2077 0.950 . S
C2104 C2090 1.377 . S
C2104 C2103 1.373 . S
C2105 C2089 1.377 . S
C2105 C2103 1.389 . S
C2105 C2106 1.524 . S
C2106 C2105 1.524 . S
C2106 C2107 1.397 . S
C2106 C2111 1.363 . S
C2107 H2078 0.950 . S
C2107 C2106 1.397 . S
C2107 C2108 1.334 . S
C2108 H2079 0.950 . S
C2108 C2107 1.334 . S
C2108 C2109 1.287 . S
C2109 C2108 1.287 . S
C2109 C2110 1.524 . S
C2109 H2112 0.999 . S
C2110 H2080 0.950 . S
C2110 C2109 1.524 . S
C2110 C2111 1.415 . S
C2111 H2081 0.950 . S
C2111 C2106 1.363 . S
C2111 C2110 1.415 . S
H2112 C2109 0.999 . S
H2113 C2094 0.913 . S
H2114 C2132 0.951 . S
H2115 C2134 0.951 . S
H2116 C2136 0.950 . S
H2117 C2137 0.950 . S
H2118 C2139 0.950 . S
H2119 C2142 0.950 . S
H2120 C2143 0.950 . S
H2121 C2145 0.950 . S
H2122 C2146 0.950 . S
H2123 C2147 0.951 . S
H2124 C2149 0.951 . S
H2125 C2151 0.950 . S
H2126 C2152 0.950 . S
H2127 C2154 0.950 . S
H2128 C2157 0.950 . S
H2129 C2158 0.950 . S
H2130 C2160 0.950 . S
H2131 C2161 0.950 . S
C2132 H2114 0.951 . S
C2132 C2133 1.366 . S
C2132 C2134 1.388 . S
C2133 C2132 1.366 . S
C2133 C2137 1.385 . S
C2134 H2115 0.951 . S
C2134 C2132 1.388 . S
C2134 C2135 1.366 . S
C2135 C2134 1.366 . S
C2135 C2136 1.414 . S
C2135 C2138 1.499 . S
C2136 H2116 0.950 . S
C2136 C2135 1.414 . S
C2136 C2137 1.374 . S
C2137 H2117 0.950 . S
C2137 C2133 1.385 . S
C2137 C2136 1.374 . S
C2138 C2135 1.499 . S
C2138 C2139 1.373 . S
C2138 C2140 1.389 . S
C2139 H2118 0.950 . S
C2139 C2138 1.373 . S
C2139 C2155 1.377 . S
C2140 C2138 1.389 . S
C2140 C2141 1.524 . S
C2140 C2154 1.377 . S
C2141 C2140 1.524 . S
C2141 C2142 1.397 . S
C2141 C2146 1.363 . S
C2142 H2119 0.950 . S
C2142 C2141 1.397 . S
C2142 C2143 1.334 . S
C2143 H2120 0.950 . S
C2143 C2142 1.334 . S
C2143 C2144 1.287 . S
C2144 C2143 1.287 . S
C2144 C2145 1.524 . S
C2144 H2163 0.913 . S
C2145 H2121 0.950 . S
C2145 C2144 1.524 . S
C2145 C2146 1.415 . S
C2146 H2122 0.950 . S
C2146 C2141 1.363 . S
C2146 C2145 1.415 . S
C2147 H2123 0.951 . S
C2147 C2148 1.366 . S
C2147 C2149 1.388 . S
C2148 C2147 1.366 . S
C2148 C2152 1.385 . S
C2149 H2124 0.951 . S
C2149 C2147 1.388 . S
C2149 C2150 1.366 . S
C2150 C2149 1.366 . S
C2150 C2151 1.414 . S
C2150 C2153 1.499 . S
C2151 H2125 0.950 . S
C2151 C2150 1.414 . S
C2151 C2152 1.374 . S
C2152 H2126 0.950 . S
C2152 C2148 1.385 . S
C2152 C2151 1.374 . S
C2153 C2150 1.499 . S
C2153 C2154 1.373 . S
C2153 C2155 1.389 . S
C2154 H2127 0.950 . S
C2154 C2140 1.377 . S
C2154 C2153 1.373 . S
C2155 C2139 1.377 . S
C2155 C2153 1.389 . S
C2155 C2156 1.524 . S
C2156 C2155 1.524 . S
C2156 C2157 1.397 . S
C2156 C2161 1.363 . S
C2157 H2128 0.950 . S
C2157 C2156 1.397 . S
C2157 C2158 1.334 . S
C2158 H2129 0.950 . S
C2158 C2157 1.334 . S
C2158 C2159 1.287 . S
C2159 C2158 1.287 . S
C2159 C2160 1.524 . S
C2159 H2162 0.999 . S
C2160 H2130 0.950 . S
C2160 C2159 1.524 . S
C2160 C2161 1.415 . S
C2161 H2131 0.950 . S
C2161 C2156 1.363 . S
C2161 C2160 1.415 . S
H2162 C2159 0.999 . S
H2163 C2144 0.913 . S
H2164 C2182 0.951 . S
H2165 C2184 0.951 . S
H2166 C2186 0.950 . S
H2167 C2187 0.950 . S
H2168 C2189 0.950 . S
H2169 C2192 0.950 . S
H2170 C2193 0.950 . S
H2171 C2195 0.950 . S
H2172 C2196 0.950 . S
H2173 C2197 0.951 . S
H2174 C2199 0.951 . S
H2175 C2201 0.950 . S
H2176 C2202 0.950 . S
H2177 C2204 0.950 . S
H2178 C2207 0.950 . S
H2179 C2208 0.950 . S
H2180 C2210 0.950 . S
H2181 C2211 0.950 . S
C2182 H2164 0.951 . S
C2182 C2183 1.366 . S
C2182 C2184 1.388 . S
C2183 C2182 1.366 . S
C2183 C2187 1.385 . S
C2184 H2165 0.951 . S
C2184 C2182 1.388 . S
C2184 C2185 1.366 . S
C2185 C2184 1.366 . S
C2185 C2186 1.414 . S
C2185 C2188 1.499 . S
C2186 H2166 0.950 . S
C2186 C2185 1.414 . S
C2186 C2187 1.374 . S
C2187 H2167 0.950 . S
C2187 C2183 1.385 . S
C2187 C2186 1.374 . S
C2188 C2185 1.499 . S
C2188 C2189 1.373 . S
C2188 C2190 1.389 . S
C2189 H2168 0.950 . S
C2189 C2188 1.373 . S
C2189 C2205 1.377 . S
C2190 C2188 1.389 . S
C2190 C2191 1.524 . S
C2190 C2204 1.377 . S
C2191 C2190 1.524 . S
C2191 C2192 1.397 . S
C2191 C2196 1.363 . S
C2192 H2169 0.950 . S
C2192 C2191 1.397 . S
C2192 C2193 1.334 . S
C2193 H2170 0.950 . S
C2193 C2192 1.334 . S
C2193 C2194 1.287 . S
C2194 C2193 1.287 . S
C2194 C2195 1.524 . S
C2194 H2213 0.913 . S
C2195 H2171 0.950 . S
C2195 C2194 1.524 . S
C2195 C2196 1.415 . S
C2196 H2172 0.950 . S
C2196 C2191 1.363 . S
C2196 C2195 1.415 . S
C2197 H2173 0.951 . S
C2197 C2198 1.366 . S
C2197 C2199 1.388 . S
C2198 C2197 1.366 . S
C2198 C2202 1.385 . S
C2199 H2174 0.951 . S
C2199 C2197 1.388 . S
C2199 C2200 1.366 . S
C2200 C2199 1.366 . S
C2200 C2201 1.414 . S
C2200 C2203 1.499 . S
C2201 H2175 0.950 . S
C2201 C2200 1.414 . S
C2201 C2202 1.374 . S
C2202 H2176 0.950 . S
C2202 C2198 1.385 . S
C2202 C2201 1.374 . S
C2203 C2200 1.499 . S
C2203 C2204 1.373 . S
C2203 C2205 1.389 . S
C2204 H2177 0.950 . S
C2204 C2190 1.377 . S
C2204 C2203 1.373 . S
C2205 C2189 1.377 . S
C2205 C2203 1.389 . S
C2205 C2206 1.524 . S
C2206 C2205 1.524 . S
C2206 C2207 1.397 . S
C2206 C2211 1.363 . S
C2207 H2178 0.950 . S
C2207 C2206 1.397 . S
C2207 C2208 1.334 . S
C2208 H2179 0.950 . S
C2208 C2207 1.334 . S
C2208 C2209 1.287 . S
C2209 C2208 1.287 . S
C2209 C2210 1.524 . S
C2209 H2212 0.999 . S
C2210 H2180 0.950 . S
C2210 C2209 1.524 . S
C2210 C2211 1.415 . S
C2211 H2181 0.950 . S
C2211 C2206 1.363 . S
C2211 C2210 1.415 . S
H2212 C2209 0.999 . S
H2213 C2194 0.913 . S
H2214 C2232 0.951 . S
H2215 C2234 0.951 . S
H2216 C2236 0.950 . S
H2217 C2237 0.950 . S
H2218 C2239 0.950 . S
H2219 C2242 0.950 . S
H2220 C2243 0.950 . S
H2221 C2245 0.950 . S
H2222 C2246 0.950 . S
H2223 C2247 0.951 . S
H2224 C2249 0.951 . S
H2225 C2251 0.950 . S
H2226 C2252 0.950 . S
H2227 C2254 0.950 . S
H2228 C2257 0.950 . S
H2229 C2258 0.950 1_554 S
H2230 C2260 0.930 1_554 S
H2231 C2261 0.950 . S
C2232 H2214 0.951 . S
C2232 C2233 1.366 . S
C2232 C2234 1.388 . S
C2233 C2232 1.366 . S
C2233 C2237 1.385 . S
C2234 H2215 0.951 . S
C2234 C2232 1.388 . S
C2234 C2235 1.366 . S
C2235 C2234 1.366 . S
C2235 C2236 1.414 . S
C2235 C2238 1.499 . S
C2236 H2216 0.950 . S
C2236 C2235 1.414 . S
C2236 C2237 1.374 . S
C2237 H2217 0.950 . S
C2237 C2233 1.385 . S
C2237 C2236 1.374 . S
C2238 C2235 1.499 . S
C2238 C2239 1.373 . S
C2238 C2240 1.389 . S
C2239 H2218 0.950 . S
C2239 C2238 1.373 . S
C2239 C2255 1.377 . S
C2240 C2238 1.389 . S
C2240 C2241 1.524 . S
C2240 C2254 1.377 . S
C2241 C2240 1.524 . S
C2241 C2242 1.397 . S
C2241 C2246 1.363 . S
C2242 H2219 0.950 . S
C2242 C2241 1.397 . S
C2242 C2243 1.334 . S
C2243 H2220 0.950 . S
C2243 C2242 1.334 . S
C2243 C2244 1.287 . S
C2244 C2243 1.287 . S
C2244 C2245 1.524 . S
C2244 H2263 0.913 . S
C2245 H2221 0.950 . S
C2245 C2244 1.524 . S
C2245 C2246 1.415 . S
C2246 H2222 0.950 . S
C2246 C2241 1.363 . S
C2246 C2245 1.415 . S
C2247 H2223 0.951 . S
C2247 C2248 1.366 . S
C2247 C2249 1.388 . S
C2248 C2247 1.366 . S
C2248 C2252 1.385 . S
C2249 H2224 0.951 . S
C2249 C2247 1.388 . S
C2249 C2250 1.366 . S
C2250 C2249 1.366 . S
C2250 C2251 1.414 . S
C2250 C2253 1.499 . S
C2251 H2225 0.950 . S
C2251 C2250 1.414 . S
C2251 C2252 1.374 . S
C2252 H2226 0.950 . S
C2252 C2248 1.385 . S
C2252 C2251 1.374 . S
C2253 C2250 1.499 . S
C2253 C2254 1.373 . S
C2253 C2255 1.389 . S
C2254 H2227 0.950 . S
C2254 C2240 1.377 . S
C2254 C2253 1.373 . S
C2255 C2239 1.377 . S
C2255 C2253 1.389 . S
C2255 C2256 1.524 . S
C2256 C2255 1.524 . S
C2256 C2257 1.397 . S
C2256 C2261 1.363 . S
C2257 H2228 0.950 . S
C2257 C2256 1.397 . S
C2257 C2258 1.334 . S
C2258 H2229 0.950 1_556 S
C2258 C2257 1.334 . S
C2258 C2259 1.287 1_556 S
C2259 C2258 1.287 1_554 S
C2259 C2260 1.524 1_554 S
C2259 H2262 0.999 . S
C2260 H2230 0.930 1_556 S
C2260 C2259 1.524 1_556 S
C2260 C2261 1.415 . S
C2261 H2231 0.950 . S
C2261 C2256 1.363 . S
C2261 C2260 1.415 . S
H2262 C2259 0.999 . S
H2263 C2244 0.913 . S
H2264 C2282 0.951 . S
H2265 C2284 0.951 . S
H2266 C2286 0.950 . S
H2267 C2287 0.950 . S
H2268 C2289 0.950 . S
H2269 C2292 0.950 . S
H2270 C2293 0.950 . S
H2271 C2295 0.950 . S
H2272 C2296 0.950 . S
H2273 C2297 0.951 . S
H2274 C2299 0.951 . S
H2275 C2301 0.950 . S
H2276 C2302 0.950 . S
H2277 C2304 0.950 . S
H2278 C2307 0.950 . S
H2279 C2308 0.950 . S
H2280 C2310 0.950 . S
H2281 C2311 0.950 . S
C2282 H2264 0.951 . S
C2282 C2283 1.366 . S
C2282 C2284 1.388 . S
C2283 C2282 1.366 . S
C2283 C2287 1.385 . S
C2284 H2265 0.951 . S
C2284 C2282 1.388 . S
C2284 C2285 1.366 . S
C2285 C2284 1.366 . S
C2285 C2286 1.414 . S
C2285 C2288 1.499 . S
C2286 H2266 0.950 . S
C2286 C2285 1.414 . S
C2286 C2287 1.374 . S
C2287 H2267 0.950 . S
C2287 C2283 1.385 . S
C2287 C2286 1.374 . S
C2288 C2285 1.499 . S
C2288 C2289 1.373 . S
C2288 C2290 1.389 . S
C2289 H2268 0.950 . S
C2289 C2288 1.373 . S
C2289 C2305 1.377 . S
C2290 C2288 1.389 . S
C2290 C2291 1.524 . S
C2290 C2304 1.377 . S
C2291 C2290 1.524 . S
C2291 C2292 1.397 . S
C2291 C2296 1.363 . S
C2292 H2269 0.950 . S
C2292 C2291 1.397 . S
C2292 C2293 1.334 . S
C2293 H2270 0.950 . S
C2293 C2292 1.334 . S
C2293 C2294 1.287 . S
C2294 C2293 1.287 . S
C2294 C2295 1.524 . S
C2294 H2313 0.913 . S
C2295 H2271 0.950 . S
C2295 C2294 1.524 . S
C2295 C2296 1.415 . S
C2296 H2272 0.950 . S
C2296 C2291 1.363 . S
C2296 C2295 1.415 . S
C2297 H2273 0.951 . S
C2297 C2298 1.366 . S
C2297 C2299 1.388 . S
C2298 C2297 1.366 . S
C2298 C2302 1.385 . S
C2299 H2274 0.951 . S
C2299 C2297 1.388 . S
C2299 C2300 1.366 . S
C2300 C2299 1.366 . S
C2300 C2301 1.414 . S
C2300 C2303 1.499 . S
C2301 H2275 0.950 . S
C2301 C2300 1.414 . S
C2301 C2302 1.374 . S
C2302 H2276 0.950 . S
C2302 C2298 1.385 . S
C2302 C2301 1.374 . S
C2303 C2300 1.499 . S
C2303 C2304 1.373 . S
C2303 C2305 1.389 . S
C2304 H2277 0.950 . S
C2304 C2290 1.377 . S
C2304 C2303 1.373 . S
C2305 C2289 1.377 . S
C2305 C2303 1.389 . S
C2305 C2306 1.524 . S
C2306 C2305 1.524 . S
C2306 C2307 1.397 . S
C2306 C2311 1.363 . S
C2307 H2278 0.950 . S
C2307 C2306 1.397 . S
C2307 C2308 1.334 . S
C2308 H2279 0.950 . S
C2308 C2307 1.334 . S
C2308 C2309 1.287 . S
C2309 C2308 1.287 . S
C2309 C2310 1.524 . S
C2309 H2312 0.999 . S
C2310 H2280 0.950 . S
C2310 C2309 1.524 . S
C2310 C2311 1.415 . S
C2311 H2281 0.950 . S
C2311 C2306 1.363 . S
C2311 C2310 1.415 . S
H2312 C2309 0.999 . S
H2313 C2294 0.913 . S
H2314 C2332 0.951 . S
H2315 C2334 0.951 . S
H2316 C2336 0.950 . S
H2317 C2337 0.950 . S
H2318 C2339 0.950 . S
H2319 C2342 0.950 . S
H2320 C2343 0.950 . S
H2321 C2345 0.950 . S
H2322 C2346 0.950 . S
H2323 C2347 0.951 . S
H2324 C2349 0.951 . S
H2325 C2351 0.950 . S
H2326 C2352 0.950 . S
H2327 C2354 0.950 . S
H2328 C2357 0.950 . S
H2329 C2358 0.950 . S
H2330 C2360 0.950 . S
H2331 C2361 0.950 . S
C2332 H2314 0.951 . S
C2332 C2333 1.366 . S
C2332 C2334 1.388 . S
C2333 C2332 1.366 . S
C2333 C2337 1.385 . S
C2334 H2315 0.951 . S
C2334 C2332 1.388 . S
C2334 C2335 1.366 . S
C2335 C2334 1.366 . S
C2335 C2336 1.414 . S
C2335 C2338 1.499 . S
C2336 H2316 0.950 . S
C2336 C2335 1.414 . S
C2336 C2337 1.374 . S
C2337 H2317 0.950 . S
C2337 C2333 1.385 . S
C2337 C2336 1.374 . S
C2338 C2335 1.499 . S
C2338 C2339 1.373 . S
C2338 C2340 1.389 . S
C2339 H2318 0.950 . S
C2339 C2338 1.373 . S
C2339 C2355 1.377 . S
C2340 C2338 1.389 . S
C2340 C2341 1.524 . S
C2340 C2354 1.377 . S
C2341 C2340 1.524 . S
C2341 C2342 1.397 . S
C2341 C2346 1.363 . S
C2342 H2319 0.950 . S
C2342 C2341 1.397 . S
C2342 C2343 1.334 . S
C2343 H2320 0.950 . S
C2343 C2342 1.334 . S
C2343 C2344 1.287 . S
C2344 C2343 1.287 . S
C2344 C2345 1.524 . S
C2344 H2363 0.913 . S
C2345 H2321 0.950 . S
C2345 C2344 1.524 . S
C2345 C2346 1.415 . S
C2346 H2322 0.950 . S
C2346 C2341 1.363 . S
C2346 C2345 1.415 . S
C2347 H2323 0.951 . S
C2347 C2348 1.366 . S
C2347 C2349 1.388 . S
C2348 C2347 1.366 . S
C2348 C2352 1.385 . S
C2349 H2324 0.951 . S
C2349 C2347 1.388 . S
C2349 C2350 1.366 . S
C2350 C2349 1.366 . S
C2350 C2351 1.414 . S
C2350 C2353 1.499 . S
C2351 H2325 0.950 . S
C2351 C2350 1.414 . S
C2351 C2352 1.374 . S
C2352 H2326 0.950 . S
C2352 C2348 1.385 . S
C2352 C2351 1.374 . S
C2353 C2350 1.499 . S
C2353 C2354 1.373 . S
C2353 C2355 1.389 . S
C2354 H2327 0.950 . S
C2354 C2340 1.377 . S
C2354 C2353 1.373 . S
C2355 C2339 1.377 . S
C2355 C2353 1.389 . S
C2355 C2356 1.524 . S
C2356 C2355 1.524 . S
C2356 C2357 1.397 . S
C2356 C2361 1.363 . S
C2357 H2328 0.950 . S
C2357 C2356 1.397 . S
C2357 C2358 1.334 . S
C2358 H2329 0.950 . S
C2358 C2357 1.334 . S
C2358 C2359 1.287 . S
C2359 C2358 1.287 . S
C2359 C2360 1.524 . S
C2359 H2362 0.999 . S
C2360 H2330 0.950 . S
C2360 C2359 1.524 . S
C2360 C2361 1.415 . S
C2361 H2331 0.950 . S
C2361 C2356 1.363 . S
C2361 C2360 1.415 . S
H2362 C2359 0.999 . S
H2363 C2344 0.913 . S
H2364 C2382 0.951 . S
H2365 C2384 0.951 . S
H2366 C2386 0.950 . S
H2367 C2387 0.950 . S
H2368 C2389 0.950 . S
H2369 C2392 0.950 . S
H2370 C2393 0.950 . S
H2371 C2395 0.950 . S
H2372 C2396 0.950 . S
H2373 C2397 0.951 . S
H2374 C2399 0.951 . S
H2375 C2401 0.950 . S
H2376 C2402 0.950 . S
H2377 C2404 0.950 . S
H2378 C2407 0.950 . S
H2379 C2408 0.950 . S
H2380 C2410 0.950 . S
H2381 C2411 0.950 . S
C2382 H2364 0.951 . S
C2382 C2383 1.366 . S
C2382 C2384 1.388 . S
C2383 C2382 1.366 . S
C2383 C2387 1.385 . S
C2384 H2365 0.951 . S
C2384 C2382 1.388 . S
C2384 C2385 1.366 . S
C2385 C2384 1.366 . S
C2385 C2386 1.414 . S
C2385 C2388 1.499 . S
C2386 H2366 0.950 . S
C2386 C2385 1.414 . S
C2386 C2387 1.374 . S
C2387 H2367 0.950 . S
C2387 C2383 1.385 . S
C2387 C2386 1.374 . S
C2388 C2385 1.499 . S
C2388 C2389 1.373 . S
C2388 C2390 1.389 . S
C2389 H2368 0.950 . S
C2389 C2388 1.373 . S
C2389 C2405 1.377 . S
C2390 C2388 1.389 . S
C2390 C2391 1.524 . S
C2390 C2404 1.377 . S
C2391 C2390 1.524 . S
C2391 C2392 1.397 . S
C2391 C2396 1.363 . S
C2392 H2369 0.950 . S
C2392 C2391 1.397 . S
C2392 C2393 1.334 . S
C2393 H2370 0.950 . S
C2393 C2392 1.334 . S
C2393 C2394 1.287 . S
C2394 C2393 1.287 . S
C2394 C2395 1.524 . S
C2394 H2413 0.913 . S
C2395 H2371 0.950 . S
C2395 C2394 1.524 . S
C2395 C2396 1.415 . S
C2396 H2372 0.950 . S
C2396 C2391 1.363 . S
C2396 C2395 1.415 . S
C2397 H2373 0.951 . S
C2397 C2398 1.366 . S
C2397 C2399 1.388 . S
C2398 C2397 1.366 . S
C2398 C2402 1.385 . S
C2399 H2374 0.951 . S
C2399 C2397 1.388 . S
C2399 C2400 1.366 . S
C2400 C2399 1.366 . S
C2400 C2401 1.414 . S
C2400 C2403 1.499 . S
C2401 H2375 0.950 . S
C2401 C2400 1.414 . S
C2401 C2402 1.374 . S
C2402 H2376 0.950 . S
C2402 C2398 1.385 . S
C2402 C2401 1.374 . S
C2403 C2400 1.499 . S
C2403 C2404 1.373 . S
C2403 C2405 1.389 . S
C2404 H2377 0.950 . S
C2404 C2390 1.377 . S
C2404 C2403 1.373 . S
C2405 C2389 1.377 . S
C2405 C2403 1.389 . S
C2405 C2406 1.524 . S
C2406 C2405 1.524 . S
C2406 C2407 1.397 . S
C2406 C2411 1.363 . S
C2407 H2378 0.950 . S
C2407 C2406 1.397 . S
C2407 C2408 1.334 . S
C2408 H2379 0.950 . S
C2408 C2407 1.334 . S
C2408 C2409 1.287 . S
C2409 C2408 1.287 . S
C2409 C2410 1.524 . S
C2409 H2412 0.999 . S
C2410 H2380 0.950 . S
C2410 C2409 1.524 . S
C2410 C2411 1.415 . S
C2411 H2381 0.950 . S
C2411 C2406 1.363 . S
C2411 C2410 1.415 . S
H2412 C2409 0.999 . S
H2413 C2394 0.913 . S
H2414 C2432 0.951 . S
H2415 C2434 0.951 . S
H2416 C2436 0.950 . S
H2417 C2437 0.950 . S
H2418 C2439 0.950 . S
H2419 C2442 0.950 . S
H2420 C2443 0.950 . S
H2421 C2445 0.950 . S
H2422 C2446 0.950 . S
H2423 C2447 0.951 . S
H2424 C2449 0.951 . S
H2425 C2451 0.950 . S
H2426 C2452 0.950 . S
H2427 C2454 0.950 . S
H2428 C2457 0.950 . S
H2429 C2458 0.950 . S
H2430 C2460 0.950 . S
H2431 C2461 0.950 . S
C2432 H2414 0.951 . S
C2432 C2433 1.366 . S
C2432 C2434 1.388 . S
C2433 C2432 1.366 . S
C2433 C2437 1.385 . S
C2434 H2415 0.951 . S
C2434 C2432 1.388 . S
C2434 C2435 1.366 . S
C2435 C2434 1.366 . S
C2435 C2436 1.414 . S
C2435 C2438 1.499 . S
C2436 H2416 0.950 . S
C2436 C2435 1.414 . S
C2436 C2437 1.374 . S
C2437 H2417 0.950 . S
C2437 C2433 1.385 . S
C2437 C2436 1.374 . S
C2438 C2435 1.499 . S
C2438 C2439 1.373 . S
C2438 C2440 1.389 . S
C2439 H2418 0.950 . S
C2439 C2438 1.373 . S
C2439 C2455 1.377 . S
C2440 C2438 1.389 . S
C2440 C2441 1.524 . S
C2440 C2454 1.377 . S
C2441 C2440 1.524 . S
C2441 C2442 1.397 . S
C2441 C2446 1.363 . S
C2442 H2419 0.950 . S
C2442 C2441 1.397 . S
C2442 C2443 1.334 . S
C2443 H2420 0.950 . S
C2443 C2442 1.334 . S
C2443 C2444 1.287 . S
C2444 C2443 1.287 . S
C2444 C2445 1.524 . S
C2444 H2463 0.913 . S
C2445 H2421 0.950 . S
C2445 C2444 1.524 . S
C2445 C2446 1.415 . S
C2446 H2422 0.950 . S
C2446 C2441 1.363 . S
C2446 C2445 1.415 . S
C2447 H2423 0.951 . S
C2447 C2448 1.366 . S
C2447 C2449 1.388 . S
C2448 C2447 1.366 . S
C2448 C2452 1.385 . S
C2449 H2424 0.951 . S
C2449 C2447 1.388 . S
C2449 C2450 1.366 . S
C2450 C2449 1.366 . S
C2450 C2451 1.414 . S
C2450 C2453 1.499 . S
C2451 H2425 0.950 . S
C2451 C2450 1.414 . S
C2451 C2452 1.374 . S
C2452 H2426 0.950 . S
C2452 C2448 1.385 . S
C2452 C2451 1.374 . S
C2453 C2450 1.499 . S
C2453 C2454 1.373 . S
C2453 C2455 1.389 . S
C2454 H2427 0.950 . S
C2454 C2440 1.377 . S
C2454 C2453 1.373 . S
C2455 C2439 1.377 . S
C2455 C2453 1.389 . S
C2455 C2456 1.524 . S
C2456 C2455 1.524 . S
C2456 C2457 1.397 . S
C2456 C2461 1.363 . S
C2457 H2428 0.950 . S
C2457 C2456 1.397 . S
C2457 C2458 1.334 . S
C2458 H2429 0.950 . S
C2458 C2457 1.334 . S
C2458 C2459 1.287 . S
C2459 C2458 1.287 . S
C2459 C2460 1.524 . S
C2459 H2462 0.999 . S
C2460 H2430 0.950 . S
C2460 C2459 1.524 . S
C2460 C2461 1.415 . S
C2461 H2431 0.950 . S
C2461 C2456 1.363 . S
C2461 C2460 1.415 . S
H2462 C2459 0.999 . S
H2463 C2444 0.913 . S
H2464 C2482 0.951 . S
H2465 C2484 0.951 . S
H2466 C2486 0.950 . S
H2467 C2487 0.950 . S
H2468 C2489 0.950 . S
H2469 C2492 0.950 . S
H2470 C2493 0.950 . S
H2471 C2495 0.950 . S
H2472 C2496 0.950 . S
H2473 C2497 0.951 . S
H2474 C2499 0.951 . S
H2475 C2501 0.950 . S
H2476 C2502 0.950 . S
H2477 C2504 0.950 . S
H2478 C2507 0.950 . S
H2479 C2508 0.950 . S
H2480 C2510 0.950 . S
H2481 C2511 0.950 . S
C2482 H2464 0.951 . S
C2482 C2483 1.366 . S
C2482 C2484 1.388 . S
C2483 C2482 1.366 . S
C2483 C2487 1.385 . S
C2484 H2465 0.951 . S
C2484 C2482 1.388 . S
C2484 C2485 1.366 . S
C2485 C2484 1.366 . S
C2485 C2486 1.414 . S
C2485 C2488 1.499 . S
C2486 H2466 0.950 . S
C2486 C2485 1.414 . S
C2486 C2487 1.374 . S
C2487 H2467 0.950 . S
C2487 C2483 1.385 . S
C2487 C2486 1.374 . S
C2488 C2485 1.499 . S
C2488 C2489 1.373 . S
C2488 C2490 1.389 . S
C2489 H2468 0.950 . S
C2489 C2488 1.373 . S
C2489 C2505 1.377 . S
C2490 C2488 1.389 . S
C2490 C2491 1.524 . S
C2490 C2504 1.377 . S
C2491 C2490 1.524 . S
C2491 C2492 1.397 . S
C2491 C2496 1.363 . S
C2492 H2469 0.950 . S
C2492 C2491 1.397 . S
C2492 C2493 1.334 . S
C2493 H2470 0.950 . S
C2493 C2492 1.334 . S
C2493 C2494 1.287 . S
C2494 C2493 1.287 . S
C2494 C2495 1.524 . S
C2494 H2513 0.913 . S
C2495 H2471 0.950 . S
C2495 C2494 1.524 . S
C2495 C2496 1.415 . S
C2496 H2472 0.950 . S
C2496 C2491 1.363 . S
C2496 C2495 1.415 . S
C2497 H2473 0.951 . S
C2497 C2498 1.366 . S
C2497 C2499 1.388 . S
C2498 C2497 1.366 . S
C2498 C2502 1.385 . S
C2499 H2474 0.951 . S
C2499 C2497 1.388 . S
C2499 C2500 1.366 . S
C2500 C2499 1.366 . S
C2500 C2501 1.414 . S
C2500 C2503 1.499 . S
C2501 H2475 0.950 . S
C2501 C2500 1.414 . S
C2501 C2502 1.374 . S
C2502 H2476 0.950 . S
C2502 C2498 1.385 . S
C2502 C2501 1.374 . S
C2503 C2500 1.499 . S
C2503 C2504 1.373 . S
C2503 C2505 1.389 . S
C2504 H2477 0.950 . S
C2504 C2490 1.377 . S
C2504 C2503 1.373 . S
C2505 C2489 1.377 . S
C2505 C2503 1.389 . S
C2505 C2506 1.524 . S
C2506 C2505 1.524 . S
C2506 C2507 1.397 . S
C2506 C2511 1.363 . S
C2507 H2478 0.950 . S
C2507 C2506 1.397 . S
C2507 C2508 1.334 . S
C2508 H2479 0.950 . S
C2508 C2507 1.334 . S
C2508 C2509 1.287 . S
C2509 C2508 1.287 . S
C2509 C2510 1.524 . S
C2509 H2512 0.999 . S
C2510 H2480 0.950 . S
C2510 C2509 1.524 . S
C2510 C2511 1.415 . S
C2511 H2481 0.950 . S
C2511 C2506 1.363 . S
C2511 C2510 1.415 . S
H2512 C2509 0.999 . S
H2513 C2494 0.913 . S
H2514 C2532 0.951 . S
H2515 C2534 0.951 . S
H2516 C2536 0.950 . S
H2517 C2537 0.950 . S
H2518 C2539 0.950 . S
H2519 C2542 0.950 . S
H2520 C2543 0.950 . S
H2521 C2545 0.950 . S
H2522 C2546 0.950 . S
H2523 C2547 0.951 . S
H2524 C2549 0.951 . S
H2525 C2551 0.950 . S
H2526 C2552 0.950 . S
H2527 C2554 0.950 . S
H2528 C2557 0.950 . S
H2529 C2558 0.950 . S
H2530 C2560 0.950 . S
H2531 C2561 0.950 . S
C2532 H2514 0.951 . S
C2532 C2533 1.366 . S
C2532 C2534 1.388 . S
C2533 C2532 1.366 . S
C2533 C2537 1.385 . S
C2534 H2515 0.951 . S
C2534 C2532 1.388 . S
C2534 C2535 1.366 . S
C2535 C2534 1.366 . S
C2535 C2536 1.414 . S
C2535 C2538 1.499 . S
C2536 H2516 0.950 . S
C2536 C2535 1.414 . S
C2536 C2537 1.374 . S
C2537 H2517 0.950 . S
C2537 C2533 1.385 . S
C2537 C2536 1.374 . S
C2538 C2535 1.499 . S
C2538 C2539 1.373 . S
C2538 C2540 1.389 . S
C2539 H2518 0.950 . S
C2539 C2538 1.373 . S
C2539 C2555 1.377 . S
C2540 C2538 1.389 . S
C2540 C2541 1.524 . S
C2540 C2554 1.377 . S
C2541 C2540 1.524 . S
C2541 C2542 1.397 . S
C2541 C2546 1.363 . S
C2542 H2519 0.950 . S
C2542 C2541 1.397 . S
C2542 C2543 1.334 . S
C2543 H2520 0.950 . S
C2543 C2542 1.334 . S
C2543 C2544 1.287 . S
C2544 C2543 1.287 . S
C2544 C2545 1.524 . S
C2544 H2563 0.913 . S
C2545 H2521 0.950 . S
C2545 C2544 1.524 . S
C2545 C2546 1.415 . S
C2546 H2522 0.950 . S
C2546 C2541 1.363 . S
C2546 C2545 1.415 . S
C2547 H2523 0.951 . S
C2547 C2548 1.366 . S
C2547 C2549 1.388 . S
C2548 C2547 1.366 . S
C2548 C2552 1.385 . S
C2549 H2524 0.951 . S
C2549 C2547 1.388 . S
C2549 C2550 1.366 . S
C2550 C2549 1.366 . S
C2550 C2551 1.414 . S
C2550 C2553 1.499 . S
C2551 H2525 0.950 . S
C2551 C2550 1.414 . S
C2551 C2552 1.374 . S
C2552 H2526 0.950 . S
C2552 C2548 1.385 . S
C2552 C2551 1.374 . S
C2553 C2550 1.499 . S
C2553 C2554 1.373 . S
C2553 C2555 1.389 . S
C2554 H2527 0.950 . S
C2554 C2540 1.377 . S
C2554 C2553 1.373 . S
C2555 C2539 1.377 . S
C2555 C2553 1.389 . S
C2555 C2556 1.524 . S
C2556 C2555 1.524 . S
C2556 C2557 1.397 . S
C2556 C2561 1.363 . S
C2557 H2528 0.950 . S
C2557 C2556 1.397 . S
C2557 C2558 1.334 . S
C2558 H2529 0.950 . S
C2558 C2557 1.334 . S
C2558 C2559 1.287 . S
C2559 C2558 1.287 . S
C2559 C2560 1.524 . S
C2559 H2562 0.999 . S
C2560 H2530 0.950 . S
C2560 C2559 1.524 . S
C2560 C2561 1.415 . S
C2561 H2531 0.950 . S
C2561 C2556 1.363 . S
C2561 C2560 1.415 . S
H2562 C2559 0.999 . S
H2563 C2544 0.913 . S
H2564 C2582 0.951 . S
H2565 C2584 0.951 . S
H2566 C2586 0.950 . S
H2567 C2587 0.950 . S
H2568 C2589 0.950 . S
H2569 C2592 0.950 . S
H2570 C2593 0.950 . S
H2571 C2595 0.950 . S
H2572 C2596 0.950 . S
H2573 C2597 0.951 . S
H2574 C2599 0.951 . S
H2575 C2601 0.950 . S
H2576 C2602 0.950 . S
H2577 C2604 0.950 . S
H2578 C2607 0.950 . S
H2579 C2608 0.950 . S
H2580 C2610 0.950 . S
H2581 C2611 0.950 . S
C2582 H2564 0.951 . S
C2582 C2583 1.366 . S
C2582 C2584 1.388 . S
C2583 C2582 1.366 . S
C2583 C2587 1.385 . S
C2584 H2565 0.951 . S
C2584 C2582 1.388 . S
C2584 C2585 1.366 . S
C2585 C2584 1.366 . S
C2585 C2586 1.414 . S
C2585 C2588 1.499 . S
C2586 H2566 0.950 . S
C2586 C2585 1.414 . S
C2586 C2587 1.374 . S
C2587 H2567 0.950 . S
C2587 C2583 1.385 . S
C2587 C2586 1.374 . S
C2588 C2585 1.499 . S
C2588 C2589 1.373 . S
C2588 C2590 1.389 . S
C2589 H2568 0.950 . S
C2589 C2588 1.373 . S
C2589 C2605 1.377 . S
C2590 C2588 1.389 . S
C2590 C2591 1.524 . S
C2590 C2604 1.377 . S
C2591 C2590 1.524 . S
C2591 C2592 1.397 . S
C2591 C2596 1.363 . S
C2592 H2569 0.950 . S
C2592 C2591 1.397 . S
C2592 C2593 1.334 . S
C2593 H2570 0.950 . S
C2593 C2592 1.334 . S
C2593 C2594 1.287 . S
C2594 C2593 1.287 . S
C2594 C2595 1.524 . S
C2594 H2613 0.913 . S
C2595 H2571 0.950 . S
C2595 C2594 1.524 . S
C2595 C2596 1.415 . S
C2596 H2572 0.950 . S
C2596 C2591 1.363 . S
C2596 C2595 1.415 . S
C2597 H2573 0.951 . S
C2597 C2598 1.366 . S
C2597 C2599 1.388 . S
C2598 C2597 1.366 . S
C2598 C2602 1.385 . S
C2599 H2574 0.951 . S
C2599 C2597 1.388 . S
C2599 C2600 1.366 . S
C2600 C2599 1.366 . S
C2600 C2601 1.414 . S
C2600 C2603 1.499 . S
C2601 H2575 0.950 . S
C2601 C2600 1.414 . S
C2601 C2602 1.374 . S
C2602 H2576 0.950 . S
C2602 C2598 1.385 . S
C2602 C2601 1.374 . S
C2603 C2600 1.499 . S
C2603 C2604 1.373 . S
C2603 C2605 1.389 . S
C2604 H2577 0.950 . S
C2604 C2590 1.377 . S
C2604 C2603 1.373 . S
C2605 C2589 1.377 . S
C2605 C2603 1.389 . S
C2605 C2606 1.524 . S
C2606 C2605 1.524 . S
C2606 C2607 1.397 . S
C2606 C2611 1.363 . S
C2607 H2578 0.950 . S
C2607 C2606 1.397 . S
C2607 C2608 1.334 . S
C2608 H2579 0.950 . S
C2608 C2607 1.334 . S
C2608 C2609 1.287 . S
C2609 C2608 1.287 . S
C2609 C2610 1.524 . S
C2609 H2612 0.999 . S
C2610 H2580 0.950 . S
C2610 C2609 1.524 . S
C2610 C2611 1.415 . S
C2611 H2581 0.950 . S
C2611 C2606 1.363 . S
C2611 C2610 1.415 . S
H2612 C2609 0.999 . S
H2613 C2594 0.913 . S
H2614 C2632 0.951 . S
H2615 C2634 0.951 . S
H2616 C2636 0.950 . S
H2617 C2637 0.950 . S
H2618 C2639 0.950 . S
H2619 C2642 0.950 . S
H2620 C2643 0.950 . S
H2621 C2645 0.950 . S
H2622 C2646 0.950 . S
H2623 C2647 0.951 . S
H2624 C2649 0.951 . S
H2625 C2651 0.950 . S
H2626 C2652 0.950 . S
H2627 C2654 0.950 . S
H2628 C2657 0.950 . S
H2629 C2658 0.950 . S
H2630 C2660 0.950 . S
H2631 C2661 0.950 . S
C2632 H2614 0.951 . S
C2632 C2633 1.366 . S
C2632 C2634 1.388 . S
C2633 C2632 1.366 . S
C2633 C2637 1.385 . S
C2634 H2615 0.951 . S
C2634 C2632 1.388 . S
C2634 C2635 1.366 . S
C2635 C2634 1.366 . S
C2635 C2636 1.414 . S
C2635 C2638 1.499 . S
C2636 H2616 0.950 . S
C2636 C2635 1.414 . S
C2636 C2637 1.374 . S
C2637 H2617 0.950 . S
C2637 C2633 1.385 . S
C2637 C2636 1.374 . S
C2638 C2635 1.499 . S
C2638 C2639 1.373 . S
C2638 C2640 1.389 . S
C2639 H2618 0.950 . S
C2639 C2638 1.373 . S
C2639 C2655 1.377 . S
C2640 C2638 1.389 . S
C2640 C2641 1.524 . S
C2640 C2654 1.377 . S
C2641 C2640 1.524 . S
C2641 C2642 1.397 . S
C2641 C2646 1.363 . S
C2642 H2619 0.950 . S
C2642 C2641 1.397 . S
C2642 C2643 1.334 . S
C2643 H2620 0.950 . S
C2643 C2642 1.334 . S
C2643 C2644 1.287 . S
C2644 C2643 1.287 . S
C2644 C2645 1.524 . S
C2644 H2663 0.913 . S
C2645 H2621 0.950 . S
C2645 C2644 1.524 . S
C2645 C2646 1.415 . S
C2646 H2622 0.950 . S
C2646 C2641 1.363 . S
C2646 C2645 1.415 . S
C2647 H2623 0.951 . S
C2647 C2648 1.366 . S
C2647 C2649 1.388 . S
C2648 C2647 1.366 . S
C2648 C2652 1.385 . S
C2649 H2624 0.951 . S
C2649 C2647 1.388 . S
C2649 C2650 1.366 . S
C2650 C2649 1.366 . S
C2650 C2651 1.414 . S
C2650 C2653 1.499 . S
C2651 H2625 0.950 . S
C2651 C2650 1.414 . S
C2651 C2652 1.374 . S
C2652 H2626 0.950 . S
C2652 C2648 1.385 . S
C2652 C2651 1.374 . S
C2653 C2650 1.499 . S
C2653 C2654 1.373 . S
C2653 C2655 1.389 . S
C2654 H2627 0.950 . S
C2654 C2640 1.377 . S
C2654 C2653 1.373 . S
C2655 C2639 1.377 . S
C2655 C2653 1.389 . S
C2655 C2656 1.524 . S
C2656 C2655 1.524 . S
C2656 C2657 1.397 . S
C2656 C2661 1.363 . S
C2657 H2628 0.950 . S
C2657 C2656 1.397 . S
C2657 C2658 1.334 . S
C2658 H2629 0.950 . S
C2658 C2657 1.334 . S
C2658 C2659 1.287 . S
C2659 C2658 1.287 . S
C2659 C2660 1.524 . S
C2659 H2662 0.999 . S
C2660 H2630 0.950 . S
C2660 C2659 1.524 . S
C2660 C2661 1.415 . S
C2661 H2631 0.950 . S
C2661 C2656 1.363 . S
C2661 C2660 1.415 . S
H2662 C2659 0.999 . S
H2663 C2644 0.913 . S
H2664 C2682 0.951 . S
H2665 C2684 0.951 . S
H2666 C2686 0.950 . S
H2667 C2687 0.950 . S
H2668 C2689 0.950 . S
H2669 C2692 0.950 . S
H2670 C2693 0.950 . S
H2671 C2695 0.950 . S
H2672 C2696 0.950 . S
H2673 C2697 0.951 . S
H2674 C2699 0.951 . S
H2675 C2701 0.950 . S
H2676 C2702 0.950 . S
H2677 C2704 0.950 . S
H2678 C2707 0.950 . S
H2679 C2708 0.950 . S
H2680 C2710 0.950 . S
H2681 C2711 0.950 . S
C2682 H2664 0.951 . S
C2682 C2683 1.366 . S
C2682 C2684 1.388 . S
C2683 C2682 1.366 . S
C2683 C2687 1.385 . S
C2684 H2665 0.951 . S
C2684 C2682 1.388 . S
C2684 C2685 1.366 . S
C2685 C2684 1.366 . S
C2685 C2686 1.414 . S
C2685 C2688 1.499 . S
C2686 H2666 0.950 . S
C2686 C2685 1.414 . S
C2686 C2687 1.374 . S
C2687 H2667 0.950 . S
C2687 C2683 1.385 . S
C2687 C2686 1.374 . S
C2688 C2685 1.499 . S
C2688 C2689 1.373 . S
C2688 C2690 1.389 . S
C2689 H2668 0.950 . S
C2689 C2688 1.373 . S
C2689 C2705 1.377 . S
C2690 C2688 1.389 . S
C2690 C2691 1.524 . S
C2690 C2704 1.377 . S
C2691 C2690 1.524 . S
C2691 C2692 1.397 . S
C2691 C2696 1.363 . S
C2692 H2669 0.950 . S
C2692 C2691 1.397 . S
C2692 C2693 1.334 . S
C2693 H2670 0.950 . S
C2693 C2692 1.334 . S
C2693 C2694 1.287 . S
C2694 C2693 1.287 . S
C2694 C2695 1.524 . S
C2694 H2713 0.913 . S
C2695 H2671 0.950 . S
C2695 C2694 1.524 . S
C2695 C2696 1.415 . S
C2696 H2672 0.950 . S
C2696 C2691 1.363 . S
C2696 C2695 1.415 . S
C2697 H2673 0.951 . S
C2697 C2698 1.366 . S
C2697 C2699 1.388 . S
C2698 C2697 1.366 . S
C2698 C2702 1.385 . S
C2699 H2674 0.951 . S
C2699 C2697 1.388 . S
C2699 C2700 1.366 . S
C2700 C2699 1.366 . S
C2700 C2701 1.414 . S
C2700 C2703 1.499 . S
C2701 H2675 0.950 . S
C2701 C2700 1.414 . S
C2701 C2702 1.374 . S
C2702 H2676 0.950 . S
C2702 C2698 1.385 . S
C2702 C2701 1.374 . S
C2703 C2700 1.499 . S
C2703 C2704 1.373 . S
C2703 C2705 1.389 . S
C2704 H2677 0.950 . S
C2704 C2690 1.377 . S
C2704 C2703 1.373 . S
C2705 C2689 1.377 . S
C2705 C2703 1.389 . S
C2705 C2706 1.524 . S
C2706 C2705 1.524 . S
C2706 C2707 1.397 . S
C2706 C2711 1.363 . S
C2707 H2678 0.950 . S
C2707 C2706 1.397 . S
C2707 C2708 1.334 . S
C2708 H2679 0.950 . S
C2708 C2707 1.334 . S
C2708 C2709 1.287 . S
C2709 C2708 1.287 . S
C2709 C2710 1.524 . S
C2709 H2712 0.999 . S
C2710 H2680 0.950 . S
C2710 C2709 1.524 . S
C2710 C2711 1.415 . S
C2711 H2681 0.950 . S
C2711 C2706 1.363 . S
C2711 C2710 1.415 . S
H2712 C2709 0.999 . S
H2713 C2694 0.913 . S
H2714 C2732 0.951 . S
H2715 C2734 0.951 . S
H2716 C2736 0.950 . S
H2717 C2737 0.950 . S
H2718 C2739 0.950 . S
H2719 C2742 0.950 . S
H2720 C2743 0.950 . S
H2721 C2745 0.950 . S
H2722 C2746 0.950 . S
H2723 C2747 0.951 . S
H2724 C2749 0.951 . S
H2725 C2751 0.950 . S
H2726 C2752 0.950 . S
H2727 C2754 0.950 . S
H2728 C2757 0.950 . S
H2729 C2758 0.950 . S
H2730 C2760 0.950 . S
H2731 C2761 0.950 . S
C2732 H2714 0.951 . S
C2732 C2733 1.366 . S
C2732 C2734 1.388 . S
C2733 C2732 1.366 . S
C2733 C2737 1.385 . S
C2734 H2715 0.951 . S
C2734 C2732 1.388 . S
C2734 C2735 1.366 . S
C2735 C2734 1.366 . S
C2735 C2736 1.414 . S
C2735 C2738 1.499 . S
C2736 H2716 0.950 . S
C2736 C2735 1.414 . S
C2736 C2737 1.374 . S
C2737 H2717 0.950 . S
C2737 C2733 1.385 . S
C2737 C2736 1.374 . S
C2738 C2735 1.499 . S
C2738 C2739 1.373 . S
C2738 C2740 1.389 . S
C2739 H2718 0.950 . S
C2739 C2738 1.373 . S
C2739 C2755 1.377 . S
C2740 C2738 1.389 . S
C2740 C2741 1.524 . S
C2740 C2754 1.377 . S
C2741 C2740 1.524 . S
C2741 C2742 1.397 . S
C2741 C2746 1.363 . S
C2742 H2719 0.950 . S
C2742 C2741 1.397 . S
C2742 C2743 1.334 . S
C2743 H2720 0.950 . S
C2743 C2742 1.334 . S
C2743 C2744 1.287 . S
C2744 C2743 1.287 . S
C2744 C2745 1.524 . S
C2744 H2763 0.913 . S
C2745 H2721 0.950 . S
C2745 C2744 1.524 . S
C2745 C2746 1.415 . S
C2746 H2722 0.950 . S
C2746 C2741 1.363 . S
C2746 C2745 1.415 . S
C2747 H2723 0.951 . S
C2747 C2748 1.366 . S
C2747 C2749 1.388 . S
C2748 C2747 1.366 . S
C2748 C2752 1.385 . S
C2749 H2724 0.951 . S
C2749 C2747 1.388 . S
C2749 C2750 1.366 . S
C2750 C2749 1.366 . S
C2750 C2751 1.414 . S
C2750 C2753 1.499 . S
C2751 H2725 0.950 . S
C2751 C2750 1.414 . S
C2751 C2752 1.374 . S
C2752 H2726 0.950 . S
C2752 C2748 1.385 . S
C2752 C2751 1.374 . S
C2753 C2750 1.499 . S
C2753 C2754 1.373 . S
C2753 C2755 1.389 . S
C2754 H2727 0.950 . S
C2754 C2740 1.377 . S
C2754 C2753 1.373 . S
C2755 C2739 1.377 . S
C2755 C2753 1.389 . S
C2755 C2756 1.524 . S
C2756 C2755 1.524 . S
C2756 C2757 1.397 . S
C2756 C2761 1.363 . S
C2757 H2728 0.950 . S
C2757 C2756 1.397 . S
C2757 C2758 1.334 . S
C2758 H2729 0.950 . S
C2758 C2757 1.334 . S
C2758 C2759 1.287 . S
C2759 C2758 1.287 . S
C2759 C2760 1.524 . S
C2759 H2762 0.999 . S
C2760 H2730 0.950 . S
C2760 C2759 1.524 . S
C2760 C2761 1.415 . S
C2761 H2731 0.950 . S
C2761 C2756 1.363 . S
C2761 C2760 1.415 . S
H2762 C2759 0.999 . S
H2763 C2744 0.913 . S
H2764 C2782 0.951 . S
H2765 C2784 0.951 . S
H2766 C2786 0.950 . S
H2767 C2787 0.950 . S
H2768 C2789 0.950 . S
H2769 C2792 0.950 . S
H2770 C2793 0.950 . S
H2771 C2795 0.950 . S
H2772 C2796 0.950 . S
H2773 C2797 0.951 . S
H2774 C2799 0.951 . S
H2775 C2801 0.950 . S
H2776 C2802 0.950 . S
H2777 C2804 0.950 . S
H2778 C2807 0.950 . S
H2779 C2808 0.950 . S
H2780 C2810 0.950 . S
H2781 C2811 0.950 . S
C2782 H2764 0.951 . S
C2782 C2783 1.366 . S
C2782 C2784 1.388 . S
C2783 C2782 1.366 . S
C2783 C2787 1.385 . S
C2784 H2765 0.951 . S
C2784 C2782 1.388 . S
C2784 C2785 1.366 . S
C2785 C2784 1.366 . S
C2785 C2786 1.414 . S
C2785 C2788 1.499 . S
C2786 H2766 0.950 . S
C2786 C2785 1.414 . S
C2786 C2787 1.374 . S
C2787 H2767 0.950 . S
C2787 C2783 1.385 . S
C2787 C2786 1.374 . S
C2788 C2785 1.499 . S
C2788 C2789 1.373 . S
C2788 C2790 1.389 . S
C2789 H2768 0.950 . S
C2789 C2788 1.373 . S
C2789 C2805 1.377 . S
C2790 C2788 1.389 . S
C2790 C2791 1.524 . S
C2790 C2804 1.377 . S
C2791 C2790 1.524 . S
C2791 C2792 1.397 . S
C2791 C2796 1.363 . S
C2792 H2769 0.950 . S
C2792 C2791 1.397 . S
C2792 C2793 1.334 . S
C2793 H2770 0.950 . S
C2793 C2792 1.334 . S
C2793 C2794 1.287 . S
C2794 C2793 1.287 . S
C2794 C2795 1.524 . S
C2794 H2813 0.913 . S
C2795 H2771 0.950 . S
C2795 C2794 1.524 . S
C2795 C2796 1.415 . S
C2796 H2772 0.950 . S
C2796 C2791 1.363 . S
C2796 C2795 1.415 . S
C2797 H2773 0.951 . S
C2797 C2798 1.366 . S
C2797 C2799 1.388 . S
C2798 C2797 1.366 . S
C2798 C2802 1.385 . S
C2799 H2774 0.951 . S
C2799 C2797 1.388 . S
C2799 C2800 1.366 . S
C2800 C2799 1.366 . S
C2800 C2801 1.414 . S
C2800 C2803 1.499 . S
C2801 H2775 0.950 . S
C2801 C2800 1.414 . S
C2801 C2802 1.374 . S
C2802 H2776 0.950 . S
C2802 C2798 1.385 . S
C2802 C2801 1.374 . S
C2803 C2800 1.499 . S
C2803 C2804 1.373 . S
C2803 C2805 1.389 . S
C2804 H2777 0.950 . S
C2804 C2790 1.377 . S
C2804 C2803 1.373 . S
C2805 C2789 1.377 . S
C2805 C2803 1.389 . S
C2805 C2806 1.524 . S
C2806 C2805 1.524 . S
C2806 C2807 1.397 . S
C2806 C2811 1.363 . S
C2807 H2778 0.950 . S
C2807 C2806 1.397 . S
C2807 C2808 1.334 . S
C2808 H2779 0.950 . S
C2808 C2807 1.334 . S
C2808 C2809 1.287 . S
C2809 C2808 1.287 . S
C2809 C2810 1.524 . S
C2809 H2812 0.999 . S
C2810 H2780 0.950 . S
C2810 C2809 1.524 . S
C2810 C2811 1.415 . S
C2811 H2781 0.950 . S
C2811 C2806 1.363 . S
C2811 C2810 1.415 . S
H2812 C2809 0.999 . S
H2813 C2794 0.913 . S
H2814 C2832 0.951 . S
H2815 C2834 0.951 . S
H2816 C2836 0.950 . S
H2817 C2837 0.950 . S
H2818 C2839 0.950 . S
H2819 C2842 0.950 . S
H2820 C2843 0.950 . S
H2821 C2845 0.950 . S
H2822 C2846 0.950 . S
H2823 C2847 0.951 . S
H2824 C2849 0.951 . S
H2825 C2851 0.950 . S
H2826 C2852 0.950 . S
H2827 C2854 0.950 . S
H2828 C2857 0.950 . S
H2829 C2858 0.950 . S
H2830 C2860 0.950 . S
H2831 C2861 0.950 . S
C2832 H2814 0.951 . S
C2832 C2833 1.366 . S
C2832 C2834 1.388 . S
C2833 C2832 1.366 . S
C2833 C2837 1.385 . S
C2834 H2815 0.951 . S
C2834 C2832 1.388 . S
C2834 C2835 1.366 . S
C2835 C2834 1.366 . S
C2835 C2836 1.414 . S
C2835 C2838 1.499 . S
C2836 H2816 0.950 . S
C2836 C2835 1.414 . S
C2836 C2837 1.374 . S
C2837 H2817 0.950 . S
C2837 C2833 1.385 . S
C2837 C2836 1.374 . S
C2838 C2835 1.499 . S
C2838 C2839 1.373 . S
C2838 C2840 1.389 . S
C2839 H2818 0.950 . S
C2839 C2838 1.373 . S
C2839 C2855 1.377 . S
C2840 C2838 1.389 . S
C2840 C2841 1.524 . S
C2840 C2854 1.377 . S
C2841 C2840 1.524 . S
C2841 C2842 1.397 . S
C2841 C2846 1.363 . S
C2842 H2819 0.950 . S
C2842 C2841 1.397 . S
C2842 C2843 1.334 . S
C2843 H2820 0.950 . S
C2843 C2842 1.334 . S
C2843 C2844 1.287 . S
C2844 C2843 1.287 . S
C2844 C2845 1.524 . S
C2844 H2863 0.913 . S
C2845 H2821 0.950 . S
C2845 C2844 1.524 . S
C2845 C2846 1.415 . S
C2846 H2822 0.950 . S
C2846 C2841 1.363 . S
C2846 C2845 1.415 . S
C2847 H2823 0.951 . S
C2847 C2848 1.366 . S
C2847 C2849 1.388 . S
C2848 C2847 1.366 . S
C2848 C2852 1.385 . S
C2849 H2824 0.951 . S
C2849 C2847 1.388 . S
C2849 C2850 1.366 . S
C2850 C2849 1.366 . S
C2850 C2851 1.414 . S
C2850 C2853 1.499 . S
C2851 H2825 0.950 . S
C2851 C2850 1.414 . S
C2851 C2852 1.374 . S
C2852 H2826 0.950 . S
C2852 C2848 1.385 . S
C2852 C2851 1.374 . S
C2853 C2850 1.499 . S
C2853 C2854 1.373 . S
C2853 C2855 1.389 . S
C2854 H2827 0.950 . S
C2854 C2840 1.377 . S
C2854 C2853 1.373 . S
C2855 C2839 1.377 . S
C2855 C2853 1.389 . S
C2855 C2856 1.524 . S
C2856 C2855 1.524 . S
C2856 C2857 1.397 . S
C2856 C2861 1.363 . S
C2857 H2828 0.950 . S
C2857 C2856 1.397 . S
C2857 C2858 1.334 . S
C2858 H2829 0.950 . S
C2858 C2857 1.334 . S
C2858 C2859 1.287 . S
C2859 C2858 1.287 . S
C2859 C2860 1.524 . S
C2859 H2862 0.999 . S
C2860 H2830 0.950 . S
C2860 C2859 1.524 . S
C2860 C2861 1.415 . S
C2861 H2831 0.950 . S
C2861 C2856 1.363 . S
C2861 C2860 1.415 . S
H2862 C2859 0.999 . S
H2863 C2844 0.913 . S
H2864 C2882 0.951 . S
H2865 C2884 0.951 . S
H2866 C2886 0.950 . S
H2867 C2887 0.950 . S
H2868 C2889 0.950 . S
H2869 C2892 0.950 . S
H2870 C2893 0.950 . S
H2871 C2895 0.950 . S
H2872 C2896 0.950 . S
H2873 C2897 0.951 . S
H2874 C2899 0.951 . S
H2875 C2901 0.950 . S
H2876 C2902 0.950 . S
H2877 C2904 0.950 . S
H2878 C2907 0.950 . S
H2879 C2908 0.950 . S
H2880 C2910 0.963 . S
H2881 C2911 0.950 . S
C2882 H2864 0.951 . S
C2882 C2883 1.366 . S
C2882 C2884 1.388 . S
C2883 C2882 1.366 . S
C2883 C2887 1.385 . S
C2884 H2865 0.951 . S
C2884 C2882 1.388 . S
C2884 C2885 1.366 . S
C2885 C2884 1.366 . S
C2885 C2886 1.414 . S
C2885 C2888 1.499 . S
C2886 H2866 0.950 . S
C2886 C2885 1.414 . S
C2886 C2887 1.374 . S
C2887 H2867 0.950 . S
C2887 C2883 1.385 . S
C2887 C2886 1.374 . S
C2888 C2885 1.499 . S
C2888 C2889 1.373 . S
C2888 C2890 1.389 . S
C2889 H2868 0.950 . S
C2889 C2888 1.373 . S
C2889 C2905 1.377 . S
C2890 C2888 1.389 . S
C2890 C2891 1.524 . S
C2890 C2904 1.377 . S
C2891 C2890 1.524 . S
C2891 C2892 1.397 . S
C2891 C2896 1.363 . S
C2892 H2869 0.950 . S
C2892 C2891 1.397 . S
C2892 C2893 1.334 . S
C2893 H2870 0.950 . S
C2893 C2892 1.334 . S
C2893 C2894 1.287 . S
C2894 C2893 1.287 . S
C2894 C2895 1.524 . S
C2894 H2913 0.913 . S
C2895 H2871 0.950 . S
C2895 C2894 1.524 . S
C2895 C2896 1.415 . S
C2896 H2872 0.950 . S
C2896 C2891 1.363 . S
C2896 C2895 1.415 . S
C2897 H2873 0.951 . S
C2897 C2898 1.366 . S
C2897 C2899 1.388 . S
C2898 C2897 1.366 . S
C2898 C2902 1.385 . S
C2899 H2874 0.951 . S
C2899 C2897 1.388 . S
C2899 C2900 1.366 . S
C2900 C2899 1.366 . S
C2900 C2901 1.414 . S
C2900 C2903 1.499 . S
C2901 H2875 0.950 . S
C2901 C2900 1.414 . S
C2901 C2902 1.374 . S
C2902 H2876 0.950 . S
C2902 C2898 1.385 . S
C2902 C2901 1.374 . S
C2903 C2900 1.499 . S
C2903 C2904 1.373 . S
C2903 C2905 1.389 . S
C2904 H2877 0.950 . S
C2904 C2890 1.377 . S
C2904 C2903 1.373 . S
C2905 C2889 1.377 . S
C2905 C2903 1.389 . S
C2905 C2906 1.524 . S
C2906 C2905 1.524 . S
C2906 C2907 1.397 . S
C2906 C2911 1.363 . S
C2907 H2878 0.950 . S
C2907 C2906 1.397 . S
C2907 C2908 1.334 . S
C2908 H2879 0.950 . S
C2908 C2907 1.334 . S
C2908 C2909 1.276 1_565 S
C2909 C2908 1.276 1_545 S
C2909 C2910 1.502 1_545 S
C2909 H2912 1.039 . S
C2910 H2880 0.963 . S
C2910 C2909 1.502 1_565 S
C2910 C2911 1.415 . S
C2911 H2881 0.950 . S
C2911 C2906 1.363 . S
C2911 C2910 1.415 . S
H2912 C2909 1.039 . S
H2913 C2894 0.913 . S
H2914 C2932 0.951 . S
H2915 C2934 0.951 . S
H2916 C2936 0.950 . S
H2917 C2937 0.950 . S
H2918 C2939 0.950 . S
H2919 C2942 0.950 . S
H2920 C2943 0.950 . S
H2921 C2945 0.950 . S
H2922 C2946 0.950 . S
H2923 C2947 0.951 . S
H2924 C2949 0.951 . S
H2925 C2951 0.950 . S
H2926 C2952 0.950 . S
H2927 C2954 0.950 . S
H2928 C2957 0.950 . S
H2929 C2958 0.950 . S
H2930 C2960 0.950 . S
H2931 C2961 0.950 . S
C2932 H2914 0.951 . S
C2932 C2933 1.366 . S
C2932 C2934 1.388 . S
C2933 C2932 1.366 . S
C2933 C2937 1.385 . S
C2934 H2915 0.951 . S
C2934 C2932 1.388 . S
C2934 C2935 1.366 . S
C2935 C2934 1.366 . S
C2935 C2936 1.414 . S
C2935 C2938 1.499 . S
C2936 H2916 0.950 . S
C2936 C2935 1.414 . S
C2936 C2937 1.374 . S
C2937 H2917 0.950 . S
C2937 C2933 1.385 . S
C2937 C2936 1.374 . S
C2938 C2935 1.499 . S
C2938 C2939 1.373 . S
C2938 C2940 1.389 . S
C2939 H2918 0.950 . S
C2939 C2938 1.373 . S
C2939 C2955 1.377 . S
C2940 C2938 1.389 . S
C2940 C2941 1.524 . S
C2940 C2954 1.377 . S
C2941 C2940 1.524 . S
C2941 C2942 1.397 . S
C2941 C2946 1.363 . S
C2942 H2919 0.950 . S
C2942 C2941 1.397 . S
C2942 C2943 1.334 . S
C2943 H2920 0.950 . S
C2943 C2942 1.334 . S
C2943 C2944 1.287 . S
C2944 C2943 1.287 . S
C2944 C2945 1.524 . S
C2944 H2963 0.913 . S
C2945 H2921 0.950 . S
C2945 C2944 1.524 . S
C2945 C2946 1.415 . S
C2946 H2922 0.950 . S
C2946 C2941 1.363 . S
C2946 C2945 1.415 . S
C2947 H2923 0.951 . S
C2947 C2948 1.366 . S
C2947 C2949 1.388 . S
C2948 C2947 1.366 . S
C2948 C2952 1.385 . S
C2949 H2924 0.951 . S
C2949 C2947 1.388 . S
C2949 C2950 1.366 . S
C2950 C2949 1.366 . S
C2950 C2951 1.414 . S
C2950 C2953 1.499 . S
C2951 H2925 0.950 . S
C2951 C2950 1.414 . S
C2951 C2952 1.374 . S
C2952 H2926 0.950 . S
C2952 C2948 1.385 . S
C2952 C2951 1.374 . S
C2953 C2950 1.499 . S
C2953 C2954 1.373 . S
C2953 C2955 1.389 . S
C2954 H2927 0.950 . S
C2954 C2940 1.377 . S
C2954 C2953 1.373 . S
C2955 C2939 1.377 . S
C2955 C2953 1.389 . S
C2955 C2956 1.524 . S
C2956 C2955 1.524 . S
C2956 C2957 1.397 . S
C2956 C2961 1.363 . S
C2957 H2928 0.950 . S
C2957 C2956 1.397 . S
C2957 C2958 1.334 . S
C2958 H2929 0.950 . S
C2958 C2957 1.334 . S
C2958 C2959 1.287 . S
C2959 C2958 1.287 . S
C2959 C2960 1.524 . S
C2959 H2962 0.999 . S
C2960 H2930 0.950 . S
C2960 C2959 1.524 . S
C2960 C2961 1.415 . S
C2961 H2931 0.950 . S
C2961 C2956 1.363 . S
C2961 C2960 1.415 . S
H2962 C2959 0.999 . S
H2963 C2944 0.913 . S
H2964 C2982 0.951 . S
H2965 C2984 0.951 . S
H2966 C2986 0.950 . S
H2967 C2987 0.950 . S
H2968 C2989 0.950 . S
H2969 C2992 0.950 . S
H2970 C2993 0.950 . S
H2971 C2995 0.950 . S
H2972 C2996 0.950 . S
H2973 C2997 0.951 . S
H2974 C2999 0.951 . S
H2975 C3001 0.950 . S
H2976 C3002 0.950 . S
H2977 C3004 0.950 . S
H2978 C3007 0.950 . S
H2979 C3008 0.950 . S
H2980 C3010 0.950 . S
H2981 C3011 0.950 . S
C2982 H2964 0.951 . S
C2982 C2983 1.366 . S
C2982 C2984 1.388 . S
C2983 C2982 1.366 . S
C2983 C2987 1.385 . S
C2984 H2965 0.951 . S
C2984 C2982 1.388 . S
C2984 C2985 1.366 . S
C2985 C2984 1.366 . S
C2985 C2986 1.414 . S
C2985 C2988 1.499 . S
C2986 H2966 0.950 . S
C2986 C2985 1.414 . S
C2986 C2987 1.374 . S
C2987 H2967 0.950 . S
C2987 C2983 1.385 . S
C2987 C2986 1.374 . S
C2988 C2985 1.499 . S
C2988 C2989 1.373 . S
C2988 C2990 1.389 . S
C2989 H2968 0.950 . S
C2989 C2988 1.373 . S
C2989 C3005 1.377 . S
C2990 C2988 1.389 . S
C2990 C2991 1.524 . S
C2990 C3004 1.377 . S
C2991 C2990 1.524 . S
C2991 C2992 1.397 . S
C2991 C2996 1.363 . S
C2992 H2969 0.950 . S
C2992 C2991 1.397 . S
C2992 C2993 1.334 . S
C2993 H2970 0.950 . S
C2993 C2992 1.334 . S
C2993 C2994 1.287 . S
C2994 C2993 1.287 . S
C2994 C2995 1.524 . S
C2994 H3013 0.913 . S
C2995 H2971 0.950 . S
C2995 C2994 1.524 . S
C2995 C2996 1.415 . S
C2996 H2972 0.950 . S
C2996 C2991 1.363 . S
C2996 C2995 1.415 . S
C2997 H2973 0.951 . S
C2997 C2998 1.366 . S
C2997 C2999 1.388 . S
C2998 C2997 1.366 . S
C2998 C3002 1.385 . S
C2999 H2974 0.951 . S
C2999 C2997 1.388 . S
C2999 C3000 1.366 . S
C3000 C2999 1.366 . S
C3000 C3001 1.414 . S
C3000 C3003 1.499 . S
C3001 H2975 0.950 . S
C3001 C3000 1.414 . S
C3001 C3002 1.374 . S
C3002 H2976 0.950 . S
C3002 C2998 1.385 . S
C3002 C3001 1.374 . S
C3003 C3000 1.499 . S
C3003 C3004 1.373 . S
C3003 C3005 1.389 . S
C3004 H2977 0.950 . S
C3004 C2990 1.377 . S
C3004 C3003 1.373 . S
C3005 C2989 1.377 . S
C3005 C3003 1.389 . S
C3005 C3006 1.524 . S
C3006 C3005 1.524 . S
C3006 C3007 1.397 . S
C3006 C3011 1.363 . S
C3007 H2978 0.950 . S
C3007 C3006 1.397 . S
C3007 C3008 1.334 . S
C3008 H2979 0.950 . S
C3008 C3007 1.334 . S
C3008 C3009 1.287 . S
C3009 C3008 1.287 . S
C3009 C3010 1.524 . S
C3009 H3012 0.999 . S
C3010 H2980 0.950 . S
C3010 C3009 1.524 . S
C3010 C3011 1.415 . S
C3011 H2981 0.950 . S
C3011 C3006 1.363 . S
C3011 C3010 1.415 . S
H3012 C3009 0.999 . S
H3013 C2994 0.913 . S
H3014 C3032 0.951 . S
H3015 C3034 0.951 . S
H3016 C3036 0.950 . S
H3017 C3037 0.950 . S
H3018 C3039 0.950 . S
H3019 C3042 0.950 . S
H3020 C3043 0.950 . S
H3021 C3045 0.950 . S
H3022 C3046 0.950 . S
H3023 C3047 0.951 . S
H3024 C3049 0.951 . S
H3025 C3051 0.950 . S
H3026 C3052 0.950 . S
H3027 C3054 0.950 . S
H3028 C3057 0.950 . S
H3029 C3058 0.950 . S
H3030 C3060 0.950 . S
H3031 C3061 0.950 . S
C3032 H3014 0.951 . S
C3032 C3033 1.366 . S
C3032 C3034 1.388 . S
C3033 C3032 1.366 . S
C3033 C3037 1.385 . S
C3034 H3015 0.951 . S
C3034 C3032 1.388 . S
C3034 C3035 1.366 . S
C3035 C3034 1.366 . S
C3035 C3036 1.414 . S
C3035 C3038 1.499 . S
C3036 H3016 0.950 . S
C3036 C3035 1.414 . S
C3036 C3037 1.374 . S
C3037 H3017 0.950 . S
C3037 C3033 1.385 . S
C3037 C3036 1.374 . S
C3038 C3035 1.499 . S
C3038 C3039 1.373 . S
C3038 C3040 1.389 . S
C3039 H3018 0.950 . S
C3039 C3038 1.373 . S
C3039 C3055 1.377 . S
C3040 C3038 1.389 . S
C3040 C3041 1.524 . S
C3040 C3054 1.377 . S
C3041 C3040 1.524 . S
C3041 C3042 1.397 . S
C3041 C3046 1.363 . S
C3042 H3019 0.950 . S
C3042 C3041 1.397 . S
C3042 C3043 1.334 . S
C3043 H3020 0.950 . S
C3043 C3042 1.334 . S
C3043 C3044 1.287 . S
C3044 C3043 1.287 . S
C3044 C3045 1.524 . S
C3044 H3063 0.913 . S
C3045 H3021 0.950 . S
C3045 C3044 1.524 . S
C3045 C3046 1.415 . S
C3046 H3022 0.950 . S
C3046 C3041 1.363 . S
C3046 C3045 1.415 . S
C3047 H3023 0.951 . S
C3047 C3048 1.366 . S
C3047 C3049 1.388 . S
C3048 C3047 1.366 . S
C3048 C3052 1.385 . S
C3049 H3024 0.951 . S
C3049 C3047 1.388 . S
C3049 C3050 1.366 . S
C3050 C3049 1.366 . S
C3050 C3051 1.414 . S
C3050 C3053 1.499 . S
C3051 H3025 0.950 . S
C3051 C3050 1.414 . S
C3051 C3052 1.374 . S
C3052 H3026 0.950 . S
C3052 C3048 1.385 . S
C3052 C3051 1.374 . S
C3053 C3050 1.499 . S
C3053 C3054 1.373 . S
C3053 C3055 1.389 . S
C3054 H3027 0.950 . S
C3054 C3040 1.377 . S
C3054 C3053 1.373 . S
C3055 C3039 1.377 . S
C3055 C3053 1.389 . S
C3055 C3056 1.524 . S
C3056 C3055 1.524 . S
C3056 C3057 1.397 . S
C3056 C3061 1.363 . S
C3057 H3028 0.950 . S
C3057 C3056 1.397 . S
C3057 C3058 1.334 . S
C3058 H3029 0.950 . S
C3058 C3057 1.334 . S
C3058 C3059 1.287 . S
C3059 C3058 1.287 . S
C3059 C3060 1.524 . S
C3059 H3062 0.999 . S
C3060 H3030 0.950 . S
C3060 C3059 1.524 . S
C3060 C3061 1.415 . S
C3061 H3031 0.950 . S
C3061 C3056 1.363 . S
C3061 C3060 1.415 . S
H3062 C3059 0.999 . S
H3063 C3044 0.913 . S
H3064 C3082 0.951 . S
H3065 C3084 0.951 . S
H3066 C3086 0.950 . S
H3067 C3087 0.950 . S
H3068 C3089 0.950 . S
H3069 C3092 0.950 . S
H3070 C3093 0.950 . S
H3071 C3095 0.950 . S
H3072 C3096 0.950 . S
H3073 C3097 0.951 . S
H3074 C3099 0.951 . S
H3075 C3101 0.950 . S
H3076 C3102 0.950 . S
H3077 C3104 0.950 . S
H3078 C3107 0.950 . S
H3079 C3108 0.950 . S
H3080 C3110 0.950 . S
H3081 C3111 0.950 . S
C3082 H3064 0.951 . S
C3082 C3083 1.366 . S
C3082 C3084 1.388 . S
C3083 C3082 1.366 . S
C3083 C3087 1.385 . S
C3084 H3065 0.951 . S
C3084 C3082 1.388 . S
C3084 C3085 1.366 . S
C3085 C3084 1.366 . S
C3085 C3086 1.414 . S
C3085 C3088 1.499 . S
C3086 H3066 0.950 . S
C3086 C3085 1.414 . S
C3086 C3087 1.374 . S
C3087 H3067 0.950 . S
C3087 C3083 1.385 . S
C3087 C3086 1.374 . S
C3088 C3085 1.499 . S
C3088 C3089 1.373 . S
C3088 C3090 1.389 . S
C3089 H3068 0.950 . S
C3089 C3088 1.373 . S
C3089 C3105 1.377 . S
C3090 C3088 1.389 . S
C3090 C3091 1.524 . S
C3090 C3104 1.377 . S
C3091 C3090 1.524 . S
C3091 C3092 1.397 . S
C3091 C3096 1.363 . S
C3092 H3069 0.950 . S
C3092 C3091 1.397 . S
C3092 C3093 1.334 . S
C3093 H3070 0.950 . S
C3093 C3092 1.334 . S
C3093 C3094 1.287 . S
C3094 C3093 1.287 . S
C3094 C3095 1.524 . S
C3094 H3113 0.913 . S
C3095 H3071 0.950 . S
C3095 C3094 1.524 . S
C3095 C3096 1.415 . S
C3096 H3072 0.950 . S
C3096 C3091 1.363 . S
C3096 C3095 1.415 . S
C3097 H3073 0.951 . S
C3097 C3098 1.366 . S
C3097 C3099 1.388 . S
C3098 C3097 1.366 . S
C3098 C3102 1.385 . S
C3099 H3074 0.951 . S
C3099 C3097 1.388 . S
C3099 C3100 1.366 . S
C3100 C3099 1.366 . S
C3100 C3101 1.414 . S
C3100 C3103 1.499 . S
C3101 H3075 0.950 . S
C3101 C3100 1.414 . S
C3101 C3102 1.374 . S
C3102 H3076 0.950 . S
C3102 C3098 1.385 . S
C3102 C3101 1.374 . S
C3103 C3100 1.499 . S
C3103 C3104 1.373 . S
C3103 C3105 1.389 . S
C3104 H3077 0.950 . S
C3104 C3090 1.377 . S
C3104 C3103 1.373 . S
C3105 C3089 1.377 . S
C3105 C3103 1.389 . S
C3105 C3106 1.524 . S
C3106 C3105 1.524 . S
C3106 C3107 1.397 . S
C3106 C3111 1.363 . S
C3107 H3078 0.950 . S
C3107 C3106 1.397 . S
C3107 C3108 1.334 . S
C3108 H3079 0.950 . S
C3108 C3107 1.334 . S
C3108 C3109 1.287 . S
C3109 C3108 1.287 . S
C3109 C3110 1.524 . S
C3109 H3112 0.999 . S
C3110 H3080 0.950 . S
C3110 C3109 1.524 . S
C3110 C3111 1.415 . S
C3111 H3081 0.950 . S
C3111 C3106 1.363 . S
C3111 C3110 1.415 . S
H3112 C3109 0.999 . S
H3113 C3094 0.913 . S
H3114 C3132 0.951 . S
H3115 C3134 0.951 . S
H3116 C3136 0.950 . S
H3117 C3137 0.950 . S
H3118 C3139 0.950 . S
H3119 C3142 0.950 . S
H3120 C3143 0.950 . S
H3121 C3145 0.950 . S
H3122 C3146 0.950 . S
H3123 C3147 0.951 . S
H3124 C3149 0.951 . S
H3125 C3151 0.950 . S
H3126 C3152 0.950 . S
H3127 C3154 0.950 . S
H3128 C3157 0.950 . S
H3129 C3158 0.950 . S
H3130 C3160 0.950 . S
H3131 C3161 0.950 . S
C3132 H3114 0.951 . S
C3132 C3133 1.366 . S
C3132 C3134 1.388 . S
C3133 C3132 1.366 . S
C3133 C3137 1.385 . S
C3134 H3115 0.951 . S
C3134 C3132 1.388 . S
C3134 C3135 1.366 . S
C3135 C3134 1.366 . S
C3135 C3136 1.414 . S
C3135 C3138 1.499 . S
C3136 H3116 0.950 . S
C3136 C3135 1.414 . S
C3136 C3137 1.374 . S
C3137 H3117 0.950 . S
C3137 C3133 1.385 . S
C3137 C3136 1.374 . S
C3138 C3135 1.499 . S
C3138 C3139 1.373 . S
C3138 C3140 1.389 . S
C3139 H3118 0.950 . S
C3139 C3138 1.373 . S
C3139 C3155 1.377 . S
C3140 C3138 1.389 . S
C3140 C3141 1.524 . S
C3140 C3154 1.377 . S
C3141 C3140 1.524 . S
C3141 C3142 1.397 . S
C3141 C3146 1.363 . S
C3142 H3119 0.950 . S
C3142 C3141 1.397 . S
C3142 C3143 1.334 . S
C3143 H3120 0.950 . S
C3143 C3142 1.334 . S
C3143 C3144 1.287 . S
C3144 C3143 1.287 . S
C3144 C3145 1.524 . S
C3144 H3163 0.913 . S
C3145 H3121 0.950 . S
C3145 C3144 1.524 . S
C3145 C3146 1.415 . S
C3146 H3122 0.950 . S
C3146 C3141 1.363 . S
C3146 C3145 1.415 . S
C3147 H3123 0.951 . S
C3147 C3148 1.366 . S
C3147 C3149 1.388 . S
C3148 C3147 1.366 . S
C3148 C3152 1.385 . S
C3149 H3124 0.951 . S
C3149 C3147 1.388 . S
C3149 C3150 1.366 . S
C3150 C3149 1.366 . S
C3150 C3151 1.414 . S
C3150 C3153 1.499 . S
C3151 H3125 0.950 . S
C3151 C3150 1.414 . S
C3151 C3152 1.374 . S
C3152 H3126 0.950 . S
C3152 C3148 1.385 . S
C3152 C3151 1.374 . S
C3153 C3150 1.499 . S
C3153 C3154 1.373 . S
C3153 C3155 1.389 . S
C3154 H3127 0.950 . S
C3154 C3140 1.377 . S
C3154 C3153 1.373 . S
C3155 C3139 1.377 . S
C3155 C3153 1.389 . S
C3155 C3156 1.524 . S
C3156 C3155 1.524 . S
C3156 C3157 1.397 . S
C3156 C3161 1.363 . S
C3157 H3128 0.950 . S
C3157 C3156 1.397 . S
C3157 C3158 1.334 . S
C3158 H3129 0.950 . S
C3158 C3157 1.334 . S
C3158 C3159 1.287 . S
C3159 C3158 1.287 . S
C3159 C3160 1.524 . S
C3159 H3162 0.999 . S
C3160 H3130 0.950 . S
C3160 C3159 1.524 . S
C3160 C3161 1.415 . S
C3161 H3131 0.950 . S
C3161 C3156 1.363 . S
C3161 C3160 1.415 . S
H3162 C3159 0.999 . S
H3163 C3144 0.913 . S
H3164 C3182 0.951 . S
H3165 C3184 0.951 . S
H3166 C3186 0.950 . S
H3167 C3187 0.950 . S
H3168 C3189 0.950 . S
H3169 C3192 0.950 . S
H3170 C3193 0.950 . S
H3171 C3195 0.950 . S
H3172 C3196 0.950 . S
H3173 C3197 0.951 . S
H3174 C3199 0.951 . S
H3175 C3201 0.950 . S
H3176 C3202 0.950 . S
H3177 C3204 0.950 . S
H3178 C3207 0.950 . S
H3179 C3208 0.950 . S
H3180 C3210 0.950 . S
H3181 C3211 0.950 . S
C3182 H3164 0.951 . S
C3182 C3183 1.366 . S
C3182 C3184 1.388 . S
C3183 C3182 1.366 . S
C3183 C3187 1.385 . S
C3184 H3165 0.951 . S
C3184 C3182 1.388 . S
C3184 C3185 1.366 . S
C3185 C3184 1.366 . S
C3185 C3186 1.414 . S
C3185 C3188 1.499 . S
C3186 H3166 0.950 . S
C3186 C3185 1.414 . S
C3186 C3187 1.374 . S
C3187 H3167 0.950 . S
C3187 C3183 1.385 . S
C3187 C3186 1.374 . S
C3188 C3185 1.499 . S
C3188 C3189 1.373 . S
C3188 C3190 1.389 . S
C3189 H3168 0.950 . S
C3189 C3188 1.373 . S
C3189 C3205 1.377 . S
C3190 C3188 1.389 . S
C3190 C3191 1.524 . S
C3190 C3204 1.377 . S
C3191 C3190 1.524 . S
C3191 C3192 1.397 . S
C3191 C3196 1.363 . S
C3192 H3169 0.950 . S
C3192 C3191 1.397 . S
C3192 C3193 1.334 . S
C3193 H3170 0.950 . S
C3193 C3192 1.334 . S
C3193 C3194 1.287 . S
C3194 C3193 1.287 . S
C3194 C3195 1.524 . S
C3194 H3213 0.913 . S
C3195 H3171 0.950 . S
C3195 C3194 1.524 . S
C3195 C3196 1.415 . S
C3196 H3172 0.950 . S
C3196 C3191 1.363 . S
C3196 C3195 1.415 . S
C3197 H3173 0.951 . S
C3197 C3198 1.366 . S
C3197 C3199 1.388 . S
C3198 C3197 1.366 . S
C3198 C3202 1.385 . S
C3199 H3174 0.951 . S
C3199 C3197 1.388 . S
C3199 C3200 1.366 . S
C3200 C3199 1.366 . S
C3200 C3201 1.414 . S
C3200 C3203 1.499 . S
C3201 H3175 0.950 . S
C3201 C3200 1.414 . S
C3201 C3202 1.374 . S
C3202 H3176 0.950 . S
C3202 C3198 1.385 . S
C3202 C3201 1.374 . S
C3203 C3200 1.499 . S
C3203 C3204 1.373 . S
C3203 C3205 1.389 . S
C3204 H3177 0.950 . S
C3204 C3190 1.377 . S
C3204 C3203 1.373 . S
C3205 C3189 1.377 . S
C3205 C3203 1.389 . S
C3205 C3206 1.524 . S
C3206 C3205 1.524 . S
C3206 C3207 1.397 . S
C3206 C3211 1.363 . S
C3207 H3178 0.950 . S
C3207 C3206 1.397 . S
C3207 C3208 1.334 . S
C3208 H3179 0.950 . S
C3208 C3207 1.334 . S
C3208 C3209 1.287 . S
C3209 C3208 1.287 . S
C3209 C3210 1.524 . S
C3209 H3212 0.999 . S
C3210 H3180 0.950 . S
C3210 C3209 1.524 . S
C3210 C3211 1.415 . S
C3211 H3181 0.950 . S
C3211 C3206 1.363 . S
C3211 C3210 1.415 . S
H3212 C3209 0.999 . S
H3213 C3194 0.913 . S
H3214 C3232 0.951 . S
H3215 C3234 0.951 . S
H3216 C3236 0.950 . S
H3217 C3237 0.950 . S
H3218 C3239 0.950 . S
H3219 C3242 0.950 . S
H3220 C3243 0.950 . S
H3221 C3245 0.950 . S
H3222 C3246 0.950 . S
H3223 C3247 0.951 . S
H3224 C3249 0.951 . S
H3225 C3251 0.950 . S
H3226 C3252 0.950 . S
H3227 C3254 0.950 . S
H3228 C3257 0.950 . S
H3229 C3258 0.950 . S
H3230 C3260 0.950 . S
H3231 C3261 0.950 . S
C3232 H3214 0.951 . S
C3232 C3233 1.366 . S
C3232 C3234 1.388 . S
C3233 C3232 1.366 . S
C3233 C3237 1.385 . S
C3234 H3215 0.951 . S
C3234 C3232 1.388 . S
C3234 C3235 1.366 . S
C3235 C3234 1.366 . S
C3235 C3236 1.414 . S
C3235 C3238 1.499 . S
C3236 H3216 0.950 . S
C3236 C3235 1.414 . S
C3236 C3237 1.374 . S
C3237 H3217 0.950 . S
C3237 C3233 1.385 . S
C3237 C3236 1.374 . S
C3238 C3235 1.499 . S
C3238 C3239 1.373 . S
C3238 C3240 1.389 . S
C3239 H3218 0.950 . S
C3239 C3238 1.373 . S
C3239 C3255 1.377 . S
C3240 C3238 1.389 . S
C3240 C3241 1.524 . S
C3240 C3254 1.377 . S
C3241 C3240 1.524 . S
C3241 C3242 1.397 . S
C3241 C3246 1.363 . S
C3242 H3219 0.950 . S
C3242 C3241 1.397 . S
C3242 C3243 1.334 . S
C3243 H3220 0.950 . S
C3243 C3242 1.334 . S
C3243 C3244 1.287 . S
C3244 C3243 1.287 . S
C3244 C3245 1.524 . S
C3244 H3263 0.913 . S
C3245 H3221 0.950 . S
C3245 C3244 1.524 . S
C3245 C3246 1.415 . S
C3246 H3222 0.950 . S
C3246 C3241 1.363 . S
C3246 C3245 1.415 . S
C3247 H3223 0.951 . S
C3247 C3248 1.366 . S
C3247 C3249 1.388 . S
C3248 C3247 1.366 . S
C3248 C3252 1.385 . S
C3249 H3224 0.951 . S
C3249 C3247 1.388 . S
C3249 C3250 1.366 . S
C3250 C3249 1.366 . S
C3250 C3251 1.414 . S
C3250 C3253 1.499 . S
C3251 H3225 0.950 . S
C3251 C3250 1.414 . S
C3251 C3252 1.374 . S
C3252 H3226 0.950 . S
C3252 C3248 1.385 . S
C3252 C3251 1.374 . S
C3253 C3250 1.499 . S
C3253 C3254 1.373 . S
C3253 C3255 1.389 . S
C3254 H3227 0.950 . S
C3254 C3240 1.377 . S
C3254 C3253 1.373 . S
C3255 C3239 1.377 . S
C3255 C3253 1.389 . S
C3255 C3256 1.524 . S
C3256 C3255 1.524 . S
C3256 C3257 1.397 . S
C3256 C3261 1.363 . S
C3257 H3228 0.950 . S
C3257 C3256 1.397 . S
C3257 C3258 1.334 . S
C3258 H3229 0.950 . S
C3258 C3257 1.334 . S
C3258 C3259 1.287 . S
C3259 C3258 1.287 . S
C3259 C3260 1.524 . S
C3259 H3262 0.999 . S
C3260 H3230 0.950 . S
C3260 C3259 1.524 . S
C3260 C3261 1.415 . S
C3261 H3231 0.950 . S
C3261 C3256 1.363 . S
C3261 C3260 1.415 . S
H3262 C3259 0.999 . S
H3263 C3244 0.913 . S
C898 C689 1.591 . S
C883 C56 1.576 . S
C948 C694 1.312 . S
C933 C154 1.235 . S
C998 C695 1.532 . S
C983 C236 1.520 . S
C1033 C310 0.798 . S
C1048 C699 0.549 . S
C1083 C394 1.233 . S
C1098 C702 1.312 . S
C1148 C703 1.532 . S
C1133 C476 1.515 . S
C1183 C574 0.800 . S
C1198 C680 0.547 . S
C1233 C656 1.579 . S
C1248 C696 1.594 . S
C1298 C734 2.342 . S
C1283 C67 2.422 . S
C1333 C139 1.524 . S
C1348 C760 1.485 . S
C1398 C712 1.294 . S
C1383 C238 1.230 . S
C1448 C767 1.484 . S
C1433 C308 1.474 . S
C1483 C392 1.504 . S
C1498 C721 1.503 . S
C1548 C763 2.329 . S
C1533 C487 2.409 . S
C1583 C559 1.545 . S
C1598 C727 1.509 . S
C1633 C658 1.223 . S
C1648 C758 1.292 . S
C1683 C58 1.224 . S
C1698 C766 1.281 . S
C1733 C403 1.524 . S
C1748 C753 1.489 . S
C1798 C731 1.295 . S
C1783 C478 1.234 . S
C1848 C759 1.484 . S
C1833 C572 1.483 . S
C1883 C643 2.426 . S
C1898 C726 2.346 . S
C1933 C223 2.409 . S
C1948 C744 2.328 . S
C1998 C735 1.507 . S
C1983 C319 1.544 . S
C2033 C152 1.505 . S
C2048 C728 1.495 . S
C2083 C644 1.545 . S
C2098 C790 1.533 . S
C2133 C406 1.203 . S
C2148 C785 1.282 . S
C2198 C799 1.462 . S
C2183 C488 1.495 . S
C2248 C776 0.416 . S
C2233 C562 0.822 . S
C2283 C142 1.204 . S
C2298 C792 1.278 . S
C2348 C791 1.462 . S
C2333 C224 1.490 . S
C2383 C322 0.820 . S
C2398 C795 0.416 . S
C2433 C68 1.546 . S
C2448 C798 1.529 . S
C2483 C655 2.432 . S
C2498 C824 2.384 . S
C2548 C840 1.472 . S
C2533 C391 1.541 . S
C2583 C490 1.238 . S
C2598 C822 1.308 . S
C2633 C560 1.500 . S
C2648 C855 1.498 . S
C2698 C831 1.473 . S
C2683 C140 1.490 . S
C2733 C235 2.447 . S
C2748 C849 2.380 . S
C2798 C827 1.459 . S
C2783 C307 1.527 . S
C2848 C862 1.315 . S
C2833 C70 1.245 . S
C2898 C854 1.315 . S
C2883 C646 1.252 . S
C2933 C151 1.539 . S
C2948 C859 1.470 . S
C2983 C226 1.237 . S
C2998 C830 1.314 . S
C3048 C863 1.498 . S
C3033 C320 1.501 . S
C3083 C55 2.432 . S
C3098 C817 2.379 . S
C3133 C475 2.447 . S
C3148 C856 2.376 . S
C3198 C808 1.460 . S
C3183 C571 1.530 . S
C3248 C823 1.474 . S
C3233 C404 1.486 . S
