# Generated by pormake.
# Topology pyr, (3,6)-cn, num edge types: 1
# Building blocks:
#     Node 0, Type 0, BuildingBlock: OLANEW_clean_sbu_2, # of connection points: 3
#     Node 1, Type 0, BuildingBlock: OLANEW_clean_sbu_2, # of connection points: 3
#     Node 2, Type 0, BuildingBlock: OLANEW_clean_sbu_2, # of connection points: 3
#     Node 3, Type 0, BuildingBlock: OLANEW_clean_sbu_2, # of connection points: 3
#     Node 4, Type 0, BuildingBlock: OLANEW_clean_sbu_2, # of connection points: 3
#     Node 5, Type 0, BuildingBlock: OLANEW_clean_sbu_2, # of connection points: 3
#     Node 6, Type 0, BuildingBlock: OLANEW_clean_sbu_2, # of connection points: 3
#     Node 7, Type 0, BuildingBlock: OLANEW_clean_sbu_2, # of connection points: 3
#     Node 8, Type 1, BuildingBlock: LEVNOQ01_clean_sbu_1, # of connection points: 6
#     Node 9, Type 1, BuildingBlock: LEVNOQ01_clean_sbu_1, # of connection points: 6
#     Node 10, Type 1, BuildingBlock: LEVNOQ01_clean_sbu_1, # of connection points: 6
#     Node 11, Type 1, BuildingBlock: LEVNOQ01_clean_sbu_1, # of connection points: 6
#     Edge 12, Type (0, 1), BuildingBlock: CIFDUS_clean_linker_0, # of connection points: 2
#     Edge 13, Type (0, 1), BuildingBlock: CIFDUS_clean_linker_0, # of connection points: 2
#     Edge 14, Type (0, 1), BuildingBlock: CIFDUS_clean_linker_0, # of connection points: 2
#     Edge 15, Type (0, 1), BuildingBlock: CIFDUS_clean_linker_0, # of connection points: 2
#     Edge 16, Type (0, 1), BuildingBlock: CIFDUS_clean_linker_0, # of connection points: 2
#     Edge 17, Type (0, 1), BuildingBlock: CIFDUS_clean_linker_0, # of connection points: 2
#     Edge 18, Type (0, 1), BuildingBlock: CIFDUS_clean_linker_0, # of connection points: 2
#     Edge 19, Type (0, 1), BuildingBlock: CIFDUS_clean_linker_0, # of connection points: 2
#     Edge 20, Type (0, 1), BuildingBlock: CIFDUS_clean_linker_0, # of connection points: 2
#     Edge 21, Type (0, 1), BuildingBlock: CIFDUS_clean_linker_0, # of connection points: 2
#     Edge 22, Type (0, 1), BuildingBlock: CIFDUS_clean_linker_0, # of connection points: 2
#     Edge 23, Type (0, 1), BuildingBlock: CIFDUS_clean_linker_0, # of connection points: 2
#     Edge 24, Type (0, 1), BuildingBlock: CIFDUS_clean_linker_0, # of connection points: 2
#     Edge 25, Type (0, 1), BuildingBlock: CIFDUS_clean_linker_0, # of connection points: 2
#     Edge 26, Type (0, 1), BuildingBlock: CIFDUS_clean_linker_0, # of connection points: 2
#     Edge 27, Type (0, 1), BuildingBlock: CIFDUS_clean_linker_0, # of connection points: 2
#     Edge 28, Type (0, 1), BuildingBlock: CIFDUS_clean_linker_0, # of connection points: 2
#     Edge 29, Type (0, 1), BuildingBlock: CIFDUS_clean_linker_0, # of connection points: 2
#     Edge 30, Type (0, 1), BuildingBlock: CIFDUS_clean_linker_0, # of connection points: 2
#     Edge 31, Type (0, 1), BuildingBlock: CIFDUS_clean_linker_0, # of connection points: 2
#     Edge 32, Type (0, 1), BuildingBlock: CIFDUS_clean_linker_0, # of connection points: 2
#     Edge 33, Type (0, 1), BuildingBlock: CIFDUS_clean_linker_0, # of connection points: 2
#     Edge 34, Type (0, 1), BuildingBlock: CIFDUS_clean_linker_0, # of connection points: 2
#     Edge 35, Type (0, 1), BuildingBlock: CIFDUS_clean_linker_0, # of connection points: 2
# Relax obj value: 0.071
# Max RMSD: 0.149
# Mean RMSD: 0.119
data_MOF--net-pry--node1-OLANEW_clean_sbu_2--node2-LEVNOQ01_clean_sbu_1--edge1-CIFDUS_clean_linker_0
_symmetry_space_group_name_H-M    P1
_symmetry_Int_Tables_number       1
_symmetry_cell_setting            triclinic
loop_
_symmetry_equiv_pos_as_xyz
'x, y, z'
_cell_length_a     34.917722
_cell_length_b     34.030598
_cell_length_c     32.859811
_cell_angle_alpha  96.850084
_cell_angle_beta   90.294124
_cell_angle_gamma 99.541162
loop_
_atom_site_label
_atom_site_type_symbol
_atom_site_fract_x
_atom_site_fract_y
_atom_site_fract_z
_atom_type_partial_charge
O0 O 0.18209 0.11512 0.09585 0.0
Cd1 Cd 0.11511 0.12927 0.09417 0.0
O2 O 0.18777 0.12158 0.16359 0.0
Cd3 Cd 0.13048 0.12813 0.1872 0.0
O4 O 0.10597 0.11072 0.24521 0.0
C5 C 0.11751 0.07958 0.25523 0.0
O6 O 0.14018 0.06162 0.23013 0.0
C7 C 0.20222 0.11544 0.12837 0.0
C8 C 0.10729 0.20808 0.08183 0.0
O9 O 0.11501 0.19864 0.11724 0.0
O10 O 0.10394 0.18035 0.05137 0.0
O11 O 0.45433 0.95778 0.70516 0.0
Cd12 Cd 0.46114 0.94099 0.63122 0.0
O13 O 0.39718 0.9202 0.6976 0.0
Cd14 Cd 0.33778 0.89316 0.70983 0.0
O15 O 0.27812 0.88987 0.68821 0.0
C16 C 0.2752 0.91774 0.66646 0.0
O17 O 0.30662 0.94341 0.66063 0.0
C18 C 0.42286 0.9431 0.72098 0.0
C19 C 0.46642 0.86016 0.60968 0.0
O20 O 0.49666 0.88646 0.62011 0.0
O21 O 0.43345 0.87205 0.60945 0.0
O22 O 0.67561 0.42414 0.93757 0.0
Cd23 Cd 0.61584 0.40774 0.89615 0.0
O24 O 0.70693 0.38922 0.89214 0.0
Cd25 Cd 0.65457 0.3557 0.86105 0.0
O26 O 0.62545 0.30084 0.88201 0.0
C27 C 0.64688 0.28998 0.90847 0.0
O28 O 0.68152 0.31129 0.91715 0.0
C29 C 0.70688 0.41295 0.92508 0.0
C30 C 0.62628 0.44575 0.82547 0.0
O31 O 0.62078 0.46496 0.8603 0.0
O32 O 0.62608 0.40793 0.82344 0.0
O33 O 0.95125 0.65543 0.44984 0.0
Cd34 Cd 0.92366 0.58848 0.41816 0.0
O35 O 0.96259 0.64561 0.51362 0.0
Cd36 Cd 0.92945 0.58587 0.49941 0.0
O37 O 0.86741 0.56717 0.49004 0.0
C38 C 0.84667 0.58575 0.51468 0.0
O39 O 0.86384 0.61199 0.54453 0.0
C40 C 0.96485 0.66859 0.48572 0.0
C41 C 0.93615 0.5905 0.33487 0.0
O42 O 0.90222 0.59241 0.3488 0.0
O43 O 0.96298 0.58594 0.35973 0.0
O44 O 0.91485 0.89017 0.88139 0.0
Cd45 Cd 0.91052 0.87178 0.95196 0.0
O46 O 0.87381 0.93298 0.89267 0.0
Cd47 Cd 0.85434 0.92978 0.95524 0.0
O48 O 0.80382 0.94897 0.98601 0.0
C49 C 0.79488 0.98253 0.97947 0.0
O50 O 0.81792 0.00551 0.95723 0.0
C51 C 0.89621 0.91575 0.8688 0.0
C52 C 0.92578 0.79439 0.95924 0.0
O53 O 0.89244 0.8005 0.94745 0.0
O54 O 0.95258 0.82498 0.9677 0.0
O55 O 0.61866 0.05783 0.39313 0.0
Cd56 Cd 0.63362 0.07518 0.46659 0.0
O57 O 0.6353 0.12267 0.40053 0.0
Cd58 Cd 0.64218 0.18602 0.39155 0.0
O59 O 0.63629 0.24748 0.41474 0.0
C60 C 0.60717 0.25069 0.4372 0.0
O61 O 0.58327 0.21793 0.44335 0.0
C62 C 0.62372 0.0903 0.37699 0.0
C63 C 0.71191 0.07619 0.48296 0.0
O64 O 0.68609 0.04703 0.49124 0.0
O65 O 0.70083 0.10527 0.46732 0.0
O66 O 0.45132 0.73162 0.17611 0.0
Cd67 Cd 0.43047 0.66025 0.17816 0.0
O68 O 0.3936 0.7255 0.20158 0.0
Cd69 Cd 0.33746 0.74204 0.21465 0.0
O70 O 0.28643 0.69993 0.19271 0.0
C71 C 0.28324 0.68713 0.1547 0.0
O72 O 0.30888 0.70244 0.12932 0.0
C73 C 0.42217 0.74746 0.18758 0.0
C74 C 0.43481 0.64111 0.25702 0.0
O75 O 0.4607 0.63442 0.23078 0.0
O76 O 0.40612 0.65685 0.24619 0.0
O77 O 0.12814 0.49706 0.68668 0.0
Cd78 Cd 0.13544 0.49097 0.6119 0.0
O79 O 0.14722 0.4393 0.67449 0.0
Cd80 Cd 0.15594 0.37979 0.68379 0.0
O81 O 0.12472 0.32373 0.65384 0.0
C82 C 0.08991 0.3243 0.64278 0.0
O83 O 0.0752 0.35737 0.65112 0.0
C84 C 0.13511 0.46529 0.6998 0.0
C85 C 0.20924 0.47483 0.59342 0.0
O86 O 0.20132 0.51033 0.5941 0.0
O87 O 0.18204 0.44635 0.60009 0.0
O88 O 0.98061 0.01966 0.67173 0.0
Mg89 Mg 0.02702 0.04425 0.63874 0.0
O90 O 0.9741 0.97101 0.62059 0.0
Mg91 Mg -0.00071 -0.00134 0.56063 0.0
O92 O 0.01488 0.06644 0.58639 0.0
O93 O 0.03493 0.10433 0.64593 0.0
O94 O 0.02584 0.02463 0.49956 0.0
O95 O 0.93793 0.01501 0.55069 0.0
Mg96 Mg 0.96544 0.95715 0.48522 0.0
O97 O 0.98209 0.93101 0.53414 0.0
O98 O 0.01068 0.97623 0.44858 0.0
O99 O 0.91824 0.98842 0.4882 0.0
O100 O 0.95046 0.89729 0.47719 0.0
C101 C 0.08543 -0.00448 0.60401 0.0
C102 C 0.9668 0.98419 0.65729 0.0
C103 C 0.02463 0.1014 0.60778 0.0
C104 C 0.02966 0.01002 0.46228 0.0
C105 C 0.91334 0.01009 0.52106 0.0
C106 C 0.96783 0.89743 0.51197 0.0
O107 O 0.07817 0.01923 0.63462 0.0
O108 O 0.06123 0.98439 0.57391 0.0
O109 O 0.43867 0.10507 0.1036 0.0
Mg110 Mg 0.49868 0.11305 0.09578 0.0
O111 O 0.43245 0.04426 0.0698 0.0
Mg112 Mg 0.49605 0.03189 0.05474 0.0
O113 O 0.51827 0.09663 0.03837 0.0
O114 O 0.51976 0.16047 0.06705 0.0
O115 O 0.55878 0.01757 0.03876 0.0
O116 O 0.47415 0.02148 0.98434 0.0
Mg117 Mg 0.48784 0.94887 0.01529 0.0
O118 O 0.47423 0.96818 0.07331 0.0
O119 O 0.54826 0.95459 0.0092 0.0
O120 O 0.4518 0.95719 0.96828 0.0
O121 O 0.46405 0.90351 0.04561 0.0
C122 C 0.5348 0.07127 0.15076 0.0
C123 C 0.41737 0.07288 0.08849 0.0
C124 C 0.52733 0.13512 0.03701 0.0
C125 C 0.57147 0.98632 0.0224 0.0
C126 C 0.45596 0.99258 0.95935 0.0
C127 C 0.46288 0.93038 0.07659 0.0
O128 O 0.53413 0.10694 0.14438 0.0
O129 O 0.5196 0.04209 0.12431 0.0
O130 O 0.50293 0.62689 0.62628 0.0
Mg131 Mg 0.49657 0.56661 0.63688 0.0
O132 O 0.51752 0.61337 0.56092 0.0
Mg133 Mg 0.52638 0.54579 0.54794 0.0
O134 O 0.54194 0.54033 0.61474 0.0
O135 O 0.53048 0.55192 0.68148 0.0
O136 O 0.53791 0.47712 0.54119 0.0
O137 O 0.59237 0.57082 0.5434 0.0
Mg138 Mg 0.54249 0.51423 0.48281 0.0
O139 O 0.50711 0.55523 0.47861 0.0
O140 O 0.51372 0.45528 0.48018 0.0
O141 O 0.60312 0.52693 0.49254 0.0
O142 O 0.53716 0.52569 0.42581 0.0
C143 C 0.43521 0.51569 0.58177 0.0
C144 C 0.51034 0.63797 0.59135 0.0
C145 C 0.55069 0.53728 0.65247 0.0
C146 C 0.52579 0.44776 0.51388 0.0
C147 C 0.61607 0.55531 0.51988 0.0
C148 C 0.51232 0.54773 0.43933 0.0
O149 O 0.44374 0.52875 0.61901 0.0
O150 O 0.46014 0.52116 0.55378 0.0
O151 O 0.01929 0.42076 0.08199 0.0
Mg152 Mg 0.03206 0.48243 0.08741 0.0
O153 O 0.03452 0.43464 0.02037 0.0
Mg154 Mg 0.01591 0.50031 0.01541 0.0
O155 O 0.99112 0.5179 0.08135 0.0
O156 O 0.01101 0.50114 0.14123 0.0
O157 O 0.00055 0.56539 0.00774 0.0
O158 O 0.95139 0.46685 0.0062 0.0
Mg159 Mg 0.9867 0.50406 0.93864 0.0
O160 O 0.0396 0.48676 0.94793 0.0
O161 O 0.98737 0.56524 0.94218 0.0
O162 O 0.93244 0.47036 0.94326 0.0
O163 O 0.00875 0.48279 0.88661 0.0
C164 C 0.10181 0.53182 0.06023 0.0
C165 C 0.03078 0.40971 0.047 0.0
C166 C 0.98911 0.51924 0.12098 0.0
C167 C 0.99205 0.5837 0.97793 0.0
C168 C 0.92537 0.45919 0.97789 0.0
C169 C 0.03884 0.47948 0.90795 0.0
O170 O 0.09044 0.50922 0.08715 0.0
O171 O 0.07885 0.53449 0.03079 0.0
H172 H 0.08871 0.11713 0.32441 0.0
H173 H 0.12089 0.00466 0.27313 0.0
H174 H 0.1013 0.97526 0.33523 0.0
H175 H 0.07093 0.97949 0.40173 0.0
H176 H 0.03847 0.09074 0.45514 0.0
H177 H 0.06331 0.12305 0.39526 0.0
C178 C 0.09143 0.08623 0.32696 0.0
C179 C 0.10582 0.063 0.29389 0.0
C180 C 0.08049 0.06944 0.36328 0.0
C181 C 0.10976 0.0232 0.29791 0.0
C182 C 0.09864 0.00631 0.33349 0.0
C183 C 0.07001 0.01108 0.40064 0.0
C184 C 0.05283 0.03272 0.4326 0.0
C185 C 0.08357 0.02895 0.36606 0.0
C186 C 0.05194 0.07361 0.43103 0.0
C187 C 0.06565 0.09186 0.39654 0.0
H188 H 0.45855 0.00785 0.77175 0.0
H189 H 0.37596 0.89828 0.77085 0.0
H190 H 0.37314 0.90922 0.84525 0.0
H191 H 0.40099 0.94436 0.91051 0.0
H192 H 0.48713 0.05132 0.91276 0.0
H193 H 0.48103 0.0476 0.83796 0.0
C194 C 0.4395 0.98667 0.78783 0.0
C195 C 0.41731 0.95235 0.76559 0.0
C196 C 0.43881 0.99266 0.8309 0.0
C197 C 0.39267 0.92533 0.78686 0.0
C198 C 0.39137 0.93137 0.82958 0.0
C199 C 0.41785 0.96741 0.89473 0.0
C200 C 0.4449 -0.00225 0.91703 0.0
C201 C 0.41518 0.96422 0.85188 0.0
C202 C 0.46611 0.02769 0.89631 0.0
C203 C 0.46295 0.02525 0.8535 0.0
H204 H 0.60524 0.4143 0.74695 0.0
H205 H 0.65567 0.5239 0.82151 0.0
H206 H 0.64798 0.5623 0.76482 0.0
H207 H 0.61153 0.56623 0.70245 0.0
H208 H 0.55411 0.45831 0.63081 0.0
H209 H 0.581 0.41746 0.67671 0.0
C210 C 0.61554 0.44642 0.75024 0.0
C211 C 0.62998 0.46655 0.78853 0.0
C212 C 0.60947 0.46855 0.718 0.0
C213 C 0.64355 0.50804 0.79254 0.0
C214 C 0.63924 0.52997 0.76014 0.0
C215 C 0.60668 0.53373 0.69583 0.0
C216 C 0.58077 0.5151 0.66394 0.0
C217 C 0.62003 0.51086 0.7238 0.0
C218 C 0.57427 0.47313 0.65525 0.0
C219 C 0.58901 0.44985 0.68199 0.0
H220 H 0.89084 0.55713 0.26773 0.0
H221 H 0.00124 0.63009 0.30534 0.0
H222 H 0.02235 0.62512 0.23462 0.0
H223 H 0.01555 0.58724 0.16692 0.0
H224 H 0.91059 0.50451 0.13125 0.0
H225 H 0.88014 0.5273 0.19501 0.0
C226 C 0.91904 0.57272 0.26004 0.0
C227 C 0.94482 0.59334 0.29147 0.0
C228 C 0.9318 0.5679 0.21947 0.0
C229 C 0.98131 0.61347 0.28153 0.0
C230 C 0.99332 0.61075 0.24115 0.0
C231 C 0.98534 0.57574 0.17241 0.0
C232 C 0.96523 0.54442 0.14501 0.0
C233 C 0.96969 0.58628 0.2104 0.0
C234 C 0.92635 0.52902 0.15205 0.0
C235 C 0.90933 0.54148 0.18886 0.0
H236 H 0.23718 0.07234 0.06739 0.0
H237 H 0.25886 0.143 0.18589 0.0
H238 H 0.32613 0.13282 0.18531 0.0
H239 H 0.37964 0.10695 0.15036 0.0
H240 H 0.35994 0.03435 0.0331 0.0
H241 H 0.29096 0.04134 0.0343 0.0
C242 C 0.25677 0.0856 0.09291 0.0
C243 C 0.24311 0.10891 0.12638 0.0
C244 C 0.29563 0.07897 0.0928 0.0
C245 C 0.2686 0.12516 0.15966 0.0
C246 C 0.30711 0.1193 0.15943 0.0
C247 C 0.36015 0.09228 0.12522 0.0
C248 C 0.37481 0.0705 0.09156 0.0
C249 C 0.32098 0.09662 0.1261 0.0
C250 C 0.34922 0.05115 0.05946 0.0
C251 C 0.30991 0.0555 0.05999 0.0
H252 H 0.25855 0.98323 0.63599 0.0
H253 H 0.20675 0.86416 0.65947 0.0
H254 H 0.14339 0.87551 0.63539 0.0
H255 H 0.10168 0.92218 0.61418 0.0
H256 H 0.15392 0.04251 0.5963 0.0
H257 H 0.21836 0.02775 0.6111 0.0
C258 C 0.23352 0.95954 0.63547 0.0
C259 C 0.23725 0.92305 0.64979 0.0
C260 C 0.1973 0.96657 0.62245 0.0
C261 C 0.2045 0.89272 0.649 0.0
C262 C 0.16832 0.89915 0.63514 0.0
C263 C 0.12745 0.94455 0.61236 0.0
C264 C 0.12358 0.98305 0.6035 0.0
C265 C 0.16422 0.93628 0.62258 0.0
C266 C 0.15667 0.01247 0.60236 0.0
C267 C 0.19335 0.00416 0.61119 0.0
H268 H 0.75997 0.36791 0.94082 0.0
H269 H 0.7347 0.48826 0.96251 0.0
H270 H 0.80068 0.51266 0.99078 0.0
H271 H 0.86825 0.50088 0.99664 0.0
H272 H 0.89338 0.38071 0.97271 0.0
H273 H 0.82422 0.35442 0.95943 0.0
C274 C 0.76885 0.39934 0.95245 0.0
C275 C 0.74334 0.42659 0.94876 0.0
C276 C 0.80655 0.41291 0.96844 0.0
C277 C 0.75433 0.46702 0.96473 0.0
C278 C 0.79195 0.48089 0.98076 0.0
C279 C 0.85814 0.46877 0.99026 0.0
C280 C 0.88527 0.44247 0.98576 0.0
C281 C 0.81872 0.45432 0.98113 0.0
C282 C 0.87257 0.40112 0.97678 0.0
C283 C 0.83324 0.38629 0.96863 0.0
H284 H 0.79357 0.60773 0.56935 0.0
H285 H 0.80435 0.55018 0.44649 0.0
H286 H 0.73398 0.53897 0.4365 0.0
H287 H 0.66967 0.5423 0.46354 0.0
H288 H 0.65751 0.59808 0.58672 0.0
H289 H 0.7284 0.6136 0.59566 0.0
C290 C 0.78048 0.5928 0.54039 0.0
C291 C 0.80408 0.57933 0.50888 0.0
C292 C 0.7399 0.58614 0.53496 0.0
C293 C 0.78678 0.56022 0.47144 0.0
C294 C 0.74658 0.55397 0.46563 0.0
C295 C 0.68247 0.55802 0.49234 0.0
C296 C 0.65845 0.56874 0.52455 0.0
C297 C 0.72291 0.56628 0.49735 0.0
C298 C 0.67544 0.5896 0.56144 0.0
C299 C 0.71591 0.59825 0.56662 0.0
H300 H 0.07471 0.2353 0.01614 0.0
H301 H 0.12549 0.2742 0.1374 0.0
H302 H 0.10906 0.34057 0.135 0.0
H303 H 0.07542 0.38567 0.10191 0.0
H304 H 0.0238 0.34964 0.98108 0.0
H305 H 0.04568 0.28416 0.97956 0.0
C306 C 0.08255 0.25848 0.04179 0.0
C307 C 0.10084 0.24946 0.07722 0.0
C308 C 0.07256 0.29693 0.04043 0.0
C309 C 0.11097 0.27997 0.11005 0.0
C310 C 0.10159 0.31803 0.10873 0.0
C311 C 0.06909 0.36356 0.07505 0.0
C312 C 0.04742 0.37209 0.04194 0.0
C313 C 0.08154 0.32646 0.07464 0.0
C314 C 0.04026 0.34363 0.007 0.0
C315 C 0.05263 0.3062 0.0063 0.0
H316 H 0.58029 0.23508 0.89458 0.0
H317 H 0.68098 0.27047 0.97585 0.0
H318 H 0.65476 0.22049 0.01983 0.0
H319 H 0.60032 0.17228 0.03938 0.0
H320 H 0.49903 0.13649 0.96 0.0
H321 H 0.52861 0.18044 0.91044 0.0
C322 C 0.59665 0.23144 0.92163 0.0
C323 C 0.63229 0.25672 0.93215 0.0
C324 C 0.58141 0.20249 0.94694 0.0
C325 C 0.65338 0.25152 0.96711 0.0
C326 C 0.63845 0.22295 0.99235 0.0
C327 C 0.58543 0.17324 0.01051 0.0
C328 C 0.54808 0.15125 0.00269 0.0
C329 C 0.6022 0.19898 0.98303 0.0
C330 C 0.52828 0.15285 0.96589 0.0
C331 C 0.54496 0.17829 0.93797 0.0
H332 H 0.94517 0.7199 0.54825 0.0
H333 H 0.01628 0.71284 0.44163 0.0
H334 H 0.02965 0.78597 0.44603 0.0
H335 H 0.0118 0.85019 0.47251 0.0
H336 H 0.93579 0.85822 0.57472 0.0
H337 H 0.93358 0.78644 0.58035 0.0
C338 C 0.96462 0.73464 0.52699 0.0
C339 C 0.97999 0.71151 0.4948 0.0
C340 C 0.97067 0.77665 0.52863 0.0
C341 C 0.00439 0.73042 0.46666 0.0
C342 C 0.01182 0.77208 0.46904 0.0
C343 C 0.99585 0.83632 0.49683 0.0
C344 C 0.97426 0.85884 0.52337 0.0
C345 C 0.9938 0.79528 0.49877 0.0
C346 C 0.95307 0.84111 0.55447 0.0
C347 C 0.95154 0.80014 0.55734 0.0
H348 H 0.53018 0.82528 0.61728 0.0
H349 H 0.40951 0.79862 0.57816 0.0
H350 H 0.41392 0.72738 0.56382 0.0
H351 H 0.45086 0.67191 0.56758 0.0
H352 H 0.5703 0.69856 0.60984 0.0
H353 H 0.56787 0.77061 0.61745 0.0
C354 C 0.50491 0.80397 0.60527 0.0
C355 C 0.46952 0.81727 0.59904 0.0
C356 C 0.50755 0.76304 0.59752 0.0
C357 C 0.43704 0.78918 0.58354 0.0
C358 C 0.43955 0.74843 0.57524 0.0
C359 C 0.47654 0.69374 0.57727 0.0
C360 C 0.51099 0.68047 0.58718 0.0
C361 C 0.47449 0.73494 0.58267 0.0
C362 C 0.54386 0.70852 0.60107 0.0
C363 C 0.54231 0.74956 0.60582 0.0
H364 H 0.93744 0.8842 0.80491 0.0
H365 H 0.86405 0.97319 0.83723 0.0
H366 H 0.8742 -0.0026 0.77114 0.0
H367 H 0.90993 -0.00059 0.70778 0.0
H368 H 0.98336 0.91176 0.67323 0.0
H369 H 0.96651 0.88037 0.73577 0.0
C370 C 0.92343 0.90862 0.79731 0.0
C371 C 0.90064 0.92725 0.8266 0.0
C372 C 0.92922 0.92261 0.75867 0.0
C373 C 0.88222 0.9585 0.81582 0.0
C374 C 0.88786 0.97244 0.77784 0.0
C375 C 0.92117 0.97259 0.71336 0.0
C376 C 0.94762 0.95775 0.68614 0.0
C377 C 0.91204 0.95547 0.74953 0.0
C378 C 0.96239 0.92325 0.69359 0.0
C379 C 0.95323 0.90574 0.72965 0.0
H380 H 0.57838 0.03146 0.32611 0.0
H381 H 0.64935 0.14832 0.3281 0.0
H382 H 0.62962 0.15122 0.25756 0.0
H383 H 0.58942 0.1227 0.19692 0.0
H384 H 0.51929 0.00528 0.19266 0.0
H385 H 0.54235 -0.00011 0.26218 0.0
C386 C 0.58969 0.05746 0.31101 0.0
C387 C 0.61418 0.09037 0.33299 0.0
C388 C 0.57856 0.05869 0.27001 0.0
C389 C 0.6291 0.12346 0.31273 0.0
C390 C 0.61822 0.12491 0.27211 0.0
C391 C 0.57932 0.09575 0.21105 0.0
C392 C 0.55227 0.06465 0.18996 0.0
C393 C 0.59238 0.0931 0.25082 0.0
C394 C 0.54008 0.02963 0.20832 0.0
C395 C 0.55307 0.0267 0.24813 0.0
H396 H 0.43612 0.56724 0.2741 0.0
H397 H 0.44092 0.68867 0.33067 0.0
H398 H 0.46061 0.66965 0.39668 0.0
H399 H 0.4867 0.61966 0.43445 0.0
H400 H 0.48022 0.49854 0.37485 0.0
H401 H 0.4502 0.51582 0.31426 0.0
C402 C 0.44063 0.58922 0.30123 0.0
C403 C 0.43782 0.62912 0.298 0.0
C404 C 0.45196 0.57811 0.33839 0.0
C405 C 0.4432 0.65764 0.33296 0.0
C406 C 0.45464 0.64682 0.37046 0.0
C407 C 0.4777 0.59706 0.40854 0.0
C408 C 0.4865 0.55825 0.40846 0.0
C409 C 0.46067 0.60736 0.37312 0.0
C410 C 0.47451 0.52891 0.37501 0.0
C411 C 0.45733 0.53868 0.34034 0.0
H412 H 0.14815 0.51712 0.76952 0.0
H413 H 0.09894 0.39509 0.72397 0.0
H414 H 0.0716 0.38466 0.79076 0.0
H415 H 0.05125 0.4149 0.85734 0.0
H416 H 0.10146 0.53626 0.90364 0.0
H417 H 0.13996 0.54212 0.84208 0.0
C418 C 0.13219 0.48803 0.77465 0.0
C419 C 0.12507 0.4571 0.74186 0.0
C420 C 0.11688 0.48216 0.81333 0.0
C421 C 0.10482 0.41933 0.74876 0.0
C422 C 0.08902 0.4134 0.78694 0.0
C423 C 0.07234 0.44173 0.85485 0.0
C424 C 0.07386 0.47504 0.8848 0.0
C425 C 0.09359 0.44511 0.81893 0.0
C426 C 0.10053 0.51003 0.8812 0.0
C427 C 0.12189 0.51365 0.84559 0.0
H428 H 0.73681 0.93698 0.01571 0.0
H429 H 0.76677 0.05171 0.97037 0.0
H430 H 0.70103 0.06544 0.98323 0.0
H431 H 0.63277 0.04193 0.00206 0.0
H432 H 0.60372 0.92513 0.04311 0.0
H433 H 0.67108 0.91543 0.03771 0.0
C434 C 0.7292 0.96523 0.00908 0.0
C435 C 0.75668 0.99307 0.99185 0.0
C436 C 0.69119 0.97252 0.01562 0.0
C437 C 0.74616 0.02957 0.9835 0.0
C438 C 0.70849 0.03744 0.99076 0.0
C439 C 0.64149 0.01471 0.01029 0.0
C440 C 0.61336 0.98414 0.02262 0.0
C441 C 0.68042 0.00874 0.00601 0.0
C442 C 0.62485 0.94886 0.03304 0.0
C443 C 0.66336 0.94327 0.03002 0.0
H444 H 0.74644 0.05166 0.547 0.0
H445 H 0.76977 0.09699 0.43104 0.0
H446 H 0.83632 0.08331 0.43408 0.0
H447 H 0.88486 0.05092 0.46602 0.0
H448 H 0.86359 0.01023 0.58437 0.0
H449 H 0.79924 0.03024 0.58469 0.0
C450 C 0.76642 0.05908 0.52281 0.0
C451 C 0.75337 0.07455 0.48852 0.0
C452 C 0.80471 0.05179 0.52516 0.0
C453 C 0.77939 0.08487 0.45762 0.0
C454 C 0.81728 0.07689 0.45926 0.0
C455 C 0.86626 0.04711 0.49211 0.0
C456 C 0.87823 0.02857 0.52478 0.0
C457 C 0.8298 0.0592 0.49227 0.0
C458 C 0.85458 0.02432 0.55887 0.0
C459 C 0.81784 0.03553 0.55891 0.0
H460 H 0.24608 0.67169 0.08013 0.0
H461 H 0.25329 0.62602 0.19646 0.0
H462 H 0.2013 0.5703 0.17436 0.0
H463 H 0.1507 0.53826 0.12516 0.0
H464 H 0.13769 0.58629 0.01098 0.0
H465 H 0.19562 0.63714 0.02871 0.0
C466 C 0.23627 0.64932 0.10039 0.0
C467 C 0.25289 0.65307 0.14001 0.0
C468 C 0.20548 0.61796 0.08792 0.0
C469 C 0.24027 0.62404 0.16612 0.0
C470 C 0.21075 0.59212 0.15344 0.0
C471 C 0.16064 0.55946 0.10374 0.0
C472 C 0.13974 0.55862 0.06689 0.0
C473 C 0.19265 0.58933 0.11484 0.0
C474 C 0.15324 0.58634 0.0396 0.0
C475 C 0.1862 0.61553 0.04983 0.0
H476 H 0.25939 0.49481 0.53394 0.0
H477 H 0.24908 0.44136 0.64664 0.0
H478 H 0.31957 0.44447 0.65063 0.0
H479 H 0.38417 0.47181 0.62711 0.0
H480 H 0.39464 0.52234 0.51261 0.0
H481 H 0.32391 0.50968 0.5033 0.0
C482 C 0.27268 0.48294 0.55869 0.0
C483 C 0.24962 0.46833 0.59019 0.0
C484 C 0.31307 0.48439 0.56044 0.0
C485 C 0.26661 0.45264 0.62207 0.0
C486 C 0.30682 0.45465 0.62447 0.0
C487 C 0.37093 0.47913 0.59965 0.0
C488 C 0.39433 0.49865 0.57096 0.0
C489 C 0.33039 0.47183 0.59459 0.0
C490 C 0.37709 0.50743 0.53517 0.0
C491 C 0.33668 0.50053 0.53003 0.0
H492 H 0.98202 0.76936 0.00421 0.0
H493 H 0.88536 0.72615 0.91906 0.0
H494 H 0.89684 0.65765 0.91923 0.0
H495 H 0.93504 0.61021 0.94101 0.0
H496 H 0.03 0.64987 0.02838 0.0
H497 H 0.01821 0.71956 0.03053 0.0
C498 C 0.96351 0.74486 0.9858 0.0
C499 C 0.93302 0.75295 0.96135 0.0
C500 C 0.96986 0.70502 0.98658 0.0
C501 C 0.90896 0.72087 0.93811 0.0
C502 C 0.91551 0.68163 0.93813 0.0
C503 C 0.9531 0.63409 0.96073 0.0
C504 C 0.98356 0.62514 0.98415 0.0
C505 C 0.94595 0.67345 0.96191 0.0
C506 C 0.00631 0.65613 0.01012 0.0
C507 C -0.00031 0.69592 0.0111 0.0
H508 H 0.47723 0.81416 0.19864 0.0
H509 H 0.36018 0.76983 0.15304 0.0
H510 H 0.35826 0.83177 0.12374 0.0
H511 H 0.39513 0.89073 0.09799 0.0
H512 H 0.51299 0.93448 0.14029 0.0
H513 H 0.50914 0.88177 0.18541 0.0
C514 C 0.45103 0.81879 0.18332 0.0
C515 C 0.41889 0.78774 0.17796 0.0
C516 C 0.45036 0.85442 0.16601 0.0
C517 C 0.38497 0.79366 0.15816 0.0
C518 C 0.38398 0.82896 0.14105 0.0
C519 C 0.41909 0.88996 0.11891 0.0
C520 C 0.45421 0.91595 0.11608 0.0
C521 C 0.4171 0.85865 0.14317 0.0
C522 C 0.4855 0.91482 0.1426 0.0
C523 C 0.48355 0.88418 0.16768 0.0
H524 H 0.10872 0.26664 0.5865 0.0
H525 H 0.01547 0.29871 0.66212 0.0
H526 H 0.97937 0.23047 0.6472 0.0
H527 H 0.98256 0.15947 0.62621 0.0
H528 H 0.07599 0.12699 0.55153 0.0
H529 H 0.1031 0.19795 0.55051 0.0
C530 C 0.08001 0.25877 0.59869 0.0
C531 C 0.06498 0.28686 0.6261 0.0
C532 C 0.05952 0.21961 0.5899 0.0
C533 C 0.02757 0.27713 0.64124 0.0
C534 C 0.00702 0.23818 0.6328 0.0
C535 C 0.00763 0.16818 0.60788 0.0
C536 C 0.02766 0.13865 0.58934 0.0
C537 C 0.0237 0.20877 0.60895 0.0
C538 C 0.06017 0.14961 0.56579 0.0
C539 C 0.07603 0.19009 0.56592 0.0
H540 H 0.54119 0.26793 0.47294 0.0
H541 H 0.65659 0.32263 0.44335 0.0
H542 H 0.64329 0.38845 0.47229 0.0
H543 H 0.59683 0.43106 0.50028 0.0
H544 H 0.47972 0.37718 0.52317 0.0
H545 H 0.49583 0.31011 0.50366 0.0
C546 C 0.56359 0.29418 0.47317 0.0
C547 C 0.59977 0.2904 0.45586 0.0
C548 C 0.55549 0.33194 0.48916 0.0
C549 C 0.62839 0.32476 0.45618 0.0
C550 C 0.62087 0.36237 0.47289 0.0
C551 C 0.5754 0.4044 0.50244 0.0
C552 C 0.53758 0.40853 0.5144 0.0
C553 C 0.58435 0.36636 0.48893 0.0
C554 C 0.50931 0.37428 0.51533 0.0
C555 C 0.5184 0.33613 0.50358 0.0
loop_
_geom_bond_atom_site_label_1
_geom_bond_atom_site_label_2
_geom_bond_distance
_geom_bond_site_symmetry_2
_ccdc_geom_bond_type
O0 Cd1 2.300 . S
O0 C7 1.275 . S
Cd1 O0 2.300 . S
Cd1 O9 2.381 . S
Cd1 O10 2.378 . S
O2 Cd3 2.385 . S
O2 C7 1.255 . S
Cd3 O2 2.385 . S
Cd3 O4 2.317 . S
O4 Cd3 2.317 . S
O4 C5 1.232 . S
C5 O4 1.232 . S
C5 O6 1.218 . S
O6 C5 1.218 . S
C7 O0 1.275 . S
C7 O2 1.255 . S
C8 O9 1.258 . S
C8 O10 1.256 . S
O9 Cd1 2.381 . S
O9 C8 1.258 . S
O10 Cd1 2.378 . S
O10 C8 1.256 . S
O11 Cd12 2.300 . S
O11 C18 1.275 . S
Cd12 O11 2.300 . S
Cd12 O20 2.381 . S
Cd12 O21 2.378 . S
O13 Cd14 2.385 . S
O13 C18 1.255 . S
Cd14 O13 2.385 . S
Cd14 O15 2.317 . S
O15 Cd14 2.317 . S
O15 C16 1.232 . S
C16 O15 1.232 . S
C16 O17 1.218 . S
O17 C16 1.218 . S
C18 O11 1.275 . S
C18 O13 1.255 . S
C19 O20 1.258 . S
C19 O21 1.256 . S
O20 Cd12 2.381 . S
O20 C19 1.258 . S
O21 Cd12 2.378 . S
O21 C19 1.256 . S
O22 Cd23 2.300 . S
O22 C29 1.275 . S
Cd23 O22 2.300 . S
Cd23 O31 2.381 . S
Cd23 O32 2.378 . S
O24 Cd25 2.385 . S
O24 C29 1.255 . S
Cd25 O24 2.385 . S
Cd25 O26 2.317 . S
O26 Cd25 2.317 . S
O26 C27 1.232 . S
C27 O26 1.232 . S
C27 O28 1.218 . S
O28 C27 1.218 . S
C29 O22 1.275 . S
C29 O24 1.255 . S
C30 O31 1.258 . S
C30 O32 1.256 . S
O31 Cd23 2.381 . S
O31 C30 1.258 . S
O32 Cd23 2.378 . S
O32 C30 1.256 . S
O33 Cd34 2.300 . S
O33 C40 1.275 . S
Cd34 O33 2.300 . S
Cd34 O42 2.381 . S
Cd34 O43 2.378 . S
O35 Cd36 2.385 . S
O35 C40 1.255 . S
Cd36 O35 2.385 . S
Cd36 O37 2.317 . S
O37 Cd36 2.317 . S
O37 C38 1.232 . S
C38 O37 1.232 . S
C38 O39 1.218 . S
O39 C38 1.218 . S
C40 O33 1.275 . S
C40 O35 1.255 . S
C41 O42 1.258 . S
C41 O43 1.256 . S
O42 Cd34 2.381 . S
O42 C41 1.258 . S
O43 Cd34 2.378 . S
O43 C41 1.256 . S
O44 Cd45 2.300 . S
O44 C51 1.275 . S
Cd45 O44 2.300 . S
Cd45 O53 2.381 . S
Cd45 O54 2.378 . S
O46 Cd47 2.385 . S
O46 C51 1.255 . S
Cd47 O46 2.385 . S
Cd47 O48 2.317 . S
O48 Cd47 2.317 . S
O48 C49 1.232 . S
C49 O48 1.232 . S
C49 O50 1.218 . S
O50 C49 1.218 . S
C51 O44 1.275 . S
C51 O46 1.255 . S
C52 O53 1.258 . S
C52 O54 1.256 . S
O53 Cd45 2.381 . S
O53 C52 1.258 . S
O54 Cd45 2.378 . S
O54 C52 1.256 . S
O55 Cd56 2.300 . S
O55 C62 1.275 . S
Cd56 O55 2.300 . S
Cd56 O64 2.381 . S
Cd56 O65 2.378 . S
O57 Cd58 2.385 . S
O57 C62 1.255 . S
Cd58 O57 2.385 . S
Cd58 O59 2.317 . S
O59 Cd58 2.317 . S
O59 C60 1.232 . S
C60 O59 1.232 . S
C60 O61 1.218 . S
O61 C60 1.218 . S
C62 O55 1.275 . S
C62 O57 1.255 . S
C63 O64 1.258 . S
C63 O65 1.256 . S
O64 Cd56 2.381 . S
O64 C63 1.258 . S
O65 Cd56 2.378 . S
O65 C63 1.256 . S
O66 Cd67 2.300 . S
O66 C73 1.275 . S
Cd67 O66 2.300 . S
Cd67 O75 2.381 . S
Cd67 O76 2.378 . S
O68 Cd69 2.385 . S
O68 C73 1.255 . S
Cd69 O68 2.385 . S
Cd69 O70 2.317 . S
O70 Cd69 2.317 . S
O70 C71 1.232 . S
C71 O70 1.232 . S
C71 O72 1.218 . S
O72 C71 1.218 . S
C73 O66 1.275 . S
C73 O68 1.255 . S
C74 O75 1.258 . S
C74 O76 1.256 . S
O75 Cd67 2.381 . S
O75 C74 1.258 . S
O76 Cd67 2.378 . S
O76 C74 1.256 . S
O77 Cd78 2.300 . S
O77 C84 1.275 . S
Cd78 O77 2.300 . S
Cd78 O86 2.381 . S
Cd78 O87 2.378 . S
O79 Cd80 2.385 . S
O79 C84 1.255 . S
Cd80 O79 2.385 . S
Cd80 O81 2.317 . S
O81 Cd80 2.317 . S
O81 C82 1.232 . S
C82 O81 1.232 . S
C82 O83 1.218 . S
O83 C82 1.218 . S
C84 O77 1.275 . S
C84 O79 1.255 . S
C85 O86 1.258 . S
C85 O87 1.256 . S
O86 Cd78 2.381 . S
O86 C85 1.258 . S
O87 Cd78 2.378 . S
O87 C85 1.256 . S
O88 Mg89 1.990 . S
O88 C102 1.253 1_445 S
Mg89 O88 1.990 . S
Mg89 O92 2.180 . S
Mg89 O93 2.117 . S
Mg89 O107 2.030 . S
O90 Mg91 2.072 1_665 S
O90 C102 1.260 . S
Mg91 O90 2.072 1_445 S
Mg91 O92 2.099 . S
Mg91 O94 2.079 . S
Mg91 O95 2.072 1_455 S
Mg91 O97 2.099 1_445 S
Mg91 O108 2.079 1_545 S
O92 Mg89 2.180 . S
O92 Mg91 2.099 . S
O92 C103 1.279 . S
O93 Mg89 2.117 . S
O93 C103 1.250 . S
O94 Mg91 2.079 . S
O94 C104 1.264 . S
O95 Mg91 2.072 1_655 S
O95 C105 1.260 . S
Mg96 O97 2.180 . S
Mg96 O98 2.030 1_565 S
Mg96 O99 1.990 . S
Mg96 O100 2.117 . S
O97 Mg91 2.099 1_665 S
O97 Mg96 2.180 . S
O97 C106 1.279 . S
O98 Mg96 2.030 1_545 S
O98 C104 1.248 1_655 S
O99 Mg96 1.990 . S
O99 C105 1.253 1_565 S
O100 Mg96 2.117 . S
O100 C106 1.250 . S
C101 O107 1.248 1_565 S
C101 O108 1.264 . S
C102 O88 1.253 1_665 S
C102 O90 1.260 . S
C103 O92 1.279 . S
C103 O93 1.250 . S
C104 O94 1.264 . S
C104 O98 1.248 1_455 S
C105 O95 1.260 . S
C105 O99 1.253 1_545 S
C106 O97 1.279 . S
C106 O100 1.250 . S
O107 Mg89 2.030 . S
O107 C101 1.248 1_545 S
O108 Mg91 2.079 1_565 S
O108 C101 1.264 . S
O109 Mg110 1.990 . S
O109 C123 1.253 . S
Mg110 O109 1.990 . S
Mg110 O113 2.180 . S
Mg110 O114 2.117 . S
Mg110 O128 2.030 . S
O111 Mg112 2.072 . S
O111 C123 1.260 . S
Mg112 O111 2.072 . S
Mg112 O113 2.099 . S
Mg112 O115 2.079 . S
Mg112 O116 2.068 1_554 S
Mg112 O118 2.099 1_545 S
Mg112 O129 2.079 . S
O113 Mg110 2.180 . S
O113 Mg112 2.099 . S
O113 C124 1.279 . S
O114 Mg110 2.117 . S
O114 C124 1.250 . S
O115 Mg112 2.079 . S
O115 C125 1.264 . S
O116 Mg112 2.068 1_556 S
O116 C126 1.266 . S
Mg117 O118 2.180 . S
Mg117 O119 2.035 . S
Mg117 O120 1.990 1_554 S
Mg117 O121 2.117 . S
O118 Mg112 2.099 1_565 S
O118 Mg117 2.180 . S
O118 C127 1.279 . S
O119 Mg117 2.035 . S
O119 C125 1.255 1_565 S
O120 Mg117 1.990 1_556 S
O120 C126 1.248 1_565 S
O121 Mg117 2.117 . S
O121 C127 1.250 . S
C122 O128 1.248 . S
C122 O129 1.264 . S
C123 O109 1.253 . S
C123 O111 1.260 . S
C124 O113 1.279 . S
C124 O114 1.250 . S
C125 O115 1.264 . S
C125 O119 1.255 1_545 S
C126 O116 1.266 . S
C126 O120 1.248 1_545 S
C127 O118 1.279 . S
C127 O121 1.250 . S
O128 Mg110 2.030 . S
O128 C122 1.248 . S
O129 Mg112 2.079 . S
O129 C122 1.264 . S
O130 Mg131 1.990 . S
O130 C144 1.253 . S
Mg131 O130 1.990 . S
Mg131 O134 2.180 . S
Mg131 O135 2.117 . S
Mg131 O149 2.030 . S
O132 Mg133 2.072 . S
O132 C144 1.260 . S
Mg133 O132 2.072 . S
Mg133 O134 2.099 . S
Mg133 O136 2.079 . S
Mg133 O137 2.072 . S
Mg133 O139 2.099 . S
Mg133 O150 2.079 . S
O134 Mg131 2.180 . S
O134 Mg133 2.099 . S
O134 C145 1.279 . S
O135 Mg131 2.117 . S
O135 C145 1.250 . S
O136 Mg133 2.079 . S
O136 C146 1.264 . S
O137 Mg133 2.072 . S
O137 C147 1.260 . S
Mg138 O139 2.180 . S
Mg138 O140 2.030 . S
Mg138 O141 1.990 . S
Mg138 O142 2.117 . S
O139 Mg133 2.099 . S
O139 Mg138 2.180 . S
O139 C148 1.279 . S
O140 Mg138 2.030 . S
O140 C146 1.248 . S
O141 Mg138 1.990 . S
O141 C147 1.253 . S
O142 Mg138 2.117 . S
O142 C148 1.250 . S
C143 O149 1.248 . S
C143 O150 1.264 . S
C144 O130 1.253 . S
C144 O132 1.260 . S
C145 O134 1.279 . S
C145 O135 1.250 . S
C146 O136 1.264 . S
C146 O140 1.248 . S
C147 O137 1.260 . S
C147 O141 1.253 . S
C148 O139 1.279 . S
C148 O142 1.250 . S
O149 Mg131 2.030 . S
O149 C143 1.248 . S
O150 Mg133 2.079 . S
O150 C143 1.264 . S
O151 Mg152 1.990 . S
O151 C165 1.253 . S
Mg152 O151 1.990 . S
Mg152 O155 2.180 . S
Mg152 O156 2.117 . S
Mg152 O170 2.030 . S
O153 Mg154 2.072 . S
O153 C165 1.260 . S
Mg154 O153 2.072 . S
Mg154 O155 2.099 . S
Mg154 O157 2.079 . S
Mg154 O158 2.072 1_455 S
Mg154 O160 2.099 1_554 S
Mg154 O171 2.079 . S
O155 Mg152 2.180 . S
O155 Mg154 2.099 . S
O155 C166 1.279 1_455 S
O156 Mg152 2.117 . S
O156 C166 1.250 1_455 S
O157 Mg154 2.079 . S
O157 C167 1.264 1_454 S
O158 Mg154 2.072 1_655 S
O158 C168 1.260 1_554 S
Mg159 O160 2.180 1_655 S
Mg159 O161 2.030 . S
Mg159 O162 1.990 . S
Mg159 O163 2.117 1_655 S
O160 Mg154 2.099 1_556 S
O160 Mg159 2.180 1_455 S
O160 C169 1.279 . S
O161 Mg159 2.030 . S
O161 C167 1.248 . S
O162 Mg159 1.990 . S
O162 C168 1.253 . S
O163 Mg159 2.117 1_455 S
O163 C169 1.250 . S
C164 O170 1.248 . S
C164 O171 1.264 . S
C165 O151 1.253 . S
C165 O153 1.260 . S
C166 O155 1.279 1_655 S
C166 O156 1.250 1_655 S
C167 O157 1.264 1_656 S
C167 O161 1.248 . S
C168 O158 1.260 1_556 S
C168 O162 1.253 . S
C169 O160 1.279 . S
C169 O163 1.250 . S
O170 Mg152 2.030 . S
O170 C164 1.248 . S
O171 Mg154 2.079 . S
O171 C164 1.264 . S
H172 C178 0.930 . S
H173 C181 0.930 . S
H174 C182 0.930 1_565 S
H175 C183 0.930 1_565 S
H176 C186 0.930 . S
H177 C187 0.930 . S
C178 H172 0.930 . S
C178 C179 1.355 . S
C178 C180 1.415 . S
C179 C178 1.355 . S
C179 C181 1.419 . S
C180 C178 1.415 . S
C180 C185 1.425 . S
C180 C187 1.409 . S
C181 H173 0.930 . S
C181 C179 1.419 . S
C181 C182 1.362 . S
C182 H174 0.930 1_545 S
C182 C181 1.362 . S
C182 C185 1.409 . S
C183 H175 0.930 1_545 S
C183 C184 1.355 . S
C183 C185 1.415 . S
C184 C183 1.355 . S
C184 C186 1.419 . S
C185 C180 1.425 . S
C185 C182 1.409 . S
C185 C183 1.415 . S
C186 H176 0.930 . S
C186 C184 1.419 . S
C186 C187 1.362 . S
C187 H177 0.930 . S
C187 C180 1.409 . S
C187 C186 1.362 . S
H188 C194 0.930 1_545 S
H189 C197 0.930 . S
H190 C198 0.930 . S
H191 C199 0.930 . S
H192 C202 0.930 . S
H193 C203 0.930 . S
C194 H188 0.930 1_565 S
C194 C195 1.355 . S
C194 C196 1.415 . S
C195 C194 1.355 . S
C195 C197 1.419 . S
C196 C194 1.415 . S
C196 C201 1.425 . S
C196 C203 1.409 1_565 S
C197 H189 0.930 . S
C197 C195 1.419 . S
C197 C198 1.362 . S
C198 H190 0.930 . S
C198 C197 1.362 . S
C198 C201 1.409 . S
C199 H191 0.930 . S
C199 C200 1.355 1_565 S
C199 C201 1.415 . S
C200 C199 1.355 1_545 S
C200 C202 1.419 . S
C201 C196 1.425 . S
C201 C198 1.409 . S
C201 C199 1.415 . S
C202 H192 0.930 . S
C202 C200 1.419 . S
C202 C203 1.362 . S
C203 H193 0.930 . S
C203 C196 1.409 1_545 S
C203 C202 1.362 . S
H204 C210 0.930 . S
H205 C213 0.930 . S
H206 C214 0.930 . S
H207 C215 0.930 . S
H208 C218 0.930 . S
H209 C219 0.930 . S
C210 H204 0.930 . S
C210 C211 1.355 . S
C210 C212 1.415 . S
C211 C210 1.355 . S
C211 C213 1.419 . S
C212 C210 1.415 . S
C212 C217 1.425 . S
C212 C219 1.409 . S
C213 H205 0.930 . S
C213 C211 1.419 . S
C213 C214 1.362 . S
C214 H206 0.930 . S
C214 C213 1.362 . S
C214 C217 1.409 . S
C215 H207 0.930 . S
C215 C216 1.355 . S
C215 C217 1.415 . S
C216 C215 1.355 . S
C216 C218 1.419 . S
C217 C212 1.425 . S
C217 C214 1.409 . S
C217 C215 1.415 . S
C218 H208 0.930 . S
C218 C216 1.419 . S
C218 C219 1.362 . S
C219 H209 0.930 . S
C219 C212 1.409 . S
C219 C218 1.362 . S
H220 C226 0.930 . S
H221 C229 0.930 . S
H222 C230 0.930 . S
H223 C231 0.930 1_455 S
H224 C234 0.930 . S
H225 C235 0.930 . S
C226 H220 0.930 . S
C226 C227 1.355 . S
C226 C228 1.415 . S
C227 C226 1.355 . S
C227 C229 1.419 1_655 S
C228 C226 1.415 . S
C228 C233 1.425 . S
C228 C235 1.409 . S
C229 H221 0.930 . S
C229 C227 1.419 1_455 S
C229 C230 1.362 . S
C230 H222 0.930 . S
C230 C229 1.362 . S
C230 C233 1.409 1_455 S
C231 H223 0.930 1_655 S
C231 C232 1.355 . S
C231 C233 1.415 . S
C232 C231 1.355 . S
C232 C234 1.419 . S
C233 C228 1.425 . S
C233 C230 1.409 1_655 S
C233 C231 1.415 . S
C234 H224 0.930 . S
C234 C232 1.419 . S
C234 C235 1.362 . S
C235 H225 0.930 . S
C235 C228 1.409 . S
C235 C234 1.362 . S
H236 C242 0.930 . S
H237 C245 0.930 . S
H238 C246 0.930 . S
H239 C247 0.930 . S
H240 C250 0.930 . S
H241 C251 0.930 . S
C242 H236 0.930 . S
C242 C243 1.355 . S
C242 C244 1.415 . S
C243 C242 1.355 . S
C243 C245 1.419 . S
C244 C242 1.415 . S
C244 C249 1.425 . S
C244 C251 1.409 . S
C245 H237 0.930 . S
C245 C243 1.419 . S
C245 C246 1.362 . S
C246 H238 0.930 . S
C246 C245 1.362 . S
C246 C249 1.409 . S
C247 H239 0.930 . S
C247 C248 1.355 . S
C247 C249 1.415 . S
C248 C247 1.355 . S
C248 C250 1.419 . S
C249 C244 1.425 . S
C249 C246 1.409 . S
C249 C247 1.415 . S
C250 H240 0.930 . S
C250 C248 1.419 . S
C250 C251 1.362 . S
C251 H241 0.930 . S
C251 C244 1.409 . S
C251 C250 1.362 . S
H252 C258 0.930 1_545 S
H253 C261 0.930 . S
H254 C262 0.930 . S
H255 C263 0.930 . S
H256 C266 0.930 . S
H257 C267 0.930 . S
C258 H252 0.930 1_565 S
C258 C259 1.355 . S
C258 C260 1.415 . S
C259 C258 1.355 . S
C259 C261 1.419 . S
C260 C258 1.415 . S
C260 C265 1.425 . S
C260 C267 1.409 1_565 S
C261 H253 0.930 . S
C261 C259 1.419 . S
C261 C262 1.362 . S
C262 H254 0.930 . S
C262 C261 1.362 . S
C262 C265 1.409 . S
C263 H255 0.930 . S
C263 C264 1.355 . S
C263 C265 1.415 . S
C264 C263 1.355 . S
C264 C266 1.419 1_565 S
C265 C260 1.425 . S
C265 C262 1.409 . S
C265 C263 1.415 . S
C266 H256 0.930 . S
C266 C264 1.419 1_545 S
C266 C267 1.362 . S
C267 H257 0.930 . S
C267 C260 1.409 1_545 S
C267 C266 1.362 . S
H268 C274 0.930 . S
H269 C277 0.930 . S
H270 C278 0.930 . S
H271 C279 0.930 . S
H272 C282 0.930 . S
H273 C283 0.930 . S
C274 H268 0.930 . S
C274 C275 1.355 . S
C274 C276 1.415 . S
C275 C274 1.355 . S
C275 C277 1.419 . S
C276 C274 1.415 . S
C276 C281 1.425 . S
C276 C283 1.409 . S
C277 H269 0.930 . S
C277 C275 1.419 . S
C277 C278 1.362 . S
C278 H270 0.930 . S
C278 C277 1.362 . S
C278 C281 1.409 . S
C279 H271 0.930 . S
C279 C280 1.355 . S
C279 C281 1.415 . S
C280 C279 1.355 . S
C280 C282 1.419 . S
C281 C276 1.425 . S
C281 C278 1.409 . S
C281 C279 1.415 . S
C282 H272 0.930 . S
C282 C280 1.419 . S
C282 C283 1.362 . S
C283 H273 0.930 . S
C283 C276 1.409 . S
C283 C282 1.362 . S
H284 C290 0.930 . S
H285 C293 0.930 . S
H286 C294 0.930 . S
H287 C295 0.930 . S
H288 C298 0.930 . S
H289 C299 0.930 . S
C290 H284 0.930 . S
C290 C291 1.355 . S
C290 C292 1.415 . S
C291 C290 1.355 . S
C291 C293 1.419 . S
C292 C290 1.415 . S
C292 C297 1.425 . S
C292 C299 1.409 . S
C293 H285 0.930 . S
C293 C291 1.419 . S
C293 C294 1.362 . S
C294 H286 0.930 . S
C294 C293 1.362 . S
C294 C297 1.409 . S
C295 H287 0.930 . S
C295 C296 1.355 . S
C295 C297 1.415 . S
C296 C295 1.355 . S
C296 C298 1.419 . S
C297 C292 1.425 . S
C297 C294 1.409 . S
C297 C295 1.415 . S
C298 H288 0.930 . S
C298 C296 1.419 . S
C298 C299 1.362 . S
C299 H289 0.930 . S
C299 C292 1.409 . S
C299 C298 1.362 . S
H300 C306 0.930 . S
H301 C309 0.930 . S
H302 C310 0.930 . S
H303 C311 0.930 . S
H304 C314 0.930 1_556 S
H305 C315 0.930 1_556 S
C306 H300 0.930 . S
C306 C307 1.355 . S
C306 C308 1.415 . S
C307 C306 1.355 . S
C307 C309 1.419 . S
C308 C306 1.415 . S
C308 C313 1.425 . S
C308 C315 1.409 . S
C309 H301 0.930 . S
C309 C307 1.419 . S
C309 C310 1.362 . S
C310 H302 0.930 . S
C310 C309 1.362 . S
C310 C313 1.409 . S
C311 H303 0.930 . S
C311 C312 1.355 . S
C311 C313 1.415 . S
C312 C311 1.355 . S
C312 C314 1.419 . S
C313 C308 1.425 . S
C313 C310 1.409 . S
C313 C311 1.415 . S
C314 H304 0.930 1_554 S
C314 C312 1.419 . S
C314 C315 1.362 . S
C315 H305 0.930 1_554 S
C315 C308 1.409 . S
C315 C314 1.362 . S
H316 C322 0.930 . S
H317 C325 0.930 1_554 S
H318 C326 0.930 . S
H319 C327 0.930 . S
H320 C330 0.930 . S
H321 C331 0.930 . S
C322 H316 0.930 . S
C322 C323 1.355 . S
C322 C324 1.415 . S
C323 C322 1.355 . S
C323 C325 1.419 . S
C324 C322 1.415 . S
C324 C329 1.425 1_556 S
C324 C331 1.409 . S
C325 H317 0.930 1_556 S
C325 C323 1.419 . S
C325 C326 1.362 1_556 S
C326 H318 0.930 . S
C326 C325 1.362 1_554 S
C326 C329 1.409 . S
C327 H319 0.930 . S
C327 C328 1.355 . S
C327 C329 1.415 . S
C328 C327 1.355 . S
C328 C330 1.419 1_554 S
C329 C324 1.425 1_554 S
C329 C326 1.409 . S
C329 C327 1.415 . S
C330 H320 0.930 . S
C330 C328 1.419 1_556 S
C330 C331 1.362 . S
C331 H321 0.930 . S
C331 C324 1.409 . S
C331 C330 1.362 . S
H332 C338 0.930 . S
H333 C341 0.930 . S
H334 C342 0.930 1_455 S
H335 C343 0.930 1_455 S
H336 C346 0.930 . S
H337 C347 0.930 . S
C338 H332 0.930 . S
C338 C339 1.355 . S
C338 C340 1.415 . S
C339 C338 1.355 . S
C339 C341 1.419 . S
C340 C338 1.415 . S
C340 C345 1.425 . S
C340 C347 1.409 . S
C341 H333 0.930 . S
C341 C339 1.419 . S
C341 C342 1.362 . S
C342 H334 0.930 1_655 S
C342 C341 1.362 . S
C342 C345 1.409 . S
C343 H335 0.930 1_655 S
C343 C344 1.355 . S
C343 C345 1.415 . S
C344 C343 1.355 . S
C344 C346 1.419 . S
C345 C340 1.425 . S
C345 C342 1.409 . S
C345 C343 1.415 . S
C346 H336 0.930 . S
C346 C344 1.419 . S
C346 C347 1.362 . S
C347 H337 0.930 . S
C347 C340 1.409 . S
C347 C346 1.362 . S
H348 C354 0.930 . S
H349 C357 0.930 . S
H350 C358 0.930 . S
H351 C359 0.930 . S
H352 C362 0.930 . S
H353 C363 0.930 . S
C354 H348 0.930 . S
C354 C355 1.355 . S
C354 C356 1.415 . S
C355 C354 1.355 . S
C355 C357 1.419 . S
C356 C354 1.415 . S
C356 C361 1.425 . S
C356 C363 1.409 . S
C357 H349 0.930 . S
C357 C355 1.419 . S
C357 C358 1.362 . S
C358 H350 0.930 . S
C358 C357 1.362 . S
C358 C361 1.409 . S
C359 H351 0.930 . S
C359 C360 1.355 . S
C359 C361 1.415 . S
C360 C359 1.355 . S
C360 C362 1.419 . S
C361 C356 1.425 . S
C361 C358 1.409 . S
C361 C359 1.415 . S
C362 H352 0.930 . S
C362 C360 1.419 . S
C362 C363 1.362 . S
C363 H353 0.930 . S
C363 C356 1.409 . S
C363 C362 1.362 . S
H364 C370 0.930 . S
H365 C373 0.930 . S
H366 C374 0.930 . S
H367 C375 0.930 . S
H368 C378 0.930 1_455 S
H369 C379 0.920 1_455 S
C370 H364 0.930 . S
C370 C371 1.355 . S
C370 C372 1.415 . S
C371 C370 1.355 . S
C371 C373 1.419 . S
C372 C370 1.415 . S
C372 C377 1.425 . S
C372 C379 1.409 . S
C373 H365 0.930 . S
C373 C371 1.419 . S
C373 C374 1.362 . S
C374 H366 0.930 . S
C374 C373 1.362 . S
C374 C377 1.409 . S
C375 H367 0.930 . S
C375 C376 1.355 . S
C375 C377 1.415 . S
C376 C375 1.355 . S
C376 C378 1.419 . S
C377 C372 1.425 . S
C377 C374 1.409 . S
C377 C375 1.415 . S
C378 H368 0.930 1_655 S
C378 C376 1.419 . S
C378 C379 1.362 . S
C379 H369 0.920 1_655 S
C379 C372 1.409 . S
C379 C378 1.362 . S
H380 C386 0.930 . S
H381 C389 0.930 . S
H382 C390 0.930 . S
H383 C391 0.930 . S
H384 C394 0.930 . S
H385 C395 0.930 . S
C386 H380 0.930 . S
C386 C387 1.355 . S
C386 C388 1.415 . S
C387 C386 1.355 . S
C387 C389 1.419 . S
C388 C386 1.415 . S
C388 C393 1.425 . S
C388 C395 1.409 . S
C389 H381 0.930 . S
C389 C387 1.419 . S
C389 C390 1.362 . S
C390 H382 0.930 . S
C390 C389 1.362 . S
C390 C393 1.409 . S
C391 H383 0.930 . S
C391 C392 1.355 . S
C391 C393 1.415 . S
C392 C391 1.355 . S
C392 C394 1.419 . S
C393 C388 1.425 . S
C393 C390 1.409 . S
C393 C391 1.415 . S
C394 H384 0.930 . S
C394 C392 1.419 . S
C394 C395 1.362 . S
C395 H385 0.930 . S
C395 C388 1.409 . S
C395 C394 1.362 . S
H396 C402 0.930 . S
H397 C405 0.930 . S
H398 C406 0.930 . S
H399 C407 0.930 . S
H400 C410 0.930 . S
H401 C411 0.930 . S
C402 H396 0.930 . S
C402 C403 1.355 . S
C402 C404 1.415 . S
C403 C402 1.355 . S
C403 C405 1.419 . S
C404 C402 1.415 . S
C404 C409 1.425 . S
C404 C411 1.409 . S
C405 H397 0.930 . S
C405 C403 1.419 . S
C405 C406 1.362 . S
C406 H398 0.930 . S
C406 C405 1.362 . S
C406 C409 1.409 . S
C407 H399 0.930 . S
C407 C408 1.355 . S
C407 C409 1.415 . S
C408 C407 1.355 . S
C408 C410 1.419 . S
C409 C404 1.425 . S
C409 C406 1.409 . S
C409 C407 1.415 . S
C410 H400 0.930 . S
C410 C408 1.419 . S
C410 C411 1.362 . S
C411 H401 0.930 . S
C411 C404 1.409 . S
C411 C410 1.362 . S
H412 C418 0.930 . S
H413 C421 0.930 . S
H414 C422 0.930 . S
H415 C423 0.930 . S
H416 C426 0.930 . S
H417 C427 0.930 . S
C418 H412 0.930 . S
C418 C419 1.355 . S
C418 C420 1.415 . S
C419 C418 1.355 . S
C419 C421 1.419 . S
C420 C418 1.415 . S
C420 C425 1.425 . S
C420 C427 1.409 . S
C421 H413 0.930 . S
C421 C419 1.419 . S
C421 C422 1.362 . S
C422 H414 0.930 . S
C422 C421 1.362 . S
C422 C425 1.409 . S
C423 H415 0.930 . S
C423 C424 1.355 . S
C423 C425 1.415 . S
C424 C423 1.355 . S
C424 C426 1.419 . S
C425 C420 1.425 . S
C425 C422 1.409 . S
C425 C423 1.415 . S
C426 H416 0.930 . S
C426 C424 1.419 . S
C426 C427 1.362 . S
C427 H417 0.930 . S
C427 C420 1.409 . S
C427 C426 1.362 . S
H428 C434 0.930 . S
H429 C437 0.930 . S
H430 C438 0.930 . S
H431 C439 0.930 . S
H432 C442 0.930 . S
H433 C443 0.930 . S
C434 H428 0.930 . S
C434 C435 1.355 . S
C434 C436 1.415 . S
C435 C434 1.355 . S
C435 C437 1.419 1_565 S
C436 C434 1.415 . S
C436 C441 1.423 1_565 S
C436 C443 1.409 . S
C437 H429 0.930 . S
C437 C435 1.419 1_545 S
C437 C438 1.362 . S
C438 H430 0.930 . S
C438 C437 1.362 . S
C438 C441 1.410 . S
C439 H431 0.930 . S
C439 C440 1.355 1_546 S
C439 C441 1.416 . S
C440 C439 1.355 1_564 S
C440 C442 1.419 . S
C441 C436 1.423 1_545 S
C441 C438 1.410 . S
C441 C439 1.416 . S
C442 H432 0.930 . S
C442 C440 1.419 . S
C442 C443 1.362 1_554 S
C443 H433 0.930 . S
C443 C436 1.409 . S
C443 C442 1.362 1_556 S
H444 C450 0.930 . S
H445 C453 0.930 . S
H446 C454 0.930 . S
H447 C455 0.930 . S
H448 C458 0.930 . S
H449 C459 0.930 . S
C450 H444 0.930 . S
C450 C451 1.355 . S
C450 C452 1.415 . S
C451 C450 1.355 . S
C451 C453 1.419 . S
C452 C450 1.415 . S
C452 C457 1.425 . S
C452 C459 1.409 . S
C453 H445 0.930 . S
C453 C451 1.419 . S
C453 C454 1.362 . S
C454 H446 0.930 . S
C454 C453 1.362 . S
C454 C457 1.409 . S
C455 H447 0.930 . S
C455 C456 1.355 . S
C455 C457 1.415 . S
C456 C455 1.355 . S
C456 C458 1.419 . S
C457 C452 1.425 . S
C457 C454 1.409 . S
C457 C455 1.415 . S
C458 H448 0.930 . S
C458 C456 1.419 . S
C458 C459 1.362 . S
C459 H449 0.930 . S
C459 C452 1.409 . S
C459 C458 1.362 . S
H460 C466 0.930 . S
H461 C469 0.930 . S
H462 C470 0.930 . S
H463 C471 0.930 . S
H464 C474 0.930 1_556 S
H465 C475 0.930 1_556 S
C466 H460 0.930 . S
C466 C467 1.355 . S
C466 C468 1.415 . S
C467 C466 1.355 . S
C467 C469 1.419 . S
C468 C466 1.415 . S
C468 C473 1.425 . S
C468 C475 1.409 . S
C469 H461 0.930 . S
C469 C467 1.419 . S
C469 C470 1.362 . S
C470 H462 0.930 . S
C470 C469 1.362 . S
C470 C473 1.409 . S
C471 H463 0.930 . S
C471 C472 1.355 . S
C471 C473 1.415 . S
C472 C471 1.355 . S
C472 C474 1.419 . S
C473 C468 1.425 . S
C473 C470 1.409 . S
C473 C471 1.415 . S
C474 H464 0.930 1_554 S
C474 C472 1.419 . S
C474 C475 1.362 . S
C475 H465 0.930 1_554 S
C475 C468 1.409 . S
C475 C474 1.362 . S
H476 C482 0.930 . S
H477 C485 0.930 . S
H478 C486 0.930 . S
H479 C487 0.930 . S
H480 C490 0.930 . S
H481 C491 0.930 . S
C482 H476 0.930 . S
C482 C483 1.355 . S
C482 C484 1.415 . S
C483 C482 1.355 . S
C483 C485 1.419 . S
C484 C482 1.415 . S
C484 C489 1.425 . S
C484 C491 1.409 . S
C485 H477 0.930 . S
C485 C483 1.419 . S
C485 C486 1.362 . S
C486 H478 0.930 . S
C486 C485 1.362 . S
C486 C489 1.409 . S
C487 H479 0.930 . S
C487 C488 1.355 . S
C487 C489 1.415 . S
C488 C487 1.355 . S
C488 C490 1.419 . S
C489 C484 1.425 . S
C489 C486 1.409 . S
C489 C487 1.415 . S
C490 H480 0.930 . S
C490 C488 1.419 . S
C490 C491 1.362 . S
C491 H481 0.930 . S
C491 C484 1.409 . S
C491 C490 1.362 . S
H492 C498 0.930 . S
H493 C501 0.930 . S
H494 C502 0.930 . S
H495 C503 0.930 . S
H496 C506 0.930 . S
H497 C507 0.930 . S
C498 H492 0.930 . S
C498 C499 1.355 . S
C498 C500 1.415 . S
C499 C498 1.355 . S
C499 C501 1.419 . S
C500 C498 1.415 . S
C500 C505 1.425 . S
C500 C507 1.409 1_656 S
C501 H493 0.930 . S
C501 C499 1.419 . S
C501 C502 1.362 . S
C502 H494 0.930 . S
C502 C501 1.362 . S
C502 C505 1.409 . S
C503 H495 0.930 . S
C503 C504 1.355 . S
C503 C505 1.415 . S
C504 C503 1.355 . S
C504 C506 1.419 1_656 S
C505 C500 1.425 . S
C505 C502 1.409 . S
C505 C503 1.415 . S
C506 H496 0.930 . S
C506 C504 1.419 1_454 S
C506 C507 1.362 . S
C507 H497 0.930 . S
C507 C500 1.409 1_454 S
C507 C506 1.362 . S
H508 C514 0.930 . S
H509 C517 0.930 . S
H510 C518 0.930 . S
H511 C519 0.930 . S
H512 C522 0.930 . S
H513 C523 0.930 . S
C514 H508 0.930 . S
C514 C515 1.355 . S
C514 C516 1.415 . S
C515 C514 1.355 . S
C515 C517 1.419 . S
C516 C514 1.415 . S
C516 C521 1.425 . S
C516 C523 1.409 . S
C517 H509 0.930 . S
C517 C515 1.419 . S
C517 C518 1.362 . S
C518 H510 0.930 . S
C518 C517 1.362 . S
C518 C521 1.409 . S
C519 H511 0.930 . S
C519 C520 1.355 . S
C519 C521 1.415 . S
C520 C519 1.355 . S
C520 C522 1.419 . S
C521 C516 1.425 . S
C521 C518 1.409 . S
C521 C519 1.415 . S
C522 H512 0.930 . S
C522 C520 1.419 . S
C522 C523 1.362 . S
C523 H513 0.930 . S
C523 C516 1.409 . S
C523 C522 1.362 . S
H524 C530 0.930 . S
H525 C533 0.930 . S
H526 C534 0.930 . S
H527 C535 0.930 . S
H528 C538 0.930 . S
H529 C539 0.930 . S
C530 H524 0.930 . S
C530 C531 1.355 . S
C530 C532 1.415 . S
C531 C530 1.355 . S
C531 C533 1.419 . S
C532 C530 1.415 . S
C532 C537 1.425 . S
C532 C539 1.409 . S
C533 H525 0.930 . S
C533 C531 1.419 . S
C533 C534 1.362 . S
C534 H526 0.930 . S
C534 C533 1.362 . S
C534 C537 1.409 . S
C535 H527 0.930 . S
C535 C536 1.355 . S
C535 C537 1.415 . S
C536 C535 1.355 . S
C536 C538 1.419 . S
C537 C532 1.425 . S
C537 C534 1.409 . S
C537 C535 1.415 . S
C538 H528 0.930 . S
C538 C536 1.419 . S
C538 C539 1.362 . S
C539 H529 0.930 . S
C539 C532 1.409 . S
C539 C538 1.362 . S
H540 C546 0.930 . S
H541 C549 0.930 . S
H542 C550 0.930 . S
H543 C551 0.930 . S
H544 C554 0.930 . S
H545 C555 0.930 . S
C546 H540 0.930 . S
C546 C547 1.355 . S
C546 C548 1.415 . S
C547 C546 1.355 . S
C547 C549 1.419 . S
C548 C546 1.415 . S
C548 C553 1.425 . S
C548 C555 1.409 . S
C549 H541 0.930 . S
C549 C547 1.419 . S
C549 C550 1.362 . S
C550 H542 0.930 . S
C550 C549 1.362 . S
C550 C553 1.409 . S
C551 H543 0.930 . S
C551 C552 1.355 . S
C551 C553 1.415 . S
C552 C551 1.355 . S
C552 C554 1.419 . S
C553 C548 1.425 . S
C553 C550 1.409 . S
C553 C551 1.415 . S
C554 H544 0.930 . S
C554 C552 1.419 . S
C554 C555 1.362 . S
C555 H545 0.930 . S
C555 C548 1.409 . S
C555 C554 1.362 . S
C179 C5 1.714 . S
C184 C104 1.819 . S
C195 C18 1.442 . S
C200 C126 1.585 . S
C216 C145 1.062 . S
C211 C30 1.291 . S
C227 C41 1.574 . S
C232 C166 1.292 . S
C248 C123 1.961 . S
C243 C7 2.012 . S
C264 C101 1.758 . S
C259 C16 1.512 . S
C280 C168 1.383 . S
C275 C29 1.371 . S
C296 C147 1.145 . S
C291 C38 1.128 . S
C307 C8 1.792 . S
C312 C165 1.738 . S
C328 C124 1.455 . S
C323 C27 1.420 . S
C339 C40 1.606 . S
C344 C106 1.470 . S
C355 C19 1.235 . S
C360 C144 1.183 . S
C376 C102 1.638 . S
C371 C51 1.658 . S
C387 C62 1.407 . S
C392 C122 1.492 . S
C403 C74 1.411 . S
C408 C148 1.169 . S
C419 C84 1.383 . S
C424 C169 1.179 . S
C435 C49 1.815 . S
C440 C125 1.909 1_565 S
C456 C105 1.630 . S
C451 C63 1.630 . S
C472 C164 1.254 . S
C467 C71 1.016 . S
C488 C143 1.317 . S
C483 C85 1.249 . S
C499 C52 1.575 . S
C504 C167 1.569 . S
C520 C127 1.370 . S
C515 C73 1.644 . S
C536 C103 1.257 . S
C531 C82 1.050 . S
C547 C60 1.188 . S
C552 C146 1.562 . S
