# Generated by pormake.
# Topology bcu-b, (8,8)-cn, num edge types: 1
# Building blocks:
#     Node 0, Type 0, BuildingBlock: VETTIZ_charged_sbu_0, # of connection points: 8
#     Node 1, Type 1, BuildingBlock: GIZVER_clean_sbu_0, # of connection points: 8
#     Edge 2, Type (0, 1), BuildingBlock: FUNLAD_clean_linker_1, # of connection points: 2
#     Edge 3, Type (0, 1), BuildingBlock: FUNLAD_clean_linker_1, # of connection points: 2
#     Edge 4, Type (0, 1), BuildingBlock: FUNLAD_clean_linker_1, # of connection points: 2
#     Edge 5, Type (0, 1), BuildingBlock: FUNLAD_clean_linker_1, # of connection points: 2
#     Edge 6, Type (0, 1), BuildingBlock: FUNLAD_clean_linker_1, # of connection points: 2
#     Edge 7, Type (0, 1), BuildingBlock: FUNLAD_clean_linker_1, # of connection points: 2
#     Edge 8, Type (0, 1), BuildingBlock: FUNLAD_clean_linker_1, # of connection points: 2
#     Edge 9, Type (0, 1), BuildingBlock: FUNLAD_clean_linker_1, # of connection points: 2
# Relax obj value: 0.083
# Max RMSD: 0.153
# Mean RMSD: 0.139
data_MOF--net-bcu-b--node1-VETTIZ_charged_sbu_0--node2-GIZVER_clean_sbu_0--edge1-FUNLAD_clean_linker_1
_symmetry_space_group_name_H-M    P1
_symmetry_Int_Tables_number       1
_symmetry_cell_setting            triclinic
loop_
_symmetry_equiv_pos_as_xyz
'x, y, z'
_cell_length_a     21.135399
_cell_length_b     22.512825
_cell_length_c     17.777027
_cell_angle_alpha  88.917206
_cell_angle_beta   93.162739
_cell_angle_gamma 101.29531
loop_
_atom_site_label
_atom_site_type_symbol
_atom_site_fract_x
_atom_site_fract_y
_atom_site_fract_z
_atom_type_partial_charge
Fe0 Fe 0.04848 0.9075 0.02883 0.0
O1 O 0.05443 0.99583 0.02145 0.0
Fe2 Fe 1.01251 1.0289 0.92361 0.0
Fe3 Fe 0.02164 0.04552 0.09736 0.0
O4 O 0.05344 0.99477 0.01408 0.0
O5 O 0.97706 0.07648 0.99929 0.0
O6 O 0.97815 0.07764 0.00709 0.0
Fe7 Fe 0.98148 0.16432 0.98806 0.0
C8 C 0.93427 0.92329 0.12189 0.0
O9 O 0.11325 0.93247 0.11864 0.0
O10 O 0.0734 1.00499 0.18207 0.0
O11 O 0.04707 0.1756 0.90438 0.0
O12 O 0.09389 0.09546 0.91633 0.0
O13 O 0.05858 0.97496 0.85665 0.0
O14 O 0.11132 0.92103 0.94334 0.0
O15 O 0.10328 0.11245 0.09007 0.0
O16 O 0.05727 0.19237 0.06488 0.0
C17 C 0.10044 0.94083 0.87555 0.0
O18 O 0.9126 0.13478 0.9039 0.0
O19 O 0.96223 0.07057 0.83838 0.0
O20 O 0.97759 0.89407 0.10601 0.0
O21 O 0.93986 0.97997 0.11026 0.0
C22 C 0.11092 0.96576 0.17693 0.0
C23 C 0.10483 0.16934 0.08925 0.0
C24 C 0.93871 0.13697 0.14753 0.0
O25 O 0.98035 0.1024 0.16463 0.0
O26 O 0.92398 0.15424 0.07959 0.0
C27 C 0.09523 0.15032 0.89733 0.0
O28 O 0.93078 0.96164 0.92604 0.0
O29 O 0.97895 0.88286 0.94316 0.0
C30 C 0.91897 0.10419 0.84436 0.0
C31 C 0.932 0.90601 0.91727 0.0
Co32 Co 0.58572 0.41277 0.47583 0.0
Co33 Co 0.5926 0.44736 0.61196 0.0
Co34 Co 0.51543 0.53181 0.508 0.0
O35 O 0.58996 0.48925 0.52259 0.0
H36 H 0.63087 0.5164 0.51643 0.0
O37 O 0.44167 0.57475 0.49358 0.0
Co38 Co 0.44193 0.6496 0.54294 0.0
Co39 Co 0.43868 0.61865 0.4064 0.0
H40 H 0.4009 0.54688 0.49745 0.0
O41 O 0.67035 0.43628 0.65476 0.0
O42 O 0.60245 0.37388 0.57454 0.0
O43 O 0.51636 0.43468 0.66781 0.0
O44 O 0.45925 0.48116 0.58426 0.0
O45 O 0.55663 0.58886 0.58938 0.0
O46 O 0.43347 0.71581 0.59111 0.0
O47 O 0.3565 0.63538 0.55604 0.0
O48 O 0.53345 0.67291 0.53829 0.0
O49 O 0.57171 0.58312 0.43199 0.0
O50 O 0.51471 0.63242 0.35155 0.0
O51 O 0.4293 0.69191 0.44506 0.0
O52 O 0.36126 0.63091 0.36369 0.0
C53 C 0.64834 0.36969 0.42519 0.0
C54 C 0.4613 0.4162 0.44026 0.0
C55 C 0.4636 0.4487 0.64355 0.0
C56 C 0.65481 0.38546 0.61862 0.0
C57 C 0.37337 0.68769 0.58905 0.0
C58 C 0.56823 0.64633 0.58288 0.0
C59 C 0.56739 0.61768 0.37456 0.0
C60 C 0.37826 0.6821 0.39881 0.0
O61 O 0.58783 0.34466 0.42903 0.0
O62 O 0.67047 0.42247 0.45602 0.0
O63 O 0.47283 0.47327 0.42764 0.0
O64 O 0.49635 0.39319 0.48815 0.0
H65 H 0.16595 0.2594 0.10583 0.0
C66 C 0.1616 0.21179 0.12109 0.0
H67 H 0.19612 0.14973 0.19563 0.0
H68 H 0.43989 0.38657 0.21529 0.0
H69 H 0.46762 0.34988 0.0963 0.0
H70 H 0.39561 0.26452 0.03136 0.0
H71 H 0.29516 0.21541 0.08487 0.0
C72 C 0.20222 0.19616 0.17507 0.0
C73 C 0.24841 0.24443 0.21672 0.0
C74 C 0.30661 0.27293 0.18455 0.0
C75 C 0.34826 0.322 0.22229 0.0
C76 C 0.40643 0.34917 0.18912 0.0
C77 C 0.42301 0.32848 0.12091 0.0
C78 C 0.38249 0.28038 0.08435 0.0
C79 C 0.32485 0.2528 0.11546 0.0
H80 H 0.39853 0.32779 0.41844 0.0
C81 C 0.40947 0.37446 0.39838 0.0
H82 H 0.39098 0.43492 0.31134 0.0
H83 H 0.14083 0.19909 0.29421 0.0
H84 H 0.112 0.23651 0.41221 0.0
H85 H 0.18231 0.32365 0.4756 0.0
H86 H 0.28221 0.37349 0.42193 0.0
C87 C 0.37847 0.38961 0.33519 0.0
C88 C 0.33182 0.34212 0.29249 0.0
C89 C 0.27301 0.31409 0.32409 0.0
C90 C 0.23175 0.26468 0.28667 0.0
C91 C 0.17372 0.23708 0.31994 0.0
C92 C 0.15655 0.25812 0.38763 0.0
C93 C 0.19617 0.30713 0.42337 0.0
C94 C 0.25369 0.33502 0.39222 0.0
H95 H 0.92673 0.15391 0.26793 0.0
C96 C 0.91034 0.16292 0.21057 0.0
H97 H 0.85446 0.21199 0.14076 0.0
H98 H 0.72088 0.24169 0.46126 0.0
H99 H 0.69562 0.13224 0.47101 0.0
H100 H 0.7372 0.06909 0.38086 0.0
H101 H 0.80582 0.11521 0.28242 0.0
C102 C 0.86896 0.20099 0.19813 0.0
C103 C 0.84887 0.237 0.25879 0.0
C104 C 0.80682 0.20898 0.31415 0.0
C105 C 0.78019 0.24535 0.36373 0.0
C106 C 0.74061 0.21633 0.42064 0.0
C107 C 0.72592 0.15347 0.42698 0.0
C108 C 0.74951 0.11798 0.37643 0.0
C109 C 0.7892 0.14513 0.3203 0.0
H110 H 0.66585 0.2988 0.35096 0.0
C111 C 0.69 0.3363 0.38625 0.0
H112 H 0.77959 0.38484 0.42977 0.0
H113 H 0.93745 0.30465 0.16915 0.0
H114 H 0.966 0.41433 0.16309 0.0
H115 H 0.91538 0.47734 0.24432 0.0
H116 H 0.83645 0.4312 0.33248 0.0
C117 C 0.75467 0.34726 0.39522 0.0
C118 C 0.79298 0.30951 0.35528 0.0
C119 C 0.83917 0.3374 0.30423 0.0
C120 C 0.86737 0.30108 0.25628 0.0
C121 C 0.9135 0.33008 0.20577 0.0
C122 C 0.93058 0.39299 0.20194 0.0
C123 C 0.90215 0.42845 0.24775 0.0
C124 C 0.85685 0.40128 0.29822 0.0
H125 H 0.84062 0.91628 0.17482 0.0
C126 C 0.8753 0.89039 0.15664 0.0
H127 H 0.89608 0.80289 0.1452 0.0
H128 H 0.69091 0.74232 0.4149 0.0
H129 H 0.77817 0.79786 0.49488 0.0
H130 H 0.87874 0.85189 0.44084 0.0
H131 H 0.89192 0.85168 0.3061 0.0
C132 C 0.86319 0.82978 0.16547 0.0
C133 C 0.80298 0.79677 0.19866 0.0
C134 C 0.79706 0.79539 0.27781 0.0
C135 C 0.74005 0.76222 0.30925 0.0
C136 C 0.734 0.7646 0.3881 0.0
C137 C 0.78364 0.79672 0.43474 0.0
C138 C 0.84017 0.82728 0.40429 0.0
C139 C 0.84707 0.82684 0.32681 0.0
H140 H 0.67162 0.63021 0.35366 0.0
C141 C 0.62733 0.64628 0.33842 0.0
H142 H 0.58527 0.71169 0.27768 0.0
H143 H 0.79722 0.79317 0.0446 0.0
H144 H 0.70863 0.73886 0.9643 0.0
H145 H 0.61241 0.67752 0.01893 0.0
H146 H 0.60265 0.6712 0.15423 0.0
C147 C 0.62928 0.69523 0.29319 0.0
C148 C 0.69007 0.72867 0.26156 0.0
C149 C 0.69582 0.73064 0.18242 0.0
C150 C 0.75216 0.76493 0.15093 0.0
C151 C 0.75588 0.76713 0.07156 0.0
C152 C 0.70557 0.73616 0.02479 0.0
C153 C 0.65113 0.7018 0.05557 0.0
C154 C 0.64609 0.69875 0.13337 0.0
H155 H 0.18483 0.99808 0.26856 0.0
C156 C 0.15666 0.95826 0.24064 0.0
H157 H 0.14049 0.86424 0.22531 0.0
H158 H 0.40347 0.79651 0.2601 0.0
H159 H 0.39017 0.80181 0.12342 0.0
H160 H 0.30444 0.8492 0.0624 0.0
H161 H 0.23195 0.89179 0.13752 0.0
C162 C 0.16967 0.90284 0.25495 0.0
C163 C 0.23125 0.89176 0.29158 0.0
C164 C 0.27364 0.86784 0.24676 0.0
C165 C 0.32242 0.83996 0.28167 0.0
C166 C 0.36434 0.81654 0.2359 0.0
C167 C 0.35759 0.8198 0.1576 0.0
C168 C 0.30937 0.84652 0.12325 0.0
C169 C 0.26781 0.87041 0.16701 0.0
H170 H 0.29983 0.71808 0.34051 0.0
C171 C 0.34246 0.73056 0.37833 0.0
H172 H 0.4044 0.80334 0.43527 0.0
H173 H 0.16731 0.94472 0.39321 0.0
H174 H 0.19437 0.95511 0.52781 0.0
H175 H 0.28548 0.91405 0.58632 0.0
H176 H 0.34702 0.85788 0.51149 0.0
C177 C 0.36251 0.78923 0.39699 0.0
C178 C 0.32821 0.83551 0.36124 0.0
C179 C 0.29424 0.86935 0.40519 0.0
C180 C 0.2441 0.89617 0.37055 0.0
C181 C 0.20718 0.92537 0.41638 0.0
C182 C 0.22224 0.93159 0.49356 0.0
C183 C 0.27338 0.90813 0.52663 0.0
C184 C 0.3082 0.87604 0.48344 0.0
H185 H 0.14248 0.94629 0.76305 0.0
C186 C 0.1371 0.92083 0.81562 0.0
H187 H 0.15763 0.8458 0.8787 0.0
H188 H 0.2319 0.75902 0.54902 0.0
H189 H 0.12037 0.75629 0.50748 0.0
H190 H 0.04675 0.7957 0.58788 0.0
H191 H 0.08469 0.83892 0.70988 0.0
C192 C 0.16342 0.87126 0.82612 0.0
C193 C 0.20775 0.85243 0.77338 0.0
C194 C 0.18412 0.82556 0.70327 0.0
C195 C 0.22596 0.80062 0.65823 0.0
C196 C 0.20175 0.7762 0.5871 0.0
C197 C 0.13787 0.77486 0.56217 0.0
C198 C 0.09651 0.7973 0.60729 0.0
C199 C 0.11902 0.82221 0.67716 0.0
H200 H 0.27922 0.68581 0.63808 0.0
C201 C 0.32443 0.71495 0.624 0.0
H202 H 0.3808 0.80309 0.62554 0.0
H203 H 0.2692 0.90473 0.90239 0.0
H204 H 0.38039 0.90661 0.9452 0.0
H205 H 0.452 0.86009 0.86979 0.0
H206 H 0.41297 0.81157 0.75136 0.0
C207 C 0.33536 0.77433 0.63966 0.0
C208 C 0.29091 0.80152 0.68441 0.0
C209 C 0.31474 0.82966 0.75383 0.0
C210 C 0.27319 0.85537 0.79806 0.0
C211 C 0.29831 0.88345 0.86708 0.0
C212 C 0.36217 0.88512 0.89227 0.0
C213 C 0.40248 0.85904 0.84976 0.0
C214 C 0.37937 0.83153 0.78148 0.0
H215 H 0.19267 0.16106 0.85331 0.0
C216 C 0.15393 0.18476 0.86386 0.0
H217 H 0.12435 0.2693 0.86097 0.0
H218 H 0.41167 0.41922 0.86728 0.0
H219 H 0.38499 0.43137 0.99651 0.0
H220 H 0.28375 0.37389 0.04536 0.0
H221 H 0.20877 0.30348 0.96561 0.0
C222 C 0.16135 0.24428 0.84789 0.0
C223 C 0.22219 0.27885 0.81776 0.0
C224 C 0.26568 0.31952 0.86524 0.0
C225 C 0.3242 0.35247 0.83715 0.0
C226 C 0.36669 0.39286 0.88583 0.0
C227 C 0.3519 0.40039 0.96005 0.0
C228 C 0.29485 0.36807 0.98753 0.0
C229 C 0.25222 0.32783 0.94111 0.0
H230 H 0.35855 0.43425 0.65841 0.0
C231 C 0.40333 0.42178 0.68005 0.0
H232 H 0.44547 0.3653 0.75599 0.0
H233 H 0.14656 0.20889 0.70993 0.0
H234 H 0.17409 0.19489 0.58157 0.0
H235 H 0.27859 0.24699 0.53516 0.0
H236 H 0.35521 0.31469 0.61573 0.0
C237 C 0.40127 0.37816 0.73318 0.0
C238 C 0.33902 0.34489 0.76154 0.0
C239 C 0.2956 0.30388 0.71407 0.0
C240 C 0.23657 0.2717 0.74186 0.0
C241 C 0.19288 0.23305 0.69242 0.0
C242 C 0.20797 0.22473 0.61853 0.0
C243 C 0.26667 0.25427 0.59228 0.0
C244 C 0.31014 0.29336 0.63916 0.0
H245 H 0.88466 0.0926 0.72389 0.0
C246 C 0.87705 0.1125 0.77705 0.0
H247 H 0.82429 0.16686 0.83375 0.0
H248 H 0.79244 0.32433 0.54251 0.0
H249 H 0.90901 0.34381 0.53406 0.0
H250 H 0.97551 0.2832 0.60916 0.0
H251 H 0.92588 0.2028 0.69178 0.0
C252 C 0.83346 0.14857 0.78017 0.0
C253 C 0.7961 0.16768 0.71408 0.0
C254 C 0.82635 0.21374 0.66508 0.0
C255 C 0.78825 0.24913 0.62242 0.0
C256 C 0.81939 0.29628 0.57583 0.0
C257 C 0.88616 0.3079 0.57067 0.0
C258 C 0.92354 0.27376 0.61288 0.0
C259 C 0.89432 0.22758 0.66019 0.0
H260 H 0.73432 0.35014 0.67626 0.0
C261 C 0.69443 0.33924 0.63432 0.0
H262 H 0.64166 0.27182 0.56162 0.0
H263 H 0.72372 0.07466 0.78997 0.0
H264 H 0.60627 0.04933 0.78891 0.0
H265 H 0.5399 0.10954 0.71297 0.0
H266 H 0.59031 0.19547 0.63814 0.0
C267 C 0.6823 0.28437 0.60211 0.0
C268 C 0.72029 0.23803 0.62854 0.0
C269 C 0.68972 0.18649 0.66889 0.0
C270 C 0.72785 0.15173 0.71251 0.0
C271 C 0.69659 0.10254 0.75614 0.0
C272 C 0.62943 0.08746 0.75575 0.0
C273 C 0.59207 0.12133 0.71292 0.0
C274 C 0.6216 0.17054 0.67021 0.0
H275 H 0.90268 0.83453 0.83369 0.0
C276 C 0.88528 0.86918 0.86389 0.0
H277 H 0.8061 0.91019 0.8814 0.0
H278 H 0.64026 0.83752 0.58193 0.0
H279 H 0.65572 0.94679 0.58047 0.0
H280 H 0.73034 1.00777 0.67357 0.0
H281 H 0.78709 0.95989 0.77178 0.0
C282 C 0.8236 0.87537 0.8517 0.0
C283 C 0.77963 0.83774 0.79396 0.0
C284 C 0.74761 0.86665 0.73585 0.0
C285 C 0.70727 0.83147 0.67928 0.0
C286 C 0.67327 0.86165 0.62466 0.0
C287 C 0.68145 0.92454 0.62327 0.0
C288 C 0.72313 0.9589 0.67607 0.0
C289 C 0.75553 0.93064 0.73213 0.0
H290 H 0.61059 0.6667 0.69717 0.0
C291 C 0.61297 0.68212 0.63892 0.0
H292 H 0.65957 0.74496 0.56133 0.0
H293 H 0.82039 0.76462 0.90487 0.0
H294 H 0.81921 0.65727 0.89563 0.0
H295 H 0.77176 0.60053 0.78197 0.0
H296 H 0.72173 0.65031 0.67947 0.0
C297 C 0.65732 0.73074 0.62004 0.0
C298 C 0.70186 0.76755 0.678 0.0
C299 C 0.73787 0.73929 0.73297 0.0
C300 C 0.77235 0.77353 0.79397 0.0
C301 C 0.79895 0.74213 0.85381 0.0
C302 C 0.79789 0.68025 0.8497 0.0
C303 C 0.77069 0.64824 0.7861 0.0
C304 C 0.74119 0.67721 0.72816 0.0
loop_
_geom_bond_atom_site_label_1
_geom_bond_atom_site_label_2
_geom_bond_distance
_geom_bond_site_symmetry_2
_ccdc_geom_bond_type
Fe0 O1 1.886 . S
Fe0 O4 1.715 1_554 S
Fe0 O9 2.077 1_655 S
Fe0 O14 1.935 1_654 S
Fe0 O20 2.077 . S
Fe0 O29 1.935 1_554 S
O1 Fe0 1.886 . S
O1 Fe3 1.715 1_655 S
Fe2 O4 1.886 1_545 S
Fe2 O5 1.715 1_655 S
Fe2 O12 1.935 1_655 S
Fe2 O13 2.077 1_645 S
Fe2 O19 1.935 . S
Fe2 O28 2.077 1_545 S
Fe3 O1 1.715 1_455 S
Fe3 O6 1.886 1_565 S
Fe3 O10 1.935 . S
Fe3 O15 2.077 1_565 S
Fe3 O21 1.935 1_455 S
Fe3 O25 2.077 1_465 S
O4 Fe0 1.715 1_556 S
O4 Fe2 1.886 1_565 S
O5 Fe2 1.715 1_455 S
O5 Fe7 1.886 . S
O6 Fe3 1.886 1_545 S
O6 Fe7 1.715 1_554 S
Fe7 O5 1.886 . S
Fe7 O6 1.715 1_556 S
Fe7 O11 2.077 . S
Fe7 O16 1.935 1_556 S
Fe7 O18 2.077 1_455 S
Fe7 O26 1.935 1_456 S
C8 O20 1.381 . S
C8 O21 1.421 . S
O9 Fe0 2.077 1_455 S
O9 C22 1.381 . S
O10 Fe3 1.935 . S
O10 C22 1.421 . S
O11 Fe7 2.077 . S
O11 C27 1.381 . S
O12 Fe2 1.935 1_455 S
O12 C27 1.421 . S
O13 Fe2 2.077 1_465 S
O13 C17 1.381 . S
O14 Fe0 1.935 1_456 S
O14 C17 1.421 . S
O15 Fe3 2.077 1_545 S
O15 C23 1.381 . S
O16 Fe7 1.935 1_554 S
O16 C23 1.421 . S
C17 O13 1.381 . S
C17 O14 1.421 . S
O18 Fe7 2.077 1_655 S
O18 C30 1.381 . S
O19 Fe2 1.935 . S
O19 C30 1.421 . S
O20 Fe0 2.077 . S
O20 C8 1.381 . S
O21 Fe3 1.935 1_655 S
O21 C8 1.421 . S
C22 O9 1.381 . S
C22 O10 1.421 . S
C23 O15 1.381 . S
C23 O16 1.421 . S
C24 O25 1.381 . S
C24 O26 1.421 . S
O25 Fe3 2.077 1_645 S
O25 C24 1.381 . S
O26 Fe7 1.935 1_654 S
O26 C24 1.421 . S
C27 O11 1.381 . S
C27 O12 1.421 . S
O28 Fe2 2.077 1_565 S
O28 C31 1.381 . S
O29 Fe0 1.935 1_556 S
O29 C31 1.421 . S
C30 O18 1.381 . S
C30 O19 1.421 . S
C31 O28 1.381 . S
C31 O29 1.421 . S
Co32 O35 2.042 . S
Co32 O42 2.264 . S
Co32 O61 2.286 . S
Co32 O62 2.069 . S
Co32 O64 2.015 . S
Co33 O35 2.122 . S
Co33 O41 2.073 . S
Co33 O42 2.327 . S
Co33 O43 1.976 . S
Co34 O35 2.087 . S
Co34 O37 2.087 . S
Co34 O44 2.111 . S
Co34 O45 2.143 . S
Co34 O49 2.111 . S
Co34 O63 2.143 . S
O35 Co32 2.042 . S
O35 Co33 2.122 . S
O35 Co34 2.087 . S
O35 H36 0.980 . S
H36 O35 0.980 . S
O37 Co34 2.087 . S
O37 Co38 2.042 . S
O37 Co39 2.122 . S
O37 H40 0.980 . S
Co38 O37 2.042 . S
Co38 O46 2.286 . S
Co38 O47 2.069 . S
Co38 O48 2.015 . S
Co38 O51 2.264 . S
Co39 O37 2.122 . S
Co39 O50 1.976 . S
Co39 O51 2.327 . S
Co39 O52 2.073 . S
H40 O37 0.980 . S
O41 Co33 2.073 . S
O41 C56 1.245 . S
O42 Co32 2.264 . S
O42 Co33 2.327 . S
O42 C56 1.257 . S
O43 Co33 1.976 . S
O43 C55 1.251 . S
O44 Co34 2.111 . S
O44 C55 1.274 . S
O45 Co34 2.143 . S
O45 C58 1.246 . S
O46 Co38 2.286 . S
O46 C57 1.259 . S
O47 Co38 2.069 . S
O47 C57 1.289 . S
O48 Co38 2.015 . S
O48 C58 1.257 . S
O49 Co34 2.111 . S
O49 C59 1.274 . S
O50 Co39 1.976 . S
O50 C59 1.251 . S
O51 Co38 2.264 . S
O51 Co39 2.327 . S
O51 C60 1.257 . S
O52 Co39 2.073 . S
O52 C60 1.245 . S
C53 O61 1.259 . S
C53 O62 1.289 . S
C54 O63 1.246 . S
C54 O64 1.257 . S
C55 O43 1.251 . S
C55 O44 1.274 . S
C56 O41 1.245 . S
C56 O42 1.257 . S
C57 O46 1.259 . S
C57 O47 1.289 . S
C58 O45 1.246 . S
C58 O48 1.257 . S
C59 O49 1.274 . S
C59 O50 1.251 . S
C60 O51 1.257 . S
C60 O52 1.245 . S
O61 Co32 2.286 . S
O61 C53 1.259 . S
O62 Co32 2.069 . S
O62 C53 1.289 . S
O63 Co34 2.143 . S
O63 C54 1.246 . S
O64 Co32 2.015 . S
O64 C54 1.257 . S
H65 C66 0.951 . S
C66 H65 0.951 . S
C66 C72 1.265 . S
H67 C72 0.950 . S
H68 C76 0.949 . S
H69 C77 0.950 . S
H70 C78 0.951 . S
H71 C79 0.951 . S
C72 C66 1.265 . S
C72 H67 0.950 . S
C72 C73 1.478 . S
C73 C72 1.478 . S
C73 C74 1.397 . S
C73 C90 1.394 . S
C74 C73 1.397 . S
C74 C75 1.438 . S
C74 C79 1.429 . S
C75 C74 1.438 . S
C75 C76 1.428 . S
C75 C88 1.394 . S
C76 H68 0.949 . S
C76 C75 1.428 . S
C76 C77 1.345 . S
C77 H69 0.950 . S
C77 C76 1.345 . S
C77 C78 1.424 . S
C78 H70 0.951 . S
C78 C77 1.424 . S
C78 C79 1.347 . S
C79 H71 0.951 . S
C79 C74 1.429 . S
C79 C78 1.347 . S
H80 C81 0.951 . S
C81 H80 0.951 . S
C81 C87 1.265 . S
H82 C87 0.950 . S
H83 C91 0.949 . S
H84 C92 0.950 . S
H85 C93 0.951 . S
H86 C94 0.951 . S
C87 C81 1.265 . S
C87 H82 0.950 . S
C87 C88 1.478 . S
C88 C75 1.394 . S
C88 C87 1.478 . S
C88 C89 1.397 . S
C89 C88 1.397 . S
C89 C90 1.438 . S
C89 C94 1.429 . S
C90 C73 1.394 . S
C90 C89 1.438 . S
C90 C91 1.428 . S
C91 H83 0.949 . S
C91 C90 1.428 . S
C91 C92 1.345 . S
C92 H84 0.950 . S
C92 C91 1.345 . S
C92 C93 1.424 . S
C93 H85 0.951 . S
C93 C92 1.424 . S
C93 C94 1.347 . S
C94 H86 0.951 . S
C94 C89 1.429 . S
C94 C93 1.347 . S
H95 C96 0.951 . S
C96 H95 0.951 . S
C96 C102 1.265 . S
H97 C102 0.950 . S
H98 C106 0.949 . S
H99 C107 0.950 . S
H100 C108 0.951 . S
H101 C109 0.951 . S
C102 C96 1.265 . S
C102 H97 0.950 . S
C102 C103 1.478 . S
C103 C102 1.478 . S
C103 C104 1.397 . S
C103 C120 1.394 . S
C104 C103 1.397 . S
C104 C105 1.438 . S
C104 C109 1.429 . S
C105 C104 1.438 . S
C105 C106 1.428 . S
C105 C118 1.394 . S
C106 H98 0.949 . S
C106 C105 1.428 . S
C106 C107 1.345 . S
C107 H99 0.950 . S
C107 C106 1.345 . S
C107 C108 1.424 . S
C108 H100 0.951 . S
C108 C107 1.424 . S
C108 C109 1.347 . S
C109 H101 0.951 . S
C109 C104 1.429 . S
C109 C108 1.347 . S
H110 C111 0.951 . S
C111 H110 0.951 . S
C111 C117 1.265 . S
H112 C117 0.950 . S
H113 C121 0.949 . S
H114 C122 0.950 . S
H115 C123 0.951 . S
H116 C124 0.951 . S
C117 C111 1.265 . S
C117 H112 0.950 . S
C117 C118 1.478 . S
C118 C105 1.394 . S
C118 C117 1.478 . S
C118 C119 1.397 . S
C119 C118 1.397 . S
C119 C120 1.438 . S
C119 C124 1.429 . S
C120 C103 1.394 . S
C120 C119 1.438 . S
C120 C121 1.428 . S
C121 H113 0.949 . S
C121 C120 1.428 . S
C121 C122 1.345 . S
C122 H114 0.950 . S
C122 C121 1.345 . S
C122 C123 1.424 . S
C123 H115 0.951 . S
C123 C122 1.424 . S
C123 C124 1.347 . S
C124 H116 0.951 . S
C124 C119 1.429 . S
C124 C123 1.347 . S
H125 C126 0.951 . S
C126 H125 0.951 . S
C126 C132 1.265 . S
H127 C132 0.950 . S
H128 C136 0.949 . S
H129 C137 0.950 . S
H130 C138 0.951 . S
H131 C139 0.951 . S
C132 C126 1.265 . S
C132 H127 0.950 . S
C132 C133 1.478 . S
C133 C132 1.478 . S
C133 C134 1.397 . S
C133 C150 1.394 . S
C134 C133 1.397 . S
C134 C135 1.438 . S
C134 C139 1.429 . S
C135 C134 1.438 . S
C135 C136 1.428 . S
C135 C148 1.394 . S
C136 H128 0.949 . S
C136 C135 1.428 . S
C136 C137 1.345 . S
C137 H129 0.950 . S
C137 C136 1.345 . S
C137 C138 1.424 . S
C138 H130 0.951 . S
C138 C137 1.424 . S
C138 C139 1.347 . S
C139 H131 0.951 . S
C139 C134 1.429 . S
C139 C138 1.347 . S
H140 C141 0.951 . S
C141 H140 0.951 . S
C141 C147 1.265 . S
H142 C147 0.950 . S
H143 C151 0.949 . S
H144 C152 0.950 . S
H145 C153 0.951 . S
H146 C154 0.951 . S
C147 C141 1.265 . S
C147 H142 0.950 . S
C147 C148 1.478 . S
C148 C135 1.394 . S
C148 C147 1.478 . S
C148 C149 1.397 . S
C149 C148 1.397 . S
C149 C150 1.438 . S
C149 C154 1.429 . S
C150 C133 1.394 . S
C150 C149 1.438 . S
C150 C151 1.428 . S
C151 H143 0.949 . S
C151 C150 1.428 . S
C151 C152 1.345 . S
C152 H144 0.950 . S
C152 C151 1.345 . S
C152 C153 1.424 . S
C153 H145 0.951 . S
C153 C152 1.424 . S
C153 C154 1.347 . S
C154 H146 0.951 . S
C154 C149 1.429 . S
C154 C153 1.347 . S
H155 C156 0.951 . S
C156 H155 0.951 . S
C156 C162 1.265 . S
H157 C162 0.950 . S
H158 C166 0.949 . S
H159 C167 0.950 . S
H160 C168 0.951 . S
H161 C169 0.951 . S
C162 C156 1.265 . S
C162 H157 0.950 . S
C162 C163 1.478 . S
C163 C162 1.478 . S
C163 C164 1.397 . S
C163 C180 1.394 . S
C164 C163 1.397 . S
C164 C165 1.438 . S
C164 C169 1.429 . S
C165 C164 1.438 . S
C165 C166 1.428 . S
C165 C178 1.394 . S
C166 H158 0.949 . S
C166 C165 1.428 . S
C166 C167 1.345 . S
C167 H159 0.950 . S
C167 C166 1.345 . S
C167 C168 1.424 . S
C168 H160 0.951 . S
C168 C167 1.424 . S
C168 C169 1.347 . S
C169 H161 0.951 . S
C169 C164 1.429 . S
C169 C168 1.347 . S
H170 C171 0.951 . S
C171 H170 0.951 . S
C171 C177 1.265 . S
H172 C177 0.950 . S
H173 C181 0.949 . S
H174 C182 0.950 . S
H175 C183 0.951 . S
H176 C184 0.951 . S
C177 C171 1.265 . S
C177 H172 0.950 . S
C177 C178 1.478 . S
C178 C165 1.394 . S
C178 C177 1.478 . S
C178 C179 1.397 . S
C179 C178 1.397 . S
C179 C180 1.438 . S
C179 C184 1.429 . S
C180 C163 1.394 . S
C180 C179 1.438 . S
C180 C181 1.428 . S
C181 H173 0.949 . S
C181 C180 1.428 . S
C181 C182 1.345 . S
C182 H174 0.950 . S
C182 C181 1.345 . S
C182 C183 1.424 . S
C183 H175 0.951 . S
C183 C182 1.424 . S
C183 C184 1.347 . S
C184 H176 0.951 . S
C184 C179 1.429 . S
C184 C183 1.347 . S
H185 C186 0.951 . S
C186 H185 0.951 . S
C186 C192 1.265 . S
H187 C192 0.950 . S
H188 C196 0.949 . S
H189 C197 0.950 . S
H190 C198 0.951 . S
H191 C199 0.951 . S
C192 C186 1.265 . S
C192 H187 0.950 . S
C192 C193 1.478 . S
C193 C192 1.478 . S
C193 C194 1.397 . S
C193 C210 1.394 . S
C194 C193 1.397 . S
C194 C195 1.438 . S
C194 C199 1.429 . S
C195 C194 1.438 . S
C195 C196 1.428 . S
C195 C208 1.394 . S
C196 H188 0.949 . S
C196 C195 1.428 . S
C196 C197 1.345 . S
C197 H189 0.950 . S
C197 C196 1.345 . S
C197 C198 1.424 . S
C198 H190 0.951 . S
C198 C197 1.424 . S
C198 C199 1.347 . S
C199 H191 0.951 . S
C199 C194 1.429 . S
C199 C198 1.347 . S
H200 C201 0.951 . S
C201 H200 0.951 . S
C201 C207 1.265 . S
H202 C207 0.950 . S
H203 C211 0.949 . S
H204 C212 0.950 . S
H205 C213 0.951 . S
H206 C214 0.951 . S
C207 C201 1.265 . S
C207 H202 0.950 . S
C207 C208 1.478 . S
C208 C195 1.394 . S
C208 C207 1.478 . S
C208 C209 1.397 . S
C209 C208 1.397 . S
C209 C210 1.438 . S
C209 C214 1.429 . S
C210 C193 1.394 . S
C210 C209 1.438 . S
C210 C211 1.428 . S
C211 H203 0.949 . S
C211 C210 1.428 . S
C211 C212 1.345 . S
C212 H204 0.950 . S
C212 C211 1.345 . S
C212 C213 1.424 . S
C213 H205 0.951 . S
C213 C212 1.424 . S
C213 C214 1.347 . S
C214 H206 0.951 . S
C214 C209 1.429 . S
C214 C213 1.347 . S
H215 C216 0.951 . S
C216 H215 0.951 . S
C216 C222 1.265 . S
H217 C222 0.950 . S
H218 C226 0.949 . S
H219 C227 0.950 . S
H220 C228 0.951 . S
H221 C229 0.951 . S
C222 C216 1.265 . S
C222 H217 0.950 . S
C222 C223 1.478 . S
C223 C222 1.478 . S
C223 C224 1.397 . S
C223 C240 1.394 . S
C224 C223 1.397 . S
C224 C225 1.438 . S
C224 C229 1.429 . S
C225 C224 1.438 . S
C225 C226 1.428 . S
C225 C238 1.394 . S
C226 H218 0.949 . S
C226 C225 1.428 . S
C226 C227 1.345 . S
C227 H219 0.950 . S
C227 C226 1.345 . S
C227 C228 1.424 . S
C228 H220 0.951 . S
C228 C227 1.424 . S
C228 C229 1.347 . S
C229 H221 0.951 . S
C229 C224 1.429 . S
C229 C228 1.347 . S
H230 C231 0.951 . S
C231 H230 0.951 . S
C231 C237 1.265 . S
H232 C237 0.950 . S
H233 C241 0.949 . S
H234 C242 0.950 . S
H235 C243 0.951 . S
H236 C244 0.951 . S
C237 C231 1.265 . S
C237 H232 0.950 . S
C237 C238 1.478 . S
C238 C225 1.394 . S
C238 C237 1.478 . S
C238 C239 1.397 . S
C239 C238 1.397 . S
C239 C240 1.438 . S
C239 C244 1.429 . S
C240 C223 1.394 . S
C240 C239 1.438 . S
C240 C241 1.428 . S
C241 H233 0.949 . S
C241 C240 1.428 . S
C241 C242 1.345 . S
C242 H234 0.950 . S
C242 C241 1.345 . S
C242 C243 1.424 . S
C243 H235 0.951 . S
C243 C242 1.424 . S
C243 C244 1.347 . S
C244 H236 0.951 . S
C244 C239 1.429 . S
C244 C243 1.347 . S
H245 C246 0.951 . S
C246 H245 0.951 . S
C246 C252 1.265 . S
H247 C252 0.950 . S
H248 C256 0.949 . S
H249 C257 0.950 . S
H250 C258 0.951 . S
H251 C259 0.951 . S
C252 C246 1.265 . S
C252 H247 0.950 . S
C252 C253 1.478 . S
C253 C252 1.478 . S
C253 C254 1.397 . S
C253 C270 1.394 . S
C254 C253 1.397 . S
C254 C255 1.438 . S
C254 C259 1.429 . S
C255 C254 1.438 . S
C255 C256 1.428 . S
C255 C268 1.394 . S
C256 H248 0.949 . S
C256 C255 1.428 . S
C256 C257 1.345 . S
C257 H249 0.950 . S
C257 C256 1.345 . S
C257 C258 1.424 . S
C258 H250 0.951 . S
C258 C257 1.424 . S
C258 C259 1.347 . S
C259 H251 0.951 . S
C259 C254 1.429 . S
C259 C258 1.347 . S
H260 C261 0.951 . S
C261 H260 0.951 . S
C261 C267 1.265 . S
H262 C267 0.950 . S
H263 C271 0.949 . S
H264 C272 0.950 . S
H265 C273 0.951 . S
H266 C274 0.951 . S
C267 C261 1.265 . S
C267 H262 0.950 . S
C267 C268 1.478 . S
C268 C255 1.394 . S
C268 C267 1.478 . S
C268 C269 1.397 . S
C269 C268 1.397 . S
C269 C270 1.438 . S
C269 C274 1.429 . S
C270 C253 1.394 . S
C270 C269 1.438 . S
C270 C271 1.428 . S
C271 H263 0.949 . S
C271 C270 1.428 . S
C271 C272 1.345 . S
C272 H264 0.950 . S
C272 C271 1.345 . S
C272 C273 1.424 . S
C273 H265 0.951 . S
C273 C272 1.424 . S
C273 C274 1.347 . S
C274 H266 0.951 . S
C274 C269 1.429 . S
C274 C273 1.347 . S
H275 C276 0.951 . S
C276 H275 0.951 . S
C276 C282 1.265 . S
H277 C282 0.950 . S
H278 C286 0.949 . S
H279 C287 0.950 . S
H280 C288 0.951 . S
H281 C289 0.951 . S
C282 C276 1.265 . S
C282 H277 0.950 . S
C282 C283 1.478 . S
C283 C282 1.478 . S
C283 C284 1.397 . S
C283 C300 1.394 . S
C284 C283 1.397 . S
C284 C285 1.438 . S
C284 C289 1.429 . S
C285 C284 1.438 . S
C285 C286 1.428 . S
C285 C298 1.394 . S
C286 H278 0.949 . S
C286 C285 1.428 . S
C286 C287 1.345 . S
C287 H279 0.950 . S
C287 C286 1.345 . S
C287 C288 1.424 . S
C288 H280 0.951 . S
C288 C287 1.424 . S
C288 C289 1.347 . S
C289 H281 0.951 . S
C289 C284 1.429 . S
C289 C288 1.347 . S
H290 C291 0.951 . S
C291 H290 0.951 . S
C291 C297 1.265 . S
H292 C297 0.950 . S
H293 C301 0.949 . S
H294 C302 0.950 . S
H295 C303 0.951 . S
H296 C304 0.951 . S
C297 C291 1.265 . S
C297 H292 0.950 . S
C297 C298 1.478 . S
C298 C285 1.394 . S
C298 C297 1.478 . S
C298 C299 1.397 . S
C299 C298 1.397 . S
C299 C300 1.438 . S
C299 C304 1.429 . S
C300 C283 1.394 . S
C300 C299 1.438 . S
C300 C301 1.428 . S
C301 H293 0.949 . S
C301 C300 1.428 . S
C301 C302 1.345 . S
C302 H294 0.950 . S
C302 C301 1.345 . S
C302 C303 1.424 . S
C303 H295 0.951 . S
C303 C302 1.424 . S
C303 C304 1.347 . S
C304 H296 0.951 . S
C304 C299 1.429 . S
C304 C303 1.347 . S
C66 C23 1.413 . S
C81 C54 1.421 . S
C96 C24 1.575 . S
C111 C53 1.598 . S
C126 C8 1.483 . S
C141 C59 1.437 . S
C156 C22 1.490 . S
C171 C60 1.431 . S
C186 C17 1.627 . S
C201 C57 1.639 . S
C231 C55 1.414 . S
C216 C27 1.474 . S
C246 C30 1.492 . S
C261 C56 1.436 . S
C291 C58 1.396 . S
C276 C31 1.397 . S
