# Generated by pormake.
# Topology scu, (8,4)-cn, num edge types: 1
# Building blocks:
#     Node 0, Type 0, BuildingBlock: VETTIZ_charged_sbu_0, # of connection points: 8
#     Node 1, Type 1, BuildingBlock: KOZSID_clean_sbu_0, # of connection points: 4
#     Node 2, Type 1, BuildingBlock: KOZSID_clean_sbu_0, # of connection points: 4
#     Edge 3, Type (0, 1), BuildingBlock: XUDNAN_clean_linker_2, # of connection points: 2
#     Edge 4, Type (0, 1), BuildingBlock: XUDNAN_clean_linker_2, # of connection points: 2
#     Edge 5, Type (0, 1), BuildingBlock: XUDNAN_clean_linker_2, # of connection points: 2
#     Edge 6, Type (0, 1), BuildingBlock: XUDNAN_clean_linker_2, # of connection points: 2
#     Edge 7, Type (0, 1), BuildingBlock: XUDNAN_clean_linker_2, # of connection points: 2
#     Edge 8, Type (0, 1), BuildingBlock: XUDNAN_clean_linker_2, # of connection points: 2
#     Edge 9, Type (0, 1), BuildingBlock: XUDNAN_clean_linker_2, # of connection points: 2
#     Edge 10, Type (0, 1), BuildingBlock: XUDNAN_clean_linker_2, # of connection points: 2
# Relax obj value: 0.002
# Max RMSD: 0.028
# Mean RMSD: 0.015
data_MOF--net-scu--node1-VETTIZ_charged_sbu_0--node2-KOZSID_clean_sbu_0--edge1-XUDNAN_clean_linker_2
_symmetry_space_group_name_H-M    P1
_symmetry_Int_Tables_number       1
_symmetry_cell_setting            triclinic
loop_
_symmetry_equiv_pos_as_xyz
'x, y, z'
_cell_length_a     28.667243
_cell_length_b     28.67541
_cell_length_c     20.477002
_cell_angle_alpha  86.650888
_cell_angle_beta   86.702647
_cell_angle_gamma 91.723495
loop_
_atom_site_label
_atom_site_type_symbol
_atom_site_fract_x
_atom_site_fract_y
_atom_site_fract_z
_atom_type_partial_charge
Fe0 Fe 0.99287 0.98838 0.16352 0.0
O1 O 0.98591 0.98824 0.06834 0.0
Fe2 Fe 0.04623 0.96833 0.01111 0.0
Fe3 Fe 0.96984 0.04599 0.01515 0.0
O4 O 0.99019 0.98415 0.06814 0.0
O5 O 0.02588 0.02269 0.95493 0.0
O6 O 0.0221 0.02607 0.95504 0.0
Fe7 Fe 0.01628 0.02038 0.86057 0.0
C8 C 0.8988 0.0286 0.13589 0.0
O9 O 0.99485 0.06039 0.16577 0.0
O10 O 0.01578 0.08698 0.06385 0.0
O11 O 0.08653 0.01491 0.85781 0.0
O12 O 0.10445 0.96218 0.94135 0.0
O13 O 0.08986 0.01171 0.06021 0.0
O14 O 0.06506 0.98863 0.16218 0.0
O15 O 0.96383 0.10641 0.94921 0.0
O16 O 0.01541 0.0907 0.86307 0.0
C17 C 0.09702 0.0054 0.12097 0.0
O18 O 0.01259 0.9486 0.86028 0.0
O19 O 0.00568 0.92137 0.96444 0.0
O20 O 0.92126 0.99466 0.16328 0.0
O21 O 0.91535 0.0565 0.08661 0.0
C22 C 0.01096 0.09297 0.12506 0.0
C23 C 0.99103 0.11902 0.89697 0.0
C24 C 0.91277 0.01049 0.90818 0.0
O25 O 0.92045 0.00762 0.9688 0.0
O26 O 0.9448 0.02231 0.86455 0.0
C27 C 0.11554 0.9892 0.88842 0.0
O28 O 0.05678 0.91135 0.07872 0.0
O29 O 0.99738 0.91705 0.15898 0.0
C30 C 1.0035 0.91554 0.90359 0.0
C31 C 0.02956 0.89409 0.12842 0.0
C32 C 0.062 0.57293 0.4119 0.0
C33 C 0.10753 0.58893 0.39472 0.0
C34 C 0.13552 0.56656 0.43719 0.0
C35 C 0.10569 0.53848 0.47797 0.0
N36 N 0.06023 0.54127 0.46401 0.0
Co37 Co 1.00523 0.50709 0.51242 0.0
N38 N 0.04637 0.47592 0.57626 0.0
C39 C 0.09315 0.48226 0.57887 0.0
C40 C 0.11096 0.45997 0.63246 0.0
C41 C 0.07345 0.43717 0.66529 0.0
C42 C 0.0349 0.44613 0.62889 0.0
N43 N 0.95035 0.47265 0.56117 0.0
C44 C 0.94912 0.43783 0.60944 0.0
C45 C 0.90382 0.42045 0.62461 0.0
C46 C 0.87548 0.44542 0.58542 0.0
C47 C 0.90484 0.47615 0.548 0.0
N48 N 0.96404 0.5386 0.44856 0.0
C49 C 0.91707 0.5332 0.4475 0.0
C50 C 0.89824 0.55955 0.39825 0.0
C51 C 0.93534 0.58356 0.36612 0.0
C52 C 0.97482 0.57058 0.39801 0.0
N53 N 0.01262 0.45402 0.45396 0.0
C54 C 0.02297 0.37976 0.36937 0.0
C55 C 0.9788 0.39535 0.38832 0.0
C56 C 0.97448 0.43245 0.42966 0.0
C57 C 0.06187 0.40167 0.39409 0.0
C58 C 0.05594 0.43794 0.43664 0.0
N59 N 0.99788 0.56013 0.57101 0.0
C60 C 0.94947 0.6148 0.62797 0.0
C61 C 0.98793 0.63197 0.65904 0.0
C62 C 0.03143 0.61369 0.64426 0.0
C63 C 0.03571 0.57867 0.59988 0.0
C64 C 0.95513 0.57886 0.58471 0.0
H65 H 0.07008 0.56717 0.59011 0.0
H66 H 0.92438 0.56661 0.56333 0.0
H67 H 0.93986 0.44317 0.44106 0.0
H68 H 0.08691 0.4524 0.45501 0.0
C69 C 0.1191 0.51075 0.53156 0.0
C70 C 0.02156 0.59026 0.37893 0.0
C71 C 0.99021 0.41993 0.64069 0.0
C72 C 0.89151 0.50437 0.49483 0.0
H73 H 0.11939 0.61474 0.35624 0.0
H74 H 0.17303 0.57099 0.43901 0.0
H75 H 0.14694 0.46004 0.64583 0.0
H76 H 0.0746 0.41462 0.70942 0.0
H77 H 0.89204 0.39195 0.65887 0.0
H78 H 0.83812 0.44023 0.58238 0.0
H79 H 0.86178 0.56153 0.38752 0.0
H80 H 0.93352 0.60821 0.32433 0.0
H81 H 0.94762 0.37961 0.37016 0.0
H82 H 0.0968 0.3904 0.38142 0.0
H83 H 0.91508 0.62829 0.63809 0.0
H84 H 0.06222 0.62653 0.66683 0.0
C85 C 0.43238 0.94072 0.59269 0.0
C86 C 0.41691 0.89486 0.60807 0.0
C87 C 0.44925 0.86698 0.57955 0.0
C88 C 0.4822 0.89717 0.54761 0.0
N89 N 0.47261 0.94238 0.55393 0.0
Co90 Co 0.50852 0.99737 0.50969 0.0
N91 N 0.54332 0.95763 0.44765 0.0
C92 C 0.54483 0.91064 0.45365 0.0
C93 C 0.57373 0.89233 0.40675 0.0
C94 C 0.59257 0.93009 0.36939 0.0
C95 C 0.57392 0.96959 0.39553 0.0
N96 N 0.54385 0.05262 0.46578 0.0
C97 C 0.57092 0.05669 0.40905 0.0
C98 C 0.5861 0.1028 0.39434 0.0
C99 C 0.57023 0.1279 0.44529 0.0
C100 C 0.5456 0.09609 0.48753 0.0
N101 N 0.47473 0.037 0.57188 0.0
C102 C 0.48776 0.08061 0.58593 0.0
C103 C 0.46053 0.09774 0.63571 0.0
C104 C 0.42824 0.0627 0.65429 0.0
C105 C 0.43726 0.02634 0.61385 0.0
N106 N 0.55765 0.98931 0.57248 0.0
C107 C 0.62766 0.98279 0.66366 0.0
C108 C 0.63912 0.98919 0.59605 0.0
C109 C 0.60386 0.99273 0.55177 0.0
C110 C 0.58006 0.9785 0.68412 0.0
C111 C 0.54588 0.98128 0.63801 0.0
N112 N 0.45888 0.00541 0.44756 0.0
C113 C 0.40622 0.05497 0.38964 0.0
C114 C 0.38597 0.01629 0.36178 0.0
C115 C 0.40319 0.97211 0.37765 0.0
C116 C 0.43983 0.9675 0.41981 0.0
C117 C 0.44212 0.04874 0.43281 0.0
H118 H 0.45246 0.93308 0.43015 0.0
H119 H 0.456 0.07908 0.45458 0.0
H120 H 0.61429 0.99848 0.50081 0.0
H121 H 0.50982 0.97761 0.65586 0.0
C122 C 0.51675 0.88478 0.50161 0.0
C123 C 0.40994 0.98204 0.61766 0.0
C124 C 0.5915 0.01743 0.37586 0.0
C125 C 0.52087 0.1065 0.54523 0.0
H126 H 0.38537 0.88241 0.6358 0.0
H127 H 0.44746 0.82925 0.57905 0.0
H128 H 0.58064 0.85588 0.40074 0.0
H129 H 0.61841 0.92854 0.32908 0.0
H130 H 0.60885 0.11622 0.35303 0.0
H131 H 0.57612 0.16487 0.45095 0.0
H132 H 0.46291 0.13209 0.65482 0.0
H133 H 0.401 0.06388 0.69296 0.0
H134 H 0.67514 0.99141 0.57687 0.0
H135 H 0.56888 0.974 0.73554 0.0
H136 H 0.39377 0.08974 0.37919 0.0
H137 H 0.38886 0.94128 0.35686 0.0
H138 H 0.97318 0.12685 0.23764 0.0
H139 H 0.06815 0.16568 0.06935 0.0
H140 H 0.08255 0.24321 0.11378 0.0
H141 H 0.92156 0.23898 0.24747 0.0
H142 H 0.91539 0.23502 0.33574 0.0
H143 H 0.91408 0.18264 0.29134 0.0
H144 H 0.98169 0.15022 0.35729 0.0
H145 H 0.98329 0.20249 0.40187 0.0
H146 H 0.03549 0.1843 0.35846 0.0
H147 H 0.0884 0.31601 0.18055 0.0
H148 H 0.08043 0.37913 0.25775 0.0
H149 H 0.9778 0.29347 0.37805 0.0
C150 C 0.99731 0.15146 0.21015 0.0
C151 C 0.02003 0.13989 0.15024 0.0
C152 C 0.05052 0.17362 0.11538 0.0
C153 C 0.05894 0.2177 0.14038 0.0
C154 C 0.03605 0.22778 0.19981 0.0
C155 C 0.00543 0.19567 0.23375 0.0
C156 C 0.98392 0.2153 0.29531 0.0
C157 C 0.93058 0.21816 0.29225 0.0
C158 C 0.99689 0.18635 0.35686 0.0
C159 C 0.0074 0.26351 0.29129 0.0
C160 C 0.03774 0.26997 0.23624 0.0
C161 C 0.06447 0.31132 0.22344 0.0
C162 C 0.05989 0.34691 0.26769 0.0
C163 C 0.02834 0.34133 0.32369 0.0
C164 C 1.00179 0.29898 0.33528 0.0
H165 H 0.80774 0.00853 0.10652 0.0
H166 H 0.89249 0.07127 0.24871 0.0
H167 H 0.82235 0.0777 0.32297 0.0
H168 H 0.70147 0.07873 0.14056 0.0
H169 H 0.66184 0.03009 0.13011 0.0
H170 H 0.71781 0.03475 0.08491 0.0
H171 H 0.73668 0.95201 0.13123 0.0
H172 H 0.6812 0.94735 0.17747 0.0
H173 H 0.73454 0.93967 0.21874 0.0
H174 H 0.74708 0.06752 0.38733 0.0
H175 H 0.66708 0.05127 0.43448 0.0
H176 H 0.62662 0.99968 0.25015 0.0
C177 C 0.81093 0.02504 0.15237 0.0
C178 C 0.85515 0.04028 0.17181 0.0
C179 C 0.85867 0.06024 0.23287 0.0
C180 C 0.81911 0.06378 0.27539 0.0
C181 C 0.77616 0.04731 0.25598 0.0
C182 C 0.77141 0.02914 0.19554 0.0
C183 C 0.72111 0.01245 0.1886 0.0
C184 C 0.69926 0.0407 0.13273 0.0
C185 C 0.71824 0.95974 0.17841 0.0
C186 C 0.69882 0.02316 0.25505 0.0
C187 C 0.73156 0.04295 0.293 0.0
C188 C 0.72084 0.05305 0.35765 0.0
C189 C 0.67526 0.04352 0.38407 0.0
C190 C 0.64035 0.02478 0.34583 0.0
C191 C 0.65245 0.01435 0.28035 0.0
H192 H 0.99882 0.8548 0.24848 0.0
H193 H 0.07362 0.82255 0.06712 0.0
H194 H 0.07973 0.74053 0.1107 0.0
H195 H 0.06486 0.78303 0.35645 0.0
H196 H 0.01475 0.76636 0.41095 0.0
H197 H 0.01699 0.822 0.36511 0.0
H198 H 0.93801 0.80112 0.31653 0.0
H199 H 0.93564 0.74532 0.36194 0.0
H200 H 0.93202 0.74805 0.27422 0.0
H201 H 0.07508 0.66069 0.17483 0.0
H202 H 0.06337 0.59222 0.25492 0.0
H203 H 0.99296 0.67895 0.39315 0.0
C204 C 0.01653 0.83067 0.21756 0.0
C205 C 0.0356 0.84521 0.15409 0.0
C206 C 0.05889 0.81235 0.11593 0.0
C207 C 0.06235 0.76566 0.14023 0.0
C208 C 0.04266 0.75256 0.20287 0.0
C209 C 0.0205 0.78437 0.24105 0.0
C210 C 1.00239 0.76209 0.30683 0.0
C211 C 0.02618 0.78471 0.36315 0.0
C212 C 0.94884 0.76428 0.31533 0.0
C213 C 0.01752 0.71252 0.29993 0.0
C214 C 0.04058 0.70749 0.23962 0.0
C215 C 0.05728 0.66443 0.22218 0.0
C216 C 0.05048 0.62582 0.26772 0.0
C217 C 0.02749 0.63071 0.32985 0.0
C218 C 0.01069 0.67452 0.34585 0.0
H219 H 0.13369 0.96356 0.22896 0.0
H220 H 0.16784 0.06608 0.06782 0.0
H221 H 0.24554 0.0808 0.11184 0.0
H222 H 0.18999 0.02202 0.35381 0.0
H223 H 0.21047 0.96908 0.39267 0.0
H224 H 0.15788 0.96745 0.34869 0.0
H225 H 0.19245 0.90419 0.27653 0.0
H226 H 0.24514 0.90552 0.32035 0.0
H227 H 0.2483 0.91539 0.23244 0.0
H228 H 0.31883 0.08641 0.17832 0.0
H229 H 0.38268 0.0777 0.25437 0.0
H230 H 0.30143 0.96789 0.36733 0.0
C231 C 0.15737 0.9893 0.20288 0.0
C232 C 0.1444 0.01407 0.14515 0.0
C233 C 0.1769 0.04676 0.11209 0.0
C234 C 0.22105 0.0554 0.13692 0.0
C235 C 0.2325 0.03052 0.19429 0.0
C236 C 0.20166 0.99768 0.22626 0.0
C237 C 0.22254 0.9745 0.28584 0.0
C238 C 0.19349 0.98384 0.34897 0.0
C239 C 0.2274 0.92178 0.27831 0.0
C240 C 0.26993 0.99964 0.2831 0.0
C241 C 0.27495 0.03218 0.23035 0.0
C242 C 0.31527 0.06073 0.21932 0.0
C243 C 0.3513 0.0557 0.26292 0.0
C244 C 0.34721 0.02192 0.3165 0.0
C245 C 0.30587 0.99358 0.32634 0.0
H246 H 0.98314 0.8911 0.78017 0.0
H247 H 1.00288 0.83175 0.97624 0.0
H248 H 0.99536 0.7524 0.93628 0.0
H249 H 0.89795 0.80081 0.73591 0.0
H250 H 0.92131 0.80217 0.65216 0.0
H251 H 0.92437 0.85411 0.69747 0.0
H252 H 0.01406 0.86021 0.67267 0.0
H253 H 0.01134 0.80824 0.62765 0.0
H254 H 0.04907 0.8112 0.69484 0.0
H255 H 0.99427 0.67967 0.8723 0.0
H256 H 0.99511 0.61931 0.79042 0.0
H257 H 0.97293 0.72541 0.63709 0.0
C258 C 0.98513 0.86147 0.81507 0.0
C259 C 0.99357 0.86787 0.88153 0.0
C260 C 0.99611 0.82796 0.92529 0.0
C261 C 0.99198 0.78266 0.90297 0.0
C262 C 0.98467 0.7777 0.83691 0.0
C263 C 0.98067 0.81605 0.79376 0.0
C264 C 0.97452 0.80128 0.72471 0.0
C265 C 0.92669 0.81543 0.70119 0.0
C266 C 0.01464 0.82143 0.67719 0.0
C267 C 0.97687 0.74866 0.73531 0.0
C268 C 0.98267 0.73575 0.80045 0.0
C269 C 0.98885 0.68932 0.82148 0.0
C270 C 0.98931 0.65531 0.7748 0.0
C271 C 0.98322 0.6678 0.70805 0.0
C272 C 0.97653 0.71498 0.6882 0.0
H273 H 0.19153 0.92655 0.88556 0.0
H274 H 0.15108 0.06609 0.82035 0.0
H275 H 0.21573 0.07182 0.73836 0.0
H276 H 0.32018 0.96695 0.86816 0.0
H277 H 0.33961 0.91046 0.84607 0.0
H278 H 0.28817 0.91466 0.90004 0.0
H279 H 0.24106 0.86642 0.82177 0.0
H280 H 0.29203 0.86345 0.76652 0.0
H281 H 0.23898 0.88694 0.73708 0.0
H282 H 0.27067 0.05644 0.64794 0.0
H283 H 0.34253 0.03986 0.58347 0.0
H284 H 0.36806 0.92496 0.72353 0.0
C285 C 0.19702 0.95861 0.85513 0.0
C286 C 0.1639 0.99448 0.85698 0.0
C287 C 0.17385 0.03668 0.81778 0.0
C288 C 0.2106 0.04054 0.77053 0.0
C289 C 0.23981 1.00335 0.76552 0.0
C290 C 0.23623 0.96477 0.80949 0.0
C291 C 0.27781 0.93375 0.79694 0.0
C292 C 0.30826 0.93132 0.85633 0.0
C293 C 0.26147 0.88472 0.77956 0.0
C294 C 0.30327 0.96049 0.73785 0.0
C295 C 0.27891 0.99926 0.71941 0.0
C296 C 0.29145 0.02729 0.66309 0.0
C297 C 0.33207 0.01737 0.62654 0.0
C298 C 0.36131 0.98151 0.64833 0.0
C299 C 0.34623 0.95199 0.70436 0.0
H300 H 0.93051 0.19646 0.89911 0.0
H301 H 0.07016 0.15517 0.8361 0.0
H302 H 0.07913 0.22327 0.75978 0.0
H303 H 0.89501 0.25012 0.75374 0.0
H304 H 0.87176 0.30247 0.78563 0.0
H305 H 0.87302 0.24985 0.83806 0.0
H306 H 0.9204 0.2933 0.92108 0.0
H307 H 0.91795 0.34642 0.86993 0.0
H308 H 0.97362 0.32522 0.89293 0.0
H309 H 0.06496 0.28022 0.6708 0.0
H310 H 0.04852 0.35225 0.60689 0.0
H311 H 0.93394 0.37785 0.74745 0.0
C312 C 0.96337 0.20259 0.87072 0.0
C313 C 0.99837 0.16853 0.87097 0.0
C314 C 0.04155 0.179 0.83448 0.0
C315 C 0.04724 0.21768 0.79056 0.0
C316 C 0.01087 0.24803 0.78665 0.0
C317 C 0.97138 0.24358 0.82883 0.0
C318 C 0.94118 0.28599 0.81775 0.0
C319 C 0.89233 0.27119 0.79762 0.0
C320 C 0.93811 0.31443 0.87907 0.0
C321 C 0.96926 0.3128 0.76103 0.0
C322 C 0.00805 0.28848 0.74259 0.0
C323 C 0.03621 0.30131 0.68657 0.0
C324 C 0.02644 0.34216 0.65048 0.0
C325 C 0.99091 0.37165 0.67278 0.0
C326 C 0.96123 0.35625 0.72847 0.0
H327 H 0.87853 0.0426 0.79337 0.0
H328 H 0.83884 0.95927 0.97274 0.0
H329 H 0.76074 0.943 0.93081 0.0
H330 H 0.76638 0.09445 0.77542 0.0
H331 H 0.77122 0.09431 0.68727 0.0
H332 H 0.82312 0.09897 0.73232 0.0
H333 H 0.85583 0.02671 0.6771 0.0
H334 H 0.80391 0.0216 0.63224 0.0
H335 H 0.82168 0.97263 0.6831 0.0
H336 H 0.6882 0.93245 0.86395 0.0
H337 H 0.62692 0.93318 0.78418 0.0
H338 H 0.71394 0.02912 0.65373 0.0
C339 C 0.85354 0.02082 0.82405 0.0
C340 C 0.86501 1.00172 0.88611 0.0
C341 C 0.83088 0.97414 0.92498 0.0
C342 C 0.78652 0.96466 0.90145 0.0
C343 C 0.77672 0.98364 0.83946 0.0
C344 C 0.80923 0.01167 0.80186 0.0
C345 C 0.79033 0.0287 0.73753 0.0
C346 C 0.78759 0.08228 0.7329 0.0
C347 C 0.81969 0.01136 0.67906 0.0
C348 C 0.74217 0.00534 0.744 0.0
C349 C 0.73489 0.97928 0.80282 0.0
C350 C 0.6934 0.95334 0.81822 0.0
C351 C 0.65855 0.95429 0.77252 0.0
C352 C 0.66498 0.9814 0.71212 0.0
C353 C 0.70759 0.00735 0.69849 0.0
loop_
_geom_bond_atom_site_label_1
_geom_bond_atom_site_label_2
_geom_bond_distance
_geom_bond_site_symmetry_2
_ccdc_geom_bond_type
Fe0 O1 1.886 1_565 S
Fe0 O4 1.715 1_655 S
Fe0 O9 2.077 1_565 S
Fe0 O14 1.935 1_665 S
Fe0 O20 2.077 . S
Fe0 O29 1.935 . S
O1 Fe0 1.886 1_545 S
O1 Fe3 1.715 1_554 S
Fe2 O4 1.886 . S
Fe2 O5 1.715 1_554 S
Fe2 O12 1.935 1_554 S
Fe2 O13 2.077 . S
Fe2 O19 1.935 1_554 S
Fe2 O28 2.077 . S
Fe3 O1 1.715 1_556 S
Fe3 O6 1.886 . S
Fe3 O10 1.935 1_556 S
Fe3 O15 2.077 . S
Fe3 O21 1.935 1_556 S
Fe3 O25 2.077 . S
O4 Fe0 1.715 1_455 S
O4 Fe2 1.886 . S
O5 Fe2 1.715 1_556 S
O5 Fe7 1.886 1_565 S
O6 Fe3 1.886 . S
O6 Fe7 1.715 1_655 S
Fe7 O5 1.886 1_545 S
Fe7 O6 1.715 1_455 S
Fe7 O11 2.077 . S
Fe7 O16 1.935 . S
Fe7 O18 2.077 1_545 S
Fe7 O26 1.935 1_445 S
C8 O20 1.381 1_545 S
C8 O21 1.421 . S
O9 Fe0 2.077 1_545 S
O9 C22 1.381 . S
O10 Fe3 1.935 1_554 S
O10 C22 1.421 . S
O11 Fe7 2.077 . S
O11 C27 1.381 1_545 S
O12 Fe2 1.935 1_556 S
O12 C27 1.421 . S
O13 Fe2 2.077 . S
O13 C17 1.381 . S
O14 Fe0 1.935 1_445 S
O14 C17 1.421 1_545 S
O15 Fe3 2.077 . S
O15 C23 1.381 . S
O16 Fe7 1.935 . S
O16 C23 1.421 1_455 S
C17 O13 1.381 . S
C17 O14 1.421 1_565 S
O18 Fe7 2.077 1_565 S
O18 C30 1.381 . S
O19 Fe2 1.935 1_556 S
O19 C30 1.421 . S
O20 Fe0 2.077 . S
O20 C8 1.381 1_565 S
O21 Fe3 1.935 1_554 S
O21 C8 1.421 . S
C22 O9 1.381 . S
C22 O10 1.421 . S
C23 O15 1.381 . S
C23 O16 1.421 1_655 S
C24 O25 1.381 . S
C24 O26 1.421 1_545 S
O25 Fe3 2.077 . S
O25 C24 1.381 . S
O26 Fe7 1.935 1_665 S
O26 C24 1.421 1_565 S
C27 O11 1.381 1_565 S
C27 O12 1.421 . S
O28 Fe2 2.077 . S
O28 C31 1.381 . S
O29 Fe0 1.935 . S
O29 C31 1.421 1_655 S
C30 O18 1.381 . S
C30 O19 1.421 . S
C31 O28 1.381 . S
C31 O29 1.421 1_455 S
C32 C33 1.443 . S
C32 N36 1.376 . S
C32 C70 1.404 . S
C33 C32 1.443 . S
C33 C34 1.340 . S
C33 H73 0.951 . S
C34 C33 1.340 . S
C34 C35 1.439 . S
C34 H74 0.950 . S
C35 C34 1.439 . S
C35 N36 1.374 . S
C35 C69 1.395 . S
N36 C32 1.376 . S
N36 C35 1.374 . S
N36 Co37 2.008 . S
Co37 N36 2.008 . S
Co37 N38 1.995 . S
Co37 N43 2.008 1_455 S
Co37 N48 1.995 1_455 S
Co37 N53 2.282 . S
Co37 N59 2.282 1_455 S
N38 Co37 1.995 . S
N38 C39 1.376 . S
N38 C42 1.383 . S
C39 N38 1.376 . S
C39 C40 1.446 . S
C39 C69 1.391 . S
C40 C39 1.446 . S
C40 C41 1.339 . S
C40 H75 0.949 . S
C41 C40 1.339 . S
C41 C42 1.439 . S
C41 H76 0.950 . S
C42 N38 1.383 . S
C42 C41 1.439 . S
C42 C71 1.383 1_455 S
N43 Co37 2.008 1_655 S
N43 C44 1.376 . S
N43 C47 1.374 . S
C44 N43 1.376 . S
C44 C45 1.443 . S
C44 C71 1.398 . S
C45 C44 1.443 . S
C45 C46 1.340 . S
C45 H77 0.951 . S
C46 C45 1.340 . S
C46 C47 1.439 . S
C46 H78 0.950 . S
C47 N43 1.374 . S
C47 C46 1.439 . S
C47 C72 1.395 . S
N48 Co37 1.995 1_655 S
N48 C49 1.376 . S
N48 C52 1.383 . S
C49 N48 1.376 . S
C49 C50 1.446 . S
C49 C72 1.391 . S
C50 C49 1.446 . S
C50 C51 1.339 . S
C50 H79 0.949 . S
C51 C50 1.339 . S
C51 C52 1.439 . S
C51 H80 0.950 . S
C52 N48 1.383 . S
C52 C51 1.439 . S
C52 C70 1.378 1_655 S
N53 Co37 2.282 . S
N53 C56 1.332 1_455 S
N53 C58 1.332 . S
C54 C55 1.375 1_455 S
C54 C57 1.400 . S
C55 C54 1.375 1_655 S
C55 C56 1.382 . S
C55 H81 0.950 . S
C56 N53 1.332 1_655 S
C56 C55 1.382 . S
C56 H67 0.952 . S
C57 C54 1.400 . S
C57 C58 1.382 . S
C57 H82 0.950 . S
C58 N53 1.332 . S
C58 C57 1.382 . S
C58 H68 0.948 . S
N59 Co37 2.282 1_655 S
N59 C63 1.332 1_655 S
N59 C64 1.332 . S
C60 C61 1.395 . S
C60 C64 1.382 . S
C60 H83 0.950 . S
C61 C60 1.395 . S
C61 C62 1.379 1_655 S
C62 C61 1.379 1_455 S
C62 C63 1.382 . S
C62 H84 0.950 . S
C63 N59 1.332 1_455 S
C63 C62 1.382 . S
C63 H65 0.952 . S
C64 N59 1.332 . S
C64 C60 1.382 . S
C64 H66 0.948 . S
H65 C63 0.952 . S
H66 C64 0.948 . S
H67 C56 0.952 . S
H68 C58 0.948 . S
C69 C35 1.395 . S
C69 C39 1.391 . S
C70 C32 1.404 . S
C70 C52 1.378 1_455 S
C71 C42 1.383 1_655 S
C71 C44 1.398 . S
C72 C47 1.395 . S
C72 C49 1.391 . S
H73 C33 0.951 . S
H74 C34 0.950 . S
H75 C40 0.949 . S
H76 C41 0.950 . S
H77 C45 0.951 . S
H78 C46 0.950 . S
H79 C50 0.949 . S
H80 C51 0.950 . S
H81 C55 0.950 . S
H82 C57 0.950 . S
H83 C60 0.950 . S
H84 C62 0.950 . S
C85 C86 1.443 . S
C85 N89 1.376 . S
C85 C123 1.395 . S
C86 C85 1.443 . S
C86 C87 1.340 . S
C86 H126 0.951 . S
C87 C86 1.340 . S
C87 C88 1.439 . S
C87 H127 0.950 . S
C88 C87 1.439 . S
C88 N89 1.374 . S
C88 C122 1.395 . S
N89 C85 1.376 . S
N89 C88 1.374 . S
N89 Co90 2.006 1_565 S
Co90 N89 2.006 1_545 S
Co90 N91 1.992 1_545 S
Co90 N96 2.010 . S
Co90 N101 1.997 . S
Co90 N106 2.282 1_545 S
Co90 N112 2.282 . S
N91 Co90 1.992 1_565 S
N91 C92 1.376 . S
N91 C95 1.383 . S
C92 N91 1.376 . S
C92 C93 1.446 . S
C92 C122 1.391 . S
C93 C92 1.446 . S
C93 C94 1.339 . S
C93 H128 0.949 . S
C94 C93 1.339 . S
C94 C95 1.439 . S
C94 H129 0.950 . S
C95 N91 1.383 . S
C95 C94 1.439 . S
C95 C124 1.375 1_565 S
N96 Co90 2.010 . S
N96 C97 1.376 . S
N96 C100 1.374 . S
C97 N96 1.376 . S
C97 C98 1.443 . S
C97 C124 1.407 . S
C98 C97 1.443 . S
C98 C99 1.340 . S
C98 H130 0.951 . S
C99 C98 1.340 . S
C99 C100 1.439 . S
C99 H131 0.950 . S
C100 N96 1.374 . S
C100 C99 1.439 . S
C100 C125 1.395 . S
N101 Co90 1.997 . S
N101 C102 1.376 . S
N101 C105 1.383 . S
C102 N101 1.376 . S
C102 C103 1.446 . S
C102 C125 1.391 . S
C103 C102 1.446 . S
C103 C104 1.339 . S
C103 H132 0.949 . S
C104 C103 1.339 . S
C104 C105 1.439 . S
C104 H133 0.950 . S
C105 N101 1.383 . S
C105 C104 1.439 . S
C105 C123 1.386 1_545 S
N106 Co90 2.282 1_565 S
N106 C109 1.332 1_565 S
N106 C111 1.332 . S
C107 C108 1.382 1_565 S
C107 C110 1.392 . S
C108 C107 1.382 1_545 S
C108 C109 1.382 . S
C108 H134 0.950 . S
C109 N106 1.332 1_545 S
C109 C108 1.382 . S
C109 H120 0.952 . S
C110 C107 1.392 . S
C110 C111 1.382 . S
C110 H135 0.950 . S
C111 N106 1.332 . S
C111 C110 1.382 . S
C111 H121 0.948 . S
N112 Co90 2.282 . S
N112 C116 1.332 1_545 S
N112 C117 1.332 . S
C113 C114 1.403 . S
C113 C117 1.382 . S
C113 H136 0.950 . S
C114 C113 1.403 . S
C114 C115 1.372 1_545 S
C115 C114 1.372 1_565 S
C115 C116 1.382 . S
C115 H137 0.950 . S
C116 N112 1.332 1_565 S
C116 C115 1.382 . S
C116 H118 0.952 . S
C117 N112 1.332 . S
C117 C113 1.382 . S
C117 H119 0.948 . S
H118 C116 0.952 . S
H119 C117 0.948 . S
H120 C109 0.952 . S
H121 C111 0.948 . S
C122 C88 1.395 . S
C122 C92 1.391 . S
C123 C85 1.395 . S
C123 C105 1.386 1_565 S
C124 C95 1.375 1_545 S
C124 C97 1.407 . S
C125 C100 1.395 . S
C125 C102 1.391 . S
H126 C86 0.951 . S
H127 C87 0.950 . S
H128 C93 0.949 . S
H129 C94 0.950 . S
H130 C98 0.951 . S
H131 C99 0.950 . S
H132 C103 0.949 . S
H133 C104 0.950 . S
H134 C108 0.950 . S
H135 C110 0.950 . S
H136 C113 0.950 . S
H137 C115 0.950 . S
H138 C150 0.930 . S
H139 C152 0.930 . S
H140 C153 0.930 . S
H141 C157 0.959 . S
H142 C157 0.959 . S
H143 C157 0.961 . S
H144 C158 0.960 . S
H145 C158 0.961 . S
H146 C158 0.959 . S
H147 C161 0.929 . S
H148 C162 0.931 . S
H149 C164 0.930 . S
C150 H138 0.930 . S
C150 C151 1.399 . S
C150 C155 1.399 . S
C151 C150 1.399 . S
C151 C152 1.377 1_655 S
C152 H139 0.930 . S
C152 C151 1.377 1_455 S
C152 C153 1.388 . S
C153 H140 0.930 . S
C153 C152 1.388 . S
C153 C154 1.390 . S
C154 C153 1.390 . S
C154 C155 1.394 1_455 S
C154 C160 1.465 . S
C155 C150 1.399 . S
C155 C154 1.394 1_655 S
C155 C156 1.516 . S
C156 C155 1.516 . S
C156 C157 1.502 . S
C156 C158 1.561 1_655 S
C156 C159 1.526 . S
C157 H141 0.959 . S
C157 H142 0.959 . S
C157 H143 0.961 . S
C157 C156 1.502 . S
C158 H144 0.960 . S
C158 H145 0.961 . S
C158 H146 0.959 . S
C158 C156 1.561 1_455 S
C159 C156 1.526 . S
C159 C160 1.396 1_655 S
C159 C164 1.390 . S
C160 C154 1.465 . S
C160 C159 1.396 1_455 S
C160 C161 1.399 . S
C161 H147 0.929 . S
C161 C160 1.399 . S
C161 C162 1.385 . S
C162 H148 0.931 . S
C162 C161 1.385 . S
C162 C163 1.389 . S
C163 C162 1.389 . S
C163 C164 1.387 1_455 S
C164 H149 0.930 . S
C164 C159 1.390 . S
C164 C163 1.387 1_655 S
H165 C177 0.930 . S
H166 C179 0.930 . S
H167 C180 0.930 . S
H168 C184 0.959 . S
H169 C184 0.959 . S
H170 C184 0.961 . S
H171 C185 0.960 . S
H172 C185 0.961 . S
H173 C185 0.959 . S
H174 C188 0.929 . S
H175 C189 0.931 . S
H176 C191 0.930 . S
C177 H165 0.930 . S
C177 C178 1.395 1_565 S
C177 C182 1.399 . S
C178 C177 1.395 1_545 S
C178 C179 1.382 . S
C179 H166 0.930 . S
C179 C178 1.382 . S
C179 C180 1.388 . S
C180 H167 0.930 . S
C180 C179 1.388 . S
C180 C181 1.390 . S
C181 C180 1.390 . S
C181 C182 1.394 1_545 S
C181 C187 1.465 . S
C182 C177 1.399 . S
C182 C181 1.394 1_565 S
C182 C183 1.516 . S
C183 C182 1.516 . S
C183 C184 1.502 . S
C183 C185 1.561 . S
C183 C186 1.526 . S
C184 H168 0.959 . S
C184 H169 0.959 . S
C184 H170 0.961 . S
C184 C183 1.502 . S
C185 H171 0.960 . S
C185 H172 0.961 . S
C185 H173 0.959 . S
C185 C183 1.561 . S
C186 C183 1.526 . S
C186 C187 1.396 1_565 S
C186 C191 1.390 . S
C187 C181 1.465 . S
C187 C186 1.396 1_545 S
C187 C188 1.399 . S
C188 H174 0.929 . S
C188 C187 1.399 . S
C188 C189 1.385 . S
C189 H175 0.931 . S
C189 C188 1.385 . S
C189 C190 1.389 . S
C190 C189 1.389 . S
C190 C191 1.387 1_545 S
C191 H176 0.930 . S
C191 C186 1.390 . S
C191 C190 1.387 1_565 S
H192 C204 0.930 1_455 S
H193 C206 0.930 . S
H194 C207 0.930 . S
H195 C211 0.959 . S
H196 C211 0.959 . S
H197 C211 0.961 . S
H198 C212 0.960 . S
H199 C212 0.961 . S
H200 C212 0.959 . S
H201 C215 0.929 . S
H202 C216 0.931 . S
H203 C218 0.933 . S
C204 H192 0.930 1_655 S
C204 C205 1.399 . S
C204 C209 1.399 . S
C205 C204 1.399 . S
C205 C206 1.376 . S
C206 H193 0.930 . S
C206 C205 1.376 . S
C206 C207 1.388 . S
C207 H194 0.930 . S
C207 C206 1.388 . S
C207 C208 1.390 . S
C208 C207 1.390 . S
C208 C209 1.394 . S
C208 C214 1.465 . S
C209 C204 1.399 . S
C209 C208 1.394 . S
C209 C210 1.516 . S
C210 C209 1.516 . S
C210 C211 1.502 1_655 S
C210 C212 1.561 . S
C210 C213 1.526 . S
C211 H195 0.959 . S
C211 H196 0.959 . S
C211 H197 0.961 . S
C211 C210 1.502 1_455 S
C212 H198 0.960 . S
C212 H199 0.961 . S
C212 H200 0.959 . S
C212 C210 1.561 . S
C213 C210 1.526 . S
C213 C214 1.396 . S
C213 C218 1.387 1_655 S
C214 C208 1.465 . S
C214 C213 1.396 . S
C214 C215 1.399 . S
C215 H201 0.929 . S
C215 C214 1.399 . S
C215 C216 1.385 . S
C216 H202 0.931 . S
C216 C215 1.385 . S
C216 C217 1.389 . S
C217 C216 1.389 . S
C217 C218 1.386 1_655 S
C218 H203 0.933 . S
C218 C213 1.387 1_455 S
C218 C217 1.386 1_455 S
H219 C231 0.930 . S
H220 C233 0.930 . S
H221 C234 0.930 . S
H222 C238 0.959 . S
H223 C238 0.959 . S
H224 C238 0.961 . S
H225 C239 0.960 . S
H226 C239 0.961 . S
H227 C239 0.959 . S
H228 C242 0.929 . S
H229 C243 0.931 . S
H230 C245 0.930 . S
C231 H219 0.930 . S
C231 C232 1.399 . S
C231 C236 1.399 . S
C232 C231 1.399 . S
C232 C233 1.376 1_565 S
C233 H220 0.930 . S
C233 C232 1.376 1_545 S
C233 C234 1.388 . S
C234 H221 0.930 . S
C234 C233 1.388 . S
C234 C235 1.390 . S
C235 C234 1.390 . S
C235 C236 1.394 1_545 S
C235 C241 1.465 . S
C236 C231 1.399 . S
C236 C235 1.394 1_565 S
C236 C237 1.516 . S
C237 C236 1.516 . S
C237 C238 1.502 . S
C237 C239 1.561 . S
C237 C240 1.526 . S
C238 H222 0.959 . S
C238 H223 0.959 . S
C238 H224 0.961 . S
C238 C237 1.502 . S
C239 H225 0.960 . S
C239 H226 0.961 . S
C239 H227 0.959 . S
C239 C237 1.561 . S
C240 C237 1.526 . S
C240 C241 1.396 1_565 S
C240 C245 1.390 . S
C241 C235 1.465 . S
C241 C240 1.396 1_545 S
C241 C242 1.399 . S
C242 H228 0.929 . S
C242 C241 1.399 . S
C242 C243 1.385 . S
C243 H229 0.931 . S
C243 C242 1.385 . S
C243 C244 1.389 . S
C244 C243 1.389 . S
C244 C245 1.387 1_545 S
C245 H230 0.930 . S
C245 C240 1.390 . S
C245 C244 1.387 1_565 S
H246 C258 0.930 . S
H247 C260 0.930 . S
H248 C261 0.930 . S
H249 C265 0.959 . S
H250 C265 0.959 . S
H251 C265 0.961 . S
H252 C266 0.960 . S
H253 C266 0.961 . S
H254 C266 0.959 1_455 S
H255 C269 0.929 . S
H256 C270 0.931 . S
H257 C272 0.930 . S
C258 H246 0.930 . S
C258 C259 1.399 1_655 S
C258 C263 1.399 . S
C259 C258 1.399 1_455 S
C259 C260 1.376 . S
C260 H247 0.930 . S
C260 C259 1.376 . S
C260 C261 1.388 . S
C261 H248 0.930 . S
C261 C260 1.388 . S
C261 C262 1.390 . S
C262 C261 1.390 . S
C262 C263 1.394 1_455 S
C262 C268 1.465 . S
C263 C258 1.399 . S
C263 C262 1.394 1_655 S
C263 C264 1.516 . S
C264 C263 1.516 . S
C264 C265 1.502 . S
C264 C266 1.561 . S
C264 C267 1.526 . S
C265 H249 0.959 . S
C265 H250 0.959 . S
C265 H251 0.961 . S
C265 C264 1.502 . S
C266 H252 0.960 . S
C266 H253 0.961 . S
C266 H254 0.959 1_655 S
C266 C264 1.561 . S
C267 C264 1.526 . S
C267 C268 1.396 1_655 S
C267 C272 1.390 . S
C268 C262 1.465 . S
C268 C267 1.396 1_455 S
C268 C269 1.399 . S
C269 H255 0.929 . S
C269 C268 1.399 . S
C269 C270 1.385 . S
C270 H256 0.931 . S
C270 C269 1.385 . S
C270 C271 1.389 . S
C271 C270 1.389 . S
C271 C272 1.387 1_455 S
C272 H257 0.930 . S
C272 C267 1.390 . S
C272 C271 1.387 1_655 S
H273 C285 0.930 . S
H274 C287 0.930 . S
H275 C288 0.930 . S
H276 C292 0.959 . S
H277 C292 0.959 . S
H278 C292 0.961 . S
H279 C293 0.960 . S
H280 C293 0.961 . S
H281 C293 0.959 . S
H282 C296 0.929 . S
H283 C297 0.931 . S
H284 C299 0.930 . S
C285 H273 0.930 . S
C285 C286 1.399 1_565 S
C285 C290 1.399 . S
C286 C285 1.399 1_545 S
C286 C287 1.376 . S
C287 H274 0.930 . S
C287 C286 1.376 . S
C287 C288 1.388 . S
C288 H275 0.930 . S
C288 C287 1.388 . S
C288 C289 1.390 . S
C289 C288 1.390 . S
C289 C290 1.394 1_545 S
C289 C295 1.465 . S
C290 C285 1.399 . S
C290 C289 1.394 1_565 S
C290 C291 1.516 . S
C291 C290 1.516 . S
C291 C292 1.502 . S
C291 C293 1.561 . S
C291 C294 1.526 . S
C292 H276 0.959 . S
C292 H277 0.959 . S
C292 H278 0.961 . S
C292 C291 1.502 . S
C293 H279 0.960 . S
C293 H280 0.961 . S
C293 H281 0.959 . S
C293 C291 1.561 . S
C294 C291 1.526 . S
C294 C295 1.396 1_565 S
C294 C299 1.390 . S
C295 C289 1.465 . S
C295 C294 1.396 1_545 S
C295 C296 1.399 . S
C296 H282 0.929 . S
C296 C295 1.399 . S
C296 C297 1.385 . S
C297 H283 0.931 . S
C297 C296 1.385 . S
C297 C298 1.389 . S
C298 C297 1.389 . S
C298 C299 1.387 1_545 S
C299 H284 0.930 . S
C299 C294 1.390 . S
C299 C298 1.387 1_565 S
H300 C312 0.930 . S
H301 C314 0.930 . S
H302 C315 0.930 . S
H303 C319 0.959 . S
H304 C319 0.959 . S
H305 C319 0.961 . S
H306 C320 0.960 . S
H307 C320 0.961 . S
H308 C320 0.959 . S
H309 C323 0.929 . S
H310 C324 0.931 . S
H311 C326 0.930 . S
C312 H300 0.930 . S
C312 C313 1.399 1_655 S
C312 C317 1.399 . S
C313 C312 1.399 1_455 S
C313 C314 1.376 . S
C314 H301 0.930 . S
C314 C313 1.376 . S
C314 C315 1.388 . S
C315 H302 0.930 . S
C315 C314 1.388 . S
C315 C316 1.390 . S
C316 C315 1.390 . S
C316 C317 1.394 1_455 S
C316 C322 1.465 . S
C317 C312 1.399 . S
C317 C316 1.394 1_655 S
C317 C318 1.516 . S
C318 C317 1.516 . S
C318 C319 1.502 . S
C318 C320 1.561 . S
C318 C321 1.526 . S
C319 H303 0.959 . S
C319 H304 0.959 . S
C319 H305 0.961 . S
C319 C318 1.502 . S
C320 H306 0.960 . S
C320 H307 0.961 . S
C320 H308 0.959 . S
C320 C318 1.561 . S
C321 C318 1.526 . S
C321 C322 1.396 1_655 S
C321 C326 1.390 . S
C322 C316 1.465 . S
C322 C321 1.396 1_455 S
C322 C323 1.399 . S
C323 H309 0.929 . S
C323 C322 1.399 . S
C323 C324 1.385 . S
C324 H310 0.931 . S
C324 C323 1.385 . S
C324 C325 1.389 . S
C325 C324 1.389 . S
C325 C326 1.387 1_455 S
C326 H311 0.930 . S
C326 C321 1.390 . S
C326 C325 1.387 1_655 S
H327 C339 0.930 . S
H328 C341 0.930 . S
H329 C342 0.930 . S
H330 C346 0.959 . S
H331 C346 0.959 . S
H332 C346 0.961 . S
H333 C347 0.960 . S
H334 C347 0.961 . S
H335 C347 0.959 . S
H336 C350 0.929 . S
H337 C351 0.931 . S
H338 C353 0.930 . S
C339 H327 0.930 . S
C339 C340 1.389 1_545 S
C339 C344 1.399 . S
C340 C339 1.389 1_565 S
C340 C341 1.390 . S
C341 H328 0.930 . S
C341 C340 1.390 . S
C341 C342 1.388 . S
C342 H329 0.930 . S
C342 C341 1.388 . S
C342 C343 1.390 . S
C343 C342 1.390 . S
C343 C344 1.394 1_565 S
C343 C349 1.465 . S
C344 C339 1.399 . S
C344 C343 1.394 1_545 S
C344 C345 1.516 . S
C345 C344 1.516 . S
C345 C346 1.502 . S
C345 C347 1.561 . S
C345 C348 1.526 . S
C346 H330 0.959 . S
C346 H331 0.959 . S
C346 H332 0.961 . S
C346 C345 1.502 . S
C347 H333 0.960 . S
C347 H334 0.961 . S
C347 H335 0.959 . S
C347 C345 1.561 . S
C348 C345 1.526 . S
C348 C349 1.396 1_545 S
C348 C353 1.390 . S
C349 C343 1.465 . S
C349 C348 1.396 1_565 S
C349 C350 1.399 . S
C350 H336 0.929 . S
C350 C349 1.399 . S
C350 C351 1.385 . S
C351 H337 0.931 . S
C351 C350 1.385 . S
C351 C352 1.389 . S
C352 C351 1.389 . S
C352 C353 1.387 1_565 S
C353 H338 0.930 . S
C353 C348 1.390 . S
C353 C352 1.387 1_545 S
C151 C22 1.407 . S
C163 C54 1.415 . S
C178 C8 1.466 . S
C190 C124 1.560 . S
C205 C31 1.538 1_655 S
C217 C70 1.553 1_655 S
C232 C17 1.407 . S
C244 C114 1.414 . S
C259 C30 1.350 . S
C271 C61 1.417 1_455 S
C286 C27 1.528 1_545 S
C298 C123 1.557 1_545 S
C325 C71 1.557 1_455 S
C313 C23 1.535 1_455 S
C340 C24 1.375 1_565 S
C352 C107 1.422 . S
