# Generated by pormake.
# Topology gar, (4,6)-cn, num edge types: 1
# Building blocks:
#     Node 0, Type 0, BuildingBlock: GALJAG_clean_sbu_0, # of connection points: 4
#     Node 1, Type 0, BuildingBlock: GALJAG_clean_sbu_0, # of connection points: 4
#     Node 2, Type 0, BuildingBlock: GALJAG_clean_sbu_0, # of connection points: 4
#     Node 3, Type 0, BuildingBlock: GALJAG_clean_sbu_0, # of connection points: 4
#     Node 4, Type 0, BuildingBlock: GALJAG_clean_sbu_0, # of connection points: 4
#     Node 5, Type 0, BuildingBlock: GALJAG_clean_sbu_0, # of connection points: 4
#     Node 6, Type 0, BuildingBlock: GALJAG_clean_sbu_0, # of connection points: 4
#     Node 7, Type 0, BuildingBlock: GALJAG_clean_sbu_0, # of connection points: 4
#     Node 8, Type 0, BuildingBlock: GALJAG_clean_sbu_0, # of connection points: 4
#     Node 9, Type 0, BuildingBlock: GALJAG_clean_sbu_0, # of connection points: 4
#     Node 10, Type 0, BuildingBlock: GALJAG_clean_sbu_0, # of connection points: 4
#     Node 11, Type 0, BuildingBlock: GALJAG_clean_sbu_0, # of connection points: 4
#     Node 12, Type 0, BuildingBlock: GALJAG_clean_sbu_0, # of connection points: 4
#     Node 13, Type 0, BuildingBlock: GALJAG_clean_sbu_0, # of connection points: 4
#     Node 14, Type 0, BuildingBlock: GALJAG_clean_sbu_0, # of connection points: 4
#     Node 15, Type 0, BuildingBlock: GALJAG_clean_sbu_0, # of connection points: 4
#     Node 16, Type 0, BuildingBlock: GALJAG_clean_sbu_0, # of connection points: 4
#     Node 17, Type 0, BuildingBlock: GALJAG_clean_sbu_0, # of connection points: 4
#     Node 18, Type 0, BuildingBlock: GALJAG_clean_sbu_0, # of connection points: 4
#     Node 19, Type 0, BuildingBlock: GALJAG_clean_sbu_0, # of connection points: 4
#     Node 20, Type 0, BuildingBlock: GALJAG_clean_sbu_0, # of connection points: 4
#     Node 21, Type 0, BuildingBlock: GALJAG_clean_sbu_0, # of connection points: 4
#     Node 22, Type 0, BuildingBlock: GALJAG_clean_sbu_0, # of connection points: 4
#     Node 23, Type 0, BuildingBlock: GALJAG_clean_sbu_0, # of connection points: 4
#     Node 24, Type 1, BuildingBlock: NUHQIS_clean_sbu_0, # of connection points: 6
#     Node 25, Type 1, BuildingBlock: NUHQIS_clean_sbu_0, # of connection points: 6
#     Node 26, Type 1, BuildingBlock: NUHQIS_clean_sbu_0, # of connection points: 6
#     Node 27, Type 1, BuildingBlock: NUHQIS_clean_sbu_0, # of connection points: 6
#     Node 28, Type 1, BuildingBlock: NUHQIS_clean_sbu_0, # of connection points: 6
#     Node 29, Type 1, BuildingBlock: NUHQIS_clean_sbu_0, # of connection points: 6
#     Node 30, Type 1, BuildingBlock: NUHQIS_clean_sbu_0, # of connection points: 6
#     Node 31, Type 1, BuildingBlock: NUHQIS_clean_sbu_0, # of connection points: 6
#     Node 32, Type 1, BuildingBlock: NUHQIS_clean_sbu_0, # of connection points: 6
#     Node 33, Type 1, BuildingBlock: NUHQIS_clean_sbu_0, # of connection points: 6
#     Node 34, Type 1, BuildingBlock: NUHQIS_clean_sbu_0, # of connection points: 6
#     Node 35, Type 1, BuildingBlock: NUHQIS_clean_sbu_0, # of connection points: 6
#     Node 36, Type 1, BuildingBlock: NUHQIS_clean_sbu_0, # of connection points: 6
#     Node 37, Type 1, BuildingBlock: NUHQIS_clean_sbu_0, # of connection points: 6
#     Node 38, Type 1, BuildingBlock: NUHQIS_clean_sbu_0, # of connection points: 6
#     Node 39, Type 1, BuildingBlock: NUHQIS_clean_sbu_0, # of connection points: 6
#     Edge 40, Type (0, 1), BuildingBlock: UVAHIK_clean_linker_0, # of connection points: 2
#     Edge 41, Type (0, 1), BuildingBlock: UVAHIK_clean_linker_0, # of connection points: 2
#     Edge 42, Type (0, 1), BuildingBlock: UVAHIK_clean_linker_0, # of connection points: 2
#     Edge 43, Type (0, 1), BuildingBlock: UVAHIK_clean_linker_0, # of connection points: 2
#     Edge 44, Type (0, 1), BuildingBlock: UVAHIK_clean_linker_0, # of connection points: 2
#     Edge 45, Type (0, 1), BuildingBlock: UVAHIK_clean_linker_0, # of connection points: 2
#     Edge 46, Type (0, 1), BuildingBlock: UVAHIK_clean_linker_0, # of connection points: 2
#     Edge 47, Type (0, 1), BuildingBlock: UVAHIK_clean_linker_0, # of connection points: 2
#     Edge 48, Type (0, 1), BuildingBlock: UVAHIK_clean_linker_0, # of connection points: 2
#     Edge 49, Type (0, 1), BuildingBlock: UVAHIK_clean_linker_0, # of connection points: 2
#     Edge 50, Type (0, 1), BuildingBlock: UVAHIK_clean_linker_0, # of connection points: 2
#     Edge 51, Type (0, 1), BuildingBlock: UVAHIK_clean_linker_0, # of connection points: 2
#     Edge 52, Type (0, 1), BuildingBlock: UVAHIK_clean_linker_0, # of connection points: 2
#     Edge 53, Type (0, 1), BuildingBlock: UVAHIK_clean_linker_0, # of connection points: 2
#     Edge 54, Type (0, 1), BuildingBlock: UVAHIK_clean_linker_0, # of connection points: 2
#     Edge 55, Type (0, 1), BuildingBlock: UVAHIK_clean_linker_0, # of connection points: 2
#     Edge 56, Type (0, 1), BuildingBlock: UVAHIK_clean_linker_0, # of connection points: 2
#     Edge 57, Type (0, 1), BuildingBlock: UVAHIK_clean_linker_0, # of connection points: 2
#     Edge 58, Type (0, 1), BuildingBlock: UVAHIK_clean_linker_0, # of connection points: 2
#     Edge 59, Type (0, 1), BuildingBlock: UVAHIK_clean_linker_0, # of connection points: 2
#     Edge 60, Type (0, 1), BuildingBlock: UVAHIK_clean_linker_0, # of connection points: 2
#     Edge 61, Type (0, 1), BuildingBlock: UVAHIK_clean_linker_0, # of connection points: 2
#     Edge 62, Type (0, 1), BuildingBlock: UVAHIK_clean_linker_0, # of connection points: 2
#     Edge 63, Type (0, 1), BuildingBlock: UVAHIK_clean_linker_0, # of connection points: 2
#     Edge 64, Type (0, 1), BuildingBlock: UVAHIK_clean_linker_0, # of connection points: 2
#     Edge 65, Type (0, 1), BuildingBlock: UVAHIK_clean_linker_0, # of connection points: 2
#     Edge 66, Type (0, 1), BuildingBlock: UVAHIK_clean_linker_0, # of connection points: 2
#     Edge 67, Type (0, 1), BuildingBlock: UVAHIK_clean_linker_0, # of connection points: 2
#     Edge 68, Type (0, 1), BuildingBlock: UVAHIK_clean_linker_0, # of connection points: 2
#     Edge 69, Type (0, 1), BuildingBlock: UVAHIK_clean_linker_0, # of connection points: 2
#     Edge 70, Type (0, 1), BuildingBlock: UVAHIK_clean_linker_0, # of connection points: 2
#     Edge 71, Type (0, 1), BuildingBlock: UVAHIK_clean_linker_0, # of connection points: 2
#     Edge 72, Type (0, 1), BuildingBlock: UVAHIK_clean_linker_0, # of connection points: 2
#     Edge 73, Type (0, 1), BuildingBlock: UVAHIK_clean_linker_0, # of connection points: 2
#     Edge 74, Type (0, 1), BuildingBlock: UVAHIK_clean_linker_0, # of connection points: 2
#     Edge 75, Type (0, 1), BuildingBlock: UVAHIK_clean_linker_0, # of connection points: 2
#     Edge 76, Type (0, 1), BuildingBlock: UVAHIK_clean_linker_0, # of connection points: 2
#     Edge 77, Type (0, 1), BuildingBlock: UVAHIK_clean_linker_0, # of connection points: 2
#     Edge 78, Type (0, 1), BuildingBlock: UVAHIK_clean_linker_0, # of connection points: 2
#     Edge 79, Type (0, 1), BuildingBlock: UVAHIK_clean_linker_0, # of connection points: 2
#     Edge 80, Type (0, 1), BuildingBlock: UVAHIK_clean_linker_0, # of connection points: 2
#     Edge 81, Type (0, 1), BuildingBlock: UVAHIK_clean_linker_0, # of connection points: 2
#     Edge 82, Type (0, 1), BuildingBlock: UVAHIK_clean_linker_0, # of connection points: 2
#     Edge 83, Type (0, 1), BuildingBlock: UVAHIK_clean_linker_0, # of connection points: 2
#     Edge 84, Type (0, 1), BuildingBlock: UVAHIK_clean_linker_0, # of connection points: 2
#     Edge 85, Type (0, 1), BuildingBlock: UVAHIK_clean_linker_0, # of connection points: 2
#     Edge 86, Type (0, 1), BuildingBlock: UVAHIK_clean_linker_0, # of connection points: 2
#     Edge 87, Type (0, 1), BuildingBlock: UVAHIK_clean_linker_0, # of connection points: 2
#     Edge 88, Type (0, 1), BuildingBlock: UVAHIK_clean_linker_0, # of connection points: 2
#     Edge 89, Type (0, 1), BuildingBlock: UVAHIK_clean_linker_0, # of connection points: 2
#     Edge 90, Type (0, 1), BuildingBlock: UVAHIK_clean_linker_0, # of connection points: 2
#     Edge 91, Type (0, 1), BuildingBlock: UVAHIK_clean_linker_0, # of connection points: 2
#     Edge 92, Type (0, 1), BuildingBlock: UVAHIK_clean_linker_0, # of connection points: 2
#     Edge 93, Type (0, 1), BuildingBlock: UVAHIK_clean_linker_0, # of connection points: 2
#     Edge 94, Type (0, 1), BuildingBlock: UVAHIK_clean_linker_0, # of connection points: 2
#     Edge 95, Type (0, 1), BuildingBlock: UVAHIK_clean_linker_0, # of connection points: 2
#     Edge 96, Type (0, 1), BuildingBlock: UVAHIK_clean_linker_0, # of connection points: 2
#     Edge 97, Type (0, 1), BuildingBlock: UVAHIK_clean_linker_0, # of connection points: 2
#     Edge 98, Type (0, 1), BuildingBlock: UVAHIK_clean_linker_0, # of connection points: 2
#     Edge 99, Type (0, 1), BuildingBlock: UVAHIK_clean_linker_0, # of connection points: 2
#     Edge 100, Type (0, 1), BuildingBlock: UVAHIK_clean_linker_0, # of connection points: 2
#     Edge 101, Type (0, 1), BuildingBlock: UVAHIK_clean_linker_0, # of connection points: 2
#     Edge 102, Type (0, 1), BuildingBlock: UVAHIK_clean_linker_0, # of connection points: 2
#     Edge 103, Type (0, 1), BuildingBlock: UVAHIK_clean_linker_0, # of connection points: 2
#     Edge 104, Type (0, 1), BuildingBlock: UVAHIK_clean_linker_0, # of connection points: 2
#     Edge 105, Type (0, 1), BuildingBlock: UVAHIK_clean_linker_0, # of connection points: 2
#     Edge 106, Type (0, 1), BuildingBlock: UVAHIK_clean_linker_0, # of connection points: 2
#     Edge 107, Type (0, 1), BuildingBlock: UVAHIK_clean_linker_0, # of connection points: 2
#     Edge 108, Type (0, 1), BuildingBlock: UVAHIK_clean_linker_0, # of connection points: 2
#     Edge 109, Type (0, 1), BuildingBlock: UVAHIK_clean_linker_0, # of connection points: 2
#     Edge 110, Type (0, 1), BuildingBlock: UVAHIK_clean_linker_0, # of connection points: 2
#     Edge 111, Type (0, 1), BuildingBlock: UVAHIK_clean_linker_0, # of connection points: 2
#     Edge 112, Type (0, 1), BuildingBlock: UVAHIK_clean_linker_0, # of connection points: 2
#     Edge 113, Type (0, 1), BuildingBlock: UVAHIK_clean_linker_0, # of connection points: 2
#     Edge 114, Type (0, 1), BuildingBlock: UVAHIK_clean_linker_0, # of connection points: 2
#     Edge 115, Type (0, 1), BuildingBlock: UVAHIK_clean_linker_0, # of connection points: 2
#     Edge 116, Type (0, 1), BuildingBlock: UVAHIK_clean_linker_0, # of connection points: 2
#     Edge 117, Type (0, 1), BuildingBlock: UVAHIK_clean_linker_0, # of connection points: 2
#     Edge 118, Type (0, 1), BuildingBlock: UVAHIK_clean_linker_0, # of connection points: 2
#     Edge 119, Type (0, 1), BuildingBlock: UVAHIK_clean_linker_0, # of connection points: 2
#     Edge 120, Type (0, 1), BuildingBlock: UVAHIK_clean_linker_0, # of connection points: 2
#     Edge 121, Type (0, 1), BuildingBlock: UVAHIK_clean_linker_0, # of connection points: 2
#     Edge 122, Type (0, 1), BuildingBlock: UVAHIK_clean_linker_0, # of connection points: 2
#     Edge 123, Type (0, 1), BuildingBlock: UVAHIK_clean_linker_0, # of connection points: 2
#     Edge 124, Type (0, 1), BuildingBlock: UVAHIK_clean_linker_0, # of connection points: 2
#     Edge 125, Type (0, 1), BuildingBlock: UVAHIK_clean_linker_0, # of connection points: 2
#     Edge 126, Type (0, 1), BuildingBlock: UVAHIK_clean_linker_0, # of connection points: 2
#     Edge 127, Type (0, 1), BuildingBlock: UVAHIK_clean_linker_0, # of connection points: 2
#     Edge 128, Type (0, 1), BuildingBlock: UVAHIK_clean_linker_0, # of connection points: 2
#     Edge 129, Type (0, 1), BuildingBlock: UVAHIK_clean_linker_0, # of connection points: 2
#     Edge 130, Type (0, 1), BuildingBlock: UVAHIK_clean_linker_0, # of connection points: 2
#     Edge 131, Type (0, 1), BuildingBlock: UVAHIK_clean_linker_0, # of connection points: 2
#     Edge 132, Type (0, 1), BuildingBlock: UVAHIK_clean_linker_0, # of connection points: 2
#     Edge 133, Type (0, 1), BuildingBlock: UVAHIK_clean_linker_0, # of connection points: 2
#     Edge 134, Type (0, 1), BuildingBlock: UVAHIK_clean_linker_0, # of connection points: 2
#     Edge 135, Type (0, 1), BuildingBlock: UVAHIK_clean_linker_0, # of connection points: 2
# Relax obj value: 0.191
# Max RMSD: 0.279
# Mean RMSD: 0.153
data_MOF--net-gar--node1-GALJAG_clean_sbu_0--node2-NUHQIS_clean_sbu_0--edge1-UVAHIK_clean_linker_0
_symmetry_space_group_name_H-M    P1
_symmetry_Int_Tables_number       1
_symmetry_cell_setting            triclinic
loop_
_symmetry_equiv_pos_as_xyz
'x, y, z'
_cell_length_a     73.780351
_cell_length_b     76.550219
_cell_length_c     73.738086
_cell_angle_alpha  93.258114
_cell_angle_beta   95.019107
_cell_angle_gamma 98.553045
loop_
_atom_site_label
_atom_site_type_symbol
_atom_site_fract_x
_atom_site_fract_y
_atom_site_fract_z
_atom_type_partial_charge
In0 In 0.05436 0.27239 0.40128 0.0
O1 O 0.071 0.27151 0.37453 0.0
O2 O 0.08722 0.27542 0.39939 0.0
C3 C 0.01863 0.2714 0.38226 0.0
C4 C 0.05215 0.23865 0.41876 0.0
C5 C 0.0563 0.30769 0.41909 0.0
O6 O 0.03254 0.26779 0.37469 0.0
O7 O 0.02255 0.27514 0.3992 0.0
O8 O 0.05331 0.2934 0.42709 0.0
O9 O 0.05899 0.3043 0.40261 0.0
C10 C 0.08732 0.27377 0.38219 0.0
O11 O 0.05936 0.25361 0.42655 0.0
O12 O 0.04599 0.24064 0.40256 0.0
In13 In 0.03699 0.78156 0.63933 0.0
O14 O 0.03269 0.80019 0.61389 0.0
O15 O 0.04483 0.81343 0.63827 0.0
C16 C 0.03554 0.74649 0.6208 0.0
C17 C 0.0728 0.78414 0.65887 0.0
C18 C 1.0037 0.77971 0.65829 0.0
O19 O 0.03584 0.76073 0.61271 0.0
O20 O 0.0353 0.74976 0.63778 0.0
O21 O 0.01946 0.77799 0.66558 0.0
O22 O 1.00447 0.78224 0.64152 0.0
C23 C 0.03927 0.81526 0.62183 0.0
O24 O 0.05851 0.78706 0.66617 0.0
O25 O 0.06926 0.78042 0.64187 0.0
In26 In 0.55495 0.77294 0.90201 0.0
O27 O 0.57185 0.76852 0.87593 0.0
O28 O 0.58782 0.77924 0.89969 0.0
C29 C 0.51913 0.77119 0.88282 0.0
C30 C 0.5533 0.7394 0.91983 0.0
C31 C 0.55619 0.80833 0.91951 0.0
O32 O 0.53399 0.77256 0.87523 0.0
O33 O 0.52214 0.77025 0.89987 0.0
O34 O 0.55742 0.79455 0.92812 0.0
O35 O 0.55486 0.80443 0.90249 0.0
C36 C 0.58806 0.77413 0.88306 0.0
O37 O 0.55738 0.75468 0.92814 0.0
O38 O 0.55007 0.74095 0.9029 0.0
In39 In 0.53701 0.28219 0.14038 0.0
O40 O 0.53445 0.26097 0.11381 0.0
O41 O 0.53677 0.25056 0.13913 0.0
C42 C 0.53967 0.3161 0.12326 0.0
C43 C 0.50349 0.28017 0.15893 0.0
C44 C 0.57278 0.28501 0.15997 0.0
O45 O 0.53524 0.30097 0.11468 0.0
O46 O 0.54286 0.31423 0.14015 0.0
O47 O 0.55834 0.2873 0.16732 0.0
O48 O 0.5694 0.28181 0.14289 0.0
C49 C 0.53559 0.24699 0.12207 0.0
O50 O 0.51922 0.27853 0.16638 0.0
O51 O 0.50439 0.28262 0.14216 0.0
In52 In 0.07715 0.83271 0.14375 0.0
O53 O 0.06741 0.81466 0.11791 0.0
O54 O 0.091 0.80969 0.13426 0.0
C55 C 0.07174 0.85959 0.12294 0.0
C56 C 0.05119 0.8196 0.16486 0.0
C57 C 0.10608 0.84553 0.16822 0.0
O58 O 0.05863 0.8496 0.12867 0.0
O59 O 0.08752 0.85607 0.12778 0.0
O60 O 0.08967 0.84579 0.17161 0.0
O61 O 0.10784 0.83912 0.15246 0.0
C62 C 0.08 0.80528 0.12014 0.0
O63 O 0.06305 0.81071 0.15949 0.0
O64 O 0.05241 0.83506 0.15951 0.0
In65 In 0.50426 0.72744 0.39243 0.0
O66 O 0.51965 0.72015 0.36843 0.0
O67 O 0.53543 0.73046 0.39333 0.0
C68 C 0.47951 0.73379 0.36556 0.0
C69 C 0.49762 0.69951 0.41302 0.0
C70 C 0.50822 0.75605 0.41611 0.0
O71 O 0.49358 0.7447 0.37142 0.0
O72 O 0.47778 0.7194 0.37329 0.0
O73 O 0.49299 0.74618 0.41185 0.0
O74 O 0.52153 0.75163 0.40822 0.0
C75 C 0.53541 0.72486 0.37688 0.0
O76 O 0.49223 0.71405 0.41641 0.0
O77 O 0.50561 0.69867 0.39866 0.0
In78 In 0.58302 0.33057 0.6441 0.0
O79 O 0.57323 0.31414 0.61734 0.0
O80 O 0.59963 0.31194 0.63005 0.0
C81 C 0.58166 0.36135 0.62859 0.0
C82 C 0.55261 0.3211 0.66084 0.0
C83 C 0.60842 0.33085 0.67267 0.0
O84 O 0.56794 0.35268 0.63475 0.0
O85 O 0.59622 0.35457 0.63036 0.0
O86 O 0.59607 0.31781 0.6678 0.0
O87 O 0.60819 0.34389 0.66294 0.0
C88 C 0.58745 0.30689 0.61698 0.0
O89 O 0.56354 0.33528 0.66543 0.0
O90 O 0.55686 0.3119 0.64758 0.0
In91 In 1.00058 0.22266 0.88538 0.0
O92 O 0.99689 0.20777 0.91107 0.0
O93 O 0.01523 0.19964 0.89282 0.0
C94 C 0.99849 0.25524 0.90015 0.0
C95 C 0.03009 0.23238 0.86721 0.0
C96 C 0.969 0.20906 0.86505 0.0
O97 O 1.00421 0.24339 0.90927 0.0
O98 O 0.99337 0.25054 0.8836 0.0
O99 O 0.98463 0.20714 0.86034 0.0
O100 O 0.96925 0.21707 0.88053 0.0
C101 C 1.00851 0.19776 0.90783 0.0
O102 O 0.01438 0.22655 0.85917 0.0
O103 O 0.0309 0.23325 0.8844 0.0
In104 In 0.47044 0.09249 0.2983 0.0
O105 O 0.47673 0.08589 0.26936 0.0
O106 O 0.48751 0.07134 0.29043 0.0
C107 C 0.49576 0.10425 0.3266 0.0
C108 C 0.45779 0.12169 0.28705 0.0
C109 C 0.44319 0.06591 0.30331 0.0
O110 O 0.5 0.10097 0.31071 0.0
O111 O 0.47867 0.10249 0.32801 0.0
O112 O 0.44314 0.07457 0.28928 0.0
O113 O 0.45659 0.07111 0.31512 0.0
C114 C 0.48591 0.07382 0.27364 0.0
O115 O 0.45091 0.11282 0.29937 0.0
O116 O 0.47148 0.11619 0.28088 0.0
In117 In 0.31188 0.15306 0.5154 0.0
O118 O 0.31207 0.17868 0.53592 0.0
O119 O 0.31381 0.15492 0.54804 0.0
C120 C 0.3109 0.17103 0.48168 0.0
C121 C 0.3445 0.13571 0.51636 0.0
C122 C 0.27547 0.13379 0.51518 0.0
O123 O 0.31824 0.17816 0.49703 0.0
O124 O 0.30411 0.15506 0.4832 0.0
O125 O 0.28888 0.12715 0.50955 0.0
O126 O 0.28025 0.14991 0.52058 0.0
C127 C 0.31284 0.17122 0.55083 0.0
O128 O 0.32805 0.12773 0.51467 0.0
O129 O 0.34469 0.1523 0.51766 0.0
In130 In 0.19274 0.04219 0.8282 0.0
O131 O 0.16534 0.04433 0.8124 0.0
O132 O 0.1897 0.04912 0.79877 0.0
C133 C 0.17842 0.02914 0.85794 0.0
C134 C 0.21006 0.01649 0.81461 0.0
C135 C 0.20743 0.07633 0.83672 0.0
O136 O 0.16946 0.02793 0.84247 0.0
O137 O 0.19484 0.03682 0.85847 0.0
O138 O 0.21726 0.06444 0.834 0.0
O139 O 0.19038 0.07082 0.83588 0.0
C140 C 0.17242 0.04815 0.79787 0.0
O141 O 0.21878 0.03009 0.82373 0.0
O142 O 0.19282 0.01565 0.81313 0.0
In143 In 0.31014 0.87746 0.02865 0.0
O144 O 0.30916 0.85421 0.04772 0.0
O145 O 0.30804 0.87993 0.05925 0.0
C146 C 0.30503 0.8562 0.99682 0.0
C147 C 0.28533 0.90028 0.0277 0.0
C148 C 0.34409 0.89691 0.03059 0.0
O149 O 0.29185 0.85991 0.00532 0.0
O150 O 0.32064 0.86251 0.00471 0.0
O151 O 0.33063 0.90004 0.02016 0.0
O152 O 0.34061 0.88358 0.03978 0.0
C153 C 0.30811 0.86387 0.06197 0.0
O154 O 0.30207 0.90481 0.02547 0.0
O155 O 0.28083 0.88401 0.02982 0.0
In156 In 0.28152 0.40133 0.02557 0.0
O157 O 0.27919 0.3759 0.04372 0.0
O158 O 0.28457 0.40051 0.05829 0.0
C159 C 0.28107 0.38285 0.99029 0.0
C160 C 0.24908 0.41878 0.025 0.0
C161 C 0.31786 0.4207 0.02643 0.0
O162 O 0.27637 0.37536 0.00443 0.0
O163 O 0.28551 0.39935 0.99375 0.0
O164 O 0.3033 0.42703 0.0221 0.0
O165 O 0.31424 0.40491 0.03081 0.0
C166 C 0.28208 0.3839 0.05949 0.0
O167 O 0.2654 0.42631 0.02977 0.0
O168 O 0.2489 0.40253 0.0205 0.0
In169 In 0.78539 0.1845 0.01723 0.0
O170 O 0.80181 0.16255 0.00991 0.0
O171 O 0.81694 0.18701 0.02136 0.0
C172 C 0.75243 0.16294 0.01576 0.0
C173 C 0.78772 0.19907 0.05214 0.0
C174 C 0.78506 0.20146 0.98565 0.0
O175 O 0.76769 0.15766 0.01901 0.0
O176 O 0.75366 0.17926 0.01334 0.0
O177 O 0.78776 0.2098 0.00119 0.0
O178 O 0.78234 0.18486 0.98618 0.0
C179 C 0.81738 0.17141 0.01509 0.0
O180 O 0.78491 0.20788 0.03845 0.0
O181 O 0.78923 0.18316 0.04816 0.0
In182 In 0.12805 0.49625 0.26472 0.0
O183 O 0.13648 0.469 0.26133 0.0
O184 O 0.13427 0.47902 0.28831 0.0
C185 C 0.1602 0.51779 0.26323 0.0
C186 C 0.10684 0.4867 0.23304 0.0
C187 C 0.10855 0.51746 0.28279 0.0
O188 O 0.15673 0.50913 0.2769 0.0
O189 O 0.14758 0.51532 0.25022 0.0
O190 O 0.10528 0.50078 0.28287 0.0
O191 O 0.1216 0.52327 0.27378 0.0
C192 C 0.13826 0.46664 0.27811 0.0
O193 O 0.10012 0.48771 0.24815 0.0
O194 O 0.12417 0.49023 0.23401 0.0
In195 In 0.77837 0.89967 0.52548 0.0
O196 O 0.77691 0.87422 0.54361 0.0
O197 O 0.78083 0.89883 0.55817 0.0
C198 C 0.7785 0.88062 0.49062 0.0
C199 C 0.74577 0.91697 0.52459 0.0
C200 C 0.81446 0.91955 0.52622 0.0
O201 O 0.77282 0.87347 0.5046 0.0
O202 O 0.7837 0.89704 0.49407 0.0
O203 O 0.7999 0.92479 0.51973 0.0
O204 O 0.81092 0.90466 0.53281 0.0
C205 C 0.77916 0.88224 0.55938 0.0
O206 O 0.76185 0.92423 0.53074 0.0
O207 O 0.74592 0.90108 0.5189 0.0
In208 In 0.91151 0.00991 0.22556 0.0
O209 O 0.93808 0.0127 0.21203 0.0
O210 O 0.91547 0.02232 0.19834 0.0
C211 C 0.93599 0.01348 0.25531 0.0
C212 C 0.88808 0.03276 0.23214 0.0
C213 C 0.89292 0.97659 0.21858 0.0
O214 O 0.92568 0.99904 0.25021 0.0
O215 O 0.93345 0.02624 0.2458 0.0
O216 O 0.88609 0.989 0.22594 0.0
O217 O 0.90901 0.98101 0.21428 0.0
C218 C 0.93219 0.02046 0.19865 0.0
O219 O 0.89134 0.02809 0.2162 0.0
O220 O 0.89653 0.02578 0.24475 0.0
In221 In 0.2869 0.68312 0.51547 0.0
O222 O 0.30297 0.66033 0.51051 0.0
O223 O 0.31851 0.68593 0.51626 0.0
C224 C 0.2544 0.66108 0.5145 0.0
C225 C 0.28977 0.69711 0.55066 0.0
C226 C 0.28377 0.70064 0.4843 0.0
O227 O 0.26933 0.65581 0.5115 0.0
O228 O 0.25577 0.67759 0.51813 0.0
O229 O 0.29112 0.70832 0.49933 0.0
O230 O 0.27802 0.68441 0.48509 0.0
C231 C 0.31869 0.66963 0.51274 0.0
O232 O 0.28543 0.70569 0.53721 0.0
O233 O 0.29262 0.68165 0.54633 0.0
In234 In 0.40322 0.5051 0.71494 0.0
O235 O 0.38025 0.52071 0.70577 0.0
O236 O 0.39588 0.52841 0.73136 0.0
C237 C 0.38449 0.4728 0.70311 0.0
C238 C 0.42875 0.52157 0.69497 0.0
C239 C 0.4176 0.49606 0.74725 0.0
O240 O 0.37723 0.4845 0.71123 0.0
O241 O 0.401 0.47765 0.7002 0.0
O242 O 0.42447 0.49304 0.73253 0.0
O243 O 0.40346 0.50351 0.74562 0.0
C244 C 0.38293 0.53107 0.72004 0.0
O245 O 0.43167 0.52002 0.71183 0.0
O246 O 0.41288 0.51472 0.68799 0.0
In247 In 0.61831 0.99437 0.76541 0.0
O248 O 0.63463 0.97292 0.7569 0.0
O249 O 0.62442 0.97181 0.78295 0.0
C250 C 0.6449 0.02268 0.76621 0.0
C251 C 0.59797 0.99143 0.73292 0.0
C252 C 0.59902 1.00515 0.79204 0.0
O253 O 0.64855 0.00707 0.76556 0.0
O254 O 0.62802 0.0238 0.76583 0.0
O255 O 0.59116 0.99662 0.77761 0.0
O256 O 0.61633 0.0067 0.79356 0.0
C257 C 0.63369 0.96517 0.77151 0.0
O258 O 0.59546 0.97982 0.74432 0.0
O259 O 0.61084 1.00399 0.73778 0.0
In260 In 0.81491 0.65387 0.01617 0.0
O261 O 0.83145 0.62897 0.01322 0.0
O262 O 0.84763 0.65319 0.02141 0.0
C263 C 0.77863 0.63449 0.01581 0.0
C264 C 0.81502 0.6718 0.05152 0.0
C265 C 0.81413 0.67159 0.98231 0.0
O266 O 0.79264 0.6274 0.01275 0.0
O267 O 0.78277 0.6511 0.01872 0.0
O268 O 0.82124 0.67888 0.99767 0.0
O269 O 0.80758 0.65557 0.98387 0.0
C270 C 0.84771 0.63684 0.01771 0.0
O271 O 0.81559 0.67952 0.03677 0.0
O272 O 0.815 0.65534 0.04863 0.0
In273 In 0.96289 0.58877 0.7983 0.0
O274 O 0.94765 0.61242 0.80073 0.0
O275 O 0.96823 0.6133 0.78224 0.0
C276 C 0.93161 0.56722 0.80361 0.0
C277 C 0.97284 0.56809 0.77146 0.0
C278 C 0.99009 0.59493 0.82587 0.0
O279 O 0.93332 0.5757 0.78954 0.0
O280 O 0.94546 0.57004 0.81525 0.0
O281 O 0.9928 0.59008 0.80986 0.0
O282 O 0.97384 0.59742 0.8278 0.0
C283 C 0.95591 0.62077 0.78882 0.0
O284 O 0.96868 0.58324 0.76902 0.0
O285 O 0.97221 0.56342 0.78755 0.0
In286 In 0.80631 0.38134 0.52879 0.0
O287 O 0.80134 0.35816 0.54762 0.0
O288 O 0.8121 0.38379 0.55974 0.0
C289 C 0.80095 0.35925 0.4975 0.0
C290 C 0.78092 0.40361 0.52973 0.0
C291 C 0.8398 0.40139 0.52908 0.0
O292 O 0.78785 0.36441 0.50512 0.0
O293 O 0.81651 0.3645 0.50605 0.0
O294 O 0.82545 0.40521 0.52061 0.0
O295 O 0.83737 0.38721 0.53711 0.0
C296 C 0.80692 0.36774 0.56217 0.0
O297 O 0.79505 0.40651 0.52125 0.0
O298 O 0.77921 0.38917 0.53729 0.0
In299 In 0.67013 0.53567 0.31287 0.0
O300 O 0.69759 0.52551 0.31046 0.0
O301 O 0.67303 0.50932 0.29873 0.0
C302 C 0.68827 0.56873 0.31074 0.0
C303 C 0.63974 0.53652 0.29 0.0
C304 C 0.66103 0.52534 0.34579 0.0
O305 O 0.67973 0.56427 0.32425 0.0
O306 O 0.68749 0.5566 0.29828 0.0
O307 O 0.65012 0.52223 0.33149 0.0
O308 O 0.67672 0.53347 0.34352 0.0
C309 C 0.69033 0.51137 0.30136 0.0
O310 O 0.64345 0.54652 0.30449 0.0
O311 O 0.65145 0.52655 0.28707 0.0
Tb312 Tb 0.05482 0.05818 0.03374 0.0
Eu313 Eu 0.09642 0.06484 0.05663 0.0
C314 C 0.0888 0.04877 0.01503 0.0
C315 C 0.07097 0.02722 0.05211 0.0
C316 C 1.00787 0.06562 0.01585 0.0
C317 C 0.99722 0.09422 0.01614 0.0
C318 C 1.01166 0.08421 0.01738 0.0
C319 C 0.98956 0.05721 0.01322 0.0
C320 C 0.97515 0.06717 0.0121 0.0
C321 C 0.97875 0.08581 0.0135 0.0
C322 C 0.02266 0.05471 0.01768 0.0
O323 O 0.05354 0.07537 0.05781 0.0
O324 O 0.07541 0.06563 0.0769 0.0
O325 O 0.08976 0.09198 0.05176 0.0
O326 O 0.06958 0.08293 0.02617 0.0
C327 C 0.06022 0.07253 0.07425 0.0
O328 O 0.11484 0.05932 0.07967 0.0
O329 O 0.12567 0.07579 0.05902 0.0
O330 O 0.09949 0.06012 0.02681 0.0
O331 O 0.07132 0.04373 0.01709 0.0
O332 O 0.05653 0.03525 0.04954 0.0
O333 O 0.08769 0.03557 0.0514 0.0
C334 C 0.0803 0.09532 0.0368 0.0
O335 O 0.03755 0.05991 0.0099 0.0
O336 O 0.02644 0.04969 0.03398 0.0
C337 C 0.14285 0.05425 0.06936 0.0
C338 C 0.16709 0.02975 0.06335 0.0
C339 C 0.17222 0.0442 0.07641 0.0
C340 C 0.16012 0.05633 0.07946 0.0
C341 C 0.13787 0.04005 0.05611 0.0
C342 C 0.14983 0.0279 0.05316 0.0
C343 C 0.1296 0.06638 0.07263 0.0
H344 H 1.00054 0.10852 0.01713 0.0
H345 H 0.02574 0.09096 0.01959 0.0
H346 H 0.98638 0.04289 0.01224 0.0
H347 H 0.96116 0.0602 0.01049 0.0
H348 H 0.18542 0.0459 0.08451 0.0
H349 H 0.16417 0.06721 0.08975 0.0
H350 H 0.12464 0.03829 0.04807 0.0
H351 H 0.14559 0.01711 0.0428 0.0
Tb352 Tb 0.29301 0.81203 0.28715 0.0
Eu353 Eu 0.27737 0.77246 0.26679 0.0
C354 C 0.25337 0.80285 0.2698 0.0
C355 C 0.27894 0.7796 0.31039 0.0
C356 C 0.31581 0.85888 0.30251 0.0
C357 C 0.33189 0.88635 0.31795 0.0
C358 C 0.32087 0.86996 0.31846 0.0
C359 C 0.32208 0.86423 0.28597 0.0
C360 C 0.33314 0.8807 0.28543 0.0
C361 C 0.33809 0.89197 0.30143 0.0
C362 C 0.30342 0.8422 0.3036 0.0
O363 O 0.31698 0.80066 0.27988 0.0
O364 O 0.3048 0.77163 0.28186 0.0
O365 O 0.29168 0.78787 0.24567 0.0
O366 O 0.29358 0.81652 0.25809 0.0
C367 C 0.31905 0.78411 0.282 0.0
O368 O 0.2819 0.74932 0.25019 0.0
O369 O 0.25475 0.75097 0.25886 0.0
O370 O 0.25848 0.7914 0.25826 0.0
O371 O 0.26309 0.80732 0.28552 0.0
O372 O 0.29022 0.79446 0.30936 0.0
O373 O 0.27001 0.77058 0.29576 0.0
C374 C 0.29454 0.80509 0.24424 0.0
O375 O 0.28938 0.83856 0.29126 0.0
O376 O 0.31109 0.82831 0.30694 0.0
C377 C 0.26355 0.72262 0.25547 0.0
C378 C 0.25958 0.68684 0.26346 0.0
C379 C 0.26138 0.6916 0.24549 0.0
C380 C 0.26332 0.70936 0.24155 0.0
C381 C 0.26224 0.71802 0.27352 0.0
C382 C 0.26018 0.70023 0.27747 0.0
C383 C 0.26518 0.74113 0.25086 0.0
H384 H 0.33518 0.89479 0.33045 0.0
H385 H 0.31605 0.86605 0.33132 0.0
H386 H 0.3183 0.85577 0.27352 0.0
H387 H 0.33784 0.8846 0.27253 0.0
H388 H 0.26071 0.68157 0.23438 0.0
H389 H 0.26439 0.71272 0.22756 0.0
H390 H 0.26262 0.72815 0.28448 0.0
H391 H 0.25896 0.69694 0.29145 0.0
Tb392 Tb 0.53325 0.0102 0.51146 0.0
Eu393 Eu 0.55964 0.04576 0.52741 0.0
C394 C 0.54147 0.01852 0.55342 0.0
C395 C 0.51462 0.04585 0.51927 0.0
C396 C 0.51389 0.96305 0.50008 0.0
C397 C 0.49936 0.93257 0.49386 0.0
C398 C 0.49847 0.95063 0.49368 0.0
C399 C 0.53011 0.95732 0.50714 0.0
C400 C 0.53104 0.93924 0.50726 0.0
C401 C 0.51572 0.92669 0.50043 0.0
C402 C 0.51301 0.98191 0.49895 0.0
O403 O 0.53514 0.02799 0.48957 0.0
O404 O 0.56451 0.04029 0.49829 0.0
O405 O 0.57886 0.02462 0.52969 0.0
O406 O 0.56149 1.00231 0.51083 0.0
C407 C 0.55074 0.03673 0.48569 0.0
O408 O 0.57462 0.07107 0.52158 0.0
O409 O 0.57739 0.06235 0.54906 0.0
O410 O 0.54468 0.03538 0.55065 0.0
O411 O 0.54081 0.00649 0.53993 0.0
O412 O 0.5128 0.02825 0.5174 0.0
O413 O 0.5314 0.0553 0.52132 0.0
C414 C 0.57741 0.00906 0.52041 0.0
O415 O 0.51082 0.99052 0.51418 0.0
O416 O 0.52555 0.99061 0.49005 0.0
C417 C 0.58157 0.09317 0.54535 0.0
C418 C 0.5815 0.12935 0.55413 0.0
C419 C 0.59812 0.1229 0.55196 0.0
C420 C 0.59813 0.10496 0.54763 0.0
C421 C 0.56496 0.09934 0.54793 0.0
C422 C 0.56493 0.11734 0.55236 0.0
C423 C 0.58183 0.07499 0.53835 0.0
H424 H 0.48743 0.92322 0.48825 0.0
H425 H 0.48586 0.9549 0.48821 0.0
H426 H 0.5421 0.96683 0.51227 0.0
H427 H 0.54378 0.93507 0.51251 0.0
H428 H 0.61108 0.13181 0.55292 0.0
H429 H 0.61103 0.10037 0.54543 0.0
H430 H 0.55203 0.09033 0.54605 0.0
H431 H 0.55193 0.12187 0.55417 0.0
Tb432 Tb 0.27695 0.27987 0.76442 0.0
Eu433 Eu 0.3176 0.2725 0.77836 0.0
C434 C 0.31188 0.30482 0.75461 0.0
C435 C 0.29965 0.25895 0.73645 0.0
C436 C 0.22757 0.28262 0.76209 0.0
C437 C 0.19523 0.28528 0.76159 0.0
C438 C 0.21192 0.28835 0.75381 0.0
C439 C 0.22649 0.27377 0.77818 0.0
C440 C 0.20986 0.27068 0.78594 0.0
C441 C 0.19406 0.27645 0.77776 0.0
C442 C 0.24508 0.28592 0.75408 0.0
O443 O 0.2717 0.25377 0.77478 0.0
O444 O 0.29866 0.2536 0.79269 0.0
O445 O 0.31005 0.29183 0.80063 0.0
O446 O 0.27873 0.28682 0.79451 0.0
C447 C 0.28153 0.24693 0.78741 0.0
O448 O 0.33712 0.25443 0.78449 0.0
O449 O 0.34548 0.28274 0.79026 0.0
O450 O 0.3219 0.29232 0.7573 0.0
O451 O 0.29551 0.30383 0.76041 0.0
O452 O 0.28714 0.26948 0.7388 0.0
O453 O 0.31121 0.25642 0.7505 0.0
C454 C 0.29356 0.29336 0.80572 0.0
O455 O 0.25771 0.2975 0.76331 0.0
O456 O 0.25163 0.2718 0.74877 0.0
C457 C 0.36752 0.26641 0.78039 0.0
C458 C 0.40006 0.2683 0.76306 0.0
C459 C 0.40078 0.26947 0.78222 0.0
C460 C 0.38458 0.26852 0.79082 0.0
C461 C 0.36669 0.26477 0.76129 0.0
C462 C 0.38285 0.26564 0.75268 0.0
C463 C 0.35076 0.26721 0.78937 0.0
H464 H 0.18333 0.29002 0.75509 0.0
H465 H 0.21261 0.29525 0.7414 0.0
H466 H 0.23851 0.26924 0.7847 0.0
H467 H 0.20932 0.26361 0.79825 0.0
H468 H 0.41387 0.27141 0.79052 0.0
H469 H 0.38538 0.26987 0.80559 0.0
H470 H 0.35357 0.26331 0.75305 0.0
H471 H 0.3819 0.26496 0.73791 0.0
Tb472 Tb 0.04533 0.01706 0.501 0.0
Eu473 Eu 0.04297 0.03686 0.53958 0.0
C474 C 0.0828 0.04009 0.52183 0.0
C475 C 0.04765 0.99385 0.5372 0.0
C476 C 0.05122 0.00679 0.45181 0.0
C477 C 0.05813 0.99688 0.42173 0.0
C478 C 0.05701 0.99406 0.44017 0.0
C479 C 0.04814 0.02303 0.44519 0.0
C480 C 0.04903 0.02578 0.42672 0.0
C481 C 0.05319 0.01237 0.41461 0.0
C482 C 0.04603 1.00198 0.46985 0.0
O483 O 0.01668 0.00718 0.50715 0.0
O484 O 1.01264 0.02719 0.52994 0.0
O485 O 0.03972 0.05918 0.52021 0.0
O486 O 0.04326 0.04488 0.49295 0.0
C487 C 1.00587 0.01357 0.51838 0.0
O488 O 0.03094 0.03781 0.56554 0.0
O489 O 0.05095 0.05961 0.55932 0.0
O490 O 0.07406 0.04198 0.53655 0.0
O491 O 0.07401 0.03125 0.5069 0.0
O492 O 0.04839 0.99489 0.51932 0.0
O493 O 0.04646 0.0084 0.54745 0.0
C494 C 0.04144 0.05972 0.50252 0.0
O495 O 0.05926 1.00267 0.48294 0.0
O496 O 0.03188 0.00847 0.47528 0.0
C497 C 0.05077 0.05275 0.5898 0.0
C498 C 0.06942 0.05315 0.62469 0.0
C499 C 0.0546 0.06262 0.62188 0.0
C500 C 0.04535 0.06244 0.60451 0.0
C501 C 0.06541 0.04316 0.59252 0.0
C502 C 0.07469 0.04336 0.60985 0.0
C503 C 0.04112 0.05268 0.57165 0.0
H504 H 0.06181 0.98647 0.41285 0.0
H505 H 0.05962 0.98152 0.44511 0.0
H506 H 0.04381 0.03312 0.45401 0.0
H507 H 0.04505 0.03784 0.42178 0.0
H508 H 0.05037 0.0704 0.63304 0.0
H509 H 0.03404 0.0699 0.60254 0.0
H510 H 0.06965 0.03553 0.58124 0.0
H511 H 0.08589 0.03575 0.61168 0.0
Tb512 Tb 0.28828 0.75961 0.77765 0.0
Eu513 Eu 0.30262 0.79965 0.76843 0.0
C514 C 0.29122 0.78997 0.80786 0.0
C515 C 0.25909 0.78256 0.75803 0.0
C516 C 0.28331 0.71091 0.77854 0.0
C517 C 0.28568 0.68038 0.7842 0.0
C518 C 0.28029 0.69654 0.78942 0.0
C519 C 0.29185 0.709 0.76242 0.0
C520 C 0.29709 0.69285 0.75712 0.0
C521 C 0.29405 0.67837 0.76794 0.0
C522 C 0.27743 0.72779 0.78392 0.0
O523 O 0.30176 0.75699 0.75257 0.0
O524 O 0.2972 0.7834 0.74164 0.0
O525 O 0.32952 0.7891 0.77668 0.0
O526 O 0.31757 0.76408 0.78997 0.0
C527 C 0.30017 0.76707 0.73884 0.0
O528 O 0.31753 0.81888 0.75196 0.0
O529 O 0.30542 0.82772 0.77601 0.0
O530 O 0.30368 0.79882 0.79894 0.0
O531 O 0.28009 0.77628 0.79967 0.0
O532 O 0.26393 0.767 0.76148 0.0
O533 O 0.27107 0.79724 0.76229 0.0
C534 C 0.33193 0.77588 0.78698 0.0
O535 O 0.28908 0.73872 0.795 0.0
O536 O 0.2703 0.73587 0.77067 0.0
C537 C 0.30713 0.84677 0.7523 0.0
C538 C 0.2944 0.87808 0.74242 0.0
C539 C 0.31334 0.877 0.74366 0.0
C540 C 0.31966 0.86148 0.74869 0.0
C541 C 0.28818 0.84715 0.74928 0.0
C542 C 0.28185 0.8627 0.74444 0.0
C543 C 0.31392 0.83241 0.76185 0.0
H544 H 0.28311 0.6694 0.79275 0.0
H545 H 0.27372 0.69781 0.80191 0.0
H546 H 0.29443 0.71999 0.75391 0.0
H547 H 0.30378 0.69177 0.74469 0.0
H548 H 0.32335 0.88848 0.74181 0.0
H549 H 0.33435 0.86133 0.75085 0.0
H550 H 0.2783 0.83586 0.75195 0.0
H551 H 0.26718 0.86301 0.74375 0.0
Tb552 Tb 0.55694 0.02338 0.03681 0.0
Eu553 Eu 0.53643 0.03375 0.99934 0.0
C554 C 0.54971 0.99407 0.00158 0.0
C555 C 0.57948 0.0452 0.00939 0.0
C556 C 0.56902 0.014 0.08467 0.0
C557 C 0.57861 0.01209 0.1167 0.0
C558 C 0.58297 0.01355 0.09872 0.0
C559 C 0.55068 0.01297 0.08869 0.0
C560 C 0.54631 0.01134 0.10657 0.0
C561 C 0.56022 0.01088 0.12074 0.0
C562 C 0.5735 0.01503 0.06578 0.0
O563 O 0.55211 0.05119 0.04469 0.0
O564 O 0.53598 0.05848 0.01883 0.0
O565 O 0.51545 0.01554 0.01211 0.0
O566 O 0.52802 0.01824 0.04181 0.0
C567 C 0.54354 0.06281 0.03579 0.0
O568 O 0.51296 0.04357 0.98526 0.0
O569 O 0.53402 0.03432 0.96991 0.0
O570 O 0.54519 0.00663 0.99113 0.0
O571 O 0.55317 0.99777 0.01947 0.0
O572 O 0.57861 0.03148 0.01933 0.0
O573 O 0.56447 0.05018 0.00206 0.0
C574 C 0.51409 0.0132 0.02938 0.0
O575 O 0.56299 1.00381 0.05404 0.0
O576 O 0.57617 0.0308 0.05981 0.0
C577 C 0.51838 0.05612 0.95712 0.0
C578 C 0.51795 0.0762 0.92638 0.0
C579 C 0.50136 0.06774 0.93211 0.0
C580 C 0.50162 0.05761 0.94728 0.0
C581 C 0.53458 0.06655 0.95304 0.0
C582 C 0.53439 0.07648 0.93777 0.0
C583 C 0.51911 0.04169 0.96931 0.0
H584 H 0.58956 0.0118 0.12742 0.0
H585 H 0.59718 0.01429 0.09578 0.0
H586 H 0.53974 0.01338 0.07799 0.0
H587 H 0.53207 0.01082 0.10936 0.0
H588 H 0.48839 0.06764 0.92397 0.0
H589 H 0.48891 0.04984 0.95045 0.0
H590 H 0.54765 0.06581 0.96067 0.0
H591 H 0.54749 0.08277 0.93393 0.0
Tb592 Tb 0.30285 0.29473 0.28037 0.0
Eu593 Eu 0.28713 0.25759 0.25933 0.0
C594 C 0.30137 0.25946 0.30321 0.0
C595 C 0.33075 0.27541 0.25659 0.0
C596 C 0.30085 0.33743 0.30414 0.0
C597 C 0.28828 0.3646 0.29954 0.0
C598 C 0.3017 0.35394 0.29664 0.0
C599 C 0.28712 0.33238 0.31576 0.0
C600 C 0.27381 0.34315 0.31883 0.0
C601 C 0.27389 0.35902 0.31019 0.0
C602 C 0.31243 0.32469 0.29756 0.0
O603 O 0.29169 0.30292 0.25334 0.0
O604 O 0.28831 0.27668 0.23628 0.0
O605 O 0.26108 0.26478 0.27146 0.0
O606 O 0.27393 0.29037 0.28831 0.0
C607 C 0.28924 0.29405 0.23708 0.0
O608 O 0.27066 0.2416 0.23637 0.0
O609 O 0.2856 0.22899 0.25713 0.0
O610 O 0.29073 0.25073 0.2893 0.0
O611 O 0.30992 0.27566 0.30106 0.0
O612 O 0.32744 0.28968 0.26609 0.0
O613 O 0.31804 0.26109 0.25446 0.0
C614 C 0.25959 0.27777 0.28364 0.0
O615 O 0.31156 0.30977 0.30525 0.0
O616 O 0.31169 0.32211 0.27994 0.0
C617 C 0.28651 0.21839 0.22734 0.0
C618 C 0.31435 0.20089 0.21483 0.0
C619 C 0.2975 0.19116 0.2186 0.0
C620 C 0.28376 0.19988 0.2251 0.0
C621 C 0.30196 0.22808 0.22077 0.0
C622 C 0.31584 0.21941 0.21461 0.0
C623 C 0.27681 0.22715 0.24086 0.0
H624 H 0.2887 0.37688 0.29286 0.0
H625 H 0.31214 0.35812 0.28765 0.0
H626 H 0.28601 0.31969 0.3217 0.0
H627 H 0.26278 0.33851 0.32699 0.0
H628 H 0.29569 0.17684 0.21835 0.0
H629 H 0.27189 0.19219 0.23006 0.0
H630 H 0.3043 0.24242 0.22235 0.0
H631 H 0.32852 0.22739 0.21175 0.0
Tb632 Tb 0.54886 0.5191 0.00425 0.0
Eu633 Eu 0.54727 0.53876 0.04308 0.0
C634 C 0.58619 0.54187 0.02405 0.0
C635 C 0.55084 0.4957 0.04057 0.0
C636 C 0.53804 0.50035 0.95595 0.0
C637 C 0.53513 0.49589 0.92295 0.0
C638 C 0.54611 0.49894 0.93955 0.0
C639 C 0.51881 0.49875 0.9556 0.0
C640 C 0.50779 0.49558 0.939 0.0
C641 C 0.51583 0.49411 0.92247 0.0
C642 C 0.54989 0.50347 0.97321 0.0
O643 O 0.51855 0.51572 0.00647 0.0
O644 O 0.51873 0.52204 0.03714 0.0
O645 O 0.54365 0.56113 0.02376 0.0
O646 O 0.546 0.54673 0.99621 0.0
C647 C 0.50987 0.51512 0.02148 0.0
O648 O 0.53315 0.55408 0.06166 0.0
O649 O 0.56031 0.5479 0.07019 0.0
O650 O 0.57608 0.54912 0.03529 0.0
O651 O 0.57867 0.52767 0.01341 0.0
O652 O 0.55038 0.49666 0.02258 0.0
O653 O 0.55115 0.51045 0.05106 0.0
C654 C 0.54463 0.56161 0.00593 0.0
O655 O 0.55736 0.51975 0.97773 0.0
O656 O 0.54352 0.49574 0.98708 0.0
C657 C 0.54066 0.55118 0.09306 0.0
C658 C 0.53538 0.54382 0.12934 0.0
C659 C 0.54062 0.56133 0.12476 0.0
C660 C 0.54323 0.56495 0.10676 0.0
C661 C 0.53446 0.5338 0.09726 0.0
C662 C 0.53178 0.53015 0.11529 0.0
C663 C 0.54624 0.555 0.07496 0.0
H664 H 0.54179 0.49518 0.91047 0.0
H665 H 0.56094 0.50025 0.93959 0.0
H666 H 0.51231 0.49987 0.96815 0.0
H667 H 0.49298 0.4941 0.93915 0.0
H668 H 0.54381 0.57215 0.1352 0.0
H669 H 0.5481 0.57843 0.1037 0.0
H670 H 0.5324 0.52301 0.08675 0.0
H671 H 0.52754 0.51655 0.11834 0.0
Tb672 Tb 0.78809 0.26129 0.27906 0.0
Eu673 Eu 0.80207 0.30164 0.27033 0.0
C674 C 0.79072 0.29147 0.30943 0.0
C675 C 0.75871 0.28399 0.2596 0.0
C676 C 0.78489 0.21303 0.28213 0.0
C677 C 0.78434 0.18176 0.28626 0.0
C678 C 0.77791 0.19769 0.2903 0.0
C679 C 0.79853 0.21241 0.27011 0.0
C680 C 0.80484 0.19651 0.26597 0.0
C681 C 0.79771 0.18099 0.27389 0.0
C682 C 0.77755 0.22953 0.28566 0.0
O683 O 0.80159 0.25896 0.25399 0.0
O684 O 0.79741 0.28562 0.24337 0.0
O685 O 0.82913 0.29166 0.27911 0.0
O686 O 0.81769 0.26527 0.29035 0.0
C687 C 0.80026 0.26926 0.24043 0.0
O688 O 0.8169 0.32132 0.25429 0.0
O689 O 0.804 0.32961 0.27804 0.0
O690 O 0.80336 0.30036 0.30077 0.0
O691 O 0.77957 0.27798 0.30091 0.0
O692 O 0.76371 0.26844 0.26282 0.0
O693 O 0.77049 0.29873 0.26415 0.0
C694 C 0.83178 0.27773 0.28826 0.0
O695 O 0.78751 0.24118 0.29743 0.0
O696 O 0.77179 0.23679 0.27116 0.0
C697 C 0.80534 0.3486 0.25431 0.0
C698 C 0.79076 0.37871 0.24348 0.0
C699 C 0.80994 0.37905 0.24612 0.0
C700 C 0.81716 0.36411 0.25162 0.0
C701 C 0.78632 0.34765 0.25004 0.0
C702 C 0.77907 0.3626 0.24472 0.0
C703 C 0.81265 0.33462 0.26407 0.0
H704 H 0.77857 0.16997 0.29249 0.0
H705 H 0.76736 0.19799 0.2996 0.0
H706 H 0.80415 0.2242 0.26378 0.0
H707 H 0.81536 0.19636 0.25661 0.0
H708 H 0.81934 0.39113 0.24491 0.0
H709 H 0.83191 0.365 0.25478 0.0
H710 H 0.77699 0.33572 0.25203 0.0
H711 H 0.76424 0.36183 0.24297 0.0
Tb712 Tb 0.0555 0.52282 0.53594 0.0
Eu713 Eu 0.03804 0.53405 0.49709 0.0
C714 C 0.04992 0.49376 0.50031 0.0
C715 C 0.08123 0.54398 0.51003 0.0
C716 C 0.06106 0.51217 0.58396 0.0
C717 C 0.06375 0.50381 0.61519 0.0
C718 C 0.07127 0.50612 0.59857 0.0
C719 C 0.04333 0.51597 0.58606 0.0
C720 C 0.03576 0.51352 0.60254 0.0
C721 C 0.04585 0.50733 0.61723 0.0
C722 C 0.06827 0.51336 0.56616 0.0
O723 O 0.05104 0.55078 0.54335 0.0
O724 O 0.03734 0.55881 0.5165 0.0
O725 O 0.01523 0.51655 0.50818 0.0
O726 O 0.026 0.51848 0.5384 0.0
C727 C 0.04367 0.56277 0.53389 0.0
O728 O 0.01669 0.54555 0.48138 0.0
O729 O 0.03767 0.53423 0.46771 0.0
O730 O 0.04499 0.50604 0.48973 0.0
O731 O 0.05377 0.4977 0.51814 0.0
O732 O 0.07938 0.53147 0.52149 0.0
O733 O 0.06699 0.54853 0.50064 0.0
C734 C 1.01274 0.51396 0.5252 0.0
O735 O 0.05883 0.5026 0.55331 0.0
O736 O 0.07234 0.52922 0.5607 0.0
C737 C 0.0249 0.557 0.45338 0.0
C738 C 0.02786 0.57666 0.42243 0.0
C739 C 1.01046 0.56929 0.42725 0.0
C740 C 1.00902 0.55942 0.44255 0.0
C741 C 0.04204 0.56615 0.44994 0.0
C742 C 0.04352 0.5759 0.43455 0.0
C743 C 0.02363 0.54279 0.46598 0.0
H744 H 0.07179 0.49903 0.62633 0.0
H745 H 0.08494 0.503 0.59706 0.0
H746 H 0.03527 0.52065 0.57488 0.0
H747 H 0.02208 0.51668 0.60387 0.0
H748 H 0.9981 0.56994 0.41838 0.0
H749 H 0.99564 0.55259 0.44513 0.0
H750 H 0.05447 0.56462 0.45828 0.0
H751 H 0.05715 0.58134 0.43129 0.0
Tb752 Tb 0.77659 0.77782 0.26518 0.0
Eu753 Eu 0.81657 0.76919 0.27978 0.0
C754 C 0.81228 0.8035 0.25799 0.0
C755 C 0.79963 0.75825 0.23693 0.0
C756 C 0.72749 0.7778 0.26459 0.0
C757 C 0.69468 0.77672 0.26628 0.0
C758 C 0.71053 0.782 0.25761 0.0
C759 C 0.7285 0.76818 0.28018 0.0
C760 C 0.71275 0.76293 0.28882 0.0
C761 C 0.6957 0.76724 0.28206 0.0
C762 C 0.74428 0.78324 0.25586 0.0
O763 O 0.77188 0.75052 0.27196 0.0
O764 O 0.79636 0.7502 0.293 0.0
O765 O 0.8092 0.78808 0.30244 0.0
O766 O 0.77801 0.78366 0.29549 0.0
C767 C 0.77997 0.74329 0.28545 0.0
O768 O 0.83535 0.75008 0.28448 0.0
O769 O 0.84422 0.7778 0.29313 0.0
O770 O 0.82238 0.79106 0.26101 0.0
O771 O 0.79513 0.80184 0.26183 0.0
O772 O 0.7876 0.76928 0.23934 0.0
O773 O 0.81037 0.75461 0.25113 0.0
C774 C 0.79265 0.78987 0.3071 0.0
O775 O 0.75664 0.79474 0.26558 0.0
O776 O 0.75156 0.77026 0.24886 0.0
C777 C 0.86617 0.76195 0.28211 0.0
C778 C 0.89942 0.76364 0.2659 0.0
C779 C 0.89859 0.75927 0.28412 0.0
C780 C 0.88205 0.75844 0.29217 0.0
C781 C 0.8668 0.76595 0.26385 0.0
C782 C 0.8833 0.7668 0.2558 0.0
C783 C 0.84915 0.76221 0.29082 0.0
H784 H 0.68173 0.78031 0.26086 0.0
H785 H 0.70958 0.78941 0.24556 0.0
H786 H 0.7415 0.76474 0.28568 0.0
H787 H 0.71392 0.75539 0.30075 0.0
H788 H 0.91074 0.75661 0.29218 0.0
H789 H 0.88171 0.75533 0.3063 0.0
H790 H 0.85462 0.76878 0.25594 0.0
H791 H 0.88353 0.77049 0.24185 0.0
Tb792 Tb 0.80962 0.31031 0.78751 0.0
Eu793 Eu 0.78912 0.2724 0.76695 0.0
C794 C 0.76724 0.30301 0.77802 0.0
C795 C 0.79649 0.27732 0.8105 0.0
C796 C 0.82684 0.35837 0.80295 0.0
C797 C 0.83396 0.38494 0.78676 0.0
C798 C 0.83085 0.36645 0.78683 0.0
C799 C 0.82533 0.36895 0.81871 0.0
C800 C 0.82835 0.38736 0.81863 0.0
C801 C 0.83308 0.39559 0.80277 0.0
C802 C 0.82507 0.3391 0.80417 0.0
O803 O 0.82871 0.29136 0.79008 0.0
O804 O 0.81906 0.27611 0.76285 0.0
O805 O 0.78942 0.29174 0.74527 0.0
O806 O 0.81247 0.31361 0.75838 0.0
C807 C 0.83153 0.28042 0.77668 0.0
O808 O 0.79163 0.2464 0.75486 0.0
O809 O 0.76484 0.2549 0.75392 0.0
O810 O 0.76794 0.28615 0.77955 0.0
O811 O 0.78228 0.31424 0.77681 0.0
O812 O 0.79872 0.2946 0.80923 0.0
O813 O 0.79541 0.26622 0.79605 0.0
C814 C 0.80157 0.30591 0.74406 0.0
O815 O 0.8089 0.33102 0.80721 0.0
O816 O 0.83284 0.33004 0.79236 0.0
C817 C 0.76626 0.22442 0.75589 0.0
C818 C 0.75355 0.1903 0.76612 0.0
C819 C 0.76019 0.19267 0.749 0.0
C820 C 0.76647 0.20961 0.74393 0.0
C821 C 0.75973 0.22219 0.77305 0.0
C822 C 0.75329 0.20522 0.77809 0.0
C823 C 0.77398 0.2419 0.75063 0.0
H824 H 0.8377 0.39087 0.77436 0.0
H825 H 0.832 0.35853 0.77446 0.0
H826 H 0.82215 0.36295 0.83125 0.0
H827 H 0.82724 0.39517 0.83109 0.0
H828 H 0.7603 0.18142 0.73942 0.0
H829 H 0.77163 0.21114 0.7307 0.0
H830 H 0.75977 0.23352 0.78256 0.0
H831 H 0.74833 0.20373 0.7914 0.0
Tb832 Tb 0.80356 0.79414 0.78048 0.0
Eu833 Eu 0.78772 0.75702 0.75971 0.0
C834 C 0.80252 0.75911 0.80345 0.0
C835 C 0.8313 0.77469 0.75664 0.0
C836 C 0.80205 0.83761 0.80266 0.0
C837 C 0.79259 0.8662 0.79799 0.0
C838 C 0.80548 0.85467 0.7965 0.0
C839 C 0.78614 0.83272 0.81153 0.0
C840 C 0.77328 0.84425 0.81307 0.0
C841 C 0.77606 0.86085 0.80571 0.0
C842 C 0.81344 0.82427 0.79724 0.0
O843 O 0.79144 0.80211 0.75371 0.0
O844 O 0.78902 0.77604 0.73661 0.0
O845 O 0.76159 0.76449 0.77149 0.0
O846 O 0.77482 0.78961 0.78893 0.0
C847 C 0.78935 0.79333 0.73743 0.0
O848 O 0.77146 0.74087 0.73673 0.0
O849 O 0.78601 0.72839 0.7579 0.0
O850 O 0.79147 0.75045 0.78977 0.0
O851 O 0.81125 0.77517 0.80101 0.0
O852 O 0.828 0.78903 0.76601 0.0
O853 O 0.8186 0.76035 0.75471 0.0
C854 C 0.76029 0.77727 0.784 0.0
O855 O 0.81137 0.80953 0.80528 0.0
O856 O 0.81361 0.82128 0.77976 0.0
C857 C 0.78774 0.71777 0.72828 0.0
C858 C 0.81707 0.70162 0.7172 0.0
C859 C 0.8008 0.69122 0.72149 0.0
C860 C 0.78629 0.6993 0.72723 0.0
C861 C 0.80262 0.72787 0.72116 0.0
C862 C 0.81722 0.71985 0.71567 0.0
C863 C 0.7776 0.72647 0.74145 0.0
H864 H 0.7952 0.87904 0.79243 0.0
H865 H 0.81764 0.85871 0.7896 0.0
H866 H 0.78308 0.81962 0.81639 0.0
H867 H 0.76063 0.83967 0.81896 0.0
H868 H 0.80007 0.67705 0.72229 0.0
H869 H 0.77492 0.69129 0.73266 0.0
H870 H 0.80399 0.74219 0.72185 0.0
H871 H 0.82944 0.72828 0.71234 0.0
Tb872 Tb 0.55592 0.55688 0.53322 0.0
Eu873 Eu 0.59747 0.56912 0.5549 0.0
C874 C 0.59016 0.54788 0.51504 0.0
C875 C 0.57591 0.52968 0.55463 0.0
C876 C 0.50845 0.56215 0.51558 0.0
C877 C 0.49721 0.59006 0.51086 0.0
C878 C 0.51177 0.58021 0.5123 0.0
C879 C 0.49045 0.55419 0.51757 0.0
C880 C 0.47594 0.56402 0.51628 0.0
C881 C 0.47907 0.58208 0.51283 0.0
C882 C 0.52353 0.55148 0.51761 0.0
O883 O 0.55354 0.57506 0.55624 0.0
O884 O 0.577 0.56879 0.57582 0.0
O885 O 0.5862 0.59399 0.54796 0.0
O886 O 0.57026 0.57999 0.52208 0.0
C887 C 0.5607 0.57358 0.57288 0.0
O888 O 0.61768 0.56759 0.57801 0.0
O889 O 0.62537 0.58369 0.55583 0.0
O890 O 0.60043 0.56071 0.5256 0.0
O891 O 0.57306 0.54199 0.51794 0.0
O892 O 0.56024 0.53538 0.55037 0.0
O893 O 0.59188 0.53951 0.55355 0.0
C894 C 0.57747 0.59456 0.53182 0.0
O895 O 0.53812 0.55645 0.5093 0.0
O896 O 0.52783 0.54716 0.53409 0.0
C897 C 0.64663 0.5657 0.56762 0.0
C898 C 0.67187 0.54174 0.56295 0.0
C899 C 0.66368 0.54901 0.5478 0.0
C900 C 0.65114 0.56078 0.55009 0.0
C901 C 0.65536 0.55901 0.58283 0.0
C902 C 0.66782 0.54711 0.58052 0.0
C903 C 0.63123 0.57575 0.56994 0.0
H904 H 0.50015 0.60388 0.50804 0.0
H905 H 0.5256 0.58674 0.51089 0.0
H906 H 0.48762 0.54034 0.52032 0.0
H907 H 0.46229 0.55749 0.51831 0.0
H908 H 0.66631 0.545 0.53408 0.0
H909 H 0.64448 0.56548 0.53804 0.0
H910 H 0.65203 0.56248 0.59646 0.0
H911 H 0.67405 0.54187 0.59248 0.0
Tb912 Tb 0.0369 0.5122 0.01705 0.0
Eu913 Eu 0.0635 0.5479 0.03346 0.0
C914 C 0.04831 0.51829 0.05819 0.0
C915 C 0.01823 0.54762 0.02542 0.0
C916 C 0.01692 0.46771 0.99414 0.0
C917 C 1.001 0.44249 0.97473 0.0
C918 C 1.00082 0.45868 0.98434 0.0
C919 C 0.0334 0.46065 0.99383 0.0
C920 C 0.03357 0.44437 0.9843 0.0
C921 C 0.0173 0.43504 0.97485 0.0
C922 C 0.01596 0.48401 0.00518 0.0
O923 O 0.0502 0.52271 0.99384 0.0
O924 O 0.056 0.55185 0.00428 0.0
O925 O 0.08407 0.52909 0.02642 0.0
O926 O 0.06439 0.50272 0.02059 0.0
C927 C 0.0541 0.53955 0.99095 0.0
O928 O 0.08679 0.56864 0.03152 0.0
O929 O 0.0719 0.56812 0.05576 0.0
O930 O 0.06333 0.52804 0.05443 0.0
O931 O 0.03391 0.51542 0.04616 0.0
O932 O 0.01728 0.53186 0.01656 0.0
O933 O 0.03407 0.55524 0.03447 0.0
C934 C 0.08148 0.51162 0.02321 0.0
O935 O 0.02552 0.48615 0.02108 0.0
O936 O 0.01731 0.49856 0.99671 0.0
C937 C 0.0846 0.59605 0.04657 0.0
C938 C 0.08552 0.63296 0.0469 0.0
C939 C 0.06862 0.62156 0.04626 0.0
C940 C 0.06815 0.60324 0.04602 0.0
C941 C 0.10141 0.6073 0.04674 0.0
C942 C 0.10189 0.6256 0.04685 0.0
C943 C 0.08453 0.57691 0.04695 0.0
H944 H 0.98822 0.43551 0.96775 0.0
H945 H 0.98799 0.46397 0.98447 0.0
H946 H 0.04601 0.46753 0.00122 0.0
H947 H 0.04636 0.439 0.98446 0.0
H948 H 0.05578 0.62679 0.0465 0.0
H949 H 0.05499 0.59473 0.04569 0.0
H950 H 0.11421 0.60193 0.04694 0.0
H951 H 0.1151 0.63398 0.04701 0.0
C952 C 0.0313 0.1788 0.91852 0.0
C953 C 0.01591 0.1869 0.92168 0.0
C954 C 0.04032 0.17094 0.93253 0.0
C955 C 0.04654 0.17143 0.98289 0.0
H956 H 0.06687 0.12845 0.97271 0.0
C957 C 0.06668 0.12257 0.03492 0.0
C958 C 0.08109 0.11331 0.03116 0.0
C959 C 0.06218 0.13569 0.02372 0.0
C960 C 0.06162 0.14068 0.9757 0.0
H961 H 0.99729 0.19244 0.94169 0.0
H962 H 1.01268 0.17812 0.96609 0.0
H963 H 0.05015 0.14105 0.94818 0.0
H964 H 0.10313 0.11122 0.01407 0.0
H965 H 0.09556 0.13447 0.99464 0.0
H966 H 0.05745 0.17045 0.01071 0.0
C967 C 0.0181 0.17829 0.95291 0.0
C968 C 0.05196 0.14786 0.96165 0.0
C969 C 1.00915 0.18629 0.93889 0.0
C970 C 0.09219 0.11851 0.01736 0.0
C971 C 0.0877 0.13161 0.00615 0.0
C972 C 0.0561 0.16411 0.99704 0.0
C973 C 0.03401 0.17086 0.94998 0.0
C974 C 0.04424 0.16328 0.96506 0.0
C975 C 0.07196 0.13949 0.00854 0.0
C976 C 0.0637 0.14865 0.99355 0.0
H977 H 0.0369 0.17917 0.90542 0.0
H978 H 0.05263 0.1655 0.92983 0.0
H979 H 0.04102 0.1835 0.98591 0.0
H980 H 0.05772 0.11838 0.04527 0.0
H981 H 0.04991 0.14146 0.02581 0.0
C982 C 0.13981 0.85013 0.17727 0.0
C983 C 0.12191 0.85057 0.1821 0.0
C984 C 0.15463 0.85209 0.19067 0.0
C985 C 0.16375 0.84217 0.23789 0.0
H986 H 0.21391 0.85874 0.22792 0.0
C987 C 0.22925 0.8217 0.27639 0.0
C988 C 0.23846 0.81268 0.2638 0.0
C989 C 0.21555 0.83143 0.27022 0.0
C990 C 0.19996 0.85434 0.23108 0.0
H991 H 0.10557 0.85466 0.20457 0.0
H992 H 0.13161 0.85813 0.22813 0.0
H993 H 0.18837 0.86849 0.20994 0.0
H994 H 0.24096 0.80713 0.235 0.0
H995 H 0.21744 0.82426 0.22438 0.0
H996 H 0.17548 0.82736 0.2585 0.0
C997 C 0.13412 0.85608 0.21397 0.0
C998 C 0.18535 0.85982 0.22076 0.0
C999 C 0.11925 0.85417 0.20049 0.0
C1000 C 0.23397 0.81376 0.24504 0.0
C1001 C 0.22068 0.82374 0.23894 0.0
C1002 C 0.1784 0.83683 0.24837 0.0
C1003 C 0.15189 0.85453 0.20923 0.0
C1004 C 0.16708 0.85299 0.22335 0.0
C1005 C 0.21135 0.83265 0.25143 0.0
C1006 C 0.19654 0.84215 0.24436 0.0
H1007 H 0.14229 0.84745 0.16318 0.0
H1008 H 0.16806 0.85056 0.18651 0.0
H1009 H 0.14984 0.83658 0.24021 0.0
H1010 H 0.23252 0.82111 0.29093 0.0
H1011 H 0.20837 0.83811 0.28005 0.0
C1012 C 0.5265 0.78385 0.43153 0.0
C1013 C 0.51017 0.7716 0.42921 0.0
C1014 C 0.52787 0.79905 0.44329 0.0
C1015 C 0.49829 0.82793 0.46335 0.0
H1016 H 0.54373 0.84976 0.49143 0.0
C1017 C 0.50232 0.89495 0.50267 0.0
C1018 C 0.51707 0.90758 0.49879 0.0
C1019 C 0.50234 0.87697 0.49838 0.0
C1020 C 0.53094 0.84378 0.48368 0.0
H1021 H 0.48281 0.76512 0.43795 0.0
H1022 H 0.48531 0.79144 0.45872 0.0
H1023 H 0.542 0.8205 0.47564 0.0
H1024 H 0.54387 0.91124 0.48838 0.0
H1025 H 0.54388 0.87986 0.48082 0.0
H1026 H 0.48734 0.85127 0.47093 0.0
C1027 C 0.49691 0.78956 0.45116 0.0
C1028 C 0.52997 0.82708 0.47461 0.0
C1029 C 0.49548 0.77447 0.43931 0.0
C1030 C 0.53237 0.9018 0.49165 0.0
C1031 C 0.53239 0.88381 0.48734 0.0
C1032 C 0.49924 0.84454 0.47245 0.0
C1033 C 0.51298 0.80219 0.45303 0.0
C1034 C 0.51371 0.81912 0.46409 0.0
C1035 C 0.5171 0.87128 0.4901 0.0
C1036 C 0.51566 0.85277 0.48246 0.0
H1037 H 0.53804 0.78192 0.42391 0.0
H1038 H 0.54036 0.80862 0.44425 0.0
H1039 H 0.48566 0.82235 0.45511 0.0
H1040 H 0.49049 0.89903 0.50849 0.0
H1041 H 0.49052 0.86756 0.50096 0.0
C1042 C 0.5337 0.32487 0.68679 0.0
C1043 C 0.53666 0.31522 0.67084 0.0
C1044 C 0.51925 0.31871 0.69691 0.0
C1045 C 0.47473 0.2897 0.69367 0.0
H1046 H 0.48427 0.29051 0.74631 0.0
C1047 C 0.41911 0.26061 0.73815 0.0
C1048 C 0.41716 0.27117 0.75385 0.0
C1049 C 0.43446 0.2645 0.72846 0.0
C1050 C 0.48138 0.29031 0.73164 0.0
H1051 H 0.52673 0.29177 0.65275 0.0
H1052 H 0.5014 0.28102 0.67043 0.0
H1053 H 0.50926 0.30086 0.72809 0.0
H1054 H 0.42981 0.29386 0.77193 0.0
H1055 H 0.45654 0.30072 0.755 0.0
H1056 H 0.44679 0.2795 0.69719 0.0
C1057 C 0.51022 0.29336 0.67506 0.0
C1058 C 0.49566 0.29624 0.72123 0.0
C1059 C 0.52473 0.29948 0.66499 0.0
C1060 C 0.4311 0.28533 0.76002 0.0
C1061 C 0.4464 0.28926 0.75032 0.0
C1062 C 0.46043 0.28384 0.70408 0.0
C1063 C 0.50747 0.30283 0.69121 0.0
C1064 C 0.49243 0.29612 0.70217 0.0
C1065 C 0.4481 0.27906 0.73428 0.0
C1066 C 0.46357 0.28421 0.72319 0.0
H1067 H 0.54269 0.33706 0.6916 0.0
H1068 H 0.51726 0.32639 0.70917 0.0
H1069 H 0.47184 0.28963 0.679 0.0
H1070 H 0.40864 0.24948 0.73323 0.0
H1071 H 0.43556 0.25622 0.71632 0.0
C1072 C 0.04836 0.84975 0.62259 0.0
C1073 C 0.04029 0.83348 0.61292 0.0
C1074 C 0.04929 0.86653 0.61462 0.0
C1075 C 0.04051 0.88867 0.56841 0.0
H1076 H 0.05064 0.93203 0.59952 0.0
C1077 C 0.04884 0.95962 0.53566 0.0
C1078 C 0.0476 0.97559 0.54597 0.0
C1079 C 0.04811 0.9428 0.54356 0.0
C1080 C 0.04764 0.92029 0.59026 0.0
H1081 H 0.02675 0.82338 0.5864 0.0
H1082 H 0.02804 0.85191 0.57277 0.0
H1083 H 0.0487 0.90366 0.61286 0.0
H1084 H 0.0444 0.98503 0.57356 0.0
H1085 H 0.04295 0.9565 0.58703 0.0
H1086 H 0.03902 0.90531 0.54583 0.0
C1087 C 0.03406 0.85196 0.58668 0.0
C1088 C 0.04671 0.90347 0.59815 0.0
C1089 C 0.03319 0.83517 0.59467 0.0
C1090 C 0.04559 0.97353 0.56476 0.0
C1091 C 0.04481 0.95672 0.57267 0.0
C1092 C 0.04141 0.9055 0.56051 0.0
C1093 C 0.04215 0.86837 0.59632 0.0
C1094 C 0.04312 0.88692 0.58758 0.0
C1095 C 0.046 0.94061 0.5624 0.0
C1096 C 0.04502 0.92204 0.57109 0.0
H1097 H 0.05414 0.84959 0.63658 0.0
H1098 H 0.05594 0.8781 0.62304 0.0
H1099 H 0.03788 0.87693 0.55914 0.0
H1100 H 0.05035 0.96002 0.52121 0.0
H1101 H 0.04938 0.93146 0.53461 0.0
C1102 C 0.4839 0.77023 0.8821 0.0
C1103 C 0.49992 0.77115 0.87273 0.0
C1104 C 0.46615 0.7705 0.87288 0.0
C1105 C 0.44154 0.78023 0.827 0.0
H1106 H 0.39787 0.7587 0.84762 0.0
C1107 C 0.36673 0.78762 0.79412 0.0
C1108 C 0.3513 0.77473 0.79617 0.0
C1109 C 0.3845 0.787 0.80313 0.0
C1110 C 0.40975 0.76472 0.84135 0.0
H1111 H 0.50896 0.77302 0.84569 0.0
H1112 H 0.47849 0.77322 0.82973 0.0
H1113 H 0.42817 0.75763 0.86304 0.0
H1114 H 0.34345 0.75086 0.80985 0.0
H1115 H 0.37397 0.74959 0.82509 0.0
H1116 H 0.42315 0.78696 0.80509 0.0
C1117 C 0.47948 0.77256 0.84438 0.0
C1118 C 0.4275 0.76432 0.85053 0.0
C1119 C 0.49724 0.77231 0.85363 0.0
C1120 C 0.35466 0.76113 0.80769 0.0
C1121 C 0.37244 0.7605 0.81669 0.0
C1122 C 0.42379 0.78064 0.81784 0.0
C1123 C 0.46335 0.77169 0.85371 0.0
C1124 C 0.44398 0.77207 0.84366 0.0
C1125 C 0.38794 0.77346 0.81475 0.0
C1126 C 0.40731 0.77291 0.82471 0.0
H1127 H 0.48506 0.76943 0.89676 0.0
H1128 H 0.45461 0.77006 0.88102 0.0
H1129 H 0.4534 0.78664 0.82097 0.0
H1130 H 0.3651 0.79846 0.78562 0.0
H1131 H 0.3955 0.79753 0.80115 0.0
C1132 C 0.53923 0.21366 0.12338 0.0
C1133 C 0.53605 0.22812 0.11292 0.0
C1134 C 0.54005 0.19635 0.11527 0.0
C1135 C 0.52922 0.16652 0.06991 0.0
H1136 H 0.55774 0.13548 0.09549 0.0
C1137 C 0.53534 0.09488 0.03509 0.0
C1138 C 0.54255 0.0816 0.04491 0.0
C1139 C 0.53462 0.11224 0.04313 0.0
C1140 C 0.54941 0.14355 0.08789 0.0
H1141 H 0.5312 0.23443 0.08486 0.0
H1142 H 0.53244 0.20478 0.07088 0.0
H1143 H 0.55631 0.16486 0.10902 0.0
H1144 H 0.55463 0.07752 0.07184 0.0
H1145 H 0.55307 0.1069 0.08579 0.0
H1146 H 0.52208 0.14532 0.04888 0.0
C1147 C 0.53428 0.20668 0.08561 0.0
C1148 C 0.54858 0.16092 0.09591 0.0
C1149 C 0.53362 0.22407 0.09375 0.0
C1150 C 0.54894 0.0869 0.06341 0.0
C1151 C 0.5481 0.10425 0.07154 0.0
C1152 C 0.52991 0.1491 0.06194 0.0
C1153 C 0.53759 0.19217 0.09607 0.0
C1154 C 0.53848 0.1731 0.08723 0.0
C1155 C 0.54093 0.11768 0.06172 0.0
C1156 C 0.54008 0.13687 0.07057 0.0
H1157 H 0.54121 0.21571 0.13811 0.0
H1158 H 0.54239 0.18611 0.12432 0.0
H1159 H 0.52096 0.17477 0.0624 0.0
H1160 H 0.53028 0.09194 0.02085 0.0
H1161 H 0.52916 0.12144 0.03437 0.0
C1162 C 0.12292 0.27714 0.38121 0.0
C1163 C 0.10495 0.27435 0.37195 0.0
C1164 C 0.13915 0.27766 0.37179 0.0
C1165 C 0.15617 0.26739 0.3244 0.0
H1166 H 0.2028 0.2924 0.34705 0.0
C1167 C 0.22602 0.26436 0.28921 0.0
C1168 C 0.24147 0.27792 0.293 0.0
C1169 C 0.20971 0.26407 0.29845 0.0
C1170 C 0.19002 0.28538 0.34017 0.0
H1171 H 0.09093 0.26995 0.34469 0.0
H1172 H 0.1186 0.27094 0.32848 0.0
H1173 H 0.17517 0.2919 0.36293 0.0
H1174 H 0.25074 0.30199 0.31027 0.0
H1175 H 0.22283 0.30168 0.32592 0.0
H1176 H 0.17096 0.26112 0.30151 0.0
C1177 C 0.12041 0.27256 0.34322 0.0
C1178 C 0.17382 0.28489 0.34961 0.0
C1179 C 0.10421 0.27209 0.35266 0.0
C1180 C 0.23951 0.29121 0.3066 0.0
C1181 C 0.22321 0.29092 0.31587 0.0
C1182 C 0.17239 0.26783 0.31498 0.0
C1183 C 0.1385 0.27537 0.35243 0.0
C1184 C 0.15628 0.27589 0.34208 0.0
C1185 C 0.20772 0.27729 0.31219 0.0
C1186 C 0.18993 0.27684 0.3225 0.0
H1187 H 0.12454 0.27892 0.39597 0.0
H1188 H 0.1523 0.27962 0.37993 0.0
H1189 H 0.14347 0.26005 0.31768 0.0
H1190 H 0.22656 0.25367 0.2791 0.0
H1191 H 0.19872 0.25307 0.29493 0.0
C1192 C 0.96318 0.02624 0.18743 0.0
C1193 C 0.9445 0.02818 0.18554 0.0
C1194 C 0.97539 0.0348 0.17623 0.0
C1195 C 0.97786 0.05411 0.13219 0.0
H1196 H 0.02676 0.07518 0.15341 0.0
C1197 C 0.03238 0.08176 0.08662 0.0
C1198 C 0.04896 0.07489 0.08954 0.0
C1199 C 0.01981 0.08063 0.09975 0.0
C1200 C 0.01315 0.06939 0.1473 0.0
H1201 H 0.92383 0.04034 0.17027 0.0
H1202 H 0.94527 0.05529 0.15049 0.0
H1203 H 1.00371 0.06347 0.17321 0.0
H1204 H 0.06606 0.06284 0.10912 0.0
H1205 H 0.04408 0.0607 0.13191 0.0
H1206 H 0.98743 0.05942 0.10626 0.0
C1207 C 0.95041 0.04711 0.16067 0.0
C1208 C 0.99998 0.06265 0.15861 0.0
C1209 C 0.93816 0.03855 0.17195 0.0
C1210 C 0.05338 0.0682 0.10643 0.0
C1211 C 0.0408 0.06704 0.11954 0.0
C1212 C 0.99103 0.06083 0.12088 0.0
C1213 C 0.96919 0.04549 0.16288 0.0
C1214 C 0.98236 0.05452 0.15112 0.0
C1215 C 0.02359 0.07262 0.11603 0.0
C1216 C 1.00896 0.06814 0.12828 0.0
H1217 H 0.96847 0.01831 0.19777 0.0
H1218 H 0.98971 0.03298 0.17798 0.0
H1219 H 0.96444 0.04781 0.12603 0.0
H1220 H 0.02864 0.08722 0.07383 0.0
H1221 H 1.00681 0.08536 0.09683 0.0
C1222 C 0.27332 0.70018 0.45096 0.0
C1223 C 0.28223 0.70963 0.46699 0.0
C1224 C 0.2721 0.70832 0.43447 0.0
C1225 C 0.29407 0.74609 0.41076 0.0
H1226 H 0.24959 0.73565 0.37742 0.0
C1227 C 0.28587 0.78233 0.34452 0.0
C1228 C 0.27739 0.77232 0.32861 0.0
C1229 C 0.28561 0.77519 0.36158 0.0
C1230 C 0.2622 0.73858 0.38646 0.0
H1231 H 0.29672 0.73516 0.47825 0.0
H1232 H 0.29455 0.74946 0.44944 0.0
H1233 H 0.25079 0.72251 0.40679 0.0
H1234 H 0.26171 0.7469 0.31838 0.0
H1235 H 0.26144 0.73438 0.34809 0.0
H1236 H 0.30558 0.76199 0.3904 0.0
C1237 C 0.28863 0.73566 0.44959 0.0
C1238 C 0.26288 0.73104 0.40335 0.0
C1239 C 0.2898 0.7275 0.46615 0.0
C1240 C 0.26831 0.75506 0.33031 0.0
C1241 C 0.2681 0.74788 0.34741 0.0
C1242 C 0.29341 0.75359 0.39386 0.0
C1243 C 0.2798 0.72616 0.43351 0.0
C1244 C 0.27885 0.73464 0.41572 0.0
C1245 C 0.27694 0.75778 0.36327 0.0
C1246 C 0.27748 0.74993 0.38143 0.0
H1247 H 0.26737 0.68637 0.4511 0.0
H1248 H 0.26542 0.7005 0.42236 0.0
H1249 H 0.30671 0.74895 0.41976 0.0
H1250 H 0.2929 0.79571 0.34383 0.0
H1251 H 0.29225 0.78337 0.37347 0.0
C1252 C 0.58607 0.0068 0.70678 0.0
C1253 C 0.58644 0.99104 0.71554 0.0
C1254 C 0.57554 0.00683 0.69019 0.0
C1255 C 0.55975 0.98027 0.64898 0.0
H1256 H 0.5306 0.01755 0.63947 0.0
C1257 C 0.53672 0.99496 0.57552 0.0
C1258 C 0.5402 0.013 0.5722 0.0
C1259 C 0.53716 0.98973 0.59339 0.0
C1260 C 0.53866 0.00704 0.64188 0.0
H1261 H 0.576 0.96295 0.71399 0.0
H1262 H 0.5579 0.96289 0.68431 0.0
H1263 H 0.54113 0.01276 0.67084 0.0
H1264 H 0.54611 0.03972 0.58501 0.0
H1265 H 0.54728 0.03064 0.61602 0.0
H1266 H 0.55848 0.97532 0.62004 0.0
C1267 C 0.56561 0.97523 0.69058 0.0
C1268 C 0.54457 1.00424 0.65983 0.0
C1269 C 0.57592 0.97526 0.70747 0.0
C1270 C 0.54339 0.02571 0.58708 0.0
C1271 C 0.54389 0.02049 0.6049 0.0
C1272 C 0.554 0.98318 0.63099 0.0
C1273 C 0.56535 0.99105 0.68185 0.0
C1274 C 0.55573 0.99128 0.66347 0.0
C1275 C 0.54111 1.00243 0.60829 0.0
C1276 C 0.54401 0.99706 0.62723 0.0
H1277 H 0.59398 0.01918 0.71274 0.0
H1278 H 0.5758 0.01915 0.6836 0.0
H1279 H 0.56846 0.97027 0.65146 0.0
H1280 H 0.53406 0.98483 0.56434 0.0
H1281 H 0.53473 0.97572 0.59554 0.0
C1282 C 0.27556 0.35498 0.96739 0.0
C1283 C 0.2818 0.37333 0.97136 0.0
C1284 C 0.27646 0.34638 0.94984 0.0
C1285 C 0.29913 0.35221 0.90496 0.0
H1286 H 0.2632 0.31164 0.88636 0.0
C1287 C 0.30748 0.31095 0.83605 0.0
C1288 C 0.29182 0.30246 0.82465 0.0
C1289 C 0.30608 0.31936 0.85353 0.0
C1290 C 0.27341 0.32301 0.89108 0.0
H1291 H 0.29399 0.39663 0.95893 0.0
H1292 H 0.29562 0.38197 0.92891 0.0
H1293 H 0.26108 0.32617 0.91634 0.0
H1294 H 0.26212 0.29655 0.82381 0.0
H1295 H 0.25967 0.31093 0.8539 0.0
H1296 H 0.31141 0.34914 0.87971 0.0
C1297 C 0.29007 0.37397 0.93935 0.0
C1298 C 0.2723 0.33138 0.90868 0.0
C1299 C 0.28901 0.38256 0.95682 0.0
C1300 C 0.27465 0.30279 0.83181 0.0
C1301 C 0.27325 0.31108 0.8494 0.0
C1302 C 0.30035 0.34374 0.88746 0.0
C1303 C 0.28383 0.3556 0.93527 0.0
C1304 C 0.28509 0.34629 0.91617 0.0
C1305 C 0.28894 0.31969 0.8608 0.0
C1306 C 0.28752 0.32888 0.87992 0.0
H1307 H 0.26994 0.34715 0.97794 0.0
H1308 H 0.2716 0.3323 0.94785 0.0
H1309 H 0.30954 0.36339 0.90977 0.0
H1310 H 0.32105 0.31116 0.83147 0.0
H1311 H 0.3187 0.32541 0.86149 0.0
C1312 C 0.96226 0.03127 0.27516 0.0
C1313 C 0.95086 0.01499 0.27029 0.0
C1314 C 0.97711 0.03243 0.28853 0.0
C1315 C 1.0076 1.00508 0.3122 0.0
H1316 H 0.01399 0.04243 0.35103 0.0
C1317 C 0.04006 0.99831 0.38394 0.0
C1318 C 0.0493 0.01335 0.3946 0.0
C1319 C 0.0327 0.99975 0.36614 0.0
C1320 C 1.01274 0.03216 0.34007 0.0
H1321 H 0.9459 0.98721 0.27565 0.0
H1322 H 0.97167 0.98928 0.29914 0.0
H1323 H 0.99108 0.0427 0.32523 0.0
H1324 H 0.05953 0.04139 0.39426 0.0
H1325 H 0.04643 0.04393 0.36307 0.0
H1326 H 0.02883 0.99422 0.32735 0.0
C1327 C 0.96932 1.00108 0.29244 0.0
C1328 C 0.99954 0.03228 0.32532 0.0
C1329 C 0.95445 0.99994 0.27914 0.0
C1330 C 0.0522 0.02962 0.38652 0.0
C1331 C 0.04471 0.03108 0.36868 0.0
C1332 C 0.02083 1.00499 0.32691 0.0
C1333 C 0.98087 0.01731 0.29719 0.0
C1334 C 0.99644 0.01844 0.31154 0.0
C1335 C 0.03431 0.01627 0.35856 0.0
C1336 C 0.02313 0.01822 0.34129 0.0
H1337 H 0.95986 0.04308 0.26848 0.0
H1338 H 0.98581 0.0451 0.29189 0.0
H1339 H 1.00577 0.99445 0.30155 0.0
H1340 H 0.03726 0.98561 0.38972 0.0
H1341 H 0.02457 0.98812 0.35883 0.0
C1342 C 0.28853 0.72184 0.57434 0.0
C1343 C 0.29133 0.7044 0.56996 0.0
C1344 C 0.28997 0.72857 0.5926 0.0
C1345 C 0.30895 0.72063 0.63952 0.0
H1346 H 0.27489 0.75137 0.65449 0.0
C1347 C 0.30351 0.74229 0.71575 0.0
C1348 C 0.30077 0.75985 0.71972 0.0
C1349 C 0.3029 0.73542 0.69759 0.0
C1350 C 0.28466 0.74296 0.65053 0.0
H1351 H 0.29781 0.68033 0.58139 0.0
H1352 H 0.30006 0.69191 0.61312 0.0
H1353 H 0.27272 0.7398 0.62279 0.0
H1354 H 0.29564 0.78403 0.70752 0.0
H1355 H 0.29477 0.77217 0.67614 0.0
H1356 H 0.3208 0.72375 0.66736 0.0
C1357 C 0.29704 0.70055 0.6025 0.0
C1358 C 0.28343 0.73632 0.63229 0.0
C1359 C 0.29562 0.69386 0.58426 0.0
C1360 C 0.29775 0.77042 0.70508 0.0
C1361 C 0.2971 0.76357 0.68699 0.0
C1362 C 0.31015 0.72724 0.6578 0.0
C1363 C 0.29422 0.71801 0.60696 0.0
C1364 C 0.29558 0.7251 0.62648 0.0
C1365 C 0.29946 0.74592 0.68295 0.0
C1366 C 0.29807 0.73856 0.66355 0.0
H1367 H 0.28526 0.73033 0.56366 0.0
H1368 H 0.28795 0.74214 0.59544 0.0
H1369 H 0.31873 0.71224 0.63557 0.0
H1370 H 0.3059 0.73376 0.72663 0.0
H1371 H 0.30468 0.72174 0.69502 0.0
C1372 C 0.57004 0.01266 0.80377 0.0
C1373 C 0.58931 0.01562 0.80425 0.0
C1374 C 0.56099 0.02411 0.8139 0.0
C1375 C 0.57002 0.05858 0.85255 0.0
H1376 H 0.52065 0.06656 0.83646 0.0
C1377 C 0.53325 0.09333 0.90231 0.0
C1378 C 0.51906 0.08049 0.90703 0.0
C1379 C 0.53966 0.09203 0.88509 0.0
C1380 C 0.53457 0.06471 0.84093 0.0
H1381 H 0.61422 0.03303 0.81533 0.0
H1382 H 0.59859 0.05324 0.83227 0.0
H1383 H 0.53724 0.04951 0.81629 0.0
H1384 H 0.49807 0.05851 0.89603 0.0
H1385 H 0.50897 0.05659 0.86623 0.0
H1386 H 0.5673 0.07338 0.87724 0.0
C1387 C 0.59035 0.0418 0.82473 0.0
C1388 C 0.54398 0.05472 0.82953 0.0
C1389 C 0.59936 0.03017 0.815 0.0
C1390 C 0.50918 0.06856 0.8931 0.0
C1391 C 0.51546 0.0674 0.87585 0.0
C1392 C 0.56079 0.06876 0.86373 0.0
C1393 C 0.57104 0.03895 0.82438 0.0
C1394 C 0.56162 0.05107 0.83546 0.0
C1395 C 0.53175 0.07807 0.87231 0.0
C1396 C 0.54276 0.07148 0.85831 0.0
H1397 H 0.56198 1.0016 0.79546 0.0
H1398 H 0.54614 0.02126 0.81356 0.0
H1399 H 0.5834 0.05585 0.85782 0.0
H1400 H 0.54072 0.10313 0.91252 0.0
H1401 H 0.55201 0.10072 0.88248 0.0
C1402 C 0.2857 0.38447 0.09496 0.0
C1403 C 0.28261 0.37472 0.07775 0.0
C1404 C 0.28625 0.37609 0.11182 0.0
C1405 C 0.28909 0.33091 0.13252 0.0
H1406 H 0.27761 0.35518 0.17653 0.0
C1407 C 0.28509 0.29414 0.20172 0.0
C1408 C 0.28778 0.30364 0.21908 0.0
C1409 C 0.28436 0.3027 0.18501 0.0
C1410 C 0.28113 0.34802 0.16459 0.0
H1411 H 0.27763 0.34777 0.06579 0.0
H1412 H 0.27842 0.33333 0.09459 0.0
H1413 H 0.27659 0.3695 0.14787 0.0
H1414 H 0.29188 0.33046 0.23137 0.0
H1415 H 0.2908 0.34524 0.20276 0.0
H1416 H 0.29372 0.30948 0.14919 0.0
C1417 C 0.2807 0.34765 0.09529 0.0
C1418 C 0.28053 0.35644 0.14775 0.0
C1419 C 0.28011 0.35605 0.07843 0.0
C1420 C 0.28965 0.32232 0.21864 0.0
C1421 C 0.28894 0.33093 0.20189 0.0
C1422 C 0.28972 0.32251 0.14935 0.0
C1423 C 0.28379 0.35737 0.11261 0.0
C1424 C 0.28446 0.34818 0.13108 0.0
C1425 C 0.28633 0.32142 0.18444 0.0
C1426 C 0.28573 0.33073 0.16602 0.0
H1427 H 0.28779 0.3988 0.09547 0.0
H1428 H 0.28894 0.38453 0.12433 0.0
H1429 H 0.29262 0.32376 0.12058 0.0
H1430 H 0.28356 0.27982 0.20095 0.0
H1431 H 0.28202 0.29437 0.17243 0.0
C1432 C 0.25406 0.90796 0.03226 0.0
C1433 C 0.27255 0.91334 0.0293 0.0
C1434 C 0.24248 0.92054 0.03529 0.0
C1435 C 0.24414 0.96707 0.05185 0.0
H1436 H 0.19386 0.96108 0.02952 0.0
C1437 C 0.19834 0.02184 0.05869 0.0
C1438 C 0.17952 0.01649 0.06028 0.0
C1439 C 0.20974 0.0093 0.05486 0.0
C1440 C 0.20779 0.96286 0.03607 0.0
H1441 H 0.29329 0.93609 0.02676 0.0
H1442 H 0.27311 0.95799 0.032 0.0
H1443 H 0.21337 0.93901 0.02248 0.0
H1444 H 0.15806 0.99376 0.05981 0.0
H1445 H 0.17794 0.97191 0.05349 0.0
H1446 H 0.23857 0.99075 0.06566 0.0
C1447 C 0.26759 0.94408 0.03216 0.0
C1448 C 0.21898 0.95021 0.03198 0.0
C1449 C 0.27911 0.93152 0.02902 0.0
C1450 C 0.17245 0.99832 0.05836 0.0
C1451 C 0.18385 0.98579 0.05467 0.0
C1452 C 0.23293 0.97965 0.05604 0.0
C1453 C 0.24921 0.93875 0.03555 0.0
C1454 C 0.23729 0.95219 0.0398 0.0
C1455 C 0.20261 0.99111 0.05268 0.0
C1456 C 0.2146 0.97773 0.04821 0.0
H1457 H 0.24862 0.89405 0.0326 0.0
H1458 H 0.22841 0.91603 0.03797 0.0
H1459 H 0.25811 0.96883 0.05832 0.0
H1460 H 0.20414 0.03576 0.05992 0.0
H1461 H 0.22406 0.01392 0.05321 0.0
C1462 C 0.74483 0.63294 0.02263 0.0
C1463 C 0.75907 0.62441 0.01632 0.0
C1464 C 0.72673 0.62375 0.02344 0.0
C1465 C 0.6936 0.58192 0.00564 0.0
H1466 H 0.6659 0.59464 0.04522 0.0
C1467 C 0.61887 0.54253 0.01324 0.0
C1468 C 0.60634 0.55043 0.02326 0.0
C1469 C 0.63736 0.55097 0.01242 0.0
C1470 C 0.67301 0.5909 0.03375 0.0
H1471 H 0.76454 0.59895 0.00576 0.0
H1472 H 0.73319 0.58309 0.00687 0.0
H1473 H 0.69688 0.60996 0.04348 0.0
H1474 H 0.60427 0.57409 0.04001 0.0
H1475 H 0.63547 0.58875 0.0382 0.0
H1476 H 0.66967 0.56311 0.99565 0.0
C1477 C 0.736 0.59704 0.01127 0.0
C1478 C 0.69119 0.59984 0.03281 0.0
C1479 C 0.75421 0.6062 0.0107 0.0
C1480 C 0.61322 0.56722 0.03228 0.0
C1481 C 0.63154 0.57572 0.03131 0.0
C1482 C 0.67528 0.5731 0.00644 0.0
C1483 C 0.72176 0.60554 0.01777 0.0
C1484 C 0.70203 0.59564 0.01873 0.0
C1485 C 0.64429 0.56789 0.02142 0.0
C1486 C 0.66435 0.57732 0.02052 0.0
H1487 H 0.7477 0.64688 0.0271 0.0
H1488 H 0.71649 0.63113 0.02833 0.0
H1489 H 0.70103 0.57817 0.99438 0.0
H1490 H 0.61444 0.52969 0.00601 0.0
H1491 H 0.64623 0.54396 0.00478 0.0
C1492 C 0.69226 0.48515 0.28046 0.0
C1493 C 0.7011 0.49875 0.29321 0.0
C1494 C 0.70236 0.47363 0.27195 0.0
C1495 C 0.7499 0.46821 0.26244 0.0
H1496 H 0.72869 0.41855 0.25547 0.0
C1497 C 0.79098 0.4105 0.25366 0.0
C1498 C 0.78287 0.39543 0.24237 0.0
C1499 C 0.78167 0.42493 0.25589 0.0
C1500 C 0.73466 0.43242 0.25697 0.0
H1501 H 0.72739 0.51094 0.30714 0.0
H1502 H 0.74505 0.49035 0.29273 0.0
H1503 H 0.71103 0.43969 0.2684 0.0
H1504 H 0.75944 0.38452 0.22312 0.0
H1505 H 0.74301 0.40969 0.2273 0.0
H1506 H 0.7739 0.46061 0.25171 0.0
C1507 C 0.73036 0.48887 0.28897 0.0
C1508 C 0.72455 0.44457 0.26442 0.0
C1509 C 0.72024 0.50055 0.29737 0.0
C1510 C 0.76589 0.39576 0.23222 0.0
C1511 C 0.7565 0.41016 0.23457 0.0
C1512 C 0.76009 0.456 0.25512 0.0
C1513 C 0.72152 0.47528 0.27613 0.0
C1514 C 0.7321 0.46258 0.26744 0.0
C1515 C 0.76401 0.42457 0.24697 0.0
C1516 C 0.75262 0.43796 0.25249 0.0
H1517 H 0.67753 0.48357 0.27682 0.0
H1518 H 0.69513 0.46353 0.26191 0.0
H1519 H 0.756 0.48204 0.26427 0.0
H1520 H 0.80391 0.41068 0.26189 0.0
H1521 H 0.78773 0.43579 0.26564 0.0
C1522 C 0.87245 0.41039 0.54265 0.0
C1523 C 0.85779 0.41306 0.53015 0.0
C1524 C 0.88915 0.42201 0.54426 0.0
C1525 C 0.90945 0.46714 0.53277 0.0
H1526 H 0.95577 0.44923 0.54073 0.0
C1527 C 0.97902 0.50484 0.51678 0.0
C1528 C 0.99456 0.50486 0.52925 0.0
C1529 C 0.96217 0.4948 0.51936 0.0
C1530 C 0.94293 0.45446 0.53878 0.0
H1531 H 0.84923 0.42973 0.50926 0.0
H1532 H 0.87845 0.4496 0.51156 0.0
H1533 H 0.92683 0.42893 0.53977 0.0
H1534 H 1.00452 0.49468 0.55447 0.0
H1535 H 0.97495 0.47677 0.55881 0.0
H1536 H 0.92567 0.49255 0.53104 0.0
C1537 C 0.87698 0.43889 0.52055 0.0
C1538 C 0.92632 0.44283 0.53823 0.0
C1539 C 0.86025 0.42739 0.51909 0.0
C1540 C 0.99275 0.49498 0.54467 0.0
C1541 C 0.9759 0.48465 0.54709 0.0
C1542 C 0.92605 0.4787 0.53311 0.0
C1543 C 0.89161 0.43648 0.53328 0.0
C1544 C 0.90934 0.44898 0.53495 0.0
C1545 C 0.9605 0.48433 0.53433 0.0
C1546 C 0.94296 0.47244 0.53588 0.0
H1547 H 0.8709 0.39951 0.55145 0.0
H1548 H 0.89999 0.41982 0.55436 0.0
H1549 H 0.8967 0.47248 0.53068 0.0
H1550 H 0.97995 0.51236 0.5048 0.0
H1551 H 0.95059 0.49471 0.50923 0.0
C1552 C 0.45391 0.142 0.26209 0.0
C1553 C 0.44902 0.13586 0.27888 0.0
C1554 C 0.44346 0.1531 0.2528 0.0
C1555 C 0.40695 0.18103 0.25795 0.0
H1556 H 0.38826 0.16197 0.20883 0.0
C1557 C 0.33392 0.1805 0.22903 0.0
C1558 C 0.33136 0.19257 0.21568 0.0
C1559 C 0.35117 0.17578 0.23337 0.0
C1560 C 0.39371 0.1677 0.22233 0.0
H1561 H 0.43023 0.13741 0.2997 0.0
H1562 H 0.41207 0.15678 0.28361 0.0
H1563 H 0.41482 0.1513 0.22437 0.0
H1564 H 0.34478 0.20797 0.19541 0.0
H1565 H 0.37524 0.1995 0.20317 0.0
H1566 H 0.38495 0.19641 0.25636 0.0
C1567 C 0.42396 0.15311 0.27758 0.0
C1568 C 0.40889 0.16166 0.23124 0.0
C1569 C 0.43429 0.14192 0.28677 0.0
C1570 C 0.3463 0.19876 0.20584 0.0
C1571 C 0.36368 0.19393 0.21021 0.0
C1572 C 0.3918 0.18698 0.24909 0.0
C1573 C 0.42809 0.1584 0.26026 0.0
C1574 C 0.41513 0.16772 0.24943 0.0
C1575 C 0.36625 0.18291 0.22445 0.0
C1576 C 0.38469 0.17987 0.23152 0.0
H1577 H 0.46524 0.13753 0.2557 0.0
H1578 H 0.44703 0.15709 0.23954 0.0
H1579 H 0.41163 0.18612 0.27184 0.0
H1580 H 0.32297 0.17569 0.23719 0.0
H1581 H 0.35295 0.16719 0.24437 0.0
C1582 C 0.36098 0.10781 0.51507 0.0
C1583 C 0.36197 0.12649 0.51674 0.0
C1584 C 0.37706 0.09934 0.51537 0.0
C1585 C 0.43027 0.10836 0.51329 0.0
H1586 H 0.42774 0.06002 0.52673 0.0
C1587 C 0.49825 0.07388 0.521 0.0
C1588 C 0.4972 0.05519 0.51908 0.0
C1589 C 0.4822 0.0824 0.52074 0.0
C1590 C 0.42901 0.07347 0.52267 0.0
H1591 H 0.38189 0.15049 0.52012 0.0
H1592 H 0.40942 0.13613 0.52085 0.0
H1593 H 0.40044 0.07439 0.52625 0.0
H1594 H 0.47713 0.03126 0.51529 0.0
H1595 H 0.44973 0.04573 0.51467 0.0
H1596 H 0.45885 0.10744 0.50974 0.0
C1597 C 0.39616 0.12772 0.51902 0.0
C1598 C 0.41293 0.08193 0.52239 0.0
C1599 C 0.38007 0.13617 0.51873 0.0
C1600 C 0.47905 0.04558 0.5169 0.0
C1601 C 0.46301 0.05409 0.51666 0.0
C1602 C 0.44636 0.0999 0.51358 0.0
C1603 C 0.39528 0.10898 0.51735 0.0
C1604 C 0.41294 0.0997 0.51768 0.0
C1605 C 0.46397 0.07282 0.51856 0.0
C1606 C 0.44634 0.08213 0.51828 0.0
H1607 H 0.34761 0.09956 0.51344 0.0
H1608 H 0.37502 0.08504 0.51375 0.0
H1609 H 0.43154 0.12181 0.50923 0.0
H1610 H 0.51164 0.0821 0.52277 0.0
H1611 H 0.48428 0.0967 0.52253 0.0
C1612 C 0.70758 0.59089 0.29413 0.0
C1613 C 0.69842 0.58671 0.30958 0.0
C1614 C 0.71699 0.60793 0.29283 0.0
C1615 C 0.73771 0.6493 0.31985 0.0
H1616 H 0.73121 0.66998 0.27338 0.0
C1617 C 0.78015 0.71536 0.30181 0.0
C1618 C 0.77056 0.7264 0.29127 0.0
C1619 C 0.77141 0.69862 0.30559 0.0
C1620 C 0.73307 0.66446 0.2865 0.0
H1621 H 0.69215 0.59695 0.33595 0.0
H1622 H 0.70847 0.62684 0.3336 0.0
H1623 H 0.71598 0.64012 0.27685 0.0
H1624 H 0.74397 0.72904 0.27748 0.0
H1625 H 0.7288 0.7001 0.28423 0.0
H1626 H 0.75464 0.67388 0.32952 0.0
C1627 C 0.70851 0.61689 0.32256 0.0
C1628 C 0.72452 0.64725 0.28842 0.0
C1629 C 0.69906 0.59983 0.32385 0.0
C1630 C 0.75187 0.72074 0.28536 0.0
C1631 C 0.74316 0.70411 0.28917 0.0
C1632 C 0.74635 0.66656 0.31791 0.0
C1633 C 0.71744 0.62116 0.30696 0.0
C1634 C 0.72672 0.63946 0.3051 0.0
C1635 C 0.75294 0.69268 0.29893 0.0
C1636 C 0.74402 0.67435 0.30123 0.0
H1637 H 0.70744 0.58102 0.28297 0.0
H1638 H 0.72396 0.61073 0.28075 0.0
H1639 H 0.73978 0.64358 0.33284 0.0
H1640 H 0.79456 0.71937 0.30658 0.0
H1641 H 0.77931 0.69007 0.3131 0.0
C1642 C 0.90163 0.5493 0.79085 0.0
C1643 C 0.91568 0.55344 0.80524 0.0
C1644 C 0.88817 0.53442 0.79106 0.0
C1645 C 0.86853 0.49972 0.82023 0.0
H1646 H 0.86315 0.46944 0.77548 0.0
C1647 C 0.84922 0.42426 0.81844 0.0
C1648 C 0.83818 0.41513 0.80333 0.0
C1649 C 0.85491 0.44249 0.81877 0.0
C1650 C 0.86414 0.47784 0.78797 0.0
H1651 H 0.92602 0.54598 0.83166 0.0
H1652 H 0.90266 0.51997 0.83199 0.0
H1653 H 0.87945 0.49955 0.77622 0.0
H1654 H 0.824 0.41811 0.77693 0.0
H1655 H 0.83406 0.45007 0.77746 0.0
H1656 H 0.85375 0.47774 0.83213 0.0
C1657 C 0.90191 0.52823 0.82058 0.0
C1658 C 0.87349 0.49513 0.78839 0.0
C1659 C 0.91537 0.54309 0.82036 0.0
C1660 C 0.83269 0.42474 0.78867 0.0
C1661 C 0.83841 0.44302 0.78899 0.0
C1662 C 0.85916 0.48242 0.8198 0.0
C1663 C 0.88849 0.52343 0.80568 0.0
C1664 C 0.8762 0.50612 0.80465 0.0
C1665 C 0.84974 0.45206 0.80398 0.0
C1666 C 0.8573 0.47114 0.80379 0.0
H1667 H 0.90147 0.55711 0.77905 0.0
H1668 H 0.87784 0.53121 0.77951 0.0
H1669 H 0.87016 0.50796 0.83288 0.0
H1670 H 0.854 0.41723 0.82982 0.0
H1671 H 0.86395 0.44895 0.83035 0.0
C1672 C 0.05126 0.87879 0.10777 0.0
C1673 C 0.06895 0.87446 0.11175 0.0
C1674 C 0.04885 0.89347 0.09794 0.0
C1675 C 0.07197 0.92519 0.06809 0.0
H1676 H 0.04339 0.95811 0.08968 0.0
C1677 C 0.08367 0.99931 0.05748 0.0
C1678 C 0.06841 0.00831 0.05576 0.0
C1679 C 0.08142 0.98157 0.06136 0.0
C1680 C 0.05111 0.94892 0.08325 0.0
H1681 H 0.09791 0.88168 0.10816 0.0
H1682 H 0.09375 0.90737 0.09118 0.0
H1683 H 0.04345 0.92909 0.10163 0.0
H1684 H 0.03876 1.00565 0.05636 0.0
H1685 H 0.03488 0.97455 0.06319 0.0
H1686 H 0.08011 0.94527 0.05011 0.0
C1687 C 0.08171 0.89935 0.09545 0.0
C1688 C 0.05114 0.9323 0.09009 0.0
C1689 C 0.08411 0.88474 0.10532 0.0
C1690 C 0.05081 0.9991 0.05769 0.0
C1691 C 0.04857 0.98132 0.06163 0.0
C1692 C 0.07193 0.94181 0.06126 0.0
C1693 C 0.06409 0.904 0.09186 0.0
C1694 C 0.06197 0.92047 0.08289 0.0
C1695 C 0.06389 0.97243 0.06362 0.0
C1696 C 0.0619 0.954 0.0691 0.0
H1697 H 0.03932 0.87101 0.11251 0.0
H1698 H 0.03511 0.89669 0.09524 0.0
H1699 H 0.08018 0.9162 0.06208 0.0
H1700 H 0.09742 1.006 0.05604 0.0
H1701 H 0.09353 0.97514 0.0631 0.0
C1702 C 0.95414 0.2032 0.83323 0.0
C1703 C 0.95238 0.20586 0.85198 0.0
C1704 C 0.93977 0.20544 0.82038 0.0
C1705 C 0.9172 0.23158 0.80323 0.0
H1706 H 0.86454 0.21799 0.80423 0.0
C1707 C 0.86261 0.27689 0.7908 0.0
C1708 C 0.84688 0.27022 0.77895 0.0
C1709 C 0.8759 0.26617 0.79505 0.0
C1710 C 0.87922 0.22167 0.80358 0.0
H1711 H 0.93359 0.21074 0.87202 0.0
H1712 H 0.90835 0.21432 0.84954 0.0
H1713 H 0.88585 0.20135 0.82075 0.0
H1714 H 0.83291 0.24732 0.76179 0.0
H1715 H 0.85596 0.22842 0.76976 0.0
H1716 H 0.9106 0.25273 0.78727 0.0
C1717 C 0.92087 0.21071 0.84479 0.0
C1718 C 0.89135 0.21221 0.81303 0.0
C1719 C 0.93533 0.20872 0.85766 0.0
C1720 C 0.84499 0.25286 0.77087 0.0
C1721 C 0.85807 0.24202 0.77546 0.0
C1722 C 0.90509 0.24123 0.7941 0.0
C1723 C 0.92336 0.21004 0.82611 0.0
C1724 C 0.91044 0.21737 0.81329 0.0
C1725 C 0.87345 0.24852 0.78781 0.0
C1726 C 0.88605 0.23661 0.79461 0.0
H1727 H 0.96711 0.2009 0.82846 0.0
H1728 H 0.94192 0.20475 0.80603 0.0
H1729 H 0.93187 0.23598 0.80344 0.0
H1730 H 0.86437 0.2902 0.7972 0.0
H1731 H 0.88763 0.27138 0.80473 0.0
C1732 C 0.57406 0.2859 0.5904 0.0
C1733 C 0.58869 0.29202 0.60381 0.0
C1734 C 0.57372 0.26995 0.58011 0.0
C1735 C 0.60159 0.23449 0.5696 0.0
H1736 H 0.55492 0.20352 0.56965 0.0
C1737 C 0.59577 0.15904 0.56898 0.0
C1738 C 0.58155 0.14865 0.55745 0.0
C1739 C 0.59651 0.17734 0.57125 0.0
C1740 C 0.56795 0.21207 0.56924 0.0
H1741 H 0.61504 0.28702 0.61609 0.0
H1742 H 0.61432 0.2591 0.59846 0.0
H1743 H 0.55701 0.23494 0.57844 0.0
H1744 H 0.55689 0.14936 0.53931 0.0
H1745 H 0.55795 0.18138 0.54372 0.0
H1746 H 0.61267 0.21133 0.56125 0.0
C1747 C 0.60319 0.26662 0.59566 0.0
C1748 C 0.56916 0.2301 0.57419 0.0
C1749 C 0.60356 0.28259 0.60587 0.0
C1750 C 0.56787 0.15695 0.5485 0.0
C1751 C 0.56854 0.17527 0.5509 0.0
C1752 C 0.60041 0.21644 0.56478 0.0
C1753 C 0.58797 0.25982 0.58311 0.0
C1754 C 0.58611 0.24143 0.5749 0.0
C1755 C 0.58296 0.18564 0.56217 0.0
C1756 C 0.58369 0.205 0.56503 0.0
H1757 H 0.56248 0.29301 0.58842 0.0
H1758 H 0.56197 0.26522 0.5703 0.0
H1759 H 0.61476 0.24293 0.56969 0.0
H1760 H 0.60633 0.15303 0.57632 0.0
H1761 H 0.60755 0.18498 0.58033 0.0
C1762 C 0.55158 0.72138 0.34885 0.0
C1763 C 0.55245 0.72543 0.36776 0.0
C1764 C 0.56751 0.7241 0.3398 0.0
C1765 C 0.61288 0.7518 0.34467 0.0
H1766 H 0.62279 0.72117 0.30419 0.0
C1767 C 0.68039 0.76397 0.31085 0.0
C1768 C 0.67918 0.76201 0.29171 0.0
C1769 C 0.66505 0.7587 0.32011 0.0
C1770 C 0.62008 0.72992 0.31537 0.0
H1771 H 0.5707 0.73451 0.3922 0.0
H1772 H 0.59856 0.73901 0.37645 0.0
H1773 H 0.59607 0.71236 0.32087 0.0
H1774 H 0.66097 0.75298 0.26723 0.0
H1775 H 0.63395 0.74398 0.28346 0.0
H1776 H 0.63675 0.76941 0.33915 0.0
C1777 C 0.58554 0.73409 0.36856 0.0
C1778 C 0.60484 0.72486 0.32493 0.0
C1779 C 0.56962 0.7314 0.37759 0.0
C1780 C 0.66225 0.75476 0.28198 0.0
C1781 C 0.64687 0.74944 0.29128 0.0
C1782 C 0.62809 0.75683 0.33515 0.0
C1783 C 0.58458 0.7309 0.34951 0.0
C1784 C 0.60109 0.73576 0.33969 0.0
C1785 C 0.64813 0.75137 0.31044 0.0
C1786 C 0.63186 0.74596 0.3204 0.0
H1787 H 0.53851 0.71675 0.34093 0.0
H1788 H 0.5663 0.72163 0.32511 0.0
H1789 H 0.61014 0.76069 0.35572 0.0
H1790 H 0.69321 0.76968 0.3187 0.0
H1791 H 0.66649 0.7602 0.33489 0.0
C1792 C 0.05844 0.21841 0.44559 0.0
C1793 C 0.05102 0.22036 0.42751 0.0
C1794 C 0.0574 0.20152 0.45339 0.0
C1795 C 0.04413 0.1502 0.4415 0.0
H1796 H 0.05108 0.14791 0.49381 0.0
C1797 C 0.04479 0.07991 0.47481 0.0
C1798 C 0.04184 0.07782 0.49342 0.0
C1799 C 0.04583 0.09675 0.46688 0.0
C1800 C 0.04889 0.14786 0.47912 0.0
H1801 H 0.03644 0.20462 0.40394 0.0
H1802 H 0.03441 0.17593 0.41717 0.0
H1803 H 0.05259 0.17644 0.48074 0.0
H1804 H 0.0377 0.09333 0.51776 0.0
H1805 H 0.03915 0.12183 0.50434 0.0
H1806 H 0.04009 0.1216 0.43991 0.0
C1807 C 0.04142 0.18738 0.42558 0.0
C1808 C 0.05002 0.16476 0.47138 0.0
C1809 C 0.04248 0.20425 0.4178 0.0
C1810 C 0.03996 0.09375 0.50347 0.0
C1811 C 0.04098 0.11055 0.49558 0.0
C1812 C 0.04301 0.1333 0.44924 0.0
C1813 C 0.04884 0.18529 0.4437 0.0
C1814 C 0.04767 0.16666 0.45224 0.0
C1815 C 0.04403 0.11279 0.47697 0.0
C1816 C 0.04532 0.13141 0.46839 0.0
H1817 H 0.06524 0.23007 0.45386 0.0
H1818 H 0.06367 0.20134 0.46718 0.0
H1819 H 0.04235 0.15018 0.42679 0.0
H1820 H 0.04651 0.06844 0.46623 0.0
H1821 H 0.04839 0.09707 0.45269 0.0
C1822 C 0.59561 0.29084 0.18922 0.0
C1823 C 0.59191 0.28552 0.17039 0.0
C1824 C 0.61332 0.29108 0.1988 0.0
C1825 C 0.6589 0.27315 0.19594 0.0
H1826 H 0.67717 0.30816 0.23585 0.0
C1827 C 0.72772 0.26895 0.24261 0.0
C1828 C 0.73942 0.2846 0.24992 0.0
C1829 C 0.71013 0.2693 0.23315 0.0
C1830 C 0.67251 0.29825 0.22471 0.0
H1831 H 0.60489 0.27618 0.14727 0.0
H1832 H 0.63526 0.27642 0.1637 0.0
H1833 H 0.64691 0.30838 0.21944 0.0
H1834 H 0.74071 0.31309 0.25255 0.0
H1835 H 0.71026 0.31371 0.23647 0.0
H1836 H 0.68446 0.26302 0.20117 0.0
C1837 C 0.62447 0.28043 0.17127 0.0
C1838 C 0.65479 0.29826 0.21526 0.0
C1839 C 0.60684 0.28039 0.16167 0.0
C1840 C 0.73243 0.30064 0.24737 0.0
C1841 C 0.71469 0.30098 0.23807 0.0
C1842 C 0.6765 0.273 0.20553 0.0
C1843 C 0.62826 0.28578 0.19013 0.0
C1844 C 0.64747 0.28574 0.20055 0.0
C1845 C 0.70305 0.28531 0.23058 0.0
C1846 C 0.68387 0.28556 0.22018 0.0
H1847 H 0.58473 0.29486 0.19667 0.0
H1848 H 0.61514 0.29516 0.21322 0.0
H1849 H 0.65417 0.26307 0.18497 0.0
H1850 H 0.73223 0.25623 0.24404 0.0
H1851 H 0.70193 0.2568 0.22803 0.0
C1852 C 0.55765 0.83158 0.94741 0.0
C1853 C 0.55588 0.82735 0.92828 0.0
C1854 C 0.55713 0.84911 0.95521 0.0
C1855 C 0.54517 0.89542 0.94333 0.0
H1856 H 0.56848 0.91048 0.99183 0.0
C1857 C 0.54758 0.97034 0.97404 0.0
C1858 C 0.55066 0.97505 0.99309 0.0
C1859 C 0.54828 0.95282 0.96637 0.0
C1860 C 0.56158 0.90679 0.97832 0.0
H1861 H 0.55212 0.83959 0.90276 0.0
H1862 H 0.55132 0.86946 0.91595 0.0
H1863 H 0.56942 0.88071 0.97887 0.0
H1864 H 0.55688 0.96353 0.01861 0.0
H1865 H 0.55782 0.93365 0.00567 0.0
H1866 H 0.5372 0.92139 0.94276 0.0
C1867 C 0.55295 0.85926 0.92525 0.0
C1868 C 0.56215 0.88923 0.97069 0.0
C1869 C 0.55354 0.84178 0.91749 0.0
C1870 C 0.55447 0.96103 0.00393 0.0
C1871 C 0.55512 0.9435 0.99628 0.0
C1872 C 0.54454 0.91295 0.95098 0.0
C1873 C 0.5547 0.86362 0.94442 0.0
C1874 C 0.554 0.88287 0.95288 0.0
C1875 C 0.55205 0.93868 0.97719 0.0
C1876 C 0.55273 0.91937 0.96878 0.0
H1877 H 0.55941 0.82123 0.95653 0.0
H1878 H 0.55837 0.85112 0.96993 0.0
H1879 H 0.53829 0.89169 0.92981 0.0
H1880 H 0.54462 0.98031 0.96485 0.0
H1881 H 0.54601 0.95055 0.95169 0.0
C1882 C 0.9698 0.78491 0.66093 0.0
C1883 C 0.98598 0.77896 0.66847 0.0
C1884 C 0.9536 0.78447 0.67041 0.0
C1885 C 0.92878 0.76332 0.70953 0.0
H1886 H 0.89877 0.80052 0.70484 0.0
C1887 C 0.85535 0.75924 0.74021 0.0
C1888 C 0.84953 0.7749 0.74734 0.0
C1889 C 0.87175 0.75956 0.73105 0.0
C1890 C 0.90684 0.78991 0.70651 0.0
H1891 H 0.99666 0.76758 0.6926 0.0
H1892 H 0.96872 0.76633 0.70866 0.0
H1893 H 0.92649 0.80133 0.68867 0.0
H1894 H 0.85748 0.80338 0.74954 0.0
H1895 H 0.88535 0.80399 0.73358 0.0
H1896 H 0.90895 0.75174 0.72714 0.0
C1897 C 0.9685 0.77155 0.69532 0.0
C1898 C 0.92297 0.79032 0.69693 0.0
C1899 C 0.98484 0.77234 0.686 0.0
C1900 C 0.8611 0.79089 0.74459 0.0
C1901 C 0.87729 0.79124 0.73514 0.0
C1902 C 0.91242 0.76271 0.71879 0.0
C1903 C 0.95235 0.77769 0.6879 0.0
C1904 C 0.93457 0.7771 0.69819 0.0
C1905 C 0.88322 0.7756 0.72806 0.0
C1906 C 0.90095 0.77606 0.71771 0.0
H1907 H 0.96967 0.79013 0.64759 0.0
H1908 H 0.94183 0.78927 0.66375 0.0
H1909 H 0.9368 0.75266 0.7111 0.0
H1910 H 0.84718 0.74653 0.74171 0.0
H1911 H 0.87522 0.74706 0.72594 0.0
C1912 C 0.15152 0.01457 0.87261 0.0
C1913 C 0.1697 0.02353 0.87432 0.0
C1914 C 0.14219 0.01155 0.88806 0.0
C1915 C 0.1478 0.01381 0.93879 0.0
H1916 H 0.10014 0.0296 0.9339 0.0
C1917 C 0.11618 0.04445 0.9987 0.0
C1918 C 0.097 0.04119 0.99942 0.0
C1919 C 0.1241 0.03775 0.98385 0.0
C1920 C 0.11322 0.02476 0.93546 0.0
H1921 H 0.19281 0.03533 0.89349 0.0
H1922 H 0.17643 0.03038 0.92049 0.0
H1923 H 0.11614 0.02537 0.90695 0.0
H1924 H 0.07115 0.02784 0.98539 0.0
H1925 H 0.08507 0.01618 0.95929 0.0
H1926 H 0.14513 0.01396 0.96748 0.0
C1927 C 0.16942 0.02548 0.90726 0.0
C1928 C 0.12242 0.02232 0.91999 0.0
C1929 C 0.17878 0.02843 0.89179 0.0
C1930 C 0.08595 0.03069 0.98517 0.0
C1931 C 0.0939 0.02403 0.97023 0.0
C1932 C 0.1386 0.01626 0.95428 0.0
C1933 C 0.15084 0.01751 0.90551 0.0
C1934 C 0.14003 0.01729 0.92155 0.0
C1935 C 0.11304 0.02766 0.96935 0.0
C1936 C 0.12145 0.02226 0.95282 0.0
H1937 H 0.14425 0.01047 0.85929 0.0
H1938 H 0.128 1.0051 0.88631 0.0
H1939 H 0.16123 0.00965 0.94038 0.0
H1940 H 0.12513 0.05234 0.00953 0.0
H1941 H 0.13885 0.04101 0.98347 0.0
C1942 C 0.81553 0.37232 0.5959 0.0
C1943 C 0.80729 0.36107 0.58073 0.0
C1944 C 0.81567 0.36649 0.61354 0.0
C1945 C 0.80928 0.32566 0.63906 0.0
H1946 H 0.80322 0.35863 0.6792 0.0
C1947 C 0.79382 0.30285 0.71012 0.0
C1948 C 0.80308 0.3129 0.7257 0.0
C1949 C 0.79514 0.30896 0.69271 0.0
C1950 C 0.80515 0.34931 0.66819 0.0
H1951 H 0.79276 0.33479 0.57225 0.0
H1952 H 0.79263 0.32464 0.60311 0.0
H1953 H 0.80349 0.3685 0.64835 0.0
H1954 H 0.82095 0.33745 0.73501 0.0
H1955 H 0.82314 0.34824 0.70445 0.0
H1956 H 0.81056 0.30639 0.65893 0.0
C1957 C 0.79931 0.33793 0.60135 0.0
C1958 C 0.80533 0.35496 0.65044 0.0
C1959 C 0.79928 0.34376 0.58363 0.0
C1960 C 0.81365 0.32935 0.72335 0.0
C1961 C 0.81484 0.33557 0.70584 0.0
C1962 C 0.80897 0.31999 0.65678 0.0
C1963 C 0.80746 0.34924 0.6166 0.0
C1964 C 0.80735 0.34321 0.63558 0.0
C1965 C 0.80566 0.32537 0.69029 0.0
C1966 C 0.80682 0.33171 0.67157 0.0
H1967 H 0.82194 0.38572 0.59416 0.0
H1968 H 0.82241 0.37551 0.62479 0.0
H1969 H 0.81123 0.31628 0.62812 0.0
H1970 H 0.78554 0.29011 0.71129 0.0
H1971 H 0.78768 0.30087 0.68112 0.0
C1972 C 0.50388 0.10925 0.36021 0.0
C1973 C 0.50938 0.10612 0.34272 0.0
C1974 C 0.51499 0.10617 0.37565 0.0
C1975 C 0.54388 0.07417 0.38703 0.0
H1976 H 0.54907 0.09784 0.43552 0.0
C1977 C 0.56523 0.05976 0.46652 0.0
C1978 C 0.552 0.04481 0.46809 0.0
C1979 C 0.56499 0.0688 0.4506 0.0
C1980 C 0.54801 0.09121 0.42201 0.0
H1981 H 0.5316 0.09919 0.32769 0.0
H1982 H 0.55087 0.09356 0.3547 0.0
H1983 H 0.54058 0.11385 0.40899 0.0
H1984 H 0.5288 0.02705 0.45398 0.0
H1985 H 0.52867 0.04262 0.42596 0.0
H1986 H 0.55008 0.05119 0.40012 0.0
C1987 C 0.53797 0.09833 0.35644 0.0
C1988 C 0.54311 0.10033 0.40689 0.0
C1989 C 0.52696 0.10162 0.34101 0.0
C1990 C 0.53912 0.03855 0.45314 0.0
C1991 C 0.53911 0.04739 0.43711 0.0
C1992 C 0.54848 0.06499 0.40214 0.0
C1993 C 0.53167 0.09977 0.3738 0.0
C1994 C 0.54053 0.09172 0.38932 0.0
C1995 C 0.55178 0.06281 0.43587 0.0
C1996 C 0.55007 0.07329 0.41978 0.0
H1997 H 0.49043 0.11281 0.36192 0.0
H1998 H 0.50977 0.10732 0.38888 0.0
H1999 H 0.54176 0.06713 0.37366 0.0
H2000 H 0.57528 0.06494 0.47787 0.0
H2001 H 0.57489 0.08066 0.44991 0.0
C2002 C 0.81372 0.69943 0.07321 0.0
C2003 C 0.81387 0.681 0.0705 0.0
C2004 C 0.81228 0.70777 0.09075 0.0
C2005 C 0.81499 0.69994 0.14228 0.0
H2006 H 0.79483 0.7437 0.14622 0.0
C2007 C 0.81452 0.73847 0.21467 0.0
C2008 C 0.80131 0.74972 0.21774 0.0
C2009 C 0.81606 0.73042 0.19707 0.0
C2010 C 0.80039 0.73141 0.14569 0.0
H2011 H 0.81246 0.6572 0.08513 0.0
H2012 H 0.8098 0.67133 0.11512 0.0
H2013 H 0.79706 0.72951 0.11627 0.0
H2014 H 0.77931 0.7609 0.2035 0.0
H2015 H 0.78174 0.74695 0.17331 0.0
H2016 H 0.81792 0.70159 0.17166 0.0
C2017 C 0.8111 0.67967 0.1038 0.0
C2018 C 0.80194 0.72321 0.12812 0.0
C2019 C 0.81254 0.67137 0.08629 0.0
C2020 C 0.78975 0.75249 0.20212 0.0
C2021 C 0.79127 0.74442 0.18449 0.0
C2022 C 0.81346 0.70813 0.15983 0.0
C2023 C 0.81091 0.69816 0.10665 0.0
C2024 C 0.80928 0.70719 0.12582 0.0
C2025 C 0.80446 0.73308 0.18137 0.0
C2026 C 0.80611 0.72415 0.16215 0.0
H2027 H 0.8147 0.70755 0.06168 0.0
H2028 H 0.81251 0.72195 0.09176 0.0
H2029 H 0.82097 0.68787 0.14177 0.0
H2030 H 0.82387 0.73585 0.22599 0.0
H2031 H 0.82669 0.72223 0.19585 0.0
C2032 C 0.17004 0.05382 0.76492 0.0
C2033 C 0.16137 0.05047 0.78083 0.0
C2034 C 0.15961 0.05484 0.74844 0.0
C2035 C 0.11423 0.06182 0.72818 0.0
H2036 H 0.1278 0.03618 0.68581 0.0
C2037 C 0.06992 0.05177 0.65859 0.0
C2038 C 0.07949 0.05356 0.64297 0.0
C2039 C 0.07951 0.05175 0.67577 0.0
C2040 C 0.12397 0.04357 0.69746 0.0
H2041 H 0.13506 0.04605 0.79219 0.0
H2042 H 0.11676 0.04781 0.76325 0.0
H2043 H 0.14533 0.03585 0.71528 0.0
H2044 H 0.10654 0.05733 0.63312 0.0
H2045 H 0.12327 0.05738 0.66309 0.0
H2046 H 0.09287 0.06959 0.71026 0.0
C2047 C 0.13163 0.04972 0.76358 0.0
C2048 C 0.134 0.04337 0.71433 0.0
C2049 C 0.14209 0.04864 0.7801 0.0
C2050 C 0.0988 0.0556 0.64488 0.0
C2051 C 0.10837 0.05562 0.66203 0.0
C2052 C 0.1042 0.06205 0.71125 0.0
C2053 C 0.1403 0.05256 0.74756 0.0
C2054 C 0.12933 0.0526 0.72981 0.0
C2055 C 0.09882 0.05355 0.67763 0.0
C2056 C 0.10907 0.05303 0.69571 0.0
H2057 H 0.18489 0.05536 0.76511 0.0
H2058 H 0.16666 0.05734 0.73634 0.0
H2059 H 0.11043 0.06914 0.73989 0.0
H2060 H 0.05501 0.05 0.65747 0.0
H2061 H 0.07178 0.04995 0.68754 0.0
C2062 C 0.78096 0.34262 0.47059 0.0
C2063 C 0.79856 0.34929 0.47929 0.0
C2064 C 0.77886 0.33436 0.45286 0.0
C2065 C 0.80575 0.31537 0.41744 0.0
H2066 H 0.76441 0.32254 0.38394 0.0
C2067 C 0.8056 0.30635 0.33927 0.0
C2068 C 0.79002 0.29639 0.32918 0.0
C2069 C 0.80548 0.31107 0.35785 0.0
C2070 C 0.77592 0.32025 0.3932 0.0
H2071 H 0.82775 0.35246 0.4761 0.0
H2072 H 0.82419 0.33871 0.44525 0.0
H2073 H 0.76653 0.33404 0.41579 0.0
H2074 H 0.76199 0.28372 0.33082 0.0
H2075 H 0.76161 0.29249 0.36342 0.0
H2076 H 0.8155 0.3023 0.39457 0.0
C2077 C 0.81191 0.33928 0.45215 0.0
C2078 C 0.77714 0.3268 0.41153 0.0
C2079 C 0.81399 0.34732 0.46991 0.0
C2080 C 0.77421 0.29137 0.33819 0.0
C2081 C 0.77398 0.29644 0.35682 0.0
C2082 C 0.80466 0.3091 0.3991 0.0
C2083 C 0.79431 0.33271 0.44325 0.0
C2084 C 0.79223 0.32468 0.42393 0.0
C2085 C 0.78969 0.30625 0.36688 0.0
C2086 C 0.78987 0.31165 0.38669 0.0
H2087 H 0.76878 0.34391 0.47744 0.0
H2088 H 0.76509 0.32926 0.44672 0.0
H2089 H 0.81732 0.31295 0.42651 0.0
H2090 H 0.81806 0.31039 0.33285 0.0
H2091 H 0.81774 0.31876 0.36514 0.0
C2092 C 0.50455 0.05035 0.26537 0.0
C2093 C 0.49382 0.06321 0.25999 0.0
C2094 C 0.51191 0.04025 0.2523 0.0
C2095 C 0.50599 0.02598 0.20333 0.0
H2096 H 0.55812 0.02277 0.20922 0.0
C2097 C 0.56512 0.02244 0.15342 0.0
C2098 C 0.55542 0.01023 0.13975 0.0
C2099 C 0.55857 0.02407 0.17052 0.0
C2100 C 0.54352 0.02343 0.20746 0.0
H2101 H 0.48229 0.0756 0.23686 0.0
H2102 H 0.49519 0.05809 0.21411 0.0
H2103 H 0.54378 0.03568 0.23436 0.0
H2104 H 0.53242 0.98896 0.13368 0.0
H2105 H 0.52104 0.99166 0.16366 0.0
H2106 H 0.50581 0.01479 0.17617 0.0
C2107 C 0.49775 0.05563 0.22836 0.0
C2108 C 0.53529 0.03069 0.22187 0.0
C2109 C 0.49049 0.06576 0.24139 0.0
C2110 C 0.53993 0.9987 0.14392 0.0
C2111 C 0.53344 1.00026 0.16105 0.0
C2112 C 0.51418 0.01875 0.18896 0.0
C2113 C 0.50851 0.04277 0.23368 0.0
C2114 C 0.51659 0.03258 0.21968 0.0
C2115 C 0.54225 0.01346 0.17426 0.0
C2116 C 0.53315 0.01791 0.19067 0.0
H2117 H 0.50729 0.04811 0.27965 0.0
H2118 H 0.52012 0.03039 0.25674 0.0
H2119 H 0.49148 0.02703 0.20139 0.0
H2120 H 0.57705 0.03154 0.15051 0.0
H2121 H 0.56558 0.03449 0.18032 0.0
C2122 C 0.82138 0.69871 0.96277 0.0
C2123 C 0.81335 0.68087 0.9641 0.0
C2124 C 0.82057 0.70716 0.94593 0.0
C2125 C 0.7962 0.70203 0.89663 0.0
H2126 H 0.83363 0.74097 0.88818 0.0
C2127 C 0.796 0.73295 0.82408 0.0
C2128 C 0.80476 0.7504 0.82192 0.0
C2129 C 0.79729 0.72485 0.84104 0.0
C2130 C 0.82277 0.73027 0.89007 0.0
H2131 H 0.79805 0.65832 0.94757 0.0
H2132 H 0.79668 0.67263 0.91877 0.0
H2133 H 0.83526 0.72688 0.91699 0.0
H2134 H 0.82193 0.77267 0.83729 0.0
H2135 H 0.82404 0.75894 0.86649 0.0
H2136 H 0.78357 0.70544 0.86988 0.0
C2137 C 0.80355 0.68044 0.93077 0.0
C2138 C 0.82374 0.72199 0.907 0.0
C2139 C 0.80445 0.672 0.94758 0.0
C2140 C 0.81498 0.75925 0.83787 0.0
C2141 C 0.81624 0.75116 0.85492 0.0
C2142 C 0.79519 0.71033 0.87975 0.0
C2143 C 0.81157 0.69833 0.92932 0.0
C2144 C 0.81051 0.70753 0.91087 0.0
C2145 C 0.80736 0.73366 0.85714 0.0
C2146 C 0.80847 0.72473 0.87579 0.0
H2147 H 0.82838 0.70631 0.97487 0.0
H2148 H 0.82686 0.72087 0.94611 0.0
H2149 H 0.78533 0.69135 0.89853 0.0
H2150 H 0.78796 0.72533 0.81251 0.0
H2151 H 0.79037 0.7114 0.8413 0.0
C2152 C 0.85136 0.1727 0.02312 0.0
C2153 C 0.83464 0.16387 0.01415 0.0
C2154 C 0.86747 0.16508 0.02277 0.0
C2155 C 0.88294 0.12153 0.01388 0.0
H2156 H 0.93065 0.15012 0.01181 0.0
C2157 C 0.9472 0.09033 0.00064 0.0
C2158 C 0.96321 0.09626 0.0125 0.0
C2159 C 0.93207 0.09934 0.00055 0.0
C2160 C 0.91742 0.142 0.01251 0.0
H2161 H 0.82178 0.14042 0.99732 0.0
H2162 H 0.84983 0.12742 0.99619 0.0
H2163 H 0.90313 0.16439 0.01203 0.0
H2164 H 0.9759 0.11673 0.03325 0.0
H2165 H 0.94954 0.13268 0.03276 0.0
H2166 H 0.8972 0.09914 0.01403 0.0
C2167 C 0.85052 0.13996 0.00399 0.0
C2168 C 0.90165 0.15016 0.0127 0.0
C2169 C 0.83442 0.14748 0.00451 0.0
C2170 C 0.96391 0.11185 0.0238 0.0
C2171 C 0.94879 0.12098 0.02358 0.0
C2172 C 0.89865 0.11339 0.01349 0.0
C2173 C 0.86723 0.14853 0.01329 0.0
C2174 C 0.88417 0.14002 0.01331 0.0
C2175 C 0.9326 0.11464 0.01217 0.0
C2176 C 0.91604 0.12351 0.01274 0.0
H2177 H 0.85193 0.18533 0.03072 0.0
H2178 H 0.87999 0.17199 0.03026 0.0
H2179 H 0.86984 0.11329 0.01482 0.0
H2180 H 0.9463 0.07864 0.99142 0.0
H2181 H 0.91991 0.09432 0.99136 0.0
C2182 C 0.34092 0.44735 0.01847 0.0
C2183 C 0.33748 0.43068 0.02592 0.0
C2184 C 0.35913 0.45636 0.0176 0.0
C2185 C 0.40913 0.45786 0.03719 0.0
H2186 H 0.42068 0.48676 0.99705 0.0
C2187 C 0.48151 0.50328 0.03767 0.0
C2188 C 0.48977 0.50601 0.02122 0.0
C2189 C 0.46326 0.49427 0.0379 0.0
C2190 C 0.41791 0.47872 0.0084 0.0
H2191 H 0.35143 0.41076 0.03834 0.0
H2192 H 0.38277 0.42629 0.03706 0.0
H2193 H 0.38935 0.47118 0.99812 0.0
H2194 H 0.48422 0.50093 0.99192 0.0
H2195 H 0.45255 0.48556 0.99227 0.0
H2196 H 0.43765 0.46533 0.04747 0.0
C2197 C 0.37138 0.43261 0.03188 0.0
C2198 C 0.39963 0.4698 0.00912 0.0
C2199 C 0.35318 0.42353 0.03255 0.0
C2200 C 0.47867 0.49936 0.00495 0.0
C2201 C 0.46026 0.49048 0.00517 0.0
C2202 C 0.42733 0.46694 0.03658 0.0
C2203 C 0.3749 0.44926 0.02432 0.0
C2204 C 0.39472 0.45907 0.02352 0.0
C2205 C 0.45208 0.48756 0.02169 0.0
C2206 C 0.43228 0.47763 0.02217 0.0
H2207 H 0.32944 0.45349 0.01314 0.0
H2208 H 0.36079 0.46912 0.01183 0.0
H2209 H 0.40635 0.45003 0.04868 0.0
H2210 H 0.48926 0.50801 0.05061 0.0
H2211 H 0.45785 0.49277 0.051 0.0
C2212 C 0.37352 0.55394 0.74105 0.0
C2213 C 0.37157 0.54494 0.72369 0.0
C2214 C 0.36272 0.5669 0.74487 0.0
C2215 C 0.33752 0.59899 0.72377 0.0
H2216 H 0.31545 0.60013 0.76959 0.0
C2217 C 0.29647 0.65433 0.74418 0.0
C2218 C 0.29996 0.66137 0.76238 0.0
C2219 C 0.30289 0.63877 0.73873 0.0
C2220 C 0.32163 0.60008 0.75681 0.0
H2221 H 0.3569 0.54246 0.69666 0.0
H2222 H 0.33809 0.56548 0.70332 0.0
H2223 H 0.33113 0.57542 0.76118 0.0
H2224 H 0.31278 0.65766 0.78917 0.0
H2225 H 0.32429 0.6307 0.77965 0.0
H2226 H 0.32866 0.62394 0.71965 0.0
C2227 C 0.34796 0.56238 0.71394 0.0
C2228 C 0.33055 0.5859 0.75197 0.0
C2229 C 0.35866 0.54922 0.71015 0.0
C2230 C 0.3097 0.6524 0.7751 0.0
C2231 C 0.31624 0.63693 0.76963 0.0
C2232 C 0.32873 0.61326 0.72867 0.0
C2233 C 0.34985 0.57126 0.73137 0.0
C2234 C 0.33885 0.58538 0.73556 0.0
C2235 C 0.31305 0.63 0.75135 0.0
C2236 C 0.32096 0.61412 0.7454 0.0
H2237 H 0.38335 0.55092 0.75176 0.0
H2238 H 0.36465 0.57372 0.75834 0.0
H2239 H 0.34395 0.59897 0.71111 0.0
H2240 H 0.28876 0.66086 0.73415 0.0
H2241 H 0.29993 0.63364 0.72462 0.0
C2242 C 0.22075 0.65466 0.51896 0.0
C2243 C 0.23676 0.64881 0.51355 0.0
C2244 C 0.20415 0.64292 0.51804 0.0
C2245 C 0.16855 0.61817 0.50555 0.0
H2246 H 0.16937 0.56935 0.51655 0.0
C2247 C 0.10249 0.56634 0.49516 0.0
C2248 C 0.09979 0.55408 0.50854 0.0
C2249 C 0.11948 0.57721 0.49492 0.0
C2250 C 0.16883 0.58296 0.51356 0.0
H2251 H 0.24786 0.62613 0.50275 0.0
H2252 H 0.21894 0.60584 0.50071 0.0
H2253 H 0.19807 0.58993 0.51867 0.0
H2254 H 0.11304 0.54342 0.53195 0.0
H2255 H 0.14248 0.56252 0.53175 0.0
H2256 H 0.13925 0.61136 0.50113 0.0
C2257 C 0.2192 0.61934 0.50608 0.0
C2258 C 0.18537 0.59475 0.51455 0.0
C2259 C 0.2358 0.63103 0.50713 0.0
C2260 C 0.11465 0.55261 0.52136 0.0
C2261 C 0.1316 0.56357 0.52121 0.0
C2262 C 0.152 0.6064 0.50468 0.0
C2263 C 0.20314 0.62509 0.51157 0.0
C2264 C 0.18547 0.61253 0.51055 0.0
C2265 C 0.13418 0.5762 0.50815 0.0
C2266 C 0.1519 0.58862 0.50868 0.0
H2267 H 0.22108 0.66827 0.52403 0.0
H2268 H 0.19218 0.6478 0.52266 0.0
H2269 H 0.16805 0.63167 0.50214 0.0
H2270 H 0.09138 0.56778 0.485 0.0
H2271 H 0.12103 0.58649 0.48441 0.0
C2272 C 0.65473 0.94437 0.76228 0.0
C2273 C 0.64434 0.95076 0.77554 0.0
C2274 C 0.66674 0.93245 0.76662 0.0
C2275 C 0.69421 0.91911 0.80583 0.0
H2276 H 0.70365 0.88296 0.77041 0.0
C2277 C 0.74992 0.8735 0.81864 0.0
C2278 C 0.76087 0.87155 0.80419 0.0
C2279 C 0.73453 0.88213 0.81636 0.0
C2280 C 0.7012 0.89305 0.78041 0.0
H2281 H 0.63772 0.94908 0.80352 0.0
H2282 H 0.65864 0.92801 0.81109 0.0
H2283 H 0.67763 0.89867 0.76409 0.0
H2284 H 0.7643 0.87719 0.77608 0.0
H2285 H 0.73767 0.89241 0.77221 0.0
H2286 H 0.71799 0.91357 0.82203 0.0
C2287 C 0.65765 0.93244 0.7974 0.0
C2288 C 0.6863 0.90203 0.77681 0.0
C2289 C 0.64559 0.94439 0.79303 0.0
C2290 C 0.75631 0.87869 0.78756 0.0
C2291 C 0.7409 0.88717 0.78525 0.0
C2292 C 0.70909 0.91004 0.80948 0.0
C2293 C 0.66862 0.92661 0.78433 0.0
C2294 C 0.6829 0.91547 0.78927 0.0
C2295 C 0.7297 0.88878 0.79952 0.0
C2296 C 0.71298 0.89723 0.79659 0.0
H2297 H 0.65409 0.94906 0.74869 0.0
H2298 H 0.67513 0.92843 0.75628 0.0
H2299 H 0.69209 0.92952 0.81563 0.0
H2300 H 0.75315 0.86817 0.83162 0.0
H2301 H 0.72612 0.88319 0.82758 0.0
C2302 C 0.7108 0.9177 0.5163 0.0
C2303 C 0.72836 0.92625 0.52409 0.0
C2304 C 0.69479 0.92627 0.5158 0.0
C2305 C 0.67877 0.97216 0.52418 0.0
H2306 H 0.63008 0.94437 0.51849 0.0
C2307 C 0.61179 0.00681 0.52972 0.0
C2308 C 0.59441 0.99915 0.52067 0.0
C2309 C 0.62759 0.99801 0.53 0.0
C2310 C 0.64344 0.95261 0.5199 0.0
H2311 H 0.74186 0.9512 0.5376 0.0
H2312 H 0.71456 0.96581 0.53708 0.0
H2313 H 0.6572 0.92965 0.51933 0.0
H2314 H 0.58104 0.97535 0.50478 0.0
H2315 H 0.60812 0.96021 0.50519 0.0
H2316 H 0.66499 0.99511 0.52484 0.0
C2317 C 0.71291 0.95244 0.53093 0.0
C2318 C 0.6594 0.94397 0.52038 0.0
C2319 C 0.72891 0.94388 0.53137 0.0
C2320 C 0.59384 0.98203 0.51197 0.0
C2321 C 0.60966 0.97316 0.51232 0.0
C2322 C 0.66282 0.98079 0.52377 0.0
C2323 C 0.69523 0.94398 0.5231 0.0
C2324 C 0.67769 0.95342 0.52255 0.0
C2325 C 0.62714 0.98088 0.5213 0.0
C2326 C 0.64457 0.97134 0.52163 0.0
H2327 H 0.70936 0.90423 0.51042 0.0
H2328 H 0.68202 0.91885 0.50933 0.0
H2329 H 0.69207 0.98048 0.52551 0.0
H2330 H 0.61329 0.01984 0.53673 0.0
H2331 H 0.64023 1.00476 0.5374 0.0
C2332 C 0.35727 0.44946 0.70444 0.0
C2333 C 0.37539 0.45422 0.70002 0.0
C2334 C 0.34983 0.43166 0.70508 0.0
C2335 C 0.36566 0.39027 0.71545 0.0
H2336 H 0.31417 0.37042 0.70403 0.0
C2337 C 0.33602 0.32141 0.73742 0.0
C2338 C 0.31909 0.32043 0.74498 0.0
C2339 C 0.34274 0.33624 0.72836 0.0
C2340 C 0.32858 0.3758 0.70736 0.0
H2341 H 0.39946 0.44412 0.69144 0.0
H2342 H 0.38643 0.41297 0.6925 0.0
H2343 H 0.32589 0.39914 0.69326 0.0
H2344 H 0.29585 0.33418 0.74878 0.0
H2345 H 0.30773 0.36009 0.73341 0.0
H2346 H 0.36825 0.36738 0.73018 0.0
C2347 C 0.37806 0.42302 0.69569 0.0
C2348 C 0.33529 0.3922 0.70112 0.0
C2349 C 0.38547 0.44084 0.69497 0.0
C2350 C 0.30894 0.33448 0.74312 0.0
C2351 C 0.31568 0.34929 0.73413 0.0
C2352 C 0.35894 0.37392 0.72174 0.0
C2353 C 0.3604 0.41828 0.70136 0.0
C2354 C 0.35381 0.39979 0.70546 0.0
C2355 C 0.33268 0.3504 0.7267 0.0
C2356 C 0.34023 0.36669 0.71814 0.0
H2357 H 0.34916 0.4595 0.70836 0.0
H2358 H 0.33623 0.42846 0.70961 0.0
H2359 H 0.37994 0.39587 0.71926 0.0
H2360 H 0.34411 0.31075 0.73848 0.0
H2361 H 0.3558 0.33659 0.72263 0.0
C2362 C 0.17863 0.54216 0.24865 0.0
C2363 C 0.17671 0.53128 0.26327 0.0
C2364 C 0.19274 0.55661 0.24975 0.0
C2365 C 0.22678 0.58418 0.25262 0.0
H2366 H 0.232 0.61265 0.29851 0.0
C2367 C 0.26537 0.65547 0.25895 0.0
C2368 C 0.25585 0.66789 0.26721 0.0
C2369 C 0.26023 0.63737 0.26068 0.0
C2370 C 0.23075 0.60484 0.28562 0.0
H2371 H 0.18873 0.52623 0.28999 0.0
H2372 H 0.21362 0.55135 0.2918 0.0
H2373 H 0.21465 0.58287 0.29617 0.0
H2374 H 0.23396 0.67116 0.28428 0.0
H2375 H 0.2248 0.63968 0.28708 0.0
H2376 H 0.24174 0.6066 0.24171 0.0
C2377 C 0.20399 0.54892 0.27964 0.0
C2378 C 0.221 0.58766 0.28433 0.0
C2379 C 0.18981 0.53449 0.27856 0.0
C2380 C 0.24168 0.66192 0.27793 0.0
C2381 C 0.23647 0.64384 0.27957 0.0
C2382 C 0.23643 0.60141 0.25388 0.0
C2383 C 0.20531 0.56044 0.26545 0.0
C2384 C 0.21839 0.57733 0.26765 0.0
C2385 C 0.24539 0.63132 0.27061 0.0
C2386 C 0.238 0.61214 0.27023 0.0
H2387 H 0.16874 0.54001 0.23668 0.0
H2388 H 0.19316 0.5653 0.23866 0.0
H2389 H 0.2253 0.57646 0.23966 0.0
H2390 H 0.27654 0.65975 0.25083 0.0
H2391 H 0.26759 0.6281 0.25387 0.0
C2392 C 0.49288 0.68984 0.44419 0.0
C2393 C 0.49785 0.68611 0.42657 0.0
C2394 C 0.49732 0.67941 0.45836 0.0
C2395 C 0.51502 0.63787 0.46885 0.0
H2396 H 0.54457 0.66685 0.50892 0.0
C2397 C 0.57449 0.61342 0.50637 0.0
C2398 C 0.57288 0.61101 0.52488 0.0
C2399 C 0.56379 0.6242 0.49714 0.0
C2400 C 0.5361 0.65862 0.49799 0.0
H2401 H 0.5097 0.66769 0.40951 0.0
H2402 H 0.51738 0.64945 0.43414 0.0
H2403 H 0.52526 0.68062 0.48695 0.0
H2404 H 0.56017 0.61895 0.54876 0.0
H2405 H 0.54155 0.63838 0.53251 0.0
H2406 H 0.52668 0.61609 0.47933 0.0
C2407 C 0.51009 0.6604 0.4371 0.0
C2408 C 0.52498 0.66642 0.48549 0.0
C2409 C 0.50576 0.67088 0.42297 0.0
C2410 C 0.56188 0.62097 0.53455 0.0
C2411 C 0.55109 0.63185 0.52525 0.0
C2412 C 0.52617 0.63014 0.48126 0.0
C2413 C 0.50662 0.665 0.45508 0.0
C2414 C 0.5149 0.65621 0.47039 0.0
C2415 C 0.55131 0.63271 0.5063 0.0
C2416 C 0.53732 0.64059 0.49546 0.0
H2417 H 0.48667 0.70147 0.44733 0.0
H2418 H 0.49426 0.68309 0.47204 0.0
H2419 H 0.50716 0.62965 0.45755 0.0
H2420 H 0.58275 0.60568 0.49866 0.0
H2421 H 0.56434 0.62494 0.48256 0.0
C2422 C 0.62028 0.31639 0.69967 0.0
C2423 C 0.62225 0.33047 0.68824 0.0
C2424 C 0.63394 0.31511 0.7136 0.0
C2425 C 0.67604 0.33927 0.74034 0.0
H2426 H 0.68987 0.29238 0.74112 0.0
C2427 C 0.74772 0.32516 0.76737 0.0
C2428 C 0.7491 0.30878 0.77464 0.0
C2429 C 0.73057 0.32924 0.76101 0.0
C2430 C 0.68598 0.30549 0.74145 0.0
H2431 H 0.63961 0.35468 0.68287 0.0
H2432 H 0.66381 0.35222 0.70703 0.0
H2433 H 0.66293 0.29692 0.72184 0.0
H2434 H 0.73352 0.2846 0.78264 0.0
H2435 H 0.70356 0.29189 0.7719 0.0
H2436 H 0.69961 0.34787 0.75961 0.0
C2437 C 0.65156 0.34231 0.70537 0.0
C2438 C 0.67051 0.3081 0.73033 0.0
C2439 C 0.63779 0.34366 0.69146 0.0
C2440 C 0.73292 0.29721 0.77682 0.0
C2441 C 0.71577 0.30135 0.77061 0.0
C2442 C 0.69158 0.33665 0.75152 0.0
C2443 C 0.64995 0.3278 0.71632 0.0
C2444 C 0.6655 0.32505 0.72944 0.0
C2445 C 0.71447 0.31708 0.76195 0.0
C2446 C 0.69686 0.31975 0.75198 0.0
H2447 H 0.60831 0.30616 0.69765 0.0
H2448 H 0.63214 0.30396 0.72203 0.0
H2449 H 0.67238 0.35245 0.74007 0.0
H2450 H 0.75995 0.3344 0.76556 0.0
H2451 H 0.73008 0.34142 0.75433 0.0
C2452 C 0.99212 0.2862 0.89742 0.0
C2453 C 0.99897 0.27347 0.90795 0.0
C2454 C 0.99376 0.30375 0.90444 0.0
C2455 C 1.00274 0.33202 0.94773 0.0
H2456 H 0.01663 0.36944 0.91597 0.0
C2457 C 0.0253 0.40444 0.97535 0.0
C2458 C 0.01696 0.41712 0.96602 0.0
C2459 C 0.02354 0.38706 0.96783 0.0
C2460 C 1.01263 0.35912 0.92494 0.0
H2461 H 1.01269 0.26901 0.93412 0.0
H2462 H 0.01584 0.29965 0.94627 0.0
H2463 H 1.0119 0.33859 0.90385 0.0
H2464 H 1.00089 0.42178 0.94122 0.0
H2465 H 0.99779 0.39134 0.92805 0.0
H2466 H 1.0037 0.35257 0.96886 0.0
C2467 C 1.00892 0.29608 0.93272 0.0
C2468 C 1.00984 0.34147 0.91801 0.0
C2469 C 1.00719 0.27853 0.92573 0.0
C2470 C 1.00733 0.41223 0.94876 0.0
C2471 C 1.00567 0.39486 0.94117 0.0
C2472 C 1.00564 0.34965 0.95468 0.0
C2473 C 1.00237 0.30893 0.92211 0.0
C2474 C 1.00489 0.32771 0.92934 0.0
C2475 C 0.0135 0.38205 0.95078 0.0
C2476 C 1.01064 0.36337 0.94336 0.0
H2477 H 0.98567 0.28264 0.88367 0.0
H2478 H 0.9883 0.31327 0.89603 0.0
H2479 H 0.99864 0.32178 0.95675 0.0
H2480 H 0.03267 0.40781 0.98875 0.0
H2481 H 0.02988 0.37749 0.97543 0.0
C2482 C 0.03679 0.79554 0.18295 0.0
C2483 C 0.03713 0.81256 0.17667 0.0
C2484 C 0.02347 0.78893 0.1942 0.0
C2485 C 0.99048 0.80321 0.22474 0.0
H2486 H 0.96543 0.75489 0.2151 0.0
C2487 C 0.93326 0.7749 0.26769 0.0
C2488 C 0.91717 0.76591 0.25766 0.0
C2489 C 0.94952 0.77876 0.25935 0.0
C2490 C 0.9723 0.76841 0.21795 0.0
H2491 H 0.02387 0.836 0.17714 0.0
H2492 H 1.00046 0.82439 0.19649 0.0
H2493 H 0.99052 0.76583 0.19727 0.0
H2494 H 0.90581 0.753 0.23131 0.0
H2495 H 0.93402 0.76012 0.21662 0.0
H2496 H 0.97178 0.80608 0.24485 0.0
C2497 C 1.01064 0.81625 0.19303 0.0
C2498 C 0.98679 0.77462 0.20787 0.0
C2499 C 0.02396 0.82286 0.18183 0.0
C2500 C 0.91791 0.76018 0.23933 0.0
C2501 C 0.93415 0.76406 0.23098 0.0
C2502 C 0.97598 0.79702 0.23479 0.0
C2503 C 1.01025 0.79923 0.19935 0.0
C2504 C 0.99583 0.79218 0.21095 0.0
C2505 C 0.95002 0.77373 0.24079 0.0
C2506 C 0.96654 0.77963 0.23132 0.0
H2507 H 0.04684 0.78734 0.17923 0.0
H2508 H 0.02362 0.77584 0.19899 0.0
H2509 H 0.99735 0.81672 0.22763 0.0
H2510 H 0.93312 0.77961 0.2818 0.0
H2511 H 0.96159 0.78601 0.26734 0.0
C2512 C 0.53804 0.33614 0.09546 0.0
C2513 C 0.54094 0.33444 0.11455 0.0
C2514 C 0.53923 0.35303 0.08764 0.0
C2515 C 0.54215 0.40395 0.09986 0.0
H2516 H 0.55262 0.4081 0.04972 0.0
C2517 C 0.55107 0.47543 0.06824 0.0
C2518 C 0.55043 0.47732 0.04914 0.0
C2519 C 0.55008 0.45853 0.07599 0.0
C2520 C 0.54946 0.40759 0.06373 0.0
H2521 H 0.54751 0.35067 0.13994 0.0
H2522 H 0.54958 0.37944 0.12673 0.0
H2523 H 0.55054 0.37948 0.06276 0.0
H2524 H 0.54797 0.4613 0.02364 0.0
H2525 H 0.54605 0.43255 0.03666 0.0
H2526 H 0.54091 0.43196 0.10087 0.0
C2527 C 0.54617 0.3677 0.11748 0.0
C2528 C 0.54824 0.39066 0.07143 0.0
C2529 C 0.54507 0.35082 0.12526 0.0
C2530 C 0.54871 0.46106 0.03835 0.0
C2531 C 0.54766 0.44414 0.04607 0.0
C2532 C 0.54328 0.42087 0.09215 0.0
C2533 C 0.54331 0.36951 0.09835 0.0
C2534 C 0.54456 0.38813 0.08982 0.0
C2535 C 0.54828 0.44213 0.06523 0.0
C2536 C 0.54701 0.42344 0.07375 0.0
H2537 H 0.53478 0.32426 0.08636 0.0
H2538 H 0.53664 0.35303 0.07298 0.0
H2539 H 0.53901 0.40336 0.11389 0.0
H2540 H 0.55231 0.48718 0.07744 0.0
H2541 H 0.55091 0.45854 0.09069 0.0
C2542 C 0.98585 0.27946 0.38072 0.0
C2543 C 0.99947 0.27162 0.37227 0.0
C2544 C 0.96817 0.28001 0.37154 0.0
C2545 C 0.93408 0.25876 0.33179 0.0
H2546 H 0.91058 0.30026 0.3392 0.0
C2547 C 0.85593 0.2607 0.30403 0.0
C2548 C 0.85119 0.27651 0.29719 0.0
C2549 C 0.87381 0.25986 0.31269 0.0
C2550 C 0.9168 0.2885 0.33681 0.0
H2551 H 1.00423 0.25799 0.34701 0.0
H2552 H 0.97354 0.25852 0.33129 0.0
H2553 H 0.94111 0.29929 0.35468 0.0
H2554 H 0.86249 0.30397 0.29475 0.0
H2555 H 0.89307 0.30263 0.30994 0.0
H2556 H 0.90962 0.2479 0.31409 0.0
C2557 C 0.97655 0.26441 0.34512 0.0
C2558 C 0.93449 0.28787 0.34593 0.0
C2559 C 0.99439 0.26417 0.3542 0.0
C2560 C 0.86525 0.29145 0.29959 0.0
C2561 C 0.88298 0.2907 0.30854 0.0
C2562 C 0.9162 0.25925 0.32294 0.0
C2563 C 0.96297 0.27245 0.3535 0.0
C2564 C 0.94369 0.27303 0.34363 0.0
C2565 C 0.8878 0.27489 0.31533 0.0
C2566 C 0.90709 0.27418 0.32512 0.0
H2567 H 0.98891 0.28539 0.39454 0.0
H2568 H 0.95841 0.2862 0.37882 0.0
H2569 H 0.94026 0.24696 0.32952 0.0
H2570 H 0.84577 0.24882 0.30267 0.0
H2571 H 0.87653 0.24739 0.31768 0.0
C2572 C 0.03515 0.72404 0.59242 0.0
C2573 C 0.036 0.72767 0.61158 0.0
C2574 C 0.03581 0.70669 0.5842 0.0
C2575 C 0.03658 0.65705 0.59553 0.0
H2576 H 0.0441 0.65076 0.54449 0.0
C2577 C 0.04761 0.58631 0.56186 0.0
C2578 C 0.04262 0.58154 0.54298 0.0
C2579 C 0.04672 0.60361 0.57003 0.0
C2580 C 0.04181 0.65191 0.55877 0.0
H2581 H 0.03848 0.71458 0.63671 0.0
H2582 H 0.04 0.68524 0.62295 0.0
H2583 H 0.04286 0.68014 0.55815 0.0
H2584 H 0.03275 0.59271 0.51835 0.0
H2585 H 0.03129 0.62221 0.53221 0.0
H2586 H 0.03577 0.62874 0.59606 0.0
C2587 C 0.03843 0.69555 0.6138 0.0
C2588 C 0.04106 0.66927 0.56687 0.0
C2589 C 0.03763 0.71284 0.62197 0.0
C2590 C 0.03678 0.59528 0.53284 0.0
C2591 C 0.03605 0.61261 0.54096 0.0
C2592 C 0.03749 0.63974 0.58746 0.0
C2593 C 0.03752 0.69171 0.59456 0.0
C2594 C 0.03839 0.67258 0.5856 0.0
C2595 C 0.04096 0.61745 0.55987 0.0
C2596 C 0.0401 0.63648 0.56876 0.0
H2597 H 0.03389 0.7347 0.58358 0.0
H2598 H 0.03479 0.7052 0.56947 0.0
H2599 H 0.0342 0.658 0.60977 0.0
H2600 H 0.05226 0.57658 0.57051 0.0
H2601 H 0.05091 0.60616 0.58448 0.0
C2602 C 0.60527 0.76681 0.85483 0.0
C2603 C 0.6057 0.7746 0.87282 0.0
C2604 C 0.62147 0.7671 0.8454 0.0
C2605 C 0.67215 0.78966 0.84608 0.0
H2606 H 0.6756 0.7516 0.81042 0.0
C2607 C 0.74115 0.78938 0.80866 0.0
C2608 C 0.74221 0.77748 0.79346 0.0
C2609 C 0.7249 0.78909 0.81801 0.0
C2610 C 0.67523 0.76266 0.82007 0.0
H2611 H 0.62472 0.78899 0.89448 0.0
H2612 H 0.65249 0.78969 0.87831 0.0
H2613 H 0.64814 0.75115 0.82639 0.0
H2614 H 0.72563 0.75585 0.77663 0.0
H2615 H 0.69774 0.75559 0.79207 0.0
H2616 H 0.69894 0.80141 0.83973 0.0
C2617 C 0.63953 0.78327 0.87125 0.0
C2618 C 0.65901 0.76234 0.82949 0.0
C2619 C 0.62335 0.7828 0.88076 0.0
C2620 C 0.72588 0.76537 0.78811 0.0
C2621 C 0.70954 0.76517 0.79734 0.0
C2622 C 0.68829 0.79009 0.83653 0.0
C2623 C 0.63918 0.77539 0.85325 0.0
C2624 C 0.6569 0.7758 0.84287 0.0
C2625 C 0.70841 0.77696 0.81276 0.0
C2626 C 0.69054 0.77657 0.82316 0.0
H2627 H 0.59226 0.76033 0.84791 0.0
H2628 H 0.61994 0.76096 0.83166 0.0
H2629 H 0.67158 0.80059 0.85587 0.0
H2630 H 0.75311 0.79892 0.81367 0.0
H2631 H 0.72564 0.79847 0.82965 0.0
C2632 C 0.46113 0.53545 0.69233 0.0
C2633 C 0.44295 0.53054 0.68433 0.0
C2634 C 0.47478 0.54349 0.68223 0.0
C2635 C 0.48255 0.56832 0.64172 0.0
H2636 H 0.527 0.54698 0.64127 0.0
C2637 C 0.53042 0.5765 0.58445 0.0
C2638 C 0.54916 0.57515 0.58813 0.0
C2639 C 0.51859 0.5747 0.59821 0.0
C2640 C 0.51492 0.55344 0.64153 0.0
H2641 H 0.42467 0.53056 0.65967 0.0
H2642 H 0.44859 0.54477 0.64199 0.0
H2643 H 0.50392 0.53661 0.6614 0.0
H2644 H 0.57048 0.57233 0.60946 0.0
H2645 H 0.54991 0.56973 0.63365 0.0
H2646 H 0.49347 0.58512 0.62179 0.0
C2647 C 0.45222 0.5424 0.65609 0.0
C2648 C 0.50163 0.54739 0.65302 0.0
C2649 C 0.43859 0.53416 0.66615 0.0
C2650 C 0.55607 0.57326 0.60615 0.0
C2651 C 0.54425 0.57162 0.61998 0.0
C2652 C 0.49595 0.57453 0.63037 0.0
C2653 C 0.47048 0.54697 0.66399 0.0
C2654 C 0.48517 0.55452 0.65295 0.0
C2655 C 0.52524 0.57168 0.61604 0.0
C2656 C 0.51213 0.56689 0.62983 0.0
H2657 H 0.46488 0.53286 0.70635 0.0
H2658 H 0.48873 0.54698 0.68866 0.0
H2659 H 0.47007 0.57421 0.64162 0.0
H2660 H 0.5246 0.57797 0.57072 0.0
H2661 H 0.50404 0.57464 0.59456 0.0
C2662 C 0.78886 0.22868 0.96769 0.0
C2663 C 0.78542 0.21015 0.96811 0.0
C2664 C 0.78954 0.23659 0.95098 0.0
C2665 C 0.77553 0.22718 0.90107 0.0
H2666 H 0.81265 0.26766 0.89607 0.0
C2667 C 0.79127 0.25175 0.83047 0.0
C2668 C 0.79485 0.27013 0.82877 0.0
C2669 C 0.78974 0.24496 0.84762 0.0
C2670 C 0.80204 0.25649 0.89726 0.0
H2671 H 0.78001 0.18543 0.95127 0.0
H2672 H 0.78136 0.19911 0.92236 0.0
H2673 H 0.81051 0.25509 0.92564 0.0
H2674 H 0.79963 0.29576 0.844 0.0
H2675 H 0.79686 0.28393 0.87384 0.0
H2676 H 0.76715 0.22846 0.87269 0.0
C2677 C 0.78327 0.20763 0.93483 0.0
C2678 C 0.8008 0.24927 0.91426 0.0
C2679 C 0.7826 0.19975 0.95147 0.0
C2680 C 0.79689 0.28153 0.84473 0.0
C2681 C 0.79541 0.27473 0.8619 0.0
C2682 C 0.77679 0.23436 0.88409 0.0
C2683 C 0.78674 0.22616 0.9343 0.0
C2684 C 0.78761 0.23441 0.91639 0.0
C2685 C 0.79178 0.25635 0.86359 0.0
C2686 C 0.79015 0.24903 0.88189 0.0
H2687 H 0.79109 0.23706 0.98026 0.0
H2688 H 0.79206 0.2509 0.95113 0.0
H2689 H 0.76494 0.21597 0.9022 0.0
H2690 H 0.78965 0.24252 0.81854 0.0
H2691 H 0.78719 0.23073 0.84837 0.0
C2692 C 0.10383 0.48048 0.19932 0.0
C2693 C 0.09541 0.48285 0.21543 0.0
C2694 C 0.09347 0.47869 0.18241 0.0
C2695 C 0.05273 0.49276 0.16007 0.0
H2696 H 0.06622 0.46539 0.11887 0.0
C2697 C 0.06526 0.50562 0.08344 0.0
C2698 C 0.04847 0.50945 0.07542 0.0
C2699 C 0.06607 0.49767 0.09992 0.0
C2700 C 0.06207 0.47289 0.13028 0.0
H2701 H 0.06943 0.48449 0.22658 0.0
H2702 H 0.05124 0.48145 0.19683 0.0
H2703 H 0.0766 0.45917 0.14985 0.0
H2704 H 0.01927 0.50779 0.07817 0.0
H2705 H 0.02087 0.49435 0.10776 0.0
H2706 H 0.03896 0.50706 0.14033 0.0
C2707 C 0.06588 0.48102 0.19735 0.0
C2708 C 0.06807 0.46941 0.14798 0.0
C2709 C 0.07627 0.48269 0.21435 0.0
C2710 C 0.03238 0.50496 0.08411 0.0
C2711 C 0.03328 0.4973 0.10096 0.0
C2712 C 0.04661 0.49617 0.14231 0.0
C2713 C 0.07445 0.47929 0.18118 0.0
C2714 C 0.06427 0.47991 0.16302 0.0
C2715 C 0.05018 0.4936 0.10894 0.0
C2716 C 0.05202 0.48684 0.12728 0.0
H2717 H 0.11855 0.48053 0.19974 0.0
H2718 H 0.10058 0.47768 0.17023 0.0
H2719 H 0.04961 0.50112 0.17136 0.0
H2720 H 0.07785 0.50878 0.07696 0.0
H2721 H 0.07932 0.49521 0.10591 0.0
C2722 C 0.77239 0.8527 0.46777 0.0
C2723 C 0.77939 0.87088 0.47184 0.0
C2724 C 0.77342 0.84393 0.45032 0.0
C2725 C 0.79764 0.84869 0.40619 0.0
H2726 H 0.76062 0.8093 0.38674 0.0
C2727 C 0.80623 0.80691 0.33779 0.0
C2728 C 0.79065 0.79891 0.32599 0.0
C2729 C 0.80465 0.8154 0.35517 0.0
C2730 C 0.77115 0.82033 0.39171 0.0
H2731 H 0.79309 0.89372 0.45973 0.0
H2732 H 0.79491 0.87879 0.42991 0.0
H2733 H 0.75827 0.82407 0.41655 0.0
H2734 H 0.76086 0.79396 0.32434 0.0
H2735 H 0.75808 0.80849 0.3543 0.0
H2736 H 0.81045 0.84509 0.38137 0.0
C2737 C 0.78867 0.87103 0.44018 0.0
C2738 C 0.76989 0.82884 0.40922 0.0
C2739 C 0.7875 0.87978 0.45753 0.0
C2740 C 0.77334 0.7998 0.33267 0.0
C2741 C 0.77176 0.80818 0.35017 0.0
C2742 C 0.79899 0.8401 0.3888 0.0
C2743 C 0.78167 0.85281 0.43599 0.0
C2744 C 0.78307 0.84334 0.417 0.0
C2745 C 0.78737 0.81632 0.36195 0.0
C2746 C 0.78579 0.82565 0.38095 0.0
H2747 H 0.76605 0.84512 0.47814 0.0
H2748 H 0.76794 0.82998 0.44824 0.0
H2749 H 0.80836 0.85953 0.41125 0.0
H2750 H 0.81989 0.80669 0.33357 0.0
H2751 H 0.81722 0.82105 0.36344 0.0
C2752 C 0.44081 0.48257 0.76632 0.0
C2753 C 0.42593 0.49207 0.76514 0.0
C2754 C 0.44941 0.4798 0.78333 0.0
C2755 C 0.44392 0.48244 0.83309 0.0
H2756 H 0.49732 0.48932 0.83777 0.0
C2757 C 0.4887 0.49952 0.90171 0.0
C2758 C 0.50421 0.49101 0.90476 0.0
C2759 C 0.47825 0.49721 0.88479 0.0
C2760 C 0.4824 0.48712 0.83663 0.0
H2761 H 0.40808 0.50579 0.78074 0.0
H2762 H 0.42334 0.5014 0.81035 0.0
H2763 H 0.48062 0.48954 0.80785 0.0
H2764 H 0.52044 0.47284 0.89261 0.0
H2765 H 0.50237 0.46913 0.86294 0.0
H2766 H 0.44586 0.48069 0.86208 0.0
C2767 C 0.42818 0.49574 0.79823 0.0
C2768 C 0.47281 0.48718 0.81947 0.0
C2769 C 0.41951 0.49837 0.78124 0.0
C2770 C 0.5088 0.47987 0.89061 0.0
C2771 C 0.49843 0.47767 0.87364 0.0
C2772 C 0.45354 0.48253 0.85028 0.0
C2773 C 0.44338 0.4866 0.79948 0.0
C2774 C 0.45346 0.48507 0.81752 0.0
C2775 C 0.48316 0.48644 0.87053 0.0
C2776 C 0.47287 0.48507 0.85223 0.0
H2777 H 0.44596 0.47745 0.7541 0.0
H2778 H 0.46088 0.47245 0.78381 0.0
H2779 H 0.42902 0.48045 0.83203 0.0
H2780 H 0.48493 0.50839 0.91221 0.0
H2781 H 0.46668 0.50431 0.88267 0.0
C2782 C 0.78834 0.22455 0.07557 0.0
C2783 C 0.78933 0.2066 0.07137 0.0
C2784 C 0.79008 0.23147 0.09379 0.0
C2785 C 0.80707 0.22216 0.14095 0.0
H2786 H 0.7766 0.25656 0.15556 0.0
C2787 C 0.80208 0.24425 0.21707 0.0
C2788 C 0.80092 0.26219 0.22127 0.0
C2789 C 0.80134 0.23753 0.19884 0.0
C2790 C 0.78539 0.24712 0.15171 0.0
H2791 H 0.79282 0.18183 0.0831 0.0
H2792 H 0.79556 0.19375 0.1147 0.0
H2793 H 0.77391 0.24499 0.12382 0.0
H2794 H 0.79853 0.28718 0.20944 0.0
H2795 H 0.79746 0.27556 0.17793 0.0
H2796 H 0.81845 0.22424 0.1689 0.0
C2797 C 0.79376 0.20263 0.10399 0.0
C2798 C 0.78385 0.24048 0.13344 0.0
C2799 C 0.79205 0.19574 0.08582 0.0
C2800 C 0.79939 0.27327 0.2068 0.0
C2801 C 0.79863 0.26657 0.18865 0.0
C2802 C 0.80858 0.22879 0.15923 0.0
C2803 C 0.79284 0.22061 0.10828 0.0
C2804 C 0.79466 0.22789 0.12777 0.0
C2805 C 0.79937 0.24857 0.18436 0.0
C2806 C 0.79777 0.24138 0.16488 0.0
H2807 H 0.78632 0.23329 0.06477 0.0
H2808 H 0.78951 0.24542 0.0965 0.0
H2809 H 0.81585 0.21271 0.1371 0.0
H2810 H 0.80319 0.23529 0.22782 0.0
H2811 H 0.80182 0.22357 0.1961 0.0
C2812 C 0.08131 0.52279 0.29902 0.0
C2813 C 0.09812 0.52938 0.29252 0.0
C2814 C 0.07174 0.53412 0.30862 0.0
C2815 C 0.08018 0.57271 0.33976 0.0
H2816 H 0.02717 0.57059 0.33327 0.0
C2817 C 0.04429 0.59471 0.39959 0.0
C2818 C 0.03023 0.5813 0.40341 0.0
C2819 C 0.0502 0.5953 0.38208 0.0
C2820 C 0.04199 0.57142 0.33526 0.0
H2821 H 0.11797 0.55299 0.29059 0.0
H2822 H 0.10147 0.57267 0.30791 0.0
H2823 H 0.04281 0.55673 0.30977 0.0
H2824 H 1.01003 0.55925 0.39131 0.0
H2825 H 0.02032 0.56009 0.36131 0.0
H2826 H 0.07943 0.58587 0.36585 0.0
C2827 C 0.09563 0.55881 0.30535 0.0
C2828 C 0.05091 0.56352 0.32178 0.0
C2829 C 0.10504 0.54755 0.2955 0.0
C2830 C 0.02082 0.56985 0.38892 0.0
C2831 C 0.02679 0.57035 0.37153 0.0
C2832 C 0.07125 0.58032 0.35338 0.0
C2833 C 0.07896 0.55217 0.31209 0.0
C2834 C 0.06998 0.5635 0.32428 0.0
C2835 C 0.04227 0.58238 0.36815 0.0
C2836 C 0.05193 0.57904 0.3517 0.0
H2837 H 0.07563 0.50886 0.29683 0.0
H2838 H 0.05903 0.52864 0.31392 0.0
H2839 H 0.09491 0.57283 0.34202 0.0
H2840 H 0.05156 0.60396 0.41041 0.0
H2841 H 0.06182 0.60509 0.37982 0.0
C2842 C 0.78243 0.88294 0.59486 0.0
C2843 C 0.77995 0.87313 0.57768 0.0
C2844 C 0.78326 0.87466 0.61176 0.0
C2845 C 0.78815 0.82997 0.63276 0.0
H2846 H 0.77527 0.85359 0.67651 0.0
C2847 C 0.78531 0.79332 0.70208 0.0
C2848 C 0.78757 0.80285 0.7194 0.0
C2849 C 0.7843 0.8018 0.68533 0.0
C2850 C 0.7792 0.84664 0.66465 0.0
H2851 H 0.7764 0.84619 0.56585 0.0
H2852 H 0.77766 0.83191 0.59472 0.0
H2853 H 0.77372 0.86773 0.64776 0.0
H2854 H 0.79057 0.82963 0.73162 0.0
H2855 H 0.78897 0.84429 0.70293 0.0
H2856 H 0.7937 0.80891 0.64961 0.0
C2857 C 0.77923 0.84621 0.59536 0.0
C2858 C 0.77829 0.85495 0.64775 0.0
C2859 C 0.77836 0.85451 0.57845 0.0
C2860 C 0.7887 0.82148 0.71891 0.0
C2861 C 0.78769 0.83 0.70211 0.0
C2862 C 0.78908 0.82167 0.64965 0.0
C2863 C 0.78172 0.85598 0.61264 0.0
C2864 C 0.78271 0.84691 0.63117 0.0
C2865 C 0.78552 0.82046 0.68469 0.0
C2866 C 0.7846 0.82967 0.66623 0.0
H2867 H 0.78381 0.89724 0.5953 0.0
H2868 H 0.78544 0.88315 0.62423 0.0
H2869 H 0.7921 0.82301 0.62091 0.0
H2870 H 0.78435 0.77904 0.70135 0.0
H2871 H 0.78232 0.79344 0.67278 0.0
C2872 C 0.77089 0.43258 0.52291 0.0
C2873 C 0.76826 0.41675 0.53177 0.0
C2874 C 0.7599 0.44566 0.52591 0.0
C2875 C 0.7314 0.46194 0.55979 0.0
H2876 H 0.71357 0.48812 0.52024 0.0
C2877 C 0.68143 0.51249 0.56992 0.0
C2878 C 0.68372 0.52786 0.56026 0.0
C2879 C 0.69167 0.49887 0.56654 0.0
C2880 C 0.71864 0.48112 0.53149 0.0
H2881 H 0.7518 0.40206 0.55044 0.0
H2882 H 0.73254 0.42489 0.55563 0.0
H2883 H 0.73096 0.46419 0.51372 0.0
H2884 H 0.69897 0.5412 0.53989 0.0
H2885 H 0.71707 0.51761 0.53419 0.0
H2886 H 0.7193 0.47897 0.57761 0.0
C2887 C 0.74322 0.42725 0.54649 0.0
C2888 C 0.72857 0.46734 0.52773 0.0
C2889 C 0.75416 0.41412 0.54341 0.0
C2890 C 0.69674 0.52943 0.5474 0.0
C2891 C 0.70705 0.51586 0.54408 0.0
C2892 C 0.72155 0.47577 0.56357 0.0
C2893 C 0.74609 0.44325 0.53791 0.0
C2894 C 0.73509 0.4576 0.54183 0.0
C2895 C 0.70453 0.50031 0.55347 0.0
C2896 C 0.71506 0.48557 0.54948 0.0
H2897 H 0.78169 0.43503 0.5139 0.0
H2898 H 0.7626 0.45788 0.51922 0.0
H2899 H 0.73647 0.45488 0.57101 0.0
H2900 H 0.6713 0.51073 0.5797 0.0
H2901 H 0.68915 0.48701 0.57384 0.0
C2902 C 0.24986 0.10681 0.50663 0.0
C2903 C 0.25588 0.12372 0.51575 0.0
C2904 C 0.2316 0.09771 0.50718 0.0
C2905 C 0.18945 0.09586 0.53396 0.0
H2906 H 0.16363 0.0686 0.4912 0.0
C2907 C 0.11162 0.062 0.53522 0.0
C2908 C 0.10301 0.0488 0.5217 0.0
C2909 C 0.12994 0.07081 0.53452 0.0
C2910 C 0.1704 0.0758 0.50357 0.0
H2911 H 0.24657 0.14388 0.53283 0.0
H2912 H 0.21533 0.12811 0.53412 0.0
H2913 H 0.19491 0.08359 0.49015 0.0
H2914 H 0.10806 0.03473 0.49681 0.0
H2915 H 0.13963 0.0491 0.49596 0.0
H2916 H 0.16546 0.08783 0.54768 0.0
C2917 C 0.22467 0.12176 0.52639 0.0
C2918 C 0.18872 0.08463 0.50287 0.0
C2919 C 0.24278 0.13097 0.52557 0.0
C2920 C 0.11383 0.04473 0.50758 0.0
C2921 C 0.13227 0.05331 0.50703 0.0
C2922 C 0.17126 0.08679 0.53479 0.0
C2923 C 0.21851 0.1049 0.51717 0.0
C2924 C 0.19874 0.09501 0.518 0.0
C2925 C 0.14095 0.06679 0.5204 0.0
C2926 C 0.16101 0.07651 0.51958 0.0
H2927 H 0.25926 0.10057 0.49889 0.0
H2928 H 0.22785 0.0848 0.49994 0.0
H2929 H 0.1964 0.10336 0.54614 0.0
H2930 H 0.104 0.06588 0.54628 0.0
H2931 H 0.1352 0.08108 0.54513 0.0
C2932 C 0.20856 0.99051 0.79239 0.0
C2933 C 0.21911 1.00328 0.80502 0.0
C2934 C 0.21697 0.97855 0.78238 0.0
C2935 C 0.26224 0.97055 0.76816 0.0
H2936 H 0.23763 0.92193 0.7607 0.0
C2937 C 0.29778 0.91007 0.75324 0.0
C2938 C 0.2879 0.89554 0.74222 0.0
C2939 C 0.28987 0.92522 0.75669 0.0
C2940 C 0.24451 0.93553 0.76231 0.0
H2941 H 0.24672 0.01352 0.81719 0.0
H2942 H 0.26145 0.99213 0.80013 0.0
H2943 H 0.22287 0.9439 0.77634 0.0
H2944 H 0.26276 0.88636 0.72462 0.0
H2945 H 0.24881 0.9128 0.73094 0.0
H2946 H 0.28429 0.96179 0.75478 0.0
C2947 C 0.24669 0.99166 0.79764 0.0
C2948 C 0.23607 0.94814 0.77134 0.0
C2949 C 0.23826 1.00378 0.80756 0.0
C2950 C 0.27057 0.89716 0.73348 0.0
C2951 C 0.2626 0.91228 0.73706 0.0
C2952 C 0.27078 0.95786 0.75924 0.0
C2953 C 0.23613 0.97892 0.7849 0.0
C2954 C 0.2449 0.96577 0.77456 0.0
C2955 C 0.27188 0.92613 0.74931 0.0
C2956 C 0.26206 0.94018 0.75642 0.0
H2957 H 0.19378 0.98994 0.78997 0.0
H2958 H 0.20844 0.96915 0.77247 0.0
H2959 H 0.26928 0.98408 0.77012 0.0
H2960 H 0.31105 0.90927 0.7604 0.0
H2961 H 0.29731 0.93562 0.76629 0.0
C2962 C 0.3762 0.90608 0.04583 0.0
C2963 C 0.36212 0.90863 0.03258 0.0
C2964 C 0.39278 0.91793 0.04834 0.0
C2965 C 0.41254 0.9637 0.03908 0.0
H2966 H 0.45958 0.94698 0.04615 0.0
C2967 C 0.48024 1.00401 0.02297 0.0
C2968 C 0.49645 1.00378 0.03441 0.0
C2969 C 0.46383 0.9935 0.02601 0.0
C2970 C 0.44654 0.95189 0.04453 0.0
H2971 H 0.35453 0.92535 0.01131 0.0
H2972 H 0.38343 0.94574 0.01541 0.0
H2973 H 0.43106 0.92587 0.04456 0.0
H2974 H 0.50806 0.99274 0.05839 0.0
H2975 H 0.47917 0.97404 0.06364 0.0
H2976 H 0.428 0.9896 0.03845 0.0
C2977 C 0.3816 0.93485 0.02417 0.0
C2978 C 0.43019 0.93979 0.04358 0.0
C2979 C 0.36507 0.92306 0.02169 0.0
C2980 C 0.49575 0.99324 0.04941 0.0
C2981 C 0.47928 0.98245 0.05232 0.0
C2982 C 0.42884 0.97574 0.03996 0.0
C2983 C 0.39559 0.93258 0.03766 0.0
C2984 C 0.41299 0.94551 0.0404 0.0
C2985 C 0.46321 0.98233 0.04048 0.0
C2986 C 0.44603 0.96993 0.04227 0.0
H2987 H 0.37429 0.89511 0.05447 0.0
H2988 H 0.40321 0.91583 0.05891 0.0
H2989 H 0.39955 0.96864 0.03711 0.0
H2990 H 0.48032 0.01203 0.01133 0.0
H2991 H 0.45177 0.99358 0.01654 0.0
C2992 C 0.93613 0.64442 0.78935 0.0
C2993 C 0.9496 0.63645 0.78118 0.0
C2994 C 0.9273 0.65676 0.78028 0.0
C2995 C 0.91261 0.66492 0.73384 0.0
H2996 H 0.89079 0.70144 0.75864 0.0
C2997 C 0.84922 0.70044 0.70825 0.0
C2998 C 0.8348 0.69456 0.71886 0.0
C2999 C 0.86698 0.69651 0.71267 0.0
C3000 C 0.8971 0.69156 0.75141 0.0
H3001 H 0.96546 0.63612 0.75777 0.0
H3002 H 0.94988 0.65771 0.74183 0.0
H3003 H 0.91735 0.69069 0.7738 0.0
H3004 H 0.82784 0.6796 0.74216 0.0
H3005 H 0.8585 0.67268 0.74952 0.0
H3006 H 0.89149 0.66516 0.71191 0.0
C3007 C 0.9461 0.6543 0.7552 0.0
C3008 C 0.91218 0.68533 0.7601 0.0
C3009 C 0.95506 0.64203 0.76437 0.0
C3010 C 0.83838 0.68404 0.73339 0.0
C3011 C 0.85601 0.68027 0.73782 0.0
C3012 C 0.89754 0.67124 0.7251 0.0
C3013 C 0.93169 0.66133 0.7628 0.0
C3014 C 0.91947 0.6713 0.7518 0.0
C3015 C 0.8705 0.68684 0.72783 0.0
C3016 C 0.88921 0.68401 0.73422 0.0
H3017 H 0.93169 0.6404 0.80231 0.0
H3018 H 0.91612 0.66176 0.78646 0.0
H3019 H 0.91783 0.654 0.72713 0.0
H3020 H 0.84691 0.70857 0.69698 0.0
H3021 H 0.87806 0.7016 0.70477 0.0
C3022 C 0.88301 0.63704 0.02484 0.0
C3023 C 0.86527 0.62776 0.01858 0.0
C3024 C 0.89916 0.62868 0.0257 0.0
C3025 C 0.91572 0.58255 0.02105 0.0
H3026 H 0.964 0.61086 0.02355 0.0
C3027 C 0.98341 0.54857 0.01661 0.0
C3028 C 1.00083 0.55698 0.02495 0.0
C3029 C 0.96735 0.55703 0.016 0.0
C3030 C 0.95077 0.60249 0.02305 0.0
H3031 H 0.85162 0.60169 0.0082 0.0
H3032 H 0.87914 0.5874 0.00926 0.0
H3033 H 0.93662 0.62516 0.02206 0.0
H3034 H 0.01397 0.58175 0.03919 0.0
H3035 H 0.98649 0.59632 0.03817 0.0
H3036 H 0.92995 0.55988 0.02186 0.0
C3037 C 0.88085 0.60123 0.01395 0.0
C3038 C 0.93463 0.61089 0.0222 0.0
C3039 C 0.8647 0.60959 0.01319 0.0
C3040 C 1.00116 0.57448 0.0326 0.0
C3041 C 0.98511 0.58301 0.03188 0.0
C3042 C 0.93185 0.57416 0.02178 0.0
C3043 C 0.89872 0.61044 0.02027 0.0
C3044 C 0.91647 0.60124 0.02118 0.0
C3045 C 0.9676 0.57457 0.02359 0.0
C3046 C 0.94996 0.58382 0.02282 0.0
H3047 H 0.88448 0.65095 0.02925 0.0
H3048 H 0.91205 0.63672 0.03095 0.0
H3049 H 0.90257 0.57409 0.02065 0.0
H3050 H 0.98208 0.53522 0.01041 0.0
H3051 H 0.95468 0.54971 0.0092 0.0
C3052 C 0.23389 0.10115 0.83838 0.0
C3053 C 0.21488 0.09539 0.83812 0.0
C3054 C 0.24058 0.11899 0.83661 0.0
C3055 C 0.22635 0.1562 0.81428 0.0
H3056 H 0.26952 0.18391 0.84134 0.0
C3057 C 0.25397 0.22633 0.79494 0.0
C3058 C 0.27318 0.23098 0.7958 0.0
C3059 C 0.24618 0.21102 0.80258 0.0
C3060 C 0.25755 0.17629 0.83352 0.0
H3061 H 0.18805 0.1039 0.83692 0.0
H3062 H 0.19974 0.13496 0.83364 0.0
H3063 H 0.25745 0.15478 0.85097 0.0
H3064 H 0.2993 0.22331 0.8054 0.0
H3065 H 0.28579 0.19632 0.81802 0.0
H3066 H 0.22682 0.17707 0.79628 0.0
C3067 C 0.20943 0.12569 0.83514 0.0
C3068 C 0.25061 0.15967 0.83913 0.0
C3069 C 0.20278 0.10793 0.8371 0.0
C3070 C 0.28443 0.22013 0.8046 0.0
C3071 C 0.27666 0.2047 0.81198 0.0
C3072 C 0.23342 0.17267 0.80852 0.0
C3073 C 0.22833 0.13129 0.83437 0.0
C3074 C 0.23502 0.14944 0.82947 0.0
C3075 C 0.25742 0.19987 0.81099 0.0
C3076 C 0.24922 0.18288 0.81795 0.0
H3077 H 0.24353 0.09177 0.83915 0.0
H3078 H 0.25521 0.12296 0.83598 0.0
H3079 H 0.21448 0.14844 0.80641 0.0
H3080 H 0.24494 0.23456 0.78843 0.0
H3081 H 0.23131 0.20793 0.80185 0.0
C3082 C 0.41614 0.04365 0.29052 0.0
C3083 C 0.42995 0.0497 0.30478 0.0
C3084 C 0.40523 0.0271 0.29075 0.0
C3085 C 0.40712 0.98392 0.30931 0.0
H3086 H 0.3549 0.97457 0.29337 0.0
C3087 C 0.363 0.91616 0.31523 0.0
C3088 C 0.34926 0.90974 0.30101 0.0
C3089 C 0.37268 0.93331 0.31559 0.0
C3090 C 0.36953 0.97693 0.29763 0.0
H3091 H 0.44258 0.04361 0.33086 0.0
H3092 H 0.42343 0.01479 0.33132 0.0
H3093 H 0.37131 1.00486 0.295 0.0
H3094 H 0.33511 0.91624 0.27585 0.0
H3095 H 0.35235 0.94609 0.27621 0.0
H3096 H 0.40547 0.95606 0.31176 0.0
C3097 C 0.42122 0.02271 0.31985 0.0
C3098 C 0.3789 0.99429 0.29863 0.0
C3099 C 0.43208 0.03927 0.31965 0.0
C3100 C 0.34571 0.92074 0.28691 0.0
C3101 C 0.35542 0.93792 0.28726 0.0
C3102 C 0.39779 0.96659 0.30825 0.0
C3103 C 0.40797 0.01628 0.3052 0.0
C3104 C 0.39779 0.99797 0.30452 0.0
C3105 C 0.3689 0.94445 0.30169 0.0
C3106 C 0.37887 0.96288 0.30243 0.0
H3107 H 0.4142 0.0514 0.27887 0.0
H3108 H 0.39521 0.02248 0.27922 0.0
H3109 H 0.42176 0.98628 0.31354 0.0
H3110 H 0.36622 0.90795 0.32619 0.0
H3111 H 0.38285 0.93795 0.32699 0.0
C3112 C 0.59643 0.38793 0.61427 0.0
C3113 C 0.58061 0.37805 0.61994 0.0
C3114 C 0.59535 0.40385 0.6062 0.0
C3115 C 0.56647 0.43901 0.60261 0.0
H3116 H 0.59414 0.45135 0.56159 0.0
C3117 C 0.55907 0.50128 0.56396 0.0
C3118 C 0.57568 0.51162 0.56067 0.0
C3119 C 0.55904 0.4844 0.5702 0.0
C3120 C 0.58642 0.44809 0.5731 0.0
H3121 H 0.55121 0.37682 0.62142 0.0
H3122 H 0.54927 0.40446 0.6071 0.0
H3123 H 0.59536 0.42283 0.57448 0.0
H3124 H 0.60526 0.51228 0.56104 0.0
H3125 H 0.60515 0.48289 0.57197 0.0
H3126 H 0.55757 0.46429 0.60125 0.0
C3127 C 0.56256 0.4001 0.60916 0.0
C3128 C 0.58715 0.43181 0.5805 0.0
C3129 C 0.56366 0.38425 0.61728 0.0
C3130 C 0.59221 0.50466 0.56346 0.0
C3131 C 0.59216 0.48778 0.56961 0.0
C3132 C 0.56568 0.45525 0.59517 0.0
C3133 C 0.5784 0.41011 0.60361 0.0
C3134 C 0.57728 0.42716 0.59541 0.0
C3135 C 0.5756 0.47755 0.57315 0.0
C3136 C 0.57575 0.45998 0.58043 0.0
H3137 H 0.60968 0.38346 0.61621 0.0
H3138 H 0.60783 0.41139 0.60228 0.0
H3139 H 0.55893 0.43591 0.61428 0.0
H3140 H 0.5461 0.50626 0.56191 0.0
H3141 H 0.54606 0.47669 0.57268 0.0
C3142 C 0.46877 0.75451 0.34368 0.0
C3143 C 0.46583 0.73811 0.35145 0.0
C3144 C 0.45515 0.75956 0.33168 0.0
C3145 C 0.41159 0.74351 0.30311 0.0
H3146 H 0.39952 0.78967 0.31728 0.0
C3147 C 0.3397 0.76174 0.28825 0.0
C3148 C 0.33766 0.77931 0.28512 0.0
C3149 C 0.35709 0.75719 0.29237 0.0
C3150 C 0.40292 0.77693 0.3128 0.0
H3151 H 0.4468 0.71374 0.35208 0.0
H3152 H 0.42283 0.72265 0.33117 0.0
H3153 H 0.42712 0.7804 0.33158 0.0
H3154 H 0.35234 0.80576 0.28304 0.0
H3155 H 0.38288 0.79772 0.29011 0.0
H3156 H 0.38709 0.73988 0.28463 0.0
C3157 C 0.43574 0.73153 0.33427 0.0
C3158 C 0.41873 0.7716 0.32104 0.0
C3159 C 0.44939 0.72647 0.34632 0.0
C3160 C 0.35346 0.79213 0.28554 0.0
C3161 C 0.37093 0.78754 0.28963 0.0
C3162 C 0.39581 0.74889 0.29476 0.0
C3163 C 0.43834 0.7483 0.3272 0.0
C3164 C 0.42296 0.75466 0.31662 0.0
C3165 C 0.37289 0.77007 0.29338 0.0
C3166 C 0.39104 0.76547 0.29991 0.0
H3167 H 0.48141 0.76369 0.34725 0.0
H3168 H 0.4576 0.77246 0.32624 0.0
H3169 H 0.41469 0.73048 0.29927 0.0
H3170 H 0.32782 0.7515 0.28799 0.0
H3171 H 0.35805 0.74368 0.29549 0.0
C3172 C 0.0681 0.78454 0.09281 0.0
C3173 C 0.08148 0.78998 0.10759 0.0
C3174 C 0.06904 0.76938 0.08164 0.0
C3175 C 0.10027 0.73771 0.06951 0.0
H3176 H 0.05542 0.70356 0.06169 0.0
C3177 C 0.09992 0.663 0.06065 0.0
C3178 C 0.08617 0.65246 0.04871 0.0
C3179 C 0.09984 0.68113 0.06355 0.0
C3180 C 0.06798 0.71307 0.06338 0.0
H3181 H 0.10659 0.78424 0.12197 0.0
H3182 H 0.10813 0.75777 0.10267 0.0
H3183 H 0.05434 0.73334 0.07461 0.0
H3184 H 0.06199 0.65288 0.02984 0.0
H3185 H 0.0617 0.68465 0.03517 0.0
H3186 H 0.11403 0.71716 0.05897 0.0
C3187 C 0.09704 0.76526 0.09952 0.0
C3188 C 0.06737 0.73014 0.07079 0.0
C3189 C 0.09608 0.78034 0.11068 0.0
C3190 C 0.07261 0.66059 0.03934 0.0
C3191 C 0.07247 0.67876 0.04233 0.0
C3192 C 0.10089 0.72064 0.06212 0.0
C3193 C 0.08341 0.75947 0.08502 0.0
C3194 C 0.0836 0.74245 0.07446 0.0
C3195 C 0.08596 0.68916 0.05466 0.0
C3196 C 0.08485 0.70799 0.05951 0.0
H3197 H 0.05674 0.79179 0.09008 0.0
H3198 H 0.05842 0.76531 0.07048 0.0
H3199 H 0.11295 0.74703 0.07186 0.0
H3200 H 0.11038 0.65715 0.06835 0.0
H3201 H 0.11022 0.68873 0.0734 0.0
C3202 C 0.04479 0.23625 0.83817 0.0
C3203 C 0.04627 0.23772 0.85733 0.0
C3204 C 0.06019 0.24124 0.82884 0.0
C3205 C 0.10611 0.26846 0.83441 0.0
H3206 H 0.11606 0.23773 0.79402 0.0
C3207 C 0.17629 0.27563 0.80516 0.0
C3208 C 0.17647 0.27324 0.78615 0.0
C3209 C 0.15984 0.27213 0.81319 0.0
C3210 C 0.11333 0.24658 0.8051 0.0
H3211 H 0.06493 0.24554 0.88179 0.0
H3212 H 0.09186 0.25414 0.8655 0.0
H3213 H 0.08825 0.22998 0.8093 0.0
H3214 H 0.15953 0.26539 0.76062 0.0
H3215 H 0.13066 0.25956 0.77464 0.0
H3216 H 0.13123 0.28499 0.83032 0.0
C3217 C 0.07877 0.24934 0.85769 0.0
C3218 C 0.09742 0.24213 0.81385 0.0
C3219 C 0.06339 0.24431 0.867 0.0
C3220 C 0.15979 0.26749 0.7753 0.0
C3221 C 0.14331 0.26397 0.78333 0.0
C3222 C 0.12199 0.27292 0.82565 0.0
C3223 C 0.07733 0.24784 0.83852 0.0
C3224 C 0.09375 0.25295 0.8287 0.0
C3225 C 0.14319 0.26618 0.80237 0.0
C3226 C 0.12585 0.26194 0.81102 0.0
H3227 H 0.03173 0.23123 0.83038 0.0
H3228 H 0.05866 0.2401 0.81406 0.0
H3229 H 0.10347 0.27719 0.84563 0.0
H3230 H 0.1889 0.28025 0.81387 0.0
H3231 H 0.16021 0.27377 0.82791 0.0
C3232 C 0.55496 0.71983 0.94801 0.0
C3233 C 0.55237 0.72123 0.92885 0.0
C3234 C 0.55398 0.70307 0.95608 0.0
C3235 C 0.55268 0.65225 0.9448 0.0
H3236 H 0.5405 0.64839 0.99446 0.0
C3237 C 0.54528 0.58129 0.97771 0.0
C3238 C 0.54475 0.57968 0.99677 0.0
C3239 C 0.54603 0.59802 0.96959 0.0
C3240 C 0.54417 0.6488 0.98061 0.0
H3241 H 0.54664 0.70465 0.90363 0.0
H3242 H 0.54499 0.67612 0.91729 0.0
H3243 H 0.54226 0.67674 0.98096 0.0
H3244 H 0.54486 0.59596 0.02176 0.0
H3245 H 0.54639 0.62433 0.00817 0.0
H3246 H 0.55476 0.62442 0.9444 0.0
C3247 C 0.54796 0.68799 0.92639 0.0
C3248 C 0.54519 0.66559 0.97264 0.0
C3249 C 0.54881 0.70472 0.91835 0.0
C3250 C 0.54506 0.59599 0.0071 0.0
C3251 C 0.5459 0.6127 0.99903 0.0
C3252 C 0.55177 0.63547 0.9528 0.0
C3253 C 0.55048 0.68647 0.94559 0.0
C3254 C 0.54946 0.66801 0.9544 0.0
C3255 C 0.54643 0.61447 0.97991 0.0
C3256 C 0.54745 0.63299 0.97105 0.0
H3257 H 0.55776 0.73183 0.95695 0.0
H3258 H 0.55629 0.70329 0.97079 0.0
H3259 H 0.55629 0.65279 0.93092 0.0
H3260 H 0.54514 0.56949 0.96885 0.0
H3261 H 0.54617 0.59781 0.95494 0.0
C3262 C 0.09592 0.79044 0.68794 0.0
C3263 C 0.09197 0.78457 0.66925 0.0
C3264 C 0.11365 0.79063 0.69747 0.0
C3265 C 0.15882 0.77173 0.69495 0.0
H3266 H 0.17787 0.80748 0.73396 0.0
C3267 C 0.22787 0.76762 0.7414 0.0
C3268 C 0.23977 0.78325 0.7484 0.0
C3269 C 0.21024 0.76801 0.732 0.0
C3270 C 0.173 0.79735 0.72307 0.0
H3271 H 0.10455 0.7742 0.64636 0.0
H3272 H 0.13494 0.77435 0.66269 0.0
H3273 H 0.14758 0.80778 0.71764 0.0
H3274 H 0.2414 0.81178 0.75051 0.0
H3275 H 0.21092 0.81249 0.73452 0.0
H3276 H 0.18419 0.76131 0.70032 0.0
C3277 C 0.12433 0.77883 0.6702 0.0
C3278 C 0.15525 0.79742 0.71368 0.0
C3279 C 0.10668 0.77884 0.66064 0.0
C3280 C 0.23295 0.79934 0.74558 0.0
C3281 C 0.21519 0.79972 0.73633 0.0
C3282 C 0.17644 0.77154 0.70448 0.0
C3283 C 0.12839 0.78473 0.68891 0.0
C3284 C 0.14763 0.78464 0.69928 0.0
C3285 C 0.20333 0.78406 0.72916 0.0
C3286 C 0.18411 0.78436 0.71881 0.0
H3287 H 0.08522 0.79495 0.69531 0.0
H3288 H 0.11566 0.79515 0.71177 0.0
H3289 H 0.15387 0.76144 0.68424 0.0
H3290 H 0.23222 0.75485 0.74305 0.0
H3291 H 0.20189 0.7555 0.72714 0.0
C3292 C 0.06021 0.34204 0.41808 0.0
C3293 C 0.0561 0.32671 0.42783 0.0
C3294 C 0.05971 0.35956 0.42577 0.0
C3295 C 0.05456 0.3867 0.47124 0.0
H3296 H 0.05208 0.42488 0.43943 0.0
C3297 C 0.05694 0.46137 0.50255 0.0
C3298 C 0.05092 0.47472 0.49196 0.0
C3299 C 0.05763 0.44383 0.49498 0.0
C3300 C 0.05261 0.41462 0.44885 0.0
H3301 H 0.048 0.319 0.45407 0.0
H3302 H 0.04681 0.34884 0.46723 0.0
H3303 H 0.05262 0.39513 0.4266 0.0
H3304 H 0.04074 0.47871 0.46431 0.0
H3305 H 0.04159 0.4488 0.45139 0.0
H3306 H 0.05402 0.40612 0.49346 0.0
C3307 C 0.05083 0.3476 0.45353 0.0
C3308 C 0.05319 0.39705 0.44128 0.0
C3309 C 0.05143 0.33006 0.44582 0.0
C3310 C 0.04561 0.46931 0.47327 0.0
C3311 C 0.04622 0.45175 0.4657 0.0
C3312 C 0.05392 0.40426 0.47881 0.0
C3313 C 0.05493 0.36307 0.44379 0.0
C3314 C 0.05422 0.38238 0.45216 0.0
C3315 C 0.05226 0.43828 0.47625 0.0
C3316 C 0.05294 0.41895 0.46793 0.0
H3317 H 0.06392 0.34054 0.40425 0.0
H3318 H 0.06334 0.37041 0.41737 0.0
H3319 H 0.05553 0.37651 0.48068 0.0
H3320 H 0.06125 0.46446 0.51693 0.0
H3321 H 0.06268 0.43466 0.50407 0.0
C3322 C 0.46959 0.28544 0.16138 0.0
C3323 C 0.4857 0.27943 0.16899 0.0
C3324 C 0.45335 0.28506 0.17079 0.0
C3325 C 0.42827 0.26391 0.20972 0.0
H3326 H 0.39859 0.30139 0.20523 0.0
C3327 C 0.3547 0.26002 0.23999 0.0
C3328 C 0.34902 0.27565 0.24737 0.0
C3329 C 0.37114 0.26034 0.2309 0.0
C3330 C 0.40656 0.29071 0.20684 0.0
H3331 H 0.49624 0.26802 0.19316 0.0
H3332 H 0.46823 0.26685 0.20909 0.0
H3333 H 0.42635 0.30212 0.18912 0.0
H3334 H 0.35724 0.3041 0.25005 0.0
H3335 H 0.38518 0.30471 0.23415 0.0
H3336 H 0.4083 0.25234 0.22719 0.0
C3337 C 0.46809 0.27208 0.19576 0.0
C3338 C 0.42271 0.29106 0.19731 0.0
C3339 C 0.48446 0.27282 0.18651 0.0
C3340 C 0.36076 0.29162 0.24491 0.0
C3341 C 0.37698 0.29198 0.2355 0.0
C3342 C 0.41189 0.26335 0.21894 0.0
C3343 C 0.452 0.27828 0.18827 0.0
C3344 C 0.4342 0.27774 0.1985 0.0
C3345 C 0.38277 0.27635 0.2282 0.0
C3346 C 0.40053 0.27679 0.21792 0.0
H3347 H 0.46954 0.29067 0.14805 0.0
H3348 H 0.44163 0.28991 0.1641 0.0
H3349 H 0.4362 0.25318 0.21124 0.0
H3350 H 0.34638 0.24732 0.24123 0.0
H3351 H 0.37449 0.24786 0.22559 0.0
C3352 C 0.63782 0.51151 0.36543 0.0
C3353 C 0.65524 0.52128 0.36391 0.0
C3354 C 0.63124 0.50964 0.3825 0.0
C3355 C 0.64447 0.51677 0.43257 0.0
H3356 H 0.5946 0.52697 0.4334 0.0
C3357 C 0.61651 0.54571 0.49631 0.0
C3358 C 0.59797 0.54031 0.49913 0.0
C3359 C 0.62362 0.53955 0.48065 0.0
C3360 C 0.60841 0.52375 0.43342 0.0
H3361 H 0.67985 0.53592 0.37905 0.0
H3362 H 0.66822 0.533 0.40885 0.0
H3363 H 0.60703 0.52273 0.40435 0.0
H3364 H 0.57259 0.52357 0.48812 0.0
H3365 H 0.58505 0.51283 0.46077 0.0
H3366 H 0.64597 0.51851 0.46179 0.0
C3367 C 0.65972 0.52656 0.39691 0.0
C3368 C 0.61555 0.52129 0.41673 0.0
C3369 C 0.66636 0.52833 0.37983 0.0
C3370 C 0.58689 0.5281 0.4863 0.0
C3371 C 0.594 0.52198 0.4706 0.0
C3372 C 0.63732 0.51929 0.4493 0.0
C3373 C 0.64188 0.51761 0.39838 0.0
C3374 C 0.63378 0.5181 0.41611 0.0
C3375 C 0.61235 0.52789 0.46747 0.0
C3376 C 0.61932 0.52313 0.44988 0.0
H3377 H 0.62903 0.50577 0.35338 0.0
H3378 H 0.61758 0.50237 0.3832 0.0
H3379 H 0.65847 0.51408 0.43254 0.0
H3380 H 0.62548 0.55501 0.50598 0.0
H3381 H 0.63776 0.5445 0.47855 0.0
C3382 C 0.30731 0.83941 0.08365 0.0
C3383 C 0.30721 0.85734 0.08053 0.0
C3384 C 0.30649 0.83365 0.10136 0.0
C3385 C 0.29323 0.84698 0.14717 0.0
H3386 H 0.32275 0.81219 0.16408 0.0
C3387 C 0.29879 0.82962 0.22277 0.0
C3388 C 0.29796 0.81159 0.22599 0.0
C3389 C 0.30069 0.83535 0.2052 0.0
C3390 C 0.31428 0.82181 0.15954 0.0
H3391 H 0.30632 0.88327 0.09361 0.0
H3392 H 0.3051 0.87334 0.12424 0.0
H3393 H 0.32404 0.82137 0.133 0.0
H3394 H 0.29894 0.78555 0.21312 0.0
H3395 H 0.30213 0.7955 0.1827 0.0
H3396 H 0.28343 0.84742 0.17366 0.0
C3397 C 0.3055 0.86361 0.11309 0.0
C3398 C 0.315 0.82705 0.14167 0.0
C3399 C 0.30633 0.86934 0.09548 0.0
C3400 C 0.29953 0.79955 0.21125 0.0
C3401 C 0.30147 0.80527 0.19374 0.0
C3402 C 0.29252 0.84176 0.16502 0.0
C3403 C 0.30551 0.84568 0.11632 0.0
C3404 C 0.3045 0.83974 0.13523 0.0
C3405 C 0.30188 0.82322 0.1904 0.0
C3406 C 0.30304 0.8291 0.17148 0.0
H3407 H 0.30798 0.82984 0.07242 0.0
H3408 H 0.30636 0.81971 0.10328 0.0
H3409 H 0.2847 0.85655 0.14264 0.0
H3410 H 0.29765 0.83929 0.23375 0.0
H3411 H 0.30121 0.84932 0.20321 0.0
C3412 C 0.99976 0.59944 0.85924 0.0
C3413 C 1.00392 0.59487 0.84155 0.0
C3414 C 1.01109 0.59611 0.87439 0.0
C3415 C 0.03979 0.59194 0.90491 0.0
H3416 H 0.05064 0.54385 0.90242 0.0
C3417 C 0.06507 0.56195 0.96961 0.0
C3418 C 0.0555 0.54515 0.97227 0.0
C3419 C 0.06421 0.56862 0.95242 0.0
C3420 C 0.04777 0.55732 0.90332 0.0
H3421 H 0.02386 0.58444 0.82575 0.0
H3422 H 0.04376 0.57869 0.8523 0.0
H3423 H 0.03909 0.55629 0.87478 0.0
H3424 H 0.03848 0.52168 0.95887 0.0
H3425 H 0.03645 0.53352 0.92885 0.0
H3426 H 0.04723 0.59264 0.93357 0.0
C3427 C 0.03161 0.58463 0.85443 0.0
C3428 C 0.04139 0.56455 0.88744 0.0
C3429 C 0.02029 0.58804 0.83925 0.0
C3430 C 0.04599 0.53467 0.95718 0.0
C3431 C 0.04492 0.54145 0.93997 0.0
C3432 C 0.04611 0.58471 0.92076 0.0
C3433 C 0.0268 0.58811 0.87215 0.0
C3434 C 0.03677 0.58174 0.88819 0.0
C3435 C 0.05353 0.55874 0.93754 0.0
C3436 C 0.04966 0.56714 0.92025 0.0
H3437 H 0.98724 0.60474 0.86142 0.0
H3438 H 1.00689 0.5988 0.88785 0.0
H3439 H 0.03657 0.60529 0.90587 0.0
H3440 H 0.0728 0.5702 0.98097 0.0
H3441 H 0.07138 0.58179 0.95093 0.0
C3442 C 0.3121 0.17114 0.5859 0.0
C3443 C 0.31199 0.18049 0.56986 0.0
C3444 C 0.31088 0.1795 0.60346 0.0
C3445 C 0.29977 0.22234 0.62773 0.0
H3446 H 0.31901 0.2025 0.67114 0.0
C3447 C 0.28874 0.25189 0.70197 0.0
C3448 C 0.30105 0.25001 0.71734 0.0
C3449 C 0.29007 0.24366 0.68436 0.0
C3450 C 0.31361 0.20855 0.65934 0.0
H3451 H 0.31048 0.20662 0.56069 0.0
H3452 H 0.30868 0.22112 0.5908 0.0
H3453 H 0.32169 0.18867 0.64119 0.0
H3454 H 0.32476 0.23752 0.72517 0.0
H3455 H 0.32724 0.2236 0.69504 0.0
H3456 H 0.29208 0.24246 0.64588 0.0
C3457 C 0.30943 0.2071 0.58997 0.0
C3458 C 0.31495 0.20028 0.64176 0.0
C3459 C 0.31063 0.19871 0.5724 0.0
C3460 C 0.31481 0.23944 0.71405 0.0
C3461 C 0.31616 0.23122 0.69645 0.0
C3462 C 0.29843 0.23061 0.64532 0.0
C3463 C 0.30948 0.19777 0.60612 0.0
C3464 C 0.30807 0.20687 0.62534 0.0
C3465 C 0.30383 0.23303 0.68099 0.0
C3466 C 0.3053 0.224 0.66175 0.0
H3467 H 0.31298 0.15713 0.5849 0.0
H3468 H 0.31072 0.17135 0.61496 0.0
H3469 H 0.29398 0.22813 0.61595 0.0
H3470 H 0.27786 0.25976 0.70351 0.0
H3471 H 0.27996 0.24552 0.67341 0.0
C3472 C 0.61111 0.54869 0.27958 0.0
C3473 C 0.623 0.53615 0.27742 0.0
C3474 C 0.59567 0.54847 0.26705 0.0
C3475 C 0.566 0.5204 0.22983 0.0
H3476 H 0.56257 0.56482 0.20802 0.0
C3477 C 0.54453 0.52544 0.15456 0.0
C3478 C 0.53615 0.53978 0.14884 0.0
C3479 C 0.5489 0.52365 0.17308 0.0
C3480 C 0.56292 0.55237 0.21421 0.0
H3481 H 0.62778 0.51324 0.26086 0.0
H3482 H 0.60109 0.51293 0.23906 0.0
H3483 H 0.58251 0.56458 0.23604 0.0
H3484 H 0.52413 0.56248 0.15816 0.0
H3485 H 0.532 0.55943 0.1906 0.0
H3486 H 0.54715 0.50807 0.20742 0.0
C3487 C 0.60348 0.52282 0.25047 0.0
C3488 C 0.5744 0.55224 0.23029 0.0
C3489 C 0.61891 0.52312 0.26286 0.0
C3490 C 0.53093 0.55149 0.16213 0.0
C3491 C 0.53539 0.54973 0.18069 0.0
C3492 C 0.55452 0.52053 0.21376 0.0
C3493 C 0.59178 0.53558 0.25229 0.0
C3494 C 0.57666 0.53616 0.23781 0.0
C3495 C 0.54505 0.53618 0.18631 0.0
C3496 C 0.55347 0.53642 0.20537 0.0
H3497 H 0.61392 0.55884 0.29074 0.0
H3498 H 0.58686 0.55845 0.26879 0.0
H3499 H 0.5672 0.50785 0.23554 0.0
H3500 H 0.54896 0.51629 0.14475 0.0
H3501 H 0.55654 0.51317 0.17691 0.0
C3502 C 0.31767 0.84589 0.96828 0.0
C3503 C 0.3025 0.84655 0.97843 0.0
C3504 C 0.31532 0.83805 0.95043 0.0
C3505 C 0.27949 0.82381 0.91107 0.0
H3506 H 0.31888 0.80215 0.89214 0.0
C3507 C 0.27564 0.78928 0.83721 0.0
C3508 C 0.29089 0.795 0.82765 0.0
C3509 C 0.27585 0.79425 0.85592 0.0
C3510 C 0.30775 0.80817 0.89721 0.0
H3511 H 0.27296 0.83909 0.97786 0.0
H3512 H 0.26888 0.82484 0.94694 0.0
H3513 H 0.32143 0.81253 0.92421 0.0
H3514 H 0.31838 0.81024 0.83044 0.0
H3515 H 0.31882 0.81849 0.86283 0.0
H3516 H 0.26577 0.81908 0.88389 0.0
C3517 C 0.2826 0.83078 0.95257 0.0
C3518 C 0.30924 0.81427 0.91563 0.0
C3519 C 0.28494 0.83882 0.97041 0.0
C3520 C 0.30633 0.80564 0.83727 0.0
C3521 C 0.30666 0.81029 0.85592 0.0
C3522 C 0.27788 0.81746 0.89265 0.0
C3523 C 0.29774 0.83041 0.9422 0.0
C3524 C 0.29533 0.82255 0.92282 0.0
C3525 C 0.29146 0.80469 0.86551 0.0
C3526 C 0.29217 0.80988 0.88543 0.0
H3527 H 0.33137 0.85187 0.97395 0.0
H3528 H 0.32733 0.83846 0.94293 0.0
H3529 H 0.26854 0.83025 0.9159 0.0
H3530 H 0.26353 0.78109 0.83022 0.0
H3531 H 0.26393 0.78969 0.86296 0.0
C3532 C 0.9832 0.5402 0.7599 0.0
C3533 C 0.97801 0.55675 0.75658 0.0
C3534 C 0.98842 0.5297 0.74574 0.0
C3535 C 0.98588 0.52389 0.69543 0.0
H3536 H 0.03223 0.50608 0.70367 0.0
C3537 C 0.04794 0.51276 0.65112 0.0
C3538 C 0.03781 0.50534 0.6348 0.0
C3539 C 0.0394 0.51348 0.66724 0.0
C3540 C 0.01919 0.51086 0.7012 0.0
H3541 H 0.97395 0.57522 0.73591 0.0
H3542 H 0.98322 0.55705 0.7113 0.0
H3543 H 0.0187 0.51879 0.72944 0.0
H3544 H 1.0114 0.49137 0.62276 0.0
H3545 H 0.9965 0.49244 0.651 0.0
H3546 H 0.98687 0.51712 0.66713 0.0
C3547 C 0.98302 0.55203 0.72473 0.0
C3548 C 1.01137 0.51798 0.71596 0.0
C3549 C 0.97787 0.56251 0.73886 0.0
C3550 C 0.0194 0.49747 0.63513 0.0
C3551 C 1.0109 0.49808 0.65127 0.0
C3552 C 0.99369 0.51683 0.6807 0.0
C3553 C 0.98843 0.53556 0.72803 0.0
C3554 C 0.99498 0.52516 0.71309 0.0
C3555 C 0.02062 0.50669 0.66734 0.0
C3556 C 1.01076 0.5108 0.68334 0.0
H3557 H 0.98336 0.53543 0.77346 0.0
H3558 H 0.99246 0.51703 0.74862 0.0
H3559 H 0.97307 0.52906 0.69288 0.0
H3560 H 0.06212 0.51899 0.6512 0.0
H3561 H 0.04724 0.52039 0.67932 0.0
C3562 C 0.30132 0.17166 0.44695 0.0
C3563 C 0.31025 0.1804 0.46352 0.0
C3564 C 0.30061 0.18018 0.43018 0.0
C3565 C 0.32132 0.22179 0.40672 0.0
H3566 H 0.28151 0.20546 0.36916 0.0
C3567 C 0.31329 0.25947 0.33777 0.0
C3568 C 0.30336 0.25065 0.32166 0.0
C3569 C 0.31434 0.25128 0.35478 0.0
C3570 C 0.29303 0.21029 0.37917 0.0
H3571 H 0.32551 0.20569 0.47443 0.0
H3572 H 0.32428 0.22039 0.44575 0.0
H3573 H 0.2829 0.19122 0.39775 0.0
H3574 H 0.28683 0.22554 0.31192 0.0
H3575 H 0.28886 0.21147 0.34066 0.0
H3576 H 0.33146 0.24086 0.38809 0.0
C3577 C 0.31784 0.20672 0.44548 0.0
C3578 C 0.29383 0.20191 0.39601 0.0
C3579 C 0.31848 0.1982 0.46228 0.0
C3580 C 0.29465 0.23314 0.32363 0.0
C3581 C 0.29572 0.22495 0.34055 0.0
C3582 C 0.32055 0.23016 0.38983 0.0
C3583 C 0.30884 0.19802 0.42882 0.0
C3584 C 0.30801 0.20732 0.4104 0.0
C3585 C 0.30551 0.23373 0.3568 0.0
C3586 C 0.30639 0.22469 0.3754 0.0
H3587 H 0.29478 0.15802 0.44686 0.0
H3588 H 0.29372 0.17246 0.41813 0.0
H3589 H 0.33276 0.22663 0.41682 0.0
H3590 H 0.32018 0.27293 0.33735 0.0
H3591 H 0.32193 0.25905 0.36648 0.0
C3592 C 0.35318 0.67194 0.51701 0.0
C3593 C 0.33581 0.66182 0.51177 0.0
C3594 C 0.36921 0.66415 0.51682 0.0
C3595 C 0.38452 0.61997 0.51679 0.0
H3596 H 0.43005 0.64515 0.50249 0.0
C3597 C 0.44593 0.58443 0.50348 0.0
C3598 C 0.46342 0.59242 0.51152 0.0
C3599 C 0.43091 0.59361 0.50325 0.0
C3600 C 0.41747 0.63802 0.50666 0.0
H3601 H 0.32167 0.63575 0.50172 0.0
H3602 H 0.34946 0.62231 0.50093 0.0
H3603 H 0.40277 0.65982 0.50247 0.0
H3604 H 0.47878 0.61669 0.5252 0.0
H3605 H 0.45255 0.63284 0.52444 0.0
H3606 H 0.3991 0.59811 0.5207 0.0
C3607 C 0.3508 0.63614 0.50567 0.0
C3608 C 0.40183 0.64643 0.5067 0.0
C3609 C 0.33483 0.64388 0.50598 0.0
C3610 C 0.46559 0.61013 0.51874 0.0
C3611 C 0.45055 0.61939 0.51836 0.0
C3612 C 0.40006 0.61155 0.5166 0.0
C3613 C 0.36821 0.64608 0.5113 0.0
C3614 C 0.3851 0.63745 0.51164 0.0
C3615 C 0.43298 0.61112 0.51088 0.0
C3616 C 0.41668 0.62041 0.51142 0.0
H3617 H 0.35436 0.6858 0.52157 0.0
H3618 H 0.38232 0.67219 0.5214 0.0
H3619 H 0.37206 0.61276 0.52114 0.0
H3620 H 0.44378 0.571 0.49735 0.0
H3621 H 0.41763 0.58699 0.49705 0.0
C3622 C 0.8494 0.92495 0.53594 0.0
C3623 C 0.83399 0.92965 0.52563 0.0
C3624 C 0.86754 0.93415 0.53522 0.0
C3625 C 0.8973 0.96405 0.50634 0.0
H3626 H 0.93136 0.97317 0.55007 0.0
C3627 C 0.97683 0.9922 0.50451 0.0
C3628 C 0.9858 1.00461 0.51863 0.0
C3629 C 0.95847 0.98348 0.50514 0.0
C3630 C 0.92214 0.97086 0.53763 0.0
H3631 H 0.82642 0.94811 0.5062 0.0
H3632 H 0.85775 0.96373 0.50463 0.0
H3633 H 0.90006 0.95765 0.5516 0.0
H3634 H 0.98159 0.01702 0.54475 0.0
H3635 H 0.95013 1.00175 0.54601 0.0
H3636 H 0.91947 0.97705 0.49232 0.0
C3637 C 0.85586 0.95292 0.51346 0.0
C3638 C 0.904 0.96171 0.53849 0.0
C3639 C 0.83767 0.94394 0.51445 0.0
C3640 C 0.97547 0.00775 0.53346 0.0
C3641 C 0.95725 0.99878 0.53426 0.0
C3642 C 0.91556 0.97289 0.50541 0.0
C3643 C 0.8713 0.94832 0.52387 0.0
C3644 C 0.89104 0.95812 0.52289 0.0
C3645 C 0.94822 0.9864 0.52011 0.0
C3646 C 0.92847 0.97663 0.52105 0.0
H3647 H 0.84745 0.91408 0.54471 0.0
H3648 H 0.87875 0.92986 0.54341 0.0
H3649 H 0.88813 0.96161 0.49387 0.0
H3650 H 0.98404 0.98916 0.49283 0.0
H3651 H 0.95243 0.97407 0.49394 0.0
C3652 C 0.86796 0.05434 0.22135 0.0
C3653 C 0.87591 0.04591 0.23578 0.0
C3654 C 0.85742 0.06763 0.22489 0.0
C3655 C 0.8318 0.08684 0.25983 0.0
H3656 H 0.84334 0.12989 0.23508 0.0
C3657 C 0.80906 0.15308 0.2827 0.0
C3658 C 0.80419 0.16409 0.26908 0.0
C3659 C 0.81613 0.13763 0.27814 0.0
C3660 C 0.8397 0.11788 0.2419 0.0
H3661 H 0.87863 0.04437 0.26514 0.0
H3662 H 0.86025 0.06766 0.27132 0.0
H3663 H 0.85841 0.10455 0.22784 0.0
H3664 H 0.80203 0.1672 0.23997 0.0
H3665 H 0.81412 0.14014 0.23197 0.0
H3666 H 0.81315 0.10026 0.27397 0.0
C3667 C 0.86207 0.06391 0.25729 0.0
C3668 C 0.84836 0.10336 0.23775 0.0
C3669 C 0.87268 0.05066 0.25376 0.0
C3670 C 0.806 0.15911 0.25078 0.0
C3671 C 0.81294 0.14363 0.24621 0.0
C3672 C 0.82305 0.10137 0.26393 0.0
C3673 C 0.85457 0.07271 0.2429 0.0
C3674 C 0.8446 0.08773 0.24675 0.0
C3675 C 0.81836 0.13284 0.25986 0.0
C3676 C 0.827 0.1171 0.25508 0.0
H3677 H 0.87016 0.05089 0.20735 0.0
H3678 H 0.85161 0.07403 0.21352 0.0
H3679 H 0.82849 0.07489 0.26684 0.0
H3680 H 0.80792 0.15669 0.29693 0.0
H3681 H 0.82037 0.12973 0.28901 0.0
C3682 C 0.71804 0.15647 0.00862 0.0
C3683 C 0.73467 0.1508 0.01464 0.0
C3684 C 0.70138 0.14475 0.00724 0.0
C3685 C 0.67934 0.10342 0.02474 0.0
H3686 H 0.64431 0.10138 0.98201 0.0
C3687 C 0.61408 0.05057 0.01452 0.0
C3688 C 0.59763 0.05595 0.00746 0.0
C3689 C 0.631 0.06159 0.01434 0.0
C3690 C 0.65382 0.10189 0.99415 0.0
H3691 H 0.74684 0.12842 0.02403 0.0
H3692 H 0.71783 0.10808 0.02177 0.0
H3693 H 0.67309 0.1221 0.98426 0.0
H3694 H 0.5862 0.07707 0.99429 0.0
H3695 H 0.61553 0.09636 0.99429 0.0
H3696 H 0.66005 0.08353 0.03486 0.0
C3697 C 0.71762 0.12158 0.01816 0.0
C3698 C 0.67034 0.11378 0.99541 0.0
C3699 C 0.73426 0.13322 0.01937 0.0
C3700 C 0.59859 0.07242 0.99976 0.0
C3701 C 0.61548 0.0835 0.9997 0.0
C3702 C 0.66278 0.09164 0.02355 0.0
C3703 C 0.70098 0.12717 0.01203 0.0
C3704 C 0.68331 0.11467 0.01071 0.0
C3705 C 0.63191 0.07836 0.00722 0.0
C3706 C 0.64977 0.09068 0.00823 0.0
H3707 H 0.71791 0.16992 0.00485 0.0
H3708 H 0.68878 0.14952 0.00263 0.0
H3709 H 0.68892 0.10393 0.03683 0.0
H3710 H 0.61388 0.03794 0.02049 0.0
H3711 H 0.64337 0.05699 0.01992 0.0
C3712 C 0.1513 0.43882 0.27279 0.0
C3713 C 0.14656 0.45165 0.28513 0.0
C3714 C 0.16173 0.42619 0.27892 0.0
C3715 C 0.19617 0.42055 0.31624 0.0
H3716 H 0.19336 0.37461 0.2902 0.0
C3717 C 0.25087 0.37311 0.32691 0.0
C3718 C 0.25793 0.36862 0.31047 0.0
C3719 C 0.23529 0.38159 0.32675 0.0
C3720 C 0.19421 0.38735 0.29769 0.0
H3721 H 0.14806 0.46068 0.31369 0.0
H3722 H 0.16613 0.43832 0.32451 0.0
H3723 H 0.16815 0.39164 0.2852 0.0
H3724 H 0.25408 0.36902 0.28103 0.0
H3725 H 0.22683 0.38358 0.28074 0.0
H3726 H 0.22247 0.41623 0.32846 0.0
C3727 C 0.16203 0.43825 0.31004 0.0
C3728 C 0.17984 0.39714 0.29479 0.0
C3729 C 0.15157 0.45096 0.30387 0.0
C3730 C 0.24907 0.37256 0.2939 0.0
C3731 C 0.23338 0.38069 0.29373 0.0
C3732 C 0.21047 0.41062 0.31931 0.0
C3733 C 0.16763 0.426 0.29756 0.0
C3734 C 0.18098 0.41417 0.30345 0.0
C3735 C 0.22632 0.38526 0.31011 0.0
C3736 C 0.2099 0.39425 0.30953 0.0
H3737 H 0.14765 0.43901 0.25826 0.0
H3738 H 0.16598 0.41717 0.26885 0.0
H3739 H 0.19761 0.43366 0.32304 0.0
H3740 H 0.25746 0.37014 0.33984 0.0
H3741 H 0.23009 0.38504 0.33955 0.0
C3742 C 0.21369 0.41895 0.01982 0.0
C3743 C 0.23176 0.42815 0.02472 0.0
C3744 C 0.19775 0.4276 0.0196 0.0
C3745 C 0.18123 0.47193 0.03415 0.0
H3746 H 0.1362 0.45117 0.00504 0.0
C3747 C 0.11676 0.51086 0.02674 0.0
C3748 C 0.09847 0.50177 0.02301 0.0
C3749 C 0.13249 0.50198 0.02691 0.0
C3750 C 0.14845 0.4573 0.01351 0.0
H3751 H 0.24629 0.4544 0.03318 0.0
H3752 H 0.21918 0.46932 0.03256 0.0
H3753 H 0.16322 0.43634 0.00533 0.0
H3754 H 0.08341 0.47534 0.01646 0.0
H3755 H 0.11035 0.46003 0.01678 0.0
H3756 H 0.16647 0.49292 0.04227 0.0
C3757 C 0.217 0.4552 0.02911 0.0
C3758 C 0.16435 0.44858 0.0137 0.0
C3759 C 0.23291 0.44653 0.02936 0.0
C3760 C 0.09694 0.48317 0.01937 0.0
C3761 C 0.11272 0.47427 0.01947 0.0
C3762 C 0.16536 0.48067 0.03391 0.0
C3763 C 0.1988 0.44606 0.02424 0.0
C3764 C 0.18134 0.45558 0.02402 0.0
C3765 C 0.13107 0.48335 0.02331 0.0
C3766 C 0.1484 0.47369 0.02358 0.0
H3767 H 0.21178 0.40485 0.01617 0.0
H3768 H 0.18448 0.41952 0.01597 0.0
H3769 H 0.19342 0.47809 0.04269 0.0
H3770 H 0.11903 0.52508 0.02963 0.0
H3771 H 0.14593 0.50998 0.02969 0.0
C3772 C 0.89355 0.94405 0.21456 0.0
C3773 C 0.88357 0.9581 0.21715 0.0
C3774 C 0.88533 0.9266 0.21614 0.0
C3775 C 0.84767 0.90265 0.23889 0.0
H3776 H 0.85826 0.86122 0.21146 0.0
C3777 C 0.80956 0.83363 0.24787 0.0
C3778 C 0.82035 0.82017 0.25062 0.0
C3779 C 0.81715 0.84978 0.24188 0.0
C3780 C 0.85531 0.8727 0.21928 0.0
H3781 H 0.85685 0.96491 0.22201 0.0
H3782 H 0.84232 0.93449 0.22417 0.0
H3783 H 0.87116 0.89084 0.20346 0.0
H3784 H 0.84749 0.81293 0.24854 0.0
H3785 H 0.86082 0.8414 0.23806 0.0
H3786 H 0.83185 0.88465 0.25467 0.0
C3787 C 0.85665 0.93692 0.22153 0.0
C3788 C 0.86267 0.88964 0.21471 0.0
C3789 C 0.86492 0.95434 0.22016 0.0
C3790 C 0.83882 0.82306 0.24665 0.0
C3791 C 0.84643 0.8393 0.24055 0.0
C3792 C 0.84026 0.88582 0.24334 0.0
C3793 C 0.86693 0.9229 0.22019 0.0
C3794 C 0.85886 0.90481 0.22445 0.0
C3795 C 0.83572 0.85291 0.23844 0.0
C3796 C 0.84393 0.87067 0.23357 0.0
H3797 H 0.90798 0.9466 0.21224 0.0
H3798 H 0.89366 0.91614 0.21511 0.0
H3799 H 0.84487 0.914 0.24703 0.0
H3800 H 0.79524 0.83184 0.25061 0.0
H3801 H 0.8085 0.85994 0.24009 0.0
C3802 C 0.65399 0.05513 0.77268 0.0
C3803 C 0.6591 0.03854 0.76845 0.0
C3804 C 0.66723 0.07023 0.77555 0.0
C3805 C 0.7117 0.08939 0.76309 0.0
H3806 H 0.7094 0.12407 0.80297 0.0
C3807 C 0.756 0.15815 0.76762 0.0
C3808 C 0.74638 0.17231 0.77109 0.0
C3809 C 0.74833 0.14088 0.77057 0.0
C3810 C 0.71021 0.11454 0.79175 0.0
H3811 H 0.68202 0.02467 0.76381 0.0
H3812 H 0.70533 0.05139 0.76844 0.0
H3813 H 0.69017 0.0951 0.80159 0.0
H3814 H 0.72153 0.17966 0.78088 0.0
H3815 H 0.70795 0.14953 0.78573 0.0
H3816 H 0.73096 0.10906 0.75267 0.0
C3817 C 0.69103 0.05256 0.76966 0.0
C3818 C 0.69927 0.09796 0.79101 0.0
C3819 C 0.67774 0.03733 0.76701 0.0
C3820 C 0.72931 0.169 0.77826 0.0
C3821 C 0.72157 0.15172 0.78109 0.0
C3822 C 0.72255 0.10604 0.76374 0.0
C3823 C 0.68586 0.06911 0.77408 0.0
C3824 C 0.69954 0.08544 0.77639 0.0
C3825 C 0.73084 0.13742 0.77694 0.0
C3826 C 0.72153 0.11897 0.7778 0.0
H3827 H 0.63973 0.05646 0.77394 0.0
H3828 H 0.66285 0.08288 0.77862 0.0
H3829 H 0.71205 0.08 0.75161 0.0
H3830 H 0.76934 0.16042 0.76235 0.0
H3831 H 0.75595 0.13019 0.76754 0.0
loop_
_geom_bond_atom_site_label_1
_geom_bond_atom_site_label_2
_geom_bond_distance
_geom_bond_site_symmetry_2
_ccdc_geom_bond_type
In0 O1 2.294 . S
In0 O2 2.326 . S
In0 O6 2.266 . S
In0 O7 2.326 . S
In0 O8 2.266 . S
In0 O9 2.326 . S
In0 O11 2.294 . S
In0 O12 2.326 . S
O1 In0 2.294 . S
O1 C10 1.240 . S
O2 In0 2.326 . S
O2 C10 1.252 . S
C3 O6 1.252 1_655 S
C3 O7 1.260 1_655 S
C4 O11 1.240 . S
C4 O12 1.252 . S
C5 O8 1.252 . S
C5 O9 1.260 . S
O6 In0 2.266 . S
O6 C3 1.252 1_455 S
O7 In0 2.326 . S
O7 C3 1.260 1_455 S
O8 In0 2.266 . S
O8 C5 1.252 . S
O9 In0 2.326 . S
O9 C5 1.260 . S
C10 O1 1.240 . S
C10 O2 1.252 . S
O11 In0 2.294 . S
O11 C4 1.240 . S
O12 In0 2.326 . S
O12 C4 1.252 . S
In13 O14 2.294 . S
In13 O15 2.326 . S
In13 O19 2.266 . S
In13 O20 2.326 . S
In13 O21 2.266 . S
In13 O22 2.326 . S
In13 O24 2.294 . S
In13 O25 2.326 . S
O14 In13 2.294 . S
O14 C23 1.240 . S
O15 In13 2.326 . S
O15 C23 1.252 . S
C16 O19 1.252 . S
C16 O20 1.260 . S
C17 O24 1.240 . S
C17 O25 1.252 . S
C18 O21 1.252 . S
C18 O22 1.260 . S
O19 In13 2.266 . S
O19 C16 1.252 . S
O20 In13 2.326 . S
O20 C16 1.260 . S
O21 In13 2.266 . S
O21 C18 1.252 . S
O22 In13 2.326 . S
O22 C18 1.260 . S
C23 O14 1.240 . S
C23 O15 1.252 . S
O24 In13 2.294 . S
O24 C17 1.240 . S
O25 In13 2.326 . S
O25 C17 1.252 . S
In26 O27 2.294 . S
In26 O28 2.326 . S
In26 O32 2.266 . S
In26 O33 2.326 . S
In26 O34 2.266 . S
In26 O35 2.326 . S
In26 O37 2.294 . S
In26 O38 2.326 . S
O27 In26 2.294 . S
O27 C36 1.240 . S
O28 In26 2.326 . S
O28 C36 1.252 . S
C29 O32 1.252 . S
C29 O33 1.260 . S
C30 O37 1.240 . S
C30 O38 1.252 . S
C31 O34 1.252 . S
C31 O35 1.260 . S
O32 In26 2.266 . S
O32 C29 1.252 . S
O33 In26 2.326 . S
O33 C29 1.260 . S
O34 In26 2.266 . S
O34 C31 1.252 . S
O35 In26 2.326 . S
O35 C31 1.260 . S
C36 O27 1.240 . S
C36 O28 1.252 . S
O37 In26 2.294 . S
O37 C30 1.240 . S
O38 In26 2.326 . S
O38 C30 1.252 . S
In39 O40 2.294 . S
In39 O41 2.326 . S
In39 O45 2.266 . S
In39 O46 2.326 . S
In39 O47 2.266 . S
In39 O48 2.326 . S
In39 O50 2.294 . S
In39 O51 2.326 . S
O40 In39 2.294 . S
O40 C49 1.240 . S
O41 In39 2.326 . S
O41 C49 1.252 . S
C42 O45 1.252 . S
C42 O46 1.260 . S
C43 O50 1.240 . S
C43 O51 1.252 . S
C44 O47 1.252 . S
C44 O48 1.260 . S
O45 In39 2.266 . S
O45 C42 1.252 . S
O46 In39 2.326 . S
O46 C42 1.260 . S
O47 In39 2.266 . S
O47 C44 1.252 . S
O48 In39 2.326 . S
O48 C44 1.260 . S
C49 O40 1.240 . S
C49 O41 1.252 . S
O50 In39 2.294 . S
O50 C43 1.240 . S
O51 In39 2.326 . S
O51 C43 1.252 . S
In52 O53 2.294 . S
In52 O54 2.326 . S
In52 O58 2.266 . S
In52 O59 2.326 . S
In52 O60 2.266 . S
In52 O61 2.326 . S
In52 O63 2.294 . S
In52 O64 2.326 . S
O53 In52 2.294 . S
O53 C62 1.240 . S
O54 In52 2.326 . S
O54 C62 1.252 . S
C55 O58 1.252 . S
C55 O59 1.260 . S
C56 O63 1.240 . S
C56 O64 1.252 . S
C57 O60 1.252 . S
C57 O61 1.260 . S
O58 In52 2.266 . S
O58 C55 1.252 . S
O59 In52 2.326 . S
O59 C55 1.260 . S
O60 In52 2.266 . S
O60 C57 1.252 . S
O61 In52 2.326 . S
O61 C57 1.260 . S
C62 O53 1.240 . S
C62 O54 1.252 . S
O63 In52 2.294 . S
O63 C56 1.240 . S
O64 In52 2.326 . S
O64 C56 1.252 . S
In65 O66 2.294 . S
In65 O67 2.326 . S
In65 O71 2.266 . S
In65 O72 2.326 . S
In65 O73 2.266 . S
In65 O74 2.326 . S
In65 O76 2.294 . S
In65 O77 2.326 . S
O66 In65 2.294 . S
O66 C75 1.240 . S
O67 In65 2.326 . S
O67 C75 1.252 . S
C68 O71 1.252 . S
C68 O72 1.260 . S
C69 O76 1.240 . S
C69 O77 1.252 . S
C70 O73 1.252 . S
C70 O74 1.260 . S
O71 In65 2.266 . S
O71 C68 1.252 . S
O72 In65 2.326 . S
O72 C68 1.260 . S
O73 In65 2.266 . S
O73 C70 1.252 . S
O74 In65 2.326 . S
O74 C70 1.260 . S
C75 O66 1.240 . S
C75 O67 1.252 . S
O76 In65 2.294 . S
O76 C69 1.240 . S
O77 In65 2.326 . S
O77 C69 1.252 . S
In78 O79 2.294 . S
In78 O80 2.326 . S
In78 O84 2.266 . S
In78 O85 2.326 . S
In78 O86 2.266 . S
In78 O87 2.326 . S
In78 O89 2.294 . S
In78 O90 2.326 . S
O79 In78 2.294 . S
O79 C88 1.240 . S
O80 In78 2.326 . S
O80 C88 1.252 . S
C81 O84 1.252 . S
C81 O85 1.260 . S
C82 O89 1.240 . S
C82 O90 1.252 . S
C83 O86 1.252 . S
C83 O87 1.260 . S
O84 In78 2.266 . S
O84 C81 1.252 . S
O85 In78 2.326 . S
O85 C81 1.260 . S
O86 In78 2.266 . S
O86 C83 1.252 . S
O87 In78 2.326 . S
O87 C83 1.260 . S
C88 O79 1.240 . S
C88 O80 1.252 . S
O89 In78 2.294 . S
O89 C82 1.240 . S
O90 In78 2.326 . S
O90 C82 1.252 . S
In91 O92 2.294 . S
In91 O93 2.328 1_455 S
In91 O97 2.266 . S
In91 O98 2.331 . S
In91 O99 2.264 1_455 S
In91 O100 2.323 1_455 S
In91 O102 2.296 . S
In91 O103 2.329 . S
O92 In91 2.294 . S
O92 C101 1.240 . S
O93 In91 2.328 1_655 S
O93 C101 1.252 1_655 S
C94 O97 1.254 . S
C94 O98 1.261 . S
C95 O102 1.240 . S
C95 O103 1.252 . S
C96 O99 1.252 . S
C96 O100 1.260 . S
O97 In91 2.266 . S
O97 C94 1.254 . S
O98 In91 2.331 . S
O98 C94 1.261 . S
O99 In91 2.264 1_655 S
O99 C96 1.252 . S
O100 In91 2.323 1_655 S
O100 C96 1.260 . S
C101 O92 1.240 . S
C101 O93 1.252 1_455 S
O102 In91 2.296 . S
O102 C95 1.240 . S
O103 In91 2.329 . S
O103 C95 1.252 . S
In104 O105 2.294 . S
In104 O106 2.326 . S
In104 O110 2.266 . S
In104 O111 2.326 . S
In104 O112 2.266 . S
In104 O113 2.326 . S
In104 O115 2.294 . S
In104 O116 2.326 . S
O105 In104 2.294 . S
O105 C114 1.240 . S
O106 In104 2.326 . S
O106 C114 1.252 . S
C107 O110 1.252 . S
C107 O111 1.260 . S
C108 O115 1.240 . S
C108 O116 1.252 . S
C109 O112 1.252 . S
C109 O113 1.260 . S
O110 In104 2.266 . S
O110 C107 1.252 . S
O111 In104 2.326 . S
O111 C107 1.260 . S
O112 In104 2.266 . S
O112 C109 1.252 . S
O113 In104 2.326 . S
O113 C109 1.260 . S
C114 O105 1.240 . S
C114 O106 1.252 . S
O115 In104 2.294 . S
O115 C108 1.240 . S
O116 In104 2.326 . S
O116 C108 1.252 . S
In117 O118 2.294 . S
In117 O119 2.326 . S
In117 O123 2.266 . S
In117 O124 2.326 . S
In117 O125 2.266 . S
In117 O126 2.326 . S
In117 O128 2.294 . S
In117 O129 2.326 . S
O118 In117 2.294 . S
O118 C127 1.240 . S
O119 In117 2.326 . S
O119 C127 1.252 . S
C120 O123 1.252 . S
C120 O124 1.260 . S
C121 O128 1.240 . S
C121 O129 1.252 . S
C122 O125 1.252 . S
C122 O126 1.260 . S
O123 In117 2.266 . S
O123 C120 1.252 . S
O124 In117 2.326 . S
O124 C120 1.260 . S
O125 In117 2.266 . S
O125 C122 1.252 . S
O126 In117 2.326 . S
O126 C122 1.260 . S
C127 O118 1.240 . S
C127 O119 1.252 . S
O128 In117 2.294 . S
O128 C121 1.240 . S
O129 In117 2.326 . S
O129 C121 1.252 . S
In130 O131 2.294 . S
In130 O132 2.326 . S
In130 O136 2.266 . S
In130 O137 2.326 . S
In130 O138 2.266 . S
In130 O139 2.326 . S
In130 O141 2.294 . S
In130 O142 2.326 . S
O131 In130 2.294 . S
O131 C140 1.240 . S
O132 In130 2.326 . S
O132 C140 1.252 . S
C133 O136 1.252 . S
C133 O137 1.260 . S
C134 O141 1.240 . S
C134 O142 1.252 . S
C135 O138 1.252 . S
C135 O139 1.260 . S
O136 In130 2.266 . S
O136 C133 1.252 . S
O137 In130 2.326 . S
O137 C133 1.260 . S
O138 In130 2.266 . S
O138 C135 1.252 . S
O139 In130 2.326 . S
O139 C135 1.260 . S
C140 O131 1.240 . S
C140 O132 1.252 . S
O141 In130 2.294 . S
O141 C134 1.240 . S
O142 In130 2.326 . S
O142 C134 1.252 . S
In143 O144 2.294 . S
In143 O145 2.326 . S
In143 O149 2.266 . S
In143 O150 2.326 . S
In143 O151 2.266 . S
In143 O152 2.326 . S
In143 O154 2.294 . S
In143 O155 2.326 . S
O144 In143 2.294 . S
O144 C153 1.240 . S
O145 In143 2.326 . S
O145 C153 1.252 . S
C146 O149 1.252 . S
C146 O150 1.260 . S
C147 O154 1.240 . S
C147 O155 1.252 . S
C148 O151 1.252 . S
C148 O152 1.260 . S
O149 In143 2.266 . S
O149 C146 1.252 . S
O150 In143 2.326 . S
O150 C146 1.260 . S
O151 In143 2.266 . S
O151 C148 1.252 . S
O152 In143 2.326 . S
O152 C148 1.260 . S
C153 O144 1.240 . S
C153 O145 1.252 . S
O154 In143 2.294 . S
O154 C147 1.240 . S
O155 In143 2.326 . S
O155 C147 1.252 . S
In156 O157 2.294 . S
In156 O158 2.326 . S
In156 O162 2.266 . S
In156 O163 2.326 1_554 S
In156 O164 2.266 . S
In156 O165 2.326 . S
In156 O167 2.294 . S
In156 O168 2.326 . S
O157 In156 2.294 . S
O157 C166 1.240 . S
O158 In156 2.326 . S
O158 C166 1.252 . S
C159 O162 1.252 1_556 S
C159 O163 1.260 . S
C160 O167 1.240 . S
C160 O168 1.252 . S
C161 O164 1.252 . S
C161 O165 1.260 . S
O162 In156 2.266 . S
O162 C159 1.252 1_554 S
O163 In156 2.326 1_556 S
O163 C159 1.260 . S
O164 In156 2.266 . S
O164 C161 1.252 . S
O165 In156 2.326 . S
O165 C161 1.260 . S
C166 O157 1.240 . S
C166 O158 1.252 . S
O167 In156 2.294 . S
O167 C160 1.240 . S
O168 In156 2.326 . S
O168 C160 1.252 . S
In169 O170 2.294 . S
In169 O171 2.326 . S
In169 O175 2.266 1_554 S
In169 O176 2.325 1_554 S
In169 O177 2.264 1_554 S
In169 O178 2.322 1_554 S
In169 O180 2.296 . S
In169 O181 2.330 . S
O170 In169 2.294 . S
O170 C179 1.240 . S
O171 In169 2.326 . S
O171 C179 1.252 . S
C172 O175 1.252 . S
C172 O176 1.260 . S
C173 O180 1.240 . S
C173 O181 1.252 . S
C174 O177 1.252 . S
C174 O178 1.260 . S
O175 In169 2.266 1_556 S
O175 C172 1.252 . S
O176 In169 2.325 1_556 S
O176 C172 1.260 . S
O177 In169 2.264 1_556 S
O177 C174 1.252 . S
O178 In169 2.322 1_556 S
O178 C174 1.260 . S
C179 O170 1.240 . S
C179 O171 1.252 . S
O180 In169 2.296 . S
O180 C173 1.240 . S
O181 In169 2.330 . S
O181 C173 1.252 . S
In182 O183 2.294 . S
In182 O184 2.326 . S
In182 O188 2.266 . S
In182 O189 2.326 . S
In182 O190 2.266 . S
In182 O191 2.326 . S
In182 O193 2.294 . S
In182 O194 2.326 . S
O183 In182 2.294 . S
O183 C192 1.240 . S
O184 In182 2.326 . S
O184 C192 1.252 . S
C185 O188 1.252 . S
C185 O189 1.260 . S
C186 O193 1.240 . S
C186 O194 1.252 . S
C187 O190 1.252 . S
C187 O191 1.260 . S
O188 In182 2.266 . S
O188 C185 1.252 . S
O189 In182 2.326 . S
O189 C185 1.260 . S
O190 In182 2.266 . S
O190 C187 1.252 . S
O191 In182 2.326 . S
O191 C187 1.260 . S
C192 O183 1.240 . S
C192 O184 1.252 . S
O193 In182 2.294 . S
O193 C186 1.240 . S
O194 In182 2.326 . S
O194 C186 1.252 . S
In195 O196 2.294 . S
In195 O197 2.326 . S
In195 O201 2.266 . S
In195 O202 2.326 . S
In195 O203 2.266 . S
In195 O204 2.326 . S
In195 O206 2.294 . S
In195 O207 2.326 . S
O196 In195 2.294 . S
O196 C205 1.240 . S
O197 In195 2.326 . S
O197 C205 1.252 . S
C198 O201 1.252 . S
C198 O202 1.260 . S
C199 O206 1.240 . S
C199 O207 1.252 . S
C200 O203 1.252 . S
C200 O204 1.260 . S
O201 In195 2.266 . S
O201 C198 1.252 . S
O202 In195 2.326 . S
O202 C198 1.260 . S
O203 In195 2.266 . S
O203 C200 1.252 . S
O204 In195 2.326 . S
O204 C200 1.260 . S
C205 O196 1.240 . S
C205 O197 1.252 . S
O206 In195 2.294 . S
O206 C199 1.240 . S
O207 In195 2.326 . S
O207 C199 1.252 . S
In208 O209 2.294 . S
In208 O210 2.326 . S
In208 O214 2.266 . S
In208 O215 2.326 . S
In208 O216 2.266 1_545 S
In208 O217 2.326 1_545 S
In208 O219 2.294 . S
In208 O220 2.326 . S
O209 In208 2.294 . S
O209 C218 1.240 . S
O210 In208 2.326 . S
O210 C218 1.252 . S
C211 O214 1.252 . S
C211 O215 1.260 . S
C212 O219 1.240 . S
C212 O220 1.252 . S
C213 O216 1.252 . S
C213 O217 1.260 . S
O214 In208 2.266 . S
O214 C211 1.252 . S
O215 In208 2.326 . S
O215 C211 1.260 . S
O216 In208 2.266 1_565 S
O216 C213 1.252 . S
O217 In208 2.326 1_565 S
O217 C213 1.260 . S
C218 O209 1.240 . S
C218 O210 1.252 . S
O219 In208 2.294 . S
O219 C212 1.240 . S
O220 In208 2.326 . S
O220 C212 1.252 . S
In221 O222 2.294 . S
In221 O223 2.326 . S
In221 O227 2.266 . S
In221 O228 2.326 . S
In221 O229 2.266 . S
In221 O230 2.326 . S
In221 O232 2.294 . S
In221 O233 2.326 . S
O222 In221 2.294 . S
O222 C231 1.240 . S
O223 In221 2.326 . S
O223 C231 1.252 . S
C224 O227 1.252 . S
C224 O228 1.260 . S
C225 O232 1.240 . S
C225 O233 1.252 . S
C226 O229 1.252 . S
C226 O230 1.260 . S
O227 In221 2.266 . S
O227 C224 1.252 . S
O228 In221 2.326 . S
O228 C224 1.260 . S
O229 In221 2.266 . S
O229 C226 1.252 . S
O230 In221 2.326 . S
O230 C226 1.260 . S
C231 O222 1.240 . S
C231 O223 1.252 . S
O232 In221 2.294 . S
O232 C225 1.240 . S
O233 In221 2.326 . S
O233 C225 1.252 . S
In234 O235 2.294 . S
In234 O236 2.326 . S
In234 O240 2.266 . S
In234 O241 2.326 . S
In234 O242 2.266 . S
In234 O243 2.326 . S
In234 O245 2.294 . S
In234 O246 2.326 . S
O235 In234 2.294 . S
O235 C244 1.240 . S
O236 In234 2.326 . S
O236 C244 1.252 . S
C237 O240 1.252 . S
C237 O241 1.260 . S
C238 O245 1.240 . S
C238 O246 1.252 . S
C239 O242 1.252 . S
C239 O243 1.260 . S
O240 In234 2.266 . S
O240 C237 1.252 . S
O241 In234 2.326 . S
O241 C237 1.260 . S
O242 In234 2.266 . S
O242 C239 1.252 . S
O243 In234 2.326 . S
O243 C239 1.260 . S
C244 O235 1.240 . S
C244 O236 1.252 . S
O245 In234 2.294 . S
O245 C238 1.240 . S
O246 In234 2.326 . S
O246 C238 1.252 . S
In247 O248 2.294 1_545 S
In247 O249 2.326 1_545 S
In247 O253 2.266 . S
In247 O254 2.326 . S
In247 O255 2.266 . S
In247 O256 2.326 . S
In247 O258 2.295 . S
In247 O259 2.326 . S
O248 In247 2.294 1_565 S
O248 C257 1.240 . S
O249 In247 2.326 1_565 S
O249 C257 1.252 . S
C250 O253 1.252 . S
C250 O254 1.260 . S
C251 O258 1.240 . S
C251 O259 1.252 . S
C252 O255 1.252 . S
C252 O256 1.260 . S
O253 In247 2.266 . S
O253 C250 1.252 . S
O254 In247 2.326 . S
O254 C250 1.260 . S
O255 In247 2.266 . S
O255 C252 1.252 . S
O256 In247 2.326 . S
O256 C252 1.260 . S
C257 O248 1.240 . S
C257 O249 1.252 . S
O258 In247 2.295 . S
O258 C251 1.240 . S
O259 In247 2.326 . S
O259 C251 1.252 . S
In260 O261 2.294 . S
In260 O262 2.326 . S
In260 O266 2.266 . S
In260 O267 2.326 . S
In260 O268 2.237 1_554 S
In260 O269 2.326 1_554 S
In260 O271 2.294 . S
In260 O272 2.326 . S
O261 In260 2.294 . S
O261 C270 1.240 . S
O262 In260 2.326 . S
O262 C270 1.252 . S
C263 O266 1.252 . S
C263 O267 1.260 . S
C264 O271 1.240 . S
C264 O272 1.252 . S
C265 O268 1.287 . S
C265 O269 1.260 . S
O266 In260 2.266 . S
O266 C263 1.252 . S
O267 In260 2.326 . S
O267 C263 1.260 . S
O268 In260 2.237 1_556 S
O268 C265 1.287 . S
O269 In260 2.326 1_556 S
O269 C265 1.260 . S
C270 O261 1.240 . S
C270 O262 1.252 . S
O271 In260 2.294 . S
O271 C264 1.240 . S
O272 In260 2.326 . S
O272 C264 1.252 . S
In273 O274 2.294 . S
In273 O275 2.326 . S
In273 O279 2.266 . S
In273 O280 2.326 . S
In273 O281 2.266 . S
In273 O282 2.326 . S
In273 O284 2.294 . S
In273 O285 2.326 . S
O274 In273 2.294 . S
O274 C283 1.240 . S
O275 In273 2.326 . S
O275 C283 1.252 . S
C276 O279 1.252 . S
C276 O280 1.260 . S
C277 O284 1.240 . S
C277 O285 1.252 . S
C278 O281 1.252 . S
C278 O282 1.260 . S
O279 In273 2.266 . S
O279 C276 1.252 . S
O280 In273 2.326 . S
O280 C276 1.260 . S
O281 In273 2.266 . S
O281 C278 1.252 . S
O282 In273 2.326 . S
O282 C278 1.260 . S
C283 O274 1.240 . S
C283 O275 1.252 . S
O284 In273 2.294 . S
O284 C277 1.240 . S
O285 In273 2.326 . S
O285 C277 1.252 . S
In286 O287 2.294 . S
In286 O288 2.326 . S
In286 O292 2.266 . S
In286 O293 2.326 . S
In286 O294 2.266 . S
In286 O295 2.326 . S
In286 O297 2.294 . S
In286 O298 2.326 . S
O287 In286 2.294 . S
O287 C296 1.240 . S
O288 In286 2.326 . S
O288 C296 1.252 . S
C289 O292 1.252 . S
C289 O293 1.260 . S
C290 O297 1.240 . S
C290 O298 1.252 . S
C291 O294 1.252 . S
C291 O295 1.260 . S
O292 In286 2.266 . S
O292 C289 1.252 . S
O293 In286 2.326 . S
O293 C289 1.260 . S
O294 In286 2.266 . S
O294 C291 1.252 . S
O295 In286 2.326 . S
O295 C291 1.260 . S
C296 O287 1.240 . S
C296 O288 1.252 . S
O297 In286 2.294 . S
O297 C290 1.240 . S
O298 In286 2.326 . S
O298 C290 1.252 . S
In299 O300 2.294 . S
In299 O301 2.326 . S
In299 O305 2.266 . S
In299 O306 2.326 . S
In299 O307 2.266 . S
In299 O308 2.326 . S
In299 O310 2.294 . S
In299 O311 2.326 . S
O300 In299 2.294 . S
O300 C309 1.240 . S
O301 In299 2.326 . S
O301 C309 1.252 . S
C302 O305 1.252 . S
C302 O306 1.260 . S
C303 O310 1.240 . S
C303 O311 1.252 . S
C304 O307 1.252 . S
C304 O308 1.260 . S
O305 In299 2.266 . S
O305 C302 1.252 . S
O306 In299 2.326 . S
O306 C302 1.260 . S
O307 In299 2.266 . S
O307 C304 1.252 . S
O308 In299 2.326 . S
O308 C304 1.260 . S
C309 O300 1.240 . S
C309 O301 1.252 . S
O310 In299 2.294 . S
O310 C303 1.240 . S
O311 In299 2.326 . S
O311 C303 1.252 . S
Tb312 C322 2.825 1_455 S
Tb312 O323 2.347 . S
Tb312 O326 2.366 . S
Tb312 O331 2.418 . S
Tb312 O332 2.384 . S
Tb312 O335 2.479 . S
Tb312 O336 2.478 . S
Eu313 O324 2.418 . S
Eu313 O325 2.384 . S
Eu313 O328 2.479 . S
Eu313 O329 2.471 . S
Eu313 O330 2.347 . S
Eu313 O333 2.366 . S
Eu313 C343 2.825 . S
C314 O330 1.259 . S
C314 O331 1.265 . S
C315 O332 1.255 . S
C315 O333 1.265 . S
C316 C318 1.380 1_554 S
C316 C319 1.374 . S
C316 C322 1.507 . S
C317 C318 1.384 . S
C317 C321 1.387 1_556 S
C317 H344 0.930 . S
C318 C316 1.380 1_556 S
C318 C317 1.384 . S
C318 H345 0.931 . S
C319 C316 1.374 . S
C319 C320 1.390 . S
C319 H346 0.930 . S
C320 C319 1.390 . S
C320 C321 1.391 . S
C320 H347 0.930 . S
C321 C317 1.387 1_554 S
C321 C320 1.391 . S
C322 Tb312 2.825 1_655 S
C322 C316 1.507 . S
C322 O335 1.238 1_655 S
C322 O336 1.246 1_655 S
O323 Tb312 2.347 . S
O323 C327 1.259 . S
O324 Eu313 2.418 . S
O324 C327 1.265 . S
O325 Eu313 2.384 . S
O325 C334 1.255 . S
O326 Tb312 2.366 . S
O326 C334 1.265 . S
C327 O323 1.259 . S
C327 O324 1.265 . S
O328 Eu313 2.479 . S
O328 C343 1.238 . S
O329 Eu313 2.471 . S
O329 C343 1.247 . S
O330 Eu313 2.347 . S
O330 C314 1.259 . S
O331 Tb312 2.418 . S
O331 C314 1.265 . S
O332 Tb312 2.384 . S
O332 C315 1.255 . S
O333 Eu313 2.366 . S
O333 C315 1.265 . S
C334 O325 1.255 . S
C334 O326 1.265 . S
O335 Tb312 2.479 . S
O335 C322 1.238 1_455 S
O336 Tb312 2.478 . S
O336 C322 1.246 1_455 S
C337 C340 1.380 . S
C337 C341 1.374 . S
C337 C343 1.507 . S
C338 C339 1.387 . S
C338 C342 1.391 . S
C339 C338 1.387 . S
C339 C340 1.384 . S
C339 H348 0.930 . S
C340 C337 1.380 . S
C340 C339 1.384 . S
C340 H349 0.931 . S
C341 C337 1.374 . S
C341 C342 1.390 . S
C341 H350 0.930 . S
C342 C338 1.391 . S
C342 C341 1.390 . S
C342 H351 0.930 . S
C343 Eu313 2.825 . S
C343 O328 1.238 . S
C343 O329 1.247 . S
C343 C337 1.507 . S
H344 C317 0.930 . S
H345 C318 0.931 . S
H346 C319 0.930 . S
H347 C320 0.930 . S
H348 C339 0.930 . S
H349 C340 0.931 . S
H350 C341 0.930 . S
H351 C342 0.930 . S
Tb352 C362 2.825 . S
Tb352 O363 2.347 . S
Tb352 O366 2.366 . S
Tb352 O371 2.418 . S
Tb352 O372 2.384 . S
Tb352 O375 2.479 . S
Tb352 O376 2.471 . S
Eu353 O364 2.418 . S
Eu353 O365 2.384 . S
Eu353 O368 2.479 . S
Eu353 O369 2.471 . S
Eu353 O370 2.347 . S
Eu353 O373 2.366 . S
Eu353 C383 2.825 . S
C354 O370 1.259 . S
C354 O371 1.265 . S
C355 O372 1.255 . S
C355 O373 1.265 . S
C356 C358 1.380 . S
C356 C359 1.374 . S
C356 C362 1.507 . S
C357 C358 1.384 . S
C357 C361 1.387 . S
C357 H384 0.930 . S
C358 C356 1.380 . S
C358 C357 1.384 . S
C358 H385 0.931 . S
C359 C356 1.374 . S
C359 C360 1.390 . S
C359 H386 0.930 . S
C360 C359 1.390 . S
C360 C361 1.391 . S
C360 H387 0.930 . S
C361 C357 1.387 . S
C361 C360 1.391 . S
C362 Tb352 2.825 . S
C362 C356 1.507 . S
C362 O375 1.238 . S
C362 O376 1.247 . S
O363 Tb352 2.347 . S
O363 C367 1.259 . S
O364 Eu353 2.418 . S
O364 C367 1.265 . S
O365 Eu353 2.384 . S
O365 C374 1.255 . S
O366 Tb352 2.366 . S
O366 C374 1.265 . S
C367 O363 1.259 . S
C367 O364 1.265 . S
O368 Eu353 2.479 . S
O368 C383 1.238 . S
O369 Eu353 2.471 . S
O369 C383 1.247 . S
O370 Eu353 2.347 . S
O370 C354 1.259 . S
O371 Tb352 2.418 . S
O371 C354 1.265 . S
O372 Tb352 2.384 . S
O372 C355 1.255 . S
O373 Eu353 2.366 . S
O373 C355 1.265 . S
C374 O365 1.255 . S
C374 O366 1.265 . S
O375 Tb352 2.479 . S
O375 C362 1.238 . S
O376 Tb352 2.471 . S
O376 C362 1.247 . S
C377 C380 1.380 . S
C377 C381 1.374 . S
C377 C383 1.507 . S
C378 C379 1.387 . S
C378 C382 1.391 . S
C379 C378 1.387 . S
C379 C380 1.384 . S
C379 H388 0.930 . S
C380 C377 1.380 . S
C380 C379 1.384 . S
C380 H389 0.931 . S
C381 C377 1.374 . S
C381 C382 1.390 . S
C381 H390 0.930 . S
C382 C378 1.391 . S
C382 C381 1.390 . S
C382 H391 0.930 . S
C383 Eu353 2.825 . S
C383 O368 1.238 . S
C383 O369 1.247 . S
C383 C377 1.507 . S
H384 C357 0.930 . S
H385 C358 0.931 . S
H386 C359 0.930 . S
H387 C360 0.930 . S
H388 C379 0.930 . S
H389 C380 0.931 . S
H390 C381 0.930 . S
H391 C382 0.930 . S
Tb392 C402 2.825 . S
Tb392 O403 2.347 1_565 S
Tb392 O406 2.366 . S
Tb392 O411 2.418 . S
Tb392 O412 2.384 1_565 S
Tb392 O415 2.479 . S
Tb392 O416 2.471 . S
Eu393 O404 2.418 . S
Eu393 O405 2.384 . S
Eu393 O408 2.479 . S
Eu393 O409 2.471 . S
Eu393 O410 2.347 . S
Eu393 O413 2.366 . S
Eu393 C423 2.825 . S
C394 O410 1.259 . S
C394 O411 1.265 1_545 S
C395 O412 1.255 . S
C395 O413 1.265 . S
C396 C398 1.380 . S
C396 C399 1.374 . S
C396 C402 1.507 . S
C397 C398 1.384 . S
C397 C401 1.387 . S
C397 H424 0.930 . S
C398 C396 1.380 . S
C398 C397 1.384 . S
C398 H425 0.931 . S
C399 C396 1.374 . S
C399 C400 1.390 . S
C399 H426 0.930 . S
C400 C399 1.390 . S
C400 C401 1.391 . S
C400 H427 0.930 . S
C401 C397 1.387 . S
C401 C400 1.391 . S
C402 Tb392 2.825 . S
C402 C396 1.507 . S
C402 O415 1.238 . S
C402 O416 1.247 . S
O403 Tb392 2.347 1_545 S
O403 C407 1.259 . S
O404 Eu393 2.418 . S
O404 C407 1.265 . S
O405 Eu393 2.384 . S
O405 C414 1.239 1_545 S
O406 Tb392 2.366 . S
O406 C414 1.272 . S
C407 O403 1.259 . S
C407 O404 1.265 . S
O408 Eu393 2.479 . S
O408 C423 1.238 . S
O409 Eu393 2.471 . S
O409 C423 1.247 . S
O410 Eu393 2.347 . S
O410 C394 1.259 . S
O411 Tb392 2.418 . S
O411 C394 1.265 1_565 S
O412 Tb392 2.384 1_545 S
O412 C395 1.255 . S
O413 Eu393 2.366 . S
O413 C395 1.265 . S
C414 O405 1.239 1_565 S
C414 O406 1.272 . S
O415 Tb392 2.479 . S
O415 C402 1.238 . S
O416 Tb392 2.471 . S
O416 C402 1.247 . S
C417 C420 1.380 . S
C417 C421 1.374 . S
C417 C423 1.507 . S
C418 C419 1.387 . S
C418 C422 1.391 . S
C419 C418 1.387 . S
C419 C420 1.384 . S
C419 H428 0.930 . S
C420 C417 1.380 . S
C420 C419 1.384 . S
C420 H429 0.931 . S
C421 C417 1.374 . S
C421 C422 1.390 . S
C421 H430 0.930 . S
C422 C418 1.391 . S
C422 C421 1.390 . S
C422 H431 0.930 . S
C423 Eu393 2.825 . S
C423 O408 1.238 . S
C423 O409 1.247 . S
C423 C417 1.507 . S
H424 C397 0.930 . S
H425 C398 0.931 . S
H426 C399 0.930 . S
H427 C400 0.930 . S
H428 C419 0.930 . S
H429 C420 0.931 . S
H430 C421 0.930 . S
H431 C422 0.930 . S
Tb432 C442 2.825 . S
Tb432 O443 2.347 . S
Tb432 O446 2.366 . S
Tb432 O451 2.418 . S
Tb432 O452 2.384 . S
Tb432 O455 2.479 . S
Tb432 O456 2.471 . S
Eu433 O444 2.418 . S
Eu433 O445 2.384 . S
Eu433 O448 2.479 . S
Eu433 O449 2.471 . S
Eu433 O450 2.347 . S
Eu433 O453 2.366 . S
Eu433 C463 2.825 . S
C434 O450 1.259 . S
C434 O451 1.265 . S
C435 O452 1.255 . S
C435 O453 1.265 . S
C436 C438 1.380 . S
C436 C439 1.374 . S
C436 C442 1.507 . S
C437 C438 1.384 . S
C437 C441 1.387 . S
C437 H464 0.930 . S
C438 C436 1.380 . S
C438 C437 1.384 . S
C438 H465 0.931 . S
C439 C436 1.374 . S
C439 C440 1.390 . S
C439 H466 0.930 . S
C440 C439 1.390 . S
C440 C441 1.391 . S
C440 H467 0.930 . S
C441 C437 1.387 . S
C441 C440 1.391 . S
C442 Tb432 2.825 . S
C442 C436 1.507 . S
C442 O455 1.238 . S
C442 O456 1.247 . S
O443 Tb432 2.347 . S
O443 C447 1.259 . S
O444 Eu433 2.418 . S
O444 C447 1.265 . S
O445 Eu433 2.384 . S
O445 C454 1.255 . S
O446 Tb432 2.366 . S
O446 C454 1.265 . S
C447 O443 1.259 . S
C447 O444 1.265 . S
O448 Eu433 2.479 . S
O448 C463 1.238 . S
O449 Eu433 2.471 . S
O449 C463 1.247 . S
O450 Eu433 2.347 . S
O450 C434 1.259 . S
O451 Tb432 2.418 . S
O451 C434 1.265 . S
O452 Tb432 2.384 . S
O452 C435 1.255 . S
O453 Eu433 2.366 . S
O453 C435 1.265 . S
C454 O445 1.255 . S
C454 O446 1.265 . S
O455 Tb432 2.479 . S
O455 C442 1.238 . S
O456 Tb432 2.471 . S
O456 C442 1.247 . S
C457 C460 1.380 . S
C457 C461 1.374 . S
C457 C463 1.507 . S
C458 C459 1.387 . S
C458 C462 1.391 . S
C459 C458 1.387 . S
C459 C460 1.384 . S
C459 H468 0.930 . S
C460 C457 1.380 . S
C460 C459 1.384 . S
C460 H469 0.931 . S
C461 C457 1.374 . S
C461 C462 1.390 . S
C461 H470 0.930 . S
C462 C458 1.391 . S
C462 C461 1.390 . S
C462 H471 0.930 . S
C463 Eu433 2.825 . S
C463 O448 1.238 . S
C463 O449 1.247 . S
C463 C457 1.507 . S
H464 C437 0.930 . S
H465 C438 0.931 . S
H466 C439 0.930 . S
H467 C440 0.930 . S
H468 C459 0.930 . S
H469 C460 0.931 . S
H470 C461 0.930 . S
H471 C462 0.930 . S
Tb472 C482 2.825 . S
Tb472 O483 2.347 . S
Tb472 O486 2.366 . S
Tb472 O491 2.418 . S
Tb472 O492 2.384 1_545 S
Tb472 O495 2.479 . S
Tb472 O496 2.471 . S
Eu473 O484 2.418 . S
Eu473 O485 2.384 . S
Eu473 O488 2.479 . S
Eu473 O489 2.471 . S
Eu473 O490 2.347 . S
Eu473 O493 2.335 1_545 S
Eu473 C503 2.825 . S
C474 O490 1.259 . S
C474 O491 1.265 . S
C475 O492 1.255 . S
C475 O493 1.289 . S
C476 C478 1.380 . S
C476 C479 1.352 1_455 S
C476 C482 1.507 . S
C477 C478 1.384 . S
C477 C481 1.387 . S
C477 H504 0.930 . S
C478 C476 1.380 . S
C478 C477 1.384 . S
C478 H505 0.931 . S
C479 C476 1.352 1_655 S
C479 C480 1.397 . S
C479 H506 0.945 . S
C480 C479 1.397 . S
C480 C481 1.391 1_655 S
C480 H507 0.930 . S
C481 C477 1.387 . S
C481 C480 1.391 1_455 S
C482 Tb472 2.825 . S
C482 C476 1.507 . S
C482 O495 1.238 . S
C482 O496 1.247 . S
O483 Tb472 2.347 . S
O483 C487 1.259 . S
O484 Eu473 2.418 . S
O484 C487 1.265 . S
O485 Eu473 2.384 . S
O485 C494 1.255 . S
O486 Tb472 2.366 . S
O486 C494 1.265 . S
C487 O483 1.259 . S
C487 O484 1.265 . S
O488 Eu473 2.479 . S
O488 C503 1.238 . S
O489 Eu473 2.471 . S
O489 C503 1.247 . S
O490 Eu473 2.347 . S
O490 C474 1.259 . S
O491 Tb472 2.418 . S
O491 C474 1.265 . S
O492 Tb472 2.384 1_565 S
O492 C475 1.255 . S
O493 Eu473 2.335 1_565 S
O493 C475 1.289 . S
C494 O485 1.255 . S
C494 O486 1.265 . S
O495 Tb472 2.479 . S
O495 C482 1.238 . S
O496 Tb472 2.471 . S
O496 C482 1.247 . S
C497 C500 1.380 . S
C497 C501 1.374 . S
C497 C503 1.507 . S
C498 C499 1.387 . S
C498 C502 1.391 . S
C499 C498 1.387 . S
C499 C500 1.384 . S
C499 H508 0.930 . S
C500 C497 1.380 . S
C500 C499 1.384 . S
C500 H509 0.931 . S
C501 C497 1.374 . S
C501 C502 1.390 . S
C501 H510 0.930 . S
C502 C498 1.391 . S
C502 C501 1.390 . S
C502 H511 0.930 . S
C503 Eu473 2.825 . S
C503 O488 1.238 . S
C503 O489 1.247 . S
C503 C497 1.507 . S
H504 C477 0.930 . S
H505 C478 0.931 . S
H506 C479 0.945 . S
H507 C480 0.930 . S
H508 C499 0.930 . S
H509 C500 0.931 . S
H510 C501 0.930 . S
H511 C502 0.930 . S
Tb512 C522 2.825 . S
Tb512 O523 2.347 . S
Tb512 O526 2.366 . S
Tb512 O531 2.418 . S
Tb512 O532 2.384 . S
Tb512 O535 2.479 . S
Tb512 O536 2.471 . S
Eu513 O524 2.418 . S
Eu513 O525 2.384 . S
Eu513 O528 2.479 . S
Eu513 O529 2.471 . S
Eu513 O530 2.347 . S
Eu513 O533 2.366 . S
Eu513 C543 2.825 . S
C514 O530 1.259 . S
C514 O531 1.265 . S
C515 O532 1.255 . S
C515 O533 1.265 . S
C516 C518 1.380 . S
C516 C519 1.374 . S
C516 C522 1.507 . S
C517 C518 1.384 . S
C517 C521 1.387 . S
C517 H544 0.930 . S
C518 C516 1.380 . S
C518 C517 1.384 . S
C518 H545 0.931 . S
C519 C516 1.374 . S
C519 C520 1.390 . S
C519 H546 0.930 . S
C520 C519 1.390 . S
C520 C521 1.391 . S
C520 H547 0.930 . S
C521 C517 1.387 . S
C521 C520 1.391 . S
C522 Tb512 2.825 . S
C522 C516 1.507 . S
C522 O535 1.238 . S
C522 O536 1.247 . S
O523 Tb512 2.347 . S
O523 C527 1.259 . S
O524 Eu513 2.418 . S
O524 C527 1.265 . S
O525 Eu513 2.384 . S
O525 C534 1.255 . S
O526 Tb512 2.366 . S
O526 C534 1.265 . S
C527 O523 1.259 . S
C527 O524 1.265 . S
O528 Eu513 2.479 . S
O528 C543 1.238 . S
O529 Eu513 2.471 . S
O529 C543 1.247 . S
O530 Eu513 2.347 . S
O530 C514 1.259 . S
O531 Tb512 2.418 . S
O531 C514 1.265 . S
O532 Tb512 2.384 . S
O532 C515 1.255 . S
O533 Eu513 2.366 . S
O533 C515 1.265 . S
C534 O525 1.255 . S
C534 O526 1.265 . S
O535 Tb512 2.479 . S
O535 C522 1.238 . S
O536 Tb512 2.471 . S
O536 C522 1.247 . S
C537 C540 1.380 . S
C537 C541 1.374 . S
C537 C543 1.507 . S
C538 C539 1.387 . S
C538 C542 1.391 . S
C539 C538 1.387 . S
C539 C540 1.384 . S
C539 H548 0.930 . S
C540 C537 1.380 . S
C540 C539 1.384 . S
C540 H549 0.931 . S
C541 C537 1.374 . S
C541 C542 1.390 . S
C541 H550 0.930 . S
C542 C538 1.391 . S
C542 C541 1.390 . S
C542 H551 0.930 . S
C543 Eu513 2.825 . S
C543 O528 1.238 . S
C543 O529 1.247 . S
C543 C537 1.507 . S
H544 C517 0.930 . S
H545 C518 0.931 . S
H546 C519 0.930 . S
H547 C520 0.930 . S
H548 C539 0.930 . S
H549 C540 0.931 . S
H550 C541 0.930 . S
H551 C542 0.930 . S
Tb552 C562 2.825 . S
Tb552 O563 2.347 . S
Tb552 O566 2.366 . S
Tb552 O571 2.459 . S
Tb552 O572 2.384 . S
Tb552 O575 2.479 . S
Tb552 O576 2.471 . S
Eu553 O564 2.433 . S
Eu553 O565 2.384 1_556 S
Eu553 O568 2.479 . S
Eu553 O569 2.471 . S
Eu553 O570 2.347 . S
Eu553 O573 2.366 . S
Eu553 C583 2.825 . S
C554 O570 1.259 1_554 S
C554 O571 1.274 . S
C555 O572 1.255 . S
C555 O573 1.265 1_554 S
C556 C558 1.380 . S
C556 C559 1.374 . S
C556 C562 1.507 . S
C557 C558 1.384 . S
C557 C561 1.387 . S
C557 H584 0.930 1_545 S
C558 C556 1.380 . S
C558 C557 1.384 . S
C558 H585 0.931 1_545 S
C559 C556 1.374 . S
C559 C560 1.390 . S
C559 H586 0.930 . S
C560 C559 1.390 . S
C560 C561 1.391 . S
C560 H587 0.930 . S
C561 C557 1.387 . S
C561 C560 1.391 . S
C562 Tb552 2.825 . S
C562 C556 1.507 . S
C562 O575 1.238 . S
C562 O576 1.247 . S
O563 Tb552 2.347 . S
O563 C567 1.259 . S
O564 Eu553 2.433 . S
O564 C567 1.229 1_556 S
O565 Eu553 2.384 1_554 S
O565 C574 1.255 . S
O566 Tb552 2.366 . S
O566 C574 1.265 . S
C567 O563 1.259 . S
C567 O564 1.229 1_554 S
O568 Eu553 2.479 . S
O568 C583 1.238 . S
O569 Eu553 2.471 . S
O569 C583 1.247 . S
O570 Eu553 2.347 . S
O570 C554 1.259 1_556 S
O571 Tb552 2.459 . S
O571 C554 1.274 . S
O572 Tb552 2.384 . S
O572 C555 1.255 . S
O573 Eu553 2.366 . S
O573 C555 1.265 1_556 S
C574 O565 1.255 . S
C574 O566 1.265 . S
O575 Tb552 2.479 . S
O575 C562 1.238 . S
O576 Tb552 2.471 . S
O576 C562 1.247 . S
C577 C580 1.380 . S
C577 C581 1.374 . S
C577 C583 1.507 . S
C578 C579 1.387 . S
C578 C582 1.391 . S
C579 C578 1.387 . S
C579 C580 1.384 . S
C579 H588 0.930 . S
C580 C577 1.380 . S
C580 C579 1.384 . S
C580 H589 0.931 . S
C581 C577 1.374 . S
C581 C582 1.390 . S
C581 H590 0.930 . S
C582 C578 1.391 . S
C582 C581 1.390 . S
C582 H591 0.930 . S
C583 Eu553 2.825 . S
C583 O568 1.238 . S
C583 O569 1.247 . S
C583 C577 1.507 . S
H584 C557 0.930 1_565 S
H585 C558 0.931 1_565 S
H586 C559 0.930 . S
H587 C560 0.930 . S
H588 C579 0.930 . S
H589 C580 0.931 . S
H590 C581 0.930 . S
H591 C582 0.930 . S
Tb592 C602 2.825 . S
Tb592 O603 2.347 . S
Tb592 O606 2.366 . S
Tb592 O611 2.418 . S
Tb592 O612 2.384 . S
Tb592 O615 2.479 . S
Tb592 O616 2.471 . S
Eu593 O604 2.418 . S
Eu593 O605 2.384 . S
Eu593 O608 2.479 . S
Eu593 O609 2.471 . S
Eu593 O610 2.347 . S
Eu593 O613 2.366 . S
Eu593 C623 2.825 . S
C594 O610 1.259 . S
C594 O611 1.265 . S
C595 O612 1.255 . S
C595 O613 1.265 . S
C596 C598 1.380 . S
C596 C599 1.374 . S
C596 C602 1.507 . S
C597 C598 1.384 . S
C597 C601 1.387 . S
C597 H624 0.930 . S
C598 C596 1.380 . S
C598 C597 1.384 . S
C598 H625 0.931 . S
C599 C596 1.374 . S
C599 C600 1.390 . S
C599 H626 0.930 . S
C600 C599 1.390 . S
C600 C601 1.391 . S
C600 H627 0.930 . S
C601 C597 1.387 . S
C601 C600 1.391 . S
C602 Tb592 2.825 . S
C602 C596 1.507 . S
C602 O615 1.238 . S
C602 O616 1.247 . S
O603 Tb592 2.347 . S
O603 C607 1.259 . S
O604 Eu593 2.418 . S
O604 C607 1.265 . S
O605 Eu593 2.384 . S
O605 C614 1.255 . S
O606 Tb592 2.366 . S
O606 C614 1.265 . S
C607 O603 1.259 . S
C607 O604 1.265 . S
O608 Eu593 2.479 . S
O608 C623 1.238 . S
O609 Eu593 2.471 . S
O609 C623 1.247 . S
O610 Eu593 2.347 . S
O610 C594 1.259 . S
O611 Tb592 2.418 . S
O611 C594 1.265 . S
O612 Tb592 2.384 . S
O612 C595 1.255 . S
O613 Eu593 2.366 . S
O613 C595 1.265 . S
C614 O605 1.255 . S
C614 O606 1.265 . S
O615 Tb592 2.479 . S
O615 C602 1.238 . S
O616 Tb592 2.471 . S
O616 C602 1.247 . S
C617 C620 1.380 . S
C617 C621 1.374 . S
C617 C623 1.507 . S
C618 C619 1.387 . S
C618 C622 1.391 . S
C619 C618 1.387 . S
C619 C620 1.384 . S
C619 H628 0.930 . S
C620 C617 1.380 . S
C620 C619 1.384 . S
C620 H629 0.931 . S
C621 C617 1.374 . S
C621 C622 1.390 . S
C621 H630 0.930 . S
C622 C618 1.391 . S
C622 C621 1.390 . S
C622 H631 0.930 . S
C623 Eu593 2.825 . S
C623 O608 1.238 . S
C623 O609 1.247 . S
C623 C617 1.507 . S
H624 C597 0.930 . S
H625 C598 0.931 . S
H626 C599 0.930 . S
H627 C600 0.930 . S
H628 C619 0.930 . S
H629 C620 0.931 . S
H630 C621 0.930 . S
H631 C622 0.930 . S
Tb632 C642 2.825 . S
Tb632 O643 2.347 1_556 S
Tb632 O646 2.366 . S
Tb632 O651 2.418 . S
Tb632 O652 2.384 1_556 S
Tb632 O655 2.479 . S
Tb632 O656 2.471 . S
Eu633 O644 2.418 . S
Eu633 O645 2.384 . S
Eu633 O648 2.479 . S
Eu633 O649 2.471 . S
Eu633 O650 2.347 . S
Eu633 O653 2.366 . S
Eu633 C663 2.825 . S
C634 O650 1.259 . S
C634 O651 1.265 1_554 S
C635 O652 1.255 . S
C635 O653 1.265 . S
C636 C638 1.380 . S
C636 C639 1.374 . S
C636 C642 1.507 . S
C637 C638 1.384 . S
C637 C641 1.387 . S
C637 H664 0.930 . S
C638 C636 1.380 . S
C638 C637 1.384 . S
C638 H665 0.931 . S
C639 C636 1.374 . S
C639 C640 1.390 . S
C639 H666 0.930 . S
C640 C639 1.390 . S
C640 C641 1.391 . S
C640 H667 0.930 . S
C641 C637 1.387 . S
C641 C640 1.391 . S
C642 Tb632 2.825 . S
C642 C636 1.507 . S
C642 O655 1.238 . S
C642 O656 1.247 . S
O643 Tb632 2.347 1_554 S
O643 C647 1.259 . S
O644 Eu633 2.418 . S
O644 C647 1.265 . S
O645 Eu633 2.384 . S
O645 C654 1.255 1_554 S
O646 Tb632 2.366 . S
O646 C654 1.265 . S
C647 O643 1.259 . S
C647 O644 1.265 . S
O648 Eu633 2.479 . S
O648 C663 1.238 . S
O649 Eu633 2.471 . S
O649 C663 1.247 . S
O650 Eu633 2.347 . S
O650 C634 1.259 . S
O651 Tb632 2.418 . S
O651 C634 1.265 1_556 S
O652 Tb632 2.384 1_554 S
O652 C635 1.255 . S
O653 Eu633 2.366 . S
O653 C635 1.265 . S
C654 O645 1.255 1_556 S
C654 O646 1.265 . S
O655 Tb632 2.479 . S
O655 C642 1.238 . S
O656 Tb632 2.471 . S
O656 C642 1.247 . S
C657 C660 1.380 . S
C657 C661 1.374 . S
C657 C663 1.507 . S
C658 C659 1.387 . S
C658 C662 1.391 . S
C659 C658 1.387 . S
C659 C660 1.384 . S
C659 H668 0.930 . S
C660 C657 1.380 . S
C660 C659 1.384 . S
C660 H669 0.931 . S
C661 C657 1.374 . S
C661 C662 1.390 . S
C661 H670 0.930 . S
C662 C658 1.391 . S
C662 C661 1.390 . S
C662 H671 0.930 . S
C663 Eu633 2.825 . S
C663 O648 1.238 . S
C663 O649 1.247 . S
C663 C657 1.507 . S
H664 C637 0.930 . S
H665 C638 0.931 . S
H666 C639 0.930 . S
H667 C640 0.930 . S
H668 C659 0.930 . S
H669 C660 0.931 . S
H670 C661 0.930 . S
H671 C662 0.930 . S
Tb672 C682 2.825 . S
Tb672 O683 2.347 . S
Tb672 O686 2.366 . S
Tb672 O691 2.418 . S
Tb672 O692 2.384 . S
Tb672 O695 2.479 . S
Tb672 O696 2.471 . S
Eu673 O684 2.418 . S
Eu673 O685 2.384 . S
Eu673 O688 2.479 . S
Eu673 O689 2.471 . S
Eu673 O690 2.347 . S
Eu673 O693 2.366 . S
Eu673 C703 2.825 . S
C674 O690 1.259 . S
C674 O691 1.265 . S
C675 O692 1.255 . S
C675 O693 1.265 . S
C676 C678 1.380 . S
C676 C679 1.374 . S
C676 C682 1.507 . S
C677 C678 1.384 . S
C677 C681 1.387 . S
C677 H704 0.930 . S
C678 C676 1.380 . S
C678 C677 1.384 . S
C678 H705 0.931 . S
C679 C676 1.374 . S
C679 C680 1.390 . S
C679 H706 0.930 . S
C680 C679 1.390 . S
C680 C681 1.391 . S
C680 H707 0.930 . S
C681 C677 1.387 . S
C681 C680 1.391 . S
C682 Tb672 2.825 . S
C682 C676 1.507 . S
C682 O695 1.238 . S
C682 O696 1.247 . S
O683 Tb672 2.347 . S
O683 C687 1.259 . S
O684 Eu673 2.418 . S
O684 C687 1.265 . S
O685 Eu673 2.384 . S
O685 C694 1.255 . S
O686 Tb672 2.366 . S
O686 C694 1.265 . S
C687 O683 1.259 . S
C687 O684 1.265 . S
O688 Eu673 2.479 . S
O688 C703 1.238 . S
O689 Eu673 2.471 . S
O689 C703 1.247 . S
O690 Eu673 2.347 . S
O690 C674 1.259 . S
O691 Tb672 2.418 . S
O691 C674 1.265 . S
O692 Tb672 2.384 . S
O692 C675 1.255 . S
O693 Eu673 2.366 . S
O693 C675 1.265 . S
C694 O685 1.255 . S
C694 O686 1.265 . S
O695 Tb672 2.479 . S
O695 C682 1.238 . S
O696 Tb672 2.471 . S
O696 C682 1.247 . S
C697 C700 1.380 . S
C697 C701 1.374 . S
C697 C703 1.507 . S
C698 C699 1.387 . S
C698 C702 1.391 . S
C699 C698 1.387 . S
C699 C700 1.384 . S
C699 H708 0.930 . S
C700 C697 1.380 . S
C700 C699 1.384 . S
C700 H709 0.931 . S
C701 C697 1.374 . S
C701 C702 1.390 . S
C701 H710 0.930 . S
C702 C698 1.391 . S
C702 C701 1.390 . S
C702 H711 0.930 . S
C703 Eu673 2.825 . S
C703 O688 1.238 . S
C703 O689 1.247 . S
C703 C697 1.507 . S
H704 C677 0.930 . S
H705 C678 0.931 . S
H706 C679 0.930 . S
H707 C680 0.930 . S
H708 C699 0.930 . S
H709 C700 0.931 . S
H710 C701 0.930 . S
H711 C702 0.930 . S
Tb712 C722 2.825 . S
Tb712 O723 2.347 . S
Tb712 O726 2.366 . S
Tb712 O731 2.418 . S
Tb712 O732 2.384 . S
Tb712 O735 2.479 . S
Tb712 O736 2.471 . S
Eu713 O724 2.418 . S
Eu713 O725 2.384 1_455 S
Eu713 O728 2.479 . S
Eu713 O729 2.471 . S
Eu713 O730 2.347 . S
Eu713 O733 2.366 . S
Eu713 C743 2.825 . S
C714 O730 1.259 . S
C714 O731 1.265 . S
C715 O732 1.255 . S
C715 O733 1.265 . S
C716 C718 1.380 . S
C716 C719 1.374 1_455 S
C716 C722 1.507 . S
C717 C718 1.384 . S
C717 C721 1.387 1_455 S
C717 H744 0.930 . S
C718 C716 1.380 . S
C718 C717 1.384 . S
C718 H745 0.931 . S
C719 C716 1.374 1_655 S
C719 C720 1.390 . S
C719 H746 0.930 . S
C720 C719 1.390 . S
C720 C721 1.391 . S
C720 H747 0.930 . S
C721 C717 1.387 1_655 S
C721 C720 1.391 . S
C722 Tb712 2.825 . S
C722 C716 1.507 . S
C722 O735 1.238 . S
C722 O736 1.247 . S
O723 Tb712 2.347 . S
O723 C727 1.259 . S
O724 Eu713 2.418 . S
O724 C727 1.265 . S
O725 Eu713 2.384 1_655 S
O725 C734 1.255 . S
O726 Tb712 2.366 . S
O726 C734 1.265 1_455 S
C727 O723 1.259 . S
C727 O724 1.265 . S
O728 Eu713 2.479 . S
O728 C743 1.238 . S
O729 Eu713 2.471 . S
O729 C743 1.247 . S
O730 Eu713 2.347 . S
O730 C714 1.259 . S
O731 Tb712 2.418 . S
O731 C714 1.265 . S
O732 Tb712 2.384 . S
O732 C715 1.255 . S
O733 Eu713 2.366 . S
O733 C715 1.265 . S
C734 O725 1.255 . S
C734 O726 1.265 1_655 S
O735 Tb712 2.479 . S
O735 C722 1.238 . S
O736 Tb712 2.471 . S
O736 C722 1.247 . S
C737 C740 1.380 . S
C737 C741 1.374 . S
C737 C743 1.507 . S
C738 C739 1.387 . S
C738 C742 1.391 . S
C739 C738 1.387 . S
C739 C740 1.384 . S
C739 H748 0.930 . S
C740 C737 1.380 . S
C740 C739 1.384 . S
C740 H749 0.931 . S
C741 C737 1.374 . S
C741 C742 1.390 . S
C741 H750 0.930 . S
C742 C738 1.391 . S
C742 C741 1.390 . S
C742 H751 0.930 . S
C743 Eu713 2.825 . S
C743 O728 1.238 . S
C743 O729 1.247 . S
C743 C737 1.507 . S
H744 C717 0.930 . S
H745 C718 0.931 . S
H746 C719 0.930 . S
H747 C720 0.930 . S
H748 C739 0.930 . S
H749 C740 0.931 . S
H750 C741 0.930 . S
H751 C742 0.930 . S
Tb752 C762 2.825 . S
Tb752 O763 2.347 . S
Tb752 O766 2.366 . S
Tb752 O771 2.418 . S
Tb752 O772 2.384 . S
Tb752 O775 2.479 . S
Tb752 O776 2.471 . S
Eu753 O764 2.418 . S
Eu753 O765 2.384 . S
Eu753 O768 2.479 . S
Eu753 O769 2.471 . S
Eu753 O770 2.347 . S
Eu753 O773 2.366 . S
Eu753 C783 2.825 . S
C754 O770 1.259 . S
C754 O771 1.265 . S
C755 O772 1.255 . S
C755 O773 1.265 . S
C756 C758 1.380 . S
C756 C759 1.374 . S
C756 C762 1.507 . S
C757 C758 1.384 . S
C757 C761 1.387 . S
C757 H784 0.930 . S
C758 C756 1.380 . S
C758 C757 1.384 . S
C758 H785 0.931 . S
C759 C756 1.374 . S
C759 C760 1.390 . S
C759 H786 0.930 . S
C760 C759 1.390 . S
C760 C761 1.391 . S
C760 H787 0.930 . S
C761 C757 1.387 . S
C761 C760 1.391 . S
C762 Tb752 2.825 . S
C762 C756 1.507 . S
C762 O775 1.238 . S
C762 O776 1.247 . S
O763 Tb752 2.347 . S
O763 C767 1.259 . S
O764 Eu753 2.418 . S
O764 C767 1.265 . S
O765 Eu753 2.384 . S
O765 C774 1.255 . S
O766 Tb752 2.366 . S
O766 C774 1.265 . S
C767 O763 1.259 . S
C767 O764 1.265 . S
O768 Eu753 2.479 . S
O768 C783 1.238 . S
O769 Eu753 2.471 . S
O769 C783 1.247 . S
O770 Eu753 2.347 . S
O770 C754 1.259 . S
O771 Tb752 2.418 . S
O771 C754 1.265 . S
O772 Tb752 2.384 . S
O772 C755 1.255 . S
O773 Eu753 2.366 . S
O773 C755 1.265 . S
C774 O765 1.255 . S
C774 O766 1.265 . S
O775 Tb752 2.479 . S
O775 C762 1.238 . S
O776 Tb752 2.471 . S
O776 C762 1.247 . S
C777 C780 1.380 . S
C777 C781 1.374 . S
C777 C783 1.507 . S
C778 C779 1.387 . S
C778 C782 1.391 . S
C779 C778 1.387 . S
C779 C780 1.384 . S
C779 H788 0.930 . S
C780 C777 1.380 . S
C780 C779 1.384 . S
C780 H789 0.931 . S
C781 C777 1.374 . S
C781 C782 1.390 . S
C781 H790 0.930 . S
C782 C778 1.391 . S
C782 C781 1.390 . S
C782 H791 0.930 . S
C783 Eu753 2.825 . S
C783 O768 1.238 . S
C783 O769 1.247 . S
C783 C777 1.507 . S
H784 C757 0.930 . S
H785 C758 0.931 . S
H786 C759 0.930 . S
H787 C760 0.930 . S
H788 C779 0.930 . S
H789 C780 0.931 . S
H790 C781 0.930 . S
H791 C782 0.930 . S
Tb792 C802 2.825 . S
Tb792 O803 2.347 . S
Tb792 O806 2.366 . S
Tb792 O811 2.418 . S
Tb792 O812 2.384 . S
Tb792 O815 2.479 . S
Tb792 O816 2.471 . S
Eu793 O804 2.418 . S
Eu793 O805 2.384 . S
Eu793 O808 2.479 . S
Eu793 O809 2.471 . S
Eu793 O810 2.347 . S
Eu793 O813 2.366 . S
Eu793 C823 2.825 . S
C794 O810 1.259 . S
C794 O811 1.265 . S
C795 O812 1.255 . S
C795 O813 1.265 . S
C796 C798 1.380 . S
C796 C799 1.374 . S
C796 C802 1.507 . S
C797 C798 1.384 . S
C797 C801 1.387 . S
C797 H824 0.930 . S
C798 C796 1.380 . S
C798 C797 1.384 . S
C798 H825 0.931 . S
C799 C796 1.374 . S
C799 C800 1.390 . S
C799 H826 0.930 . S
C800 C799 1.390 . S
C800 C801 1.391 . S
C800 H827 0.930 . S
C801 C797 1.387 . S
C801 C800 1.391 . S
C802 Tb792 2.825 . S
C802 C796 1.507 . S
C802 O815 1.238 . S
C802 O816 1.247 . S
O803 Tb792 2.347 . S
O803 C807 1.259 . S
O804 Eu793 2.418 . S
O804 C807 1.265 . S
O805 Eu793 2.384 . S
O805 C814 1.255 . S
O806 Tb792 2.366 . S
O806 C814 1.265 . S
C807 O803 1.259 . S
C807 O804 1.265 . S
O808 Eu793 2.479 . S
O808 C823 1.238 . S
O809 Eu793 2.471 . S
O809 C823 1.247 . S
O810 Eu793 2.347 . S
O810 C794 1.259 . S
O811 Tb792 2.418 . S
O811 C794 1.265 . S
O812 Tb792 2.384 . S
O812 C795 1.255 . S
O813 Eu793 2.366 . S
O813 C795 1.265 . S
C814 O805 1.255 . S
C814 O806 1.265 . S
O815 Tb792 2.479 . S
O815 C802 1.238 . S
O816 Tb792 2.471 . S
O816 C802 1.247 . S
C817 C820 1.380 . S
C817 C821 1.374 . S
C817 C823 1.507 . S
C818 C819 1.387 . S
C818 C822 1.391 . S
C819 C818 1.387 . S
C819 C820 1.384 . S
C819 H828 0.930 . S
C820 C817 1.380 . S
C820 C819 1.384 . S
C820 H829 0.931 . S
C821 C817 1.374 . S
C821 C822 1.390 . S
C821 H830 0.930 . S
C822 C818 1.391 . S
C822 C821 1.390 . S
C822 H831 0.930 . S
C823 Eu793 2.825 . S
C823 O808 1.238 . S
C823 O809 1.247 . S
C823 C817 1.507 . S
H824 C797 0.930 . S
H825 C798 0.931 . S
H826 C799 0.930 . S
H827 C800 0.930 . S
H828 C819 0.930 . S
H829 C820 0.931 . S
H830 C821 0.930 . S
H831 C822 0.930 . S
Tb832 C842 2.825 . S
Tb832 O843 2.347 . S
Tb832 O846 2.366 . S
Tb832 O851 2.418 . S
Tb832 O852 2.384 . S
Tb832 O855 2.479 . S
Tb832 O856 2.471 . S
Eu833 O844 2.418 . S
Eu833 O845 2.384 . S
Eu833 O848 2.479 . S
Eu833 O849 2.471 . S
Eu833 O850 2.347 . S
Eu833 O853 2.366 . S
Eu833 C863 2.825 . S
C834 O850 1.259 . S
C834 O851 1.265 . S
C835 O852 1.255 . S
C835 O853 1.265 . S
C836 C838 1.380 . S
C836 C839 1.374 . S
C836 C842 1.507 . S
C837 C838 1.384 . S
C837 C841 1.387 . S
C837 H864 0.930 . S
C838 C836 1.380 . S
C838 C837 1.384 . S
C838 H865 0.931 . S
C839 C836 1.374 . S
C839 C840 1.390 . S
C839 H866 0.930 . S
C840 C839 1.390 . S
C840 C841 1.391 . S
C840 H867 0.930 . S
C841 C837 1.387 . S
C841 C840 1.391 . S
C842 Tb832 2.825 . S
C842 C836 1.507 . S
C842 O855 1.238 . S
C842 O856 1.247 . S
O843 Tb832 2.347 . S
O843 C847 1.259 . S
O844 Eu833 2.418 . S
O844 C847 1.265 . S
O845 Eu833 2.384 . S
O845 C854 1.255 . S
O846 Tb832 2.366 . S
O846 C854 1.265 . S
C847 O843 1.259 . S
C847 O844 1.265 . S
O848 Eu833 2.479 . S
O848 C863 1.238 . S
O849 Eu833 2.471 . S
O849 C863 1.247 . S
O850 Eu833 2.347 . S
O850 C834 1.259 . S
O851 Tb832 2.418 . S
O851 C834 1.265 . S
O852 Tb832 2.384 . S
O852 C835 1.255 . S
O853 Eu833 2.366 . S
O853 C835 1.265 . S
C854 O845 1.255 . S
C854 O846 1.265 . S
O855 Tb832 2.479 . S
O855 C842 1.238 . S
O856 Tb832 2.471 . S
O856 C842 1.247 . S
C857 C860 1.380 . S
C857 C861 1.374 . S
C857 C863 1.507 . S
C858 C859 1.387 . S
C858 C862 1.391 . S
C859 C858 1.387 . S
C859 C860 1.384 . S
C859 H868 0.930 . S
C860 C857 1.380 . S
C860 C859 1.384 . S
C860 H869 0.931 . S
C861 C857 1.374 . S
C861 C862 1.390 . S
C861 H870 0.930 . S
C862 C858 1.391 . S
C862 C861 1.390 . S
C862 H871 0.930 . S
C863 Eu833 2.825 . S
C863 O848 1.238 . S
C863 O849 1.247 . S
C863 C857 1.507 . S
H864 C837 0.930 . S
H865 C838 0.931 . S
H866 C839 0.930 . S
H867 C840 0.930 . S
H868 C859 0.930 . S
H869 C860 0.931 . S
H870 C861 0.930 . S
H871 C862 0.930 . S
Tb872 C882 2.825 . S
Tb872 O883 2.347 . S
Tb872 O886 2.366 . S
Tb872 O891 2.418 . S
Tb872 O892 2.384 . S
Tb872 O895 2.479 . S
Tb872 O896 2.471 . S
Eu873 O884 2.418 . S
Eu873 O885 2.384 . S
Eu873 O888 2.479 . S
Eu873 O889 2.471 . S
Eu873 O890 2.347 . S
Eu873 O893 2.366 . S
Eu873 C903 2.825 . S
C874 O890 1.259 . S
C874 O891 1.265 . S
C875 O892 1.255 . S
C875 O893 1.265 . S
C876 C878 1.380 . S
C876 C879 1.374 . S
C876 C882 1.507 . S
C877 C878 1.384 . S
C877 C881 1.387 . S
C877 H904 0.930 . S
C878 C876 1.380 . S
C878 C877 1.384 . S
C878 H905 0.931 . S
C879 C876 1.374 . S
C879 C880 1.390 . S
C879 H906 0.930 . S
C880 C879 1.390 . S
C880 C881 1.391 . S
C880 H907 0.930 . S
C881 C877 1.387 . S
C881 C880 1.391 . S
C882 Tb872 2.825 . S
C882 C876 1.507 . S
C882 O895 1.238 . S
C882 O896 1.247 . S
O883 Tb872 2.347 . S
O883 C887 1.259 . S
O884 Eu873 2.418 . S
O884 C887 1.265 . S
O885 Eu873 2.384 . S
O885 C894 1.255 . S
O886 Tb872 2.366 . S
O886 C894 1.265 . S
C887 O883 1.259 . S
C887 O884 1.265 . S
O888 Eu873 2.479 . S
O888 C903 1.238 . S
O889 Eu873 2.471 . S
O889 C903 1.247 . S
O890 Eu873 2.347 . S
O890 C874 1.259 . S
O891 Tb872 2.418 . S
O891 C874 1.265 . S
O892 Tb872 2.384 . S
O892 C875 1.255 . S
O893 Eu873 2.366 . S
O893 C875 1.265 . S
C894 O885 1.255 . S
C894 O886 1.265 . S
O895 Tb872 2.479 . S
O895 C882 1.238 . S
O896 Tb872 2.471 . S
O896 C882 1.247 . S
C897 C900 1.380 . S
C897 C901 1.374 . S
C897 C903 1.507 . S
C898 C899 1.387 . S
C898 C902 1.391 . S
C899 C898 1.387 . S
C899 C900 1.384 . S
C899 H908 0.930 . S
C900 C897 1.380 . S
C900 C899 1.384 . S
C900 H909 0.931 . S
C901 C897 1.374 . S
C901 C902 1.390 . S
C901 H910 0.930 . S
C902 C898 1.391 . S
C902 C901 1.390 . S
C902 H911 0.930 . S
C903 Eu873 2.825 . S
C903 O888 1.238 . S
C903 O889 1.247 . S
C903 C897 1.507 . S
H904 C877 0.930 . S
H905 C878 0.931 . S
H906 C879 0.930 . S
H907 C880 0.930 . S
H908 C899 0.930 . S
H909 C900 0.931 . S
H910 C901 0.930 . S
H911 C902 0.930 . S
Tb912 C922 2.825 . S
Tb912 O923 2.347 . S
Tb912 O926 2.366 . S
Tb912 O931 2.418 . S
Tb912 O932 2.384 1_455 S
Tb912 O935 2.479 . S
Tb912 O936 2.471 . S
Eu913 O924 2.418 1_554 S
Eu913 O925 2.384 . S
Eu913 O928 2.479 . S
Eu913 O929 2.471 . S
Eu913 O930 2.347 . S
Eu913 O933 2.366 . S
Eu913 C943 2.825 . S
C914 O930 1.259 . S
C914 O931 1.265 . S
C915 O932 1.255 . S
C915 O933 1.265 1_655 S
C916 C918 1.380 . S
C916 C919 1.374 1_554 S
C916 C922 1.507 . S
C917 C918 1.384 . S
C917 C921 1.387 1_554 S
C917 H944 0.930 . S
C918 C916 1.380 . S
C918 C917 1.384 . S
C918 H945 0.931 . S
C919 C916 1.374 1_556 S
C919 C920 1.390 . S
C919 H946 0.930 . S
C920 C919 1.390 . S
C920 C921 1.391 . S
C920 H947 0.930 . S
C921 C917 1.387 1_556 S
C921 C920 1.391 . S
C922 Tb912 2.825 . S
C922 C916 1.507 . S
C922 O935 1.238 . S
C922 O936 1.247 . S
O923 Tb912 2.347 . S
O923 C927 1.259 1_554 S
O924 Eu913 2.418 1_556 S
O924 C927 1.265 . S
O925 Eu913 2.384 . S
O925 C934 1.255 . S
O926 Tb912 2.366 . S
O926 C934 1.265 . S
C927 O923 1.259 1_556 S
C927 O924 1.265 . S
O928 Eu913 2.479 . S
O928 C943 1.238 . S
O929 Eu913 2.471 . S
O929 C943 1.247 . S
O930 Eu913 2.347 . S
O930 C914 1.259 . S
O931 Tb912 2.418 . S
O931 C914 1.265 . S
O932 Tb912 2.384 1_655 S
O932 C915 1.255 . S
O933 Eu913 2.366 . S
O933 C915 1.265 1_455 S
C934 O925 1.255 . S
C934 O926 1.265 . S
O935 Tb912 2.479 . S
O935 C922 1.238 . S
O936 Tb912 2.471 . S
O936 C922 1.247 . S
C937 C940 1.380 . S
C937 C941 1.374 . S
C937 C943 1.507 . S
C938 C939 1.387 . S
C938 C942 1.391 . S
C939 C938 1.387 . S
C939 C940 1.384 . S
C939 H948 0.930 . S
C940 C937 1.380 . S
C940 C939 1.384 . S
C940 H949 0.931 . S
C941 C937 1.374 . S
C941 C942 1.390 . S
C941 H950 0.930 . S
C942 C938 1.391 . S
C942 C941 1.390 . S
C942 H951 0.930 . S
C943 Eu913 2.825 . S
C943 O928 1.238 . S
C943 O929 1.247 . S
C943 C937 1.507 . S
H944 C917 0.930 . S
H945 C918 0.931 . S
H946 C919 0.930 . S
H947 C920 0.930 . S
H948 C939 0.930 . S
H949 C940 0.931 . S
H950 C941 0.930 . S
H951 C942 0.930 . S
C952 C953 1.349 . S
C952 C954 1.327 . S
C952 H977 0.950 . S
C953 C952 1.349 . S
C953 C969 1.349 . S
C954 C952 1.327 . S
C954 C973 1.429 . S
C954 H978 0.950 . S
C955 C972 1.574 . S
C955 C974 1.368 . S
C955 H979 0.949 . S
H956 C960 0.949 . S
C957 C958 1.349 . S
C957 C959 1.327 . S
C957 H980 0.950 . S
C958 C957 1.349 . S
C958 C970 1.349 . S
C959 C957 1.327 . S
C959 C975 1.429 1_554 S
C959 H981 0.950 . S
C960 H956 0.949 . S
C960 C968 1.574 . S
C960 C976 1.368 . S
H961 C969 0.950 . S
H962 C967 0.950 . S
H963 C968 0.949 . S
H964 C970 0.967 . S
H965 C971 0.950 . S
H966 C972 0.949 1_554 S
C967 H962 0.950 . S
C967 C969 1.327 . S
C967 C973 1.429 . S
C968 C960 1.574 . S
C968 H963 0.949 . S
C968 C974 1.368 . S
C969 C953 1.349 . S
C969 H961 0.950 . S
C969 C967 1.327 . S
C970 C958 1.349 . S
C970 H964 0.967 . S
C970 C971 1.327 1_554 S
C971 H965 0.950 . S
C971 C970 1.327 1_556 S
C971 C975 1.429 . S
C972 C955 1.574 . S
C972 H966 0.949 1_556 S
C972 C976 1.368 . S
C973 C954 1.429 . S
C973 C967 1.429 . S
C973 C974 1.523 . S
C974 C955 1.368 . S
C974 C968 1.368 . S
C974 C973 1.523 . S
C975 C959 1.429 1_556 S
C975 C971 1.429 . S
C975 C976 1.523 . S
C976 C960 1.368 . S
C976 C972 1.368 . S
C976 C975 1.523 . S
H977 C952 0.950 . S
H978 C954 0.950 . S
H979 C955 0.949 . S
H980 C957 0.950 . S
H981 C959 0.950 . S
C982 C983 1.349 . S
C982 C984 1.327 . S
C982 H1007 0.950 . S
C983 C982 1.349 . S
C983 C999 1.349 . S
C984 C982 1.327 . S
C984 C1003 1.429 . S
C984 H1008 0.950 . S
C985 C1002 1.574 . S
C985 C1004 1.368 . S
C985 H1009 0.949 . S
H986 C990 0.949 . S
C987 C988 1.349 . S
C987 C989 1.327 . S
C987 H1010 0.950 . S
C988 C987 1.349 . S
C988 C1000 1.349 . S
C989 C987 1.327 . S
C989 C1005 1.429 . S
C989 H1011 0.950 . S
C990 H986 0.949 . S
C990 C998 1.574 . S
C990 C1006 1.368 . S
H991 C999 0.950 . S
H992 C997 0.950 . S
H993 C998 0.949 . S
H994 C1000 0.950 . S
H995 C1001 0.950 . S
H996 C1002 0.949 . S
C997 H992 0.950 . S
C997 C999 1.327 . S
C997 C1003 1.429 . S
C998 C990 1.574 . S
C998 H993 0.949 . S
C998 C1004 1.368 . S
C999 C983 1.349 . S
C999 H991 0.950 . S
C999 C997 1.327 . S
C1000 C988 1.349 . S
C1000 H994 0.950 . S
C1000 C1001 1.327 . S
C1001 H995 0.950 . S
C1001 C1000 1.327 . S
C1001 C1005 1.429 . S
C1002 C985 1.574 . S
C1002 H996 0.949 . S
C1002 C1006 1.368 . S
C1003 C984 1.429 . S
C1003 C997 1.429 . S
C1003 C1004 1.523 . S
C1004 C985 1.368 . S
C1004 C998 1.368 . S
C1004 C1003 1.523 . S
C1005 C989 1.429 . S
C1005 C1001 1.429 . S
C1005 C1006 1.523 . S
C1006 C990 1.368 . S
C1006 C1002 1.368 . S
C1006 C1005 1.523 . S
H1007 C982 0.950 . S
H1008 C984 0.950 . S
H1009 C985 0.949 . S
H1010 C987 0.950 . S
H1011 C989 0.950 . S
C1012 C1013 1.349 . S
C1012 C1014 1.327 . S
C1012 H1037 0.950 . S
C1013 C1012 1.349 . S
C1013 C1029 1.349 . S
C1014 C1012 1.327 . S
C1014 C1033 1.429 . S
C1014 H1038 0.950 . S
C1015 C1032 1.574 . S
C1015 C1034 1.368 . S
C1015 H1039 0.949 . S
H1016 C1020 0.949 . S
C1017 C1018 1.349 . S
C1017 C1019 1.327 . S
C1017 H1040 0.950 . S
C1018 C1017 1.349 . S
C1018 C1030 1.349 . S
C1019 C1017 1.327 . S
C1019 C1035 1.429 . S
C1019 H1041 0.950 . S
C1020 H1016 0.949 . S
C1020 C1028 1.574 . S
C1020 C1036 1.368 . S
H1021 C1029 0.950 . S
H1022 C1027 0.950 . S
H1023 C1028 0.949 . S
H1024 C1030 0.950 . S
H1025 C1031 0.950 . S
H1026 C1032 0.949 . S
C1027 H1022 0.950 . S
C1027 C1029 1.327 . S
C1027 C1033 1.429 . S
C1028 C1020 1.574 . S
C1028 H1023 0.949 . S
C1028 C1034 1.368 . S
C1029 C1013 1.349 . S
C1029 H1021 0.950 . S
C1029 C1027 1.327 . S
C1030 C1018 1.349 . S
C1030 H1024 0.950 . S
C1030 C1031 1.327 . S
C1031 H1025 0.950 . S
C1031 C1030 1.327 . S
C1031 C1035 1.429 . S
C1032 C1015 1.574 . S
C1032 H1026 0.949 . S
C1032 C1036 1.368 . S
C1033 C1014 1.429 . S
C1033 C1027 1.429 . S
C1033 C1034 1.523 . S
C1034 C1015 1.368 . S
C1034 C1028 1.368 . S
C1034 C1033 1.523 . S
C1035 C1019 1.429 . S
C1035 C1031 1.429 . S
C1035 C1036 1.523 . S
C1036 C1020 1.368 . S
C1036 C1032 1.368 . S
C1036 C1035 1.523 . S
H1037 C1012 0.950 . S
H1038 C1014 0.950 . S
H1039 C1015 0.949 . S
H1040 C1017 0.950 . S
H1041 C1019 0.950 . S
C1042 C1043 1.349 . S
C1042 C1044 1.327 . S
C1042 H1067 0.950 . S
C1043 C1042 1.349 . S
C1043 C1059 1.349 . S
C1044 C1042 1.327 . S
C1044 C1063 1.429 . S
C1044 H1068 0.950 . S
C1045 C1062 1.574 . S
C1045 C1064 1.368 . S
C1045 H1069 0.949 . S
H1046 C1050 0.949 . S
C1047 C1048 1.349 . S
C1047 C1049 1.327 . S
C1047 H1070 0.950 . S
C1048 C1047 1.349 . S
C1048 C1060 1.349 . S
C1049 C1047 1.327 . S
C1049 C1065 1.429 . S
C1049 H1071 0.950 . S
C1050 H1046 0.949 . S
C1050 C1058 1.574 . S
C1050 C1066 1.368 . S
H1051 C1059 0.950 . S
H1052 C1057 0.950 . S
H1053 C1058 0.949 . S
H1054 C1060 0.950 . S
H1055 C1061 0.950 . S
H1056 C1062 0.949 . S
C1057 H1052 0.950 . S
C1057 C1059 1.327 . S
C1057 C1063 1.429 . S
C1058 C1050 1.574 . S
C1058 H1053 0.949 . S
C1058 C1064 1.368 . S
C1059 C1043 1.349 . S
C1059 H1051 0.950 . S
C1059 C1057 1.327 . S
C1060 C1048 1.349 . S
C1060 H1054 0.950 . S
C1060 C1061 1.327 . S
C1061 H1055 0.950 . S
C1061 C1060 1.327 . S
C1061 C1065 1.429 . S
C1062 C1045 1.574 . S
C1062 H1056 0.949 . S
C1062 C1066 1.368 . S
C1063 C1044 1.429 . S
C1063 C1057 1.429 . S
C1063 C1064 1.523 . S
C1064 C1045 1.368 . S
C1064 C1058 1.368 . S
C1064 C1063 1.523 . S
C1065 C1049 1.429 . S
C1065 C1061 1.429 . S
C1065 C1066 1.523 . S
C1066 C1050 1.368 . S
C1066 C1062 1.368 . S
C1066 C1065 1.523 . S
H1067 C1042 0.950 . S
H1068 C1044 0.950 . S
H1069 C1045 0.949 . S
H1070 C1047 0.950 . S
H1071 C1049 0.950 . S
C1072 C1073 1.349 . S
C1072 C1074 1.327 . S
C1072 H1097 0.950 . S
C1073 C1072 1.349 . S
C1073 C1089 1.349 . S
C1074 C1072 1.327 . S
C1074 C1093 1.429 . S
C1074 H1098 0.950 . S
C1075 C1092 1.574 . S
C1075 C1094 1.368 . S
C1075 H1099 0.949 . S
H1076 C1080 0.949 . S
C1077 C1078 1.349 . S
C1077 C1079 1.327 . S
C1077 H1100 0.950 . S
C1078 C1077 1.349 . S
C1078 C1090 1.349 . S
C1079 C1077 1.327 . S
C1079 C1095 1.429 . S
C1079 H1101 0.950 . S
C1080 H1076 0.949 . S
C1080 C1088 1.574 . S
C1080 C1096 1.368 . S
H1081 C1089 0.950 . S
H1082 C1087 0.950 . S
H1083 C1088 0.949 . S
H1084 C1090 0.950 . S
H1085 C1091 0.950 . S
H1086 C1092 0.949 . S
C1087 H1082 0.950 . S
C1087 C1089 1.327 . S
C1087 C1093 1.429 . S
C1088 C1080 1.574 . S
C1088 H1083 0.949 . S
C1088 C1094 1.368 . S
C1089 C1073 1.349 . S
C1089 H1081 0.950 . S
C1089 C1087 1.327 . S
C1090 C1078 1.349 . S
C1090 H1084 0.950 . S
C1090 C1091 1.327 . S
C1091 H1085 0.950 . S
C1091 C1090 1.327 . S
C1091 C1095 1.429 . S
C1092 C1075 1.574 . S
C1092 H1086 0.949 . S
C1092 C1096 1.368 . S
C1093 C1074 1.429 . S
C1093 C1087 1.429 . S
C1093 C1094 1.523 . S
C1094 C1075 1.368 . S
C1094 C1088 1.368 . S
C1094 C1093 1.523 . S
C1095 C1079 1.429 . S
C1095 C1091 1.429 . S
C1095 C1096 1.523 . S
C1096 C1080 1.368 . S
C1096 C1092 1.368 . S
C1096 C1095 1.523 . S
H1097 C1072 0.950 . S
H1098 C1074 0.950 . S
H1099 C1075 0.949 . S
H1100 C1077 0.950 . S
H1101 C1079 0.950 . S
C1102 C1103 1.349 . S
C1102 C1104 1.327 . S
C1102 H1127 0.950 . S
C1103 C1102 1.349 . S
C1103 C1119 1.349 . S
C1104 C1102 1.327 . S
C1104 C1123 1.429 . S
C1104 H1128 0.950 . S
C1105 C1122 1.574 . S
C1105 C1124 1.368 . S
C1105 H1129 0.949 . S
H1106 C1110 0.949 . S
C1107 C1108 1.349 . S
C1107 C1109 1.327 . S
C1107 H1130 0.950 . S
C1108 C1107 1.349 . S
C1108 C1120 1.349 . S
C1109 C1107 1.327 . S
C1109 C1125 1.429 . S
C1109 H1131 0.950 . S
C1110 H1106 0.949 . S
C1110 C1118 1.574 . S
C1110 C1126 1.368 . S
H1111 C1119 0.950 . S
H1112 C1117 0.950 . S
H1113 C1118 0.949 . S
H1114 C1120 0.950 . S
H1115 C1121 0.950 . S
H1116 C1122 0.949 . S
C1117 H1112 0.950 . S
C1117 C1119 1.327 . S
C1117 C1123 1.429 . S
C1118 C1110 1.574 . S
C1118 H1113 0.949 . S
C1118 C1124 1.368 . S
C1119 C1103 1.349 . S
C1119 H1111 0.950 . S
C1119 C1117 1.327 . S
C1120 C1108 1.349 . S
C1120 H1114 0.950 . S
C1120 C1121 1.327 . S
C1121 H1115 0.950 . S
C1121 C1120 1.327 . S
C1121 C1125 1.429 . S
C1122 C1105 1.574 . S
C1122 H1116 0.949 . S
C1122 C1126 1.368 . S
C1123 C1104 1.429 . S
C1123 C1117 1.429 . S
C1123 C1124 1.523 . S
C1124 C1105 1.368 . S
C1124 C1118 1.368 . S
C1124 C1123 1.523 . S
C1125 C1109 1.429 . S
C1125 C1121 1.429 . S
C1125 C1126 1.523 . S
C1126 C1110 1.368 . S
C1126 C1122 1.368 . S
C1126 C1125 1.523 . S
H1127 C1102 0.950 . S
H1128 C1104 0.950 . S
H1129 C1105 0.949 . S
H1130 C1107 0.950 . S
H1131 C1109 0.950 . S
C1132 C1133 1.349 . S
C1132 C1134 1.327 . S
C1132 H1157 0.950 . S
C1133 C1132 1.349 . S
C1133 C1149 1.349 . S
C1134 C1132 1.327 . S
C1134 C1153 1.429 . S
C1134 H1158 0.950 . S
C1135 C1152 1.574 . S
C1135 C1154 1.368 . S
C1135 H1159 0.949 . S
H1136 C1140 0.949 . S
C1137 C1138 1.349 . S
C1137 C1139 1.327 . S
C1137 H1160 0.950 . S
C1138 C1137 1.349 . S
C1138 C1150 1.349 . S
C1139 C1137 1.327 . S
C1139 C1155 1.429 . S
C1139 H1161 0.950 . S
C1140 H1136 0.949 . S
C1140 C1148 1.574 . S
C1140 C1156 1.368 . S
H1141 C1149 0.950 . S
H1142 C1147 0.950 . S
H1143 C1148 0.949 . S
H1144 C1150 0.950 . S
H1145 C1151 0.950 . S
H1146 C1152 0.949 . S
C1147 H1142 0.950 . S
C1147 C1149 1.327 . S
C1147 C1153 1.429 . S
C1148 C1140 1.574 . S
C1148 H1143 0.949 . S
C1148 C1154 1.368 . S
C1149 C1133 1.349 . S
C1149 H1141 0.950 . S
C1149 C1147 1.327 . S
C1150 C1138 1.349 . S
C1150 H1144 0.950 . S
C1150 C1151 1.327 . S
C1151 H1145 0.950 . S
C1151 C1150 1.327 . S
C1151 C1155 1.429 . S
C1152 C1135 1.574 . S
C1152 H1146 0.949 . S
C1152 C1156 1.368 . S
C1153 C1134 1.429 . S
C1153 C1147 1.429 . S
C1153 C1154 1.523 . S
C1154 C1135 1.368 . S
C1154 C1148 1.368 . S
C1154 C1153 1.523 . S
C1155 C1139 1.429 . S
C1155 C1151 1.429 . S
C1155 C1156 1.523 . S
C1156 C1140 1.368 . S
C1156 C1152 1.368 . S
C1156 C1155 1.523 . S
H1157 C1132 0.950 . S
H1158 C1134 0.950 . S
H1159 C1135 0.949 . S
H1160 C1137 0.950 . S
H1161 C1139 0.950 . S
C1162 C1163 1.349 . S
C1162 C1164 1.327 . S
C1162 H1187 0.950 . S
C1163 C1162 1.349 . S
C1163 C1179 1.349 . S
C1164 C1162 1.327 . S
C1164 C1183 1.429 . S
C1164 H1188 0.950 . S
C1165 C1182 1.574 . S
C1165 C1184 1.368 . S
C1165 H1189 0.949 . S
H1166 C1170 0.949 . S
C1167 C1168 1.349 . S
C1167 C1169 1.327 . S
C1167 H1190 0.950 . S
C1168 C1167 1.349 . S
C1168 C1180 1.349 . S
C1169 C1167 1.327 . S
C1169 C1185 1.429 . S
C1169 H1191 0.950 . S
C1170 H1166 0.949 . S
C1170 C1178 1.574 . S
C1170 C1186 1.368 . S
H1171 C1179 0.950 . S
H1172 C1177 0.950 . S
H1173 C1178 0.949 . S
H1174 C1180 0.950 . S
H1175 C1181 0.950 . S
H1176 C1182 0.949 . S
C1177 H1172 0.950 . S
C1177 C1179 1.327 . S
C1177 C1183 1.429 . S
C1178 C1170 1.574 . S
C1178 H1173 0.949 . S
C1178 C1184 1.368 . S
C1179 C1163 1.349 . S
C1179 H1171 0.950 . S
C1179 C1177 1.327 . S
C1180 C1168 1.349 . S
C1180 H1174 0.950 . S
C1180 C1181 1.327 . S
C1181 H1175 0.950 . S
C1181 C1180 1.327 . S
C1181 C1185 1.429 . S
C1182 C1165 1.574 . S
C1182 H1176 0.949 . S
C1182 C1186 1.368 . S
C1183 C1164 1.429 . S
C1183 C1177 1.429 . S
C1183 C1184 1.523 . S
C1184 C1165 1.368 . S
C1184 C1178 1.368 . S
C1184 C1183 1.523 . S
C1185 C1169 1.429 . S
C1185 C1181 1.429 . S
C1185 C1186 1.523 . S
C1186 C1170 1.368 . S
C1186 C1182 1.368 . S
C1186 C1185 1.523 . S
H1187 C1162 0.950 . S
H1188 C1164 0.950 . S
H1189 C1165 0.949 . S
H1190 C1167 0.950 . S
H1191 C1169 0.950 . S
C1192 C1193 1.349 . S
C1192 C1194 1.327 . S
C1192 H1217 0.950 . S
C1193 C1192 1.349 . S
C1193 C1209 1.349 . S
C1194 C1192 1.327 . S
C1194 C1213 1.429 . S
C1194 H1218 0.950 . S
C1195 C1212 1.574 . S
C1195 C1214 1.368 . S
C1195 H1219 0.949 . S
H1196 C1200 0.949 1_455 S
C1197 C1198 1.349 . S
C1197 C1199 1.327 . S
C1197 H1220 0.950 . S
C1198 C1197 1.349 . S
C1198 C1210 1.349 . S
C1199 C1197 1.327 . S
C1199 C1215 1.429 . S
C1199 H1221 0.950 1_455 S
C1200 H1196 0.949 1_655 S
C1200 C1208 1.574 . S
C1200 C1216 1.368 . S
H1201 C1209 0.950 1_565 S
H1202 C1207 0.950 . S
H1203 C1208 0.949 . S
H1204 C1210 0.950 . S
H1205 C1211 0.950 . S
H1206 C1212 0.949 . S
C1207 H1202 0.950 . S
C1207 C1209 1.327 . S
C1207 C1213 1.429 . S
C1208 C1200 1.574 . S
C1208 H1203 0.949 . S
C1208 C1214 1.368 . S
C1209 C1193 1.349 . S
C1209 H1201 0.950 1_545 S
C1209 C1207 1.327 . S
C1210 C1198 1.349 . S
C1210 H1204 0.950 . S
C1210 C1211 1.327 . S
C1211 H1205 0.950 . S
C1211 C1210 1.327 . S
C1211 C1215 1.429 . S
C1212 C1195 1.574 . S
C1212 H1206 0.949 . S
C1212 C1216 1.368 . S
C1213 C1194 1.429 . S
C1213 C1207 1.429 . S
C1213 C1214 1.523 . S
C1214 C1195 1.368 . S
C1214 C1208 1.368 . S
C1214 C1213 1.523 . S
C1215 C1199 1.429 . S
C1215 C1211 1.429 . S
C1215 C1216 1.523 1_455 S
C1216 C1200 1.368 . S
C1216 C1212 1.368 . S
C1216 C1215 1.523 1_655 S
H1217 C1192 0.950 . S
H1218 C1194 0.950 . S
H1219 C1195 0.949 . S
H1220 C1197 0.950 . S
H1221 C1199 0.950 1_655 S
C1222 C1223 1.349 . S
C1222 C1224 1.327 . S
C1222 H1247 0.950 . S
C1223 C1222 1.349 . S
C1223 C1239 1.349 . S
C1224 C1222 1.327 . S
C1224 C1243 1.429 . S
C1224 H1248 0.950 . S
C1225 C1242 1.574 . S
C1225 C1244 1.368 . S
C1225 H1249 0.949 . S
H1226 C1230 0.949 . S
C1227 C1228 1.349 . S
C1227 C1229 1.327 . S
C1227 H1250 0.950 . S
C1228 C1227 1.349 . S
C1228 C1240 1.349 . S
C1229 C1227 1.327 . S
C1229 C1245 1.429 . S
C1229 H1251 0.950 . S
C1230 H1226 0.949 . S
C1230 C1238 1.574 . S
C1230 C1246 1.368 . S
H1231 C1239 0.950 . S
H1232 C1237 0.950 . S
H1233 C1238 0.949 . S
H1234 C1240 0.950 . S
H1235 C1241 0.950 . S
H1236 C1242 0.949 . S
C1237 H1232 0.950 . S
C1237 C1239 1.327 . S
C1237 C1243 1.429 . S
C1238 C1230 1.574 . S
C1238 H1233 0.949 . S
C1238 C1244 1.368 . S
C1239 C1223 1.349 . S
C1239 H1231 0.950 . S
C1239 C1237 1.327 . S
C1240 C1228 1.349 . S
C1240 H1234 0.950 . S
C1240 C1241 1.327 . S
C1241 H1235 0.950 . S
C1241 C1240 1.327 . S
C1241 C1245 1.429 . S
C1242 C1225 1.574 . S
C1242 H1236 0.949 . S
C1242 C1246 1.368 . S
C1243 C1224 1.429 . S
C1243 C1237 1.429 . S
C1243 C1244 1.523 . S
C1244 C1225 1.368 . S
C1244 C1238 1.368 . S
C1244 C1243 1.523 . S
C1245 C1229 1.429 . S
C1245 C1241 1.429 . S
C1245 C1246 1.523 . S
C1246 C1230 1.368 . S
C1246 C1242 1.368 . S
C1246 C1245 1.523 . S
H1247 C1222 0.950 . S
H1248 C1224 0.950 . S
H1249 C1225 0.949 . S
H1250 C1227 0.950 . S
H1251 C1229 0.950 . S
C1252 C1253 1.336 1_545 S
C1252 C1254 1.327 . S
C1252 H1277 0.950 . S
C1253 C1252 1.336 1_565 S
C1253 C1269 1.358 . S
C1254 C1252 1.327 . S
C1254 C1273 1.429 . S
C1254 H1278 0.950 . S
C1255 C1272 1.574 . S
C1255 C1274 1.368 1_565 S
C1255 H1279 0.949 . S
H1256 C1260 0.949 . S
C1257 C1258 1.349 1_565 S
C1257 C1259 1.327 . S
C1257 H1280 0.950 . S
C1258 C1257 1.349 1_545 S
C1258 C1270 1.349 . S
C1259 C1257 1.327 . S
C1259 C1275 1.429 1_565 S
C1259 H1281 0.950 . S
C1260 H1256 0.949 . S
C1260 C1268 1.574 . S
C1260 C1276 1.368 . S
H1261 C1269 0.950 . S
H1262 C1267 0.950 . S
H1263 C1268 0.949 . S
H1264 C1270 0.950 . S
H1265 C1271 0.950 . S
H1266 C1272 0.949 . S
C1267 H1262 0.950 . S
C1267 C1269 1.327 . S
C1267 C1273 1.429 1_565 S
C1268 C1260 1.574 . S
C1268 H1263 0.949 . S
C1268 C1274 1.368 . S
C1269 C1253 1.358 . S
C1269 H1261 0.950 . S
C1269 C1267 1.327 . S
C1270 C1258 1.349 . S
C1270 H1264 0.950 . S
C1270 C1271 1.327 . S
C1271 H1265 0.950 . S
C1271 C1270 1.327 . S
C1271 C1275 1.429 . S
C1272 C1255 1.574 . S
C1272 H1266 0.949 . S
C1272 C1276 1.368 1_565 S
C1273 C1254 1.429 . S
C1273 C1267 1.429 1_545 S
C1273 C1274 1.523 . S
C1274 C1255 1.368 1_545 S
C1274 C1268 1.368 . S
C1274 C1273 1.523 . S
C1275 C1259 1.429 1_545 S
C1275 C1271 1.429 . S
C1275 C1276 1.523 . S
C1276 C1260 1.368 . S
C1276 C1272 1.368 1_545 S
C1276 C1275 1.523 . S
H1277 C1252 0.950 . S
H1278 C1254 0.950 . S
H1279 C1255 0.949 . S
H1280 C1257 0.950 . S
H1281 C1259 0.950 . S
C1282 C1283 1.349 . S
C1282 C1284 1.327 . S
C1282 H1307 0.950 . S
C1283 C1282 1.349 . S
C1283 C1299 1.349 . S
C1284 C1282 1.327 . S
C1284 C1303 1.429 . S
C1284 H1308 0.950 . S
C1285 C1302 1.574 . S
C1285 C1304 1.368 . S
C1285 H1309 0.949 . S
H1286 C1290 0.949 . S
C1287 C1288 1.349 . S
C1287 C1289 1.327 . S
C1287 H1310 0.950 . S
C1288 C1287 1.349 . S
C1288 C1300 1.349 . S
C1289 C1287 1.327 . S
C1289 C1305 1.429 . S
C1289 H1311 0.950 . S
C1290 H1286 0.949 . S
C1290 C1298 1.574 . S
C1290 C1306 1.368 . S
H1291 C1299 0.950 . S
H1292 C1297 0.950 . S
H1293 C1298 0.949 . S
H1294 C1300 0.950 . S
H1295 C1301 0.950 . S
H1296 C1302 0.949 . S
C1297 H1292 0.950 . S
C1297 C1299 1.327 . S
C1297 C1303 1.429 . S
C1298 C1290 1.574 . S
C1298 H1293 0.949 . S
C1298 C1304 1.368 . S
C1299 C1283 1.349 . S
C1299 H1291 0.950 . S
C1299 C1297 1.327 . S
C1300 C1288 1.349 . S
C1300 H1294 0.950 . S
C1300 C1301 1.327 . S
C1301 H1295 0.950 . S
C1301 C1300 1.327 . S
C1301 C1305 1.429 . S
C1302 C1285 1.574 . S
C1302 H1296 0.949 . S
C1302 C1306 1.368 . S
C1303 C1284 1.429 . S
C1303 C1297 1.429 . S
C1303 C1304 1.523 . S
C1304 C1285 1.368 . S
C1304 C1298 1.368 . S
C1304 C1303 1.523 . S
C1305 C1289 1.429 . S
C1305 C1301 1.429 . S
C1305 C1306 1.523 . S
C1306 C1290 1.368 . S
C1306 C1302 1.368 . S
C1306 C1305 1.523 . S
H1307 C1282 0.950 . S
H1308 C1284 0.950 . S
H1309 C1285 0.949 . S
H1310 C1287 0.950 . S
H1311 C1289 0.950 . S
C1312 C1313 1.349 . S
C1312 C1314 1.327 . S
C1312 H1337 0.950 . S
C1313 C1312 1.349 . S
C1313 C1329 1.349 1_545 S
C1314 C1312 1.327 . S
C1314 C1333 1.429 . S
C1314 H1338 0.950 . S
C1315 C1332 1.574 . S
C1315 C1334 1.368 1_565 S
C1315 H1339 0.949 . S
H1316 C1320 0.949 . S
C1317 C1318 1.349 . S
C1317 C1319 1.327 1_455 S
C1317 H1340 0.950 1_545 S
C1318 C1317 1.349 . S
C1318 C1330 1.349 1_455 S
C1319 C1317 1.327 1_655 S
C1319 C1335 1.429 . S
C1319 H1341 0.950 1_545 S
C1320 H1316 0.949 . S
C1320 C1328 1.574 . S
C1320 C1336 1.368 . S
H1321 C1329 0.950 . S
H1322 C1327 0.950 . S
H1323 C1328 0.949 . S
H1324 C1330 0.950 . S
H1325 C1331 0.950 . S
H1326 C1332 0.949 . S
C1327 H1322 0.950 . S
C1327 C1329 1.327 . S
C1327 C1333 1.429 1_565 S
C1328 C1320 1.574 . S
C1328 H1323 0.949 . S
C1328 C1334 1.368 . S
C1329 C1313 1.349 1_565 S
C1329 H1321 0.950 . S
C1329 C1327 1.327 . S
C1330 C1318 1.349 1_655 S
C1330 H1324 0.950 . S
C1330 C1331 1.327 . S
C1331 H1325 0.950 . S
C1331 C1330 1.327 . S
C1331 C1335 1.429 . S
C1332 C1315 1.574 . S
C1332 H1326 0.949 . S
C1332 C1336 1.368 1_565 S
C1333 C1314 1.429 . S
C1333 C1327 1.429 1_545 S
C1333 C1334 1.523 . S
C1334 C1315 1.368 1_545 S
C1334 C1328 1.368 . S
C1334 C1333 1.523 . S
C1335 C1319 1.429 . S
C1335 C1331 1.429 . S
C1335 C1336 1.523 . S
C1336 C1320 1.368 . S
C1336 C1332 1.368 1_545 S
C1336 C1335 1.523 . S
H1337 C1312 0.950 . S
H1338 C1314 0.950 . S
H1339 C1315 0.949 . S
H1340 C1317 0.950 1_565 S
H1341 C1319 0.950 1_565 S
C1342 C1343 1.349 . S
C1342 C1344 1.327 . S
C1342 H1367 0.950 . S
C1343 C1342 1.349 . S
C1343 C1359 1.349 . S
C1344 C1342 1.327 . S
C1344 C1363 1.429 . S
C1344 H1368 0.950 . S
C1345 C1362 1.574 . S
C1345 C1364 1.368 . S
C1345 H1369 0.949 . S
H1346 C1350 0.949 . S
C1347 C1348 1.349 . S
C1347 C1349 1.327 . S
C1347 H1370 0.950 . S
C1348 C1347 1.349 . S
C1348 C1360 1.349 . S
C1349 C1347 1.327 . S
C1349 C1365 1.429 . S
C1349 H1371 0.950 . S
C1350 H1346 0.949 . S
C1350 C1358 1.574 . S
C1350 C1366 1.368 . S
H1351 C1359 0.950 . S
H1352 C1357 0.950 . S
H1353 C1358 0.949 . S
H1354 C1360 0.950 . S
H1355 C1361 0.950 . S
H1356 C1362 0.949 . S
C1357 H1352 0.950 . S
C1357 C1359 1.327 . S
C1357 C1363 1.429 . S
C1358 C1350 1.574 . S
C1358 H1353 0.949 . S
C1358 C1364 1.368 . S
C1359 C1343 1.349 . S
C1359 H1351 0.950 . S
C1359 C1357 1.327 . S
C1360 C1348 1.349 . S
C1360 H1354 0.950 . S
C1360 C1361 1.327 . S
C1361 H1355 0.950 . S
C1361 C1360 1.327 . S
C1361 C1365 1.429 . S
C1362 C1345 1.574 . S
C1362 H1356 0.949 . S
C1362 C1366 1.368 . S
C1363 C1344 1.429 . S
C1363 C1357 1.429 . S
C1363 C1364 1.523 . S
C1364 C1345 1.368 . S
C1364 C1358 1.368 . S
C1364 C1363 1.523 . S
C1365 C1349 1.429 . S
C1365 C1361 1.429 . S
C1365 C1366 1.523 . S
C1366 C1350 1.368 . S
C1366 C1362 1.368 . S
C1366 C1365 1.523 . S
H1367 C1342 0.950 . S
H1368 C1344 0.950 . S
H1369 C1345 0.949 . S
H1370 C1347 0.950 . S
H1371 C1349 0.950 . S
C1372 C1373 1.349 . S
C1372 C1374 1.327 . S
C1372 H1397 0.950 . S
C1373 C1372 1.349 . S
C1373 C1389 1.349 . S
C1374 C1372 1.327 . S
C1374 C1393 1.429 . S
C1374 H1398 0.950 . S
C1375 C1392 1.574 . S
C1375 C1394 1.368 . S
C1375 H1399 0.949 . S
H1376 C1380 0.949 . S
C1377 C1378 1.349 . S
C1377 C1379 1.327 . S
C1377 H1400 0.950 . S
C1378 C1377 1.349 . S
C1378 C1390 1.349 . S
C1379 C1377 1.327 . S
C1379 C1395 1.429 . S
C1379 H1401 0.950 . S
C1380 H1376 0.949 . S
C1380 C1388 1.574 . S
C1380 C1396 1.368 . S
H1381 C1389 0.950 . S
H1382 C1387 0.950 . S
H1383 C1388 0.949 . S
H1384 C1390 0.950 . S
H1385 C1391 0.950 . S
H1386 C1392 0.949 . S
C1387 H1382 0.950 . S
C1387 C1389 1.327 . S
C1387 C1393 1.429 . S
C1388 C1380 1.574 . S
C1388 H1383 0.949 . S
C1388 C1394 1.368 . S
C1389 C1373 1.349 . S
C1389 H1381 0.950 . S
C1389 C1387 1.327 . S
C1390 C1378 1.349 . S
C1390 H1384 0.950 . S
C1390 C1391 1.327 . S
C1391 H1385 0.950 . S
C1391 C1390 1.327 . S
C1391 C1395 1.429 . S
C1392 C1375 1.574 . S
C1392 H1386 0.949 . S
C1392 C1396 1.368 . S
C1393 C1374 1.429 . S
C1393 C1387 1.429 . S
C1393 C1394 1.523 . S
C1394 C1375 1.368 . S
C1394 C1388 1.368 . S
C1394 C1393 1.523 . S
C1395 C1379 1.429 . S
C1395 C1391 1.429 . S
C1395 C1396 1.523 . S
C1396 C1380 1.368 . S
C1396 C1392 1.368 . S
C1396 C1395 1.523 . S
H1397 C1372 0.950 . S
H1398 C1374 0.950 . S
H1399 C1375 0.949 . S
H1400 C1377 0.950 . S
H1401 C1379 0.950 . S
C1402 C1403 1.349 . S
C1402 C1404 1.327 . S
C1402 H1427 0.950 . S
C1403 C1402 1.349 . S
C1403 C1419 1.349 . S
C1404 C1402 1.327 . S
C1404 C1423 1.429 . S
C1404 H1428 0.950 . S
C1405 C1422 1.574 . S
C1405 C1424 1.368 . S
C1405 H1429 0.949 . S
H1406 C1410 0.949 . S
C1407 C1408 1.349 . S
C1407 C1409 1.327 . S
C1407 H1430 0.950 . S
C1408 C1407 1.349 . S
C1408 C1420 1.349 . S
C1409 C1407 1.327 . S
C1409 C1425 1.429 . S
C1409 H1431 0.950 . S
C1410 H1406 0.949 . S
C1410 C1418 1.574 . S
C1410 C1426 1.368 . S
H1411 C1419 0.950 . S
H1412 C1417 0.950 . S
H1413 C1418 0.949 . S
H1414 C1420 0.950 . S
H1415 C1421 0.950 . S
H1416 C1422 0.949 . S
C1417 H1412 0.950 . S
C1417 C1419 1.327 . S
C1417 C1423 1.429 . S
C1418 C1410 1.574 . S
C1418 H1413 0.949 . S
C1418 C1424 1.368 . S
C1419 C1403 1.349 . S
C1419 H1411 0.950 . S
C1419 C1417 1.327 . S
C1420 C1408 1.349 . S
C1420 H1414 0.950 . S
C1420 C1421 1.327 . S
C1421 H1415 0.950 . S
C1421 C1420 1.327 . S
C1421 C1425 1.429 . S
C1422 C1405 1.574 . S
C1422 H1416 0.949 . S
C1422 C1426 1.368 . S
C1423 C1404 1.429 . S
C1423 C1417 1.429 . S
C1423 C1424 1.523 . S
C1424 C1405 1.368 . S
C1424 C1418 1.368 . S
C1424 C1423 1.523 . S
C1425 C1409 1.429 . S
C1425 C1421 1.429 . S
C1425 C1426 1.523 . S
C1426 C1410 1.368 . S
C1426 C1422 1.368 . S
C1426 C1425 1.523 . S
H1427 C1402 0.950 . S
H1428 C1404 0.950 . S
H1429 C1405 0.949 . S
H1430 C1407 0.950 . S
H1431 C1409 0.950 . S
C1432 C1433 1.349 . S
C1432 C1434 1.327 . S
C1432 H1457 0.950 . S
C1433 C1432 1.349 . S
C1433 C1449 1.349 . S
C1434 C1432 1.327 . S
C1434 C1453 1.429 . S
C1434 H1458 0.950 . S
C1435 C1452 1.574 . S
C1435 C1454 1.368 . S
C1435 H1459 0.949 . S
H1436 C1440 0.949 . S
C1437 C1438 1.346 1_565 S
C1437 C1439 1.332 . S
C1437 H1460 0.946 1_565 S
C1438 C1437 1.346 1_545 S
C1438 C1450 1.344 1_545 S
C1439 C1437 1.332 . S
C1439 C1455 1.429 . S
C1439 H1461 0.950 . S
C1440 H1436 0.949 . S
C1440 C1448 1.574 . S
C1440 C1456 1.368 . S
H1441 C1449 0.950 . S
H1442 C1447 0.950 . S
H1443 C1448 0.949 . S
H1444 C1450 0.950 . S
H1445 C1451 0.950 . S
H1446 C1452 0.949 . S
C1447 H1442 0.950 . S
C1447 C1449 1.327 . S
C1447 C1453 1.429 . S
C1448 C1440 1.574 . S
C1448 H1443 0.949 . S
C1448 C1454 1.368 . S
C1449 C1433 1.349 . S
C1449 H1441 0.950 . S
C1449 C1447 1.327 . S
C1450 C1438 1.344 1_565 S
C1450 H1444 0.950 . S
C1450 C1451 1.327 . S
C1451 H1445 0.950 . S
C1451 C1450 1.327 . S
C1451 C1455 1.429 . S
C1452 C1435 1.574 . S
C1452 H1446 0.949 . S
C1452 C1456 1.368 . S
C1453 C1434 1.429 . S
C1453 C1447 1.429 . S
C1453 C1454 1.523 . S
C1454 C1435 1.368 . S
C1454 C1448 1.368 . S
C1454 C1453 1.523 . S
C1455 C1439 1.429 . S
C1455 C1451 1.429 . S
C1455 C1456 1.523 . S
C1456 C1440 1.368 . S
C1456 C1452 1.368 . S
C1456 C1455 1.523 . S
H1457 C1432 0.950 . S
H1458 C1434 0.950 . S
H1459 C1435 0.949 . S
H1460 C1437 0.946 1_545 S
H1461 C1439 0.950 . S
C1462 C1463 1.349 . S
C1462 C1464 1.327 . S
C1462 H1487 0.950 . S
C1463 C1462 1.349 . S
C1463 C1479 1.349 1_554 S
C1464 C1462 1.327 . S
C1464 C1483 1.429 . S
C1464 H1488 0.950 . S
C1465 C1482 1.574 . S
C1465 C1484 1.368 1_556 S
C1465 H1489 0.949 . S
H1466 C1470 0.949 . S
C1467 C1468 1.363 . S
C1467 C1469 1.324 1_554 S
C1467 H1490 0.939 1_554 S
C1468 C1467 1.363 . S
C1468 C1480 1.349 . S
C1469 C1467 1.324 1_556 S
C1469 C1485 1.428 1_556 S
C1469 H1491 0.951 . S
C1470 H1466 0.949 . S
C1470 C1478 1.574 . S
C1470 C1486 1.368 . S
H1471 C1479 0.950 . S
H1472 C1477 0.950 . S
H1473 C1478 0.949 . S
H1474 C1480 0.950 . S
H1475 C1481 0.950 . S
H1476 C1482 0.949 . S
C1477 H1472 0.950 . S
C1477 C1479 1.327 . S
C1477 C1483 1.429 1_556 S
C1478 C1470 1.574 . S
C1478 H1473 0.949 . S
C1478 C1484 1.368 . S
C1479 C1463 1.349 1_556 S
C1479 H1471 0.950 . S
C1479 C1477 1.327 . S
C1480 C1468 1.349 . S
C1480 H1474 0.950 . S
C1480 C1481 1.327 . S
C1481 H1475 0.950 . S
C1481 C1480 1.327 . S
C1481 C1485 1.429 . S
C1482 C1465 1.574 . S
C1482 H1476 0.949 . S
C1482 C1486 1.368 1_556 S
C1483 C1464 1.429 . S
C1483 C1477 1.429 1_554 S
C1483 C1484 1.523 . S
C1484 C1465 1.368 1_554 S
C1484 C1478 1.368 . S
C1484 C1483 1.523 . S
C1485 C1469 1.428 1_554 S
C1485 C1481 1.429 . S
C1485 C1486 1.523 . S
C1486 C1470 1.368 . S
C1486 C1482 1.368 1_554 S
C1486 C1485 1.523 . S
H1487 C1462 0.950 . S
H1488 C1464 0.950 . S
H1489 C1465 0.949 . S
H1490 C1467 0.939 1_556 S
H1491 C1469 0.951 . S
C1492 C1493 1.349 . S
C1492 C1494 1.327 . S
C1492 H1517 0.950 . S
C1493 C1492 1.349 . S
C1493 C1509 1.349 . S
C1494 C1492 1.327 . S
C1494 C1513 1.429 . S
C1494 H1518 0.950 . S
C1495 C1512 1.574 . S
C1495 C1514 1.368 . S
C1495 H1519 0.949 . S
H1496 C1500 0.949 . S
C1497 C1498 1.349 . S
C1497 C1499 1.327 . S
C1497 H1520 0.950 . S
C1498 C1497 1.349 . S
C1498 C1510 1.349 . S
C1499 C1497 1.327 . S
C1499 C1515 1.429 . S
C1499 H1521 0.950 . S
C1500 H1496 0.949 . S
C1500 C1508 1.574 . S
C1500 C1516 1.368 . S
H1501 C1509 0.950 . S
H1502 C1507 0.950 . S
H1503 C1508 0.949 . S
H1504 C1510 0.950 . S
H1505 C1511 0.950 . S
H1506 C1512 0.949 . S
C1507 H1502 0.950 . S
C1507 C1509 1.327 . S
C1507 C1513 1.429 . S
C1508 C1500 1.574 . S
C1508 H1503 0.949 . S
C1508 C1514 1.368 . S
C1509 C1493 1.349 . S
C1509 H1501 0.950 . S
C1509 C1507 1.327 . S
C1510 C1498 1.349 . S
C1510 H1504 0.950 . S
C1510 C1511 1.327 . S
C1511 H1505 0.950 . S
C1511 C1510 1.327 . S
C1511 C1515 1.429 . S
C1512 C1495 1.574 . S
C1512 H1506 0.949 . S
C1512 C1516 1.368 . S
C1513 C1494 1.429 . S
C1513 C1507 1.429 . S
C1513 C1514 1.523 . S
C1514 C1495 1.368 . S
C1514 C1508 1.368 . S
C1514 C1513 1.523 . S
C1515 C1499 1.429 . S
C1515 C1511 1.429 . S
C1515 C1516 1.523 . S
C1516 C1500 1.368 . S
C1516 C1512 1.368 . S
C1516 C1515 1.523 . S
H1517 C1492 0.950 . S
H1518 C1494 0.950 . S
H1519 C1495 0.949 . S
H1520 C1497 0.950 . S
H1521 C1499 0.950 . S
C1522 C1523 1.349 . S
C1522 C1524 1.327 . S
C1522 H1547 0.950 . S
C1523 C1522 1.349 . S
C1523 C1539 1.349 . S
C1524 C1522 1.327 . S
C1524 C1543 1.429 . S
C1524 H1548 0.950 . S
C1525 C1542 1.574 . S
C1525 C1544 1.368 . S
C1525 H1549 0.949 . S
H1526 C1530 0.949 . S
C1527 C1528 1.349 . S
C1527 C1529 1.327 . S
C1527 H1550 0.950 . S
C1528 C1527 1.349 . S
C1528 C1540 1.349 . S
C1529 C1527 1.327 . S
C1529 C1545 1.429 . S
C1529 H1551 0.950 . S
C1530 H1526 0.949 . S
C1530 C1538 1.574 . S
C1530 C1546 1.368 . S
H1531 C1539 0.950 . S
H1532 C1537 0.950 . S
H1533 C1538 0.949 . S
H1534 C1540 0.950 . S
H1535 C1541 0.950 . S
H1536 C1542 0.949 . S
C1537 H1532 0.950 . S
C1537 C1539 1.327 . S
C1537 C1543 1.429 . S
C1538 C1530 1.574 . S
C1538 H1533 0.949 . S
C1538 C1544 1.368 . S
C1539 C1523 1.349 . S
C1539 H1531 0.950 . S
C1539 C1537 1.327 . S
C1540 C1528 1.349 . S
C1540 H1534 0.950 . S
C1540 C1541 1.327 . S
C1541 H1535 0.950 . S
C1541 C1540 1.327 . S
C1541 C1545 1.429 . S
C1542 C1525 1.574 . S
C1542 H1536 0.949 . S
C1542 C1546 1.368 . S
C1543 C1524 1.429 . S
C1543 C1537 1.429 . S
C1543 C1544 1.523 . S
C1544 C1525 1.368 . S
C1544 C1538 1.368 . S
C1544 C1543 1.523 . S
C1545 C1529 1.429 . S
C1545 C1541 1.429 . S
C1545 C1546 1.523 . S
C1546 C1530 1.368 . S
C1546 C1542 1.368 . S
C1546 C1545 1.523 . S
H1547 C1522 0.950 . S
H1548 C1524 0.950 . S
H1549 C1525 0.949 . S
H1550 C1527 0.950 . S
H1551 C1529 0.950 . S
C1552 C1553 1.349 . S
C1552 C1554 1.327 . S
C1552 H1577 0.950 . S
C1553 C1552 1.349 . S
C1553 C1569 1.349 . S
C1554 C1552 1.327 . S
C1554 C1573 1.429 . S
C1554 H1578 0.950 . S
C1555 C1572 1.574 . S
C1555 C1574 1.368 . S
C1555 H1579 0.949 . S
H1556 C1560 0.949 . S
C1557 C1558 1.349 . S
C1557 C1559 1.327 . S
C1557 H1580 0.950 . S
C1558 C1557 1.349 . S
C1558 C1570 1.349 . S
C1559 C1557 1.327 . S
C1559 C1575 1.429 . S
C1559 H1581 0.950 . S
C1560 H1556 0.949 . S
C1560 C1568 1.574 . S
C1560 C1576 1.368 . S
H1561 C1569 0.950 . S
H1562 C1567 0.950 . S
H1563 C1568 0.949 . S
H1564 C1570 0.950 . S
H1565 C1571 0.950 . S
H1566 C1572 0.949 . S
C1567 H1562 0.950 . S
C1567 C1569 1.327 . S
C1567 C1573 1.429 . S
C1568 C1560 1.574 . S
C1568 H1563 0.949 . S
C1568 C1574 1.368 . S
C1569 C1553 1.349 . S
C1569 H1561 0.950 . S
C1569 C1567 1.327 . S
C1570 C1558 1.349 . S
C1570 H1564 0.950 . S
C1570 C1571 1.327 . S
C1571 H1565 0.950 . S
C1571 C1570 1.327 . S
C1571 C1575 1.429 . S
C1572 C1555 1.574 . S
C1572 H1566 0.949 . S
C1572 C1576 1.368 . S
C1573 C1554 1.429 . S
C1573 C1567 1.429 . S
C1573 C1574 1.523 . S
C1574 C1555 1.368 . S
C1574 C1568 1.368 . S
C1574 C1573 1.523 . S
C1575 C1559 1.429 . S
C1575 C1571 1.429 . S
C1575 C1576 1.523 . S
C1576 C1560 1.368 . S
C1576 C1572 1.368 . S
C1576 C1575 1.523 . S
H1577 C1552 0.950 . S
H1578 C1554 0.950 . S
H1579 C1555 0.949 . S
H1580 C1557 0.950 . S
H1581 C1559 0.950 . S
C1582 C1583 1.349 . S
C1582 C1584 1.327 . S
C1582 H1607 0.950 . S
C1583 C1582 1.349 . S
C1583 C1599 1.349 . S
C1584 C1582 1.327 . S
C1584 C1603 1.429 . S
C1584 H1608 0.950 . S
C1585 C1602 1.574 . S
C1585 C1604 1.368 . S
C1585 H1609 0.949 . S
H1586 C1590 0.949 . S
C1587 C1588 1.349 . S
C1587 C1589 1.327 . S
C1587 H1610 0.950 . S
C1588 C1587 1.349 . S
C1588 C1600 1.349 . S
C1589 C1587 1.327 . S
C1589 C1605 1.429 . S
C1589 H1611 0.950 . S
C1590 H1586 0.949 . S
C1590 C1598 1.574 . S
C1590 C1606 1.368 . S
H1591 C1599 0.950 . S
H1592 C1597 0.950 . S
H1593 C1598 0.949 . S
H1594 C1600 0.950 . S
H1595 C1601 0.950 . S
H1596 C1602 0.949 . S
C1597 H1592 0.950 . S
C1597 C1599 1.327 . S
C1597 C1603 1.429 . S
C1598 C1590 1.574 . S
C1598 H1593 0.949 . S
C1598 C1604 1.368 . S
C1599 C1583 1.349 . S
C1599 H1591 0.950 . S
C1599 C1597 1.327 . S
C1600 C1588 1.349 . S
C1600 H1594 0.950 . S
C1600 C1601 1.327 . S
C1601 H1595 0.950 . S
C1601 C1600 1.327 . S
C1601 C1605 1.429 . S
C1602 C1585 1.574 . S
C1602 H1596 0.949 . S
C1602 C1606 1.368 . S
C1603 C1584 1.429 . S
C1603 C1597 1.429 . S
C1603 C1604 1.523 . S
C1604 C1585 1.368 . S
C1604 C1598 1.368 . S
C1604 C1603 1.523 . S
C1605 C1589 1.429 . S
C1605 C1601 1.429 . S
C1605 C1606 1.523 . S
C1606 C1590 1.368 . S
C1606 C1602 1.368 . S
C1606 C1605 1.523 . S
H1607 C1582 0.950 . S
H1608 C1584 0.950 . S
H1609 C1585 0.949 . S
H1610 C1587 0.950 . S
H1611 C1589 0.950 . S
C1612 C1613 1.349 . S
C1612 C1614 1.327 . S
C1612 H1637 0.950 . S
C1613 C1612 1.349 . S
C1613 C1629 1.349 . S
C1614 C1612 1.327 . S
C1614 C1633 1.429 . S
C1614 H1638 0.950 . S
C1615 C1632 1.574 . S
C1615 C1634 1.368 . S
C1615 H1639 0.949 . S
H1616 C1620 0.949 . S
C1617 C1618 1.349 . S
C1617 C1619 1.327 . S
C1617 H1640 0.950 . S
C1618 C1617 1.349 . S
C1618 C1630 1.349 . S
C1619 C1617 1.327 . S
C1619 C1635 1.429 . S
C1619 H1641 0.950 . S
C1620 H1616 0.949 . S
C1620 C1628 1.574 . S
C1620 C1636 1.368 . S
H1621 C1629 0.950 . S
H1622 C1627 0.950 . S
H1623 C1628 0.949 . S
H1624 C1630 0.950 . S
H1625 C1631 0.950 . S
H1626 C1632 0.949 . S
C1627 H1622 0.950 . S
C1627 C1629 1.327 . S
C1627 C1633 1.429 . S
C1628 C1620 1.574 . S
C1628 H1623 0.949 . S
C1628 C1634 1.368 . S
C1629 C1613 1.349 . S
C1629 H1621 0.950 . S
C1629 C1627 1.327 . S
C1630 C1618 1.349 . S
C1630 H1624 0.950 . S
C1630 C1631 1.327 . S
C1631 H1625 0.950 . S
C1631 C1630 1.327 . S
C1631 C1635 1.429 . S
C1632 C1615 1.574 . S
C1632 H1626 0.949 . S
C1632 C1636 1.368 . S
C1633 C1614 1.429 . S
C1633 C1627 1.429 . S
C1633 C1634 1.523 . S
C1634 C1615 1.368 . S
C1634 C1628 1.368 . S
C1634 C1633 1.523 . S
C1635 C1619 1.429 . S
C1635 C1631 1.429 . S
C1635 C1636 1.523 . S
C1636 C1620 1.368 . S
C1636 C1632 1.368 . S
C1636 C1635 1.523 . S
H1637 C1612 0.950 . S
H1638 C1614 0.950 . S
H1639 C1615 0.949 . S
H1640 C1617 0.950 . S
H1641 C1619 0.950 . S
C1642 C1643 1.349 . S
C1642 C1644 1.327 . S
C1642 H1667 0.950 . S
C1643 C1642 1.349 . S
C1643 C1659 1.349 . S
C1644 C1642 1.327 . S
C1644 C1663 1.429 . S
C1644 H1668 0.950 . S
C1645 C1662 1.574 . S
C1645 C1664 1.368 . S
C1645 H1669 0.949 . S
H1646 C1650 0.949 . S
C1647 C1648 1.349 . S
C1647 C1649 1.327 . S
C1647 H1670 0.950 . S
C1648 C1647 1.349 . S
C1648 C1660 1.349 . S
C1649 C1647 1.327 . S
C1649 C1665 1.429 . S
C1649 H1671 0.950 . S
C1650 H1646 0.949 . S
C1650 C1658 1.574 . S
C1650 C1666 1.368 . S
H1651 C1659 0.950 . S
H1652 C1657 0.950 . S
H1653 C1658 0.949 . S
H1654 C1660 0.950 . S
H1655 C1661 0.950 . S
H1656 C1662 0.949 . S
C1657 H1652 0.950 . S
C1657 C1659 1.327 . S
C1657 C1663 1.429 . S
C1658 C1650 1.574 . S
C1658 H1653 0.949 . S
C1658 C1664 1.368 . S
C1659 C1643 1.349 . S
C1659 H1651 0.950 . S
C1659 C1657 1.327 . S
C1660 C1648 1.349 . S
C1660 H1654 0.950 . S
C1660 C1661 1.327 . S
C1661 H1655 0.950 . S
C1661 C1660 1.327 . S
C1661 C1665 1.429 . S
C1662 C1645 1.574 . S
C1662 H1656 0.949 . S
C1662 C1666 1.368 . S
C1663 C1644 1.429 . S
C1663 C1657 1.429 . S
C1663 C1664 1.523 . S
C1664 C1645 1.368 . S
C1664 C1658 1.368 . S
C1664 C1663 1.523 . S
C1665 C1649 1.429 . S
C1665 C1661 1.429 . S
C1665 C1666 1.523 . S
C1666 C1650 1.368 . S
C1666 C1662 1.368 . S
C1666 C1665 1.523 . S
H1667 C1642 0.950 . S
H1668 C1644 0.950 . S
H1669 C1645 0.949 . S
H1670 C1647 0.950 . S
H1671 C1649 0.950 . S
C1672 C1673 1.349 . S
C1672 C1674 1.327 . S
C1672 H1697 0.950 . S
C1673 C1672 1.349 . S
C1673 C1689 1.349 . S
C1674 C1672 1.327 . S
C1674 C1693 1.429 . S
C1674 H1698 0.950 . S
C1675 C1692 1.574 . S
C1675 C1694 1.368 . S
C1675 H1699 0.949 . S
H1676 C1680 0.949 . S
C1677 C1678 1.349 . S
C1677 C1679 1.327 . S
C1677 H1700 0.950 1_565 S
C1678 C1677 1.349 . S
C1678 C1690 1.349 . S
C1679 C1677 1.327 . S
C1679 C1695 1.429 . S
C1679 H1701 0.950 . S
C1680 H1676 0.949 . S
C1680 C1688 1.574 . S
C1680 C1696 1.368 . S
H1681 C1689 0.950 . S
H1682 C1687 0.950 . S
H1683 C1688 0.949 . S
H1684 C1690 0.950 . S
H1685 C1691 0.950 . S
H1686 C1692 0.949 . S
C1687 H1682 0.950 . S
C1687 C1689 1.327 . S
C1687 C1693 1.429 . S
C1688 C1680 1.574 . S
C1688 H1683 0.949 . S
C1688 C1694 1.368 . S
C1689 C1673 1.349 . S
C1689 H1681 0.950 . S
C1689 C1687 1.327 . S
C1690 C1678 1.349 . S
C1690 H1684 0.950 . S
C1690 C1691 1.327 . S
C1691 H1685 0.950 . S
C1691 C1690 1.327 . S
C1691 C1695 1.429 . S
C1692 C1675 1.574 . S
C1692 H1686 0.949 . S
C1692 C1696 1.368 . S
C1693 C1674 1.429 . S
C1693 C1687 1.429 . S
C1693 C1694 1.523 . S
C1694 C1675 1.368 . S
C1694 C1688 1.368 . S
C1694 C1693 1.523 . S
C1695 C1679 1.429 . S
C1695 C1691 1.429 . S
C1695 C1696 1.523 . S
C1696 C1680 1.368 . S
C1696 C1692 1.368 . S
C1696 C1695 1.523 . S
H1697 C1672 0.950 . S
H1698 C1674 0.950 . S
H1699 C1675 0.949 . S
H1700 C1677 0.950 1_545 S
H1701 C1679 0.950 . S
C1702 C1703 1.349 . S
C1702 C1704 1.327 . S
C1702 H1727 0.950 . S
C1703 C1702 1.349 . S
C1703 C1719 1.349 . S
C1704 C1702 1.327 . S
C1704 C1723 1.429 . S
C1704 H1728 0.950 . S
C1705 C1722 1.574 . S
C1705 C1724 1.368 . S
C1705 H1729 0.949 . S
H1706 C1710 0.949 . S
C1707 C1708 1.349 . S
C1707 C1709 1.327 . S
C1707 H1730 0.950 . S
C1708 C1707 1.349 . S
C1708 C1720 1.349 . S
C1709 C1707 1.327 . S
C1709 C1725 1.429 . S
C1709 H1731 0.950 . S
C1710 H1706 0.949 . S
C1710 C1718 1.574 . S
C1710 C1726 1.368 . S
H1711 C1719 0.950 . S
H1712 C1717 0.950 . S
H1713 C1718 0.949 . S
H1714 C1720 0.950 . S
H1715 C1721 0.950 . S
H1716 C1722 0.949 . S
C1717 H1712 0.950 . S
C1717 C1719 1.327 . S
C1717 C1723 1.429 . S
C1718 C1710 1.574 . S
C1718 H1713 0.949 . S
C1718 C1724 1.368 . S
C1719 C1703 1.349 . S
C1719 H1711 0.950 . S
C1719 C1717 1.327 . S
C1720 C1708 1.349 . S
C1720 H1714 0.950 . S
C1720 C1721 1.327 . S
C1721 H1715 0.950 . S
C1721 C1720 1.327 . S
C1721 C1725 1.429 . S
C1722 C1705 1.574 . S
C1722 H1716 0.949 . S
C1722 C1726 1.368 . S
C1723 C1704 1.429 . S
C1723 C1717 1.429 . S
C1723 C1724 1.523 . S
C1724 C1705 1.368 . S
C1724 C1718 1.368 . S
C1724 C1723 1.523 . S
C1725 C1709 1.429 . S
C1725 C1721 1.429 . S
C1725 C1726 1.523 . S
C1726 C1710 1.368 . S
C1726 C1722 1.368 . S
C1726 C1725 1.523 . S
H1727 C1702 0.950 . S
H1728 C1704 0.950 . S
H1729 C1705 0.949 . S
H1730 C1707 0.950 . S
H1731 C1709 0.950 . S
C1732 C1733 1.349 . S
C1732 C1734 1.327 . S
C1732 H1757 0.950 . S
C1733 C1732 1.349 . S
C1733 C1749 1.349 . S
C1734 C1732 1.327 . S
C1734 C1753 1.429 . S
C1734 H1758 0.950 . S
C1735 C1752 1.574 . S
C1735 C1754 1.368 . S
C1735 H1759 0.949 . S
H1736 C1740 0.949 . S
C1737 C1738 1.349 . S
C1737 C1739 1.327 . S
C1737 H1760 0.950 . S
C1738 C1737 1.349 . S
C1738 C1750 1.349 . S
C1739 C1737 1.327 . S
C1739 C1755 1.429 . S
C1739 H1761 0.950 . S
C1740 H1736 0.949 . S
C1740 C1748 1.574 . S
C1740 C1756 1.368 . S
H1741 C1749 0.950 . S
H1742 C1747 0.950 . S
H1743 C1748 0.949 . S
H1744 C1750 0.950 . S
H1745 C1751 0.950 . S
H1746 C1752 0.949 . S
C1747 H1742 0.950 . S
C1747 C1749 1.327 . S
C1747 C1753 1.429 . S
C1748 C1740 1.574 . S
C1748 H1743 0.949 . S
C1748 C1754 1.368 . S
C1749 C1733 1.349 . S
C1749 H1741 0.950 . S
C1749 C1747 1.327 . S
C1750 C1738 1.349 . S
C1750 H1744 0.950 . S
C1750 C1751 1.327 . S
C1751 H1745 0.950 . S
C1751 C1750 1.327 . S
C1751 C1755 1.429 . S
C1752 C1735 1.574 . S
C1752 H1746 0.949 . S
C1752 C1756 1.368 . S
C1753 C1734 1.429 . S
C1753 C1747 1.429 . S
C1753 C1754 1.523 . S
C1754 C1735 1.368 . S
C1754 C1748 1.368 . S
C1754 C1753 1.523 . S
C1755 C1739 1.429 . S
C1755 C1751 1.429 . S
C1755 C1756 1.523 . S
C1756 C1740 1.368 . S
C1756 C1752 1.368 . S
C1756 C1755 1.523 . S
H1757 C1732 0.950 . S
H1758 C1734 0.950 . S
H1759 C1735 0.949 . S
H1760 C1737 0.950 . S
H1761 C1739 0.950 . S
C1762 C1763 1.349 . S
C1762 C1764 1.327 . S
C1762 H1787 0.950 . S
C1763 C1762 1.349 . S
C1763 C1779 1.349 . S
C1764 C1762 1.327 . S
C1764 C1783 1.429 . S
C1764 H1788 0.950 . S
C1765 C1782 1.574 . S
C1765 C1784 1.368 . S
C1765 H1789 0.949 . S
H1766 C1770 0.949 . S
C1767 C1768 1.349 . S
C1767 C1769 1.327 . S
C1767 H1790 0.950 . S
C1768 C1767 1.349 . S
C1768 C1780 1.349 . S
C1769 C1767 1.327 . S
C1769 C1785 1.429 . S
C1769 H1791 0.950 . S
C1770 H1766 0.949 . S
C1770 C1778 1.574 . S
C1770 C1786 1.368 . S
H1771 C1779 0.950 . S
H1772 C1777 0.950 . S
H1773 C1778 0.949 . S
H1774 C1780 0.950 . S
H1775 C1781 0.950 . S
H1776 C1782 0.949 . S
C1777 H1772 0.950 . S
C1777 C1779 1.327 . S
C1777 C1783 1.429 . S
C1778 C1770 1.574 . S
C1778 H1773 0.949 . S
C1778 C1784 1.368 . S
C1779 C1763 1.349 . S
C1779 H1771 0.950 . S
C1779 C1777 1.327 . S
C1780 C1768 1.349 . S
C1780 H1774 0.950 . S
C1780 C1781 1.327 . S
C1781 H1775 0.950 . S
C1781 C1780 1.327 . S
C1781 C1785 1.429 . S
C1782 C1765 1.574 . S
C1782 H1776 0.949 . S
C1782 C1786 1.368 . S
C1783 C1764 1.429 . S
C1783 C1777 1.429 . S
C1783 C1784 1.523 . S
C1784 C1765 1.368 . S
C1784 C1778 1.368 . S
C1784 C1783 1.523 . S
C1785 C1769 1.429 . S
C1785 C1781 1.429 . S
C1785 C1786 1.523 . S
C1786 C1770 1.368 . S
C1786 C1782 1.368 . S
C1786 C1785 1.523 . S
H1787 C1762 0.950 . S
H1788 C1764 0.950 . S
H1789 C1765 0.949 . S
H1790 C1767 0.950 . S
H1791 C1769 0.950 . S
C1792 C1793 1.349 . S
C1792 C1794 1.327 . S
C1792 H1817 0.950 . S
C1793 C1792 1.349 . S
C1793 C1809 1.349 . S
C1794 C1792 1.327 . S
C1794 C1813 1.429 . S
C1794 H1818 0.950 . S
C1795 C1812 1.574 . S
C1795 C1814 1.368 . S
C1795 H1819 0.949 . S
H1796 C1800 0.949 . S
C1797 C1798 1.349 . S
C1797 C1799 1.327 . S
C1797 H1820 0.950 . S
C1798 C1797 1.349 . S
C1798 C1810 1.349 . S
C1799 C1797 1.327 . S
C1799 C1815 1.429 . S
C1799 H1821 0.950 . S
C1800 H1796 0.949 . S
C1800 C1808 1.574 . S
C1800 C1816 1.368 . S
H1801 C1809 0.950 . S
H1802 C1807 0.950 . S
H1803 C1808 0.949 . S
H1804 C1810 0.950 . S
H1805 C1811 0.950 . S
H1806 C1812 0.949 . S
C1807 H1802 0.950 . S
C1807 C1809 1.327 . S
C1807 C1813 1.429 . S
C1808 C1800 1.574 . S
C1808 H1803 0.949 . S
C1808 C1814 1.368 . S
C1809 C1793 1.349 . S
C1809 H1801 0.950 . S
C1809 C1807 1.327 . S
C1810 C1798 1.349 . S
C1810 H1804 0.950 . S
C1810 C1811 1.327 . S
C1811 H1805 0.950 . S
C1811 C1810 1.327 . S
C1811 C1815 1.429 . S
C1812 C1795 1.574 . S
C1812 H1806 0.949 . S
C1812 C1816 1.368 . S
C1813 C1794 1.429 . S
C1813 C1807 1.429 . S
C1813 C1814 1.523 . S
C1814 C1795 1.368 . S
C1814 C1808 1.368 . S
C1814 C1813 1.523 . S
C1815 C1799 1.429 . S
C1815 C1811 1.429 . S
C1815 C1816 1.523 . S
C1816 C1800 1.368 . S
C1816 C1812 1.368 . S
C1816 C1815 1.523 . S
H1817 C1792 0.950 . S
H1818 C1794 0.950 . S
H1819 C1795 0.949 . S
H1820 C1797 0.950 . S
H1821 C1799 0.950 . S
C1822 C1823 1.349 . S
C1822 C1824 1.327 . S
C1822 H1847 0.950 . S
C1823 C1822 1.349 . S
C1823 C1839 1.349 . S
C1824 C1822 1.327 . S
C1824 C1843 1.429 . S
C1824 H1848 0.950 . S
C1825 C1842 1.574 . S
C1825 C1844 1.368 . S
C1825 H1849 0.949 . S
H1826 C1830 0.949 . S
C1827 C1828 1.349 . S
C1827 C1829 1.327 . S
C1827 H1850 0.950 . S
C1828 C1827 1.349 . S
C1828 C1840 1.349 . S
C1829 C1827 1.327 . S
C1829 C1845 1.429 . S
C1829 H1851 0.950 . S
C1830 H1826 0.949 . S
C1830 C1838 1.574 . S
C1830 C1846 1.368 . S
H1831 C1839 0.950 . S
H1832 C1837 0.950 . S
H1833 C1838 0.949 . S
H1834 C1840 0.950 . S
H1835 C1841 0.950 . S
H1836 C1842 0.949 . S
C1837 H1832 0.950 . S
C1837 C1839 1.327 . S
C1837 C1843 1.429 . S
C1838 C1830 1.574 . S
C1838 H1833 0.949 . S
C1838 C1844 1.368 . S
C1839 C1823 1.349 . S
C1839 H1831 0.950 . S
C1839 C1837 1.327 . S
C1840 C1828 1.349 . S
C1840 H1834 0.950 . S
C1840 C1841 1.327 . S
C1841 H1835 0.950 . S
C1841 C1840 1.327 . S
C1841 C1845 1.429 . S
C1842 C1825 1.574 . S
C1842 H1836 0.949 . S
C1842 C1846 1.368 . S
C1843 C1824 1.429 . S
C1843 C1837 1.429 . S
C1843 C1844 1.523 . S
C1844 C1825 1.368 . S
C1844 C1838 1.368 . S
C1844 C1843 1.523 . S
C1845 C1829 1.429 . S
C1845 C1841 1.429 . S
C1845 C1846 1.523 . S
C1846 C1830 1.368 . S
C1846 C1842 1.368 . S
C1846 C1845 1.523 . S
H1847 C1822 0.950 . S
H1848 C1824 0.950 . S
H1849 C1825 0.949 . S
H1850 C1827 0.950 . S
H1851 C1829 0.950 . S
C1852 C1853 1.349 . S
C1852 C1854 1.327 . S
C1852 H1877 0.950 . S
C1853 C1852 1.349 . S
C1853 C1869 1.349 . S
C1854 C1852 1.327 . S
C1854 C1873 1.429 . S
C1854 H1878 0.950 . S
C1855 C1872 1.574 . S
C1855 C1874 1.368 . S
C1855 H1879 0.949 . S
H1856 C1860 0.949 . S
C1857 C1858 1.349 . S
C1857 C1859 1.327 . S
C1857 H1880 0.950 . S
C1858 C1857 1.349 . S
C1858 C1870 1.349 . S
C1859 C1857 1.327 . S
C1859 C1875 1.429 . S
C1859 H1881 0.950 . S
C1860 H1856 0.949 . S
C1860 C1868 1.574 . S
C1860 C1876 1.368 . S
H1861 C1869 0.950 . S
H1862 C1867 0.950 . S
H1863 C1868 0.949 . S
H1864 C1870 0.950 1_554 S
H1865 C1871 0.950 . S
H1866 C1872 0.949 . S
C1867 H1862 0.950 . S
C1867 C1869 1.327 . S
C1867 C1873 1.429 . S
C1868 C1860 1.574 . S
C1868 H1863 0.949 . S
C1868 C1874 1.368 . S
C1869 C1853 1.349 . S
C1869 H1861 0.950 . S
C1869 C1867 1.327 . S
C1870 C1858 1.349 . S
C1870 H1864 0.950 1_556 S
C1870 C1871 1.327 . S
C1871 H1865 0.950 . S
C1871 C1870 1.327 . S
C1871 C1875 1.429 . S
C1872 C1855 1.574 . S
C1872 H1866 0.949 . S
C1872 C1876 1.368 . S
C1873 C1854 1.429 . S
C1873 C1867 1.429 . S
C1873 C1874 1.523 . S
C1874 C1855 1.368 . S
C1874 C1868 1.368 . S
C1874 C1873 1.523 . S
C1875 C1859 1.429 . S
C1875 C1871 1.429 . S
C1875 C1876 1.523 . S
C1876 C1860 1.368 . S
C1876 C1872 1.368 . S
C1876 C1875 1.523 . S
H1877 C1852 0.950 . S
H1878 C1854 0.950 . S
H1879 C1855 0.949 . S
H1880 C1857 0.950 . S
H1881 C1859 0.950 . S
C1882 C1883 1.349 . S
C1882 C1884 1.327 . S
C1882 H1907 0.950 . S
C1883 C1882 1.349 . S
C1883 C1899 1.349 . S
C1884 C1882 1.327 . S
C1884 C1903 1.429 . S
C1884 H1908 0.950 . S
C1885 C1902 1.574 . S
C1885 C1904 1.368 . S
C1885 H1909 0.949 . S
H1886 C1890 0.949 . S
C1887 C1888 1.349 . S
C1887 C1889 1.327 . S
C1887 H1910 0.950 . S
C1888 C1887 1.349 . S
C1888 C1900 1.349 . S
C1889 C1887 1.327 . S
C1889 C1905 1.429 . S
C1889 H1911 0.950 . S
C1890 H1886 0.949 . S
C1890 C1898 1.574 . S
C1890 C1906 1.368 . S
H1891 C1899 0.950 . S
H1892 C1897 0.950 . S
H1893 C1898 0.949 . S
H1894 C1900 0.950 . S
H1895 C1901 0.950 . S
H1896 C1902 0.949 . S
C1897 H1892 0.950 . S
C1897 C1899 1.327 . S
C1897 C1903 1.429 . S
C1898 C1890 1.574 . S
C1898 H1893 0.949 . S
C1898 C1904 1.368 . S
C1899 C1883 1.349 . S
C1899 H1891 0.950 . S
C1899 C1897 1.327 . S
C1900 C1888 1.349 . S
C1900 H1894 0.950 . S
C1900 C1901 1.327 . S
C1901 H1895 0.950 . S
C1901 C1900 1.327 . S
C1901 C1905 1.429 . S
C1902 C1885 1.574 . S
C1902 H1896 0.949 . S
C1902 C1906 1.368 . S
C1903 C1884 1.429 . S
C1903 C1897 1.429 . S
C1903 C1904 1.523 . S
C1904 C1885 1.368 . S
C1904 C1898 1.368 . S
C1904 C1903 1.523 . S
C1905 C1889 1.429 . S
C1905 C1901 1.429 . S
C1905 C1906 1.523 . S
C1906 C1890 1.368 . S
C1906 C1902 1.368 . S
C1906 C1905 1.523 . S
H1907 C1882 0.950 . S
H1908 C1884 0.950 . S
H1909 C1885 0.949 . S
H1910 C1887 0.950 . S
H1911 C1889 0.950 . S
C1912 C1913 1.349 . S
C1912 C1914 1.327 . S
C1912 H1937 0.950 . S
C1913 C1912 1.349 . S
C1913 C1929 1.349 . S
C1914 C1912 1.327 . S
C1914 C1933 1.429 . S
C1914 H1938 0.950 . S
C1915 C1932 1.574 . S
C1915 C1934 1.368 . S
C1915 H1939 0.949 . S
H1916 C1920 0.949 . S
C1917 C1918 1.349 . S
C1917 C1919 1.327 . S
C1917 H1940 0.950 . S
C1918 C1917 1.349 . S
C1918 C1930 1.349 . S
C1919 C1917 1.327 . S
C1919 C1935 1.429 . S
C1919 H1941 0.950 . S
C1920 H1916 0.949 . S
C1920 C1928 1.574 . S
C1920 C1936 1.368 . S
H1921 C1929 0.950 . S
H1922 C1927 0.950 . S
H1923 C1928 0.949 . S
H1924 C1930 0.950 . S
H1925 C1931 0.950 . S
H1926 C1932 0.949 . S
C1927 H1922 0.950 . S
C1927 C1929 1.327 . S
C1927 C1933 1.429 . S
C1928 C1920 1.574 . S
C1928 H1923 0.949 . S
C1928 C1934 1.368 . S
C1929 C1913 1.349 . S
C1929 H1921 0.950 . S
C1929 C1927 1.327 . S
C1930 C1918 1.349 . S
C1930 H1924 0.950 . S
C1930 C1931 1.327 . S
C1931 H1925 0.950 . S
C1931 C1930 1.327 . S
C1931 C1935 1.429 . S
C1932 C1915 1.574 . S
C1932 H1926 0.949 . S
C1932 C1936 1.368 . S
C1933 C1914 1.429 . S
C1933 C1927 1.429 . S
C1933 C1934 1.523 . S
C1934 C1915 1.368 . S
C1934 C1928 1.368 . S
C1934 C1933 1.523 . S
C1935 C1919 1.429 . S
C1935 C1931 1.429 . S
C1935 C1936 1.523 . S
C1936 C1920 1.368 . S
C1936 C1932 1.368 . S
C1936 C1935 1.523 . S
H1937 C1912 0.950 . S
H1938 C1914 0.950 . S
H1939 C1915 0.949 . S
H1940 C1917 0.950 . S
H1941 C1919 0.950 . S
C1942 C1943 1.349 . S
C1942 C1944 1.327 . S
C1942 H1967 0.950 . S
C1943 C1942 1.349 . S
C1943 C1959 1.349 . S
C1944 C1942 1.327 . S
C1944 C1963 1.429 . S
C1944 H1968 0.950 . S
C1945 C1962 1.574 . S
C1945 C1964 1.368 . S
C1945 H1969 0.949 . S
H1946 C1950 0.949 . S
C1947 C1948 1.349 . S
C1947 C1949 1.327 . S
C1947 H1970 0.950 . S
C1948 C1947 1.349 . S
C1948 C1960 1.349 . S
C1949 C1947 1.327 . S
C1949 C1965 1.429 . S
C1949 H1971 0.950 . S
C1950 H1946 0.949 . S
C1950 C1958 1.574 . S
C1950 C1966 1.368 . S
H1951 C1959 0.950 . S
H1952 C1957 0.950 . S
H1953 C1958 0.949 . S
H1954 C1960 0.950 . S
H1955 C1961 0.950 . S
H1956 C1962 0.949 . S
C1957 H1952 0.950 . S
C1957 C1959 1.327 . S
C1957 C1963 1.429 . S
C1958 C1950 1.574 . S
C1958 H1953 0.949 . S
C1958 C1964 1.368 . S
C1959 C1943 1.349 . S
C1959 H1951 0.950 . S
C1959 C1957 1.327 . S
C1960 C1948 1.349 . S
C1960 H1954 0.950 . S
C1960 C1961 1.327 . S
C1961 H1955 0.950 . S
C1961 C1960 1.327 . S
C1961 C1965 1.429 . S
C1962 C1945 1.574 . S
C1962 H1956 0.949 . S
C1962 C1966 1.368 . S
C1963 C1944 1.429 . S
C1963 C1957 1.429 . S
C1963 C1964 1.523 . S
C1964 C1945 1.368 . S
C1964 C1958 1.368 . S
C1964 C1963 1.523 . S
C1965 C1949 1.429 . S
C1965 C1961 1.429 . S
C1965 C1966 1.523 . S
C1966 C1950 1.368 . S
C1966 C1962 1.368 . S
C1966 C1965 1.523 . S
H1967 C1942 0.950 . S
H1968 C1944 0.950 . S
H1969 C1945 0.949 . S
H1970 C1947 0.950 . S
H1971 C1949 0.950 . S
C1972 C1973 1.349 . S
C1972 C1974 1.327 . S
C1972 H1997 0.950 . S
C1973 C1972 1.349 . S
C1973 C1989 1.349 . S
C1974 C1972 1.327 . S
C1974 C1993 1.429 . S
C1974 H1998 0.950 . S
C1975 C1992 1.574 . S
C1975 C1994 1.368 . S
C1975 H1999 0.949 . S
H1976 C1980 0.949 . S
C1977 C1978 1.349 . S
C1977 C1979 1.327 . S
C1977 H2000 0.950 1_545 S
C1978 C1977 1.349 . S
C1978 C1990 1.349 . S
C1979 C1977 1.327 . S
C1979 C1995 1.429 . S
C1979 H2001 0.950 . S
C1980 H1976 0.949 . S
C1980 C1988 1.574 . S
C1980 C1996 1.368 . S
H1981 C1989 0.950 . S
H1982 C1987 0.950 . S
H1983 C1988 0.949 . S
H1984 C1990 0.950 . S
H1985 C1991 0.950 . S
H1986 C1992 0.949 . S
C1987 H1982 0.950 . S
C1987 C1989 1.327 . S
C1987 C1993 1.429 . S
C1988 C1980 1.574 . S
C1988 H1983 0.949 . S
C1988 C1994 1.368 . S
C1989 C1973 1.349 . S
C1989 H1981 0.950 . S
C1989 C1987 1.327 . S
C1990 C1978 1.349 . S
C1990 H1984 0.950 . S
C1990 C1991 1.327 . S
C1991 H1985 0.950 . S
C1991 C1990 1.327 . S
C1991 C1995 1.429 . S
C1992 C1975 1.574 . S
C1992 H1986 0.949 . S
C1992 C1996 1.368 . S
C1993 C1974 1.429 . S
C1993 C1987 1.429 . S
C1993 C1994 1.523 . S
C1994 C1975 1.368 . S
C1994 C1988 1.368 . S
C1994 C1993 1.523 . S
C1995 C1979 1.429 . S
C1995 C1991 1.429 . S
C1995 C1996 1.523 . S
C1996 C1980 1.368 . S
C1996 C1992 1.368 . S
C1996 C1995 1.523 . S
H1997 C1972 0.950 . S
H1998 C1974 0.950 . S
H1999 C1975 0.949 . S
H2000 C1977 0.950 1_565 S
H2001 C1979 0.950 . S
C2002 C2003 1.349 . S
C2002 C2004 1.327 . S
C2002 H2027 0.950 . S
C2003 C2002 1.349 . S
C2003 C2019 1.349 . S
C2004 C2002 1.327 . S
C2004 C2023 1.429 . S
C2004 H2028 0.950 . S
C2005 C2022 1.574 . S
C2005 C2024 1.368 . S
C2005 H2029 0.949 . S
H2006 C2010 0.949 . S
C2007 C2008 1.349 . S
C2007 C2009 1.327 . S
C2007 H2030 0.950 . S
C2008 C2007 1.349 . S
C2008 C2020 1.349 . S
C2009 C2007 1.327 . S
C2009 C2025 1.429 . S
C2009 H2031 0.950 . S
C2010 H2006 0.949 . S
C2010 C2018 1.574 . S
C2010 C2026 1.368 . S
H2011 C2019 0.950 . S
H2012 C2017 0.950 . S
H2013 C2018 0.949 . S
H2014 C2020 0.950 . S
H2015 C2021 0.950 . S
H2016 C2022 0.949 . S
C2017 H2012 0.950 . S
C2017 C2019 1.327 . S
C2017 C2023 1.429 . S
C2018 C2010 1.574 . S
C2018 H2013 0.949 . S
C2018 C2024 1.368 . S
C2019 C2003 1.349 . S
C2019 H2011 0.950 . S
C2019 C2017 1.327 . S
C2020 C2008 1.349 . S
C2020 H2014 0.950 . S
C2020 C2021 1.327 . S
C2021 H2015 0.950 . S
C2021 C2020 1.327 . S
C2021 C2025 1.429 . S
C2022 C2005 1.574 . S
C2022 H2016 0.949 . S
C2022 C2026 1.368 . S
C2023 C2004 1.429 . S
C2023 C2017 1.429 . S
C2023 C2024 1.523 . S
C2024 C2005 1.368 . S
C2024 C2018 1.368 . S
C2024 C2023 1.523 . S
C2025 C2009 1.429 . S
C2025 C2021 1.429 . S
C2025 C2026 1.523 . S
C2026 C2010 1.368 . S
C2026 C2022 1.368 . S
C2026 C2025 1.523 . S
H2027 C2002 0.950 . S
H2028 C2004 0.950 . S
H2029 C2005 0.949 . S
H2030 C2007 0.950 . S
H2031 C2009 0.950 . S
C2032 C2033 1.349 . S
C2032 C2034 1.327 . S
C2032 H2057 0.950 . S
C2033 C2032 1.349 . S
C2033 C2049 1.349 . S
C2034 C2032 1.327 . S
C2034 C2053 1.429 . S
C2034 H2058 0.950 . S
C2035 C2052 1.574 . S
C2035 C2054 1.368 . S
C2035 H2059 0.949 . S
H2036 C2040 0.949 . S
C2037 C2038 1.349 . S
C2037 C2039 1.327 . S
C2037 H2060 0.950 1_545 S
C2038 C2037 1.349 . S
C2038 C2050 1.349 . S
C2039 C2037 1.327 . S
C2039 C2055 1.429 . S
C2039 H2061 0.924 1_545 S
C2040 H2036 0.949 . S
C2040 C2048 1.574 . S
C2040 C2056 1.368 . S
H2041 C2049 0.950 . S
H2042 C2047 0.950 . S
H2043 C2048 0.949 . S
H2044 C2050 0.950 . S
H2045 C2051 0.950 . S
H2046 C2052 0.949 . S
C2047 H2042 0.950 . S
C2047 C2049 1.327 . S
C2047 C2053 1.429 . S
C2048 C2040 1.574 . S
C2048 H2043 0.949 . S
C2048 C2054 1.368 . S
C2049 C2033 1.349 . S
C2049 H2041 0.950 . S
C2049 C2047 1.327 . S
C2050 C2038 1.349 . S
C2050 H2044 0.950 . S
C2050 C2051 1.327 . S
C2051 H2045 0.950 . S
C2051 C2050 1.327 . S
C2051 C2055 1.429 . S
C2052 C2035 1.574 . S
C2052 H2046 0.949 . S
C2052 C2056 1.368 . S
C2053 C2034 1.429 . S
C2053 C2047 1.429 . S
C2053 C2054 1.523 . S
C2054 C2035 1.368 . S
C2054 C2048 1.368 . S
C2054 C2053 1.523 . S
C2055 C2039 1.429 . S
C2055 C2051 1.429 . S
C2055 C2056 1.523 . S
C2056 C2040 1.368 . S
C2056 C2052 1.368 . S
C2056 C2055 1.523 . S
H2057 C2032 0.950 . S
H2058 C2034 0.950 . S
H2059 C2035 0.949 . S
H2060 C2037 0.950 1_565 S
H2061 C2039 0.924 1_565 S
C2062 C2063 1.349 . S
C2062 C2064 1.327 . S
C2062 H2087 0.950 . S
C2063 C2062 1.349 . S
C2063 C2079 1.349 . S
C2064 C2062 1.327 . S
C2064 C2083 1.429 . S
C2064 H2088 0.950 . S
C2065 C2082 1.574 . S
C2065 C2084 1.368 . S
C2065 H2089 0.949 . S
H2066 C2070 0.949 . S
C2067 C2068 1.349 . S
C2067 C2069 1.327 . S
C2067 H2090 0.950 . S
C2068 C2067 1.349 . S
C2068 C2080 1.349 . S
C2069 C2067 1.327 . S
C2069 C2085 1.429 . S
C2069 H2091 0.950 . S
C2070 H2066 0.949 . S
C2070 C2078 1.574 . S
C2070 C2086 1.368 . S
H2071 C2079 0.950 . S
H2072 C2077 0.950 . S
H2073 C2078 0.949 . S
H2074 C2080 0.950 . S
H2075 C2081 0.950 . S
H2076 C2082 0.949 . S
C2077 H2072 0.950 . S
C2077 C2079 1.327 . S
C2077 C2083 1.429 . S
C2078 C2070 1.574 . S
C2078 H2073 0.949 . S
C2078 C2084 1.368 . S
C2079 C2063 1.349 . S
C2079 H2071 0.950 . S
C2079 C2077 1.327 . S
C2080 C2068 1.349 . S
C2080 H2074 0.950 . S
C2080 C2081 1.327 . S
C2081 H2075 0.950 . S
C2081 C2080 1.327 . S
C2081 C2085 1.429 . S
C2082 C2065 1.574 . S
C2082 H2076 0.949 . S
C2082 C2086 1.368 . S
C2083 C2064 1.429 . S
C2083 C2077 1.429 . S
C2083 C2084 1.523 . S
C2084 C2065 1.368 . S
C2084 C2078 1.368 . S
C2084 C2083 1.523 . S
C2085 C2069 1.429 . S
C2085 C2081 1.429 . S
C2085 C2086 1.523 . S
C2086 C2070 1.368 . S
C2086 C2082 1.368 . S
C2086 C2085 1.523 . S
H2087 C2062 0.950 . S
H2088 C2064 0.950 . S
H2089 C2065 0.949 . S
H2090 C2067 0.950 . S
H2091 C2069 0.950 . S
C2092 C2093 1.349 . S
C2092 C2094 1.327 . S
C2092 H2117 0.950 . S
C2093 C2092 1.349 . S
C2093 C2109 1.349 . S
C2094 C2092 1.327 . S
C2094 C2113 1.429 . S
C2094 H2118 0.950 . S
C2095 C2112 1.574 . S
C2095 C2114 1.368 . S
C2095 H2119 0.949 . S
H2096 C2100 0.949 . S
C2097 C2098 1.349 . S
C2097 C2099 1.327 . S
C2097 H2120 0.950 . S
C2098 C2097 1.349 . S
C2098 C2110 1.349 1_545 S
C2099 C2097 1.327 . S
C2099 C2115 1.429 . S
C2099 H2121 0.950 . S
C2100 H2096 0.949 . S
C2100 C2108 1.574 . S
C2100 C2116 1.368 . S
H2101 C2109 0.950 . S
H2102 C2107 0.950 . S
H2103 C2108 0.949 . S
H2104 C2110 0.950 . S
H2105 C2111 0.950 1_565 S
H2106 C2112 0.949 . S
C2107 H2102 0.950 . S
C2107 C2109 1.327 . S
C2107 C2113 1.429 . S
C2108 C2100 1.574 . S
C2108 H2103 0.949 . S
C2108 C2114 1.368 . S
C2109 C2093 1.349 . S
C2109 H2101 0.950 . S
C2109 C2107 1.327 . S
C2110 C2098 1.349 1_565 S
C2110 H2104 0.950 . S
C2110 C2111 1.327 1_565 S
C2111 H2105 0.950 1_545 S
C2111 C2110 1.327 1_545 S
C2111 C2115 1.429 . S
C2112 C2095 1.574 . S
C2112 H2106 0.949 . S
C2112 C2116 1.368 . S
C2113 C2094 1.429 . S
C2113 C2107 1.429 . S
C2113 C2114 1.523 . S
C2114 C2095 1.368 . S
C2114 C2108 1.368 . S
C2114 C2113 1.523 . S
C2115 C2099 1.429 . S
C2115 C2111 1.429 . S
C2115 C2116 1.523 . S
C2116 C2100 1.368 . S
C2116 C2112 1.368 . S
C2116 C2115 1.523 . S
H2117 C2092 0.950 . S
H2118 C2094 0.950 . S
H2119 C2095 0.949 . S
H2120 C2097 0.950 . S
H2121 C2099 0.950 . S
C2122 C2123 1.349 . S
C2122 C2124 1.327 . S
C2122 H2147 0.950 . S
C2123 C2122 1.349 . S
C2123 C2139 1.349 . S
C2124 C2122 1.327 . S
C2124 C2143 1.429 . S
C2124 H2148 0.950 . S
C2125 C2142 1.574 . S
C2125 C2144 1.368 . S
C2125 H2149 0.949 . S
H2126 C2130 0.949 . S
C2127 C2128 1.349 . S
C2127 C2129 1.327 . S
C2127 H2150 0.950 . S
C2128 C2127 1.349 . S
C2128 C2140 1.349 . S
C2129 C2127 1.327 . S
C2129 C2145 1.429 . S
C2129 H2151 0.950 . S
C2130 H2126 0.949 . S
C2130 C2138 1.574 . S
C2130 C2146 1.368 . S
H2131 C2139 0.950 . S
H2132 C2137 0.950 . S
H2133 C2138 0.949 . S
H2134 C2140 0.950 . S
H2135 C2141 0.950 . S
H2136 C2142 0.949 . S
C2137 H2132 0.950 . S
C2137 C2139 1.327 . S
C2137 C2143 1.429 . S
C2138 C2130 1.574 . S
C2138 H2133 0.949 . S
C2138 C2144 1.368 . S
C2139 C2123 1.349 . S
C2139 H2131 0.950 . S
C2139 C2137 1.327 . S
C2140 C2128 1.349 . S
C2140 H2134 0.950 . S
C2140 C2141 1.327 . S
C2141 H2135 0.950 . S
C2141 C2140 1.327 . S
C2141 C2145 1.429 . S
C2142 C2125 1.574 . S
C2142 H2136 0.949 . S
C2142 C2146 1.368 . S
C2143 C2124 1.429 . S
C2143 C2137 1.429 . S
C2143 C2144 1.523 . S
C2144 C2125 1.368 . S
C2144 C2138 1.368 . S
C2144 C2143 1.523 . S
C2145 C2129 1.429 . S
C2145 C2141 1.429 . S
C2145 C2146 1.523 . S
C2146 C2130 1.368 . S
C2146 C2142 1.368 . S
C2146 C2145 1.523 . S
H2147 C2122 0.950 . S
H2148 C2124 0.950 . S
H2149 C2125 0.949 . S
H2150 C2127 0.950 . S
H2151 C2129 0.950 . S
C2152 C2153 1.349 1_556 S
C2152 C2154 1.327 . S
C2152 H2177 0.950 . S
C2153 C2152 1.349 1_554 S
C2153 C2169 1.349 . S
C2154 C2152 1.327 . S
C2154 C2173 1.429 1_556 S
C2154 H2178 0.950 . S
C2155 C2172 1.574 . S
C2155 C2174 1.368 . S
C2155 H2179 0.949 . S
H2156 C2160 0.949 . S
C2157 C2158 1.323 1_554 S
C2157 C2159 1.327 . S
C2157 H2180 0.950 . S
C2158 C2157 1.323 1_556 S
C2158 C2170 1.371 . S
C2159 C2157 1.327 . S
C2159 C2175 1.429 . S
C2159 H2181 0.950 . S
C2160 H2156 0.949 . S
C2160 C2168 1.574 . S
C2160 C2176 1.368 1_556 S
H2161 C2169 0.950 . S
H2162 C2167 0.950 . S
H2163 C2168 0.949 . S
H2164 C2170 0.950 . S
H2165 C2171 0.950 . S
H2166 C2172 0.949 . S
C2167 H2162 0.950 . S
C2167 C2169 1.327 . S
C2167 C2173 1.429 . S
C2168 C2160 1.574 . S
C2168 H2163 0.949 . S
C2168 C2174 1.368 1_556 S
C2169 C2153 1.349 . S
C2169 H2161 0.950 . S
C2169 C2167 1.327 . S
C2170 C2158 1.371 . S
C2170 H2164 0.950 . S
C2170 C2171 1.327 . S
C2171 H2165 0.950 . S
C2171 C2170 1.327 . S
C2171 C2175 1.429 1_556 S
C2172 C2155 1.574 . S
C2172 H2166 0.949 . S
C2172 C2176 1.368 . S
C2173 C2154 1.429 1_554 S
C2173 C2167 1.429 . S
C2173 C2174 1.523 . S
C2174 C2155 1.368 . S
C2174 C2168 1.368 1_554 S
C2174 C2173 1.523 . S
C2175 C2159 1.429 . S
C2175 C2171 1.429 1_554 S
C2175 C2176 1.523 . S
C2176 C2160 1.368 1_554 S
C2176 C2172 1.368 . S
C2176 C2175 1.523 . S
H2177 C2152 0.950 . S
H2178 C2154 0.950 . S
H2179 C2155 0.949 . S
H2180 C2157 0.950 . S
H2181 C2159 0.950 . S
C2182 C2183 1.349 . S
C2182 C2184 1.327 . S
C2182 H2207 0.950 1_554 S
C2183 C2182 1.349 . S
C2183 C2199 1.349 . S
C2184 C2182 1.327 . S
C2184 C2203 1.429 . S
C2184 H2208 0.950 1_554 S
C2185 C2202 1.574 . S
C2185 C2204 1.368 . S
C2185 H2209 0.949 . S
H2186 C2190 0.949 1_556 S
C2187 C2188 1.349 . S
C2187 C2189 1.327 . S
C2187 H2210 0.950 . S
C2188 C2187 1.349 . S
C2188 C2200 1.349 . S
C2189 C2187 1.327 . S
C2189 C2205 1.429 . S
C2189 H2211 0.950 . S
C2190 H2186 0.949 1_554 S
C2190 C2198 1.574 . S
C2190 C2206 1.368 . S
H2191 C2199 0.950 . S
H2192 C2197 0.950 . S
H2193 C2198 0.949 1_556 S
H2194 C2200 0.950 1_556 S
H2195 C2201 0.950 1_556 S
H2196 C2202 0.949 . S
C2197 H2192 0.950 . S
C2197 C2199 1.327 . S
C2197 C2203 1.429 . S
C2198 C2190 1.574 . S
C2198 H2193 0.949 1_554 S
C2198 C2204 1.368 . S
C2199 C2183 1.349 . S
C2199 H2191 0.950 . S
C2199 C2197 1.327 . S
C2200 C2188 1.349 . S
C2200 H2194 0.950 1_554 S
C2200 C2201 1.327 . S
C2201 H2195 0.950 1_554 S
C2201 C2200 1.327 . S
C2201 C2205 1.429 . S
C2202 C2185 1.574 . S
C2202 H2196 0.949 . S
C2202 C2206 1.368 . S
C2203 C2184 1.429 . S
C2203 C2197 1.429 . S
C2203 C2204 1.523 . S
C2204 C2185 1.368 . S
C2204 C2198 1.368 . S
C2204 C2203 1.523 . S
C2205 C2189 1.429 . S
C2205 C2201 1.429 . S
C2205 C2206 1.523 . S
C2206 C2190 1.368 . S
C2206 C2202 1.368 . S
C2206 C2205 1.523 . S
H2207 C2182 0.950 1_556 S
H2208 C2184 0.950 1_556 S
H2209 C2185 0.949 . S
H2210 C2187 0.950 . S
H2211 C2189 0.950 . S
C2212 C2213 1.349 . S
C2212 C2214 1.327 . S
C2212 H2237 0.950 . S
C2213 C2212 1.349 . S
C2213 C2229 1.349 . S
C2214 C2212 1.327 . S
C2214 C2233 1.429 . S
C2214 H2238 0.950 . S
C2215 C2232 1.574 . S
C2215 C2234 1.368 . S
C2215 H2239 0.949 . S
H2216 C2220 0.949 . S
C2217 C2218 1.349 . S
C2217 C2219 1.327 . S
C2217 H2240 0.950 . S
C2218 C2217 1.349 . S
C2218 C2230 1.349 . S
C2219 C2217 1.327 . S
C2219 C2235 1.429 . S
C2219 H2241 0.950 . S
C2220 H2216 0.949 . S
C2220 C2228 1.574 . S
C2220 C2236 1.368 . S
H2221 C2229 0.950 . S
H2222 C2227 0.950 . S
H2223 C2228 0.949 . S
H2224 C2230 0.950 . S
H2225 C2231 0.950 . S
H2226 C2232 0.949 . S
C2227 H2222 0.950 . S
C2227 C2229 1.327 . S
C2227 C2233 1.429 . S
C2228 C2220 1.574 . S
C2228 H2223 0.949 . S
C2228 C2234 1.368 . S
C2229 C2213 1.349 . S
C2229 H2221 0.950 . S
C2229 C2227 1.327 . S
C2230 C2218 1.349 . S
C2230 H2224 0.950 . S
C2230 C2231 1.327 . S
C2231 H2225 0.950 . S
C2231 C2230 1.327 . S
C2231 C2235 1.429 . S
C2232 C2215 1.574 . S
C2232 H2226 0.949 . S
C2232 C2236 1.368 . S
C2233 C2214 1.429 . S
C2233 C2227 1.429 . S
C2233 C2234 1.523 . S
C2234 C2215 1.368 . S
C2234 C2228 1.368 . S
C2234 C2233 1.523 . S
C2235 C2219 1.429 . S
C2235 C2231 1.429 . S
C2235 C2236 1.523 . S
C2236 C2220 1.368 . S
C2236 C2232 1.368 . S
C2236 C2235 1.523 . S
H2237 C2212 0.950 . S
H2238 C2214 0.950 . S
H2239 C2215 0.949 . S
H2240 C2217 0.950 . S
H2241 C2219 0.950 . S
C2242 C2243 1.349 . S
C2242 C2244 1.327 . S
C2242 H2267 0.950 . S
C2243 C2242 1.349 . S
C2243 C2259 1.349 . S
C2244 C2242 1.327 . S
C2244 C2263 1.429 . S
C2244 H2268 0.950 . S
C2245 C2262 1.574 . S
C2245 C2264 1.368 . S
C2245 H2269 0.949 . S
H2246 C2250 0.949 . S
C2247 C2248 1.349 . S
C2247 C2249 1.327 . S
C2247 H2270 0.950 . S
C2248 C2247 1.349 . S
C2248 C2260 1.349 . S
C2249 C2247 1.327 . S
C2249 C2265 1.429 . S
C2249 H2271 0.950 . S
C2250 H2246 0.949 . S
C2250 C2258 1.574 . S
C2250 C2266 1.368 . S
H2251 C2259 0.950 . S
H2252 C2257 0.950 . S
H2253 C2258 0.949 . S
H2254 C2260 0.950 . S
H2255 C2261 0.950 . S
H2256 C2262 0.949 . S
C2257 H2252 0.950 . S
C2257 C2259 1.327 . S
C2257 C2263 1.429 . S
C2258 C2250 1.574 . S
C2258 H2253 0.949 . S
C2258 C2264 1.368 . S
C2259 C2243 1.349 . S
C2259 H2251 0.950 . S
C2259 C2257 1.327 . S
C2260 C2248 1.349 . S
C2260 H2254 0.950 . S
C2260 C2261 1.327 . S
C2261 H2255 0.950 . S
C2261 C2260 1.327 . S
C2261 C2265 1.429 . S
C2262 C2245 1.574 . S
C2262 H2256 0.949 . S
C2262 C2266 1.368 . S
C2263 C2244 1.429 . S
C2263 C2257 1.429 . S
C2263 C2264 1.523 . S
C2264 C2245 1.368 . S
C2264 C2258 1.368 . S
C2264 C2263 1.523 . S
C2265 C2249 1.429 . S
C2265 C2261 1.429 . S
C2265 C2266 1.523 . S
C2266 C2250 1.368 . S
C2266 C2262 1.368 . S
C2266 C2265 1.523 . S
H2267 C2242 0.950 . S
H2268 C2244 0.950 . S
H2269 C2245 0.949 . S
H2270 C2247 0.950 . S
H2271 C2249 0.950 . S
C2272 C2273 1.349 . S
C2272 C2274 1.327 . S
C2272 H2297 0.950 . S
C2273 C2272 1.349 . S
C2273 C2289 1.349 . S
C2274 C2272 1.327 . S
C2274 C2293 1.429 . S
C2274 H2298 0.950 . S
C2275 C2292 1.574 . S
C2275 C2294 1.368 . S
C2275 H2299 0.949 . S
H2276 C2280 0.949 . S
C2277 C2278 1.349 . S
C2277 C2279 1.327 . S
C2277 H2300 0.950 . S
C2278 C2277 1.349 . S
C2278 C2290 1.349 . S
C2279 C2277 1.327 . S
C2279 C2295 1.429 . S
C2279 H2301 0.950 . S
C2280 H2276 0.949 . S
C2280 C2288 1.574 . S
C2280 C2296 1.368 . S
H2281 C2289 0.950 . S
H2282 C2287 0.950 . S
H2283 C2288 0.949 . S
H2284 C2290 0.950 . S
H2285 C2291 0.950 . S
H2286 C2292 0.949 . S
C2287 H2282 0.950 . S
C2287 C2289 1.327 . S
C2287 C2293 1.429 . S
C2288 C2280 1.574 . S
C2288 H2283 0.949 . S
C2288 C2294 1.368 . S
C2289 C2273 1.349 . S
C2289 H2281 0.950 . S
C2289 C2287 1.327 . S
C2290 C2278 1.349 . S
C2290 H2284 0.950 . S
C2290 C2291 1.327 . S
C2291 H2285 0.950 . S
C2291 C2290 1.327 . S
C2291 C2295 1.429 . S
C2292 C2275 1.574 . S
C2292 H2286 0.949 . S
C2292 C2296 1.368 . S
C2293 C2274 1.429 . S
C2293 C2287 1.429 . S
C2293 C2294 1.523 . S
C2294 C2275 1.368 . S
C2294 C2288 1.368 . S
C2294 C2293 1.523 . S
C2295 C2279 1.429 . S
C2295 C2291 1.429 . S
C2295 C2296 1.523 . S
C2296 C2280 1.368 . S
C2296 C2292 1.368 . S
C2296 C2295 1.523 . S
H2297 C2272 0.950 . S
H2298 C2274 0.950 . S
H2299 C2275 0.949 . S
H2300 C2277 0.950 . S
H2301 C2279 0.950 . S
C2302 C2303 1.349 . S
C2302 C2304 1.327 . S
C2302 H2327 0.950 . S
C2303 C2302 1.349 . S
C2303 C2319 1.349 . S
C2304 C2302 1.327 . S
C2304 C2323 1.429 . S
C2304 H2328 0.950 . S
C2305 C2322 1.574 . S
C2305 C2324 1.368 . S
C2305 H2329 0.949 . S
H2306 C2310 0.949 . S
C2307 C2308 1.349 . S
C2307 C2309 1.327 . S
C2307 H2330 0.950 . S
C2308 C2307 1.349 . S
C2308 C2320 1.349 . S
C2309 C2307 1.327 . S
C2309 C2325 1.429 . S
C2309 H2331 0.950 . S
C2310 H2306 0.949 . S
C2310 C2318 1.574 . S
C2310 C2326 1.368 . S
H2311 C2319 0.950 . S
H2312 C2317 0.950 . S
H2313 C2318 0.949 . S
H2314 C2320 0.950 . S
H2315 C2321 0.950 . S
H2316 C2322 0.949 . S
C2317 H2312 0.950 . S
C2317 C2319 1.327 . S
C2317 C2323 1.429 . S
C2318 C2310 1.574 . S
C2318 H2313 0.949 . S
C2318 C2324 1.368 . S
C2319 C2303 1.349 . S
C2319 H2311 0.950 . S
C2319 C2317 1.327 . S
C2320 C2308 1.349 . S
C2320 H2314 0.950 . S
C2320 C2321 1.327 . S
C2321 H2315 0.950 . S
C2321 C2320 1.327 . S
C2321 C2325 1.429 . S
C2322 C2305 1.574 . S
C2322 H2316 0.949 . S
C2322 C2326 1.368 . S
C2323 C2304 1.429 . S
C2323 C2317 1.429 . S
C2323 C2324 1.523 . S
C2324 C2305 1.368 . S
C2324 C2318 1.368 . S
C2324 C2323 1.523 . S
C2325 C2309 1.429 . S
C2325 C2321 1.429 . S
C2325 C2326 1.523 . S
C2326 C2310 1.368 . S
C2326 C2322 1.368 . S
C2326 C2325 1.523 . S
H2327 C2302 0.950 . S
H2328 C2304 0.950 . S
H2329 C2305 0.949 . S
H2330 C2307 0.950 . S
H2331 C2309 0.950 . S
C2332 C2333 1.349 . S
C2332 C2334 1.327 . S
C2332 H2357 0.950 . S
C2333 C2332 1.349 . S
C2333 C2349 1.349 . S
C2334 C2332 1.327 . S
C2334 C2353 1.429 . S
C2334 H2358 0.950 . S
C2335 C2352 1.574 . S
C2335 C2354 1.368 . S
C2335 H2359 0.949 . S
H2336 C2340 0.949 . S
C2337 C2338 1.349 . S
C2337 C2339 1.327 . S
C2337 H2360 0.950 . S
C2338 C2337 1.349 . S
C2338 C2350 1.349 . S
C2339 C2337 1.327 . S
C2339 C2355 1.429 . S
C2339 H2361 0.950 . S
C2340 H2336 0.949 . S
C2340 C2348 1.574 . S
C2340 C2356 1.368 . S
H2341 C2349 0.950 . S
H2342 C2347 0.950 . S
H2343 C2348 0.949 . S
H2344 C2350 0.950 . S
H2345 C2351 0.950 . S
H2346 C2352 0.949 . S
C2347 H2342 0.950 . S
C2347 C2349 1.327 . S
C2347 C2353 1.429 . S
C2348 C2340 1.574 . S
C2348 H2343 0.949 . S
C2348 C2354 1.368 . S
C2349 C2333 1.349 . S
C2349 H2341 0.950 . S
C2349 C2347 1.327 . S
C2350 C2338 1.349 . S
C2350 H2344 0.950 . S
C2350 C2351 1.327 . S
C2351 H2345 0.950 . S
C2351 C2350 1.327 . S
C2351 C2355 1.429 . S
C2352 C2335 1.574 . S
C2352 H2346 0.949 . S
C2352 C2356 1.368 . S
C2353 C2334 1.429 . S
C2353 C2347 1.429 . S
C2353 C2354 1.523 . S
C2354 C2335 1.368 . S
C2354 C2348 1.368 . S
C2354 C2353 1.523 . S
C2355 C2339 1.429 . S
C2355 C2351 1.429 . S
C2355 C2356 1.523 . S
C2356 C2340 1.368 . S
C2356 C2352 1.368 . S
C2356 C2355 1.523 . S
H2357 C2332 0.950 . S
H2358 C2334 0.950 . S
H2359 C2335 0.949 . S
H2360 C2337 0.950 . S
H2361 C2339 0.950 . S
C2362 C2363 1.349 . S
C2362 C2364 1.327 . S
C2362 H2387 0.950 . S
C2363 C2362 1.349 . S
C2363 C2379 1.349 . S
C2364 C2362 1.327 . S
C2364 C2383 1.429 . S
C2364 H2388 0.950 . S
C2365 C2382 1.574 . S
C2365 C2384 1.368 . S
C2365 H2389 0.949 . S
H2366 C2370 0.949 . S
C2367 C2368 1.349 . S
C2367 C2369 1.327 . S
C2367 H2390 0.950 . S
C2368 C2367 1.349 . S
C2368 C2380 1.349 . S
C2369 C2367 1.327 . S
C2369 C2385 1.429 . S
C2369 H2391 0.950 . S
C2370 H2366 0.949 . S
C2370 C2378 1.574 . S
C2370 C2386 1.368 . S
H2371 C2379 0.950 . S
H2372 C2377 0.950 . S
H2373 C2378 0.949 . S
H2374 C2380 0.950 . S
H2375 C2381 0.950 . S
H2376 C2382 0.949 . S
C2377 H2372 0.950 . S
C2377 C2379 1.327 . S
C2377 C2383 1.429 . S
C2378 C2370 1.574 . S
C2378 H2373 0.949 . S
C2378 C2384 1.368 . S
C2379 C2363 1.349 . S
C2379 H2371 0.950 . S
C2379 C2377 1.327 . S
C2380 C2368 1.349 . S
C2380 H2374 0.950 . S
C2380 C2381 1.327 . S
C2381 H2375 0.950 . S
C2381 C2380 1.327 . S
C2381 C2385 1.429 . S
C2382 C2365 1.574 . S
C2382 H2376 0.949 . S
C2382 C2386 1.368 . S
C2383 C2364 1.429 . S
C2383 C2377 1.429 . S
C2383 C2384 1.523 . S
C2384 C2365 1.368 . S
C2384 C2378 1.368 . S
C2384 C2383 1.523 . S
C2385 C2369 1.429 . S
C2385 C2381 1.429 . S
C2385 C2386 1.523 . S
C2386 C2370 1.368 . S
C2386 C2382 1.368 . S
C2386 C2385 1.523 . S
H2387 C2362 0.950 . S
H2388 C2364 0.950 . S
H2389 C2365 0.949 . S
H2390 C2367 0.950 . S
H2391 C2369 0.950 . S
C2392 C2393 1.349 . S
C2392 C2394 1.327 . S
C2392 H2417 0.950 . S
C2393 C2392 1.349 . S
C2393 C2409 1.349 . S
C2394 C2392 1.327 . S
C2394 C2413 1.429 . S
C2394 H2418 0.950 . S
C2395 C2412 1.574 . S
C2395 C2414 1.368 . S
C2395 H2419 0.949 . S
H2396 C2400 0.949 . S
C2397 C2398 1.349 . S
C2397 C2399 1.327 . S
C2397 H2420 0.950 . S
C2398 C2397 1.349 . S
C2398 C2410 1.349 . S
C2399 C2397 1.327 . S
C2399 C2415 1.429 . S
C2399 H2421 0.950 . S
C2400 H2396 0.949 . S
C2400 C2408 1.574 . S
C2400 C2416 1.368 . S
H2401 C2409 0.950 . S
H2402 C2407 0.950 . S
H2403 C2408 0.949 . S
H2404 C2410 0.950 . S
H2405 C2411 0.950 . S
H2406 C2412 0.949 . S
C2407 H2402 0.950 . S
C2407 C2409 1.327 . S
C2407 C2413 1.429 . S
C2408 C2400 1.574 . S
C2408 H2403 0.949 . S
C2408 C2414 1.368 . S
C2409 C2393 1.349 . S
C2409 H2401 0.950 . S
C2409 C2407 1.327 . S
C2410 C2398 1.349 . S
C2410 H2404 0.950 . S
C2410 C2411 1.327 . S
C2411 H2405 0.950 . S
C2411 C2410 1.327 . S
C2411 C2415 1.429 . S
C2412 C2395 1.574 . S
C2412 H2406 0.949 . S
C2412 C2416 1.368 . S
C2413 C2394 1.429 . S
C2413 C2407 1.429 . S
C2413 C2414 1.523 . S
C2414 C2395 1.368 . S
C2414 C2408 1.368 . S
C2414 C2413 1.523 . S
C2415 C2399 1.429 . S
C2415 C2411 1.429 . S
C2415 C2416 1.523 . S
C2416 C2400 1.368 . S
C2416 C2412 1.368 . S
C2416 C2415 1.523 . S
H2417 C2392 0.950 . S
H2418 C2394 0.950 . S
H2419 C2395 0.949 . S
H2420 C2397 0.950 . S
H2421 C2399 0.950 . S
C2422 C2423 1.349 . S
C2422 C2424 1.327 . S
C2422 H2447 0.950 . S
C2423 C2422 1.349 . S
C2423 C2439 1.349 . S
C2424 C2422 1.327 . S
C2424 C2443 1.429 . S
C2424 H2448 0.950 . S
C2425 C2442 1.574 . S
C2425 C2444 1.368 . S
C2425 H2449 0.949 . S
H2426 C2430 0.949 . S
C2427 C2428 1.349 . S
C2427 C2429 1.327 . S
C2427 H2450 0.950 . S
C2428 C2427 1.349 . S
C2428 C2440 1.349 . S
C2429 C2427 1.327 . S
C2429 C2445 1.429 . S
C2429 H2451 0.950 . S
C2430 H2426 0.949 . S
C2430 C2438 1.574 . S
C2430 C2446 1.368 . S
H2431 C2439 0.950 . S
H2432 C2437 0.950 . S
H2433 C2438 0.949 . S
H2434 C2440 0.950 . S
H2435 C2441 0.950 . S
H2436 C2442 0.949 . S
C2437 H2432 0.950 . S
C2437 C2439 1.327 . S
C2437 C2443 1.429 . S
C2438 C2430 1.574 . S
C2438 H2433 0.949 . S
C2438 C2444 1.368 . S
C2439 C2423 1.349 . S
C2439 H2431 0.950 . S
C2439 C2437 1.327 . S
C2440 C2428 1.349 . S
C2440 H2434 0.950 . S
C2440 C2441 1.327 . S
C2441 H2435 0.950 . S
C2441 C2440 1.327 . S
C2441 C2445 1.429 . S
C2442 C2425 1.574 . S
C2442 H2436 0.949 . S
C2442 C2446 1.368 . S
C2443 C2424 1.429 . S
C2443 C2437 1.429 . S
C2443 C2444 1.523 . S
C2444 C2425 1.368 . S
C2444 C2438 1.368 . S
C2444 C2443 1.523 . S
C2445 C2429 1.429 . S
C2445 C2441 1.429 . S
C2445 C2446 1.523 . S
C2446 C2430 1.368 . S
C2446 C2442 1.368 . S
C2446 C2445 1.523 . S
H2447 C2422 0.950 . S
H2448 C2424 0.950 . S
H2449 C2425 0.949 . S
H2450 C2427 0.950 . S
H2451 C2429 0.950 . S
C2452 C2453 1.323 1_655 S
C2452 C2454 1.327 . S
C2452 H2477 0.950 . S
C2453 C2452 1.323 1_455 S
C2453 C2469 1.370 . S
C2454 C2452 1.327 . S
C2454 C2473 1.429 1_655 S
C2454 H2478 0.950 . S
C2455 C2472 1.574 . S
C2455 C2474 1.368 . S
C2455 H2479 0.949 . S
H2456 C2460 0.949 . S
C2457 C2458 1.349 . S
C2457 C2459 1.327 . S
C2457 H2480 0.950 1_556 S
C2458 C2457 1.349 . S
C2458 C2470 1.352 . S
C2459 C2457 1.327 . S
C2459 C2475 1.429 . S
C2459 H2481 0.950 . S
C2460 H2456 0.949 . S
C2460 C2468 1.574 . S
C2460 C2476 1.368 1_655 S
H2461 C2469 0.950 . S
H2462 C2467 0.950 . S
H2463 C2468 0.949 . S
H2464 C2470 0.946 1_655 S
H2465 C2471 0.950 . S
H2466 C2472 0.949 . S
C2467 H2462 0.950 . S
C2467 C2469 1.327 . S
C2467 C2473 1.429 . S
C2468 C2460 1.574 . S
C2468 H2463 0.949 . S
C2468 C2474 1.368 1_655 S
C2469 C2453 1.370 . S
C2469 H2461 0.950 . S
C2469 C2467 1.327 . S
C2470 C2458 1.352 . S
C2470 H2464 0.946 1_455 S
C2470 C2471 1.328 1_455 S
C2471 H2465 0.950 . S
C2471 C2470 1.328 1_655 S
C2471 C2475 1.429 1_655 S
C2472 C2455 1.574 . S
C2472 H2466 0.949 . S
C2472 C2476 1.368 . S
C2473 C2454 1.429 1_455 S
C2473 C2467 1.429 . S
C2473 C2474 1.523 . S
C2474 C2455 1.368 . S
C2474 C2468 1.368 1_455 S
C2474 C2473 1.523 . S
C2475 C2459 1.429 . S
C2475 C2471 1.429 1_455 S
C2475 C2476 1.523 . S
C2476 C2460 1.368 1_455 S
C2476 C2472 1.368 . S
C2476 C2475 1.523 . S
H2477 C2452 0.950 . S
H2478 C2454 0.950 . S
H2479 C2455 0.949 . S
H2480 C2457 0.950 1_554 S
H2481 C2459 0.950 . S
C2482 C2483 1.349 . S
C2482 C2484 1.327 . S
C2482 H2507 0.950 . S
C2483 C2482 1.349 . S
C2483 C2499 1.349 . S
C2484 C2482 1.327 . S
C2484 C2503 1.429 1_455 S
C2484 H2508 0.950 . S
C2485 C2502 1.574 . S
C2485 C2504 1.368 . S
C2485 H2509 0.949 . S
H2486 C2490 0.949 . S
C2487 C2488 1.349 . S
C2487 C2489 1.327 . S
C2487 H2510 0.950 . S
C2488 C2487 1.349 . S
C2488 C2500 1.349 . S
C2489 C2487 1.327 . S
C2489 C2505 1.429 . S
C2489 H2511 0.950 . S
C2490 H2486 0.949 . S
C2490 C2498 1.574 . S
C2490 C2506 1.368 . S
H2491 C2499 0.950 . S
H2492 C2497 0.940 1_655 S
H2493 C2498 0.949 . S
H2494 C2500 0.950 . S
H2495 C2501 0.950 . S
H2496 C2502 0.949 . S
C2497 H2492 0.940 1_455 S
C2497 C2499 1.336 . S
C2497 C2503 1.428 1_455 S
C2498 C2490 1.574 . S
C2498 H2493 0.949 . S
C2498 C2504 1.368 . S
C2499 C2483 1.349 . S
C2499 H2491 0.950 . S
C2499 C2497 1.336 . S
C2500 C2488 1.349 . S
C2500 H2494 0.950 . S
C2500 C2501 1.327 . S
C2501 H2495 0.950 . S
C2501 C2500 1.327 . S
C2501 C2505 1.429 . S
C2502 C2485 1.574 . S
C2502 H2496 0.949 . S
C2502 C2506 1.368 . S
C2503 C2484 1.429 1_655 S
C2503 C2497 1.428 1_655 S
C2503 C2504 1.523 . S
C2504 C2485 1.368 . S
C2504 C2498 1.368 . S
C2504 C2503 1.523 . S
C2505 C2489 1.429 . S
C2505 C2501 1.429 . S
C2505 C2506 1.523 . S
C2506 C2490 1.368 . S
C2506 C2502 1.368 . S
C2506 C2505 1.523 . S
H2507 C2482 0.950 . S
H2508 C2484 0.950 . S
H2509 C2485 0.949 . S
H2510 C2487 0.950 . S
H2511 C2489 0.950 . S
C2512 C2513 1.349 . S
C2512 C2514 1.327 . S
C2512 H2537 0.950 . S
C2513 C2512 1.349 . S
C2513 C2529 1.349 . S
C2514 C2512 1.327 . S
C2514 C2533 1.429 . S
C2514 H2538 0.950 . S
C2515 C2532 1.574 . S
C2515 C2534 1.368 . S
C2515 H2539 0.949 . S
H2516 C2520 0.949 . S
C2517 C2518 1.349 . S
C2517 C2519 1.327 . S
C2517 H2540 0.950 . S
C2518 C2517 1.349 . S
C2518 C2530 1.349 . S
C2519 C2517 1.327 . S
C2519 C2535 1.429 . S
C2519 H2541 0.950 . S
C2520 H2516 0.949 . S
C2520 C2528 1.574 . S
C2520 C2536 1.368 . S
H2521 C2529 0.950 . S
H2522 C2527 0.950 . S
H2523 C2528 0.949 . S
H2524 C2530 0.950 . S
H2525 C2531 0.950 . S
H2526 C2532 0.949 . S
C2527 H2522 0.950 . S
C2527 C2529 1.327 . S
C2527 C2533 1.429 . S
C2528 C2520 1.574 . S
C2528 H2523 0.949 . S
C2528 C2534 1.368 . S
C2529 C2513 1.349 . S
C2529 H2521 0.950 . S
C2529 C2527 1.327 . S
C2530 C2518 1.349 . S
C2530 H2524 0.950 . S
C2530 C2531 1.327 . S
C2531 H2525 0.950 . S
C2531 C2530 1.327 . S
C2531 C2535 1.429 . S
C2532 C2515 1.574 . S
C2532 H2526 0.949 . S
C2532 C2536 1.368 . S
C2533 C2514 1.429 . S
C2533 C2527 1.429 . S
C2533 C2534 1.523 . S
C2534 C2515 1.368 . S
C2534 C2528 1.368 . S
C2534 C2533 1.523 . S
C2535 C2519 1.429 . S
C2535 C2531 1.429 . S
C2535 C2536 1.523 . S
C2536 C2520 1.368 . S
C2536 C2532 1.368 . S
C2536 C2535 1.523 . S
H2537 C2512 0.950 . S
H2538 C2514 0.950 . S
H2539 C2515 0.949 . S
H2540 C2517 0.950 . S
H2541 C2519 0.950 . S
C2542 C2543 1.349 . S
C2542 C2544 1.327 . S
C2542 H2567 0.950 . S
C2543 C2542 1.349 . S
C2543 C2559 1.349 . S
C2544 C2542 1.327 . S
C2544 C2563 1.429 . S
C2544 H2568 0.950 . S
C2545 C2562 1.574 . S
C2545 C2564 1.368 . S
C2545 H2569 0.949 . S
H2546 C2550 0.949 . S
C2547 C2548 1.349 . S
C2547 C2549 1.327 . S
C2547 H2570 0.950 . S
C2548 C2547 1.349 . S
C2548 C2560 1.349 . S
C2549 C2547 1.327 . S
C2549 C2565 1.429 . S
C2549 H2571 0.950 . S
C2550 H2546 0.949 . S
C2550 C2558 1.574 . S
C2550 C2566 1.368 . S
H2551 C2559 0.950 . S
H2552 C2557 0.950 . S
H2553 C2558 0.949 . S
H2554 C2560 0.950 . S
H2555 C2561 0.950 . S
H2556 C2562 0.949 . S
C2557 H2552 0.950 . S
C2557 C2559 1.327 . S
C2557 C2563 1.429 . S
C2558 C2550 1.574 . S
C2558 H2553 0.949 . S
C2558 C2564 1.368 . S
C2559 C2543 1.349 . S
C2559 H2551 0.950 . S
C2559 C2557 1.327 . S
C2560 C2548 1.349 . S
C2560 H2554 0.950 . S
C2560 C2561 1.327 . S
C2561 H2555 0.950 . S
C2561 C2560 1.327 . S
C2561 C2565 1.429 . S
C2562 C2545 1.574 . S
C2562 H2556 0.949 . S
C2562 C2566 1.368 . S
C2563 C2544 1.429 . S
C2563 C2557 1.429 . S
C2563 C2564 1.523 . S
C2564 C2545 1.368 . S
C2564 C2558 1.368 . S
C2564 C2563 1.523 . S
C2565 C2549 1.429 . S
C2565 C2561 1.429 . S
C2565 C2566 1.523 . S
C2566 C2550 1.368 . S
C2566 C2562 1.368 . S
C2566 C2565 1.523 . S
H2567 C2542 0.950 . S
H2568 C2544 0.950 . S
H2569 C2545 0.949 . S
H2570 C2547 0.950 . S
H2571 C2549 0.950 . S
C2572 C2573 1.349 . S
C2572 C2574 1.327 . S
C2572 H2597 0.950 . S
C2573 C2572 1.349 . S
C2573 C2589 1.349 . S
C2574 C2572 1.327 . S
C2574 C2593 1.429 . S
C2574 H2598 0.950 . S
C2575 C2592 1.574 . S
C2575 C2594 1.368 . S
C2575 H2599 0.948 1_455 S
H2576 C2580 0.949 . S
C2577 C2578 1.349 . S
C2577 C2579 1.327 . S
C2577 H2600 0.950 1_455 S
C2578 C2577 1.349 . S
C2578 C2590 1.349 . S
C2579 C2577 1.327 . S
C2579 C2595 1.429 . S
C2579 H2601 0.950 1_455 S
C2580 H2576 0.949 . S
C2580 C2588 1.574 . S
C2580 C2596 1.368 . S
H2581 C2589 0.950 . S
H2582 C2587 0.985 . S
H2583 C2588 0.949 . S
H2584 C2590 0.950 . S
H2585 C2591 0.950 . S
H2586 C2592 0.949 1_655 S
C2587 H2582 0.985 . S
C2587 C2589 1.327 . S
C2587 C2593 1.429 . S
C2588 C2580 1.574 . S
C2588 H2583 0.949 . S
C2588 C2594 1.368 . S
C2589 C2573 1.349 . S
C2589 H2581 0.950 . S
C2589 C2587 1.327 . S
C2590 C2578 1.349 . S
C2590 H2584 0.950 . S
C2590 C2591 1.327 . S
C2591 H2585 0.950 . S
C2591 C2590 1.327 . S
C2591 C2595 1.429 . S
C2592 C2575 1.574 . S
C2592 H2586 0.949 1_455 S
C2592 C2596 1.368 . S
C2593 C2574 1.429 . S
C2593 C2587 1.429 . S
C2593 C2594 1.523 . S
C2594 C2575 1.368 . S
C2594 C2588 1.368 . S
C2594 C2593 1.523 . S
C2595 C2579 1.429 . S
C2595 C2591 1.429 . S
C2595 C2596 1.523 . S
C2596 C2580 1.368 . S
C2596 C2592 1.368 . S
C2596 C2595 1.523 . S
H2597 C2572 0.950 . S
H2598 C2574 0.950 . S
H2599 C2575 0.948 1_655 S
H2600 C2577 0.950 1_655 S
H2601 C2579 0.950 1_655 S
C2602 C2603 1.349 . S
C2602 C2604 1.327 . S
C2602 H2627 0.950 . S
C2603 C2602 1.349 . S
C2603 C2619 1.349 . S
C2604 C2602 1.327 . S
C2604 C2623 1.429 . S
C2604 H2628 0.950 . S
C2605 C2622 1.574 . S
C2605 C2624 1.368 . S
C2605 H2629 0.949 . S
H2606 C2610 0.949 . S
C2607 C2608 1.349 . S
C2607 C2609 1.327 . S
C2607 H2630 0.950 . S
C2608 C2607 1.349 . S
C2608 C2620 1.349 . S
C2609 C2607 1.327 . S
C2609 C2625 1.429 . S
C2609 H2631 0.950 . S
C2610 H2606 0.949 . S
C2610 C2618 1.574 . S
C2610 C2626 1.368 . S
H2611 C2619 0.950 . S
H2612 C2617 0.950 . S
H2613 C2618 0.949 . S
H2614 C2620 0.950 . S
H2615 C2621 0.950 . S
H2616 C2622 0.949 . S
C2617 H2612 0.950 . S
C2617 C2619 1.327 . S
C2617 C2623 1.429 . S
C2618 C2610 1.574 . S
C2618 H2613 0.949 . S
C2618 C2624 1.368 . S
C2619 C2603 1.349 . S
C2619 H2611 0.950 . S
C2619 C2617 1.327 . S
C2620 C2608 1.349 . S
C2620 H2614 0.950 . S
C2620 C2621 1.327 . S
C2621 H2615 0.950 . S
C2621 C2620 1.327 . S
C2621 C2625 1.429 . S
C2622 C2605 1.574 . S
C2622 H2616 0.949 . S
C2622 C2626 1.368 . S
C2623 C2604 1.429 . S
C2623 C2617 1.429 . S
C2623 C2624 1.523 . S
C2624 C2605 1.368 . S
C2624 C2618 1.368 . S
C2624 C2623 1.523 . S
C2625 C2609 1.429 . S
C2625 C2621 1.429 . S
C2625 C2626 1.523 . S
C2626 C2610 1.368 . S
C2626 C2622 1.368 . S
C2626 C2625 1.523 . S
H2627 C2602 0.950 . S
H2628 C2604 0.950 . S
H2629 C2605 0.949 . S
H2630 C2607 0.950 . S
H2631 C2609 0.950 . S
C2632 C2633 1.349 . S
C2632 C2634 1.327 . S
C2632 H2657 0.950 . S
C2633 C2632 1.349 . S
C2633 C2649 1.349 . S
C2634 C2632 1.327 . S
C2634 C2653 1.429 . S
C2634 H2658 0.950 . S
C2635 C2652 1.574 . S
C2635 C2654 1.368 . S
C2635 H2659 0.949 . S
H2636 C2640 0.949 . S
C2637 C2638 1.349 . S
C2637 C2639 1.327 . S
C2637 H2660 0.950 . S
C2638 C2637 1.349 . S
C2638 C2650 1.349 . S
C2639 C2637 1.327 . S
C2639 C2655 1.429 . S
C2639 H2661 0.950 . S
C2640 H2636 0.949 . S
C2640 C2648 1.574 . S
C2640 C2656 1.368 . S
H2641 C2649 0.950 . S
H2642 C2647 0.950 . S
H2643 C2648 0.949 . S
H2644 C2650 0.950 . S
H2645 C2651 0.950 . S
H2646 C2652 0.949 . S
C2647 H2642 0.950 . S
C2647 C2649 1.327 . S
C2647 C2653 1.429 . S
C2648 C2640 1.574 . S
C2648 H2643 0.949 . S
C2648 C2654 1.368 . S
C2649 C2633 1.349 . S
C2649 H2641 0.950 . S
C2649 C2647 1.327 . S
C2650 C2638 1.349 . S
C2650 H2644 0.950 . S
C2650 C2651 1.327 . S
C2651 H2645 0.950 . S
C2651 C2650 1.327 . S
C2651 C2655 1.429 . S
C2652 C2635 1.574 . S
C2652 H2646 0.949 . S
C2652 C2656 1.368 . S
C2653 C2634 1.429 . S
C2653 C2647 1.429 . S
C2653 C2654 1.523 . S
C2654 C2635 1.368 . S
C2654 C2648 1.368 . S
C2654 C2653 1.523 . S
C2655 C2639 1.429 . S
C2655 C2651 1.429 . S
C2655 C2656 1.523 . S
C2656 C2640 1.368 . S
C2656 C2652 1.368 . S
C2656 C2655 1.523 . S
H2657 C2632 0.950 . S
H2658 C2634 0.950 . S
H2659 C2635 0.949 . S
H2660 C2637 0.950 . S
H2661 C2639 0.950 . S
C2662 C2663 1.349 . S
C2662 C2664 1.327 . S
C2662 H2687 0.950 . S
C2663 C2662 1.349 . S
C2663 C2679 1.349 . S
C2664 C2662 1.327 . S
C2664 C2683 1.429 . S
C2664 H2688 0.950 . S
C2665 C2682 1.574 . S
C2665 C2684 1.368 . S
C2665 H2689 0.949 . S
H2666 C2670 0.949 . S
C2667 C2668 1.349 . S
C2667 C2669 1.327 . S
C2667 H2690 0.950 . S
C2668 C2667 1.349 . S
C2668 C2680 1.349 . S
C2669 C2667 1.327 . S
C2669 C2685 1.429 . S
C2669 H2691 0.950 . S
C2670 H2666 0.949 . S
C2670 C2678 1.574 . S
C2670 C2686 1.368 . S
H2671 C2679 0.950 . S
H2672 C2677 0.950 . S
H2673 C2678 0.949 . S
H2674 C2680 0.950 . S
H2675 C2681 0.950 . S
H2676 C2682 0.949 . S
C2677 H2672 0.950 . S
C2677 C2679 1.327 . S
C2677 C2683 1.429 . S
C2678 C2670 1.574 . S
C2678 H2673 0.949 . S
C2678 C2684 1.368 . S
C2679 C2663 1.349 . S
C2679 H2671 0.950 . S
C2679 C2677 1.327 . S
C2680 C2668 1.349 . S
C2680 H2674 0.950 . S
C2680 C2681 1.327 . S
C2681 H2675 0.950 . S
C2681 C2680 1.327 . S
C2681 C2685 1.429 . S
C2682 C2665 1.574 . S
C2682 H2676 0.949 . S
C2682 C2686 1.368 . S
C2683 C2664 1.429 . S
C2683 C2677 1.429 . S
C2683 C2684 1.523 . S
C2684 C2665 1.368 . S
C2684 C2678 1.368 . S
C2684 C2683 1.523 . S
C2685 C2669 1.429 . S
C2685 C2681 1.429 . S
C2685 C2686 1.523 . S
C2686 C2670 1.368 . S
C2686 C2682 1.368 . S
C2686 C2685 1.523 . S
H2687 C2662 0.950 . S
H2688 C2664 0.950 . S
H2689 C2665 0.949 . S
H2690 C2667 0.950 . S
H2691 C2669 0.950 . S
C2692 C2693 1.349 . S
C2692 C2694 1.327 . S
C2692 H2717 0.950 . S
C2693 C2692 1.349 . S
C2693 C2709 1.349 . S
C2694 C2692 1.327 . S
C2694 C2713 1.429 . S
C2694 H2718 0.950 . S
C2695 C2712 1.574 . S
C2695 C2714 1.368 . S
C2695 H2719 0.949 . S
H2696 C2700 0.949 . S
C2697 C2698 1.349 . S
C2697 C2699 1.327 . S
C2697 H2720 0.950 . S
C2698 C2697 1.349 . S
C2698 C2710 1.349 . S
C2699 C2697 1.327 . S
C2699 C2715 1.429 . S
C2699 H2721 0.950 . S
C2700 H2696 0.949 . S
C2700 C2708 1.574 . S
C2700 C2716 1.368 . S
H2701 C2709 0.950 . S
H2702 C2707 0.950 . S
H2703 C2708 0.949 . S
H2704 C2710 0.950 . S
H2705 C2711 0.950 . S
H2706 C2712 0.949 . S
C2707 H2702 0.950 . S
C2707 C2709 1.327 . S
C2707 C2713 1.429 . S
C2708 C2700 1.574 . S
C2708 H2703 0.949 . S
C2708 C2714 1.368 . S
C2709 C2693 1.349 . S
C2709 H2701 0.950 . S
C2709 C2707 1.327 . S
C2710 C2698 1.349 . S
C2710 H2704 0.950 . S
C2710 C2711 1.327 . S
C2711 H2705 0.950 . S
C2711 C2710 1.327 . S
C2711 C2715 1.429 . S
C2712 C2695 1.574 . S
C2712 H2706 0.949 . S
C2712 C2716 1.368 . S
C2713 C2694 1.429 . S
C2713 C2707 1.429 . S
C2713 C2714 1.523 . S
C2714 C2695 1.368 . S
C2714 C2708 1.368 . S
C2714 C2713 1.523 . S
C2715 C2699 1.429 . S
C2715 C2711 1.429 . S
C2715 C2716 1.523 . S
C2716 C2700 1.368 . S
C2716 C2712 1.368 . S
C2716 C2715 1.523 . S
H2717 C2692 0.950 . S
H2718 C2694 0.950 . S
H2719 C2695 0.949 . S
H2720 C2697 0.950 . S
H2721 C2699 0.950 . S
C2722 C2723 1.349 . S
C2722 C2724 1.327 . S
C2722 H2747 0.950 . S
C2723 C2722 1.349 . S
C2723 C2739 1.349 . S
C2724 C2722 1.327 . S
C2724 C2743 1.429 . S
C2724 H2748 0.950 . S
C2725 C2742 1.574 . S
C2725 C2744 1.368 . S
C2725 H2749 0.949 . S
H2726 C2730 0.949 . S
C2727 C2728 1.349 . S
C2727 C2729 1.327 . S
C2727 H2750 0.950 . S
C2728 C2727 1.349 . S
C2728 C2740 1.349 . S
C2729 C2727 1.327 . S
C2729 C2745 1.429 . S
C2729 H2751 0.950 . S
C2730 H2726 0.949 . S
C2730 C2738 1.574 . S
C2730 C2746 1.368 . S
H2731 C2739 0.950 . S
H2732 C2737 0.950 . S
H2733 C2738 0.949 . S
H2734 C2740 0.950 . S
H2735 C2741 0.950 . S
H2736 C2742 0.949 . S
C2737 H2732 0.950 . S
C2737 C2739 1.327 . S
C2737 C2743 1.429 . S
C2738 C2730 1.574 . S
C2738 H2733 0.949 . S
C2738 C2744 1.368 . S
C2739 C2723 1.349 . S
C2739 H2731 0.950 . S
C2739 C2737 1.327 . S
C2740 C2728 1.349 . S
C2740 H2734 0.950 . S
C2740 C2741 1.327 . S
C2741 H2735 0.950 . S
C2741 C2740 1.327 . S
C2741 C2745 1.429 . S
C2742 C2725 1.574 . S
C2742 H2736 0.949 . S
C2742 C2746 1.368 . S
C2743 C2724 1.429 . S
C2743 C2737 1.429 . S
C2743 C2744 1.523 . S
C2744 C2725 1.368 . S
C2744 C2738 1.368 . S
C2744 C2743 1.523 . S
C2745 C2729 1.429 . S
C2745 C2741 1.429 . S
C2745 C2746 1.523 . S
C2746 C2730 1.368 . S
C2746 C2742 1.368 . S
C2746 C2745 1.523 . S
H2747 C2722 0.950 . S
H2748 C2724 0.950 . S
H2749 C2725 0.949 . S
H2750 C2727 0.950 . S
H2751 C2729 0.950 . S
C2752 C2753 1.349 . S
C2752 C2754 1.327 . S
C2752 H2777 0.950 . S
C2753 C2752 1.349 . S
C2753 C2769 1.349 . S
C2754 C2752 1.327 . S
C2754 C2773 1.429 . S
C2754 H2778 0.950 . S
C2755 C2772 1.574 . S
C2755 C2774 1.368 . S
C2755 H2779 0.949 . S
H2756 C2760 0.949 . S
C2757 C2758 1.349 . S
C2757 C2759 1.327 . S
C2757 H2780 0.950 . S
C2758 C2757 1.349 . S
C2758 C2770 1.349 . S
C2759 C2757 1.327 . S
C2759 C2775 1.429 . S
C2759 H2781 0.950 . S
C2760 H2756 0.949 . S
C2760 C2768 1.574 . S
C2760 C2776 1.368 . S
H2761 C2769 0.950 . S
H2762 C2767 0.950 . S
H2763 C2768 0.949 . S
H2764 C2770 0.950 . S
H2765 C2771 0.950 . S
H2766 C2772 0.949 . S
C2767 H2762 0.950 . S
C2767 C2769 1.327 . S
C2767 C2773 1.429 . S
C2768 C2760 1.574 . S
C2768 H2763 0.949 . S
C2768 C2774 1.368 . S
C2769 C2753 1.349 . S
C2769 H2761 0.950 . S
C2769 C2767 1.327 . S
C2770 C2758 1.349 . S
C2770 H2764 0.950 . S
C2770 C2771 1.327 . S
C2771 H2765 0.950 . S
C2771 C2770 1.327 . S
C2771 C2775 1.429 . S
C2772 C2755 1.574 . S
C2772 H2766 0.949 . S
C2772 C2776 1.368 . S
C2773 C2754 1.429 . S
C2773 C2767 1.429 . S
C2773 C2774 1.523 . S
C2774 C2755 1.368 . S
C2774 C2768 1.368 . S
C2774 C2773 1.523 . S
C2775 C2759 1.429 . S
C2775 C2771 1.429 . S
C2775 C2776 1.523 . S
C2776 C2760 1.368 . S
C2776 C2772 1.368 . S
C2776 C2775 1.523 . S
H2777 C2752 0.950 . S
H2778 C2754 0.950 . S
H2779 C2755 0.949 . S
H2780 C2757 0.950 . S
H2781 C2759 0.950 . S
C2782 C2783 1.349 . S
C2782 C2784 1.327 . S
C2782 H2807 0.950 . S
C2783 C2782 1.349 . S
C2783 C2799 1.349 . S
C2784 C2782 1.327 . S
C2784 C2803 1.429 . S
C2784 H2808 0.950 . S
C2785 C2802 1.574 . S
C2785 C2804 1.368 . S
C2785 H2809 0.949 . S
H2786 C2790 0.949 . S
C2787 C2788 1.349 . S
C2787 C2789 1.327 . S
C2787 H2810 0.950 . S
C2788 C2787 1.349 . S
C2788 C2800 1.349 . S
C2789 C2787 1.327 . S
C2789 C2805 1.429 . S
C2789 H2811 0.950 . S
C2790 H2786 0.949 . S
C2790 C2798 1.574 . S
C2790 C2806 1.368 . S
H2791 C2799 0.950 . S
H2792 C2797 0.950 . S
H2793 C2798 0.949 . S
H2794 C2800 0.950 . S
H2795 C2801 0.950 . S
H2796 C2802 0.949 . S
C2797 H2792 0.950 . S
C2797 C2799 1.327 . S
C2797 C2803 1.429 . S
C2798 C2790 1.574 . S
C2798 H2793 0.949 . S
C2798 C2804 1.368 . S
C2799 C2783 1.349 . S
C2799 H2791 0.950 . S
C2799 C2797 1.327 . S
C2800 C2788 1.349 . S
C2800 H2794 0.950 . S
C2800 C2801 1.327 . S
C2801 H2795 0.950 . S
C2801 C2800 1.327 . S
C2801 C2805 1.429 . S
C2802 C2785 1.574 . S
C2802 H2796 0.949 . S
C2802 C2806 1.368 . S
C2803 C2784 1.429 . S
C2803 C2797 1.429 . S
C2803 C2804 1.523 . S
C2804 C2785 1.368 . S
C2804 C2798 1.368 . S
C2804 C2803 1.523 . S
C2805 C2789 1.429 . S
C2805 C2801 1.429 . S
C2805 C2806 1.523 . S
C2806 C2790 1.368 . S
C2806 C2802 1.368 . S
C2806 C2805 1.523 . S
H2807 C2782 0.950 . S
H2808 C2784 0.950 . S
H2809 C2785 0.949 . S
H2810 C2787 0.950 . S
H2811 C2789 0.950 . S
C2812 C2813 1.349 . S
C2812 C2814 1.327 . S
C2812 H2837 0.950 . S
C2813 C2812 1.349 . S
C2813 C2829 1.349 . S
C2814 C2812 1.327 . S
C2814 C2833 1.429 . S
C2814 H2838 0.950 . S
C2815 C2832 1.574 . S
C2815 C2834 1.368 . S
C2815 H2839 0.949 . S
H2816 C2820 0.949 . S
C2817 C2818 1.349 . S
C2817 C2819 1.327 . S
C2817 H2840 0.950 . S
C2818 C2817 1.349 . S
C2818 C2830 1.349 . S
C2819 C2817 1.327 . S
C2819 C2835 1.429 . S
C2819 H2841 0.950 . S
C2820 H2816 0.949 . S
C2820 C2828 1.574 . S
C2820 C2836 1.368 . S
H2821 C2829 0.950 . S
H2822 C2827 0.950 . S
H2823 C2828 0.949 . S
H2824 C2830 0.950 . S
H2825 C2831 0.950 . S
H2826 C2832 0.949 . S
C2827 H2822 0.950 . S
C2827 C2829 1.327 . S
C2827 C2833 1.429 . S
C2828 C2820 1.574 . S
C2828 H2823 0.949 . S
C2828 C2834 1.368 . S
C2829 C2813 1.349 . S
C2829 H2821 0.950 . S
C2829 C2827 1.327 . S
C2830 C2818 1.349 . S
C2830 H2824 0.950 . S
C2830 C2831 1.327 . S
C2831 H2825 0.950 . S
C2831 C2830 1.327 . S
C2831 C2835 1.429 . S
C2832 C2815 1.574 . S
C2832 H2826 0.949 . S
C2832 C2836 1.368 . S
C2833 C2814 1.429 . S
C2833 C2827 1.429 . S
C2833 C2834 1.523 . S
C2834 C2815 1.368 . S
C2834 C2828 1.368 . S
C2834 C2833 1.523 . S
C2835 C2819 1.429 . S
C2835 C2831 1.429 . S
C2835 C2836 1.523 . S
C2836 C2820 1.368 . S
C2836 C2832 1.368 . S
C2836 C2835 1.523 . S
H2837 C2812 0.950 . S
H2838 C2814 0.950 . S
H2839 C2815 0.949 . S
H2840 C2817 0.950 . S
H2841 C2819 0.950 . S
C2842 C2843 1.349 . S
C2842 C2844 1.327 . S
C2842 H2867 0.950 . S
C2843 C2842 1.349 . S
C2843 C2859 1.349 . S
C2844 C2842 1.327 . S
C2844 C2863 1.429 . S
C2844 H2868 0.950 . S
C2845 C2862 1.574 . S
C2845 C2864 1.368 . S
C2845 H2869 0.949 . S
H2846 C2850 0.949 . S
C2847 C2848 1.349 . S
C2847 C2849 1.327 . S
C2847 H2870 0.950 . S
C2848 C2847 1.349 . S
C2848 C2860 1.349 . S
C2849 C2847 1.327 . S
C2849 C2865 1.429 . S
C2849 H2871 0.950 . S
C2850 H2846 0.949 . S
C2850 C2858 1.574 . S
C2850 C2866 1.368 . S
H2851 C2859 0.950 . S
H2852 C2857 0.950 . S
H2853 C2858 0.949 . S
H2854 C2860 0.950 . S
H2855 C2861 0.950 . S
H2856 C2862 0.949 . S
C2857 H2852 0.950 . S
C2857 C2859 1.327 . S
C2857 C2863 1.429 . S
C2858 C2850 1.574 . S
C2858 H2853 0.949 . S
C2858 C2864 1.368 . S
C2859 C2843 1.349 . S
C2859 H2851 0.950 . S
C2859 C2857 1.327 . S
C2860 C2848 1.349 . S
C2860 H2854 0.950 . S
C2860 C2861 1.327 . S
C2861 H2855 0.950 . S
C2861 C2860 1.327 . S
C2861 C2865 1.429 . S
C2862 C2845 1.574 . S
C2862 H2856 0.949 . S
C2862 C2866 1.368 . S
C2863 C2844 1.429 . S
C2863 C2857 1.429 . S
C2863 C2864 1.523 . S
C2864 C2845 1.368 . S
C2864 C2858 1.368 . S
C2864 C2863 1.523 . S
C2865 C2849 1.429 . S
C2865 C2861 1.429 . S
C2865 C2866 1.523 . S
C2866 C2850 1.368 . S
C2866 C2862 1.368 . S
C2866 C2865 1.523 . S
H2867 C2842 0.950 . S
H2868 C2844 0.950 . S
H2869 C2845 0.949 . S
H2870 C2847 0.950 . S
H2871 C2849 0.950 . S
C2872 C2873 1.349 . S
C2872 C2874 1.327 . S
C2872 H2897 0.950 . S
C2873 C2872 1.349 . S
C2873 C2889 1.349 . S
C2874 C2872 1.327 . S
C2874 C2893 1.429 . S
C2874 H2898 0.950 . S
C2875 C2892 1.574 . S
C2875 C2894 1.368 . S
C2875 H2899 0.949 . S
H2876 C2880 0.949 . S
C2877 C2878 1.349 . S
C2877 C2879 1.327 . S
C2877 H2900 0.950 . S
C2878 C2877 1.349 . S
C2878 C2890 1.349 . S
C2879 C2877 1.327 . S
C2879 C2895 1.429 . S
C2879 H2901 0.950 . S
C2880 H2876 0.949 . S
C2880 C2888 1.574 . S
C2880 C2896 1.368 . S
H2881 C2889 0.950 . S
H2882 C2887 0.950 . S
H2883 C2888 0.949 . S
H2884 C2890 0.950 . S
H2885 C2891 0.950 . S
H2886 C2892 0.949 . S
C2887 H2882 0.950 . S
C2887 C2889 1.327 . S
C2887 C2893 1.429 . S
C2888 C2880 1.574 . S
C2888 H2883 0.949 . S
C2888 C2894 1.368 . S
C2889 C2873 1.349 . S
C2889 H2881 0.950 . S
C2889 C2887 1.327 . S
C2890 C2878 1.349 . S
C2890 H2884 0.950 . S
C2890 C2891 1.327 . S
C2891 H2885 0.950 . S
C2891 C2890 1.327 . S
C2891 C2895 1.429 . S
C2892 C2875 1.574 . S
C2892 H2886 0.949 . S
C2892 C2896 1.368 . S
C2893 C2874 1.429 . S
C2893 C2887 1.429 . S
C2893 C2894 1.523 . S
C2894 C2875 1.368 . S
C2894 C2888 1.368 . S
C2894 C2893 1.523 . S
C2895 C2879 1.429 . S
C2895 C2891 1.429 . S
C2895 C2896 1.523 . S
C2896 C2880 1.368 . S
C2896 C2892 1.368 . S
C2896 C2895 1.523 . S
H2897 C2872 0.950 . S
H2898 C2874 0.950 . S
H2899 C2875 0.949 . S
H2900 C2877 0.950 . S
H2901 C2879 0.950 . S
C2902 C2903 1.349 . S
C2902 C2904 1.327 . S
C2902 H2927 0.950 . S
C2903 C2902 1.349 . S
C2903 C2919 1.349 . S
C2904 C2902 1.327 . S
C2904 C2923 1.429 . S
C2904 H2928 0.950 . S
C2905 C2922 1.574 . S
C2905 C2924 1.368 . S
C2905 H2929 0.949 . S
H2906 C2910 0.949 . S
C2907 C2908 1.349 . S
C2907 C2909 1.327 . S
C2907 H2930 0.950 . S
C2908 C2907 1.349 . S
C2908 C2920 1.349 . S
C2909 C2907 1.327 . S
C2909 C2925 1.429 . S
C2909 H2931 0.950 . S
C2910 H2906 0.949 . S
C2910 C2918 1.574 . S
C2910 C2926 1.368 . S
H2911 C2919 0.950 . S
H2912 C2917 0.950 . S
H2913 C2918 0.949 . S
H2914 C2920 0.950 . S
H2915 C2921 0.950 . S
H2916 C2922 0.949 . S
C2917 H2912 0.950 . S
C2917 C2919 1.327 . S
C2917 C2923 1.429 . S
C2918 C2910 1.574 . S
C2918 H2913 0.949 . S
C2918 C2924 1.368 . S
C2919 C2903 1.349 . S
C2919 H2911 0.950 . S
C2919 C2917 1.327 . S
C2920 C2908 1.349 . S
C2920 H2914 0.950 . S
C2920 C2921 1.327 . S
C2921 H2915 0.950 . S
C2921 C2920 1.327 . S
C2921 C2925 1.429 . S
C2922 C2905 1.574 . S
C2922 H2916 0.949 . S
C2922 C2926 1.368 . S
C2923 C2904 1.429 . S
C2923 C2917 1.429 . S
C2923 C2924 1.523 . S
C2924 C2905 1.368 . S
C2924 C2918 1.368 . S
C2924 C2923 1.523 . S
C2925 C2909 1.429 . S
C2925 C2921 1.429 . S
C2925 C2926 1.523 . S
C2926 C2910 1.368 . S
C2926 C2922 1.368 . S
C2926 C2925 1.523 . S
H2927 C2902 0.950 . S
H2928 C2904 0.950 . S
H2929 C2905 0.949 . S
H2930 C2907 0.950 . S
H2931 C2909 0.950 . S
C2932 C2933 1.349 1_565 S
C2932 C2934 1.327 . S
C2932 H2957 0.950 . S
C2933 C2932 1.349 1_545 S
C2933 C2949 1.349 . S
C2934 C2932 1.327 . S
C2934 C2953 1.429 . S
C2934 H2958 0.950 . S
C2935 C2952 1.574 . S
C2935 C2954 1.368 . S
C2935 H2959 0.949 . S
H2936 C2940 0.949 . S
C2937 C2938 1.349 . S
C2937 C2939 1.327 . S
C2937 H2960 0.950 . S
C2938 C2937 1.349 . S
C2938 C2950 1.349 . S
C2939 C2937 1.327 . S
C2939 C2955 1.429 . S
C2939 H2961 0.950 . S
C2940 H2936 0.949 . S
C2940 C2948 1.574 . S
C2940 C2956 1.368 . S
H2941 C2949 0.950 . S
H2942 C2947 0.950 . S
H2943 C2948 0.949 . S
H2944 C2950 0.950 . S
H2945 C2951 0.950 . S
H2946 C2952 0.949 . S
C2947 H2942 0.950 . S
C2947 C2949 1.327 1_565 S
C2947 C2953 1.429 . S
C2948 C2940 1.574 . S
C2948 H2943 0.949 . S
C2948 C2954 1.368 . S
C2949 C2933 1.349 . S
C2949 H2941 0.950 . S
C2949 C2947 1.327 1_545 S
C2950 C2938 1.349 . S
C2950 H2944 0.950 . S
C2950 C2951 1.327 . S
C2951 H2945 0.950 . S
C2951 C2950 1.327 . S
C2951 C2955 1.429 . S
C2952 C2935 1.574 . S
C2952 H2946 0.949 . S
C2952 C2956 1.368 . S
C2953 C2934 1.429 . S
C2953 C2947 1.429 . S
C2953 C2954 1.523 . S
C2954 C2935 1.368 . S
C2954 C2948 1.368 . S
C2954 C2953 1.523 . S
C2955 C2939 1.429 . S
C2955 C2951 1.429 . S
C2955 C2956 1.523 . S
C2956 C2940 1.368 . S
C2956 C2952 1.368 . S
C2956 C2955 1.523 . S
H2957 C2932 0.950 . S
H2958 C2934 0.950 . S
H2959 C2935 0.949 . S
H2960 C2937 0.950 . S
H2961 C2939 0.950 . S
C2962 C2963 1.349 . S
C2962 C2964 1.327 . S
C2962 H2987 0.950 . S
C2963 C2962 1.349 . S
C2963 C2979 1.349 . S
C2964 C2962 1.327 . S
C2964 C2983 1.429 . S
C2964 H2988 0.950 . S
C2965 C2982 1.574 . S
C2965 C2984 1.368 . S
C2965 H2989 0.949 . S
H2966 C2970 0.949 . S
C2967 C2968 1.349 . S
C2967 C2969 1.327 1_545 S
C2967 H2990 0.950 1_554 S
C2968 C2967 1.349 . S
C2968 C2980 1.349 . S
C2969 C2967 1.327 1_565 S
C2969 C2985 1.429 . S
C2969 H2991 0.948 . S
C2970 H2966 0.949 . S
C2970 C2978 1.574 . S
C2970 C2986 1.368 . S
H2971 C2979 0.950 . S
H2972 C2977 0.950 . S
H2973 C2978 0.949 . S
H2974 C2980 0.950 . S
H2975 C2981 0.950 . S
H2976 C2982 0.949 . S
C2977 H2972 0.950 . S
C2977 C2979 1.327 . S
C2977 C2983 1.429 . S
C2978 C2970 1.574 . S
C2978 H2973 0.949 . S
C2978 C2984 1.368 . S
C2979 C2963 1.349 . S
C2979 H2971 0.950 . S
C2979 C2977 1.327 . S
C2980 C2968 1.349 . S
C2980 H2974 0.950 . S
C2980 C2981 1.327 1_545 S
C2981 H2975 0.950 . S
C2981 C2980 1.327 1_565 S
C2981 C2985 1.429 . S
C2982 C2965 1.574 . S
C2982 H2976 0.949 . S
C2982 C2986 1.368 . S
C2983 C2964 1.429 . S
C2983 C2977 1.429 . S
C2983 C2984 1.523 . S
C2984 C2965 1.368 . S
C2984 C2978 1.368 . S
C2984 C2983 1.523 . S
C2985 C2969 1.429 . S
C2985 C2981 1.429 . S
C2985 C2986 1.523 . S
C2986 C2970 1.368 . S
C2986 C2982 1.368 . S
C2986 C2985 1.523 . S
H2987 C2962 0.950 . S
H2988 C2964 0.950 . S
H2989 C2965 0.949 . S
H2990 C2967 0.950 1_556 S
H2991 C2969 0.948 . S
C2992 C2993 1.349 . S
C2992 C2994 1.327 . S
C2992 H3017 0.950 . S
C2993 C2992 1.349 . S
C2993 C3009 1.349 . S
C2994 C2992 1.327 . S
C2994 C3013 1.429 . S
C2994 H3018 0.950 . S
C2995 C3012 1.574 . S
C2995 C3014 1.368 . S
C2995 H3019 0.949 . S
H2996 C3000 0.949 . S
C2997 C2998 1.349 . S
C2997 C2999 1.327 . S
C2997 H3020 0.950 . S
C2998 C2997 1.349 . S
C2998 C3010 1.349 . S
C2999 C2997 1.327 . S
C2999 C3015 1.429 . S
C2999 H3021 0.950 . S
C3000 H2996 0.949 . S
C3000 C3008 1.574 . S
C3000 C3016 1.368 . S
H3001 C3009 0.950 . S
H3002 C3007 0.950 . S
H3003 C3008 0.949 . S
H3004 C3010 0.950 . S
H3005 C3011 0.950 . S
H3006 C3012 0.949 . S
C3007 H3002 0.950 . S
C3007 C3009 1.327 . S
C3007 C3013 1.429 . S
C3008 C3000 1.574 . S
C3008 H3003 0.949 . S
C3008 C3014 1.368 . S
C3009 C2993 1.349 . S
C3009 H3001 0.950 . S
C3009 C3007 1.327 . S
C3010 C2998 1.349 . S
C3010 H3004 0.950 . S
C3010 C3011 1.327 . S
C3011 H3005 0.950 . S
C3011 C3010 1.327 . S
C3011 C3015 1.429 . S
C3012 C2995 1.574 . S
C3012 H3006 0.949 . S
C3012 C3016 1.368 . S
C3013 C2994 1.429 . S
C3013 C3007 1.429 . S
C3013 C3014 1.523 . S
C3014 C2995 1.368 . S
C3014 C3008 1.368 . S
C3014 C3013 1.523 . S
C3015 C2999 1.429 . S
C3015 C3011 1.429 . S
C3015 C3016 1.523 . S
C3016 C3000 1.368 . S
C3016 C3012 1.368 . S
C3016 C3015 1.523 . S
H3017 C2992 0.950 . S
H3018 C2994 0.950 . S
H3019 C2995 0.949 . S
H3020 C2997 0.950 . S
H3021 C2999 0.950 . S
C3022 C3023 1.349 . S
C3022 C3024 1.327 . S
C3022 H3047 0.950 . S
C3023 C3022 1.349 . S
C3023 C3039 1.349 . S
C3024 C3022 1.327 . S
C3024 C3043 1.429 . S
C3024 H3048 0.950 . S
C3025 C3042 1.574 . S
C3025 C3044 1.368 . S
C3025 H3049 0.949 . S
H3026 C3030 0.949 . S
C3027 C3028 1.349 . S
C3027 C3029 1.327 . S
C3027 H3050 0.950 . S
C3028 C3027 1.349 . S
C3028 C3040 1.349 . S
C3029 C3027 1.327 . S
C3029 C3045 1.429 . S
C3029 H3051 0.950 . S
C3030 H3026 0.949 . S
C3030 C3038 1.574 . S
C3030 C3046 1.368 . S
H3031 C3039 0.950 . S
H3032 C3037 0.950 . S
H3033 C3038 0.949 . S
H3034 C3040 0.950 . S
H3035 C3041 0.950 . S
H3036 C3042 0.949 . S
C3037 H3032 0.950 . S
C3037 C3039 1.327 . S
C3037 C3043 1.429 . S
C3038 C3030 1.574 . S
C3038 H3033 0.949 . S
C3038 C3044 1.368 . S
C3039 C3023 1.349 . S
C3039 H3031 0.950 . S
C3039 C3037 1.327 . S
C3040 C3028 1.349 . S
C3040 H3034 0.950 . S
C3040 C3041 1.327 . S
C3041 H3035 0.950 . S
C3041 C3040 1.327 . S
C3041 C3045 1.429 . S
C3042 C3025 1.574 . S
C3042 H3036 0.949 . S
C3042 C3046 1.368 . S
C3043 C3024 1.429 . S
C3043 C3037 1.429 . S
C3043 C3044 1.523 . S
C3044 C3025 1.368 . S
C3044 C3038 1.368 . S
C3044 C3043 1.523 . S
C3045 C3029 1.429 . S
C3045 C3041 1.429 . S
C3045 C3046 1.523 . S
C3046 C3030 1.368 . S
C3046 C3042 1.368 . S
C3046 C3045 1.523 . S
H3047 C3022 0.950 . S
H3048 C3024 0.950 . S
H3049 C3025 0.949 . S
H3050 C3027 0.950 . S
H3051 C3029 0.950 . S
C3052 C3053 1.349 . S
C3052 C3054 1.327 . S
C3052 H3077 0.950 . S
C3053 C3052 1.349 . S
C3053 C3069 1.349 . S
C3054 C3052 1.327 . S
C3054 C3073 1.429 . S
C3054 H3078 0.950 . S
C3055 C3072 1.574 . S
C3055 C3074 1.368 . S
C3055 H3079 0.949 . S
H3056 C3060 0.949 . S
C3057 C3058 1.349 . S
C3057 C3059 1.327 . S
C3057 H3080 0.950 . S
C3058 C3057 1.349 . S
C3058 C3070 1.349 . S
C3059 C3057 1.327 . S
C3059 C3075 1.429 . S
C3059 H3081 0.950 . S
C3060 H3056 0.949 . S
C3060 C3068 1.574 . S
C3060 C3076 1.368 . S
H3061 C3069 0.950 . S
H3062 C3067 0.950 . S
H3063 C3068 0.949 . S
H3064 C3070 0.950 . S
H3065 C3071 0.950 . S
H3066 C3072 0.949 . S
C3067 H3062 0.950 . S
C3067 C3069 1.327 . S
C3067 C3073 1.429 . S
C3068 C3060 1.574 . S
C3068 H3063 0.949 . S
C3068 C3074 1.368 . S
C3069 C3053 1.349 . S
C3069 H3061 0.950 . S
C3069 C3067 1.327 . S
C3070 C3058 1.349 . S
C3070 H3064 0.950 . S
C3070 C3071 1.327 . S
C3071 H3065 0.950 . S
C3071 C3070 1.327 . S
C3071 C3075 1.429 . S
C3072 C3055 1.574 . S
C3072 H3066 0.949 . S
C3072 C3076 1.368 . S
C3073 C3054 1.429 . S
C3073 C3067 1.429 . S
C3073 C3074 1.523 . S
C3074 C3055 1.368 . S
C3074 C3068 1.368 . S
C3074 C3073 1.523 . S
C3075 C3059 1.429 . S
C3075 C3071 1.429 . S
C3075 C3076 1.523 . S
C3076 C3060 1.368 . S
C3076 C3072 1.368 . S
C3076 C3075 1.523 . S
H3077 C3052 0.950 . S
H3078 C3054 0.950 . S
H3079 C3055 0.949 . S
H3080 C3057 0.950 . S
H3081 C3059 0.950 . S
C3082 C3083 1.349 . S
C3082 C3084 1.328 1_545 S
C3082 H3107 0.950 . S
C3083 C3082 1.349 . S
C3083 C3099 1.349 1_545 S
C3084 C3082 1.328 1_565 S
C3084 C3103 1.427 . S
C3084 H3108 0.950 1_565 S
C3085 C3102 1.574 . S
C3085 C3104 1.368 . S
C3085 H3109 0.949 . S
H3086 C3090 0.949 . S
C3087 C3088 1.349 . S
C3087 C3089 1.327 . S
C3087 H3110 0.950 . S
C3088 C3087 1.349 . S
C3088 C3100 1.349 . S
C3089 C3087 1.327 . S
C3089 C3105 1.429 . S
C3089 H3111 0.950 . S
C3090 H3086 0.949 . S
C3090 C3098 1.574 . S
C3090 C3106 1.368 . S
H3091 C3099 0.950 . S
H3092 C3097 0.950 . S
H3093 C3098 0.949 . S
H3094 C3100 0.950 . S
H3095 C3101 0.950 . S
H3096 C3102 0.949 . S
C3097 H3092 0.950 . S
C3097 C3099 1.327 . S
C3097 C3103 1.429 . S
C3098 C3090 1.574 . S
C3098 H3093 0.949 . S
C3098 C3104 1.368 . S
C3099 C3083 1.349 1_565 S
C3099 H3091 0.950 . S
C3099 C3097 1.327 . S
C3100 C3088 1.349 . S
C3100 H3094 0.950 . S
C3100 C3101 1.327 . S
C3101 H3095 0.950 . S
C3101 C3100 1.327 . S
C3101 C3105 1.429 . S
C3102 C3085 1.574 . S
C3102 H3096 0.949 . S
C3102 C3106 1.368 . S
C3103 C3084 1.427 . S
C3103 C3097 1.429 . S
C3103 C3104 1.523 . S
C3104 C3085 1.368 . S
C3104 C3098 1.368 . S
C3104 C3103 1.523 . S
C3105 C3089 1.429 . S
C3105 C3101 1.429 . S
C3105 C3106 1.523 . S
C3106 C3090 1.368 . S
C3106 C3102 1.368 . S
C3106 C3105 1.523 . S
H3107 C3082 0.950 . S
H3108 C3084 0.950 1_545 S
H3109 C3085 0.949 . S
H3110 C3087 0.950 . S
H3111 C3089 0.950 . S
C3112 C3113 1.349 . S
C3112 C3114 1.327 . S
C3112 H3137 0.950 . S
C3113 C3112 1.349 . S
C3113 C3129 1.349 . S
C3114 C3112 1.327 . S
C3114 C3133 1.429 . S
C3114 H3138 0.950 . S
C3115 C3132 1.574 . S
C3115 C3134 1.368 . S
C3115 H3139 0.949 . S
H3116 C3120 0.949 . S
C3117 C3118 1.349 . S
C3117 C3119 1.327 . S
C3117 H3140 0.950 . S
C3118 C3117 1.349 . S
C3118 C3130 1.349 . S
C3119 C3117 1.327 . S
C3119 C3135 1.429 . S
C3119 H3141 0.950 . S
C3120 H3116 0.949 . S
C3120 C3128 1.574 . S
C3120 C3136 1.368 . S
H3121 C3129 0.950 . S
H3122 C3127 0.950 . S
H3123 C3128 0.949 . S
H3124 C3130 0.950 . S
H3125 C3131 0.950 . S
H3126 C3132 0.949 . S
C3127 H3122 0.950 . S
C3127 C3129 1.327 . S
C3127 C3133 1.429 . S
C3128 C3120 1.574 . S
C3128 H3123 0.949 . S
C3128 C3134 1.368 . S
C3129 C3113 1.349 . S
C3129 H3121 0.950 . S
C3129 C3127 1.327 . S
C3130 C3118 1.349 . S
C3130 H3124 0.950 . S
C3130 C3131 1.327 . S
C3131 H3125 0.950 . S
C3131 C3130 1.327 . S
C3131 C3135 1.429 . S
C3132 C3115 1.574 . S
C3132 H3126 0.949 . S
C3132 C3136 1.368 . S
C3133 C3114 1.429 . S
C3133 C3127 1.429 . S
C3133 C3134 1.523 . S
C3134 C3115 1.368 . S
C3134 C3128 1.368 . S
C3134 C3133 1.523 . S
C3135 C3119 1.429 . S
C3135 C3131 1.429 . S
C3135 C3136 1.523 . S
C3136 C3120 1.368 . S
C3136 C3132 1.368 . S
C3136 C3135 1.523 . S
H3137 C3112 0.950 . S
H3138 C3114 0.950 . S
H3139 C3115 0.949 . S
H3140 C3117 0.950 . S
H3141 C3119 0.950 . S
C3142 C3143 1.349 . S
C3142 C3144 1.327 . S
C3142 H3167 0.950 . S
C3143 C3142 1.349 . S
C3143 C3159 1.349 . S
C3144 C3142 1.327 . S
C3144 C3163 1.429 . S
C3144 H3168 0.950 . S
C3145 C3162 1.574 . S
C3145 C3164 1.368 . S
C3145 H3169 0.949 . S
H3146 C3150 0.949 . S
C3147 C3148 1.349 . S
C3147 C3149 1.327 . S
C3147 H3170 0.950 . S
C3148 C3147 1.349 . S
C3148 C3160 1.349 . S
C3149 C3147 1.327 . S
C3149 C3165 1.429 . S
C3149 H3171 0.950 . S
C3150 H3146 0.949 . S
C3150 C3158 1.574 . S
C3150 C3166 1.368 . S
H3151 C3159 0.950 . S
H3152 C3157 0.950 . S
H3153 C3158 0.949 . S
H3154 C3160 0.950 . S
H3155 C3161 0.950 . S
H3156 C3162 0.949 . S
C3157 H3152 0.950 . S
C3157 C3159 1.327 . S
C3157 C3163 1.429 . S
C3158 C3150 1.574 . S
C3158 H3153 0.949 . S
C3158 C3164 1.368 . S
C3159 C3143 1.349 . S
C3159 H3151 0.950 . S
C3159 C3157 1.327 . S
C3160 C3148 1.349 . S
C3160 H3154 0.950 . S
C3160 C3161 1.327 . S
C3161 H3155 0.950 . S
C3161 C3160 1.327 . S
C3161 C3165 1.429 . S
C3162 C3145 1.574 . S
C3162 H3156 0.949 . S
C3162 C3166 1.368 . S
C3163 C3144 1.429 . S
C3163 C3157 1.429 . S
C3163 C3164 1.523 . S
C3164 C3145 1.368 . S
C3164 C3158 1.368 . S
C3164 C3163 1.523 . S
C3165 C3149 1.429 . S
C3165 C3161 1.429 . S
C3165 C3166 1.523 . S
C3166 C3150 1.368 . S
C3166 C3162 1.368 . S
C3166 C3165 1.523 . S
H3167 C3142 0.950 . S
H3168 C3144 0.950 . S
H3169 C3145 0.949 . S
H3170 C3147 0.950 . S
H3171 C3149 0.950 . S
C3172 C3173 1.349 . S
C3172 C3174 1.327 . S
C3172 H3197 0.950 . S
C3173 C3172 1.349 . S
C3173 C3189 1.349 . S
C3174 C3172 1.327 . S
C3174 C3193 1.429 . S
C3174 H3198 0.950 . S
C3175 C3192 1.574 . S
C3175 C3194 1.368 . S
C3175 H3199 0.949 . S
H3176 C3180 0.949 . S
C3177 C3178 1.349 . S
C3177 C3179 1.327 . S
C3177 H3200 0.950 . S
C3178 C3177 1.349 . S
C3178 C3190 1.349 . S
C3179 C3177 1.327 . S
C3179 C3195 1.429 . S
C3179 H3201 0.950 . S
C3180 H3176 0.949 . S
C3180 C3188 1.574 . S
C3180 C3196 1.368 . S
H3181 C3189 0.950 . S
H3182 C3187 0.950 . S
H3183 C3188 0.949 . S
H3184 C3190 0.950 . S
H3185 C3191 0.950 . S
H3186 C3192 0.949 . S
C3187 H3182 0.950 . S
C3187 C3189 1.327 . S
C3187 C3193 1.429 . S
C3188 C3180 1.574 . S
C3188 H3183 0.949 . S
C3188 C3194 1.368 . S
C3189 C3173 1.349 . S
C3189 H3181 0.950 . S
C3189 C3187 1.327 . S
C3190 C3178 1.349 . S
C3190 H3184 0.950 . S
C3190 C3191 1.327 . S
C3191 H3185 0.950 . S
C3191 C3190 1.327 . S
C3191 C3195 1.429 . S
C3192 C3175 1.574 . S
C3192 H3186 0.949 . S
C3192 C3196 1.368 . S
C3193 C3174 1.429 . S
C3193 C3187 1.429 . S
C3193 C3194 1.523 . S
C3194 C3175 1.368 . S
C3194 C3188 1.368 . S
C3194 C3193 1.523 . S
C3195 C3179 1.429 . S
C3195 C3191 1.429 . S
C3195 C3196 1.523 . S
C3196 C3180 1.368 . S
C3196 C3192 1.368 . S
C3196 C3195 1.523 . S
H3197 C3172 0.950 . S
H3198 C3174 0.950 . S
H3199 C3175 0.949 . S
H3200 C3177 0.950 . S
H3201 C3179 0.950 . S
C3202 C3203 1.349 . S
C3202 C3204 1.327 . S
C3202 H3227 0.950 . S
C3203 C3202 1.349 . S
C3203 C3219 1.349 . S
C3204 C3202 1.327 . S
C3204 C3223 1.429 . S
C3204 H3228 0.950 . S
C3205 C3222 1.574 . S
C3205 C3224 1.368 . S
C3205 H3229 0.949 . S
H3206 C3210 0.949 . S
C3207 C3208 1.349 . S
C3207 C3209 1.327 . S
C3207 H3230 0.950 . S
C3208 C3207 1.349 . S
C3208 C3220 1.349 . S
C3209 C3207 1.327 . S
C3209 C3225 1.429 . S
C3209 H3231 0.950 . S
C3210 H3206 0.949 . S
C3210 C3218 1.574 . S
C3210 C3226 1.368 . S
H3211 C3219 0.950 . S
H3212 C3217 0.950 . S
H3213 C3218 0.949 . S
H3214 C3220 0.950 . S
H3215 C3221 0.950 . S
H3216 C3222 0.949 . S
C3217 H3212 0.950 . S
C3217 C3219 1.327 . S
C3217 C3223 1.429 . S
C3218 C3210 1.574 . S
C3218 H3213 0.949 . S
C3218 C3224 1.368 . S
C3219 C3203 1.349 . S
C3219 H3211 0.950 . S
C3219 C3217 1.327 . S
C3220 C3208 1.349 . S
C3220 H3214 0.950 . S
C3220 C3221 1.327 . S
C3221 H3215 0.950 . S
C3221 C3220 1.327 . S
C3221 C3225 1.429 . S
C3222 C3205 1.574 . S
C3222 H3216 0.949 . S
C3222 C3226 1.368 . S
C3223 C3204 1.429 . S
C3223 C3217 1.429 . S
C3223 C3224 1.523 . S
C3224 C3205 1.368 . S
C3224 C3218 1.368 . S
C3224 C3223 1.523 . S
C3225 C3209 1.429 . S
C3225 C3221 1.429 . S
C3225 C3226 1.523 . S
C3226 C3210 1.368 . S
C3226 C3222 1.368 . S
C3226 C3225 1.523 . S
H3227 C3202 0.950 . S
H3228 C3204 0.950 . S
H3229 C3205 0.949 . S
H3230 C3207 0.950 . S
H3231 C3209 0.950 . S
C3232 C3233 1.349 . S
C3232 C3234 1.327 . S
C3232 H3257 0.950 . S
C3233 C3232 1.349 . S
C3233 C3249 1.349 . S
C3234 C3232 1.327 . S
C3234 C3253 1.429 . S
C3234 H3258 0.950 . S
C3235 C3252 1.574 . S
C3235 C3254 1.368 . S
C3235 H3259 0.949 . S
H3236 C3240 0.949 . S
C3237 C3238 1.349 . S
C3237 C3239 1.327 . S
C3237 H3260 0.950 . S
C3238 C3237 1.349 . S
C3238 C3250 1.349 . S
C3239 C3237 1.327 . S
C3239 C3255 1.429 . S
C3239 H3261 0.950 . S
C3240 H3236 0.949 . S
C3240 C3248 1.574 . S
C3240 C3256 1.368 . S
H3241 C3249 0.950 . S
H3242 C3247 0.950 . S
H3243 C3248 0.949 . S
H3244 C3250 0.950 . S
H3245 C3251 0.950 . S
H3246 C3252 0.949 . S
C3247 H3242 0.950 . S
C3247 C3249 1.327 . S
C3247 C3253 1.429 . S
C3248 C3240 1.574 . S
C3248 H3243 0.949 . S
C3248 C3254 1.368 . S
C3249 C3233 1.349 . S
C3249 H3241 0.950 . S
C3249 C3247 1.327 . S
C3250 C3238 1.349 . S
C3250 H3244 0.950 . S
C3250 C3251 1.327 . S
C3251 H3245 0.950 . S
C3251 C3250 1.327 . S
C3251 C3255 1.429 . S
C3252 C3235 1.574 . S
C3252 H3246 0.949 . S
C3252 C3256 1.368 . S
C3253 C3234 1.429 . S
C3253 C3247 1.429 . S
C3253 C3254 1.523 . S
C3254 C3235 1.368 . S
C3254 C3248 1.368 . S
C3254 C3253 1.523 . S
C3255 C3239 1.429 . S
C3255 C3251 1.429 . S
C3255 C3256 1.523 . S
C3256 C3240 1.368 . S
C3256 C3252 1.368 . S
C3256 C3255 1.523 . S
H3257 C3232 0.950 . S
H3258 C3234 0.950 . S
H3259 C3235 0.949 . S
H3260 C3237 0.950 . S
H3261 C3239 0.950 . S
C3262 C3263 1.349 . S
C3262 C3264 1.327 . S
C3262 H3287 0.950 . S
C3263 C3262 1.349 . S
C3263 C3279 1.349 . S
C3264 C3262 1.327 . S
C3264 C3283 1.429 . S
C3264 H3288 0.950 . S
C3265 C3282 1.574 . S
C3265 C3284 1.368 . S
C3265 H3289 0.949 . S
H3266 C3270 0.949 . S
C3267 C3268 1.349 . S
C3267 C3269 1.327 . S
C3267 H3290 0.950 . S
C3268 C3267 1.349 . S
C3268 C3280 1.349 . S
C3269 C3267 1.327 . S
C3269 C3285 1.429 . S
C3269 H3291 0.950 . S
C3270 H3266 0.949 . S
C3270 C3278 1.574 . S
C3270 C3286 1.368 . S
H3271 C3279 0.950 . S
H3272 C3277 0.950 . S
H3273 C3278 0.949 . S
H3274 C3280 0.950 . S
H3275 C3281 0.950 . S
H3276 C3282 0.949 . S
C3277 H3272 0.950 . S
C3277 C3279 1.327 . S
C3277 C3283 1.429 . S
C3278 C3270 1.574 . S
C3278 H3273 0.949 . S
C3278 C3284 1.368 . S
C3279 C3263 1.349 . S
C3279 H3271 0.950 . S
C3279 C3277 1.327 . S
C3280 C3268 1.349 . S
C3280 H3274 0.950 . S
C3280 C3281 1.327 . S
C3281 H3275 0.950 . S
C3281 C3280 1.327 . S
C3281 C3285 1.429 . S
C3282 C3265 1.574 . S
C3282 H3276 0.949 . S
C3282 C3286 1.368 . S
C3283 C3264 1.429 . S
C3283 C3277 1.429 . S
C3283 C3284 1.523 . S
C3284 C3265 1.368 . S
C3284 C3278 1.368 . S
C3284 C3283 1.523 . S
C3285 C3269 1.429 . S
C3285 C3281 1.429 . S
C3285 C3286 1.523 . S
C3286 C3270 1.368 . S
C3286 C3282 1.368 . S
C3286 C3285 1.523 . S
H3287 C3262 0.950 . S
H3288 C3264 0.950 . S
H3289 C3265 0.949 . S
H3290 C3267 0.950 . S
H3291 C3269 0.950 . S
C3292 C3293 1.349 . S
C3292 C3294 1.327 . S
C3292 H3317 0.950 . S
C3293 C3292 1.349 . S
C3293 C3309 1.349 . S
C3294 C3292 1.327 . S
C3294 C3313 1.429 . S
C3294 H3318 0.950 . S
C3295 C3312 1.574 . S
C3295 C3314 1.368 . S
C3295 H3319 0.949 . S
H3296 C3300 0.949 . S
C3297 C3298 1.349 . S
C3297 C3299 1.327 . S
C3297 H3320 0.950 . S
C3298 C3297 1.349 . S
C3298 C3310 1.349 . S
C3299 C3297 1.327 . S
C3299 C3315 1.429 . S
C3299 H3321 0.950 . S
C3300 H3296 0.949 . S
C3300 C3308 1.574 . S
C3300 C3316 1.368 . S
H3301 C3309 0.950 . S
H3302 C3307 0.950 . S
H3303 C3308 0.949 . S
H3304 C3310 0.950 . S
H3305 C3311 0.950 . S
H3306 C3312 0.949 . S
C3307 H3302 0.950 . S
C3307 C3309 1.327 . S
C3307 C3313 1.429 . S
C3308 C3300 1.574 . S
C3308 H3303 0.949 . S
C3308 C3314 1.368 . S
C3309 C3293 1.349 . S
C3309 H3301 0.950 . S
C3309 C3307 1.327 . S
C3310 C3298 1.349 . S
C3310 H3304 0.950 . S
C3310 C3311 1.327 . S
C3311 H3305 0.950 . S
C3311 C3310 1.327 . S
C3311 C3315 1.429 . S
C3312 C3295 1.574 . S
C3312 H3306 0.949 . S
C3312 C3316 1.368 . S
C3313 C3294 1.429 . S
C3313 C3307 1.429 . S
C3313 C3314 1.523 . S
C3314 C3295 1.368 . S
C3314 C3308 1.368 . S
C3314 C3313 1.523 . S
C3315 C3299 1.429 . S
C3315 C3311 1.429 . S
C3315 C3316 1.523 . S
C3316 C3300 1.368 . S
C3316 C3312 1.368 . S
C3316 C3315 1.523 . S
H3317 C3292 0.950 . S
H3318 C3294 0.950 . S
H3319 C3295 0.949 . S
H3320 C3297 0.950 . S
H3321 C3299 0.950 . S
C3322 C3323 1.349 . S
C3322 C3324 1.327 . S
C3322 H3347 0.950 . S
C3323 C3322 1.349 . S
C3323 C3339 1.349 . S
C3324 C3322 1.327 . S
C3324 C3343 1.429 . S
C3324 H3348 0.950 . S
C3325 C3342 1.574 . S
C3325 C3344 1.368 . S
C3325 H3349 0.949 . S
H3326 C3330 0.949 . S
C3327 C3328 1.349 . S
C3327 C3329 1.327 . S
C3327 H3350 0.950 . S
C3328 C3327 1.349 . S
C3328 C3340 1.349 . S
C3329 C3327 1.327 . S
C3329 C3345 1.429 . S
C3329 H3351 0.950 . S
C3330 H3326 0.949 . S
C3330 C3338 1.574 . S
C3330 C3346 1.368 . S
H3331 C3339 0.950 . S
H3332 C3337 0.950 . S
H3333 C3338 0.949 . S
H3334 C3340 0.950 . S
H3335 C3341 0.950 . S
H3336 C3342 0.949 . S
C3337 H3332 0.950 . S
C3337 C3339 1.327 . S
C3337 C3343 1.429 . S
C3338 C3330 1.574 . S
C3338 H3333 0.949 . S
C3338 C3344 1.368 . S
C3339 C3323 1.349 . S
C3339 H3331 0.950 . S
C3339 C3337 1.327 . S
C3340 C3328 1.349 . S
C3340 H3334 0.950 . S
C3340 C3341 1.327 . S
C3341 H3335 0.950 . S
C3341 C3340 1.327 . S
C3341 C3345 1.429 . S
C3342 C3325 1.574 . S
C3342 H3336 0.949 . S
C3342 C3346 1.368 . S
C3343 C3324 1.429 . S
C3343 C3337 1.429 . S
C3343 C3344 1.523 . S
C3344 C3325 1.368 . S
C3344 C3338 1.368 . S
C3344 C3343 1.523 . S
C3345 C3329 1.429 . S
C3345 C3341 1.429 . S
C3345 C3346 1.523 . S
C3346 C3330 1.368 . S
C3346 C3342 1.368 . S
C3346 C3345 1.523 . S
H3347 C3322 0.950 . S
H3348 C3324 0.950 . S
H3349 C3325 0.949 . S
H3350 C3327 0.950 . S
H3351 C3329 0.950 . S
C3352 C3353 1.349 . S
C3352 C3354 1.327 . S
C3352 H3377 0.950 . S
C3353 C3352 1.349 . S
C3353 C3369 1.349 . S
C3354 C3352 1.327 . S
C3354 C3373 1.429 . S
C3354 H3378 0.950 . S
C3355 C3372 1.574 . S
C3355 C3374 1.368 . S
C3355 H3379 0.949 . S
H3356 C3360 0.949 . S
C3357 C3358 1.349 . S
C3357 C3359 1.327 . S
C3357 H3380 0.950 . S
C3358 C3357 1.349 . S
C3358 C3370 1.349 . S
C3359 C3357 1.327 . S
C3359 C3375 1.429 . S
C3359 H3381 0.950 . S
C3360 H3356 0.949 . S
C3360 C3368 1.574 . S
C3360 C3376 1.368 . S
H3361 C3369 0.950 . S
H3362 C3367 0.950 . S
H3363 C3368 0.949 . S
H3364 C3370 0.950 . S
H3365 C3371 0.950 . S
H3366 C3372 0.949 . S
C3367 H3362 0.950 . S
C3367 C3369 1.327 . S
C3367 C3373 1.429 . S
C3368 C3360 1.574 . S
C3368 H3363 0.949 . S
C3368 C3374 1.368 . S
C3369 C3353 1.349 . S
C3369 H3361 0.950 . S
C3369 C3367 1.327 . S
C3370 C3358 1.349 . S
C3370 H3364 0.950 . S
C3370 C3371 1.327 . S
C3371 H3365 0.950 . S
C3371 C3370 1.327 . S
C3371 C3375 1.429 . S
C3372 C3355 1.574 . S
C3372 H3366 0.949 . S
C3372 C3376 1.368 . S
C3373 C3354 1.429 . S
C3373 C3367 1.429 . S
C3373 C3374 1.523 . S
C3374 C3355 1.368 . S
C3374 C3368 1.368 . S
C3374 C3373 1.523 . S
C3375 C3359 1.429 . S
C3375 C3371 1.429 . S
C3375 C3376 1.523 . S
C3376 C3360 1.368 . S
C3376 C3372 1.368 . S
C3376 C3375 1.523 . S
H3377 C3352 0.950 . S
H3378 C3354 0.950 . S
H3379 C3355 0.949 . S
H3380 C3357 0.950 . S
H3381 C3359 0.950 . S
C3382 C3383 1.349 . S
C3382 C3384 1.327 . S
C3382 H3407 0.950 . S
C3383 C3382 1.349 . S
C3383 C3399 1.349 . S
C3384 C3382 1.327 . S
C3384 C3403 1.429 . S
C3384 H3408 0.950 . S
C3385 C3402 1.574 . S
C3385 C3404 1.368 . S
C3385 H3409 0.949 . S
H3386 C3390 0.949 . S
C3387 C3388 1.349 . S
C3387 C3389 1.327 . S
C3387 H3410 0.950 . S
C3388 C3387 1.349 . S
C3388 C3400 1.349 . S
C3389 C3387 1.327 . S
C3389 C3405 1.429 . S
C3389 H3411 0.950 . S
C3390 H3386 0.949 . S
C3390 C3398 1.574 . S
C3390 C3406 1.368 . S
H3391 C3399 0.950 . S
H3392 C3397 0.950 . S
H3393 C3398 0.949 . S
H3394 C3400 0.950 . S
H3395 C3401 0.950 . S
H3396 C3402 0.949 . S
C3397 H3392 0.950 . S
C3397 C3399 1.327 . S
C3397 C3403 1.429 . S
C3398 C3390 1.574 . S
C3398 H3393 0.949 . S
C3398 C3404 1.368 . S
C3399 C3383 1.349 . S
C3399 H3391 0.950 . S
C3399 C3397 1.327 . S
C3400 C3388 1.349 . S
C3400 H3394 0.950 . S
C3400 C3401 1.327 . S
C3401 H3395 0.950 . S
C3401 C3400 1.327 . S
C3401 C3405 1.429 . S
C3402 C3385 1.574 . S
C3402 H3396 0.949 . S
C3402 C3406 1.368 . S
C3403 C3384 1.429 . S
C3403 C3397 1.429 . S
C3403 C3404 1.523 . S
C3404 C3385 1.368 . S
C3404 C3398 1.368 . S
C3404 C3403 1.523 . S
C3405 C3389 1.429 . S
C3405 C3401 1.429 . S
C3405 C3406 1.523 . S
C3406 C3390 1.368 . S
C3406 C3402 1.368 . S
C3406 C3405 1.523 . S
H3407 C3382 0.950 . S
H3408 C3384 0.950 . S
H3409 C3385 0.949 . S
H3410 C3387 0.950 . S
H3411 C3389 0.950 . S
C3412 C3413 1.349 . S
C3412 C3414 1.327 . S
C3412 H3437 0.950 . S
C3413 C3412 1.349 . S
C3413 C3429 1.349 . S
C3414 C3412 1.327 . S
C3414 C3433 1.429 . S
C3414 H3438 0.950 . S
C3415 C3432 1.574 . S
C3415 C3434 1.368 1_455 S
C3415 H3439 0.949 . S
H3416 C3420 0.949 . S
C3417 C3418 1.349 . S
C3417 C3419 1.327 . S
C3417 H3440 0.950 . S
C3418 C3417 1.349 . S
C3418 C3430 1.349 . S
C3419 C3417 1.327 . S
C3419 C3435 1.429 . S
C3419 H3441 0.950 . S
C3420 H3416 0.949 . S
C3420 C3428 1.574 . S
C3420 C3436 1.385 . S
H3421 C3429 0.950 . S
H3422 C3427 0.950 1_455 S
H3423 C3428 0.949 . S
H3424 C3430 0.950 1_655 S
H3425 C3431 0.950 . S
H3426 C3432 0.949 . S
C3427 H3422 0.950 1_655 S
C3427 C3429 1.327 . S
C3427 C3433 1.429 . S
C3428 C3420 1.574 . S
C3428 H3423 0.949 . S
C3428 C3434 1.368 . S
C3429 C3413 1.349 . S
C3429 H3421 0.950 . S
C3429 C3427 1.327 . S
C3430 C3418 1.349 . S
C3430 H3424 0.950 1_455 S
C3430 C3431 1.327 1_455 S
C3431 H3425 0.950 . S
C3431 C3430 1.327 1_655 S
C3431 C3435 1.429 1_655 S
C3432 C3415 1.574 . S
C3432 H3426 0.949 . S
C3432 C3436 1.355 1_455 S
C3433 C3414 1.429 . S
C3433 C3427 1.429 . S
C3433 C3434 1.523 . S
C3434 C3415 1.368 1_655 S
C3434 C3428 1.368 . S
C3434 C3433 1.523 . S
C3435 C3419 1.429 . S
C3435 C3431 1.429 1_455 S
C3435 C3436 1.519 1_455 S
C3436 C3420 1.385 . S
C3436 C3432 1.355 1_655 S
C3436 C3435 1.519 1_655 S
H3437 C3412 0.950 . S
H3438 C3414 0.950 . S
H3439 C3415 0.949 . S
H3440 C3417 0.950 . S
H3441 C3419 0.950 . S
C3442 C3443 1.349 . S
C3442 C3444 1.327 . S
C3442 H3467 0.950 . S
C3443 C3442 1.349 . S
C3443 C3459 1.349 . S
C3444 C3442 1.327 . S
C3444 C3463 1.429 . S
C3444 H3468 0.950 . S
C3445 C3462 1.574 . S
C3445 C3464 1.368 . S
C3445 H3469 0.949 . S
H3446 C3450 0.949 . S
C3447 C3448 1.349 . S
C3447 C3449 1.327 . S
C3447 H3470 0.950 . S
C3448 C3447 1.349 . S
C3448 C3460 1.349 . S
C3449 C3447 1.327 . S
C3449 C3465 1.429 . S
C3449 H3471 0.950 . S
C3450 H3446 0.949 . S
C3450 C3458 1.574 . S
C3450 C3466 1.368 . S
H3451 C3459 0.950 . S
H3452 C3457 0.950 . S
H3453 C3458 0.949 . S
H3454 C3460 0.950 . S
H3455 C3461 0.950 . S
H3456 C3462 0.949 . S
C3457 H3452 0.950 . S
C3457 C3459 1.327 . S
C3457 C3463 1.429 . S
C3458 C3450 1.574 . S
C3458 H3453 0.949 . S
C3458 C3464 1.368 . S
C3459 C3443 1.349 . S
C3459 H3451 0.950 . S
C3459 C3457 1.327 . S
C3460 C3448 1.349 . S
C3460 H3454 0.950 . S
C3460 C3461 1.327 . S
C3461 H3455 0.950 . S
C3461 C3460 1.327 . S
C3461 C3465 1.429 . S
C3462 C3445 1.574 . S
C3462 H3456 0.949 . S
C3462 C3466 1.368 . S
C3463 C3444 1.429 . S
C3463 C3457 1.429 . S
C3463 C3464 1.523 . S
C3464 C3445 1.368 . S
C3464 C3458 1.368 . S
C3464 C3463 1.523 . S
C3465 C3449 1.429 . S
C3465 C3461 1.429 . S
C3465 C3466 1.523 . S
C3466 C3450 1.368 . S
C3466 C3462 1.368 . S
C3466 C3465 1.523 . S
H3467 C3442 0.950 . S
H3468 C3444 0.950 . S
H3469 C3445 0.949 . S
H3470 C3447 0.950 . S
H3471 C3449 0.950 . S
C3472 C3473 1.349 . S
C3472 C3474 1.327 . S
C3472 H3497 0.950 . S
C3473 C3472 1.349 . S
C3473 C3489 1.349 . S
C3474 C3472 1.327 . S
C3474 C3493 1.429 . S
C3474 H3498 0.950 . S
C3475 C3492 1.574 . S
C3475 C3494 1.368 . S
C3475 H3499 0.949 . S
H3476 C3480 0.949 . S
C3477 C3478 1.349 . S
C3477 C3479 1.327 . S
C3477 H3500 0.950 . S
C3478 C3477 1.349 . S
C3478 C3490 1.349 . S
C3479 C3477 1.327 . S
C3479 C3495 1.429 . S
C3479 H3501 0.950 . S
C3480 H3476 0.949 . S
C3480 C3488 1.574 . S
C3480 C3496 1.368 . S
H3481 C3489 0.950 . S
H3482 C3487 0.950 . S
H3483 C3488 0.949 . S
H3484 C3490 0.950 . S
H3485 C3491 0.950 . S
H3486 C3492 0.949 . S
C3487 H3482 0.950 . S
C3487 C3489 1.327 . S
C3487 C3493 1.429 . S
C3488 C3480 1.574 . S
C3488 H3483 0.949 . S
C3488 C3494 1.368 . S
C3489 C3473 1.349 . S
C3489 H3481 0.950 . S
C3489 C3487 1.327 . S
C3490 C3478 1.349 . S
C3490 H3484 0.950 . S
C3490 C3491 1.327 . S
C3491 H3485 0.950 . S
C3491 C3490 1.327 . S
C3491 C3495 1.429 . S
C3492 C3475 1.574 . S
C3492 H3486 0.949 . S
C3492 C3496 1.368 . S
C3493 C3474 1.429 . S
C3493 C3487 1.429 . S
C3493 C3494 1.523 . S
C3494 C3475 1.368 . S
C3494 C3488 1.368 . S
C3494 C3493 1.523 . S
C3495 C3479 1.429 . S
C3495 C3491 1.429 . S
C3495 C3496 1.523 . S
C3496 C3480 1.368 . S
C3496 C3492 1.368 . S
C3496 C3495 1.523 . S
H3497 C3472 0.950 . S
H3498 C3474 0.950 . S
H3499 C3475 0.949 . S
H3500 C3477 0.950 . S
H3501 C3479 0.950 . S
C3502 C3503 1.349 . S
C3502 C3504 1.327 . S
C3502 H3527 0.950 . S
C3503 C3502 1.349 . S
C3503 C3519 1.349 . S
C3504 C3502 1.327 . S
C3504 C3523 1.429 . S
C3504 H3528 0.950 . S
C3505 C3522 1.574 . S
C3505 C3524 1.368 . S
C3505 H3529 0.949 . S
H3506 C3510 0.949 . S
C3507 C3508 1.349 . S
C3507 C3509 1.327 . S
C3507 H3530 0.950 . S
C3508 C3507 1.349 . S
C3508 C3520 1.349 . S
C3509 C3507 1.327 . S
C3509 C3525 1.429 . S
C3509 H3531 0.950 . S
C3510 H3506 0.949 . S
C3510 C3518 1.574 . S
C3510 C3526 1.368 . S
H3511 C3519 0.950 . S
H3512 C3517 0.950 . S
H3513 C3518 0.949 . S
H3514 C3520 0.950 . S
H3515 C3521 0.950 . S
H3516 C3522 0.949 . S
C3517 H3512 0.950 . S
C3517 C3519 1.327 . S
C3517 C3523 1.429 . S
C3518 C3510 1.574 . S
C3518 H3513 0.949 . S
C3518 C3524 1.368 . S
C3519 C3503 1.349 . S
C3519 H3511 0.950 . S
C3519 C3517 1.327 . S
C3520 C3508 1.349 . S
C3520 H3514 0.950 . S
C3520 C3521 1.327 . S
C3521 H3515 0.950 . S
C3521 C3520 1.327 . S
C3521 C3525 1.429 . S
C3522 C3505 1.574 . S
C3522 H3516 0.949 . S
C3522 C3526 1.368 . S
C3523 C3504 1.429 . S
C3523 C3517 1.429 . S
C3523 C3524 1.523 . S
C3524 C3505 1.368 . S
C3524 C3518 1.368 . S
C3524 C3523 1.523 . S
C3525 C3509 1.429 . S
C3525 C3521 1.429 . S
C3525 C3526 1.523 . S
C3526 C3510 1.368 . S
C3526 C3522 1.368 . S
C3526 C3525 1.523 . S
H3527 C3502 0.950 . S
H3528 C3504 0.950 . S
H3529 C3505 0.949 . S
H3530 C3507 0.950 . S
H3531 C3509 0.950 . S
C3532 C3533 1.349 . S
C3532 C3534 1.327 . S
C3532 H3557 0.950 . S
C3533 C3532 1.349 . S
C3533 C3549 1.349 . S
C3534 C3532 1.327 . S
C3534 C3553 1.429 . S
C3534 H3558 0.950 . S
C3535 C3552 1.574 . S
C3535 C3554 1.368 . S
C3535 H3559 0.949 . S
H3536 C3540 0.949 . S
C3537 C3538 1.349 . S
C3537 C3539 1.327 . S
C3537 H3560 0.950 1_655 S
C3538 C3537 1.349 . S
C3538 C3550 1.349 . S
C3539 C3537 1.327 . S
C3539 C3555 1.429 . S
C3539 H3561 0.950 1_655 S
C3540 H3536 0.949 . S
C3540 C3548 1.574 . S
C3540 C3556 1.368 . S
H3541 C3549 0.950 . S
H3542 C3547 0.950 . S
H3543 C3548 0.949 . S
H3544 C3550 0.950 . S
H3545 C3551 0.950 . S
H3546 C3552 0.919 1_455 S
C3547 H3542 0.950 . S
C3547 C3549 1.327 . S
C3547 C3553 1.429 . S
C3548 C3540 1.574 . S
C3548 H3543 0.949 . S
C3548 C3554 1.368 . S
C3549 C3533 1.349 . S
C3549 H3541 0.950 . S
C3549 C3547 1.327 . S
C3550 C3538 1.349 . S
C3550 H3544 0.950 . S
C3550 C3551 1.327 . S
C3551 H3545 0.950 . S
C3551 C3550 1.327 . S
C3551 C3555 1.429 . S
C3552 C3535 1.574 . S
C3552 H3546 0.919 1_655 S
C3552 C3556 1.368 . S
C3553 C3534 1.429 . S
C3553 C3547 1.429 . S
C3553 C3554 1.523 . S
C3554 C3535 1.368 . S
C3554 C3548 1.368 . S
C3554 C3553 1.523 . S
C3555 C3539 1.429 . S
C3555 C3551 1.429 . S
C3555 C3556 1.523 . S
C3556 C3540 1.368 . S
C3556 C3552 1.368 . S
C3556 C3555 1.523 . S
H3557 C3532 0.950 . S
H3558 C3534 0.950 . S
H3559 C3535 0.949 . S
H3560 C3537 0.950 1_455 S
H3561 C3539 0.950 1_455 S
C3562 C3563 1.349 . S
C3562 C3564 1.327 . S
C3562 H3587 0.950 . S
C3563 C3562 1.349 . S
C3563 C3579 1.349 . S
C3564 C3562 1.327 . S
C3564 C3583 1.429 . S
C3564 H3588 0.950 . S
C3565 C3582 1.574 . S
C3565 C3584 1.368 . S
C3565 H3589 0.949 . S
H3566 C3570 0.949 . S
C3567 C3568 1.349 . S
C3567 C3569 1.327 . S
C3567 H3590 0.950 . S
C3568 C3567 1.349 . S
C3568 C3580 1.349 . S
C3569 C3567 1.327 . S
C3569 C3585 1.429 . S
C3569 H3591 0.950 . S
C3570 H3566 0.949 . S
C3570 C3578 1.574 . S
C3570 C3586 1.368 . S
H3571 C3579 0.950 . S
H3572 C3577 0.950 . S
H3573 C3578 0.949 . S
H3574 C3580 0.950 . S
H3575 C3581 0.950 . S
H3576 C3582 0.949 . S
C3577 H3572 0.950 . S
C3577 C3579 1.327 . S
C3577 C3583 1.429 . S
C3578 C3570 1.574 . S
C3578 H3573 0.949 . S
C3578 C3584 1.368 . S
C3579 C3563 1.349 . S
C3579 H3571 0.950 . S
C3579 C3577 1.327 . S
C3580 C3568 1.349 . S
C3580 H3574 0.950 . S
C3580 C3581 1.327 . S
C3581 H3575 0.950 . S
C3581 C3580 1.327 . S
C3581 C3585 1.429 . S
C3582 C3565 1.574 . S
C3582 H3576 0.949 . S
C3582 C3586 1.368 . S
C3583 C3564 1.429 . S
C3583 C3577 1.429 . S
C3583 C3584 1.523 . S
C3584 C3565 1.368 . S
C3584 C3578 1.368 . S
C3584 C3583 1.523 . S
C3585 C3569 1.429 . S
C3585 C3581 1.429 . S
C3585 C3586 1.523 . S
C3586 C3570 1.368 . S
C3586 C3582 1.368 . S
C3586 C3585 1.523 . S
H3587 C3562 0.950 . S
H3588 C3564 0.950 . S
H3589 C3565 0.949 . S
H3590 C3567 0.950 . S
H3591 C3569 0.950 . S
C3592 C3593 1.349 . S
C3592 C3594 1.327 . S
C3592 H3617 0.950 . S
C3593 C3592 1.349 . S
C3593 C3609 1.349 . S
C3594 C3592 1.327 . S
C3594 C3613 1.429 . S
C3594 H3618 0.950 . S
C3595 C3612 1.574 . S
C3595 C3614 1.368 . S
C3595 H3619 0.949 . S
H3596 C3600 0.949 . S
C3597 C3598 1.349 . S
C3597 C3599 1.327 . S
C3597 H3620 0.950 . S
C3598 C3597 1.349 . S
C3598 C3610 1.349 . S
C3599 C3597 1.327 . S
C3599 C3615 1.429 . S
C3599 H3621 0.950 . S
C3600 H3596 0.949 . S
C3600 C3608 1.574 . S
C3600 C3616 1.368 . S
H3601 C3609 0.950 . S
H3602 C3607 0.950 . S
H3603 C3608 0.949 . S
H3604 C3610 0.950 . S
H3605 C3611 0.950 . S
H3606 C3612 0.949 . S
C3607 H3602 0.950 . S
C3607 C3609 1.327 . S
C3607 C3613 1.429 . S
C3608 C3600 1.574 . S
C3608 H3603 0.949 . S
C3608 C3614 1.368 . S
C3609 C3593 1.349 . S
C3609 H3601 0.950 . S
C3609 C3607 1.327 . S
C3610 C3598 1.349 . S
C3610 H3604 0.950 . S
C3610 C3611 1.327 . S
C3611 H3605 0.950 . S
C3611 C3610 1.327 . S
C3611 C3615 1.429 . S
C3612 C3595 1.574 . S
C3612 H3606 0.949 . S
C3612 C3616 1.368 . S
C3613 C3594 1.429 . S
C3613 C3607 1.429 . S
C3613 C3614 1.523 . S
C3614 C3595 1.368 . S
C3614 C3608 1.368 . S
C3614 C3613 1.523 . S
C3615 C3599 1.429 . S
C3615 C3611 1.429 . S
C3615 C3616 1.523 . S
C3616 C3600 1.368 . S
C3616 C3612 1.368 . S
C3616 C3615 1.523 . S
H3617 C3592 0.950 . S
H3618 C3594 0.950 . S
H3619 C3595 0.949 . S
H3620 C3597 0.950 . S
H3621 C3599 0.950 . S
C3622 C3623 1.349 . S
C3622 C3624 1.327 . S
C3622 H3647 0.950 . S
C3623 C3622 1.349 . S
C3623 C3639 1.349 . S
C3624 C3622 1.327 . S
C3624 C3643 1.429 . S
C3624 H3648 0.950 . S
C3625 C3642 1.574 . S
C3625 C3644 1.368 . S
C3625 H3649 0.949 . S
H3626 C3630 0.949 . S
C3627 C3628 1.349 . S
C3627 C3629 1.327 . S
C3627 H3650 0.950 . S
C3628 C3627 1.349 . S
C3628 C3640 1.349 . S
C3629 C3627 1.327 . S
C3629 C3645 1.429 . S
C3629 H3651 0.950 . S
C3630 H3626 0.949 . S
C3630 C3638 1.574 . S
C3630 C3646 1.368 . S
H3631 C3639 0.950 . S
H3632 C3637 0.950 . S
H3633 C3638 0.949 . S
H3634 C3640 0.950 . S
H3635 C3641 0.950 . S
H3636 C3642 0.949 . S
C3637 H3632 0.950 . S
C3637 C3639 1.327 . S
C3637 C3643 1.429 . S
C3638 C3630 1.574 . S
C3638 H3633 0.949 . S
C3638 C3644 1.368 . S
C3639 C3623 1.349 . S
C3639 H3631 0.950 . S
C3639 C3637 1.327 . S
C3640 C3628 1.349 . S
C3640 H3634 0.950 . S
C3640 C3641 1.327 . S
C3641 H3635 0.950 . S
C3641 C3640 1.327 . S
C3641 C3645 1.429 . S
C3642 C3625 1.574 . S
C3642 H3636 0.949 . S
C3642 C3646 1.368 . S
C3643 C3624 1.429 . S
C3643 C3637 1.429 . S
C3643 C3644 1.523 . S
C3644 C3625 1.368 . S
C3644 C3638 1.368 . S
C3644 C3643 1.523 . S
C3645 C3629 1.429 . S
C3645 C3641 1.429 . S
C3645 C3646 1.523 . S
C3646 C3630 1.368 . S
C3646 C3642 1.368 . S
C3646 C3645 1.523 . S
H3647 C3622 0.950 . S
H3648 C3624 0.950 . S
H3649 C3625 0.949 . S
H3650 C3627 0.950 . S
H3651 C3629 0.950 . S
C3652 C3653 1.349 . S
C3652 C3654 1.327 . S
C3652 H3677 0.950 . S
C3653 C3652 1.349 . S
C3653 C3669 1.349 . S
C3654 C3652 1.327 . S
C3654 C3673 1.429 . S
C3654 H3678 0.950 . S
C3655 C3672 1.574 . S
C3655 C3674 1.368 . S
C3655 H3679 0.949 . S
H3656 C3660 0.949 . S
C3657 C3658 1.349 . S
C3657 C3659 1.327 . S
C3657 H3680 0.950 . S
C3658 C3657 1.349 . S
C3658 C3670 1.349 . S
C3659 C3657 1.327 . S
C3659 C3675 1.429 . S
C3659 H3681 0.950 . S
C3660 H3656 0.949 . S
C3660 C3668 1.574 . S
C3660 C3676 1.368 . S
H3661 C3669 0.950 . S
H3662 C3667 0.950 . S
H3663 C3668 0.949 . S
H3664 C3670 0.950 . S
H3665 C3671 0.950 . S
H3666 C3672 0.949 . S
C3667 H3662 0.950 . S
C3667 C3669 1.327 . S
C3667 C3673 1.429 . S
C3668 C3660 1.574 . S
C3668 H3663 0.949 . S
C3668 C3674 1.368 . S
C3669 C3653 1.349 . S
C3669 H3661 0.950 . S
C3669 C3667 1.327 . S
C3670 C3658 1.349 . S
C3670 H3664 0.950 . S
C3670 C3671 1.327 . S
C3671 H3665 0.950 . S
C3671 C3670 1.327 . S
C3671 C3675 1.429 . S
C3672 C3655 1.574 . S
C3672 H3666 0.949 . S
C3672 C3676 1.368 . S
C3673 C3654 1.429 . S
C3673 C3667 1.429 . S
C3673 C3674 1.523 . S
C3674 C3655 1.368 . S
C3674 C3668 1.368 . S
C3674 C3673 1.523 . S
C3675 C3659 1.429 . S
C3675 C3671 1.429 . S
C3675 C3676 1.523 . S
C3676 C3660 1.368 . S
C3676 C3672 1.368 . S
C3676 C3675 1.523 . S
H3677 C3652 0.950 . S
H3678 C3654 0.950 . S
H3679 C3655 0.949 . S
H3680 C3657 0.950 . S
H3681 C3659 0.950 . S
C3682 C3683 1.349 . S
C3682 C3684 1.327 . S
C3682 H3707 0.950 . S
C3683 C3682 1.349 . S
C3683 C3699 1.349 1_556 S
C3684 C3682 1.327 . S
C3684 C3703 1.429 . S
C3684 H3708 0.950 . S
C3685 C3702 1.574 . S
C3685 C3704 1.368 1_554 S
C3685 H3709 0.949 . S
H3686 C3690 0.949 . S
C3687 C3688 1.349 . S
C3687 C3689 1.327 . S
C3687 H3710 0.950 . S
C3688 C3687 1.349 . S
C3688 C3700 1.349 1_554 S
C3689 C3687 1.327 . S
C3689 C3705 1.429 1_554 S
C3689 H3711 0.950 . S
C3690 H3686 0.949 . S
C3690 C3698 1.574 . S
C3690 C3706 1.368 . S
H3691 C3699 0.950 . S
H3692 C3697 0.950 . S
H3693 C3698 0.949 . S
H3694 C3700 0.950 . S
H3695 C3701 0.950 . S
H3696 C3702 0.949 . S
C3697 H3692 0.950 . S
C3697 C3699 1.327 . S
C3697 C3703 1.429 1_554 S
C3698 C3690 1.574 . S
C3698 H3693 0.949 . S
C3698 C3704 1.368 . S
C3699 C3683 1.349 1_554 S
C3699 H3691 0.950 . S
C3699 C3697 1.327 . S
C3700 C3688 1.349 1_556 S
C3700 H3694 0.950 . S
C3700 C3701 1.327 . S
C3701 H3695 0.950 . S
C3701 C3700 1.327 . S
C3701 C3705 1.429 . S
C3702 C3685 1.574 . S
C3702 H3696 0.949 . S
C3702 C3706 1.368 1_554 S
C3703 C3684 1.429 . S
C3703 C3697 1.429 1_556 S
C3703 C3704 1.523 . S
C3704 C3685 1.368 1_556 S
C3704 C3698 1.368 . S
C3704 C3703 1.523 . S
C3705 C3689 1.429 1_556 S
C3705 C3701 1.429 . S
C3705 C3706 1.523 . S
C3706 C3690 1.368 . S
C3706 C3702 1.368 1_556 S
C3706 C3705 1.523 . S
H3707 C3682 0.950 . S
H3708 C3684 0.950 . S
H3709 C3685 0.949 . S
H3710 C3687 0.950 . S
H3711 C3689 0.950 . S
C3712 C3713 1.349 . S
C3712 C3714 1.327 . S
C3712 H3737 0.950 . S
C3713 C3712 1.349 . S
C3713 C3729 1.349 . S
C3714 C3712 1.327 . S
C3714 C3733 1.429 . S
C3714 H3738 0.950 . S
C3715 C3732 1.574 . S
C3715 C3734 1.368 . S
C3715 H3739 0.949 . S
H3716 C3720 0.949 . S
C3717 C3718 1.349 . S
C3717 C3719 1.327 . S
C3717 H3740 0.950 . S
C3718 C3717 1.349 . S
C3718 C3730 1.349 . S
C3719 C3717 1.327 . S
C3719 C3735 1.429 . S
C3719 H3741 0.950 . S
C3720 H3716 0.949 . S
C3720 C3728 1.574 . S
C3720 C3736 1.368 . S
H3721 C3729 0.950 . S
H3722 C3727 0.950 . S
H3723 C3728 0.949 . S
H3724 C3730 0.950 . S
H3725 C3731 0.950 . S
H3726 C3732 0.949 . S
C3727 H3722 0.950 . S
C3727 C3729 1.327 . S
C3727 C3733 1.429 . S
C3728 C3720 1.574 . S
C3728 H3723 0.949 . S
C3728 C3734 1.368 . S
C3729 C3713 1.349 . S
C3729 H3721 0.950 . S
C3729 C3727 1.327 . S
C3730 C3718 1.349 . S
C3730 H3724 0.950 . S
C3730 C3731 1.327 . S
C3731 H3725 0.950 . S
C3731 C3730 1.327 . S
C3731 C3735 1.429 . S
C3732 C3715 1.574 . S
C3732 H3726 0.949 . S
C3732 C3736 1.368 . S
C3733 C3714 1.429 . S
C3733 C3727 1.429 . S
C3733 C3734 1.523 . S
C3734 C3715 1.368 . S
C3734 C3728 1.368 . S
C3734 C3733 1.523 . S
C3735 C3719 1.429 . S
C3735 C3731 1.429 . S
C3735 C3736 1.523 . S
C3736 C3720 1.368 . S
C3736 C3732 1.368 . S
C3736 C3735 1.523 . S
H3737 C3712 0.950 . S
H3738 C3714 0.950 . S
H3739 C3715 0.949 . S
H3740 C3717 0.950 . S
H3741 C3719 0.950 . S
C3742 C3743 1.349 . S
C3742 C3744 1.327 . S
C3742 H3767 0.950 . S
C3743 C3742 1.349 . S
C3743 C3759 1.349 . S
C3744 C3742 1.327 . S
C3744 C3763 1.429 . S
C3744 H3768 0.963 . S
C3745 C3762 1.574 . S
C3745 C3764 1.368 . S
C3745 H3769 0.949 . S
H3746 C3750 0.926 1_556 S
C3747 C3748 1.349 . S
C3747 C3749 1.327 . S
C3747 H3770 0.950 . S
C3748 C3747 1.349 . S
C3748 C3760 1.349 . S
C3749 C3747 1.327 . S
C3749 C3765 1.429 . S
C3749 H3771 0.950 . S
C3750 H3746 0.926 1_554 S
C3750 C3758 1.574 . S
C3750 C3766 1.368 . S
H3751 C3759 0.950 . S
H3752 C3757 0.950 . S
H3753 C3758 0.948 1_556 S
H3754 C3760 0.926 1_556 S
H3755 C3761 0.913 1_556 S
H3756 C3762 0.949 . S
C3757 H3752 0.950 . S
C3757 C3759 1.327 . S
C3757 C3763 1.429 . S
C3758 C3750 1.574 . S
C3758 H3753 0.948 1_554 S
C3758 C3764 1.368 . S
C3759 C3743 1.349 . S
C3759 H3751 0.950 . S
C3759 C3757 1.327 . S
C3760 C3748 1.349 . S
C3760 H3754 0.926 1_554 S
C3760 C3761 1.327 . S
C3761 H3755 0.913 1_554 S
C3761 C3760 1.327 . S
C3761 C3765 1.429 . S
C3762 C3745 1.574 . S
C3762 H3756 0.949 . S
C3762 C3766 1.368 . S
C3763 C3744 1.429 . S
C3763 C3757 1.429 . S
C3763 C3764 1.523 . S
C3764 C3745 1.368 . S
C3764 C3758 1.368 . S
C3764 C3763 1.523 . S
C3765 C3749 1.429 . S
C3765 C3761 1.429 . S
C3765 C3766 1.523 . S
C3766 C3750 1.368 . S
C3766 C3762 1.368 . S
C3766 C3765 1.523 . S
H3767 C3742 0.950 . S
H3768 C3744 0.963 . S
H3769 C3745 0.949 . S
H3770 C3747 0.950 . S
H3771 C3749 0.950 . S
C3772 C3773 1.349 . S
C3772 C3774 1.327 . S
C3772 H3797 0.950 . S
C3773 C3772 1.349 . S
C3773 C3789 1.349 . S
C3774 C3772 1.327 . S
C3774 C3793 1.429 . S
C3774 H3798 0.950 . S
C3775 C3792 1.574 . S
C3775 C3794 1.368 . S
C3775 H3799 0.949 . S
H3776 C3780 0.949 . S
C3777 C3778 1.349 . S
C3777 C3779 1.327 . S
C3777 H3800 0.950 . S
C3778 C3777 1.349 . S
C3778 C3790 1.349 . S
C3779 C3777 1.327 . S
C3779 C3795 1.429 . S
C3779 H3801 0.950 . S
C3780 H3776 0.949 . S
C3780 C3788 1.574 . S
C3780 C3796 1.368 . S
H3781 C3789 0.950 . S
H3782 C3787 0.950 . S
H3783 C3788 0.949 . S
H3784 C3790 0.950 . S
H3785 C3791 0.950 . S
H3786 C3792 0.949 . S
C3787 H3782 0.950 . S
C3787 C3789 1.327 . S
C3787 C3793 1.429 . S
C3788 C3780 1.574 . S
C3788 H3783 0.949 . S
C3788 C3794 1.368 . S
C3789 C3773 1.349 . S
C3789 H3781 0.950 . S
C3789 C3787 1.327 . S
C3790 C3778 1.349 . S
C3790 H3784 0.950 . S
C3790 C3791 1.327 . S
C3791 H3785 0.950 . S
C3791 C3790 1.327 . S
C3791 C3795 1.429 . S
C3792 C3775 1.574 . S
C3792 H3786 0.949 . S
C3792 C3796 1.368 . S
C3793 C3774 1.429 . S
C3793 C3787 1.429 . S
C3793 C3794 1.523 . S
C3794 C3775 1.368 . S
C3794 C3788 1.368 . S
C3794 C3793 1.523 . S
C3795 C3779 1.429 . S
C3795 C3791 1.429 . S
C3795 C3796 1.523 . S
C3796 C3780 1.368 . S
C3796 C3792 1.368 . S
C3796 C3795 1.523 . S
H3797 C3772 0.950 . S
H3798 C3774 0.950 . S
H3799 C3775 0.949 . S
H3800 C3777 0.950 . S
H3801 C3779 0.950 . S
C3802 C3803 1.349 . S
C3802 C3804 1.327 . S
C3802 H3827 0.950 . S
C3803 C3802 1.349 . S
C3803 C3819 1.349 . S
C3804 C3802 1.327 . S
C3804 C3823 1.429 . S
C3804 H3828 0.950 . S
C3805 C3822 1.574 . S
C3805 C3824 1.368 . S
C3805 H3829 0.949 . S
H3806 C3810 0.949 . S
C3807 C3808 1.349 . S
C3807 C3809 1.327 . S
C3807 H3830 0.950 . S
C3808 C3807 1.349 . S
C3808 C3820 1.349 . S
C3809 C3807 1.327 . S
C3809 C3825 1.429 . S
C3809 H3831 0.950 . S
C3810 H3806 0.949 . S
C3810 C3818 1.574 . S
C3810 C3826 1.368 . S
H3811 C3819 0.950 . S
H3812 C3817 0.950 . S
H3813 C3818 0.949 . S
H3814 C3820 0.950 . S
H3815 C3821 0.950 . S
H3816 C3822 0.949 . S
C3817 H3812 0.950 . S
C3817 C3819 1.327 . S
C3817 C3823 1.429 . S
C3818 C3810 1.574 . S
C3818 H3813 0.949 . S
C3818 C3824 1.368 . S
C3819 C3803 1.349 . S
C3819 H3811 0.950 . S
C3819 C3817 1.327 . S
C3820 C3808 1.349 . S
C3820 H3814 0.950 . S
C3820 C3821 1.327 . S
C3821 H3815 0.950 . S
C3821 C3820 1.327 . S
C3821 C3825 1.429 . S
C3822 C3805 1.574 . S
C3822 H3816 0.949 . S
C3822 C3826 1.368 . S
C3823 C3804 1.429 . S
C3823 C3817 1.429 . S
C3823 C3824 1.523 . S
C3824 C3805 1.368 . S
C3824 C3818 1.368 . S
C3824 C3823 1.523 . S
C3825 C3809 1.429 . S
C3825 C3821 1.429 . S
C3825 C3826 1.523 . S
C3826 C3810 1.368 . S
C3826 C3822 1.368 . S
C3826 C3825 1.523 . S
H3827 C3802 0.950 . S
H3828 C3804 0.950 . S
H3829 C3805 0.949 . S
H3830 C3807 0.950 . S
H3831 C3809 0.950 . S
C953 C101 1.686 . S
C958 C334 1.660 . S
C983 C57 1.012 . S
C988 C354 1.009 . S
C1013 C70 0.331 . S
C1018 C401 0.343 . S
C1048 C458 0.968 . S
C1043 C82 0.977 . S
C1073 C23 2.511 . S
C1078 C475 2.502 . S
C1108 C534 1.507 . S
C1103 C29 1.522 . S
C1138 C567 2.572 . S
C1133 C49 2.564 . S
C1163 C10 2.479 . S
C1168 C614 2.449 . S
C1198 C327 1.405 . S
C1193 C218 1.387 . S
C1223 C226 1.070 . S
C1228 C355 1.060 . S
C1258 C394 0.475 . S
C1253 C251 0.448 1_565 S
C1288 C454 1.898 . S
C1283 C159 1.898 . S
C1313 C211 0.176 . S
C1318 C481 0.227 . S
C1348 C527 2.220 . S
C1343 C225 2.227 . S
C1378 C578 0.519 . S
C1373 C252 0.361 . S
C1408 C607 2.197 . S
C1403 C166 2.190 . S
C1438 C338 1.720 . S
C1433 C147 1.733 . S
C1463 C263 2.221 . S
C1468 C634 2.199 . S
C1498 C698 1.163 . S
C1493 C309 1.168 . S
C1528 C734 1.175 . S
C1523 C291 1.177 . S
C1553 C108 1.190 . S
C1558 C618 1.195 . S
C1583 C121 2.469 . S
C1588 C395 2.466 . S
C1613 C302 1.277 . S
C1618 C767 1.297 . S
C1648 C801 0.260 . S
C1643 C276 0.322 . S
C1678 C315 1.923 1_565 S
C1673 C55 1.923 . S
C1708 C807 1.329 . S
C1703 C96 1.362 . S
C1733 C88 0.802 . S
C1738 C418 0.800 . S
C1763 C75 1.121 . S
C1768 C761 1.111 . S
C1798 C494 2.955 . S
C1793 C4 2.971 . S
C1823 C44 1.860 . S
C1828 C675 1.857 . S
C1858 C554 2.994 1_566 S
C1853 C31 3.007 . S
C1888 C835 2.612 . S
C1883 C18 2.626 1_655 S
C1918 C314 1.567 1_556 S
C1913 C133 1.573 . S
C1948 C814 1.755 . S
C1943 C296 1.773 . S
C1973 C107 0.810 . S
C1978 C407 0.806 . S
C2003 C264 2.285 . S
C2008 C755 2.294 . S
C2033 C140 0.466 . S
C2038 C498 0.484 . S
C2068 C674 2.614 . S
C2063 C289 2.630 . S
C2093 C114 0.288 . S
C2098 C561 0.384 . S
C2123 C265 2.577 . S
C2128 C834 2.565 . S
C2153 C179 1.673 . S
C2158 C321 1.660 1_556 S
C2183 C161 2.464 . S
C2188 C647 2.430 . S
C2213 C244 1.324 . S
C2218 C521 1.317 . S
C2243 C224 1.491 . S
C2248 C715 1.493 . S
C2278 C841 1.140 . S
C2273 C257 1.142 . S
C2303 C199 2.819 . S
C2308 C414 2.823 . S
C2338 C434 1.700 . S
C2333 C237 1.700 . S
C2368 C378 0.384 . S
C2363 C185 0.336 . S
C2393 C69 1.687 . S
C2398 C894 1.664 . S
C2428 C794 1.009 . S
C2423 C83 1.012 . S
C2453 C94 0.331 . S
C2458 C921 0.347 . S
C2483 C56 0.977 . S
C2488 C778 0.968 . S
C2513 C42 2.521 . S
C2518 C635 2.511 . S
C2548 C694 1.506 . S
C2543 C3 1.522 . S
C2578 C727 2.582 . S
C2573 C16 2.572 . S
C2608 C854 2.449 . S
C2603 C36 2.480 . S
C2638 C887 1.405 . S
C2633 C238 1.386 . S
C2663 C174 1.069 . S
C2668 C795 1.064 . S
C2698 C914 0.475 . S
C2693 C186 0.450 . S
C2728 C774 1.897 . S
C2723 C198 1.897 . S
C2758 C641 0.228 . S
C2753 C239 0.177 . S
C2783 C173 2.227 . S
C2788 C687 2.215 . S
C2818 C738 0.518 . S
C2813 C187 0.360 . S
C2843 C205 2.191 . S
C2848 C847 2.198 . S
C2878 C898 1.712 . S
C2873 C290 1.732 . S
C2903 C122 2.222 . S
C2908 C474 2.200 . S
C2938 C538 1.165 . S
C2933 C134 1.170 . S
C2968 C574 1.177 . S
C2963 C148 1.178 . S
C2998 C858 1.193 . S
C2993 C283 1.188 . S
C3023 C270 2.468 . S
C3028 C915 2.465 . S
C3058 C447 1.297 . S
C3053 C135 1.277 . S
C3088 C361 0.260 . S
C3083 C109 0.322 . S
C3113 C81 1.924 . S
C3118 C875 1.924 . S
C3148 C367 1.329 . S
C3143 C68 1.355 . S
C3173 C62 0.802 . S
C3178 C938 0.801 . S
C3203 C95 1.120 . S
C3208 C441 1.103 . S
C3233 C30 2.972 . S
C3238 C654 2.956 . S
C3268 C515 1.847 . S
C3263 C17 1.853 . S
C3293 C5 3.007 . S
C3298 C714 2.995 . S
C3323 C43 2.618 . S
C3328 C595 2.602 . S
C3358 C874 1.568 . S
C3353 C304 1.573 . S
C3383 C153 1.772 . S
C3388 C374 1.755 . S
C3418 C927 0.805 . S
C3413 C278 0.810 . S
C3443 C127 2.284 . S
C3448 C435 2.293 . S
C3473 C303 0.463 . S
C3478 C658 0.481 . S
C3508 C514 2.612 . S
C3503 C146 2.628 1_556 S
C3533 C277 0.287 . S
C3538 C721 0.384 . S
C3568 C594 2.563 . S
C3563 C120 2.576 . S
C3598 C881 1.661 . S
C3593 C231 1.673 . S
C3628 C487 2.429 1_665 S
C3623 C200 2.463 . S
C3653 C212 1.325 . S
C3658 C681 1.318 . S
C3688 C555 1.492 . S
C3683 C172 1.490 . S
C3713 C192 1.141 . S
C3718 C601 1.139 . S
C3743 C160 2.819 . S
C3748 C934 2.813 . S
C3778 C754 1.702 . S
C3773 C213 1.702 . S
C3808 C818 0.385 . S
C3803 C250 0.337 . S
