# Generated by pormake.
# Topology ocu, (6,8)-cn, num edge types: 1
# Building blocks:
#     Node 0, Type 0, BuildingBlock: KUMBUR_clean_sbu_0, # of connection points: 6
#     Node 1, Type 0, BuildingBlock: KUMBUR_clean_sbu_0, # of connection points: 6
#     Node 2, Type 0, BuildingBlock: KUMBUR_clean_sbu_0, # of connection points: 6
#     Node 3, Type 0, BuildingBlock: KUMBUR_clean_sbu_0, # of connection points: 6
#     Node 4, Type 0, BuildingBlock: KUMBUR_clean_sbu_0, # of connection points: 6
#     Node 5, Type 0, BuildingBlock: KUMBUR_clean_sbu_0, # of connection points: 6
#     Node 6, Type 0, BuildingBlock: KUMBUR_clean_sbu_0, # of connection points: 6
#     Node 7, Type 0, BuildingBlock: KUMBUR_clean_sbu_0, # of connection points: 6
#     Node 8, Type 1, BuildingBlock: AJUNOK_clean_sbu_0, # of connection points: 8
#     Node 9, Type 1, BuildingBlock: AJUNOK_clean_sbu_0, # of connection points: 8
#     Node 10, Type 1, BuildingBlock: AJUNOK_clean_sbu_0, # of connection points: 8
#     Node 11, Type 1, BuildingBlock: AJUNOK_clean_sbu_0, # of connection points: 8
#     Node 12, Type 1, BuildingBlock: AJUNOK_clean_sbu_0, # of connection points: 8
#     Node 13, Type 1, BuildingBlock: AJUNOK_clean_sbu_0, # of connection points: 8
#     Edge 14, Type (0, 1), BuildingBlock: ZUJKAS_clean_linker_0, # of connection points: 2
#     Edge 15, Type (0, 1), BuildingBlock: ZUJKAS_clean_linker_0, # of connection points: 2
#     Edge 16, Type (0, 1), BuildingBlock: ZUJKAS_clean_linker_0, # of connection points: 2
#     Edge 17, Type (0, 1), BuildingBlock: ZUJKAS_clean_linker_0, # of connection points: 2
#     Edge 18, Type (0, 1), BuildingBlock: ZUJKAS_clean_linker_0, # of connection points: 2
#     Edge 19, Type (0, 1), BuildingBlock: ZUJKAS_clean_linker_0, # of connection points: 2
#     Edge 20, Type (0, 1), BuildingBlock: ZUJKAS_clean_linker_0, # of connection points: 2
#     Edge 21, Type (0, 1), BuildingBlock: ZUJKAS_clean_linker_0, # of connection points: 2
#     Edge 22, Type (0, 1), BuildingBlock: ZUJKAS_clean_linker_0, # of connection points: 2
#     Edge 23, Type (0, 1), BuildingBlock: ZUJKAS_clean_linker_0, # of connection points: 2
#     Edge 24, Type (0, 1), BuildingBlock: ZUJKAS_clean_linker_0, # of connection points: 2
#     Edge 25, Type (0, 1), BuildingBlock: ZUJKAS_clean_linker_0, # of connection points: 2
#     Edge 26, Type (0, 1), BuildingBlock: ZUJKAS_clean_linker_0, # of connection points: 2
#     Edge 27, Type (0, 1), BuildingBlock: ZUJKAS_clean_linker_0, # of connection points: 2
#     Edge 28, Type (0, 1), BuildingBlock: ZUJKAS_clean_linker_0, # of connection points: 2
#     Edge 29, Type (0, 1), BuildingBlock: ZUJKAS_clean_linker_0, # of connection points: 2
#     Edge 30, Type (0, 1), BuildingBlock: ZUJKAS_clean_linker_0, # of connection points: 2
#     Edge 31, Type (0, 1), BuildingBlock: ZUJKAS_clean_linker_0, # of connection points: 2
#     Edge 32, Type (0, 1), BuildingBlock: ZUJKAS_clean_linker_0, # of connection points: 2
#     Edge 33, Type (0, 1), BuildingBlock: ZUJKAS_clean_linker_0, # of connection points: 2
#     Edge 34, Type (0, 1), BuildingBlock: ZUJKAS_clean_linker_0, # of connection points: 2
#     Edge 35, Type (0, 1), BuildingBlock: ZUJKAS_clean_linker_0, # of connection points: 2
#     Edge 36, Type (0, 1), BuildingBlock: ZUJKAS_clean_linker_0, # of connection points: 2
#     Edge 37, Type (0, 1), BuildingBlock: ZUJKAS_clean_linker_0, # of connection points: 2
#     Edge 38, Type (0, 1), BuildingBlock: ZUJKAS_clean_linker_0, # of connection points: 2
#     Edge 39, Type (0, 1), BuildingBlock: ZUJKAS_clean_linker_0, # of connection points: 2
#     Edge 40, Type (0, 1), BuildingBlock: ZUJKAS_clean_linker_0, # of connection points: 2
#     Edge 41, Type (0, 1), BuildingBlock: ZUJKAS_clean_linker_0, # of connection points: 2
#     Edge 42, Type (0, 1), BuildingBlock: ZUJKAS_clean_linker_0, # of connection points: 2
#     Edge 43, Type (0, 1), BuildingBlock: ZUJKAS_clean_linker_0, # of connection points: 2
#     Edge 44, Type (0, 1), BuildingBlock: ZUJKAS_clean_linker_0, # of connection points: 2
#     Edge 45, Type (0, 1), BuildingBlock: ZUJKAS_clean_linker_0, # of connection points: 2
#     Edge 46, Type (0, 1), BuildingBlock: ZUJKAS_clean_linker_0, # of connection points: 2
#     Edge 47, Type (0, 1), BuildingBlock: ZUJKAS_clean_linker_0, # of connection points: 2
#     Edge 48, Type (0, 1), BuildingBlock: ZUJKAS_clean_linker_0, # of connection points: 2
#     Edge 49, Type (0, 1), BuildingBlock: ZUJKAS_clean_linker_0, # of connection points: 2
#     Edge 50, Type (0, 1), BuildingBlock: ZUJKAS_clean_linker_0, # of connection points: 2
#     Edge 51, Type (0, 1), BuildingBlock: ZUJKAS_clean_linker_0, # of connection points: 2
#     Edge 52, Type (0, 1), BuildingBlock: ZUJKAS_clean_linker_0, # of connection points: 2
#     Edge 53, Type (0, 1), BuildingBlock: ZUJKAS_clean_linker_0, # of connection points: 2
#     Edge 54, Type (0, 1), BuildingBlock: ZUJKAS_clean_linker_0, # of connection points: 2
#     Edge 55, Type (0, 1), BuildingBlock: ZUJKAS_clean_linker_0, # of connection points: 2
#     Edge 56, Type (0, 1), BuildingBlock: ZUJKAS_clean_linker_0, # of connection points: 2
#     Edge 57, Type (0, 1), BuildingBlock: ZUJKAS_clean_linker_0, # of connection points: 2
#     Edge 58, Type (0, 1), BuildingBlock: ZUJKAS_clean_linker_0, # of connection points: 2
#     Edge 59, Type (0, 1), BuildingBlock: ZUJKAS_clean_linker_0, # of connection points: 2
#     Edge 60, Type (0, 1), BuildingBlock: ZUJKAS_clean_linker_0, # of connection points: 2
#     Edge 61, Type (0, 1), BuildingBlock: ZUJKAS_clean_linker_0, # of connection points: 2
# Relax obj value: 0.158
# Max RMSD: 0.259
# Mean RMSD: 0.211
data_MOF--net-ocu--node1-KUMBUR_clean_sbu_0--node2-AJUNOK_clean_sbu_0--edge1-ZUJKAS_clean_linker_0
_symmetry_space_group_name_H-M    P1
_symmetry_Int_Tables_number       1
_symmetry_cell_setting            triclinic
loop_
_symmetry_equiv_pos_as_xyz
'x, y, z'
_cell_length_a     54.100837
_cell_length_b     52.979213
_cell_length_c     48.577073
_cell_angle_alpha  87.896418
_cell_angle_beta   103.81403
_cell_angle_gamma 111.28729
loop_
_atom_site_label
_atom_site_type_symbol
_atom_site_fract_x
_atom_site_fract_y
_atom_site_fract_z
_atom_type_partial_charge
Tb0 Tb 0.26588 0.23677 0.21622 0.0
C1 C 0.33518 0.29938 0.32905 0.0
C2 C 0.33558 0.26408 0.3619 0.0
C3 C 0.37396 0.30714 0.36957 0.0
C4 C 0.32291 0.27354 0.33705 0.0
C5 C 0.36052 0.31682 0.34556 0.0
C6 C 0.36151 0.28076 0.37771 0.0
C7 C 0.35601 0.35265 0.31492 0.0
N8 N 0.32137 0.30793 0.30592 0.0
C9 C 0.33091 0.33453 0.29925 0.0
C10 C 0.37109 0.34366 0.33794 0.0
Tb11 Tb 0.2808 0.27672 0.28103 0.0
N12 N 0.29768 0.25838 0.32146 0.0
C13 C 0.28302 0.23426 0.33102 0.0
C14 C 0.32138 0.23858 0.37063 0.0
C15 C 0.29479 0.22382 0.35537 0.0
H16 H 0.31956 0.34169 0.28139 0.0
H17 H 0.28335 0.20434 0.36229 0.0
H18 H 0.37172 0.27376 0.39671 0.0
H19 H 0.36374 0.3735 0.30916 0.0
H20 H 0.26249 0.22242 0.31957 0.0
H21 H 0.26264 0.30899 0.13489 0.0
H22 H 0.33041 0.23049 0.38953 0.0
H23 H 0.22733 0.17173 0.21619 0.0
H24 H 0.28368 0.29119 0.17768 0.0
H25 H 0.18334 0.13967 0.18843 0.0
H26 H 0.39359 0.32011 0.3824 0.0
H27 H 0.21576 0.28241 0.10754 0.0
H28 H 0.17477 0.23887 0.10034 0.0
H29 H 0.39049 0.35774 0.35009 0.0
H30 H 0.1532 0.1925 0.11476 0.0
N31 N 0.24881 0.25491 0.17572 0.0
C32 C 0.26325 0.27914 0.16618 0.0
C33 C 0.22488 0.27443 0.12647 0.0
C34 C 0.21089 0.24886 0.1352 0.0
C35 C 0.25136 0.28944 0.14179 0.0
C36 C 0.22366 0.23955 0.1601 0.0
H37 H 0.15652 0.15509 0.14728 0.0
N38 N 0.2254 0.20534 0.19143 0.0
C39 C 0.19097 0.1605 0.18258 0.0
C40 C 0.21154 0.21371 0.16818 0.0
C41 C 0.21597 0.17878 0.19826 0.0
C42 C 0.17585 0.16929 0.15942 0.0
C43 C 0.18628 0.1961 0.15168 0.0
O44 O 0.27893 0.20502 0.20933 0.0
O45 O 0.28713 0.24459 0.26079 0.0
O46 O 0.3195 0.28732 0.26872 0.0
O47 O 0.30222 0.27411 0.22055 0.0
O48 O 0.26847 0.20519 0.24601 0.0
O49 O 0.29243 0.24259 0.18915 0.0
O50 O 0.2681 0.30862 0.28831 0.0
O51 O 0.25969 0.26896 0.2365 0.0
O52 O 0.22712 0.22653 0.2282 0.0
O53 O 0.24422 0.23948 0.27645 0.0
O54 O 0.27797 0.30832 0.25134 0.0
O55 O 0.25402 0.27078 0.30786 0.0
C56 C 0.28362 0.22058 0.2681 0.0
C57 C 0.28971 0.20309 0.16531 0.0
C58 C 0.30652 0.17776 0.13764 0.0
C59 C 0.30931 0.19205 0.16292 0.0
C60 C 0.28352 0.17448 0.11508 0.0
C61 C 0.26716 0.1996 0.14241 0.0
C62 C 0.26409 0.18531 0.1175 0.0
C63 C 0.32237 0.28755 0.24238 0.0
C64 C 0.29306 0.21826 0.1917 0.0
C65 C 0.17277 0.20561 0.12758 0.0
C66 C 0.18504 0.232 0.11938 0.0
C67 C 0.26295 0.29293 0.2292 0.0
C68 C 0.25682 0.31003 0.33217 0.0
C69 C 0.23685 0.32044 0.33488 0.0
C70 C 0.23942 0.33429 0.36037 0.0
C71 C 0.26255 0.33777 0.38281 0.0
C72 C 0.27951 0.31372 0.35496 0.0
C73 C 0.28235 0.32757 0.38007 0.0
C74 C 0.22405 0.22641 0.25444 0.0
C75 C 0.25365 0.29521 0.30562 0.0
H76 H 0.32689 0.19498 0.18054 0.0
H77 H 0.28033 0.16322 0.09557 0.0
H78 H 0.25197 0.20795 0.14373 0.0
H79 H 0.24654 0.1826 0.09997 0.0
H80 H 0.21916 0.31736 0.31735 0.0
H81 H 0.26555 0.3487 0.40248 0.0
H82 H 0.29498 0.30584 0.35338 0.0
H83 H 0.3 0.33043 0.39752 0.0
Tb84 Tb 0.77685 0.23855 0.24196 0.0
C85 C 0.72945 0.30418 0.30203 0.0
C86 C 0.68153 0.27701 0.2961 0.0
C87 C 0.70605 0.30785 0.33776 0.0
C88 C 0.70583 0.28476 0.2867 0.0
C89 C 0.72986 0.31627 0.32758 0.0
C90 C 0.68188 0.28829 0.32199 0.0
C91 C 0.77667 0.34528 0.32995 0.0
N92 N 0.75188 0.3118 0.29134 0.0
C93 C 0.77512 0.33283 0.30436 0.0
C94 C 0.75402 0.33678 0.34178 0.0
Tb95 Tb 0.74781 0.28931 0.25007 0.0
N96 N 0.70645 0.27427 0.26194 0.0
C97 C 0.6828 0.25708 0.24458 0.0
C98 C 0.65752 0.25871 0.27887 0.0
C99 C 0.65813 0.24883 0.25291 0.0
H100 H 0.79284 0.3394 0.29556 0.0
H101 H 0.63961 0.23487 0.23927 0.0
H102 H 0.66348 0.28238 0.32974 0.0
H103 H 0.79535 0.36137 0.34056 0.0
H104 H 0.68284 0.24912 0.2245 0.0
H105 H 0.8844 0.2943 0.2497 0.0
H106 H 0.63833 0.25256 0.2851 0.0
H107 H 0.73264 0.18537 0.19964 0.0
H108 H 0.84179 0.27967 0.26573 0.0
H109 H 0.73015 0.16122 0.1562 0.0
H110 H 0.70596 0.31673 0.35746 0.0
H111 H 0.885 0.27581 0.20394 0.0
H112 H 0.85976 0.24361 0.16103 0.0
H113 H 0.75524 0.34652 0.36154 0.0
H114 H 0.81771 0.2072 0.13557 0.0
N115 N 0.81782 0.2534 0.22913 0.0
C116 C 0.84155 0.27123 0.24577 0.0
C117 C 0.86613 0.26929 0.21087 0.0
C118 C 0.8422 0.24996 0.19467 0.0
C119 C 0.86589 0.27967 0.23674 0.0
C120 C 0.81823 0.24214 0.20473 0.0
H121 H 0.76937 0.176 0.13386 0.0
N122 N 0.77284 0.21413 0.20198 0.0
C123 C 0.74848 0.17826 0.16562 0.0
C124 C 0.79484 0.22172 0.1906 0.0
C125 C 0.75004 0.19203 0.19039 0.0
C126 C 0.77061 0.18671 0.15302 0.0
C127 C 0.79435 0.20847 0.16572 0.0
O128 O 0.76676 0.19923 0.25709 0.0
O129 O 0.74725 0.24901 0.25675 0.0
O130 O 0.76726 0.2806 0.29219 0.0
O131 O 0.79924 0.26589 0.28028 0.0
O132 O 0.73529 0.21025 0.24141 0.0
O133 O 0.80629 0.2302 0.27391 0.0
O134 O 0.75746 0.32976 0.23867 0.0
O135 O 0.77701 0.27879 0.23482 0.0
O136 O 0.75633 0.24542 0.19955 0.0
O137 O 0.7258 0.26299 0.21084 0.0
O138 O 0.78919 0.31778 0.24972 0.0
O139 O 0.71941 0.29851 0.21761 0.0
C140 C 0.7275 0.22673 0.2526 0.0
C141 C 0.78594 0.20133 0.30677 0.0
C142 C 0.80713 0.20197 0.35734 0.0
C143 C 0.80929 0.20595 0.32905 0.0
C144 C 0.78121 0.19419 0.36315 0.0
C145 C 0.76017 0.19285 0.31303 0.0
C146 C 0.75792 0.18967 0.34108 0.0
C147 C 0.7899 0.2751 0.2991 0.0
C148 C 0.78904 0.20641 0.27742 0.0
C149 C 0.81773 0.21695 0.1548 0.0
C150 C 0.84165 0.23768 0.16928 0.0
C151 C 0.79655 0.3012 0.23809 0.0
C152 C 0.74189 0.33148 0.18887 0.0
C153 C 0.72027 0.32395 0.16435 0.0
C154 C 0.72509 0.33124 0.13742 0.0
C155 C 0.75193 0.346 0.13527 0.0
C156 C 0.76854 0.34649 0.18619 0.0
C157 C 0.7734 0.35365 0.15955 0.0
C158 C 0.73412 0.25174 0.19254 0.0
C159 C 0.7364 0.32325 0.21689 0.0
H160 H 0.8292 0.21258 0.32428 0.0
H161 H 0.77878 0.19063 0.38462 0.0
H162 H 0.74173 0.18864 0.29634 0.0
H163 H 0.73798 0.18325 0.34569 0.0
H164 H 0.69958 0.31299 0.16638 0.0
H165 H 0.7563 0.35189 0.11485 0.0
H166 H 0.78568 0.3528 0.2046 0.0
H167 H 0.79383 0.36553 0.15777 0.0
Tb168 Tb 0.74222 0.73677 0.27395 0.0
C169 C 0.81585 0.82125 0.20902 0.0
C170 C 0.78454 0.82177 0.16444 0.0
C171 C 0.82437 0.86227 0.1828 0.0
C172 C 0.79233 0.80826 0.1886 0.0
C173 C 0.83262 0.84817 0.20608 0.0
C174 C 0.8003 0.84908 0.16202 0.0
C175 C 0.86552 0.84414 0.24773 0.0
N176 N 0.8231 0.80682 0.23096 0.0
C177 C 0.84808 0.81748 0.24971 0.0
C178 C 0.85757 0.85972 0.22608 0.0
Tb179 Tb 0.79314 0.76362 0.23301 0.0
N180 N 0.77806 0.7818 0.1916 0.0
C181 C 0.75696 0.76698 0.16981 0.0
C182 C 0.76175 0.80714 0.14304 0.0
C183 C 0.74819 0.77949 0.14553 0.0
H184 H 0.85438 0.80572 0.26665 0.0
H185 H 0.73094 0.76779 0.12879 0.0
H186 H 0.79451 0.85991 0.14376 0.0
H187 H 0.88502 0.85267 0.26298 0.0
H188 H 0.7461 0.74562 0.17126 0.0
H189 H 0.80462 0.73199 0.37789 0.0
H190 H 0.75499 0.81676 0.12418 0.0
H191 H 0.68061 0.69505 0.24067 0.0
H192 H 0.78944 0.75441 0.33561 0.0
H193 H 0.64997 0.64806 0.24406 0.0
H194 H 0.83682 0.88307 0.18028 0.0
H195 H 0.78037 0.68304 0.38234 0.0
H196 H 0.74074 0.64003 0.36266 0.0
H197 H 0.87111 0.88034 0.22457 0.0
H198 H 0.69831 0.6171 0.32621 0.0
N199 N 0.75734 0.71835 0.31519 0.0
C200 C 0.77853 0.73305 0.33699 0.0
C201 C 0.77365 0.69276 0.36355 0.0
C202 C 0.75079 0.67826 0.34215 0.0
C203 C 0.7873 0.7204 0.36115 0.0
C204 C 0.74299 0.69189 0.3181 0.0
H205 H 0.66395 0.62011 0.28212 0.0
N206 N 0.71211 0.69362 0.27595 0.0
C207 C 0.66955 0.65646 0.25922 0.0
C208 C 0.71939 0.67905 0.29775 0.0
C209 C 0.687 0.68314 0.25739 0.0
C210 C 0.67754 0.64072 0.28067 0.0
C211 C 0.70255 0.65213 0.30061 0.0
O212 O 0.70652 0.74551 0.27053 0.0
O213 O 0.75473 0.76249 0.24017 0.0
O214 O 0.7949 0.79832 0.2576 0.0
O215 O 0.77478 0.7749 0.29314 0.0
O216 O 0.71446 0.73915 0.23371 0.0
O217 O 0.73883 0.75711 0.30849 0.0
O218 O 0.82947 0.75628 0.2357 0.0
O219 O 0.78061 0.73798 0.26671 0.0
O220 O 0.73966 0.70203 0.24892 0.0
O221 O 0.76078 0.72544 0.21391 0.0
O222 O 0.82091 0.76101 0.27318 0.0
O223 O 0.79576 0.7418 0.19915 0.0
C224 C 0.73179 0.75761 0.22276 0.0
C225 C 0.69441 0.75093 0.31307 0.0
C226 C 0.6648 0.76537 0.33494 0.0
C227 C 0.68462 0.77103 0.31886 0.0
C228 C 0.65527 0.73929 0.34529 0.0
C229 C 0.68455 0.72519 0.32367 0.0
C230 C 0.66511 0.71946 0.33971 0.0
C231 C 0.78814 0.79759 0.2822 0.0
C232 C 0.71477 0.75719 0.29587 0.0
C233 C 0.71081 0.6379 0.32375 0.0
C234 C 0.73495 0.65095 0.34449 0.0
C235 C 0.80351 0.74257 0.28406 0.0
C236 C 0.83973 0.74932 0.19242 0.0
C237 C 0.84894 0.72913 0.18554 0.0
C238 C 0.86689 0.73438 0.1673 0.0
C239 C 0.87558 0.76033 0.15645 0.0
C240 C 0.84862 0.77486 0.18115 0.0
C241 C 0.8665 0.7803 0.16334 0.0
C242 C 0.74667 0.70288 0.22446 0.0
C243 C 0.82053 0.74323 0.21098 0.0
H244 H 0.69215 0.79089 0.31047 0.0
H245 H 0.64044 0.73426 0.35809 0.0
H246 H 0.6919 0.70957 0.31959 0.0
H247 H 0.65764 0.69955 0.34792 0.0
H248 H 0.84176 0.70926 0.19399 0.0
H249 H 0.8897 0.76537 0.14284 0.0
H250 H 0.84172 0.79055 0.18608 0.0
H251 H 0.87339 0.80013 0.15481 0.0
Tb252 Tb 0.28351 0.73313 0.2578 0.0
C253 C 0.23866 0.81473 0.19058 0.0
C254 C 0.27809 0.85615 0.19475 0.0
C255 C 0.23996 0.84667 0.15325 0.0
C256 C 0.26433 0.83114 0.20529 0.0
C257 C 0.22581 0.82251 0.16471 0.0
C258 C 0.26609 0.86349 0.16828 0.0
C259 C 0.1851 0.78348 0.16505 0.0
N260 N 0.22558 0.7919 0.20269 0.0
C261 C 0.19871 0.77674 0.19085 0.0
C262 C 0.19882 0.80628 0.15171 0.0
Tb263 Tb 0.24952 0.78215 0.24472 0.0
N264 N 0.27488 0.82349 0.23098 0.0
C265 C 0.29845 0.841 0.24816 0.0
C266 C 0.30294 0.87344 0.21163 0.0
C267 C 0.31301 0.86595 0.23859 0.0
H268 H 0.18795 0.759 0.20088 0.0
H269 H 0.33198 0.87941 0.25205 0.0
H270 H 0.27648 0.88248 0.15967 0.0
H271 H 0.16405 0.77106 0.15546 0.0
H272 H 0.3066 0.83563 0.26905 0.0
H273 H 0.20124 0.63534 0.2465 0.0
H274 H 0.31403 0.89294 0.20443 0.0
H275 H 0.34405 0.75568 0.30346 0.0
H276 H 0.22663 0.67998 0.23139 0.0
H277 H 0.36654 0.74297 0.34935 0.0
H278 H 0.23057 0.85291 0.13326 0.0
H279 H 0.21816 0.6206 0.29374 0.0
H280 H 0.25385 0.63081 0.34001 0.0
H281 H 0.18819 0.81153 0.13181 0.0
H282 H 0.29884 0.66043 0.36838 0.0
N283 N 0.25747 0.69147 0.27022 0.0
C284 C 0.23432 0.6742 0.25224 0.0
C285 C 0.22916 0.6406 0.28753 0.0
C286 C 0.25328 0.65793 0.30553 0.0
C287 C 0.21971 0.64874 0.26073 0.0
C288 C 0.26725 0.6834 0.29599 0.0
H289 H 0.34132 0.70212 0.37178 0.0
N290 N 0.30604 0.72298 0.30045 0.0
C291 C 0.34562 0.73074 0.33909 0.0
C292 C 0.29242 0.69987 0.31182 0.0
C293 C 0.33281 0.73785 0.31306 0.0
C294 C 0.33128 0.70773 0.35175 0.0
C295 C 0.30453 0.69163 0.33781 0.0
O296 O 0.31926 0.7346 0.24666 0.0
O297 O 0.28239 0.77046 0.23979 0.0
O298 O 0.24431 0.76351 0.20342 0.0
O299 O 0.25176 0.7236 0.21741 0.0
O300 O 0.3199 0.76949 0.25842 0.0
O301 O 0.28054 0.70325 0.22848 0.0
O302 O 0.21434 0.78228 0.25611 0.0
O303 O 0.25056 0.74472 0.26221 0.0
O304 O 0.28818 0.75175 0.29895 0.0
O305 O 0.28186 0.79204 0.28464 0.0
O306 O 0.21307 0.74596 0.24514 0.0
O307 O 0.25422 0.81128 0.27566 0.0
C308 C 0.30751 0.78434 0.24456 0.0
C309 C 0.3201 0.69249 0.23443 0.0
C310 C 0.34687 0.67045 0.21805 0.0
C311 C 0.33261 0.68835 0.21367 0.0
C312 C 0.34822 0.65655 0.24324 0.0
C313 C 0.32131 0.6781 0.25922 0.0
C314 C 0.33534 0.66026 0.26359 0.0
C315 C 0.2429 0.73865 0.19789 0.0
C316 C 0.30674 0.71251 0.23037 0.0
C317 C 0.29003 0.66703 0.34831 0.0
C318 C 0.26444 0.65016 0.33215 0.0
C319 C 0.22554 0.73087 0.25821 0.0
C320 C 0.2168 0.82508 0.2712 0.0
C321 C 0.20339 0.82811 0.29158 0.0
C322 C 0.19337 0.84931 0.29035 0.0
C323 C 0.19665 0.86718 0.26821 0.0
C324 C 0.21987 0.84311 0.24931 0.0
C325 C 0.20975 0.864 0.24781 0.0
C326 C 0.29003 0.77678 0.30437 0.0
C327 C 0.22804 0.80348 0.27355 0.0
H328 H 0.33172 0.6994 0.19445 0.0
H329 H 0.35893 0.64252 0.24697 0.0
H330 H 0.31159 0.68069 0.27522 0.0
H331 H 0.33626 0.64931 0.28284 0.0
H332 H 0.20129 0.81435 0.30869 0.0
H333 H 0.18885 0.88348 0.26653 0.0
H334 H 0.23021 0.84122 0.23355 0.0
H335 H 0.21217 0.87784 0.23083 0.0
Tb336 Tb 0.28062 0.72925 0.73543 0.0
C337 C 0.23167 0.77906 0.81219 0.0
C338 C 0.18502 0.74807 0.80619 0.0
C339 C 0.20899 0.77481 0.85064 0.0
C340 C 0.2087 0.75986 0.79583 0.0
C341 C 0.232 0.78735 0.83956 0.0
C342 C 0.1855 0.75515 0.83396 0.0
C343 C 0.27662 0.82141 0.84169 0.0
N344 N 0.25328 0.79066 0.80058 0.0
C345 C 0.2754 0.8122 0.81461 0.0
C346 C 0.25506 0.80858 0.8545 0.0
Tb347 Tb 0.24993 0.7742 0.75625 0.0
N348 N 0.20918 0.75376 0.76916 0.0
C349 C 0.18569 0.73731 0.75095 0.0
C350 C 0.16139 0.73017 0.78806 0.0
C351 C 0.16164 0.72505 0.76019 0.0
H352 H 0.2924 0.8221 0.80517 0.0
H353 H 0.14335 0.71157 0.7458 0.0
H354 H 0.16762 0.74608 0.84243 0.0
H355 H 0.29414 0.83848 0.85259 0.0
H356 H 0.18531 0.73288 0.7294 0.0
H357 H 0.3885 0.78554 0.74615 0.0
H358 H 0.14273 0.72076 0.79514 0.0
H359 H 0.2344 0.68534 0.68447 0.0
H360 H 0.34622 0.76713 0.76249 0.0
H361 H 0.23034 0.6711 0.63532 0.0
H362 H 0.2089 0.78067 0.87174 0.0
H363 H 0.38811 0.7762 0.69647 0.0
H364 H 0.36169 0.75295 0.64857 0.0
H365 H 0.25608 0.81572 0.87551 0.0
H366 H 0.31854 0.72187 0.61829 0.0
N367 N 0.32135 0.74773 0.72242 0.0
C368 C 0.34542 0.76278 0.74077 0.0
C369 C 0.36933 0.76807 0.70353 0.0
C370 C 0.34491 0.75182 0.68513 0.0
C371 C 0.36962 0.77333 0.73157 0.0
C372 C 0.32112 0.74154 0.69548 0.0
H373 H 0.26944 0.69107 0.61322 0.0
N374 N 0.27524 0.71371 0.69007 0.0
C375 C 0.24926 0.68602 0.64726 0.0
C376 C 0.29714 0.72397 0.67864 0.0
C377 C 0.2517 0.69407 0.67519 0.0
C378 C 0.27134 0.6974 0.63482 0.0
C379 C 0.29583 0.71631 0.65069 0.0
O380 O 0.27266 0.68756 0.73758 0.0
O381 O 0.25192 0.73457 0.75613 0.0
O382 O 0.27344 0.76355 0.79496 0.0
O383 O 0.30432 0.75157 0.77672 0.0
O384 O 0.23998 0.69842 0.73466 0.0
O385 O 0.30817 0.71659 0.76561 0.0
O386 O 0.25777 0.81568 0.75087 0.0
O387 O 0.27943 0.7691 0.73656 0.0
O388 O 0.25975 0.74327 0.69735 0.0
O389 O 0.22691 0.75148 0.7151 0.0
O390 O 0.29065 0.8052 0.75813 0.0
O391 O 0.22128 0.78537 0.72589 0.0
C392 C 0.23292 0.71187 0.7507 0.0
C393 C 0.28368 0.67641 0.78542 0.0
C394 C 0.29451 0.66802 0.83597 0.0
C395 C 0.30205 0.68215 0.81231 0.0
C396 C 0.26786 0.64861 0.83242 0.0
C397 C 0.25731 0.65667 0.78246 0.0
C398 C 0.24949 0.64308 0.80586 0.0
C399 C 0.29652 0.75912 0.79803 0.0
C400 C 0.29198 0.69117 0.76069 0.0
C401 C 0.31914 0.72733 0.63978 0.0
C402 C 0.34368 0.74503 0.65701 0.0
C403 C 0.29847 0.79176 0.74286 0.0
C404 C 0.24456 0.82281 0.70194 0.0
C405 C 0.22391 0.81825 0.67677 0.0
C406 C 0.23012 0.8293 0.6513 0.0
C407 C 0.25762 0.84411 0.65123 0.0
C408 C 0.27176 0.83822 0.70134 0.0
C409 C 0.27822 0.84837 0.67605 0.0
C410 C 0.23599 0.7463 0.69369 0.0
C411 C 0.23762 0.81072 0.72836 0.0
H412 H 0.32233 0.69743 0.8147 0.0
H413 H 0.26146 0.63683 0.84987 0.0
H414 H 0.24264 0.65159 0.76207 0.0
H415 H 0.22926 0.62771 0.8032 0.0
H416 H 0.20297 0.80624 0.67716 0.0
H417 H 0.26323 0.8534 0.6323 0.0
H418 H 0.28819 0.84249 0.72033 0.0
H419 H 0.29925 0.86008 0.67582 0.0
Tb420 Tb 0.23948 0.23673 0.77071 0.0
C421 C 0.31337 0.3216 0.70682 0.0
C422 C 0.28193 0.32272 0.66257 0.0
C423 C 0.32188 0.36301 0.68126 0.0
C424 C 0.28973 0.3089 0.68645 0.0
C425 C 0.33025 0.34854 0.70412 0.0
C426 C 0.29769 0.35012 0.66052 0.0
C427 C 0.36359 0.34364 0.74484 0.0
N428 N 0.32077 0.30678 0.72829 0.0
C429 C 0.34607 0.31695 0.74653 0.0
C430 C 0.35544 0.35968 0.72383 0.0
Tb431 Tb 0.29065 0.26362 0.73008 0.0
N432 N 0.27546 0.28235 0.68908 0.0
C433 C 0.25434 0.26779 0.66715 0.0
C434 C 0.25921 0.3083 0.641 0.0
C435 C 0.24564 0.2806 0.6431 0.0
H436 H 0.3525 0.30478 0.76294 0.0
H437 H 0.22843 0.26908 0.62623 0.0
H438 H 0.29185 0.3612 0.64252 0.0
H439 H 0.38332 0.35182 0.75978 0.0
H440 H 0.24346 0.24638 0.66828 0.0
H441 H 0.30119 0.22913 0.87407 0.0
H442 H 0.25257 0.31812 0.62225 0.0
H443 H 0.17722 0.19669 0.73729 0.0
H444 H 0.2867 0.25264 0.83247 0.0
H445 H 0.14541 0.1501 0.74015 0.0
H446 H 0.33438 0.38385 0.67896 0.0
H447 H 0.27599 0.1802 0.87755 0.0
H448 H 0.23549 0.138 0.8573 0.0
H449 H 0.36907 0.3803 0.7225 0.0
H450 H 0.19271 0.11642 0.82084 0.0
N451 N 0.254 0.21725 0.81141 0.0
C452 C 0.27535 0.23131 0.8334 0.0
C453 C 0.26954 0.19041 0.85905 0.0
C454 C 0.24648 0.17659 0.83753 0.0
C455 C 0.28374 0.21803 0.8572 0.0
C456 C 0.2391 0.19084 0.81385 0.0
H457 H 0.15857 0.12099 0.77733 0.0
N458 N 0.20846 0.19392 0.77211 0.0
C459 C 0.16511 0.15783 0.7552 0.0
C460 C 0.21532 0.17874 0.79347 0.0
C461 C 0.18322 0.18428 0.75367 0.0
C462 C 0.17264 0.14143 0.77615 0.0
C463 C 0.19785 0.15199 0.79596 0.0
O464 O 0.20411 0.24589 0.76808 0.0
O465 O 0.25259 0.26303 0.7376 0.0
O466 O 0.29394 0.29806 0.75616 0.0
O467 O 0.27254 0.2741 0.79072 0.0
O468 O 0.21211 0.24034 0.73072 0.0
O469 O 0.23705 0.25752 0.80549 0.0
O470 O 0.32651 0.2553 0.73305 0.0
O471 O 0.27758 0.23725 0.76315 0.0
O472 O 0.23604 0.20211 0.7448 0.0
O473 O 0.25796 0.22579 0.71043 0.0
O474 O 0.31807 0.26008 0.77007 0.0
O475 O 0.29387 0.24331 0.6954 0.0
C476 C 0.22978 0.25886 0.72022 0.0
C477 C 0.19311 0.25172 0.81123 0.0
C478 C 0.16578 0.26705 0.83578 0.0
C479 C 0.18441 0.27225 0.81831 0.0
C480 C 0.1559 0.24079 0.84567 0.0
C481 C 0.18302 0.22589 0.82156 0.0
C482 C 0.16447 0.2205 0.83862 0.0
C483 C 0.28701 0.29684 0.78072 0.0
C484 C 0.21293 0.25773 0.79338 0.0
C485 C 0.20569 0.13711 0.81868 0.0
C486 C 0.23004 0.1494 0.83943 0.0
C487 C 0.30043 0.24145 0.78052 0.0
C488 C 0.33831 0.25067 0.69012 0.0
C489 C 0.3488 0.23123 0.68406 0.0
C490 C 0.36845 0.23766 0.66769 0.0
C491 C 0.37709 0.26382 0.65732 0.0
C492 C 0.34727 0.27649 0.67944 0.0
C493 C 0.36653 0.28297 0.66313 0.0
C494 C 0.24314 0.20316 0.72035 0.0
C495 C 0.31818 0.24369 0.70767 0.0
H496 H 0.19252 0.29233 0.81059 0.0
H497 H 0.14121 0.23577 0.85865 0.0
H498 H 0.1895 0.20994 0.81648 0.0
H499 H 0.15666 0.20044 0.84641 0.0
H500 H 0.34197 0.2113 0.69246 0.0
H501 H 0.39178 0.2694 0.64432 0.0
H502 H 0.33936 0.29161 0.68368 0.0
H503 H 0.37331 0.30294 0.65489 0.0
Tb504 Tb 0.78359 0.22588 0.76113 0.0
C505 C 0.74941 0.31213 0.69066 0.0
C506 C 0.79146 0.3505 0.69351 0.0
C507 C 0.75366 0.34247 0.65187 0.0
C508 C 0.77572 0.32711 0.70508 0.0
C509 C 0.73772 0.31997 0.66423 0.0
C510 C 0.78054 0.3577 0.66648 0.0
C511 C 0.69479 0.28443 0.66567 0.0
N512 N 0.73469 0.29075 0.70351 0.0
C513 C 0.70734 0.2775 0.69196 0.0
C514 C 0.71014 0.30552 0.65154 0.0
Tb515 Tb 0.75703 0.28061 0.7463 0.0
N516 N 0.78529 0.3196 0.73122 0.0
C517 C 0.80985 0.33594 0.74787 0.0
C518 C 0.81729 0.36637 0.70982 0.0
C519 C 0.82634 0.35928 0.7373 0.0
H520 H 0.6953 0.26108 0.70259 0.0
H521 H 0.84607 0.37169 0.75033 0.0
H522 H 0.79242 0.37543 0.65708 0.0
H523 H 0.67331 0.27347 0.65632 0.0
H524 H 0.8173 0.33072 0.76908 0.0
H525 H 0.69403 0.13527 0.75694 0.0
H526 H 0.83007 0.38447 0.7017 0.0
H527 H 0.84536 0.24494 0.80481 0.0
H528 H 0.723 0.17617 0.7383 0.0
H529 H 0.86718 0.23237 0.85104 0.0
H530 H 0.74518 0.34868 0.63142 0.0
H531 H 0.71001 0.12213 0.8054 0.0
H532 H 0.74774 0.13072 0.8499 0.0
H533 H 0.70036 0.3109 0.63123 0.0
H534 H 0.79507 0.15715 0.87558 0.0
N535 N 0.75517 0.1869 0.77606 0.0
C536 C 0.73046 0.1708 0.75944 0.0
C537 C 0.7229 0.14019 0.79733 0.0
C538 C 0.74885 0.15581 0.8136 0.0
C539 C 0.71386 0.1475 0.76995 0.0
C540 C 0.76472 0.17916 0.80208 0.0
H541 H 0.83999 0.19485 0.87593 0.0
N542 N 0.80588 0.21533 0.80372 0.0
C543 C 0.8457 0.22145 0.84161 0.0
C544 C 0.79109 0.19394 0.81647 0.0
C545 C 0.83324 0.22849 0.81535 0.0
C546 C 0.83028 0.20032 0.85564 0.0
C547 C 0.8027 0.18596 0.84287 0.0
O548 O 0.81649 0.22238 0.7479 0.0
O549 O 0.78676 0.26388 0.74241 0.0
O550 O 0.74988 0.25964 0.70571 0.0
O551 O 0.75097 0.21776 0.72154 0.0
O552 O 0.82246 0.25851 0.76006 0.0
O553 O 0.77565 0.19314 0.73284 0.0
O554 O 0.72397 0.28449 0.75889 0.0
O555 O 0.754 0.24274 0.76515 0.0
O556 O 0.79126 0.24706 0.80169 0.0
O557 O 0.78959 0.28885 0.78598 0.0
O558 O 0.71825 0.24796 0.74786 0.0
O559 O 0.7649 0.31334 0.77457 0.0
C560 C 0.81225 0.27506 0.74638 0.0
C561 C 0.81239 0.17837 0.73566 0.0
C562 C 0.83284 0.1518 0.71504 0.0
C563 C 0.81983 0.17079 0.71243 0.0
C564 C 0.8377 0.14018 0.74142 0.0
C565 C 0.81706 0.16631 0.76155 0.0
C566 C 0.8296 0.14722 0.76434 0.0
C567 C 0.74511 0.2336 0.70114 0.0
C568 C 0.80128 0.20004 0.73267 0.0
C569 C 0.78665 0.16347 0.85516 0.0
C570 C 0.75972 0.14843 0.84054 0.0
C571 C 0.72858 0.23153 0.76161 0.0
C572 C 0.72845 0.32882 0.7705 0.0
C573 C 0.72089 0.3371 0.79327 0.0
C574 C 0.70859 0.35672 0.78997 0.0
C575 C 0.70441 0.36809 0.76335 0.0
C576 C 0.72448 0.34071 0.74439 0.0
C577 C 0.71255 0.36029 0.74089 0.0
C578 C 0.79605 0.27311 0.80622 0.0
C579 C 0.73917 0.30682 0.77415 0.0
H580 H 0.81552 0.1799 0.69239 0.0
H581 H 0.84824 0.12603 0.74467 0.0
H582 H 0.8114 0.17187 0.77964 0.0
H583 H 0.83347 0.13818 0.78448 0.0
H584 H 0.7246 0.32813 0.81352 0.0
H585 H 0.69439 0.38269 0.75958 0.0
H586 H 0.73025 0.33467 0.72666 0.0
H587 H 0.70922 0.36918 0.72056 0.0
Tb588 Tb 0.76053 0.73529 0.7174 0.0
C589 C 0.8358 0.79948 0.82735 0.0
C590 C 0.83805 0.76517 0.861 0.0
C591 C 0.87658 0.8079 0.8656 0.0
C592 C 0.82407 0.77406 0.83659 0.0
C593 C 0.86195 0.81701 0.84203 0.0
C594 C 0.86464 0.78198 0.87506 0.0
C595 C 0.85616 0.85184 0.81049 0.0
N596 N 0.82087 0.8075 0.80471 0.0
C597 C 0.83022 0.83371 0.79676 0.0
C598 C 0.87224 0.84337 0.83303 0.0
Tb599 Tb 0.77918 0.77605 0.78258 0.0
N600 N 0.79825 0.75871 0.8226 0.0
C601 C 0.7844 0.73499 0.83346 0.0
C602 C 0.82455 0.7401 0.87104 0.0
C603 C 0.79744 0.72516 0.85746 0.0
H604 H 0.81805 0.84044 0.77925 0.0
H605 H 0.78657 0.70599 0.8654 0.0
H606 H 0.87583 0.77542 0.89369 0.0
H607 H 0.8637 0.87233 0.80367 0.0
H608 H 0.76351 0.72297 0.82331 0.0
H609 H 0.75052 0.80437 0.63408 0.0
H610 H 0.83459 0.73246 0.88965 0.0
H611 H 0.72361 0.67017 0.72063 0.0
H612 H 0.77444 0.78832 0.67616 0.0
H613 H 0.67905 0.63694 0.69579 0.0
H614 H 0.89682 0.82096 0.87704 0.0
H615 H 0.703 0.77645 0.60968 0.0
H616 H 0.66298 0.73242 0.60555 0.0
H617 H 0.89226 0.85748 0.84373 0.0
H618 H 0.64356 0.68656 0.62217 0.0
N619 N 0.7406 0.75177 0.67712 0.0
C620 C 0.75374 0.77573 0.66616 0.0
C621 C 0.71339 0.76926 0.6284 0.0
C622 C 0.70069 0.74395 0.63848 0.0
C623 C 0.74021 0.78502 0.64206 0.0
C624 C 0.7151 0.73567 0.66304 0.0
H625 H 0.64965 0.65055 0.6555 0.0
N626 N 0.71957 0.70275 0.69512 0.0
C627 C 0.68581 0.65751 0.68903 0.0
C628 C 0.70422 0.71011 0.67231 0.0
C629 C 0.71116 0.67648 0.70305 0.0
C630 C 0.66924 0.66528 0.66636 0.0
C631 C 0.67855 0.69177 0.65745 0.0
O632 O 0.77367 0.70397 0.70922 0.0
O633 O 0.78435 0.74386 0.76122 0.0
O634 O 0.81602 0.7865 0.76669 0.0
O635 O 0.79498 0.77378 0.7189 0.0
O636 O 0.76556 0.70429 0.74703 0.0
O637 O 0.78608 0.74175 0.68916 0.0
O638 O 0.76775 0.80837 0.79149 0.0
O639 O 0.75539 0.76748 0.73891 0.0
O640 O 0.72326 0.72476 0.73257 0.0
O641 O 0.7434 0.73847 0.78036 0.0
O642 O 0.77349 0.80709 0.75327 0.0
O643 O 0.75394 0.7704 0.811 0.0
C644 C 0.78151 0.71998 0.76859 0.0
C645 C 0.78296 0.70262 0.66436 0.0
C646 C 0.79787 0.6758 0.63626 0.0
C647 C 0.80142 0.69018 0.66174 0.0
C648 C 0.77559 0.67437 0.61349 0.0
C649 C 0.7609 0.70066 0.64139 0.0
C650 C 0.7573 0.68665 0.61612 0.0
C651 C 0.81613 0.78777 0.7395 0.0
C652 C 0.78699 0.71752 0.69113 0.0
C653 C 0.66345 0.70024 0.63374 0.0
C654 C 0.6745 0.72634 0.62429 0.0
C655 C 0.75756 0.79129 0.73173 0.0
C656 C 0.7576 0.80966 0.83597 0.0
C657 C 0.73805 0.82048 0.83901 0.0
C658 C 0.74094 0.83414 0.8647 0.0
C659 C 0.76394 0.83697 0.88708 0.0
C660 C 0.7803 0.81281 0.85859 0.0
C661 C 0.78342 0.82643 0.88397 0.0
C662 C 0.72216 0.72483 0.75953 0.0
C663 C 0.75381 0.79493 0.8092 0.0
H664 H 0.81828 0.69144 0.67966 0.0
H665 H 0.77243 0.66406 0.59339 0.0
H666 H 0.74654 0.71007 0.64293 0.0
H667 H 0.74031 0.68538 0.5984 0.0
H668 H 0.72039 0.81784 0.82157 0.0
H669 H 0.76709 0.84767 0.90694 0.0
H670 H 0.79552 0.80468 0.85665 0.0
H671 H 0.80102 0.82885 0.90134 0.0
Cd672 Cd 0.99837 0.98673 0.5233 0.0
Cd673 Cd 0.02166 0.03133 0.44407 0.0
C674 C 0.04651 0.96498 0.52736 0.0
N675 N 0.02118 0.96068 0.51058 0.0
C676 C 0.02402 0.92551 0.48329 0.0
C677 C 0.05052 0.93031 0.49987 0.0
C678 C 0.06177 0.95037 0.52201 0.0
C679 C 1.00971 0.94138 0.48882 0.0
H680 H 0.05482 0.9794 0.54537 0.0
H681 H 0.98939 0.93803 0.47607 0.0
C682 C 0.96712 0.98922 0.4504 0.0
C683 C 0.98017 0.06072 0.4442 0.0
C684 C 0.96828 0.07786 0.45171 0.0
C685 C 0.98169 0.09584 0.4758 0.0
C686 C 1.00729 0.09623 0.49151 0.0
C687 C 0.01849 0.07864 0.48313 0.0
N688 N 1.00465 0.06112 0.46005 0.0
H689 H 0.97002 0.04736 0.42534 0.0
H690 H 0.03828 0.07913 0.49492 0.0
C691 C 0.02116 0.97334 0.42477 0.0
N692 N 0.03675 0.99578 0.4422 0.0
C693 C 0.0746 0.98106 0.45268 0.0
C694 C 0.05936 0.958 0.43413 0.0
C695 C 0.03209 0.95404 0.42046 0.0
C696 C 0.06288 0.9998 0.45631 0.0
H697 H 1.00061 0.97095 0.41332 0.0
H698 H 0.07499 0.01815 0.46953 0.0
C699 C 0.05453 0.03337 0.52064 0.0
C700 C 0.9745 0.95208 0.56311 0.0
N701 N 0.97917 0.01923 0.52583 0.0
C702 C 0.99504 0.04402 0.53889 0.0
C703 C 0.98307 0.06183 0.54477 0.0
C704 C 0.95447 0.05397 0.53745 0.0
C705 C 0.9387 0.02889 0.52244 0.0
C706 C 0.95156 0.01168 0.51695 0.0
C707 C 0.0445 0.06221 0.40147 0.0
O708 O 0.98517 0.99288 0.47341 0.0
O709 O 0.97443 1.00098 0.42895 0.0
O710 O 0.04038 0.0304 0.49522 0.0
O711 O 0.04367 0.02028 0.53979 0.0
O712 O 0.96234 0.94852 0.53682 0.0
O713 O 0.99738 0.97159 0.57029 0.0
O714 O 0.05846 0.06496 0.42703 0.0
O715 O 0.02006 0.04535 0.39613 0.0
H716 H 0.01692 0.04961 0.54588 0.0
H717 H 0.93942 0.99168 0.50697 0.0
H718 H 1.01464 0.90989 0.46625 0.0
H719 H 0.08188 0.95408 0.53574 0.0
H720 H 0.94906 0.07748 0.43819 0.0
H721 H 0.01845 0.1098 0.51014 0.0
H722 H 0.09561 0.985 0.46383 0.0
H723 H 0.01967 0.93684 0.40565 0.0
H724 H 0.99604 0.08118 0.55592 0.0
H725 H 0.91658 0.02186 0.51665 0.0
Cd726 Cd 0.51635 0.97433 0.04364 0.0
Cd727 Cd 0.51838 0.02583 0.95311 0.0
C728 C 0.57055 0.96436 0.08219 0.0
N729 N 0.55124 0.95493 0.05739 0.0
C730 C 0.56708 0.91848 0.05358 0.0
C731 C 0.58679 0.92725 0.07961 0.0
C732 C 0.58856 0.95092 0.0936 0.0
C733 C 0.54947 0.93255 0.04291 0.0
H734 H 0.5713 0.98177 0.09378 0.0
H735 H 0.53377 0.92503 0.02348 0.0
C736 C 0.48363 0.96379 0.96699 0.0
C737 C 0.46568 0.03672 0.91243 0.0
C738 C 0.4473 0.04983 0.90134 0.0
C739 C 0.44588 0.07054 0.9176 0.0
C740 C 0.46279 0.07664 0.94539 0.0
C741 C 0.48086 0.06297 0.95568 0.0
N742 N 0.48226 0.04359 0.93908 0.0
H743 H 0.46746 0.02174 0.89927 0.0
H744 H 0.49442 0.06851 0.97664 0.0
C745 C 0.53046 0.98643 0.91085 0.0
N746 N 0.53728 0.99634 0.93819 0.0
C747 C 0.57073 0.97548 0.95093 0.0
C748 C 0.56451 0.96522 0.92277 0.0
C749 C 0.54384 0.97076 0.90266 0.0
C750 C 0.55687 0.99102 0.95815 0.0
H751 H 0.5149 0.99103 0.89529 0.0
H752 H 0.56218 0.99936 0.97968 0.0
C753 C 0.55151 0.03401 0.02764 0.0
C754 C 0.47927 0.93623 0.0705 0.0
N755 N 0.49974 0.0061 0.05827 0.0
C756 C 0.50497 0.0139 0.08611 0.0
C757 C 0.4923 0.03022 0.09444 0.0
C758 C 0.47399 0.03861 0.07396 0.0
C759 C 0.46973 0.03085 0.04529 0.0
C760 C 0.48273 0.01449 0.03793 0.0
C761 C 0.55577 0.06644 0.92888 0.0
O762 O 0.49876 0.97349 0.99143 0.0
O763 O 0.48505 0.97937 0.94631 0.0
O764 O 0.53413 0.02339 0.00462 0.0
O765 O 0.55157 0.01977 0.04931 0.0
O766 O 0.47342 0.93753 0.04363 0.0
O767 O 0.50261 0.95208 0.08429 0.0
O768 O 0.55991 0.06546 0.95578 0.0
O769 O 0.53398 0.04906 0.91395 0.0
H770 H 0.51837 0.00681 0.10197 0.0
H771 H 0.47876 0.00795 0.01595 0.0
H772 H 0.56496 0.90065 0.04163 0.0
H773 H 0.60296 0.95845 0.11386 0.0
H774 H 0.43516 0.0445 0.87972 0.0
H775 H 0.46236 0.09209 0.95905 0.0
H776 H 0.58673 0.97226 0.96715 0.0
H777 H 0.53805 0.96309 0.88079 0.0
H778 H 0.4961 0.03539 0.11681 0.0
H779 H 0.45624 0.03714 0.02864 0.0
Cd780 Cd 0.01948 0.48208 0.04923 0.0
Cd781 Cd 0.02015 0.52585 0.95297 0.0
C782 C 0.07694 0.47341 0.08196 0.0
N783 N 0.05365 0.46181 0.06123 0.0
C784 C 0.06411 0.42149 0.05984 0.0
C785 C 0.08795 0.43256 0.08181 0.0
C786 C 0.09445 0.45921 0.09244 0.0
C787 C 0.04725 0.43642 0.04994 0.0
H788 H 0.08141 0.49331 0.09124 0.0
H789 H 0.02844 0.42728 0.03389 0.0
C790 C 0.98163 0.47082 0.97556 0.0
C791 C 0.97203 0.54215 0.91115 0.0
C792 C 0.95552 0.557 0.89951 0.0
C793 C 0.9539 0.5773 0.91617 0.0
C794 C 0.9686 0.58121 0.94487 0.0
C795 C 0.98508 0.56597 0.95564 0.0
N796 N 0.98675 0.54701 0.93867 0.0
H797 H 0.97385 0.52731 0.89784 0.0
H798 H 0.99732 0.57003 0.97728 0.0
C799 C 0.02282 0.4795 0.91141 0.0
N800 N 0.03346 0.49144 0.93811 0.0
C801 C 0.06365 0.46665 0.94842 0.0
C802 C 0.0535 0.45431 0.92078 0.0
C803 C 0.03256 0.46085 0.90229 0.0
C804 C 0.05337 0.4852 0.95662 0.0
H805 H 1.00705 0.48478 0.89699 0.0
H806 H 0.0617 0.4951 0.97766 0.0
C807 C 0.0579 0.53882 0.02785 0.0
C808 C 0.98482 0.44165 0.0764 0.0
N809 N 1.00498 0.51474 0.06593 0.0
C810 C 1.0126 0.5234 0.09378 0.0
C811 C 1.00221 0.54134 0.10326 0.0
C812 C 0.98372 0.55048 0.08395 0.0
C813 C 0.97669 0.54148 0.05522 0.0
C814 C 0.98753 0.52358 0.04669 0.0
C815 C 0.05537 0.56246 0.92323 0.0
O816 O 1.00059 0.48157 0.99753 0.0
O817 O 0.98187 0.48333 0.95268 0.0
O818 O 0.04022 0.52837 0.00488 0.0
O819 O 0.05659 0.52561 0.05025 0.0
O820 O 0.97891 0.44273 0.04951 0.0
O821 O 1.00669 0.4597 0.09037 0.0
O822 O 0.06095 0.56434 0.95025 0.0
O823 O 0.03356 0.54354 0.91057 0.0
H824 H 0.02638 0.51604 0.10878 0.0
H825 H 0.98176 0.51645 0.02465 0.0
H826 H 0.05824 0.40127 0.05056 0.0
H827 H 0.1123 0.46864 0.10958 0.0
H828 H 0.94437 0.5528 0.87746 0.0
H829 H 0.9683 0.59668 0.9586 0.0
H830 H 0.07999 0.46266 0.9634 0.0
H831 H 0.02374 0.45166 0.88095 0.0
H832 H 1.00811 0.5474 0.12563 0.0
H833 H 0.96295 0.54823 0.03938 0.0
Cd834 Cd 0.50782 0.48367 0.041 0.0
Cd835 Cd 0.52961 0.5236 0.95848 0.0
C836 C 0.54652 0.45515 0.0279 0.0
N837 N 0.5195 0.4509 0.02267 0.0
C838 C 0.50773 0.40729 0.00019 0.0
C839 C 0.53556 0.41083 0.00603 0.0
C840 C 0.55503 0.43537 0.0198 0.0
C841 C 0.5001 0.42767 0.00895 0.0
H842 H 0.56151 0.4735 0.03935 0.0
H843 H 0.47871 0.42471 0.0055 0.0
C844 C 0.4778 0.47739 0.96561 0.0
C845 C 0.47941 0.54159 0.95901 0.0
C846 C 0.46409 0.55546 0.96589 0.0
C847 C 0.47662 0.57723 0.98621 0.0
C848 C 0.50445 0.58433 -0.0004 0.0
C849 C 0.51892 0.56926 0.99263 0.0
N850 N 0.5062 0.54835 0.97259 0.0
H851 H 0.46989 0.5258 0.94229 0.0
H852 H 0.54036 0.57452 0.00281 0.0
C853 C 0.53787 0.46691 0.95103 0.0
N854 N 0.55217 0.49344 0.95966 0.0
C855 C 0.59448 0.48768 0.96234 0.0
C856 C 0.58017 0.46067 0.95172 0.0
C857 C 0.55155 0.45007 0.94693 0.0
C858 C 0.57995 0.50386 0.966 0.0
H859 H 0.51581 0.45904 0.94607 0.0
H860 H 0.59073 0.52511 0.97257 0.0
C861 C 0.56247 0.52785 0.0335 0.0
C862 C 0.48936 0.45352 0.08601 0.0
N863 N 0.48748 0.51515 0.04194 0.0
C864 C 0.50285 0.53976 0.0556 0.0
C865 C 0.49033 0.55712 0.06143 0.0
C866 C 0.4617 0.54905 0.05308 0.0
C867 C 0.44656 0.52399 0.03771 0.0
C868 C 0.45992 0.50715 0.03266 0.0
C869 C 0.55038 0.55688 0.91614 0.0
O870 O 0.49436 0.48517 0.98966 0.0
O871 O 0.48552 0.48765 0.94371 0.0
O872 O 0.54605 0.5224 0.00925 0.0
O873 O 0.55416 0.51623 0.05463 0.0
O874 O 0.47347 0.45059 0.06134 0.0
O875 O 0.51377 0.47023 0.08932 0.0
O876 O 0.56254 0.56255 0.94228 0.0
O877 O 0.5287 0.53589 0.91007 0.0
H878 H 0.5247 0.54534 0.06329 0.0
H879 H 0.44822 0.4871 0.02265 0.0
H880 H 0.49201 0.3888 0.98956 0.0
H881 H 0.57666 0.43891 0.02555 0.0
H882 H 0.44286 0.54992 0.95452 0.0
H883 H 0.5148 0.60125 0.01518 0.0
H884 H 0.61653 0.49667 0.96612 0.0
H885 H 0.53982 0.42921 0.93916 0.0
H886 H 0.5029 0.57596 0.07369 0.0
H887 H 0.42452 0.517 0.03045 0.0
Cd888 Cd 0.01824 0.4806 0.54906 0.0
Cd889 Cd 0.02238 0.52838 0.45735 0.0
C890 C 0.0708 0.46924 0.58941 0.0
N891 N 0.05394 0.46243 0.56289 0.0
C892 C 0.07231 0.42857 0.55639 0.0
C893 C 0.08941 0.43451 0.5841 0.0
C894 C 0.08874 0.45564 0.60037 0.0
C895 C 0.05468 0.44271 0.54625 0.0
H896 H 0.06952 0.48452 0.6026 0.0
H897 H 0.04085 0.43723 0.52541 0.0
C898 C 0.98758 0.46777 0.47271 0.0
C899 C 0.96864 0.5381 0.41754 0.0
C900 C 0.95015 0.55108 0.40642 0.0
C901 C 0.94955 0.57265 0.42208 0.0
C902 C 0.96739 0.57974 0.44936 0.0
C903 C 0.98556 0.5662 0.45968 0.0
N904 N 0.98614 0.54595 0.44363 0.0
H905 H 0.96978 0.52244 0.40477 0.0
H906 H 0.99987 0.57251 0.48018 0.0
C907 C 0.03607 0.49104 0.41476 0.0
N908 N 0.04066 0.49812 0.4427 0.0
C909 C 0.07131 0.47403 0.4555 0.0
C910 C 0.06763 0.46698 0.42674 0.0
C911 C 0.04934 0.47541 0.4063 0.0
C912 C 0.05766 0.48969 0.463 0.0
H913 H 0.02262 0.49811 0.39894 0.0
H914 H 0.06106 0.49561 0.48507 0.0
C915 C 0.0544 0.53999 0.53318 0.0
C916 C 0.98335 0.44183 0.57744 0.0
N917 N 0.99835 0.51076 0.56029 0.0
C918 C 1.00556 0.52258 0.58687 0.0
C919 C 0.99169 0.53829 0.59387 0.0
C920 C 0.97006 0.5418 0.57339 0.0
C921 C 0.96359 0.52983 0.54593 0.0
C922 C 0.97799 0.51433 0.53986 0.0
C923 C 0.05846 0.5683 0.431 0.0
O924 O 1.00203 0.47894 0.49685 0.0
O925 O 0.98943 0.48174 0.4509 0.0
O926 O 0.03819 0.52897 0.50962 0.0
O927 O 0.05323 0.52605 0.55508 0.0
O928 O 0.97882 0.44028 0.5505 0.0
O929 O 1.00456 0.46098 0.59084 0.0
O930 O 0.06455 0.56641 0.45777 0.0
O931 O 0.03546 0.55196 0.41706 0.0
H932 H 0.02165 0.51926 0.60286 0.0
H933 H 0.97253 0.50464 0.51892 0.0
H934 H 0.07219 0.41281 0.54272 0.0
H935 H 0.10106 0.46087 0.62193 0.0
H936 H 0.93728 0.54495 0.38519 0.0
H937 H 0.96763 0.59589 0.46256 0.0
H938 H 0.08476 0.46767 0.47212 0.0
H939 H 0.04599 0.47079 0.38388 0.0
H940 H 0.99729 0.54684 0.61538 0.0
H941 H 0.94742 0.53226 0.52928 0.0
Cd942 Cd 0.51713 0.98363 0.54762 0.0
Cd943 Cd 0.522 0.0266 0.45184 0.0
C944 C 0.53669 0.93369 0.57027 0.0
N945 N 0.54776 0.95897 0.56104 0.0
C946 C 0.59183 0.95458 0.57153 0.0
C947 C 0.58103 0.92856 0.58185 0.0
C948 C 0.55286 0.91829 0.58084 0.0
C949 C 0.57487 0.96947 0.56132 0.0
H950 H 0.51519 0.92549 0.56997 0.0
H951 H 0.58352 0.98955 0.55393 0.0
C952 C 0.4806 0.97214 0.473 0.0
C953 C 0.49819 0.0757 0.44642 0.0
C954 C 0.48179 0.09098 0.43599 0.0
C955 C 0.45591 0.07872 0.4172 0.0
C956 C 0.44718 0.05071 0.41022 0.0
C957 C 0.46428 0.03619 0.4211 0.0
N958 N 0.48942 0.04882 0.43874 0.0
H959 H 0.51845 0.0856 0.45988 0.0
H960 H 0.45774 0.01497 0.41472 0.0
C961 C 0.52153 0.97628 0.41313 0.0
N962 N 0.53582 0.99261 0.43703 0.0
C963 C 0.57003 0.9726 0.44447 0.0
C964 C 0.55594 0.95558 0.41974 0.0
C965 C 0.53119 0.95749 0.40415 0.0
C966 C 0.55958 0.99097 0.45274 0.0
H967 H 0.50282 0.9781 0.40079 0.0
H968 H 0.57065 0.00423 0.47159 0.0
C969 C 0.55884 0.0379 0.52668 0.0
C970 C 0.47986 0.95122 0.57787 0.0
N971 N 0.50438 0.01896 0.56103 0.0
C972 C 0.51826 0.03521 0.58507 0.0
C973 C 0.50821 0.05376 0.59385 0.0
C974 C 0.48346 0.05544 0.57796 0.0
C975 C 0.46996 0.03873 0.55294 0.0
C976 C 0.48079 0.02062 0.54488 0.0
C977 C 0.55734 0.06387 0.42275 0.0
O978 O 0.49869 0.98226 0.49578 0.0
O979 O 0.4827 0.9848 0.45038 0.0
O980 O 0.54087 0.02791 0.50377 0.0
O981 O 0.55666 0.02509 0.54921 0.0
O982 O 0.47456 0.94809 0.55094 0.0
O983 O 0.50264 0.96907 0.5903 0.0
O984 O 0.56262 0.06539 0.44976 0.0
O985 O 0.53576 0.04486 0.40972 0.0
H986 H 0.53674 0.03326 0.59786 0.0
H987 H 0.46997 0.00732 0.52601 0.0
H988 H 0.6132 0.96347 0.57126 0.0
H989 H 0.5433 0.89872 0.58885 0.0
H990 H 0.48987 0.11248 0.4418 0.0
H991 H 0.42737 0.04005 0.3962 0.0
H992 H 0.58895 0.9717 0.45745 0.0
H993 H 0.5197 0.94507 0.3848 0.0
H994 H 0.51924 0.06596 0.61343 0.0
H995 H 0.45106 0.03948 0.53975 0.0
H996 H 0.17675 0.1947 0.21669 0.0
H997 H 0.13432 0.16441 0.22817 0.0
H998 H 0.16821 0.19218 0.31624 0.0
H999 H 0.21065 0.22135 0.30545 0.0
H1000 H 0.13591 0.12308 0.2739 0.0
H1001 H 0.08836 0.1953 0.2933 0.0
H1002 H 0.11106 0.20175 0.26972 0.0
H1003 H 0.12476 0.20723 0.30748 0.0
C1004 C 0.17522 0.19421 0.2385 0.0
C1005 C 0.1974 0.20994 0.26022 0.0
C1006 C 0.15088 0.17716 0.24492 0.0
C1007 C 0.14823 0.17638 0.27296 0.0
C1008 C 0.16985 0.19284 0.2944 0.0
H1009 H 0.09791 0.09276 0.40429 0.0
H1010 H 0.11729 0.11738 0.36616 0.0
C1011 C 0.1942 0.20941 0.28815 0.0
C1012 C 0.12432 0.15662 0.28119 0.0
H1013 H 0.07842 0.15442 0.31945 0.0
C1014 C 0.12256 0.12958 0.28294 0.0
C1015 C 0.10705 0.16529 0.29292 0.0
C1016 C 0.10766 0.19395 0.29057 0.0
C1017 C 0.10582 0.11164 0.2987 0.0
C1018 C 0.09064 0.12116 0.31279 0.0
C1019 C 0.09034 0.14737 0.30871 0.0
C1020 C 0.07849 0.10575 0.3351 0.0
C1021 C 0.10594 0.08328 0.30202 0.0
C1022 C 0.05031 0.09138 0.33003 0.0
C1023 C 0.0392 0.07717 0.3517 0.0
C1024 C 0.05615 0.07751 0.37875 0.0
C1025 C 0.08437 0.09221 0.38372 0.0
C1026 C 0.09545 0.10616 0.36199 0.0
H1027 H 0.11433 0.07734 0.28562 0.0
H1028 H 0.11879 0.08221 0.32325 0.0
H1029 H 0.08493 0.06846 0.30068 0.0
H1030 H 0.03701 0.09108 0.30936 0.0
H1031 H 0.01735 0.06604 0.3473 0.0
H1032 H 0.82151 0.22326 0.41238 0.0
H1033 H 0.85983 0.2219 0.45084 0.0
H1034 H 0.88534 0.18278 0.39249 0.0
H1035 H 0.8475 0.18384 0.35451 0.0
H1036 H 0.86881 0.17734 0.47254 0.0
H1037 H 0.9575 0.23853 0.43249 0.0
H1038 H 0.92429 0.24097 0.41924 0.0
H1039 H 0.93311 0.21577 0.40401 0.0
C1040 C 0.83549 0.21461 0.40778 0.0
C1041 C 0.83153 0.20381 0.3803 0.0
C1042 C 0.85744 0.21401 0.42972 0.0
C1043 C 0.87583 0.20283 0.42441 0.0
C1044 C 0.87204 0.19243 0.39692 0.0
H1045 H 0.92771 0.08586 0.47118 0.0
H1046 H 0.90658 0.11876 0.47231 0.0
C1047 C 0.85027 0.19299 0.37514 0.0
C1048 C 0.89729 0.19883 0.44759 0.0
H1049 H 0.96071 0.19683 0.45588 0.0
C1050 C 0.88929 0.18238 0.46963 0.0
C1051 C 0.92444 0.2064 0.4449 0.0
C1052 C 0.93536 0.2267 0.42405 0.0
C1053 C 0.90641 0.17001 0.48605 0.0
C1054 C 0.9315 0.17346 0.4794 0.0
C1055 C 0.94111 0.19329 0.46052 0.0
C1056 C 0.94467 0.15302 0.4862 0.0
C1057 C 0.89667 0.15211 0.50914 0.0
C1058 C 0.9733 0.16091 0.4939 0.0
C1059 C 0.98555 0.14199 0.49237 0.0
C1060 C 0.96936 0.11485 0.48311 0.0
C1061 C 0.94082 0.10667 0.47784 0.0
C1062 C 0.92863 0.12551 0.47911 0.0
H1063 H 0.88671 0.16156 0.52093 0.0
H1064 H 0.88104 0.1324 0.49945 0.0
H1065 H 0.91368 0.14834 0.52442 0.0
H1066 H 0.98617 0.18202 0.49931 0.0
H1067 H 1.00762 0.14908 0.49651 0.0
H1068 H 0.75849 0.80956 0.31399 0.0
H1069 H 0.77289 0.84883 0.34672 0.0
H1070 H 0.84926 0.88178 0.32153 0.0
H1071 H 0.83455 0.84282 0.28835 0.0
H1072 H 0.81309 0.86059 0.39143 0.0
H1073 H 0.83362 0.94912 0.32627 0.0
H1074 H 0.81344 0.91524 0.31076 0.0
H1075 H 0.85023 0.9282 0.31684 0.0
C1076 C 0.77821 0.82534 0.31518 0.0
C1077 C 0.79566 0.82297 0.29894 0.0
C1078 C 0.78629 0.84787 0.33373 0.0
C1079 C 0.81199 0.86841 0.33638 0.0
C1080 C 0.82897 0.86659 0.31927 0.0
H1081 H 0.94419 0.9352 0.45516 0.0
H1082 H 0.89651 0.90762 0.43522 0.0
C1083 C 0.8207 0.84418 0.30043 0.0
C1084 C 0.82289 0.88968 0.3596 0.0
H1085 H 0.86572 0.95535 0.37365 0.0
C1086 C 0.82389 0.88156 0.38759 0.0
C1087 C 0.83594 0.91725 0.35482 0.0
C1088 C 0.83291 0.92792 0.32547 0.0
C1089 C 0.84077 0.89956 0.41073 0.0
C1090 C 0.85757 0.92586 0.40553 0.0
C1091 C 0.85347 0.93496 0.37784 0.0
C1092 C 0.88315 0.94175 0.42633 0.0
C1093 C 0.84158 0.88966 0.44031 0.0
C1094 C 0.89157 0.97011 0.42907 0.0
C1095 C 0.91912 0.98584 0.43964 0.0
C1096 C 0.93832 0.97334 0.44828 0.0
C1097 C 0.92955 0.94512 0.4489 0.0
C1098 C 0.90213 0.92936 0.4377 0.0
H1099 H 0.82065 0.87692 0.44216 0.0
H1100 H 0.85406 0.87667 0.4446 0.0
H1101 H 0.85033 0.9067 0.45667 0.0
H1102 H 0.87735 0.98013 0.42052 0.0
H1103 H 0.9257 0.00773 0.43912 0.0
H1104 H 0.15383 0.81065 0.31135 0.0
H1105 H 0.12889 0.81792 0.34461 0.0
H1106 H 0.17699 0.90354 0.35137 0.0
H1107 H 0.20204 0.89646 0.31846 0.0
H1108 H 0.16663 0.87533 0.40589 0.0
H1109 H 0.0743 0.86012 0.31739 0.0
H1110 H 0.09031 0.83529 0.32152 0.0
H1111 H 0.10768 0.86839 0.31062 0.0
C1112 C 0.15933 0.83094 0.32029 0.0
C1113 C 0.17966 0.85306 0.3121 0.0
C1114 C 0.14504 0.83505 0.33918 0.0
C1115 C 0.15107 0.86127 0.35026 0.0
C1116 C 0.17209 0.88316 0.34301 0.0
H1117 H 0.11146 0.97113 0.42813 0.0
H1118 H 0.13197 0.94127 0.41424 0.0
C1119 C 0.1862 0.87912 0.32404 0.0
C1120 C 0.13436 0.86669 0.36767 0.0
H1121 H 0.07537 0.87855 0.36089 0.0
C1122 C 0.14642 0.87552 0.39628 0.0
C1123 C 0.10789 0.86654 0.35514 0.0
C1124 C 0.09412 0.85717 0.32447 0.0
C1125 C 0.13326 0.8857 0.41224 0.0
C1126 C 0.10785 0.88778 0.39893 0.0
C1127 C 0.09492 0.87706 0.37099 0.0
C1128 C 0.09641 0.90461 0.41179 0.0
C1129 C 0.14691 0.89479 0.44296 0.0
C1130 C 0.06946 0.89397 0.41492 0.0
C1131 C 0.05755 0.91112 0.42291 0.0
C1132 C 0.07235 0.93924 0.42768 0.0
C1133 C 0.09957 0.94959 0.42518 0.0
C1134 C 0.11142 0.93247 0.41733 0.0
H1135 H 0.16107 0.8842 0.45226 0.0
H1136 H 0.15901 0.91689 0.44458 0.0
H1137 H 0.13149 0.89094 0.45567 0.0
H1138 H 0.05745 0.87253 0.41053 0.0
H1139 H 0.03671 0.90238 0.4251 0.0
H1140 H 0.22997 0.82494 0.59477 0.0
H1141 H 0.1984 0.83447 0.55417 0.0
H1142 H 0.14811 0.83914 0.60901 0.0
H1143 H 0.17997 0.83131 0.64973 0.0
H1144 H 0.1346 0.81419 0.52972 0.0
H1145 H 0.18725 0.91806 0.58072 0.0
H1146 H 0.20122 0.89171 0.58872 0.0
H1147 H 0.17467 0.89252 0.60456 0.0
C1148 C 0.21201 0.82766 0.59816 0.0
C1149 C 0.20797 0.82804 0.62575 0.0
C1150 C 0.19381 0.83268 0.57483 0.0
C1151 C 0.17117 0.83773 0.57877 0.0
C1152 C 0.16555 0.83527 0.60565 0.0
H1153 H 0.03561 0.87556 0.50212 0.0
H1154 H 0.06677 0.8508 0.51115 0.0
C1155 C 0.18383 0.83067 0.62896 0.0
C1156 C 0.15644 0.85062 0.55679 0.0
H1157 H 0.14511 0.90966 0.54689 0.0
C1158 C 0.13709 0.83519 0.533 0.0
C1159 C 0.16046 0.87822 0.56069 0.0
C1160 C 0.18221 0.89622 0.58489 0.0
C1161 C 0.12022 0.84638 0.51403 0.0
C1162 C 0.12241 0.87326 0.51965 0.0
C1163 C 0.14316 0.88902 0.5424 0.0
C1164 C 0.1019 0.88489 0.50494 0.0
C1165 C 0.10011 0.82925 0.48845 0.0
C1166 C 0.11083 0.91202 0.49749 0.0
C1167 C 0.09338 0.92643 0.49377 0.0
C1168 C 0.0663 0.91366 0.49602 0.0
C1169 C 0.05635 0.88572 0.49995 0.0
C1170 C 0.07415 0.87149 0.50481 0.0
H1171 H 0.10833 0.8152 0.48069 0.0
H1172 H 0.08099 0.81668 0.49451 0.0
H1173 H 0.09512 0.84193 0.47085 0.0
H1174 H 0.13206 0.92282 0.49731 0.0
H1175 H 0.10159 0.94801 0.49102 0.0
H1176 H 0.1944 0.1603 0.7125 0.0
H1177 H 0.17538 0.12485 0.67452 0.0
H1178 H 0.25127 0.15474 0.64825 0.0
H1179 H 0.27018 0.19041 0.68604 0.0
H1180 H 0.20962 0.15429 0.60616 0.0
H1181 H 0.18137 0.05485 0.65351 0.0
H1182 H 0.16922 0.07662 0.66932 0.0
H1183 H 0.20548 0.08548 0.67373 0.0
C1184 C 0.20728 0.15881 0.69928 0.0
C1185 C 0.23348 0.17842 0.70186 0.0
C1186 C 0.19649 0.1384 0.67762 0.0
C1187 C 0.212 0.13708 0.65863 0.0
C1188 C 0.23897 0.15541 0.66265 0.0
H1189 H 0.09762 0.01812 0.52548 0.0
H1190 H 0.14452 0.0435 0.5524 0.0
C1191 C 0.24963 0.17589 0.68411 0.0
C1192 C 0.19843 0.11991 0.63207 0.0
H1193 H 0.15151 0.05746 0.60744 0.0
C1194 C 0.19757 0.13288 0.60629 0.0
C1195 C 0.18325 0.09189 0.63208 0.0
C1196 C 0.18515 0.07639 0.65867 0.0
C1197 C 0.17954 0.11924 0.58106 0.0
C1198 C 0.16178 0.09221 0.58186 0.0
C1199 C 0.16489 0.07838 0.60692 0.0
C1200 C 0.13668 0.07975 0.55925 0.0
C1201 C 0.17853 0.13437 0.55416 0.0
C1202 C 0.11712 0.0921 0.55345 0.0
C1203 C 0.0905 0.07768 0.5382 0.0
C1204 C 0.08326 0.05086 0.52842 0.0
C1205 C 0.10317 0.03908 0.53242 0.0
C1206 C 0.12982 0.05348 0.54779 0.0
H1207 H 0.19903 0.14959 0.554 0.0
H1208 H 0.17113 0.12036 0.53501 0.0
H1209 H 0.16445 0.14548 0.55303 0.0
H1210 H 0.12172 0.11202 0.56283 0.0
H1211 H 0.07515 0.08669 0.53615 0.0
H1212 H 0.83512 0.1029 0.70132 0.0
H1213 H 0.85337 0.09248 0.66392 0.0
H1214 H 0.86664 0.17282 0.63377 0.0
H1215 H 0.85113 0.18446 0.67288 0.0
H1216 H 0.83868 0.08937 0.60906 0.0
H1217 H 0.9406 0.17196 0.64127 0.0
H1218 H 0.916 0.16409 0.66258 0.0
H1219 H 0.91271 0.18377 0.63182 0.0
C1220 C 0.84245 0.11865 0.6872 0.0
C1221 C 0.84199 0.14472 0.69067 0.0
C1222 C 0.85253 0.11249 0.66546 0.0
C1223 C 0.86197 0.13203 0.64629 0.0
C1224 C 0.86028 0.15763 0.64875 0.0
H1225 H 0.90864 0.06483 0.51071 0.0
H1226 H 0.88541 0.08855 0.53136 0.0
C1227 C 0.85085 0.16407 0.67094 0.0
C1228 C 0.87404 0.12544 0.62433 0.0
H1229 H 0.93286 0.14386 0.60148 0.0
C1230 C 0.85924 0.10135 0.60729 0.0
C1231 C 0.90086 0.14117 0.62194 0.0
C1232 C 0.91858 0.16654 0.64052 0.0
C1233 C 0.87103 0.09165 0.5893 0.0
C1234 C 0.89803 0.10711 0.58735 0.0
C1235 C 0.91216 0.13208 0.60297 0.0
C1236 C 0.9135 0.09601 0.57288 0.0
C1237 C 0.85503 0.0641 0.57412 0.0
C1238 C 0.93784 0.09371 0.58875 0.0
C1239 C 0.95158 0.08105 0.57676 0.0
C1240 C 0.94121 0.07013 0.54861 0.0
C1241 C 0.91721 0.07308 0.53241 0.0
C1242 C 0.90375 0.08638 0.54429 0.0
H1243 H 0.83708 0.05252 0.58271 0.0
H1244 H 0.84737 0.06668 0.5513 0.0
H1245 H 0.86813 0.05184 0.57588 0.0
H1246 H 0.94576 0.10083 0.61088 0.0
H1247 H 0.96968 0.0787 0.59008 0.0
H1248 H 0.81238 0.82756 0.70518 0.0
H1249 H 0.84748 0.85752 0.68287 0.0
H1250 H 0.90562 0.82438 0.73086 0.0
H1251 H 0.87019 0.79426 0.7536 0.0
H1252 H 0.90413 0.8965 0.70705 0.0
H1253 H 0.89498 0.80719 0.64251 0.0
H1254 H 0.86913 0.80626 0.66056 0.0
H1255 H 0.9013 0.80551 0.68055 0.0
C1256 C 0.83281 0.82707 0.71132 0.0
C1257 C 0.83877 0.80864 0.73075 0.0
C1258 C 0.8528 0.84419 0.69869 0.0
C1259 C 0.87894 0.84288 0.70506 0.0
C1260 C 0.88544 0.82549 0.72568 0.0
H1261 H 0.99877 0.95223 0.61913 0.0
H1262 H 0.97867 0.92515 0.65552 0.0
C1263 C 0.86539 0.80849 0.73868 0.0
C1264 C 0.89811 0.85809 0.68793 0.0
H1265 H 0.92047 0.8503 0.62994 0.0
C1266 C 0.90826 0.8865 0.69053 0.0
C1267 C 0.90282 0.8448 0.66612 0.0
C1268 C 0.89146 0.81426 0.66198 0.0
C1269 C 0.92237 0.90209 0.67127 0.0
C1270 C 0.92664 0.88879 0.6491 0.0
C1271 C 0.91719 0.86036 0.64703 0.0
C1272 C 0.93943 0.90401 0.62686 0.0
C1273 C 0.93134 0.93259 0.67394 0.0
C1274 C 0.92426 0.90039 0.59851 0.0
C1275 C 0.93575 0.91567 0.57756 0.0
C1276 C 0.96259 0.9348 0.5847 0.0
C1277 C 0.97793 0.93784 0.61301 0.0
C1278 C 0.96648 0.92247 0.63387 0.0
H1279 H 0.92139 0.93921 0.6883 0.0
H1280 H 0.95378 0.94149 0.68277 0.0
H1281 H 0.9266 0.9409 0.65284 0.0
H1282 H 0.90334 0.88613 0.59271 0.0
H1283 H 0.92347 0.91286 0.55594 0.0
H1284 H 0.32681 0.17779 0.09104 0.0
H1285 H 0.35729 0.15544 0.0839 0.0
H1286 H 0.36447 0.12965 0.16969 0.0
H1287 H 0.33319 0.15135 0.17677 0.0
H1288 H 0.41046 0.16219 0.11091 0.0
H1289 H 0.33999 0.05822 0.1234 0.0
H1290 H 0.32926 0.08694 0.11916 0.0
H1291 H 0.34888 0.0819 0.15292 0.0
C1292 C 0.3347 0.16723 0.10841 0.0
C1293 C 0.32715 0.16609 0.13438 0.0
C1294 C 0.35233 0.1546 0.10433 0.0
C1295 C 0.36286 0.14039 0.12604 0.0
C1296 C 0.35621 0.14001 0.15239 0.0
H1297 H 0.49225 0.07939 0.11599 0.0
H1298 H 0.4665 0.10422 0.13016 0.0
C1299 C 0.33854 0.15271 0.15652 0.0
C1300 C 0.38034 0.1257 0.12068 0.0
H1301 H 0.38296 0.06243 0.11635 0.0
C1302 C 0.40452 0.14039 0.11226 0.0
C1303 C 0.37246 0.09718 0.12203 0.0
C1304 C 0.34613 0.08002 0.12961 0.0
C1305 C 0.42091 0.12741 0.10511 0.0
C1306 C 0.41317 0.09893 0.10675 0.0
C1307 C 0.38905 0.08426 0.11527 0.0
C1308 C 0.42906 0.08377 0.09849 0.0
C1309 C 0.44589 0.14423 0.09494 0.0
C1310 C 0.41654 0.06351 0.0764 0.0
C1311 C 0.43112 0.04907 0.06843 0.0
C1312 C 0.45866 0.05441 0.08242 0.0
C1313 C 0.47109 0.07457 0.10477 0.0
C1314 C 0.45645 0.08904 0.11273 0.0
H1315 H 0.44534 0.16437 0.08837 0.0
H1316 H 0.4644 0.14765 0.11244 0.0
H1317 H 0.44785 0.1336 0.07676 0.0
H1318 H 0.3954 0.05889 0.06519 0.0
H1319 H 0.42061 0.03339 0.05153 0.0
H1320 H 0.84678 0.3405 0.25222 0.0
H1321 H 0.87913 0.35825 0.22192 0.0
H1322 H 0.82216 0.30218 0.15336 0.0
H1323 H 0.78975 0.28494 0.18315 0.0
H1324 H 0.90025 0.32479 0.18871 0.0
H1325 H 0.84025 0.38157 0.12334 0.0
H1326 H 0.84005 0.37558 0.16011 0.0
H1327 H 0.82234 0.34812 0.13359 0.0
C1328 C 0.84137 0.3319 0.23074 0.0
C1329 C 0.81624 0.31075 0.22029 0.0
C1330 C 0.85979 0.34192 0.21357 0.0
C1331 C 0.85298 0.33131 0.18559 0.0
C1332 C 0.82776 0.31044 0.175 0.0
H1333 H 0.93664 0.40075 0.0525 0.0
H1334 H 0.90506 0.36863 0.07737 0.0
C1335 C 0.80939 0.30041 0.19215 0.0
C1336 C 0.87178 0.34295 0.16704 0.0
H1337 H 0.8814 0.38547 0.11301 0.0
C1338 C 0.89609 0.33783 0.17193 0.0
C1339 C 0.86612 0.35983 0.14521 0.0
C1340 C 0.84082 0.36679 0.14009 0.0
C1341 C 0.9152 0.34961 0.15567 0.0
C1342 C 0.90993 0.36727 0.13446 0.0
C1343 C 0.88523 0.37169 0.12909 0.0
C1344 C 0.93064 0.38358 0.11941 0.0
C1345 C 0.94088 0.3432 0.16143 0.0
C1346 C 0.95545 0.40246 0.13486 0.0
C1347 C 0.97342 0.42083 0.12078 0.0
C1348 C 0.96675 0.42079 0.091 0.0
C1349 C 0.94226 0.40132 0.07549 0.0
C1350 C 0.92428 0.3829 0.08963 0.0
H1351 H 0.93776 0.32322 0.17095 0.0
H1352 H 0.94779 0.34306 0.14169 0.0
H1353 H 0.95738 0.3589 0.17674 0.0
H1354 H 0.9604 0.4038 0.15785 0.0
H1355 H 0.99214 0.4356 0.1333 0.0
H1356 H 0.75474 0.81406 0.22503 0.0
H1357 H 0.7335 0.845 0.19957 0.0
H1358 H 0.66528 0.77634 0.1549 0.0
H1359 H 0.6863 0.74561 0.18015 0.0
H1360 H 0.7133 0.85306 0.14016 0.0
H1361 H 0.62901 0.815 0.195 0.0
H1362 H 0.66022 0.80833 0.20664 0.0
H1363 H 0.63378 0.78869 0.17711 0.0
C1364 C 0.73553 0.80563 0.20932 0.0
C1365 C 0.72231 0.7773 0.20451 0.0
C1366 C 0.72328 0.82334 0.19486 0.0
C1367 C 0.69739 0.8131 0.17563 0.0
C1368 C 0.68491 0.78488 0.16997 0.0
H1369 H 0.57329 0.87167 0.07832 0.0
H1370 H 0.60127 0.84575 0.10065 0.0
C1371 C 0.69708 0.76729 0.18431 0.0
C1372 C 0.68259 0.8314 0.16237 0.0
H1373 H 0.62311 0.84279 0.15642 0.0
C1374 C 0.6937 0.85098 0.1439 0.0
C1375 C 0.65694 0.82885 0.16714 0.0
C1376 C 0.64435 0.80928 0.18775 0.0
C1377 C 0.6795 0.86727 0.12944 0.0
C1378 C 0.6536 0.86437 0.13387 0.0
C1379 C 0.64279 0.84507 0.15271 0.0
C1380 C 0.63711 0.88075 0.11904 0.0
C1381 C 0.69201 0.88678 0.10878 0.0
C1382 C 0.64759 0.9093 0.12176 0.0
C1383 C 0.63158 0.92432 0.10874 0.0
C1384 C 0.60448 0.91129 0.09266 0.0
C1385 C 0.59411 0.88268 0.08997 0.0
C1386 C 0.61011 0.8677 0.10301 0.0
H1387 H 0.70773 0.88137 0.10193 0.0
H1388 H 0.67616 0.88727 0.08966 0.0
H1389 H 0.7021 0.90748 0.1192 0.0
H1390 H 0.66807 0.92005 0.13441 0.0
H1391 H 0.64055 0.94623 0.1113 0.0
H1392 H 0.23207 0.68699 0.17886 0.0
H1393 H 0.20642 0.66544 0.13219 0.0
H1394 H 0.19753 0.74044 0.10379 0.0
H1395 H 0.22417 0.76265 0.15041 0.0
H1396 H 0.14771 0.69429 0.09802 0.0
H1397 H 0.22124 0.6709 0.05187 0.0
H1398 H 0.22504 0.66346 0.08865 0.0
H1399 H 0.23162 0.69795 0.07873 0.0
C1400 C 0.22513 0.69915 0.16267 0.0
C1401 C 0.22959 0.72642 0.16869 0.0
C1402 C 0.21066 0.68682 0.13585 0.0
C1403 C 0.20034 0.70144 0.11448 0.0
C1404 C 0.20551 0.7289 0.11999 0.0
H1405 H 0.05744 0.58383 0.99831 0.0
H1406 H 0.0934 0.62938 0.00719 0.0
C1407 C 0.2204 0.74141 0.14678 0.0
C1408 C 0.18109 0.68656 0.08817 0.0
H1409 H 0.1742 0.63807 0.03978 0.0
C1410 C 0.15342 0.68267 0.08442 0.0
C1411 C 0.18877 0.6718 0.07035 0.0
C1412 C 0.21836 0.67645 0.0724 0.0
C1413 C 0.13294 0.66171 0.06599 0.0
C1414 C 0.14059 0.64472 0.05062 0.0
C1415 C 0.16837 0.65098 0.05172 0.0
C1416 C 0.12119 0.61715 0.03985 0.0
C1417 C 0.10342 0.65605 0.06561 0.0
C1418 C 0.12557 0.59507 0.05411 0.0
C1419 C 0.10542 0.56929 0.04883 0.0
C1420 C 0.08051 0.56498 0.02907 0.0
C1421 C 0.07669 0.58663 0.01334 0.0
C1422 C 0.09704 0.61264 0.01862 0.0
H1423 H 0.10121 0.67013 0.08043 0.0
H1424 H 0.09221 0.65822 0.04389 0.0
H1425 H 0.09357 0.63494 0.07151 0.0
H1426 H 0.14399 0.59807 0.07063 0.0
H1427 H 0.10891 0.55289 0.06114 0.0
H1428 H 0.28695 0.74775 0.85062 0.0
H1429 H 0.3187 0.76761 0.89637 0.0
H1430 H 0.38111 0.81091 0.85249 0.0
H1431 H 0.35026 0.78951 0.80748 0.0
H1432 H 0.40453 0.79942 0.9017 0.0
H1433 H 0.32811 0.84148 0.91836 0.0
H1434 H 0.31876 0.80542 0.91982 0.0
H1435 H 0.32228 0.82129 0.88689 0.0
C1436 C 0.30774 0.76096 0.85106 0.0
C1437 C 0.31628 0.76725 0.8257 0.0
C1438 C 0.32578 0.77249 0.87711 0.0
C1439 C 0.35211 0.7915 0.87793 0.0
C1440 C 0.36098 0.79635 0.8526 0.0
H1441 H 0.43846 0.94472 0.92391 0.0
H1442 H 0.40683 0.89822 0.91263 0.0
C1443 C 0.34332 0.78414 0.82679 0.0
C1444 C 0.36959 0.80901 0.90383 0.0
H1445 H 0.37286 0.86221 0.94404 0.0
C1446 C 0.39751 0.81275 0.91151 0.0
C1447 C 0.36037 0.82613 0.91715 0.0
C1448 C 0.33081 0.82359 0.91015 0.0
C1449 C 0.41679 0.83513 0.92909 0.0
C1450 C 0.40774 0.85371 0.9399 0.0
C1451 C 0.37962 0.84795 0.9354 0.0
C1452 C 0.42645 0.8819 0.94923 0.0
C1453 C 0.44682 0.84023 0.93359 0.0
C1454 C 0.44792 0.8883 0.97384 0.0
C1455 C 0.46636 0.91516 0.9803 0.0
C1456 C 0.46336 0.93581 0.96228 0.0
C1457 C 0.4414 0.92929 0.93819 0.0
C1458 C 0.42318 0.9027 0.93178 0.0
H1459 H 0.45046 0.82445 0.92244 0.0
H1460 H 0.45744 0.86032 0.92587 0.0
H1461 H 0.45614 0.84052 0.9566 0.0
H1462 H 0.45068 0.87255 0.98769 0.0
H1463 H 0.48339 0.91959 0.99875 0.0
H1464 H 0.15783 0.27718 0.88739 0.0
H1465 H 0.13949 0.30988 0.89985 0.0
H1466 H 0.13496 0.33931 0.81559 0.0
H1467 H 0.15258 0.30596 0.80262 0.0
H1468 H 0.15857 0.36565 0.90061 0.0
H1469 H 0.05751 0.32287 0.82384 0.0
H1470 H 0.08087 0.30498 0.83223 0.0
H1471 H 0.08631 0.33202 0.80825 0.0
C1472 C 0.15273 0.2904 0.87134 0.0
C1473 C 0.15641 0.28856 0.84382 0.0
C1474 C 0.14238 0.30928 0.8786 0.0
C1475 C 0.13527 0.32681 0.85856 0.0
C1476 C 0.13968 0.32565 0.83131 0.0
H1477 H 0.06315 0.44922 0.86841 0.0
H1478 H 0.08317 0.41906 0.8533 0.0
C1479 C 0.1501 0.30675 0.82401 0.0
C1480 C 0.12338 0.34621 0.86645 0.0
H1481 H 0.06641 0.36319 0.85016 0.0
C1482 C 0.1384 0.36508 0.88956 0.0
C1483 C 0.09705 0.3456 0.85209 0.0
C1484 C 0.07933 0.32515 0.82788 0.0
C1485 C 0.12801 0.38336 0.89852 0.0
C1486 C 0.10155 0.38253 0.88439 0.0
C1487 C 0.08665 0.36389 0.86106 0.0
C1488 C 0.0889 0.40062 0.89363 0.0
C1489 C 0.14574 0.40377 0.92276 0.0
C1490 C 0.08484 0.40007 0.92121 0.0
C1491 C 0.07322 0.41723 0.92992 0.0
C1492 C 0.06514 0.43533 0.9112 0.0
C1493 C 0.06877 0.43544 0.88339 0.0
C1494 C 0.0804 0.41826 0.87472 0.0
H1495 H 0.16771 0.40698 0.92582 0.0
H1496 H 0.14323 0.42361 0.91917 0.0
H1497 H 0.13971 0.39615 0.94267 0.0
H1498 H 0.09049 0.38618 0.93603 0.0
H1499 H 0.07031 0.41607 0.95128 0.0
H1500 H 0.67645 0.1961 0.74966 0.0
H1501 H 0.65169 0.16805 0.78296 0.0
H1502 H 0.72428 0.19933 0.85111 0.0
H1503 H 0.74878 0.22763 0.81822 0.0
H1504 H 0.66852 0.12815 0.82193 0.0
H1505 H 0.66132 0.2154 0.876 0.0
H1506 H 0.66759 0.21726 0.84094 0.0
H1507 H 0.69426 0.21816 0.87145 0.0
C1508 C 0.68709 0.19671 0.77171 0.0
C1509 C 0.71469 0.21334 0.78124 0.0
C1510 C 0.67303 0.18076 0.79061 0.0
C1511 C 0.68628 0.18177 0.81936 0.0
C1512 C 0.71381 0.19839 0.82896 0.0
H1513 H 0.60688 0.10255 0.95422 0.0
H1514 H 0.64171 0.13096 0.93023 0.0
C1515 C 0.72787 0.21427 0.81006 0.0
C1516 C 0.67087 0.16594 0.83936 0.0
H1517 H 0.6397 0.17183 0.89079 0.0
C1518 C 0.6624 0.13763 0.83719 0.0
C1519 C 0.6633 0.17858 0.85936 0.0
C1520 C 0.6719 0.20902 0.86216 0.0
C1521 C 0.64577 0.12145 0.85408 0.0
C1522 C 0.63698 0.134 0.87305 0.0
C1523 C 0.64646 0.16237 0.87611 0.0
C1524 C 0.61602 0.11793 0.88787 0.0
C1525 C 0.63744 0.09104 0.85121 0.0
C1526 C 0.58994 0.10209 0.87192 0.0
C1527 C 0.57015 0.08602 0.88542 0.0
C1528 C 0.57603 0.08563 0.91518 0.0
C1529 C 0.60184 0.10239 0.93124 0.0
C1530 C 0.62173 0.11852 0.91762 0.0
H1531 H 0.6522 0.08529 0.84286 0.0
H1532 H 0.63586 0.08179 0.87191 0.0
H1533 H 0.61714 0.08237 0.83605 0.0
H1534 H 0.58498 0.10196 0.84895 0.0
H1535 H 0.55038 0.07352 0.87246 0.0
H1536 H 0.83761 0.7455 0.79045 0.0
H1537 H 0.86898 0.72464 0.81841 0.0
H1538 H 0.8002 0.65164 0.8212 0.0
H1539 H 0.76918 0.67213 0.79319 0.0
H1540 H 0.87511 0.7003 0.87154 0.0
H1541 H 0.84549 0.62374 0.78343 0.0
H1542 H 0.83648 0.65351 0.77927 0.0
H1543 H 0.81673 0.62436 0.79526 0.0
C1544 C 0.82923 0.72524 0.79758 0.0
C1545 C 0.80086 0.71051 0.78973 0.0
C1546 C 0.84718 0.71322 0.81346 0.0
C1547 C 0.83713 0.68619 0.82146 0.0
C1548 C 0.80868 0.67219 0.81482 0.0
H1549 H 0.92152 0.59619 0.93961 0.0
H1550 H 0.89475 0.6236 0.91782 0.0
C1551 C 0.7909 0.68404 0.79895 0.0
C1552 C 0.85598 0.67186 0.83534 0.0
H1553 H 0.87099 0.6154 0.82751 0.0
C1554 C 0.87433 0.68182 0.86183 0.0
C1555 C 0.85547 0.64791 0.82266 0.0
C1556 C 0.8377 0.63686 0.79346 0.0
C1557 C 0.89149 0.6682 0.87616 0.0
C1558 C 0.89004 0.64353 0.86402 0.0
C1559 C 0.87211 0.63403 0.83722 0.0
C1560 C 0.90716 0.62745 0.87817 0.0
C1561 C 0.91139 0.68077 0.90392 0.0
C1562 C 0.92274 0.61957 0.86322 0.0
C1563 C 0.9378 0.60354 0.87554 0.0
C1564 C 0.93785 0.59475 0.9033 0.0
C1565 C 0.92237 0.60276 0.91837 0.0
C1566 C 0.90709 0.61866 0.90591 0.0
H1567 H 0.91599 0.70293 0.90586 0.0
H1568 H 0.90227 0.67137 0.9217 0.0
H1569 H 0.93088 0.67743 0.90621 0.0
H1570 H 0.92332 0.6259 0.84185 0.0
H1571 H 0.94971 0.59827 0.86329 0.0
H1572 H 0.27421 0.34212 0.20726 0.0
H1573 H 0.24252 0.36169 0.17887 0.0
H1574 H 0.17581 0.28529 0.1754 0.0
H1575 H 0.20763 0.2658 0.20464 0.0
H1576 H 0.20827 0.3507 0.12641 0.0
H1577 H 0.1476 0.33621 0.20713 0.0
H1578 H 0.17975 0.33122 0.2144 0.0
H1579 H 0.14915 0.30562 0.19424 0.0
C1580 C 0.25282 0.32935 0.20014 0.0
C1581 C 0.24355 0.30232 0.20804 0.0
C1582 C 0.23466 0.3406 0.18388 0.0
C1583 C 0.20652 0.32529 0.17527 0.0
C1584 C 0.19726 0.29785 0.18221 0.0
H1585 H 0.07104 0.3779 0.09144 0.0
H1586 H 0.09889 0.35125 0.11208 0.0
C1587 C 0.21555 0.28654 0.19861 0.0
C1588 C 0.18726 0.33865 0.15993 0.0
H1589 H 0.13339 0.35622 0.16516 0.0
C1590 C 0.19185 0.35179 0.13489 0.0
C1591 C 0.16574 0.34029 0.17083 0.0
C1592 C 0.16031 0.32782 0.19824 0.0
C1593 C 0.17574 0.36636 0.12063 0.0
C1594 C 0.15456 0.36841 0.13181 0.0
C1595 C 0.14958 0.35481 0.1565 0.0
C1596 C 0.13763 0.38482 0.1185 0.0
C1597 C 0.1814 0.37918 0.09345 0.0
C1598 C 0.14986 0.41283 0.11528 0.0
C1599 C 0.13392 0.42821 0.10331 0.0
C1600 C 0.10521 0.41608 0.0942 0.0
C1601 C 0.09304 0.38803 0.09761 0.0
C1602 C 0.10899 0.3727 0.10968 0.0
H1603 H 0.19244 0.36945 0.0835 0.0
H1604 H 0.16215 0.3778 0.07791 0.0
H1605 H 0.19445 0.40094 0.09817 0.0
H1606 H 0.17181 0.42295 0.12236 0.0
H1607 H 0.1442 0.44964 0.10103 0.0
H1608 H 0.24303 0.7208 0.80798 0.0
H1609 H 0.2133 0.6985 0.83902 0.0
H1610 H 0.15426 0.64732 0.76792 0.0
H1611 H 0.18376 0.67075 0.73627 0.0
H1612 H 0.13163 0.67065 0.80158 0.0
H1613 H 0.1999 0.62293 0.86799 0.0
H1614 H 0.21553 0.65885 0.86503 0.0
H1615 H 0.20441 0.63629 0.83411 0.0
C1616 C 0.22353 0.70528 0.79878 0.0
C1617 C 0.21512 0.69824 0.76954 0.0
C1618 C 0.20678 0.69214 0.81669 0.0
C1619 C 0.18172 0.67117 0.80577 0.0
C1620 C 0.17356 0.66355 0.77667 0.0
H1621 H 0.04876 0.56128 0.86601 0.0
H1622 H 0.07951 0.59058 0.83892 0.0
C1623 C 0.19032 0.67685 0.75869 0.0
C1624 C 0.16375 0.65761 0.82466 0.0
H1625 H 0.15984 0.6187 0.88212 0.0
C1626 C 0.1378 0.65937 0.81925 0.0
C1627 C 0.17203 0.64311 0.8478 0.0
C1628 C 0.1994 0.63994 0.85406 0.0
C1629 C 0.11976 0.64687 0.83638 0.0
C1630 C 0.12772 0.63171 0.85899 0.0
C1631 C 0.1539 0.63045 0.86479 0.0
C1632 C 0.10852 0.61525 0.87554 0.0
C1633 C 0.09241 0.65011 0.83016 0.0
C1634 C 0.115 0.61909 0.9052 0.0
C1635 C 0.09756 0.60216 0.92086 0.0
C1636 C 0.07352 0.58107 0.907 0.0
C1637 C 0.06707 0.57744 0.87728 0.0
C1638 C 0.08449 0.5943 0.86172 0.0
H1639 H 0.09303 0.66884 0.81879 0.0
H1640 H 0.07686 0.63257 0.81633 0.0
H1641 H 0.0858 0.65085 0.84997 0.0
H1642 H 0.13364 0.63505 0.91621 0.0
H1643 H 0.10303 0.60539 0.94375 0.0
H1644 H 0.34574 0.25176 0.82316 0.0
H1645 H 0.36559 0.21981 0.84753 0.0
H1646 H 0.29616 0.15294 0.8014 0.0
H1647 H 0.27638 0.18511 0.77654 0.0
H1648 H 0.3486 0.17736 0.88193 0.0
H1649 H 0.35997 0.13911 0.7825 0.0
H1650 H 0.35167 0.16899 0.78409 0.0
H1651 H 0.32579 0.13584 0.78276 0.0
C1652 C 0.33449 0.23021 0.81847 0.0
C1653 C 0.30936 0.22106 0.79803 0.0
C1654 C 0.3459 0.21191 0.83243 0.0
C1655 C 0.33277 0.18382 0.82609 0.0
C1656 C 0.30709 0.17448 0.80638 0.0
H1657 H 0.39458 0.0522 0.88047 0.0
H1658 H 0.36623 0.07826 0.85932 0.0
C1659 C 0.29556 0.19289 0.7924 0.0
C1660 C 0.34667 0.16485 0.83958 0.0
H1661 H 0.375 0.12012 0.82483 0.0
C1662 C 0.35425 0.16477 0.86938 0.0
C1663 C 0.35419 0.1483 0.82343 0.0
C1664 C 0.34774 0.1481 0.79144 0.0
C1665 C 0.36895 0.14878 0.88332 0.0
C1666 C 0.37705 0.1327 0.86719 0.0
C1667 C 0.36898 0.13237 0.83737 0.0
C1668 C 0.39433 0.11661 0.88073 0.0
C1669 C 0.37529 0.14903 0.91531 0.0
C1670 C 0.41995 0.12924 0.89975 0.0
C1671 C 0.43633 0.11434 0.91191 0.0
C1672 C 0.42779 0.08629 0.90527 0.0
C1673 C 0.40216 0.07372 0.88606 0.0
C1674 C 0.38577 0.08865 0.87395 0.0
H1675 H 0.36073 0.15501 0.92376 0.0
H1676 H 0.37457 0.12884 0.92299 0.0
H1677 H 0.39613 0.16406 0.92411 0.0
H1678 H 0.42762 0.15086 0.90485 0.0
H1679 H 0.45608 0.12507 0.926 0.0
H1680 H 0.8152 0.32677 0.82289 0.0
H1681 H 0.84188 0.34808 0.86948 0.0
H1682 H 0.83659 0.26987 0.90172 0.0
H1683 H 0.80907 0.24803 0.85513 0.0
H1684 H 0.82934 0.33329 0.9298 0.0
H1685 H 0.92164 0.32127 0.90897 0.0
H1686 H 0.89391 0.32094 0.87951 0.0
H1687 H 0.8892 0.29331 0.90261 0.0
C1688 C 0.81937 0.31394 0.83985 0.0
C1689 C 0.81053 0.28571 0.83504 0.0
C1690 C 0.83451 0.32618 0.86652 0.0
C1691 C 0.84119 0.3105 0.88886 0.0
C1692 C 0.83163 0.28224 0.88461 0.0
H1693 H 0.98455 0.42484 0.00077 0.0
H1694 H 0.94826 0.37961 0.9929 0.0
C1695 C 0.8162 0.26988 0.85791 0.0
C1696 C 0.86028 0.32459 0.91548 0.0
H1697 H 0.92881 0.35632 0.94158 0.0
C1698 C 0.85108 0.33769 0.93315 0.0
C1699 C 0.88849 0.32979 0.9201 0.0
C1700 C 0.89913 0.31563 0.90193 0.0
C1701 C 0.8697 0.35806 0.95345 0.0
C1702 C 0.89801 0.36597 0.95526 0.0
C1703 C 0.9071 0.35049 0.94003 0.0
C1704 C 0.91758 0.39329 0.96679 0.0
C1705 C 0.85884 0.37212 0.97141 0.0
C1706 C 0.91222 0.41604 0.95536 0.0
C1707 C 0.93276 0.44166 0.95994 0.0
C1708 C 0.95907 0.44507 0.97605 0.0
C1709 C 0.96418 0.42271 0.98887 0.0
C1710 C 0.94353 0.39692 0.98428 0.0
H1711 H 0.84044 0.35742 0.97727 0.0
H1712 H 0.87441 0.3821 0.99111 0.0
H1713 H 0.85253 0.3877 0.95898 0.0
H1714 H 0.89275 0.41377 0.94102 0.0
H1715 H 0.92846 0.45861 0.94961 0.0
H1716 H 0.71527 0.86226 0.82699 0.0
H1717 H 0.6839 0.88349 0.83494 0.0
H1718 H 0.68819 0.85264 0.91861 0.0
H1719 H 0.7196 0.83165 0.91094 0.0
H1720 H 0.63341 0.8635 0.84736 0.0
H1721 H 0.70906 0.93273 0.93628 0.0
H1722 H 0.71851 0.91358 0.91342 0.0
H1723 H 0.70378 0.89772 0.9421 0.0
C1724 C 0.70937 0.85983 0.847 0.0
C1725 C 0.7203 0.84553 0.86847 0.0
C1726 C 0.69148 0.87206 0.85156 0.0
C1727 C 0.68414 0.87028 0.87766 0.0
C1728 C 0.69415 0.85507 0.89863 0.0
H1729 H 0.58327 0.92831 0.95345 0.0
H1730 H 0.61121 0.90514 0.9412 0.0
C1731 C 0.71211 0.843 0.89417 0.0
C1732 C 0.6662 0.88437 0.88314 0.0
H1733 H 0.66304 0.92987 0.92915 0.0
C1734 C 0.63997 0.87816 0.86513 0.0
C1735 C 0.67471 0.90362 0.90627 0.0
C1736 C 0.70314 0.91255 0.92546 0.0
C1737 C 0.62183 0.89002 0.87009 0.0
C1738 C 0.63021 0.90887 0.89352 0.0
C1739 C 0.65651 0.91529 0.91132 0.0
C1740 C 0.61207 0.92215 0.90013 0.0
C1741 C 0.59357 0.88176 0.85066 0.0
C1742 C 0.60323 0.93954 0.88117 0.0
C1743 C 0.5874 0.95308 0.88823 0.0
C1744 C 0.5801 0.94962 0.91449 0.0
C1745 C 0.58875 0.93187 0.93324 0.0
C1746 C 0.60464 0.91844 0.9262 0.0
H1747 H 0.58807 0.86266 0.83794 0.0
H1748 H 0.578 0.879 0.86298 0.0
H1749 H 0.5928 0.89798 0.83575 0.0
H1750 H 0.60914 0.9432 0.86118 0.0
H1751 H 0.58159 0.96689 0.87342 0.0
H1752 H 0.87318 0.72316 0.11525 0.0
H1753 H 0.89212 0.69097 0.1028 0.0
H1754 H 0.90226 0.66538 0.18869 0.0
H1755 H 0.88327 0.69767 0.20137 0.0
H1756 H 0.94276 0.68933 0.12356 0.0
H1757 H 0.86469 0.59299 0.14346 0.0
H1758 H 0.85932 0.62477 0.14144 0.0
H1759 H 0.87972 0.61721 0.1733 0.0
C1760 C 0.87942 0.71072 0.13158 0.0
C1761 C 0.87674 0.7132 0.15941 0.0
C1762 C 0.8902 0.6922 0.12436 0.0
C1763 C 0.89848 0.67547 0.14467 0.0
C1764 C 0.89555 0.6776 0.17242 0.0
H1765 H 1.00829 0.59292 0.12455 0.0
H1766 H 0.9881 0.62268 0.1402 0.0
C1767 C 0.88467 0.69613 0.17967 0.0
C1768 C 0.91111 0.65669 0.13685 0.0
H1769 H 0.90435 0.58999 0.13329 0.0
C1770 C 0.93433 0.66761 0.12573 0.0
C1771 C 0.90004 0.62826 0.13931 0.0
C1772 C 0.87442 0.615 0.14977 0.0
C1773 C 0.94679 0.65105 0.11719 0.0
C1774 C 0.9361 0.62268 0.12024 0.0
C1775 C 0.91277 0.61172 0.13118 0.0
C1776 C 0.94834 0.60402 0.1114 0.0
C1777 C 0.9709 0.66405 0.10426 0.0
C1778 C 0.93262 0.58301 0.09053 0.0
C1779 C 0.94405 0.56574 0.0817 0.0
C1780 C 0.97152 0.56888 0.09363 0.0
C1781 C 0.98708 0.58969 0.11492 0.0
C1782 C 0.97562 0.60698 0.12371 0.0
H1783 H 0.9721 0.68441 0.09668 0.0
H1784 H 0.99004 0.66659 0.12053 0.0
H1785 H 0.9698 0.65116 0.08615 0.0
H1786 H 0.91149 0.58011 0.0808 0.0
H1787 H 0.93119 0.54971 0.06568 0.0
H1788 H 0.35858 0.82188 0.2576 0.0
H1789 H 0.38348 0.85034 0.22482 0.0
H1790 H 0.31139 0.81898 0.15604 0.0
H1791 H 0.28689 0.78993 0.18842 0.0
H1792 H 0.35662 0.81408 0.1447 0.0
H1793 H 0.38118 0.91879 0.18538 0.0
H1794 H 0.39131 0.89815 0.21255 0.0
H1795 H 0.35569 0.88973 0.19573 0.0
C1796 C 0.34797 0.82158 0.23559 0.0
C1797 C 0.32067 0.80422 0.22566 0.0
C1798 C 0.36209 0.83793 0.21696 0.0
C1799 C 0.34909 0.83707 0.18813 0.0
C1800 C 0.32164 0.82014 0.17829 0.0
H1801 H 0.42521 0.90631 0.04827 0.0
H1802 H 0.39124 0.88129 0.07464 0.0
C1803 C 0.30758 0.8037 0.19689 0.0
C1804 C 0.36509 0.85143 0.16782 0.0
H1805 H 0.40819 0.91342 0.15486 0.0
C1806 C 0.36757 0.83587 0.14657 0.0
C1807 C 0.37934 0.87979 0.17045 0.0
C1808 C 0.37656 0.89763 0.1921 0.0
C1809 C 0.38504 0.84779 0.12871 0.0
C1810 C 0.39998 0.87602 0.132 0.0
C1811 C 0.39675 0.89171 0.15256 0.0
C1812 C 0.42034 0.88958 0.11553 0.0
C1813 C 0.38833 0.82996 0.10739 0.0
C1814 C 0.44781 0.90241 0.12986 0.0
C1815 C 0.46713 0.91678 0.11498 0.0
C1816 C 0.45927 0.91859 0.08547 0.0
C1817 C 0.43185 0.90509 0.07099 0.0
C1818 C 0.41245 0.89078 0.08598 0.0
H1819 H 0.37968 0.80811 0.11153 0.0
H1820 H 0.3775 0.83295 0.08579 0.0
H1821 H 0.41024 0.83546 0.10762 0.0
H1822 H 0.45423 0.90161 0.15268 0.0
H1823 H 0.48812 0.92694 0.12671 0.0
H1824 H 0.68186 0.25078 0.17249 0.0
H1825 H 0.64841 0.22446 0.1307 0.0
H1826 H 0.71103 0.20429 0.10665 0.0
H1827 H 0.74492 0.23192 0.14733 0.0
H1828 H 0.66924 0.20513 0.05967 0.0
H1829 H 0.62863 0.14412 0.14589 0.0
H1830 H 0.62893 0.17811 0.1453 0.0
H1831 H 0.66067 0.17246 0.15302 0.0
C1832 C 0.68871 0.24137 0.15794 0.0
C1833 C 0.71574 0.24215 0.16406 0.0
C1834 C 0.66954 0.22635 0.13402 0.0
C1835 C 0.67706 0.2116 0.11624 0.0
C1836 C 0.7047 0.21519 0.12034 0.0
H1837 H 0.60452 0.05074 0.05602 0.0
H1838 H 0.63509 0.09748 0.07044 0.0
C1839 C 0.72397 0.23063 0.14392 0.0
C1840 C 0.65605 0.18878 0.09722 0.0
H1841 H 0.60878 0.12568 0.09957 0.0
C1842 C 0.65566 0.18791 0.06821 0.0
C1843 C 0.63871 0.16614 0.10862 0.0
C1844 C 0.6393 0.165 0.13991 0.0
C1845 C 0.63881 0.1646 0.05048 0.0
C1846 C 0.62212 0.14193 0.06218 0.0
C1847 C 0.62168 0.14327 0.09079 0.0
C1848 C 0.60697 0.11534 0.04654 0.0
C1849 C 0.63982 0.16367 0.01982 0.0
C1850 C 0.58157 0.1101 0.02727 0.0
C1851 C 0.56413 0.08328 0.01872 0.0
C1852 C 0.57189 0.06165 0.02978 0.0
C1853 C 0.59813 0.06713 0.04727 0.0
C1854 C 0.6156 0.09377 0.05543 0.0
H1855 H 0.65433 0.18286 0.01403 0.0
H1856 H 0.646 0.14664 0.01558 0.0
H1857 H 0.61913 0.15978 0.00593 0.0
H1858 H 0.57445 0.12651 0.02053 0.0
H1859 H 0.54382 0.07942 0.00545 0.0
H1860 H 0.67308 0.69192 0.72506 0.0
H1861 H 0.6325 0.66202 0.7403 0.0
H1862 H 0.67288 0.69119 0.82715 0.0
H1863 H 0.71328 0.72015 0.8126 0.0
H1864 H 0.63454 0.621 0.78373 0.0
H1865 H 0.59573 0.69666 0.81373 0.0
H1866 H 0.61677 0.70294 0.78848 0.0
H1867 H 0.63217 0.70675 0.82601 0.0
C1868 C 0.67333 0.69183 0.74739 0.0
C1869 C 0.69669 0.70807 0.76762 0.0
C1870 C 0.65007 0.67495 0.75598 0.0
C1871 C 0.64971 0.67474 0.78477 0.0
C1872 C 0.67265 0.69143 0.80477 0.0
H1873 H 0.59551 0.60334 0.92259 0.0
H1874 H 0.6139 0.63025 0.88513 0.0
C1875 C 0.69586 0.70789 0.79634 0.0
C1876 C 0.62664 0.65572 0.79507 0.0
H1877 H 0.5861 0.65531 0.8392 0.0
C1878 C 0.62315 0.62818 0.79509 0.0
C1879 C 0.61197 0.66532 0.80982 0.0
C1880 C 0.61412 0.69452 0.80932 0.0
C1881 C 0.6073 0.61044 0.8118 0.0
C1882 C 0.59451 0.62065 0.82848 0.0
C1883 C 0.59618 0.64767 0.82655 0.0
C1884 C 0.5823 0.60468 0.85062 0.0
C1885 C 0.60611 0.58154 0.81331 0.0
C1886 C 0.55832 0.58161 0.84349 0.0
C1887 C 0.54778 0.56618 0.86485 0.0
C1888 C 0.56108 0.57365 0.89363 0.0
C1889 C 0.58485 0.59704 0.90064 0.0
C1890 C 0.59533 0.61245 0.87929 0.0
H1891 H 0.61965 0.57769 0.80136 0.0
H1892 H 0.61215 0.57666 0.83576 0.0
H1893 H 0.58484 0.56753 0.80426 0.0
H1894 H 0.54788 0.57549 0.82146 0.0
H1895 H 0.52936 0.54828 0.8588 0.0
H1896 H 0.3488 0.67648 0.84395 0.0
H1897 H 0.37968 0.67143 0.88722 0.0
H1898 H 0.31796 0.6596 0.93347 0.0
H1899 H 0.28697 0.66606 0.89033 0.0
H1900 H 0.39055 0.69118 0.95958 0.0
H1901 H 0.3364 0.5849 0.91354 0.0
H1902 H 0.34277 0.61195 0.88951 0.0
H1903 H 0.31918 0.60867 0.91102 0.0
C1904 C 0.34203 0.67414 0.86345 0.0
C1905 C 0.31509 0.67116 0.86341 0.0
C1906 C 0.35983 0.67126 0.88826 0.0
C1907 C 0.35101 0.6651 0.91339 0.0
C1908 C 0.32511 0.66452 0.91422 0.0
H1909 H 0.42723 0.55924 -0.00055 0.0
H1910 H 0.39632 0.58371 0.99574 0.0
C1911 C 0.30732 0.66777 0.88943 0.0
C1912 C 0.36627 0.65318 0.93586 0.0
H1913 H 0.37783 0.59439 0.94734 0.0
C1914 C 0.38751 0.66988 0.95755 0.0
C1915 C 0.36182 0.62534 0.93336 0.0
C1916 C 0.33876 0.60649 0.91073 0.0
C1917 C 0.40556 0.65956 0.97589 0.0
C1918 C 0.40275 0.63225 0.9715 0.0
C1919 C 0.38022 0.61531 0.95097 0.0
C1920 C 0.42438 0.62137 0.98456 0.0
C1921 C 0.4276 0.67812 -0.00062 0.0
C1922 C 0.45132 0.63491 0.98185 0.0
C1923 C 0.46955 0.62123 0.9855 0.0
C1924 C 0.46079 0.59357 0.9909 0.0
C1925 C 0.43461 0.58065 0.99566 0.0
C1926 C 0.41687 0.59463 0.99335 0.0
H1927 H 0.42008 0.69239 0.00791 0.0
H1928 H 0.43472 0.66661 0.01707 0.0
H1929 H 0.44523 0.6905 0.99075 0.0
H1930 H 0.45757 0.65521 0.97433 0.0
H1931 H 0.4895 0.6315 0.9813 0.0
H1932 H 0.33686 0.33804 0.79081 0.0
H1933 H 0.35555 0.37328 0.82905 0.0
H1934 H 0.27779 0.34613 0.85137 0.0
H1935 H 0.25903 0.31079 0.81305 0.0
H1936 H 0.34046 0.41563 0.84669 0.0
H1937 H 0.33076 0.33191 0.92139 0.0
H1938 H 0.32643 0.32588 0.88393 0.0
H1939 H 0.30044 0.33224 0.89637 0.0
C1940 C 0.32354 0.34008 0.80321 0.0
C1941 C 0.29675 0.32142 0.79934 0.0
C1942 C 0.33421 0.36016 0.82514 0.0
C1943 C 0.31812 0.36184 0.8433 0.0
C1944 C 0.29062 0.34475 0.83789 0.0
H1945 H 0.43347 0.48665 0.9714 0.0
H1946 H 0.38589 0.45775 0.95031 0.0
C1947 C 0.28003 0.32457 0.81609 0.0
C1948 C 0.33146 0.37924 0.86961 0.0
H1949 H 0.3604 0.37542 0.93938 0.0
C1950 C 0.34421 0.40713 0.86724 0.0
C1951 C 0.33603 0.36782 0.89628 0.0
C1952 C 0.32285 0.33782 0.89986 0.0
C1953 C 0.3637 0.42357 0.89022 0.0
C1954 C 0.37012 0.41165 0.91623 0.0
C1955 C 0.35524 0.38435 0.9194 0.0
C1956 C 0.39626 0.4251 0.93705 0.0
C1957 C 0.37926 0.45284 0.88556 0.0
C1958 C 0.41738 0.4153 0.93838 0.0
C1959 C 0.44433 0.43152 0.95075 0.0
C1960 C 0.45031 0.45744 0.96231 0.0
C1961 C 0.42903 0.46625 0.96342 0.0
C1962 C 0.40198 0.44996 0.95109 0.0
H1963 H 0.37303 0.45821 0.86332 0.0
H1964 H 0.37557 0.46632 0.89974 0.0
H1965 H 0.40157 0.45701 0.89077 0.0
H1966 H 0.41334 0.39622 0.92747 0.0
H1967 H 0.46062 0.42477 0.94913 0.0
H1968 H 0.70807 0.40669 0.80249 0.0
H1969 H 0.68991 0.41888 0.8389 0.0
H1970 H 0.67262 0.33847 0.87002 0.0
H1971 H 0.68821 0.32519 0.83177 0.0
H1972 H 0.63195 0.35108 0.86864 0.0
H1973 H 0.72076 0.43975 0.91998 0.0
H1974 H 0.71207 0.44533 0.88297 0.0
H1975 H 0.72303 0.41742 0.89435 0.0
C1976 C 0.7002 0.39141 0.81682 0.0
C1977 C 0.69959 0.36485 0.81389 0.0
C1978 C 0.69037 0.39866 0.83818 0.0
C1979 C 0.68055 0.37987 0.85784 0.0
C1980 C 0.68036 0.35348 0.85536 0.0
H1981 H 0.62806 0.45507 0.98049 0.0
H1982 H 0.6528 0.43045 0.96372 0.0
C1983 C 0.6896 0.34599 0.83355 0.0
C1984 C 0.66833 0.38725 0.87924 0.0
H1985 H 0.67623 0.43993 0.92302 0.0
C1986 C 0.64194 0.37026 0.88101 0.0
C1987 C 0.68152 0.41173 0.89635 0.0
C1988 C 0.71104 0.42935 0.89854 0.0
C1989 C 0.62764 0.37814 0.89747 0.0
C1990 C 0.63949 0.40426 0.91148 0.0
C1991 C 0.66672 0.4202 0.9117 0.0
C1992 C 0.62327 0.41654 0.92336 0.0
C1993 C 0.5998 0.35845 0.89923 0.0
C1994 C 0.59846 0.41692 0.90639 0.0
C1995 C 0.58415 0.43047 0.91612 0.0
C1996 C 0.59464 0.4446 0.94278 0.0
C1997 C 0.61954 0.44439 0.95981 0.0
C1998 C 0.63361 0.43026 0.95029 0.0
H1999 H 0.59925 0.33728 0.89934 0.0
H2000 H 0.59404 0.36268 0.91854 0.0
H2001 H 0.58429 0.35978 0.8802 0.0
H2002 H 0.59053 0.40751 0.88511 0.0
H2003 H 0.56537 0.43082 0.90222 0.0
H2004 H 0.71732 0.36533 0.09573 0.0
H2005 H 0.67616 0.35879 0.05839 0.0
H2006 H 0.63883 0.27773 0.08418 0.0
H2007 H 0.68019 0.28426 0.12194 0.0
H2008 H 0.64154 0.31996 0.01199 0.0
H2009 H 0.59188 0.31852 0.1008 0.0
H2010 H 0.62836 0.32791 0.10716 0.0
H2011 H 0.60618 0.29309 0.09874 0.0
C2012 C 0.70071 0.34581 0.09302 0.0
C2013 C 0.70185 0.32542 0.11205 0.0
C2014 C 0.67718 0.34208 0.07159 0.0
C2015 C 0.65435 0.31792 0.06876 0.0
C2016 C 0.65612 0.29668 0.08628 0.0
H2017 H 0.51024 0.35608 0.01117 0.0
H2018 H 0.53122 0.32199 0.01501 0.0
C2019 C 0.67967 0.30047 0.10789 0.0
C2020 C 0.62792 0.31725 0.05058 0.0
H2021 H 0.57136 0.32856 0.05654 0.0
C2022 C 0.6257 0.32106 0.02146 0.0
C2023 C 0.60706 0.31823 0.06289 0.0
C2024 C 0.60833 0.31434 0.0941 0.0
C2025 C 0.6044 0.32824 0.00489 0.0
C2026 C 0.58537 0.33238 0.01804 0.0
C2027 C 0.58597 0.32559 0.04637 0.0
C2028 C 0.56889 0.349 0.0056 0.0
C2029 C 0.60335 0.33255 0.97384 0.0
C2030 C 0.58226 0.37507 0.99722 0.0
C2031 C 0.5701 0.39442 0.99455 0.0
C2032 C 0.54457 0.38842 0.00075 0.0
C2033 C 0.52995 0.36152 0.00621 0.0
C2034 C 0.54199 0.34196 0.00852 0.0
H2035 H 0.60907 0.31725 0.96452 0.0
H2036 H 0.58273 0.33124 0.9616 0.0
H2037 H 0.61847 0.35282 0.97153 0.0
H2038 H 0.6032 0.38147 0.99541 0.0
H2039 H 0.58173 0.41475 0.98995 0.0
H2040 H 0.77693 0.68728 0.19668 0.0
H2041 H 0.7599 0.65171 0.1587 0.0
H2042 H 0.67915 0.62747 0.17354 0.0
H2043 H 0.69615 0.6629 0.2115 0.0
H2044 H 0.69367 0.58383 0.15893 0.0
H2045 H 0.71337 0.66791 0.08482 0.0
H2046 H 0.74167 0.66623 0.11214 0.0
H2047 H 0.71508 0.67411 0.1216 0.0
C2048 C 0.75565 0.67398 0.19213 0.0
C2049 C 0.73765 0.67795 0.20665 0.0
C2050 C 0.74602 0.65372 0.17052 0.0
C2051 C 0.71823 0.63744 0.16302 0.0
C2052 C 0.70072 0.63993 0.17909 0.0
H2053 H 0.58176 0.58106 0.04797 0.0
H2054 H 0.62897 0.60756 0.07213 0.0
C2055 C 0.71041 0.66007 0.20086 0.0
C2056 C 0.70628 0.62021 0.13651 0.0
H2057 H 0.68325 0.62502 0.06551 0.0
C2058 C 0.69201 0.5925 0.1383 0.0
C2059 C 0.70444 0.63183 0.10975 0.0
C2060 C 0.71931 0.66166 0.10673 0.0
C2061 C 0.67358 0.5766 0.11441 0.0
C2062 C 0.66983 0.58884 0.08808 0.0
C2063 C 0.68635 0.61582 0.08574 0.0
C2064 C 0.6446 0.57648 0.06565 0.0
C2065 C 0.65621 0.54768 0.11826 0.0
C2066 C 0.63825 0.5511 0.05233 0.0
C2067 C 0.6112 0.53595 0.03862 0.0
C2068 C 0.59065 0.54642 0.03774 0.0
C2069 C 0.59753 0.57295 0.04813 0.0
C2070 C 0.62445 0.588 0.06193 0.0
H2071 H 0.66043 0.54209 0.14069 0.0
H2072 H 0.63417 0.54461 0.11114 0.0
H2073 H 0.66029 0.53362 0.10515 0.0
H2074 H 0.65363 0.54208 0.05473 0.0
H2075 H 0.60599 0.51527 0.03095 0.0
H2076 H 0.3998 0.67523 0.22586 0.0
H2077 H 0.42056 0.66192 0.19213 0.0
H2078 H 0.34425 0.64033 0.12855 0.0
H2079 H 0.32378 0.65468 0.16205 0.0
H2080 H 0.40467 0.61199 0.17251 0.0
H2081 H 0.39716 0.67601 0.08052 0.0
H2082 H 0.39225 0.684 0.11417 0.0
H2083 H 0.36487 0.65918 0.08919 0.0
C2084 C 0.3877 0.66821 0.20446 0.0
C2085 C 0.36023 0.66585 0.19649 0.0
C2086 C 0.39955 0.66066 0.1852 0.0
C2087 C 0.38407 0.65028 0.15769 0.0
C2088 C 0.35685 0.64888 0.14936 0.0
H2089 H 0.41317 0.53053 0.0691 0.0
H2090 H 0.39307 0.55667 0.09041 0.0
C2091 C 0.3451 0.65689 0.16855 0.0
C2092 C 0.39535 0.63769 0.13939 0.0
H2093 H 0.40625 0.63594 0.07308 0.0
C2094 C 0.40522 0.61749 0.15087 0.0
C2095 C 0.39624 0.64489 0.11117 0.0
C2096 C 0.38732 0.66741 0.09812 0.0
C2097 C 0.41557 0.60404 0.13493 0.0
C2098 C 0.41528 0.61031 0.10633 0.0
C2099 C 0.40601 0.6309 0.09488 0.0
C2100 C 0.42471 0.59546 0.08839 0.0
C2101 C 0.42697 0.58338 0.14903 0.0
C2102 C 0.44831 0.60884 0.07862 0.0
C2103 C 0.45974 0.59395 0.06591 0.0
C2104 C 0.44771 0.56542 0.06276 0.0
C2105 C 0.42302 0.5524 0.07092 0.0
C2106 C 0.41156 0.5673 0.0834 0.0
H2107 H 0.43246 0.58629 0.17255 0.0
H2108 H 0.4113 0.56272 0.14315 0.0
H2109 H 0.44542 0.58448 0.14204 0.0
H2110 H 0.45858 0.63064 0.08199 0.0
H2111 H 0.47832 0.60475 0.05913 0.0
H2112 H 0.37018 0.31917 0.2797 0.0
H2113 H 0.41143 0.35132 0.26737 0.0
H2114 H 0.37523 0.32604 0.17893 0.0
H2115 H 0.33415 0.29483 0.19063 0.0
H2116 H 0.43523 0.3321 0.20432 0.0
H2117 H 0.4059 0.42057 0.21877 0.0
H2118 H 0.40546 0.39593 0.24551 0.0
H2119 H 0.38018 0.38682 0.21245 0.0
C2120 C 0.37098 0.32062 0.25764 0.0
C2121 C 0.34851 0.30498 0.23611 0.0
C2122 C 0.39462 0.33876 0.25072 0.0
C2123 C 0.39613 0.341 0.22227 0.0
C2124 C 0.37435 0.3245 0.20102 0.0
H2125 H 0.43784 0.41887 0.08603 0.0
H2126 H 0.42192 0.39458 0.12599 0.0
C2127 C 0.35079 0.30672 0.20781 0.0
C2128 C 0.41916 0.36168 0.21345 0.0
H2129 H 0.43534 0.42519 0.18857 0.0
C2130 C 0.43618 0.35284 0.20183 0.0
C2131 C 0.42001 0.38856 0.21013 0.0
C2132 C 0.40199 0.39876 0.22234 0.0
C2133 C 0.45234 0.36956 0.18478 0.0
C2134 C 0.45116 0.39549 0.17929 0.0
C2135 C 0.43605 0.4052 0.19294 0.0
C2136 C 0.46141 0.4106 0.15581 0.0
C2137 C 0.46868 0.35868 0.17066 0.0
C2138 C 0.48886 0.42752 0.15961 0.0
C2139 C 0.49804 0.44144 0.13681 0.0
C2140 C 0.47983 0.43853 0.10998 0.0
C2141 C 0.45234 0.42148 0.10638 0.0
C2142 C 0.44322 0.40767 0.12916 0.0
H2143 H 0.46908 0.33891 0.17877 0.0
H2144 H 0.45966 0.35596 0.1474 0.0
H2145 H 0.49001 0.37346 0.17419 0.0
H2146 H 0.50309 0.4299 0.18012 0.0
H2147 H 0.51935 0.45447 0.14021 0.0
H2148 H 0.78555 0.62666 0.60911 0.0
H2149 H 0.81697 0.60612 0.60059 0.0
H2150 H 0.88539 0.67336 0.64747 0.0
H2151 H 0.85403 0.6944 0.65576 0.0
H2152 H 0.85922 0.62932 0.57197 0.0
H2153 H 0.90013 0.60632 0.68227 0.0
H2154 H 0.86919 0.61366 0.67207 0.0
H2155 H 0.90193 0.64067 0.6772 0.0
C2156 C 0.80727 0.63722 0.6176 0.0
C2157 C 0.81716 0.66237 0.633 0.0
C2158 C 0.82523 0.62532 0.6128 0.0
C2159 C 0.85357 0.63805 0.62351 0.0
C2160 C 0.86359 0.6629 0.63936 0.0
H2161 H 0.98829 0.58866 0.60736 0.0
H2162 H 0.96113 0.61303 0.61941 0.0
C2163 C 0.84559 0.6749 0.64412 0.0
C2164 C 0.87243 0.62572 0.61689 0.0
H2165 H 0.91922 0.59698 0.6467 0.0
C2166 C 0.87235 0.62226 0.58833 0.0
C2167 C 0.88975 0.6167 0.63821 0.0
C2168 C 0.89024 0.61928 0.66917 0.0
C2169 C 0.889 0.61005 0.5805 0.0
C2170 C 0.90581 0.60036 0.60174 0.0
C2171 C 0.9063 0.60429 0.63038 0.0
C2172 C 0.92239 0.58545 0.59458 0.0
C2173 C 0.8887 0.60805 0.5495 0.0
C2174 C 0.90972 0.56155 0.57698 0.0
C2175 C 0.92517 0.54758 0.57005 0.0
C2176 C 0.95374 0.55698 0.58076 0.0
C2177 C 0.96636 0.5807 0.59881 0.0
C2178 C 0.95085 0.59473 0.60567 0.0
H2179 H 0.8817 0.62341 0.53738 0.0
H2180 H 0.90929 0.61081 0.54669 0.0
H2181 H 0.87431 0.58769 0.54021 0.0
H2182 H 0.88774 0.55349 0.56877 0.0
H2183 H 0.9146 0.52908 0.55666 0.0
H2184 H 0.29472 0.78416 0.6865 0.0
H2185 H 0.32726 0.80973 0.65944 0.0
H2186 H 0.37918 0.85891 0.73506 0.0
H2187 H 0.34718 0.83193 0.76267 0.0
H2188 H 0.34108 0.86192 0.65041 0.0
H2189 H 0.42274 0.8583 0.72799 0.0
H2190 H 0.43431 0.8423 0.70444 0.0
H2191 H 0.40182 0.82475 0.71274 0.0
C2192 C 0.31355 0.79957 0.69763 0.0
C2193 C 0.31908 0.80528 0.72691 0.0
C2194 C 0.33198 0.8145 0.68204 0.0
C2195 C 0.35593 0.83588 0.69533 0.0
C2196 C 0.36127 0.84195 0.72455 0.0
H2197 H 0.48313 0.95846 0.63389 0.0
H2198 H 0.45191 0.93084 0.66159 0.0
C2199 C 0.34298 0.82668 0.74024 0.0
C2200 C 0.37412 0.85297 0.67807 0.0
H2201 H 0.43991 0.87729 0.6714 0.0
C2202 C 0.36266 0.86512 0.65486 0.0
C2203 C 0.40233 0.8574 0.68418 0.0
C2204 C 0.41596 0.84479 0.70855 0.0
C2205 C 0.37868 0.88177 0.63768 0.0
C2206 C 0.40677 0.8859 0.64361 0.0
C2207 C 0.41829 0.87391 0.66688 0.0
C2208 C 0.42482 0.90297 0.62629 0.0
C2209 C 0.36552 0.8953 0.61383 0.0
C2210 C 0.41991 0.89632 0.59728 0.0
C2211 C 0.43763 0.91219 0.58131 0.0
C2212 C 0.46068 0.93468 0.59428 0.0
C2213 C 0.46556 0.9412 0.62334 0.0
C2214 C 0.44776 0.92547 0.6392 0.0
H2215 H 0.34606 0.89596 0.6169 0.0
H2216 H 0.37945 0.91633 0.61196 0.0
H2217 H 0.36083 0.88363 0.59351 0.0
H2218 H 0.40262 0.87865 0.58711 0.0
H2219 H 0.4335 0.90663 0.55898 0.0
H2220 H 0.18474 0.24872 0.67733 0.0
H2221 H 0.16498 0.28075 0.6531 0.0
H2222 H 0.23361 0.34737 0.70079 0.0
H2223 H 0.25363 0.31515 0.72491 0.0
H2224 H 0.14806 0.31401 0.67783 0.0
H2225 H 0.22619 0.37674 0.62223 0.0
H2226 H 0.22589 0.34463 0.63624 0.0
H2227 H 0.23896 0.3745 0.65957 0.0
C2228 C 0.19596 0.27025 0.6822 0.0
C2229 C 0.22098 0.27933 0.70275 0.0
C2230 C 0.18456 0.2886 0.66839 0.0
C2231 C 0.19772 0.31669 0.67478 0.0
C2232 C 0.22317 0.32594 0.69488 0.0
H2233 H 0.14084 0.4515 0.62103 0.0
H2234 H 0.1673 0.42391 0.64313 0.0
C2235 C 0.23467 0.30747 0.70872 0.0
C2236 C 0.18352 0.33562 0.66194 0.0
H2237 H 0.18902 0.39076 0.62113 0.0
C2238 C 0.15709 0.33072 0.66538 0.0
C2239 C 0.19516 0.35773 0.64584 0.0
C2240 C 0.22301 0.36369 0.64047 0.0
C2241 C 0.14211 0.34704 0.65333 0.0
C2242 C 0.15346 0.36879 0.63671 0.0
C2243 C 0.18012 0.37408 0.63368 0.0
C2244 C 0.13777 0.38593 0.6222 0.0
C2245 C 0.11435 0.34104 0.659 0.0
C2246 C 0.11245 0.3741 0.6025 0.0
C2247 C 0.09712 0.38983 0.5899 0.0
C2248 C 0.10667 0.41799 0.59646 0.0
C2249 C 0.13243 0.42989 0.61566 0.0
C2250 C 0.14778 0.41412 0.62823 0.0
H2251 H 0.11201 0.3293 0.67826 0.0
H2252 H 0.11075 0.36003 0.66176 0.0
H2253 H 0.09833 0.32871 0.64071 0.0
H2254 H 0.10435 0.35254 0.59696 0.0
H2255 H 0.07739 0.37966 0.57552 0.0
H2256 H 0.72945 0.18053 0.68359 0.0
H2257 H 0.70457 0.15934 0.63655 0.0
H2258 H 0.70474 0.23668 0.60554 0.0
H2259 H 0.73081 0.25849 0.65248 0.0
H2260 H 0.65116 0.19115 0.59902 0.0
H2261 H 0.7256 0.16422 0.55758 0.0
H2262 H 0.72765 0.15812 0.59454 0.0
H2263 H 0.73562 0.19226 0.58319 0.0
C2264 C 0.72463 0.19323 0.66679 0.0
C2265 C 0.73157 0.22117 0.67207 0.0
C2266 C 0.71058 0.18108 0.63981 0.0
C2267 C 0.7031 0.19653 0.6176 0.0
C2268 C 0.71055 0.22451 0.62244 0.0
H2269 H 0.56043 0.0837 0.49801 0.0
H2270 H 0.59776 0.12831 0.50759 0.0
C2271 C 0.72508 0.23682 0.64939 0.0
C2272 C 0.68453 0.18231 0.59074 0.0
H2273 H 0.67811 0.13394 0.54248 0.0
C2274 C 0.657 0.17929 0.58581 0.0
C2275 C 0.69246 0.16722 0.57355 0.0
C2276 C 0.72202 0.17078 0.57727 0.0
C2277 C 0.63664 0.15886 0.56668 0.0
C2278 C 0.64434 0.1416 0.55169 0.0
C2279 C 0.67222 0.14705 0.55408 0.0
C2280 C 0.62451 0.11448 0.53987 0.0
C2281 C 0.60705 0.15404 0.56519 0.0
C2282 C 0.62796 0.0917 0.55336 0.0
C2283 C 0.6071 0.06636 0.54745 0.0
C2284 C 0.58238 0.06325 0.52787 0.0
C2285 C 0.57956 0.08556 0.51276 0.0
C2286 C 0.60067 0.11107 0.51854 0.0
H2287 H 0.60479 0.16781 0.58031 0.0
H2288 H 0.5969 0.15744 0.54345 0.0
H2289 H 0.59617 0.13278 0.56994 0.0
H2290 H 0.64613 0.0938 0.56991 0.0
H2291 H 0.6098 0.04942 0.5593 0.0
H2292 H 0.84395 0.28293 0.31835 0.0
H2293 H 0.87349 0.30312 0.36426 0.0
H2294 H 0.8036 0.30275 0.39268 0.0
H2295 H 0.77396 0.2833 0.34623 0.0
H2296 H 0.83891 0.351 0.39755 0.0
H2297 H 0.89614 0.28667 0.44437 0.0
H2298 H 0.89879 0.29143 0.40838 0.0
H2299 H 0.86575 0.27408 0.41576 0.0
C2300 C 0.83474 0.28652 0.33456 0.0
C2301 C 0.80677 0.28223 0.32844 0.0
C2302 C 0.85165 0.29775 0.36106 0.0
C2303 C 0.84082 0.30431 0.38215 0.0
C2304 C 0.81246 0.29786 0.37679 0.0
H2305 H 0.94851 0.44319 0.50175 0.0
H2306 H 0.9119 0.39825 0.48991 0.0
C2307 C 0.79558 0.28693 0.35016 0.0
C2308 C 0.85954 0.32258 0.40692 0.0
H2309 H 0.92189 0.33651 0.45305 0.0
C2310 C 0.85654 0.34742 0.41047 0.0
C2311 C 0.8825 0.31793 0.42393 0.0
C2312 C 0.88575 0.2909 0.42307 0.0
C2313 C 0.87718 0.3687 0.42824 0.0
C2314 C 0.90138 0.36494 0.44303 0.0
C2315 C 0.90337 0.33936 0.44151 0.0
C2316 C 0.92629 0.38857 0.45523 0.0
C2317 C 0.87402 0.39583 0.42899 0.0
C2318 C 0.94699 0.39734 0.44046 0.0
C2319 C 0.96782 0.4227 0.44732 0.0
C2320 C 0.96848 0.43951 0.46931 0.0
C2321 C 0.94878 0.43013 0.4853 0.0
C2322 C 0.92779 0.40467 0.47836 0.0
H2323 H 0.85485 0.3959 0.41428 0.0
H2324 H 0.87374 0.401 0.45081 0.0
H2325 H 0.89159 0.41198 0.42322 0.0
H2326 H 0.94606 0.38531 0.4224 0.0
H2327 H 0.98281 0.42967 0.43468 0.0
H2328 H 0.61182 0.75846 0.33398 0.0
H2329 H 0.59427 0.79165 0.34693 0.0
H2330 H 0.67535 0.85289 0.36349 0.0
H2331 H 0.69305 0.81972 0.35035 0.0
H2332 H 0.60663 0.81896 0.39705 0.0
H2333 H 0.63182 0.89314 0.31503 0.0
H2334 H 0.6333 0.85978 0.31312 0.0
H2335 H 0.66081 0.88652 0.33582 0.0
C2336 C 0.62598 0.779 0.34032 0.0
C2337 C 0.65393 0.78631 0.34113 0.0
C2338 C 0.61586 0.79803 0.34766 0.0
C2339 C 0.63332 0.82498 0.35594 0.0
C2340 C 0.66123 0.83246 0.35656 0.0
H2341 H 0.60946 0.96417 0.42079 0.0
H2342 H 0.62797 0.93256 0.40579 0.0
C2343 C 0.67138 0.81342 0.34906 0.0
C2344 C 0.62238 0.84471 0.36505 0.0
H2345 H 0.61623 0.90639 0.35188 0.0
C2346 C 0.60864 0.83801 0.38703 0.0
C2347 C 0.62498 0.86968 0.35212 0.0
C2348 C 0.63829 0.87766 0.32754 0.0
C2349 C 0.5978 0.85557 0.39662 0.0
C2350 C 0.60037 0.88049 0.38369 0.0
C2351 C 0.61423 0.88732 0.36183 0.0
C2352 C 0.58885 0.89974 0.39261 0.0
C2353 C 0.58417 0.84752 0.42097 0.0
C2354 C 0.56059 0.89205 0.38994 0.0
C2355 C 0.5499 0.91009 0.39859 0.0
C2356 C 0.56722 0.93633 0.41015 0.0
C2357 C 0.5955 0.94404 0.41247 0.0
C2358 C 0.60613 0.92603 0.40369 0.0
H2359 H 0.58984 0.83143 0.43309 0.0
H2360 H 0.58969 0.86526 0.43578 0.0
H2361 H 0.56165 0.83954 0.41251 0.0
H2362 H 0.54672 0.87206 0.38105 0.0
H2363 H 0.52807 0.90332 0.39658 0.0
H2364 H 0.24629 0.72746 0.31481 0.0
H2365 H 0.22271 0.69819 0.34769 0.0
H2366 H 0.15179 0.66199 0.27883 0.0
H2367 H 0.17564 0.69112 0.24555 0.0
H2368 H 0.16804 0.69946 0.35156 0.0
H2369 H 0.16427 0.59647 0.32449 0.0
H2370 H 0.19516 0.626 0.32814 0.0
H2371 H 0.16695 0.6215 0.29803 0.0
C2372 C 0.22613 0.71264 0.30642 0.0
C2373 C 0.21305 0.71095 0.27747 0.0
C2374 C 0.21259 0.69609 0.32531 0.0
C2375 C 0.18575 0.67778 0.31553 0.0
C2376 C 0.17274 0.67573 0.28658 0.0
H2377 H 0.05073 0.57474 0.37427 0.0
H2378 H 0.0839 0.60332 0.34913 0.0
C2379 C 0.18627 0.69235 0.26769 0.0
C2380 C 0.17015 0.66299 0.33587 0.0
H2381 H 0.13854 0.59944 0.35609 0.0
C2382 C 0.16179 0.67763 0.35286 0.0
C2383 C 0.16227 0.63462 0.33742 0.0
C2384 C 0.17253 0.61853 0.32109 0.0
C2385 C 0.14462 0.66433 0.3706 0.0
C2386 C 0.13594 0.63583 0.37133 0.0
C2387 C 0.14511 0.62132 0.35511 0.0
C2388 C 0.11577 0.62035 0.38719 0.0
C2389 C 0.13496 0.68056 0.38756 0.0
C2390 C 0.1228 0.62085 0.41693 0.0
C2391 C 0.10387 0.6045 0.43145 0.0
C2392 C 0.07777 0.58745 0.41629 0.0
C2393 C 0.07068 0.58763 0.38653 0.0
C2394 C 0.08958 0.60388 0.37212 0.0
H2395 H 0.14109 0.70216 0.38209 0.0
H2396 H 0.11236 0.67167 0.3839 0.0
H2397 H 0.14381 0.67977 0.41053 0.0
H2398 H 0.14309 0.63336 0.4288 0.0
H2399 H 0.10986 0.60472 0.4544 0.0
H2400 H 0.33912 0.24704 0.2921 0.0
H2401 H 0.37058 0.22711 0.32138 0.0
H2402 H 0.30296 0.15177 0.31944 0.0
H2403 H 0.27168 0.17168 0.29076 0.0
H2404 H 0.33866 0.16421 0.37235 0.0
H2405 H 0.39517 0.17254 0.28875 0.0
H2406 H 0.39439 0.20391 0.30061 0.0
H2407 H 0.36324 0.17793 0.28209 0.0
C2408 C 0.33095 0.22644 0.29846 0.0
C2409 C 0.30282 0.21103 0.28934 0.0
C2410 C 0.349 0.2149 0.31492 0.0
C2411 C 0.33934 0.18764 0.32235 0.0
C2412 C 0.3111 0.17273 0.31406 0.0
H2413 H 0.42233 0.07296 0.36326 0.0
H2414 H 0.39499 0.09987 0.34217 0.0
C2415 C 0.29319 0.18416 0.29764 0.0
C2416 C 0.3583 0.17398 0.33767 0.0
H2417 H 0.40975 0.15315 0.331 0.0
C2418 C 0.35436 0.162 0.3634 0.0
C2419 C 0.37855 0.17055 0.32589 0.0
C2420 C 0.38306 0.18167 0.29771 0.0
C2421 C 0.36983 0.14675 0.37747 0.0
C2422 C 0.39027 0.14352 0.36583 0.0
C2423 C 0.39429 0.15562 0.34016 0.0
C2424 C 0.40697 0.1269 0.37929 0.0
C2425 C 0.36337 0.13338 0.40417 0.0
C2426 C 0.42318 0.13294 0.4073 0.0
C2427 C 0.43872 0.11729 0.41964 0.0
C2428 C 0.43873 0.09517 0.40429 0.0
C2429 C 0.42261 0.08936 0.37614 0.0
C2430 C 0.40708 0.105 0.36385 0.0
H2431 H 0.34275 0.13164 0.40605 0.0
H2432 H 0.36437 0.11279 0.40482 0.0
H2433 H 0.37857 0.14581 0.42289 0.0
H2434 H 0.42405 0.14998 0.41965 0.0
H2435 H 0.4506 0.12249 0.44136 0.0
H2436 H 0.7684 0.84036 0.70979 0.0
H2437 H 0.73659 0.85962 0.68131 0.0
H2438 H 0.67034 0.78271 0.67724 0.0
H2439 H 0.70226 0.76372 0.70717 0.0
H2440 H 0.70483 0.85101 0.63027 0.0
H2441 H 0.63829 0.83031 0.70582 0.0
H2442 H 0.67037 0.82519 0.71428 0.0
H2443 H 0.64039 0.80037 0.69211 0.0
C2444 C 0.74707 0.82743 0.70261 0.0
C2445 C 0.73799 0.8004 0.71052 0.0
C2446 C 0.72881 0.8385 0.68625 0.0
C2447 C 0.70073 0.82299 0.67738 0.0
C2448 C 0.69168 0.79552 0.68434 0.0
H2449 H 0.56714 0.87271 0.58093 0.0
H2450 H 0.59516 0.84676 0.60298 0.0
C2451 C 0.71004 0.78445 0.70106 0.0
C2452 C 0.68142 0.83616 0.66155 0.0
H2453 H 0.62495 0.85065 0.66362 0.0
C2454 C 0.68736 0.85082 0.63765 0.0
C2455 C 0.65851 0.83624 0.67098 0.0
C2456 C 0.65159 0.82242 0.69734 0.0
C2457 C 0.6714 0.86546 0.62323 0.0
C2458 C 0.6487 0.86565 0.63278 0.0
C2459 C 0.64231 0.85055 0.65623 0.0
C2460 C 0.6317 0.88178 0.61905 0.0
C2461 C 0.67887 0.88062 0.59772 0.0
C2462 C 0.64268 0.91031 0.62073 0.0
C2463 C 0.6265 0.92541 0.60851 0.0
C2464 C 0.59881 0.91243 0.59408 0.0
C2465 C 0.58807 0.88375 0.59222 0.0
C2466 C 0.60419 0.86871 0.6047 0.0
H2467 H 0.69324 0.87411 0.58954 0.0
H2468 H 0.66028 0.8776 0.58041 0.0
H2469 H 0.68885 0.90265 0.60377 0.0
H2470 H 0.66373 0.92098 0.63197 0.0
H2471 H 0.63566 0.94731 0.61105 0.0
H2472 H 0.67825 0.18658 0.23714 0.0
H2473 H 0.64804 0.16336 0.26803 0.0
H2474 H 0.70222 0.21935 0.33794 0.0
H2475 H 0.73234 0.24232 0.30739 0.0
H2476 H 0.6709 0.14058 0.31864 0.0
H2477 H 0.62463 0.21256 0.3443 0.0
H2478 H 0.63231 0.21128 0.31032 0.0
H2479 H 0.65953 0.22574 0.34119 0.0
C2480 C 0.68319 0.19436 0.25888 0.0
C2481 C 0.70722 0.21664 0.26968 0.0
C2482 C 0.66601 0.18115 0.27644 0.0
C2483 C 0.67277 0.18996 0.30508 0.0
C2484 C 0.6963 0.21275 0.31569 0.0
H2485 H 0.60227 0.10927 0.44394 0.0
H2486 H 0.63206 0.1412 0.41705 0.0
C2487 C 0.71347 0.22597 0.29813 0.0
C2488 C 0.65734 0.17307 0.32459 0.0
H2489 H 0.61427 0.17098 0.36645 0.0
C2490 C 0.65853 0.14721 0.32913 0.0
C2491 C 0.64167 0.18208 0.33849 0.0
C2492 C 0.63926 0.20941 0.33344 0.0
C2493 C 0.64395 0.12979 0.34688 0.0
C2494 C 0.62761 0.13845 0.36012 0.0
C2495 C 0.62698 0.16459 0.35626 0.0
C2496 C 0.60958 0.11981 0.37641 0.0
C2497 C 0.64594 0.10218 0.35125 0.0
C2498 C 0.58708 0.09758 0.36224 0.0
C2499 C 0.5701 0.07945 0.37738 0.0
C2500 C 0.57537 0.08328 0.40699 0.0
C2501 C 0.59782 0.10577 0.42114 0.0
C2502 C 0.61477 0.12402 0.40588 0.0
H2503 H 0.66404 0.10107 0.34508 0.0
H2504 H 0.64714 0.09698 0.37376 0.0
H2505 H 0.62735 0.08667 0.33796 0.0
H2506 H 0.5827 0.09426 0.33942 0.0
H2507 H 0.55292 0.06238 0.36588 0.0
H2508 H 0.78026 0.68624 0.28042 0.0
H2509 H 0.8004 0.6546 0.30597 0.0
H2510 H 0.86903 0.72228 0.35185 0.0
H2511 H 0.84887 0.75367 0.32677 0.0
H2512 H 0.85039 0.65119 0.30517 0.0
H2513 H 0.85088 0.67296 0.41576 0.0
H2514 H 0.83058 0.68328 0.38561 0.0
H2515 H 0.86637 0.7031 0.39852 0.0
C2516 C 0.79925 0.6943 0.29651 0.0
C2517 C 0.81269 0.72253 0.30194 0.0
C2518 C 0.81091 0.67618 0.31098 0.0
C2519 C 0.8362 0.68587 0.33127 0.0
C2520 C 0.84929 0.71405 0.33691 0.0
H2521 H 0.96013 0.62751 0.42862 0.0
H2522 H 0.93141 0.65296 0.40692 0.0
C2523 C 0.83775 0.73206 0.32244 0.0
C2524 C 0.85004 0.66699 0.34517 0.0
H2525 H 0.88039 0.65011 0.40984 0.0
C2526 C 0.8566 0.65068 0.32806 0.0
C2527 C 0.85842 0.66629 0.37509 0.0
C2528 C 0.85098 0.68214 0.39483 0.0
C2529 C 0.87205 0.63466 0.3399 0.0
C2530 C 0.8809 0.63435 0.36985 0.0
C2531 C 0.87386 0.65027 0.38694 0.0
C2532 C 0.898 0.61825 0.38379 0.0
C2533 C 0.87971 0.61907 0.3201 0.0
C2534 C 0.88885 0.58996 0.37873 0.0
C2535 C 0.90528 0.57521 0.39129 0.0
C2536 C 0.93135 0.58823 0.40955 0.0
C2537 C 0.94016 0.6165 0.41507 0.0
C2538 C 0.92373 0.63122 0.40247 0.0
H2539 H 0.87777 0.62698 0.2985 0.0
H2540 H 0.90101 0.61995 0.32837 0.0
H2541 H 0.86582 0.5975 0.31815 0.0
H2542 H 0.86886 0.57917 0.36509 0.0
H2543 H 0.89736 0.55348 0.38683 0.0
H2544 H 0.30609 0.75196 0.35236 0.0
H2545 H 0.33262 0.77377 0.39918 0.0
H2546 H 0.32873 0.85033 0.36973 0.0
H2547 H 0.30324 0.82914 0.32287 0.0
H2548 H 0.38397 0.81755 0.40565 0.0
H2549 H 0.31282 0.84753 0.44927 0.0
H2550 H 0.30133 0.82005 0.42265 0.0
H2551 H 0.31009 0.85466 0.41249 0.0
C2552 C 0.31094 0.77345 0.35582 0.0
C2553 C 0.30321 0.78895 0.33358 0.0
C2554 C 0.32574 0.78575 0.38271 0.0
C2555 C 0.33228 0.81354 0.38798 0.0
C2556 C 0.32339 0.82871 0.36625 0.0
H2557 H 0.42995 0.96023 0.43945 0.0
H2558 H 0.3929 0.91621 0.43068 0.0
C2559 C 0.309 0.81657 0.33934 0.0
C2560 C 0.35164 0.828 0.41442 0.0
H2561 H 0.36076 0.87836 0.4617 0.0
C2562 C 0.37892 0.83017 0.4188 0.0
C2563 C 0.3448 0.84406 0.43166 0.0
C2564 C 0.31557 0.84125 0.42898 0.0
C2565 C 0.40003 0.8507 0.43719 0.0
C2566 C 0.3934 0.86902 0.45189 0.0
C2567 C 0.36583 0.86445 0.45026 0.0
C2568 C 0.41393 0.89623 0.4623 0.0
C2569 C 0.42928 0.85449 0.43817 0.0
C2570 C 0.43772 0.89991 0.48377 0.0
C2571 C 0.45921 0.92522 0.48861 0.0
C2572 C 0.45687 0.94702 0.47222 0.0
C2573 C 0.4323 0.94368 0.45225 0.0
C2574 C 0.41104 0.91857 0.4474 0.0
H2575 H 0.43074 0.8395 0.42384 0.0
H2576 H 0.44027 0.87518 0.43201 0.0
H2577 H 0.43988 0.85217 0.46012 0.0
H2578 H 0.44022 0.88297 0.49571 0.0
H2579 H 0.47816 0.92727 0.50383 0.0
H2580 H 0.21209 0.36061 0.32186 0.0
H2581 H 0.1802 0.38128 0.32954 0.0
H2582 H 0.18778 0.35411 0.41482 0.0
H2583 H 0.21893 0.33283 0.40709 0.0
H2584 H 0.13427 0.34666 0.38771 0.0
H2585 H 0.20359 0.45178 0.37737 0.0
H2586 H 0.19526 0.42871 0.34744 0.0
H2587 H 0.21489 0.42342 0.38107 0.0
C2588 C 0.20671 0.35873 0.34213 0.0
C2589 C 0.21841 0.34528 0.36395 0.0
C2590 C 0.18868 0.37084 0.34661 0.0
C2591 C 0.18195 0.36976 0.37298 0.0
C2592 C 0.19279 0.35547 0.39438 0.0
H2593 H 0.12111 0.47275 0.44966 0.0
H2594 H 0.14717 0.44836 0.43566 0.0
C2595 C 0.2108 0.34345 0.38996 0.0
C2596 C 0.16407 0.38381 0.37873 0.0
H2597 H 0.16034 0.44645 0.38445 0.0
C2598 C 0.1399 0.36847 0.38684 0.0
C2599 C 0.17155 0.41233 0.37801 0.0
C2600 C 0.19783 0.43014 0.37075 0.0
C2601 C 0.12311 0.3808 0.39426 0.0
C2602 C 0.13045 0.40929 0.39324 0.0
C2603 C 0.15457 0.42462 0.38505 0.0
C2604 C 0.11405 0.42375 0.40173 0.0
C2605 C 0.09812 0.36329 0.40402 0.0
C2606 C 0.08668 0.41827 0.38726 0.0
C2607 C 0.07157 0.43209 0.39539 0.0
C2608 C 0.08348 0.45183 0.41816 0.0
C2609 C 0.11099 0.45738 0.43242 0.0
C2610 C 0.12606 0.44358 0.42426 0.0
H2611 H 0.09896 0.34315 0.41016 0.0
H2612 H 0.09581 0.37335 0.4224 0.0
H2613 H 0.07967 0.35991 0.38646 0.0
H2614 H 0.07703 0.40342 0.3695 0.0
H2615 H 0.05045 0.42713 0.38396 0.0
H2616 H 0.34146 0.18332 0.65167 0.0
H2617 H 0.36044 0.15124 0.63828 0.0
H2618 H 0.4404 0.21435 0.6547 0.0
H2619 H 0.42176 0.24628 0.6685 0.0
H2620 H 0.38795 0.1561 0.5939 0.0
H2621 H 0.455 0.15122 0.69834 0.0
H2622 H 0.42778 0.1641 0.6947 0.0
H2623 H 0.45976 0.18503 0.68723 0.0
C2624 C 0.36316 0.19026 0.65287 0.0
C2625 C 0.38003 0.21745 0.66117 0.0
C2626 C 0.37397 0.17193 0.64503 0.0
C2627 C 0.40194 0.18025 0.64572 0.0
C2628 C 0.41886 0.20726 0.65436 0.0
H2629 H 0.50976 0.1075 0.60212 0.0
H2630 H 0.48956 0.13718 0.61805 0.0
C2631 C 0.40807 0.2256 0.66201 0.0
C2632 C 0.41334 0.16114 0.63632 0.0
H2633 H 0.46101 0.13168 0.65834 0.0
C2634 C 0.40376 0.15057 0.60805 0.0
C2635 C 0.43415 0.15406 0.65467 0.0
C2636 C 0.44466 0.16397 0.6855 0.0
C2637 C 0.41484 0.13373 0.59748 0.0
C2638 C 0.43567 0.12662 0.61584 0.0
C2639 C 0.44512 0.13708 0.64418 0.0
C2640 C 0.44792 0.10838 0.60611 0.0
C2641 C 0.40468 0.12448 0.56645 0.0
C2642 C 0.43144 0.08206 0.59444 0.0
C2643 C 0.44294 0.06506 0.58524 0.0
C2644 C 0.47132 0.07378 0.58776 0.0
C2645 C 0.48787 0.09999 0.59995 0.0
C2646 C 0.47631 0.11705 0.60901 0.0
H2647 H 0.39506 0.13787 0.55378 0.0
H2648 H 0.42156 0.12404 0.55745 0.0
H2649 H 0.38899 0.10369 0.5641 0.0
H2650 H 0.40962 0.07448 0.59269 0.0
H2651 H 0.42957 0.04484 0.57659 0.0
H2652 H 0.7932 0.27975 0.68975 0.0
H2653 H 0.81866 0.30872 0.65785 0.0
H2654 H 0.88991 0.33944 0.72761 0.0
H2655 H 0.86423 0.31067 0.75986 0.0
H2656 H 0.87296 0.37967 0.68795 0.0
H2657 H 0.88388 0.29356 0.6358 0.0
H2658 H 0.85044 0.28991 0.63956 0.0
H2659 H 0.87691 0.29156 0.67055 0.0
C2660 C 0.81402 0.29312 0.69844 0.0
C2661 C 0.82659 0.2937 0.72739 0.0
C2662 C 0.82862 0.3094 0.68014 0.0
C2663 C 0.85605 0.32606 0.69051 0.0
C2664 C 0.86866 0.32671 0.71939 0.0
H2665 H 0.99006 0.43867 0.63455 0.0
H2666 H 0.95703 0.4103 0.65999 0.0
C2667 C 0.85408 0.31036 0.73769 0.0
C2668 C 0.87199 0.34223 0.67111 0.0
H2669 H 0.90455 0.33723 0.62068 0.0
C2670 C 0.87975 0.37047 0.67308 0.0
C2671 C 0.88048 0.32994 0.65169 0.0
C2672 C 0.8727 0.29958 0.64919 0.0
C2673 C 0.89631 0.38696 0.65628 0.0
C2674 C 0.90581 0.37477 0.63768 0.0
C2675 C 0.89728 0.34643 0.63508 0.0
C2676 C 0.92586 0.39118 0.62201 0.0
C2677 C 0.90351 0.41724 0.65861 0.0
C2678 C 0.91963 0.38889 0.59226 0.0
C2679 C 0.93862 0.40488 0.57761 0.0
C2680 C 0.96409 0.42326 0.59261 0.0
C2681 C 0.97052 0.42484 0.62242 0.0
C2682 C 0.95161 0.40882 0.63699 0.0
H2683 H 0.88826 0.4224 0.66669 0.0
H2684 H 0.92369 0.42667 0.67378 0.0
H2685 H 0.90479 0.42628 0.63777 0.0
H2686 H 0.89992 0.37512 0.5804 0.0
H2687 H 0.93314 0.40324 0.55462 0.0
H2688 H 0.24963 0.75341 0.64267 0.0
H2689 H 0.21977 0.73305 0.59645 0.0
H2690 H 0.15141 0.70087 0.63529 0.0
H2691 H 0.1807 0.72234 0.68064 0.0
H2692 H 0.19962 0.68375 0.58481 0.0
H2693 H 0.11063 0.71352 0.56183 0.0
H2694 H 0.14132 0.73261 0.58799 0.0
H2695 H 0.11464 0.70427 0.59792 0.0
C2696 C 0.22797 0.74285 0.64094 0.0
C2697 C 0.21742 0.73932 0.66518 0.0
C2698 C 0.21091 0.73121 0.61455 0.0
C2699 C 0.18313 0.71556 0.61208 0.0
C2700 C 0.17242 0.71356 0.63611 0.0
H2701 H 0.10284 0.55887 0.57184 0.0
H2702 H 0.1355 0.60511 0.58034 0.0
C2703 C 0.18931 0.72567 0.66229 0.0
C2704 C 0.16665 0.69703 0.58663 0.0
H2705 H 0.09994 0.6635 0.55269 0.0
C2706 C 0.17801 0.68003 0.57702 0.0
C2707 C 0.13863 0.69245 0.57521 0.0
C2708 C 0.12583 0.71201 0.58111 0.0
C2709 C 0.16145 0.65664 0.55964 0.0
C2710 C 0.13275 0.64947 0.55274 0.0
C2711 C 0.12186 0.66838 0.55885 0.0
C2712 C 0.11398 0.62098 0.5447 0.0
C2713 C 0.17479 0.63899 0.55036 0.0
C2714 C 0.09041 0.61442 0.52226 0.0
C2715 C 0.07123 0.58778 0.51771 0.0
C2716 C 0.07543 0.56745 0.53551 0.0
C2717 C 0.09919 0.57405 0.55758 0.0
C2718 C 0.11812 0.60048 0.56221 0.0
H2719 H 0.19452 0.6517 0.54551 0.0
H2720 H 0.17942 0.62618 0.56795 0.0
H2721 H 0.16148 0.62566 0.53131 0.0
H2722 H 0.0865 0.63 0.50883 0.0
H2723 H 0.05263 0.58335 0.50112 0.0
loop_
_geom_bond_atom_site_label_1
_geom_bond_atom_site_label_2
_geom_bond_distance
_geom_bond_site_symmetry_2
_ccdc_geom_bond_type
Tb0 N31 2.660 . S
Tb0 N38 2.600 . S
Tb0 O44 2.546 . S
Tb0 O45 2.610 . S
Tb0 O47 2.320 . S
Tb0 O48 2.552 . S
Tb0 O49 2.413 . S
Tb0 O51 2.362 . S
Tb0 O52 2.421 . S
Tb0 C64 2.833 . S
C1 C4 1.432 . S
C1 C5 1.414 . S
C1 N8 1.359 . S
C2 C4 1.417 . S
C2 C6 1.432 . S
C2 C14 1.410 . S
C3 C5 1.444 . S
C3 C6 1.317 . S
C3 H26 0.929 . S
C4 C1 1.432 . S
C4 C2 1.417 . S
C4 N12 1.360 . S
C5 C1 1.414 . S
C5 C3 1.444 . S
C5 C10 1.385 . S
C6 C2 1.432 . S
C6 C3 1.317 . S
C6 H18 0.930 . S
C7 C9 1.392 . S
C7 C10 1.370 . S
C7 H19 0.931 . S
N8 C1 1.359 . S
N8 C9 1.327 . S
N8 Tb11 2.600 . S
C9 C7 1.392 . S
C9 N8 1.327 . S
C9 H16 0.930 . S
C10 C5 1.385 . S
C10 C7 1.370 . S
C10 H29 0.930 . S
Tb11 N8 2.600 . S
Tb11 N12 2.660 . S
Tb11 O45 2.362 . S
Tb11 O46 2.421 . S
Tb11 O50 2.546 . S
Tb11 O51 2.610 . S
Tb11 O53 2.320 . S
Tb11 O54 2.552 . S
Tb11 O55 2.413 . S
Tb11 C75 2.833 . S
N12 C4 1.360 . S
N12 Tb11 2.660 . S
N12 C13 1.305 . S
C13 N12 1.305 . S
C13 C15 1.407 . S
C13 H20 0.930 . S
C14 C2 1.410 . S
C14 C15 1.345 . S
C14 H22 0.930 . S
C15 C13 1.407 . S
C15 C14 1.345 . S
C15 H17 0.930 . S
H16 C9 0.930 . S
H17 C15 0.930 . S
H18 C6 0.930 . S
H19 C7 0.931 . S
H20 C13 0.930 . S
H21 C35 0.930 . S
H22 C14 0.930 . S
H23 C41 0.930 . S
H24 C32 0.930 . S
H25 C39 0.931 . S
H26 C3 0.929 . S
H27 C33 0.930 . S
H28 C66 0.930 . S
H29 C10 0.930 . S
H30 C65 0.929 . S
N31 Tb0 2.660 . S
N31 C32 1.305 . S
N31 C36 1.360 . S
C32 H24 0.930 . S
C32 N31 1.305 . S
C32 C35 1.407 . S
C33 H27 0.930 . S
C33 C34 1.410 . S
C33 C35 1.345 . S
C34 C33 1.410 . S
C34 C36 1.417 . S
C34 C66 1.432 . S
C35 H21 0.930 . S
C35 C32 1.407 . S
C35 C33 1.345 . S
C36 N31 1.360 . S
C36 C34 1.417 . S
C36 C40 1.432 . S
H37 C42 0.930 . S
N38 Tb0 2.600 . S
N38 C40 1.359 . S
N38 C41 1.327 . S
C39 H25 0.931 . S
C39 C41 1.392 . S
C39 C42 1.370 . S
C40 C36 1.432 . S
C40 N38 1.359 . S
C40 C43 1.414 . S
C41 H23 0.930 . S
C41 N38 1.327 . S
C41 C39 1.392 . S
C42 H37 0.930 . S
C42 C39 1.370 . S
C42 C43 1.385 . S
C43 C40 1.414 . S
C43 C42 1.385 . S
C43 C65 1.444 . S
O44 Tb0 2.546 . S
O44 C64 1.251 . S
O45 Tb0 2.610 . S
O45 Tb11 2.362 . S
O45 C56 1.283 . S
O46 Tb11 2.421 . S
O46 C63 1.262 . S
O47 Tb0 2.320 . S
O47 C63 1.260 . S
O48 Tb0 2.552 . S
O48 C56 1.243 . S
O49 Tb0 2.413 . S
O49 C64 1.256 . S
O50 Tb11 2.546 . S
O50 C75 1.251 . S
O51 Tb0 2.362 . S
O51 Tb11 2.610 . S
O51 C67 1.283 . S
O52 Tb0 2.421 . S
O52 C74 1.262 . S
O53 Tb11 2.320 . S
O53 C74 1.260 . S
O54 Tb11 2.552 . S
O54 C67 1.243 . S
O55 Tb11 2.413 . S
O55 C75 1.256 . S
C56 O45 1.283 . S
C56 O48 1.243 . S
C57 C59 1.382 . S
C57 C61 1.393 . S
C57 C64 1.500 . S
C58 C59 1.400 . S
C58 C60 1.384 . S
C59 C57 1.382 . S
C59 C58 1.400 . S
C59 H76 0.930 . S
C60 C58 1.384 . S
C60 C62 1.392 . S
C60 H77 0.931 . S
C61 C57 1.393 . S
C61 C62 1.401 . S
C61 H78 0.930 . S
C62 C60 1.392 . S
C62 C61 1.401 . S
C62 H79 0.930 . S
C63 O46 1.262 . S
C63 O47 1.260 . S
C64 Tb0 2.833 . S
C64 O44 1.251 . S
C64 O49 1.256 . S
C64 C57 1.500 . S
C65 H30 0.929 . S
C65 C43 1.444 . S
C65 C66 1.317 . S
C66 H28 0.930 . S
C66 C34 1.432 . S
C66 C65 1.317 . S
C67 O51 1.283 . S
C67 O54 1.243 . S
C68 C69 1.382 . S
C68 C72 1.393 . S
C68 C75 1.500 . S
C69 C68 1.382 . S
C69 C70 1.400 . S
C69 H80 0.930 . S
C70 C69 1.400 . S
C70 C71 1.384 . S
C71 C70 1.384 . S
C71 C73 1.392 . S
C71 H81 0.931 . S
C72 C68 1.393 . S
C72 C73 1.401 . S
C72 H82 0.930 . S
C73 C71 1.392 . S
C73 C72 1.401 . S
C73 H83 0.930 . S
C74 O52 1.262 . S
C74 O53 1.260 . S
C75 Tb11 2.833 . S
C75 O50 1.251 . S
C75 O55 1.256 . S
C75 C68 1.500 . S
H76 C59 0.930 . S
H77 C60 0.931 . S
H78 C61 0.930 . S
H79 C62 0.930 . S
H80 C69 0.930 . S
H81 C71 0.931 . S
H82 C72 0.930 . S
H83 C73 0.930 . S
Tb84 N115 2.660 . S
Tb84 N122 2.600 . S
Tb84 O128 2.546 . S
Tb84 O129 2.610 . S
Tb84 O131 2.320 . S
Tb84 O132 2.552 . S
Tb84 O133 2.413 . S
Tb84 O135 2.362 . S
Tb84 O136 2.421 . S
Tb84 C148 2.833 . S
C85 C88 1.432 . S
C85 C89 1.414 . S
C85 N92 1.359 . S
C86 C88 1.417 . S
C86 C90 1.432 . S
C86 C98 1.410 . S
C87 C89 1.444 . S
C87 C90 1.317 . S
C87 H110 0.929 . S
C88 C85 1.432 . S
C88 C86 1.417 . S
C88 N96 1.360 . S
C89 C85 1.414 . S
C89 C87 1.444 . S
C89 C94 1.385 . S
C90 C86 1.432 . S
C90 C87 1.317 . S
C90 H102 0.930 . S
C91 C93 1.392 . S
C91 C94 1.370 . S
C91 H103 0.931 . S
N92 C85 1.359 . S
N92 C93 1.327 . S
N92 Tb95 2.600 . S
C93 C91 1.392 . S
C93 N92 1.327 . S
C93 H100 0.930 . S
C94 C89 1.385 . S
C94 C91 1.370 . S
C94 H113 0.930 . S
Tb95 N92 2.600 . S
Tb95 N96 2.660 . S
Tb95 O129 2.362 . S
Tb95 O130 2.421 . S
Tb95 O134 2.546 . S
Tb95 O135 2.610 . S
Tb95 O137 2.320 . S
Tb95 O138 2.552 . S
Tb95 O139 2.413 . S
Tb95 C159 2.833 . S
N96 C88 1.360 . S
N96 Tb95 2.660 . S
N96 C97 1.305 . S
C97 N96 1.305 . S
C97 C99 1.407 . S
C97 H104 0.930 . S
C98 C86 1.410 . S
C98 C99 1.345 . S
C98 H106 0.930 . S
C99 C97 1.407 . S
C99 C98 1.345 . S
C99 H101 0.930 . S
H100 C93 0.930 . S
H101 C99 0.930 . S
H102 C90 0.930 . S
H103 C91 0.931 . S
H104 C97 0.930 . S
H105 C119 0.930 . S
H106 C98 0.930 . S
H107 C125 0.930 . S
H108 C116 0.930 . S
H109 C123 0.931 . S
H110 C87 0.929 . S
H111 C117 0.930 . S
H112 C150 0.930 . S
H113 C94 0.930 . S
H114 C149 0.929 . S
N115 Tb84 2.660 . S
N115 C116 1.305 . S
N115 C120 1.360 . S
C116 H108 0.930 . S
C116 N115 1.305 . S
C116 C119 1.407 . S
C117 H111 0.930 . S
C117 C118 1.410 . S
C117 C119 1.345 . S
C118 C117 1.410 . S
C118 C120 1.417 . S
C118 C150 1.432 . S
C119 H105 0.930 . S
C119 C116 1.407 . S
C119 C117 1.345 . S
C120 N115 1.360 . S
C120 C118 1.417 . S
C120 C124 1.432 . S
H121 C126 0.930 . S
N122 Tb84 2.600 . S
N122 C124 1.359 . S
N122 C125 1.327 . S
C123 H109 0.931 . S
C123 C125 1.392 . S
C123 C126 1.370 . S
C124 C120 1.432 . S
C124 N122 1.359 . S
C124 C127 1.414 . S
C125 H107 0.930 . S
C125 N122 1.327 . S
C125 C123 1.392 . S
C126 H121 0.930 . S
C126 C123 1.370 . S
C126 C127 1.385 . S
C127 C124 1.414 . S
C127 C126 1.385 . S
C127 C149 1.444 . S
O128 Tb84 2.546 . S
O128 C148 1.251 . S
O129 Tb84 2.610 . S
O129 Tb95 2.362 . S
O129 C140 1.283 . S
O130 Tb95 2.421 . S
O130 C147 1.262 . S
O131 Tb84 2.320 . S
O131 C147 1.260 . S
O132 Tb84 2.552 . S
O132 C140 1.243 . S
O133 Tb84 2.413 . S
O133 C148 1.256 . S
O134 Tb95 2.546 . S
O134 C159 1.251 . S
O135 Tb84 2.362 . S
O135 Tb95 2.610 . S
O135 C151 1.283 . S
O136 Tb84 2.421 . S
O136 C158 1.262 . S
O137 Tb95 2.320 . S
O137 C158 1.260 . S
O138 Tb95 2.552 . S
O138 C151 1.243 . S
O139 Tb95 2.413 . S
O139 C159 1.256 . S
C140 O129 1.283 . S
C140 O132 1.243 . S
C141 C143 1.382 . S
C141 C145 1.393 . S
C141 C148 1.500 . S
C142 C143 1.400 . S
C142 C144 1.384 . S
C143 C141 1.382 . S
C143 C142 1.400 . S
C143 H160 0.930 . S
C144 C142 1.384 . S
C144 C146 1.392 . S
C144 H161 0.931 . S
C145 C141 1.393 . S
C145 C146 1.401 . S
C145 H162 0.930 . S
C146 C144 1.392 . S
C146 C145 1.401 . S
C146 H163 0.930 . S
C147 O130 1.262 . S
C147 O131 1.260 . S
C148 Tb84 2.833 . S
C148 O128 1.251 . S
C148 O133 1.256 . S
C148 C141 1.500 . S
C149 H114 0.929 . S
C149 C127 1.444 . S
C149 C150 1.317 . S
C150 H112 0.930 . S
C150 C118 1.432 . S
C150 C149 1.317 . S
C151 O135 1.283 . S
C151 O138 1.243 . S
C152 C153 1.382 . S
C152 C156 1.393 . S
C152 C159 1.500 . S
C153 C152 1.382 . S
C153 C154 1.400 . S
C153 H164 0.930 . S
C154 C153 1.400 . S
C154 C155 1.384 . S
C155 C154 1.384 . S
C155 C157 1.392 . S
C155 H165 0.931 . S
C156 C152 1.393 . S
C156 C157 1.401 . S
C156 H166 0.930 . S
C157 C155 1.392 . S
C157 C156 1.401 . S
C157 H167 0.930 . S
C158 O136 1.262 . S
C158 O137 1.260 . S
C159 Tb95 2.833 . S
C159 O134 1.251 . S
C159 O139 1.256 . S
C159 C152 1.500 . S
H160 C143 0.930 . S
H161 C144 0.931 . S
H162 C145 0.930 . S
H163 C146 0.930 . S
H164 C153 0.930 . S
H165 C155 0.931 . S
H166 C156 0.930 . S
H167 C157 0.930 . S
Tb168 N199 2.660 . S
Tb168 N206 2.600 . S
Tb168 O212 2.546 . S
Tb168 O213 2.610 . S
Tb168 O215 2.320 . S
Tb168 O216 2.552 . S
Tb168 O217 2.413 . S
Tb168 O219 2.362 . S
Tb168 O220 2.421 . S
Tb168 C232 2.833 . S
C169 C172 1.432 . S
C169 C173 1.414 . S
C169 N176 1.359 . S
C170 C172 1.417 . S
C170 C174 1.432 . S
C170 C182 1.410 . S
C171 C173 1.444 . S
C171 C174 1.317 . S
C171 H194 0.929 . S
C172 C169 1.432 . S
C172 C170 1.417 . S
C172 N180 1.360 . S
C173 C169 1.414 . S
C173 C171 1.444 . S
C173 C178 1.385 . S
C174 C170 1.432 . S
C174 C171 1.317 . S
C174 H186 0.930 . S
C175 C177 1.392 . S
C175 C178 1.370 . S
C175 H187 0.931 . S
N176 C169 1.359 . S
N176 C177 1.327 . S
N176 Tb179 2.600 . S
C177 C175 1.392 . S
C177 N176 1.327 . S
C177 H184 0.930 . S
C178 C173 1.385 . S
C178 C175 1.370 . S
C178 H197 0.930 . S
Tb179 N176 2.600 . S
Tb179 N180 2.660 . S
Tb179 O213 2.362 . S
Tb179 O214 2.421 . S
Tb179 O218 2.546 . S
Tb179 O219 2.610 . S
Tb179 O221 2.320 . S
Tb179 O222 2.552 . S
Tb179 O223 2.413 . S
Tb179 C243 2.833 . S
N180 C172 1.360 . S
N180 Tb179 2.660 . S
N180 C181 1.305 . S
C181 N180 1.305 . S
C181 C183 1.407 . S
C181 H188 0.930 . S
C182 C170 1.410 . S
C182 C183 1.345 . S
C182 H190 0.930 . S
C183 C181 1.407 . S
C183 C182 1.345 . S
C183 H185 0.930 . S
H184 C177 0.930 . S
H185 C183 0.930 . S
H186 C174 0.930 . S
H187 C175 0.931 . S
H188 C181 0.930 . S
H189 C203 0.930 . S
H190 C182 0.930 . S
H191 C209 0.930 . S
H192 C200 0.930 . S
H193 C207 0.931 . S
H194 C171 0.929 . S
H195 C201 0.930 . S
H196 C234 0.930 . S
H197 C178 0.930 . S
H198 C233 0.929 . S
N199 Tb168 2.660 . S
N199 C200 1.305 . S
N199 C204 1.360 . S
C200 H192 0.930 . S
C200 N199 1.305 . S
C200 C203 1.407 . S
C201 H195 0.930 . S
C201 C202 1.410 . S
C201 C203 1.345 . S
C202 C201 1.410 . S
C202 C204 1.417 . S
C202 C234 1.432 . S
C203 H189 0.930 . S
C203 C200 1.407 . S
C203 C201 1.345 . S
C204 N199 1.360 . S
C204 C202 1.417 . S
C204 C208 1.432 . S
H205 C210 0.930 . S
N206 Tb168 2.600 . S
N206 C208 1.359 . S
N206 C209 1.327 . S
C207 H193 0.931 . S
C207 C209 1.392 . S
C207 C210 1.370 . S
C208 C204 1.432 . S
C208 N206 1.359 . S
C208 C211 1.414 . S
C209 H191 0.930 . S
C209 N206 1.327 . S
C209 C207 1.392 . S
C210 H205 0.930 . S
C210 C207 1.370 . S
C210 C211 1.385 . S
C211 C208 1.414 . S
C211 C210 1.385 . S
C211 C233 1.444 . S
O212 Tb168 2.546 . S
O212 C232 1.251 . S
O213 Tb168 2.610 . S
O213 Tb179 2.362 . S
O213 C224 1.283 . S
O214 Tb179 2.421 . S
O214 C231 1.262 . S
O215 Tb168 2.320 . S
O215 C231 1.260 . S
O216 Tb168 2.552 . S
O216 C224 1.243 . S
O217 Tb168 2.413 . S
O217 C232 1.256 . S
O218 Tb179 2.546 . S
O218 C243 1.251 . S
O219 Tb168 2.362 . S
O219 Tb179 2.610 . S
O219 C235 1.283 . S
O220 Tb168 2.421 . S
O220 C242 1.262 . S
O221 Tb179 2.320 . S
O221 C242 1.260 . S
O222 Tb179 2.552 . S
O222 C235 1.243 . S
O223 Tb179 2.413 . S
O223 C243 1.256 . S
C224 O213 1.283 . S
C224 O216 1.243 . S
C225 C227 1.382 . S
C225 C229 1.393 . S
C225 C232 1.500 . S
C226 C227 1.400 . S
C226 C228 1.384 . S
C227 C225 1.382 . S
C227 C226 1.400 . S
C227 H244 0.930 . S
C228 C226 1.384 . S
C228 C230 1.392 . S
C228 H245 0.931 . S
C229 C225 1.393 . S
C229 C230 1.401 . S
C229 H246 0.930 . S
C230 C228 1.392 . S
C230 C229 1.401 . S
C230 H247 0.930 . S
C231 O214 1.262 . S
C231 O215 1.260 . S
C232 Tb168 2.833 . S
C232 O212 1.251 . S
C232 O217 1.256 . S
C232 C225 1.500 . S
C233 H198 0.929 . S
C233 C211 1.444 . S
C233 C234 1.317 . S
C234 H196 0.930 . S
C234 C202 1.432 . S
C234 C233 1.317 . S
C235 O219 1.283 . S
C235 O222 1.243 . S
C236 C237 1.382 . S
C236 C240 1.393 . S
C236 C243 1.500 . S
C237 C236 1.382 . S
C237 C238 1.400 . S
C237 H248 0.930 . S
C238 C237 1.400 . S
C238 C239 1.384 . S
C239 C238 1.384 . S
C239 C241 1.392 . S
C239 H249 0.931 . S
C240 C236 1.393 . S
C240 C241 1.401 . S
C240 H250 0.930 . S
C241 C239 1.392 . S
C241 C240 1.401 . S
C241 H251 0.930 . S
C242 O220 1.262 . S
C242 O221 1.260 . S
C243 Tb179 2.833 . S
C243 O218 1.251 . S
C243 O223 1.256 . S
C243 C236 1.500 . S
H244 C227 0.930 . S
H245 C228 0.931 . S
H246 C229 0.930 . S
H247 C230 0.930 . S
H248 C237 0.930 . S
H249 C239 0.931 . S
H250 C240 0.930 . S
H251 C241 0.930 . S
Tb252 N283 2.660 . S
Tb252 N290 2.600 . S
Tb252 O296 2.546 . S
Tb252 O297 2.610 . S
Tb252 O299 2.320 . S
Tb252 O300 2.552 . S
Tb252 O301 2.413 . S
Tb252 O303 2.362 . S
Tb252 O304 2.421 . S
Tb252 C316 2.833 . S
C253 C256 1.432 . S
C253 C257 1.414 . S
C253 N260 1.359 . S
C254 C256 1.417 . S
C254 C258 1.432 . S
C254 C266 1.410 . S
C255 C257 1.444 . S
C255 C258 1.317 . S
C255 H278 0.929 . S
C256 C253 1.432 . S
C256 C254 1.417 . S
C256 N264 1.360 . S
C257 C253 1.414 . S
C257 C255 1.444 . S
C257 C262 1.385 . S
C258 C254 1.432 . S
C258 C255 1.317 . S
C258 H270 0.930 . S
C259 C261 1.392 . S
C259 C262 1.370 . S
C259 H271 0.931 . S
N260 C253 1.359 . S
N260 C261 1.327 . S
N260 Tb263 2.600 . S
C261 C259 1.392 . S
C261 N260 1.327 . S
C261 H268 0.930 . S
C262 C257 1.385 . S
C262 C259 1.370 . S
C262 H281 0.930 . S
Tb263 N260 2.600 . S
Tb263 N264 2.660 . S
Tb263 O297 2.362 . S
Tb263 O298 2.421 . S
Tb263 O302 2.546 . S
Tb263 O303 2.610 . S
Tb263 O305 2.320 . S
Tb263 O306 2.552 . S
Tb263 O307 2.413 . S
Tb263 C327 2.833 . S
N264 C256 1.360 . S
N264 Tb263 2.660 . S
N264 C265 1.305 . S
C265 N264 1.305 . S
C265 C267 1.407 . S
C265 H272 0.930 . S
C266 C254 1.410 . S
C266 C267 1.345 . S
C266 H274 0.930 . S
C267 C265 1.407 . S
C267 C266 1.345 . S
C267 H269 0.930 . S
H268 C261 0.930 . S
H269 C267 0.930 . S
H270 C258 0.930 . S
H271 C259 0.931 . S
H272 C265 0.930 . S
H273 C287 0.930 . S
H274 C266 0.930 . S
H275 C293 0.930 . S
H276 C284 0.930 . S
H277 C291 0.931 . S
H278 C255 0.929 . S
H279 C285 0.930 . S
H280 C318 0.930 . S
H281 C262 0.930 . S
H282 C317 0.929 . S
N283 Tb252 2.660 . S
N283 C284 1.305 . S
N283 C288 1.360 . S
C284 H276 0.930 . S
C284 N283 1.305 . S
C284 C287 1.407 . S
C285 H279 0.930 . S
C285 C286 1.410 . S
C285 C287 1.345 . S
C286 C285 1.410 . S
C286 C288 1.417 . S
C286 C318 1.432 . S
C287 H273 0.930 . S
C287 C284 1.407 . S
C287 C285 1.345 . S
C288 N283 1.360 . S
C288 C286 1.417 . S
C288 C292 1.432 . S
H289 C294 0.930 . S
N290 Tb252 2.600 . S
N290 C292 1.359 . S
N290 C293 1.327 . S
C291 H277 0.931 . S
C291 C293 1.392 . S
C291 C294 1.370 . S
C292 C288 1.432 . S
C292 N290 1.359 . S
C292 C295 1.414 . S
C293 H275 0.930 . S
C293 N290 1.327 . S
C293 C291 1.392 . S
C294 H289 0.930 . S
C294 C291 1.370 . S
C294 C295 1.385 . S
C295 C292 1.414 . S
C295 C294 1.385 . S
C295 C317 1.444 . S
O296 Tb252 2.546 . S
O296 C316 1.251 . S
O297 Tb252 2.610 . S
O297 Tb263 2.362 . S
O297 C308 1.283 . S
O298 Tb263 2.421 . S
O298 C315 1.262 . S
O299 Tb252 2.320 . S
O299 C315 1.260 . S
O300 Tb252 2.552 . S
O300 C308 1.243 . S
O301 Tb252 2.413 . S
O301 C316 1.256 . S
O302 Tb263 2.546 . S
O302 C327 1.251 . S
O303 Tb252 2.362 . S
O303 Tb263 2.610 . S
O303 C319 1.283 . S
O304 Tb252 2.421 . S
O304 C326 1.262 . S
O305 Tb263 2.320 . S
O305 C326 1.260 . S
O306 Tb263 2.552 . S
O306 C319 1.243 . S
O307 Tb263 2.413 . S
O307 C327 1.256 . S
C308 O297 1.283 . S
C308 O300 1.243 . S
C309 C311 1.382 . S
C309 C313 1.393 . S
C309 C316 1.500 . S
C310 C311 1.400 . S
C310 C312 1.384 . S
C311 C309 1.382 . S
C311 C310 1.400 . S
C311 H328 0.930 . S
C312 C310 1.384 . S
C312 C314 1.392 . S
C312 H329 0.931 . S
C313 C309 1.393 . S
C313 C314 1.401 . S
C313 H330 0.930 . S
C314 C312 1.392 . S
C314 C313 1.401 . S
C314 H331 0.930 . S
C315 O298 1.262 . S
C315 O299 1.260 . S
C316 Tb252 2.833 . S
C316 O296 1.251 . S
C316 O301 1.256 . S
C316 C309 1.500 . S
C317 H282 0.929 . S
C317 C295 1.444 . S
C317 C318 1.317 . S
C318 H280 0.930 . S
C318 C286 1.432 . S
C318 C317 1.317 . S
C319 O303 1.283 . S
C319 O306 1.243 . S
C320 C321 1.382 . S
C320 C324 1.393 . S
C320 C327 1.500 . S
C321 C320 1.382 . S
C321 C322 1.400 . S
C321 H332 0.930 . S
C322 C321 1.400 . S
C322 C323 1.384 . S
C323 C322 1.384 . S
C323 C325 1.392 . S
C323 H333 0.931 . S
C324 C320 1.393 . S
C324 C325 1.401 . S
C324 H334 0.930 . S
C325 C323 1.392 . S
C325 C324 1.401 . S
C325 H335 0.930 . S
C326 O304 1.262 . S
C326 O305 1.260 . S
C327 Tb263 2.833 . S
C327 O302 1.251 . S
C327 O307 1.256 . S
C327 C320 1.500 . S
H328 C311 0.930 . S
H329 C312 0.931 . S
H330 C313 0.930 . S
H331 C314 0.930 . S
H332 C321 0.930 . S
H333 C323 0.931 . S
H334 C324 0.930 . S
H335 C325 0.930 . S
Tb336 N367 2.660 . S
Tb336 N374 2.600 . S
Tb336 O380 2.546 . S
Tb336 O381 2.610 . S
Tb336 O383 2.320 . S
Tb336 O384 2.552 . S
Tb336 O385 2.413 . S
Tb336 O387 2.362 . S
Tb336 O388 2.421 . S
Tb336 C400 2.833 . S
C337 C340 1.432 . S
C337 C341 1.414 . S
C337 N344 1.359 . S
C338 C340 1.417 . S
C338 C342 1.432 . S
C338 C350 1.410 . S
C339 C341 1.444 . S
C339 C342 1.317 . S
C339 H362 0.929 . S
C340 C337 1.432 . S
C340 C338 1.417 . S
C340 N348 1.360 . S
C341 C337 1.414 . S
C341 C339 1.444 . S
C341 C346 1.385 . S
C342 C338 1.432 . S
C342 C339 1.317 . S
C342 H354 0.930 . S
C343 C345 1.392 . S
C343 C346 1.370 . S
C343 H355 0.931 . S
N344 C337 1.359 . S
N344 C345 1.327 . S
N344 Tb347 2.600 . S
C345 C343 1.392 . S
C345 N344 1.327 . S
C345 H352 0.930 . S
C346 C341 1.385 . S
C346 C343 1.370 . S
C346 H365 0.930 . S
Tb347 N344 2.600 . S
Tb347 N348 2.660 . S
Tb347 O381 2.362 . S
Tb347 O382 2.421 . S
Tb347 O386 2.546 . S
Tb347 O387 2.610 . S
Tb347 O389 2.320 . S
Tb347 O390 2.552 . S
Tb347 O391 2.413 . S
Tb347 C411 2.833 . S
N348 C340 1.360 . S
N348 Tb347 2.660 . S
N348 C349 1.305 . S
C349 N348 1.305 . S
C349 C351 1.407 . S
C349 H356 0.930 . S
C350 C338 1.410 . S
C350 C351 1.345 . S
C350 H358 0.930 . S
C351 C349 1.407 . S
C351 C350 1.345 . S
C351 H353 0.930 . S
H352 C345 0.930 . S
H353 C351 0.930 . S
H354 C342 0.930 . S
H355 C343 0.931 . S
H356 C349 0.930 . S
H357 C371 0.930 . S
H358 C350 0.930 . S
H359 C377 0.930 . S
H360 C368 0.930 . S
H361 C375 0.931 . S
H362 C339 0.929 . S
H363 C369 0.930 . S
H364 C402 0.930 . S
H365 C346 0.930 . S
H366 C401 0.929 . S
N367 Tb336 2.660 . S
N367 C368 1.305 . S
N367 C372 1.360 . S
C368 H360 0.930 . S
C368 N367 1.305 . S
C368 C371 1.407 . S
C369 H363 0.930 . S
C369 C370 1.410 . S
C369 C371 1.345 . S
C370 C369 1.410 . S
C370 C372 1.417 . S
C370 C402 1.432 . S
C371 H357 0.930 . S
C371 C368 1.407 . S
C371 C369 1.345 . S
C372 N367 1.360 . S
C372 C370 1.417 . S
C372 C376 1.432 . S
H373 C378 0.930 . S
N374 Tb336 2.600 . S
N374 C376 1.359 . S
N374 C377 1.327 . S
C375 H361 0.931 . S
C375 C377 1.392 . S
C375 C378 1.370 . S
C376 C372 1.432 . S
C376 N374 1.359 . S
C376 C379 1.414 . S
C377 H359 0.930 . S
C377 N374 1.327 . S
C377 C375 1.392 . S
C378 H373 0.930 . S
C378 C375 1.370 . S
C378 C379 1.385 . S
C379 C376 1.414 . S
C379 C378 1.385 . S
C379 C401 1.444 . S
O380 Tb336 2.546 . S
O380 C400 1.251 . S
O381 Tb336 2.610 . S
O381 Tb347 2.362 . S
O381 C392 1.283 . S
O382 Tb347 2.421 . S
O382 C399 1.262 . S
O383 Tb336 2.320 . S
O383 C399 1.260 . S
O384 Tb336 2.552 . S
O384 C392 1.243 . S
O385 Tb336 2.413 . S
O385 C400 1.256 . S
O386 Tb347 2.546 . S
O386 C411 1.251 . S
O387 Tb336 2.362 . S
O387 Tb347 2.610 . S
O387 C403 1.283 . S
O388 Tb336 2.421 . S
O388 C410 1.262 . S
O389 Tb347 2.320 . S
O389 C410 1.260 . S
O390 Tb347 2.552 . S
O390 C403 1.243 . S
O391 Tb347 2.413 . S
O391 C411 1.256 . S
C392 O381 1.283 . S
C392 O384 1.243 . S
C393 C395 1.382 . S
C393 C397 1.393 . S
C393 C400 1.500 . S
C394 C395 1.400 . S
C394 C396 1.384 . S
C395 C393 1.382 . S
C395 C394 1.400 . S
C395 H412 0.930 . S
C396 C394 1.384 . S
C396 C398 1.392 . S
C396 H413 0.931 . S
C397 C393 1.393 . S
C397 C398 1.401 . S
C397 H414 0.930 . S
C398 C396 1.392 . S
C398 C397 1.401 . S
C398 H415 0.930 . S
C399 O382 1.262 . S
C399 O383 1.260 . S
C400 Tb336 2.833 . S
C400 O380 1.251 . S
C400 O385 1.256 . S
C400 C393 1.500 . S
C401 H366 0.929 . S
C401 C379 1.444 . S
C401 C402 1.317 . S
C402 H364 0.930 . S
C402 C370 1.432 . S
C402 C401 1.317 . S
C403 O387 1.283 . S
C403 O390 1.243 . S
C404 C405 1.382 . S
C404 C408 1.393 . S
C404 C411 1.500 . S
C405 C404 1.382 . S
C405 C406 1.400 . S
C405 H416 0.930 . S
C406 C405 1.400 . S
C406 C407 1.384 . S
C407 C406 1.384 . S
C407 C409 1.392 . S
C407 H417 0.931 . S
C408 C404 1.393 . S
C408 C409 1.401 . S
C408 H418 0.930 . S
C409 C407 1.392 . S
C409 C408 1.401 . S
C409 H419 0.930 . S
C410 O388 1.262 . S
C410 O389 1.260 . S
C411 Tb347 2.833 . S
C411 O386 1.251 . S
C411 O391 1.256 . S
C411 C404 1.500 . S
H412 C395 0.930 . S
H413 C396 0.931 . S
H414 C397 0.930 . S
H415 C398 0.930 . S
H416 C405 0.930 . S
H417 C407 0.931 . S
H418 C408 0.930 . S
H419 C409 0.930 . S
Tb420 N451 2.660 . S
Tb420 N458 2.600 . S
Tb420 O464 2.546 . S
Tb420 O465 2.610 . S
Tb420 O467 2.320 . S
Tb420 O468 2.552 . S
Tb420 O469 2.413 . S
Tb420 O471 2.362 . S
Tb420 O472 2.421 . S
Tb420 C484 2.833 . S
C421 C424 1.432 . S
C421 C425 1.414 . S
C421 N428 1.359 . S
C422 C424 1.417 . S
C422 C426 1.432 . S
C422 C434 1.410 . S
C423 C425 1.444 . S
C423 C426 1.317 . S
C423 H446 0.929 . S
C424 C421 1.432 . S
C424 C422 1.417 . S
C424 N432 1.360 . S
C425 C421 1.414 . S
C425 C423 1.444 . S
C425 C430 1.385 . S
C426 C422 1.432 . S
C426 C423 1.317 . S
C426 H438 0.930 . S
C427 C429 1.392 . S
C427 C430 1.370 . S
C427 H439 0.931 . S
N428 C421 1.359 . S
N428 C429 1.327 . S
N428 Tb431 2.600 . S
C429 C427 1.392 . S
C429 N428 1.327 . S
C429 H436 0.930 . S
C430 C425 1.385 . S
C430 C427 1.370 . S
C430 H449 0.930 . S
Tb431 N428 2.600 . S
Tb431 N432 2.660 . S
Tb431 O465 2.362 . S
Tb431 O466 2.421 . S
Tb431 O470 2.546 . S
Tb431 O471 2.610 . S
Tb431 O473 2.320 . S
Tb431 O474 2.552 . S
Tb431 O475 2.413 . S
Tb431 C495 2.833 . S
N432 C424 1.360 . S
N432 Tb431 2.660 . S
N432 C433 1.305 . S
C433 N432 1.305 . S
C433 C435 1.407 . S
C433 H440 0.930 . S
C434 C422 1.410 . S
C434 C435 1.345 . S
C434 H442 0.930 . S
C435 C433 1.407 . S
C435 C434 1.345 . S
C435 H437 0.930 . S
H436 C429 0.930 . S
H437 C435 0.930 . S
H438 C426 0.930 . S
H439 C427 0.931 . S
H440 C433 0.930 . S
H441 C455 0.930 . S
H442 C434 0.930 . S
H443 C461 0.930 . S
H444 C452 0.930 . S
H445 C459 0.931 . S
H446 C423 0.929 . S
H447 C453 0.930 . S
H448 C486 0.930 . S
H449 C430 0.930 . S
H450 C485 0.929 . S
N451 Tb420 2.660 . S
N451 C452 1.305 . S
N451 C456 1.360 . S
C452 H444 0.930 . S
C452 N451 1.305 . S
C452 C455 1.407 . S
C453 H447 0.930 . S
C453 C454 1.410 . S
C453 C455 1.345 . S
C454 C453 1.410 . S
C454 C456 1.417 . S
C454 C486 1.432 . S
C455 H441 0.930 . S
C455 C452 1.407 . S
C455 C453 1.345 . S
C456 N451 1.360 . S
C456 C454 1.417 . S
C456 C460 1.432 . S
H457 C462 0.930 . S
N458 Tb420 2.600 . S
N458 C460 1.359 . S
N458 C461 1.327 . S
C459 H445 0.931 . S
C459 C461 1.392 . S
C459 C462 1.370 . S
C460 C456 1.432 . S
C460 N458 1.359 . S
C460 C463 1.414 . S
C461 H443 0.930 . S
C461 N458 1.327 . S
C461 C459 1.392 . S
C462 H457 0.930 . S
C462 C459 1.370 . S
C462 C463 1.385 . S
C463 C460 1.414 . S
C463 C462 1.385 . S
C463 C485 1.444 . S
O464 Tb420 2.546 . S
O464 C484 1.251 . S
O465 Tb420 2.610 . S
O465 Tb431 2.362 . S
O465 C476 1.283 . S
O466 Tb431 2.421 . S
O466 C483 1.262 . S
O467 Tb420 2.320 . S
O467 C483 1.260 . S
O468 Tb420 2.552 . S
O468 C476 1.243 . S
O469 Tb420 2.413 . S
O469 C484 1.256 . S
O470 Tb431 2.546 . S
O470 C495 1.251 . S
O471 Tb420 2.362 . S
O471 Tb431 2.610 . S
O471 C487 1.283 . S
O472 Tb420 2.421 . S
O472 C494 1.262 . S
O473 Tb431 2.320 . S
O473 C494 1.260 . S
O474 Tb431 2.552 . S
O474 C487 1.243 . S
O475 Tb431 2.413 . S
O475 C495 1.256 . S
C476 O465 1.283 . S
C476 O468 1.243 . S
C477 C479 1.382 . S
C477 C481 1.393 . S
C477 C484 1.500 . S
C478 C479 1.400 . S
C478 C480 1.384 . S
C479 C477 1.382 . S
C479 C478 1.400 . S
C479 H496 0.930 . S
C480 C478 1.384 . S
C480 C482 1.392 . S
C480 H497 0.931 . S
C481 C477 1.393 . S
C481 C482 1.401 . S
C481 H498 0.930 . S
C482 C480 1.392 . S
C482 C481 1.401 . S
C482 H499 0.930 . S
C483 O466 1.262 . S
C483 O467 1.260 . S
C484 Tb420 2.833 . S
C484 O464 1.251 . S
C484 O469 1.256 . S
C484 C477 1.500 . S
C485 H450 0.929 . S
C485 C463 1.444 . S
C485 C486 1.317 . S
C486 H448 0.930 . S
C486 C454 1.432 . S
C486 C485 1.317 . S
C487 O471 1.283 . S
C487 O474 1.243 . S
C488 C489 1.382 . S
C488 C492 1.393 . S
C488 C495 1.500 . S
C489 C488 1.382 . S
C489 C490 1.400 . S
C489 H500 0.930 . S
C490 C489 1.400 . S
C490 C491 1.384 . S
C491 C490 1.384 . S
C491 C493 1.392 . S
C491 H501 0.931 . S
C492 C488 1.393 . S
C492 C493 1.401 . S
C492 H502 0.930 . S
C493 C491 1.392 . S
C493 C492 1.401 . S
C493 H503 0.930 . S
C494 O472 1.262 . S
C494 O473 1.260 . S
C495 Tb431 2.833 . S
C495 O470 1.251 . S
C495 O475 1.256 . S
C495 C488 1.500 . S
H496 C479 0.930 . S
H497 C480 0.931 . S
H498 C481 0.930 . S
H499 C482 0.930 . S
H500 C489 0.930 . S
H501 C491 0.931 . S
H502 C492 0.930 . S
H503 C493 0.930 . S
Tb504 N535 2.660 . S
Tb504 N542 2.600 . S
Tb504 O548 2.546 . S
Tb504 O549 2.610 . S
Tb504 O551 2.320 . S
Tb504 O552 2.552 . S
Tb504 O553 2.413 . S
Tb504 O555 2.362 . S
Tb504 O556 2.421 . S
Tb504 C568 2.833 . S
C505 C508 1.432 . S
C505 C509 1.414 . S
C505 N512 1.359 . S
C506 C508 1.417 . S
C506 C510 1.432 . S
C506 C518 1.410 . S
C507 C509 1.444 . S
C507 C510 1.317 . S
C507 H530 0.929 . S
C508 C505 1.432 . S
C508 C506 1.417 . S
C508 N516 1.360 . S
C509 C505 1.414 . S
C509 C507 1.444 . S
C509 C514 1.385 . S
C510 C506 1.432 . S
C510 C507 1.317 . S
C510 H522 0.930 . S
C511 C513 1.392 . S
C511 C514 1.370 . S
C511 H523 0.931 . S
N512 C505 1.359 . S
N512 C513 1.327 . S
N512 Tb515 2.600 . S
C513 C511 1.392 . S
C513 N512 1.327 . S
C513 H520 0.930 . S
C514 C509 1.385 . S
C514 C511 1.370 . S
C514 H533 0.930 . S
Tb515 N512 2.600 . S
Tb515 N516 2.660 . S
Tb515 O549 2.362 . S
Tb515 O550 2.421 . S
Tb515 O554 2.546 . S
Tb515 O555 2.610 . S
Tb515 O557 2.320 . S
Tb515 O558 2.552 . S
Tb515 O559 2.413 . S
Tb515 C579 2.833 . S
N516 C508 1.360 . S
N516 Tb515 2.660 . S
N516 C517 1.305 . S
C517 N516 1.305 . S
C517 C519 1.407 . S
C517 H524 0.930 . S
C518 C506 1.410 . S
C518 C519 1.345 . S
C518 H526 0.930 . S
C519 C517 1.407 . S
C519 C518 1.345 . S
C519 H521 0.930 . S
H520 C513 0.930 . S
H521 C519 0.930 . S
H522 C510 0.930 . S
H523 C511 0.931 . S
H524 C517 0.930 . S
H525 C539 0.930 . S
H526 C518 0.930 . S
H527 C545 0.930 . S
H528 C536 0.930 . S
H529 C543 0.931 . S
H530 C507 0.929 . S
H531 C537 0.930 . S
H532 C570 0.930 . S
H533 C514 0.930 . S
H534 C569 0.929 . S
N535 Tb504 2.660 . S
N535 C536 1.305 . S
N535 C540 1.360 . S
C536 H528 0.930 . S
C536 N535 1.305 . S
C536 C539 1.407 . S
C537 H531 0.930 . S
C537 C538 1.410 . S
C537 C539 1.345 . S
C538 C537 1.410 . S
C538 C540 1.417 . S
C538 C570 1.432 . S
C539 H525 0.930 . S
C539 C536 1.407 . S
C539 C537 1.345 . S
C540 N535 1.360 . S
C540 C538 1.417 . S
C540 C544 1.432 . S
H541 C546 0.930 . S
N542 Tb504 2.600 . S
N542 C544 1.359 . S
N542 C545 1.327 . S
C543 H529 0.931 . S
C543 C545 1.392 . S
C543 C546 1.370 . S
C544 C540 1.432 . S
C544 N542 1.359 . S
C544 C547 1.414 . S
C545 H527 0.930 . S
C545 N542 1.327 . S
C545 C543 1.392 . S
C546 H541 0.930 . S
C546 C543 1.370 . S
C546 C547 1.385 . S
C547 C544 1.414 . S
C547 C546 1.385 . S
C547 C569 1.444 . S
O548 Tb504 2.546 . S
O548 C568 1.251 . S
O549 Tb504 2.610 . S
O549 Tb515 2.362 . S
O549 C560 1.283 . S
O550 Tb515 2.421 . S
O550 C567 1.262 . S
O551 Tb504 2.320 . S
O551 C567 1.260 . S
O552 Tb504 2.552 . S
O552 C560 1.243 . S
O553 Tb504 2.413 . S
O553 C568 1.256 . S
O554 Tb515 2.546 . S
O554 C579 1.251 . S
O555 Tb504 2.362 . S
O555 Tb515 2.610 . S
O555 C571 1.283 . S
O556 Tb504 2.421 . S
O556 C578 1.262 . S
O557 Tb515 2.320 . S
O557 C578 1.260 . S
O558 Tb515 2.552 . S
O558 C571 1.243 . S
O559 Tb515 2.413 . S
O559 C579 1.256 . S
C560 O549 1.283 . S
C560 O552 1.243 . S
C561 C563 1.382 . S
C561 C565 1.393 . S
C561 C568 1.500 . S
C562 C563 1.400 . S
C562 C564 1.384 . S
C563 C561 1.382 . S
C563 C562 1.400 . S
C563 H580 0.930 . S
C564 C562 1.384 . S
C564 C566 1.392 . S
C564 H581 0.931 . S
C565 C561 1.393 . S
C565 C566 1.401 . S
C565 H582 0.930 . S
C566 C564 1.392 . S
C566 C565 1.401 . S
C566 H583 0.930 . S
C567 O550 1.262 . S
C567 O551 1.260 . S
C568 Tb504 2.833 . S
C568 O548 1.251 . S
C568 O553 1.256 . S
C568 C561 1.500 . S
C569 H534 0.929 . S
C569 C547 1.444 . S
C569 C570 1.317 . S
C570 H532 0.930 . S
C570 C538 1.432 . S
C570 C569 1.317 . S
C571 O555 1.283 . S
C571 O558 1.243 . S
C572 C573 1.382 . S
C572 C576 1.393 . S
C572 C579 1.500 . S
C573 C572 1.382 . S
C573 C574 1.400 . S
C573 H584 0.930 . S
C574 C573 1.400 . S
C574 C575 1.384 . S
C575 C574 1.384 . S
C575 C577 1.392 . S
C575 H585 0.931 . S
C576 C572 1.393 . S
C576 C577 1.401 . S
C576 H586 0.930 . S
C577 C575 1.392 . S
C577 C576 1.401 . S
C577 H587 0.930 . S
C578 O556 1.262 . S
C578 O557 1.260 . S
C579 Tb515 2.833 . S
C579 O554 1.251 . S
C579 O559 1.256 . S
C579 C572 1.500 . S
H580 C563 0.930 . S
H581 C564 0.931 . S
H582 C565 0.930 . S
H583 C566 0.930 . S
H584 C573 0.930 . S
H585 C575 0.931 . S
H586 C576 0.930 . S
H587 C577 0.930 . S
Tb588 N619 2.660 . S
Tb588 N626 2.600 . S
Tb588 O632 2.546 . S
Tb588 O633 2.610 . S
Tb588 O635 2.320 . S
Tb588 O636 2.552 . S
Tb588 O637 2.413 . S
Tb588 O639 2.362 . S
Tb588 O640 2.421 . S
Tb588 C652 2.833 . S
C589 C592 1.432 . S
C589 C593 1.414 . S
C589 N596 1.359 . S
C590 C592 1.417 . S
C590 C594 1.432 . S
C590 C602 1.410 . S
C591 C593 1.444 . S
C591 C594 1.317 . S
C591 H614 0.929 . S
C592 C589 1.432 . S
C592 C590 1.417 . S
C592 N600 1.360 . S
C593 C589 1.414 . S
C593 C591 1.444 . S
C593 C598 1.385 . S
C594 C590 1.432 . S
C594 C591 1.317 . S
C594 H606 0.930 . S
C595 C597 1.392 . S
C595 C598 1.370 . S
C595 H607 0.931 . S
N596 C589 1.359 . S
N596 C597 1.327 . S
N596 Tb599 2.600 . S
C597 C595 1.392 . S
C597 N596 1.327 . S
C597 H604 0.930 . S
C598 C593 1.385 . S
C598 C595 1.370 . S
C598 H617 0.930 . S
Tb599 N596 2.600 . S
Tb599 N600 2.660 . S
Tb599 O633 2.362 . S
Tb599 O634 2.421 . S
Tb599 O638 2.546 . S
Tb599 O639 2.610 . S
Tb599 O641 2.320 . S
Tb599 O642 2.552 . S
Tb599 O643 2.413 . S
Tb599 C663 2.833 . S
N600 C592 1.360 . S
N600 Tb599 2.660 . S
N600 C601 1.305 . S
C601 N600 1.305 . S
C601 C603 1.407 . S
C601 H608 0.930 . S
C602 C590 1.410 . S
C602 C603 1.345 . S
C602 H610 0.930 . S
C603 C601 1.407 . S
C603 C602 1.345 . S
C603 H605 0.930 . S
H604 C597 0.930 . S
H605 C603 0.930 . S
H606 C594 0.930 . S
H607 C595 0.931 . S
H608 C601 0.930 . S
H609 C623 0.930 . S
H610 C602 0.930 . S
H611 C629 0.930 . S
H612 C620 0.930 . S
H613 C627 0.931 . S
H614 C591 0.929 . S
H615 C621 0.930 . S
H616 C654 0.930 . S
H617 C598 0.930 . S
H618 C653 0.929 . S
N619 Tb588 2.660 . S
N619 C620 1.305 . S
N619 C624 1.360 . S
C620 H612 0.930 . S
C620 N619 1.305 . S
C620 C623 1.407 . S
C621 H615 0.930 . S
C621 C622 1.410 . S
C621 C623 1.345 . S
C622 C621 1.410 . S
C622 C624 1.417 . S
C622 C654 1.432 . S
C623 H609 0.930 . S
C623 C620 1.407 . S
C623 C621 1.345 . S
C624 N619 1.360 . S
C624 C622 1.417 . S
C624 C628 1.432 . S
H625 C630 0.930 . S
N626 Tb588 2.600 . S
N626 C628 1.359 . S
N626 C629 1.327 . S
C627 H613 0.931 . S
C627 C629 1.392 . S
C627 C630 1.370 . S
C628 C624 1.432 . S
C628 N626 1.359 . S
C628 C631 1.414 . S
C629 H611 0.930 . S
C629 N626 1.327 . S
C629 C627 1.392 . S
C630 H625 0.930 . S
C630 C627 1.370 . S
C630 C631 1.385 . S
C631 C628 1.414 . S
C631 C630 1.385 . S
C631 C653 1.444 . S
O632 Tb588 2.546 . S
O632 C652 1.251 . S
O633 Tb588 2.610 . S
O633 Tb599 2.362 . S
O633 C644 1.283 . S
O634 Tb599 2.421 . S
O634 C651 1.262 . S
O635 Tb588 2.320 . S
O635 C651 1.260 . S
O636 Tb588 2.552 . S
O636 C644 1.243 . S
O637 Tb588 2.413 . S
O637 C652 1.256 . S
O638 Tb599 2.546 . S
O638 C663 1.251 . S
O639 Tb588 2.362 . S
O639 Tb599 2.610 . S
O639 C655 1.283 . S
O640 Tb588 2.421 . S
O640 C662 1.262 . S
O641 Tb599 2.320 . S
O641 C662 1.260 . S
O642 Tb599 2.552 . S
O642 C655 1.243 . S
O643 Tb599 2.413 . S
O643 C663 1.256 . S
C644 O633 1.283 . S
C644 O636 1.243 . S
C645 C647 1.382 . S
C645 C649 1.393 . S
C645 C652 1.500 . S
C646 C647 1.400 . S
C646 C648 1.384 . S
C647 C645 1.382 . S
C647 C646 1.400 . S
C647 H664 0.930 . S
C648 C646 1.384 . S
C648 C650 1.392 . S
C648 H665 0.931 . S
C649 C645 1.393 . S
C649 C650 1.401 . S
C649 H666 0.930 . S
C650 C648 1.392 . S
C650 C649 1.401 . S
C650 H667 0.930 . S
C651 O634 1.262 . S
C651 O635 1.260 . S
C652 Tb588 2.833 . S
C652 O632 1.251 . S
C652 O637 1.256 . S
C652 C645 1.500 . S
C653 H618 0.929 . S
C653 C631 1.444 . S
C653 C654 1.317 . S
C654 H616 0.930 . S
C654 C622 1.432 . S
C654 C653 1.317 . S
C655 O639 1.283 . S
C655 O642 1.243 . S
C656 C657 1.382 . S
C656 C660 1.393 . S
C656 C663 1.500 . S
C657 C656 1.382 . S
C657 C658 1.400 . S
C657 H668 0.930 . S
C658 C657 1.400 . S
C658 C659 1.384 . S
C659 C658 1.384 . S
C659 C661 1.392 . S
C659 H669 0.931 . S
C660 C656 1.393 . S
C660 C661 1.401 . S
C660 H670 0.930 . S
C661 C659 1.392 . S
C661 C660 1.401 . S
C661 H671 0.930 . S
C662 O640 1.262 . S
C662 O641 1.260 . S
C663 Tb599 2.833 . S
C663 O638 1.251 . S
C663 O643 1.256 . S
C663 C656 1.500 . S
H664 C647 0.930 . S
H665 C648 0.931 . S
H666 C649 0.930 . S
H667 C650 0.930 . S
H668 C657 0.930 . S
H669 C659 0.931 . S
H670 C660 0.930 . S
H671 C661 0.930 . S
Cd672 N675 2.334 1_655 S
Cd672 N701 2.304 1_565 S
Cd672 O708 2.268 . S
Cd672 O711 2.273 1_665 S
Cd672 O712 2.417 . S
Cd672 O713 2.330 . S
Cd673 N688 2.304 1_455 S
Cd673 N692 2.334 1_545 S
Cd673 O709 2.273 1_445 S
Cd673 O710 2.268 . S
Cd673 O714 2.417 . S
Cd673 O715 2.330 . S
C674 N675 1.332 . S
C674 C678 1.381 . S
C674 H680 0.931 . S
N675 Cd672 2.334 1_455 S
N675 C674 1.332 . S
N675 C679 1.328 . S
C676 C677 1.396 . S
C676 C679 1.378 . S
C676 H718 0.931 . S
C677 C676 1.396 . S
C677 C678 1.382 . S
C678 C674 1.381 . S
C678 C677 1.382 . S
C678 H719 0.930 . S
C679 N675 1.328 . S
C679 C676 1.378 . S
C679 H681 0.930 1_455 S
H680 C674 0.931 . S
H681 C679 0.930 1_655 S
C682 O708 1.238 . S
C682 O709 1.253 . S
C683 C684 1.379 . S
C683 N688 1.337 . S
C683 H689 0.929 . S
C684 C683 1.379 . S
C684 C685 1.380 . S
C684 H720 0.929 . S
C685 C684 1.380 . S
C685 C686 1.399 . S
C686 C685 1.399 . S
C686 C687 1.376 . S
C686 H721 0.931 . S
C687 C686 1.376 . S
C687 N688 1.338 . S
C687 H690 0.930 1_655 S
N688 Cd673 2.304 1_655 S
N688 C683 1.337 . S
N688 C687 1.338 . S
H689 C683 0.929 . S
H690 C687 0.930 1_455 S
C691 N692 1.332 . S
C691 C695 1.381 . S
C691 H697 0.931 . S
N692 Cd673 2.334 1_565 S
N692 C691 1.332 . S
N692 C696 1.328 . S
C693 C694 1.396 . S
C693 C696 1.378 . S
C693 H722 0.931 . S
C694 C693 1.396 . S
C694 C695 1.382 . S
C695 C691 1.381 . S
C695 C694 1.382 . S
C695 H723 0.930 . S
C696 N692 1.328 . S
C696 C693 1.378 . S
C696 H698 0.930 1_565 S
H697 C691 0.931 . S
H698 C696 0.930 1_545 S
C699 O710 1.238 . S
C699 O711 1.253 . S
C700 O712 1.239 . S
C700 O713 1.230 . S
N701 Cd672 2.304 1_545 S
N701 C702 1.337 . S
N701 C706 1.338 . S
C702 N701 1.337 . S
C702 C703 1.379 . S
C702 H716 0.929 . S
C703 C702 1.379 . S
C703 C704 1.380 . S
C703 H724 0.929 . S
C704 C703 1.380 . S
C704 C705 1.399 . S
C705 C704 1.399 . S
C705 C706 1.376 . S
C705 H725 0.931 . S
C706 N701 1.338 . S
C706 C705 1.376 . S
C706 H717 0.930 1_545 S
C707 O714 1.239 . S
C707 O715 1.230 . S
O708 Cd672 2.268 . S
O708 C682 1.238 . S
O709 Cd673 2.273 1_665 S
O709 C682 1.253 . S
O710 Cd673 2.268 . S
O710 C699 1.238 . S
O711 Cd672 2.273 1_445 S
O711 C699 1.253 . S
O712 Cd672 2.417 . S
O712 C700 1.239 . S
O713 Cd672 2.330 . S
O713 C700 1.230 . S
O714 Cd673 2.417 . S
O714 C707 1.239 . S
O715 Cd673 2.330 . S
O715 C707 1.230 . S
H716 C702 0.929 . S
H717 C706 0.930 1_565 S
H718 C676 0.931 . S
H719 C678 0.930 . S
H720 C684 0.929 . S
H721 C686 0.931 . S
H722 C693 0.931 . S
H723 C695 0.930 . S
H724 C703 0.929 . S
H725 C705 0.931 . S
Cd726 N729 2.334 . S
Cd726 N755 2.304 1_565 S
Cd726 O762 2.268 1_554 S
Cd726 O765 2.273 1_565 S
Cd726 O766 2.417 . S
Cd726 O767 2.330 . S
Cd727 N742 2.304 . S
Cd727 N746 2.334 1_545 S
Cd727 O763 2.273 1_545 S
Cd727 O764 2.268 1_556 S
Cd727 O768 2.417 . S
Cd727 O769 2.330 . S
C728 N729 1.332 . S
C728 C732 1.381 . S
C728 H734 0.931 . S
N729 Cd726 2.334 . S
N729 C728 1.332 . S
N729 C733 1.328 . S
C730 C731 1.396 . S
C730 C733 1.378 . S
C730 H772 0.931 . S
C731 C730 1.396 . S
C731 C732 1.382 . S
C732 C728 1.381 . S
C732 C731 1.382 . S
C732 H773 0.930 . S
C733 N729 1.328 . S
C733 C730 1.378 . S
C733 H735 0.930 . S
H734 C728 0.931 . S
H735 C733 0.930 . S
C736 O762 1.238 . S
C736 O763 1.253 . S
C737 C738 1.379 . S
C737 N742 1.337 . S
C737 H743 0.929 . S
C738 C737 1.379 . S
C738 C739 1.380 . S
C738 H774 0.929 . S
C739 C738 1.380 . S
C739 C740 1.399 . S
C740 C739 1.399 . S
C740 C741 1.376 . S
C740 H775 0.945 . S
C741 C740 1.376 . S
C741 N742 1.338 . S
C741 H744 0.930 1_556 S
N742 Cd727 2.304 . S
N742 C737 1.337 . S
N742 C741 1.338 . S
H743 C737 0.929 . S
H744 C741 0.930 1_554 S
C745 N746 1.332 . S
C745 C749 1.381 . S
C745 H751 0.931 . S
N746 Cd727 2.334 1_565 S
N746 C745 1.332 . S
N746 C750 1.328 . S
C747 C748 1.396 . S
C747 C750 1.378 . S
C747 H776 0.931 1_556 S
C748 C747 1.396 . S
C748 C749 1.382 . S
C749 C745 1.381 . S
C749 C748 1.382 . S
C749 H777 0.930 . S
C750 N746 1.328 . S
C750 C747 1.378 . S
C750 H752 0.930 1_566 S
H751 C745 0.931 . S
H752 C750 0.930 1_544 S
C753 O764 1.238 . S
C753 O765 1.253 . S
C754 O766 1.239 . S
C754 O767 1.230 . S
N755 Cd726 2.304 1_545 S
N755 C756 1.337 . S
N755 C760 1.338 . S
C756 N755 1.337 . S
C756 C757 1.379 . S
C756 H770 0.929 . S
C757 C756 1.379 . S
C757 C758 1.380 . S
C757 H778 0.929 . S
C758 C757 1.380 . S
C758 C759 1.399 . S
C759 C758 1.399 . S
C759 C760 1.376 . S
C759 H779 0.931 1_554 S
C760 N755 1.338 . S
C760 C759 1.376 . S
C760 H771 0.930 1_544 S
C761 O768 1.239 . S
C761 O769 1.230 . S
O762 Cd726 2.268 1_556 S
O762 C736 1.238 . S
O763 Cd727 2.273 1_565 S
O763 C736 1.253 . S
O764 Cd727 2.268 1_554 S
O764 C753 1.238 . S
O765 Cd726 2.273 1_545 S
O765 C753 1.253 . S
O766 Cd726 2.417 . S
O766 C754 1.239 . S
O767 Cd726 2.330 . S
O767 C754 1.230 . S
O768 Cd727 2.417 . S
O768 C761 1.239 . S
O769 Cd727 2.330 . S
O769 C761 1.230 . S
H770 C756 0.929 . S
H771 C760 0.930 1_566 S
H772 C730 0.931 . S
H773 C732 0.930 . S
H774 C738 0.929 . S
H775 C740 0.945 . S
H776 C747 0.931 1_554 S
H777 C749 0.930 . S
H778 C757 0.929 . S
H779 C759 0.931 1_556 S
Cd780 N783 2.334 1_655 S
Cd780 N809 2.304 . S
Cd780 O816 2.268 1_554 S
Cd780 O819 2.273 1_655 S
Cd780 O820 2.417 . S
Cd780 O821 2.330 . S
Cd781 N796 2.304 1_455 S
Cd781 N800 2.334 . S
Cd781 O817 2.273 1_455 S
Cd781 O818 2.268 1_556 S
Cd781 O822 2.417 . S
Cd781 O823 2.330 . S
C782 N783 1.332 . S
C782 C786 1.381 . S
C782 H788 0.931 . S
N783 Cd780 2.334 1_455 S
N783 C782 1.332 . S
N783 C787 1.328 . S
C784 C785 1.396 . S
C784 C787 1.378 . S
C784 H826 0.931 . S
C785 C784 1.396 . S
C785 C786 1.382 . S
C786 C782 1.381 . S
C786 C785 1.382 . S
C786 H827 0.930 . S
C787 N783 1.328 . S
C787 C784 1.378 . S
C787 H789 0.930 1_455 S
H788 C782 0.931 . S
H789 C787 0.930 1_655 S
C790 O816 1.238 . S
C790 O817 1.253 . S
C791 C792 1.379 . S
C791 N796 1.337 . S
C791 H797 0.929 . S
C792 C791 1.379 . S
C792 C793 1.380 . S
C792 H828 0.929 . S
C793 C792 1.380 . S
C793 C794 1.399 . S
C794 C793 1.399 . S
C794 C795 1.376 . S
C794 H829 0.945 . S
C795 C794 1.376 . S
C795 N796 1.338 . S
C795 H798 0.930 1_656 S
N796 Cd781 2.304 1_655 S
N796 C791 1.337 . S
N796 C795 1.338 . S
H797 C791 0.929 . S
H798 C795 0.930 1_454 S
C799 N800 1.332 . S
C799 C803 1.381 . S
C799 H805 0.931 . S
N800 Cd781 2.334 . S
N800 C799 1.332 . S
N800 C804 1.328 . S
C801 C802 1.396 . S
C801 C804 1.378 . S
C801 H830 0.931 1_556 S
C802 C801 1.396 . S
C802 C803 1.382 . S
C803 C799 1.381 . S
C803 C802 1.382 . S
C803 H831 0.930 . S
C804 N800 1.328 . S
C804 C801 1.378 . S
C804 H806 0.930 1_556 S
H805 C799 0.931 . S
H806 C804 0.930 1_554 S
C807 O818 1.238 . S
C807 O819 1.253 . S
C808 O820 1.239 . S
C808 O821 1.230 . S
N809 Cd780 2.304 . S
N809 C810 1.337 . S
N809 C814 1.338 . S
C810 N809 1.337 . S
C810 C811 1.379 . S
C810 H824 0.929 . S
C811 C810 1.379 . S
C811 C812 1.380 . S
C811 H832 0.929 . S
C812 C811 1.380 . S
C812 C813 1.399 . S
C813 C812 1.399 . S
C813 C814 1.376 . S
C813 H833 0.931 1_554 S
C814 N809 1.338 . S
C814 C813 1.376 . S
C814 H825 0.930 1_554 S
C815 O822 1.239 . S
C815 O823 1.230 . S
O816 Cd780 2.268 1_556 S
O816 C790 1.238 . S
O817 Cd781 2.273 1_655 S
O817 C790 1.253 . S
O818 Cd781 2.268 1_554 S
O818 C807 1.238 . S
O819 Cd780 2.273 1_455 S
O819 C807 1.253 . S
O820 Cd780 2.417 . S
O820 C808 1.239 . S
O821 Cd780 2.330 . S
O821 C808 1.230 . S
O822 Cd781 2.417 . S
O822 C815 1.239 . S
O823 Cd781 2.330 . S
O823 C815 1.230 . S
H824 C810 0.929 . S
H825 C814 0.930 1_556 S
H826 C784 0.931 . S
H827 C786 0.930 . S
H828 C792 0.929 . S
H829 C794 0.945 . S
H830 C801 0.931 1_554 S
H831 C803 0.930 . S
H832 C811 0.929 . S
H833 C813 0.931 1_556 S
Cd834 N837 2.334 . S
Cd834 N863 2.304 . S
Cd834 O870 2.268 1_554 S
Cd834 O873 2.273 . S
Cd834 O874 2.417 . S
Cd834 O875 2.330 . S
Cd835 N850 2.304 . S
Cd835 N854 2.334 . S
Cd835 O871 2.273 . S
Cd835 O872 2.268 1_556 S
Cd835 O876 2.417 . S
Cd835 O877 2.330 . S
C836 N837 1.332 . S
C836 C840 1.381 . S
C836 H842 0.931 . S
N837 Cd834 2.334 . S
N837 C836 1.332 . S
N837 C841 1.328 . S
C838 C839 1.396 . S
C838 C841 1.378 . S
C838 H880 0.931 . S
C839 C838 1.396 . S
C839 C840 1.382 . S
C840 C836 1.381 . S
C840 C839 1.382 . S
C840 H881 0.930 . S
C841 N837 1.328 . S
C841 C838 1.378 . S
C841 H843 0.930 . S
H842 C836 0.931 . S
H843 C841 0.930 . S
C844 O870 1.238 . S
C844 O871 1.253 . S
C845 C846 1.379 . S
C845 N850 1.337 . S
C845 H851 0.929 . S
C846 C845 1.379 . S
C846 C847 1.380 . S
C846 H882 0.929 . S
C847 C846 1.380 . S
C847 C848 1.399 . S
C848 C847 1.399 . S
C848 C849 1.376 . S
C848 H883 0.945 . S
C849 C848 1.376 . S
C849 N850 1.338 . S
C849 H852 0.930 1_556 S
N850 Cd835 2.304 . S
N850 C845 1.337 . S
N850 C849 1.338 . S
H851 C845 0.929 . S
H852 C849 0.930 1_554 S
C853 N854 1.332 . S
C853 C857 1.381 . S
C853 H859 0.931 . S
N854 Cd835 2.334 . S
N854 C853 1.332 . S
N854 C858 1.328 . S
C855 C856 1.396 . S
C855 C858 1.378 . S
C855 H884 0.931 1_556 S
C856 C855 1.396 . S
C856 C857 1.382 . S
C857 C853 1.381 . S
C857 C856 1.382 . S
C857 H885 0.930 . S
C858 N854 1.328 . S
C858 C855 1.378 . S
C858 H860 0.930 1_556 S
H859 C853 0.931 . S
H860 C858 0.930 1_554 S
C861 O872 1.238 . S
C861 O873 1.253 . S
C862 O874 1.239 . S
C862 O875 1.230 . S
N863 Cd834 2.304 . S
N863 C864 1.337 . S
N863 C868 1.338 . S
C864 N863 1.337 . S
C864 C865 1.379 . S
C864 H878 0.929 . S
C865 C864 1.379 . S
C865 C866 1.380 . S
C865 H886 0.929 . S
C866 C865 1.380 . S
C866 C867 1.399 . S
C867 C866 1.399 . S
C867 C868 1.376 . S
C867 H887 0.931 1_554 S
C868 N863 1.338 . S
C868 C867 1.376 . S
C868 H879 0.930 1_554 S
C869 O876 1.239 . S
C869 O877 1.230 . S
O870 Cd834 2.268 1_556 S
O870 C844 1.238 . S
O871 Cd835 2.273 . S
O871 C844 1.253 . S
O872 Cd835 2.268 1_554 S
O872 C861 1.238 . S
O873 Cd834 2.273 . S
O873 C861 1.253 . S
O874 Cd834 2.417 . S
O874 C862 1.239 . S
O875 Cd834 2.330 . S
O875 C862 1.230 . S
O876 Cd835 2.417 . S
O876 C869 1.239 . S
O877 Cd835 2.330 . S
O877 C869 1.230 . S
H878 C864 0.929 . S
H879 C868 0.930 1_556 S
H880 C838 0.931 . S
H881 C840 0.930 . S
H882 C846 0.929 . S
H883 C848 0.945 . S
H884 C855 0.931 1_554 S
H885 C857 0.930 . S
H886 C865 0.929 . S
H887 C867 0.931 1_556 S
Cd888 N891 2.334 1_655 S
Cd888 N917 2.304 . S
Cd888 O924 2.268 . S
Cd888 O927 2.273 1_655 S
Cd888 O928 2.417 . S
Cd888 O929 2.330 . S
Cd889 N904 2.304 1_455 S
Cd889 N908 2.334 . S
Cd889 O925 2.273 1_455 S
Cd889 O926 2.268 . S
Cd889 O930 2.417 . S
Cd889 O931 2.330 . S
C890 N891 1.332 . S
C890 C894 1.381 . S
C890 H896 0.931 . S
N891 Cd888 2.334 1_455 S
N891 C890 1.332 . S
N891 C895 1.328 . S
C892 C893 1.396 . S
C892 C895 1.378 . S
C892 H934 0.931 . S
C893 C892 1.396 . S
C893 C894 1.382 . S
C894 C890 1.381 . S
C894 C893 1.382 . S
C894 H935 0.930 . S
C895 N891 1.328 . S
C895 C892 1.378 . S
C895 H897 0.930 1_455 S
H896 C890 0.931 . S
H897 C895 0.930 1_655 S
C898 O924 1.238 . S
C898 O925 1.253 . S
C899 C900 1.379 . S
C899 N904 1.337 . S
C899 H905 0.929 . S
C900 C899 1.379 . S
C900 C901 1.380 . S
C900 H936 0.929 . S
C901 C900 1.380 . S
C901 C902 1.399 . S
C902 C901 1.399 . S
C902 C903 1.376 . S
C902 H937 0.931 . S
C903 C902 1.376 . S
C903 N904 1.338 . S
C903 H906 0.930 1_655 S
N904 Cd889 2.304 1_655 S
N904 C899 1.337 . S
N904 C903 1.338 . S
H905 C899 0.929 . S
H906 C903 0.930 1_455 S
C907 N908 1.332 . S
C907 C911 1.381 . S
C907 H913 0.931 . S
N908 Cd889 2.334 . S
N908 C907 1.332 . S
N908 C912 1.328 . S
C909 C910 1.396 . S
C909 C912 1.378 . S
C909 H938 0.931 . S
C910 C909 1.396 . S
C910 C911 1.382 . S
C911 C907 1.381 . S
C911 C910 1.382 . S
C911 H939 0.930 . S
C912 N908 1.328 . S
C912 C909 1.378 . S
C912 H914 0.930 . S
H913 C907 0.931 . S
H914 C912 0.930 . S
C915 O926 1.238 . S
C915 O927 1.253 . S
C916 O928 1.239 . S
C916 O929 1.230 . S
N917 Cd888 2.304 . S
N917 C918 1.337 . S
N917 C922 1.338 . S
C918 N917 1.337 . S
C918 C919 1.379 . S
C918 H932 0.929 . S
C919 C918 1.379 . S
C919 C920 1.380 . S
C919 H940 0.929 . S
C920 C919 1.380 . S
C920 C921 1.399 . S
C921 C920 1.399 . S
C921 C922 1.376 . S
C921 H941 0.931 . S
C922 N917 1.338 . S
C922 C921 1.376 . S
C922 H933 0.930 . S
C923 O930 1.239 . S
C923 O931 1.230 . S
O924 Cd888 2.268 . S
O924 C898 1.238 . S
O925 Cd889 2.273 1_655 S
O925 C898 1.253 . S
O926 Cd889 2.268 . S
O926 C915 1.238 . S
O927 Cd888 2.273 1_455 S
O927 C915 1.253 . S
O928 Cd888 2.417 . S
O928 C916 1.239 . S
O929 Cd888 2.330 . S
O929 C916 1.230 . S
O930 Cd889 2.417 . S
O930 C923 1.239 . S
O931 Cd889 2.330 . S
O931 C923 1.230 . S
H932 C918 0.929 . S
H933 C922 0.930 . S
H934 C892 0.931 . S
H935 C894 0.930 . S
H936 C900 0.929 . S
H937 C902 0.931 . S
H938 C909 0.931 . S
H939 C911 0.930 . S
H940 C919 0.929 . S
H941 C921 0.931 . S
Cd942 N945 2.334 . S
Cd942 N971 2.304 1_565 S
Cd942 O978 2.268 . S
Cd942 O981 2.273 1_565 S
Cd942 O982 2.417 . S
Cd942 O983 2.330 . S
Cd943 N958 2.304 . S
Cd943 N962 2.334 1_545 S
Cd943 O979 2.273 1_545 S
Cd943 O980 2.268 . S
Cd943 O984 2.417 . S
Cd943 O985 2.330 . S
C944 N945 1.332 . S
C944 C948 1.381 . S
C944 H950 0.931 . S
N945 Cd942 2.334 . S
N945 C944 1.332 . S
N945 C949 1.328 . S
C946 C947 1.396 . S
C946 C949 1.378 . S
C946 H988 0.931 . S
C947 C946 1.396 . S
C947 C948 1.382 . S
C948 C944 1.381 . S
C948 C947 1.382 . S
C948 H989 0.930 . S
C949 N945 1.328 . S
C949 C946 1.378 . S
C949 H951 0.930 . S
H950 C944 0.931 . S
H951 C949 0.930 . S
C952 O978 1.238 . S
C952 O979 1.253 . S
C953 C954 1.379 . S
C953 N958 1.337 . S
C953 H959 0.929 . S
C954 C953 1.379 . S
C954 C955 1.380 . S
C954 H990 0.929 . S
C955 C954 1.380 . S
C955 C956 1.399 . S
C956 C955 1.399 . S
C956 C957 1.376 . S
C956 H991 0.931 . S
C957 C956 1.376 . S
C957 N958 1.338 . S
C957 H960 0.930 . S
N958 Cd943 2.304 . S
N958 C953 1.337 . S
N958 C957 1.338 . S
H959 C953 0.929 . S
H960 C957 0.930 . S
C961 N962 1.332 . S
C961 C965 1.381 . S
C961 H967 0.931 . S
N962 Cd943 2.334 1_565 S
N962 C961 1.332 . S
N962 C966 1.328 . S
C963 C964 1.396 . S
C963 C966 1.378 . S
C963 H992 0.931 . S
C964 C963 1.396 . S
C964 C965 1.382 . S
C965 C961 1.381 . S
C965 C964 1.382 . S
C965 H993 0.930 . S
C966 N962 1.328 . S
C966 C963 1.378 . S
C966 H968 0.930 1_565 S
H967 C961 0.931 . S
H968 C966 0.930 1_545 S
C969 O980 1.238 . S
C969 O981 1.253 . S
C970 O982 1.239 . S
C970 O983 1.230 . S
N971 Cd942 2.304 1_545 S
N971 C972 1.337 . S
N971 C976 1.338 . S
C972 N971 1.337 . S
C972 C973 1.379 . S
C972 H986 0.929 . S
C973 C972 1.379 . S
C973 C974 1.380 . S
C973 H994 0.929 . S
C974 C973 1.380 . S
C974 C975 1.399 . S
C975 C974 1.399 . S
C975 C976 1.376 . S
C975 H995 0.931 . S
C976 N971 1.338 . S
C976 C975 1.376 . S
C976 H987 0.930 1_545 S
C977 O984 1.239 . S
C977 O985 1.230 . S
O978 Cd942 2.268 . S
O978 C952 1.238 . S
O979 Cd943 2.273 1_565 S
O979 C952 1.253 . S
O980 Cd943 2.268 . S
O980 C969 1.238 . S
O981 Cd942 2.273 1_545 S
O981 C969 1.253 . S
O982 Cd942 2.417 . S
O982 C970 1.239 . S
O983 Cd942 2.330 . S
O983 C970 1.230 . S
O984 Cd943 2.417 . S
O984 C977 1.239 . S
O985 Cd943 2.330 . S
O985 C977 1.230 . S
H986 C972 0.929 . S
H987 C976 0.930 1_565 S
H988 C946 0.931 . S
H989 C948 0.930 . S
H990 C954 0.929 . S
H991 C956 0.931 . S
H992 C963 0.931 . S
H993 C965 0.930 . S
H994 C973 0.929 . S
H995 C975 0.931 . S
H996 C1004 0.929 . S
H997 C1006 0.930 . S
H998 C1008 0.930 . S
H999 C1011 0.929 . S
H1000 C1014 0.930 . S
H1001 C1016 0.960 . S
H1002 C1016 0.960 . S
H1003 C1016 0.960 . S
C1004 H996 0.929 . S
C1004 C1005 1.377 . S
C1004 C1006 1.384 . S
C1005 C1004 1.377 . S
C1005 C1011 1.390 . S
C1006 H997 0.930 . S
C1006 C1004 1.384 . S
C1006 C1007 1.372 . S
C1007 C1006 1.372 . S
C1007 C1008 1.400 . S
C1007 C1012 1.490 . S
C1008 H998 0.930 . S
C1008 C1007 1.400 . S
C1008 C1011 1.386 . S
H1009 C1025 0.930 . S
H1010 C1026 0.931 . S
C1011 H999 0.929 . S
C1011 C1005 1.390 . S
C1011 C1008 1.386 . S
C1012 C1007 1.490 . S
C1012 C1014 1.395 . S
C1012 C1015 1.403 . S
H1013 C1019 0.930 . S
C1014 H1000 0.930 . S
C1014 C1012 1.395 . S
C1014 C1017 1.403 . S
C1015 C1012 1.403 . S
C1015 C1016 1.524 . S
C1015 C1019 1.400 . S
C1016 H1001 0.960 . S
C1016 H1002 0.960 . S
C1016 H1003 0.960 . S
C1016 C1015 1.524 . S
C1017 C1014 1.403 . S
C1017 C1018 1.392 . S
C1017 C1021 1.495 . S
C1018 C1017 1.392 . S
C1018 C1019 1.385 . S
C1018 C1020 1.478 . S
C1019 H1013 0.930 . S
C1019 C1015 1.400 . S
C1019 C1018 1.385 . S
C1020 C1018 1.478 . S
C1020 C1022 1.381 . S
C1020 C1026 1.383 . S
C1021 C1017 1.495 . S
C1021 H1027 0.959 . S
C1021 H1028 0.961 . S
C1021 H1029 0.960 . S
C1022 C1020 1.381 . S
C1022 C1023 1.394 . S
C1022 H1030 0.930 . S
C1023 C1022 1.394 . S
C1023 C1024 1.383 . S
C1023 H1031 0.929 . S
C1024 C1023 1.383 . S
C1024 C1025 1.377 . S
C1025 H1009 0.930 . S
C1025 C1024 1.377 . S
C1025 C1026 1.379 . S
C1026 H1010 0.931 . S
C1026 C1020 1.383 . S
C1026 C1025 1.379 . S
H1027 C1021 0.959 . S
H1028 C1021 0.961 . S
H1029 C1021 0.960 . S
H1030 C1022 0.930 . S
H1031 C1023 0.929 . S
H1032 C1040 0.929 . S
H1033 C1042 0.930 . S
H1034 C1044 0.930 . S
H1035 C1047 0.929 . S
H1036 C1050 0.930 . S
H1037 C1052 0.960 . S
H1038 C1052 0.960 . S
H1039 C1052 0.960 . S
C1040 H1032 0.929 . S
C1040 C1041 1.377 . S
C1040 C1042 1.384 . S
C1041 C1040 1.377 . S
C1041 C1047 1.390 . S
C1042 H1033 0.930 . S
C1042 C1040 1.384 . S
C1042 C1043 1.372 . S
C1043 C1042 1.372 . S
C1043 C1044 1.400 . S
C1043 C1048 1.490 . S
C1044 H1034 0.930 . S
C1044 C1043 1.400 . S
C1044 C1047 1.386 . S
H1045 C1061 0.930 . S
H1046 C1062 0.931 . S
C1047 H1035 0.929 . S
C1047 C1041 1.390 . S
C1047 C1044 1.386 . S
C1048 C1043 1.490 . S
C1048 C1050 1.395 . S
C1048 C1051 1.403 . S
H1049 C1055 0.930 . S
C1050 H1036 0.930 . S
C1050 C1048 1.395 . S
C1050 C1053 1.403 . S
C1051 C1048 1.403 . S
C1051 C1052 1.524 . S
C1051 C1055 1.400 . S
C1052 H1037 0.960 . S
C1052 H1038 0.960 . S
C1052 H1039 0.960 . S
C1052 C1051 1.524 . S
C1053 C1050 1.403 . S
C1053 C1054 1.392 . S
C1053 C1057 1.495 . S
C1054 C1053 1.392 . S
C1054 C1055 1.385 . S
C1054 C1056 1.478 . S
C1055 H1049 0.930 . S
C1055 C1051 1.400 . S
C1055 C1054 1.385 . S
C1056 C1054 1.478 . S
C1056 C1058 1.381 . S
C1056 C1062 1.383 . S
C1057 C1053 1.495 . S
C1057 H1063 0.959 . S
C1057 H1064 0.961 . S
C1057 H1065 0.960 . S
C1058 C1056 1.381 . S
C1058 C1059 1.394 . S
C1058 H1066 0.930 . S
C1059 C1058 1.394 . S
C1059 C1060 1.383 . S
C1059 H1067 0.929 . S
C1060 C1059 1.383 . S
C1060 C1061 1.377 . S
C1061 H1045 0.930 . S
C1061 C1060 1.377 . S
C1061 C1062 1.379 . S
C1062 H1046 0.931 . S
C1062 C1056 1.383 . S
C1062 C1061 1.379 . S
H1063 C1057 0.959 . S
H1064 C1057 0.961 . S
H1065 C1057 0.960 . S
H1066 C1058 0.930 . S
H1067 C1059 0.929 . S
H1068 C1076 0.929 . S
H1069 C1078 0.930 . S
H1070 C1080 0.930 . S
H1071 C1083 0.929 . S
H1072 C1086 0.930 . S
H1073 C1088 0.960 . S
H1074 C1088 0.960 . S
H1075 C1088 0.960 . S
C1076 H1068 0.929 . S
C1076 C1077 1.377 . S
C1076 C1078 1.384 . S
C1077 C1076 1.377 . S
C1077 C1083 1.390 . S
C1078 H1069 0.930 . S
C1078 C1076 1.384 . S
C1078 C1079 1.372 . S
C1079 C1078 1.372 . S
C1079 C1080 1.400 . S
C1079 C1084 1.490 . S
C1080 H1070 0.930 . S
C1080 C1079 1.400 . S
C1080 C1083 1.386 . S
H1081 C1097 0.930 . S
H1082 C1098 0.931 . S
C1083 H1071 0.929 . S
C1083 C1077 1.390 . S
C1083 C1080 1.386 . S
C1084 C1079 1.490 . S
C1084 C1086 1.395 . S
C1084 C1087 1.403 . S
H1085 C1091 0.930 . S
C1086 H1072 0.930 . S
C1086 C1084 1.395 . S
C1086 C1089 1.403 . S
C1087 C1084 1.403 . S
C1087 C1088 1.524 . S
C1087 C1091 1.400 . S
C1088 H1073 0.960 . S
C1088 H1074 0.960 . S
C1088 H1075 0.960 . S
C1088 C1087 1.524 . S
C1089 C1086 1.403 . S
C1089 C1090 1.392 . S
C1089 C1093 1.495 . S
C1090 C1089 1.392 . S
C1090 C1091 1.385 . S
C1090 C1092 1.478 . S
C1091 H1085 0.930 . S
C1091 C1087 1.400 . S
C1091 C1090 1.385 . S
C1092 C1090 1.478 . S
C1092 C1094 1.381 . S
C1092 C1098 1.383 . S
C1093 C1089 1.495 . S
C1093 H1099 0.959 . S
C1093 H1100 0.961 . S
C1093 H1101 0.960 . S
C1094 C1092 1.381 . S
C1094 C1095 1.394 . S
C1094 H1102 0.930 . S
C1095 C1094 1.394 . S
C1095 C1096 1.383 . S
C1095 H1103 0.929 . S
C1096 C1095 1.383 . S
C1096 C1097 1.377 . S
C1097 H1081 0.930 . S
C1097 C1096 1.377 . S
C1097 C1098 1.379 . S
C1098 H1082 0.931 . S
C1098 C1092 1.383 . S
C1098 C1097 1.379 . S
H1099 C1093 0.959 . S
H1100 C1093 0.961 . S
H1101 C1093 0.960 . S
H1102 C1094 0.930 . S
H1103 C1095 0.929 . S
H1104 C1112 0.929 . S
H1105 C1114 0.930 . S
H1106 C1116 0.930 . S
H1107 C1119 0.929 . S
H1108 C1122 0.930 . S
H1109 C1124 0.960 . S
H1110 C1124 0.960 . S
H1111 C1124 0.960 . S
C1112 H1104 0.929 . S
C1112 C1113 1.377 . S
C1112 C1114 1.384 . S
C1113 C1112 1.377 . S
C1113 C1119 1.390 . S
C1114 H1105 0.930 . S
C1114 C1112 1.384 . S
C1114 C1115 1.372 . S
C1115 C1114 1.372 . S
C1115 C1116 1.400 . S
C1115 C1120 1.490 . S
C1116 H1106 0.930 . S
C1116 C1115 1.400 . S
C1116 C1119 1.386 . S
H1117 C1133 0.930 . S
H1118 C1134 0.931 . S
C1119 H1107 0.929 . S
C1119 C1113 1.390 . S
C1119 C1116 1.386 . S
C1120 C1115 1.490 . S
C1120 C1122 1.395 . S
C1120 C1123 1.403 . S
H1121 C1127 0.930 . S
C1122 H1108 0.930 . S
C1122 C1120 1.395 . S
C1122 C1125 1.403 . S
C1123 C1120 1.403 . S
C1123 C1124 1.524 . S
C1123 C1127 1.400 . S
C1124 H1109 0.960 . S
C1124 H1110 0.960 . S
C1124 H1111 0.960 . S
C1124 C1123 1.524 . S
C1125 C1122 1.403 . S
C1125 C1126 1.392 . S
C1125 C1129 1.495 . S
C1126 C1125 1.392 . S
C1126 C1127 1.385 . S
C1126 C1128 1.478 . S
C1127 H1121 0.930 . S
C1127 C1123 1.400 . S
C1127 C1126 1.385 . S
C1128 C1126 1.478 . S
C1128 C1130 1.381 . S
C1128 C1134 1.383 . S
C1129 C1125 1.495 . S
C1129 H1135 0.959 . S
C1129 H1136 0.961 . S
C1129 H1137 0.960 . S
C1130 C1128 1.381 . S
C1130 C1131 1.394 . S
C1130 H1138 0.930 . S
C1131 C1130 1.394 . S
C1131 C1132 1.383 . S
C1131 H1139 0.929 . S
C1132 C1131 1.383 . S
C1132 C1133 1.377 . S
C1133 H1117 0.930 . S
C1133 C1132 1.377 . S
C1133 C1134 1.379 . S
C1134 H1118 0.931 . S
C1134 C1128 1.383 . S
C1134 C1133 1.379 . S
H1135 C1129 0.959 . S
H1136 C1129 0.961 . S
H1137 C1129 0.960 . S
H1138 C1130 0.930 . S
H1139 C1131 0.929 . S
H1140 C1148 0.929 . S
H1141 C1150 0.930 . S
H1142 C1152 0.930 . S
H1143 C1155 0.929 . S
H1144 C1158 0.930 . S
H1145 C1160 0.960 . S
H1146 C1160 0.960 . S
H1147 C1160 0.960 . S
C1148 H1140 0.929 . S
C1148 C1149 1.377 . S
C1148 C1150 1.384 . S
C1149 C1148 1.377 . S
C1149 C1155 1.390 . S
C1150 H1141 0.930 . S
C1150 C1148 1.384 . S
C1150 C1151 1.372 . S
C1151 C1150 1.372 . S
C1151 C1152 1.400 . S
C1151 C1156 1.490 . S
C1152 H1142 0.930 . S
C1152 C1151 1.400 . S
C1152 C1155 1.386 . S
H1153 C1169 0.930 . S
H1154 C1170 0.931 . S
C1155 H1143 0.929 . S
C1155 C1149 1.390 . S
C1155 C1152 1.386 . S
C1156 C1151 1.490 . S
C1156 C1158 1.395 . S
C1156 C1159 1.403 . S
H1157 C1163 0.930 . S
C1158 H1144 0.930 . S
C1158 C1156 1.395 . S
C1158 C1161 1.403 . S
C1159 C1156 1.403 . S
C1159 C1160 1.524 . S
C1159 C1163 1.400 . S
C1160 H1145 0.960 . S
C1160 H1146 0.960 . S
C1160 H1147 0.960 . S
C1160 C1159 1.524 . S
C1161 C1158 1.403 . S
C1161 C1162 1.392 . S
C1161 C1165 1.495 . S
C1162 C1161 1.392 . S
C1162 C1163 1.385 . S
C1162 C1164 1.478 . S
C1163 H1157 0.930 . S
C1163 C1159 1.400 . S
C1163 C1162 1.385 . S
C1164 C1162 1.478 . S
C1164 C1166 1.381 . S
C1164 C1170 1.383 . S
C1165 C1161 1.495 . S
C1165 H1171 0.959 . S
C1165 H1172 0.961 . S
C1165 H1173 0.960 . S
C1166 C1164 1.381 . S
C1166 C1167 1.394 . S
C1166 H1174 0.930 . S
C1167 C1166 1.394 . S
C1167 C1168 1.383 . S
C1167 H1175 0.929 . S
C1168 C1167 1.383 . S
C1168 C1169 1.377 . S
C1169 H1153 0.930 . S
C1169 C1168 1.377 . S
C1169 C1170 1.379 . S
C1170 H1154 0.931 . S
C1170 C1164 1.383 . S
C1170 C1169 1.379 . S
H1171 C1165 0.959 . S
H1172 C1165 0.961 . S
H1173 C1165 0.960 . S
H1174 C1166 0.930 . S
H1175 C1167 0.929 . S
H1176 C1184 0.929 . S
H1177 C1186 0.930 . S
H1178 C1188 0.930 . S
H1179 C1191 0.929 . S
H1180 C1194 0.930 . S
H1181 C1196 0.960 . S
H1182 C1196 0.960 . S
H1183 C1196 0.960 . S
C1184 H1176 0.929 . S
C1184 C1185 1.377 . S
C1184 C1186 1.384 . S
C1185 C1184 1.377 . S
C1185 C1191 1.390 . S
C1186 H1177 0.930 . S
C1186 C1184 1.384 . S
C1186 C1187 1.372 . S
C1187 C1186 1.372 . S
C1187 C1188 1.400 . S
C1187 C1192 1.490 . S
C1188 H1178 0.930 . S
C1188 C1187 1.400 . S
C1188 C1191 1.386 . S
H1189 C1205 0.930 . S
H1190 C1206 0.931 . S
C1191 H1179 0.929 . S
C1191 C1185 1.390 . S
C1191 C1188 1.386 . S
C1192 C1187 1.490 . S
C1192 C1194 1.395 . S
C1192 C1195 1.403 . S
H1193 C1199 0.930 . S
C1194 H1180 0.930 . S
C1194 C1192 1.395 . S
C1194 C1197 1.403 . S
C1195 C1192 1.403 . S
C1195 C1196 1.524 . S
C1195 C1199 1.400 . S
C1196 H1181 0.960 . S
C1196 H1182 0.960 . S
C1196 H1183 0.960 . S
C1196 C1195 1.524 . S
C1197 C1194 1.403 . S
C1197 C1198 1.392 . S
C1197 C1201 1.495 . S
C1198 C1197 1.392 . S
C1198 C1199 1.385 . S
C1198 C1200 1.478 . S
C1199 H1193 0.930 . S
C1199 C1195 1.400 . S
C1199 C1198 1.385 . S
C1200 C1198 1.478 . S
C1200 C1202 1.381 . S
C1200 C1206 1.383 . S
C1201 C1197 1.495 . S
C1201 H1207 0.959 . S
C1201 H1208 0.961 . S
C1201 H1209 0.960 . S
C1202 C1200 1.381 . S
C1202 C1203 1.394 . S
C1202 H1210 0.930 . S
C1203 C1202 1.394 . S
C1203 C1204 1.383 . S
C1203 H1211 0.929 . S
C1204 C1203 1.383 . S
C1204 C1205 1.377 . S
C1205 H1189 0.930 . S
C1205 C1204 1.377 . S
C1205 C1206 1.379 . S
C1206 H1190 0.931 . S
C1206 C1200 1.383 . S
C1206 C1205 1.379 . S
H1207 C1201 0.959 . S
H1208 C1201 0.961 . S
H1209 C1201 0.960 . S
H1210 C1202 0.930 . S
H1211 C1203 0.929 . S
H1212 C1220 0.929 . S
H1213 C1222 0.930 . S
H1214 C1224 0.930 . S
H1215 C1227 0.929 . S
H1216 C1230 0.930 . S
H1217 C1232 0.960 . S
H1218 C1232 0.960 . S
H1219 C1232 0.960 . S
C1220 H1212 0.929 . S
C1220 C1221 1.377 . S
C1220 C1222 1.384 . S
C1221 C1220 1.377 . S
C1221 C1227 1.390 . S
C1222 H1213 0.930 . S
C1222 C1220 1.384 . S
C1222 C1223 1.372 . S
C1223 C1222 1.372 . S
C1223 C1224 1.400 . S
C1223 C1228 1.490 . S
C1224 H1214 0.930 . S
C1224 C1223 1.400 . S
C1224 C1227 1.386 . S
H1225 C1241 0.930 . S
H1226 C1242 0.931 . S
C1227 H1215 0.929 . S
C1227 C1221 1.390 . S
C1227 C1224 1.386 . S
C1228 C1223 1.490 . S
C1228 C1230 1.395 . S
C1228 C1231 1.403 . S
H1229 C1235 0.930 . S
C1230 H1216 0.930 . S
C1230 C1228 1.395 . S
C1230 C1233 1.403 . S
C1231 C1228 1.403 . S
C1231 C1232 1.524 . S
C1231 C1235 1.400 . S
C1232 H1217 0.960 . S
C1232 H1218 0.960 . S
C1232 H1219 0.960 . S
C1232 C1231 1.524 . S
C1233 C1230 1.403 . S
C1233 C1234 1.392 . S
C1233 C1237 1.495 . S
C1234 C1233 1.392 . S
C1234 C1235 1.385 . S
C1234 C1236 1.478 . S
C1235 H1229 0.930 . S
C1235 C1231 1.400 . S
C1235 C1234 1.385 . S
C1236 C1234 1.478 . S
C1236 C1238 1.381 . S
C1236 C1242 1.383 . S
C1237 C1233 1.495 . S
C1237 H1243 0.959 . S
C1237 H1244 0.961 . S
C1237 H1245 0.960 . S
C1238 C1236 1.381 . S
C1238 C1239 1.394 . S
C1238 H1246 0.930 . S
C1239 C1238 1.394 . S
C1239 C1240 1.383 . S
C1239 H1247 0.929 . S
C1240 C1239 1.383 . S
C1240 C1241 1.377 . S
C1241 H1225 0.930 . S
C1241 C1240 1.377 . S
C1241 C1242 1.379 . S
C1242 H1226 0.931 . S
C1242 C1236 1.383 . S
C1242 C1241 1.379 . S
H1243 C1237 0.959 . S
H1244 C1237 0.961 . S
H1245 C1237 0.960 . S
H1246 C1238 0.930 . S
H1247 C1239 0.929 . S
H1248 C1256 0.929 . S
H1249 C1258 0.930 . S
H1250 C1260 0.930 . S
H1251 C1263 0.929 . S
H1252 C1266 0.930 . S
H1253 C1268 0.960 . S
H1254 C1268 0.960 . S
H1255 C1268 0.960 . S
C1256 H1248 0.929 . S
C1256 C1257 1.377 . S
C1256 C1258 1.384 . S
C1257 C1256 1.377 . S
C1257 C1263 1.390 . S
C1258 H1249 0.930 . S
C1258 C1256 1.384 . S
C1258 C1259 1.372 . S
C1259 C1258 1.372 . S
C1259 C1260 1.400 . S
C1259 C1264 1.490 . S
C1260 H1250 0.930 . S
C1260 C1259 1.400 . S
C1260 C1263 1.386 . S
H1261 C1277 0.930 . S
H1262 C1278 0.931 . S
C1263 H1251 0.929 . S
C1263 C1257 1.390 . S
C1263 C1260 1.386 . S
C1264 C1259 1.490 . S
C1264 C1266 1.395 . S
C1264 C1267 1.403 . S
H1265 C1271 0.930 . S
C1266 H1252 0.930 . S
C1266 C1264 1.395 . S
C1266 C1269 1.403 . S
C1267 C1264 1.403 . S
C1267 C1268 1.524 . S
C1267 C1271 1.400 . S
C1268 H1253 0.960 . S
C1268 H1254 0.960 . S
C1268 H1255 0.960 . S
C1268 C1267 1.524 . S
C1269 C1266 1.403 . S
C1269 C1270 1.392 . S
C1269 C1273 1.495 . S
C1270 C1269 1.392 . S
C1270 C1271 1.385 . S
C1270 C1272 1.478 . S
C1271 H1265 0.930 . S
C1271 C1267 1.400 . S
C1271 C1270 1.385 . S
C1272 C1270 1.478 . S
C1272 C1274 1.381 . S
C1272 C1278 1.383 . S
C1273 C1269 1.495 . S
C1273 H1279 0.959 . S
C1273 H1280 0.961 . S
C1273 H1281 0.960 . S
C1274 C1272 1.381 . S
C1274 C1275 1.394 . S
C1274 H1282 0.930 . S
C1275 C1274 1.394 . S
C1275 C1276 1.383 . S
C1275 H1283 0.929 . S
C1276 C1275 1.383 . S
C1276 C1277 1.377 . S
C1277 H1261 0.930 . S
C1277 C1276 1.377 . S
C1277 C1278 1.379 . S
C1278 H1262 0.931 . S
C1278 C1272 1.383 . S
C1278 C1277 1.379 . S
H1279 C1273 0.959 . S
H1280 C1273 0.961 . S
H1281 C1273 0.960 . S
H1282 C1274 0.930 . S
H1283 C1275 0.929 . S
H1284 C1292 0.929 . S
H1285 C1294 0.930 . S
H1286 C1296 0.930 . S
H1287 C1299 0.929 . S
H1288 C1302 0.930 . S
H1289 C1304 0.960 . S
H1290 C1304 0.960 . S
H1291 C1304 0.960 . S
C1292 H1284 0.929 . S
C1292 C1293 1.377 . S
C1292 C1294 1.384 . S
C1293 C1292 1.377 . S
C1293 C1299 1.390 . S
C1294 H1285 0.930 . S
C1294 C1292 1.384 . S
C1294 C1295 1.372 . S
C1295 C1294 1.372 . S
C1295 C1296 1.400 . S
C1295 C1300 1.490 . S
C1296 H1286 0.930 . S
C1296 C1295 1.400 . S
C1296 C1299 1.386 . S
H1297 C1313 0.930 . S
H1298 C1314 0.931 . S
C1299 H1287 0.929 . S
C1299 C1293 1.390 . S
C1299 C1296 1.386 . S
C1300 C1295 1.490 . S
C1300 C1302 1.395 . S
C1300 C1303 1.403 . S
H1301 C1307 0.930 . S
C1302 H1288 0.930 . S
C1302 C1300 1.395 . S
C1302 C1305 1.403 . S
C1303 C1300 1.403 . S
C1303 C1304 1.524 . S
C1303 C1307 1.400 . S
C1304 H1289 0.960 . S
C1304 H1290 0.960 . S
C1304 H1291 0.960 . S
C1304 C1303 1.524 . S
C1305 C1302 1.403 . S
C1305 C1306 1.392 . S
C1305 C1309 1.495 . S
C1306 C1305 1.392 . S
C1306 C1307 1.385 . S
C1306 C1308 1.478 . S
C1307 H1301 0.930 . S
C1307 C1303 1.400 . S
C1307 C1306 1.385 . S
C1308 C1306 1.478 . S
C1308 C1310 1.381 . S
C1308 C1314 1.383 . S
C1309 C1305 1.495 . S
C1309 H1315 0.959 . S
C1309 H1316 0.961 . S
C1309 H1317 0.960 . S
C1310 C1308 1.381 . S
C1310 C1311 1.394 . S
C1310 H1318 0.930 . S
C1311 C1310 1.394 . S
C1311 C1312 1.383 . S
C1311 H1319 0.929 . S
C1312 C1311 1.383 . S
C1312 C1313 1.377 . S
C1313 H1297 0.930 . S
C1313 C1312 1.377 . S
C1313 C1314 1.379 . S
C1314 H1298 0.931 . S
C1314 C1308 1.383 . S
C1314 C1313 1.379 . S
H1315 C1309 0.959 . S
H1316 C1309 0.961 . S
H1317 C1309 0.960 . S
H1318 C1310 0.930 . S
H1319 C1311 0.929 . S
H1320 C1328 0.929 . S
H1321 C1330 0.930 . S
H1322 C1332 0.930 . S
H1323 C1335 0.929 . S
H1324 C1338 0.930 . S
H1325 C1340 0.960 . S
H1326 C1340 0.960 . S
H1327 C1340 0.960 . S
C1328 H1320 0.929 . S
C1328 C1329 1.377 . S
C1328 C1330 1.384 . S
C1329 C1328 1.377 . S
C1329 C1335 1.390 . S
C1330 H1321 0.930 . S
C1330 C1328 1.384 . S
C1330 C1331 1.372 . S
C1331 C1330 1.372 . S
C1331 C1332 1.400 . S
C1331 C1336 1.490 . S
C1332 H1322 0.930 . S
C1332 C1331 1.400 . S
C1332 C1335 1.386 . S
H1333 C1349 0.930 . S
H1334 C1350 0.931 . S
C1335 H1323 0.929 . S
C1335 C1329 1.390 . S
C1335 C1332 1.386 . S
C1336 C1331 1.490 . S
C1336 C1338 1.395 . S
C1336 C1339 1.403 . S
H1337 C1343 0.930 . S
C1338 H1324 0.930 . S
C1338 C1336 1.395 . S
C1338 C1341 1.403 . S
C1339 C1336 1.403 . S
C1339 C1340 1.524 . S
C1339 C1343 1.400 . S
C1340 H1325 0.960 . S
C1340 H1326 0.960 . S
C1340 H1327 0.960 . S
C1340 C1339 1.524 . S
C1341 C1338 1.403 . S
C1341 C1342 1.392 . S
C1341 C1345 1.495 . S
C1342 C1341 1.392 . S
C1342 C1343 1.385 . S
C1342 C1344 1.478 . S
C1343 H1337 0.930 . S
C1343 C1339 1.400 . S
C1343 C1342 1.385 . S
C1344 C1342 1.478 . S
C1344 C1346 1.381 . S
C1344 C1350 1.383 . S
C1345 C1341 1.495 . S
C1345 H1351 0.959 . S
C1345 H1352 0.961 . S
C1345 H1353 0.960 . S
C1346 C1344 1.381 . S
C1346 C1347 1.394 . S
C1346 H1354 0.930 . S
C1347 C1346 1.394 . S
C1347 C1348 1.383 . S
C1347 H1355 0.929 . S
C1348 C1347 1.383 . S
C1348 C1349 1.377 . S
C1349 H1333 0.930 . S
C1349 C1348 1.377 . S
C1349 C1350 1.379 . S
C1350 H1334 0.931 . S
C1350 C1344 1.383 . S
C1350 C1349 1.379 . S
H1351 C1345 0.959 . S
H1352 C1345 0.961 . S
H1353 C1345 0.960 . S
H1354 C1346 0.930 . S
H1355 C1347 0.929 . S
H1356 C1364 0.929 . S
H1357 C1366 0.930 . S
H1358 C1368 0.930 . S
H1359 C1371 0.929 . S
H1360 C1374 0.930 . S
H1361 C1376 0.960 . S
H1362 C1376 0.960 . S
H1363 C1376 0.960 . S
C1364 H1356 0.929 . S
C1364 C1365 1.377 . S
C1364 C1366 1.384 . S
C1365 C1364 1.377 . S
C1365 C1371 1.390 . S
C1366 H1357 0.930 . S
C1366 C1364 1.384 . S
C1366 C1367 1.372 . S
C1367 C1366 1.372 . S
C1367 C1368 1.400 . S
C1367 C1372 1.490 . S
C1368 H1358 0.930 . S
C1368 C1367 1.400 . S
C1368 C1371 1.386 . S
H1369 C1385 0.930 . S
H1370 C1386 0.931 . S
C1371 H1359 0.929 . S
C1371 C1365 1.390 . S
C1371 C1368 1.386 . S
C1372 C1367 1.490 . S
C1372 C1374 1.395 . S
C1372 C1375 1.403 . S
H1373 C1379 0.930 . S
C1374 H1360 0.930 . S
C1374 C1372 1.395 . S
C1374 C1377 1.403 . S
C1375 C1372 1.403 . S
C1375 C1376 1.524 . S
C1375 C1379 1.400 . S
C1376 H1361 0.960 . S
C1376 H1362 0.960 . S
C1376 H1363 0.960 . S
C1376 C1375 1.524 . S
C1377 C1374 1.403 . S
C1377 C1378 1.392 . S
C1377 C1381 1.495 . S
C1378 C1377 1.392 . S
C1378 C1379 1.385 . S
C1378 C1380 1.478 . S
C1379 H1373 0.930 . S
C1379 C1375 1.400 . S
C1379 C1378 1.385 . S
C1380 C1378 1.478 . S
C1380 C1382 1.381 . S
C1380 C1386 1.383 . S
C1381 C1377 1.495 . S
C1381 H1387 0.959 . S
C1381 H1388 0.961 . S
C1381 H1389 0.960 . S
C1382 C1380 1.381 . S
C1382 C1383 1.394 . S
C1382 H1390 0.930 . S
C1383 C1382 1.394 . S
C1383 C1384 1.383 . S
C1383 H1391 0.929 . S
C1384 C1383 1.383 . S
C1384 C1385 1.377 . S
C1385 H1369 0.930 . S
C1385 C1384 1.377 . S
C1385 C1386 1.379 . S
C1386 H1370 0.931 . S
C1386 C1380 1.383 . S
C1386 C1385 1.379 . S
H1387 C1381 0.959 . S
H1388 C1381 0.961 . S
H1389 C1381 0.960 . S
H1390 C1382 0.930 . S
H1391 C1383 0.929 . S
H1392 C1400 0.929 . S
H1393 C1402 0.930 . S
H1394 C1404 0.930 . S
H1395 C1407 0.929 . S
H1396 C1410 0.930 . S
H1397 C1412 0.960 . S
H1398 C1412 0.960 . S
H1399 C1412 0.960 . S
C1400 H1392 0.929 . S
C1400 C1401 1.377 . S
C1400 C1402 1.384 . S
C1401 C1400 1.377 . S
C1401 C1407 1.390 . S
C1402 H1393 0.930 . S
C1402 C1400 1.384 . S
C1402 C1403 1.372 . S
C1403 C1402 1.372 . S
C1403 C1404 1.400 . S
C1403 C1408 1.490 . S
C1404 H1394 0.930 . S
C1404 C1403 1.400 . S
C1404 C1407 1.386 . S
H1405 C1421 0.930 . S
H1406 C1422 0.931 . S
C1407 H1395 0.929 . S
C1407 C1401 1.390 . S
C1407 C1404 1.386 . S
C1408 C1403 1.490 . S
C1408 C1410 1.395 . S
C1408 C1411 1.403 . S
H1409 C1415 0.930 . S
C1410 H1396 0.930 . S
C1410 C1408 1.395 . S
C1410 C1413 1.403 . S
C1411 C1408 1.403 . S
C1411 C1412 1.524 . S
C1411 C1415 1.400 . S
C1412 H1397 0.960 . S
C1412 H1398 0.960 . S
C1412 H1399 0.960 . S
C1412 C1411 1.524 . S
C1413 C1410 1.403 . S
C1413 C1414 1.392 . S
C1413 C1417 1.495 . S
C1414 C1413 1.392 . S
C1414 C1415 1.385 . S
C1414 C1416 1.478 . S
C1415 H1409 0.930 . S
C1415 C1411 1.400 . S
C1415 C1414 1.385 . S
C1416 C1414 1.478 . S
C1416 C1418 1.381 . S
C1416 C1422 1.383 . S
C1417 C1413 1.495 . S
C1417 H1423 0.959 . S
C1417 H1424 0.961 . S
C1417 H1425 0.960 . S
C1418 C1416 1.381 . S
C1418 C1419 1.394 . S
C1418 H1426 0.930 . S
C1419 C1418 1.394 . S
C1419 C1420 1.383 . S
C1419 H1427 0.929 . S
C1420 C1419 1.383 . S
C1420 C1421 1.377 . S
C1421 H1405 0.930 . S
C1421 C1420 1.377 . S
C1421 C1422 1.379 . S
C1422 H1406 0.931 . S
C1422 C1416 1.383 . S
C1422 C1421 1.379 . S
H1423 C1417 0.959 . S
H1424 C1417 0.961 . S
H1425 C1417 0.960 . S
H1426 C1418 0.930 . S
H1427 C1419 0.929 . S
H1428 C1436 0.929 . S
H1429 C1438 0.930 . S
H1430 C1440 0.930 . S
H1431 C1443 0.929 . S
H1432 C1446 0.930 . S
H1433 C1448 0.960 . S
H1434 C1448 0.960 . S
H1435 C1448 0.960 . S
C1436 H1428 0.929 . S
C1436 C1437 1.377 . S
C1436 C1438 1.384 . S
C1437 C1436 1.377 . S
C1437 C1443 1.390 . S
C1438 H1429 0.930 . S
C1438 C1436 1.384 . S
C1438 C1439 1.372 . S
C1439 C1438 1.372 . S
C1439 C1440 1.400 . S
C1439 C1444 1.490 . S
C1440 H1430 0.930 . S
C1440 C1439 1.400 . S
C1440 C1443 1.386 . S
H1441 C1457 0.930 . S
H1442 C1458 0.931 . S
C1443 H1431 0.929 . S
C1443 C1437 1.390 . S
C1443 C1440 1.386 . S
C1444 C1439 1.490 . S
C1444 C1446 1.395 . S
C1444 C1447 1.403 . S
H1445 C1451 0.930 . S
C1446 H1432 0.930 . S
C1446 C1444 1.395 . S
C1446 C1449 1.403 . S
C1447 C1444 1.403 . S
C1447 C1448 1.524 . S
C1447 C1451 1.400 . S
C1448 H1433 0.960 . S
C1448 H1434 0.960 . S
C1448 H1435 0.960 . S
C1448 C1447 1.524 . S
C1449 C1446 1.403 . S
C1449 C1450 1.392 . S
C1449 C1453 1.495 . S
C1450 C1449 1.392 . S
C1450 C1451 1.385 . S
C1450 C1452 1.478 . S
C1451 H1445 0.930 . S
C1451 C1447 1.400 . S
C1451 C1450 1.385 . S
C1452 C1450 1.478 . S
C1452 C1454 1.381 . S
C1452 C1458 1.383 . S
C1453 C1449 1.495 . S
C1453 H1459 0.959 . S
C1453 H1460 0.961 . S
C1453 H1461 0.960 . S
C1454 C1452 1.381 . S
C1454 C1455 1.394 . S
C1454 H1462 0.930 . S
C1455 C1454 1.394 . S
C1455 C1456 1.383 . S
C1455 H1463 0.929 . S
C1456 C1455 1.383 . S
C1456 C1457 1.377 . S
C1457 H1441 0.930 . S
C1457 C1456 1.377 . S
C1457 C1458 1.379 . S
C1458 H1442 0.931 . S
C1458 C1452 1.383 . S
C1458 C1457 1.379 . S
H1459 C1453 0.959 . S
H1460 C1453 0.961 . S
H1461 C1453 0.960 . S
H1462 C1454 0.930 . S
H1463 C1455 0.929 . S
H1464 C1472 0.929 . S
H1465 C1474 0.930 . S
H1466 C1476 0.930 . S
H1467 C1479 0.929 . S
H1468 C1482 0.930 . S
H1469 C1484 0.960 . S
H1470 C1484 0.960 . S
H1471 C1484 0.960 . S
C1472 H1464 0.929 . S
C1472 C1473 1.377 . S
C1472 C1474 1.384 . S
C1473 C1472 1.377 . S
C1473 C1479 1.390 . S
C1474 H1465 0.930 . S
C1474 C1472 1.384 . S
C1474 C1475 1.372 . S
C1475 C1474 1.372 . S
C1475 C1476 1.400 . S
C1475 C1480 1.490 . S
C1476 H1466 0.930 . S
C1476 C1475 1.400 . S
C1476 C1479 1.386 . S
H1477 C1493 0.930 . S
H1478 C1494 0.931 . S
C1479 H1467 0.929 . S
C1479 C1473 1.390 . S
C1479 C1476 1.386 . S
C1480 C1475 1.490 . S
C1480 C1482 1.395 . S
C1480 C1483 1.403 . S
H1481 C1487 0.930 . S
C1482 H1468 0.930 . S
C1482 C1480 1.395 . S
C1482 C1485 1.403 . S
C1483 C1480 1.403 . S
C1483 C1484 1.524 . S
C1483 C1487 1.400 . S
C1484 H1469 0.960 . S
C1484 H1470 0.960 . S
C1484 H1471 0.960 . S
C1484 C1483 1.524 . S
C1485 C1482 1.403 . S
C1485 C1486 1.392 . S
C1485 C1489 1.495 . S
C1486 C1485 1.392 . S
C1486 C1487 1.385 . S
C1486 C1488 1.478 . S
C1487 H1481 0.930 . S
C1487 C1483 1.400 . S
C1487 C1486 1.385 . S
C1488 C1486 1.478 . S
C1488 C1490 1.381 . S
C1488 C1494 1.383 . S
C1489 C1485 1.495 . S
C1489 H1495 0.959 . S
C1489 H1496 0.961 . S
C1489 H1497 0.960 . S
C1490 C1488 1.381 . S
C1490 C1491 1.394 . S
C1490 H1498 0.930 . S
C1491 C1490 1.394 . S
C1491 C1492 1.383 . S
C1491 H1499 0.958 . S
C1492 C1491 1.383 . S
C1492 C1493 1.377 . S
C1493 H1477 0.930 . S
C1493 C1492 1.377 . S
C1493 C1494 1.379 . S
C1494 H1478 0.931 . S
C1494 C1488 1.383 . S
C1494 C1493 1.379 . S
H1495 C1489 0.959 . S
H1496 C1489 0.961 . S
H1497 C1489 0.960 . S
H1498 C1490 0.930 . S
H1499 C1491 0.958 . S
H1500 C1508 0.929 . S
H1501 C1510 0.930 . S
H1502 C1512 0.930 . S
H1503 C1515 0.929 . S
H1504 C1518 0.930 . S
H1505 C1520 0.960 . S
H1506 C1520 0.960 . S
H1507 C1520 0.960 . S
C1508 H1500 0.929 . S
C1508 C1509 1.377 . S
C1508 C1510 1.384 . S
C1509 C1508 1.377 . S
C1509 C1515 1.390 . S
C1510 H1501 0.930 . S
C1510 C1508 1.384 . S
C1510 C1511 1.372 . S
C1511 C1510 1.372 . S
C1511 C1512 1.400 . S
C1511 C1516 1.490 . S
C1512 H1502 0.930 . S
C1512 C1511 1.400 . S
C1512 C1515 1.386 . S
H1513 C1529 0.930 . S
H1514 C1530 0.931 . S
C1515 H1503 0.929 . S
C1515 C1509 1.390 . S
C1515 C1512 1.386 . S
C1516 C1511 1.490 . S
C1516 C1518 1.395 . S
C1516 C1519 1.403 . S
H1517 C1523 0.930 . S
C1518 H1504 0.930 . S
C1518 C1516 1.395 . S
C1518 C1521 1.403 . S
C1519 C1516 1.403 . S
C1519 C1520 1.524 . S
C1519 C1523 1.400 . S
C1520 H1505 0.960 . S
C1520 H1506 0.960 . S
C1520 H1507 0.960 . S
C1520 C1519 1.524 . S
C1521 C1518 1.403 . S
C1521 C1522 1.392 . S
C1521 C1525 1.495 . S
C1522 C1521 1.392 . S
C1522 C1523 1.385 . S
C1522 C1524 1.478 . S
C1523 H1517 0.930 . S
C1523 C1519 1.400 . S
C1523 C1522 1.385 . S
C1524 C1522 1.478 . S
C1524 C1526 1.381 . S
C1524 C1530 1.383 . S
C1525 C1521 1.495 . S
C1525 H1531 0.959 . S
C1525 H1532 0.961 . S
C1525 H1533 0.960 . S
C1526 C1524 1.381 . S
C1526 C1527 1.394 . S
C1526 H1534 0.930 . S
C1527 C1526 1.394 . S
C1527 C1528 1.383 . S
C1527 H1535 0.929 . S
C1528 C1527 1.383 . S
C1528 C1529 1.377 . S
C1529 H1513 0.930 . S
C1529 C1528 1.377 . S
C1529 C1530 1.379 . S
C1530 H1514 0.931 . S
C1530 C1524 1.383 . S
C1530 C1529 1.379 . S
H1531 C1525 0.959 . S
H1532 C1525 0.961 . S
H1533 C1525 0.960 . S
H1534 C1526 0.930 . S
H1535 C1527 0.929 . S
H1536 C1544 0.929 . S
H1537 C1546 0.930 . S
H1538 C1548 0.930 . S
H1539 C1551 0.929 . S
H1540 C1554 0.930 . S
H1541 C1556 0.960 . S
H1542 C1556 0.960 . S
H1543 C1556 0.960 . S
C1544 H1536 0.929 . S
C1544 C1545 1.377 . S
C1544 C1546 1.384 . S
C1545 C1544 1.377 . S
C1545 C1551 1.390 . S
C1546 H1537 0.930 . S
C1546 C1544 1.384 . S
C1546 C1547 1.372 . S
C1547 C1546 1.372 . S
C1547 C1548 1.400 . S
C1547 C1552 1.490 . S
C1548 H1538 0.930 . S
C1548 C1547 1.400 . S
C1548 C1551 1.386 . S
H1549 C1565 0.930 . S
H1550 C1566 0.931 . S
C1551 H1539 0.929 . S
C1551 C1545 1.390 . S
C1551 C1548 1.386 . S
C1552 C1547 1.490 . S
C1552 C1554 1.395 . S
C1552 C1555 1.403 . S
H1553 C1559 0.930 . S
C1554 H1540 0.930 . S
C1554 C1552 1.395 . S
C1554 C1557 1.403 . S
C1555 C1552 1.403 . S
C1555 C1556 1.524 . S
C1555 C1559 1.400 . S
C1556 H1541 0.960 . S
C1556 H1542 0.960 . S
C1556 H1543 0.960 . S
C1556 C1555 1.524 . S
C1557 C1554 1.403 . S
C1557 C1558 1.392 . S
C1557 C1561 1.495 . S
C1558 C1557 1.392 . S
C1558 C1559 1.385 . S
C1558 C1560 1.478 . S
C1559 H1553 0.930 . S
C1559 C1555 1.400 . S
C1559 C1558 1.385 . S
C1560 C1558 1.478 . S
C1560 C1562 1.381 . S
C1560 C1566 1.383 . S
C1561 C1557 1.495 . S
C1561 H1567 0.959 . S
C1561 H1568 0.961 . S
C1561 H1569 0.960 . S
C1562 C1560 1.381 . S
C1562 C1563 1.394 . S
C1562 H1570 0.930 . S
C1563 C1562 1.394 . S
C1563 C1564 1.383 . S
C1563 H1571 0.929 . S
C1564 C1563 1.383 . S
C1564 C1565 1.377 . S
C1565 H1549 0.930 . S
C1565 C1564 1.377 . S
C1565 C1566 1.379 . S
C1566 H1550 0.931 . S
C1566 C1560 1.383 . S
C1566 C1565 1.379 . S
H1567 C1561 0.959 . S
H1568 C1561 0.961 . S
H1569 C1561 0.960 . S
H1570 C1562 0.930 . S
H1571 C1563 0.929 . S
H1572 C1580 0.929 . S
H1573 C1582 0.930 . S
H1574 C1584 0.930 . S
H1575 C1587 0.929 . S
H1576 C1590 0.930 . S
H1577 C1592 0.960 . S
H1578 C1592 0.960 . S
H1579 C1592 0.960 . S
C1580 H1572 0.929 . S
C1580 C1581 1.377 . S
C1580 C1582 1.384 . S
C1581 C1580 1.377 . S
C1581 C1587 1.390 . S
C1582 H1573 0.930 . S
C1582 C1580 1.384 . S
C1582 C1583 1.372 . S
C1583 C1582 1.372 . S
C1583 C1584 1.400 . S
C1583 C1588 1.490 . S
C1584 H1574 0.930 . S
C1584 C1583 1.400 . S
C1584 C1587 1.386 . S
H1585 C1601 0.930 . S
H1586 C1602 0.931 . S
C1587 H1575 0.929 . S
C1587 C1581 1.390 . S
C1587 C1584 1.386 . S
C1588 C1583 1.490 . S
C1588 C1590 1.395 . S
C1588 C1591 1.403 . S
H1589 C1595 0.930 . S
C1590 H1576 0.930 . S
C1590 C1588 1.395 . S
C1590 C1593 1.403 . S
C1591 C1588 1.403 . S
C1591 C1592 1.524 . S
C1591 C1595 1.400 . S
C1592 H1577 0.960 . S
C1592 H1578 0.960 . S
C1592 H1579 0.960 . S
C1592 C1591 1.524 . S
C1593 C1590 1.403 . S
C1593 C1594 1.392 . S
C1593 C1597 1.495 . S
C1594 C1593 1.392 . S
C1594 C1595 1.385 . S
C1594 C1596 1.478 . S
C1595 H1589 0.930 . S
C1595 C1591 1.400 . S
C1595 C1594 1.385 . S
C1596 C1594 1.478 . S
C1596 C1598 1.381 . S
C1596 C1602 1.383 . S
C1597 C1593 1.495 . S
C1597 H1603 0.959 . S
C1597 H1604 0.961 . S
C1597 H1605 0.960 . S
C1598 C1596 1.381 . S
C1598 C1599 1.394 . S
C1598 H1606 0.930 . S
C1599 C1598 1.394 . S
C1599 C1600 1.383 . S
C1599 H1607 0.929 . S
C1600 C1599 1.383 . S
C1600 C1601 1.377 . S
C1601 H1585 0.930 . S
C1601 C1600 1.377 . S
C1601 C1602 1.379 . S
C1602 H1586 0.931 . S
C1602 C1596 1.383 . S
C1602 C1601 1.379 . S
H1603 C1597 0.959 . S
H1604 C1597 0.961 . S
H1605 C1597 0.960 . S
H1606 C1598 0.930 . S
H1607 C1599 0.929 . S
H1608 C1616 0.929 . S
H1609 C1618 0.930 . S
H1610 C1620 0.930 . S
H1611 C1623 0.929 . S
H1612 C1626 0.930 . S
H1613 C1628 0.960 . S
H1614 C1628 0.960 . S
H1615 C1628 0.960 . S
C1616 H1608 0.929 . S
C1616 C1617 1.377 . S
C1616 C1618 1.384 . S
C1617 C1616 1.377 . S
C1617 C1623 1.390 . S
C1618 H1609 0.930 . S
C1618 C1616 1.384 . S
C1618 C1619 1.372 . S
C1619 C1618 1.372 . S
C1619 C1620 1.400 . S
C1619 C1624 1.490 . S
C1620 H1610 0.930 . S
C1620 C1619 1.400 . S
C1620 C1623 1.386 . S
H1621 C1637 0.930 . S
H1622 C1638 0.931 . S
C1623 H1611 0.929 . S
C1623 C1617 1.390 . S
C1623 C1620 1.386 . S
C1624 C1619 1.490 . S
C1624 C1626 1.395 . S
C1624 C1627 1.403 . S
H1625 C1631 0.930 . S
C1626 H1612 0.930 . S
C1626 C1624 1.395 . S
C1626 C1629 1.403 . S
C1627 C1624 1.403 . S
C1627 C1628 1.524 . S
C1627 C1631 1.400 . S
C1628 H1613 0.960 . S
C1628 H1614 0.960 . S
C1628 H1615 0.960 . S
C1628 C1627 1.524 . S
C1629 C1626 1.403 . S
C1629 C1630 1.392 . S
C1629 C1633 1.495 . S
C1630 C1629 1.392 . S
C1630 C1631 1.385 . S
C1630 C1632 1.478 . S
C1631 H1625 0.930 . S
C1631 C1627 1.400 . S
C1631 C1630 1.385 . S
C1632 C1630 1.478 . S
C1632 C1634 1.381 . S
C1632 C1638 1.383 . S
C1633 C1629 1.495 . S
C1633 H1639 0.959 . S
C1633 H1640 0.961 . S
C1633 H1641 0.960 . S
C1634 C1632 1.381 . S
C1634 C1635 1.394 . S
C1634 H1642 0.930 . S
C1635 C1634 1.394 . S
C1635 C1636 1.383 . S
C1635 H1643 0.929 . S
C1636 C1635 1.383 . S
C1636 C1637 1.377 . S
C1637 H1621 0.930 . S
C1637 C1636 1.377 . S
C1637 C1638 1.379 . S
C1638 H1622 0.931 . S
C1638 C1632 1.383 . S
C1638 C1637 1.379 . S
H1639 C1633 0.959 . S
H1640 C1633 0.961 . S
H1641 C1633 0.960 . S
H1642 C1634 0.930 . S
H1643 C1635 0.929 . S
H1644 C1652 0.929 . S
H1645 C1654 0.930 . S
H1646 C1656 0.930 . S
H1647 C1659 0.929 . S
H1648 C1662 0.930 . S
H1649 C1664 0.960 . S
H1650 C1664 0.960 . S
H1651 C1664 0.960 . S
C1652 H1644 0.929 . S
C1652 C1653 1.377 . S
C1652 C1654 1.384 . S
C1653 C1652 1.377 . S
C1653 C1659 1.390 . S
C1654 H1645 0.930 . S
C1654 C1652 1.384 . S
C1654 C1655 1.372 . S
C1655 C1654 1.372 . S
C1655 C1656 1.400 . S
C1655 C1660 1.490 . S
C1656 H1646 0.930 . S
C1656 C1655 1.400 . S
C1656 C1659 1.386 . S
H1657 C1673 0.930 . S
H1658 C1674 0.931 . S
C1659 H1647 0.929 . S
C1659 C1653 1.390 . S
C1659 C1656 1.386 . S
C1660 C1655 1.490 . S
C1660 C1662 1.395 . S
C1660 C1663 1.403 . S
H1661 C1667 0.930 . S
C1662 H1648 0.930 . S
C1662 C1660 1.395 . S
C1662 C1665 1.403 . S
C1663 C1660 1.403 . S
C1663 C1664 1.524 . S
C1663 C1667 1.400 . S
C1664 H1649 0.960 . S
C1664 H1650 0.960 . S
C1664 H1651 0.960 . S
C1664 C1663 1.524 . S
C1665 C1662 1.403 . S
C1665 C1666 1.392 . S
C1665 C1669 1.495 . S
C1666 C1665 1.392 . S
C1666 C1667 1.385 . S
C1666 C1668 1.478 . S
C1667 H1661 0.930 . S
C1667 C1663 1.400 . S
C1667 C1666 1.385 . S
C1668 C1666 1.478 . S
C1668 C1670 1.381 . S
C1668 C1674 1.383 . S
C1669 C1665 1.495 . S
C1669 H1675 0.959 . S
C1669 H1676 0.961 . S
C1669 H1677 0.960 . S
C1670 C1668 1.381 . S
C1670 C1671 1.394 . S
C1670 H1678 0.930 . S
C1671 C1670 1.394 . S
C1671 C1672 1.383 . S
C1671 H1679 0.929 . S
C1672 C1671 1.383 . S
C1672 C1673 1.377 . S
C1673 H1657 0.930 . S
C1673 C1672 1.377 . S
C1673 C1674 1.379 . S
C1674 H1658 0.931 . S
C1674 C1668 1.383 . S
C1674 C1673 1.379 . S
H1675 C1669 0.959 . S
H1676 C1669 0.961 . S
H1677 C1669 0.960 . S
H1678 C1670 0.930 . S
H1679 C1671 0.929 . S
H1680 C1688 0.929 . S
H1681 C1690 0.930 . S
H1682 C1692 0.930 . S
H1683 C1695 0.929 . S
H1684 C1698 0.930 . S
H1685 C1700 0.960 . S
H1686 C1700 0.960 . S
H1687 C1700 0.960 . S
C1688 H1680 0.929 . S
C1688 C1689 1.377 . S
C1688 C1690 1.384 . S
C1689 C1688 1.377 . S
C1689 C1695 1.390 . S
C1690 H1681 0.930 . S
C1690 C1688 1.384 . S
C1690 C1691 1.372 . S
C1691 C1690 1.372 . S
C1691 C1692 1.400 . S
C1691 C1696 1.490 . S
C1692 H1682 0.930 . S
C1692 C1691 1.400 . S
C1692 C1695 1.386 . S
H1693 C1709 0.930 . S
H1694 C1710 0.931 . S
C1695 H1683 0.929 . S
C1695 C1689 1.390 . S
C1695 C1692 1.386 . S
C1696 C1691 1.490 . S
C1696 C1698 1.395 . S
C1696 C1699 1.403 . S
H1697 C1703 0.930 . S
C1698 H1684 0.930 . S
C1698 C1696 1.395 . S
C1698 C1701 1.403 . S
C1699 C1696 1.403 . S
C1699 C1700 1.524 . S
C1699 C1703 1.400 . S
C1700 H1685 0.960 . S
C1700 H1686 0.960 . S
C1700 H1687 0.960 . S
C1700 C1699 1.524 . S
C1701 C1698 1.403 . S
C1701 C1702 1.392 . S
C1701 C1705 1.495 . S
C1702 C1701 1.392 . S
C1702 C1703 1.385 . S
C1702 C1704 1.478 . S
C1703 H1697 0.930 . S
C1703 C1699 1.400 . S
C1703 C1702 1.385 . S
C1704 C1702 1.478 . S
C1704 C1706 1.381 . S
C1704 C1710 1.383 . S
C1705 C1701 1.495 . S
C1705 H1711 0.959 . S
C1705 H1712 0.961 . S
C1705 H1713 0.960 . S
C1706 C1704 1.381 . S
C1706 C1707 1.394 . S
C1706 H1714 0.930 . S
C1707 C1706 1.394 . S
C1707 C1708 1.383 . S
C1707 H1715 0.929 . S
C1708 C1707 1.383 . S
C1708 C1709 1.377 . S
C1709 H1693 0.930 . S
C1709 C1708 1.377 . S
C1709 C1710 1.379 . S
C1710 H1694 0.931 . S
C1710 C1704 1.383 . S
C1710 C1709 1.379 . S
H1711 C1705 0.959 . S
H1712 C1705 0.961 . S
H1713 C1705 0.960 . S
H1714 C1706 0.930 . S
H1715 C1707 0.929 . S
H1716 C1724 0.929 . S
H1717 C1726 0.930 . S
H1718 C1728 0.930 . S
H1719 C1731 0.929 . S
H1720 C1734 0.930 . S
H1721 C1736 0.960 . S
H1722 C1736 0.960 . S
H1723 C1736 0.960 . S
C1724 H1716 0.929 . S
C1724 C1725 1.377 . S
C1724 C1726 1.384 . S
C1725 C1724 1.377 . S
C1725 C1731 1.390 . S
C1726 H1717 0.930 . S
C1726 C1724 1.384 . S
C1726 C1727 1.372 . S
C1727 C1726 1.372 . S
C1727 C1728 1.400 . S
C1727 C1732 1.490 . S
C1728 H1718 0.930 . S
C1728 C1727 1.400 . S
C1728 C1731 1.386 . S
H1729 C1745 0.930 . S
H1730 C1746 0.931 . S
C1731 H1719 0.929 . S
C1731 C1725 1.390 . S
C1731 C1728 1.386 . S
C1732 C1727 1.490 . S
C1732 C1734 1.395 . S
C1732 C1735 1.403 . S
H1733 C1739 0.930 . S
C1734 H1720 0.930 . S
C1734 C1732 1.395 . S
C1734 C1737 1.403 . S
C1735 C1732 1.403 . S
C1735 C1736 1.524 . S
C1735 C1739 1.400 . S
C1736 H1721 0.960 . S
C1736 H1722 0.960 . S
C1736 H1723 0.960 . S
C1736 C1735 1.524 . S
C1737 C1734 1.403 . S
C1737 C1738 1.392 . S
C1737 C1741 1.495 . S
C1738 C1737 1.392 . S
C1738 C1739 1.385 . S
C1738 C1740 1.478 . S
C1739 H1733 0.930 . S
C1739 C1735 1.400 . S
C1739 C1738 1.385 . S
C1740 C1738 1.478 . S
C1740 C1742 1.381 . S
C1740 C1746 1.383 . S
C1741 C1737 1.495 . S
C1741 H1747 0.959 . S
C1741 H1748 0.961 . S
C1741 H1749 0.960 . S
C1742 C1740 1.381 . S
C1742 C1743 1.394 . S
C1742 H1750 0.930 . S
C1743 C1742 1.394 . S
C1743 C1744 1.383 . S
C1743 H1751 0.929 . S
C1744 C1743 1.383 . S
C1744 C1745 1.377 . S
C1745 H1729 0.930 . S
C1745 C1744 1.377 . S
C1745 C1746 1.379 . S
C1746 H1730 0.931 . S
C1746 C1740 1.383 . S
C1746 C1745 1.379 . S
H1747 C1741 0.959 . S
H1748 C1741 0.961 . S
H1749 C1741 0.960 . S
H1750 C1742 0.930 . S
H1751 C1743 0.929 . S
H1752 C1760 0.929 . S
H1753 C1762 0.930 . S
H1754 C1764 0.930 . S
H1755 C1767 0.929 . S
H1756 C1770 0.930 . S
H1757 C1772 0.960 . S
H1758 C1772 0.960 . S
H1759 C1772 0.960 . S
C1760 H1752 0.929 . S
C1760 C1761 1.377 . S
C1760 C1762 1.384 . S
C1761 C1760 1.377 . S
C1761 C1767 1.390 . S
C1762 H1753 0.930 . S
C1762 C1760 1.384 . S
C1762 C1763 1.372 . S
C1763 C1762 1.372 . S
C1763 C1764 1.400 . S
C1763 C1768 1.490 . S
C1764 H1754 0.930 . S
C1764 C1763 1.400 . S
C1764 C1767 1.386 . S
H1765 C1781 0.930 . S
H1766 C1782 0.931 . S
C1767 H1755 0.929 . S
C1767 C1761 1.390 . S
C1767 C1764 1.386 . S
C1768 C1763 1.490 . S
C1768 C1770 1.395 . S
C1768 C1771 1.403 . S
H1769 C1775 0.930 . S
C1770 H1756 0.930 . S
C1770 C1768 1.395 . S
C1770 C1773 1.403 . S
C1771 C1768 1.403 . S
C1771 C1772 1.524 . S
C1771 C1775 1.400 . S
C1772 H1757 0.960 . S
C1772 H1758 0.960 . S
C1772 H1759 0.960 . S
C1772 C1771 1.524 . S
C1773 C1770 1.403 . S
C1773 C1774 1.392 . S
C1773 C1777 1.495 . S
C1774 C1773 1.392 . S
C1774 C1775 1.385 . S
C1774 C1776 1.478 . S
C1775 H1769 0.930 . S
C1775 C1771 1.400 . S
C1775 C1774 1.385 . S
C1776 C1774 1.478 . S
C1776 C1778 1.381 . S
C1776 C1782 1.383 . S
C1777 C1773 1.495 . S
C1777 H1783 0.959 . S
C1777 H1784 0.961 . S
C1777 H1785 0.960 . S
C1778 C1776 1.381 . S
C1778 C1779 1.394 . S
C1778 H1786 0.930 . S
C1779 C1778 1.394 . S
C1779 C1780 1.383 . S
C1779 H1787 0.929 . S
C1780 C1779 1.383 . S
C1780 C1781 1.377 . S
C1781 H1765 0.930 . S
C1781 C1780 1.377 . S
C1781 C1782 1.379 . S
C1782 H1766 0.931 . S
C1782 C1776 1.383 . S
C1782 C1781 1.379 . S
H1783 C1777 0.959 . S
H1784 C1777 0.961 . S
H1785 C1777 0.960 . S
H1786 C1778 0.930 . S
H1787 C1779 0.929 . S
H1788 C1796 0.929 . S
H1789 C1798 0.930 . S
H1790 C1800 0.930 . S
H1791 C1803 0.929 . S
H1792 C1806 0.930 . S
H1793 C1808 0.960 . S
H1794 C1808 0.960 . S
H1795 C1808 0.960 . S
C1796 H1788 0.929 . S
C1796 C1797 1.377 . S
C1796 C1798 1.384 . S
C1797 C1796 1.377 . S
C1797 C1803 1.390 . S
C1798 H1789 0.930 . S
C1798 C1796 1.384 . S
C1798 C1799 1.372 . S
C1799 C1798 1.372 . S
C1799 C1800 1.400 . S
C1799 C1804 1.490 . S
C1800 H1790 0.930 . S
C1800 C1799 1.400 . S
C1800 C1803 1.386 . S
H1801 C1817 0.930 . S
H1802 C1818 0.931 . S
C1803 H1791 0.929 . S
C1803 C1797 1.390 . S
C1803 C1800 1.386 . S
C1804 C1799 1.490 . S
C1804 C1806 1.395 . S
C1804 C1807 1.403 . S
H1805 C1811 0.930 . S
C1806 H1792 0.930 . S
C1806 C1804 1.395 . S
C1806 C1809 1.403 . S
C1807 C1804 1.403 . S
C1807 C1808 1.524 . S
C1807 C1811 1.400 . S
C1808 H1793 0.960 . S
C1808 H1794 0.960 . S
C1808 H1795 0.960 . S
C1808 C1807 1.524 . S
C1809 C1806 1.403 . S
C1809 C1810 1.392 . S
C1809 C1813 1.495 . S
C1810 C1809 1.392 . S
C1810 C1811 1.385 . S
C1810 C1812 1.478 . S
C1811 H1805 0.930 . S
C1811 C1807 1.400 . S
C1811 C1810 1.385 . S
C1812 C1810 1.478 . S
C1812 C1814 1.381 . S
C1812 C1818 1.383 . S
C1813 C1809 1.495 . S
C1813 H1819 0.959 . S
C1813 H1820 0.961 . S
C1813 H1821 0.960 . S
C1814 C1812 1.381 . S
C1814 C1815 1.394 . S
C1814 H1822 0.930 . S
C1815 C1814 1.394 . S
C1815 C1816 1.383 . S
C1815 H1823 0.929 . S
C1816 C1815 1.383 . S
C1816 C1817 1.377 . S
C1817 H1801 0.930 . S
C1817 C1816 1.377 . S
C1817 C1818 1.379 . S
C1818 H1802 0.931 . S
C1818 C1812 1.383 . S
C1818 C1817 1.379 . S
H1819 C1813 0.959 . S
H1820 C1813 0.961 . S
H1821 C1813 0.960 . S
H1822 C1814 0.930 . S
H1823 C1815 0.929 . S
H1824 C1832 0.929 . S
H1825 C1834 0.930 . S
H1826 C1836 0.930 . S
H1827 C1839 0.929 . S
H1828 C1842 0.930 . S
H1829 C1844 0.960 . S
H1830 C1844 0.960 . S
H1831 C1844 0.960 . S
C1832 H1824 0.929 . S
C1832 C1833 1.377 . S
C1832 C1834 1.384 . S
C1833 C1832 1.377 . S
C1833 C1839 1.390 . S
C1834 H1825 0.930 . S
C1834 C1832 1.384 . S
C1834 C1835 1.372 . S
C1835 C1834 1.372 . S
C1835 C1836 1.400 . S
C1835 C1840 1.490 . S
C1836 H1826 0.930 . S
C1836 C1835 1.400 . S
C1836 C1839 1.386 . S
H1837 C1853 0.930 . S
H1838 C1854 0.931 . S
C1839 H1827 0.929 . S
C1839 C1833 1.390 . S
C1839 C1836 1.386 . S
C1840 C1835 1.490 . S
C1840 C1842 1.395 . S
C1840 C1843 1.403 . S
H1841 C1847 0.930 . S
C1842 H1828 0.930 . S
C1842 C1840 1.395 . S
C1842 C1845 1.403 . S
C1843 C1840 1.403 . S
C1843 C1844 1.524 . S
C1843 C1847 1.400 . S
C1844 H1829 0.960 . S
C1844 H1830 0.960 . S
C1844 H1831 0.960 . S
C1844 C1843 1.524 . S
C1845 C1842 1.403 . S
C1845 C1846 1.392 . S
C1845 C1849 1.495 . S
C1846 C1845 1.392 . S
C1846 C1847 1.385 . S
C1846 C1848 1.478 . S
C1847 H1841 0.930 . S
C1847 C1843 1.400 . S
C1847 C1846 1.385 . S
C1848 C1846 1.478 . S
C1848 C1850 1.381 . S
C1848 C1854 1.383 . S
C1849 C1845 1.495 . S
C1849 H1855 0.959 . S
C1849 H1856 0.961 . S
C1849 H1857 0.960 . S
C1850 C1848 1.381 . S
C1850 C1851 1.394 . S
C1850 H1858 0.930 . S
C1851 C1850 1.394 . S
C1851 C1852 1.383 . S
C1851 H1859 0.929 . S
C1852 C1851 1.383 . S
C1852 C1853 1.377 . S
C1853 H1837 0.930 . S
C1853 C1852 1.377 . S
C1853 C1854 1.379 . S
C1854 H1838 0.931 . S
C1854 C1848 1.383 . S
C1854 C1853 1.379 . S
H1855 C1849 0.959 . S
H1856 C1849 0.961 . S
H1857 C1849 0.960 . S
H1858 C1850 0.930 . S
H1859 C1851 0.929 . S
H1860 C1868 0.929 . S
H1861 C1870 0.930 . S
H1862 C1872 0.930 . S
H1863 C1875 0.929 . S
H1864 C1878 0.930 . S
H1865 C1880 0.960 . S
H1866 C1880 0.960 . S
H1867 C1880 0.960 . S
C1868 H1860 0.929 . S
C1868 C1869 1.377 . S
C1868 C1870 1.384 . S
C1869 C1868 1.377 . S
C1869 C1875 1.390 . S
C1870 H1861 0.930 . S
C1870 C1868 1.384 . S
C1870 C1871 1.372 . S
C1871 C1870 1.372 . S
C1871 C1872 1.400 . S
C1871 C1876 1.490 . S
C1872 H1862 0.930 . S
C1872 C1871 1.400 . S
C1872 C1875 1.386 . S
H1873 C1889 0.930 . S
H1874 C1890 0.931 . S
C1875 H1863 0.929 . S
C1875 C1869 1.390 . S
C1875 C1872 1.386 . S
C1876 C1871 1.490 . S
C1876 C1878 1.395 . S
C1876 C1879 1.403 . S
H1877 C1883 0.930 . S
C1878 H1864 0.930 . S
C1878 C1876 1.395 . S
C1878 C1881 1.403 . S
C1879 C1876 1.403 . S
C1879 C1880 1.524 . S
C1879 C1883 1.400 . S
C1880 H1865 0.960 . S
C1880 H1866 0.960 . S
C1880 H1867 0.960 . S
C1880 C1879 1.524 . S
C1881 C1878 1.403 . S
C1881 C1882 1.392 . S
C1881 C1885 1.495 . S
C1882 C1881 1.392 . S
C1882 C1883 1.385 . S
C1882 C1884 1.478 . S
C1883 H1877 0.930 . S
C1883 C1879 1.400 . S
C1883 C1882 1.385 . S
C1884 C1882 1.478 . S
C1884 C1886 1.381 . S
C1884 C1890 1.383 . S
C1885 C1881 1.495 . S
C1885 H1891 0.959 . S
C1885 H1892 0.961 . S
C1885 H1893 0.960 . S
C1886 C1884 1.381 . S
C1886 C1887 1.394 . S
C1886 H1894 0.930 . S
C1887 C1886 1.394 . S
C1887 C1888 1.383 . S
C1887 H1895 0.929 . S
C1888 C1887 1.383 . S
C1888 C1889 1.377 . S
C1889 H1873 0.930 . S
C1889 C1888 1.377 . S
C1889 C1890 1.379 . S
C1890 H1874 0.931 . S
C1890 C1884 1.383 . S
C1890 C1889 1.379 . S
H1891 C1885 0.959 . S
H1892 C1885 0.961 . S
H1893 C1885 0.960 . S
H1894 C1886 0.930 . S
H1895 C1887 0.929 . S
H1896 C1904 0.929 . S
H1897 C1906 0.930 . S
H1898 C1908 0.930 . S
H1899 C1911 0.929 . S
H1900 C1914 0.930 . S
H1901 C1916 0.960 . S
H1902 C1916 0.960 . S
H1903 C1916 0.960 . S
C1904 H1896 0.929 . S
C1904 C1905 1.377 . S
C1904 C1906 1.384 . S
C1905 C1904 1.377 . S
C1905 C1911 1.390 . S
C1906 H1897 0.930 . S
C1906 C1904 1.384 . S
C1906 C1907 1.372 . S
C1907 C1906 1.372 . S
C1907 C1908 1.400 . S
C1907 C1912 1.490 . S
C1908 H1898 0.930 . S
C1908 C1907 1.400 . S
C1908 C1911 1.386 . S
H1909 C1925 0.930 . S
H1910 C1926 0.931 . S
C1911 H1899 0.929 . S
C1911 C1905 1.390 . S
C1911 C1908 1.386 . S
C1912 C1907 1.490 . S
C1912 C1914 1.395 . S
C1912 C1915 1.403 . S
H1913 C1919 0.930 . S
C1914 H1900 0.930 . S
C1914 C1912 1.395 . S
C1914 C1917 1.403 . S
C1915 C1912 1.403 . S
C1915 C1916 1.524 . S
C1915 C1919 1.400 . S
C1916 H1901 0.960 . S
C1916 H1902 0.960 . S
C1916 H1903 0.960 . S
C1916 C1915 1.524 . S
C1917 C1914 1.403 . S
C1917 C1918 1.392 . S
C1917 C1921 1.495 . S
C1918 C1917 1.392 . S
C1918 C1919 1.385 . S
C1918 C1920 1.478 . S
C1919 H1913 0.930 . S
C1919 C1915 1.400 . S
C1919 C1918 1.385 . S
C1920 C1918 1.478 . S
C1920 C1922 1.381 . S
C1920 C1926 1.383 . S
C1921 C1917 1.495 . S
C1921 H1927 0.959 . S
C1921 H1928 0.961 . S
C1921 H1929 0.960 . S
C1922 C1920 1.381 . S
C1922 C1923 1.394 . S
C1922 H1930 0.930 . S
C1923 C1922 1.394 . S
C1923 C1924 1.383 . S
C1923 H1931 0.929 . S
C1924 C1923 1.383 . S
C1924 C1925 1.377 . S
C1925 H1909 0.930 . S
C1925 C1924 1.377 . S
C1925 C1926 1.379 . S
C1926 H1910 0.931 . S
C1926 C1920 1.383 . S
C1926 C1925 1.379 . S
H1927 C1921 0.959 . S
H1928 C1921 0.961 . S
H1929 C1921 0.960 . S
H1930 C1922 0.930 . S
H1931 C1923 0.929 . S
H1932 C1940 0.929 . S
H1933 C1942 0.930 . S
H1934 C1944 0.930 . S
H1935 C1947 0.929 . S
H1936 C1950 0.930 . S
H1937 C1952 0.960 . S
H1938 C1952 0.960 . S
H1939 C1952 0.960 . S
C1940 H1932 0.929 . S
C1940 C1941 1.377 . S
C1940 C1942 1.384 . S
C1941 C1940 1.377 . S
C1941 C1947 1.390 . S
C1942 H1933 0.930 . S
C1942 C1940 1.384 . S
C1942 C1943 1.372 . S
C1943 C1942 1.372 . S
C1943 C1944 1.400 . S
C1943 C1948 1.490 . S
C1944 H1934 0.930 . S
C1944 C1943 1.400 . S
C1944 C1947 1.386 . S
H1945 C1961 0.930 . S
H1946 C1962 0.931 . S
C1947 H1935 0.929 . S
C1947 C1941 1.390 . S
C1947 C1944 1.386 . S
C1948 C1943 1.490 . S
C1948 C1950 1.395 . S
C1948 C1951 1.403 . S
H1949 C1955 0.930 . S
C1950 H1936 0.930 . S
C1950 C1948 1.395 . S
C1950 C1953 1.403 . S
C1951 C1948 1.403 . S
C1951 C1952 1.524 . S
C1951 C1955 1.400 . S
C1952 H1937 0.960 . S
C1952 H1938 0.960 . S
C1952 H1939 0.960 . S
C1952 C1951 1.524 . S
C1953 C1950 1.403 . S
C1953 C1954 1.392 . S
C1953 C1957 1.495 . S
C1954 C1953 1.392 . S
C1954 C1955 1.385 . S
C1954 C1956 1.478 . S
C1955 H1949 0.930 . S
C1955 C1951 1.400 . S
C1955 C1954 1.385 . S
C1956 C1954 1.478 . S
C1956 C1958 1.381 . S
C1956 C1962 1.383 . S
C1957 C1953 1.495 . S
C1957 H1963 0.959 . S
C1957 H1964 0.961 . S
C1957 H1965 0.960 . S
C1958 C1956 1.381 . S
C1958 C1959 1.394 . S
C1958 H1966 0.930 . S
C1959 C1958 1.394 . S
C1959 C1960 1.383 . S
C1959 H1967 0.929 . S
C1960 C1959 1.383 . S
C1960 C1961 1.377 . S
C1961 H1945 0.930 . S
C1961 C1960 1.377 . S
C1961 C1962 1.379 . S
C1962 H1946 0.931 . S
C1962 C1956 1.383 . S
C1962 C1961 1.379 . S
H1963 C1957 0.959 . S
H1964 C1957 0.961 . S
H1965 C1957 0.960 . S
H1966 C1958 0.930 . S
H1967 C1959 0.929 . S
H1968 C1976 0.929 . S
H1969 C1978 0.930 . S
H1970 C1980 0.930 . S
H1971 C1983 0.929 . S
H1972 C1986 0.930 . S
H1973 C1988 0.960 . S
H1974 C1988 0.960 . S
H1975 C1988 0.960 . S
C1976 H1968 0.929 . S
C1976 C1977 1.377 . S
C1976 C1978 1.384 . S
C1977 C1976 1.377 . S
C1977 C1983 1.390 . S
C1978 H1969 0.930 . S
C1978 C1976 1.384 . S
C1978 C1979 1.372 . S
C1979 C1978 1.372 . S
C1979 C1980 1.400 . S
C1979 C1984 1.490 . S
C1980 H1970 0.930 . S
C1980 C1979 1.400 . S
C1980 C1983 1.386 . S
H1981 C1997 0.930 . S
H1982 C1998 0.931 . S
C1983 H1971 0.929 . S
C1983 C1977 1.390 . S
C1983 C1980 1.386 . S
C1984 C1979 1.490 . S
C1984 C1986 1.395 . S
C1984 C1987 1.403 . S
H1985 C1991 0.930 . S
C1986 H1972 0.930 . S
C1986 C1984 1.395 . S
C1986 C1989 1.403 . S
C1987 C1984 1.403 . S
C1987 C1988 1.524 . S
C1987 C1991 1.400 . S
C1988 H1973 0.960 . S
C1988 H1974 0.960 . S
C1988 H1975 0.960 . S
C1988 C1987 1.524 . S
C1989 C1986 1.403 . S
C1989 C1990 1.392 . S
C1989 C1993 1.495 . S
C1990 C1989 1.392 . S
C1990 C1991 1.385 . S
C1990 C1992 1.478 . S
C1991 H1985 0.930 . S
C1991 C1987 1.400 . S
C1991 C1990 1.385 . S
C1992 C1990 1.478 . S
C1992 C1994 1.381 . S
C1992 C1998 1.383 . S
C1993 C1989 1.495 . S
C1993 H1999 0.959 . S
C1993 H2000 0.961 . S
C1993 H2001 0.960 . S
C1994 C1992 1.381 . S
C1994 C1995 1.394 . S
C1994 H2002 0.930 . S
C1995 C1994 1.394 . S
C1995 C1996 1.383 . S
C1995 H2003 0.929 . S
C1996 C1995 1.383 . S
C1996 C1997 1.377 . S
C1997 H1981 0.930 . S
C1997 C1996 1.377 . S
C1997 C1998 1.379 . S
C1998 H1982 0.931 . S
C1998 C1992 1.383 . S
C1998 C1997 1.379 . S
H1999 C1993 0.959 . S
H2000 C1993 0.961 . S
H2001 C1993 0.960 . S
H2002 C1994 0.930 . S
H2003 C1995 0.929 . S
H2004 C2012 0.929 . S
H2005 C2014 0.930 . S
H2006 C2016 0.930 . S
H2007 C2019 0.929 . S
H2008 C2022 0.930 . S
H2009 C2024 0.960 . S
H2010 C2024 0.960 . S
H2011 C2024 0.960 . S
C2012 H2004 0.929 . S
C2012 C2013 1.377 . S
C2012 C2014 1.384 . S
C2013 C2012 1.377 . S
C2013 C2019 1.390 . S
C2014 H2005 0.930 . S
C2014 C2012 1.384 . S
C2014 C2015 1.372 . S
C2015 C2014 1.372 . S
C2015 C2016 1.400 . S
C2015 C2020 1.490 . S
C2016 H2006 0.930 . S
C2016 C2015 1.400 . S
C2016 C2019 1.386 . S
H2017 C2033 0.930 . S
H2018 C2034 0.931 . S
C2019 H2007 0.929 . S
C2019 C2013 1.390 . S
C2019 C2016 1.386 . S
C2020 C2015 1.490 . S
C2020 C2022 1.395 . S
C2020 C2023 1.403 . S
H2021 C2027 0.930 . S
C2022 H2008 0.930 . S
C2022 C2020 1.395 . S
C2022 C2025 1.403 . S
C2023 C2020 1.403 . S
C2023 C2024 1.524 . S
C2023 C2027 1.400 . S
C2024 H2009 0.960 . S
C2024 H2010 0.960 . S
C2024 H2011 0.960 . S
C2024 C2023 1.524 . S
C2025 C2022 1.403 . S
C2025 C2026 1.392 . S
C2025 C2029 1.495 . S
C2026 C2025 1.392 . S
C2026 C2027 1.385 . S
C2026 C2028 1.478 . S
C2027 H2021 0.930 . S
C2027 C2023 1.400 . S
C2027 C2026 1.385 . S
C2028 C2026 1.478 . S
C2028 C2030 1.381 . S
C2028 C2034 1.383 . S
C2029 C2025 1.495 . S
C2029 H2035 0.959 . S
C2029 H2036 0.961 . S
C2029 H2037 0.960 . S
C2030 C2028 1.381 . S
C2030 C2031 1.394 . S
C2030 H2038 0.930 . S
C2031 C2030 1.394 . S
C2031 C2032 1.383 . S
C2031 H2039 0.929 . S
C2032 C2031 1.383 . S
C2032 C2033 1.377 . S
C2033 H2017 0.930 . S
C2033 C2032 1.377 . S
C2033 C2034 1.379 . S
C2034 H2018 0.931 . S
C2034 C2028 1.383 . S
C2034 C2033 1.379 . S
H2035 C2029 0.959 . S
H2036 C2029 0.961 . S
H2037 C2029 0.960 . S
H2038 C2030 0.930 . S
H2039 C2031 0.929 . S
H2040 C2048 0.929 . S
H2041 C2050 0.930 . S
H2042 C2052 0.930 . S
H2043 C2055 0.929 . S
H2044 C2058 0.930 . S
H2045 C2060 0.960 . S
H2046 C2060 0.960 . S
H2047 C2060 0.960 . S
C2048 H2040 0.929 . S
C2048 C2049 1.377 . S
C2048 C2050 1.384 . S
C2049 C2048 1.377 . S
C2049 C2055 1.390 . S
C2050 H2041 0.930 . S
C2050 C2048 1.384 . S
C2050 C2051 1.372 . S
C2051 C2050 1.372 . S
C2051 C2052 1.400 . S
C2051 C2056 1.490 . S
C2052 H2042 0.930 . S
C2052 C2051 1.400 . S
C2052 C2055 1.386 . S
H2053 C2069 0.930 . S
H2054 C2070 0.931 . S
C2055 H2043 0.929 . S
C2055 C2049 1.390 . S
C2055 C2052 1.386 . S
C2056 C2051 1.490 . S
C2056 C2058 1.395 . S
C2056 C2059 1.403 . S
H2057 C2063 0.930 . S
C2058 H2044 0.930 . S
C2058 C2056 1.395 . S
C2058 C2061 1.403 . S
C2059 C2056 1.403 . S
C2059 C2060 1.524 . S
C2059 C2063 1.400 . S
C2060 H2045 0.960 . S
C2060 H2046 0.960 . S
C2060 H2047 0.960 . S
C2060 C2059 1.524 . S
C2061 C2058 1.403 . S
C2061 C2062 1.392 . S
C2061 C2065 1.495 . S
C2062 C2061 1.392 . S
C2062 C2063 1.385 . S
C2062 C2064 1.478 . S
C2063 H2057 0.930 . S
C2063 C2059 1.400 . S
C2063 C2062 1.385 . S
C2064 C2062 1.478 . S
C2064 C2066 1.381 . S
C2064 C2070 1.383 . S
C2065 C2061 1.495 . S
C2065 H2071 0.959 . S
C2065 H2072 0.961 . S
C2065 H2073 0.960 . S
C2066 C2064 1.381 . S
C2066 C2067 1.394 . S
C2066 H2074 0.930 . S
C2067 C2066 1.394 . S
C2067 C2068 1.383 . S
C2067 H2075 0.929 . S
C2068 C2067 1.383 . S
C2068 C2069 1.377 . S
C2069 H2053 0.930 . S
C2069 C2068 1.377 . S
C2069 C2070 1.379 . S
C2070 H2054 0.931 . S
C2070 C2064 1.383 . S
C2070 C2069 1.379 . S
H2071 C2065 0.959 . S
H2072 C2065 0.961 . S
H2073 C2065 0.960 . S
H2074 C2066 0.930 . S
H2075 C2067 0.929 . S
H2076 C2084 0.929 . S
H2077 C2086 0.930 . S
H2078 C2088 0.930 . S
H2079 C2091 0.929 . S
H2080 C2094 0.930 . S
H2081 C2096 0.960 . S
H2082 C2096 0.960 . S
H2083 C2096 0.960 . S
C2084 H2076 0.929 . S
C2084 C2085 1.377 . S
C2084 C2086 1.384 . S
C2085 C2084 1.377 . S
C2085 C2091 1.390 . S
C2086 H2077 0.930 . S
C2086 C2084 1.384 . S
C2086 C2087 1.372 . S
C2087 C2086 1.372 . S
C2087 C2088 1.400 . S
C2087 C2092 1.490 . S
C2088 H2078 0.930 . S
C2088 C2087 1.400 . S
C2088 C2091 1.386 . S
H2089 C2105 0.930 . S
H2090 C2106 0.931 . S
C2091 H2079 0.929 . S
C2091 C2085 1.390 . S
C2091 C2088 1.386 . S
C2092 C2087 1.490 . S
C2092 C2094 1.395 . S
C2092 C2095 1.403 . S
H2093 C2099 0.930 . S
C2094 H2080 0.930 . S
C2094 C2092 1.395 . S
C2094 C2097 1.403 . S
C2095 C2092 1.403 . S
C2095 C2096 1.524 . S
C2095 C2099 1.400 . S
C2096 H2081 0.960 . S
C2096 H2082 0.960 . S
C2096 H2083 0.960 . S
C2096 C2095 1.524 . S
C2097 C2094 1.403 . S
C2097 C2098 1.392 . S
C2097 C2101 1.495 . S
C2098 C2097 1.392 . S
C2098 C2099 1.385 . S
C2098 C2100 1.478 . S
C2099 H2093 0.930 . S
C2099 C2095 1.400 . S
C2099 C2098 1.385 . S
C2100 C2098 1.478 . S
C2100 C2102 1.381 . S
C2100 C2106 1.383 . S
C2101 C2097 1.495 . S
C2101 H2107 0.959 . S
C2101 H2108 0.961 . S
C2101 H2109 0.960 . S
C2102 C2100 1.381 . S
C2102 C2103 1.394 . S
C2102 H2110 0.930 . S
C2103 C2102 1.394 . S
C2103 C2104 1.383 . S
C2103 H2111 0.929 . S
C2104 C2103 1.383 . S
C2104 C2105 1.377 . S
C2105 H2089 0.930 . S
C2105 C2104 1.377 . S
C2105 C2106 1.379 . S
C2106 H2090 0.931 . S
C2106 C2100 1.383 . S
C2106 C2105 1.379 . S
H2107 C2101 0.959 . S
H2108 C2101 0.961 . S
H2109 C2101 0.960 . S
H2110 C2102 0.930 . S
H2111 C2103 0.929 . S
H2112 C2120 0.929 . S
H2113 C2122 0.930 . S
H2114 C2124 0.930 . S
H2115 C2127 0.929 . S
H2116 C2130 0.930 . S
H2117 C2132 0.960 . S
H2118 C2132 0.960 . S
H2119 C2132 0.960 . S
C2120 H2112 0.929 . S
C2120 C2121 1.377 . S
C2120 C2122 1.384 . S
C2121 C2120 1.377 . S
C2121 C2127 1.390 . S
C2122 H2113 0.930 . S
C2122 C2120 1.384 . S
C2122 C2123 1.372 . S
C2123 C2122 1.372 . S
C2123 C2124 1.400 . S
C2123 C2128 1.490 . S
C2124 H2114 0.930 . S
C2124 C2123 1.400 . S
C2124 C2127 1.386 . S
H2125 C2141 0.930 . S
H2126 C2142 0.931 . S
C2127 H2115 0.929 . S
C2127 C2121 1.390 . S
C2127 C2124 1.386 . S
C2128 C2123 1.490 . S
C2128 C2130 1.395 . S
C2128 C2131 1.403 . S
H2129 C2135 0.930 . S
C2130 H2116 0.930 . S
C2130 C2128 1.395 . S
C2130 C2133 1.403 . S
C2131 C2128 1.403 . S
C2131 C2132 1.524 . S
C2131 C2135 1.400 . S
C2132 H2117 0.960 . S
C2132 H2118 0.960 . S
C2132 H2119 0.960 . S
C2132 C2131 1.524 . S
C2133 C2130 1.403 . S
C2133 C2134 1.392 . S
C2133 C2137 1.495 . S
C2134 C2133 1.392 . S
C2134 C2135 1.385 . S
C2134 C2136 1.478 . S
C2135 H2129 0.930 . S
C2135 C2131 1.400 . S
C2135 C2134 1.385 . S
C2136 C2134 1.478 . S
C2136 C2138 1.381 . S
C2136 C2142 1.383 . S
C2137 C2133 1.495 . S
C2137 H2143 0.959 . S
C2137 H2144 0.961 . S
C2137 H2145 0.960 . S
C2138 C2136 1.381 . S
C2138 C2139 1.394 . S
C2138 H2146 0.930 . S
C2139 C2138 1.394 . S
C2139 C2140 1.383 . S
C2139 H2147 0.929 . S
C2140 C2139 1.383 . S
C2140 C2141 1.377 . S
C2141 H2125 0.930 . S
C2141 C2140 1.377 . S
C2141 C2142 1.379 . S
C2142 H2126 0.931 . S
C2142 C2136 1.383 . S
C2142 C2141 1.379 . S
H2143 C2137 0.959 . S
H2144 C2137 0.961 . S
H2145 C2137 0.960 . S
H2146 C2138 0.930 . S
H2147 C2139 0.929 . S
H2148 C2156 0.929 . S
H2149 C2158 0.930 . S
H2150 C2160 0.930 . S
H2151 C2163 0.929 . S
H2152 C2166 0.930 . S
H2153 C2168 0.960 . S
H2154 C2168 0.960 . S
H2155 C2168 0.960 . S
C2156 H2148 0.929 . S
C2156 C2157 1.377 . S
C2156 C2158 1.384 . S
C2157 C2156 1.377 . S
C2157 C2163 1.390 . S
C2158 H2149 0.930 . S
C2158 C2156 1.384 . S
C2158 C2159 1.372 . S
C2159 C2158 1.372 . S
C2159 C2160 1.400 . S
C2159 C2164 1.490 . S
C2160 H2150 0.930 . S
C2160 C2159 1.400 . S
C2160 C2163 1.386 . S
H2161 C2177 0.930 . S
H2162 C2178 0.931 . S
C2163 H2151 0.929 . S
C2163 C2157 1.390 . S
C2163 C2160 1.386 . S
C2164 C2159 1.490 . S
C2164 C2166 1.395 . S
C2164 C2167 1.403 . S
H2165 C2171 0.930 . S
C2166 H2152 0.930 . S
C2166 C2164 1.395 . S
C2166 C2169 1.403 . S
C2167 C2164 1.403 . S
C2167 C2168 1.524 . S
C2167 C2171 1.400 . S
C2168 H2153 0.960 . S
C2168 H2154 0.960 . S
C2168 H2155 0.960 . S
C2168 C2167 1.524 . S
C2169 C2166 1.403 . S
C2169 C2170 1.392 . S
C2169 C2173 1.495 . S
C2170 C2169 1.392 . S
C2170 C2171 1.385 . S
C2170 C2172 1.478 . S
C2171 H2165 0.930 . S
C2171 C2167 1.400 . S
C2171 C2170 1.385 . S
C2172 C2170 1.478 . S
C2172 C2174 1.381 . S
C2172 C2178 1.383 . S
C2173 C2169 1.495 . S
C2173 H2179 0.959 . S
C2173 H2180 0.961 . S
C2173 H2181 0.960 . S
C2174 C2172 1.381 . S
C2174 C2175 1.394 . S
C2174 H2182 0.930 . S
C2175 C2174 1.394 . S
C2175 C2176 1.383 . S
C2175 H2183 0.929 . S
C2176 C2175 1.383 . S
C2176 C2177 1.377 . S
C2177 H2161 0.930 . S
C2177 C2176 1.377 . S
C2177 C2178 1.379 . S
C2178 H2162 0.931 . S
C2178 C2172 1.383 . S
C2178 C2177 1.379 . S
H2179 C2173 0.959 . S
H2180 C2173 0.961 . S
H2181 C2173 0.960 . S
H2182 C2174 0.930 . S
H2183 C2175 0.929 . S
H2184 C2192 0.929 . S
H2185 C2194 0.930 . S
H2186 C2196 0.930 . S
H2187 C2199 0.929 . S
H2188 C2202 0.930 . S
H2189 C2204 0.960 . S
H2190 C2204 0.960 . S
H2191 C2204 0.960 . S
C2192 H2184 0.929 . S
C2192 C2193 1.377 . S
C2192 C2194 1.384 . S
C2193 C2192 1.377 . S
C2193 C2199 1.390 . S
C2194 H2185 0.930 . S
C2194 C2192 1.384 . S
C2194 C2195 1.372 . S
C2195 C2194 1.372 . S
C2195 C2196 1.400 . S
C2195 C2200 1.490 . S
C2196 H2186 0.930 . S
C2196 C2195 1.400 . S
C2196 C2199 1.386 . S
H2197 C2213 0.930 . S
H2198 C2214 0.931 . S
C2199 H2187 0.929 . S
C2199 C2193 1.390 . S
C2199 C2196 1.386 . S
C2200 C2195 1.490 . S
C2200 C2202 1.395 . S
C2200 C2203 1.403 . S
H2201 C2207 0.930 . S
C2202 H2188 0.930 . S
C2202 C2200 1.395 . S
C2202 C2205 1.403 . S
C2203 C2200 1.403 . S
C2203 C2204 1.524 . S
C2203 C2207 1.400 . S
C2204 H2189 0.960 . S
C2204 H2190 0.960 . S
C2204 H2191 0.960 . S
C2204 C2203 1.524 . S
C2205 C2202 1.403 . S
C2205 C2206 1.392 . S
C2205 C2209 1.495 . S
C2206 C2205 1.392 . S
C2206 C2207 1.385 . S
C2206 C2208 1.478 . S
C2207 H2201 0.930 . S
C2207 C2203 1.400 . S
C2207 C2206 1.385 . S
C2208 C2206 1.478 . S
C2208 C2210 1.381 . S
C2208 C2214 1.383 . S
C2209 C2205 1.495 . S
C2209 H2215 0.959 . S
C2209 H2216 0.961 . S
C2209 H2217 0.960 . S
C2210 C2208 1.381 . S
C2210 C2211 1.394 . S
C2210 H2218 0.930 . S
C2211 C2210 1.394 . S
C2211 C2212 1.383 . S
C2211 H2219 0.929 . S
C2212 C2211 1.383 . S
C2212 C2213 1.377 . S
C2213 H2197 0.930 . S
C2213 C2212 1.377 . S
C2213 C2214 1.379 . S
C2214 H2198 0.931 . S
C2214 C2208 1.383 . S
C2214 C2213 1.379 . S
H2215 C2209 0.959 . S
H2216 C2209 0.961 . S
H2217 C2209 0.960 . S
H2218 C2210 0.930 . S
H2219 C2211 0.929 . S
H2220 C2228 0.929 . S
H2221 C2230 0.930 . S
H2222 C2232 0.930 . S
H2223 C2235 0.929 . S
H2224 C2238 0.930 . S
H2225 C2240 0.960 . S
H2226 C2240 0.960 . S
H2227 C2240 0.960 . S
C2228 H2220 0.929 . S
C2228 C2229 1.377 . S
C2228 C2230 1.384 . S
C2229 C2228 1.377 . S
C2229 C2235 1.390 . S
C2230 H2221 0.930 . S
C2230 C2228 1.384 . S
C2230 C2231 1.372 . S
C2231 C2230 1.372 . S
C2231 C2232 1.400 . S
C2231 C2236 1.490 . S
C2232 H2222 0.930 . S
C2232 C2231 1.400 . S
C2232 C2235 1.386 . S
H2233 C2249 0.930 . S
H2234 C2250 0.931 . S
C2235 H2223 0.929 . S
C2235 C2229 1.390 . S
C2235 C2232 1.386 . S
C2236 C2231 1.490 . S
C2236 C2238 1.395 . S
C2236 C2239 1.403 . S
H2237 C2243 0.930 . S
C2238 H2224 0.930 . S
C2238 C2236 1.395 . S
C2238 C2241 1.403 . S
C2239 C2236 1.403 . S
C2239 C2240 1.524 . S
C2239 C2243 1.400 . S
C2240 H2225 0.960 . S
C2240 H2226 0.960 . S
C2240 H2227 0.960 . S
C2240 C2239 1.524 . S
C2241 C2238 1.403 . S
C2241 C2242 1.392 . S
C2241 C2245 1.495 . S
C2242 C2241 1.392 . S
C2242 C2243 1.385 . S
C2242 C2244 1.478 . S
C2243 H2237 0.930 . S
C2243 C2239 1.400 . S
C2243 C2242 1.385 . S
C2244 C2242 1.478 . S
C2244 C2246 1.381 . S
C2244 C2250 1.383 . S
C2245 C2241 1.495 . S
C2245 H2251 0.959 . S
C2245 H2252 0.961 . S
C2245 H2253 0.960 . S
C2246 C2244 1.381 . S
C2246 C2247 1.394 . S
C2246 H2254 0.930 . S
C2247 C2246 1.394 . S
C2247 C2248 1.383 . S
C2247 H2255 0.929 . S
C2248 C2247 1.383 . S
C2248 C2249 1.377 . S
C2249 H2233 0.930 . S
C2249 C2248 1.377 . S
C2249 C2250 1.379 . S
C2250 H2234 0.931 . S
C2250 C2244 1.383 . S
C2250 C2249 1.379 . S
H2251 C2245 0.959 . S
H2252 C2245 0.961 . S
H2253 C2245 0.960 . S
H2254 C2246 0.930 . S
H2255 C2247 0.929 . S
H2256 C2264 0.929 . S
H2257 C2266 0.930 . S
H2258 C2268 0.930 . S
H2259 C2271 0.929 . S
H2260 C2274 0.930 . S
H2261 C2276 0.960 . S
H2262 C2276 0.960 . S
H2263 C2276 0.960 . S
C2264 H2256 0.929 . S
C2264 C2265 1.377 . S
C2264 C2266 1.384 . S
C2265 C2264 1.377 . S
C2265 C2271 1.390 . S
C2266 H2257 0.930 . S
C2266 C2264 1.384 . S
C2266 C2267 1.372 . S
C2267 C2266 1.372 . S
C2267 C2268 1.400 . S
C2267 C2272 1.490 . S
C2268 H2258 0.930 . S
C2268 C2267 1.400 . S
C2268 C2271 1.386 . S
H2269 C2285 0.930 . S
H2270 C2286 0.931 . S
C2271 H2259 0.929 . S
C2271 C2265 1.390 . S
C2271 C2268 1.386 . S
C2272 C2267 1.490 . S
C2272 C2274 1.395 . S
C2272 C2275 1.403 . S
H2273 C2279 0.930 . S
C2274 H2260 0.930 . S
C2274 C2272 1.395 . S
C2274 C2277 1.403 . S
C2275 C2272 1.403 . S
C2275 C2276 1.524 . S
C2275 C2279 1.400 . S
C2276 H2261 0.960 . S
C2276 H2262 0.960 . S
C2276 H2263 0.960 . S
C2276 C2275 1.524 . S
C2277 C2274 1.403 . S
C2277 C2278 1.392 . S
C2277 C2281 1.495 . S
C2278 C2277 1.392 . S
C2278 C2279 1.385 . S
C2278 C2280 1.478 . S
C2279 H2273 0.930 . S
C2279 C2275 1.400 . S
C2279 C2278 1.385 . S
C2280 C2278 1.478 . S
C2280 C2282 1.381 . S
C2280 C2286 1.383 . S
C2281 C2277 1.495 . S
C2281 H2287 0.959 . S
C2281 H2288 0.961 . S
C2281 H2289 0.960 . S
C2282 C2280 1.381 . S
C2282 C2283 1.394 . S
C2282 H2290 0.930 . S
C2283 C2282 1.394 . S
C2283 C2284 1.383 . S
C2283 H2291 0.929 . S
C2284 C2283 1.383 . S
C2284 C2285 1.377 . S
C2285 H2269 0.930 . S
C2285 C2284 1.377 . S
C2285 C2286 1.379 . S
C2286 H2270 0.931 . S
C2286 C2280 1.383 . S
C2286 C2285 1.379 . S
H2287 C2281 0.959 . S
H2288 C2281 0.961 . S
H2289 C2281 0.960 . S
H2290 C2282 0.930 . S
H2291 C2283 0.929 . S
H2292 C2300 0.929 . S
H2293 C2302 0.930 . S
H2294 C2304 0.930 . S
H2295 C2307 0.929 . S
H2296 C2310 0.930 . S
H2297 C2312 0.960 . S
H2298 C2312 0.960 . S
H2299 C2312 0.960 . S
C2300 H2292 0.929 . S
C2300 C2301 1.377 . S
C2300 C2302 1.384 . S
C2301 C2300 1.377 . S
C2301 C2307 1.390 . S
C2302 H2293 0.930 . S
C2302 C2300 1.384 . S
C2302 C2303 1.372 . S
C2303 C2302 1.372 . S
C2303 C2304 1.400 . S
C2303 C2308 1.490 . S
C2304 H2294 0.930 . S
C2304 C2303 1.400 . S
C2304 C2307 1.386 . S
H2305 C2321 0.930 . S
H2306 C2322 0.931 . S
C2307 H2295 0.929 . S
C2307 C2301 1.390 . S
C2307 C2304 1.386 . S
C2308 C2303 1.490 . S
C2308 C2310 1.395 . S
C2308 C2311 1.403 . S
H2309 C2315 0.930 . S
C2310 H2296 0.930 . S
C2310 C2308 1.395 . S
C2310 C2313 1.403 . S
C2311 C2308 1.403 . S
C2311 C2312 1.524 . S
C2311 C2315 1.400 . S
C2312 H2297 0.960 . S
C2312 H2298 0.960 . S
C2312 H2299 0.960 . S
C2312 C2311 1.524 . S
C2313 C2310 1.403 . S
C2313 C2314 1.392 . S
C2313 C2317 1.495 . S
C2314 C2313 1.392 . S
C2314 C2315 1.385 . S
C2314 C2316 1.478 . S
C2315 H2309 0.930 . S
C2315 C2311 1.400 . S
C2315 C2314 1.385 . S
C2316 C2314 1.478 . S
C2316 C2318 1.381 . S
C2316 C2322 1.383 . S
C2317 C2313 1.495 . S
C2317 H2323 0.959 . S
C2317 H2324 0.961 . S
C2317 H2325 0.960 . S
C2318 C2316 1.381 . S
C2318 C2319 1.394 . S
C2318 H2326 0.930 . S
C2319 C2318 1.394 . S
C2319 C2320 1.383 . S
C2319 H2327 0.929 . S
C2320 C2319 1.383 . S
C2320 C2321 1.377 . S
C2321 H2305 0.930 . S
C2321 C2320 1.377 . S
C2321 C2322 1.379 . S
C2322 H2306 0.931 . S
C2322 C2316 1.383 . S
C2322 C2321 1.379 . S
H2323 C2317 0.959 . S
H2324 C2317 0.961 . S
H2325 C2317 0.960 . S
H2326 C2318 0.930 . S
H2327 C2319 0.929 . S
H2328 C2336 0.929 . S
H2329 C2338 0.930 . S
H2330 C2340 0.930 . S
H2331 C2343 0.929 . S
H2332 C2346 0.930 . S
H2333 C2348 0.960 . S
H2334 C2348 0.960 . S
H2335 C2348 0.960 . S
C2336 H2328 0.929 . S
C2336 C2337 1.377 . S
C2336 C2338 1.384 . S
C2337 C2336 1.377 . S
C2337 C2343 1.390 . S
C2338 H2329 0.930 . S
C2338 C2336 1.384 . S
C2338 C2339 1.372 . S
C2339 C2338 1.372 . S
C2339 C2340 1.400 . S
C2339 C2344 1.490 . S
C2340 H2330 0.930 . S
C2340 C2339 1.400 . S
C2340 C2343 1.386 . S
H2341 C2357 0.930 . S
H2342 C2358 0.931 . S
C2343 H2331 0.929 . S
C2343 C2337 1.390 . S
C2343 C2340 1.386 . S
C2344 C2339 1.490 . S
C2344 C2346 1.395 . S
C2344 C2347 1.403 . S
H2345 C2351 0.930 . S
C2346 H2332 0.930 . S
C2346 C2344 1.395 . S
C2346 C2349 1.403 . S
C2347 C2344 1.403 . S
C2347 C2348 1.524 . S
C2347 C2351 1.400 . S
C2348 H2333 0.960 . S
C2348 H2334 0.960 . S
C2348 H2335 0.960 . S
C2348 C2347 1.524 . S
C2349 C2346 1.403 . S
C2349 C2350 1.392 . S
C2349 C2353 1.495 . S
C2350 C2349 1.392 . S
C2350 C2351 1.385 . S
C2350 C2352 1.478 . S
C2351 H2345 0.930 . S
C2351 C2347 1.400 . S
C2351 C2350 1.385 . S
C2352 C2350 1.478 . S
C2352 C2354 1.381 . S
C2352 C2358 1.383 . S
C2353 C2349 1.495 . S
C2353 H2359 0.959 . S
C2353 H2360 0.961 . S
C2353 H2361 0.960 . S
C2354 C2352 1.381 . S
C2354 C2355 1.394 . S
C2354 H2362 0.930 . S
C2355 C2354 1.394 . S
C2355 C2356 1.383 . S
C2355 H2363 0.929 . S
C2356 C2355 1.383 . S
C2356 C2357 1.377 . S
C2357 H2341 0.930 . S
C2357 C2356 1.377 . S
C2357 C2358 1.379 . S
C2358 H2342 0.931 . S
C2358 C2352 1.383 . S
C2358 C2357 1.379 . S
H2359 C2353 0.959 . S
H2360 C2353 0.961 . S
H2361 C2353 0.960 . S
H2362 C2354 0.930 . S
H2363 C2355 0.929 . S
H2364 C2372 0.929 . S
H2365 C2374 0.930 . S
H2366 C2376 0.930 . S
H2367 C2379 0.929 . S
H2368 C2382 0.930 . S
H2369 C2384 0.960 . S
H2370 C2384 0.960 . S
H2371 C2384 0.960 . S
C2372 H2364 0.929 . S
C2372 C2373 1.377 . S
C2372 C2374 1.384 . S
C2373 C2372 1.377 . S
C2373 C2379 1.390 . S
C2374 H2365 0.930 . S
C2374 C2372 1.384 . S
C2374 C2375 1.372 . S
C2375 C2374 1.372 . S
C2375 C2376 1.400 . S
C2375 C2380 1.490 . S
C2376 H2366 0.930 . S
C2376 C2375 1.400 . S
C2376 C2379 1.386 . S
H2377 C2393 0.930 . S
H2378 C2394 0.931 . S
C2379 H2367 0.929 . S
C2379 C2373 1.390 . S
C2379 C2376 1.386 . S
C2380 C2375 1.490 . S
C2380 C2382 1.395 . S
C2380 C2383 1.403 . S
H2381 C2387 0.930 . S
C2382 H2368 0.930 . S
C2382 C2380 1.395 . S
C2382 C2385 1.403 . S
C2383 C2380 1.403 . S
C2383 C2384 1.524 . S
C2383 C2387 1.400 . S
C2384 H2369 0.960 . S
C2384 H2370 0.960 . S
C2384 H2371 0.960 . S
C2384 C2383 1.524 . S
C2385 C2382 1.403 . S
C2385 C2386 1.392 . S
C2385 C2389 1.495 . S
C2386 C2385 1.392 . S
C2386 C2387 1.385 . S
C2386 C2388 1.478 . S
C2387 H2381 0.930 . S
C2387 C2383 1.400 . S
C2387 C2386 1.385 . S
C2388 C2386 1.478 . S
C2388 C2390 1.381 . S
C2388 C2394 1.383 . S
C2389 C2385 1.495 . S
C2389 H2395 0.959 . S
C2389 H2396 0.961 . S
C2389 H2397 0.960 . S
C2390 C2388 1.381 . S
C2390 C2391 1.394 . S
C2390 H2398 0.930 . S
C2391 C2390 1.394 . S
C2391 C2392 1.383 . S
C2391 H2399 0.929 . S
C2392 C2391 1.383 . S
C2392 C2393 1.377 . S
C2393 H2377 0.930 . S
C2393 C2392 1.377 . S
C2393 C2394 1.379 . S
C2394 H2378 0.931 . S
C2394 C2388 1.383 . S
C2394 C2393 1.379 . S
H2395 C2389 0.959 . S
H2396 C2389 0.961 . S
H2397 C2389 0.960 . S
H2398 C2390 0.930 . S
H2399 C2391 0.929 . S
H2400 C2408 0.929 . S
H2401 C2410 0.930 . S
H2402 C2412 0.930 . S
H2403 C2415 0.929 . S
H2404 C2418 0.930 . S
H2405 C2420 0.960 . S
H2406 C2420 0.960 . S
H2407 C2420 0.960 . S
C2408 H2400 0.929 . S
C2408 C2409 1.377 . S
C2408 C2410 1.384 . S
C2409 C2408 1.377 . S
C2409 C2415 1.390 . S
C2410 H2401 0.930 . S
C2410 C2408 1.384 . S
C2410 C2411 1.372 . S
C2411 C2410 1.372 . S
C2411 C2412 1.400 . S
C2411 C2416 1.490 . S
C2412 H2402 0.930 . S
C2412 C2411 1.400 . S
C2412 C2415 1.386 . S
H2413 C2429 0.930 . S
H2414 C2430 0.931 . S
C2415 H2403 0.929 . S
C2415 C2409 1.390 . S
C2415 C2412 1.386 . S
C2416 C2411 1.490 . S
C2416 C2418 1.395 . S
C2416 C2419 1.403 . S
H2417 C2423 0.930 . S
C2418 H2404 0.930 . S
C2418 C2416 1.395 . S
C2418 C2421 1.403 . S
C2419 C2416 1.403 . S
C2419 C2420 1.524 . S
C2419 C2423 1.400 . S
C2420 H2405 0.960 . S
C2420 H2406 0.960 . S
C2420 H2407 0.960 . S
C2420 C2419 1.524 . S
C2421 C2418 1.403 . S
C2421 C2422 1.392 . S
C2421 C2425 1.495 . S
C2422 C2421 1.392 . S
C2422 C2423 1.385 . S
C2422 C2424 1.478 . S
C2423 H2417 0.930 . S
C2423 C2419 1.400 . S
C2423 C2422 1.385 . S
C2424 C2422 1.478 . S
C2424 C2426 1.381 . S
C2424 C2430 1.383 . S
C2425 C2421 1.495 . S
C2425 H2431 0.959 . S
C2425 H2432 0.961 . S
C2425 H2433 0.960 . S
C2426 C2424 1.381 . S
C2426 C2427 1.394 . S
C2426 H2434 0.930 . S
C2427 C2426 1.394 . S
C2427 C2428 1.383 . S
C2427 H2435 0.929 . S
C2428 C2427 1.383 . S
C2428 C2429 1.377 . S
C2429 H2413 0.930 . S
C2429 C2428 1.377 . S
C2429 C2430 1.379 . S
C2430 H2414 0.931 . S
C2430 C2424 1.383 . S
C2430 C2429 1.379 . S
H2431 C2425 0.959 . S
H2432 C2425 0.961 . S
H2433 C2425 0.960 . S
H2434 C2426 0.930 . S
H2435 C2427 0.929 . S
H2436 C2444 0.929 . S
H2437 C2446 0.930 . S
H2438 C2448 0.930 . S
H2439 C2451 0.929 . S
H2440 C2454 0.930 . S
H2441 C2456 0.960 . S
H2442 C2456 0.960 . S
H2443 C2456 0.960 . S
C2444 H2436 0.929 . S
C2444 C2445 1.377 . S
C2444 C2446 1.384 . S
C2445 C2444 1.377 . S
C2445 C2451 1.390 . S
C2446 H2437 0.930 . S
C2446 C2444 1.384 . S
C2446 C2447 1.372 . S
C2447 C2446 1.372 . S
C2447 C2448 1.400 . S
C2447 C2452 1.490 . S
C2448 H2438 0.930 . S
C2448 C2447 1.400 . S
C2448 C2451 1.386 . S
H2449 C2465 0.930 . S
H2450 C2466 0.931 . S
C2451 H2439 0.929 . S
C2451 C2445 1.390 . S
C2451 C2448 1.386 . S
C2452 C2447 1.490 . S
C2452 C2454 1.395 . S
C2452 C2455 1.403 . S
H2453 C2459 0.930 . S
C2454 H2440 0.930 . S
C2454 C2452 1.395 . S
C2454 C2457 1.403 . S
C2455 C2452 1.403 . S
C2455 C2456 1.524 . S
C2455 C2459 1.400 . S
C2456 H2441 0.960 . S
C2456 H2442 0.960 . S
C2456 H2443 0.960 . S
C2456 C2455 1.524 . S
C2457 C2454 1.403 . S
C2457 C2458 1.392 . S
C2457 C2461 1.495 . S
C2458 C2457 1.392 . S
C2458 C2459 1.385 . S
C2458 C2460 1.478 . S
C2459 H2453 0.930 . S
C2459 C2455 1.400 . S
C2459 C2458 1.385 . S
C2460 C2458 1.478 . S
C2460 C2462 1.381 . S
C2460 C2466 1.383 . S
C2461 C2457 1.495 . S
C2461 H2467 0.959 . S
C2461 H2468 0.961 . S
C2461 H2469 0.960 . S
C2462 C2460 1.381 . S
C2462 C2463 1.394 . S
C2462 H2470 0.930 . S
C2463 C2462 1.394 . S
C2463 C2464 1.383 . S
C2463 H2471 0.929 . S
C2464 C2463 1.383 . S
C2464 C2465 1.377 . S
C2465 H2449 0.930 . S
C2465 C2464 1.377 . S
C2465 C2466 1.379 . S
C2466 H2450 0.931 . S
C2466 C2460 1.383 . S
C2466 C2465 1.379 . S
H2467 C2461 0.959 . S
H2468 C2461 0.961 . S
H2469 C2461 0.960 . S
H2470 C2462 0.930 . S
H2471 C2463 0.929 . S
H2472 C2480 0.929 . S
H2473 C2482 0.930 . S
H2474 C2484 0.930 . S
H2475 C2487 0.929 . S
H2476 C2490 0.930 . S
H2477 C2492 0.960 . S
H2478 C2492 0.960 . S
H2479 C2492 0.960 . S
C2480 H2472 0.929 . S
C2480 C2481 1.377 . S
C2480 C2482 1.384 . S
C2481 C2480 1.377 . S
C2481 C2487 1.390 . S
C2482 H2473 0.930 . S
C2482 C2480 1.384 . S
C2482 C2483 1.372 . S
C2483 C2482 1.372 . S
C2483 C2484 1.400 . S
C2483 C2488 1.490 . S
C2484 H2474 0.930 . S
C2484 C2483 1.400 . S
C2484 C2487 1.386 . S
H2485 C2501 0.930 . S
H2486 C2502 0.931 . S
C2487 H2475 0.929 . S
C2487 C2481 1.390 . S
C2487 C2484 1.386 . S
C2488 C2483 1.490 . S
C2488 C2490 1.395 . S
C2488 C2491 1.403 . S
H2489 C2495 0.930 . S
C2490 H2476 0.930 . S
C2490 C2488 1.395 . S
C2490 C2493 1.403 . S
C2491 C2488 1.403 . S
C2491 C2492 1.524 . S
C2491 C2495 1.400 . S
C2492 H2477 0.960 . S
C2492 H2478 0.960 . S
C2492 H2479 0.960 . S
C2492 C2491 1.524 . S
C2493 C2490 1.403 . S
C2493 C2494 1.392 . S
C2493 C2497 1.495 . S
C2494 C2493 1.392 . S
C2494 C2495 1.385 . S
C2494 C2496 1.478 . S
C2495 H2489 0.930 . S
C2495 C2491 1.400 . S
C2495 C2494 1.385 . S
C2496 C2494 1.478 . S
C2496 C2498 1.381 . S
C2496 C2502 1.383 . S
C2497 C2493 1.495 . S
C2497 H2503 0.959 . S
C2497 H2504 0.961 . S
C2497 H2505 0.960 . S
C2498 C2496 1.381 . S
C2498 C2499 1.394 . S
C2498 H2506 0.930 . S
C2499 C2498 1.394 . S
C2499 C2500 1.383 . S
C2499 H2507 0.929 . S
C2500 C2499 1.383 . S
C2500 C2501 1.377 . S
C2501 H2485 0.930 . S
C2501 C2500 1.377 . S
C2501 C2502 1.379 . S
C2502 H2486 0.931 . S
C2502 C2496 1.383 . S
C2502 C2501 1.379 . S
H2503 C2497 0.959 . S
H2504 C2497 0.961 . S
H2505 C2497 0.960 . S
H2506 C2498 0.930 . S
H2507 C2499 0.929 . S
H2508 C2516 0.929 . S
H2509 C2518 0.930 . S
H2510 C2520 0.930 . S
H2511 C2523 0.929 . S
H2512 C2526 0.930 . S
H2513 C2528 0.960 . S
H2514 C2528 0.960 . S
H2515 C2528 0.960 . S
C2516 H2508 0.929 . S
C2516 C2517 1.377 . S
C2516 C2518 1.384 . S
C2517 C2516 1.377 . S
C2517 C2523 1.390 . S
C2518 H2509 0.930 . S
C2518 C2516 1.384 . S
C2518 C2519 1.372 . S
C2519 C2518 1.372 . S
C2519 C2520 1.400 . S
C2519 C2524 1.490 . S
C2520 H2510 0.930 . S
C2520 C2519 1.400 . S
C2520 C2523 1.386 . S
H2521 C2537 0.930 . S
H2522 C2538 0.931 . S
C2523 H2511 0.929 . S
C2523 C2517 1.390 . S
C2523 C2520 1.386 . S
C2524 C2519 1.490 . S
C2524 C2526 1.395 . S
C2524 C2527 1.403 . S
H2525 C2531 0.930 . S
C2526 H2512 0.930 . S
C2526 C2524 1.395 . S
C2526 C2529 1.403 . S
C2527 C2524 1.403 . S
C2527 C2528 1.524 . S
C2527 C2531 1.400 . S
C2528 H2513 0.960 . S
C2528 H2514 0.960 . S
C2528 H2515 0.960 . S
C2528 C2527 1.524 . S
C2529 C2526 1.403 . S
C2529 C2530 1.392 . S
C2529 C2533 1.495 . S
C2530 C2529 1.392 . S
C2530 C2531 1.385 . S
C2530 C2532 1.478 . S
C2531 H2525 0.930 . S
C2531 C2527 1.400 . S
C2531 C2530 1.385 . S
C2532 C2530 1.478 . S
C2532 C2534 1.381 . S
C2532 C2538 1.383 . S
C2533 C2529 1.495 . S
C2533 H2539 0.959 . S
C2533 H2540 0.961 . S
C2533 H2541 0.960 . S
C2534 C2532 1.381 . S
C2534 C2535 1.394 . S
C2534 H2542 0.930 . S
C2535 C2534 1.394 . S
C2535 C2536 1.383 . S
C2535 H2543 0.929 . S
C2536 C2535 1.383 . S
C2536 C2537 1.377 . S
C2537 H2521 0.930 . S
C2537 C2536 1.377 . S
C2537 C2538 1.379 . S
C2538 H2522 0.931 . S
C2538 C2532 1.383 . S
C2538 C2537 1.379 . S
H2539 C2533 0.959 . S
H2540 C2533 0.961 . S
H2541 C2533 0.960 . S
H2542 C2534 0.930 . S
H2543 C2535 0.929 . S
H2544 C2552 0.929 . S
H2545 C2554 0.930 . S
H2546 C2556 0.930 . S
H2547 C2559 0.929 . S
H2548 C2562 0.930 . S
H2549 C2564 0.960 . S
H2550 C2564 0.960 . S
H2551 C2564 0.960 . S
C2552 H2544 0.929 . S
C2552 C2553 1.377 . S
C2552 C2554 1.384 . S
C2553 C2552 1.377 . S
C2553 C2559 1.390 . S
C2554 H2545 0.930 . S
C2554 C2552 1.384 . S
C2554 C2555 1.372 . S
C2555 C2554 1.372 . S
C2555 C2556 1.400 . S
C2555 C2560 1.490 . S
C2556 H2546 0.930 . S
C2556 C2555 1.400 . S
C2556 C2559 1.386 . S
H2557 C2573 0.930 . S
H2558 C2574 0.931 . S
C2559 H2547 0.929 . S
C2559 C2553 1.390 . S
C2559 C2556 1.386 . S
C2560 C2555 1.490 . S
C2560 C2562 1.395 . S
C2560 C2563 1.403 . S
H2561 C2567 0.930 . S
C2562 H2548 0.930 . S
C2562 C2560 1.395 . S
C2562 C2565 1.403 . S
C2563 C2560 1.403 . S
C2563 C2564 1.524 . S
C2563 C2567 1.400 . S
C2564 H2549 0.960 . S
C2564 H2550 0.960 . S
C2564 H2551 0.960 . S
C2564 C2563 1.524 . S
C2565 C2562 1.403 . S
C2565 C2566 1.392 . S
C2565 C2569 1.495 . S
C2566 C2565 1.392 . S
C2566 C2567 1.385 . S
C2566 C2568 1.478 . S
C2567 H2561 0.930 . S
C2567 C2563 1.400 . S
C2567 C2566 1.385 . S
C2568 C2566 1.478 . S
C2568 C2570 1.381 . S
C2568 C2574 1.383 . S
C2569 C2565 1.495 . S
C2569 H2575 0.959 . S
C2569 H2576 0.961 . S
C2569 H2577 0.960 . S
C2570 C2568 1.381 . S
C2570 C2571 1.394 . S
C2570 H2578 0.930 . S
C2571 C2570 1.394 . S
C2571 C2572 1.383 . S
C2571 H2579 0.929 . S
C2572 C2571 1.383 . S
C2572 C2573 1.377 . S
C2573 H2557 0.930 . S
C2573 C2572 1.377 . S
C2573 C2574 1.379 . S
C2574 H2558 0.931 . S
C2574 C2568 1.383 . S
C2574 C2573 1.379 . S
H2575 C2569 0.959 . S
H2576 C2569 0.961 . S
H2577 C2569 0.960 . S
H2578 C2570 0.930 . S
H2579 C2571 0.929 . S
H2580 C2588 0.929 . S
H2581 C2590 0.930 . S
H2582 C2592 0.930 . S
H2583 C2595 0.929 . S
H2584 C2598 0.930 . S
H2585 C2600 0.960 . S
H2586 C2600 0.960 . S
H2587 C2600 0.960 . S
C2588 H2580 0.929 . S
C2588 C2589 1.377 . S
C2588 C2590 1.384 . S
C2589 C2588 1.377 . S
C2589 C2595 1.390 . S
C2590 H2581 0.930 . S
C2590 C2588 1.384 . S
C2590 C2591 1.372 . S
C2591 C2590 1.372 . S
C2591 C2592 1.400 . S
C2591 C2596 1.490 . S
C2592 H2582 0.930 . S
C2592 C2591 1.400 . S
C2592 C2595 1.386 . S
H2593 C2609 0.930 . S
H2594 C2610 0.931 . S
C2595 H2583 0.929 . S
C2595 C2589 1.390 . S
C2595 C2592 1.386 . S
C2596 C2591 1.490 . S
C2596 C2598 1.395 . S
C2596 C2599 1.403 . S
H2597 C2603 0.930 . S
C2598 H2584 0.930 . S
C2598 C2596 1.395 . S
C2598 C2601 1.403 . S
C2599 C2596 1.403 . S
C2599 C2600 1.524 . S
C2599 C2603 1.400 . S
C2600 H2585 0.960 . S
C2600 H2586 0.960 . S
C2600 H2587 0.960 . S
C2600 C2599 1.524 . S
C2601 C2598 1.403 . S
C2601 C2602 1.392 . S
C2601 C2605 1.495 . S
C2602 C2601 1.392 . S
C2602 C2603 1.385 . S
C2602 C2604 1.478 . S
C2603 H2597 0.930 . S
C2603 C2599 1.400 . S
C2603 C2602 1.385 . S
C2604 C2602 1.478 . S
C2604 C2606 1.381 . S
C2604 C2610 1.383 . S
C2605 C2601 1.495 . S
C2605 H2611 0.959 . S
C2605 H2612 0.961 . S
C2605 H2613 0.960 . S
C2606 C2604 1.381 . S
C2606 C2607 1.394 . S
C2606 H2614 0.930 . S
C2607 C2606 1.394 . S
C2607 C2608 1.383 . S
C2607 H2615 0.929 . S
C2608 C2607 1.383 . S
C2608 C2609 1.377 . S
C2609 H2593 0.930 . S
C2609 C2608 1.377 . S
C2609 C2610 1.379 . S
C2610 H2594 0.931 . S
C2610 C2604 1.383 . S
C2610 C2609 1.379 . S
H2611 C2605 0.959 . S
H2612 C2605 0.961 . S
H2613 C2605 0.960 . S
H2614 C2606 0.930 . S
H2615 C2607 0.929 . S
H2616 C2624 0.929 . S
H2617 C2626 0.930 . S
H2618 C2628 0.930 . S
H2619 C2631 0.929 . S
H2620 C2634 0.930 . S
H2621 C2636 0.960 . S
H2622 C2636 0.960 . S
H2623 C2636 0.960 . S
C2624 H2616 0.929 . S
C2624 C2625 1.377 . S
C2624 C2626 1.384 . S
C2625 C2624 1.377 . S
C2625 C2631 1.390 . S
C2626 H2617 0.930 . S
C2626 C2624 1.384 . S
C2626 C2627 1.372 . S
C2627 C2626 1.372 . S
C2627 C2628 1.400 . S
C2627 C2632 1.490 . S
C2628 H2618 0.930 . S
C2628 C2627 1.400 . S
C2628 C2631 1.386 . S
H2629 C2645 0.930 . S
H2630 C2646 0.931 . S
C2631 H2619 0.929 . S
C2631 C2625 1.390 . S
C2631 C2628 1.386 . S
C2632 C2627 1.490 . S
C2632 C2634 1.395 . S
C2632 C2635 1.403 . S
H2633 C2639 0.930 . S
C2634 H2620 0.930 . S
C2634 C2632 1.395 . S
C2634 C2637 1.403 . S
C2635 C2632 1.403 . S
C2635 C2636 1.524 . S
C2635 C2639 1.400 . S
C2636 H2621 0.960 . S
C2636 H2622 0.960 . S
C2636 H2623 0.960 . S
C2636 C2635 1.524 . S
C2637 C2634 1.403 . S
C2637 C2638 1.392 . S
C2637 C2641 1.495 . S
C2638 C2637 1.392 . S
C2638 C2639 1.385 . S
C2638 C2640 1.478 . S
C2639 H2633 0.930 . S
C2639 C2635 1.400 . S
C2639 C2638 1.385 . S
C2640 C2638 1.478 . S
C2640 C2642 1.381 . S
C2640 C2646 1.383 . S
C2641 C2637 1.495 . S
C2641 H2647 0.959 . S
C2641 H2648 0.961 . S
C2641 H2649 0.960 . S
C2642 C2640 1.381 . S
C2642 C2643 1.394 . S
C2642 H2650 0.930 . S
C2643 C2642 1.394 . S
C2643 C2644 1.383 . S
C2643 H2651 0.929 . S
C2644 C2643 1.383 . S
C2644 C2645 1.377 . S
C2645 H2629 0.930 . S
C2645 C2644 1.377 . S
C2645 C2646 1.379 . S
C2646 H2630 0.931 . S
C2646 C2640 1.383 . S
C2646 C2645 1.379 . S
H2647 C2641 0.959 . S
H2648 C2641 0.961 . S
H2649 C2641 0.960 . S
H2650 C2642 0.930 . S
H2651 C2643 0.929 . S
H2652 C2660 0.929 . S
H2653 C2662 0.930 . S
H2654 C2664 0.930 . S
H2655 C2667 0.929 . S
H2656 C2670 0.930 . S
H2657 C2672 0.960 . S
H2658 C2672 0.960 . S
H2659 C2672 0.960 . S
C2660 H2652 0.929 . S
C2660 C2661 1.377 . S
C2660 C2662 1.384 . S
C2661 C2660 1.377 . S
C2661 C2667 1.390 . S
C2662 H2653 0.930 . S
C2662 C2660 1.384 . S
C2662 C2663 1.372 . S
C2663 C2662 1.372 . S
C2663 C2664 1.400 . S
C2663 C2668 1.490 . S
C2664 H2654 0.930 . S
C2664 C2663 1.400 . S
C2664 C2667 1.386 . S
H2665 C2681 0.930 . S
H2666 C2682 0.931 . S
C2667 H2655 0.929 . S
C2667 C2661 1.390 . S
C2667 C2664 1.386 . S
C2668 C2663 1.490 . S
C2668 C2670 1.395 . S
C2668 C2671 1.403 . S
H2669 C2675 0.930 . S
C2670 H2656 0.930 . S
C2670 C2668 1.395 . S
C2670 C2673 1.403 . S
C2671 C2668 1.403 . S
C2671 C2672 1.524 . S
C2671 C2675 1.400 . S
C2672 H2657 0.960 . S
C2672 H2658 0.960 . S
C2672 H2659 0.960 . S
C2672 C2671 1.524 . S
C2673 C2670 1.403 . S
C2673 C2674 1.392 . S
C2673 C2677 1.495 . S
C2674 C2673 1.392 . S
C2674 C2675 1.385 . S
C2674 C2676 1.478 . S
C2675 H2669 0.930 . S
C2675 C2671 1.400 . S
C2675 C2674 1.385 . S
C2676 C2674 1.478 . S
C2676 C2678 1.381 . S
C2676 C2682 1.383 . S
C2677 C2673 1.495 . S
C2677 H2683 0.959 . S
C2677 H2684 0.961 . S
C2677 H2685 0.960 . S
C2678 C2676 1.381 . S
C2678 C2679 1.394 . S
C2678 H2686 0.930 . S
C2679 C2678 1.394 . S
C2679 C2680 1.383 . S
C2679 H2687 0.929 . S
C2680 C2679 1.383 . S
C2680 C2681 1.377 . S
C2681 H2665 0.930 . S
C2681 C2680 1.377 . S
C2681 C2682 1.379 . S
C2682 H2666 0.931 . S
C2682 C2676 1.383 . S
C2682 C2681 1.379 . S
H2683 C2677 0.959 . S
H2684 C2677 0.961 . S
H2685 C2677 0.960 . S
H2686 C2678 0.930 . S
H2687 C2679 0.929 . S
H2688 C2696 0.929 . S
H2689 C2698 0.930 . S
H2690 C2700 0.930 . S
H2691 C2703 0.929 . S
H2692 C2706 0.930 . S
H2693 C2708 0.960 . S
H2694 C2708 0.960 . S
H2695 C2708 0.960 . S
C2696 H2688 0.929 . S
C2696 C2697 1.377 . S
C2696 C2698 1.384 . S
C2697 C2696 1.377 . S
C2697 C2703 1.390 . S
C2698 H2689 0.930 . S
C2698 C2696 1.384 . S
C2698 C2699 1.372 . S
C2699 C2698 1.372 . S
C2699 C2700 1.400 . S
C2699 C2704 1.490 . S
C2700 H2690 0.930 . S
C2700 C2699 1.400 . S
C2700 C2703 1.386 . S
H2701 C2717 0.930 . S
H2702 C2718 0.931 . S
C2703 H2691 0.929 . S
C2703 C2697 1.390 . S
C2703 C2700 1.386 . S
C2704 C2699 1.490 . S
C2704 C2706 1.395 . S
C2704 C2707 1.403 . S
H2705 C2711 0.930 . S
C2706 H2692 0.930 . S
C2706 C2704 1.395 . S
C2706 C2709 1.403 . S
C2707 C2704 1.403 . S
C2707 C2708 1.524 . S
C2707 C2711 1.400 . S
C2708 H2693 0.960 . S
C2708 H2694 0.960 . S
C2708 H2695 0.960 . S
C2708 C2707 1.524 . S
C2709 C2706 1.403 . S
C2709 C2710 1.392 . S
C2709 C2713 1.495 . S
C2710 C2709 1.392 . S
C2710 C2711 1.385 . S
C2710 C2712 1.478 . S
C2711 H2705 0.930 . S
C2711 C2707 1.400 . S
C2711 C2710 1.385 . S
C2712 C2710 1.478 . S
C2712 C2714 1.381 . S
C2712 C2718 1.383 . S
C2713 C2709 1.495 . S
C2713 H2719 0.959 . S
C2713 H2720 0.961 . S
C2713 H2721 0.960 . S
C2714 C2712 1.381 . S
C2714 C2715 1.394 . S
C2714 H2722 0.930 . S
C2715 C2714 1.394 . S
C2715 C2716 1.383 . S
C2715 H2723 0.929 . S
C2716 C2715 1.383 . S
C2716 C2717 1.377 . S
C2717 H2701 0.930 . S
C2717 C2716 1.377 . S
C2717 C2718 1.379 . S
C2718 H2702 0.931 . S
C2718 C2712 1.383 . S
C2718 C2717 1.379 . S
H2719 C2713 0.959 . S
H2720 C2713 0.961 . S
H2721 C2713 0.960 . S
H2722 C2714 0.930 . S
H2723 C2715 0.929 . S
C1024 C707 1.099 . S
C1005 C74 1.054 . S
C1060 C685 0.404 . S
C1041 C142 0.715 . S
C1096 C682 0.537 . S
C1077 C231 0.589 . S
C1113 C322 1.705 . S
C1132 C694 1.806 . S
C1149 C406 0.696 . S
C1168 C677 0.430 . S
C1204 C699 0.529 . S
C1185 C494 0.596 . S
C1221 C562 1.705 . S
C1240 C704 1.779 . S
C1257 C651 1.042 . S
C1276 C700 1.108 . S
C1312 C758 1.839 . S
C1293 C58 1.724 . S
C1329 C151 1.170 . S
C1348 C808 1.233 . S
C1384 C731 2.834 . S
C1365 C224 2.730 . S
C1420 C807 0.491 . S
C1401 C315 0.574 . S
C1437 C399 0.614 . S
C1456 C736 0.498 . S
C1492 C802 1.802 . S
C1473 C478 1.717 . S
C1509 C571 1.131 . S
C1528 C761 1.196 . S
C1545 C644 2.732 . S
C1564 C793 2.817 . S
C1581 C67 2.737 . S
C1600 C785 2.831 . S
C1617 C392 1.184 . S
C1636 C815 1.240 . S
C1672 C739 2.852 . S
C1653 C487 2.738 . S
C1708 C790 0.560 . S
C1689 C578 0.584 . S
C1725 C658 1.730 . S
C1744 C748 1.803 . S
C1761 C238 1.741 . S
C1780 C812 1.843 . S
C1816 C754 1.215 . S
C1797 C308 1.139 . S
C1833 C158 0.596 . S
C1852 C753 0.565 . S
C1869 C662 1.054 . S
C1888 C869 1.100 . S
C1905 C394 0.689 . S
C1924 C847 0.408 . S
C1960 C844 0.489 . S
C1941 C483 0.571 . S
C1996 C856 1.789 . S
C1977 C574 1.701 . S
C2013 C154 0.688 . S
C2032 C839 0.430 . S
C2068 C861 0.477 . S
C2049 C242 0.593 . S
C2085 C310 1.710 . S
C2104 C866 1.770 . S
C2121 C63 1.039 . S
C2140 C862 1.110 . S
C2157 C646 1.729 . S
C2176 C920 1.830 . S
C2212 C970 1.211 . S
C2193 C403 1.180 . S
C2229 C476 2.727 . S
C2248 C893 2.809 . S
C2265 C567 0.581 . S
C2284 C969 0.481 . S
C2320 C898 0.505 . S
C2301 C147 0.601 . S
C2337 C226 1.722 . S
C2356 C964 1.812 . S
C2392 C923 1.219 . S
C2373 C319 1.141 . S
C2428 C955 2.819 . S
C2409 C56 2.733 . S
C2464 C947 2.834 . S
C2445 C655 2.735 . S
C2481 C140 1.179 . S
C2500 C977 1.227 . S
C2517 C235 2.746 . S
C2536 C901 2.827 . S
C2572 C952 0.514 . S
C2553 C326 0.609 . S
C2589 C70 1.735 . S
C2608 C910 1.825 . S
C2625 C490 1.740 . S
C2644 C974 1.844 . S
C2680 C916 1.207 . S
C2661 C560 1.140 . S
C2716 C915 0.567 . S
C2697 C410 0.616 . S
