# Generated by pormake.
# Topology ocu, (6,8)-cn, num edge types: 1
# Building blocks:
#     Node 0, Type 0, BuildingBlock: FUNLAD_clean_sbu_0, # of connection points: 6
#     Node 1, Type 0, BuildingBlock: FUNLAD_clean_sbu_0, # of connection points: 6
#     Node 2, Type 0, BuildingBlock: FUNLAD_clean_sbu_0, # of connection points: 6
#     Node 3, Type 0, BuildingBlock: FUNLAD_clean_sbu_0, # of connection points: 6
#     Node 4, Type 0, BuildingBlock: FUNLAD_clean_sbu_0, # of connection points: 6
#     Node 5, Type 0, BuildingBlock: FUNLAD_clean_sbu_0, # of connection points: 6
#     Node 6, Type 0, BuildingBlock: FUNLAD_clean_sbu_0, # of connection points: 6
#     Node 7, Type 0, BuildingBlock: FUNLAD_clean_sbu_0, # of connection points: 6
#     Node 8, Type 1, BuildingBlock: VETTIZ_charged_sbu_0, # of connection points: 8
#     Node 9, Type 1, BuildingBlock: VETTIZ_charged_sbu_0, # of connection points: 8
#     Node 10, Type 1, BuildingBlock: VETTIZ_charged_sbu_0, # of connection points: 8
#     Node 11, Type 1, BuildingBlock: VETTIZ_charged_sbu_0, # of connection points: 8
#     Node 12, Type 1, BuildingBlock: VETTIZ_charged_sbu_0, # of connection points: 8
#     Node 13, Type 1, BuildingBlock: VETTIZ_charged_sbu_0, # of connection points: 8
#     Edge 14, Type (0, 1), BuildingBlock: EZIPEK_clean_linker_0, # of connection points: 2
#     Edge 15, Type (0, 1), BuildingBlock: EZIPEK_clean_linker_0, # of connection points: 2
#     Edge 16, Type (0, 1), BuildingBlock: EZIPEK_clean_linker_0, # of connection points: 2
#     Edge 17, Type (0, 1), BuildingBlock: EZIPEK_clean_linker_0, # of connection points: 2
#     Edge 18, Type (0, 1), BuildingBlock: EZIPEK_clean_linker_0, # of connection points: 2
#     Edge 19, Type (0, 1), BuildingBlock: EZIPEK_clean_linker_0, # of connection points: 2
#     Edge 20, Type (0, 1), BuildingBlock: EZIPEK_clean_linker_0, # of connection points: 2
#     Edge 21, Type (0, 1), BuildingBlock: EZIPEK_clean_linker_0, # of connection points: 2
#     Edge 22, Type (0, 1), BuildingBlock: EZIPEK_clean_linker_0, # of connection points: 2
#     Edge 23, Type (0, 1), BuildingBlock: EZIPEK_clean_linker_0, # of connection points: 2
#     Edge 24, Type (0, 1), BuildingBlock: EZIPEK_clean_linker_0, # of connection points: 2
#     Edge 25, Type (0, 1), BuildingBlock: EZIPEK_clean_linker_0, # of connection points: 2
#     Edge 26, Type (0, 1), BuildingBlock: EZIPEK_clean_linker_0, # of connection points: 2
#     Edge 27, Type (0, 1), BuildingBlock: EZIPEK_clean_linker_0, # of connection points: 2
#     Edge 28, Type (0, 1), BuildingBlock: EZIPEK_clean_linker_0, # of connection points: 2
#     Edge 29, Type (0, 1), BuildingBlock: EZIPEK_clean_linker_0, # of connection points: 2
#     Edge 30, Type (0, 1), BuildingBlock: EZIPEK_clean_linker_0, # of connection points: 2
#     Edge 31, Type (0, 1), BuildingBlock: EZIPEK_clean_linker_0, # of connection points: 2
#     Edge 32, Type (0, 1), BuildingBlock: EZIPEK_clean_linker_0, # of connection points: 2
#     Edge 33, Type (0, 1), BuildingBlock: EZIPEK_clean_linker_0, # of connection points: 2
#     Edge 34, Type (0, 1), BuildingBlock: EZIPEK_clean_linker_0, # of connection points: 2
#     Edge 35, Type (0, 1), BuildingBlock: EZIPEK_clean_linker_0, # of connection points: 2
#     Edge 36, Type (0, 1), BuildingBlock: EZIPEK_clean_linker_0, # of connection points: 2
#     Edge 37, Type (0, 1), BuildingBlock: EZIPEK_clean_linker_0, # of connection points: 2
#     Edge 38, Type (0, 1), BuildingBlock: EZIPEK_clean_linker_0, # of connection points: 2
#     Edge 39, Type (0, 1), BuildingBlock: EZIPEK_clean_linker_0, # of connection points: 2
#     Edge 40, Type (0, 1), BuildingBlock: EZIPEK_clean_linker_0, # of connection points: 2
#     Edge 41, Type (0, 1), BuildingBlock: EZIPEK_clean_linker_0, # of connection points: 2
#     Edge 42, Type (0, 1), BuildingBlock: EZIPEK_clean_linker_0, # of connection points: 2
#     Edge 43, Type (0, 1), BuildingBlock: EZIPEK_clean_linker_0, # of connection points: 2
#     Edge 44, Type (0, 1), BuildingBlock: EZIPEK_clean_linker_0, # of connection points: 2
#     Edge 45, Type (0, 1), BuildingBlock: EZIPEK_clean_linker_0, # of connection points: 2
#     Edge 46, Type (0, 1), BuildingBlock: EZIPEK_clean_linker_0, # of connection points: 2
#     Edge 47, Type (0, 1), BuildingBlock: EZIPEK_clean_linker_0, # of connection points: 2
#     Edge 48, Type (0, 1), BuildingBlock: EZIPEK_clean_linker_0, # of connection points: 2
#     Edge 49, Type (0, 1), BuildingBlock: EZIPEK_clean_linker_0, # of connection points: 2
#     Edge 50, Type (0, 1), BuildingBlock: EZIPEK_clean_linker_0, # of connection points: 2
#     Edge 51, Type (0, 1), BuildingBlock: EZIPEK_clean_linker_0, # of connection points: 2
#     Edge 52, Type (0, 1), BuildingBlock: EZIPEK_clean_linker_0, # of connection points: 2
#     Edge 53, Type (0, 1), BuildingBlock: EZIPEK_clean_linker_0, # of connection points: 2
#     Edge 54, Type (0, 1), BuildingBlock: EZIPEK_clean_linker_0, # of connection points: 2
#     Edge 55, Type (0, 1), BuildingBlock: EZIPEK_clean_linker_0, # of connection points: 2
#     Edge 56, Type (0, 1), BuildingBlock: EZIPEK_clean_linker_0, # of connection points: 2
#     Edge 57, Type (0, 1), BuildingBlock: EZIPEK_clean_linker_0, # of connection points: 2
#     Edge 58, Type (0, 1), BuildingBlock: EZIPEK_clean_linker_0, # of connection points: 2
#     Edge 59, Type (0, 1), BuildingBlock: EZIPEK_clean_linker_0, # of connection points: 2
#     Edge 60, Type (0, 1), BuildingBlock: EZIPEK_clean_linker_0, # of connection points: 2
#     Edge 61, Type (0, 1), BuildingBlock: EZIPEK_clean_linker_0, # of connection points: 2
# Relax obj value: 0.181
# Max RMSD: 0.270
# Mean RMSD: 0.162
data_MOF--net-ocu--node1-FUNLAD_clean_sbu_0--node2-VETTIZ_charged_sbu_0--edge1-EZIPEK_clean_linker_0
_symmetry_space_group_name_H-M    P1
_symmetry_Int_Tables_number       1
_symmetry_cell_setting            triclinic
loop_
_symmetry_equiv_pos_as_xyz
'x, y, z'
_cell_length_a     29.506606
_cell_length_b     30.053826
_cell_length_c     29.900641
_cell_angle_alpha  82.285058
_cell_angle_beta   82.955523
_cell_angle_gamma 79.26566
loop_
_atom_site_label
_atom_site_type_symbol
_atom_site_fract_x
_atom_site_fract_y
_atom_site_fract_z
_atom_type_partial_charge
C0 C 0.21864 0.28013 0.33513 0.0
N1 N 0.21499 0.17208 0.26033 0.0
C2 C 0.19439 0.17052 0.2223 0.0
C3 C 0.15737 0.14703 0.22489 0.0
C4 C 0.14296 0.12455 0.26673 0.0
C5 C 0.1682 0.12264 0.30398 0.0
C6 C 0.20382 0.14741 0.30023 0.0
Zn7 Zn 0.25639 0.21785 0.26161 0.0
C8 C 0.22222 0.30472 0.20429 0.0
N9 N 0.34141 0.31464 0.26375 0.0
C10 C 0.36356 0.3228 0.2985 0.0
C11 C 0.35476 0.32878 0.22006 0.0
C12 C 0.39344 0.34853 0.20925 0.0
C13 C 0.41699 0.35868 0.24365 0.0
C14 C 0.40121 0.34639 0.28908 0.0
Zn15 Zn 0.29763 0.27041 0.26566 0.0
O16 O 0.21346 0.24441 0.31914 0.0
C17 C 0.33029 0.18358 0.32278 0.0
O18 O 0.25278 0.29948 0.31846 0.0
H19 H 0.33712 0.3222 0.19273 0.0
H20 H 0.20441 0.19005 0.19077 0.0
H21 H 0.35278 0.3103 0.33307 0.0
O22 O 0.29737 0.17164 0.30641 0.0
O23 O 0.33764 0.22426 0.31262 0.0
H24 H 0.22011 0.14958 0.33012 0.0
O25 O 0.34335 0.24084 0.21239 0.0
O26 O 0.30068 0.19084 0.20492 0.0
O27 O 0.25652 0.31693 0.21817 0.0
O28 O 0.21397 0.26484 0.21731 0.0
C29 C 0.33686 0.20839 0.19259 0.0
H30 H 0.13835 0.14904 0.19571 0.0
H31 H 0.15748 0.10582 0.33692 0.0
H32 H 0.40344 0.35696 0.17369 0.0
H33 H 0.41791 0.35449 0.31652 0.0
C34 C 0.69959 0.31395 0.22386 0.0
N35 N 0.74966 0.18089 0.20179 0.0
C36 C 0.70277 0.18259 0.20479 0.0
C37 C 0.68298 0.15839 0.17832 0.0
C38 C 0.71094 0.13285 0.14655 0.0
C39 C 0.75931 0.13152 0.143 0.0
C40 C 0.77817 0.15581 0.17141 0.0
Zn41 Zn 0.76632 0.22347 0.24529 0.0
C42 C 0.83409 0.28589 0.20728 0.0
N43 N 0.76863 0.32125 0.3344 0.0
C44 C 0.77696 0.36323 0.31593 0.0
C45 C 0.77728 0.30474 0.37778 0.0
C46 C 0.80033 0.32834 0.40234 0.0
C47 C 0.81384 0.36919 0.38186 0.0
C48 C 0.79967 0.38806 0.33937 0.0
Zn49 Zn 0.75923 0.27751 0.29132 0.0
O50 O 0.71624 0.27388 0.21471 0.0
C51 C 0.69452 0.21553 0.32984 0.0
O52 O 0.71143 0.32778 0.2582 0.0
H53 H 0.77043 0.27126 0.39174 0.0
H54 H 0.67959 0.20386 0.22712 0.0
H55 H 0.7702 0.37549 0.2813 0.0
O56 O 0.71474 0.19819 0.29474 0.0
O57 O 0.70424 0.25293 0.33828 0.0
H58 H 0.81517 0.15523 0.16857 0.0
O59 O 0.80665 0.22583 0.32474 0.0
O60 O 0.81575 0.17342 0.278 0.0
O61 O 0.81433 0.30193 0.24355 0.0
O62 O 0.82153 0.25002 0.19749 0.0
C63 C 0.82342 0.18574 0.3152 0.0
H64 H 0.64565 0.16063 0.18183 0.0
H65 H 0.78201 0.11225 0.11844 0.0
H66 H 0.81127 0.31293 0.43502 0.0
H67 H 0.81013 0.41938 0.32271 0.0
C68 C 0.82543 0.69187 0.31004 0.0
N69 N 0.83202 0.82923 0.26289 0.0
C70 C 0.8772 0.81414 0.27045 0.0
C71 C 0.89922 0.83797 0.29583 0.0
C72 C 0.87442 0.87762 0.31292 0.0
C73 C 0.82987 0.89519 0.30027 0.0
C74 C 0.80908 0.87019 0.27504 0.0
Zn75 Zn 0.79302 0.78331 0.2508 0.0
C76 C 0.83235 0.72634 0.18036 0.0
N77 N 0.70953 0.6847 0.23956 0.0
C78 C 0.66293 0.70014 0.24049 0.0
C79 C 0.7298 0.6484 0.21718 0.0
C80 C 0.70407 0.62933 0.19099 0.0
C81 C 0.65661 0.6466 0.18892 0.0
C82 C 0.63553 0.68096 0.21586 0.0
Zn83 Zn 0.75083 0.72836 0.25393 0.0
O84 O 0.83296 0.7318 0.29486 0.0
C85 C 0.7129 0.7836 0.32517 0.0
O86 O 0.79028 0.67844 0.29886 0.0
H87 H 0.76669 0.63624 0.21677 0.0
H88 H 0.89469 0.78139 0.26079 0.0
H89 H 0.64739 0.72957 0.25754 0.0
O90 O 0.74675 0.80262 0.30726 0.0
O91 O 0.70473 0.74909 0.30931 0.0
H92 H 0.77303 0.88126 0.26929 0.0
O93 O 0.7119 0.77938 0.20862 0.0
O94 O 0.75225 0.83384 0.20748 0.0
O95 O 0.79927 0.7074 0.20025 0.0
O96 O 0.83893 0.76297 0.19345 0.0
C97 C 0.71802 0.82002 0.19522 0.0
H98 H 0.93364 0.82357 0.30535 0.0
H99 H 0.80987 0.92559 0.31334 0.0
H100 H 0.72141 0.6021 0.17138 0.0
H101 H 0.5988 0.69436 0.21597 0.0
C102 C 0.19658 0.82165 0.29951 0.0
N103 N 0.32787 0.76623 0.34034 0.0
C104 C 0.32016 0.81235 0.3404 0.0
C105 C 0.34578 0.83336 0.36409 0.0
C106 C 0.38165 0.80736 0.38709 0.0
C107 C 0.38942 0.75957 0.38792 0.0
C108 C 0.36157 0.7394 0.36407 0.0
Zn109 Zn 0.2896 0.74949 0.29301 0.0
C110 C 0.22044 0.69247 0.32463 0.0
N111 N 0.20259 0.74375 0.19179 0.0
C112 C 0.15889 0.73547 0.20579 0.0
C113 C 0.22591 0.72847 0.15301 0.0
C114 C 0.2072 0.70033 0.12919 0.0
C115 C 0.16404 0.68813 0.1453 0.0
C116 C 0.13891 0.70744 0.18298 0.0
Zn117 Zn 0.24106 0.75925 0.23926 0.0
O118 O 0.23293 0.79991 0.31622 0.0
C119 C 0.31246 0.81416 0.20521 0.0
O120 O 0.18878 0.81442 0.26039 0.0
H121 H 0.26078 0.73474 0.14263 0.0
H122 H 0.29623 0.83397 0.3193 0.0
H123 H 0.14105 0.74722 0.23696 0.0
O124 O 0.32222 0.79779 0.24503 0.0
O125 O 0.27664 0.80472 0.19104 0.0
H126 H 0.36844 0.70295 0.36269 0.0
O127 O 0.29313 0.70377 0.22011 0.0
O128 O 0.34298 0.69804 0.27042 0.0
O129 O 0.20762 0.71457 0.28777 0.0
O130 O 0.25797 0.69884 0.33804 0.0
C131 C 0.33127 0.68501 0.23544 0.0
H132 H 0.33955 0.87028 0.36188 0.0
H133 H 0.41766 0.73862 0.40492 0.0
H134 H 0.22721 0.68633 0.09988 0.0
H135 H 0.10528 0.69896 0.19598 0.0
C136 C 0.20304 0.82153 0.70746 0.0
N137 N 0.24757 0.68873 0.68079 0.0
C138 C 0.20066 0.69362 0.68203 0.0
C139 C 0.1807 0.66653 0.65941 0.0
C140 C 0.20899 0.63398 0.63479 0.0
C141 C 0.25742 0.62971 0.6324 0.0
C142 C 0.27632 0.65778 0.65635 0.0
Zn143 Zn 0.26547 0.7276 0.72372 0.0
C144 C 0.33304 0.78688 0.68785 0.0
N145 N 0.28286 0.81371 0.81842 0.0
C146 C 0.2553 0.84206 0.84644 0.0
C147 C 0.32997 0.80853 0.81624 0.0
C148 C 0.35113 0.83357 0.84041 0.0
C149 C 0.32412 0.86279 0.8696 0.0
C150 C 0.27549 0.86668 0.8732 0.0
Zn151 Zn 0.2629 0.77582 0.7741 0.0
O152 O 0.21682 0.78164 0.69665 0.0
C153 C 0.19631 0.7152 0.81237 0.0
O154 O 0.21548 0.83203 0.74354 0.0
H155 H 0.35194 0.78504 0.79521 0.0
H156 H 0.17806 0.7177 0.70193 0.0
H157 H 0.218 0.8456 0.84802 0.0
O158 O 0.21368 0.70073 0.77479 0.0
O159 O 0.2084 0.75105 0.82251 0.0
H160 H 0.31349 0.65416 0.65634 0.0
O161 O 0.30961 0.71948 0.80209 0.0
O162 O 0.31452 0.67435 0.74903 0.0
O163 O 0.31633 0.79941 0.72614 0.0
O164 O 0.31852 0.75387 0.67453 0.0
C165 C 0.32565 0.68181 0.78657 0.0
H166 H 0.14322 0.67046 0.66171 0.0
H167 H 0.2799 0.60459 0.61331 0.0
H168 H 0.38864 0.82944 0.83694 0.0
H169 H 0.25361 0.88881 0.89587 0.0
C170 C 0.30462 0.17728 0.81978 0.0
N171 N 0.32392 0.30988 0.77517 0.0
C172 C 0.30222 0.35094 0.78815 0.0
C173 C 0.32152 0.37204 0.81831 0.0
C174 C 0.36375 0.35093 0.83458 0.0
C175 C 0.3875 0.31088 0.81752 0.0
C176 C 0.36682 0.29075 0.78759 0.0
Zn177 Zn 0.28294 0.26784 0.7577 0.0
C178 C 0.31895 0.21024 0.68917 0.0
N179 N 0.18552 0.18299 0.743 0.0
C180 C 0.13924 0.20035 0.7487 0.0
C181 C 0.20126 0.14951 0.71563 0.0
C182 C 0.17163 0.13652 0.68869 0.0
C183 C 0.12465 0.15667 0.69106 0.0
C184 C 0.10787 0.1865 0.72398 0.0
Zn185 Zn 0.23258 0.2208 0.75975 0.0
O186 O 0.31359 0.2169 0.80651 0.0
C187 C 0.19602 0.27803 0.82769 0.0
O188 O 0.27019 0.16549 0.80488 0.0
H189 H 0.23742 0.13512 0.7119 0.0
H190 H 0.26801 0.36547 0.77832 0.0
H191 H 0.12676 0.22738 0.76989 0.0
O192 O 0.23087 0.29475 0.80843 0.0
O193 O 0.18739 0.24197 0.81555 0.0
H194 H 0.38334 0.2579 0.77743 0.0
O195 O 0.19794 0.27653 0.7171 0.0
O196 O 0.25225 0.31816 0.70641 0.0
O197 O 0.27899 0.20069 0.7029 0.0
O198 O 0.33361 0.23977 0.70781 0.0
C199 C 0.21315 0.31177 0.69713 0.0
H200 H 0.30295 0.40359 0.83013 0.0
H201 H 0.42068 0.29438 0.82881 0.0
H202 H 0.18571 0.11211 0.66482 0.0
H203 H 0.07141 0.20099 0.72872 0.0
C204 C 0.69835 0.32307 0.78979 0.0
N205 N 0.83013 0.26981 0.8283 0.0
C206 C 0.82611 0.31601 0.82549 0.0
C207 C 0.85196 0.33624 0.84979 0.0
C208 C 0.88269 0.30916 0.87809 0.0
C209 C 0.88744 0.26136 0.88082 0.0
C210 C 0.8606 0.24213 0.85509 0.0
Zn211 Zn 0.78997 0.25277 0.78289 0.0
C212 C 0.72031 0.1946 0.81484 0.0
N213 N 0.70492 0.24578 0.68022 0.0
C214 C 0.659 0.24544 0.69256 0.0
C215 C 0.72738 0.22513 0.64386 0.0
C216 C 0.70548 0.19749 0.62271 0.0
C217 C 0.65946 0.19323 0.63771 0.0
C218 C 0.63521 0.21983 0.67099 0.0
Zn219 Zn 0.74365 0.25879 0.72788 0.0
O220 O 0.7366 0.30562 0.80509 0.0
C221 C 0.81174 0.31637 0.69386 0.0
O222 O 0.68932 0.31104 0.75306 0.0
H223 H 0.76363 0.22634 0.63391 0.0
H224 H 0.8029 0.33804 0.80382 0.0
H225 H 0.64188 0.26116 0.72201 0.0
O226 O 0.82304 0.29851 0.73284 0.0
O227 O 0.77489 0.30819 0.68095 0.0
H228 H 0.86424 0.2055 0.85641 0.0
O229 O 0.79949 0.20655 0.70517 0.0
O230 O 0.84285 0.1991 0.76129 0.0
O231 O 0.71214 0.20982 0.77434 0.0
O232 O 0.75462 0.20549 0.83082 0.0
C233 C 0.83604 0.18771 0.72353 0.0
H234 H 0.84725 0.37313 0.84714 0.0
H235 H 0.91083 0.23951 0.90296 0.0
H236 H 0.72497 0.17763 0.59681 0.0
H237 H 0.59958 0.21722 0.6832 0.0
C238 C 0.70529 0.77229 0.82978 0.0
N239 N 0.71574 0.66145 0.75375 0.0
C240 C 0.71129 0.63399 0.79329 0.0
C241 C 0.66736 0.6297 0.81331 0.0
C242 C 0.62882 0.65452 0.79218 0.0
C243 C 0.63507 0.67308 0.74695 0.0
C244 C 0.68018 0.6731 0.72703 0.0
Zn245 Zn 0.75066 0.71298 0.75724 0.0
C246 C 0.71345 0.79689 0.70037 0.0
N247 N 0.82067 0.82087 0.76221 0.0
C248 C 0.826 0.84279 0.79778 0.0
C249 C 0.82984 0.83868 0.71876 0.0
C250 C 0.84353 0.88007 0.70918 0.0
C251 C 0.85046 0.90386 0.74439 0.0
C252 C 0.84191 0.88467 0.78948 0.0
Zn253 Zn 0.78924 0.76726 0.76336 0.0
O254 O 0.70127 0.73686 0.8126 0.0
C255 C 0.82718 0.68566 0.82158 0.0
O256 O 0.74016 0.79156 0.81639 0.0
H257 H 0.82477 0.82178 0.69063 0.0
H258 H 0.74039 0.62138 0.81278 0.0
H259 H 0.81744 0.82824 0.83219 0.0
O260 O 0.79587 0.67109 0.80467 0.0
O261 O 0.83243 0.72686 0.8104 0.0
H262 H 0.68561 0.68984 0.69301 0.0
O263 O 0.83844 0.74206 0.71 0.0
O264 O 0.79773 0.69022 0.70221 0.0
O265 O 0.74661 0.80905 0.71568 0.0
O266 O 0.70639 0.75667 0.7121 0.0
C267 C 0.83301 0.70909 0.69004 0.0
H268 H 0.66368 0.61163 0.84705 0.0
H269 H 0.60622 0.69034 0.72857 0.0
H270 H 0.84995 0.89185 0.67376 0.0
H271 H 0.84758 0.90159 0.81754 0.0
Fe272 Fe 0.98847 0.07873 0.49785 0.0
O273 O 0.95134 0.03279 0.48936 0.0
Fe274 Fe 0.10013 0.01246 0.48579 0.0
Fe275 Fe 0.90412 0.00823 0.5373 0.0
O276 O 0.03137 0.01504 0.50302 0.0
O277 O 0.03356 0.00523 0.50164 0.0
O278 O 0.96741 0.98097 0.55371 0.0
Fe279 Fe 0.01581 0.94093 0.51675 0.0
C280 C 0.93238 0.07597 0.59133 0.0
O281 O 0.92458 0.05805 0.48349 0.0
O282 O 0.85291 0.05468 0.50571 0.0
O283 O 0.06873 0.91015 0.47197 0.0
O284 O 0.10611 0.96641 0.43991 0.0
O285 O 0.08478 0.06209 0.43122 0.0
O286 O 1.00751 0.08369 0.43072 0.0
O287 O 0.90135 0.96128 0.49422 0.0
O288 O 0.97484 0.95134 0.46356 0.0
C289 C 0.04827 0.07809 0.4109 0.0
O290 O 0.05801 0.92717 0.56766 0.0
O291 O 0.11833 0.96213 0.53908 0.0
O292 O 0.9708 0.07586 0.56717 0.0
O293 O 0.90206 0.05464 0.58246 0.0
C294 C 0.88038 0.0777 0.48053 0.0
C295 C 0.9325 0.94818 0.46316 0.0
C296 C 0.94724 0.92385 0.60325 0.0
O297 O 0.95558 0.95619 0.57058 0.0
O298 O 0.95793 0.95515 0.56977 0.0
C299 C 0.09627 0.92691 0.44052 0.0
O300 O 0.09631 0.05781 0.5315 0.0
O301 O 0.03918 0.11321 0.51036 0.0
C302 C 0.09836 0.93567 0.5694 0.0
C303 C 0.07089 0.09617 0.53629 0.0
Fe304 Fe 0.51559 0.94666 0.01246 0.0
O305 O 0.5541 0.98932 0.97432 0.0
Fe306 Fe 0.41381 0.01971 0.04302 0.0
Fe307 Fe 0.62243 0.97797 0.96864 0.0
O308 O 0.48161 0.00435 0.03576 0.0
O309 O 0.48217 0.00952 0.03505 0.0
O310 O 0.55398 0.99473 0.97241 0.0
Fe311 Fe 0.52041 0.05234 0.99663 0.0
C312 C 0.60076 0.92398 0.06259 0.0
O313 O 0.55907 0.89168 0.98036 0.0
O314 O 0.61395 0.92644 0.93363 0.0
O315 O 0.47468 0.06545 0.94558 0.0
O316 O 0.40663 0.06844 0.9882 0.0
O317 O 0.40456 0.97197 1.00297 0.0
O318 O 0.47215 0.95419 0.96145 0.0
O319 O 0.61742 0.03039 0.9169 0.0
O320 O 0.56791 0.08767 0.95048 0.0
C321 C 0.42836 0.95567 0.9686 0.0
O322 O 0.47966 0.10598 0.03111 0.0
O323 O 0.42465 0.07076 0.07788 0.0
O324 O 0.55707 0.93653 0.06505 0.0
O325 O 0.62676 0.93024 0.02577 0.0
C326 C 0.59282 0.8923 0.94735 0.0
C327 C 0.60022 0.07321 0.91861 0.0
C328 C 0.60869 0.0435 0.04046 0.0
O329 O 0.63224 0.02682 1.0065 0.0
O330 O 0.56493 0.0447 0.04742 0.0
C331 C 0.43034 0.07697 0.95057 0.0
O332 O 0.42015 0.96612 0.09412 0.0
O333 O 0.46886 0.91004 0.05741 0.0
C334 C 0.44781 0.10398 0.06566 0.0
C335 C 0.43598 0.92362 0.08895 0.0
Fe336 Fe 0.01895 0.5497 1.00572 0.0
O337 O 0.98526 0.50221 0.04261 0.0
Fe338 Fe 0.12938 0.48914 0.98081 0.0
Fe339 Fe 0.91748 0.50629 0.04553 0.0
O340 O 0.06152 0.49561 0.98361 0.0
O341 O 0.0616 0.49045 0.98495 0.0
O342 O 0.98596 0.49689 0.04518 0.0
Fe343 Fe 0.02826 0.44253 0.0222 0.0
C344 C 0.93644 0.59563 0.0692 0.0
O345 O 0.97988 0.55455 0.95179 0.0
O346 O 0.91025 0.55638 0.99046 0.0
O347 O 0.076 0.3938 0.98942 0.0
O348 O 0.12836 0.43439 0.94507 0.0
O349 O 0.12035 0.54332 0.92888 0.0
O350 O 0.06107 0.59306 0.96252 0.0
O351 O 0.91734 0.45833 1.00312 0.0
O352 O 0.98856 0.44162 0.97051 0.0
C353 C 0.0971 0.58419 0.93269 0.0
O354 O 0.07019 0.43561 0.0748 0.0
O355 O 0.13896 0.44079 0.03594 0.0
O356 O 0.96931 0.59933 0.0363 0.0
O357 O 0.91811 0.55933 0.0827 0.0
C358 C 0.93598 0.56604 0.95437 0.0
C359 C 0.94622 0.43678 0.97537 0.0
C360 C 0.94836 0.40894 0.09337 0.0
O361 O 0.9246 0.45003 0.09613 0.0
O362 O 0.98598 0.39988 0.06538 0.0
C363 C 0.10796 0.39876 0.95577 0.0
O364 O 0.12814 0.53985 0.02232 0.0
O365 O 0.05742 0.549 0.059 0.0
C366 C 0.11452 0.42621 0.07096 0.0
C367 C 0.09896 0.55614 0.05371 0.0
Fe368 Fe 0.50256 0.50129 0.96085 0.0
O369 O 0.54799 0.47585 1.00579 0.0
Fe370 Fe 0.39674 0.52254 0.02508 0.0
Fe371 Fe 0.61378 0.48403 0.99459 0.0
O372 O 0.46192 0.52785 0.01233 0.0
O373 O 0.46315 0.53195 0.01603 0.0
O374 O 0.54859 0.478 1.00905 0.0
Fe375 Fe 0.50695 0.50169 0.06168 0.0
C376 C 0.592 0.44271 0.91496 0.0
O377 O 0.52752 0.55997 0.95112 0.0
O378 O 0.60299 0.53472 0.93931 0.0
O379 O 0.457 0.53166 0.1115 0.0
O380 O 0.39581 0.56838 0.07132 0.0
O381 O 0.39031 0.56772 0.9669 0.0
O382 O 0.45097 0.53393 0.91959 0.0
O383 O 0.61168 0.53215 0.03751 0.0
O384 O 0.53826 0.55796 0.06064 0.0
C385 C 0.41294 0.5624 0.9274 0.0
O386 O 0.47722 0.44586 0.06542 0.0
O387 O 0.4052 0.47411 0.08113 0.0
O388 O 0.55256 0.47001 0.91159 0.0
O389 O 0.6163 0.43802 0.94899 0.0
C390 C 0.5665 0.56355 0.93063 0.0
C391 C 0.58147 0.55794 0.06047 0.0
C392 C 0.59504 0.43708 0.0929 0.0
O393 O 0.61949 0.43826 0.05326 0.0
O394 O 0.55552 0.4631 0.10244 0.0
C395 C 0.4192 0.56187 0.10655 0.0
O396 O 0.40056 0.473 0.98122 0.0
O397 O 0.47488 0.44238 0.96929 0.0
C398 C 0.44045 0.44492 0.09121 0.0
C399 C 0.4325 0.4432 0.96451 0.0
Fe400 Fe 0.01887 0.44588 0.51259 0.0
O401 O 0.98912 0.50133 0.54241 0.0
Fe402 Fe 0.04558 0.49424 0.40095 0.0
Fe403 Fe 0.98973 0.50303 0.60778 0.0
O404 O 0.04638 0.49126 0.46697 0.0
O405 O 0.04598 0.49591 0.46613 0.0
O406 O 0.98832 0.50676 0.5413 0.0
Fe407 Fe 0.02033 0.55084 0.49805 0.0
C408 C 0.94936 0.41984 0.59562 0.0
O409 O 0.07676 0.43677 0.54756 0.0
O410 O 0.04105 0.44537 0.61635 0.0
O411 O 0.06097 0.58818 0.4478 0.0
O412 O 0.09441 0.53616 0.39756 0.0
O413 O 0.09 0.43242 0.41148 0.0
O414 O 0.05563 0.39363 0.47488 0.0
O415 O 0.03947 0.54348 0.60386 0.0
O416 O 0.07667 0.53722 0.53524 0.0
C417 C 0.08595 0.3959 0.43935 0.0
O418 O 0.96375 0.56876 0.46064 0.0
O419 O 0.99644 0.55337 0.39213 0.0
O420 O 0.98253 0.40619 0.56458 0.0
O421 O 0.94322 0.45918 0.61089 0.0
C422 C 0.07707 0.43139 0.59036 0.0
C423 C 0.07505 0.54616 0.57584 0.0
C424 C 0.9545 0.60065 0.57303 0.0
O425 O 0.94507 0.56371 0.59736 0.0
O426 O 0.98653 0.60241 0.53875 0.0
C427 C 0.09152 0.57428 0.41461 0.0
O428 O 0.99248 0.45715 0.4056 0.0
O429 O 0.96232 0.45121 0.47789 0.0
C430 C 0.9635 0.574 0.41769 0.0
C431 C 0.96079 0.44734 0.43637 0.0
Fe432 Fe 0.52848 0.94212 0.51697 0.0
O433 O 0.49374 0.99372 0.54987 0.0
Fe434 Fe 0.55858 0.99465 0.4095 0.0
Fe435 Fe 0.49119 0.99469 0.61572 0.0
O436 O 0.55558 0.99124 0.47601 0.0
O437 O 0.55546 0.99613 0.47556 0.0
O438 O 0.49335 0.99805 0.54933 0.0
Fe439 Fe 0.51749 0.04759 0.50667 0.0
C440 C 0.4613 0.90553 0.59773 0.0
O441 O 0.58333 0.93287 0.55492 0.0
O442 O 0.54799 0.94269 0.62409 0.0
O443 O 0.54949 0.09298 0.45721 0.0
O444 O 0.59695 0.04677 0.40835 0.0
O445 O 0.60884 0.93755 0.42092 0.0
O446 O 0.56933 0.89447 0.47718 0.0
O447 O 0.53173 0.04438 0.61401 0.0
O448 O 0.57073 0.04722 0.54575 0.0
C449 C 0.60175 0.89908 0.44405 0.0
O450 O 0.46358 0.05164 0.46792 0.0
O451 O 0.50281 0.04698 0.39979 0.0
O452 O 0.4934 0.89717 0.56418 0.0
O453 O 0.45288 0.94288 0.61715 0.0
C454 C 0.58214 0.92533 0.59771 0.0
C455 C 0.56407 0.05759 0.58622 0.0
C456 C 0.44095 0.08859 0.57911 0.0
O457 O 0.43964 0.05013 0.60491 0.0
O458 O 0.47208 0.09467 0.54501 0.0
C459 C 0.58359 0.08539 0.42537 0.0
O460 O 0.51544 0.94724 0.41111 0.0
O461 O 0.47477 0.94754 0.47804 0.0
C462 C 0.46627 0.06062 0.42507 0.0
C463 C 0.48003 0.93839 0.43727 0.0
C464 C 0.06321 0.14492 0.29577 0.0
C465 C 0.09692 0.11138 0.27634 0.0
C466 C 0.07222 0.05383 0.33421 0.0
C467 C 0.05376 0.08934 0.36148 0.0
N468 N 0.02416 0.16932 0.36669 0.0
N469 N 0.12425 0.03281 0.26791 0.0
C470 C 0.04534 0.13521 0.34146 0.0
C471 C 0.09664 0.06507 0.29164 0.0
N472 N 0.05279 0.18684 0.27202 0.0
N473 N 0.06672 0.01012 0.34944 0.0
H474 H 0.14221 0.04203 0.23668 0.0
H475 H 0.13019 0.99818 0.27952 0.0
H476 H 0.04682 0.0023 0.37986 0.0
H477 H 0.07772 0.98296 0.33019 0.0
H478 H 0.02695 0.21259 0.2835 0.0
H479 H 0.06762 0.19369 0.23884 0.0
H480 H 0.0217 0.20379 0.35474 0.0
H481 H 1.01077 0.1632 0.40041 0.0
C482 C 0.82552 0.11314 0.36889 0.0
C483 C 0.84459 0.15293 0.3519 0.0
C484 C 0.88493 0.14468 0.42066 0.0
C485 C 0.86749 0.1038 0.43647 0.0
N486 N 0.83582 0.04123 0.41587 0.0
N487 N 0.90069 0.20049 0.35658 0.0
C488 C 0.84219 0.08559 0.40777 0.0
C489 C 0.87706 0.16666 0.37627 0.0
N490 N 0.78938 0.10264 0.35014 0.0
N491 N 0.9079 0.16321 0.44852 0.0
H492 H 0.89655 0.21614 0.32364 0.0
H493 H 0.92735 0.21001 0.37089 0.0
H494 H 0.91442 0.14795 0.48104 0.0
H495 H 0.9173 0.1953 0.44092 0.0
H496 H 0.77081 0.07733 0.3654 0.0
H497 H 0.77467 0.12146 0.32215 0.0
H498 H 0.822 0.02547 0.39296 0.0
H499 H 0.84948 0.01838 0.44208 0.0
C500 C 0.91438 0.93319 0.34234 0.0
C501 C 0.89095 0.89536 0.35079 0.0
C502 C 0.8995 0.88951 0.43198 0.0
C503 C 0.91876 0.93003 0.42422 0.0
N504 N 0.9393 0.99424 0.37328 0.0
N505 N 0.85492 0.84119 0.40395 0.0
C506 C 0.92508 0.95285 0.37966 0.0
C507 C 0.88173 0.87455 0.39572 0.0
N508 N 0.92697 0.94978 0.29866 0.0
N509 N 0.90001 0.8642 0.47358 0.0
H510 H 0.84205 0.82821 0.37838 0.0
H511 H 0.84237 0.82877 0.4364 0.0
H512 H 0.91323 0.87366 0.50101 0.0
H513 H 0.89133 0.83175 0.47986 0.0
H514 H 0.94846 0.97409 0.29009 0.0
H515 H 0.91875 0.93662 0.27069 0.0
H516 H 0.93987 0.01484 0.34238 0.0
H517 H 0.94682 0.01006 0.39978 0.0
C518 C 0.18586 0.88657 0.34511 0.0
C519 C 0.16531 0.85475 0.32737 0.0
C520 C 0.09515 0.87514 0.37917 0.0
C521 C 0.11974 0.89977 0.40281 0.0
N522 N 0.19429 0.91791 0.41293 0.0
N523 N 0.101 0.81469 0.33136 0.0
C524 C 0.16673 0.90258 0.38696 0.0
C525 C 0.11994 0.84798 0.34526 0.0
N526 N 0.22371 0.90178 0.32165 0.0
N527 N 0.04812 0.87906 0.38726 0.0
H528 H 0.11761 0.79476 0.3062 0.0
H529 H 0.07026 0.80495 0.34707 0.0
H530 H 0.02836 0.90012 0.40992 0.0
H531 H 0.02835 0.86525 0.36788 0.0
H532 H 0.23822 0.92757 0.33156 0.0
H533 H 0.23682 0.89215 0.28966 0.0
H534 H 0.22972 0.91695 0.40395 0.0
H535 H 0.18339 0.92592 0.44584 0.0
C536 C 0.19534 0.85667 0.62699 0.0
C537 C 0.17771 0.85537 0.6738 0.0
C538 C 0.10933 0.9109 0.65241 0.0
C539 C 0.12551 0.90881 0.60572 0.0
N540 N 0.17776 0.87017 0.54907 0.0
N541 N 0.11449 0.87642 0.73033 0.0
C542 C 0.16691 0.87929 0.59316 0.0
C543 C 0.13397 0.88164 0.68645 0.0
N544 N 0.2398 0.83688 0.61438 0.0
N545 N 0.0703 0.94079 0.66428 0.0
H546 H 0.13103 0.85498 0.75603 0.0
H547 H 0.08051 0.89055 0.74079 0.0
H548 H 0.0487 0.95902 0.64063 0.0
H549 H 0.06014 0.9487 0.69729 0.0
H550 H 0.25611 0.84228 0.58166 0.0
H551 H 0.26215 0.81873 0.63712 0.0
H552 H 0.20456 0.84456 0.53899 0.0
H553 H 0.15706 0.88441 0.52315 0.0
C554 C 0.08212 0.17761 0.62055 0.0
C555 C 0.09488 0.14569 0.65829 0.0
C556 C 0.07223 0.08708 0.62085 0.0
C557 C 0.07321 0.11585 0.5789 0.0
N558 N 0.0796 0.1902 0.53919 0.0
N559 N 0.09744 0.06963 0.69625 0.0
C560 C 0.07758 0.16189 0.57885 0.0
C561 C 0.08794 0.10039 0.65919 0.0
N562 N 0.07182 0.22276 0.62511 0.0
N563 N 0.05435 0.04794 0.62491 0.0
H564 H 0.10584 0.07913 0.72612 0.0
H565 H 0.09863 0.0347 0.69647 0.0
H566 H 0.04369 0.03556 0.59776 0.0
H567 H 0.0449 0.03133 0.65658 0.0
H568 H 0.05803 0.2471 0.59984 0.0
H569 H 0.07154 0.23461 0.65619 0.0
H570 H 0.08756 0.22283 0.53726 0.0
H571 H 0.07704 0.17989 0.50781 0.0
C572 C 0.88214 0.11065 0.70657 0.0
C573 C 0.8729 0.15867 0.69652 0.0
C574 C 0.91436 0.15285 0.62079 0.0
C575 C 0.92076 0.10458 0.62955 0.0
N576 N 0.92941 0.03976 0.68597 0.0
N577 N 0.89772 0.22457 0.65302 0.0
C578 C 0.9104 0.08404 0.6742 0.0
C579 C 0.89472 0.17949 0.65641 0.0
N580 N 0.86278 0.09043 0.74605 0.0
N581 N 0.92467 0.17351 0.57816 0.0
H582 H 0.88536 0.24407 0.67968 0.0
H583 H 0.91729 0.24075 0.62654 0.0
H584 H 0.94055 0.15567 0.55128 0.0
H585 H 0.91506 0.20838 0.5689 0.0
H586 H 0.86461 0.05528 0.75314 0.0
H587 H 0.84324 0.10929 0.77081 0.0
H588 H 0.92745 0.02434 0.71933 0.0
H589 H 0.9516 0.02055 0.66297 0.0
C590 C 0.92285 0.92825 0.72954 0.0
C591 C 0.87493 0.94315 0.73196 0.0
C592 C 0.87929 0.96573 0.65093 0.0
C593 C 0.92326 0.9364 0.64711 0.0
N594 N 0.98911 0.89218 0.68356 0.0
N595 N 0.81786 0.0032 0.70263 0.0
C596 C 0.94646 0.9193 0.68666 0.0
C597 C 0.85789 0.97326 0.69521 0.0
N598 N 0.94393 0.91888 0.76854 0.0
N599 N 0.85471 0.97887 0.61426 0.0
H600 H 0.80119 0.00513 0.73542 0.0
H601 H 0.80415 0.02768 0.67747 0.0
H602 H 0.86572 0.96613 0.58332 0.0
H603 H 0.82123 0.99765 0.61607 0.0
H604 H 0.97971 0.90978 0.76917 0.0
H605 H 0.92492 0.92433 0.79977 0.0
H606 H 1.0051 0.87537 0.71178 0.0
H607 H 1.00754 0.88449 0.65268 0.0
C608 C 0.37597 0.2053 0.11266 0.0
C609 C 0.37418 0.18834 0.15938 0.0
C610 C 0.43911 0.12712 0.14336 0.0
C611 C 0.43669 0.14046 0.09631 0.0
N612 N 0.42054 0.20313 0.03869 0.0
N613 N 0.4172 0.14691 0.21994 0.0
C614 C 0.41063 0.18316 0.08156 0.0
C615 C 0.41008 0.15359 0.17509 0.0
N616 N 0.34454 0.24214 0.09811 0.0
N617 N 0.46808 0.08806 0.15739 0.0
H618 H 0.3976 0.16713 0.24355 0.0
H619 H 0.44521 0.12462 0.23289 0.0
H620 H 0.49195 0.07001 0.13466 0.0
H621 H 0.46738 0.07299 0.19088 0.0
H622 H 0.34074 0.25302 0.06399 0.0
H623 H 0.32114 0.2609 0.12054 0.0
H624 H 0.40488 0.23573 0.02642 0.0
H625 H 0.44851 0.18872 0.01733 0.0
C626 C 0.87977 0.31014 0.12962 0.0
C627 C 0.87074 0.31044 0.17775 0.0
C628 C 0.91911 0.37116 0.17108 0.0
C629 C 0.9288 0.37003 0.12343 0.0
N630 N 0.93302 0.32333 0.06262 0.0
N631 N 0.90099 0.3283 0.2435 0.0
C632 C 0.91419 0.3345 0.10449 0.0
C633 C 0.89596 0.33728 0.19825 0.0
N634 N 0.85409 0.28924 0.1066 0.0
N635 N 0.93293 0.404 0.19104 0.0
H636 H 0.88979 0.30054 0.26367 0.0
H637 H 0.92228 0.34408 0.25922 0.0
H638 H 0.95386 0.42638 0.17356 0.0
H639 H 0.92177 0.41008 0.22448 0.0
H640 H 0.85664 0.29216 0.07132 0.0
H641 H 0.82705 0.27299 0.12163 0.0
H642 H 0.92707 0.29475 0.04947 0.0
H643 H 0.95782 0.33976 0.04278 0.0
C644 C 0.65818 0.89037 0.17373 0.0
C645 C 0.6869 0.84891 0.16273 0.0
C646 C 0.64462 0.85127 0.09694 0.0
C647 C 0.62263 0.89633 0.10216 0.0
N648 N 0.60618 0.95927 0.14713 0.0
N649 N 0.71512 0.79787 0.10618 0.0
C650 C 0.62839 0.91604 0.14134 0.0
C651 C 0.68198 0.83139 0.12233 0.0
N652 N 0.65844 0.90444 0.21525 0.0
N653 N 0.62888 0.82683 0.06872 0.0
H654 H 0.7464 0.78808 0.12051 0.0
H655 H 0.71443 0.78566 0.07525 0.0
H656 H 0.59984 0.84009 0.05133 0.0
H657 H 0.64189 0.79238 0.06643 0.0
H658 H 0.63529 0.93196 0.22703 0.0
H659 H 0.67984 0.88649 0.23932 0.0
H660 H 0.61272 0.97758 0.17213 0.0
H661 H 0.58288 0.97779 0.12507 0.0
C662 C 0.11104 0.66891 0.09383 0.0
C663 C 0.14589 0.65396 0.12366 0.0
C664 C 0.14928 0.57455 0.10902 0.0
C665 C 0.11269 0.58917 0.08075 0.0
N666 N 0.05469 0.65022 0.05065 0.0
N667 N 0.19371 0.59253 0.16542 0.0
C668 C 0.09208 0.63626 0.07492 0.0
C669 C 0.16374 0.60672 0.13289 0.0
N670 N 0.0977 0.71462 0.08166 0.0
N671 N 0.17077 0.52998 0.11251 0.0
H672 H 0.20637 0.61508 0.18233 0.0
H673 H 0.20364 0.55854 0.17799 0.0
H674 H 0.15953 0.50494 0.09782 0.0
H675 H 0.20122 0.51808 0.12788 0.0
H676 H 0.07699 0.72802 0.05561 0.0
H677 H 0.11038 0.73961 0.09511 0.0
H678 H 0.03409 0.68236 0.05069 0.0
H679 H 0.04203 0.62883 0.03274 0.0
C680 C 0.34166 0.93585 0.8913 0.0
C681 C 0.34838 0.88759 0.89654 0.0
C682 C 0.41456 0.88489 0.93962 0.0
C683 C 0.40394 0.93301 0.93977 0.0
N684 N 0.34998 0.00303 0.92321 0.0
N685 N 0.38341 0.81668 0.93627 0.0
C686 C 0.36516 0.95812 0.91799 0.0
C687 C 0.38268 0.86224 0.9237 0.0
N688 N 0.31463 0.9606 0.85951 0.0
N689 N 0.45419 0.86028 0.95569 0.0
H690 H 0.35898 0.79929 0.92735 0.0
H691 H 0.40479 0.79744 0.95969 0.0
H692 H 0.47707 0.87428 0.97111 0.0
H693 H 0.46574 0.82609 0.95109 0.0
H694 H 0.31257 0.99568 0.85129 0.0
H695 H 0.29789 0.94571 0.8382 0.0
H696 H 0.31897 0.02128 0.91212 0.0
H697 H 0.36639 0.02117 0.94159 0.0
C698 C 0.13754 0.34595 0.84523 0.0
C699 C 0.16375 0.30352 0.86083 0.0
C700 C 0.13716 0.31684 0.93953 0.0
C701 C 0.11974 0.3631 0.92413 0.0
N702 N 0.09561 0.41996 0.86263 0.0
N703 N 0.18737 0.24644 0.92188 0.0
C704 C 0.11726 0.37696 0.87694 0.0
C705 C 0.16259 0.28799 0.90771 0.0
N706 N 0.13136 0.35584 0.80014 0.0
N707 N 0.12872 0.29999 0.98393 0.0
H708 H 0.20362 0.22322 0.89948 0.0
H709 H 0.19373 0.23583 0.95548 0.0
H710 H 0.10905 0.31898 1.00831 0.0
H711 H 0.13702 0.26562 0.99592 0.0
H712 H 0.10966 0.38448 0.78649 0.0
H713 H 0.14497 0.33304 0.77652 0.0
H714 H 0.09774 0.43461 0.82905 0.0
H715 H 0.07572 0.44169 0.8848 0.0
C716 C 0.70184 0.11723 0.84623 0.0
C717 C 0.68841 0.16509 0.84214 0.0
C718 C 0.6113 0.1548 0.88165 0.0
C719 C 0.62518 0.10645 0.88536 0.0
N720 N 0.673 0.04838 0.84254 0.0
N721 N 0.62347 0.2275 0.84033 0.0
C722 C 0.66752 0.08923 0.85956 0.0
C723 C 0.64114 0.1835 0.85546 0.0
N724 N 0.74682 0.09807 0.83511 0.0
N725 N 0.56883 0.17379 0.90049 0.0
H726 H 0.64285 0.24879 0.81892 0.0
H727 H 0.58842 0.2415 0.84507 0.0
H728 H 0.5417 0.15566 0.90988 0.0
H729 H 0.5604 0.20813 0.90553 0.0
H730 H 0.75856 0.06302 0.84074 0.0
H731 H 0.77282 0.11741 0.82408 0.0
H732 H 0.70222 0.03605 0.82148 0.0
H733 H 0.64534 0.03133 0.84222 0.0
C734 C 0.87543 0.60879 0.84631 0.0
C735 C 0.85744 0.65489 0.85397 0.0
C736 C 0.90311 0.64422 0.91912 0.0
C737 C 0.91376 0.59664 0.91651 0.0
N738 N 0.90514 0.53247 0.87996 0.0
N739 N 0.84692 0.71261 0.90551 0.0
C740 C 0.89842 0.57852 0.88077 0.0
C741 C 0.86941 0.67168 0.89246 0.0
N742 N 0.87292 0.59432 0.80541 0.0
N743 N 0.92591 0.66358 0.94633 0.0
H744 H 0.81961 0.73271 0.8893 0.0
H745 H 0.85166 0.72391 0.93581 0.0
H746 H 0.95283 0.64481 0.96395 0.0
H747 H 0.92199 0.69872 0.94679 0.0
H748 H 0.88905 0.56224 0.79691 0.0
H749 H 0.85961 0.61595 0.77807 0.0
H750 H 0.89043 0.51711 0.8574 0.0
H751 H 0.92253 0.50964 0.90418 0.0
C752 C 0.16263 0.37483 0.1846 0.0
C753 C 0.19353 0.33555 0.17108 0.0
C754 C 0.171 0.35447 0.09349 0.0
C755 C 0.13975 0.3941 0.10651 0.0
N756 N 0.11028 0.44523 0.163 0.0
N757 N 0.22037 0.28293 0.11548 0.0
C758 C 0.13635 0.40486 0.15191 0.0
C759 C 0.19573 0.32403 0.12638 0.0
N760 N 0.1569 0.38211 0.2293 0.0
N761 N 0.17883 0.3465 0.04904 0.0
H762 H 0.24104 0.2604 0.13737 0.0
H763 H 0.21772 0.26921 0.08592 0.0
H764 H 0.15945 0.36472 0.02387 0.0
H765 H 0.20658 0.32337 0.03619 0.0
H766 H 0.13164 0.40696 0.24303 0.0
H767 H 0.17558 0.36102 0.25384 0.0
H768 H 0.11005 0.45802 0.19367 0.0
H769 H 0.09092 0.46806 0.14019 0.0
C770 C 0.17892 0.67044 0.88974 0.0
C771 C 0.16626 0.68689 0.84529 0.0
C772 C 0.10585 0.63737 0.85841 0.0
C773 C 0.11673 0.62338 0.90378 0.0
N774 N 0.15593 0.63697 0.96537 0.0
N775 N 0.11093 0.69246 0.79104 0.0
C776 C 0.15075 0.64333 0.92019 0.0
C777 C 0.12772 0.67211 0.83074 0.0
N778 N 0.21969 0.67783 0.90227 0.0
N779 N 0.07508 0.61695 0.84139 0.0
H780 H 0.12477 0.71896 0.77121 0.0
H781 H 0.08069 0.68642 0.78011 0.0
H782 H 0.05712 0.59323 0.86119 0.0
H783 H 0.06942 0.62143 0.80726 0.0
H784 H 0.23334 0.66202 0.93209 0.0
H785 H 0.24244 0.69584 0.88106 0.0
H786 H 0.17655 0.65424 0.98031 0.0
H787 H 0.13534 0.61848 0.98843 0.0
C788 C 0.33964 0.16846 0.89395 0.0
C789 C 0.33355 0.1484 0.85501 0.0
C790 C 0.39872 0.08592 0.87342 0.0
C791 C 0.40314 0.10479 0.91351 0.0
N792 N 0.37712 0.16362 0.96264 0.0
N793 N 0.3516 0.08354 0.8127 0.0
C794 C 0.3734 0.1461 0.92365 0.0
C795 C 0.36159 0.10586 0.84613 0.0
N796 N 0.31288 0.20938 0.90255 0.0
N797 N 0.4297 0.0485 0.86169 0.0
H798 H 0.32348 0.09582 0.79409 0.0
H799 H 0.36771 0.05078 0.80655 0.0
H800 H 0.45584 0.03207 0.8816 0.0
H801 H 0.43178 0.03551 0.83081 0.0
H802 H 0.31913 0.22939 0.92613 0.0
H803 H 0.28432 0.22435 0.8852 0.0
H804 H 0.35299 0.18926 0.9765 0.0
H805 H 0.40438 0.1511 0.98234 0.0
C806 C 0.88021 0.34486 0.94886 0.0
C807 C 0.90491 0.33316 0.90742 0.0
C808 C 0.9537 0.39079 0.90822 0.0
C809 C 0.93057 0.40202 0.95118 0.0
N810 N 0.86722 0.39088 0.01048 0.0
N811 N 0.97079 0.33666 0.8524 0.0
C812 C 0.89266 0.37927 0.97104 0.0
C813 C 0.94362 0.35339 0.88887 0.0
N814 N 0.84585 0.32122 0.96809 0.0
N815 N 0.98167 0.41858 0.88336 0.0
H816 H 0.96375 0.30956 0.83745 0.0
H817 H 1.00257 0.34628 0.84013 0.0
H818 H 0.98602 0.44943 0.89289 0.0
H819 H 0.99577 0.41444 0.8502 0.0
H820 H 0.82864 0.32426 1.00029 0.0
H821 H 0.83611 0.29562 0.95297 0.0
H822 H 0.83323 0.3857 0.01938 0.0
H823 H 0.87966 0.40415 0.03585 0.0
C824 C 0.68075 0.79131 0.9088 0.0
C825 C 0.66927 0.79273 0.86414 0.0
C826 C 0.59697 0.8456 0.88298 0.0
C827 C 0.61306 0.85077 0.92447 0.0
N828 N 0.67599 0.83401 0.97223 0.0
N829 N 0.61749 0.82347 0.80686 0.0
C830 C 0.65615 0.82448 0.93658 0.0
C831 C 0.62724 0.82001 0.85083 0.0
N832 N 0.71593 0.75883 0.92432 0.0
N833 N 0.55334 0.86639 0.87382 0.0
H834 H 0.63816 0.80441 0.78286 0.0
H835 H 0.59039 0.84688 0.79362 0.0
H836 H 0.53121 0.88612 0.8964 0.0
H837 H 0.53788 0.8609 0.84601 0.0
H838 H 0.72337 0.75372 0.95801 0.0
H839 H 0.73426 0.73398 0.90452 0.0
H840 H 0.70949 0.81929 0.97961 0.0
H841 H 0.66075 0.85995 0.99169 0.0
C842 C 0.84125 0.68617 0.11047 0.0
C843 C 0.86246 0.70357 0.1433 0.0
C844 C 0.9359 0.65366 0.1227 0.0
C845 C 0.91434 0.63715 0.09008 0.0
N846 N 0.85232 0.64926 0.04216 0.0
N847 N 0.93418 0.71345 0.16982 0.0
C848 C 0.869 0.65743 0.08034 0.0
C849 C 0.91127 0.6909 0.14557 0.0
N850 N 0.79425 0.69485 0.10919 0.0
N851 N 0.97873 0.63213 0.1338 0.0
H852 H 0.91817 0.74073 0.1873 0.0
H853 H 0.97018 0.70798 0.16888 0.0
H854 H 0.99757 0.60473 0.11774 0.0
H855 H 0.99402 0.63916 0.16108 0.0
H856 H 0.77711 0.67774 0.09026 0.0
H857 H 0.77166 0.71629 0.12947 0.0
H858 H 0.8213 0.66708 0.03072 0.0
H859 H 0.87195 0.62841 0.01926 0.0
C860 C 0.36166 0.82993 0.13054 0.0
C861 C 0.34535 0.84091 0.17515 0.0
C862 C 0.40065 0.89466 0.16629 0.0
C863 C 0.41046 0.88983 0.11926 0.0
N864 N 0.39093 0.85823 0.05533 0.0
N865 N 0.34469 0.89066 0.23242 0.0
C866 C 0.38867 0.85867 0.10104 0.0
C867 C 0.36383 0.87503 0.19231 0.0
N868 N 0.35319 0.79109 0.11652 0.0
N869 N 0.42701 0.91759 0.18638 0.0
H870 H 0.31574 0.87967 0.25085 0.0
H871 H 0.35407 0.91822 0.24459 0.0
H872 H 0.45502 0.93112 0.16864 0.0
H873 H 0.42432 0.91867 0.22132 0.0
H874 H 0.36813 0.77955 0.0858 0.0
H875 H 0.33588 0.7677 0.13752 0.0
H876 H 0.37167 0.83963 0.04026 0.0
H877 H 0.40798 0.88019 0.03252 0.0
C878 C 0.6555 0.13587 0.08803 0.0
C879 C 0.68786 0.1094 0.11688 0.0
C880 C 0.67083 0.03982 0.09297 0.0
C881 C 0.63364 0.06588 0.06941 0.0
N882 N 0.58849 0.13962 0.04734 0.0
N883 N 0.71969 0.03556 0.15332 0.0
C884 C 0.6251 0.11418 0.06814 0.0
C885 C 0.6938 0.06119 0.12109 0.0
N886 N 0.65526 0.18167 0.07807 0.0
N887 N 0.6853 0.99478 0.08783 0.0
H888 H 0.7369 0.04969 0.17486 0.0
H889 H 0.72058 1.0006 0.16143 0.0
H890 H 0.66927 0.97717 0.06854 0.0
H891 H 0.71543 0.97571 0.10006 0.0
H892 H 0.63593 0.20224 0.05378 0.0
H893 H 0.67809 0.1984 0.09071 0.0
H894 H 0.57726 0.17419 0.05017 0.0
H895 H 0.5672 0.12582 0.02968 0.0
C896 C 0.55535 0.63102 0.81492 0.0
C897 C 0.58365 0.66201 0.81921 0.0
C898 C 0.58091 0.64173 0.90046 0.0
C899 C 0.56712 0.60066 0.89344 0.0
N900 N 0.52885 0.56166 0.84665 0.0
N901 N 0.59715 0.71585 0.86517 0.0
C902 C 0.54937 0.59736 0.85171 0.0
C903 C 0.58545 0.67474 0.86242 0.0
N904 N 0.53602 0.63351 0.77536 0.0
N905 N 0.59202 0.64769 0.94201 0.0
H906 H 0.60229 0.7379 0.83565 0.0
H907 H 0.59854 0.7287 0.89552 0.0
H908 H 0.58943 0.62336 0.97013 0.0
H909 H 0.60509 0.67585 0.94832 0.0
H910 H 0.51214 0.6136 0.77037 0.0
H911 H 0.5409 0.65924 0.74902 0.0
H912 H 0.51997 0.555 0.81589 0.0
H913 H 0.5217 0.53785 0.87341 0.0
C914 C 0.33433 0.60692 0.83498 0.0
C915 C 0.35322 0.64602 0.81527 0.0
C916 C 0.41191 0.62978 0.86886 0.0
C917 C 0.39372 0.59016 0.88774 0.0
N918 N 0.34619 0.53442 0.88188 0.0
N919 N 0.41585 0.68869 0.80526 0.0
C920 C 0.35772 0.57653 0.86848 0.0
C921 C 0.39409 0.65544 0.82959 0.0
N922 N 0.29255 0.6003 0.82414 0.0
N923 N 0.44475 0.64384 0.88954 0.0
H924 H 0.40372 0.70739 0.77578 0.0
H925 H 0.44798 0.69466 0.81161 0.0
H926 H 0.45856 0.62579 0.91848 0.0
H927 H 0.45599 0.67492 0.88 0.0
H928 H 0.27447 0.57574 0.84197 0.0
H929 H 0.27405 0.62133 0.79953 0.0
H930 H 0.32378 0.52073 0.86538 0.0
H931 H 0.36218 0.51148 0.90692 0.0
C932 C 0.4124 0.40437 0.85284 0.0
C933 C 0.38373 0.37167 0.86842 0.0
C934 C 0.38946 0.38282 0.94763 0.0
C935 C 0.41981 0.41451 0.93207 0.0
N936 N 0.46711 0.4482 0.86921 0.0
N937 N 0.34922 0.32458 0.92987 0.0
C938 C 0.43348 0.42287 0.88455 0.0
C939 C 0.37359 0.35927 0.91569 0.0
N940 N 0.41818 0.41924 0.8075 0.0
N941 N 0.37546 0.37568 0.99294 0.0
H942 H 0.33586 0.30792 0.90737 0.0
H943 H 0.3446 0.31032 0.96344 0.0
H944 H 0.38882 0.38991 0.01736 0.0
H945 H 0.3494 0.35724 1.00634 0.0
H946 H 0.43287 0.44783 0.79452 0.0
H947 H 0.40506 0.4053 0.78274 0.0
H948 H 0.48333 0.44991 0.83621 0.0
H949 H 0.48162 0.46465 0.89028 0.0
C950 C 0.64945 0.40002 0.80274 0.0
C951 C 0.66388 0.35326 0.81834 0.0
C952 C 0.61777 0.36516 0.89139 0.0
C953 C 0.61033 0.41269 0.87879 0.0
N954 N 0.62296 0.47665 0.82381 0.0
N955 N 0.66776 0.29359 0.88215 0.0
C956 C 0.6265 0.43058 0.8345 0.0
C957 C 0.64955 0.33638 0.86387 0.0
N958 N 0.65908 0.4156 0.75817 0.0
N959 N 0.59413 0.34735 0.92981 0.0
H960 H 0.69063 0.2702 0.86411 0.0
H961 H 0.66272 0.28234 0.91662 0.0
H962 H 0.57001 0.36759 0.95048 0.0
H963 H 0.59467 0.31247 0.93828 0.0
H964 H 0.64547 0.44818 0.74393 0.0
H965 H 0.67793 0.39492 0.73458 0.0
H966 H 0.63843 0.49184 0.79392 0.0
H967 H 0.60766 0.49974 0.84661 0.0
C968 C 0.63169 0.37694 0.20821 0.0
C969 C 0.6694 0.34442 0.19222 0.0
C970 C 0.64366 0.36286 0.11677 0.0
C971 C 0.61493 0.40326 0.12968 0.0
N972 N 0.58582 0.45091 0.19089 0.0
N973 N 0.71783 0.31664 0.12634 0.0
C974 C 0.60957 0.41103 0.1764 0.0
C975 C 0.6773 0.33999 0.14509 0.0
N976 N 0.61576 0.37458 0.25317 0.0
N977 N 0.63852 0.34566 0.07803 0.0
H978 H 0.74655 0.30435 0.14428 0.0
H979 H 0.72493 0.31543 0.09142 0.0
H980 H 0.61124 0.35917 0.05833 0.0
H981 H 0.65759 0.31459 0.06932 0.0
H982 H 0.58556 0.39519 0.26544 0.0
H983 H 0.62907 0.34845 0.27711 0.0
H984 H 0.58548 0.45839 0.224 0.0
H985 H 0.57071 0.47865 0.16995 0.0
C986 C 0.63184 0.5793 0.16553 0.0
C987 C 0.62988 0.62685 0.15946 0.0
C988 C 0.58747 0.63095 0.0925 0.0
C989 C 0.5982 0.58266 0.09388 0.0
N990 N 0.64567 0.51318 0.12658 0.0
N991 N 0.61098 0.69841 0.11235 0.0
C992 C 0.62456 0.55734 0.12889 0.0
C993 C 0.60863 0.65312 0.12185 0.0
N994 N 0.64148 0.55478 0.20617 0.0
N995 N 0.5582 0.65574 0.06276 0.0
H996 H 0.62734 0.71561 0.13192 0.0
H997 H 0.60028 0.71793 0.08278 0.0
H998 H 0.54341 0.64093 0.03984 0.0
H999 H 0.54584 0.69049 0.06345 0.0
H1000 H 0.63976 0.52014 0.21313 0.0
H1001 H 0.64593 0.57015 0.23425 0.0
H1002 H 0.66801 0.49562 0.15001 0.0
H1003 H 0.64672 0.49582 0.09881 0.0
C1004 C 0.4041 0.65235 0.18879 0.0
C1005 C 0.35999 0.64767 0.21168 0.0
C1006 C 0.35434 0.58809 0.16561 0.0
C1007 C 0.39995 0.59 0.14435 0.0
N1008 N 0.47113 0.62 0.14128 0.0
N1009 N 0.30113 0.60122 0.23263 0.0
C1010 C 0.42602 0.62036 0.15826 0.0
C1011 C 0.33787 0.61218 0.20355 0.0
N1012 N 0.42363 0.68906 0.19355 0.0
N1013 N 0.32559 0.565 0.14893 0.0
H1014 H 0.28989 0.6172 0.26192 0.0
H1015 H 0.28581 0.57306 0.2306 0.0
H1016 H 0.33526 0.54604 0.12163 0.0
H1017 H 0.29057 0.56733 0.16048 0.0
H1018 H 0.45274 0.69761 0.17324 0.0
H1019 H 0.40895 0.71298 0.21574 0.0
H1020 H 0.49329 0.63705 0.15439 0.0
H1021 H 0.48719 0.60059 0.11578 0.0
C1022 C 0.48713 0.37293 0.19773 0.0
C1023 C 0.45159 0.38923 0.23018 0.0
C1024 C 0.41631 0.44632 0.17597 0.0
C1025 C 0.44498 0.42515 0.1396 0.0
N1026 N 0.5086 0.36481 0.11802 0.0
N1027 N 0.4111 0.45906 0.25493 0.0
C1028 C 0.48236 0.38849 0.15091 0.0
C1029 C 0.42907 0.43383 0.22043 0.0
N1030 N 0.52186 0.3395 0.21208 0.0
N1031 N 0.37287 0.47004 0.17073 0.0
H1032 H 0.41732 0.44675 0.28841 0.0
H1033 H 0.39385 0.49263 0.24914 0.0
H1034 H 0.35508 0.46796 0.14335 0.0
H1035 H 0.35102 0.48314 0.19779 0.0
H1036 H 0.55086 0.32655 0.19121 0.0
H1037 H 0.52235 0.32745 0.24652 0.0
H1038 H 0.53504 0.33739 0.12461 0.0
H1039 H 0.50102 0.36906 0.08446 0.0
C1040 C 0.91492 0.67564 0.66289 0.0
C1041 C 0.86815 0.69169 0.65377 0.0
C1042 C 0.88428 0.66083 0.58047 0.0
C1043 C 0.93008 0.64313 0.59082 0.0
N1044 N 0.99349 0.6474 0.63222 0.0
N1045 N 0.81263 0.71246 0.59854 0.0
C1046 C 0.94692 0.6557 0.62869 0.0
C1047 C 0.85419 0.68847 0.61066 0.0
N1048 N 0.92807 0.67595 0.70513 0.0
N1049 N 0.86933 0.64964 0.5427 0.0
H1050 H 0.79105 0.73436 0.61948 0.0
H1051 H 0.8018 0.71423 0.56639 0.0
H1052 H 0.89195 0.63176 0.51898 0.0
H1053 H 0.83484 0.65675 0.53569 0.0
H1054 H 0.9604 0.65997 0.71484 0.0
H1055 H 0.90561 0.68863 0.73194 0.0
H1056 H 1.00855 0.65881 0.6573 0.0
H1057 H 0.01722 0.63355 0.60679 0.0
C1058 C 0.35006 0.86215 0.64592 0.0
C1059 C 0.36538 0.81468 0.65845 0.0
C1060 C 0.44532 0.82543 0.62957 0.0
C1061 C 0.42897 0.87195 0.61405 0.0
N1062 N 0.36326 0.92968 0.59587 0.0
N1063 N 0.42713 0.74983 0.65552 0.0
C1064 C 0.38056 0.88859 0.61855 0.0
C1065 C 0.41278 0.79581 0.64749 0.0
N1066 N 0.30689 0.88307 0.66147 0.0
N1067 N 0.4918 0.81027 0.63051 0.0
H1068 H 0.40502 0.72754 0.6706 0.0
H1069 H 0.46001 0.73348 0.64414 0.0
H1070 H 0.51628 0.83131 0.61986 0.0
H1071 H 0.50585 0.77828 0.64576 0.0
H1072 H 0.29656 0.91836 0.65788 0.0
H1073 H 0.28253 0.86611 0.6813 0.0
H1074 H 0.3279 0.94128 0.59407 0.0
H1075 H 0.38411 0.94971 0.57447 0.0
C1076 C 0.15088 0.32461 0.64414 0.0
C1077 C 0.18476 0.34271 0.66262 0.0
C1078 C 0.1585 0.41478 0.61568 0.0
C1079 C 0.1167 0.39993 0.61071 0.0
N1080 N 0.07246 0.33896 0.62461 0.0
N1081 N 0.21796 0.41067 0.66562 0.0
C1082 C 0.11259 0.35443 0.62647 0.0
C1083 C 0.18836 0.38939 0.64802 0.0
N1084 N 0.15734 0.27944 0.63891 0.0
N1085 N 0.17033 0.45216 0.58908 0.0
H1086 H 0.23863 0.39545 0.69109 0.0
H1087 H 0.2185 0.44542 0.65766 0.0
H1088 H 0.14975 0.47016 0.56437 0.0
H1089 H 0.20235 0.4622 0.58883 0.0
H1090 H 0.13628 0.26701 0.61985 0.0
H1091 H 0.18768 0.25681 0.64589 0.0
H1092 H 0.06657 0.30805 0.64221 0.0
H1093 H 0.04413 0.35844 0.60961 0.0
C1094 C 0.63092 0.11852 0.65513 0.0
C1095 C 0.63844 0.15678 0.62341 0.0
C1096 C 0.59504 0.13188 0.56967 0.0
C1097 C 0.58996 0.09151 0.59961 0.0
N1098 N 0.6039 0.04621 0.67166 0.0
N1099 N 0.63528 0.19581 0.54771 0.0
C1100 C 0.60791 0.08491 0.64273 0.0
C1101 C 0.62336 0.16182 0.57968 0.0
N1102 N 0.64574 0.11452 0.69738 0.0
N1103 N 0.56896 0.14443 0.53392 0.0
H1104 H 0.65301 0.22069 0.55446 0.0
H1105 H 0.6307 0.1972 0.5135 0.0
H1106 H 0.54386 0.12661 0.52805 0.0
H1107 H 0.56759 0.17557 0.51365 0.0
H1108 H 0.63561 0.092 0.72469 0.0
H1109 H 0.66736 0.13512 0.70603 0.0
H1110 H 0.62121 0.03639 0.70061 0.0
H1111 H 0.58521 0.02177 0.66608 0.0
C1112 C 0.89777 0.37061 0.38343 0.0
C1113 C 0.85109 0.38661 0.3994 0.0
C1114 C 0.87557 0.44234 0.43967 0.0
C1115 C 0.9227 0.4263 0.42404 0.0
N1116 N 0.97904 0.36833 0.38929 0.0
N1117 N 0.79555 0.43027 0.44935 0.0
C1118 C 0.93389 0.38859 0.39807 0.0
C1119 C 0.84001 0.42019 0.42966 0.0
N1120 N 0.90751 0.33826 0.35384 0.0
N1121 N 0.86449 0.48 0.46237 0.0
H1122 H 0.76869 0.41517 0.44185 0.0
H1123 H 0.78588 0.45054 0.47572 0.0
H1124 H 0.88925 0.49697 0.47082 0.0
H1125 H 0.83073 0.49654 0.47006 0.0
H1126 H 0.93994 0.32902 0.33642 0.0
H1127 H 0.88254 0.32178 0.34461 0.0
H1128 H 0.98927 0.33783 0.37511 0.0
H1129 H 1.00685 0.37945 0.39979 0.0
C1130 C 0.6341 0.81412 0.36205 0.0
C1131 C 0.68285 0.80331 0.36334 0.0
C1132 C 0.67684 0.84692 0.42798 0.0
C1133 C 0.62834 0.85755 0.42618 0.0
N1134 N 0.56025 0.83529 0.40485 0.0
N1135 N 0.74837 0.7969 0.40635 0.0
C1136 C 0.60677 0.83541 0.39798 0.0
C1137 C 0.70358 0.81562 0.39932 0.0
N1138 N 0.61398 0.80825 0.32493 0.0
N1139 N 0.69724 0.86757 0.45621 0.0
H1140 H 0.76828 0.77266 0.38677 0.0
H1141 H 0.76396 0.80176 0.43432 0.0
H1142 H 0.6779 0.88855 0.47941 0.0
H1143 H 0.73301 0.86531 0.45525 0.0
H1144 H 0.57902 0.82019 0.32104 0.0
H1145 H 0.6327 0.7964 0.29581 0.0
H1146 H 0.54397 0.81601 0.38736 0.0
H1147 H 0.53934 0.84932 0.43185 0.0
C1148 C 0.16619 0.63698 0.32325 0.0
C1149 C 0.19129 0.65878 0.34917 0.0
C1150 C 0.15774 0.61678 0.41786 0.0
C1151 C 0.12533 0.60414 0.39265 0.0
N1152 N 0.09653 0.60703 0.31973 0.0
N1153 N 0.20512 0.67285 0.42387 0.0
C1154 C 0.12881 0.61586 0.34491 0.0
C1155 C 0.18567 0.64955 0.39731 0.0
N1156 N 0.17974 0.63352 0.27829 0.0
N1157 N 0.1641 0.59549 0.4604 0.0
H1158 H 0.22235 0.69981 0.41131 0.0
H1159 H 0.20003 0.66832 0.45908 0.0
H1160 H 0.14585 0.56988 0.47554 0.0
H1161 H 0.19091 0.59975 0.47825 0.0
H1162 H 0.16499 0.61435 0.2593 0.0
H1163 H 0.20951 0.64431 0.26146 0.0
H1164 H 0.09468 0.61998 0.28573 0.0
H1165 H 0.06933 0.59018 0.3334 0.0
C1166 C 0.37514 0.1639 0.39126 0.0
C1167 C 0.36082 0.15009 0.35233 0.0
C1168 C 0.40583 0.07385 0.37034 0.0
C1169 C 0.42678 0.09032 0.40347 0.0
N1170 N 0.43509 0.1538 0.44185 0.0
N1171 N 0.3684 0.09174 0.30146 0.0
C1172 C 0.41231 0.13607 0.4132 0.0
C1173 C 0.3774 0.1049 0.34106 0.0
N1174 N 0.35199 0.2026 0.40854 0.0
N1175 N 0.41189 0.02816 0.36774 0.0
H1176 H 0.34883 0.11267 0.27769 0.0
H1177 H 0.38459 0.06101 0.28971 0.0
H1178 H 0.43091 0.00471 0.39008 0.0
H1179 H 0.3937 0.01355 0.34749 0.0
H1180 H 0.35833 0.21202 0.43918 0.0
H1181 H 0.32271 0.22224 0.39521 0.0
H1182 H 0.42915 0.18834 0.44604 0.0
H1183 H 0.46268 0.13493 0.45848 0.0
C1184 C 0.67059 0.87644 0.67943 0.0
C1185 C 0.68241 0.82998 0.67097 0.0
C1186 C 0.63004 0.84636 0.61065 0.0
C1187 C 0.6209 0.8931 0.61788 0.0
N1188 N 0.64965 0.95335 0.64422 0.0
N1189 N 0.68325 0.77474 0.6187 0.0
C1190 C 0.64644 0.90841 0.64773 0.0
C1191 C 0.66505 0.81597 0.63366 0.0
N1192 N 0.67953 0.89012 0.71875 0.0
N1193 N 0.60489 0.83055 0.58271 0.0
H1194 H 0.7104 0.75231 0.63292 0.0
H1195 H 0.67502 0.76499 0.58895 0.0
H1196 H 0.58007 0.85165 0.56403 0.0
H1197 H 0.6063 0.79597 0.58066 0.0
H1198 H 0.66816 0.92334 0.72685 0.0
H1199 H 0.69261 0.86764 0.74563 0.0
H1200 H 0.67143 0.96561 0.6628 0.0
H1201 H 0.63542 0.97663 0.61832 0.0
C1202 C 0.67581 0.16274 0.40043 0.0
C1203 C 0.66126 0.19018 0.36042 0.0
C1204 C 0.5928 0.15266 0.36617 0.0
C1205 C 0.60805 0.12419 0.40538 0.0
N1206 N 0.65882 0.10736 0.46482 0.0
N1207 N 0.60192 0.21833 0.31045 0.0
C1208 C 0.64786 0.1311 0.42416 0.0
C1209 C 0.61838 0.18726 0.34502 0.0
N1210 N 0.71753 0.16541 0.41443 0.0
N1211 N 0.55449 0.14566 0.34843 0.0
H1212 H 0.61975 0.24414 0.29487 0.0
H1213 H 0.56925 0.2212 0.29956 0.0
H1214 H 0.53369 0.12247 0.36426 0.0
H1215 H 0.54419 0.16118 0.3172 0.0
H1216 H 0.7333 0.14288 0.43981 0.0
H1217 H 0.73785 0.1892 0.39896 0.0
H1218 H 0.6843 0.11374 0.48307 0.0
H1219 H 0.63998 0.08311 0.48217 0.0
C1220 C 0.8448 0.6424 0.38357 0.0
C1221 C 0.85921 0.66139 0.33911 0.0
C1222 C 0.94012 0.63533 0.35473 0.0
C1223 C 0.92637 0.60843 0.39509 0.0
N1224 N 0.86313 0.58851 0.44933 0.0
N1225 N 0.9216 0.66831 0.27971 0.0
C1226 C 0.87797 0.61269 0.41012 0.0
C1227 C 0.90717 0.65563 0.32397 0.0
N1228 N 0.79997 0.65463 0.40147 0.0
N1229 N 0.98424 0.64431 0.34723 0.0
H1230 H 0.89855 0.68126 0.25545 0.0
H1231 H 0.95614 0.66114 0.26627 0.0
H1232 H 1.00753 0.63464 0.3718 0.0
H1233 H 0.99518 0.66666 0.32001 0.0
H1234 H 0.78848 0.64651 0.43541 0.0
H1235 H 0.77501 0.67656 0.38348 0.0
H1236 H 0.82861 0.58506 0.45827 0.0
H1237 H 0.88516 0.57075 0.47263 0.0
C1238 C 0.44546 0.85205 0.37174 0.0
C1239 C 0.41303 0.83315 0.40408 0.0
C1240 C 0.41446 0.89192 0.45318 0.0
C1241 C 0.44967 0.90896 0.4223 0.0
N1242 N 0.47881 0.91891 0.34294 0.0
N1243 N 0.37134 0.83008 0.47817 0.0
C1244 C 0.4599 0.89283 0.37886 0.0
C1245 C 0.39922 0.8515 0.44574 0.0
N1246 N 0.46223 0.83093 0.33388 0.0
N1247 N 0.39133 0.91743 0.48608 0.0
H1248 H 0.35973 0.80053 0.47315 0.0
H1249 H 0.36368 0.83881 0.51116 0.0
H1250 H 0.39548 0.95093 0.48726 0.0
H1251 H 0.3628 0.90867 0.50717 0.0
H1252 H 0.4895 0.84025 0.31119 0.0
H1253 H 0.45207 0.80105 0.32772 0.0
H1254 H 0.48371 0.9105 0.30982 0.0
H1255 H 0.48269 0.95239 0.3445 0.0
C1256 C 0.20085 0.32511 0.4026 0.0
C1257 C 0.18491 0.30033 0.37196 0.0
C1258 C 0.10657 0.3195 0.41048 0.0
C1259 C 0.12047 0.35475 0.42925 0.0
N1260 N 0.18242 0.38888 0.4474 0.0
N1261 N 0.11785 0.27912 0.34484 0.0
C1262 C 0.16827 0.3566 0.42691 0.0
C1263 C 0.13657 0.29796 0.37584 0.0
N1264 N 0.24664 0.31757 0.40967 0.0
N1265 N 0.06504 0.30652 0.42562 0.0
H1266 H 0.1362 0.26715 0.31568 0.0
H1267 H 0.0822 0.28055 0.34534 0.0
H1268 H 0.04365 0.32065 0.45241 0.0
H1269 H 0.05493 0.27837 0.41522 0.0
H1270 H 0.25934 0.33231 0.43409 0.0
H1271 H 0.27088 0.29229 0.39526 0.0
H1272 H 0.2162 0.39557 0.44228 0.0
H1273 H 0.15956 0.41012 0.46816 0.0
C1274 C 0.38044 0.20228 0.62113 0.0
C1275 C 0.34871 0.18322 0.65469 0.0
C1276 C 0.36343 0.11485 0.61632 0.0
C1277 C 0.40415 0.12741 0.59238 0.0
N1278 N 0.44964 0.18775 0.569 0.0
N1279 N 0.32432 0.11309 0.69085 0.0
C1280 C 0.41219 0.1727 0.59341 0.0
C1281 C 0.34351 0.13734 0.6539 0.0
N1282 N 0.37915 0.24832 0.61422 0.0
N1283 N 0.34575 0.07943 0.60518 0.0
H1284 H 0.31603 0.12567 0.72212 0.0
H1285 H 0.32294 0.07852 0.69182 0.0
H1286 H 0.35961 0.06289 0.5767 0.0
H1287 H 0.31484 0.07044 0.62148 0.0
H1288 H 0.39886 0.26412 0.58758 0.0
H1289 H 0.3547 0.27113 0.63179 0.0
H1290 H 0.46056 0.21745 0.57446 0.0
H1291 H 0.46967 0.17101 0.54328 0.0
C1292 C 0.86475 0.37347 0.6868 0.0
C1293 C 0.84323 0.34525 0.66484 0.0
C1294 C 0.89083 0.36659 0.59395 0.0
C1295 C 0.91698 0.38864 0.61853 0.0
N1296 N 0.93615 0.39934 0.69222 0.0
N1297 N 0.8423 0.30912 0.59723 0.0
C1298 C 0.90628 0.38758 0.6662 0.0
C1299 C 0.85791 0.34017 0.6182 0.0
N1300 N 0.84411 0.38908 0.72641 0.0
N1301 N 0.89573 0.37209 0.54766 0.0
H1302 H 0.81923 0.28837 0.61337 0.0
H1303 H 0.85586 0.30084 0.56495 0.0
H1304 H 0.91902 0.391 0.52866 0.0
H1305 H 0.87385 0.36108 0.52825 0.0
H1306 H 0.85719 0.41205 0.74242 0.0
H1307 H 0.81064 0.38427 0.73913 0.0
H1308 H 0.93105 0.39586 0.72758 0.0
H1309 H 0.96847 0.40715 0.6788 0.0
C1310 C 0.16127 0.6263 0.575 0.0
C1311 C 0.18529 0.60527 0.6126 0.0
C1312 C 0.13642 0.54681 0.62741 0.0
C1313 C 0.11256 0.56682 0.58906 0.0
N1314 N 0.09512 0.63136 0.53257 0.0
N1315 N 0.19726 0.54537 0.67438 0.0
C1316 C 0.12325 0.60812 0.56425 0.0
C1317 C 0.17377 0.56516 0.63808 0.0
N1318 N 0.17398 0.66501 0.55125 0.0
N1319 N 0.12361 0.51094 0.65584 0.0
H1320 H 0.22562 0.55723 0.68325 0.0
H1321 H 0.18896 0.51649 0.69492 0.0
H1322 H 0.09609 0.49493 0.65214 0.0
H1323 H 0.09609 0.49493 0.65214 0.0
H1324 H 0.15687 0.68479 0.52519 0.0
H1325 H 0.20329 0.67725 0.55726 0.0
H1326 H 0.09942 0.66221 0.51379 0.0
H1327 H 0.06539 0.62076 0.52581 0.0
loop_
_geom_bond_atom_site_label_1
_geom_bond_atom_site_label_2
_geom_bond_distance
_geom_bond_site_symmetry_2
_ccdc_geom_bond_type
C0 O16 1.251 . S
C0 O18 1.254 . S
N1 C2 1.333 . S
N1 C6 1.307 . S
N1 Zn7 2.020 . S
C2 N1 1.333 . S
C2 C3 1.379 . S
C2 H20 0.952 . S
C3 C2 1.379 . S
C3 C4 1.390 . S
C3 H30 0.949 . S
C4 C3 1.390 . S
C4 C5 1.357 . S
C5 C4 1.357 . S
C5 C6 1.370 . S
C5 H31 0.950 . S
C6 N1 1.307 . S
C6 C5 1.370 . S
C6 H24 0.948 . S
Zn7 N1 2.020 . S
Zn7 O16 2.039 . S
Zn7 O22 2.034 . S
Zn7 O26 2.025 . S
Zn7 O28 2.024 . S
C8 O27 1.246 . S
C8 O28 1.249 . S
N9 C10 1.307 . S
N9 C11 1.333 . S
N9 Zn15 2.020 . S
C10 N9 1.307 . S
C10 C14 1.370 . S
C10 H21 0.948 . S
C11 N9 1.333 . S
C11 C12 1.379 . S
C11 H19 0.952 . S
C12 C11 1.379 . S
C12 C13 1.390 . S
C12 H32 0.949 . S
C13 C12 1.390 . S
C13 C14 1.357 . S
C14 C10 1.370 . S
C14 C13 1.357 . S
C14 H33 0.950 . S
Zn15 N9 2.020 . S
Zn15 O18 2.025 . S
Zn15 O23 2.024 . S
Zn15 O25 2.039 . S
Zn15 O27 2.034 . S
O16 C0 1.251 . S
O16 Zn7 2.039 . S
C17 O22 1.246 . S
C17 O23 1.249 . S
O18 C0 1.254 . S
O18 Zn15 2.025 . S
H19 C11 0.952 . S
H20 C2 0.952 . S
H21 C10 0.948 . S
O22 Zn7 2.034 . S
O22 C17 1.246 . S
O23 Zn15 2.024 . S
O23 C17 1.249 . S
H24 C6 0.948 . S
O25 Zn15 2.039 . S
O25 C29 1.251 . S
O26 Zn7 2.025 . S
O26 C29 1.254 . S
O27 C8 1.246 . S
O27 Zn15 2.034 . S
O28 Zn7 2.024 . S
O28 C8 1.249 . S
C29 O25 1.251 . S
C29 O26 1.254 . S
H30 C3 0.949 . S
H31 C5 0.950 . S
H32 C12 0.949 . S
H33 C14 0.950 . S
C34 O50 1.251 . S
C34 O52 1.254 . S
N35 C36 1.333 . S
N35 C40 1.307 . S
N35 Zn41 2.020 . S
C36 N35 1.333 . S
C36 C37 1.379 . S
C36 H54 0.952 . S
C37 C36 1.379 . S
C37 C38 1.390 . S
C37 H64 0.949 . S
C38 C37 1.390 . S
C38 C39 1.357 . S
C39 C38 1.357 . S
C39 C40 1.370 . S
C39 H65 0.950 . S
C40 N35 1.307 . S
C40 C39 1.370 . S
C40 H58 0.948 . S
Zn41 N35 2.020 . S
Zn41 O50 2.039 . S
Zn41 O56 2.034 . S
Zn41 O60 2.025 . S
Zn41 O62 2.024 . S
C42 O61 1.246 . S
C42 O62 1.249 . S
N43 C44 1.307 . S
N43 C45 1.333 . S
N43 Zn49 2.020 . S
C44 N43 1.307 . S
C44 C48 1.370 . S
C44 H55 0.948 . S
C45 N43 1.333 . S
C45 C46 1.379 . S
C45 H53 0.952 . S
C46 C45 1.379 . S
C46 C47 1.390 . S
C46 H66 0.949 . S
C47 C46 1.390 . S
C47 C48 1.357 . S
C48 C44 1.370 . S
C48 C47 1.357 . S
C48 H67 0.950 . S
Zn49 N43 2.020 . S
Zn49 O52 2.025 . S
Zn49 O57 2.024 . S
Zn49 O59 2.039 . S
Zn49 O61 2.034 . S
O50 C34 1.251 . S
O50 Zn41 2.039 . S
C51 O56 1.246 . S
C51 O57 1.249 . S
O52 C34 1.254 . S
O52 Zn49 2.025 . S
H53 C45 0.952 . S
H54 C36 0.952 . S
H55 C44 0.948 . S
O56 Zn41 2.034 . S
O56 C51 1.246 . S
O57 Zn49 2.024 . S
O57 C51 1.249 . S
H58 C40 0.948 . S
O59 Zn49 2.039 . S
O59 C63 1.251 . S
O60 Zn41 2.025 . S
O60 C63 1.254 . S
O61 C42 1.246 . S
O61 Zn49 2.034 . S
O62 Zn41 2.024 . S
O62 C42 1.249 . S
C63 O59 1.251 . S
C63 O60 1.254 . S
H64 C37 0.949 . S
H65 C39 0.950 . S
H66 C46 0.949 . S
H67 C48 0.950 . S
C68 O84 1.251 . S
C68 O86 1.254 . S
N69 C70 1.333 . S
N69 C74 1.307 . S
N69 Zn75 2.020 . S
C70 N69 1.333 . S
C70 C71 1.379 . S
C70 H88 0.952 . S
C71 C70 1.379 . S
C71 C72 1.390 . S
C71 H98 0.949 . S
C72 C71 1.390 . S
C72 C73 1.357 . S
C73 C72 1.357 . S
C73 C74 1.370 . S
C73 H99 0.950 . S
C74 N69 1.307 . S
C74 C73 1.370 . S
C74 H92 0.948 . S
Zn75 N69 2.020 . S
Zn75 O84 2.039 . S
Zn75 O90 2.034 . S
Zn75 O94 2.025 . S
Zn75 O96 2.024 . S
C76 O95 1.246 . S
C76 O96 1.249 . S
N77 C78 1.307 . S
N77 C79 1.333 . S
N77 Zn83 2.020 . S
C78 N77 1.307 . S
C78 C82 1.370 . S
C78 H89 0.948 . S
C79 N77 1.333 . S
C79 C80 1.379 . S
C79 H87 0.952 . S
C80 C79 1.379 . S
C80 C81 1.390 . S
C80 H100 0.949 . S
C81 C80 1.390 . S
C81 C82 1.357 . S
C82 C78 1.370 . S
C82 C81 1.357 . S
C82 H101 0.950 . S
Zn83 N77 2.020 . S
Zn83 O86 2.025 . S
Zn83 O91 2.024 . S
Zn83 O93 2.039 . S
Zn83 O95 2.034 . S
O84 C68 1.251 . S
O84 Zn75 2.039 . S
C85 O90 1.246 . S
C85 O91 1.249 . S
O86 C68 1.254 . S
O86 Zn83 2.025 . S
H87 C79 0.952 . S
H88 C70 0.952 . S
H89 C78 0.948 . S
O90 Zn75 2.034 . S
O90 C85 1.246 . S
O91 Zn83 2.024 . S
O91 C85 1.249 . S
H92 C74 0.948 . S
O93 Zn83 2.039 . S
O93 C97 1.251 . S
O94 Zn75 2.025 . S
O94 C97 1.254 . S
O95 C76 1.246 . S
O95 Zn83 2.034 . S
O96 Zn75 2.024 . S
O96 C76 1.249 . S
C97 O93 1.251 . S
C97 O94 1.254 . S
H98 C71 0.949 . S
H99 C73 0.950 . S
H100 C80 0.949 . S
H101 C82 0.950 . S
C102 O118 1.251 . S
C102 O120 1.254 . S
N103 C104 1.333 . S
N103 C108 1.307 . S
N103 Zn109 2.020 . S
C104 N103 1.333 . S
C104 C105 1.379 . S
C104 H122 0.952 . S
C105 C104 1.379 . S
C105 C106 1.390 . S
C105 H132 0.949 . S
C106 C105 1.390 . S
C106 C107 1.357 . S
C107 C106 1.357 . S
C107 C108 1.370 . S
C107 H133 0.950 . S
C108 N103 1.307 . S
C108 C107 1.370 . S
C108 H126 0.948 . S
Zn109 N103 2.020 . S
Zn109 O118 2.039 . S
Zn109 O124 2.034 . S
Zn109 O128 2.025 . S
Zn109 O130 2.024 . S
C110 O129 1.246 . S
C110 O130 1.249 . S
N111 C112 1.307 . S
N111 C113 1.333 . S
N111 Zn117 2.020 . S
C112 N111 1.307 . S
C112 C116 1.370 . S
C112 H123 0.948 . S
C113 N111 1.333 . S
C113 C114 1.379 . S
C113 H121 0.952 . S
C114 C113 1.379 . S
C114 C115 1.390 . S
C114 H134 0.949 . S
C115 C114 1.390 . S
C115 C116 1.357 . S
C116 C112 1.370 . S
C116 C115 1.357 . S
C116 H135 0.950 . S
Zn117 N111 2.020 . S
Zn117 O120 2.025 . S
Zn117 O125 2.024 . S
Zn117 O127 2.039 . S
Zn117 O129 2.034 . S
O118 C102 1.251 . S
O118 Zn109 2.039 . S
C119 O124 1.246 . S
C119 O125 1.249 . S
O120 C102 1.254 . S
O120 Zn117 2.025 . S
H121 C113 0.952 . S
H122 C104 0.952 . S
H123 C112 0.948 . S
O124 Zn109 2.034 . S
O124 C119 1.246 . S
O125 Zn117 2.024 . S
O125 C119 1.249 . S
H126 C108 0.948 . S
O127 Zn117 2.039 . S
O127 C131 1.251 . S
O128 Zn109 2.025 . S
O128 C131 1.254 . S
O129 C110 1.246 . S
O129 Zn117 2.034 . S
O130 Zn109 2.024 . S
O130 C110 1.249 . S
C131 O127 1.251 . S
C131 O128 1.254 . S
H132 C105 0.949 . S
H133 C107 0.950 . S
H134 C114 0.949 . S
H135 C116 0.950 . S
C136 O152 1.251 . S
C136 O154 1.254 . S
N137 C138 1.333 . S
N137 C142 1.307 . S
N137 Zn143 2.020 . S
C138 N137 1.333 . S
C138 C139 1.379 . S
C138 H156 0.952 . S
C139 C138 1.379 . S
C139 C140 1.390 . S
C139 H166 0.949 . S
C140 C139 1.390 . S
C140 C141 1.357 . S
C141 C140 1.357 . S
C141 C142 1.370 . S
C141 H167 0.950 . S
C142 N137 1.307 . S
C142 C141 1.370 . S
C142 H160 0.948 . S
Zn143 N137 2.020 . S
Zn143 O152 2.039 . S
Zn143 O158 2.034 . S
Zn143 O162 2.025 . S
Zn143 O164 2.024 . S
C144 O163 1.246 . S
C144 O164 1.249 . S
N145 C146 1.307 . S
N145 C147 1.333 . S
N145 Zn151 2.020 . S
C146 N145 1.307 . S
C146 C150 1.370 . S
C146 H157 0.948 . S
C147 N145 1.333 . S
C147 C148 1.379 . S
C147 H155 0.952 . S
C148 C147 1.379 . S
C148 C149 1.390 . S
C148 H168 0.949 . S
C149 C148 1.390 . S
C149 C150 1.357 . S
C150 C146 1.370 . S
C150 C149 1.357 . S
C150 H169 0.950 . S
Zn151 N145 2.020 . S
Zn151 O154 2.025 . S
Zn151 O159 2.024 . S
Zn151 O161 2.039 . S
Zn151 O163 2.034 . S
O152 C136 1.251 . S
O152 Zn143 2.039 . S
C153 O158 1.246 . S
C153 O159 1.249 . S
O154 C136 1.254 . S
O154 Zn151 2.025 . S
H155 C147 0.952 . S
H156 C138 0.952 . S
H157 C146 0.948 . S
O158 Zn143 2.034 . S
O158 C153 1.246 . S
O159 Zn151 2.024 . S
O159 C153 1.249 . S
H160 C142 0.948 . S
O161 Zn151 2.039 . S
O161 C165 1.251 . S
O162 Zn143 2.025 . S
O162 C165 1.254 . S
O163 C144 1.246 . S
O163 Zn151 2.034 . S
O164 Zn143 2.024 . S
O164 C144 1.249 . S
C165 O161 1.251 . S
C165 O162 1.254 . S
H166 C139 0.949 . S
H167 C141 0.950 . S
H168 C148 0.949 . S
H169 C150 0.950 . S
C170 O186 1.251 . S
C170 O188 1.254 . S
N171 C172 1.333 . S
N171 C176 1.307 . S
N171 Zn177 2.020 . S
C172 N171 1.333 . S
C172 C173 1.379 . S
C172 H190 0.952 . S
C173 C172 1.379 . S
C173 C174 1.390 . S
C173 H200 0.949 . S
C174 C173 1.390 . S
C174 C175 1.357 . S
C175 C174 1.357 . S
C175 C176 1.370 . S
C175 H201 0.950 . S
C176 N171 1.307 . S
C176 C175 1.370 . S
C176 H194 0.948 . S
Zn177 N171 2.020 . S
Zn177 O186 2.039 . S
Zn177 O192 2.034 . S
Zn177 O196 2.025 . S
Zn177 O198 2.024 . S
C178 O197 1.246 . S
C178 O198 1.249 . S
N179 C180 1.307 . S
N179 C181 1.333 . S
N179 Zn185 2.020 . S
C180 N179 1.307 . S
C180 C184 1.370 . S
C180 H191 0.948 . S
C181 N179 1.333 . S
C181 C182 1.379 . S
C181 H189 0.952 . S
C182 C181 1.379 . S
C182 C183 1.390 . S
C182 H202 0.949 . S
C183 C182 1.390 . S
C183 C184 1.357 . S
C184 C180 1.370 . S
C184 C183 1.357 . S
C184 H203 0.950 . S
Zn185 N179 2.020 . S
Zn185 O188 2.025 . S
Zn185 O193 2.024 . S
Zn185 O195 2.039 . S
Zn185 O197 2.034 . S
O186 C170 1.251 . S
O186 Zn177 2.039 . S
C187 O192 1.246 . S
C187 O193 1.249 . S
O188 C170 1.254 . S
O188 Zn185 2.025 . S
H189 C181 0.952 . S
H190 C172 0.952 . S
H191 C180 0.948 . S
O192 Zn177 2.034 . S
O192 C187 1.246 . S
O193 Zn185 2.024 . S
O193 C187 1.249 . S
H194 C176 0.948 . S
O195 Zn185 2.039 . S
O195 C199 1.251 . S
O196 Zn177 2.025 . S
O196 C199 1.254 . S
O197 C178 1.246 . S
O197 Zn185 2.034 . S
O198 Zn177 2.024 . S
O198 C178 1.249 . S
C199 O195 1.251 . S
C199 O196 1.254 . S
H200 C173 0.949 . S
H201 C175 0.950 . S
H202 C182 0.949 . S
H203 C184 0.950 . S
C204 O220 1.251 . S
C204 O222 1.254 . S
N205 C206 1.333 . S
N205 C210 1.307 . S
N205 Zn211 2.020 . S
C206 N205 1.333 . S
C206 C207 1.379 . S
C206 H224 0.952 . S
C207 C206 1.379 . S
C207 C208 1.390 . S
C207 H234 0.949 . S
C208 C207 1.390 . S
C208 C209 1.357 . S
C209 C208 1.357 . S
C209 C210 1.370 . S
C209 H235 0.950 . S
C210 N205 1.307 . S
C210 C209 1.370 . S
C210 H228 0.948 . S
Zn211 N205 2.020 . S
Zn211 O220 2.039 . S
Zn211 O226 2.034 . S
Zn211 O230 2.025 . S
Zn211 O232 2.024 . S
C212 O231 1.246 . S
C212 O232 1.249 . S
N213 C214 1.307 . S
N213 C215 1.333 . S
N213 Zn219 2.020 . S
C214 N213 1.307 . S
C214 C218 1.370 . S
C214 H225 0.948 . S
C215 N213 1.333 . S
C215 C216 1.379 . S
C215 H223 0.952 . S
C216 C215 1.379 . S
C216 C217 1.390 . S
C216 H236 0.949 . S
C217 C216 1.390 . S
C217 C218 1.357 . S
C218 C214 1.370 . S
C218 C217 1.357 . S
C218 H237 0.950 . S
Zn219 N213 2.020 . S
Zn219 O222 2.025 . S
Zn219 O227 2.024 . S
Zn219 O229 2.039 . S
Zn219 O231 2.034 . S
O220 C204 1.251 . S
O220 Zn211 2.039 . S
C221 O226 1.246 . S
C221 O227 1.249 . S
O222 C204 1.254 . S
O222 Zn219 2.025 . S
H223 C215 0.952 . S
H224 C206 0.952 . S
H225 C214 0.948 . S
O226 Zn211 2.034 . S
O226 C221 1.246 . S
O227 Zn219 2.024 . S
O227 C221 1.249 . S
H228 C210 0.948 . S
O229 Zn219 2.039 . S
O229 C233 1.251 . S
O230 Zn211 2.025 . S
O230 C233 1.254 . S
O231 C212 1.246 . S
O231 Zn219 2.034 . S
O232 Zn211 2.024 . S
O232 C212 1.249 . S
C233 O229 1.251 . S
C233 O230 1.254 . S
H234 C207 0.949 . S
H235 C209 0.950 . S
H236 C216 0.949 . S
H237 C218 0.950 . S
C238 O254 1.251 . S
C238 O256 1.254 . S
N239 C240 1.333 . S
N239 C244 1.307 . S
N239 Zn245 2.020 . S
C240 N239 1.333 . S
C240 C241 1.379 . S
C240 H258 0.952 . S
C241 C240 1.379 . S
C241 C242 1.390 . S
C241 H268 0.949 . S
C242 C241 1.390 . S
C242 C243 1.357 . S
C243 C242 1.357 . S
C243 C244 1.370 . S
C243 H269 0.950 . S
C244 N239 1.307 . S
C244 C243 1.370 . S
C244 H262 0.948 . S
Zn245 N239 2.020 . S
Zn245 O254 2.039 . S
Zn245 O260 2.034 . S
Zn245 O264 2.025 . S
Zn245 O266 2.024 . S
C246 O265 1.246 . S
C246 O266 1.249 . S
N247 C248 1.307 . S
N247 C249 1.333 . S
N247 Zn253 2.020 . S
C248 N247 1.307 . S
C248 C252 1.370 . S
C248 H259 0.948 . S
C249 N247 1.333 . S
C249 C250 1.379 . S
C249 H257 0.952 . S
C250 C249 1.379 . S
C250 C251 1.390 . S
C250 H270 0.949 . S
C251 C250 1.390 . S
C251 C252 1.357 . S
C252 C248 1.370 . S
C252 C251 1.357 . S
C252 H271 0.950 . S
Zn253 N247 2.020 . S
Zn253 O256 2.025 . S
Zn253 O261 2.024 . S
Zn253 O263 2.039 . S
Zn253 O265 2.034 . S
O254 C238 1.251 . S
O254 Zn245 2.039 . S
C255 O260 1.246 . S
C255 O261 1.249 . S
O256 C238 1.254 . S
O256 Zn253 2.025 . S
H257 C249 0.952 . S
H258 C240 0.952 . S
H259 C248 0.948 . S
O260 Zn245 2.034 . S
O260 C255 1.246 . S
O261 Zn253 2.024 . S
O261 C255 1.249 . S
H262 C244 0.948 . S
O263 Zn253 2.039 . S
O263 C267 1.251 . S
O264 Zn245 2.025 . S
O264 C267 1.254 . S
O265 C246 1.246 . S
O265 Zn253 2.034 . S
O266 Zn245 2.024 . S
O266 C246 1.249 . S
C267 O263 1.251 . S
C267 O264 1.254 . S
H268 C241 0.949 . S
H269 C243 0.950 . S
H270 C250 0.949 . S
H271 C252 0.950 . S
Fe272 O273 1.886 . S
Fe272 O276 1.715 1_655 S
Fe272 O281 2.077 . S
Fe272 O286 1.935 1_655 S
Fe272 O292 2.077 . S
Fe272 O301 1.935 1_655 S
O273 Fe272 1.886 . S
O273 Fe275 1.715 . S
Fe274 O276 1.886 1_565 S
Fe274 O277 1.715 . S
Fe274 O284 1.935 . S
Fe274 O285 2.077 1_565 S
Fe274 O291 1.935 . S
Fe274 O300 2.077 1_565 S
Fe275 O273 1.715 . S
Fe275 O278 1.886 1_545 S
Fe275 O282 1.935 . S
Fe275 O287 2.077 1_545 S
Fe275 O293 1.935 . S
Fe275 O297 2.077 1_545 S
O276 Fe272 1.715 1_455 S
O276 Fe274 1.886 1_545 S
O277 Fe274 1.715 . S
O277 Fe279 1.886 . S
O278 Fe275 1.886 1_565 S
O278 Fe279 1.715 1_655 S
Fe279 O277 1.886 . S
Fe279 O278 1.715 1_455 S
Fe279 O283 2.077 . S
Fe279 O288 1.935 1_455 S
Fe279 O290 2.077 . S
Fe279 O298 1.935 1_455 S
C280 O292 1.381 . S
C280 O293 1.421 . S
O281 Fe272 2.077 . S
O281 C294 1.381 . S
O282 Fe275 1.935 . S
O282 C294 1.421 . S
O283 Fe279 2.077 . S
O283 C299 1.381 . S
O284 Fe274 1.935 . S
O284 C299 1.421 . S
O285 Fe274 2.077 1_545 S
O285 C289 1.381 . S
O286 Fe272 1.935 1_455 S
O286 C289 1.421 . S
O287 Fe275 2.077 1_565 S
O287 C295 1.381 . S
O288 Fe279 1.935 1_655 S
O288 C295 1.421 . S
C289 O285 1.381 . S
C289 O286 1.421 . S
O290 Fe279 2.077 . S
O290 C302 1.381 . S
O291 Fe274 1.935 . S
O291 C302 1.421 . S
O292 Fe272 2.077 . S
O292 C280 1.381 . S
O293 Fe275 1.935 . S
O293 C280 1.421 . S
C294 O281 1.381 . S
C294 O282 1.421 . S
C295 O287 1.381 . S
C295 O288 1.421 . S
C296 O297 1.381 . S
C296 O298 1.421 . S
O297 Fe275 2.077 1_565 S
O297 C296 1.381 . S
O298 Fe279 1.935 1_655 S
O298 C296 1.421 . S
C299 O283 1.381 . S
C299 O284 1.421 . S
O300 Fe274 2.077 1_545 S
O300 C303 1.381 . S
O301 Fe272 1.935 1_455 S
O301 C303 1.421 . S
C302 O290 1.381 . S
C302 O291 1.421 . S
C303 O300 1.381 . S
C303 O301 1.421 . S
Fe304 O305 1.886 1_554 S
Fe304 O308 1.715 . S
Fe304 O313 2.077 1_554 S
Fe304 O318 1.935 1_554 S
Fe304 O324 2.077 . S
Fe304 O333 1.935 . S
O305 Fe304 1.886 1_556 S
O305 Fe307 1.715 . S
Fe306 O308 1.886 1_545 S
Fe306 O309 1.715 . S
Fe306 O316 1.935 1_554 S
Fe306 O317 2.077 1_544 S
Fe306 O323 1.935 . S
Fe306 O332 2.077 1_545 S
Fe307 O305 1.715 . S
Fe307 O310 1.886 1_565 S
Fe307 O314 1.935 . S
Fe307 O319 2.077 1_565 S
Fe307 O325 1.935 1_556 S
Fe307 O329 2.077 1_566 S
O308 Fe304 1.715 . S
O308 Fe306 1.886 1_565 S
O309 Fe306 1.715 . S
O309 Fe311 1.886 1_554 S
O310 Fe307 1.886 1_545 S
O310 Fe311 1.715 . S
Fe311 O309 1.886 1_556 S
Fe311 O310 1.715 . S
Fe311 O315 2.077 . S
Fe311 O320 1.935 . S
Fe311 O322 2.077 1_556 S
Fe311 O330 1.935 1_556 S
C312 O324 1.381 . S
C312 O325 1.421 . S
O313 Fe304 2.077 1_556 S
O313 C326 1.381 . S
O314 Fe307 1.935 . S
O314 C326 1.421 . S
O315 Fe311 2.077 . S
O315 C331 1.381 . S
O316 Fe306 1.935 1_556 S
O316 C331 1.421 . S
O317 Fe306 2.077 1_566 S
O317 C321 1.381 . S
O318 Fe304 1.935 1_556 S
O318 C321 1.421 . S
O319 Fe307 2.077 1_545 S
O319 C327 1.381 . S
O320 Fe311 1.935 . S
O320 C327 1.421 . S
C321 O317 1.381 . S
C321 O318 1.421 . S
O322 Fe311 2.077 1_554 S
O322 C334 1.381 . S
O323 Fe306 1.935 . S
O323 C334 1.421 . S
O324 Fe304 2.077 . S
O324 C312 1.381 . S
O325 Fe307 1.935 1_554 S
O325 C312 1.421 . S
C326 O313 1.381 . S
C326 O314 1.421 . S
C327 O319 1.381 . S
C327 O320 1.421 . S
C328 O329 1.381 . S
C328 O330 1.421 . S
O329 Fe307 2.077 1_544 S
O329 C328 1.381 . S
O330 Fe311 1.935 1_554 S
O330 C328 1.421 . S
C331 O315 1.381 . S
C331 O316 1.421 . S
O332 Fe306 2.077 1_565 S
O332 C335 1.381 . S
O333 Fe304 1.935 . S
O333 C335 1.421 . S
C334 O322 1.381 . S
C334 O323 1.421 . S
C335 O332 1.381 . S
C335 O333 1.421 . S
Fe336 O337 1.886 1_556 S
Fe336 O340 1.715 1_655 S
Fe336 O345 2.077 . S
Fe336 O350 1.935 1_655 S
Fe336 O356 2.077 1_556 S
Fe336 O365 1.935 1_656 S
O337 Fe336 1.886 1_554 S
O337 Fe339 1.715 . S
Fe338 O340 1.886 . S
Fe338 O341 1.715 . S
Fe338 O348 1.935 . S
Fe338 O349 2.077 . S
Fe338 O355 1.935 1_556 S
Fe338 O364 2.077 1_556 S
Fe339 O337 1.715 . S
Fe339 O342 1.886 . S
Fe339 O346 1.935 1_554 S
Fe339 O351 2.077 1_554 S
Fe339 O357 1.935 . S
Fe339 O361 2.077 . S
O340 Fe336 1.715 1_455 S
O340 Fe338 1.886 . S
O341 Fe338 1.715 . S
O341 Fe343 1.886 1_556 S
O342 Fe339 1.886 . S
O342 Fe343 1.715 1_655 S
Fe343 O341 1.886 1_554 S
Fe343 O342 1.715 1_455 S
Fe343 O347 2.077 1_554 S
Fe343 O352 1.935 1_454 S
Fe343 O354 2.077 . S
Fe343 O362 1.935 1_455 S
C344 O356 1.381 . S
C344 O357 1.421 . S
O345 Fe336 2.077 . S
O345 C358 1.381 . S
O346 Fe339 1.935 1_556 S
O346 C358 1.421 . S
O347 Fe343 2.077 1_556 S
O347 C363 1.381 . S
O348 Fe338 1.935 . S
O348 C363 1.421 . S
O349 Fe338 2.077 . S
O349 C353 1.381 . S
O350 Fe336 1.935 1_455 S
O350 C353 1.421 . S
O351 Fe339 2.077 1_556 S
O351 C359 1.381 . S
O352 Fe343 1.935 1_656 S
O352 C359 1.421 . S
C353 O349 1.381 . S
C353 O350 1.421 . S
O354 Fe343 2.077 . S
O354 C366 1.381 . S
O355 Fe338 1.935 1_554 S
O355 C366 1.421 . S
O356 Fe336 2.077 1_554 S
O356 C344 1.381 . S
O357 Fe339 1.935 . S
O357 C344 1.421 . S
C358 O345 1.381 . S
C358 O346 1.421 . S
C359 O351 1.381 . S
C359 O352 1.421 . S
C360 O361 1.381 . S
C360 O362 1.421 . S
O361 Fe339 2.077 . S
O361 C360 1.381 . S
O362 Fe343 1.935 1_655 S
O362 C360 1.421 . S
C363 O347 1.381 . S
C363 O348 1.421 . S
O364 Fe338 2.077 1_554 S
O364 C367 1.381 . S
O365 Fe336 1.935 1_454 S
O365 C367 1.421 . S
C366 O354 1.381 . S
C366 O355 1.421 . S
C367 O364 1.381 . S
C367 O365 1.421 . S
Fe368 O369 1.886 . S
Fe368 O372 1.715 . S
Fe368 O377 2.077 . S
Fe368 O382 1.935 . S
Fe368 O388 2.077 . S
Fe368 O397 1.935 . S
O369 Fe368 1.886 . S
O369 Fe371 1.715 . S
Fe370 O372 1.886 1_554 S
Fe370 O373 1.715 . S
Fe370 O380 1.935 . S
Fe370 O381 2.077 1_554 S
Fe370 O387 1.935 . S
Fe370 O396 2.077 1_554 S
Fe371 O369 1.715 . S
Fe371 O374 1.886 1_556 S
Fe371 O378 1.935 . S
Fe371 O383 2.077 1_556 S
Fe371 O389 1.935 . S
Fe371 O393 2.077 1_556 S
O372 Fe368 1.715 . S
O372 Fe370 1.886 1_556 S
O373 Fe370 1.715 . S
O373 Fe375 1.886 . S
O374 Fe371 1.886 1_554 S
O374 Fe375 1.715 . S
Fe375 O373 1.886 . S
Fe375 O374 1.715 . S
Fe375 O379 2.077 . S
Fe375 O384 1.935 . S
Fe375 O386 2.077 . S
Fe375 O394 1.935 . S
C376 O388 1.381 . S
C376 O389 1.421 . S
O377 Fe368 2.077 . S
O377 C390 1.381 . S
O378 Fe371 1.935 . S
O378 C390 1.421 . S
O379 Fe375 2.077 . S
O379 C395 1.381 . S
O380 Fe370 1.935 . S
O380 C395 1.421 . S
O381 Fe370 2.077 1_556 S
O381 C385 1.381 . S
O382 Fe368 1.935 . S
O382 C385 1.421 . S
O383 Fe371 2.077 1_554 S
O383 C391 1.381 . S
O384 Fe375 1.935 . S
O384 C391 1.421 . S
C385 O381 1.381 . S
C385 O382 1.421 . S
O386 Fe375 2.077 . S
O386 C398 1.381 . S
O387 Fe370 1.935 . S
O387 C398 1.421 . S
O388 Fe368 2.077 . S
O388 C376 1.381 . S
O389 Fe371 1.935 . S
O389 C376 1.421 . S
C390 O377 1.381 . S
C390 O378 1.421 . S
C391 O383 1.381 . S
C391 O384 1.421 . S
C392 O393 1.381 . S
C392 O394 1.421 . S
O393 Fe371 2.077 1_554 S
O393 C392 1.381 . S
O394 Fe375 1.935 . S
O394 C392 1.421 . S
C395 O379 1.381 . S
C395 O380 1.421 . S
O396 Fe370 2.077 1_556 S
O396 C399 1.381 . S
O397 Fe368 1.935 . S
O397 C399 1.421 . S
C398 O386 1.381 . S
C398 O387 1.421 . S
C399 O396 1.381 . S
C399 O397 1.421 . S
Fe400 O401 1.886 . S
Fe400 O404 1.715 . S
Fe400 O409 2.077 . S
Fe400 O414 1.935 . S
Fe400 O420 2.077 1_455 S
Fe400 O429 1.935 1_455 S
O401 Fe400 1.886 . S
O401 Fe403 1.715 1_455 S
Fe402 O404 1.886 . S
Fe402 O405 1.715 1_455 S
Fe402 O412 1.935 . S
Fe402 O413 2.077 . S
Fe402 O419 1.935 1_455 S
Fe402 O428 2.077 1_455 S
Fe403 O401 1.715 1_655 S
Fe403 O406 1.886 . S
Fe403 O410 1.935 1_655 S
Fe403 O415 2.077 1_655 S
Fe403 O421 1.935 . S
Fe403 O425 2.077 . S
O404 Fe400 1.715 . S
O404 Fe402 1.886 . S
O405 Fe402 1.715 1_655 S
O405 Fe407 1.886 . S
O406 Fe403 1.886 . S
O406 Fe407 1.715 . S
Fe407 O405 1.886 . S
Fe407 O406 1.715 . S
Fe407 O411 2.077 1_655 S
Fe407 O416 1.935 1_655 S
Fe407 O418 2.077 . S
Fe407 O426 1.935 . S
C408 O420 1.381 . S
C408 O421 1.421 . S
O409 Fe400 2.077 . S
O409 C422 1.381 . S
O410 Fe403 1.935 1_455 S
O410 C422 1.421 . S
O411 Fe407 2.077 1_455 S
O411 C427 1.381 . S
O412 Fe402 1.935 . S
O412 C427 1.421 . S
O413 Fe402 2.077 . S
O413 C417 1.381 . S
O414 Fe400 1.935 . S
O414 C417 1.421 . S
O415 Fe403 2.077 1_455 S
O415 C423 1.381 . S
O416 Fe407 1.935 1_455 S
O416 C423 1.421 . S
C417 O413 1.381 . S
C417 O414 1.421 . S
O418 Fe407 2.077 . S
O418 C430 1.381 . S
O419 Fe402 1.935 1_655 S
O419 C430 1.421 . S
O420 Fe400 2.077 1_655 S
O420 C408 1.381 . S
O421 Fe403 1.935 . S
O421 C408 1.421 . S
C422 O409 1.381 . S
C422 O410 1.421 . S
C423 O415 1.381 . S
C423 O416 1.421 . S
C424 O425 1.381 . S
C424 O426 1.421 . S
O425 Fe403 2.077 . S
O425 C424 1.381 . S
O426 Fe407 1.935 . S
O426 C424 1.421 . S
C427 O411 1.381 . S
C427 O412 1.421 . S
O428 Fe402 2.077 1_655 S
O428 C431 1.381 . S
O429 Fe400 1.935 1_655 S
O429 C431 1.421 . S
C430 O418 1.381 . S
C430 O419 1.421 . S
C431 O428 1.381 . S
C431 O429 1.421 . S
Fe432 O433 1.886 . S
Fe432 O436 1.715 . S
Fe432 O441 2.077 . S
Fe432 O446 1.935 . S
Fe432 O452 2.077 . S
Fe432 O461 1.935 . S
O433 Fe432 1.886 . S
O433 Fe435 1.715 . S
Fe434 O436 1.886 1_545 S
Fe434 O437 1.715 . S
Fe434 O444 1.935 . S
Fe434 O445 2.077 1_545 S
Fe434 O451 1.935 . S
Fe434 O460 2.077 1_545 S
Fe435 O433 1.715 . S
Fe435 O438 1.886 1_565 S
Fe435 O442 1.935 . S
Fe435 O447 2.077 1_565 S
Fe435 O453 1.935 . S
Fe435 O457 2.077 1_565 S
O436 Fe432 1.715 . S
O436 Fe434 1.886 1_565 S
O437 Fe434 1.715 . S
O437 Fe439 1.886 . S
O438 Fe435 1.886 1_545 S
O438 Fe439 1.715 . S
Fe439 O437 1.886 . S
Fe439 O438 1.715 . S
Fe439 O443 2.077 . S
Fe439 O448 1.935 . S
Fe439 O450 2.077 . S
Fe439 O458 1.935 . S
C440 O452 1.381 . S
C440 O453 1.421 . S
O441 Fe432 2.077 . S
O441 C454 1.381 . S
O442 Fe435 1.935 . S
O442 C454 1.421 . S
O443 Fe439 2.077 . S
O443 C459 1.381 . S
O444 Fe434 1.935 . S
O444 C459 1.421 . S
O445 Fe434 2.077 1_565 S
O445 C449 1.381 . S
O446 Fe432 1.935 . S
O446 C449 1.421 . S
O447 Fe435 2.077 1_545 S
O447 C455 1.381 . S
O448 Fe439 1.935 . S
O448 C455 1.421 . S
C449 O445 1.381 . S
C449 O446 1.421 . S
O450 Fe439 2.077 . S
O450 C462 1.381 . S
O451 Fe434 1.935 . S
O451 C462 1.421 . S
O452 Fe432 2.077 . S
O452 C440 1.381 . S
O453 Fe435 1.935 . S
O453 C440 1.421 . S
C454 O441 1.381 . S
C454 O442 1.421 . S
C455 O447 1.381 . S
C455 O448 1.421 . S
C456 O457 1.381 . S
C456 O458 1.421 . S
O457 Fe435 2.077 1_545 S
O457 C456 1.381 . S
O458 Fe439 1.935 . S
O458 C456 1.421 . S
C459 O443 1.381 . S
C459 O444 1.421 . S
O460 Fe434 2.077 1_565 S
O460 C463 1.381 . S
O461 Fe432 1.935 . S
O461 C463 1.421 . S
C462 O450 1.381 . S
C462 O451 1.421 . S
C463 O460 1.381 . S
C463 O461 1.421 . S
C464 C465 1.363 . S
C464 C470 1.379 . S
C464 N472 1.356 . S
C465 C464 1.363 . S
C465 C471 1.363 . S
C466 C467 1.363 . S
C466 C471 1.379 . S
C466 N473 1.356 . S
C467 C466 1.363 . S
C467 C470 1.363 . S
N468 C470 1.356 . S
N468 H480 0.984 . S
N468 H481 0.985 . S
N469 C471 1.356 . S
N469 H474 0.984 . S
N469 H475 0.985 . S
C470 C464 1.379 . S
C470 C467 1.363 . S
C470 N468 1.356 . S
C471 C465 1.363 . S
C471 C466 1.379 . S
C471 N469 1.356 . S
N472 C464 1.356 . S
N472 H478 0.984 . S
N472 H479 0.984 . S
N473 C466 1.356 . S
N473 H476 0.984 . S
N473 H477 0.985 . S
H474 N469 0.984 . S
H475 N469 0.985 . S
H476 N473 0.984 . S
H477 N473 0.985 . S
H478 N472 0.984 . S
H479 N472 0.984 . S
H480 N468 0.984 . S
H481 N468 0.985 . S
C482 C483 1.363 . S
C482 C488 1.379 . S
C482 N490 1.356 . S
C483 C482 1.363 . S
C483 C489 1.363 . S
C484 C485 1.363 . S
C484 C489 1.379 . S
C484 N491 1.356 . S
C485 C484 1.363 . S
C485 C488 1.363 . S
N486 C488 1.356 . S
N486 H498 0.984 . S
N486 H499 0.985 . S
N487 C489 1.356 . S
N487 H492 0.984 . S
N487 H493 0.985 . S
C488 C482 1.379 . S
C488 C485 1.363 . S
C488 N486 1.356 . S
C489 C483 1.363 . S
C489 C484 1.379 . S
C489 N487 1.356 . S
N490 C482 1.356 . S
N490 H496 0.984 . S
N490 H497 0.984 . S
N491 C484 1.356 . S
N491 H494 0.984 . S
N491 H495 0.985 . S
H492 N487 0.984 . S
H493 N487 0.985 . S
H494 N491 0.984 . S
H495 N491 0.985 . S
H496 N490 0.984 . S
H497 N490 0.984 . S
H498 N486 0.984 . S
H499 N486 0.985 . S
C500 C501 1.363 . S
C500 C506 1.379 . S
C500 N508 1.356 . S
C501 C500 1.363 . S
C501 C507 1.363 . S
C502 C503 1.363 . S
C502 C507 1.379 . S
C502 N509 1.356 . S
C503 C502 1.363 . S
C503 C506 1.363 . S
N504 C506 1.356 . S
N504 H516 0.984 . S
N504 H517 0.985 . S
N505 C507 1.356 . S
N505 H510 0.984 . S
N505 H511 0.985 . S
C506 C500 1.379 . S
C506 C503 1.363 . S
C506 N504 1.356 . S
C507 C501 1.363 . S
C507 C502 1.379 . S
C507 N505 1.356 . S
N508 C500 1.356 . S
N508 H514 0.984 . S
N508 H515 0.984 . S
N509 C502 1.356 . S
N509 H512 0.984 . S
N509 H513 0.985 . S
H510 N505 0.984 . S
H511 N505 0.985 . S
H512 N509 0.984 . S
H513 N509 0.985 . S
H514 N508 0.984 . S
H515 N508 0.984 . S
H516 N504 0.984 . S
H517 N504 0.985 . S
C518 C519 1.363 . S
C518 C524 1.379 . S
C518 N526 1.356 . S
C519 C518 1.363 . S
C519 C525 1.363 . S
C520 C521 1.363 . S
C520 C525 1.379 . S
C520 N527 1.356 . S
C521 C520 1.363 . S
C521 C524 1.363 . S
N522 C524 1.356 . S
N522 H534 0.984 . S
N522 H535 0.985 . S
N523 C525 1.356 . S
N523 H528 0.984 . S
N523 H529 0.985 . S
C524 C518 1.379 . S
C524 C521 1.363 . S
C524 N522 1.356 . S
C525 C519 1.363 . S
C525 C520 1.379 . S
C525 N523 1.356 . S
N526 C518 1.356 . S
N526 H532 0.984 . S
N526 H533 0.984 . S
N527 C520 1.356 . S
N527 H530 0.984 . S
N527 H531 0.985 . S
H528 N523 0.984 . S
H529 N523 0.985 . S
H530 N527 0.984 . S
H531 N527 0.985 . S
H532 N526 0.984 . S
H533 N526 0.984 . S
H534 N522 0.984 . S
H535 N522 0.985 . S
C536 C537 1.363 . S
C536 C542 1.379 . S
C536 N544 1.356 . S
C537 C536 1.363 . S
C537 C543 1.363 . S
C538 C539 1.363 . S
C538 C543 1.379 . S
C538 N545 1.356 . S
C539 C538 1.363 . S
C539 C542 1.363 . S
N540 C542 1.356 . S
N540 H552 0.984 . S
N540 H553 0.985 . S
N541 C543 1.356 . S
N541 H546 0.984 . S
N541 H547 0.985 . S
C542 C536 1.379 . S
C542 C539 1.363 . S
C542 N540 1.356 . S
C543 C537 1.363 . S
C543 C538 1.379 . S
C543 N541 1.356 . S
N544 C536 1.356 . S
N544 H550 0.984 . S
N544 H551 0.984 . S
N545 C538 1.356 . S
N545 H548 0.984 . S
N545 H549 0.985 . S
H546 N541 0.984 . S
H547 N541 0.985 . S
H548 N545 0.984 . S
H549 N545 0.985 . S
H550 N544 0.984 . S
H551 N544 0.984 . S
H552 N540 0.984 . S
H553 N540 0.985 . S
C554 C555 1.363 . S
C554 C560 1.379 . S
C554 N562 1.356 . S
C555 C554 1.363 . S
C555 C561 1.363 . S
C556 C557 1.363 . S
C556 C561 1.379 . S
C556 N563 1.356 . S
C557 C556 1.363 . S
C557 C560 1.363 . S
N558 C560 1.356 . S
N558 H570 0.984 . S
N558 H571 0.985 . S
N559 C561 1.356 . S
N559 H564 0.984 . S
N559 H565 0.985 . S
C560 C554 1.379 . S
C560 C557 1.363 . S
C560 N558 1.356 . S
C561 C555 1.363 . S
C561 C556 1.379 . S
C561 N559 1.356 . S
N562 C554 1.356 . S
N562 H568 0.984 . S
N562 H569 0.984 . S
N563 C556 1.356 . S
N563 H566 0.984 . S
N563 H567 0.985 1_545 S
H564 N559 0.984 . S
H565 N559 0.985 . S
H566 N563 0.984 . S
H567 N563 0.985 1_565 S
H568 N562 0.984 . S
H569 N562 0.984 . S
H570 N558 0.984 . S
H571 N558 0.985 . S
C572 C573 1.363 . S
C572 C578 1.379 . S
C572 N580 1.356 . S
C573 C572 1.363 . S
C573 C579 1.363 . S
C574 C575 1.363 . S
C574 C579 1.379 . S
C574 N581 1.356 . S
C575 C574 1.363 . S
C575 C578 1.363 . S
N576 C578 1.356 . S
N576 H588 0.984 . S
N576 H589 0.985 . S
N577 C579 1.356 . S
N577 H582 0.984 . S
N577 H583 0.985 . S
C578 C572 1.379 . S
C578 C575 1.363 . S
C578 N576 1.356 . S
C579 C573 1.363 . S
C579 C574 1.379 . S
C579 N577 1.356 . S
N580 C572 1.356 . S
N580 H586 0.984 . S
N580 H587 0.984 . S
N581 C574 1.356 . S
N581 H584 0.984 . S
N581 H585 0.985 . S
H582 N577 0.984 . S
H583 N577 0.985 . S
H584 N581 0.984 . S
H585 N581 0.985 . S
H586 N580 0.984 . S
H587 N580 0.984 . S
H588 N576 0.984 . S
H589 N576 0.985 . S
C590 C591 1.363 . S
C590 C596 1.379 . S
C590 N598 1.356 . S
C591 C590 1.363 . S
C591 C597 1.363 . S
C592 C593 1.363 . S
C592 C597 1.379 . S
C592 N599 1.356 . S
C593 C592 1.363 . S
C593 C596 1.363 . S
N594 C596 1.356 . S
N594 H606 0.984 1_655 S
N594 H607 0.985 . S
N595 C597 1.356 . S
N595 H600 0.984 . S
N595 H601 0.985 . S
C596 C590 1.379 . S
C596 C593 1.363 . S
C596 N594 1.356 . S
C597 C591 1.363 . S
C597 C592 1.379 . S
C597 N595 1.356 . S
N598 C590 1.356 . S
N598 H604 0.984 . S
N598 H605 0.984 . S
N599 C592 1.356 . S
N599 H602 0.984 . S
N599 H603 0.985 . S
H600 N595 0.984 . S
H601 N595 0.985 . S
H602 N599 0.984 . S
H603 N599 0.985 . S
H604 N598 0.984 . S
H605 N598 0.984 . S
H606 N594 0.984 1_455 S
H607 N594 0.985 . S
C608 C609 1.363 . S
C608 C614 1.379 . S
C608 N616 1.356 . S
C609 C608 1.363 . S
C609 C615 1.363 . S
C610 C611 1.363 . S
C610 C615 1.379 . S
C610 N617 1.356 . S
C611 C610 1.363 . S
C611 C614 1.363 . S
N612 C614 1.356 . S
N612 H624 0.984 . S
N612 H625 0.985 . S
N613 C615 1.356 . S
N613 H618 0.984 . S
N613 H619 0.985 . S
C614 C608 1.379 . S
C614 C611 1.363 . S
C614 N612 1.356 . S
C615 C609 1.363 . S
C615 C610 1.379 . S
C615 N613 1.356 . S
N616 C608 1.356 . S
N616 H622 0.984 . S
N616 H623 0.984 . S
N617 C610 1.356 . S
N617 H620 0.984 . S
N617 H621 0.985 . S
H618 N613 0.984 . S
H619 N613 0.985 . S
H620 N617 0.984 . S
H621 N617 0.985 . S
H622 N616 0.984 . S
H623 N616 0.984 . S
H624 N612 0.984 . S
H625 N612 0.985 . S
C626 C627 1.363 . S
C626 C632 1.379 . S
C626 N634 1.356 . S
C627 C626 1.363 . S
C627 C633 1.363 . S
C628 C629 1.363 . S
C628 C633 1.379 . S
C628 N635 1.356 . S
C629 C628 1.363 . S
C629 C632 1.363 . S
N630 C632 1.356 . S
N630 H642 0.984 . S
N630 H643 0.985 . S
N631 C633 1.356 . S
N631 H636 0.984 . S
N631 H637 0.985 . S
C632 C626 1.379 . S
C632 C629 1.363 . S
C632 N630 1.356 . S
C633 C627 1.363 . S
C633 C628 1.379 . S
C633 N631 1.356 . S
N634 C626 1.356 . S
N634 H640 0.984 . S
N634 H641 0.984 . S
N635 C628 1.356 . S
N635 H638 0.984 . S
N635 H639 0.985 . S
H636 N631 0.984 . S
H637 N631 0.985 . S
H638 N635 0.984 . S
H639 N635 0.985 . S
H640 N634 0.984 . S
H641 N634 0.984 . S
H642 N630 0.984 . S
H643 N630 0.985 . S
C644 C645 1.363 . S
C644 C650 1.379 . S
C644 N652 1.356 . S
C645 C644 1.363 . S
C645 C651 1.363 . S
C646 C647 1.363 . S
C646 C651 1.379 . S
C646 N653 1.356 . S
C647 C646 1.363 . S
C647 C650 1.363 . S
N648 C650 1.356 . S
N648 H660 0.984 . S
N648 H661 0.985 . S
N649 C651 1.356 . S
N649 H654 0.984 . S
N649 H655 0.985 . S
C650 C644 1.379 . S
C650 C647 1.363 . S
C650 N648 1.356 . S
C651 C645 1.363 . S
C651 C646 1.379 . S
C651 N649 1.356 . S
N652 C644 1.356 . S
N652 H658 0.984 . S
N652 H659 0.984 . S
N653 C646 1.356 . S
N653 H656 0.984 . S
N653 H657 0.985 . S
H654 N649 0.984 . S
H655 N649 0.985 . S
H656 N653 0.984 . S
H657 N653 0.985 . S
H658 N652 0.984 . S
H659 N652 0.984 . S
H660 N648 0.984 . S
H661 N648 0.985 . S
C662 C663 1.363 . S
C662 C668 1.379 . S
C662 N670 1.356 . S
C663 C662 1.363 . S
C663 C669 1.363 . S
C664 C665 1.363 . S
C664 C669 1.379 . S
C664 N671 1.356 . S
C665 C664 1.363 . S
C665 C668 1.363 . S
N666 C668 1.356 . S
N666 H678 0.997 . S
N666 H679 0.985 . S
N667 C669 1.356 . S
N667 H672 0.984 . S
N667 H673 0.985 . S
C668 C662 1.379 . S
C668 C665 1.363 . S
C668 N666 1.356 . S
C669 C663 1.363 . S
C669 C664 1.379 . S
C669 N667 1.356 . S
N670 C662 1.356 . S
N670 H676 0.984 . S
N670 H677 0.984 . S
N671 C664 1.356 . S
N671 H674 0.984 . S
N671 H675 0.985 . S
H672 N667 0.984 . S
H673 N667 0.985 . S
H674 N671 0.984 . S
H675 N671 0.985 . S
H676 N670 0.984 . S
H677 N670 0.984 . S
H678 N666 0.997 . S
H679 N666 0.985 . S
C680 C681 1.363 . S
C680 C686 1.379 . S
C680 N688 1.356 . S
C681 C680 1.363 . S
C681 C687 1.363 . S
C682 C683 1.363 . S
C682 C687 1.379 . S
C682 N689 1.356 . S
C683 C682 1.363 . S
C683 C686 1.363 . S
N684 C686 1.356 . S
N684 H696 0.984 1_565 S
N684 H697 0.985 . S
N685 C687 1.356 . S
N685 H690 0.984 . S
N685 H691 0.985 . S
C686 C680 1.379 . S
C686 C683 1.363 . S
C686 N684 1.356 . S
C687 C681 1.363 . S
C687 C682 1.379 . S
C687 N685 1.356 . S
N688 C680 1.356 . S
N688 H694 0.984 . S
N688 H695 0.984 . S
N689 C682 1.356 . S
N689 H692 0.984 . S
N689 H693 0.985 . S
H690 N685 0.984 . S
H691 N685 0.985 . S
H692 N689 0.984 . S
H693 N689 0.985 . S
H694 N688 0.984 . S
H695 N688 0.984 . S
H696 N684 0.984 1_545 S
H697 N684 0.985 . S
C698 C699 1.363 . S
C698 C704 1.379 . S
C698 N706 1.356 . S
C699 C698 1.363 . S
C699 C705 1.363 . S
C700 C701 1.363 . S
C700 C705 1.379 . S
C700 N707 1.356 . S
C701 C700 1.363 . S
C701 C704 1.363 . S
N702 C704 1.356 . S
N702 H714 0.984 . S
N702 H715 0.985 . S
N703 C705 1.356 . S
N703 H708 0.984 . S
N703 H709 0.985 . S
C704 C698 1.379 . S
C704 C701 1.363 . S
C704 N702 1.356 . S
C705 C699 1.363 . S
C705 C700 1.379 . S
C705 N703 1.356 . S
N706 C698 1.356 . S
N706 H712 0.984 . S
N706 H713 0.984 . S
N707 C700 1.356 . S
N707 H710 0.984 . S
N707 H711 0.985 . S
H708 N703 0.984 . S
H709 N703 0.985 . S
H710 N707 0.984 . S
H711 N707 0.985 . S
H712 N706 0.984 . S
H713 N706 0.984 . S
H714 N702 0.984 . S
H715 N702 0.985 . S
C716 C717 1.363 . S
C716 C722 1.379 . S
C716 N724 1.356 . S
C717 C716 1.363 . S
C717 C723 1.363 . S
C718 C719 1.363 . S
C718 C723 1.379 . S
C718 N725 1.356 . S
C719 C718 1.363 . S
C719 C722 1.363 . S
N720 C722 1.356 . S
N720 H732 0.984 . S
N720 H733 0.985 . S
N721 C723 1.356 . S
N721 H726 0.984 . S
N721 H727 0.985 . S
C722 C716 1.379 . S
C722 C719 1.363 . S
C722 N720 1.356 . S
C723 C717 1.363 . S
C723 C718 1.379 . S
C723 N721 1.356 . S
N724 C716 1.356 . S
N724 H730 0.984 . S
N724 H731 0.984 . S
N725 C718 1.356 . S
N725 H728 0.984 . S
N725 H729 0.985 . S
H726 N721 0.984 . S
H727 N721 0.985 . S
H728 N725 0.984 . S
H729 N725 0.985 . S
H730 N724 0.984 . S
H731 N724 0.984 . S
H732 N720 0.984 . S
H733 N720 0.985 . S
C734 C735 1.363 . S
C734 C740 1.379 . S
C734 N742 1.356 . S
C735 C734 1.363 . S
C735 C741 1.363 . S
C736 C737 1.363 . S
C736 C741 1.379 . S
C736 N743 1.356 . S
C737 C736 1.363 . S
C737 C740 1.363 . S
N738 C740 1.356 . S
N738 H750 0.984 . S
N738 H751 0.985 . S
N739 C741 1.356 . S
N739 H744 0.984 . S
N739 H745 0.985 . S
C740 C734 1.379 . S
C740 C737 1.363 . S
C740 N738 1.356 . S
C741 C735 1.363 . S
C741 C736 1.379 . S
C741 N739 1.356 . S
N742 C734 1.356 . S
N742 H748 0.984 . S
N742 H749 0.984 . S
N743 C736 1.356 . S
N743 H746 0.984 . S
N743 H747 0.985 . S
H744 N739 0.984 . S
H745 N739 0.985 . S
H746 N743 0.984 . S
H747 N743 0.985 . S
H748 N742 0.984 . S
H749 N742 0.984 . S
H750 N738 0.984 . S
H751 N738 0.985 . S
C752 C753 1.363 . S
C752 C758 1.379 . S
C752 N760 1.356 . S
C753 C752 1.363 . S
C753 C759 1.363 . S
C754 C755 1.363 . S
C754 C759 1.379 . S
C754 N761 1.356 . S
C755 C754 1.363 . S
C755 C758 1.363 . S
N756 C758 1.356 . S
N756 H768 0.984 . S
N756 H769 0.985 . S
N757 C759 1.356 . S
N757 H762 0.984 . S
N757 H763 0.985 . S
C758 C752 1.379 . S
C758 C755 1.363 . S
C758 N756 1.356 . S
C759 C753 1.363 . S
C759 C754 1.379 . S
C759 N757 1.356 . S
N760 C752 1.356 . S
N760 H766 0.984 . S
N760 H767 0.984 . S
N761 C754 1.356 . S
N761 H764 0.984 . S
N761 H765 0.985 . S
H762 N757 0.984 . S
H763 N757 0.985 . S
H764 N761 0.984 . S
H765 N761 0.985 . S
H766 N760 0.984 . S
H767 N760 0.984 . S
H768 N756 0.984 . S
H769 N756 0.985 . S
C770 C771 1.363 . S
C770 C776 1.379 . S
C770 N778 1.356 . S
C771 C770 1.363 . S
C771 C777 1.363 . S
C772 C773 1.363 . S
C772 C777 1.379 . S
C772 N779 1.356 . S
C773 C772 1.363 . S
C773 C776 1.363 . S
N774 C776 1.356 . S
N774 H786 0.984 . S
N774 H787 0.985 . S
N775 C777 1.356 . S
N775 H780 0.984 . S
N775 H781 0.985 . S
C776 C770 1.379 . S
C776 C773 1.363 . S
C776 N774 1.356 . S
C777 C771 1.363 . S
C777 C772 1.379 . S
C777 N775 1.356 . S
N778 C770 1.356 . S
N778 H784 0.984 . S
N778 H785 0.984 . S
N779 C772 1.356 . S
N779 H782 0.984 . S
N779 H783 0.985 . S
H780 N775 0.984 . S
H781 N775 0.985 . S
H782 N779 0.984 . S
H783 N779 0.985 . S
H784 N778 0.984 . S
H785 N778 0.984 . S
H786 N774 0.984 . S
H787 N774 0.985 . S
C788 C789 1.363 . S
C788 C794 1.379 . S
C788 N796 1.356 . S
C789 C788 1.363 . S
C789 C795 1.363 . S
C790 C791 1.363 . S
C790 C795 1.379 . S
C790 N797 1.356 . S
C791 C790 1.363 . S
C791 C794 1.363 . S
N792 C794 1.356 . S
N792 H804 0.984 . S
N792 H805 0.985 . S
N793 C795 1.356 . S
N793 H798 0.984 . S
N793 H799 0.985 . S
C794 C788 1.379 . S
C794 C791 1.363 . S
C794 N792 1.356 . S
C795 C789 1.363 . S
C795 C790 1.379 . S
C795 N793 1.356 . S
N796 C788 1.356 . S
N796 H802 0.984 . S
N796 H803 0.984 . S
N797 C790 1.356 . S
N797 H800 0.984 . S
N797 H801 0.985 . S
H798 N793 0.984 . S
H799 N793 0.985 . S
H800 N797 0.984 . S
H801 N797 0.985 . S
H802 N796 0.984 . S
H803 N796 0.984 . S
H804 N792 0.984 . S
H805 N792 0.985 . S
C806 C807 1.363 . S
C806 C812 1.379 . S
C806 N814 1.356 . S
C807 C806 1.363 . S
C807 C813 1.363 . S
C808 C809 1.363 . S
C808 C813 1.379 . S
C808 N815 1.356 . S
C809 C808 1.363 . S
C809 C812 1.363 . S
N810 C812 1.356 . S
N810 H822 0.984 1_556 S
N810 H823 0.985 . S
N811 C813 1.356 . S
N811 H816 0.984 . S
N811 H817 0.985 . S
C812 C806 1.379 . S
C812 C809 1.363 . S
C812 N810 1.356 . S
C813 C807 1.363 . S
C813 C808 1.379 . S
C813 N811 1.356 . S
N814 C806 1.356 . S
N814 H820 0.984 . S
N814 H821 0.984 . S
N815 C808 1.356 . S
N815 H818 0.984 . S
N815 H819 0.985 . S
H816 N811 0.984 . S
H817 N811 0.985 . S
H818 N815 0.984 . S
H819 N815 0.985 . S
H820 N814 0.984 . S
H821 N814 0.984 . S
H822 N810 0.984 1_554 S
H823 N810 0.985 . S
C824 C825 1.363 . S
C824 C830 1.379 . S
C824 N832 1.356 . S
C825 C824 1.363 . S
C825 C831 1.363 . S
C826 C827 1.363 . S
C826 C831 1.379 . S
C826 N833 1.356 . S
C827 C826 1.363 . S
C827 C830 1.363 . S
N828 C830 1.356 . S
N828 H840 0.984 . S
N828 H841 0.985 . S
N829 C831 1.356 . S
N829 H834 0.984 . S
N829 H835 0.985 . S
C830 C824 1.379 . S
C830 C827 1.363 . S
C830 N828 1.356 . S
C831 C825 1.363 . S
C831 C826 1.379 . S
C831 N829 1.356 . S
N832 C824 1.356 . S
N832 H838 0.984 . S
N832 H839 0.984 . S
N833 C826 1.356 . S
N833 H836 0.984 . S
N833 H837 0.985 . S
H834 N829 0.984 . S
H835 N829 0.985 . S
H836 N833 0.984 . S
H837 N833 0.985 . S
H838 N832 0.984 . S
H839 N832 0.984 . S
H840 N828 0.984 . S
H841 N828 0.985 . S
C842 C843 1.363 . S
C842 C848 1.379 . S
C842 N850 1.356 . S
C843 C842 1.363 . S
C843 C849 1.363 . S
C844 C845 1.363 . S
C844 C849 1.379 . S
C844 N851 1.356 . S
C845 C844 1.363 . S
C845 C848 1.363 . S
N846 C848 1.356 . S
N846 H858 0.984 . S
N846 H859 0.985 . S
N847 C849 1.356 . S
N847 H852 0.984 . S
N847 H853 0.985 . S
C848 C842 1.379 . S
C848 C845 1.363 . S
C848 N846 1.356 . S
C849 C843 1.363 . S
C849 C844 1.379 . S
C849 N847 1.356 . S
N850 C842 1.356 . S
N850 H856 0.984 . S
N850 H857 0.984 . S
N851 C844 1.356 . S
N851 H854 0.984 . S
N851 H855 0.985 . S
H852 N847 0.984 . S
H853 N847 0.985 . S
H854 N851 0.984 . S
H855 N851 0.985 . S
H856 N850 0.984 . S
H857 N850 0.984 . S
H858 N846 0.984 . S
H859 N846 0.985 . S
C860 C861 1.363 . S
C860 C866 1.379 . S
C860 N868 1.356 . S
C861 C860 1.363 . S
C861 C867 1.363 . S
C862 C863 1.363 . S
C862 C867 1.379 . S
C862 N869 1.356 . S
C863 C862 1.363 . S
C863 C866 1.363 . S
N864 C866 1.356 . S
N864 H876 0.984 . S
N864 H877 0.985 . S
N865 C867 1.356 . S
N865 H870 0.984 . S
N865 H871 0.985 . S
C866 C860 1.379 . S
C866 C863 1.363 . S
C866 N864 1.356 . S
C867 C861 1.363 . S
C867 C862 1.379 . S
C867 N865 1.356 . S
N868 C860 1.356 . S
N868 H874 0.984 . S
N868 H875 0.984 . S
N869 C862 1.356 . S
N869 H872 0.984 . S
N869 H873 0.985 . S
H870 N865 0.984 . S
H871 N865 0.985 . S
H872 N869 0.984 . S
H873 N869 0.985 . S
H874 N868 0.984 . S
H875 N868 0.984 . S
H876 N864 0.984 . S
H877 N864 0.985 . S
C878 C879 1.363 . S
C878 C884 1.379 . S
C878 N886 1.356 . S
C879 C878 1.363 . S
C879 C885 1.363 . S
C880 C881 1.363 . S
C880 C885 1.379 . S
C880 N887 1.356 . S
C881 C880 1.363 . S
C881 C884 1.363 . S
N882 C884 1.356 . S
N882 H894 0.984 . S
N882 H895 0.985 . S
N883 C885 1.356 . S
N883 H888 0.984 . S
N883 H889 0.985 . S
C884 C878 1.379 . S
C884 C881 1.363 . S
C884 N882 1.356 . S
C885 C879 1.363 . S
C885 C880 1.379 . S
C885 N883 1.356 . S
N886 C878 1.356 . S
N886 H892 0.984 . S
N886 H893 0.984 . S
N887 C880 1.356 . S
N887 H890 0.984 . S
N887 H891 0.985 1_545 S
H888 N883 0.984 . S
H889 N883 0.985 . S
H890 N887 0.984 . S
H891 N887 0.985 1_565 S
H892 N886 0.984 . S
H893 N886 0.984 . S
H894 N882 0.984 . S
H895 N882 0.985 . S
C896 C897 1.363 . S
C896 C902 1.379 . S
C896 N904 1.356 . S
C897 C896 1.363 . S
C897 C903 1.363 . S
C898 C899 1.363 . S
C898 C903 1.379 . S
C898 N905 1.356 . S
C899 C898 1.363 . S
C899 C902 1.363 . S
N900 C902 1.356 . S
N900 H912 0.984 . S
N900 H913 0.985 . S
N901 C903 1.356 . S
N901 H906 0.984 . S
N901 H907 0.985 . S
C902 C896 1.379 . S
C902 C899 1.363 . S
C902 N900 1.356 . S
C903 C897 1.363 . S
C903 C898 1.379 . S
C903 N901 1.356 . S
N904 C896 1.356 . S
N904 H910 0.984 . S
N904 H911 0.984 . S
N905 C898 1.356 . S
N905 H908 0.984 . S
N905 H909 0.985 . S
H906 N901 0.984 . S
H907 N901 0.985 . S
H908 N905 0.984 . S
H909 N905 0.985 . S
H910 N904 0.984 . S
H911 N904 0.984 . S
H912 N900 0.984 . S
H913 N900 0.985 . S
C914 C915 1.363 . S
C914 C920 1.379 . S
C914 N922 1.356 . S
C915 C914 1.363 . S
C915 C921 1.363 . S
C916 C917 1.363 . S
C916 C921 1.379 . S
C916 N923 1.356 . S
C917 C916 1.363 . S
C917 C920 1.363 . S
N918 C920 1.356 . S
N918 H930 0.984 . S
N918 H931 0.985 . S
N919 C921 1.356 . S
N919 H924 0.984 . S
N919 H925 0.985 . S
C920 C914 1.379 . S
C920 C917 1.363 . S
C920 N918 1.356 . S
C921 C915 1.363 . S
C921 C916 1.379 . S
C921 N919 1.356 . S
N922 C914 1.356 . S
N922 H928 0.984 . S
N922 H929 0.984 . S
N923 C916 1.356 . S
N923 H926 0.984 . S
N923 H927 0.985 . S
H924 N919 0.984 . S
H925 N919 0.985 . S
H926 N923 0.984 . S
H927 N923 0.985 . S
H928 N922 0.984 . S
H929 N922 0.984 . S
H930 N918 0.984 . S
H931 N918 0.985 . S
C932 C933 1.363 . S
C932 C938 1.379 . S
C932 N940 1.356 . S
C933 C932 1.363 . S
C933 C939 1.363 . S
C934 C935 1.363 . S
C934 C939 1.379 . S
C934 N941 1.356 . S
C935 C934 1.363 . S
C935 C938 1.363 . S
N936 C938 1.356 . S
N936 H948 0.984 . S
N936 H949 0.985 . S
N937 C939 1.356 . S
N937 H942 0.984 . S
N937 H943 0.985 . S
C938 C932 1.379 . S
C938 C935 1.363 . S
C938 N936 1.356 . S
C939 C933 1.363 . S
C939 C934 1.379 . S
C939 N937 1.356 . S
N940 C932 1.356 . S
N940 H946 0.984 . S
N940 H947 0.984 . S
N941 C934 1.356 . S
N941 H944 0.984 . S
N941 H945 0.985 . S
H942 N937 0.984 . S
H943 N937 0.985 . S
H944 N941 0.984 . S
H945 N941 0.985 . S
H946 N940 0.984 . S
H947 N940 0.984 . S
H948 N936 0.984 . S
H949 N936 0.985 . S
C950 C951 1.363 . S
C950 C956 1.379 . S
C950 N958 1.356 . S
C951 C950 1.363 . S
C951 C957 1.363 . S
C952 C953 1.363 . S
C952 C957 1.379 . S
C952 N959 1.356 . S
C953 C952 1.363 . S
C953 C956 1.363 . S
N954 C956 1.356 . S
N954 H966 0.984 . S
N954 H967 0.985 . S
N955 C957 1.356 . S
N955 H960 0.984 . S
N955 H961 0.985 . S
C956 C950 1.379 . S
C956 C953 1.363 . S
C956 N954 1.356 . S
C957 C951 1.363 . S
C957 C952 1.379 . S
C957 N955 1.356 . S
N958 C950 1.356 . S
N958 H964 0.984 . S
N958 H965 0.984 . S
N959 C952 1.356 . S
N959 H962 0.984 . S
N959 H963 0.985 . S
H960 N955 0.984 . S
H961 N955 0.985 . S
H962 N959 0.984 . S
H963 N959 0.985 . S
H964 N958 0.984 . S
H965 N958 0.984 . S
H966 N954 0.984 . S
H967 N954 0.985 . S
C968 C969 1.363 . S
C968 C974 1.379 . S
C968 N976 1.356 . S
C969 C968 1.363 . S
C969 C975 1.363 . S
C970 C971 1.363 . S
C970 C975 1.379 . S
C970 N977 1.356 . S
C971 C970 1.363 . S
C971 C974 1.363 . S
N972 C974 1.356 . S
N972 H984 0.984 . S
N972 H985 0.985 . S
N973 C975 1.356 . S
N973 H978 0.984 . S
N973 H979 0.985 . S
C974 C968 1.379 . S
C974 C971 1.363 . S
C974 N972 1.356 . S
C975 C969 1.363 . S
C975 C970 1.379 . S
C975 N973 1.356 . S
N976 C968 1.356 . S
N976 H982 0.984 . S
N976 H983 0.984 . S
N977 C970 1.356 . S
N977 H980 0.984 . S
N977 H981 0.985 . S
H978 N973 0.984 . S
H979 N973 0.985 . S
H980 N977 0.984 . S
H981 N977 0.985 . S
H982 N976 0.984 . S
H983 N976 0.984 . S
H984 N972 0.984 . S
H985 N972 0.985 . S
C986 C987 1.363 . S
C986 C992 1.379 . S
C986 N994 1.356 . S
C987 C986 1.363 . S
C987 C993 1.363 . S
C988 C989 1.363 . S
C988 C993 1.379 . S
C988 N995 1.356 . S
C989 C988 1.363 . S
C989 C992 1.363 . S
N990 C992 1.356 . S
N990 H1002 0.984 . S
N990 H1003 0.985 . S
N991 C993 1.356 . S
N991 H996 0.984 . S
N991 H997 0.985 . S
C992 C986 1.379 . S
C992 C989 1.363 . S
C992 N990 1.356 . S
C993 C987 1.363 . S
C993 C988 1.379 . S
C993 N991 1.356 . S
N994 C986 1.356 . S
N994 H1000 0.984 . S
N994 H1001 0.984 . S
N995 C988 1.356 . S
N995 H998 0.984 . S
N995 H999 0.985 . S
H996 N991 0.984 . S
H997 N991 0.985 . S
H998 N995 0.984 . S
H999 N995 0.985 . S
H1000 N994 0.984 . S
H1001 N994 0.984 . S
H1002 N990 0.984 . S
H1003 N990 0.985 . S
C1004 C1005 1.363 . S
C1004 C1010 1.379 . S
C1004 N1012 1.356 . S
C1005 C1004 1.363 . S
C1005 C1011 1.363 . S
C1006 C1007 1.363 . S
C1006 C1011 1.379 . S
C1006 N1013 1.356 . S
C1007 C1006 1.363 . S
C1007 C1010 1.363 . S
N1008 C1010 1.356 . S
N1008 H1020 0.984 . S
N1008 H1021 0.985 . S
N1009 C1011 1.356 . S
N1009 H1014 0.984 . S
N1009 H1015 0.985 . S
C1010 C1004 1.379 . S
C1010 C1007 1.363 . S
C1010 N1008 1.356 . S
C1011 C1005 1.363 . S
C1011 C1006 1.379 . S
C1011 N1009 1.356 . S
N1012 C1004 1.356 . S
N1012 H1018 0.984 . S
N1012 H1019 0.984 . S
N1013 C1006 1.356 . S
N1013 H1016 0.984 . S
N1013 H1017 0.985 . S
H1014 N1009 0.984 . S
H1015 N1009 0.985 . S
H1016 N1013 0.984 . S
H1017 N1013 0.985 . S
H1018 N1012 0.984 . S
H1019 N1012 0.984 . S
H1020 N1008 0.984 . S
H1021 N1008 0.985 . S
C1022 C1023 1.363 . S
C1022 C1028 1.379 . S
C1022 N1030 1.356 . S
C1023 C1022 1.363 . S
C1023 C1029 1.363 . S
C1024 C1025 1.363 . S
C1024 C1029 1.379 . S
C1024 N1031 1.356 . S
C1025 C1024 1.363 . S
C1025 C1028 1.363 . S
N1026 C1028 1.356 . S
N1026 H1038 0.984 . S
N1026 H1039 0.985 . S
N1027 C1029 1.356 . S
N1027 H1032 0.984 . S
N1027 H1033 0.985 . S
C1028 C1022 1.379 . S
C1028 C1025 1.363 . S
C1028 N1026 1.356 . S
C1029 C1023 1.363 . S
C1029 C1024 1.379 . S
C1029 N1027 1.356 . S
N1030 C1022 1.356 . S
N1030 H1036 0.984 . S
N1030 H1037 0.984 . S
N1031 C1024 1.356 . S
N1031 H1034 0.984 . S
N1031 H1035 0.985 . S
H1032 N1027 0.984 . S
H1033 N1027 0.985 . S
H1034 N1031 0.984 . S
H1035 N1031 0.985 . S
H1036 N1030 0.984 . S
H1037 N1030 0.984 . S
H1038 N1026 0.984 . S
H1039 N1026 0.985 . S
C1040 C1041 1.363 . S
C1040 C1046 1.379 . S
C1040 N1048 1.356 . S
C1041 C1040 1.363 . S
C1041 C1047 1.363 . S
C1042 C1043 1.363 . S
C1042 C1047 1.379 . S
C1042 N1049 1.356 . S
C1043 C1042 1.363 . S
C1043 C1046 1.363 . S
N1044 C1046 1.356 . S
N1044 H1056 0.984 . S
N1044 H1057 0.985 . S
N1045 C1047 1.356 . S
N1045 H1050 0.984 . S
N1045 H1051 0.985 . S
C1046 C1040 1.379 . S
C1046 C1043 1.363 . S
C1046 N1044 1.356 . S
C1047 C1041 1.363 . S
C1047 C1042 1.379 . S
C1047 N1045 1.356 . S
N1048 C1040 1.356 . S
N1048 H1054 0.984 . S
N1048 H1055 0.984 . S
N1049 C1042 1.356 . S
N1049 H1052 0.984 . S
N1049 H1053 0.985 . S
H1050 N1045 0.984 . S
H1051 N1045 0.985 . S
H1052 N1049 0.984 . S
H1053 N1049 0.985 . S
H1054 N1048 0.984 . S
H1055 N1048 0.984 . S
H1056 N1044 0.984 . S
H1057 N1044 0.985 . S
C1058 C1059 1.363 . S
C1058 C1064 1.379 . S
C1058 N1066 1.356 . S
C1059 C1058 1.363 . S
C1059 C1065 1.363 . S
C1060 C1061 1.363 . S
C1060 C1065 1.379 . S
C1060 N1067 1.356 . S
C1061 C1060 1.363 . S
C1061 C1064 1.363 . S
N1062 C1064 1.356 . S
N1062 H1074 0.984 . S
N1062 H1075 0.985 . S
N1063 C1065 1.356 . S
N1063 H1068 0.984 . S
N1063 H1069 0.985 . S
C1064 C1058 1.379 . S
C1064 C1061 1.363 . S
C1064 N1062 1.356 . S
C1065 C1059 1.363 . S
C1065 C1060 1.379 . S
C1065 N1063 1.356 . S
N1066 C1058 1.356 . S
N1066 H1072 0.984 . S
N1066 H1073 0.984 . S
N1067 C1060 1.356 . S
N1067 H1070 0.984 . S
N1067 H1071 0.985 . S
H1068 N1063 0.984 . S
H1069 N1063 0.985 . S
H1070 N1067 0.984 . S
H1071 N1067 0.985 . S
H1072 N1066 0.984 . S
H1073 N1066 0.984 . S
H1074 N1062 0.984 . S
H1075 N1062 0.985 . S
C1076 C1077 1.363 . S
C1076 C1082 1.379 . S
C1076 N1084 1.356 . S
C1077 C1076 1.363 . S
C1077 C1083 1.363 . S
C1078 C1079 1.363 . S
C1078 C1083 1.379 . S
C1078 N1085 1.356 . S
C1079 C1078 1.363 . S
C1079 C1082 1.363 . S
N1080 C1082 1.356 . S
N1080 H1092 0.984 . S
N1080 H1093 0.985 . S
N1081 C1083 1.356 . S
N1081 H1086 0.984 . S
N1081 H1087 0.985 . S
C1082 C1076 1.379 . S
C1082 C1079 1.363 . S
C1082 N1080 1.356 . S
C1083 C1077 1.363 . S
C1083 C1078 1.379 . S
C1083 N1081 1.356 . S
N1084 C1076 1.356 . S
N1084 H1090 0.984 . S
N1084 H1091 0.984 . S
N1085 C1078 1.356 . S
N1085 H1088 0.984 . S
N1085 H1089 0.985 . S
H1086 N1081 0.984 . S
H1087 N1081 0.985 . S
H1088 N1085 0.984 . S
H1089 N1085 0.985 . S
H1090 N1084 0.984 . S
H1091 N1084 0.984 . S
H1092 N1080 0.984 . S
H1093 N1080 0.985 . S
C1094 C1095 1.363 . S
C1094 C1100 1.379 . S
C1094 N1102 1.356 . S
C1095 C1094 1.363 . S
C1095 C1101 1.363 . S
C1096 C1097 1.363 . S
C1096 C1101 1.379 . S
C1096 N1103 1.356 . S
C1097 C1096 1.363 . S
C1097 C1100 1.363 . S
N1098 C1100 1.356 . S
N1098 H1110 0.984 . S
N1098 H1111 0.985 . S
N1099 C1101 1.356 . S
N1099 H1104 0.984 . S
N1099 H1105 0.985 . S
C1100 C1094 1.379 . S
C1100 C1097 1.363 . S
C1100 N1098 1.356 . S
C1101 C1095 1.363 . S
C1101 C1096 1.379 . S
C1101 N1099 1.356 . S
N1102 C1094 1.356 . S
N1102 H1108 0.984 . S
N1102 H1109 0.984 . S
N1103 C1096 1.356 . S
N1103 H1106 0.984 . S
N1103 H1107 0.985 . S
H1104 N1099 0.984 . S
H1105 N1099 0.985 . S
H1106 N1103 0.984 . S
H1107 N1103 0.985 . S
H1108 N1102 0.984 . S
H1109 N1102 0.984 . S
H1110 N1098 0.984 . S
H1111 N1098 0.985 . S
C1112 C1113 1.363 . S
C1112 C1118 1.379 . S
C1112 N1120 1.356 . S
C1113 C1112 1.363 . S
C1113 C1119 1.363 . S
C1114 C1115 1.363 . S
C1114 C1119 1.379 . S
C1114 N1121 1.356 . S
C1115 C1114 1.363 . S
C1115 C1118 1.363 . S
N1116 C1118 1.356 . S
N1116 H1128 0.984 . S
N1116 H1129 0.985 . S
N1117 C1119 1.356 . S
N1117 H1122 0.984 . S
N1117 H1123 0.985 . S
C1118 C1112 1.379 . S
C1118 C1115 1.363 . S
C1118 N1116 1.356 . S
C1119 C1113 1.363 . S
C1119 C1114 1.379 . S
C1119 N1117 1.356 . S
N1120 C1112 1.356 . S
N1120 H1126 0.984 . S
N1120 H1127 0.984 . S
N1121 C1114 1.356 . S
N1121 H1124 0.984 . S
N1121 H1125 0.985 . S
H1122 N1117 0.984 . S
H1123 N1117 0.985 . S
H1124 N1121 0.984 . S
H1125 N1121 0.985 . S
H1126 N1120 0.984 . S
H1127 N1120 0.984 . S
H1128 N1116 0.984 . S
H1129 N1116 0.985 . S
C1130 C1131 1.363 . S
C1130 C1136 1.379 . S
C1130 N1138 1.356 . S
C1131 C1130 1.363 . S
C1131 C1137 1.363 . S
C1132 C1133 1.363 . S
C1132 C1137 1.379 . S
C1132 N1139 1.356 . S
C1133 C1132 1.363 . S
C1133 C1136 1.363 . S
N1134 C1136 1.356 . S
N1134 H1146 0.984 . S
N1134 H1147 0.985 . S
N1135 C1137 1.356 . S
N1135 H1140 0.984 . S
N1135 H1141 0.985 . S
C1136 C1130 1.379 . S
C1136 C1133 1.363 . S
C1136 N1134 1.356 . S
C1137 C1131 1.363 . S
C1137 C1132 1.379 . S
C1137 N1135 1.356 . S
N1138 C1130 1.356 . S
N1138 H1144 0.984 . S
N1138 H1145 0.984 . S
N1139 C1132 1.356 . S
N1139 H1142 0.984 . S
N1139 H1143 0.985 . S
H1140 N1135 0.984 . S
H1141 N1135 0.985 . S
H1142 N1139 0.984 . S
H1143 N1139 0.985 . S
H1144 N1138 0.984 . S
H1145 N1138 0.984 . S
H1146 N1134 0.984 . S
H1147 N1134 0.985 . S
C1148 C1149 1.363 . S
C1148 C1154 1.379 . S
C1148 N1156 1.356 . S
C1149 C1148 1.363 . S
C1149 C1155 1.363 . S
C1150 C1151 1.363 . S
C1150 C1155 1.379 . S
C1150 N1157 1.356 . S
C1151 C1150 1.363 . S
C1151 C1154 1.363 . S
N1152 C1154 1.356 . S
N1152 H1164 0.984 . S
N1152 H1165 0.985 . S
N1153 C1155 1.356 . S
N1153 H1158 0.984 . S
N1153 H1159 0.985 . S
C1154 C1148 1.379 . S
C1154 C1151 1.363 . S
C1154 N1152 1.356 . S
C1155 C1149 1.363 . S
C1155 C1150 1.379 . S
C1155 N1153 1.356 . S
N1156 C1148 1.356 . S
N1156 H1162 0.984 . S
N1156 H1163 0.984 . S
N1157 C1150 1.356 . S
N1157 H1160 0.984 . S
N1157 H1161 0.985 . S
H1158 N1153 0.984 . S
H1159 N1153 0.985 . S
H1160 N1157 0.984 . S
H1161 N1157 0.985 . S
H1162 N1156 0.984 . S
H1163 N1156 0.984 . S
H1164 N1152 0.984 . S
H1165 N1152 0.985 . S
C1166 C1167 1.363 . S
C1166 C1172 1.379 . S
C1166 N1174 1.356 . S
C1167 C1166 1.363 . S
C1167 C1173 1.363 . S
C1168 C1169 1.363 . S
C1168 C1173 1.379 . S
C1168 N1175 1.356 . S
C1169 C1168 1.363 . S
C1169 C1172 1.363 . S
N1170 C1172 1.356 . S
N1170 H1182 0.984 . S
N1170 H1183 0.985 . S
N1171 C1173 1.356 . S
N1171 H1176 0.984 . S
N1171 H1177 0.985 . S
C1172 C1166 1.379 . S
C1172 C1169 1.363 . S
C1172 N1170 1.356 . S
C1173 C1167 1.363 . S
C1173 C1168 1.379 . S
C1173 N1171 1.356 . S
N1174 C1166 1.356 . S
N1174 H1180 0.984 . S
N1174 H1181 0.984 . S
N1175 C1168 1.356 . S
N1175 H1178 0.984 . S
N1175 H1179 0.985 . S
H1176 N1171 0.984 . S
H1177 N1171 0.985 . S
H1178 N1175 0.984 . S
H1179 N1175 0.985 . S
H1180 N1174 0.984 . S
H1181 N1174 0.984 . S
H1182 N1170 0.984 . S
H1183 N1170 0.985 . S
C1184 C1185 1.363 . S
C1184 C1190 1.379 . S
C1184 N1192 1.356 . S
C1185 C1184 1.363 . S
C1185 C1191 1.363 . S
C1186 C1187 1.363 . S
C1186 C1191 1.379 . S
C1186 N1193 1.356 . S
C1187 C1186 1.363 . S
C1187 C1190 1.363 . S
N1188 C1190 1.356 . S
N1188 H1200 0.984 . S
N1188 H1201 0.985 . S
N1189 C1191 1.356 . S
N1189 H1194 0.984 . S
N1189 H1195 0.985 . S
C1190 C1184 1.379 . S
C1190 C1187 1.363 . S
C1190 N1188 1.356 . S
C1191 C1185 1.363 . S
C1191 C1186 1.379 . S
C1191 N1189 1.356 . S
N1192 C1184 1.356 . S
N1192 H1198 0.984 . S
N1192 H1199 0.984 . S
N1193 C1186 1.356 . S
N1193 H1196 0.984 . S
N1193 H1197 0.985 . S
H1194 N1189 0.984 . S
H1195 N1189 0.985 . S
H1196 N1193 0.984 . S
H1197 N1193 0.985 . S
H1198 N1192 0.984 . S
H1199 N1192 0.984 . S
H1200 N1188 0.984 . S
H1201 N1188 0.985 . S
C1202 C1203 1.363 . S
C1202 C1208 1.379 . S
C1202 N1210 1.356 . S
C1203 C1202 1.363 . S
C1203 C1209 1.363 . S
C1204 C1205 1.363 . S
C1204 C1209 1.379 . S
C1204 N1211 1.356 . S
C1205 C1204 1.363 . S
C1205 C1208 1.363 . S
N1206 C1208 1.356 . S
N1206 H1218 0.984 . S
N1206 H1219 0.985 . S
N1207 C1209 1.356 . S
N1207 H1212 0.984 . S
N1207 H1213 0.985 . S
C1208 C1202 1.379 . S
C1208 C1205 1.363 . S
C1208 N1206 1.356 . S
C1209 C1203 1.363 . S
C1209 C1204 1.379 . S
C1209 N1207 1.356 . S
N1210 C1202 1.356 . S
N1210 H1216 0.984 . S
N1210 H1217 0.984 . S
N1211 C1204 1.356 . S
N1211 H1214 0.984 . S
N1211 H1215 0.985 . S
H1212 N1207 0.984 . S
H1213 N1207 0.985 . S
H1214 N1211 0.984 . S
H1215 N1211 0.985 . S
H1216 N1210 0.984 . S
H1217 N1210 0.984 . S
H1218 N1206 0.984 . S
H1219 N1206 0.985 . S
C1220 C1221 1.363 . S
C1220 C1226 1.379 . S
C1220 N1228 1.356 . S
C1221 C1220 1.363 . S
C1221 C1227 1.363 . S
C1222 C1223 1.363 . S
C1222 C1227 1.379 . S
C1222 N1229 1.356 . S
C1223 C1222 1.363 . S
C1223 C1226 1.363 . S
N1224 C1226 1.356 . S
N1224 H1236 0.984 . S
N1224 H1237 0.985 . S
N1225 C1227 1.356 . S
N1225 H1230 0.984 . S
N1225 H1231 0.985 . S
C1226 C1220 1.379 . S
C1226 C1223 1.363 . S
C1226 N1224 1.356 . S
C1227 C1221 1.363 . S
C1227 C1222 1.379 . S
C1227 N1225 1.356 . S
N1228 C1220 1.356 . S
N1228 H1234 0.984 . S
N1228 H1235 0.984 . S
N1229 C1222 1.356 . S
N1229 H1232 0.984 . S
N1229 H1233 0.985 . S
H1230 N1225 0.984 . S
H1231 N1225 0.985 . S
H1232 N1229 0.984 . S
H1233 N1229 0.985 . S
H1234 N1228 0.984 . S
H1235 N1228 0.984 . S
H1236 N1224 0.984 . S
H1237 N1224 0.985 . S
C1238 C1239 1.363 . S
C1238 C1244 1.379 . S
C1238 N1246 1.356 . S
C1239 C1238 1.363 . S
C1239 C1245 1.363 . S
C1240 C1241 1.363 . S
C1240 C1245 1.379 . S
C1240 N1247 1.356 . S
C1241 C1240 1.363 . S
C1241 C1244 1.363 . S
N1242 C1244 1.356 . S
N1242 H1254 0.984 . S
N1242 H1255 0.985 . S
N1243 C1245 1.356 . S
N1243 H1248 0.984 . S
N1243 H1249 0.985 . S
C1244 C1238 1.379 . S
C1244 C1241 1.363 . S
C1244 N1242 1.356 . S
C1245 C1239 1.363 . S
C1245 C1240 1.379 . S
C1245 N1243 1.356 . S
N1246 C1238 1.356 . S
N1246 H1252 0.984 . S
N1246 H1253 0.984 . S
N1247 C1240 1.356 . S
N1247 H1250 0.984 . S
N1247 H1251 0.985 . S
H1248 N1243 0.984 . S
H1249 N1243 0.985 . S
H1250 N1247 0.984 . S
H1251 N1247 0.985 . S
H1252 N1246 0.984 . S
H1253 N1246 0.984 . S
H1254 N1242 0.984 . S
H1255 N1242 0.985 . S
C1256 C1257 1.363 . S
C1256 C1262 1.379 . S
C1256 N1264 1.356 . S
C1257 C1256 1.363 . S
C1257 C1263 1.363 . S
C1258 C1259 1.363 . S
C1258 C1263 1.379 . S
C1258 N1265 1.356 . S
C1259 C1258 1.363 . S
C1259 C1262 1.363 . S
N1260 C1262 1.356 . S
N1260 H1272 0.984 . S
N1260 H1273 0.985 . S
N1261 C1263 1.356 . S
N1261 H1266 0.984 . S
N1261 H1267 0.985 . S
C1262 C1256 1.379 . S
C1262 C1259 1.363 . S
C1262 N1260 1.356 . S
C1263 C1257 1.363 . S
C1263 C1258 1.379 . S
C1263 N1261 1.356 . S
N1264 C1256 1.356 . S
N1264 H1270 0.984 . S
N1264 H1271 0.984 . S
N1265 C1258 1.356 . S
N1265 H1268 0.984 . S
N1265 H1269 0.985 . S
H1266 N1261 0.984 . S
H1267 N1261 0.985 . S
H1268 N1265 0.984 . S
H1269 N1265 0.985 . S
H1270 N1264 0.984 . S
H1271 N1264 0.984 . S
H1272 N1260 0.984 . S
H1273 N1260 0.985 . S
C1274 C1275 1.363 . S
C1274 C1280 1.379 . S
C1274 N1282 1.356 . S
C1275 C1274 1.363 . S
C1275 C1281 1.363 . S
C1276 C1277 1.363 . S
C1276 C1281 1.379 . S
C1276 N1283 1.356 . S
C1277 C1276 1.363 . S
C1277 C1280 1.363 . S
N1278 C1280 1.356 . S
N1278 H1290 0.984 . S
N1278 H1291 0.985 . S
N1279 C1281 1.356 . S
N1279 H1284 0.984 . S
N1279 H1285 0.985 . S
C1280 C1274 1.379 . S
C1280 C1277 1.363 . S
C1280 N1278 1.356 . S
C1281 C1275 1.363 . S
C1281 C1276 1.379 . S
C1281 N1279 1.356 . S
N1282 C1274 1.356 . S
N1282 H1288 0.984 . S
N1282 H1289 0.984 . S
N1283 C1276 1.356 . S
N1283 H1286 0.984 . S
N1283 H1287 0.985 . S
H1284 N1279 0.984 . S
H1285 N1279 0.985 . S
H1286 N1283 0.984 . S
H1287 N1283 0.985 . S
H1288 N1282 0.984 . S
H1289 N1282 0.984 . S
H1290 N1278 0.984 . S
H1291 N1278 0.985 . S
C1292 C1293 1.363 . S
C1292 C1298 1.379 . S
C1292 N1300 1.356 . S
C1293 C1292 1.363 . S
C1293 C1299 1.363 . S
C1294 C1295 1.363 . S
C1294 C1299 1.379 . S
C1294 N1301 1.356 . S
C1295 C1294 1.363 . S
C1295 C1298 1.363 . S
N1296 C1298 1.356 . S
N1296 H1308 0.984 . S
N1296 H1309 0.985 . S
N1297 C1299 1.356 . S
N1297 H1302 0.984 . S
N1297 H1303 0.985 . S
C1298 C1292 1.379 . S
C1298 C1295 1.363 . S
C1298 N1296 1.356 . S
C1299 C1293 1.363 . S
C1299 C1294 1.379 . S
C1299 N1297 1.356 . S
N1300 C1292 1.356 . S
N1300 H1306 0.984 . S
N1300 H1307 0.984 . S
N1301 C1294 1.356 . S
N1301 H1304 0.984 . S
N1301 H1305 0.985 . S
H1302 N1297 0.984 . S
H1303 N1297 0.985 . S
H1304 N1301 0.984 . S
H1305 N1301 0.985 . S
H1306 N1300 0.984 . S
H1307 N1300 0.984 . S
H1308 N1296 0.984 . S
H1309 N1296 0.985 . S
C1310 C1311 1.363 . S
C1310 C1316 1.379 . S
C1310 N1318 1.356 . S
C1311 C1310 1.363 . S
C1311 C1317 1.363 . S
C1312 C1313 1.363 . S
C1312 C1317 1.379 . S
C1312 N1319 1.356 . S
C1313 C1312 1.363 . S
C1313 C1316 1.363 . S
N1314 C1316 1.356 . S
N1314 H1326 0.984 . S
N1314 H1327 0.985 . S
N1315 C1317 1.356 . S
N1315 H1320 0.984 . S
N1315 H1321 0.985 . S
C1316 C1310 1.379 . S
C1316 C1313 1.363 . S
C1316 N1314 1.356 . S
C1317 C1311 1.363 . S
C1317 C1312 1.379 . S
C1317 N1315 1.356 . S
N1318 C1310 1.356 . S
N1318 H1324 0.984 . S
N1318 H1325 0.984 . S
N1319 C1312 1.356 . S
N1319 H1322 0.984 . S
N1319 H1323 0.985 . S
H1320 N1315 0.984 . S
H1321 N1315 0.985 . S
H1322 N1319 0.984 . S
H1323 N1319 0.985 . S
H1324 N1318 0.984 . S
H1325 N1318 0.984 . S
H1326 N1314 0.984 . S
H1327 N1314 0.985 . S
C467 C289 0.356 . S
C465 C4 0.495 . S
C485 C294 1.626 . S
C483 C63 1.599 . S
C503 C295 1.356 . S
C501 C72 1.284 . S
C519 C102 1.603 . S
C521 C299 1.639 . S
C537 C136 1.599 . S
C539 C302 1.626 . S
C557 C303 1.356 . S
C555 C183 1.276 . S
C573 C233 1.603 . S
C575 C280 1.638 . S
C591 C251 0.499 . S
C593 C296 0.357 . S
C611 C334 1.512 . S
C609 C29 1.538 . S
C627 C42 2.049 . S
C629 C360 1.949 . S
C647 C312 1.549 . S
C645 C97 1.576 . S
C665 C367 1.258 . S
C663 C115 1.314 . S
C681 C149 1.333 . S
C683 C321 1.308 . S
C701 C363 1.576 . S
C699 C187 1.588 . S
C717 C212 2.062 . S
C719 C327 1.972 . S
C735 C255 1.544 . S
C737 C358 1.520 . S
C753 C8 1.543 . S
C755 C366 1.513 . S
C771 C153 2.049 . S
C773 C353 1.949 . S
C791 C331 1.549 . S
C789 C170 1.578 . S
C809 C359 1.258 . S
C807 C208 1.321 . S
C825 C238 1.541 . S
C827 C326 1.515 . S
C843 C76 1.587 . S
C845 C344 1.574 . S
C863 C335 1.972 . S
C861 C119 2.063 . S
C879 C38 1.333 . S
C881 C328 1.301 . S
C897 C242 0.483 . S
C899 C390 0.514 . S
C915 C165 1.578 . S
C917 C385 1.498 . S
C935 C399 1.216 . S
C933 C174 1.258 . S
C953 C376 1.556 . S
C951 C204 1.580 . S
C969 C34 1.578 . S
C971 C392 1.495 . S
C989 C391 1.216 . S
C987 C81 1.254 . S
C1005 C131 1.578 . S
C1007 C395 1.554 . S
C1023 C13 0.483 . S
C1025 C398 0.515 . S
C1041 C267 1.532 . S
C1043 C424 1.494 . S
C1061 C440 2.055 . S
C1059 C144 2.078 . S
C1077 C199 1.570 . S
C1079 C422 1.568 . S
C1095 C217 1.336 . S
C1097 C455 1.297 . S
C1115 C431 1.449 . S
C1113 C47 1.346 . S
C1131 C85 1.594 . S
C1133 C449 1.508 . S
C1151 C427 2.093 . S
C1149 C110 2.069 . S
C1169 C462 1.500 . S
C1167 C17 1.555 . S
C1187 C454 1.500 . S
C1185 C246 1.558 . S
C1203 C51 2.076 . S
C1205 C459 2.053 . S
C1221 C68 1.570 . S
C1223 C430 1.573 . S
C1241 C463 1.299 . S
C1239 C106 1.338 . S
C1257 C0 1.532 . S
C1259 C417 1.490 . S
C1275 C178 1.594 . S
C1277 C456 1.506 . S
C1295 C408 2.093 . S
C1293 C221 2.073 . S
C1313 C423 1.449 . S
C1311 C140 1.341 . S
