# Generated by pormake.
# Topology gar, (4,6)-cn, num edge types: 1
# Building blocks:
#     Node 0, Type 0, BuildingBlock: UXUYUI_clean_sbu_0, # of connection points: 4
#     Node 1, Type 0, BuildingBlock: UXUYUI_clean_sbu_0, # of connection points: 4
#     Node 2, Type 0, BuildingBlock: UXUYUI_clean_sbu_0, # of connection points: 4
#     Node 3, Type 0, BuildingBlock: UXUYUI_clean_sbu_0, # of connection points: 4
#     Node 4, Type 0, BuildingBlock: UXUYUI_clean_sbu_0, # of connection points: 4
#     Node 5, Type 0, BuildingBlock: UXUYUI_clean_sbu_0, # of connection points: 4
#     Node 6, Type 0, BuildingBlock: UXUYUI_clean_sbu_0, # of connection points: 4
#     Node 7, Type 0, BuildingBlock: UXUYUI_clean_sbu_0, # of connection points: 4
#     Node 8, Type 0, BuildingBlock: UXUYUI_clean_sbu_0, # of connection points: 4
#     Node 9, Type 0, BuildingBlock: UXUYUI_clean_sbu_0, # of connection points: 4
#     Node 10, Type 0, BuildingBlock: UXUYUI_clean_sbu_0, # of connection points: 4
#     Node 11, Type 0, BuildingBlock: UXUYUI_clean_sbu_0, # of connection points: 4
#     Node 12, Type 0, BuildingBlock: UXUYUI_clean_sbu_0, # of connection points: 4
#     Node 13, Type 0, BuildingBlock: UXUYUI_clean_sbu_0, # of connection points: 4
#     Node 14, Type 0, BuildingBlock: UXUYUI_clean_sbu_0, # of connection points: 4
#     Node 15, Type 0, BuildingBlock: UXUYUI_clean_sbu_0, # of connection points: 4
#     Node 16, Type 0, BuildingBlock: UXUYUI_clean_sbu_0, # of connection points: 4
#     Node 17, Type 0, BuildingBlock: UXUYUI_clean_sbu_0, # of connection points: 4
#     Node 18, Type 0, BuildingBlock: UXUYUI_clean_sbu_0, # of connection points: 4
#     Node 19, Type 0, BuildingBlock: UXUYUI_clean_sbu_0, # of connection points: 4
#     Node 20, Type 0, BuildingBlock: UXUYUI_clean_sbu_0, # of connection points: 4
#     Node 21, Type 0, BuildingBlock: UXUYUI_clean_sbu_0, # of connection points: 4
#     Node 22, Type 0, BuildingBlock: UXUYUI_clean_sbu_0, # of connection points: 4
#     Node 23, Type 0, BuildingBlock: UXUYUI_clean_sbu_0, # of connection points: 4
#     Node 24, Type 1, BuildingBlock: KUMJIN_clean_sbu_0, # of connection points: 6
#     Node 25, Type 1, BuildingBlock: KUMJIN_clean_sbu_0, # of connection points: 6
#     Node 26, Type 1, BuildingBlock: KUMJIN_clean_sbu_0, # of connection points: 6
#     Node 27, Type 1, BuildingBlock: KUMJIN_clean_sbu_0, # of connection points: 6
#     Node 28, Type 1, BuildingBlock: KUMJIN_clean_sbu_0, # of connection points: 6
#     Node 29, Type 1, BuildingBlock: KUMJIN_clean_sbu_0, # of connection points: 6
#     Node 30, Type 1, BuildingBlock: KUMJIN_clean_sbu_0, # of connection points: 6
#     Node 31, Type 1, BuildingBlock: KUMJIN_clean_sbu_0, # of connection points: 6
#     Node 32, Type 1, BuildingBlock: KUMJIN_clean_sbu_0, # of connection points: 6
#     Node 33, Type 1, BuildingBlock: KUMJIN_clean_sbu_0, # of connection points: 6
#     Node 34, Type 1, BuildingBlock: KUMJIN_clean_sbu_0, # of connection points: 6
#     Node 35, Type 1, BuildingBlock: KUMJIN_clean_sbu_0, # of connection points: 6
#     Node 36, Type 1, BuildingBlock: KUMJIN_clean_sbu_0, # of connection points: 6
#     Node 37, Type 1, BuildingBlock: KUMJIN_clean_sbu_0, # of connection points: 6
#     Node 38, Type 1, BuildingBlock: KUMJIN_clean_sbu_0, # of connection points: 6
#     Node 39, Type 1, BuildingBlock: KUMJIN_clean_sbu_0, # of connection points: 6
#     Edge 40, Type (0, 1), BuildingBlock: EZIPEK_clean_linker_0, # of connection points: 2
#     Edge 41, Type (0, 1), BuildingBlock: EZIPEK_clean_linker_0, # of connection points: 2
#     Edge 42, Type (0, 1), BuildingBlock: EZIPEK_clean_linker_0, # of connection points: 2
#     Edge 43, Type (0, 1), BuildingBlock: EZIPEK_clean_linker_0, # of connection points: 2
#     Edge 44, Type (0, 1), BuildingBlock: EZIPEK_clean_linker_0, # of connection points: 2
#     Edge 45, Type (0, 1), BuildingBlock: EZIPEK_clean_linker_0, # of connection points: 2
#     Edge 46, Type (0, 1), BuildingBlock: EZIPEK_clean_linker_0, # of connection points: 2
#     Edge 47, Type (0, 1), BuildingBlock: EZIPEK_clean_linker_0, # of connection points: 2
#     Edge 48, Type (0, 1), BuildingBlock: EZIPEK_clean_linker_0, # of connection points: 2
#     Edge 49, Type (0, 1), BuildingBlock: EZIPEK_clean_linker_0, # of connection points: 2
#     Edge 50, Type (0, 1), BuildingBlock: EZIPEK_clean_linker_0, # of connection points: 2
#     Edge 51, Type (0, 1), BuildingBlock: EZIPEK_clean_linker_0, # of connection points: 2
#     Edge 52, Type (0, 1), BuildingBlock: EZIPEK_clean_linker_0, # of connection points: 2
#     Edge 53, Type (0, 1), BuildingBlock: EZIPEK_clean_linker_0, # of connection points: 2
#     Edge 54, Type (0, 1), BuildingBlock: EZIPEK_clean_linker_0, # of connection points: 2
#     Edge 55, Type (0, 1), BuildingBlock: EZIPEK_clean_linker_0, # of connection points: 2
#     Edge 56, Type (0, 1), BuildingBlock: EZIPEK_clean_linker_0, # of connection points: 2
#     Edge 57, Type (0, 1), BuildingBlock: EZIPEK_clean_linker_0, # of connection points: 2
#     Edge 58, Type (0, 1), BuildingBlock: EZIPEK_clean_linker_0, # of connection points: 2
#     Edge 59, Type (0, 1), BuildingBlock: EZIPEK_clean_linker_0, # of connection points: 2
#     Edge 60, Type (0, 1), BuildingBlock: EZIPEK_clean_linker_0, # of connection points: 2
#     Edge 61, Type (0, 1), BuildingBlock: EZIPEK_clean_linker_0, # of connection points: 2
#     Edge 62, Type (0, 1), BuildingBlock: EZIPEK_clean_linker_0, # of connection points: 2
#     Edge 63, Type (0, 1), BuildingBlock: EZIPEK_clean_linker_0, # of connection points: 2
#     Edge 64, Type (0, 1), BuildingBlock: EZIPEK_clean_linker_0, # of connection points: 2
#     Edge 65, Type (0, 1), BuildingBlock: EZIPEK_clean_linker_0, # of connection points: 2
#     Edge 66, Type (0, 1), BuildingBlock: EZIPEK_clean_linker_0, # of connection points: 2
#     Edge 67, Type (0, 1), BuildingBlock: EZIPEK_clean_linker_0, # of connection points: 2
#     Edge 68, Type (0, 1), BuildingBlock: EZIPEK_clean_linker_0, # of connection points: 2
#     Edge 69, Type (0, 1), BuildingBlock: EZIPEK_clean_linker_0, # of connection points: 2
#     Edge 70, Type (0, 1), BuildingBlock: EZIPEK_clean_linker_0, # of connection points: 2
#     Edge 71, Type (0, 1), BuildingBlock: EZIPEK_clean_linker_0, # of connection points: 2
#     Edge 72, Type (0, 1), BuildingBlock: EZIPEK_clean_linker_0, # of connection points: 2
#     Edge 73, Type (0, 1), BuildingBlock: EZIPEK_clean_linker_0, # of connection points: 2
#     Edge 74, Type (0, 1), BuildingBlock: EZIPEK_clean_linker_0, # of connection points: 2
#     Edge 75, Type (0, 1), BuildingBlock: EZIPEK_clean_linker_0, # of connection points: 2
#     Edge 76, Type (0, 1), BuildingBlock: EZIPEK_clean_linker_0, # of connection points: 2
#     Edge 77, Type (0, 1), BuildingBlock: EZIPEK_clean_linker_0, # of connection points: 2
#     Edge 78, Type (0, 1), BuildingBlock: EZIPEK_clean_linker_0, # of connection points: 2
#     Edge 79, Type (0, 1), BuildingBlock: EZIPEK_clean_linker_0, # of connection points: 2
#     Edge 80, Type (0, 1), BuildingBlock: EZIPEK_clean_linker_0, # of connection points: 2
#     Edge 81, Type (0, 1), BuildingBlock: EZIPEK_clean_linker_0, # of connection points: 2
#     Edge 82, Type (0, 1), BuildingBlock: EZIPEK_clean_linker_0, # of connection points: 2
#     Edge 83, Type (0, 1), BuildingBlock: EZIPEK_clean_linker_0, # of connection points: 2
#     Edge 84, Type (0, 1), BuildingBlock: EZIPEK_clean_linker_0, # of connection points: 2
#     Edge 85, Type (0, 1), BuildingBlock: EZIPEK_clean_linker_0, # of connection points: 2
#     Edge 86, Type (0, 1), BuildingBlock: EZIPEK_clean_linker_0, # of connection points: 2
#     Edge 87, Type (0, 1), BuildingBlock: EZIPEK_clean_linker_0, # of connection points: 2
#     Edge 88, Type (0, 1), BuildingBlock: EZIPEK_clean_linker_0, # of connection points: 2
#     Edge 89, Type (0, 1), BuildingBlock: EZIPEK_clean_linker_0, # of connection points: 2
#     Edge 90, Type (0, 1), BuildingBlock: EZIPEK_clean_linker_0, # of connection points: 2
#     Edge 91, Type (0, 1), BuildingBlock: EZIPEK_clean_linker_0, # of connection points: 2
#     Edge 92, Type (0, 1), BuildingBlock: EZIPEK_clean_linker_0, # of connection points: 2
#     Edge 93, Type (0, 1), BuildingBlock: EZIPEK_clean_linker_0, # of connection points: 2
#     Edge 94, Type (0, 1), BuildingBlock: EZIPEK_clean_linker_0, # of connection points: 2
#     Edge 95, Type (0, 1), BuildingBlock: EZIPEK_clean_linker_0, # of connection points: 2
#     Edge 96, Type (0, 1), BuildingBlock: EZIPEK_clean_linker_0, # of connection points: 2
#     Edge 97, Type (0, 1), BuildingBlock: EZIPEK_clean_linker_0, # of connection points: 2
#     Edge 98, Type (0, 1), BuildingBlock: EZIPEK_clean_linker_0, # of connection points: 2
#     Edge 99, Type (0, 1), BuildingBlock: EZIPEK_clean_linker_0, # of connection points: 2
#     Edge 100, Type (0, 1), BuildingBlock: EZIPEK_clean_linker_0, # of connection points: 2
#     Edge 101, Type (0, 1), BuildingBlock: EZIPEK_clean_linker_0, # of connection points: 2
#     Edge 102, Type (0, 1), BuildingBlock: EZIPEK_clean_linker_0, # of connection points: 2
#     Edge 103, Type (0, 1), BuildingBlock: EZIPEK_clean_linker_0, # of connection points: 2
#     Edge 104, Type (0, 1), BuildingBlock: EZIPEK_clean_linker_0, # of connection points: 2
#     Edge 105, Type (0, 1), BuildingBlock: EZIPEK_clean_linker_0, # of connection points: 2
#     Edge 106, Type (0, 1), BuildingBlock: EZIPEK_clean_linker_0, # of connection points: 2
#     Edge 107, Type (0, 1), BuildingBlock: EZIPEK_clean_linker_0, # of connection points: 2
#     Edge 108, Type (0, 1), BuildingBlock: EZIPEK_clean_linker_0, # of connection points: 2
#     Edge 109, Type (0, 1), BuildingBlock: EZIPEK_clean_linker_0, # of connection points: 2
#     Edge 110, Type (0, 1), BuildingBlock: EZIPEK_clean_linker_0, # of connection points: 2
#     Edge 111, Type (0, 1), BuildingBlock: EZIPEK_clean_linker_0, # of connection points: 2
#     Edge 112, Type (0, 1), BuildingBlock: EZIPEK_clean_linker_0, # of connection points: 2
#     Edge 113, Type (0, 1), BuildingBlock: EZIPEK_clean_linker_0, # of connection points: 2
#     Edge 114, Type (0, 1), BuildingBlock: EZIPEK_clean_linker_0, # of connection points: 2
#     Edge 115, Type (0, 1), BuildingBlock: EZIPEK_clean_linker_0, # of connection points: 2
#     Edge 116, Type (0, 1), BuildingBlock: EZIPEK_clean_linker_0, # of connection points: 2
#     Edge 117, Type (0, 1), BuildingBlock: EZIPEK_clean_linker_0, # of connection points: 2
#     Edge 118, Type (0, 1), BuildingBlock: EZIPEK_clean_linker_0, # of connection points: 2
#     Edge 119, Type (0, 1), BuildingBlock: EZIPEK_clean_linker_0, # of connection points: 2
#     Edge 120, Type (0, 1), BuildingBlock: EZIPEK_clean_linker_0, # of connection points: 2
#     Edge 121, Type (0, 1), BuildingBlock: EZIPEK_clean_linker_0, # of connection points: 2
#     Edge 122, Type (0, 1), BuildingBlock: EZIPEK_clean_linker_0, # of connection points: 2
#     Edge 123, Type (0, 1), BuildingBlock: EZIPEK_clean_linker_0, # of connection points: 2
#     Edge 124, Type (0, 1), BuildingBlock: EZIPEK_clean_linker_0, # of connection points: 2
#     Edge 125, Type (0, 1), BuildingBlock: EZIPEK_clean_linker_0, # of connection points: 2
#     Edge 126, Type (0, 1), BuildingBlock: EZIPEK_clean_linker_0, # of connection points: 2
#     Edge 127, Type (0, 1), BuildingBlock: EZIPEK_clean_linker_0, # of connection points: 2
#     Edge 128, Type (0, 1), BuildingBlock: EZIPEK_clean_linker_0, # of connection points: 2
#     Edge 129, Type (0, 1), BuildingBlock: EZIPEK_clean_linker_0, # of connection points: 2
#     Edge 130, Type (0, 1), BuildingBlock: EZIPEK_clean_linker_0, # of connection points: 2
#     Edge 131, Type (0, 1), BuildingBlock: EZIPEK_clean_linker_0, # of connection points: 2
#     Edge 132, Type (0, 1), BuildingBlock: EZIPEK_clean_linker_0, # of connection points: 2
#     Edge 133, Type (0, 1), BuildingBlock: EZIPEK_clean_linker_0, # of connection points: 2
#     Edge 134, Type (0, 1), BuildingBlock: EZIPEK_clean_linker_0, # of connection points: 2
#     Edge 135, Type (0, 1), BuildingBlock: EZIPEK_clean_linker_0, # of connection points: 2
# Relax obj value: 0.151
# Max RMSD: 0.325
# Mean RMSD: 0.197
data_MOF--net-gar--node1-UXUYUI_clean_sbu_0--node2-KUMJIN_clean_sbu_0--edge1-EZIPEK_clean_linker_0
_symmetry_space_group_name_H-M    P1
_symmetry_Int_Tables_number       1
_symmetry_cell_setting            triclinic
loop_
_symmetry_equiv_pos_as_xyz
'x, y, z'
_cell_length_a     59.622798
_cell_length_b     55.267738
_cell_length_c     55.152694
_cell_angle_alpha  100.90923
_cell_angle_beta   93.382296
_cell_angle_gamma 102.72901
loop_
_atom_site_label
_atom_site_type_symbol
_atom_site_fract_x
_atom_site_fract_y
_atom_site_fract_z
_atom_type_partial_charge
Li0 Li 0.10368 0.33657 0.37352 0.0
Li1 Li 0.13255 0.36102 0.40815 0.0
Li2 Li 0.14336 0.33392 0.37248 0.0
Li3 Li 0.1215 0.31516 0.40391 0.0
C4 C 0.12838 0.37899 0.35643 0.0
N5 N 0.12405 0.40919 0.32258 0.0
C6 C 0.12818 0.40448 0.36465 0.0
C7 C 0.12655 0.36895 0.33096 0.0
C8 C 0.12584 0.41939 0.34727 0.0
C9 C 0.12439 0.38452 0.31415 0.0
C10 C 0.08684 0.34166 0.42681 0.0
C11 C 0.07926 0.35043 0.46968 0.0
N12 N 0.05653 0.34781 0.46227 0.0
C13 C 0.06337 0.3389 0.41963 0.0
C14 C 0.09486 0.34739 0.45203 0.0
C15 C 0.04834 0.34215 0.43782 0.0
C16 C 0.06311 0.31593 0.34086 0.0
N17 N 0.07612 0.33726 0.35611 0.0
C18 C 0.04738 0.36013 0.3503 0.0
C19 C 0.06885 0.35916 0.36088 0.0
C20 C 0.03376 0.33853 0.33416 0.0
C21 C 0.04178 0.31623 0.32935 0.0
H22 H 0.06912 0.29864 0.33796 0.0
H23 H 0.07951 0.37568 0.37335 0.0
C24 C 0.15291 0.40599 0.44889 0.0
N25 N 0.13633 0.39177 0.43055 0.0
C26 C 0.14859 0.42737 0.46439 0.0
C27 C 0.11108 0.41887 0.44082 0.0
C28 C 0.11609 0.3982 0.42605 0.0
C29 C 0.12718 0.4334 0.46043 0.0
H30 H 0.16907 0.40065 0.45176 0.0
H31 H 0.10359 0.38685 0.411 0.0
C32 C 0.11477 0.28579 0.34787 0.0
N33 N 0.1138 0.24587 0.3089 0.0
C34 C 0.11656 0.26227 0.35255 0.0
C35 C 0.1123 0.28897 0.3234 0.0
C36 C 0.11606 0.24232 0.33258 0.0
C37 C 0.11194 0.26858 0.30395 0.0
C38 C 0.17132 0.34723 0.42635 0.0
C39 C 0.19356 0.35532 0.41967 0.0
C40 C 0.16788 0.34894 0.45141 0.0
C41 C 0.21203 0.36522 0.43826 0.0
C42 C 0.18676 0.35927 0.46946 0.0
N43 N 0.20827 0.36707 0.46256 0.0
C44 C 0.17706 0.35027 0.34221 0.0
C45 C 0.17098 0.30699 0.34506 0.0
C46 C 0.19447 0.3478 0.32684 0.0
N47 N 0.16583 0.33 0.35095 0.0
C48 C 0.18815 0.30364 0.32967 0.0
C49 C 0.20027 0.32433 0.32085 0.0
H50 H 0.17307 0.36852 0.3479 0.0
H51 H 0.16234 0.29151 0.35303 0.0
C52 C 0.09397 0.28067 0.42662 0.0
N53 N 0.11594 0.28916 0.42143 0.0
C54 C 0.08913 0.262 0.44053 0.0
C55 C 0.1295 0.26051 0.44265 0.0
C56 C 0.13364 0.27955 0.42896 0.0
C57 C 0.10705 0.2519 0.44877 0.0
H58 H 0.08026 0.28853 0.42006 0.0
H59 H 0.15091 0.28677 0.4244 0.0
O60 O 0.13129 0.36431 0.37326 0.0
O61 O 0.10187 0.3393 0.40913 0.0
O62 O 0.1149 0.30538 0.36721 0.0
O63 O 0.1532 0.33676 0.40835 0.0
H64 H 0.13013 0.41286 0.38422 0.0
H65 H 0.12719 0.34948 0.32425 0.0
H66 H 0.12564 0.43912 0.35342 0.0
H67 H 0.12311 0.37701 0.2944 0.0
H68 H 0.08525 0.35496 0.48927 0.0
H69 H 0.05676 0.33425 0.40023 0.0
H70 H 0.11296 0.3497 0.45792 0.0
H71 H 0.03017 0.34017 0.4325 0.0
H72 H 0.04152 0.37753 0.35443 0.0
H73 H 0.0315 0.29923 0.31706 0.0
H74 H 0.16141 0.43868 0.47932 0.0
H75 H 0.09453 0.42331 0.43721 0.0
H76 H 0.11831 0.25947 0.37141 0.0
H77 H 0.11052 0.3069 0.31946 0.0
H78 H 0.11743 0.224 0.33591 0.0
H79 H 0.11009 0.27078 0.28491 0.0
H80 H 0.19654 0.35371 0.40032 0.0
H81 H 0.15082 0.34246 0.45685 0.0
H82 H 0.22937 0.3714 0.43336 0.0
H83 H 0.18433 0.36101 0.48894 0.0
H84 H 0.20422 0.36427 0.32094 0.0
H85 H 0.19289 0.28559 0.32593 0.0
H86 H 0.07161 0.25552 0.4449 0.0
H87 H 0.14359 0.25284 0.4487 0.0
Li88 Li 1.00527 0.77168 0.64016 0.0
Li89 Li 0.02371 0.7554 0.67333 0.0
Li90 Li 0.99686 0.72637 0.63845 0.0
Li91 Li 0.98241 0.75206 0.67105 0.0
C92 C 0.04271 0.7499 0.62106 0.0
N93 N 0.07489 0.74756 0.58717 0.0
C94 C 0.06632 0.75626 0.62923 0.0
C95 C 0.03545 0.74235 0.59566 0.0
C96 C 0.08232 0.75498 0.61181 0.0
C97 C 0.052 0.74129 0.57881 0.0
C98 C 0.01341 0.80087 0.69856 0.0
C99 C 0.01506 0.8117 0.74317 0.0
N100 N 0.02453 0.83633 0.74264 0.0
C101 C 0.02303 0.82629 0.69844 0.0
C102 C 0.00932 0.79348 0.72106 0.0
C103 C 0.0286 0.84393 0.72093 0.0
C104 C 0.9975 0.79869 0.60289 0.0
N105 N 0.01193 0.79746 0.62237 0.0
C106 C 0.03985 0.83335 0.61633 0.0
C107 C 0.03268 0.81426 0.62936 0.0
C108 C 0.0258 0.8344 0.59543 0.0
C109 C 1.00427 0.81705 0.58886 0.0
H110 H 0.98101 0.78516 0.59797 0.0
H111 H 0.0438 0.81247 0.64482 0.0
C112 C 0.05647 0.73739 0.69664 0.0
N113 N 0.05138 0.75916 0.6927 0.0
C114 C 0.07786 0.73797 0.70836 0.0
C115 C 0.08882 0.78334 0.71082 0.0
C116 C 0.06684 0.78197 0.69961 0.0
C117 C 0.09436 0.76105 0.71517 0.0
H118 H 0.0443 0.71941 0.68975 0.0
H119 H 0.06249 0.79879 0.69535 0.0
C120 C 0.95719 0.73256 0.61683 0.0
N121 N 0.92223 0.70328 0.58132 0.0
C122 C 0.9365 0.71987 0.62401 0.0
C123 C 0.96014 0.73036 0.59161 0.0
C124 C 0.91902 0.70515 0.60576 0.0
C125 C 0.94225 0.71546 0.57393 0.0
C126 C 0.99653 0.7079 0.68834 0.0
C127 C 0.98772 0.6822 0.67772 0.0
C128 C 1.00366 0.71526 0.7138 0.0
C129 C 0.98641 0.66428 0.6927 0.0
C130 C 1.00197 0.69678 0.72818 0.0
N131 N 0.9935 0.67189 0.71741 0.0
C132 C 0.01623 0.69027 0.62205 0.0
C133 C 0.97752 0.67764 0.603 0.0
C134 C 0.02142 0.66904 0.60845 0.0
N135 N 0.99499 0.69473 0.61842 0.0
C136 C 0.98189 0.6555 0.58911 0.0
C137 C 1.00434 0.6517 0.59145 0.0
H138 H 0.02933 0.70353 0.63542 0.0
H139 H 0.96044 0.68109 0.60137 0.0
C140 C 0.95139 0.7762 0.69276 0.0
N141 N 0.95913 0.7547 0.69116 0.0
C142 C 0.93427 0.78022 0.70794 0.0
C143 C 0.934 0.74017 0.72 0.0
C144 C 0.95094 0.73677 0.7043 0.0
C145 C 0.92546 0.76197 0.72154 0.0
H146 H 0.95844 0.79 0.682 0.0
H147 H 0.9572 0.71971 0.70234 0.0
O148 O 0.02684 0.74986 0.638 0.0
O149 O 0.00779 0.78347 0.67665 0.0
O150 O 0.97414 0.74776 0.6344 0.0
O151 O 0.99876 0.72562 0.67373 0.0
H152 H 0.07225 0.76186 0.64881 0.0
H153 H 0.01724 0.73705 0.58907 0.0
H154 H 0.10063 0.75975 0.6179 0.0
H155 H 0.04665 0.73535 0.55909 0.0
H156 H 0.01195 0.80627 0.76074 0.0
H157 H 0.0261 0.83237 0.68116 0.0
H158 H 1.00165 0.77395 0.72145 0.0
H159 H 0.0361 0.86366 0.7211 0.0
H160 H 0.05653 0.84654 0.62184 0.0
H161 H 0.99303 0.81751 0.57287 0.0
H162 H 0.0819 0.72043 0.71111 0.0
H163 H 0.10148 0.80132 0.71548 0.0
H164 H 0.93392 0.72149 0.64347 0.0
H165 H 0.97609 0.73994 0.58573 0.0
H166 H 0.90288 0.69526 0.61103 0.0
H167 H 0.94429 0.71355 0.55435 0.0
H168 H 0.98198 0.67605 0.65812 0.0
H169 H 0.01074 0.73499 0.72234 0.0
H170 H 0.97978 0.64433 0.68468 0.0
H171 H 0.00751 0.70222 0.74787 0.0
H172 H 0.03881 0.66632 0.6109 0.0
H173 H 0.96829 0.64196 0.57644 0.0
H174 H 0.92748 0.79693 0.70855 0.0
H175 H 0.92691 0.72558 0.72994 0.0
Li176 Li 0.60503 0.83498 0.87531 0.0
Li177 Li 0.63463 0.8602 0.90829 0.0
Li178 Li 0.64499 0.83314 0.87293 0.0
Li179 Li 0.6243 0.81482 0.90591 0.0
C180 C 0.63023 0.87761 0.85638 0.0
N181 N 0.62705 0.90783 0.82223 0.0
C182 C 0.63304 0.90381 0.86432 0.0
C183 C 0.6262 0.86694 0.83098 0.0
C184 C 0.63116 0.9187 0.84682 0.0
C185 C 0.62463 0.8825 0.81402 0.0
C186 C 0.59013 0.84502 0.92883 0.0
C187 C 0.58274 0.85491 0.97169 0.0
N188 N 0.5613 0.8573 0.96429 0.0
C189 C 0.568 0.84757 0.92169 0.0
C190 C 0.59756 0.84869 0.95405 0.0
C191 C 0.55371 0.85379 0.93987 0.0
C192 C 0.56163 0.81102 0.85033 0.0
N193 N 0.57706 0.83362 0.85792 0.0
C194 C 0.55081 0.85505 0.84236 0.0
C195 C 0.57168 0.85558 0.85529 0.0
C196 C 0.53571 0.83166 0.83053 0.0
C197 C 0.54048 0.80972 0.83736 0.0
H198 H 0.56563 0.79408 0.85474 0.0
H199 H 0.5834 0.87352 0.86365 0.0
C200 C 0.65654 0.90593 0.94671 0.0
N201 N 0.63933 0.89161 0.92913 0.0
C202 C 0.65365 0.92873 0.96076 0.0
C203 C 0.61634 0.9215 0.93704 0.0
C204 C 0.61982 0.89919 0.92386 0.0
C205 C 0.63309 0.93616 0.95595 0.0
H206 H 0.67212 0.89963 0.95008 0.0
H207 H 0.60686 0.88765 0.90926 0.0
C208 C 0.61521 0.78505 0.84915 0.0
N209 N 0.6108 0.74576 0.80863 0.0
C210 C 0.61846 0.76156 0.85244 0.0
C211 C 0.60941 0.78847 0.82534 0.0
C212 C 0.61618 0.74193 0.8317 0.0
C213 C 0.60741 0.76843 0.80505 0.0
C214 C 0.67363 0.84712 0.92716 0.0
C215 C 0.69604 0.85568 0.92114 0.0
C216 C 0.66962 0.84843 0.95203 0.0
C217 C 0.7141 0.86565 0.94019 0.0
C218 C 0.68809 0.85886 0.97056 0.0
N219 N 0.70977 0.86712 0.9643 0.0
C220 C 0.67692 0.84943 0.84073 0.0
C221 C 0.67248 0.80669 0.84493 0.0
C222 C 0.69392 0.84709 0.82479 0.0
N223 N 0.66672 0.82938 0.85042 0.0
C224 C 0.68959 0.80361 0.82937 0.0
C225 C 0.70072 0.82413 0.81961 0.0
H226 H 0.6726 0.86752 0.84616 0.0
H227 H 0.6645 0.79137 0.85348 0.0
C228 C 0.59735 0.78333 0.93154 0.0
N229 N 0.61865 0.78882 0.92359 0.0
C230 C 0.59171 0.76434 0.94495 0.0
C231 C 0.62975 0.75621 0.94084 0.0
C232 C 0.63485 0.77583 0.92789 0.0
C233 C 0.608 0.7506 0.94969 0.0
H234 H 0.58468 0.79362 0.92734 0.0
H235 H 0.65158 0.78061 0.92109 0.0
O236 O 0.63191 0.86271 0.87337 0.0
O237 O 0.60416 0.83849 0.91111 0.0
O238 O 0.61711 0.80434 0.8693 0.0
O239 O 0.65592 0.83662 0.90869 0.0
H240 H 0.63691 0.91273 0.88374 0.0
H241 H 0.62464 0.84693 0.82439 0.0
H242 H 0.63315 0.93894 0.85278 0.0
H243 H 0.62158 0.87445 0.79432 0.0
H244 H 0.58826 0.85777 0.99127 0.0
H245 H 0.56179 0.84462 0.90233 0.0
H246 H 0.61454 0.84668 0.95994 0.0
H247 H 0.53654 0.85576 0.93455 0.0
H248 H 0.54679 0.87311 0.84203 0.0
H249 H 0.52822 0.79163 0.83362 0.0
H250 H 0.66683 0.94004 0.97533 0.0
H251 H 0.60038 0.92701 0.93298 0.0
H252 H 0.62271 0.75855 0.87082 0.0
H253 H 0.60621 0.80627 0.82255 0.0
H254 H 0.61866 0.72364 0.83394 0.0
H255 H 0.60303 0.77085 0.78649 0.0
H256 H 0.69947 0.85438 0.90192 0.0
H257 H 0.65244 0.84157 0.95696 0.0
H258 H 0.73157 0.87219 0.93581 0.0
H259 H 0.6852 0.86031 0.98991 0.0
H260 H 0.70288 0.86345 0.81813 0.0
H261 H 0.69504 0.78598 0.8262 0.0
H262 H 0.57473 0.76022 0.95138 0.0
H263 H 0.64256 0.7457 0.94411 0.0
Li264 Li 0.50604 0.27466 0.14198 0.0
Li265 Li 0.52654 0.25919 0.17531 0.0
Li266 Li 0.49841 0.22995 0.14213 0.0
Li267 Li 0.48507 0.2559 0.17485 0.0
C268 C 0.54289 0.24805 0.12253 0.0
N269 N 0.57325 0.23733 0.08834 0.0
C270 C 0.56641 0.25189 0.1302 0.0
C271 C 0.5348 0.23881 0.09745 0.0
C272 C 0.58148 0.24637 0.11265 0.0
C273 C 0.55044 0.23349 0.08045 0.0
C274 C 0.51811 0.30536 0.19986 0.0
C275 C 0.52443 0.31775 0.24446 0.0
N276 N 0.53264 0.34224 0.24253 0.0
C277 C 0.52666 0.33058 0.19827 0.0
C278 C 0.51704 0.29879 0.22307 0.0
C279 C 0.53393 0.34898 0.22008 0.0
C280 C 0.49359 0.30417 0.10861 0.0
N281 N 0.51095 0.29926 0.1226 0.0
C282 C 0.53912 0.33006 0.1089 0.0
C283 C 0.53335 0.31167 0.12301 0.0
C284 C 0.52164 0.33545 0.09421 0.0
C285 C 0.49863 0.32223 0.09387 0.0
H286 H 0.47591 0.29408 0.10889 0.0
H287 H 0.5467 0.30721 0.13434 0.0
C288 C 0.55951 0.24053 0.19756 0.0
N289 N 0.55486 0.26257 0.19373 0.0
C290 C 0.58087 0.24053 0.20908 0.0
C291 C 0.59261 0.28589 0.21186 0.0
C292 C 0.57077 0.28507 0.20058 0.0
C293 C 0.59768 0.26336 0.21619 0.0
H294 H 0.54681 0.22284 0.19107 0.0
H295 H 0.56675 0.30215 0.19659 0.0
C296 C 0.45833 0.23656 0.12031 0.0
N297 N 0.42335 0.20951 0.08377 0.0
C298 C 0.43849 0.2212 0.12653 0.0
C299 C 0.46039 0.23818 0.0955 0.0
C300 C 0.421 0.20765 0.10778 0.0
C301 C 0.4425 0.22435 0.0773 0.0
C302 C 0.49659 0.21212 0.1917 0.0
C303 C 0.48303 0.18792 0.18105 0.0
C304 C 0.50573 0.21747 0.21658 0.0
C305 C 0.47907 0.1694 0.1954 0.0
C306 C 0.50135 0.19844 0.23032 0.0
N307 N 0.48827 0.17499 0.21953 0.0
C308 C 0.51528 0.19101 0.13093 0.0
C309 C 0.48256 0.18535 0.10177 0.0
C310 C 0.52149 0.17034 0.11739 0.0
N311 N 0.4966 0.19849 0.1226 0.0
C312 C 0.48825 0.16439 0.08741 0.0
C313 C 0.50835 0.15753 0.09509 0.0
H314 H 0.52608 0.20209 0.14747 0.0
H315 H 0.46772 0.19157 0.09566 0.0
C316 C 0.45933 0.28155 0.20573 0.0
N317 N 0.46213 0.2581 0.19587 0.0
C318 C 0.44176 0.28417 0.22073 0.0
C319 C 0.43029 0.23839 0.215 0.0
C320 C 0.44832 0.23668 0.20037 0.0
C321 C 0.42682 0.26237 0.22491 0.0
H322 H 0.47025 0.29815 0.20127 0.0
H323 H 0.45072 0.21831 0.19181 0.0
O324 O 0.52798 0.2533 0.13962 0.0
O325 O 0.51042 0.28732 0.17868 0.0
O326 O 0.47523 0.25065 0.13851 0.0
O327 O 0.50208 0.22996 0.17747 0.0
H328 H 0.57303 0.25916 0.14948 0.0
H329 H 0.51664 0.23567 0.09121 0.0
H330 H 0.59972 0.24931 0.11835 0.0
H331 H 0.54446 0.2263 0.06098 0.0
H332 H 0.52359 0.31302 0.26259 0.0
H333 H 0.52754 0.33589 0.18036 0.0
H334 H 0.51037 0.27932 0.22453 0.0
H335 H 0.54053 0.36862 0.21916 0.0
H336 H 0.55703 0.33996 0.10936 0.0
H337 H 0.48485 0.32608 0.0826 0.0
H338 H 0.58446 0.22283 0.21191 0.0
H339 H 0.60545 0.30372 0.2169 0.0
H340 H 0.43657 0.21986 0.14565 0.0
H341 H 0.47574 0.24973 0.09031 0.0
H342 H 0.40553 0.19571 0.11232 0.0
H343 H 0.44389 0.22534 0.05802 0.0
H344 H 0.47573 0.18341 0.16185 0.0
H345 H 0.51642 0.23601 0.22507 0.0
H346 H 0.46876 0.15056 0.18734 0.0
H347 H 0.50848 0.20227 0.24953 0.0
H348 H 0.53703 0.16514 0.12359 0.0
H349 H 0.47785 0.15441 0.07018 0.0
H350 H 0.43899 0.30282 0.22779 0.0
H351 H 0.41854 0.2213 0.21758 0.0
Li352 Li 0.10422 0.83591 0.09109 0.0
Li353 Li 0.12906 0.81698 0.12413 0.0
Li354 Li 0.10084 0.78589 0.08689 0.0
Li355 Li 0.0839 0.81124 0.12286 0.0
C356 C 0.14479 0.81543 0.06919 0.0
N357 N 0.17643 0.8171 0.03456 0.0
C358 C 0.16833 0.8255 0.07683 0.0
C359 C 0.13732 0.80619 0.04397 0.0
C360 C 0.18406 0.82618 0.05902 0.0
C361 C 0.1536 0.80721 0.02674 0.0
C362 C 0.11076 0.86471 0.14668 0.0
C363 C 0.10575 0.885 0.18802 0.0
N364 N 0.1127 0.90805 0.18195 0.0
C365 C 0.11794 0.88857 0.14087 0.0
C366 C 0.1047 0.86283 0.17045 0.0
C367 C 0.11879 0.91027 0.15895 0.0
C368 C 0.07652 0.86804 0.07146 0.0
N369 N 0.09896 0.86617 0.07511 0.0
C370 C 0.11109 0.90628 0.0617 0.0
C371 C 0.11613 0.8849 0.06995 0.0
C372 C 0.08809 0.90889 0.05839 0.0
C373 C 0.07078 0.88889 0.06307 0.0
H374 H 0.06281 0.85359 0.07573 0.0
H375 H 0.13395 0.88385 0.07297 0.0
C376 C 0.17155 0.80053 0.13729 0.0
N377 N 0.15852 0.81717 0.14601 0.0
C378 C 0.19054 0.79752 0.15222 0.0
C379 C 0.18288 0.82867 0.1853 0.0
C380 C 0.16413 0.83128 0.16967 0.0
C381 C 0.19648 0.81141 0.17687 0.0
H382 H 0.16695 0.78901 0.11874 0.0
H383 H 0.15368 0.84418 0.17683 0.0
C384 C 0.05834 0.79885 0.06803 0.0
N385 N 0.02162 0.78523 0.03137 0.0
C386 C 0.03592 0.78986 0.07378 0.0
C387 C 0.06213 0.80092 0.04367 0.0
C388 C 0.01757 0.78307 0.05497 0.0
C389 C 0.04332 0.79392 0.02538 0.0
C390 C 0.10099 0.77082 0.14 0.0
C391 C 0.09102 0.74489 0.13218 0.0
C392 C 0.10817 0.78098 0.16514 0.0
C393 C 0.08834 0.72951 0.14969 0.0
C394 C 0.10528 0.76495 0.18209 0.0
N395 N 0.09548 0.73977 0.17408 0.0
C396 C 0.11517 0.74045 0.06192 0.0
C397 C 0.07488 0.73428 0.0637 0.0
C398 C 0.11279 0.71406 0.05391 0.0
N399 N 0.09642 0.75013 0.06731 0.0
C400 C 0.07181 0.70777 0.0562 0.0
C401 C 0.09098 0.69711 0.05201 0.0
H402 H 0.13224 0.75302 0.06515 0.0
H403 H 0.06014 0.74198 0.0684 0.0
C404 C 0.04673 0.83005 0.1456 0.0
N405 N 0.05666 0.80982 0.14192 0.0
C406 C 0.02655 0.82922 0.15779 0.0
C407 C 0.02684 0.78671 0.16211 0.0
C408 C 0.04695 0.78831 0.1498 0.0
C409 C 0.01636 0.80733 0.16632 0.0
H410 H 0.05435 0.84682 0.13883 0.0
H411 H 0.05458 0.77216 0.1463 0.0
O412 O 0.12922 0.81448 0.08641 0.0
O413 O 0.10932 0.84332 0.12898 0.0
O414 O 0.07641 0.80624 0.08631 0.0
O415 O 0.10372 0.78618 0.12313 0.0
H416 H 0.17436 0.83272 0.09631 0.0
H417 H 0.11916 0.79821 0.0378 0.0
H418 H 0.20233 0.83393 0.06465 0.0
H419 H 0.14809 0.80011 0.00714 0.0
H420 H 0.101 0.88388 0.20648 0.0
H421 H 0.12286 0.89032 0.12262 0.0
H422 H 0.09908 0.84447 0.17519 0.0
H423 H 0.12428 0.92886 0.15469 0.0
H424 H 0.12522 0.92107 0.05861 0.0
H425 H 0.05282 0.88978 0.06103 0.0
H426 H 0.20025 0.78394 0.14469 0.0
H427 H 0.18652 0.83983 0.20407 0.0
H428 H 0.03271 0.78826 0.09259 0.0
H429 H 0.07939 0.80805 0.039 0.0
H430 H 1.0001 0.77615 0.05915 0.0
H431 H 0.04597 0.79548 0.00644 0.0
H432 H 0.08532 0.73667 0.11287 0.0
H433 H 0.11583 0.80103 0.1715 0.0
H434 H 0.08059 0.70942 0.14388 0.0
H435 H 0.11079 0.77253 0.20161 0.0
H436 H 0.12806 0.70682 0.05073 0.0
H437 H 0.05467 0.69559 0.05487 0.0
H438 H 0.01896 0.84549 0.16053 0.0
H439 H 0.01948 0.76945 0.16826 0.0
Li440 Li 0.52731 0.79601 0.45378 0.0
Li441 Li 0.49989 0.76516 0.41726 0.0
Li442 Li 0.52456 0.74698 0.45166 0.0
Li443 Li 0.54545 0.76953 0.41945 0.0
C444 C 0.48552 0.7733 0.4735 0.0
N445 N 0.45747 0.78309 0.51047 0.0
C446 C 0.46511 0.78063 0.46814 0.0
C447 C 0.49172 0.77098 0.49764 0.0
C448 C 0.45113 0.78546 0.48709 0.0
C449 C 0.47732 0.77607 0.51609 0.0
C450 C 0.52983 0.81347 0.40428 0.0
C451 C 0.54508 0.83035 0.3698 0.0
N452 N 0.5383 0.85209 0.37831 0.0
C453 C 0.52265 0.83579 0.41244 0.0
C454 C 0.54087 0.81057 0.38262 0.0
C455 C 0.52725 0.85517 0.39916 0.0
C456 C 0.55295 0.84722 0.47023 0.0
N457 N 0.53225 0.83204 0.47248 0.0
C458 C 0.51986 0.86927 0.49217 0.0
C459 C 0.51556 0.84277 0.48275 0.0
C460 C 0.54203 0.88554 0.49243 0.0
C461 C 0.55775 0.8736 0.47909 0.0
H462 H 0.5655 0.83895 0.46033 0.0
H463 H 0.49843 0.83103 0.48262 0.0
C464 C 0.44884 0.75253 0.39789 0.0
N465 N 0.47077 0.76441 0.39448 0.0
C466 C 0.4292 0.75489 0.38342 0.0
C467 C 0.45454 0.78104 0.36148 0.0
C468 C 0.47363 0.77824 0.3763 0.0
C469 C 0.4317 0.76961 0.36494 0.0
H470 H 0.44638 0.74163 0.41228 0.0
H471 H 0.49082 0.78761 0.37336 0.0
C472 C 0.57007 0.7822 0.47458 0.0
N473 N 0.60607 0.79262 0.51176 0.0
C474 C 0.59175 0.77843 0.46887 0.0
C475 C 0.5667 0.79135 0.49917 0.0
C476 C 0.60972 0.78376 0.48794 0.0
C477 C 0.58515 0.79651 0.51771 0.0
C478 C 0.5203 0.71721 0.39635 0.0
C479 C 0.5304 0.69863 0.40323 0.0
C480 C 0.51096 0.71418 0.37184 0.0
C481 C 0.53089 0.67718 0.38541 0.0
C482 C 0.51191 0.69251 0.35452 0.0
N483 N 0.52173 0.6746 0.36163 0.0
C484 C 0.51109 0.69789 0.4715 0.0
C485 C 0.55103 0.71624 0.47537 0.0
C486 C 0.51541 0.67652 0.48025 0.0
N487 N 0.52883 0.71737 0.4688 0.0
C488 C 0.55606 0.69533 0.48416 0.0
C489 C 0.53825 0.67471 0.48645 0.0
H490 H 0.49349 0.69834 0.46603 0.0
H491 H 0.56522 0.73108 0.4728 0.0
C492 C 0.58952 0.79354 0.40616 0.0
N493 N 0.57304 0.77129 0.40074 0.0
C494 C 0.60954 0.79662 0.39371 0.0
C495 C 0.59578 0.75378 0.37034 0.0
C496 C 0.57601 0.75147 0.38331 0.0
C497 C 0.61284 0.77664 0.37541 0.0
H498 H 0.58701 0.80908 0.4201 0.0
H499 H 0.56301 0.73384 0.37919 0.0
O500 O 0.49886 0.7674 0.45496 0.0
O501 O 0.52623 0.79455 0.41743 0.0
O502 O 0.55222 0.77681 0.45617 0.0
O503 O 0.51897 0.73794 0.41366 0.0
H504 H 0.46006 0.78245 0.44953 0.0
H505 H 0.5074 0.76513 0.502 0.0
H506 H 0.43522 0.79102 0.48319 0.0
H507 H 0.48185 0.77431 0.53486 0.0
H508 H 0.55372 0.82839 0.35308 0.0
H509 H 0.51358 0.83814 0.42881 0.0
H510 H 0.54601 0.79318 0.37567 0.0
H511 H 0.52198 0.87265 0.40539 0.0
H512 H 0.50519 0.8765 0.49773 0.0
H513 H 0.57375 0.88433 0.47448 0.0
H514 H 0.4121 0.74562 0.38699 0.0
H515 H 0.45764 0.79255 0.34761 0.0
H516 H 0.59458 0.77115 0.44995 0.0
H517 H 0.55003 0.79441 0.50387 0.0
H518 H 0.62654 0.78079 0.4838 0.0
H519 H 0.58282 0.80359 0.53684 0.0
H520 H 0.53775 0.70069 0.42209 0.0
H521 H 0.50304 0.7284 0.36628 0.0
H522 H 0.53855 0.66258 0.3905 0.0
H523 H 0.50478 0.6899 0.33546 0.0
H524 H 0.501 0.66105 0.48126 0.0
H525 H 0.57393 0.69488 0.48826 0.0
H526 H 0.62219 0.81461 0.39806 0.0
H527 H 0.59763 0.73796 0.3563 0.0
Li528 Li 0.60545 0.33798 0.59221 0.0
Li529 Li 0.63038 0.31992 0.62599 0.0
Li530 Li 0.60273 0.28856 0.58883 0.0
Li531 Li 0.58451 0.31335 0.62378 0.0
C532 C 0.64591 0.31674 0.57068 0.0
N533 N 0.67642 0.31569 0.53492 0.0
C534 C 0.66972 0.3251 0.57759 0.0
C535 C 0.63759 0.30779 0.54563 0.0
C536 C 0.68487 0.32446 0.55922 0.0
C537 C 0.65331 0.30739 0.52782 0.0
C538 C 0.61088 0.3673 0.64742 0.0
C539 C 0.60503 0.38814 0.68825 0.0
N540 N 0.61222 0.41103 0.68191 0.0
C541 C 0.61828 0.391 0.64133 0.0
C542 C 0.60423 0.36578 0.67105 0.0
C543 C 0.61881 0.4129 0.65901 0.0
C544 C 0.57836 0.37034 0.57271 0.0
N545 N 0.60065 0.3679 0.57585 0.0
C546 C 0.61325 0.4073 0.5614 0.0
C547 C 0.61797 0.38595 0.56991 0.0
C548 C 0.59043 0.41053 0.55866 0.0
C549 C 0.57293 0.3912 0.56413 0.0
H550 H 0.56457 0.35637 0.57759 0.0
H551 H 0.63568 0.38438 0.57253 0.0
C552 C 0.66359 0.29707 0.64945 0.0
N553 N 0.66004 0.32031 0.6476 0.0
C554 C 0.68283 0.29456 0.66424 0.0
C555 C 0.69578 0.33989 0.67448 0.0
C556 C 0.67592 0.34159 0.65989 0.0
C557 C 0.69956 0.31607 0.67713 0.0
H558 H 0.65133 0.28016 0.63944 0.0
H559 H 0.67335 0.36005 0.6584 0.0
C560 C 0.55995 0.30005 0.56849 0.0
N561 N 0.52355 0.2852 0.53139 0.0
C562 C 0.53795 0.28832 0.57349 0.0
C563 C 0.56349 0.30417 0.54463 0.0
C564 C 0.51975 0.28099 0.55448 0.0
C565 C 0.54485 0.29649 0.52611 0.0
C566 C 0.59893 0.2706 0.63837 0.0
C567 C 0.58293 0.248 0.6275 0.0
C568 C 0.60847 0.27428 0.66292 0.0
C569 C 0.57707 0.22919 0.6413 0.0
C570 C 0.60212 0.25504 0.67611 0.0
N571 N 0.58671 0.23307 0.6651 0.0
C572 C 0.6154 0.24036 0.57753 0.0
C573 C 0.58181 0.24012 0.55246 0.0
C574 C 0.61232 0.21396 0.56908 0.0
N575 N 0.59998 0.25296 0.56968 0.0
C576 C 0.57817 0.21372 0.54343 0.0
C577 C 0.59323 0.20008 0.55215 0.0
H578 H 0.62947 0.25054 0.59157 0.0
H579 H 0.56938 0.25001 0.54663 0.0
C580 C 0.54153 0.32589 0.63776 0.0
N581 N 0.55672 0.3117 0.64249 0.0
C582 C 0.5209 0.3243 0.64928 0.0
C583 C 0.5317 0.2937 0.67056 0.0
C584 C 0.55208 0.29588 0.65872 0.0
C585 C 0.51573 0.30796 0.66593 0.0
H586 H 0.54526 0.33826 0.62473 0.0
H587 H 0.56402 0.28468 0.66248 0.0
O588 O 0.6309 0.31737 0.58845 0.0
O589 O 0.60987 0.34571 0.63017 0.0
O590 O 0.57779 0.30813 0.58706 0.0
O591 O 0.6051 0.28917 0.62515 0.0
H592 H 0.67639 0.33207 0.59694 0.0
H593 H 0.61921 0.30114 0.54003 0.0
H594 H 0.70333 0.33094 0.56427 0.0
H595 H 0.64715 0.30049 0.50835 0.0
H596 H 0.5999 0.3873 0.70661 0.0
H597 H 0.62362 0.39248 0.62317 0.0
H598 H 0.59843 0.34754 0.676 0.0
H599 H 0.62446 0.43138 0.65454 0.0
H600 H 0.62749 0.42164 0.55777 0.0
H601 H 0.55511 0.39266 0.56262 0.0
H602 H 0.68474 0.27575 0.66535 0.0
H603 H 0.70811 0.35715 0.6837 0.0
H604 H 0.53494 0.28502 0.59188 0.0
H605 H 0.5804 0.31338 0.54053 0.0
H606 H 0.5026 0.27201 0.5581 0.0
H607 H 0.5473 0.29961 0.50756 0.0
H608 H 0.57502 0.24503 0.60869 0.0
H609 H 0.62051 0.29188 0.67176 0.0
H610 H 0.56479 0.21155 0.63311 0.0
H611 H 0.60939 0.25761 0.69512 0.0
H612 H 0.62409 0.20428 0.57671 0.0
H613 H 0.56298 0.20378 0.53073 0.0
H614 H 0.50905 0.33562 0.64514 0.0
H615 H 0.52838 0.28086 0.68324 0.0
Li616 Li 0.02883 0.29737 0.95853 0.0
Li617 Li 1.00101 0.26727 0.92146 0.0
Li618 Li 0.0262 0.2478 0.95411 0.0
Li619 Li 0.04598 0.27156 0.9224 0.0
C620 C 0.98621 0.2732 0.97656 0.0
N621 N 0.95598 0.2814 0.01159 0.0
C622 C 0.96584 0.2801 0.97008 0.0
C623 C 0.99123 0.27043 1.00081 0.0
C624 C 0.95077 0.28416 0.98807 0.0
C625 C 0.97573 0.27471 0.01827 0.0
C626 C 0.03134 0.31352 0.90643 0.0
C627 C 0.03902 0.32113 0.86577 0.0
N628 N 0.04015 0.34621 0.87411 0.0
C629 C 0.03264 0.33937 0.91462 0.0
C630 C 0.03447 0.30426 0.8818 0.0
C631 C 0.03703 0.35558 0.89798 0.0
C632 C 0.05376 0.34812 0.98655 0.0
N633 N 0.03229 0.33287 0.97835 0.0
C634 C 0.01577 0.36943 0.98741 0.0
C635 C 0.01339 0.34308 0.97936 0.0
C636 C 0.0378 0.38575 0.9948 0.0
C637 C 0.05686 0.37455 0.99498 0.0
H638 H 0.06873 0.34008 0.98516 0.0
H639 H 0.99651 0.33106 0.97224 0.0
C640 C 0.95277 0.2472 0.89341 0.0
N641 N 0.97125 0.26758 0.90046 0.0
C642 C 0.93266 0.24887 0.87928 0.0
C643 C 0.95044 0.29234 0.87956 0.0
C644 C 0.97004 0.28995 0.89384 0.0
C645 C 0.93121 0.2717 0.87195 0.0
H646 H 0.95349 0.2295 0.89873 0.0
H647 H 0.98433 0.30629 0.8997 0.0
C648 C 0.07139 0.28061 0.97716 0.0
N649 N 0.10714 0.28668 0.01362 0.0
C650 C 0.09256 0.27586 0.97072 0.0
C651 C 0.06837 0.28849 1.00211 0.0
C652 C 0.11042 0.27898 0.98944 0.0
C653 C 0.08668 0.29146 0.02028 0.0
C654 C 0.01991 0.22008 0.89724 0.0
C655 C 0.02802 0.19939 0.902 0.0
C656 C 0.01136 0.22011 0.87311 0.0
C657 C 0.02755 0.17904 0.88248 0.0
C658 C 0.01124 0.19941 0.85406 0.0
N659 N 0.01925 0.17947 0.8591 0.0
C660 C 0.01396 0.20198 0.97943 0.0
C661 C 0.0525 0.21275 0.97026 0.0
C662 C 0.01824 0.18078 0.98856 0.0
N663 N 0.03096 0.21766 0.97023 0.0
C664 C 0.05745 0.1918 0.9791 0.0
C665 C 0.04026 0.17516 0.98838 0.0
H666 H 0.99683 0.20553 0.97937 0.0
H667 H 0.06596 0.22471 0.96267 0.0
C668 C 0.08944 0.29595 0.90742 0.0
N669 N 0.07307 0.27363 0.90264 0.0
C670 C 0.10927 0.29882 0.89459 0.0
C671 C 0.09546 0.25569 0.87204 0.0
C672 C 0.07593 0.25358 0.8854 0.0
C673 C 0.11249 0.27856 0.87654 0.0
H674 H 0.0871 0.31166 0.92125 0.0
H675 H 0.0631 0.23584 0.88185 0.0
O676 O 1.0007 0.26819 0.95897 0.0
O677 O 0.02695 0.29734 0.92243 0.0
O678 O 0.05382 0.27795 0.95907 0.0
O679 O 0.0197 0.23988 0.91622 0.0
H680 H 0.96164 0.28213 0.95132 0.0
H681 H 0.00686 0.26488 0.00601 0.0
H682 H 0.93489 0.28943 0.98332 0.0
H683 H 0.97935 0.27261 0.03712 0.0
H684 H 0.04161 0.31427 0.84668 0.0
H685 H 0.03009 0.34684 0.93352 0.0
H686 H 0.03349 0.28429 0.87518 0.0
H687 H 0.03795 0.3756 0.90404 0.0
H688 H 1.00062 0.37717 0.98661 0.0
H689 H 0.07419 0.38635 1.00015 0.0
H690 H 0.9184 0.23233 0.87388 0.0
H691 H 0.95034 0.3103 0.87445 0.0
H692 H 0.09514 0.26974 0.95146 0.0
H693 H 0.05209 0.29236 0.00734 0.0
H694 H 0.12689 0.27532 0.98474 0.0
H695 H 0.08464 0.29761 0.03967 0.0
H696 H 0.03454 0.19897 0.92056 0.0
H697 H 1.00489 0.23594 0.86918 0.0
H698 H 0.03374 0.16289 0.88592 0.0
H699 H 1.00471 0.19915 0.83527 0.0
H700 H 1.00427 0.16857 0.99531 0.0
H701 H 0.07462 0.1884 0.97831 0.0
H702 H 0.12189 0.31682 0.89853 0.0
H703 H 0.09721 0.23964 0.85823 0.0
Li704 Li 0.43369 0.04067 0.33299 0.0
Li705 Li 0.39961 0.01796 0.30692 0.0
Li706 Li 0.4333 0.03882 0.28913 0.0
Li707 Li 0.40843 0.0626 0.31366 0.0
C708 C 0.445 0.995 0.30725 0.0
N709 N 0.47456 0.9629 0.30774 0.0
C710 C 0.43654 0.96998 0.3097 0.0
C711 C 0.4685 1.00367 0.30507 0.0
C712 C 0.45176 0.95404 0.30988 0.0
C713 C 0.48317 0.98717 0.30539 0.0
C714 C 0.38711 0.03711 0.35601 0.0
C715 C 0.35122 0.03919 0.37337 0.0
N716 N 0.35762 0.0281 0.39182 0.0
C717 C 0.39331 0.02568 0.37511 0.0
C718 C 0.3659 0.04395 0.35511 0.0
C719 C 0.37818 0.02131 0.39305 0.0
C720 C 0.46581 0.06652 0.37048 0.0
N721 N 0.45308 0.04295 0.35998 0.0
C722 C 0.47386 0.02393 0.3857 0.0
C723 C 0.45625 0.02181 0.36738 0.0
C724 C 0.48822 0.04791 0.39559 0.0
C725 C 0.48424 0.06943 0.38797 0.0
H726 H 0.46204 0.08293 0.36472 0.0
H727 H 0.44535 1.00345 0.35884 0.0
C728 C 0.38089 0.97167 0.28127 0.0
N729 N 0.3771 0.9882 0.30121 0.0
C730 C 0.36869 0.94668 0.27656 0.0
C731 C 0.34807 0.95644 0.31239 0.0
C732 C 0.3607 0.98143 0.31638 0.0
C733 C 0.35274 0.9389 0.29273 0.0
H734 H 0.39434 0.97772 0.26988 0.0
H735 H 0.35803 0.99484 0.33212 0.0
C736 C 0.46162 0.08799 0.3169 0.0
N737 N 0.50058 0.12644 0.31876 0.0
C738 C 0.45944 0.11216 0.31467 0.0
C739 C 0.48365 0.08339 0.3201 0.0
C740 C 0.47934 0.13133 0.31562 0.0
C741 C 0.50312 0.10308 0.32101 0.0
C742 C 0.38479 0.02607 0.26141 0.0
C743 C 0.3919 0.01992 0.23778 0.0
C744 C 0.36129 0.01982 0.26461 0.0
C745 C 0.37543 1.00715 0.2178 0.0
C746 C 0.34535 1.00681 0.24418 0.0
N747 N 0.35269 1.00084 0.2214 0.0
C748 C 0.45122 0.01414 0.24955 0.0
C749 C 0.4646 0.05902 0.25816 0.0
C750 C 0.46445 0.01193 0.22972 0.0
N751 N 0.45153 0.03744 0.26314 0.0
C752 C 0.47867 0.05765 0.23903 0.0
C753 C 0.47818 0.03393 0.22441 0.0
H754 H 0.44038 0.9974 0.25389 0.0
H755 H 0.46387 0.0773 0.26868 0.0
C756 C 0.38833 0.10101 0.3368 0.0
N757 N 0.39601 0.08979 0.31586 0.0
C758 C 0.37484 0.11839 0.33531 0.0
C759 C 0.37916 0.11298 0.2912 0.0
C760 C 0.39228 0.09573 0.29351 0.0
C761 C 0.36988 0.12386 0.31211 0.0
H762 H 0.39173 0.09555 0.35422 0.0
H763 H 0.39871 0.08621 0.27736 0.0
O764 O 0.43014 0.0106 0.30632 0.0
O765 O 0.40203 0.0423 0.33875 0.0
O766 O 0.44223 0.06914 0.31627 0.0
O767 O 0.40071 0.03917 0.28101 0.0
H768 H 0.41841 0.96291 0.31146 0.0
H769 H 0.4753 0.02281 0.30285 0.0
H770 H 0.44543 0.93463 0.3117 0.0
H771 H 0.50138 0.99363 0.30364 0.0
H772 H 0.33472 0.0443 0.37286 0.0
H773 H 0.40965 0.02032 0.37614 0.0
H774 H 0.3607 0.05255 0.3403 0.0
H775 H 0.38279 0.01255 0.40798 0.0
H776 H 0.47655 1.00716 0.39178 0.0
H777 H 0.49499 0.08815 0.39581 0.0
H778 H 0.37246 0.93324 0.26123 0.0
H779 H 0.33568 0.95072 0.32498 0.0
H780 H 0.44255 0.11608 0.31226 0.0
H781 H 0.48571 0.06493 0.32215 0.0
H782 H 0.47789 0.15012 0.3139 0.0
H783 H 0.52025 0.09981 0.32357 0.0
H784 H 0.40988 0.02536 0.23475 0.0
H785 H 0.35546 0.02477 0.28271 0.0
H786 H 0.38072 1.00238 0.19941 0.0
H787 H 0.32714 1.00157 0.24642 0.0
H788 H 0.46387 0.9934 0.21852 0.0
H789 H 0.48911 0.07485 0.23503 0.0
H790 H 0.36772 0.12668 0.3516 0.0
H791 H 0.37543 0.11703 0.27311 0.0
Li792 Li 0.30409 0.21821 0.5365 0.0
Li793 Li 0.3199 0.18338 0.51043 0.0
Li794 Li 0.30402 0.21381 0.489 0.0
Li795 Li 0.27574 0.17974 0.50581 0.0
C796 C 0.34999 0.24042 0.51935 0.0
N797 N 0.38962 0.27872 0.52439 0.0
C798 C 0.37109 0.2371 0.52892 0.0
C799 C 0.34897 0.26335 0.51268 0.0
C800 C 0.39095 0.25665 0.53121 0.0
C801 C 0.36922 0.28247 0.51532 0.0
C802 C 0.29779 0.1652 0.55188 0.0
C803 C 0.28453 0.12495 0.56352 0.0
N804 N 0.29914 0.13351 0.58482 0.0
C805 C 0.31276 0.17356 0.5738 0.0
C806 C 0.28356 0.1407 0.54663 0.0
C807 C 0.31314 0.15728 0.59027 0.0
C808 C 0.28655 0.24247 0.58004 0.0
N809 N 0.30634 0.23822 0.57073 0.0
C810 C 0.32687 0.25282 0.61173 0.0
C811 C 0.32649 0.24398 0.58598 0.0
C812 C 0.30639 0.256 0.62198 0.0
C813 C 0.28624 0.2516 0.60561 0.0
H814 H 0.27064 0.2375 0.5678 0.0
H815 H 0.34201 0.24023 0.57842 0.0
C816 C 0.36352 0.17364 0.49876 0.0
N817 N 0.34445 0.16535 0.51013 0.0
C818 C 0.38262 0.16279 0.50001 0.0
C819 C 0.36169 0.13415 0.52345 0.0
C820 C 0.34313 0.14566 0.52194 0.0
C821 C 0.38182 0.14291 0.51266 0.0
H822 H 0.36414 0.18916 0.48925 0.0
H823 H 0.32782 0.13898 0.5305 0.0
C824 C 0.26571 0.2346 0.50719 0.0
N825 N 0.24012 0.26935 0.5009 0.0
C826 C 0.24329 0.22634 0.49508 0.0
C827 C 0.27517 0.26048 0.51611 0.0
C828 C 0.23062 0.24422 0.49208 0.0
C829 C 0.26193 0.27777 0.51273 0.0
C830 C 0.29628 0.15871 0.45841 0.0
C831 C 0.28983 0.1643 0.4357 0.0
C832 C 0.30178 0.13549 0.45886 0.0
C833 C 0.28925 0.14666 0.41375 0.0
C834 C 0.30092 0.1183 0.4365 0.0
N835 N 0.29476 0.12421 0.4146 0.0
C836 C 0.32992 0.23213 0.45105 0.0
C837 C 0.29088 0.23484 0.44684 0.0
C838 C 0.33374 0.24038 0.42871 0.0
N839 N 0.30876 0.22951 0.45977 0.0
C840 C 0.29388 0.24281 0.42423 0.0
C841 C 0.31552 0.2456 0.4148 0.0
H842 H 0.34382 0.22734 0.46123 0.0
H843 H 0.27407 0.23218 0.45365 0.0
C844 C 0.23041 0.16272 0.52014 0.0
N845 N 0.24455 0.15714 0.50242 0.0
C846 C 0.20823 0.14708 0.51957 0.0
C847 C 0.21526 0.12002 0.48251 0.0
C848 C 0.23731 0.13626 0.48371 0.0
C849 C 0.2004 0.12531 0.50065 0.0
H850 H 0.23646 0.17928 0.53494 0.0
H851 H 0.24874 0.13199 0.46983 0.0
O852 O 0.33065 0.22091 0.51552 0.0
O853 O 0.29692 0.1809 0.53565 0.0
O854 O 0.27803 0.2173 0.51094 0.0
O855 O 0.29771 0.1761 0.48002 0.0
H856 H 0.37216 0.21958 0.53442 0.0
H857 H 0.33278 0.26622 0.50522 0.0
H858 H 0.40743 0.25424 0.53837 0.0
H859 H 0.36874 0.30024 0.51003 0.0
H860 H 0.27366 0.10592 0.55968 0.0
H861 H 0.32407 0.19232 0.578 0.0
H862 H 0.27201 0.13388 0.52964 0.0
H863 H 0.3246 0.16352 0.60735 0.0
H864 H 0.34277 0.25598 0.62367 0.0
H865 H 0.27011 0.2538 0.61275 0.0
H866 H 0.39792 0.16999 0.49148 0.0
H867 H 0.36054 0.11884 0.53336 0.0
H868 H 0.23574 0.20632 0.48819 0.0
H869 H 0.29247 0.26709 0.52568 0.0
H870 H 0.21322 0.23812 0.4828 0.0
H871 H 0.26897 0.29787 0.51958 0.0
H872 H 0.28529 0.18204 0.43497 0.0
H873 H 0.30672 0.13083 0.47629 0.0
H874 H 0.28441 0.15082 0.39604 0.0
H875 H 0.30519 0.10027 0.43656 0.0
H876 H 0.35071 0.24246 0.42221 0.0
H877 H 0.27942 0.24679 0.41417 0.0
H878 H 0.1974 0.15173 0.534 0.0
H879 H 0.20992 0.10337 0.46768 0.0
Li880 Li 0.20093 0.04194 0.77334 0.0
Li881 Li 0.166 0.01295 0.7947 0.0
Li882 Li 0.19746 0.98809 0.76736 0.0
Li883 Li 0.16466 0.01037 0.74241 0.0
C884 C 0.21678 0.02362 0.81995 0.0
N885 N 0.24622 0.03357 0.86303 0.0
C886 C 0.21032 0.03506 0.84242 0.0
C887 C 0.23819 0.01728 0.81931 0.0
C888 C 0.22544 0.03988 0.86403 0.0
C889 C 0.25286 0.02251 0.84131 0.0
C890 C 0.15119 0.05497 0.77409 0.0
C891 C 0.11259 0.06096 0.76781 0.0
N892 N 0.12065 0.08616 0.77757 0.0
C893 C 0.15912 0.08091 0.78403 0.0
C894 C 0.12777 0.04487 0.76589 0.0
C895 C 0.14339 0.09637 0.78563 0.0
C896 C 0.22009 0.09028 0.75458 0.0
N897 N 0.22148 0.07965 0.77504 0.0
C898 C 0.24733 0.11996 0.7966 0.0
C899 C 0.235 0.09442 0.79589 0.0
C900 C 0.24618 0.13141 0.77576 0.0
C901 C 0.23214 0.11569 0.75455 0.0
H902 H 0.20931 0.07913 0.73801 0.0
H903 H 0.23619 0.08661 0.81236 0.0
C904 C 0.14841 0.99819 0.84478 0.0
N905 N 0.14713 0.0143 0.82876 0.0
C906 C 0.13764 0.99987 0.8676 0.0
C907 C 0.12338 0.03431 0.85812 0.0
C908 C 0.13444 0.03208 0.83551 0.0
C909 C 0.12488 0.01836 0.87531 0.0
H910 H 0.15824 0.98396 0.84028 0.0
H911 H 0.133 0.0452 0.82355 0.0
C912 C 0.21245 0.01209 0.72245 0.0
N913 N 0.23748 0.00875 0.6819 0.0
C914 C 0.20139 0.9997 0.69891 0.0
C915 C 0.23623 0.02272 0.72543 0.0
C916 C 0.21434 0.99828 0.67861 0.0
C917 C 0.24859 0.0208 0.70468 0.0
C918 C 0.14299 0.96031 0.76034 0.0
C919 C 0.14731 0.93639 0.75227 0.0
C920 C 0.12059 0.96243 0.76475 0.0
C921 C 0.12904 0.91488 0.74866 0.0
C922 C 0.10279 0.94045 0.76093 0.0
N923 N 0.10735 0.91734 0.75304 0.0
C924 C 0.21831 0.94412 0.78609 0.0
C925 C 0.22877 0.94793 0.74673 0.0
C926 C 0.23063 0.92424 0.78636 0.0
N927 N 0.21717 0.95622 0.76646 0.0
C928 C 0.24122 0.92803 0.74629 0.0
C929 C 0.24268 0.91518 0.76627 0.0
H930 H 0.20962 0.94979 0.80214 0.0
H931 H 0.22863 0.95675 0.73081 0.0
C932 C 0.15032 0.03714 0.70117 0.0
N933 N 0.14583 0.01374 0.70749 0.0
C934 C 0.14002 0.04161 0.67871 0.0
C935 C 0.11962 0.99825 0.66844 0.0
C936 C 0.13039 0.99449 0.69115 0.0
C937 C 0.12426 0.02217 0.66135 0.0
H938 H 0.16234 0.05278 0.71351 0.0
H939 H 0.12638 0.97575 0.69534 0.0
O940 O 0.2019 0.01785 0.79879 0.0
O941 O 0.16626 0.03949 0.7724 0.0
O942 O 0.20006 0.01355 0.7425 0.0
O943 O 0.16072 0.98151 0.76428 0.0
H944 H 0.19377 0.04003 0.84319 0.0
H945 H 0.24333 0.00829 0.80202 0.0
H946 H 0.22063 0.0486 0.88161 0.0
H947 H 0.26949 0.01769 0.84113 0.0
H948 H 0.09441 0.05343 0.76155 0.0
H949 H 0.17721 0.08898 0.79047 0.0
H950 H 0.12141 0.02481 0.75811 0.0
H951 H 0.14925 0.11648 0.7933 0.0
H952 H 0.2577 0.13079 0.81356 0.0
H953 H 0.23029 0.12308 0.7379 0.0
H954 H 0.13977 0.98687 0.87949 0.0
H955 H 0.11402 0.04902 0.86238 0.0
H956 H 0.18301 0.99122 0.69636 0.0
H957 H 0.24501 0.03228 0.74359 0.0
H958 H 0.20601 0.9888 0.66027 0.0
H959 H 0.26702 0.02889 0.70669 0.0
H960 H 0.1646 0.93447 0.74887 0.0
H961 H 0.11703 0.98083 0.77115 0.0
H962 H 0.13211 0.89623 0.74242 0.0
H963 H 0.08536 0.94176 0.7643 0.0
H964 H 0.23063 0.91588 0.8026 0.0
H965 H 0.24991 0.92285 0.7301 0.0
H966 H 0.1447 0.06045 0.67481 0.0
H967 H 0.10796 0.9822 0.65621 0.0
Li968 Li 0.3179 0.9549 0.00986 0.0
Li969 Li 0.33458 0.92845 0.03338 0.0
Li970 Li 0.35813 0.96113 0.01665 0.0
Li971 Li 0.33774 0.92275 0.98979 0.0
C972 C 0.34828 0.9841 0.0612 0.0
N973 N 0.37202 0.02277 0.09948 0.0
C974 C 0.35446 0.97886 0.08417 0.0
C975 C 0.35387 0.00907 0.05781 0.0
C976 C 0.36653 0.99864 0.10326 0.0
C977 C 0.366 0.02834 0.07737 0.0
C978 C 0.29249 0.89795 0.01064 0.0
C979 C 0.2794 0.85389 0.01251 0.0
N980 N 0.2583 0.8579 0.01756 0.0
C981 C 0.27072 0.90166 0.01591 0.0
C982 C 0.29693 0.87392 0.00903 0.0
C983 C 0.25366 0.88116 0.01937 0.0
C984 C 0.28275 0.97117 0.9861 0.0
N985 N 0.29421 0.97049 0.00789 0.0
C986 C 0.27121 0.9939 0.03145 0.0
C987 C 0.28894 0.98146 0.03026 0.0
C988 C 0.25894 0.99477 0.00939 0.0
C989 C 0.26468 0.98345 0.98642 0.0
H990 H 0.2876 0.96214 0.96869 0.0
H991 H 0.29839 0.98031 0.04717 0.0
C992 C 0.35412 0.90941 0.06827 0.0
N993 N 0.33332 0.9125 0.05978 0.0
C994 C 0.3557 0.89717 0.08771 0.0
C995 C 0.31462 0.89302 0.09048 0.0
C996 C 0.31378 0.90516 0.07062 0.0
C997 C 0.33576 0.88865 0.0987 0.0
H998 H 0.36951 0.91657 0.05999 0.0
H999 H 0.29769 0.90874 0.06388 0.0
C1000 C 0.3454 0.97405 0.96942 0.0
N1001 N 0.35672 1.0076 0.93826 0.0
C1002 C 0.35574 0.96708 0.9479 0.0
C1003 C 0.34067 0.99806 0.97502 0.0
C1004 C 0.3614 0.98432 0.93243 0.0
C1005 C 0.34655 0.01475 0.95902 0.0
C1006 C 0.37556 0.91052 0.00916 0.0
C1007 C 0.39642 0.91903 0.99973 0.0
C1008 C 0.36874 0.88516 0.01112 0.0
C1009 C 0.41003 0.90194 0.99213 0.0
C1010 C 0.38286 0.86868 1.00345 0.0
N1011 N 0.40303 0.87733 0.99417 0.0
C1012 C 0.39923 0.97894 0.04316 0.0
C1013 C 0.39656 0.99577 0.00672 0.0
C1014 C 0.42309 0.98703 0.04586 0.0
N1015 N 0.38673 0.98274 0.0234 0.0
C1016 C 0.42037 1.00365 0.00835 0.0
C1017 C 0.43361 0.9981 0.02742 0.0
H1018 H 0.39082 0.96764 0.0555 0.0
H1019 H 0.38633 0.9983 0.99111 0.0
C1020 C 0.31833 0.881 0.95375 0.0
N1021 N 0.33826 0.89878 0.9619 0.0
C1022 C 0.31746 0.86215 0.93308 0.0
C1023 C 0.3576 0.8807 0.9292 0.0
C1024 C 0.35772 0.89911 0.95018 0.0
C1025 C 0.33714 0.86238 0.92045 0.0
H1026 H 0.30287 0.88208 0.96263 0.0
H1027 H 0.37294 0.91424 0.95643 0.0
O1028 O 0.33624 0.96497 0.04237 0.0
O1029 O 0.30897 0.9175 0.00593 0.0
O1030 O 0.33968 0.95725 0.98464 0.0
O1031 O 0.36205 0.92706 0.0167 0.0
H1032 H 0.34993 0.95977 0.08734 0.0
H1033 H 0.34902 0.01346 0.04021 0.0
H1034 H 0.37146 0.99483 0.1211 0.0
H1035 H 0.37059 0.04773 0.07497 0.0
H1036 H 0.28252 0.83515 0.01106 0.0
H1037 H 0.26699 0.92013 0.01706 0.0
H1038 H 0.31359 0.87066 1.00466 0.0
H1039 H 0.23669 0.88372 0.02337 0.0
H1040 H 0.26689 1.00249 0.04937 0.0
H1041 H 0.25521 0.98393 0.96922 0.0
H1042 H 0.37228 0.89429 0.09409 0.0
H1043 H 0.29908 0.88679 0.09905 0.0
H1044 H 0.35941 0.94858 0.94318 0.0
H1045 H 0.33269 1.00378 0.9916 0.0
H1046 H 0.36949 0.97918 0.91578 0.0
H1047 H 0.34305 0.0334 0.96312 0.0
H1048 H 0.40163 0.93846 0.99761 0.0
H1049 H 0.35278 0.87827 0.0186 0.0
H1050 H 0.42606 0.90816 0.98445 0.0
H1051 H 0.37778 0.84901 0.00487 0.0
H1052 H 0.43324 0.98296 0.06087 0.0
H1053 H 0.42843 0.01268 0.9942 0.0
H1054 H 0.30118 0.84876 0.92585 0.0
H1055 H 0.37264 0.88174 0.91899 0.0
Li1056 Li 0.30798 0.40004 0.03625 0.0
Li1057 Li 0.32413 0.36937 0.05642 0.0
Li1058 Li 0.3521 0.40572 0.04008 0.0
Li1059 Li 0.32554 0.36677 0.00916 0.0
C1060 C 0.32998 0.42577 0.08682 0.0
N1061 N 0.32936 0.4631 0.12775 0.0
C1062 C 0.32075 0.41928 0.10809 0.0
C1063 C 0.33899 0.45124 0.0864 0.0
C1064 C 0.32058 0.43842 0.12858 0.0
C1065 C 0.33846 0.46985 0.10727 0.0
C1066 C 0.27861 0.3445 0.03041 0.0
C1067 C 0.25723 0.30091 0.02346 0.0
N1068 N 0.2389 0.30868 0.03311 0.0
C1069 C 0.25952 0.35207 0.04015 0.0
C1070 C 0.27747 0.31874 0.02191 0.0
C1071 C 0.23962 0.33366 0.04141 0.0
C1072 C 0.27017 0.41465 0.01361 0.0
N1073 N 0.28287 0.41776 0.03581 0.0
C1074 C 0.26013 0.44532 0.05544 0.0
C1075 C 0.2779 0.43246 0.05665 0.0
C1076 C 0.24719 0.44284 0.03264 0.0
C1077 C 0.25224 0.42709 0.0116 0.0
H1078 H 0.27418 0.4027 0.99732 0.0
H1079 H 0.28772 0.43441 0.07425 0.0
C1080 C 0.3377 0.34601 0.09714 0.0
N1081 N 0.31972 0.3519 0.08489 0.0
C1082 C 0.33511 0.33765 0.11969 0.0
C1083 C 0.29546 0.34086 0.11647 0.0
C1084 C 0.2987 0.34883 0.09394 0.0
C1085 C 0.31392 0.33575 0.13006 0.0
H1086 H 0.35439 0.34878 0.09 0.0
H1087 H 0.28471 0.35409 0.08451 0.0
C1088 C 0.32762 0.42008 0.9952 0.0
N1089 N 0.3221 0.45261 0.96416 0.0
C1090 C 0.32779 0.41245 0.96958 0.0
C1091 C 0.32457 0.44422 0.00505 0.0
C1092 C 0.32505 0.42919 0.9542 0.0
C1093 C 0.32176 0.46037 0.98904 0.0
C1094 C 0.3638 0.3503 0.03182 0.0
C1095 C 0.38669 0.35701 0.02651 0.0
C1096 C 0.35413 0.32542 0.03383 0.0
C1097 C 0.39968 0.33869 0.0235 0.0
C1098 C 0.36769 0.30763 0.03066 0.0
N1099 N 0.39 0.31459 0.02564 0.0
C1100 C 0.40145 0.42632 0.05736 0.0
C1101 C 0.38553 0.44905 0.03136 0.0
C1102 C 0.4237 0.44196 0.05777 0.0
N1103 N 0.38288 0.42975 0.0439 0.0
C1104 C 0.40732 0.46525 0.03152 0.0
C1105 C 0.42696 0.46157 0.0444 0.0
H1106 H 0.39918 0.41094 0.06724 0.0
H1107 H 0.37082 0.45162 0.02069 0.0
C1108 C 0.30327 0.33589 0.96126 0.0
N1109 N 0.32412 0.34709 0.97478 0.0
C1110 C 0.30193 0.32575 0.93563 0.0
C1111 C 0.34348 0.3383 0.93806 0.0
C1112 C 0.34407 0.34796 0.9637 0.0
C1113 C 0.32219 0.32736 0.92355 0.0
H1114 H 0.28755 0.33576 0.97013 0.0
H1115 H 0.36046 0.35733 0.9745 0.0
O1116 O 0.33061 0.40724 0.06673 0.0
O1117 O 0.2981 0.36228 0.02868 0.0
O1118 O 0.33039 0.40394 0.01053 0.0
O1119 O 0.3512 0.36827 0.03589 0.0
H1120 H 0.31383 0.39973 0.10885 0.0
H1121 H 0.34628 0.45656 0.07011 0.0
H1122 H 0.3135 0.43364 0.14515 0.0
H1123 H 0.34534 0.48965 0.10721 0.0
H1124 H 0.25609 0.2809 0.01696 0.0
H1125 H 0.2601 0.37193 0.04679 0.0
H1126 H 0.29205 0.31261 0.01416 0.0
H1127 H 0.22476 0.33924 0.04899 0.0
H1128 H 0.25672 0.45734 0.07205 0.0
H1129 H 0.24265 0.42481 0.99369 0.0
H1130 H 0.34979 0.33385 0.12951 0.0
H1131 H 0.27885 0.33967 0.12374 0.0
H1132 H 0.33015 0.39387 0.96161 0.0
H1133 H 0.32438 0.45041 0.02486 0.0
H1134 H 0.32527 0.42357 0.93434 0.0
H1135 H 0.31934 0.4791 0.99639 0.0
H1136 H 0.39437 0.3762 0.02485 0.0
H1137 H 0.33644 0.32 0.03803 0.0
H1138 H 0.41747 0.34364 0.01952 0.0
H1139 H 0.36051 0.28831 0.03228 0.0
H1140 H 0.4383 0.43839 0.06795 0.0
H1141 H 0.40896 0.48008 0.02095 0.0
H1142 H 0.28515 0.31771 0.92511 0.0
H1143 H 0.35948 0.34011 0.92948 0.0
Li1144 Li 0.7902 0.15979 0.05891 0.0
Li1145 Li 0.81477 0.13399 0.03693 0.0
Li1146 Li 0.79075 0.15601 0.01461 0.0
Li1147 Li 0.77404 0.1198 0.0312 0.0
C1148 C 0.8332 0.19249 0.04725 0.0
N1149 N 0.8675 0.23678 0.05881 0.0
C1150 C 0.85547 0.19213 0.05632 0.0
C1151 C 0.82834 0.21538 0.04408 0.0
C1152 C 0.87259 0.21471 0.06201 0.0
C1153 C 0.8459 0.23758 0.0501 0.0
C1154 C 0.78395 0.10963 0.07641 0.0
C1155 C 0.76999 0.06682 0.08187 0.0
N1156 N 0.76222 0.07593 0.10366 0.0
C1157 C 0.7759 0.11858 0.09889 0.0
C1158 C 0.78122 0.08357 0.06793 0.0
C1159 C 0.76499 0.10124 0.11241 0.0
C1160 C 0.76775 0.18805 0.09196 0.0
N1161 N 0.78835 0.18244 0.08741 0.0
C1162 C 0.80753 0.21211 0.12355 0.0
C1163 C 0.80803 0.1937 0.10272 0.0
C1164 C 0.78672 0.21918 0.12785 0.0
C1165 C 0.7667 0.20726 0.11172 0.0
H1166 H 0.75217 0.17777 0.08024 0.0
H1167 H 0.82401 0.18836 0.09869 0.0
C1168 C 0.85391 0.12688 0.01724 0.0
N1169 N 0.84163 0.12333 0.03662 0.0
C1170 C 0.86948 0.11208 0.01064 0.0
C1171 C 0.86181 0.09324 0.04608 0.0
C1172 C 0.84625 0.10833 0.05207 0.0
C1173 C 0.87091 0.09209 0.02288 0.0
H1174 H 0.8503 0.13979 0.00585 0.0
H1175 H 0.83681 0.10689 0.06811 0.0
C1176 C 0.7481 0.16591 0.03076 0.0
N1177 N 0.71619 0.1949 0.02685 0.0
C1178 C 0.72471 0.15424 0.0237 0.0
C1179 C 0.75525 0.19236 0.03554 0.0
C1180 C 0.70885 0.16919 0.0219 0.0
C1181 C 0.73886 0.20668 0.03353 0.0
C1182 C 0.78764 0.10531 0.98269 0.0
C1183 C 0.76953 0.1088 0.96745 0.0
C1184 C 0.79804 0.08526 0.97486 0.0
C1185 C 0.76215 0.09214 0.94454 0.0
C1186 C 0.79008 0.06893 0.95189 0.0
N1187 N 0.77247 0.0727 0.93732 0.0
C1188 C 0.81186 0.18513 0.98373 0.0
C1189 C 0.77077 0.17608 0.97831 0.0
C1190 C 0.81331 0.2001 0.96604 0.0
N1191 N 0.79084 0.17385 0.98962 0.0
C1192 C 0.77139 0.19072 0.96049 0.0
C1193 C 0.79284 0.20286 0.95444 0.0
H1194 H 0.82743 0.1826 0.99295 0.0
H1195 H 0.75432 0.16644 0.983 0.0
C1196 C 0.73378 0.09858 0.04339 0.0
N1197 N 0.74832 0.093 0.02635 0.0
C1198 C 0.71052 0.08726 0.0386 0.0
C1199 C 0.71781 0.0632 0.9995 0.0
C1200 C 0.74128 0.07452 0.00549 0.0
C1201 C 0.70238 0.07089 0.01572 0.0
H1202 H 0.73984 0.11389 0.05934 0.0
H1203 H 0.75331 0.07006 0.99253 0.0
O1204 O 0.81669 0.17027 0.0403 0.0
O1205 O 0.79497 0.12641 0.06316 0.0
O1206 O 0.76371 0.15143 0.03336 0.0
O1207 O 0.79524 0.12132 0.00518 0.0
H1208 H 0.85956 0.17456 0.05874 0.0
H1209 H 0.81136 0.21598 0.03663 0.0
H1210 H 0.88995 0.21466 0.06888 0.0
H1211 H 0.84242 0.25541 0.04764 0.0
H1212 H 0.76749 0.04658 0.0754 0.0
H1213 H 0.77815 0.1387 0.10591 0.0
H1214 H 0.78746 0.07637 0.05061 0.0
H1215 H 0.75875 0.1079 0.12988 0.0
H1216 H 0.82315 0.22091 0.13599 0.0
H1217 H 0.75036 0.21218 0.11494 0.0
H1218 H 0.87897 0.11532 0.99499 0.0
H1219 H 0.86565 0.0824 0.05938 0.0
H1220 H 0.71885 0.13384 0.01972 0.0
H1221 H 0.77318 0.20174 0.04118 0.0
H1222 H 0.6907 0.16037 0.0166 0.0
H1223 H 0.74417 0.22717 0.03741 0.0
H1224 H 0.76092 0.12381 0.97345 0.0
H1225 H 0.81202 0.08227 0.9865 0.0
H1226 H 0.74811 0.09456 0.93258 0.0
H1227 H 0.79789 0.05324 0.94566 0.0
H1228 H 0.83002 0.20928 0.96136 0.0
H1229 H 0.75538 0.19257 0.95147 0.0
H1230 H 0.69871 0.09319 0.05142 0.0
H1231 H 0.71168 0.05016 0.98189 0.0
Li1232 Li 0.22546 0.56661 0.23844 0.0
Li1233 Li 0.19446 0.54432 0.25891 0.0
Li1234 Li 0.21838 0.52144 0.23205 0.0
Li1235 Li 0.19054 0.54154 0.21519 0.0
C1236 C 0.24202 0.556 0.28517 0.0
N1237 N 0.27082 0.57651 0.32868 0.0
C1238 C 0.23624 0.57431 0.30331 0.0
C1239 C 0.26237 0.54808 0.28913 0.0
C1240 C 0.25102 0.5844 0.32523 0.0
C1241 C 0.27676 0.55875 0.31122 0.0
C1242 C 0.1811 0.58898 0.24023 0.0
C1243 C 0.14466 0.59916 0.23074 0.0
N1244 N 0.15482 0.62424 0.23875 0.0
C1245 C 0.19103 0.6148 0.24867 0.0
C1246 C 0.15758 0.58101 0.23157 0.0
C1247 C 0.17754 0.63237 0.2477 0.0
C1248 C 0.24156 0.61036 0.22372 0.0
N1249 N 0.24686 0.59663 0.24027 0.0
C1250 C 0.27597 0.63136 0.26277 0.0
C1251 C 0.26442 0.60606 0.25877 0.0
C1252 C 0.26929 0.64644 0.24734 0.0
C1253 C 0.25276 0.63572 0.22691 0.0
H1254 H 0.22744 0.60206 0.20923 0.0
H1255 H 0.26864 0.59455 0.27123 0.0
C1256 C 0.1818 0.52868 0.30205 0.0
N1257 N 0.17921 0.545 0.28711 0.0
C1258 C 0.17144 0.52984 0.32409 0.0
C1259 C 0.15563 0.56408 0.31424 0.0
C1260 C 0.16636 0.56237 0.29261 0.0
C1261 C 0.1584 0.54787 0.33021 0.0
H1262 H 0.19222 0.51514 0.29697 0.0
H1263 H 0.16471 0.57515 0.28049 0.0
C1264 C 0.23828 0.54854 0.19132 0.0
N1265 N 0.27125 0.56129 0.15984 0.0
C1266 C 0.23162 0.54765 0.16637 0.0
C1267 C 0.26172 0.55565 0.20021 0.0
C1268 C 0.24854 0.55413 0.15074 0.0
C1269 C 0.27812 0.56223 0.18403 0.0
C1270 C 0.16556 0.49496 0.23362 0.0
C1271 C 0.16595 0.46949 0.22594 0.0
C1272 C 0.14531 0.50135 0.24133 0.0
C1273 C 0.14602 0.45073 0.22609 0.0
C1274 C 0.12575 0.48201 0.2413 0.0
N1275 N 0.1265 0.45732 0.23372 0.0
C1276 C 0.22947 0.48323 0.24807 0.0
C1277 C 0.24662 0.4907 0.21142 0.0
C1278 C 0.24358 0.46725 0.25173 0.0
N1279 N 0.23189 0.49507 0.22871 0.0
C1280 C 0.26122 0.47478 0.21439 0.0
C1281 C 0.26024 0.46394 0.23537 0.0
H1282 H 0.21777 0.48778 0.26156 0.0
H1283 H 0.24812 0.50084 0.19644 0.0
C1284 C 0.17516 0.55951 0.17739 0.0
N1285 N 0.17087 0.5397 0.18902 0.0
C1286 C 0.16002 0.55984 0.15758 0.0
C1287 C 0.13661 0.51945 0.1627 0.0
C1288 C 0.15238 0.51974 0.18209 0.0
C1289 C 0.14062 0.53966 0.15051 0.0
H1290 H 0.19023 0.57495 0.1837 0.0
H1291 H 0.14982 0.50418 0.19154 0.0
O1292 O 0.22788 0.54574 0.26359 0.0
O1293 O 0.19434 0.57175 0.24132 0.0
O1294 O 0.22185 0.54186 0.20668 0.0
O1295 O 0.18482 0.51343 0.23291 0.0
H1296 H 0.22063 0.5808 0.30043 0.0
H1297 H 0.26706 0.53396 0.27518 0.0
H1298 H 0.2468 0.59855 0.33948 0.0
H1299 H 0.29265 0.55291 0.31448 0.0
H1300 H 0.12651 0.59328 0.22387 0.0
H1301 H 0.20892 0.62107 0.25625 0.0
H1302 H 0.14934 0.56107 0.22569 0.0
H1303 H 0.18511 0.65243 0.25417 0.0
H1304 H 0.28891 0.63944 0.27856 0.0
H1305 H 0.24752 0.64723 0.21477 0.0
H1306 H 0.17375 0.51718 0.33631 0.0
H1307 H 0.14563 0.57821 0.31875 0.0
H1308 H 0.21358 0.54167 0.15906 0.0
H1309 H 0.26717 0.55614 0.21941 0.0
H1310 H 0.24363 0.55339 0.13137 0.0
H1311 H 0.29632 0.56798 0.19068 0.0
H1312 H 0.18144 0.4643 0.21966 0.0
H1313 H 0.14464 0.521 0.247 0.0
H1314 H 0.14604 0.43094 0.22008 0.0
H1315 H 0.10994 0.48662 0.24719 0.0
H1316 H 0.24274 0.45909 0.26814 0.0
H1317 H 0.27414 0.47246 0.2017 0.0
H1318 H 0.16324 0.57547 0.14799 0.0
H1319 H 0.12165 0.50368 0.15708 0.0
Li1320 Li 0.80882 0.89999 0.53535 0.0
Li1321 Li 0.82468 0.86957 0.55625 0.0
Li1322 Li 0.85296 0.90494 0.53854 0.0
Li1323 Li 0.82579 0.86585 0.50877 0.0
C1324 C 0.82948 0.92595 0.58534 0.0
N1325 N 0.82667 0.9625 0.62611 0.0
C1326 C 0.81807 0.91902 0.6053 0.0
C1327 C 0.83948 0.95148 0.58612 0.0
C1328 C 0.81685 0.93776 0.62575 0.0
C1329 C 0.83782 0.96968 0.60688 0.0
C1330 C 0.77951 0.84352 0.52987 0.0
C1331 C 0.76016 0.79924 0.52301 0.0
N1332 N 0.74091 0.80576 0.53154 0.0
C1333 C 0.75949 0.84978 0.53844 0.0
C1334 C 0.77986 0.81805 0.522 0.0
C1335 C 0.74018 0.83043 0.53922 0.0
C1336 C 0.77778 0.92443 0.5131 0.0
N1337 N 0.78388 0.91784 0.53469 0.0
C1338 C 0.7532 0.93377 0.55355 0.0
C1339 C 0.77192 0.92224 0.55476 0.0
C1340 C 0.74714 0.94153 0.5317 0.0
C1341 C 0.75969 0.9366 0.51132 0.0
H1342 H 0.78675 0.92 0.49703 0.0
H1343 H 0.77658 0.91633 0.57158 0.0
C1344 C 0.8387 0.8476 0.59793 0.0
N1345 N 0.8204 0.85241 0.58515 0.0
C1346 C 0.83616 0.83911 0.62043 0.0
C1347 C 0.79594 0.83993 0.61615 0.0
C1348 C 0.79915 0.84809 0.59367 0.0
C1349 C 0.81466 0.83586 0.63025 0.0
H1350 H 0.85553 0.85125 0.59118 0.0
H1351 H 0.78483 0.85236 0.58378 0.0
C1352 C 0.83214 0.9201 0.49448 0.0
N1353 N 0.8342 0.95503 0.46441 0.0
C1354 C 0.82882 0.91199 0.46866 0.0
C1355 C 0.83645 0.94595 0.50503 0.0
C1356 C 0.82997 0.92995 0.45377 0.0
C1357 C 0.83741 0.96332 0.48949 0.0
C1358 C 0.86444 0.84998 0.53201 0.0
C1359 C 0.88757 0.85721 0.52767 0.0
C1360 C 0.85495 0.82499 0.5338 0.0
C1361 C 0.90091 0.83922 0.52519 0.0
C1362 C 0.86886 0.80756 0.53121 0.0
N1363 N 0.89137 0.81498 0.52702 0.0
C1364 C 0.89755 0.93741 0.563 0.0
C1365 C 0.89201 0.93463 0.51968 0.0
C1366 C 0.91978 0.95336 0.56428 0.0
N1367 N 0.88405 0.9283 0.54091 0.0
C1368 C 0.91406 0.95062 0.52016 0.0
C1369 C 0.92834 0.96019 0.54267 0.0
H1370 H 0.89116 0.93214 0.57969 0.0
H1371 H 0.88135 0.92705 0.50219 0.0
C1372 C 0.80332 0.83438 0.46117 0.0
N1373 N 0.82415 0.84604 0.47456 0.0
C1374 C 0.80196 0.8244 0.43551 0.0
C1375 C 0.84344 0.83811 0.43768 0.0
C1376 C 0.84405 0.84763 0.46332 0.0
C1377 C 0.82217 0.82665 0.42331 0.0
H1378 H 0.78762 0.8338 0.47015 0.0
H1379 H 0.86038 0.85745 0.47404 0.0
O1380 O 0.83184 0.90774 0.56573 0.0
O1381 O 0.79847 0.86224 0.52867 0.0
O1382 O 0.83094 0.90276 0.50932 0.0
O1383 O 0.85143 0.86757 0.53538 0.0
H1384 H 0.81034 0.89942 0.60513 0.0
H1385 H 0.84862 0.95713 0.57096 0.0
H1386 H 0.80816 0.93262 0.64136 0.0
H1387 H 0.84552 0.98952 0.60776 0.0
H1388 H 0.76017 0.77944 0.51697 0.0
H1389 H 0.75886 0.86936 0.54451 0.0
H1390 H 0.79515 0.8129 0.5151 0.0
H1391 H 0.72461 0.83502 0.5459 0.0
H1392 H 0.74369 0.93685 0.56954 0.0
H1393 H 0.75535 0.94194 0.49403 0.0
H1394 H 0.85106 0.83615 0.63062 0.0
H1395 H 0.77908 0.8377 0.62295 0.0
H1396 H 0.8253 0.89205 0.46018 0.0
H1397 H 0.83892 0.95248 0.52499 0.0
H1398 H 0.82747 0.92394 0.43376 0.0
H1399 H 0.84068 0.9834 0.49738 0.0
H1400 H 0.89515 0.87657 0.52641 0.0
H1401 H 0.83709 0.81922 0.53737 0.0
H1402 H 0.91887 0.84455 0.52192 0.0
H1403 H 0.86181 0.78815 0.53263 0.0
H1404 H 0.93028 0.96018 0.58199 0.0
H1405 H 0.92 0.95527 0.50306 0.0
H1406 H 0.7852 0.81597 0.42507 0.0
H1407 H 0.85937 0.84043 0.42898 0.0
Li1408 Li 0.96315 0.07482 0.30318 0.0
Li1409 Li 0.92657 0.04428 0.27267 0.0
Li1410 Li 0.96174 0.0728 0.25106 0.0
Li1411 Li 0.93082 0.09765 0.27685 0.0
C1412 C 0.97669 0.03105 0.27331 0.0
N1413 N 0.00824 1.0013 0.2741 0.0
C1414 C 0.96993 1.00681 0.27837 0.0
C1415 C 0.99945 0.04018 0.26861 0.0
C1416 C 0.98616 0.99206 0.27871 0.0
C1417 C 0.01515 0.02483 0.26909 0.0
C1418 C 0.91338 0.07144 0.32126 0.0
C1419 C 0.87774 0.07623 0.33788 0.0
N1420 N 0.8849 0.06936 0.35891 0.0
C1421 C 0.92035 0.06434 0.34298 0.0
C1422 C 0.89192 0.07745 0.31864 0.0
C1423 C 0.90574 0.06345 0.36183 0.0
C1424 C 0.99479 0.0915 0.35635 0.0
N1425 N 0.98232 0.07149 0.3383 0.0
C1426 C 0.99156 0.04343 0.36559 0.0
C1427 C 0.98103 0.04766 0.34308 0.0
C1428 C 1.00425 0.0636 0.38466 0.0
C1429 C 1.00564 0.08802 0.37916 0.0
H1430 H 0.99624 0.1106 0.3535 0.0
H1431 H 0.97121 0.03139 0.3296 0.0
C1432 C 0.90638 0.98731 0.25161 0.0
N1433 N 0.90524 1.00701 0.27047 0.0
C1434 C 0.89423 0.96179 0.25096 0.0
C1435 C 0.87907 0.97623 0.28876 0.0
C1436 C 0.89156 1.00149 0.2888 0.0
C1437 C 0.88032 0.95548 0.26982 0.0
H1438 H 0.91729 0.99113 0.23713 0.0
H1439 H 0.89059 0.0166 0.30403 0.0
C1440 C 0.98527 0.12437 0.28137 0.0
N1441 N 0.02095 0.16595 0.28179 0.0
C1442 C 0.98063 0.14598 0.27448 0.0
C1443 C 0.00802 0.12384 0.28845 0.0
C1444 C 0.99892 0.16683 0.27484 0.0
C1445 C 0.02584 0.14507 0.28852 0.0
C1446 C 0.91175 0.06524 0.22544 0.0
C1447 C 0.92061 0.07506 0.20549 0.0
C1448 C 0.88832 0.05338 0.22388 0.0
C1449 C 0.90581 0.0727 0.18414 0.0
C1450 C 0.87406 0.05149 0.20224 0.0
N1451 N 0.88304 0.06107 0.18297 0.0
C1452 C 0.9773 0.04872 0.20029 0.0
C1453 C 0.99519 0.09196 0.21185 0.0
C1454 C 0.98844 0.04664 0.1778 0.0
N1455 N 0.98052 0.07117 0.21735 0.0
C1456 C 0.00663 0.09064 0.18951 0.0
C1457 C 1.00357 0.06772 0.17157 0.0
H1458 H 0.96583 0.03196 0.20388 0.0
H1459 H 0.99815 0.11001 0.22474 0.0
C1460 C 0.91219 0.14884 0.29616 0.0
N1461 N 0.91152 0.12944 0.27605 0.0
C1462 C 0.90013 0.16887 0.2955 0.0
C1463 C 0.88603 0.15005 0.25357 0.0
C1464 C 0.8984 0.13041 0.25491 0.0
C1465 C 0.88637 0.17037 0.27397 0.0
H1466 H 0.92222 0.14915 0.31327 0.0
H1467 H 0.89723 0.11576 0.23849 0.0
O1468 O 0.96112 0.04579 0.27279 0.0
O1469 O 0.92784 0.0735 0.30306 0.0
O1470 O 0.96754 0.10401 0.28164 0.0
O1471 O 0.926 0.06713 0.24637 0.0
H1472 H 0.95238 0.99953 0.28213 0.0
H1473 H 1.0049 0.05891 0.26461 0.0
H1474 H 0.9812 0.97328 0.28265 0.0
H1475 H 0.03283 0.03162 0.26548 0.0
H1476 H 0.86109 0.08085 0.33614 0.0
H1477 H 0.93691 0.05973 0.34534 0.0
H1478 H 0.88636 0.08315 0.30198 0.0
H1479 H 0.91098 0.05813 0.3788 0.0
H1480 H 0.98937 0.02415 0.3682 0.0
H1481 H 0.01481 0.10462 0.39274 0.0
H1482 H 0.89614 0.9469 0.23592 0.0
H1483 H 0.86888 0.97287 0.30392 0.0
H1484 H 0.96307 0.14667 0.26905 0.0
H1485 H 0.01184 0.10725 0.29392 0.0
H1486 H 0.99559 0.18374 0.26965 0.0
H1487 H 0.04354 0.14498 0.29398 0.0
H1488 H 0.93871 0.0844 0.20649 0.0
H1489 H 0.88125 0.04572 0.23923 0.0
H1490 H 0.91243 0.08013 0.1685 0.0
H1491 H 0.85587 0.04237 0.20074 0.0
H1492 H 0.98508 0.02837 0.16519 0.0
H1493 H 0.01792 0.10772 0.18632 0.0
H1494 H 0.90169 0.18336 0.31214 0.0
H1495 H 0.87603 0.14916 0.23625 0.0
Li1496 Li 0.29065 0.66137 0.55154 0.0
Li1497 Li 0.31169 0.63099 0.53015 0.0
Li1498 Li 0.29072 0.65534 0.50722 0.0
Li1499 Li 0.27134 0.62153 0.52615 0.0
C1500 C 0.33486 0.68923 0.53676 0.0
N1501 N 0.37011 0.73267 0.54711 0.0
C1502 C 0.35743 0.68792 0.54357 0.0
C1503 C 0.3302 0.71259 0.53507 0.0
C1504 C 0.37503 0.7101 0.54871 0.0
C1505 C 0.34826 0.73436 0.54046 0.0
C1506 C 0.28355 0.61171 0.57215 0.0
C1507 C 0.27051 0.56943 0.57941 0.0
N1508 N 0.26552 0.57935 0.60241 0.0
C1509 C 0.2784 0.62148 0.59591 0.0
C1510 C 0.27983 0.58549 0.56389 0.0
C1511 C 0.26932 0.60481 0.61093 0.0
C1512 C 0.26889 0.68594 0.58797 0.0
N1513 N 0.28957 0.68518 0.57908 0.0
C1514 C 0.30953 0.71926 0.61113 0.0
C1515 C 0.30966 0.70123 0.59011 0.0
C1516 C 0.2886 0.71999 0.62103 0.0
C1517 C 0.26794 0.70365 0.60916 0.0
H1518 H 0.25334 0.67225 0.5791 0.0
H1519 H 0.32588 0.69933 0.58329 0.0
C1520 C 0.34282 0.6084 0.50877 0.0
N1521 N 0.33672 0.61768 0.53128 0.0
C1522 C 0.36036 0.59572 0.50726 0.0
C1523 C 0.36583 0.60377 0.55232 0.0
C1524 C 0.3476 0.61579 0.55292 0.0
C1525 C 0.3719 0.5933 0.52918 0.0
H1526 H 0.33379 0.61061 0.49205 0.0
H1527 H 0.342 0.62344 0.57045 0.0
C1528 C 0.24872 0.66927 0.52786 0.0
N1529 N 0.2167 0.69883 0.53197 0.0
C1530 C 0.22508 0.65797 0.52347 0.0
C1531 C 0.2561 0.6957 0.53389 0.0
C1532 C 0.20915 0.67317 0.5257 0.0
C1533 C 0.23964 0.71031 0.53604 0.0
C1534 C 0.28144 0.60158 0.47755 0.0
C1535 C 0.2661 0.60751 0.4607 0.0
C1536 C 0.28711 0.57803 0.47234 0.0
C1537 C 0.25685 0.58987 0.43881 0.0
C1538 C 0.27741 0.56085 0.45029 0.0
N1539 N 0.26265 0.5671 0.4341 0.0
C1540 C 0.31205 0.68307 0.47468 0.0
C1541 C 0.27121 0.6772 0.47319 0.0
C1542 C 0.31296 0.69807 0.457 0.0
N1543 N 0.29139 0.67316 0.4823 0.0
C1544 C 0.27127 0.69182 0.45543 0.0
C1545 C 0.29229 0.70227 0.44727 0.0
H1546 H 0.32775 0.67945 0.4825 0.0
H1547 H 0.25509 0.66888 0.47956 0.0
C1548 C 0.23284 0.60538 0.54436 0.0
N1549 N 0.24444 0.59778 0.52499 0.0
C1550 C 0.20961 0.59474 0.54392 0.0
C1551 C 0.21112 0.56731 0.50436 0.0
C1552 C 0.23453 0.57844 0.50566 0.0
C1553 C 0.19861 0.57652 0.52319 0.0
H1554 H 0.24117 0.62139 0.55895 0.0
H1555 H 0.24412 0.57281 0.49054 0.0
O1556 O 0.31744 0.66772 0.53218 0.0
O1557 O 0.29253 0.6279 0.55733 0.0
O1558 O 0.2644 0.65438 0.52651 0.0
O1559 O 0.29139 0.6189 0.49868 0.0
H1560 H 0.36131 0.66998 0.54496 0.0
H1561 H 0.31286 0.71392 0.52972 0.0
H1562 H 0.39259 0.70936 0.55403 0.0
H1563 H 0.34491 0.75259 0.53937 0.0
H1564 H 0.26726 0.54908 0.57317 0.0
H1565 H 0.28149 0.64174 0.60272 0.0
H1566 H 0.28381 0.57765 0.54558 0.0
H1567 H 0.26529 0.61213 0.62937 0.0
H1568 H 0.32575 0.7312 0.62068 0.0
H1569 H 0.25175 0.70343 0.61717 0.0
H1570 H 0.36501 0.58797 0.48921 0.0
H1571 H 0.37479 0.60228 0.56943 0.0
H1572 H 0.21914 0.63766 0.51831 0.0
H1573 H 0.27429 0.70483 0.53736 0.0
H1574 H 0.1908 0.66456 0.52246 0.0
H1575 H 0.24511 0.73077 0.54104 0.0
H1576 H 0.26125 0.62542 0.46452 0.0
H1577 H 0.2988 0.573 0.48525 0.0
H1578 H 0.24502 0.59427 0.42557 0.0
H1579 H 0.28163 0.54255 0.44605 0.0
H1580 H 0.32935 0.70605 0.45081 0.0
H1581 H 0.25512 0.69486 0.44798 0.0
H1582 H 0.19998 0.60192 0.55859 0.0
H1583 H 0.20261 0.55304 0.48824 0.0
Li1584 Li 0.42605 0.54481 0.77203 0.0
Li1585 Li 0.46284 0.57583 0.80193 0.0
Li1586 Li 0.42987 0.59823 0.77662 0.0
Li1587 Li 0.46062 0.57361 0.74975 0.0
C1588 C 0.41388 0.57158 0.82136 0.0
N1589 N 0.38698 0.56859 0.86024 0.0
C1590 C 0.42095 0.5622 0.84161 0.0
C1591 C 0.39313 0.57936 0.82081 0.0
C1592 C 0.40713 0.56091 0.86113 0.0
C1593 C 0.37974 0.57764 0.84064 0.0
C1594 C 0.47585 0.53147 0.77103 0.0
C1595 C 0.5141 0.5248 0.76621 0.0
N1596 N 0.50704 0.50121 0.77103 0.0
C1597 C 0.46892 0.50713 0.77584 0.0
C1598 C 0.49858 0.5404 0.76611 0.0
C1599 C 0.48497 0.49213 0.7758 0.0
C1600 C 0.40582 0.4877 0.75115 0.0
N1601 N 0.40489 0.50741 0.77009 0.0
C1602 C 0.37912 0.47659 0.78875 0.0
C1603 C 0.39152 0.50186 0.78866 0.0
C1604 C 0.38016 0.45583 0.76971 0.0
C1605 C 0.39376 0.46216 0.75063 0.0
H1606 H 0.41648 0.49152 0.73647 0.0
H1607 H 0.39068 0.51697 0.80396 0.0
C1608 C 0.48582 0.59121 0.85889 0.0
N1609 N 0.48273 0.57358 0.8369 0.0
C1610 C 0.49692 0.5878 0.88158 0.0
C1611 C 0.50226 0.54834 0.85985 0.0
C1612 C 0.4912 0.55246 0.83765 0.0
C1613 C 0.5054 0.56589 0.88283 0.0
H1614 H 0.4792 0.60799 0.85931 0.0
H1615 H 0.48906 0.53799 0.82104 0.0
C1616 C 0.41051 0.56558 0.72493 0.0
N1617 N 0.38185 0.56053 0.6822 0.0
C1618 C 0.41923 0.57567 0.70506 0.0
C1619 C 0.38725 0.55301 0.72317 0.0
C1620 C 0.40446 0.57285 0.68357 0.0
C1621 C 0.37301 0.55069 0.70139 0.0
C1622 C 0.48445 0.62526 0.78059 0.0
C1623 C 0.48001 0.64736 0.77465 0.0
C1624 C 0.50716 0.62425 0.78721 0.0
C1625 C 0.49845 0.66819 0.77547 0.0
C1626 C 0.52513 0.64548 0.78778 0.0
N1627 N 0.52043 0.66682 0.78197 0.0
C1628 C 0.40994 0.64778 0.79814 0.0
C1629 C 0.39787 0.63202 0.75603 0.0
C1630 C 0.39764 0.66773 0.7984 0.0
N1631 N 0.41025 0.62978 0.77712 0.0
C1632 C 0.38536 0.65168 0.75557 0.0
C1633 C 0.38472 0.67057 0.77693 0.0
H1634 H 0.41935 0.64701 0.81525 0.0
H1635 H 0.39749 0.61847 0.73897 0.0
C1636 C 0.47497 0.5496 0.69816 0.0
N1637 N 0.47884 0.57195 0.71549 0.0
C1638 C 0.48565 0.54744 0.67536 0.0
C1639 C 0.50484 0.59113 0.68733 0.0
C1640 C 0.49379 0.59254 0.70996 0.0
C1641 C 0.501 0.56833 0.66904 0.0
H1642 H 0.46333 0.53297 0.70177 0.0
H1643 H 0.49732 0.6105 0.72306 0.0
O1644 O 0.42758 0.57399 0.80255 0.0
O1645 O 0.4606 0.54668 0.77147 0.0
O1646 O 0.42477 0.56778 0.74592 0.0
O1647 O 0.46659 0.60489 0.78039 0.0
H1648 H 0.43694 0.55607 0.84229 0.0
H1649 H 0.38752 0.58676 0.80528 0.0
H1650 H 0.41244 0.55384 0.87701 0.0
H1651 H 0.36363 0.58361 0.84049 0.0
H1652 H 0.53177 0.53146 0.76249 0.0
H1653 H 0.45146 0.50006 0.77994 0.0
H1654 H 0.50418 0.55923 0.76238 0.0
H1655 H 0.47991 0.47332 0.77965 0.0
H1656 H 0.36916 0.47323 0.80408 0.0
H1657 H 0.39551 0.44728 0.73549 0.0
H1658 H 0.49831 0.60213 0.89832 0.0
H1659 H 0.508 0.53096 0.85906 0.0
H1660 H 0.43719 0.58555 0.70622 0.0
H1661 H 0.3803 0.54511 0.73844 0.0
H1662 H 0.41097 0.58045 0.66799 0.0
H1663 H 0.35495 0.54101 0.69973 0.0
H1664 H 0.46248 0.64843 0.7696 0.0
H1665 H 0.51084 0.60727 0.79195 0.0
H1666 H 0.49528 0.68546 0.771 0.0
H1667 H 0.5428 0.64501 0.7929 0.0
H1668 H 0.39843 0.68114 0.81567 0.0
H1669 H 0.37611 0.652 0.7382 0.0
H1670 H 0.4818 0.52924 0.6626 0.0
H1671 H 0.51642 0.60804 0.68419 0.0
Li1672 Li 0.69399 0.04543 0.75865 0.0
Li1673 Li 0.72471 0.06539 0.73682 0.0
Li1674 Li 0.68989 0.03992 0.71414 0.0
Li1675 Li 0.71775 0.02098 0.73286 0.0
C1676 C 0.6808 0.0889 0.74055 0.0
N1677 N 0.65521 0.12527 0.74358 0.0
C1678 C 0.69096 0.11411 0.75185 0.0
C1679 C 0.65743 0.08208 0.73126 0.0
C1680 C 0.6778 0.13224 0.75312 0.0
C1681 C 0.64484 0.10078 0.73281 0.0
C1682 C 0.74118 0.05708 0.78513 0.0
C1683 C 0.7747 0.05878 0.81263 0.0
N1684 N 0.76913 0.07753 0.82923 0.0
C1685 C 0.73582 0.07645 0.80237 0.0
C1686 C 0.76073 0.04812 0.79026 0.0
C1687 C 0.75014 0.08647 0.82462 0.0
C1688 C 0.68231 0.03138 0.80244 0.0
N1689 N 0.67887 0.04713 0.78717 0.0
C1690 C 0.65486 0.06548 0.81435 0.0
C1691 C 0.66535 0.06385 0.79252 0.0
C1692 C 0.65849 0.04982 0.83061 0.0
C1693 C 0.67221 0.03247 0.82464 0.0
H1694 H 0.69317 0.01829 0.79747 0.0
H1695 H 0.66286 0.0761 0.78013 0.0
C1696 C 0.73947 0.11046 0.72427 0.0
N1697 N 0.74616 0.09508 0.73828 0.0
C1698 C 0.75034 0.13601 0.72932 0.0
C1699 C 0.77628 0.12839 0.76115 0.0
C1700 C 0.76494 0.10298 0.7554 0.0
C1701 C 0.76805 0.14506 0.74878 0.0
H1702 H 0.72443 0.10327 0.71075 0.0
H1703 H 0.7702 0.09005 0.76566 0.0
C1704 C 0.66452 0.99523 0.73344 0.0
N1705 N 0.62459 0.95798 0.73084 0.0
C1706 C 0.66473 0.96973 0.72561 0.0
C1707 C 0.64406 1.00186 0.74001 0.0
C1708 C 0.64435 0.95116 0.72439 0.0
C1709 C 0.62403 0.9827 0.73857 0.0
C1710 C 0.73741 0.04853 0.69112 0.0
C1711 C 0.73052 0.05087 0.66717 0.0
C1712 C 0.76093 0.0546 0.69959 0.0
C1713 C 0.74728 0.05964 0.6522 0.0
C1714 C 0.77716 0.06357 0.68414 0.0
N1715 N 0.77005 0.06583 0.66095 0.0
C1716 C 0.67233 0.05771 0.67749 0.0
C1717 C 0.65209 0.01627 0.6805 0.0
C1718 C 0.65627 0.0581 0.65857 0.0
N1719 N 0.66968 0.03711 0.68799 0.0
C1720 C 0.63532 0.01606 0.66209 0.0
C1721 C 0.63753 0.03717 0.65119 0.0
H1722 H 0.68674 0.07386 0.68419 0.0
H1723 H 0.65095 1.00001 0.68883 0.0
C1724 C 0.72994 0.98423 0.75112 0.0
N1725 N 0.73111 0.99468 0.73082 0.0
C1726 C 0.74392 0.96804 0.75449 0.0
C1727 C 0.7588 0.97256 0.71508 0.0
C1728 C 0.74449 0.98886 0.71251 0.0
C1729 C 0.75905 0.96294 0.73677 0.0
H1730 H 0.71928 0.9899 0.76535 0.0
H1731 H 0.74503 0.99802 0.69682 0.0
O1732 O 0.69376 0.0711 0.7387 0.0
O1733 O 0.72728 0.04655 0.76342 0.0
O1734 O 0.68427 0.01352 0.73418 0.0
O1735 O 0.7212 0.03911 0.70563 0.0
H1736 H 0.7088 0.11954 0.75971 0.0
H1737 H 0.64902 0.06257 0.72305 0.0
H1738 H 0.68554 0.15185 0.76172 0.0
H1739 H 0.62681 0.0958 0.72551 0.0
H1740 H 0.78995 0.05211 0.8168 0.0
H1741 H 0.7208 0.08367 0.79861 0.0
H1742 H 0.76512 0.03318 0.77702 0.0
H1743 H 0.74618 0.10138 0.83823 0.0
H1744 H 0.64431 0.07907 0.81872 0.0
H1745 H 0.67518 0.02022 0.83706 0.0
H1746 H 0.74401 0.1488 0.71949 0.0
H1747 H 0.79024 0.13524 0.77604 0.0
H1748 H 0.68045 0.96438 0.72035 0.0
H1749 H 0.64361 0.02156 0.74589 0.0
H1750 H 0.64423 0.93134 0.71827 0.0
H1751 H 0.60803 0.98749 0.74352 0.0
H1752 H 0.71246 0.04551 0.66001 0.0
H1753 H 0.76656 0.0525 0.71795 0.0
H1754 H 0.74218 0.06139 0.63357 0.0
H1755 H 0.79541 0.06859 0.69054 0.0
H1756 H 0.65824 0.0744 0.64995 0.0
H1757 H 0.62102 0.99959 0.65612 0.0
H1758 H 0.74403 0.9608 0.77144 0.0
H1759 H 0.77051 0.96884 0.70132 0.0
Li1760 Li 0.80331 0.71856 0.03706 0.0
Li1761 Li 0.8196 0.68373 0.01134 0.0
Li1762 Li 0.80325 0.71343 0.9895 0.0
Li1763 Li 0.77559 0.67904 0.007 0.0
C1764 C 0.84972 0.73968 0.0185 0.0
N1765 N 0.89004 0.77674 0.02203 0.0
C1766 C 0.87119 0.73392 0.02222 0.0
C1767 C 0.84875 0.76429 0.01661 0.0
C1768 C 0.89138 0.75292 0.02397 0.0
C1769 C 0.86934 0.78276 0.01842 0.0
C1770 C 0.79772 0.66412 0.05152 0.0
C1771 C 0.79194 0.62076 0.05617 0.0
N1772 N 0.79973 0.62903 0.08069 0.0
C1773 C 0.80552 0.6722 0.07679 0.0
C1774 C 0.79079 0.63821 0.0411 0.0
C1775 C 0.80649 0.65417 0.09121 0.0
C1776 C 0.7863 0.74422 0.08028 0.0
N1777 N 0.80576 0.73892 0.07097 0.0
C1778 C 0.82638 0.75252 0.1119 0.0
C1779 C 0.82581 0.74366 0.08616 0.0
C1780 C 0.80619 0.75673 0.12219 0.0
C1781 C 0.78621 0.7534 0.10587 0.0
H1782 H 0.77045 0.73998 0.06806 0.0
H1783 H 0.84099 0.73895 0.07856 0.0
C1784 C 0.85492 0.66042 0.99099 0.0
N1785 N 0.8445 0.66637 0.01193 0.0
C1786 C 0.87343 0.64857 0.9915 0.0
C1787 C 0.87054 0.64972 0.03517 0.0
C1788 C 0.85226 0.66166 0.03387 0.0
C1789 C 0.8812 0.64286 0.01381 0.0
H1790 H 0.84895 0.66501 0.9739 0.0
H1791 H 0.84448 0.66742 0.0505 0.0
C1792 C 0.7648 0.73387 0.00729 0.0
N1793 N 0.73959 0.76875 1.00028 0.0
C1794 C 0.74233 0.72566 0.99532 0.0
C1795 C 0.77448 0.75977 0.01574 0.0
C1796 C 0.72985 0.74361 0.99195 0.0
C1797 C 0.76145 0.77713 0.01198 0.0
C1798 C 0.79602 0.65788 0.95951 0.0
C1799 C 0.79097 0.66356 0.93645 0.0
C1800 C 0.80034 0.63424 0.96059 0.0
C1801 C 0.79062 0.64562 0.9148 0.0
C1802 C 0.79986 0.6168 0.9385 0.0
N1803 N 0.79508 0.62281 0.91625 0.0
C1804 C 0.82986 0.73445 0.95297 0.0
C1805 C 0.79007 0.73332 0.94637 0.0
C1806 C 0.834 0.74329 0.93095 0.0
N1807 N 0.80816 0.7296 0.96036 0.0
C1808 C 0.79339 0.74172 0.92398 0.0
C1809 C 0.81559 0.74676 0.9159 0.0
H1810 H 0.84401 0.73095 0.96392 0.0
H1811 H 0.77287 0.72898 0.95213 0.0
C1812 C 0.73183 0.65977 0.02391 0.0
N1813 N 0.74488 0.65539 0.0048 0.0
C1814 C 0.71023 0.64337 0.02442 0.0
C1815 C 0.7155 0.61803 0.9855 0.0
C1816 C 0.73705 0.63495 0.98571 0.0
C1817 C 0.70176 0.62207 0.0051 0.0
H1818 H 0.73831 0.67597 0.039 0.0
H1819 H 0.7476 0.63157 0.9707 0.0
O1820 O 0.82981 0.72114 0.0162 0.0
O1821 O 0.79709 0.68151 0.03704 0.0
O1822 O 0.77697 0.71653 0.01135 0.0
O1823 O 0.79732 0.67563 0.98085 0.0
H1824 H 0.87229 0.71498 0.02372 0.0
H1825 H 0.83228 0.769 0.01352 0.0
H1826 H 0.9081 0.74872 0.02683 0.0
H1827 H 0.86887 0.80188 0.01688 0.0
H1828 H 0.78668 0.60063 0.04838 0.0
H1829 H 0.81093 0.69216 0.08516 0.0
H1830 H 0.7847 0.63169 0.02156 0.0
H1831 H 0.81262 0.66017 0.11076 0.0
H1832 H 0.84213 0.75483 0.12383 0.0
H1833 H 0.77031 0.75642 0.11306 0.0
H1834 H 0.88149 0.64376 0.97473 0.0
H1835 H 0.87634 0.64589 0.05274 0.0
H1836 H 0.7346 0.70562 0.98884 0.0
H1837 H 0.79179 0.76635 0.02526 0.0
H1838 H 0.71241 0.73755 0.98278 0.0
H1839 H 0.76867 0.79725 0.01845 0.0
H1840 H 0.78734 0.6816 0.93522 0.0
H1841 H 0.80426 0.62953 0.97829 0.0
H1842 H 0.78685 0.64985 0.89684 0.0
H1843 H 0.80336 0.59851 0.93903 0.0
H1844 H 0.85139 0.74706 0.92553 0.0
H1845 H 0.77873 0.74425 0.91302 0.0
H1846 H 0.70027 0.6472 0.0399 0.0
H1847 H 0.70968 0.60181 0.97027 0.0
Li1848 Li 0.90015 0.51548 0.80133 0.0
Li1849 Li 0.93684 0.53883 0.82524 0.0
Li1850 Li 0.90678 0.55923 0.81208 0.0
Li1851 Li 0.93098 0.54002 0.78204 0.0
C1852 C 0.89366 0.53557 0.85543 0.0
N1853 N 0.86986 0.53394 0.89684 0.0
C1854 C 0.90281 0.528 0.8759 0.0
C1855 C 0.87246 0.54246 0.85609 0.0
C1856 C 0.89051 0.52728 0.89665 0.0
C1857 C 0.86067 0.54144 0.87716 0.0
C1858 C 0.94429 0.49277 0.79601 0.0
C1859 C 0.97991 0.47975 0.78929 0.0
N1860 N 0.97073 0.45744 0.79591 0.0
C1861 C 0.93529 0.46975 0.80294 0.0
C1862 C 0.96684 0.49786 0.78923 0.0
C1863 C 0.9489 0.45211 0.80266 0.0
C1864 C 0.88046 0.46752 0.77767 0.0
N1865 N 0.87794 0.48572 0.79684 0.0
C1866 C 0.84899 0.45677 0.81164 0.0
C1867 C 0.86182 0.48129 0.81291 0.0
C1868 C 0.85324 0.43736 0.79364 0.0
C1869 C 0.86802 0.44287 0.77562 0.0
H1870 H 0.89335 0.47194 0.76516 0.0
H1871 H 0.85988 0.49631 0.82756 0.0
C1872 C 0.96663 0.56588 0.86473 0.0
N1873 N 0.9607 0.54266 0.84937 0.0
C1874 C 0.98513 0.57157 0.88295 0.0
C1875 C 0.99165 0.52973 0.86815 0.0
C1876 C 0.97276 0.5247 0.85064 0.0
C1877 C 0.99708 0.55288 0.88518 0.0
H1878 H 0.95656 0.57967 0.86313 0.0
H1879 H 0.96726 0.50609 0.83912 0.0
C1880 C 0.88292 0.52342 0.75728 0.0
N1881 N 0.85451 0.49334 0.71613 0.0
C1882 C 0.89091 0.5207 0.73381 0.0
C1883 C 0.86 0.51184 0.75952 0.0
C1884 C 0.87644 0.50518 0.71332 0.0
C1885 C 0.84604 0.49639 0.73859 0.0
C1886 C 0.95959 0.58795 0.81208 0.0
C1887 C 0.95731 0.61247 0.81156 0.0
C1888 C 0.98163 0.5832 0.81435 0.0
C1889 C 0.97715 0.63201 0.8138 0.0
C1890 C 1.00105 0.6033 0.81673 0.0
N1891 N 0.99842 0.62708 0.81642 0.0
C1892 C 0.90092 0.60746 0.83507 0.0
C1893 C 0.87135 0.57969 0.80541 0.0
C1894 C 0.89056 0.62761 0.83414 0.0
N1895 N 0.89172 0.58464 0.81972 0.0
C1896 C 0.86049 0.59903 0.8039 0.0
C1897 C 0.87097 0.62349 0.81717 0.0
H1898 H 0.91716 0.61048 0.84633 0.0
H1899 H 0.86447 0.56114 0.79378 0.0
C1900 C 0.94732 0.51724 0.74124 0.0
N1901 N 0.94864 0.54053 0.75544 0.0
C1902 C 0.96167 0.51443 0.72258 0.0
C1903 C 0.97879 0.55962 0.73377 0.0
C1904 C 0.9637 0.56164 0.75196 0.0
C1905 C 0.97758 0.53577 0.71889 0.0
H1906 H 0.93525 0.50084 0.74469 0.0
H1907 H 0.96423 0.57993 0.76338 0.0
O1908 O 0.9056 0.5364 0.83503 0.0
O1909 O 0.93124 0.51035 0.79628 0.0
O1910 O 0.89703 0.53861 0.77754 0.0
O1911 O 0.94026 0.56883 0.81056 0.0
H1912 H 0.91923 0.52267 0.87572 0.0
H1913 H 0.86494 0.54801 0.84033 0.0
H1914 H 0.89736 0.52141 0.91261 0.0
H1915 H 0.84417 0.54653 0.87783 0.0
H1916 H 0.9974 0.48351 0.78422 0.0
H1917 H 0.91813 0.46565 0.80882 0.0
H1918 H 0.97437 0.51582 0.78449 0.0
H1919 H 0.94214 0.43424 0.80796 0.0
H1920 H 0.83751 0.45267 0.82561 0.0
H1921 H 0.87139 0.42793 0.76152 0.0
H1922 H 0.98866 0.58927 0.89651 0.0
H1923 H 1.00013 0.5147 0.87033 0.0
H1924 H 0.90789 0.53095 0.73122 0.0
H1925 H 0.85311 0.51449 0.77729 0.0
H1926 H 0.88257 0.50278 0.69514 0.0
H1927 H 0.82845 0.4869 0.74019 0.0
H1928 H 0.94041 0.61637 0.80928 0.0
H1929 H 0.98373 0.56424 0.81432 0.0
H1930 H 0.97562 0.65109 0.81346 0.0
H1931 H 0.01821 0.59998 0.81879 0.0
H1932 H 0.89883 0.64646 0.84456 0.0
H1933 H 0.84527 0.59545 0.79078 0.0
H1934 H 0.96053 0.49581 0.71125 0.0
H1935 H 0.99099 0.57633 0.73106 0.0
Li1936 Li 0.83552 0.42964 0.53053 0.0
Li1937 Li 0.81691 0.45608 0.5092 0.0
Li1938 Li 0.83783 0.42581 0.48697 0.0
Li1939 Li 0.8576 0.46447 0.51524 0.0
C1940 C 0.79428 0.39769 0.50797 0.0
N1941 N 0.76298 0.35537 0.51519 0.0
C1942 C 0.77327 0.4 0.51695 0.0
C1943 C 0.79932 0.37385 0.50249 0.0
C1944 C 0.75767 0.37838 0.52051 0.0
C1945 C 0.7833 0.35269 0.50635 0.0
C1946 C 0.8401 0.48447 0.56116 0.0
C1947 C 0.84467 0.5286 0.57986 0.0
N1948 N 0.85079 0.52378 0.60231 0.0
C1949 C 0.84628 0.4799 0.58446 0.0
C1950 C 0.8391 0.50895 0.55883 0.0
C1951 C 0.85165 0.50004 0.60503 0.0
C1952 C 0.85513 0.40725 0.56255 0.0
N1953 N 0.83503 0.41334 0.55646 0.0
C1954 C 0.81748 0.39631 0.58909 0.0
C1955 C 0.81649 0.40886 0.56955 0.0
C1956 C 0.83752 0.38807 0.59419 0.0
C1957 C 0.85661 0.39399 0.58109 0.0
H1958 H 0.87011 0.41275 0.55316 0.0
H1959 H 0.80112 0.41504 0.56482 0.0
C1960 C 0.78862 0.4822 0.489 0.0
N1961 N 0.79329 0.47156 0.5084 0.0
C1962 C 0.77184 0.49619 0.49014 0.0
C1963 C 0.76536 0.48751 0.53106 0.0
C1964 C 0.78226 0.47387 0.52917 0.0
C1965 C 0.76021 0.49877 0.51141 0.0
H1966 H 0.79816 0.48014 0.47296 0.0
H1967 H 0.78694 0.46544 0.54432 0.0
C1968 C 0.87939 0.41652 0.50872 0.0
N1969 N 0.9119 0.38786 0.50015 0.0
C1970 C 0.90281 0.42836 0.50952 0.0
C1971 C 0.87265 0.39002 0.50413 0.0
C1972 C 0.91893 0.41358 0.50501 0.0
C1973 C 0.8893 0.37589 0.49967 0.0
C1974 C 0.84801 0.47737 0.46966 0.0
C1975 C 0.85625 0.46837 0.4473 0.0
C1976 C 0.85048 0.50342 0.47793 0.0
C1977 C 0.86734 0.48567 0.43385 0.0
C1978 C 0.86166 0.52012 0.4639 0.0
N1979 N 0.86982 0.51097 0.44238 0.0
C1980 C 0.81682 0.38956 0.44606 0.0
C1981 C 0.85792 0.39894 0.45029 0.0
C1982 C 0.81584 0.37108 0.42484 0.0
N1983 N 0.83765 0.40283 0.45821 0.0
C1984 C 0.85775 0.37993 0.42994 0.0
C1985 C 0.83653 0.36618 0.41683 0.0
H1986 H 0.80107 0.39348 0.45284 0.0
H1987 H 0.87418 0.41062 0.45969 0.0
C1988 C 0.89384 0.50069 0.54539 0.0
N1989 N 0.88481 0.48876 0.52181 0.0
C1990 C 0.91686 0.51362 0.55001 0.0
C1991 C 0.92041 0.50201 0.50596 0.0
C1992 C 0.89746 0.48948 0.50223 0.0
C1993 C 0.93024 0.51314 0.53013 0.0
H1994 H 0.88409 0.49846 0.56088 0.0
H1995 H 0.89061 0.47797 0.48423 0.0
O1996 O 0.80936 0.41852 0.50357 0.0
O1997 O 0.83579 0.46516 0.54069 0.0
O1998 O 0.86332 0.43081 0.51312 0.0
O1999 O 0.83788 0.46069 0.48347 0.0
H2000 H 0.76898 0.41827 0.52098 0.0
H2001 H 0.81527 0.37164 0.49505 0.0
H2002 H 0.74132 0.37988 0.52742 0.0
H2003 H 0.78697 0.33411 0.50216 0.0
H2004 H 0.84422 0.54772 0.57832 0.0
H2005 H 0.84731 0.46112 0.58659 0.0
H2006 H 0.83446 0.51279 0.54091 0.0
H2007 H 0.85663 0.49682 0.62312 0.0
H2008 H 0.80272 0.39232 0.59948 0.0
H2009 H 0.87248 0.38832 0.58515 0.0
H2010 H 0.76801 0.50489 0.47486 0.0
H2011 H 0.75653 0.48947 0.54769 0.0
H2012 H 0.90862 0.44873 0.51389 0.0
H2013 H 0.85476 0.38048 0.50391 0.0
H2014 H 0.93706 0.42258 0.5055 0.0
H2015 H 0.88426 0.35539 0.49586 0.0
H2016 H 0.8544 0.44826 0.4406 0.0
H2017 H 0.84417 0.51067 0.49518 0.0
H2018 H 0.87403 0.47899 0.41667 0.0
H2019 H 0.86392 0.54035 0.47017 0.0
H2020 H 0.79929 0.36088 0.41473 0.0
H2021 H 0.87397 0.37669 0.42378 0.0
H2022 H 0.92455 0.52195 0.56888 0.0
H2023 H 0.93086 0.50126 0.49051 0.0
Li2024 Li 0.66689 0.51242 0.29407 0.0
Li2025 Li 0.70175 0.54136 0.27283 0.0
Li2026 Li 0.66568 0.50949 0.24167 0.0
Li2027 Li 0.69842 0.48754 0.26746 0.0
C2028 C 0.65195 0.55415 0.27339 0.0
N2029 N 0.6213 0.58522 0.27732 0.0
C2030 C 0.65973 0.57993 0.28407 0.0
C2031 C 0.62862 0.54414 0.26467 0.0
C2032 C 0.64395 0.59534 0.2859 0.0
C2033 C 0.61339 0.56017 0.26684 0.0
C2034 C 0.71733 0.52344 0.31986 0.0
C2035 C 0.75307 0.52229 0.34189 0.0
N2036 N 0.74626 0.5337 0.36336 0.0
C2037 C 0.7107 0.53526 0.34207 0.0
C2038 C 0.73865 0.51688 0.31969 0.0
C2039 C 0.72556 0.54023 0.3639 0.0
C2040 C 0.64948 0.49747 0.34393 0.0
N2041 N 0.64815 0.51374 0.3281 0.0
C2042 C 0.62472 0.53373 0.35783 0.0
C2043 C 0.6356 0.5316 0.33511 0.0
C2044 C 0.62626 0.51759 0.3748 0.0
C2045 C 0.63888 0.49904 0.36682 0.0
H2046 H 0.65922 0.48319 0.33919 0.0
H2047 H 0.63414 0.54484 0.32329 0.0
C2048 C 0.71993 0.59015 0.25449 0.0
N2049 N 0.72216 0.57914 0.27455 0.0
C2050 C 0.73185 0.61561 0.2545 0.0
C2051 C 0.74867 0.61915 0.2958 0.0
C2052 C 0.73643 0.59357 0.29505 0.0
C2053 C 0.74665 0.63099 0.27536 0.0
H2054 H 0.70857 0.57926 0.23821 0.0
H2055 H 0.73832 0.58544 0.31121 0.0
C2056 C 0.64384 0.45978 0.2601 0.0
N2057 N 0.60789 0.41712 0.25301 0.0
C2058 C 0.64798 0.43571 0.25242 0.0
C2059 C 0.62146 0.46219 0.26422 0.0
C2060 C 0.62956 0.41436 0.24891 0.0
C2061 C 0.60351 0.44037 0.26052 0.0
C2062 C 0.71362 0.5115 0.22218 0.0
C2063 C 0.7027 0.4988 0.19867 0.0
C2064 C 0.73727 0.52278 0.22514 0.0
C2065 C 0.71566 0.4977 0.17838 0.0
C2066 C 0.74966 0.52117 0.20439 0.0
N2067 N 0.73868 0.5088 0.18164 0.0
C2068 C 0.6517 0.53526 0.19896 0.0
C2069 C 0.63068 0.49305 0.19095 0.0
C2070 C 0.6409 0.53917 0.17643 0.0
N2071 N 0.64682 0.51239 0.20638 0.0
C2072 C 0.61945 0.49624 0.16824 0.0
C2073 C 0.62425 0.51964 0.1601 0.0
H2074 H 0.66428 0.55097 0.21054 0.0
H2075 H 0.6263 0.47472 0.19599 0.0
C2076 C 0.71643 0.44177 0.28609 0.0
N2077 N 0.71804 0.4558 0.26773 0.0
C2078 C 0.72858 0.42183 0.28692 0.0
C2079 C 0.74486 0.42981 0.25025 0.0
C2080 C 0.73234 0.44952 0.24996 0.0
C2081 C 0.74351 0.41489 0.26889 0.0
H2082 H 0.70551 0.44581 0.30058 0.0
H2083 H 0.73434 0.45982 0.23508 0.0
O2084 O 0.66705 0.53872 0.27148 0.0
O2085 O 0.7027 0.51754 0.2985 0.0
O2086 O 0.66171 0.48083 0.26388 0.0
O2087 O 0.70119 0.51274 0.24221 0.0
H2088 H 0.67775 0.58793 0.29093 0.0
H2089 H 0.62238 0.5242 0.25631 0.0
H2090 H 0.6497 0.61533 0.29414 0.0
H2091 H 0.59528 0.5527 0.26018 0.0
H2092 H 0.76964 0.51732 0.34208 0.0
H2093 H 0.69422 0.54042 0.34247 0.0
H2094 H 0.74394 0.50761 0.30261 0.0
H2095 H 0.72061 0.54923 0.38127 0.0
H2096 H 0.61541 0.54848 0.36231 0.0
H2097 H 0.64098 0.48588 0.37854 0.0
H2098 H 0.72934 0.62331 0.23817 0.0
H2099 H 0.75966 0.6297 0.31247 0.0
H2100 H 0.66525 0.43356 0.24923 0.0
H2101 H 0.61804 0.48071 0.2703 0.0
H2102 H 0.63248 0.39561 0.24296 0.0
H2103 H 0.58609 0.44192 0.26367 0.0
H2104 H 0.68441 0.48985 0.19614 0.0
H2105 H 0.74594 0.53262 0.24327 0.0
H2106 H 0.70744 0.48799 0.16005 0.0
H2107 H 0.76799 0.52978 0.20637 0.0
H2108 H 0.64572 0.55767 0.17178 0.0
H2109 H 0.607 0.4802 0.15694 0.0
H2110 H 0.72605 0.41166 0.30188 0.0
H2111 H 0.75568 0.42622 0.23554 0.0
Eu2112 Eu 0.03674 0.02844 0.0111 0.0
C2113 C 0.11277 0.11926 0.06587 0.0
C2114 C 0.11952 0.14334 0.0334 0.0
C2115 C 0.1309 0.16452 0.07646 0.0
C2116 C 0.1116 0.12009 0.04089 0.0
C2117 C 0.12281 0.1415 0.08388 0.0
C2118 C 0.12913 0.16547 0.0513 0.0
C2119 C 0.11812 0.11645 0.11536 0.0
N2120 N 0.10491 0.09668 0.07256 0.0
C2121 C 0.10851 0.09496 0.09692 0.0
C2122 C 0.12515 0.13989 0.10884 0.0
Eu2123 Eu 0.09418 0.06014 0.03951 0.0
N2124 N 0.10283 0.09828 0.0239 0.0
C2125 C 0.101 0.09876 0.99913 0.0
C2126 C 0.11772 0.14372 0.00811 0.0
C2127 C 0.10824 0.12133 0.99092 0.0
H2128 H 0.10445 0.07676 0.10217 0.0
H2129 H 0.10646 0.1214 0.97129 0.0
H2130 H 0.13546 0.18338 0.04584 0.0
H2131 H 0.12062 0.1148 0.13452 0.0
H2132 H 0.09323 0.08196 0.98545 0.0
H2133 H 0.00644 0.96105 0.07112 0.0
H2134 H 0.12348 0.1612 1.00168 0.0
H2135 H 0.02682 0.01643 0.94835 0.0
H2136 H 0.01812 1.00228 0.06117 0.0
H2137 H 0.01532 0.97981 0.91345 0.0
H2138 H 0.13873 0.18169 0.09004 0.0
H2139 H 1.0027 0.92238 0.03901 0.0
H2140 H 1.00202 0.90279 0.9945 0.0
H2141 H 0.13295 0.15648 0.12314 0.0
H2142 H 1.00385 0.90784 0.9514 0.0
N2143 N 0.02409 0.98871 0.02347 0.0
C2144 C 0.0179 0.98632 0.04664 0.0
C2145 C 0.00864 0.94079 0.03442 0.0
C2146 C 0.0127 0.94307 0.0102 0.0
C2147 C 0.01068 0.96254 0.05255 0.0
C2148 C 0.02038 0.96757 0.00509 0.0
H2149 H 0.00803 0.93632 0.92113 0.0
N2150 N 0.02727 0.99412 0.97599 0.0
C2151 C 0.01736 0.97685 0.93222 0.0
C2152 C 0.02178 0.97037 0.9807 0.0
C2153 C 0.02398 0.99756 0.95216 0.0
C2154 C 0.01335 0.95236 0.93663 0.0
C2155 C 0.01505 0.94883 0.96104 0.0
O2156 O 0.01321 0.03955 0.98579 0.0
O2157 O 0.06444 0.06495 0.01495 0.0
O2158 O 0.06989 0.06563 0.07126 0.0
O2159 O 0.03406 0.0403 0.05381 0.0
O2160 O 0.03224 0.06849 0.02326 0.0
O2161 O 1.00081 0.02503 0.01799 0.0
O2162 O 0.12153 0.0557 0.06424 0.0
O2163 O 0.06801 0.0228 0.0307 0.0
O2164 O 0.06202 0.02769 0.9786 0.0
O2165 O 0.09919 0.04279 0.99859 0.0
O2166 O 0.09668 0.02374 0.05269 0.0
O2167 O 0.12942 0.06415 0.02774 0.0
C2168 C 0.05233 0.08132 0.02085 0.0
C2169 C 0.97261 0.02623 0.9867 0.0
C2170 C 0.93357 0.03208 0.98531 0.0
C2171 C 0.95671 0.04026 0.99506 0.0
C2172 C 0.92648 0.01023 0.96639 0.0
C2173 C 0.96555 1.00431 0.96796 0.0
C2174 C 0.94249 0.9965 0.95767 0.0
C2175 C 0.0479 0.05498 0.07355 0.0
C2176 C 0.996 0.03472 0.99905 0.0
C2177 C 0.00885 0.92451 0.96627 0.0
C2178 C 0.0078 0.92164 0.99081 0.0
C2179 C 0.07793 0.00869 0.04146 0.0
C2180 C 0.16107 0.06228 0.05713 0.0
C2181 C 0.17423 0.05012 0.0411 0.0
C2182 C 0.19618 0.04858 0.04986 0.0
C2183 C 0.20542 0.06011 0.07436 0.0
C2184 C 0.1702 0.07378 0.08172 0.0
C2185 C 0.19245 0.07286 0.09022 0.0
C2186 C 0.08519 0.03304 0.97751 0.0
C2187 C 0.137 0.06023 0.04903 0.0
H2188 H 0.96218 0.05719 0.00966 0.0
H2189 H 0.90857 1.00381 0.95852 0.0
H2190 H 0.97767 0.99319 0.96155 0.0
H2191 H 0.93695 0.97963 0.94314 0.0
H2192 H 0.16701 0.04068 0.02228 0.0
H2193 H 0.22244 0.05884 0.08124 0.0
H2194 H 0.15997 0.08303 0.09441 0.0
H2195 H 0.19943 0.08153 0.10922 0.0
Eu2196 Eu 0.3277 0.78298 0.24461 0.0
C2197 C 0.29823 0.86214 0.31584 0.0
C2198 C 0.33047 0.88468 0.34655 0.0
C2199 C 0.30271 0.90707 0.33385 0.0
C2200 C 0.31835 0.86214 0.32984 0.0
C2201 C 0.28978 0.88447 0.31867 0.0
C2202 C 0.32303 0.90718 0.34776 0.0
C2203 C 0.2536 0.85953 0.29675 0.0
N2204 N 0.28533 0.83978 0.3022 0.0
C2205 C 0.26245 0.83798 0.29496 0.0
C2206 C 0.26761 0.88306 0.30793 0.0
Eu2207 Eu 0.30083 0.80313 0.301 0.0
N2208 N 0.32459 0.83977 0.32936 0.0
C2209 C 0.34101 0.8387 0.34748 0.0
C2210 C 0.34908 0.88382 0.36262 0.0
C2211 C 0.35408 0.86062 0.36339 0.0
H2212 H 0.25053 0.81993 0.28765 0.0
H2213 H 0.36746 0.85941 0.37695 0.0
H2214 H 0.33231 0.92454 0.36028 0.0
H2215 H 0.23579 0.85784 0.29001 0.0
H2216 H 0.34396 0.82115 0.35105 0.0
H2217 H 0.2506 0.70946 0.20016 0.0
H2218 H 0.35883 0.9007 0.37551 0.0
H2219 H 0.38221 0.77456 0.25579 0.0
H2220 H 0.27188 0.74785 0.22954 0.0
H2221 H 0.4055 0.74566 0.23825 0.0
H2222 H 0.29651 0.9243 0.33597 0.0
H2223 H 0.27217 0.68112 0.17655 0.0
H2224 H 0.31031 0.67088 0.16837 0.0
H2225 H 0.26053 0.8997 0.30984 0.0
H2226 H 0.35238 0.68048 0.17924 0.0
N2227 N 0.30494 0.74284 0.22217 0.0
C2228 C 0.28139 0.7364 0.21891 0.0
C2229 C 0.28152 0.69825 0.18936 0.0
C2230 C 0.30562 0.70407 0.1937 0.0
C2231 C 0.26931 0.71421 0.20254 0.0
C2232 C 0.31691 0.72646 0.21089 0.0
H2233 H 0.38772 0.70764 0.20592 0.0
N2234 N 0.35027 0.75214 0.23565 0.0
C2235 C 0.38712 0.74121 0.23253 0.0
C2236 C 0.34037 0.73136 0.2177 0.0
C2237 C 0.37355 0.7573 0.2429 0.0
C2238 C 0.37708 0.71989 0.21415 0.0
C2239 C 0.35344 0.71467 0.20655 0.0
O2240 O 0.36159 0.80388 0.23756 0.0
O2241 O 0.32645 0.81563 0.27534 0.0
O2242 O 0.27642 0.80134 0.26553 0.0
O2243 O 0.29279 0.7897 0.22881 0.0
O2244 O 0.32533 0.82127 0.23902 0.0
O2245 O 0.33568 0.78198 0.20675 0.0
O2246 O 0.26498 0.78772 0.30641 0.0
O2247 O 0.30268 0.77097 0.27024 0.0
O2248 O 0.352 0.78285 0.27988 0.0
O2249 O 0.33381 0.79282 0.31556 0.0
O2250 O 0.30087 0.76286 0.30509 0.0
O2251 O 0.29035 0.80491 0.33824 0.0
C2252 C 0.32532 0.83169 0.26192 0.0
C2253 C 0.36831 0.80966 0.19655 0.0
C2254 C 0.36648 0.8343 0.16514 0.0
C2255 C 0.35678 0.82415 0.18452 0.0
C2256 C 0.38802 0.83073 0.15836 0.0
C2257 C 0.38991 0.80618 0.18991 0.0
C2258 C 0.3998 0.81683 0.17091 0.0
C2259 C 0.27552 0.79672 0.24078 0.0
C2260 C 0.35694 0.7952 0.2136 0.0
C2261 C 0.34255 0.69328 0.18823 0.0
C2262 C 0.31863 0.68788 0.18196 0.0
C2263 C 0.30288 0.75371 0.28218 0.0
C2264 C 0.25813 0.77328 0.34335 0.0
C2265 C 0.27146 0.76406 0.35953 0.0
C2266 C 0.26063 0.74713 0.37343 0.0
C2267 C 0.23649 0.73868 0.37069 0.0
C2268 C 0.23394 0.76481 0.34059 0.0
C2269 C 0.22318 0.74743 0.35415 0.0
C2270 C 0.35144 0.78622 0.30455 0.0
C2271 C 0.26898 0.79288 0.33047 0.0
H2272 H 0.33993 0.82658 0.18938 0.0
H2273 H 0.39556 0.83854 0.14328 0.0
H2274 H 0.39877 0.79459 0.19893 0.0
H2275 H 0.41632 0.81387 0.16557 0.0
H2276 H 0.29017 0.77041 0.36191 0.0
H2277 H 0.22802 0.72552 0.38146 0.0
H2278 H 0.2234 0.77191 0.32822 0.0
H2279 H 0.20453 0.74103 0.3521 0.0
Eu2280 Eu 0.59333 0.04502 0.51175 0.0
C2281 C 0.50018 1.00191 0.55645 0.0
C2282 C 0.47973 0.96684 0.52374 0.0
C2283 C 0.46932 0.96917 0.56587 0.0
C2284 C 0.49667 0.98984 0.53163 0.0
C2285 C 0.48649 0.99169 0.57382 0.0
C2286 C 0.46595 0.95679 0.5409 0.0
C2287 C 0.50706 0.02725 0.60564 0.0
N2288 N 0.51711 0.02349 0.56372 0.0
C2289 C 0.52001 0.03676 0.58777 0.0
C2290 C 0.49031 1.00452 0.59867 0.0
Eu2291 Eu 0.53601 0.0403 0.53174 0.0
N2292 N 0.5109 0.9995 0.51561 0.0
C2293 C 0.50892 0.98681 0.4914 0.0
C2294 C 0.47754 0.95416 0.49897 0.0
C2295 C 0.49232 0.96411 0.48281 0.0
H2296 H 0.53226 0.05492 0.5931 0.0
H2297 H 0.491 0.95423 0.46367 0.0
H2298 H 0.45284 0.93922 0.53511 0.0
H2299 H 0.50976 0.03767 0.62469 0.0
H2300 H 0.52024 0.99353 0.47838 0.0
H2301 H 0.63641 0.13023 0.582 0.0
H2302 H 0.46481 0.93645 0.49225 0.0
H2303 H 0.59842 0.03183 0.45059 0.0
H2304 H 0.6087 0.08995 0.56654 0.0
H2305 H 0.62029 0.05103 0.41963 0.0
H2306 H 0.45864 0.9611 0.57893 0.0
H2307 H 0.66118 0.1506 0.5537 0.0
H2308 H 0.67288 0.14987 0.51095 0.0
H2309 H 0.48016 0.99725 0.61252 0.0
H2310 H 0.6679 0.12901 0.46688 0.0
N2311 N 0.61717 0.08625 0.52898 0.0
C2312 C 0.61932 0.0979 0.55356 0.0
C2313 C 0.64901 0.13255 0.54659 0.0
C2314 C 0.64692 0.12074 0.52155 0.0
C2315 C 0.63507 0.12113 0.5626 0.0
C2316 C 0.63069 0.09728 0.51313 0.0
H2317 H 0.64802 0.0927 0.43268 0.0
N2318 N 0.61169 0.0634 0.48035 0.0
C2319 C 0.62234 0.06115 0.43875 0.0
C2320 C 0.62769 0.08567 0.48814 0.0
C2321 C 0.60966 0.05053 0.45624 0.0
C2322 C 0.63804 0.08459 0.44622 0.0
C2323 C 0.64114 0.09699 0.47119 0.0
O2324 O 0.61274 0.01961 0.49286 0.0
O2325 O 0.56312 0.01733 0.52315 0.0
O2326 O 0.55744 0.03428 0.56361 0.0
O2327 O 0.59481 0.04682 0.55269 0.0
O2328 O 0.57577 1.00473 0.49089 0.0
O2329 O 0.62573 0.0407 0.53035 0.0
O2330 O 0.51703 0.0664 0.54992 0.0
O2331 O 0.56637 0.0682 0.52087 0.0
O2332 O 0.57181 0.05136 0.4801 0.0
O2333 O 0.53468 0.03666 0.49056 0.0
O2334 O 0.55394 0.07959 0.55385 0.0
O2335 O 0.5053 0.047 0.51193 0.0
C2336 C 0.56197 0.99724 0.50663 0.0
C2337 C 0.65219 0.02209 0.50528 0.0
C2338 C 0.68372 1.0004 0.50754 0.0
C2339 C 0.66267 1.00508 0.51533 0.0
C2340 C 0.69393 0.01264 0.48945 0.0
C2341 C 0.66276 0.03409 0.48725 0.0
C2342 C 0.68351 0.02935 0.47941 0.0
C2343 C 0.58 0.0409 0.56859 0.0
C2344 C 0.62884 0.0242 0.51129 0.0
C2345 C 0.65743 0.12011 0.47963 0.0
C2346 C 0.66033 0.13193 0.50474 0.0
C2347 C 0.56745 0.08768 0.53819 0.0
C2348 C 0.47815 0.06414 0.53663 0.0
C2349 C 0.46733 0.08148 0.52771 0.0
C2350 C 0.4459 0.08483 0.53548 0.0
C2351 C 0.43552 0.07083 0.55229 0.0
C2352 C 0.4674 0.0504 0.55344 0.0
C2353 C 0.4462 0.0537 0.56115 0.0
C2354 C 0.54927 0.04421 0.47504 0.0
C2355 C 0.50189 0.06334 0.53095 0.0
H2356 H 0.65435 0.99522 0.52883 0.0
H2357 H 0.70998 0.00914 0.48304 0.0
H2358 H 0.65475 0.04668 0.47885 0.0
H2359 H 0.69145 0.03849 0.4653 0.0
H2360 H 0.47572 0.09271 0.51522 0.0
H2361 H 0.41915 0.0733 0.55863 0.0
H2362 H 0.47559 0.03764 0.56117 0.0
H2363 H 0.43818 0.04319 0.57431 0.0
Eu2364 Eu 0.28488 0.29904 0.77202 0.0
C2365 C 0.36728 0.26478 0.81501 0.0
C2366 C 0.3796 0.29836 0.85164 0.0
C2367 C 0.38752 0.25708 0.85138 0.0
C2368 C 0.3687 0.28938 0.82713 0.0
C2369 C 0.37714 0.24848 0.8268 0.0
C2370 C 0.38871 0.28197 0.86379 0.0
C2371 C 0.36772 0.21723 0.78839 0.0
N2372 N 0.35724 0.25712 0.79126 0.0
C2373 C 0.35839 0.2342 0.77747 0.0
C2374 C 0.37688 0.22428 0.81328 0.0
Eu2375 Eu 0.34275 0.28707 0.77327 0.0
N2376 N 0.35974 0.30469 0.81484 0.0
C2377 C 0.36151 0.32943 0.82596 0.0
C2378 C 0.3812 0.32361 0.86312 0.0
C2379 C 0.37219 0.33924 0.85014 0.0
H2380 H 0.35198 0.22906 0.75801 0.0
H2381 H 0.37305 0.35873 0.8589 0.0
H2382 H 0.39701 0.28848 0.88264 0.0
H2383 H 0.36811 0.19888 0.77752 0.0
H2384 H 0.35349 0.34137 0.81683 0.0
H2385 H 0.23245 0.21823 0.70169 0.0
H2386 H 0.38932 0.33118 0.88194 0.0
H2387 H 0.2792 0.35945 0.77568 0.0
H2388 H 0.25009 0.23979 0.74323 0.0
H2389 H 0.26988 0.38639 0.74772 0.0
H2390 H 0.39506 0.24478 0.8608 0.0
H2391 H 0.23247 0.24193 0.668 0.0
H2392 H 0.23969 0.28383 0.65544 0.0
H2393 H 0.38431 0.21121 0.82165 0.0
H2394 H 0.24951 0.33026 0.6682 0.0
N2395 N 0.26318 0.2757 0.73345 0.0
C2396 C 0.2516 0.25066 0.72892 0.0
C2397 C 0.2409 0.25163 0.68629 0.0
C2398 C 0.2502 0.27778 0.69168 0.0
C2399 C 0.24086 0.23821 0.70525 0.0
C2400 C 0.26103 0.28955 0.71585 0.0
H2401 H 0.25951 0.36853 0.70285 0.0
N2402 N 0.27504 0.32649 0.74686 0.0
C2403 C 0.26934 0.36665 0.74037 0.0
C2404 C 0.26702 0.31575 0.72284 0.0
C2405 C 0.27466 0.35122 0.75614 0.0
C2406 C 0.26363 0.35653 0.71505 0.0
C2407 C 0.26175 0.33066 0.70609 0.0
O2408 O 0.2713 0.32457 0.79918 0.0
O2409 O 0.31778 0.30371 0.79677 0.0
O2410 O 0.31816 0.24905 0.77823 0.0
O2411 O 0.28105 0.25584 0.77205 0.0
O2412 O 0.28702 0.28698 0.80859 0.0
O2413 O 0.2477 0.28953 0.77902 0.0
O2414 O 0.36238 0.27683 0.74182 0.0
O2415 O 0.3131 0.29172 0.74844 0.0
O2416 O 0.31208 0.33845 0.7736 0.0
O2417 O 0.34791 0.3289 0.77006 0.0
O2418 O 0.32645 0.26021 0.73758 0.0
O2419 O 0.37821 0.30831 0.77093 0.0
C2420 C 0.30883 0.29502 0.81486 0.0
C2421 C 0.23159 0.31857 0.80989 0.0
C2422 C 0.19529 0.31134 0.83007 0.0
C2423 C 0.21171 0.30165 0.81558 0.0
C2424 C 0.19897 0.33769 0.83814 0.0
C2425 C 0.23427 0.34476 0.81841 0.0
C2426 C 0.21814 0.35415 0.83228 0.0
C2427 C 0.29505 0.24053 0.77545 0.0
C2428 C 0.2504 0.31017 0.79603 0.0
C2429 C 0.25314 0.31905 0.68143 0.0
C2430 C 0.24751 0.29261 0.67418 0.0
C2431 C 0.31211 0.27268 0.73083 0.0
C2432 C 0.40355 0.28801 0.7468 0.0
C2433 C 0.41747 0.29567 0.7282 0.0
C2434 C 0.43905 0.28899 0.72556 0.0
C2435 C 0.44608 0.2743 0.74136 0.0
C2436 C 0.41144 0.27366 0.76239 0.0
C2437 C 0.43242 0.26673 0.75954 0.0
C2438 C 0.33498 0.34573 0.77178 0.0
C2439 C 0.38083 0.29472 0.7498 0.0
H2440 H 0.20921 0.28137 0.80921 0.0
H2441 H 0.18679 0.34563 0.84908 0.0
H2442 H 0.24901 0.35821 0.81434 0.0
H2443 H 0.22056 0.37441 0.83865 0.0
H2444 H 0.41168 0.30683 0.71603 0.0
H2445 H 0.46235 0.26876 0.73967 0.0
H2446 H 0.40142 0.26785 0.77686 0.0
H2447 H 0.4382 0.2555 0.77162 0.0
Eu2448 Eu 0.06121 0.07334 0.53541 0.0
C2449 C 0.07845 0.98936 0.45498 0.0
C2450 C 0.0428 0.97981 0.42785 0.0
C2451 C 0.07765 0.97136 0.41099 0.0
C2452 C 0.05528 0.98926 0.4516 0.0
C2453 C 0.08973 0.97973 0.43481 0.0
C2454 C 0.05423 0.97145 0.40751 0.0
C2455 C 0.12324 0.98448 0.46365 0.0
N2456 N 0.08955 0.99712 0.47827 0.0
C2457 C 0.11125 0.99361 0.48302 0.0
C2458 C 0.11256 0.97786 0.43936 0.0
Eu2459 Eu 0.06844 0.01281 0.51035 0.0
N2460 N 0.04461 0.99695 0.47173 0.0
C2461 C 0.02108 0.99389 0.4695 0.0
C2462 C 0.01902 0.97821 0.42535 0.0
C2463 C 0.00808 0.98496 0.44634 0.0
H2464 H 0.11937 0.99805 0.50184 0.0
H2465 H 0.9896 0.98333 0.44473 0.0
H2466 H 0.04495 0.96429 0.38914 0.0
H2467 H 0.14062 0.98231 0.4675 0.0
H2468 H 0.01205 0.99906 0.48525 0.0
H2469 H 0.13801 0.10482 0.60391 0.0
H2470 H 0.00887 0.97113 0.40744 0.0
H2471 H 0.01114 0.09013 0.54053 0.0
H2472 H 0.11706 0.08982 0.56256 0.0
H2473 H 0.9894 0.10862 0.57318 0.0
H2474 H 0.08607 0.96408 0.39527 0.0
H2475 H 0.11705 0.11512 0.64034 0.0
H2476 H 0.08007 0.12145 0.65686 0.0
H2477 H 0.12178 0.97052 0.42438 0.0
H2478 H 0.03951 0.12305 0.64845 0.0
N2479 N 0.08369 0.08947 0.5748 0.0
C2480 C 0.10727 0.09354 0.57798 0.0
C2481 C 0.10755 0.10805 0.62209 0.0
C2482 C 0.08375 0.10606 0.61854 0.0
C2483 C 0.11943 0.10234 0.60159 0.0
C2484 C 0.07218 0.09674 0.59434 0.0
H2485 H 0.00587 0.11922 0.61719 0.0
N2486 N 0.0394 0.0902 0.5659 0.0
C2487 C 0.00616 0.10536 0.57812 0.0
C2488 C 0.04934 0.09737 0.58969 0.0
C2489 C 0.01852 0.09498 0.55969 0.0
C2490 C 0.01546 0.11119 0.60294 0.0
C2491 C 0.03749 0.10768 0.60897 0.0
O2492 O 0.04815 0.09964 0.51704 0.0
O2493 O 0.05909 0.04684 0.49758 0.0
O2494 O 0.10016 0.03856 0.49954 0.0
O2495 O 0.09763 0.07702 0.52322 0.0
O2496 O 0.03138 0.06243 0.50487 0.0
O2497 O 0.08326 0.11083 0.53488 0.0
O2498 O 0.08293 0.98473 0.52481 0.0
O2499 O 0.0704 0.03924 0.54801 0.0
O2500 O 0.02944 0.04744 0.54691 0.0
O2501 O 0.03272 0.00887 0.52431 0.0
O2502 O 0.09785 0.02315 0.54169 0.0
O2503 O 0.04634 0.9764 0.51255 0.0
C2504 C 0.03979 0.04941 0.4872 0.0
C2505 C 0.06547 0.14324 0.52551 0.0
C2506 C 0.0726 0.18223 0.5101 0.0
C2507 C 0.07692 0.15839 0.51026 0.0
C2508 C 0.05715 0.19118 0.52571 0.0
C2509 C 0.05016 0.15233 0.54123 0.0
C2510 C 0.04606 0.17629 0.54132 0.0
C2511 C 0.10893 0.06293 0.50893 0.0
C2512 C 0.06737 0.11692 0.52164 0.0
C2513 C 0.04843 0.11539 0.63335 0.0
C2514 C 0.07152 0.11448 0.63814 0.0
C2515 C 0.08937 0.03657 0.55894 0.0
C2516 C 0.06261 0.94177 0.51594 0.0
C2517 C 0.05714 0.92724 0.53391 0.0
C2518 C 0.05473 0.90097 0.52807 0.0
C2519 C 0.05879 0.88948 0.50425 0.0
C2520 C 0.06681 0.93031 0.4923 0.0
C2521 C 0.06505 0.90417 0.48657 0.0
C2522 C 0.02134 0.02254 0.53905 0.0
C2523 C 0.06306 0.96865 0.52257 0.0
H2524 H 0.08852 0.1513 0.4978 0.0
H2525 H 0.05362 0.20959 0.52568 0.0
H2526 H 0.04104 0.14082 0.55297 0.0
H2527 H 0.03402 0.18315 0.55321 0.0
H2528 H 0.05412 0.93626 0.55229 0.0
H2529 H 0.05715 0.8692 0.49941 0.0
H2530 H 0.07123 0.94147 0.47835 0.0
H2531 H 0.06828 0.89523 0.46832 0.0
Eu2532 Eu 0.34054 0.80962 0.76833 0.0
C2533 C 0.27684 0.73626 0.81286 0.0
C2534 C 0.28277 0.69568 0.79228 0.0
C2535 C 0.27329 0.70157 0.8349 0.0
C2536 C 0.28238 0.72113 0.79222 0.0
C2537 C 0.27163 0.72641 0.83423 0.0
C2538 C 0.27879 0.68621 0.81393 0.0
C2539 C 0.26015 0.76487 0.85119 0.0
N2540 N 0.27495 0.76001 0.8114 0.0
C2541 C 0.26498 0.77349 0.82936 0.0
C2542 C 0.26395 0.74143 0.85385 0.0
Eu2543 Eu 0.2855 0.77401 0.77435 0.0
N2544 N 0.28595 0.73079 0.77155 0.0
C2545 C 0.28775 0.71537 0.74973 0.0
C2546 C 0.28654 0.68035 0.77036 0.0
C2547 C 0.2886 0.69013 0.74884 0.0
H2548 H 0.26113 0.79107 0.82696 0.0
H2549 H 0.29039 0.67814 0.73146 0.0
H2550 H 0.27931 0.66683 0.81442 0.0
H2551 H 0.2532 0.77615 0.86578 0.0
H2552 H 0.28756 0.72236 0.73289 0.0
H2553 H 0.36013 0.90617 0.82562 0.0
H2554 H 0.287 0.66074 0.76964 0.0
H2555 H 0.35589 0.79879 0.70812 0.0
H2556 H 0.35745 0.86045 0.81702 0.0
H2557 H 0.35682 0.81889 0.67233 0.0
H2558 H 0.26958 0.69378 0.85124 0.0
H2559 H 0.35184 0.92731 0.79164 0.0
H2560 H 0.3449 0.92484 0.74609 0.0
H2561 H 0.25988 0.73462 0.87063 0.0
H2562 H 0.34403 0.90069 0.70374 0.0
N2563 N 0.34551 0.85463 0.7785 0.0
C2564 C 0.35305 0.86899 0.80188 0.0
C2565 C 0.35018 0.90699 0.78772 0.0
C2566 C 0.34521 0.89281 0.76341 0.0
C2567 C 0.35495 0.89516 0.80691 0.0
C2568 C 0.34342 0.86636 0.75923 0.0
H2569 H 0.3493 0.86152 0.67619 0.0
N2570 N 0.34486 0.82828 0.73226 0.0
C2571 C 0.35234 0.82842 0.68974 0.0
C2572 C 0.343 0.85272 0.73532 0.0
C2573 C 0.35135 0.81692 0.71023 0.0
C2574 C 0.34806 0.85243 0.69199 0.0
C2575 C 0.34422 0.8653 0.71515 0.0
O2576 O 0.37189 0.80327 0.75355 0.0
O2577 O 0.32211 0.76772 0.76674 0.0
O2578 O 0.30595 0.78524 0.81196 0.0
O2579 O 0.32889 0.82212 0.80576 0.0
O2580 O 0.3516 0.78191 0.79028 0.0
O2581 O 0.37425 0.82518 0.79098 0.0
O2582 O 0.25101 0.78066 0.7757 0.0
O2583 O 0.30235 0.81229 0.76392 0.0
O2584 O 0.32707 0.78295 0.73176 0.0
O2585 O 0.28784 0.76968 0.73364 0.0
O2586 O 0.27659 0.81251 0.78635 0.0
O2587 O 0.25633 0.7483 0.74966 0.0
C2588 C 0.33701 0.76081 0.78074 0.0
C2589 C 0.40829 0.82974 0.76961 0.0
C2590 C 0.4497 0.83638 0.77967 0.0
C2591 C 0.42716 0.83073 0.78655 0.0
C2592 C 0.45322 0.84303 0.75655 0.0
C2593 C 0.41217 0.83721 0.74695 0.0
C2594 C 0.43461 0.844 0.74059 0.0
C2595 C 0.31941 0.80772 0.82046 0.0
C2596 C 0.3854 0.81565 0.77341 0.0
C2597 C 0.34347 0.89092 0.71907 0.0
C2598 C 0.34396 0.90468 0.74319 0.0
C2599 C 0.29035 0.82735 0.77538 0.0
C2600 C 0.21884 0.74682 0.76242 0.0
C2601 C 0.1997 0.75289 0.75147 0.0
C2602 C 0.17746 0.74191 0.75624 0.0
C2603 C 0.17428 0.7245 0.77196 0.0
C2604 C 0.2158 0.7294 0.77814 0.0
C2605 C 0.19346 0.7182 0.7828 0.0
C2606 C 0.30591 0.77282 0.72132 0.0
C2607 C 0.24153 0.76089 0.75848 0.0
H2608 H 0.42423 0.82516 0.80415 0.0
H2609 H 0.47047 0.84732 0.75078 0.0
H2610 H 0.39786 0.83657 0.73364 0.0
H2611 H 0.43752 0.84907 0.72283 0.0
H2612 H 0.20208 0.76665 0.7396 0.0
H2613 H 0.15707 0.71596 0.77586 0.0
H2614 H 0.23054 0.72478 0.78696 0.0
H2615 H 0.19102 0.70486 0.79502 0.0
Eu2616 Eu 0.57305 0.03422 0.04894 0.0
C2617 C 0.51044 0.06008 0.96994 0.0
C2618 C 0.48968 0.01786 0.94841 0.0
C2619 C 0.47209 0.05343 0.94814 0.0
C2620 C 0.50964 0.03432 0.96269 0.0
C2621 C 0.49167 0.0698 0.96252 0.0
C2622 C 0.47104 0.02754 0.94125 0.0
C2623 C 0.51296 0.11163 0.98345 0.0
N2624 N 0.52951 0.07574 0.98393 0.0
C2625 C 0.53109 0.10132 0.99039 0.0
C2626 C 0.49315 0.09582 0.96947 0.0
Eu2627 Eu 0.56087 0.05714 0.99148 0.0
N2628 N 0.5282 0.02534 0.96931 0.0
C2629 C 0.52742 0.99999 0.9621 0.0
C2630 C 0.48897 0.99207 0.94144 0.0
C2631 C 0.50789 0.98313 0.94835 0.0
H2632 H 0.54656 0.11412 1.00051 0.0
H2633 H 0.50745 0.96312 0.94317 0.0
H2634 H 0.45575 0.01514 0.93016 0.0
H2635 H 0.51443 0.13186 0.98863 0.0
H2636 H 0.54122 0.99186 0.96728 0.0
H2637 H 0.6366 0.12399 0.08693 0.0
H2638 H 0.47391 0.9789 0.93067 0.0
H2639 H 0.58007 0.9751 0.04799 0.0
H2640 H 0.60392 0.09577 0.05885 0.0
H2641 H 0.60377 0.95381 0.07113 0.0
H2642 H 0.45764 0.06063 0.94222 0.0
H2643 H 0.65933 0.10671 0.11547 0.0
H2644 H 0.66695 0.06871 0.13023 0.0
H2645 H 0.47918 0.10393 0.96393 0.0
H2646 H 0.65817 0.02234 0.1258 0.0
N2647 N 0.60705 0.06261 0.07188 0.0
C2648 C 0.61323 0.08786 0.07146 0.0
C2649 C 0.64476 0.09417 0.10332 0.0
C2650 C 0.63912 0.06813 0.10283 0.0
C2651 C 0.63198 0.10399 0.08724 0.0
C2652 C 0.62002 0.05263 0.08661 0.0
H2653 H 0.63504 0.97933 0.10335 0.0
N2654 N 0.59789 0.01226 0.06674 0.0
C2655 C 0.60718 0.9743 0.07495 0.0
C2656 C 0.61521 0.02658 0.08402 0.0
C2657 C 0.59389 0.98643 0.06177 0.0
C2658 C 0.62474 0.98877 0.09319 0.0
C2659 C 0.62917 0.01526 0.0977 0.0
O2660 O 0.5524 1.00274 0.06073 0.0
O2661 O 0.54554 0.04168 0.02294 0.0
O2662 O 0.55848 0.08669 0.02548 0.0
O2663 O 0.56427 0.0716 0.06188 0.0
O2664 O 0.54126 1.00584 0.0299 0.0
O2665 O 0.55932 0.0402 0.08578 0.0
O2666 O 0.57497 0.09239 0.9795 0.0
O2667 O 0.58795 0.05434 0.01992 0.0
O2668 O 0.5811 1.0072 0.01649 0.0
O2669 O 0.57481 0.022 0.97982 0.0
O2670 O 0.5993 0.07064 0.99116 0.0
O2671 O 0.56035 0.05689 0.95222 0.0
C2672 C 0.53134 0.0205 0.01987 0.0
C2673 C 0.53612 1.00278 0.09894 0.0
C2674 C 0.51732 1.00337 0.13652 0.0
C2675 C 0.53061 0.01637 0.12087 0.0
C2676 C 0.50978 0.97688 0.13055 0.0
C2677 C 0.52849 0.97612 0.09301 0.0
C2678 C 0.51541 0.96329 0.1088 0.0
C2679 C 0.55845 0.0881 0.0498 0.0
C2680 C 0.54954 0.01592 0.0819 0.0
C2681 C 0.64742 0.03067 0.11489 0.0
C2682 C 0.6524 0.05707 0.11743 0.0
C2683 C 0.6062 0.0643 0.01104 0.0
C2684 C 0.5828 0.09099 0.93751 0.0
C2685 C 0.59824 0.07795 0.92612 0.0
C2686 C 0.60772 0.08482 0.90512 0.0
C2687 C 0.60282 0.10562 0.89649 0.0
C2688 C 0.57798 0.11181 0.92892 0.0
C2689 C 0.58814 0.11921 0.90855 0.0
C2690 C 0.58226 1.00655 0.99248 0.0
C2691 C 0.5691 0.08143 0.95608 0.0
H2692 H 0.53627 0.03688 0.12563 0.0
H2693 H 0.49945 0.96681 0.14267 0.0
H2694 H 0.53257 0.96509 0.07615 0.0
H2695 H 0.50957 0.94283 0.10412 0.0
H2696 H 0.60189 0.06175 0.93264 0.0
H2697 H 0.61017 0.11111 0.88028 0.0
H2698 H 0.56582 0.12182 0.93751 0.0
H2699 H 0.58419 0.13509 0.90173 0.0
Eu2700 Eu 0.33458 0.32622 0.28577 0.0
C2701 C 0.24111 0.24646 0.24237 0.0
C2702 C 0.21953 0.24433 0.27812 0.0
C2703 C 0.19966 0.2274 0.23672 0.0
C2704 C 0.24072 0.25089 0.26794 0.0
C2705 C 0.22058 0.23409 0.22656 0.0
C2706 C 0.1991 0.23268 0.26242 0.0
C2707 C 0.24304 0.23307 0.19171 0.0
N2708 N 0.26162 0.25279 0.23293 0.0
C2709 C 0.26283 0.24526 0.20797 0.0
C2710 C 0.22176 0.22768 0.201 0.0
Eu2711 Eu 0.29528 0.26424 0.26185 0.0
N2712 N 0.26095 0.26099 0.28285 0.0
C2713 C 0.26061 0.26633 0.30812 0.0
C2714 C 0.21942 0.24924 0.30387 0.0
C2715 C 0.23999 0.26065 0.3189 0.0
H2716 H 0.27923 0.2485 0.20028 0.0
H2717 H 0.24004 0.26504 0.33888 0.0
H2718 H 0.18281 0.22729 0.26999 0.0
H2719 H 0.24433 0.22751 0.17203 0.0
H2720 H 0.27589 0.27569 0.32051 0.0
H2721 H 0.383 0.32613 0.20292 0.0
H2722 H 0.20353 0.24438 0.31232 0.0
H2723 H 0.35699 0.33684 0.34608 0.0
H2724 H 0.34906 0.31749 0.22432 0.0
H2725 H 0.39403 0.35051 0.37096 0.0
H2726 H 0.18384 0.2178 0.22485 0.0
H2727 H 0.42167 0.3411 0.22625 0.0
H2728 H 0.44595 0.35296 0.2667 0.0
H2729 H 0.20646 0.2179 0.18838 0.0
H2730 H 0.44899 0.35891 0.31205 0.0
N2731 N 0.36687 0.32854 0.26111 0.0
C2732 C 0.36517 0.32486 0.23567 0.0
C2733 C 0.40653 0.33749 0.23617 0.0
C2734 C 0.40856 0.34061 0.26194 0.0
C2735 C 0.38476 0.32927 0.22299 0.0
C2736 C 0.38826 0.3356 0.27408 0.0
H2737 H 0.42997 0.35783 0.35075 0.0
N2738 N 0.37046 0.33277 0.31095 0.0
C2739 C 0.39331 0.34644 0.3509 0.0
C2740 C 0.39008 0.33794 0.29961 0.0
C2741 C 0.37204 0.33787 0.33642 0.0
C2742 C 0.41348 0.35072 0.33945 0.0
C2743 C 0.4121 0.34669 0.3136 0.0
O2744 O 0.33266 0.35364 0.31901 0.0
O2745 O 0.29874 0.30215 0.28569 0.0
O2746 O 0.29548 0.2891 0.23162 0.0
O2747 O 0.32093 0.32861 0.24725 0.0
O2748 O 0.301 0.33837 0.27997 0.0
O2749 O 0.3477 0.36666 0.28755 0.0
O2750 O 0.30209 0.23675 0.23121 0.0
O2751 O 0.33057 0.2887 0.26151 0.0
O2752 O 0.33279 0.30178 0.31605 0.0
O2753 O 0.30606 0.26284 0.30191 0.0
O2754 O 0.32892 0.25325 0.26933 0.0
O2755 O 0.28271 0.22372 0.26036 0.0
C2756 C 0.28688 0.31764 0.28169 0.0
C2757 C 0.32904 0.39362 0.31377 0.0
C2758 C 0.30871 0.42155 0.29782 0.0
C2759 C 0.32159 0.40323 0.29387 0.0
C2760 C 0.30388 0.4311 0.32187 0.0
C2761 C 0.3242 0.4032 0.33787 0.0
C2762 C 0.31173 0.42197 0.34188 0.0
C2763 C 0.30592 0.31263 0.22938 0.0
C2764 C 0.34124 0.37316 0.30965 0.0
C2765 C 0.43208 0.35206 0.30155 0.0
C2766 C 0.43033 0.34881 0.27577 0.0
C2767 C 0.3425 0.27357 0.26592 0.0
C2768 C 0.30209 0.19585 0.23632 0.0
C2769 C 0.31121 0.18853 0.25688 0.0
C2770 C 0.32179 0.16822 0.25339 0.0
C2771 C 0.32317 0.15498 0.22937 0.0
C2772 C 0.30352 0.18271 0.21224 0.0
C2773 C 0.31403 0.16229 0.20881 0.0
C2774 C 0.32065 0.2796 0.31968 0.0
C2775 C 0.29129 0.21728 0.23941 0.0
H2776 H 0.32525 0.39618 0.27518 0.0
H2777 H 0.29402 0.44548 0.32506 0.0
H2778 H 0.32992 0.39602 0.35353 0.0
H2779 H 0.308 0.42929 0.36045 0.0
H2780 H 0.31033 0.19865 0.27555 0.0
H2781 H 0.33133 0.13912 0.22663 0.0
H2782 H 0.29653 0.18831 0.19614 0.0
H2783 H 0.31511 0.15217 0.19025 0.0
Eu2784 Eu 0.56039 0.56884 0.03048 0.0
C2785 C 0.57677 0.49946 0.95125 0.0
C2786 C 0.54052 0.47554 0.9275 0.0
C2787 C 0.57406 0.48809 0.90601 0.0
C2788 C 0.55336 0.48841 0.9505 0.0
C2789 C 0.58746 0.4983 0.92891 0.0
C2790 C 0.55064 0.47665 0.90531 0.0
C2791 C 0.62453 0.51115 0.95317 0.0
N2792 N 0.58965 0.50772 0.9737 0.0
C2793 C 0.61331 0.51135 0.97465 0.0
C2794 C 0.61156 0.50534 0.93019 0.0
Eu2795 Eu 0.56818 0.5091 0.00935 0.0
N2796 N 0.54403 0.48693 0.97226 0.0
C2797 C 0.52363 0.46955 0.97225 0.0
C2798 C 0.51857 0.46003 0.9275 0.0
C2799 C 0.51045 0.45633 0.94999 0.0
H2800 H 0.624 0.51382 0.99184 0.0
H2801 H 0.494 0.44335 0.95023 0.0
H2802 H 0.54088 0.46726 0.88755 0.0
H2803 H 0.6432 0.51476 0.95435 0.0
H2804 H 0.5171 0.46577 0.98933 0.0
H2805 H 0.63523 0.60197 0.10064 0.0
H2806 H 0.50835 0.44968 0.91027 0.0
H2807 H 0.50643 0.57662 0.03432 0.0
H2808 H 0.61448 0.58343 0.05925 0.0
H2809 H 0.48296 0.59382 0.06582 0.0
H2810 H 0.582 0.48736 0.88878 0.0
H2811 H 0.61402 0.61756 0.1352 0.0
H2812 H 0.57671 0.62541 0.1498 0.0
H2813 H 0.62032 0.50448 0.9135 0.0
H2814 H 0.53536 0.62313 0.14037 0.0
N2815 N 0.58157 0.58645 0.07008 0.0
C2816 C 0.6049 0.5893 0.07412 0.0
C2817 C 0.60478 0.60904 0.117 0.0
C2818 C 0.58108 0.60731 0.11252 0.0
C2819 C 0.61678 0.60019 0.09761 0.0
C2820 C 0.56984 0.59591 0.08849 0.0
H2821 H 0.50035 0.61151 0.10916 0.0
N2822 N 0.53638 0.58357 0.05988 0.0
C2823 C 0.50077 0.59388 0.07103 0.0
C2824 C 0.54653 0.59435 0.08326 0.0
C2825 C 0.51405 0.58413 0.05328 0.0
C2826 C 0.51064 0.60387 0.09546 0.0
C2827 C 0.53387 0.6045 0.1018 0.0
O2828 O 0.54651 0.59573 0.01363 0.0
O2829 O 0.55912 0.54168 0.99286 0.0
O2830 O 0.60418 0.5367 0.01774 0.0
O2831 O 0.59469 0.5738 0.01397 0.0
O2832 O 0.53061 0.55592 0.99924 0.0
O2833 O 0.58178 0.60684 0.031 0.0
O2834 O 0.59111 0.48296 0.00809 0.0
O2835 O 0.5791 0.54056 0.04432 0.0
O2836 O 0.53085 0.54229 0.04428 0.0
O2837 O 0.52985 0.50651 0.01492 0.0
O2838 O 0.56422 0.50558 0.04983 0.0
O2839 O 0.55543 0.47036 0.01405 0.0
C2840 C 0.53976 0.54346 0.98184 0.0
C2841 C 0.56391 0.63952 0.02301 0.0
C2842 C 0.57186 0.67954 0.00943 0.0
C2843 C 0.57499 0.65497 0.00778 0.0
C2844 C 0.55779 0.6888 0.02666 0.0
C2845 C 0.54981 0.64877 0.04019 0.0
C2846 C 0.54684 0.67344 0.04201 0.0
C2847 C 0.61004 0.56004 0.01375 0.0
C2848 C 0.56565 0.61317 0.01841 0.0
C2849 C 0.54485 0.61539 0.12586 0.0
C2850 C 0.5684 0.61675 0.13122 0.0
C2851 C 0.57455 0.52801 0.06188 0.0
C2852 C 0.58146 0.44879 0.02946 0.0
C2853 C 0.56406 0.43042 0.03644 0.0
C2854 C 0.56991 0.41417 0.05115 0.0
C2855 C 0.5932 0.41627 0.05891 0.0
C2856 C 0.60473 0.45039 0.03716 0.0
C2857 C 0.6105 0.43434 0.05197 0.0
C2858 C 0.52012 0.51915 0.03245 0.0
C2859 C 0.57524 0.4644 0.01236 0.0
H2860 H 0.58559 0.6477 0.99417 0.0
H2861 H 0.55517 0.70778 0.02804 0.0
H2862 H 0.54087 0.63686 0.0518 0.0
H2863 H 0.53583 0.68056 0.05513 0.0
H2864 H 0.54603 0.42842 0.03018 0.0
H2865 H 0.59796 0.40377 0.0702 0.0
H2866 H 0.61852 0.46379 0.03148 0.0
H2867 H 0.62846 0.43572 0.05784 0.0
Eu2868 Eu 0.84001 0.30986 0.26542 0.0
C2869 C 0.77875 0.2368 0.31431 0.0
C2870 C 0.78444 0.19561 0.29479 0.0
C2871 C 0.77156 0.20176 0.33597 0.0
C2872 C 0.78479 0.22112 0.29412 0.0
C2873 C 0.77131 0.22691 0.33505 0.0
C2874 C 0.77826 0.18622 0.31598 0.0
C2875 C 0.76179 0.26672 0.35159 0.0
N2876 N 0.77887 0.26122 0.31318 0.0
C2877 C 0.76953 0.27582 0.33083 0.0
C2878 C 0.763 0.24229 0.35388 0.0
Eu2879 Eu 0.78885 0.27338 0.27565 0.0
N2880 N 0.79019 0.23043 0.27354 0.0
C2881 C 0.7945 0.21491 0.25274 0.0
C2882 C 0.78985 0.18005 0.27395 0.0
C2883 C 0.79473 0.18971 0.25279 0.0
H2884 H 0.76848 0.29469 0.32897 0.0
H2885 H 0.79864 0.17774 0.23644 0.0
H2886 H 0.77802 0.16673 0.31683 0.0
H2887 H 0.75492 0.27853 0.3658 0.0
H2888 H 0.79826 0.22176 0.23606 0.0
H2889 H 0.83616 0.40622 0.31117 0.0
H2890 H 0.78991 0.16044 0.27385 0.0
H2891 H 0.85512 0.28928 0.20866 0.0
H2892 H 0.83522 0.36174 0.30913 0.0
H2893 H 0.86757 0.30708 0.17238 0.0
H2894 H 0.76614 0.19396 0.35187 0.0
H2895 H 0.84318 0.42493 0.27431 0.0
H2896 H 0.8525 0.41992 0.23047 0.0
H2897 H 0.757 0.2353 0.36999 0.0
H2898 H 0.86142 0.39331 0.19309 0.0
N2899 N 0.84068 0.35372 0.27066 0.0
C2900 C 0.83806 0.36891 0.29251 0.0
C2901 C 0.84252 0.40497 0.27305 0.0
C2902 C 0.84613 0.38976 0.25101 0.0
C2903 C 0.83864 0.39452 0.29391 0.0
C2904 C 0.84492 0.36377 0.2502 0.0
H2905 H 0.86768 0.35168 0.17163 0.0
N2906 N 0.84803 0.32345 0.22803 0.0
C2907 C 0.86225 0.31882 0.18794 0.0
C2908 C 0.84921 0.34845 0.22862 0.0
C2909 C 0.85515 0.30881 0.20843 0.0
C2910 C 0.86227 0.344 0.1876 0.0
C2911 C 0.85582 0.35918 0.20806 0.0
O2912 O 0.87055 0.2972 0.25557 0.0
O2913 O 0.82322 0.26704 0.26205 0.0
O2914 O 0.81052 0.28653 0.31338 0.0
O2915 O 0.83686 0.3203 0.30552 0.0
O2916 O 0.85364 0.28124 0.28414 0.0
O2917 O 0.87468 0.33435 0.28006 0.0
O2918 O 0.7551 0.28175 0.28016 0.0
O2919 O 0.80565 0.31643 0.27935 0.0
O2920 O 0.81618 0.29989 0.22938 0.0
O2921 O 0.79436 0.263 0.2359 0.0
O2922 O 0.77421 0.30261 0.25925 0.0
O2923 O 0.75757 0.24587 0.25726 0.0
C2924 C 0.83901 0.26023 0.27489 0.0
C2925 C 0.90833 0.32345 0.26194 0.0
C2926 C 0.94931 0.32974 0.27457 0.0
C2927 C 0.9269 0.33044 0.28066 0.0
C2928 C 0.95324 0.32352 0.24955 0.0
C2929 C 0.9126 0.31736 0.23699 0.0
C2930 C 0.93499 0.31772 0.23086 0.0
C2931 C 0.82821 0.30619 0.32084 0.0
C2932 C 0.88481 0.31712 0.26916 0.0
C2933 C 0.85657 0.38486 0.20879 0.0
C2934 C 0.85153 0.40003 0.2301 0.0
C2935 C 0.78931 0.32346 0.26756 0.0
C2936 C 0.72085 0.24923 0.27042 0.0
C2937 C 0.7025 0.25605 0.2586 0.0
C2938 C 0.67973 0.24586 0.26252 0.0
C2939 C 0.67536 0.22894 0.27866 0.0
C2940 C 0.71652 0.23228 0.28648 0.0
C2941 C 0.69373 0.2222 0.29059 0.0
C2942 C 0.79979 0.27924 0.22155 0.0
C2943 C 0.74411 0.2606 0.26544 0.0
H2944 H 0.92375 0.33465 0.30001 0.0
H2945 H 0.97043 0.32288 0.24454 0.0
H2946 H 0.89863 0.31115 0.22227 0.0
H2947 H 0.93809 0.31262 0.21163 0.0
H2948 H 0.70588 0.26925 0.24622 0.0
H2949 H 0.65778 0.22098 0.28194 0.0
H2950 H 0.73059 0.2269 0.29574 0.0
H2951 H 0.69031 0.20913 0.30301 0.0
Eu2952 Eu 0.07006 0.53469 0.55006 0.0
C2953 C 0.00782 0.55276 0.46347 0.0
C2954 C 0.98539 0.50992 0.44766 0.0
C2955 C 0.97216 0.54505 0.4362 0.0
C2956 C 1.00529 0.52705 0.46137 0.0
C2957 C 0.99125 0.56207 0.45087 0.0
C2958 C 0.96913 0.51902 0.43476 0.0
C2959 C 0.01373 0.60445 0.4677 0.0
N2960 N 0.02646 0.56872 0.47778 0.0
C2961 C 0.0296 0.59434 0.47975 0.0
C2962 C 0.99448 0.58823 0.45308 0.0
Eu2963 Eu 0.05691 0.55067 0.49057 0.0
N2964 N 0.0218 0.51884 0.4734 0.0
C2965 C 0.01774 0.49361 0.47433 0.0
C2966 C 0.98214 0.48414 0.4476 0.0
C2967 C 0.99815 0.47606 0.46148 0.0
H2968 H 0.04503 0.60716 0.48952 0.0
H2969 H 0.99543 0.45624 0.46235 0.0
H2970 H 0.95404 0.50608 0.42381 0.0
H2971 H 0.01671 0.62474 0.46919 0.0
H2972 H 0.02901 0.48639 0.48527 0.0
H2973 H 0.13537 0.62605 0.58078 0.0
H2974 H 0.96705 0.47045 0.43748 0.0
H2975 H 0.07889 0.47663 0.54943 0.0
H2976 H 0.10181 0.59748 0.55577 0.0
H2977 H 0.10544 0.45663 0.56964 0.0
H2978 H 0.95948 0.55186 0.42615 0.0
H2979 H 0.16092 0.60983 0.60724 0.0
H2980 H 0.17116 0.57263 0.62076 0.0
H2981 H 0.98234 0.59607 0.44344 0.0
H2982 H 0.16354 0.52645 0.617 0.0
N2983 N 0.10569 0.56451 0.56911 0.0
C2984 C 0.11162 0.58967 0.56784 0.0
C2985 C 0.14565 0.59698 0.59653 0.0
C2986 C 0.14082 0.57106 0.59631 0.0
C2987 C 0.13125 0.6062 0.58173 0.0
C2988 C 0.12071 0.55509 0.58193 0.0
H2989 H 0.1396 0.48315 0.5974 0.0
N2990 N 0.09825 0.51442 0.56399 0.0
C2991 C 0.109 0.47709 0.5724 0.0
C2992 C 0.11681 0.5292 0.57932 0.0
C2993 C 0.0941 0.48859 0.56063 0.0
C2994 C 0.12816 0.49209 0.58814 0.0
C2995 C 0.13235 0.51847 0.59171 0.0
O2996 O 0.0489 0.49986 0.55733 0.0
O2997 O 0.0421 0.53185 0.51979 0.0
O2998 O 0.05638 0.58403 0.52277 0.0
O2999 O 0.06467 0.57366 0.56104 0.0
O3000 O 0.03558 0.54383 0.55614 0.0
O3001 O 0.06259 0.53307 0.58797 0.0
O3002 O 0.07552 0.58574 0.48105 0.0
O3003 O 0.0844 0.55399 0.52119 0.0
O3004 O 0.07177 0.5025 0.51761 0.0
O3005 O 0.06513 0.51294 0.47893 0.0
O3006 O 0.09325 0.54539 0.48554 0.0
O3007 O 0.05962 0.55228 0.45177 0.0
C3008 C 0.02725 0.5389 0.53318 0.0
C3009 C 0.03853 0.49577 0.5984 0.0
C3010 C 0.01895 0.49648 0.63554 0.0
C3011 C 0.03278 0.50926 0.62025 0.0
C3012 C 0.01157 0.46996 0.62962 0.0
C3013 C 0.03101 0.46921 0.5923 0.0
C3014 C 0.01774 0.45635 0.60806 0.0
C3015 C 0.05897 0.58923 0.5476 0.0
C3016 C 0.04994 0.50984 0.5809 0.0
C3017 C 0.15161 0.53433 0.60713 0.0
C3018 C 0.15588 0.5606 0.60935 0.0
C3019 C 0.10042 0.54879 0.50875 0.0
C3020 C 0.08413 0.58728 0.43951 0.0
C3021 C 0.09894 0.57453 0.42651 0.0
C3022 C 0.10877 0.58349 0.40653 0.0
C3023 C 0.1049 0.60597 0.40065 0.0
C3024 C 0.08042 0.60982 0.43374 0.0
C3025 C 0.09093 0.61924 0.41444 0.0
C3026 C 0.07112 0.49794 0.49289 0.0
C3027 C 0.07038 0.5763 0.45732 0.0
H3028 H 0.03796 0.52982 0.6248 0.0
H3029 H 1.00077 0.45995 0.64143 0.0
H3030 H 0.03506 0.45848 0.57524 0.0
H3031 H 0.01183 0.43591 0.6033 0.0
H3032 H 0.10182 0.55709 0.43096 0.0
H3033 H 0.11253 0.61306 0.38526 0.0
H3034 H 0.06887 0.61974 0.44373 0.0
H3035 H 0.08782 0.63647 0.40979 0.0
Eu3036 Eu 0.78508 0.79883 0.27186 0.0
C3037 C 0.86697 0.76405 0.31496 0.0
C3038 C 0.87956 0.79764 0.3516 0.0
C3039 C 0.88703 0.75617 0.35137 0.0
C3040 C 0.86862 0.78875 0.3271 0.0
C3041 C 0.87656 0.7476 0.32682 0.0
C3042 C 0.88849 0.78114 0.36374 0.0
C3043 C 0.86661 0.71612 0.28859 0.0
N3044 N 0.85684 0.75636 0.29122 0.0
C3045 C 0.85757 0.7332 0.27757 0.0
C3046 C 0.87591 0.72324 0.31343 0.0
Eu3047 Eu 0.84299 0.78678 0.2733 0.0
N3048 N 0.8598 0.80422 0.31488 0.0
C3049 C 0.86173 0.82898 0.32605 0.0
C3050 C 0.88134 0.82291 0.36313 0.0
C3051 C 0.87245 0.83868 0.35023 0.0
H3052 H 0.85117 0.72804 0.25811 0.0
H3053 H 0.87344 0.85818 0.35903 0.0
H3054 H 0.89683 0.78759 0.38258 0.0
H3055 H 0.86671 0.69762 0.27783 0.0
H3056 H 0.85383 0.84103 0.31697 0.0
H3057 H 0.73132 0.71793 0.20265 0.0
H3058 H 0.88948 0.83041 0.38196 0.0
H3059 H 0.77954 0.85923 0.27491 0.0
H3060 H 0.74938 0.73988 0.24397 0.0
H3061 H 0.77048 0.88593 0.24659 0.0
H3062 H 0.89438 0.74377 0.36082 0.0
H3063 H 0.73168 0.74107 0.16848 0.0
H3064 H 0.73953 0.78266 0.15525 0.0
H3065 H 0.88313 0.71007 0.32187 0.0
H3066 H 0.74988 0.82913 0.16745 0.0
N3067 N 0.76309 0.77528 0.2335 0.0
C3068 C 0.75107 0.75043 0.2294 0.0
C3069 C 0.74031 0.7509 0.18665 0.0
C3070 C 0.75003 0.77696 0.19165 0.0
C3071 C 0.74007 0.73779 0.20587 0.0
C3072 C 0.76107 0.78891 0.21569 0.0
H3073 H 0.76015 0.8677 0.20177 0.0
N3074 N 0.77536 0.82605 0.24635 0.0
C3075 C 0.76987 0.86614 0.23941 0.0
C3076 C 0.76731 0.81512 0.22237 0.0
C3077 C 0.77505 0.85084 0.25539 0.0
C3078 C 0.76418 0.85581 0.21413 0.0
C3079 C 0.76214 0.82987 0.20542 0.0
O3080 O 0.77163 0.82467 0.29889 0.0
O3081 O 0.81796 0.80349 0.29666 0.0
O3082 O 0.81828 0.74872 0.27791 0.0
O3083 O 0.7812 0.75557 0.27179 0.0
O3084 O 0.78714 0.78668 0.30837 0.0
O3085 O 0.74802 0.78946 0.27905 0.0
O3086 O 0.86217 0.77895 0.24089 0.0
O3087 O 0.81342 0.79156 0.24852 0.0
O3088 O 0.81227 0.83817 0.27338 0.0
O3089 O 0.84818 0.82869 0.27048 0.0
O3090 O 0.82678 0.76003 0.23749 0.0
O3091 O 0.87948 0.80622 0.27276 0.0
C3092 C 0.80895 0.79474 0.31469 0.0
C3093 C 0.73193 0.81854 0.3097 0.0
C3094 C 0.69561 0.81096 0.32971 0.0
C3095 C 0.71216 0.80147 0.31535 0.0
C3096 C 0.699 0.83729 0.33769 0.0
C3097 C 0.73439 0.84471 0.31815 0.0
C3098 C 0.71809 0.85392 0.33189 0.0
C3099 C 0.79517 0.74022 0.27512 0.0
C3100 C 0.75075 0.81025 0.29586 0.0
C3101 C 0.75342 0.81805 0.18084 0.0
C3102 C 0.74749 0.79159 0.17391 0.0
C3103 C 0.81241 0.77256 0.23087 0.0
C3104 C 0.9032 0.7864 0.24559 0.0
C3105 C 0.91814 0.79613 0.22866 0.0
C3106 C 0.9384 0.78719 0.22386 0.0
C3107 C 0.94312 0.76832 0.2358 0.0
C3108 C 0.90897 0.76804 0.25755 0.0
C3109 C 0.92858 0.75889 0.25247 0.0
C3110 C 0.83522 0.84547 0.27186 0.0
C3111 C 0.88146 0.79485 0.25037 0.0
H3112 H 0.70985 0.78121 0.30904 0.0
H3113 H 0.68668 0.84507 0.34852 0.0
H3114 H 0.74907 0.85825 0.31409 0.0
H3115 H 0.72032 0.87416 0.33819 0.0
H3116 H 0.91414 0.81055 0.21945 0.0
H3117 H 0.95837 0.76106 0.2324 0.0
H3118 H 0.89838 0.76078 0.27093 0.0
H3119 H 0.93263 0.74451 0.26169 0.0
Eu3120 Eu 0.83124 0.28503 0.74806 0.0
C3121 C 0.79086 0.35777 0.82039 0.0
C3122 C 0.82429 0.38208 0.84876 0.0
C3123 C 0.79154 0.40044 0.84304 0.0
C3124 C 0.81285 0.35971 0.83147 0.0
C3125 C 0.77971 0.37787 0.82687 0.0
C3126 C 0.81378 0.40255 0.85393 0.0
C3127 C 0.74446 0.35055 0.80477 0.0
N3128 N 0.77951 0.33554 0.80518 0.0
C3129 C 0.75612 0.33126 0.79888 0.0
C3130 C 0.75646 0.3742 0.81828 0.0
Eu3131 Eu 0.79898 0.3018 0.79988 0.0
N3132 N 0.82261 0.33947 0.82646 0.0
C3133 C 0.84379 0.3408 0.83838 0.0
C3134 C 0.84573 0.3831 0.86101 0.0
C3135 C 0.85545 0.36231 0.85587 0.0
H3136 H 0.74624 0.31286 0.78891 0.0
H3137 H 0.87226 0.36301 0.86492 0.0
H3138 H 0.82244 0.41983 0.86697 0.0
H3139 H 0.72616 0.34706 0.79901 0.0
H3140 H 0.85272 0.32611 0.83403 0.0
H3141 H 0.75427 0.21359 0.69871 0.0
H3142 H 0.85493 0.39984 0.87443 0.0
H3143 H 0.88587 0.27899 0.75291 0.0
H3144 H 0.7748 0.25069 0.72963 0.0
H3145 H 0.90999 0.25255 0.73134 0.0
H3146 H 0.78327 0.41603 0.84801 0.0
H3147 H 0.77593 0.18776 0.67214 0.0
H3148 H 0.81411 0.17965 0.661 0.0
H3149 H 0.74731 0.38907 0.82306 0.0
H3150 H 0.85642 0.18997 0.67008 0.0
N3151 N 0.80863 0.24639 0.72192 0.0
C3152 C 0.78493 0.23969 0.71879 0.0
C3153 C 0.78525 0.2041 0.68598 0.0
C3154 C 0.80939 0.21057 0.68938 0.0
C3155 C 0.77298 0.21854 0.701 0.0
C3156 C 0.8207 0.23192 0.70783 0.0
H3157 H 0.89216 0.21647 0.69683 0.0
N3158 N 0.85441 0.25705 0.73211 0.0
C3159 C 0.89152 0.24794 0.72614 0.0
C3160 C 0.84439 0.23748 0.7131 0.0
C3161 C 0.87773 0.26263 0.73858 0.0
C3162 C 0.88143 0.22772 0.70658 0.0
C3163 C 0.85758 0.22219 0.69987 0.0
O3164 O 0.86142 0.30537 0.73379 0.0
O3165 O 0.82041 0.31611 0.77258 0.0
O3166 O 0.77857 0.30768 0.76494 0.0
O3167 O 0.79739 0.29306 0.73172 0.0
O3168 O 0.85564 0.32065 0.76921 0.0
O3169 O 0.82701 0.30043 0.71511 0.0
O3170 O 0.76557 0.28675 0.81142 0.0
O3171 O 0.81133 0.27008 0.77757 0.0
O3172 O 0.85436 0.28163 0.78243 0.0
O3173 O 0.83088 0.28716 0.8144 0.0
O3174 O 0.77652 0.26344 0.78189 0.0
O3175 O 0.79558 0.3008 0.8389 0.0
C3176 C 0.83994 0.33125 0.77831 0.0
C3177 C 0.85836 0.30716 0.6914 0.0
C3178 C 0.86108 0.32271 0.65364 0.0
C3179 C 0.85277 0.32303 0.6766 0.0
C3180 C 0.87526 0.30646 0.64514 0.0
C3181 C 0.87268 0.29085 0.6833 0.0
C3182 C 0.8811 0.29053 0.66011 0.0
C3183 C 0.77991 0.30221 0.74051 0.0
C3184 C 0.84919 0.30929 0.71528 0.0
C3185 C 0.84655 0.20173 0.68065 0.0
C3186 C 0.82248 0.1959 0.67544 0.0
C3187 C 0.79284 0.253 0.77427 0.0
C3188 C 0.76207 0.27354 0.84925 0.0
C3189 C 0.77514 0.26528 0.86642 0.0
C3190 C 0.76405 0.24854 0.88031 0.0
C3191 C 0.73992 0.23988 0.87714 0.0
C3192 C 0.73784 0.26504 0.84619 0.0
C3193 C 0.72683 0.24816 0.86005 0.0
C3194 C 0.85058 0.28189 0.80621 0.0
C3195 C 0.77321 0.29147 0.83481 0.0
H3196 H 0.8418 0.33577 0.68293 0.0
H3197 H 0.88173 0.30621 0.62718 0.0
H3198 H 0.87743 0.2786 0.6947 0.0
H3199 H 0.89213 0.27799 0.65379 0.0
H3200 H 0.79383 0.27176 0.86912 0.0
H3201 H 0.73131 0.22688 0.88799 0.0
H3202 H 0.72744 0.2715 0.83311 0.0
H3203 H 0.70819 0.24162 0.85764 0.0
Eu3204 Eu 0.83507 0.826 0.78591 0.0
C3205 C 0.74248 0.74607 0.74242 0.0
C3206 C 0.72027 0.74481 0.77781 0.0
C3207 C 0.70097 0.72736 0.73623 0.0
C3208 C 0.74168 0.75104 0.76797 0.0
C3209 C 0.72213 0.73356 0.72639 0.0
C3210 C 0.70002 0.73313 0.76184 0.0
C3211 C 0.74525 0.73114 0.69207 0.0
N3212 N 0.76323 0.75186 0.73326 0.0
C3213 C 0.76486 0.74351 0.70853 0.0
C3214 C 0.72373 0.72641 0.70097 0.0
Eu3215 Eu 0.79629 0.76364 0.76288 0.0
N3216 N 0.76172 0.7612 0.7832 0.0
C3217 C 0.76104 0.76684 0.80841 0.0
C3218 C 0.7198 0.75 0.80351 0.0
C3219 C 0.7402 0.76147 0.81883 0.0
H3220 H 0.78147 0.74629 0.70125 0.0
H3221 H 0.73995 0.76606 0.83877 0.0
H3222 H 0.68355 0.72805 0.76917 0.0
H3223 H 0.74685 0.72495 0.67255 0.0
H3224 H 0.77623 0.77611 0.82097 0.0
H3225 H 0.88189 0.82158 0.70176 0.0
H3226 H 0.70375 0.74527 0.8117 0.0
H3227 H 0.85881 0.83619 0.84583 0.0
H3228 H 0.84877 0.8117 0.72445 0.0
H3229 H 0.89599 0.85432 0.87001 0.0
H3230 H 0.68527 0.71768 0.72418 0.0
H3231 H 0.92025 0.84319 0.72409 0.0
H3232 H 0.94483 0.86127 0.76426 0.0
H3233 H 0.70857 0.71649 0.6882 0.0
H3234 H 0.94873 0.86957 0.8098 0.0
N3235 N 0.86684 0.82841 0.76055 0.0
C3236 C 0.86479 0.82178 0.7351 0.0
C3237 C 0.9055 0.83898 0.73446 0.0
C3238 C 0.90797 0.84469 0.76034 0.0
C3239 C 0.88389 0.82694 0.72182 0.0
C3240 C 0.88822 0.83856 0.77306 0.0
H3241 H 0.9309 0.86654 0.84908 0.0
N3242 N 0.87161 0.8349 0.81038 0.0
C3243 C 0.89489 0.85055 0.84993 0.0
C3244 C 0.89063 0.84215 0.79866 0.0
C3245 C 0.87364 0.83951 0.83584 0.0
C3246 C 0.91447 0.85758 0.83808 0.0
C3247 C 0.91257 0.85341 0.81221 0.0
O3248 O 0.83222 0.85277 0.81935 0.0
O3249 O 0.79937 0.80179 0.78596 0.0
O3250 O 0.79657 0.78798 0.73191 0.0
O3251 O 0.82166 0.82789 0.74713 0.0
O3252 O 0.80145 0.83764 0.77908 0.0
O3253 O 0.84755 0.86655 0.78832 0.0
O3254 O 0.80272 0.73426 0.73374 0.0
O3255 O 0.83147 0.78819 0.76257 0.0
O3256 O 0.83399 0.80214 0.81657 0.0
O3257 O 0.80687 0.76337 0.80327 0.0
O3258 O 0.83011 0.75297 0.77028 0.0
O3259 O 0.78311 0.72371 0.7637 0.0
C3260 C 0.78745 0.81699 0.78128 0.0
C3261 C 0.82831 0.8928 0.81436 0.0
C3262 C 0.8076 0.92025 0.79819 0.0
C3263 C 0.82002 0.90154 0.79426 0.0
C3264 C 0.80382 0.93088 0.82234 0.0
C3265 C 0.82446 0.90334 0.83856 0.0
C3266 C 0.81229 0.9224 0.84251 0.0
C3267 C 0.80676 0.81156 0.72937 0.0
C3268 C 0.84073 0.87257 0.81032 0.0
C3269 C 0.9319 0.86064 0.79965 0.0
C3270 C 0.92965 0.85607 0.77376 0.0
C3271 C 0.84366 0.77343 0.7672 0.0
C3272 C 0.79995 0.6931 0.74016 0.0
C3273 C 0.8147 0.6896 0.75909 0.0
C3274 C 0.82237 0.66721 0.75633 0.0
C3275 C 0.81585 0.64864 0.73435 0.0
C3276 C 0.79345 0.67459 0.71816 0.0
C3277 C 0.80145 0.65242 0.71525 0.0
C3278 C 0.82164 0.7803 0.82071 0.0
C3279 C 0.79104 0.71581 0.74275 0.0
H3280 H 0.82287 0.89369 0.77548 0.0
H3281 H 0.79431 0.94559 0.82548 0.0
H3282 H 0.83082 0.89679 0.85435 0.0
H3283 H 0.80937 0.93053 0.86116 0.0
H3284 H 0.81986 0.70389 0.77608 0.0
H3285 H 0.82184 0.63128 0.73207 0.0
H3286 H 0.78212 0.67728 0.70329 0.0
H3287 H 0.79638 0.63813 0.69829 0.0
Eu3288 Eu 0.53797 0.52731 0.50792 0.0
C3289 C 0.61146 0.61874 0.56614 0.0
C3290 C 0.62002 0.64325 0.53434 0.0
C3291 C 0.62842 0.66422 0.57774 0.0
C3292 C 0.61151 0.61982 0.5413 0.0
C3293 C 0.62057 0.64087 0.58462 0.0
C3294 C 0.62803 0.66542 0.55266 0.0
C3295 C 0.6163 0.61498 0.6154 0.0
N3296 N 0.60418 0.59585 0.57228 0.0
C3297 C 0.60759 0.59364 0.5965 0.0
C3298 C 0.62254 0.63878 0.60947 0.0
Eu3299 Eu 0.59246 0.55961 0.53911 0.0
N3300 N 0.60452 0.59789 0.52399 0.0
C3301 C 0.60652 0.59834 0.49947 0.0
C3302 C 0.62104 0.64368 0.5092 0.0
C3303 C 0.61443 0.62106 0.49171 0.0
H3304 H 0.6037 0.57526 0.60134 0.0
H3305 H 0.61537 0.62105 0.47216 0.0
H3306 H 0.63462 0.68349 0.5476 0.0
H3307 H 0.61856 0.61297 0.63447 0.0
H3308 H 0.60123 0.58148 0.48536 0.0
H3309 H 0.50721 0.46154 0.56902 0.0
H3310 H 0.62738 0.66126 0.50315 0.0
H3311 H 0.52723 0.51546 0.44601 0.0
H3312 H 0.52089 0.50234 0.5584 0.0
H3313 H 0.51406 0.4791 0.41078 0.0
H3314 H 0.63541 0.68135 0.59168 0.0
H3315 H 0.50003 0.42231 0.53683 0.0
H3316 H 0.49704 0.4021 0.49195 0.0
H3317 H 0.62963 0.65528 0.62412 0.0
H3318 H 0.49844 0.40687 0.44865 0.0
N3319 N 0.52416 0.48766 0.52027 0.0
C3320 C 0.51896 0.48596 0.54387 0.0
C3321 C 0.50675 0.44045 0.53197 0.0
C3322 C 0.51009 0.44221 0.50747 0.0
C3323 C 0.51073 0.4625 0.55014 0.0
C3324 C 0.51878 0.46637 0.50209 0.0
H3325 H 0.50421 0.43548 0.41826 0.0
N3326 N 0.52603 0.49269 0.47327 0.0
C3327 C 0.51575 0.47593 0.4295 0.0
C3328 C 0.51963 0.469 0.47779 0.0
C3329 C 0.52327 0.49647 0.44954 0.0
C3330 C 0.5103 0.45136 0.43379 0.0
C3331 C 0.51175 0.44765 0.45816 0.0
O3332 O 0.51177 0.53733 0.48544 0.0
O3333 O 0.55969 0.5671 0.52285 0.0
O3334 O 0.56813 0.56687 0.56994 0.0
O3335 O 0.53339 0.54123 0.55042 0.0
O3336 O 0.54511 0.55836 0.48645 0.0
O3337 O 0.50493 0.5302 0.52203 0.0
O3338 O 0.61628 0.54971 0.56415 0.0
O3339 O 0.57078 0.51976 0.52345 0.0
O3340 O 0.56315 0.52281 0.47663 0.0
O3341 O 0.59871 0.54341 0.49791 0.0
O3342 O 0.58475 0.5274 0.55971 0.0
O3343 O 0.62892 0.56303 0.53126 0.0
C3344 C 0.5565 0.57674 0.50377 0.0
C3345 C 0.47288 0.52678 0.4931 0.0
C3346 C 0.43492 0.53489 0.49517 0.0
C3347 C 0.45782 0.53972 0.50509 0.0
C3348 C 0.42662 0.51619 0.47362 0.0
C3349 C 0.46482 0.508 0.47149 0.0
C3350 C 0.44159 0.50261 0.46191 0.0
C3351 C 0.54605 0.55597 0.57102 0.0
C3352 C 0.49721 0.53626 0.50198 0.0
C3353 C 0.50441 0.42346 0.46347 0.0
C3354 C 0.50363 0.42074 0.48811 0.0
C3355 C 0.57342 0.50941 0.54206 0.0
C3356 C 0.65649 0.55397 0.56108 0.0
C3357 C 0.67213 0.5479 0.54448 0.0
C3358 C 0.69255 0.54255 0.55331 0.0
C3359 C 0.69797 0.54474 0.57887 0.0
C3360 C 0.66192 0.55619 0.58668 0.0
C3361 C 0.68273 0.5518 0.59553 0.0
C3362 C 0.58607 0.53092 0.47648 0.0
C3363 C 0.63368 0.55563 0.55167 0.0
H3364 H 0.46419 0.55464 0.52148 0.0
H3365 H 0.40883 0.51252 0.46572 0.0
H3366 H 0.47648 0.49806 0.4618 0.0
H3367 H 0.43534 0.48839 0.4451 0.0
H3368 H 0.66792 0.54584 0.52467 0.0
H3369 H 0.71382 0.54067 0.58581 0.0
H3370 H 0.64993 0.56092 0.59979 0.0
H3371 H 0.68682 0.55334 0.61523 0.0
Eu3372 Eu 0.09221 0.54389 0.00797 0.0
C3373 C 0.00646 0.5006 0.06317 0.0
C3374 C 0.98825 0.46287 0.03223 0.0
C3375 C 0.98137 0.46482 0.07544 0.0
C3376 C 1.00272 0.48757 0.03875 0.0
C3377 C 0.99553 0.48951 0.08175 0.0
C3378 C 0.97777 0.45152 0.05073 0.0
C3379 C 0.01199 0.52873 0.11114 0.0
N3380 N 0.02019 0.52442 0.06867 0.0
C3381 C 0.02229 0.53892 0.09203 0.0
C3382 C 0.99873 0.5038 0.10604 0.0
Eu3383 Eu 0.03567 0.54126 0.03516 0.0
N3384 N 0.0132 0.49902 0.02136 0.0
C3385 C 0.00969 0.4868 0.99702 0.0
C3386 C 0.98466 0.45033 0.0073 0.0
C3387 C 0.99538 0.46242 0.98959 0.0
H3388 H 0.03161 0.55854 0.09575 0.0
H3389 H 0.99309 0.45278 0.97029 0.0
H3390 H 0.96667 0.43255 0.04608 0.0
H3391 H 0.01396 0.54022 0.12969 0.0
H3392 H 0.01901 0.49519 0.98336 0.0
H3393 H 0.15111 0.6213 0.07527 0.0
H3394 H 0.97377 0.43133 1.00156 0.0
H3395 H 0.09287 0.53397 0.94561 0.0
H3396 H 0.12684 0.57869 0.06044 0.0
H3397 H 0.1052 0.55838 0.91369 0.0
H3398 H 0.97289 0.45598 0.08947 0.0
H3399 H 0.15735 0.65158 0.04729 0.0
H3400 H 0.15273 0.65936 1.00432 0.0
H3401 H 0.99057 0.496 0.12082 0.0
H3402 H 0.14061 0.64199 0.95994 0.0
N3403 N 0.11742 0.58449 0.02427 0.0
C3404 C 0.12859 0.5915 0.04784 0.0
C3405 C 0.14626 0.63281 0.04059 0.0
C3406 C 0.13661 0.62484 0.01587 0.0
C3407 C 0.14283 0.61576 0.0564 0.0
C3408 C 0.12233 0.6001 0.00803 0.0
H3409 H 0.12383 0.60412 0.92598 0.0
N3410 N 0.10339 0.56585 0.97581 0.0
C3411 C 0.10789 0.56772 0.93309 0.0
C3412 C 0.11528 0.59042 0.98303 0.0
C3413 C 0.10088 0.554 0.95127 0.0
C3414 C 0.11832 0.59354 0.9401 0.0
C3415 C 0.12262 0.60509 0.96531 0.0
O3416 O 0.10979 0.52075 0.98388 0.0
O3417 O 0.05974 0.51856 0.01676 0.0
O3418 O 0.05927 0.53588 0.06516 0.0
O3419 O 0.09518 0.54497 0.04906 0.0
O3420 O 0.08228 0.50121 0.99761 0.0
O3421 O 0.12578 0.53682 0.02209 0.0
O3422 O 0.02128 0.57339 0.05005 0.0
O3423 O 0.06697 0.56658 0.02342 0.0
O3424 O 0.06469 0.54253 0.97659 0.0
O3425 O 0.03112 0.54388 0.99575 0.0
O3426 O 0.05586 0.57945 0.05728 0.0
O3427 O 1.00132 0.54381 0.02061 0.0
C3428 C 0.06355 0.49666 0.00793 0.0
C3429 C 0.14656 0.51129 0.99283 0.0
C3430 C 0.17846 0.49114 1.00057 0.0
C3431 C 0.16128 0.50368 0.00961 0.0
C3432 C 0.18079 0.4867 0.97504 0.0
C3433 C 0.14972 0.50669 0.96742 0.0
C3434 C 0.16663 0.49451 0.95868 0.0
C3435 C 0.08194 0.54021 0.0668 0.0
C3436 C 0.12701 0.52277 1.00045 0.0
C3437 C 0.13519 0.63034 0.97327 0.0
C3438 C 0.14209 0.64024 0.99854 0.0
C3439 C 0.07037 0.5856 0.04169 0.0
C3440 C 0.98113 0.57105 0.04474 0.0
C3441 C 0.96772 0.58359 0.03185 0.0
C3442 C 0.94861 0.59108 0.0421 0.0
C3443 C 0.94299 0.58578 0.06519 0.0
C3444 C 0.97511 0.56579 0.06772 0.0
C3445 C 0.95614 0.57316 0.07786 0.0
C3446 C 0.0426 0.54353 0.97632 0.0
C3447 C 1.00238 0.56571 0.03494 0.0
H3448 H 0.15919 0.50705 0.02926 0.0
H3449 H 0.19378 0.47719 0.96774 0.0
H3450 H 0.13893 0.51237 0.95409 0.0
H3451 H 0.16871 0.49101 0.93905 0.0
H3452 H 0.97232 0.5879 0.01415 0.0
H3453 H 0.92836 0.5914 0.07338 0.0
H3454 H 0.98522 0.55637 0.07798 0.0
H3455 H 0.95169 0.56922 0.0957 0.0
C3456 C 0.0395 0.12745 0.97969 0.0
C3457 C 0.04505 0.15143 0.99652 0.0
C3458 C 0.05725 0.12984 0.02911 0.0
C3459 C 0.05337 0.10622 0.0118 0.0
N3460 N 0.04467 0.0844 0.96898 0.0
N3461 N 0.06371 0.17586 0.03625 0.0
C3462 C 0.04569 0.10568 0.98662 0.0
C3463 C 0.05541 0.1527 0.02087 0.0
N3464 N 0.02769 0.12519 0.95707 0.0
N3465 N 0.06183 0.13035 0.05378 0.0
H3466 H 0.06198 0.19272 0.03131 0.0
H3467 H 0.0739 0.17846 0.05297 0.0
H3468 H 0.06345 0.1143 0.06045 0.0
H3469 H 0.06252 0.14619 0.06771 0.0
H3470 H 0.02035 0.10782 0.94521 0.0
H3471 H 0.02362 0.14058 0.95092 0.0
H3472 H 0.04149 0.08341 0.95001 0.0
H3473 H 0.04937 0.06848 0.97309 0.0
C3474 C 0.21502 0.78379 0.20135 0.0
C3475 C 0.21623 0.80744 0.19389 0.0
C3476 C 0.25251 0.82485 0.22223 0.0
C3477 C 0.25398 0.80044 0.22593 0.0
N3478 N 0.23202 0.75852 0.22573 0.0
N3479 N 0.2385 0.85 0.19594 0.0
C3480 C 0.23395 0.78028 0.21707 0.0
C3481 C 0.2356 0.82778 0.20408 0.0
N3482 N 0.19505 0.76523 0.19477 0.0
N3483 N 0.26572 0.8457 0.23796 0.0
H3484 H 0.22705 0.85294 0.18236 0.0
H3485 H 0.25345 0.86453 0.201 0.0
H3486 H 0.27728 0.84423 0.25216 0.0
H3487 H 0.26327 0.86391 0.23861 0.0
H3488 H 0.19204 0.7478 0.19999 0.0
H3489 H 0.1806 0.76766 0.18479 0.0
H3490 H 0.22026 0.74146 0.21813 0.0
H3491 H 0.24169 0.75834 0.24198 0.0
C3492 C 0.57149 0.92889 0.50346 0.0
C3493 C 0.54866 0.91464 0.50381 0.0
C3494 C 0.541 0.95645 0.52263 0.0
C3495 C 0.5587 0.9693 0.51029 0.0
N3496 N 0.59728 0.96796 0.50154 0.0
N3497 N 0.51666 0.9172 0.52858 0.0
C3498 C 0.57556 0.95526 0.50324 0.0
C3499 C 0.53434 0.929 0.51734 0.0
N3500 N 0.58966 0.91893 0.50927 0.0
N3501 N 0.53475 0.96974 0.54334 0.0
H3502 H 0.51646 0.8998 0.53337 0.0
H3503 H 0.50383 0.92602 0.53527 0.0
H3504 H 0.5423 0.98889 0.54965 0.0
H3505 H 0.52465 0.96131 0.55568 0.0
H3506 H 0.60688 0.929 0.51165 0.0
H3507 H 0.58714 0.90175 0.5152 0.0
H3508 H 0.60931 0.9595 0.49239 0.0
H3509 H 0.60353 0.98472 0.51439 0.0
C3510 C 0.47504 0.28391 0.67007 0.0
C3511 C 0.49374 0.30549 0.67856 0.0
C3512 C 0.47208 0.32013 0.71312 0.0
C3513 C 0.45506 0.29686 0.70671 0.0
N3514 N 0.43924 0.25706 0.67846 0.0
N3515 N 0.51036 0.34428 0.70821 0.0
C3516 C 0.45612 0.27903 0.68477 0.0
C3517 C 0.49214 0.32386 0.69988 0.0
N3518 N 0.47537 0.26824 0.64776 0.0
N3519 N 0.46901 0.33866 0.73199 0.0
H3520 H 0.52504 0.34788 0.69885 0.0
H3521 H 0.51168 0.35695 0.72507 0.0
H3522 H 0.45475 0.3363 0.74213 0.0
H3523 H 0.47938 0.357 0.73632 0.0
H3524 H 0.46172 0.25323 0.63925 0.0
H3525 H 0.48891 0.27133 0.63671 0.0
H3526 H 0.43984 0.2418 0.66442 0.0
H3527 H 0.42459 0.25378 0.68795 0.0
C3528 C 0.05436 0.85193 0.56772 0.0
C3529 C 0.03405 0.85286 0.57971 0.0
C3530 C 0.02659 0.88483 0.55718 0.0
C3531 C 0.04799 0.88547 0.54692 0.0
N3532 N 0.08536 0.87536 0.54905 0.0
N3533 N 1.00437 0.87511 0.59093 0.0
C3534 C 0.06288 0.87081 0.55427 0.0
C3535 C 0.02126 0.8709 0.57607 0.0
N3536 N 0.0649 0.83238 0.56801 0.0
N3537 N 0.01084 0.89638 0.54815 0.0
H3538 H 1.0004 0.86566 0.60537 0.0
H3539 H 0.99606 0.88979 0.59057 0.0
H3540 H 0.0135 0.90574 0.53347 0.0
H3541 H 0.99418 0.89444 0.55353 0.0
H3542 H 0.07849 0.8298 0.55752 0.0
H3543 H 0.05861 0.81729 0.57651 0.0
H3544 H 0.09742 0.86672 0.55613 0.0
H3545 H 0.0925 0.88976 0.54002 0.0
C3546 C 0.49664 0.80877 0.80463 0.0
C3547 C 0.51445 0.83108 0.81354 0.0
C3548 C 0.48878 0.85654 0.80145 0.0
C3549 C 0.47015 0.83486 0.79559 0.0
N3550 N 0.45583 0.79 0.79458 0.0
N3551 N 0.52961 0.86994 0.80009 0.0
C3552 C 0.4738 0.81093 0.79845 0.0
C3553 C 0.51132 0.85354 0.80642 0.0
N3554 N 0.5023 0.78618 0.79667 0.0
N3555 N 0.48501 0.8801 0.80198 0.0
H3556 H 0.54584 0.8658 0.79905 0.0
H3557 H 0.52779 0.88546 0.79259 0.0
H3558 H 0.46845 0.88307 0.79901 0.0
H3559 H 0.49809 0.89659 0.80784 0.0
H3560 H 0.49022 0.76952 0.78831 0.0
H3561 H 0.51935 0.7853 0.79421 0.0
H3562 H 0.45752 0.77312 0.7995 0.0
H3563 H 0.43901 0.78987 0.78832 0.0
C3564 C 0.53506 0.1463 0.06498 0.0
C3565 C 0.51737 0.13817 0.07958 0.0
C3566 C 0.52659 0.09698 0.07571 0.0
C3567 C 0.54584 0.10596 0.06268 0.0
N3568 N 0.57093 0.14048 0.04938 0.0
N3569 N 0.49295 0.10559 0.09555 0.0
C3570 C 0.55069 0.13096 0.05841 0.0
C3571 C 0.5123 0.11348 0.08423 0.0
N3572 N 0.53657 0.16858 0.05716 0.0
N3573 N 0.5216 0.07272 0.07959 0.0
H3574 H 0.48193 0.11735 0.10127 0.0
H3575 H 0.48667 0.08718 0.0979 0.0
H3576 H 0.52732 0.05795 0.0693 0.0
H3577 H 0.51095 0.06659 0.09256 0.0
H3578 H 0.5477 0.17445 0.04444 0.0
H3579 H 0.52493 0.17994 0.06146 0.0
H3580 H 0.57645 0.15937 0.04807 0.0
H3581 H 0.58342 0.1301 0.04554 0.0
C3582 C 0.24234 0.32802 0.32683 0.0
C3583 C 0.22208 0.32279 0.31023 0.0
C3584 C 0.244 0.31472 0.27456 0.0
C3585 C 0.26417 0.31862 0.29124 0.0
N3586 N 0.28234 0.32746 0.33311 0.0
N3587 N 0.20297 0.31406 0.26886 0.0
C3588 C 0.26324 0.32509 0.31731 0.0
C3589 C 0.22267 0.31681 0.28418 0.0
N3590 N 0.24173 0.33673 0.35172 0.0
N3591 N 0.24531 0.30854 0.24962 0.0
H3592 H 0.18719 0.3154 0.27557 0.0
H3593 H 0.20212 0.31142 0.24964 0.0
H3594 H 0.26093 0.30819 0.24236 0.0
H3595 H 0.23122 0.30308 0.23613 0.0
H3596 H 0.25634 0.34436 0.36442 0.0
H3597 H 0.22659 0.33817 0.35983 0.0
H3598 H 0.28233 0.32822 0.3521 0.0
H3599 H 0.29806 0.32662 0.32666 0.0
C3600 C 0.00825 0.07506 0.12599 0.0
C3601 C 0.01592 0.06574 0.14684 0.0
C3602 C 0.04625 0.05181 0.12084 0.0
C3603 C 0.03775 0.05986 0.09949 0.0
N3604 N 0.01401 0.08516 0.08502 0.0
N3605 N 0.04204 0.04376 0.16283 0.0
C3606 C 0.01955 0.07299 0.10308 0.0
C3607 C 0.03493 0.0538 0.14375 0.0
N3608 N 0.98928 0.08511 0.12767 0.0
N3609 N 0.066 0.04316 0.1197 0.0
H3610 H 0.03545 0.04615 0.18 0.0
H3611 H 0.05349 0.03194 0.16148 0.0
H3612 H 0.07479 0.04175 0.10395 0.0
H3613 H 0.07484 0.03917 0.13471 0.0
H3614 H 0.98072 0.08961 0.11277 0.0
H3615 H 0.981 0.08739 0.14379 0.0
H3616 H 1.00322 0.09769 0.087 0.0
H3617 H 0.02201 0.08462 0.0687 0.0
C3618 C 0.28917 0.74202 0.43451 0.0
C3619 C 0.2919 0.71688 0.42778 0.0
C3620 C 0.28088 0.71522 0.38413 0.0
C3621 C 0.27459 0.73856 0.39141 0.0
N3622 N 0.27749 0.77736 0.42131 0.0
N3623 N 0.2917 0.67947 0.39706 0.0
C3624 C 0.28044 0.75312 0.41596 0.0
C3625 C 0.28877 0.7037 0.40271 0.0
N3626 N 0.29364 0.75436 0.45888 0.0
N3627 N 0.27936 0.70433 0.35948 0.0
H3628 H 0.29828 0.67079 0.41017 0.0
H3629 H 0.2868 0.66749 0.3797 0.0
H3630 H 0.27343 0.71238 0.34546 0.0
H3631 H 0.28566 0.68851 0.35271 0.0
H3632 H 0.29005 0.77177 0.46587 0.0
H3633 H 0.30094 0.74682 0.47253 0.0
H3634 H 0.28264 0.78976 0.43839 0.0
H3635 H 0.27079 0.7858 0.40806 0.0
C3636 C 0.6057 0.05343 0.63444 0.0
C3637 C 0.6207 0.03672 0.63101 0.0
C3638 C 0.60231 0.01766 0.58954 0.0
C3639 C 0.59008 0.03699 0.59147 0.0
N3640 N 0.5818 0.07532 0.61411 0.0
N3641 N 0.63669 1.0064 0.604 0.0
C3642 C 0.59194 0.05536 0.61356 0.0
C3643 C 0.6199 0.01959 0.60826 0.0
N3644 N 0.6046 0.06722 0.65751 0.0
N3645 N 0.5973 0.99775 0.56962 0.0
H3646 H 0.6506 0.008 0.61706 0.0
H3647 H 0.6381 0.99581 0.58663 0.0
H3648 H 0.58424 0.99586 0.55555 0.0
H3649 H 0.60444 0.98202 0.56838 0.0
H3650 H 0.59242 0.07798 0.66127 0.0
H3651 H 0.61452 0.06617 0.67334 0.0
H3652 H 0.58488 0.0908 0.62898 0.0
H3653 H 0.57162 0.07729 0.59893 0.0
C3654 C 0.32495 0.29605 0.88397 0.0
C3655 C 0.32095 0.31977 0.89556 0.0
C3656 C 0.31473 0.32958 0.8541 0.0
C3657 C 0.31643 0.30479 0.84236 0.0
N3658 N 0.32027 0.26327 0.84656 0.0
N3659 N 0.31017 0.35847 0.89163 0.0
C3660 C 0.3208 0.28776 0.85748 0.0
C3661 C 0.31538 0.33634 0.88056 0.0
N3662 N 0.3329 0.28143 0.89828 0.0
N3663 N 0.313 0.34703 0.83998 0.0
H3664 H 0.31189 0.36499 0.91083 0.0
H3665 H 0.30274 0.36968 0.88196 0.0
H3666 H 0.31253 0.34307 0.82077 0.0
H3667 H 0.3143 0.36614 0.84727 0.0
H3668 H 0.33887 0.2655 0.89099 0.0
H3669 H 0.33517 0.28631 0.91763 0.0
H3670 H 0.32055 0.24902 0.85643 0.0
H3671 H 0.31832 0.25682 0.82737 0.0
C3672 C 1.00128 0.06092 0.43145 0.0
C3673 C 0.01415 0.05919 0.41044 0.0
C3674 C 0.0451 0.04977 0.43867 0.0
C3675 C 0.03128 0.04983 0.45926 0.0
N3676 N 0.99195 0.04653 0.46939 0.0
N3677 N 0.0474 0.04711 0.3939 0.0
C3678 C 0.00824 0.05295 0.45383 0.0
C3679 C 0.03575 0.05209 0.41411 0.0
N3680 N 0.98203 0.07039 0.43033 0.0
N3681 N 0.06745 0.04807 0.44238 0.0
H3682 H 0.04172 0.04942 0.3764 0.0
H3683 H 0.06152 0.03889 0.39405 0.0
H3684 H 0.07454 0.04525 0.45899 0.0
H3685 H 0.07933 0.05083 0.42949 0.0
H3686 H 0.97354 0.07522 0.44588 0.0
H3687 H 0.9758 0.07554 0.41447 0.0
H3688 H 0.97455 0.04619 0.46554 0.0
H3689 H 0.99501 0.03803 0.4842 0.0
C3690 C 0.29718 0.72109 0.66505 0.0
C3691 C 0.28979 0.73313 0.64671 0.0
C3692 C 0.29314 0.77209 0.67742 0.0
C3693 C 0.30245 0.76049 0.69519 0.0
N3694 N 0.31855 0.72648 0.70463 0.0
N3695 N 0.28183 0.76989 0.63383 0.0
C3696 C 0.30606 0.73577 0.68862 0.0
C3697 C 0.28793 0.75862 0.65241 0.0
N3698 N 0.2954 0.69547 0.66002 0.0
N3699 N 0.28959 0.79591 0.6845 0.0
H3700 H 0.27707 0.75997 0.61551 0.0
H3701 H 0.28233 0.78914 0.63622 0.0
H3702 H 0.29511 0.80696 0.70226 0.0
H3703 H 0.28069 0.80448 0.67313 0.0
H3704 H 0.29816 0.68541 0.67367 0.0
H3705 H 0.28902 0.68379 0.64273 0.0
H3706 H 0.3244 0.70999 0.69951 0.0
H3707 H 0.32399 0.73595 0.72282 0.0
C3708 C 0.62553 0.03866 0.8551 0.0
C3709 C 0.6483 0.05277 0.85429 0.0
C3710 C 0.64652 0.08177 0.89302 0.0
C3711 C 0.62268 0.07032 0.89149 0.0
N3712 N 0.59063 0.03434 0.87611 0.0
N3713 N 0.68168 0.08599 0.87254 0.0
C3714 C 0.61259 0.04737 0.87428 0.0
C3715 C 0.65939 0.07343 0.87369 0.0
N3716 N 0.61591 0.0182 0.83641 0.0
N3717 N 0.65657 0.10062 0.913 0.0
H3718 H 0.69179 0.07956 0.85906 0.0
H3719 H 0.69003 0.10304 0.88431 0.0
H3720 H 0.64731 0.10665 0.92752 0.0
H3721 H 0.6742 0.10888 0.91632 0.0
H3722 H 0.59862 0.00852 0.83406 0.0
H3723 H 0.62533 0.01106 0.82258 0.0
H3724 H 0.58284 0.01645 0.86555 0.0
H3725 H 0.58043 0.0407 0.88945 0.0
C3726 C 0.3212 0.34924 0.17724 0.0
C3727 C 0.31114 0.33031 0.15574 0.0
C3728 C 0.29031 0.30459 0.18298 0.0
C3729 C 0.30356 0.32095 0.20443 0.0
N3730 N 0.31952 0.3654 0.22097 0.0
N3731 N 0.28732 0.28848 0.13867 0.0
C3732 C 0.3159 0.34523 0.2014 0.0
C3733 C 0.29605 0.30758 0.1588 0.0
N3734 N 0.33575 0.37126 0.17469 0.0
N3735 N 0.26973 0.28935 0.18547 0.0
H3736 H 0.29116 0.28977 0.12067 0.0
H3737 H 0.27802 0.27063 0.14032 0.0
H3738 H 0.2629 0.29093 0.20247 0.0
H3739 H 0.25804 0.27879 0.17039 0.0
H3740 H 0.34605 0.38413 0.18958 0.0
H3741 H 0.33865 0.37601 0.15755 0.0
H3742 H 0.32678 0.38403 0.21979 0.0
H3743 H 0.31162 0.36418 0.2372 0.0
C3744 C 0.21884 0.99328 0.01845 0.0
C3745 C 0.23948 1.00692 0.01132 0.0
C3746 C 0.22723 0.04646 0.02206 0.0
C3747 C 0.20908 0.03365 0.03369 0.0
N3748 N 0.18654 0.99503 0.04283 0.0
N3749 N 0.26389 0.04592 0.00552 0.0
C3750 C 0.20423 1.00696 0.03142 0.0
C3751 C 0.24363 0.03331 0.01234 0.0
N3752 N 0.21378 0.96735 0.01336 0.0
N3753 N 0.22871 0.07113 0.02046 0.0
H3754 H 0.27588 0.03657 0.99747 0.0
H3755 H 0.26931 0.0656 0.00885 0.0
H3756 H 0.21687 0.08125 0.02759 0.0
H3757 H 0.24036 0.08085 0.01026 0.0
H3758 H 0.19822 0.95604 0.01641 0.0
H3759 H 0.22453 0.95705 1.004 0.0
H3760 H 0.18371 0.97609 0.04421 0.0
H3761 H 0.17522 1.00442 0.05222 0.0
C3762 C 0.67639 0.58823 0.02365 0.0
C3763 C 0.67882 0.60392 0.00581 0.0
C3764 C 0.63806 0.58465 0.98937 0.0
C3765 C 0.63456 0.57226 0.00971 0.0
N3766 N 0.65089 0.56356 0.04739 0.0
N3767 N 0.66083 0.61897 0.97318 0.0
C3768 C 0.65393 0.57415 0.02702 0.0
C3769 C 0.65935 0.60253 0.98898 0.0
N3770 N 0.69572 0.58627 0.03703 0.0
N3771 N 0.6213 0.57848 0.96977 0.0
H3772 H 0.67597 0.63235 0.97233 0.0
H3773 H 0.64655 0.62081 0.96249 0.0
H3774 H 0.6062 0.5644 0.96877 0.0
H3775 H 0.62354 0.58504 0.95336 0.0
H3776 H 0.69555 0.57315 0.04834 0.0
H3777 H 0.71233 0.59614 0.03504 0.0
H3778 H 0.66357 0.56709 0.06226 0.0
H3779 H 0.63513 0.55272 0.05042 0.0
C3780 C 0.77097 0.3901 0.29027 0.0
C3781 C 0.75675 0.3923 0.26899 0.0
C3782 C 0.76913 0.35342 0.24669 0.0
C3783 C 0.78122 0.34952 0.26856 0.0
N3784 N 0.78779 0.36301 0.31296 0.0
N3785 N 0.73886 0.36992 0.22829 0.0
C3786 C 0.78051 0.36768 0.29078 0.0
C3787 C 0.75514 0.37229 0.24761 0.0
N3788 N 0.7763 0.40998 0.31013 0.0
N3789 N 0.77113 0.33902 0.22429 0.0
H3790 H 0.72758 0.38191 0.22847 0.0
H3791 H 0.73468 0.35435 0.21348 0.0
H3792 H 0.78074 0.3253 0.22252 0.0
H3793 H 0.76528 0.34246 0.20738 0.0
H3794 H 0.7883 0.41105 0.32504 0.0
H3795 H 0.77057 0.42654 0.3104 0.0
H3796 H 0.78558 0.37362 0.33001 0.0
H3797 H 0.79423 0.34716 0.3142 0.0
C3798 C 0.9655 0.54483 0.52835 0.0
C3799 C 0.95515 0.52152 0.53412 0.0
C3800 C 0.99076 0.50732 0.53118 0.0
C3801 C 1.00202 0.53146 0.52724 0.0
N3802 N 1.0004 0.57416 0.52449 0.0
N3803 N 0.95798 0.48259 0.54636 0.0
C3804 C 0.98942 0.55046 0.52637 0.0
C3805 C 0.96783 0.50339 0.53728 0.0
N3806 N 0.95226 0.5614 0.52457 0.0
N3807 N 1.00189 0.48803 0.52882 0.0
H3808 H 0.94097 0.47897 0.55079 0.0
H3809 H 0.96726 0.47024 0.55177 0.0
H3810 H 0.01859 0.49006 0.52382 0.0
H3811 H 0.99383 0.46938 0.52916 0.0
H3812 H 0.95789 0.57718 0.51684 0.0
H3813 H 0.935 0.55871 0.52819 0.0
H3814 H 0.99288 0.5896 0.52631 0.0
H3815 H 0.0175 0.57843 0.52165 0.0
C3816 C 0.33102 0.12699 0.29792 0.0
C3817 C 0.35383 0.13959 0.30821 0.0
C3818 C 0.35325 0.17444 0.28742 0.0
C3819 C 0.33134 0.16061 0.27507 0.0
N3820 N 0.29635 0.12838 0.27346 0.0
N3821 N 0.38369 0.17771 0.32002 0.0
C3822 C 0.3191 0.13847 0.28216 0.0
C3823 C 0.36371 0.16447 0.30571 0.0
N3824 N 0.32173 0.10324 0.30166 0.0
N3825 N 0.36461 0.19598 0.28046 0.0
H3826 H 0.3915 0.17011 0.33328 0.0
H3827 H 0.39128 0.19665 0.32038 0.0
H3828 H 0.35742 0.2039 0.26709 0.0
H3829 H 0.38164 0.20538 0.28695 0.0
H3830 H 0.30644 0.09149 0.29211 0.0
H3831 H 0.32997 0.09497 0.31399 0.0
H3832 H 0.28598 0.11331 0.2794 0.0
H3833 H 0.28728 0.13647 0.26168 0.0
C3834 C 0.41676 0.13962 0.53864 0.0
C3835 C 0.40217 0.13174 0.51589 0.0
C3836 C 0.42036 0.09614 0.50339 0.0
C3837 C 0.43401 0.10319 0.52672 0.0
N3838 N 0.44993 0.13481 0.56356 0.0
N3839 N 0.39397 0.10694 0.47415 0.0
C3840 C 0.43374 0.12607 0.54337 0.0
C3841 C 0.40537 0.1115 0.49739 0.0
N3842 N 0.41379 0.15956 0.55601 0.0
N3843 N 0.42081 0.07401 0.48758 0.0
H3844 H 0.38248 0.11746 0.46941 0.0
H3845 H 0.39722 0.09422 0.45905 0.0
H3846 H 0.432 0.06269 0.49105 0.0
H3847 H 0.40939 0.06611 0.47162 0.0
H3848 H 0.42179 0.16449 0.57412 0.0
H3849 H 0.40243 0.17073 0.55259 0.0
H3850 H 0.45214 0.1524 0.57542 0.0
H3851 H 0.46261 0.12526 0.56726 0.0
C3852 C 0.77795 0.66473 0.26051 0.0
C3853 C 0.7597 0.65898 0.27575 0.0
C3854 C 0.76732 0.70582 0.29314 0.0
C3855 C 0.78389 0.71191 0.27607 0.0
N3856 N 0.80325 0.69547 0.24177 0.0
N3857 N 0.73515 0.67558 0.30429 0.0
C3858 C 0.78875 0.69079 0.25943 0.0
C3859 C 0.754 0.68003 0.29143 0.0
N3860 N 0.78572 0.64512 0.24755 0.0
N3861 N 0.76511 0.72458 0.31219 0.0
H3862 H 0.72511 0.65742 0.30368 0.0
H3863 H 0.72822 0.68994 0.31374 0.0
H3864 H 0.77497 0.74306 0.31477 0.0
H3865 H 0.75557 0.72131 0.32695 0.0
H3866 H 0.80054 0.64754 0.23835 0.0
H3867 H 0.77845 0.62619 0.24774 0.0
H3868 H 0.80518 0.68165 0.22688 0.0
H3869 H 0.81221 0.71361 0.24092 0.0
C3870 C 0.82757 0.39533 0.77947 0.0
C3871 C 0.84627 0.41098 0.79577 0.0
C3872 C 0.86213 0.37476 0.80016 0.0
C3873 C 0.84325 0.35897 0.78351 0.0
N3874 N 0.81614 0.35708 0.74855 0.0
N3875 N 0.87902 0.41646 0.82559 0.0
C3876 C 0.82778 0.36981 0.77095 0.0
C3877 C 0.86289 0.40091 0.80734 0.0
N3878 N 0.81007 0.40517 0.77149 0.0
N3879 N 0.87984 0.36512 0.80808 0.0
H3880 H 0.87979 0.43574 0.83133 0.0
H3881 H 0.8902 0.41002 0.83667 0.0
H3882 H 0.8796 0.34589 0.80443 0.0
H3883 H 0.89544 0.37629 0.81743 0.0
H3884 H 0.79501 0.39397 0.76091 0.0
H3885 H 0.8098 0.42417 0.77762 0.0
H3886 H 0.80669 0.36528 0.73728 0.0
H3887 H 0.8189 0.33989 0.73957 0.0
C3888 C 0.08344 0.93875 0.02808 0.0
C3889 C 0.08223 0.93316 0.05233 0.0
C3890 C 0.06959 0.97336 0.06565 0.0
C3891 C 0.07303 0.98032 0.04227 0.0
N3892 N 0.08472 0.96977 1.00152 0.0
N3893 N 0.07569 0.94677 0.09485 0.0
C3894 C 0.08007 0.96278 0.02348 0.0
C3895 C 0.07539 0.95082 0.07113 0.0
N3896 N 0.0876 0.92087 0.00926 0.0
N3897 N 0.06063 0.98868 0.08286 0.0
H3898 H 0.07994 0.93092 0.09978 0.0
H3899 H 0.07348 0.95991 0.11017 0.0
H3900 H 0.05627 1.00494 0.07918 0.0
H3901 H 0.05518 0.98414 0.09936 0.0
H3902 H 0.08667 0.92227 0.9907 0.0
H3903 H 0.09046 0.90359 0.01205 0.0
H3904 H 0.09261 0.95987 0.98792 0.0
H3905 H 0.08144 0.9864 0.99743 0.0
C3906 C 0.90688 0.26245 0.82999 0.0
C3907 C 0.91017 0.27374 0.85564 0.0
C3908 C 0.87216 0.28549 0.85083 0.0
C3909 C 0.86956 0.27624 0.82425 0.0
N3910 N 0.88398 0.25145 0.79036 0.0
N3911 N 0.89525 0.29416 0.89124 0.0
C3912 C 0.8869 0.26356 0.81455 0.0
C3913 C 0.89272 0.28507 0.86611 0.0
N3914 N 0.92257 0.24945 0.82046 0.0
N3915 N 0.85473 0.29405 0.86194 0.0
H3916 H 0.90973 0.29401 0.90273 0.0
H3917 H 0.88312 0.30136 0.90126 0.0
H3918 H 0.83753 0.28767 0.85467 0.0
H3919 H 0.85679 0.30613 0.87923 0.0
H3920 H 0.92022 0.23744 0.80309 0.0
H3921 H 0.93804 0.24966 0.83044 0.0
H3922 H 0.89717 0.24683 0.78026 0.0
H3923 H 0.86779 0.24473 0.78074 0.0
C3924 C 0.59575 0.1562 0.52767 0.0
C3925 C 0.58674 0.17127 0.54689 0.0
C3926 C 0.56056 0.13227 0.55258 0.0
C3927 C 0.57237 0.11645 0.5372 0.0
N3928 N 0.59061 0.11547 0.49951 0.0
N3929 N 0.56152 0.17244 0.57948 0.0
C3930 C 0.5873 0.12892 0.52173 0.0
C3931 C 0.56969 0.15886 0.56005 0.0
N3932 N 0.6127 0.16788 0.51532 0.0
N3933 N 0.53806 0.12292 0.55545 0.0
H3934 H 0.56714 0.19207 0.58535 0.0
H3935 H 0.55053 0.16376 0.59098 0.0
H3936 H 0.52871 0.10728 0.54262 0.0
H3937 H 0.52777 0.13354 0.56517 0.0
H3938 H 0.62174 0.15802 0.50297 0.0
H3939 H 0.61879 0.18754 0.51883 0.0
H3940 H 0.5988 0.12368 0.48587 0.0
H3941 H 0.58279 0.09638 0.49375 0.0
C3942 C 0.65436 0.77463 0.36865 0.0
C3943 C 0.6334 0.78045 0.36065 0.0
C3944 C 0.65225 0.79638 0.32624 0.0
C3945 C 0.67407 0.79474 0.33674 0.0
N3946 N 0.69611 0.78194 0.3679 0.0
N3947 N 0.61228 0.79721 0.33186 0.0
C3948 C 0.67511 0.7833 0.35769 0.0
C3949 C 0.63226 0.79113 0.33923 0.0
N3950 N 0.65439 0.76084 0.38676 0.0
N3951 N 0.65078 0.80297 0.30365 0.0
H3952 H 0.59709 0.79285 0.34026 0.0
H3953 H 0.61104 0.80789 0.3184 0.0
H3954 H 0.66513 0.80661 0.29376 0.0
H3955 H 0.63524 0.80246 0.29369 0.0
H3956 H 0.66833 0.75371 0.39184 0.0
H3957 H 0.6397 0.75481 0.39544 0.0
H3958 H 0.69866 0.77666 0.38481 0.0
H3959 H 0.71135 0.78722 0.35986 0.0
C3960 C 0.10902 0.23829 0.48958 0.0
C3961 C 0.10184 0.23221 0.46372 0.0
C3962 C 0.07693 0.19191 0.46766 0.0
C3963 C 0.08423 0.19797 0.4935 0.0
N3964 N 0.11191 0.22277 0.52761 0.0
N3965 N 0.08422 0.20093 0.42708 0.0
C3966 C 0.10186 0.21984 0.50398 0.0
C3967 C 0.08751 0.20817 0.4524 0.0
N3968 N 0.12153 0.26209 0.50064 0.0
N3969 N 0.0592 0.17134 0.45791 0.0
H3970 H 0.09198 0.21244 0.41546 0.0
H3971 H 0.07568 0.18275 0.41767 0.0
H3972 H 0.05106 0.15887 0.46846 0.0
H3973 H 0.05145 0.16761 0.43975 0.0
H3974 H 0.12491 0.26838 0.51981 0.0
H3975 H 0.12709 0.27629 0.49082 0.0
H3976 H 0.12646 0.23704 0.53536 0.0
H3977 H 0.10708 0.20946 0.53862 0.0
C3978 C 0.6277 0.27313 0.25284 0.0
C3979 C 0.62079 0.26295 0.22722 0.0
C3980 C 0.65352 0.24289 0.22416 0.0
C3981 C 0.66046 0.25316 0.24978 0.0
N3982 N 0.65859 0.28401 0.28641 0.0
N3983 N 0.63028 0.24441 0.18711 0.0
C3984 C 0.64896 0.27024 0.26347 0.0
C3985 C 0.63479 0.24985 0.21241 0.0
N3986 N 0.61346 0.28436 0.26732 0.0
N3987 N 0.6642 0.22574 0.21133 0.0
H3988 H 0.61682 0.24963 0.17798 0.0
H3989 H 0.6411 0.237 0.17514 0.0
H3990 H 0.67812 0.22028 0.21924 0.0
H3991 H 0.65825 0.21553 0.19337 0.0
H3992 H 0.61648 0.28953 0.2866 0.0
H3993 H 0.59768 0.28683 0.26033 0.0
H3994 H 0.65226 0.29873 0.29612 0.0
H3995 H 0.67423 0.28238 0.29469 0.0
C3996 C 0.62975 0.9804 0.96136 0.0
C3997 C 0.62709 0.95815 0.97097 0.0
C3998 C 0.5924 0.96533 0.98872 0.0
C3999 C 0.59538 0.98862 0.98062 0.0
N4000 N 0.61991 0.02045 0.96231 0.0
N4001 N 0.61109 0.93391 1.0002 0.0
C4002 C 0.6149 0.99688 0.96778 0.0
C4003 C 0.61033 0.95246 0.98721 0.0
N4004 N 0.64577 0.98502 0.94506 0.0
N4005 N 0.57201 0.95505 0.99699 0.0
H4006 H 0.62427 0.92417 0.99898 0.0
H4007 H 0.60022 0.93024 0.01387 0.0
H4008 H 0.55787 0.96329 0.99683 0.0
H4009 H 0.5684 0.93718 1.00144 0.0
H4010 H 0.64648 0.99893 0.93457 0.0
H4011 H 0.65775 0.97394 0.9413 0.0
H4012 H 0.63577 0.02847 0.95676 0.0
H4013 H 0.60898 0.03271 0.96416 0.0
C4014 C 0.88309 0.75481 0.72 0.0
C4015 C 0.90485 0.76395 0.73416 0.0
C4016 C 0.88642 0.77749 0.77098 0.0
C4017 C 0.86509 0.77176 0.75589 0.0
N4018 N 0.84442 0.76012 0.71455 0.0
N4019 N 0.92819 0.78721 0.77207 0.0
C4020 C 0.86372 0.76179 0.72998 0.0
C4021 C 0.90687 0.7763 0.7594 0.0
N4022 N 0.88086 0.73937 0.69702 0.0
N4023 N 0.88709 0.78352 0.79623 0.0
H4024 H 0.94351 0.78602 0.76421 0.0
H4025 H 0.9306 0.79895 0.78965 0.0
H4026 H 0.87232 0.78441 0.80526 0.0
H4027 H 0.90196 0.78588 0.80817 0.0
H4028 H 0.86486 0.72976 0.68733 0.0
H4029 H 0.89481 0.73421 0.68862 0.0
H4030 H 0.8436 0.75525 0.69527 0.0
H4031 H 0.83031 0.7668 0.72051 0.0
C4032 C 0.09511 1.00426 0.90702 0.0
C4033 C 0.11467 0.02191 0.90144 0.0
C4034 C 0.11659 0.04598 0.94575 0.0
C4035 C 0.09615 0.02891 0.95137 0.0
N4036 N 0.07227 0.9867 0.93772 0.0
N4037 N 0.14148 0.06213 0.91579 0.0
C4038 C 0.08702 1.00686 0.93184 0.0
C4039 C 0.12447 0.04336 0.92095 0.0
N4040 N 0.08332 0.98521 0.8881 0.0
N4041 N 0.13022 0.06393 0.9644 0.0
H4042 H 0.14943 0.0603 0.89944 0.0
H4043 H 0.14652 0.0803 0.92687 0.0
H4044 H 0.12678 0.06734 0.98263 0.0
H4045 H 0.14679 0.07389 0.96252 0.0
H4046 H 0.06729 0.97361 0.88938 0.0
H4047 H 0.08863 0.9825 0.87029 0.0
H4048 H 0.06681 0.969 0.92585 0.0
H4049 H 0.06776 0.98663 0.95565 0.0
C4050 C 0.85696 0.38254 0.63264 0.0
C4051 C 0.83926 0.37264 0.6127 0.0
C4052 C 0.83362 0.33067 0.62231 0.0
C4053 C 0.85412 0.3396 0.63885 0.0
N4054 N 0.88609 0.37356 0.65976 0.0
N4055 N 0.8117 0.3369 0.58683 0.0
C4056 C 0.866 0.36549 0.64418 0.0
C4057 C 0.82752 0.34668 0.60726 0.0
N4058 N 0.86508 0.4082 0.6402 0.0
N4059 N 0.81983 0.3071 0.62126 0.0
H4060 H 0.80657 0.34782 0.57508 0.0
H4061 H 0.80482 0.31752 0.58049 0.0
H4062 H 0.82407 0.29439 0.63151 0.0
H4063 H 0.80328 0.301 0.61178 0.0
H4064 H 0.87678 0.41676 0.65585 0.0
H4065 H 0.85836 0.42103 0.63203 0.0
H4066 H 0.89671 0.39173 0.6624 0.0
H4067 H 0.89312 0.36148 0.66872 0.0
C4068 C 0.50624 0.06473 0.43881 0.0
C4069 C 0.50691 0.05055 0.41477 0.0
C4070 C 0.53869 0.03437 0.42951 0.0
C4071 C 0.53875 0.04971 0.45308 0.0
N4072 N 0.52799 0.08537 0.4782 0.0
N4073 N 0.52764 0.02792 0.3855 0.0
C4074 C 0.52452 0.06715 0.45692 0.0
C4075 C 0.52457 0.03747 0.40947 0.0
N4076 N 0.48745 0.07409 0.44498 0.0
N4077 N 0.55054 0.01568 0.42665 0.0
H4078 H 0.51767 0.0303 0.37032 0.0
H4079 H 0.54148 0.01992 0.38079 0.0
H4080 H 0.56018 0.01214 0.44142 0.0
H4081 H 0.54907 1.00235 0.41017 0.0
H4082 H 0.48543 0.08219 0.46315 0.0
H4083 H 0.47274 0.07138 0.43268 0.0
H4084 H 0.51908 0.09975 0.48088 0.0
H4085 H 0.54135 0.08749 0.49203 0.0
C4086 C 0.79528 0.74206 0.16171 0.0
C4087 C 0.80548 0.76196 0.14999 0.0
C4088 C 0.81738 0.79054 0.19118 0.0
C4089 C 0.80706 0.77068 0.20321 0.0
N4090 N 0.78852 0.72655 0.19958 0.0
N4091 N 0.82189 0.80633 0.15301 0.0
C4092 C 0.79641 0.74628 0.18823 0.0
C4093 C 0.81514 0.78654 0.16461 0.0
N4094 N 0.78409 0.71903 0.14735 0.0
N4095 N 0.83141 0.81242 0.20484 0.0
H4096 H 0.82103 0.80402 0.13373 0.0
H4097 H 0.82638 0.82525 0.16228 0.0
H4098 H 0.8345 0.81615 0.224 0.0
H4099 H 0.84186 0.82605 0.19711 0.0
H4100 H 0.77334 0.7048 0.15404 0.0
H4101 H 0.78444 0.7144 0.12818 0.0
H4102 H 0.78399 0.70758 0.19059 0.0
H4103 H 0.78705 0.72911 0.21854 0.0
C4104 C 0.12929 0.03162 0.61689 0.0
C4105 C 0.1144 0.02663 0.63561 0.0
C4106 C 0.0818 0.02969 0.60523 0.0
C4107 C 0.09715 0.03625 0.58704 0.0
N4108 N 0.13723 0.04941 0.5804 0.0
N4109 N 0.07617 0.02453 0.64794 0.0
C4110 C 0.1213 0.03881 0.59445 0.0
C4111 C 0.09057 0.02669 0.62973 0.0
N4112 N 0.15129 0.02843 0.61991 0.0
N4113 N 0.05859 0.0254 0.59902 0.0
H4114 H 0.08168 0.02195 0.66538 0.0
H4115 H 0.05944 0.02721 0.64653 0.0
H4116 H 0.05164 0.0287 0.58259 0.0
H4117 H 0.04617 0.01731 0.60949 0.0
H4118 H 0.16223 0.02845 0.60588 0.0
H4119 H 0.15785 0.02316 0.63555 0.0
H4120 H 0.15495 0.0547 0.58585 0.0
H4121 H 0.13259 0.05593 0.56482 0.0
C4122 C 0.82672 0.32202 0.39063 0.0
C4123 C 0.83642 0.34846 0.39338 0.0
C4124 C 0.8516 0.34068 0.35389 0.0
C4125 C 0.83621 0.31654 0.34768 0.0
N4126 N 0.81736 0.28031 0.36315 0.0
N4127 N 0.85493 0.38344 0.37516 0.0
C4128 C 0.82599 0.30584 0.36698 0.0
C4129 C 0.84807 0.35799 0.37436 0.0
N4130 N 0.81873 0.31269 0.41057 0.0
N4131 N 0.87008 0.34667 0.3409 0.0
H4132 H 0.85131 0.39713 0.3892 0.0
H4133 H 0.86194 0.39058 0.36033 0.0
H4134 H 0.8747 0.33292 0.3277 0.0
H4135 H 0.88229 0.36396 0.34581 0.0
H4136 H 0.81147 0.2937 0.41017 0.0
H4137 H 0.82007 0.32408 0.42823 0.0
H4138 H 0.80899 0.27094 0.37591 0.0
H4139 H 0.81997 0.26816 0.3473 0.0
C4140 C 0.51185 0.02304 0.20422 0.0
C4141 C 0.49132 0.03185 0.20279 0.0
C4142 C 0.49094 0.02743 0.15792 0.0
C4143 C 0.51074 0.01733 0.15926 0.0
N4144 N 0.54366 0.01158 0.18294 0.0
N4145 N 0.46392 0.04783 0.18005 0.0
C4146 C 0.52244 0.01721 0.18228 0.0
C4147 C 0.48185 0.03608 0.1802 0.0
N4148 N 0.52058 0.01933 0.22637 0.0
N4149 N 0.48011 0.02727 0.13528 0.0
H4150 H 0.45583 0.0531 0.19578 0.0
H4151 H 0.45794 0.05399 0.16474 0.0
H4152 H 0.48668 0.02173 0.11855 0.0
H4153 H 0.46406 0.03146 0.1328 0.0
H4154 H 0.53376 0.00999 0.22813 0.0
H4155 H 0.51389 0.0247 0.24309 0.0
H4156 H 0.55407 0.01318 0.19926 0.0
H4157 H 0.55178 1.00732 0.16695 0.0
C4158 C 0.82455 0.74047 0.8707 0.0
C4159 C 0.81963 0.7564 0.89221 0.0
C4160 C 0.82067 0.79038 0.86852 0.0
C4161 C 0.82405 0.77384 0.84635 0.0
N4162 N 0.8369 0.73652 0.82917 0.0
N4163 N 0.81242 0.79631 0.91169 0.0
C4164 C 0.82812 0.74979 0.84831 0.0
C4165 C 0.81774 0.78134 0.89111 0.0
N4166 N 0.82464 0.71586 0.87126 0.0
N4167 N 0.8214 0.8152 0.86858 0.0
H4168 H 0.81248 0.79163 0.92913 0.0
H4169 H 0.80674 0.81277 0.91145 0.0
H4170 H 0.82376 0.82296 0.8531 0.0
H4171 H 0.82199 0.82902 0.88443 0.0
H4172 H 0.82532 0.70228 0.85559 0.0
H4173 H 0.82219 0.70834 0.88714 0.0
H4174 H 0.84253 0.72013 0.83002 0.0
H4175 H 0.84107 0.74349 0.81331 0.0
C4176 C 0.88904 0.05412 0.02475 0.0
C4177 C 0.88229 0.07133 0.01136 0.0
C4178 C 0.90651 0.05942 0.97914 0.0
C4179 C 0.91658 0.04633 0.99482 0.0
N4180 N 0.91831 0.03222 0.03374 0.0
N4181 N 0.87176 0.07215 0.96868 0.0
C4182 C 0.90826 0.04414 0.0181 0.0
C4183 C 0.88724 0.06887 0.98629 0.0
N4184 N 0.87441 0.04298 0.03969 0.0
N4185 N 0.91575 0.06368 0.95784 0.0
H4186 H 0.8556 0.07515 0.97285 0.0
H4187 H 0.87366 0.06843 0.94976 0.0
H4188 H 0.93036 0.05761 0.95221 0.0
H4189 H 0.91016 0.07537 0.9472 0.0
H4190 H 0.87783 0.029 0.04867 0.0
H4191 H 0.85717 0.04418 0.03908 0.0
H4192 H 0.9143 0.03281 0.05196 0.0
H4193 H 0.93165 0.02334 0.02917 0.0
C4194 C 0.45883 0.47729 0.01868 0.0
C4195 C 0.45082 0.47718 0.04237 0.0
C4196 C 0.48852 0.50561 0.06104 0.0
C4197 C 0.4955 0.50726 0.03699 0.0
N4198 N 0.48097 0.50412 0.99481 0.0
N4199 N 0.45638 0.49698 0.08588 0.0
C4200 C 0.47889 0.49564 0.01629 0.0
C4201 C 0.46517 0.4931 0.06355 0.0
N4202 N 0.44765 0.45972 0.99831 0.0
N4203 N 0.50421 0.51504 0.08144 0.0
H4204 H 0.43942 0.48857 0.08826 0.0
H4205 H 0.46518 0.5104 0.1013 0.0
H4206 H 0.52136 0.52324 0.08007 0.0
H4207 H 0.5007 0.51254 0.09921 0.0
H4208 H 0.45418 0.4582 0.98108 0.0
H4209 H 0.43347 0.44515 0.99927 0.0
H4210 H 0.46844 0.49747 0.97957 0.0
H4211 H 0.49318 0.52063 0.99425 0.0
C4212 C 0.35387 0.69697 0.79301 0.0
C4213 C 0.37127 0.69283 0.77673 0.0
C4214 C 0.36281 0.73007 0.75963 0.0
C4215 C 0.3465 0.73533 0.77716 0.0
N4216 N 0.33313 0.72619 0.81547 0.0
N4217 N 0.39476 0.71046 0.74751 0.0
C4218 C 0.344 0.71933 0.79511 0.0
C4219 C 0.37612 0.7107 0.76073 0.0
N4220 N 0.34588 0.67896 0.80627 0.0
N4221 N 0.36608 0.744 0.74171 0.0
H4222 H 0.40511 0.69763 0.7482 0.0
H4223 H 0.40146 0.72443 0.73786 0.0
H4224 H 0.35784 0.75853 0.74088 0.0
H4225 H 0.37502 0.73966 0.72643 0.0
H4226 H 0.33161 0.67907 0.81628 0.0
H4227 H 0.35203 0.66256 0.80514 0.0
H4228 H 0.33297 0.71757 0.83072 0.0
H4229 H 0.32584 0.74185 0.81791 0.0
C4230 C 0.16105 0.58523 0.51154 0.0
C4231 C 0.17358 0.56917 0.52033 0.0
C4232 C 0.13822 0.53935 0.52317 0.0
C4233 C 0.12534 0.55674 0.51718 0.0
N4234 N 0.12559 0.59923 0.51188 0.0
N4235 N 0.17469 0.53389 0.53981 0.0
C4236 C 0.13715 0.58076 0.51354 0.0
C4237 C 0.16237 0.54727 0.52805 0.0
N4238 N 0.17175 0.604 0.5003 0.0
N4239 N 0.12792 0.51482 0.5227 0.0
H4240 H 0.19271 0.53865 0.54284 0.0
H4241 H 0.16686 0.51934 0.5483 0.0
H4242 H 0.1104 0.50829 0.51977 0.0
H4243 H 0.13692 0.5008 0.52369 0.0
H4244 H 0.16282 0.61476 0.49156 0.0
H4245 H 0.1891 0.60674 0.49716 0.0
H4246 H 0.13393 0.61774 0.51125 0.0
H4247 H 0.10809 0.59688 0.51413 0.0
C4248 C 0.7974 0.9645 0.75721 0.0
C4249 C 0.77658 0.94981 0.74318 0.0
C4250 C 0.77884 0.91357 0.76129 0.0
C4251 C 0.7987 0.92889 0.77681 0.0
N4252 N 0.83119 0.96509 0.78411 0.0
N4253 N 0.75163 0.90926 0.72527 0.0
C4254 C 0.80952 0.95309 0.77282 0.0
C4255 C 0.76897 0.92373 0.74276 0.0
N4256 N 0.80447 0.98974 0.75709 0.0
N4257 N 0.76858 0.89021 0.7654 0.0
H4258 H 0.74423 0.91691 0.71176 0.0
H4259 H 0.74617 0.88963 0.72274 0.0
H4260 H 0.77521 0.88216 0.77901 0.0
H4261 H 0.75271 0.87938 0.75636 0.0
H4262 H 0.81771 1.00222 0.7695 0.0
H4263 H 0.79635 0.99849 0.74515 0.0
H4264 H 0.84076 0.98182 0.7802 0.0
H4265 H 0.84045 0.95704 0.79575 0.0
C4266 C 0.70846 0.94287 0.51137 0.0
C4267 C 0.72767 0.95451 0.52952 0.0
C4268 C 0.71169 0.9923 0.53923 0.0
C4269 C 0.69554 0.98271 0.51782 0.0
N4270 N 0.67764 0.94848 0.48366 0.0
N4271 N 0.74815 0.99122 0.56028 0.0
C4272 C 0.69348 0.95771 0.50409 0.0
C4273 C 0.72919 0.97929 0.54373 0.0
N4274 N 0.7044 0.9175 0.50145 0.0
N4275 N 0.71042 0.01403 0.55514 0.0
H4276 H 0.76168 0.98283 0.56382 0.0
H4277 H 0.75143 0.01023 0.56911 0.0
H4278 H 0.69807 0.02417 0.55208 0.0
H4279 H 0.72004 0.02058 0.57245 0.0
H4280 H 0.68966 0.90731 0.48974 0.0
H4281 H 0.71475 0.9061 0.50689 0.0
H4282 H 0.67708 0.93171 0.47104 0.0
H4283 H 0.66561 0.95832 0.47871 0.0
C4284 C 0.34795 0.41391 0.75436 0.0
C4285 C 0.36833 0.42776 0.77033 0.0
C4286 C 0.36874 0.38776 0.78533 0.0
C4287 C 0.34707 0.37407 0.77091 0.0
N4288 N 0.32197 0.37327 0.7349 0.0
N4289 N 0.39559 0.42797 0.80425 0.0
C4290 C 0.33816 0.38717 0.75381 0.0
C4291 C 0.37773 0.41466 0.78678 0.0
N4292 N 0.33723 0.42665 0.74017 0.0
N4293 N 0.38251 0.37496 0.7958 0.0
H4294 H 0.404 0.44676 0.80488 0.0
H4295 H 0.40082 0.42102 0.81939 0.0
H4296 H 0.37936 0.35546 0.7928 0.0
H4297 H 0.39922 0.3833 0.80424 0.0
H4298 H 0.32089 0.41914 0.73048 0.0
H4299 H 0.34389 0.44566 0.73975 0.0
H4300 H 0.31664 0.3803 0.71989 0.0
H4301 H 0.31573 0.35376 0.73268 0.0
C4302 C 0.30095 0.685 0.25264 0.0
C4303 C 0.27767 0.67393 0.25451 0.0
C4304 C 0.27053 0.71532 0.27036 0.0
C4305 C 0.2945 0.72632 0.27146 0.0
N4306 N 0.33317 0.71996 0.26862 0.0
N4307 N 0.24166 0.6775 0.27112 0.0
C4308 C 0.30995 0.71069 0.26409 0.0
C4309 C 0.26277 0.68874 0.26505 0.0
N4310 N 0.31435 0.67106 0.23973 0.0
N4311 N 0.25503 0.73016 0.27377 0.0
H4312 H 0.2357 0.65793 0.2684 0.0
H4313 H 0.23125 0.68756 0.28133 0.0
H4314 H 0.25998 0.74973 0.27632 0.0
H4315 H 0.23717 0.72295 0.27093 0.0
H4316 H 0.33105 0.67885 0.23611 0.0
H4317 H 0.30804 0.65215 0.23072 0.0
H4318 H 0.3451 0.70868 0.26643 0.0
H4319 H 0.34035 0.73886 0.276 0.0
C4320 C 0.54767 0.64687 0.51695 0.0
C4321 C 0.54383 0.65033 0.49213 0.0
C4322 C 0.55449 0.60955 0.47709 0.0
C4323 C 0.55562 0.60415 0.50157 0.0
N4324 N 0.55391 0.61937 0.54532 0.0
N4325 N 0.54089 0.6329 0.44841 0.0
C4326 C 0.55257 0.62343 0.52169 0.0
C4327 C 0.54651 0.63106 0.47229 0.0
N4328 N 0.54676 0.66622 0.5361 0.0
N4329 N 0.5622 0.59469 0.45817 0.0
H4330 H 0.53599 0.64859 0.44381 0.0
H4331 H 0.53916 0.61796 0.43321 0.0
H4332 H 0.56896 0.57931 0.46031 0.0
H4333 H 0.56457 0.59933 0.44091 0.0
H4334 H 0.55144 0.66667 0.55467 0.0
H4335 H 0.54234 0.68279 0.53323 0.0
H4336 H 0.54921 0.63076 0.56048 0.0
H4337 H 0.5595 0.60421 0.54999 0.0
C4338 C 0.73639 0.29913 0.68175 0.0
C4339 C 0.721 0.31344 0.69258 0.0
C4340 C 0.74836 0.32597 0.73092 0.0
C4341 C 0.76108 0.30737 0.72239 0.0
N4342 N 0.76567 0.27598 0.68649 0.0
N4343 N 0.71129 0.3371 0.73026 0.0
C4344 C 0.75466 0.29389 0.69692 0.0
C4345 C 0.7267 0.3258 0.71795 0.0
N4346 N 0.73469 0.29181 0.65647 0.0
N4347 N 0.75789 0.34569 0.75011 0.0
H4348 H 0.69499 0.33673 0.72201 0.0
H4349 H 0.71391 0.34446 0.74935 0.0
H4350 H 0.77441 0.34823 0.75882 0.0
H4351 H 0.75052 0.36113 0.75516 0.0
H4352 H 0.74694 0.284 0.64708 0.0
H4353 H 0.72255 0.29617 0.64466 0.0
H4354 H 0.75859 0.26242 0.67046 0.0
H4355 H 0.78172 0.27443 0.69318 0.0
C4356 C 0.03924 0.42963 0.02178 0.0
C4357 C 0.04127 0.41437 0.99849 0.0
C4358 C 0.0491 0.45312 0.98115 0.0
C4359 C 0.05079 0.46891 0.0052 0.0
N4360 N 0.04894 0.47134 0.04901 0.0
N4361 N 0.05046 0.41237 0.95631 0.0
C4362 C 0.04603 0.45689 0.02567 0.0
C4363 C 0.04676 0.42639 0.97829 0.0
N4364 N 0.03072 0.41809 0.04023 0.0
N4365 N 0.04921 0.46376 0.96068 0.0
H4366 H 0.04803 0.39272 0.95292 0.0
H4367 H 0.05764 0.42041 0.94208 0.0
H4368 H 0.05027 0.48305 0.96181 0.0
H4369 H 0.0457 0.45319 0.94256 0.0
H4370 H 0.02633 0.4279 0.05663 0.0
H4371 H 0.02629 0.39842 0.03822 0.0
H4372 H 0.04853 0.46402 0.06508 0.0
H4373 H 0.05273 0.49095 0.05207 0.0
C4374 C 0.9966 0.81811 0.20524 0.0
C4375 C 0.99496 0.80587 0.17985 0.0
C4376 C 0.95392 0.78561 0.18175 0.0
C4377 C 0.95578 0.79741 0.20727 0.0
N4378 N 0.97679 0.82956 0.24152 0.0
N4379 N 0.97087 0.78275 0.14245 0.0
C4380 C 0.97648 0.81528 0.21834 0.0
C4381 C 0.97317 0.79114 0.16764 0.0
N4382 N 0.0177 0.8314 0.21723 0.0
N4383 N 0.934 0.76834 0.17128 0.0
H4384 H 0.98458 0.78645 0.13173 0.0
H4385 H 0.95513 0.77397 0.13191 0.0
H4386 H 0.91936 0.76487 0.18075 0.0
H4387 H 0.93221 0.75671 0.15373 0.0
H4388 H 0.02071 0.83832 0.23633 0.0
H4389 H 0.03273 0.83414 0.20833 0.0
H4390 H 0.99044 0.84464 0.24995 0.0
H4391 H 0.96235 0.82781 0.25145 0.0
C4392 C 0.52756 0.38046 0.08965 0.0
C4393 C 0.528 0.35508 0.07932 0.0
C4394 C 0.54851 0.36888 0.04536 0.0
C4395 C 0.55192 0.39435 0.05828 0.0
N4396 N 0.54391 0.4252 0.09167 0.0
N4397 N 0.53756 0.32428 0.04699 0.0
C4398 C 0.54078 0.40043 0.07987 0.0
C4399 C 0.53774 0.34899 0.05678 0.0
N4400 N 0.51481 0.38536 0.10902 0.0
N4401 N 0.55556 0.36391 0.02218 0.0
H4402 H 0.52879 0.30919 0.05427 0.0
H4403 H 0.54682 0.31873 0.03236 0.0
H4404 H 0.56343 0.37827 0.01345 0.0
H4405 H 0.55186 0.34592 0.01076 0.0
H4406 H 0.51195 0.40315 0.11601 0.0
H4407 H 0.50546 0.37114 0.11698 0.0
H4408 H 0.53857 0.43093 0.10901 0.0
H4409 H 0.55284 0.44028 0.0845 0.0
C4410 C 0.01003 0.35514 0.30496 0.0
C4411 C 0.01114 0.33913 0.32206 0.0
C4412 C 0.97022 0.31842 0.31052 0.0
C4413 C 0.96904 0.33509 0.29401 0.0
N4414 N 0.9855 0.37446 0.28214 0.0
N4415 N 0.99097 0.31121 0.34659 0.0
C4416 C 0.98821 0.35525 0.29355 0.0
C4417 C 0.99074 0.32263 0.32669 0.0
N4418 N 0.02979 0.36897 0.29829 0.0
N4419 N 0.95251 0.29775 0.30979 0.0
H4420 H 0.0057 0.31431 0.35904 0.0
H4421 H 0.97608 0.30082 0.35214 0.0
H4422 H 0.93734 0.29347 0.29784 0.0
H4423 H 0.95368 0.28365 0.31963 0.0
H4424 H 0.02978 0.37883 0.28395 0.0
H4425 H 0.04633 0.36867 0.30529 0.0
H4426 H 0.99852 0.39077 0.28314 0.0
H4427 H 0.96949 0.37524 0.274 0.0
C4428 C 0.02107 0.63504 0.55424 0.0
C4429 C 0.01168 0.63055 0.57633 0.0
C4430 C 0.04012 0.60681 0.58407 0.0
C4431 C 0.04864 0.60956 0.56098 0.0
N4432 N 0.05421 0.63577 0.53088 0.0
N4433 N 0.00783 0.60692 0.60866 0.0
C4434 C 0.04101 0.62632 0.5478 0.0
C4435 C 0.01952 0.61416 0.5897 0.0
N4436 N 0.01055 0.64722 0.5393 0.0
N4437 N 0.0531 0.60016 0.60182 0.0
H4438 H 0.99274 0.61268 0.61307 0.0
H4439 H 0.01181 0.59346 0.61805 0.0
H4440 H 0.0703 0.59946 0.60012 0.0
H4441 H 0.04825 0.59943 0.61956 0.0
H4442 H 0.01519 0.64885 0.52166 0.0
H4443 H 0.99556 0.65318 0.54359 0.0
H4444 H 0.0507 0.64979 0.52203 0.0
H4445 H 0.07 0.63115 0.52768 0.0
C4446 C 0.74322 0.83102 0.82528 0.0
C4447 C 0.72262 0.82323 0.80895 0.0
C4448 C 0.74447 0.81312 0.77375 0.0
C4449 C 0.76472 0.81807 0.79053 0.0
N4450 N 0.7825 0.82841 0.83274 0.0
N4451 N 0.70253 0.80478 0.76825 0.0
C4452 C 0.76384 0.8263 0.81639 0.0
C4453 C 0.72289 0.81365 0.7833 0.0
N4454 N 0.74318 0.8431 0.84938 0.0
N4455 N 0.74598 0.80845 0.7488 0.0
H4456 H 0.68657 0.8059 0.77461 0.0
H4457 H 0.70129 0.79492 0.74998 0.0
H4458 H 0.76159 0.80809 0.74146 0.0
H4459 H 0.73228 0.8068 0.73552 0.0
H4460 H 0.7582 0.85242 0.86104 0.0
H4461 H 0.72824 0.84568 0.85737 0.0
H4462 H 0.78215 0.8311 0.8519 0.0
H4463 H 0.79765 0.82454 0.82682 0.0
C4464 C 0.50562 0.57566 0.62327 0.0
C4465 C 0.51306 0.56608 0.64406 0.0
C4466 C 0.54376 0.55286 0.61832 0.0
C4467 C 0.53497 0.56017 0.59658 0.0
N4468 N 0.50652 0.57872 0.57943 0.0
N4469 N 0.53887 0.5435 0.65965 0.0
C4470 C 0.51556 0.57156 0.59952 0.0
C4471 C 0.53203 0.55415 0.64092 0.0
N4472 N 0.48913 0.58934 0.62635 0.0
N4473 N 0.56394 0.54509 0.61781 0.0
H4474 H 0.53207 0.54536 0.67672 0.0
H4475 H 0.55011 0.53144 0.65784 0.0
H4476 H 0.57249 0.54275 0.602 0.0
H4477 H 0.57319 0.54269 0.63343 0.0
H4478 H 0.48449 0.59961 0.6137 0.0
H4479 H 0.48098 0.59179 0.64255 0.0
H4480 H 0.491 0.58434 0.57863 0.0
H4481 H 0.51414 0.57802 0.56285 0.0
C4482 C 0.79203 0.20565 0.91025 0.0
C4483 C 0.79326 0.21804 0.93539 0.0
C4484 C 0.78197 0.25425 0.92342 0.0
C4485 C 0.77773 0.24025 0.89864 0.0
N4486 N 0.78513 0.20739 0.86692 0.0
N4487 N 0.79233 0.25446 0.96676 0.0
C4488 C 0.78498 0.21747 0.89152 0.0
C4489 C 0.78969 0.24282 0.94221 0.0
N4490 N 0.79596 0.18185 0.90455 0.0
N4491 N 0.77849 0.27828 0.92872 0.0
H4492 H 0.79884 0.24672 0.98072 0.0
H4493 H 0.78791 0.27146 0.97358 0.0
H4494 H 0.77268 0.28696 0.91516 0.0
H4495 H 0.7825 0.29032 0.9461 0.0
H4496 H 0.79249 0.17033 0.88687 0.0
H4497 H 0.80199 0.17306 0.9179 0.0
H4498 H 0.79207 0.19198 0.86038 0.0
H4499 H 0.77998 0.2158 0.85283 0.0
C4500 C 0.12526 0.52271 0.10691 0.0
C4501 C 0.12459 0.53912 0.12968 0.0
C4502 C 0.09399 0.55506 0.11208 0.0
C4503 C 0.094 0.53784 0.08947 0.0
N4504 N 0.10532 0.50123 0.06679 0.0
N4505 N 0.10654 0.56763 0.15609 0.0
C4506 C 0.10824 0.5203 0.08737 0.0
C4507 C 0.10833 0.55428 0.13299 0.0
N4508 N 0.14272 0.51032 0.10368 0.0
N4509 N 0.08133 0.57297 0.11328 0.0
H4510 H 0.11725 0.56793 0.17186 0.0
H4511 H 0.09335 0.5769 0.16008 0.0
H4512 H 0.07028 0.57397 0.09846 0.0
H4513 H 0.08305 0.58807 0.12829 0.0
H4514 H 0.14548 0.5004 0.08652 0.0
H4515 H 0.15577 0.51173 0.11769 0.0
H4516 H 0.11343 0.48623 0.06561 0.0
H4517 H 0.09326 0.49909 0.05165 0.0
C4518 C 0.8153 0.83578 0.38043 0.0
C4519 C 0.82086 0.81914 0.39534 0.0
C4520 C 0.82079 0.78728 0.35723 0.0
C4521 C 0.81649 0.8044 0.34218 0.0
N4522 N 0.81316 0.84671 0.33994 0.0
N4523 N 0.83286 0.78082 0.39796 0.0
C4524 C 0.81479 0.82917 0.35398 0.0
C4525 C 0.8249 0.79547 0.3837 0.0
N4526 N 0.80994 0.8578 0.39155 0.0
N4527 N 0.82025 0.7628 0.34624 0.0
H4528 H 0.83516 0.78566 0.41731 0.0
H4529 H 0.83884 0.7649 0.39063 0.0
H4530 H 0.81835 0.75643 0.32704 0.0
H4531 H 0.82046 0.7485 0.35605 0.0
H4532 H 0.80256 0.86906 0.38189 0.0
H4533 H 0.81142 0.86413 0.41076 0.0
H4534 H 0.81444 0.86579 0.34732 0.0
H4535 H 0.81283 0.84286 0.32074 0.0
C4536 C 0.50259 0.54058 0.9186 0.0
C4537 C 0.51543 0.56006 0.90779 0.0
C4538 C 0.54596 0.5681 0.94443 0.0
C4539 C 0.53381 0.54716 0.9543 0.0
N4540 N 0.50147 0.51124 0.94629 0.0
N4541 N 0.55146 0.59054 0.90996 0.0
C4542 C 0.51244 0.53299 0.93994 0.0
C4543 C 0.53772 0.57324 0.92069 0.0
N4544 N 0.48011 0.52982 0.9092 0.0
N4545 N 0.5651 0.58399 0.95825 0.0
H4546 H 0.54601 0.59501 0.89339 0.0
H4547 H 0.56871 0.599 0.91638 0.0
H4548 H 0.572 0.58042 0.9746 0.0
H4549 H 0.57326 0.60133 0.95442 0.0
H4550 H 0.46859 0.518 0.91782 0.0
H4551 H 0.4722 0.53466 0.89403 0.0
H4552 H 0.4876 0.49798 0.93552 0.0
H4553 H 0.50816 0.50538 0.96126 0.0
C4554 C 0.77128 0.23127 0.16825 0.0
C4555 C 0.78564 0.23832 0.1499 0.0
C4556 C 0.80017 0.28077 0.17587 0.0
C4557 C 0.78941 0.27136 0.19534 0.0
N4558 N 0.75317 0.24753 0.20371 0.0
N4559 N 0.81093 0.27102 0.13403 0.0
C4560 C 0.77102 0.24975 0.18938 0.0
C4561 C 0.79899 0.26368 0.15283 0.0
N4562 N 0.75947 0.20676 0.16672 0.0
N4563 N 0.80901 0.30616 0.17862 0.0
H4564 H 0.809 0.25956 0.11632 0.0
H4565 H 0.8232 0.28811 0.13619 0.0
H4566 H 0.80779 0.31892 0.19473 0.0
H4567 H 0.81503 0.31472 0.16424 0.0
H4568 H 0.75058 0.20092 0.18113 0.0
H4569 H 0.7604 0.19182 0.15242 0.0
H4570 H 0.73844 0.23265 0.19942 0.0
H4571 H 0.75213 0.26272 0.21771 0.0
C4572 C 0.15962 0.57131 0.37334 0.0
C4573 C 0.1481 0.55105 0.35377 0.0
C4574 C 0.11215 0.54711 0.37331 0.0
C4575 C 0.12297 0.56937 0.39118 0.0
N4576 N 0.15761 0.59825 0.41301 0.0
N4577 N 0.11487 0.5179 0.33522 0.0
C4578 C 0.14702 0.57999 0.39278 0.0
C4579 C 0.12494 0.5379 0.3542 0.0
N4580 N 0.18215 0.58317 0.3723 0.0
N4581 N 0.08964 0.53521 0.37441 0.0
H4582 H 0.12416 0.51036 0.32145 0.0
H4583 H 0.09739 0.50892 0.33256 0.0
H4584 H 0.07928 0.54224 0.38719 0.0
H4585 H 0.08129 0.51768 0.36351 0.0
H4586 H 0.19086 0.60006 0.38411 0.0
H4587 H 0.19212 0.5764 0.35883 0.0
H4588 H 0.17538 0.60566 0.41638 0.0
H4589 H 0.14866 0.60465 0.42767 0.0
C4590 C 0.79756 0.80666 0.65859 0.0
C4591 C 0.81178 0.83006 0.65584 0.0
C4592 C 0.81564 0.84451 0.70156 0.0
C4593 C 0.80429 0.81976 0.70432 0.0
N4594 N 0.77162 0.78688 0.68477 0.0
N4595 N 0.83462 0.87174 0.67536 0.0
C4596 C 0.79177 0.80308 0.68264 0.0
C4597 C 0.82094 0.84908 0.67755 0.0
N4598 N 0.7897 0.78752 0.6383 0.0
N4599 N 0.81819 0.86445 0.7212 0.0
H4600 H 0.83741 0.87683 0.65834 0.0
H4601 H 0.84436 0.88489 0.69044 0.0
H4602 H 0.81017 0.86256 0.73725 0.0
H4603 H 0.82461 0.8833 0.72021 0.0
H4604 H 0.78111 0.76932 0.63973 0.0
H4605 H 0.7936 0.78924 0.62041 0.0
H4606 H 0.76042 0.77583 0.66951 0.0
H4607 H 0.76441 0.78825 0.70157 0.0
C4608 C 0.71903 0.49906 0.50853 0.0
C4609 C 0.74224 0.513 0.51373 0.0
C4610 C 0.73036 0.54957 0.5362 0.0
C4611 C 0.70814 0.53374 0.53587 0.0
N4612 N 0.68072 0.49321 0.52194 0.0
N4613 N 0.7708 0.55143 0.53167 0.0
C4614 C 0.70203 0.50857 0.52154 0.0
C4615 C 0.74813 0.5385 0.52684 0.0
N4616 N 0.7136 0.47638 0.4919 0.0
N4617 N 0.73435 0.575 0.54573 0.0
H4618 H 0.78415 0.544 0.52423 0.0
H4619 H 0.77644 0.56891 0.54389 0.0
H4620 H 0.72138 0.58352 0.55256 0.0
H4621 H 0.74975 0.58786 0.54475 0.0
H4622 H 0.69672 0.4662 0.48573 0.0
H4623 H 0.72606 0.46895 0.48249 0.0
H4624 H 0.67633 0.47387 0.51417 0.0
H4625 H 0.66774 0.49927 0.53149 0.0
C4626 C 0.17491 0.08838 0.51465 0.0
C4627 C 0.17711 0.10764 0.50056 0.0
C4628 C 0.13471 0.0958 0.48964 0.0
C4629 C 0.13256 0.07608 0.5033 0.0
N4630 N 0.1516 0.04993 0.52354 0.0
N4631 N 0.15977 0.12675 0.47096 0.0
C4632 C 0.15298 0.07123 0.51411 0.0
C4633 C 0.15717 0.11039 0.48688 0.0
N4634 N 0.19369 0.08694 0.5293 0.0
N4635 N 0.11517 0.10084 0.47955 0.0
H4636 H 0.17576 0.13814 0.46904 0.0
H4637 H 0.1465 0.12778 0.45834 0.0
H4638 H 0.09866 0.08963 0.47973 0.0
H4639 H 0.11513 0.11672 0.47199 0.0
H4640 H 0.19263 0.07572 0.54257 0.0
H4641 H 0.21018 0.09839 0.52954 0.0
H4642 H 0.16596 0.04374 0.52914 0.0
H4643 H 0.13599 0.0373 0.52396 0.0
C4644 C 0.27603 0.89629 0.78464 0.0
C4645 C 0.25673 0.89332 0.76657 0.0
C4646 C 0.26417 0.84954 0.74975 0.0
C4647 C 0.28199 0.85164 0.7694 0.0
N4648 N 0.30126 0.87761 0.80806 0.0
N4649 N 0.23157 0.86424 0.73286 0.0
C4650 C 0.28679 0.8753 0.78732 0.0
C4651 C 0.2509 0.86919 0.74923 0.0
N4652 N 0.28495 0.91982 0.79912 0.0
N4653 N 0.2596 0.82831 0.73131 0.0
H4654 H 0.22158 0.87741 0.73204 0.0
H4655 H 0.22432 0.8466 0.72149 0.0
H4656 H 0.26791 0.81363 0.73169 0.0
H4657 H 0.2491 0.82604 0.7149 0.0
H4658 H 0.30051 0.92457 0.81049 0.0
H4659 H 0.27801 0.93534 0.79786 0.0
H4660 H 0.3035 0.89233 0.82353 0.0
H4661 H 0.30989 0.86367 0.81034 0.0
C4662 C 0.47078 0.02858 0.03243 0.0
C4663 C 0.45861 1.00323 0.02712 0.0
C4664 C 0.49277 0.98952 0.01289 0.0
C4665 C 0.50538 0.01545 0.01773 0.0
N4666 N 0.50216 0.05967 0.02781 0.0
N4667 N 0.45612 0.95919 0.01027 0.0
C4668 C 0.49329 0.03477 0.02598 0.0
C4669 C 0.46909 0.98355 0.01692 0.0
N4670 N 0.46062 0.04729 0.04337 0.0
N4671 N 0.50351 0.97041 0.00498 0.0
H4672 H 0.43939 0.95384 0.01498 0.0
H4673 H 0.46144 0.94444 0.9993 0.0
H4674 H 0.5196 0.97331 0.99824 0.0
H4675 H 0.49679 0.95152 0.00562 0.0
H4676 H 0.46904 0.0665 0.04753 0.0
H4677 H 0.44413 0.04359 0.04928 0.0
H4678 H 0.51828 0.06705 0.02317 0.0
H4679 H 0.51828 0.06705 0.02317 0.0
C4680 C 0.87372 0.65338 0.78879 0.0
C4681 C 0.86343 0.64442 0.80896 0.0
C4682 C 0.82768 0.65587 0.79773 0.0
C4683 C 0.83735 0.66308 0.77651 0.0
N4684 N 0.87089 0.67588 0.75546 0.0
N4685 N 0.83429 0.64345 0.83706 0.0
C4686 C 0.86094 0.6644 0.77337 0.0
C4687 C 0.84168 0.64825 0.81509 0.0
N4688 N 0.89484 0.64938 0.78322 0.0
N4689 N 0.8048 0.65462 0.80031 0.0
H4690 H 0.84456 0.63755 0.8497 0.0
H4691 H 0.81922 0.64737 0.84369 0.0
H4692 H 0.79391 0.65991 0.78785 0.0
H4693 H 0.79617 0.647 0.81399 0.0
H4694 H 0.90177 0.65207 0.76677 0.0
H4695 H 0.90518 0.64229 0.79465 0.0
H4696 H 0.88851 0.67933 0.75357 0.0
H4697 H 0.86177 0.68402 0.74377 0.0
C4698 C 0.92295 0.64379 0.02507 0.0
C4699 C 0.90034 0.62954 0.01528 0.0
C4700 C 0.91231 0.58981 0.01592 0.0
C4701 C 0.93385 0.60415 0.02889 0.0
N4702 N 0.96088 0.64427 0.04444 0.0
N4703 N 0.87423 0.58952 0.99694 0.0
C4704 C 0.93969 0.63103 0.03262 0.0
C4705 C 0.89533 0.60263 0.00911 0.0
N4706 N 0.92829 0.66948 0.02689 0.0
N4707 N 0.90802 0.5639 0.01101 0.0
H4708 H 0.86149 0.59842 0.9919 0.0
H4709 H 0.86926 0.56996 0.99095 0.0
H4710 H 0.92051 0.55422 0.01493 0.0
H4711 H 0.8924 0.55172 1.00301 0.0
H4712 H 0.94477 0.68114 0.03213 0.0
H4713 H 0.91633 0.67915 0.0214 0.0
H4714 H 0.96575 0.6639 0.0501 0.0
H4715 H 0.97371 0.63541 0.04932 0.0
C4716 C 0.27806 0.16503 0.76146 0.0
C4717 C 0.25932 0.15937 0.77613 0.0
C4718 C 0.26669 0.20626 0.7931 0.0
C4719 C 0.28372 0.21225 0.77648 0.0
N4720 N 0.30376 0.19558 0.74288 0.0
N4721 N 0.2339 0.17618 0.80339 0.0
C4722 C 0.28892 0.19105 0.76027 0.0
C4723 C 0.25324 0.18051 0.79124 0.0
N4724 N 0.28623 0.1454 0.74918 0.0
N4725 N 0.26416 0.22506 0.81194 0.0
H4726 H 0.22369 0.15806 0.80259 0.0
H4727 H 0.22678 0.19062 0.81233 0.0
H4728 H 0.27424 0.24346 0.81478 0.0
H4729 H 0.25415 0.22183 0.82637 0.0
H4730 H 0.30137 0.14784 0.74051 0.0
H4731 H 0.27897 0.1265 0.7495 0.0
H4732 H 0.306 0.18161 0.7283 0.0
H4733 H 0.31264 0.2137 0.74186 0.0
C4734 C 0.32433 0.90091 0.27085 0.0
C4735 C 0.3428 0.91179 0.28947 0.0
C4736 C 0.35195 0.87071 0.28782 0.0
C4737 C 0.33232 0.85953 0.27029 0.0
N4738 N 0.31124 0.86789 0.23491 0.0
N4739 N 0.37341 0.90778 0.31777 0.0
C4740 C 0.32149 0.87551 0.25876 0.0
C4741 C 0.35638 0.89687 0.29865 0.0
N4742 N 0.30969 0.91501 0.26439 0.0
N4743 N 0.36814 0.85733 0.29123 0.0
H4744 H 0.37692 0.92699 0.32611 0.0
H4745 H 0.38249 0.89746 0.3269 0.0
H4746 H 0.36674 0.83889 0.28147 0.0
H4747 H 0.38433 0.86552 0.30106 0.0
H4748 H 0.29469 0.90708 0.25221 0.0
H4749 H 0.3114 0.9339 0.27315 0.0
H4750 H 0.30608 0.88042 0.22503 0.0
H4751 H 0.30922 0.84982 0.22415 0.0
C4752 C 0.58597 0.44094 0.52885 0.0
C4753 C 0.58496 0.43503 0.55295 0.0
C4754 C 0.57088 0.47406 0.56654 0.0
C4755 C 0.57424 0.48177 0.54333 0.0
N4756 N 0.58815 0.47251 0.5031 0.0
N4757 N 0.58012 0.44906 0.59589 0.0
C4758 C 0.58244 0.46504 0.52458 0.0
C4759 C 0.5783 0.45243 0.57197 0.0
N4760 N 0.58993 0.42324 0.50973 0.0
N4761 N 0.56001 0.48727 0.58365 0.0
H4762 H 0.58562 0.43387 0.60089 0.0
H4763 H 0.57843 0.4626 0.61116 0.0
H4764 H 0.55426 0.50303 0.5808 0.0
H4765 H 0.55429 0.481 0.59937 0.0
H4766 H 0.58837 0.42476 0.49121 0.0
H4767 H 0.593 0.40597 0.51224 0.0
H4768 H 0.5971 0.46307 0.49028 0.0
H4769 H 0.58532 0.48908 0.49867 0.0
C4770 C 0.39363 0.75322 0.33552 0.0
C4771 C 0.4108 0.77387 0.34996 0.0
C4772 C 0.38971 0.80283 0.33402 0.0
C4773 C 0.37165 0.78211 0.32102 0.0
N4774 N 0.353 0.73871 0.32073 0.0
N4775 N 0.42045 0.81859 0.3681 0.0
C4776 C 0.37266 0.75755 0.32486 0.0
C4777 C 0.40752 0.79879 0.35059 0.0
N4778 N 0.39732 0.72936 0.3314 0.0
N4779 N 0.38988 0.82664 0.33076 0.0
H4780 H 0.43274 0.81635 0.38122 0.0
H4781 H 0.41719 0.83663 0.37138 0.0
H4782 H 0.37651 0.83024 0.3202 0.0
H4783 H 0.4037 0.84222 0.33733 0.0
H4784 H 0.38618 0.71415 0.31918 0.0
H4785 H 0.41256 0.72543 0.33811 0.0
H4786 H 0.35243 0.72088 0.32471 0.0
H4787 H 0.33687 0.74223 0.31668 0.0
C4788 C 0.09667 0.65734 0.0667 0.0
C4789 C 0.08824 0.66846 0.04783 0.0
C4790 C 0.06988 0.62531 0.0235 0.0
C4791 C 0.07911 0.61382 0.04172 0.0
N4792 N 0.09855 0.61965 0.08267 0.0
N4793 N 0.0715 0.66265 0.00579 0.0
C4794 C 0.09201 0.6302 0.06371 0.0
C4795 C 0.07637 0.65227 0.02549 0.0
N4796 N 0.10938 0.67282 0.08758 0.0
N4797 N 0.05268 0.61103 0.00581 0.0
H4798 H 0.07579 0.68215 0.00655 0.0
H4799 H 0.06533 0.65182 0.98808 0.0
H4800 H 0.04585 0.59186 0.00472 0.0
H4801 H 0.04335 0.61871 0.99392 0.0
H4802 H 0.11913 0.66667 0.10038 0.0
H4803 H 0.11113 0.69237 0.09185 0.0
H4804 H 0.10474 0.62966 0.10061 0.0
H4805 H 0.0973 0.60028 0.0806 0.0
C4806 C 0.15373 0.27549 0.86916 0.0
C4807 C 0.13297 0.28198 0.86155 0.0
C4808 C 0.15186 0.29765 0.82701 0.0
C4809 C 0.17358 0.29539 0.83717 0.0
N4810 N 0.19536 0.28167 0.86785 0.0
N4811 N 0.11216 0.29944 0.83313 0.0
C4812 C 0.17447 0.2837 0.85797 0.0
C4813 C 0.13196 0.29284 0.84023 0.0
N4814 N 0.15358 0.2615 0.88712 0.0
N4815 N 0.1504 0.30443 0.8045 0.0
H4816 H 0.097 0.29532 0.84164 0.0
H4817 H 0.11106 0.31027 0.81978 0.0
H4818 H 0.16468 0.30773 0.79445 0.0
H4819 H 0.1349 0.30439 0.79476 0.0
H4820 H 0.16728 0.25385 0.89186 0.0
H4821 H 0.13895 0.25584 0.89602 0.0
H4822 H 0.19788 0.27618 0.88464 0.0
H4823 H 0.21056 0.2866 0.85963 0.0
C4824 C 0.6117 0.73317 0.98828 0.0
C4825 C 0.60164 0.73007 0.96358 0.0
C4826 C 0.57297 0.69245 0.96817 0.0
C4827 C 0.58314 0.69552 0.99281 0.0
N4828 N 0.61572 0.71388 0.02376 0.0
N4829 N 0.57699 0.70352 0.92786 0.0
C4830 C 0.60371 0.7143 1.00202 0.0
C4831 C 0.58362 0.70858 0.95282 0.0
N4832 N 0.62789 0.75478 0.99913 0.0
N4833 N 0.55274 0.67473 0.95977 0.0
H4834 H 0.58478 0.71483 0.91608 0.0
H4835 H 0.5654 0.68697 0.91844 0.0
H4836 H 0.54471 0.66218 0.97031 0.0
H4837 H 0.54311 0.67353 0.94304 0.0
H4838 H 0.63385 0.75929 0.01794 0.0
H4839 H 0.63413 0.76926 0.98986 0.0
H4840 H 0.63214 0.72539 0.03004 0.0
H4841 H 0.61022 0.70035 0.03437 0.0
C4842 C 0.13082 0.74709 0.70901 0.0
C4843 C 0.11793 0.76081 0.72478 0.0
C4844 C 0.14745 0.76727 0.75953 0.0
C4845 C 0.15761 0.74935 0.74503 0.0
N4846 N 0.15897 0.72139 0.70607 0.0
N4847 N 0.11318 0.78347 0.76539 0.0
C4848 C 0.14946 0.7392 0.71967 0.0
C4849 C 0.12617 0.77114 0.75009 0.0
N4850 N 0.1253 0.74191 0.68385 0.0
N4851 N 0.15836 0.78087 0.78206 0.0
H4852 H 0.0975 0.78679 0.75919 0.0
H4853 H 0.11717 0.78889 0.78457 0.0
H4854 H 0.17398 0.7784 0.78957 0.0
H4855 H 0.15307 0.79615 0.7922 0.0
H4856 H 0.13529 0.73393 0.6712 0.0
H4857 H 0.11194 0.74796 0.67551 0.0
H4858 H 0.15206 0.7113 0.68831 0.0
H4859 H 0.17284 0.71527 0.71321 0.0
C4860 C 0.10366 0.44746 0.49234 0.0
C4861 C 0.12001 0.45442 0.47595 0.0
C4862 C 0.09968 0.48485 0.46474 0.0
C4863 C 0.08317 0.47842 0.48153 0.0
N4864 N 0.06577 0.44875 0.50558 0.0
N4865 N 0.13836 0.48477 0.45341 0.0
C4866 C 0.08422 0.45835 0.49389 0.0
C4867 C 0.11974 0.47523 0.46487 0.0
N4868 N 0.10695 0.43025 0.50614 0.0
N4869 N 0.09529 0.4979 0.447 0.0
H4870 H 0.15299 0.47727 0.45322 0.0
H4871 H 0.14017 0.50141 0.44666 0.0
H4872 H 0.07893 0.5006 0.44256 0.0
H4873 H 0.10651 0.50212 0.4338 0.0
H4874 H 0.09678 0.42552 0.52002 0.0
H4875 H 0.12142 0.42248 0.50498 0.0
H4876 H 0.06451 0.43295 0.51356 0.0
H4877 H 0.05078 0.45559 0.5054 0.0
C4878 C 0.40405 0.26669 0.26145 0.0
C4879 C 0.40523 0.2646 0.23561 0.0
C4880 C 0.36523 0.26766 0.22945 0.0
C4881 C 0.36453 0.2721 0.25565 0.0
N4882 N 0.3832 0.27724 0.2969 0.0
N4883 N 0.38839 0.26543 0.19498 0.0
C4884 C 0.38392 0.27188 0.27176 0.0
C4885 C 0.3862 0.2656 0.2196 0.0
N4886 N 0.42198 0.26309 0.2759 0.0
N4887 N 0.34579 0.26488 0.21377 0.0
H4888 H 0.40296 0.26239 0.18644 0.0
H4889 H 0.37637 0.26999 0.18321 0.0
H4890 H 0.33071 0.26935 0.21954 0.0
H4891 H 0.3443 0.25726 0.19481 0.0
H4892 H 0.42135 0.2617 0.2944 0.0
H4893 H 0.43711 0.25969 0.26884 0.0
H4894 H 0.39753 0.28033 0.30978 0.0
H4895 H 0.3685 0.28047 0.30502 0.0
C4896 C 0.59619 0.50314 0.40597 0.0
C4897 C 0.61603 0.52074 0.40089 0.0
C4898 C 0.61882 0.54304 0.44591 0.0
C4899 C 0.59785 0.52645 0.45092 0.0
N4900 N 0.57283 0.48491 0.43598 0.0
N4901 N 0.64334 0.56047 0.41633 0.0
C4902 C 0.58814 0.50511 0.43078 0.0
C4903 C 0.62625 0.54149 0.42097 0.0
N4904 N 0.58415 0.48479 0.38659 0.0
N4905 N 0.63353 0.55892 0.46515 0.0
H4906 H 0.65073 0.55945 0.39962 0.0
H4907 H 0.64884 0.57814 0.42828 0.0
H4908 H 0.63159 0.55925 0.48367 0.0
H4909 H 0.64991 0.56921 0.46308 0.0
H4910 H 0.56793 0.47339 0.38752 0.0
H4911 H 0.58946 0.48254 0.36878 0.0
H4912 H 0.56659 0.46774 0.42344 0.0
H4913 H 0.56876 0.4839 0.45391 0.0
C4914 C 0.33094 0.84809 0.11329 0.0
C4915 C 0.33768 0.87493 0.11871 0.0
C4916 C 0.35998 0.87518 0.15729 0.0
C4917 C 0.35391 0.84834 0.15139 0.0
N4918 N 0.32892 0.8093 0.12821 0.0
N4919 N 0.3535 0.91435 0.14772 0.0
C4920 C 0.33765 0.83481 0.13092 0.0
C4921 C 0.35042 0.88859 0.14152 0.0
N4922 N 0.31972 0.83529 0.09059 0.0
N4923 N 0.37553 0.88767 0.17737 0.0
H4924 H 0.34652 0.92452 0.13632 0.0
H4925 H 0.36121 0.92539 0.16484 0.0
H4926 H 0.38196 0.87835 0.19 0.0
H4927 H 0.38285 0.90707 0.18103 0.0
H4928 H 0.31706 0.81578 0.08439 0.0
H4929 H 0.31427 0.84431 0.07714 0.0
H4930 H 0.31518 0.79897 0.11515 0.0
H4931 H 0.33405 0.79877 0.14041 0.0
C4932 C 0.99479 0.54063 0.92546 0.0
C4933 C 0.00829 0.55337 0.90946 0.0
C4934 C 0.04206 0.56423 0.93958 0.0
C4935 C 0.03009 0.54744 0.95371 0.0
N4936 N 0.9917 0.52747 0.96387 0.0
N4937 N 0.0448 0.57587 0.89961 0.0
C4938 C 1.00552 0.53781 0.94781 0.0
C4939 C 0.03192 0.56479 0.91599 0.0
N4940 N 0.97176 0.52959 0.91848 0.0
N4941 N 0.06152 0.58218 0.94999 0.0
H4942 H 0.03763 0.57731 0.88236 0.0
H4943 H 0.06277 0.58196 0.90257 0.0
H4944 H 0.06789 0.5848 0.96849 0.0
H4945 H 0.06931 0.59668 0.94143 0.0
H4946 H 0.96212 0.51561 0.92648 0.0
H4947 H 0.96222 0.53325 0.90371 0.0
H4948 H 0.97412 0.52706 0.96357 0.0
H4949 H 0.9971 0.51997 0.97811 0.0
C4950 C 0.31442 0.28618 0.66428 0.0
C4951 C 0.30563 0.26134 0.64982 0.0
C4952 C 0.29683 0.24582 0.68823 0.0
C4953 C 0.30676 0.2705 0.70308 0.0
N4954 N 0.32985 0.31279 0.70442 0.0
N4955 N 0.28583 0.21791 0.64747 0.0
C4956 C 0.31651 0.29045 0.69088 0.0
C4957 C 0.29606 0.24132 0.6617 0.0
N4958 N 0.32047 0.30594 0.65249 0.0
N4959 N 0.28927 0.22614 0.69976 0.0
H4960 H 0.28656 0.21317 0.62837 0.0
H4961 H 0.27555 0.20333 0.65414 0.0
H4962 H 0.28749 0.22882 0.71867 0.0
H4963 H 0.28526 0.2071 0.69101 0.0
H4964 H 0.32424 0.3249 0.6616 0.0
H4965 H 0.31972 0.30348 0.63321 0.0
H4966 H 0.33993 0.32662 0.69661 0.0
H4967 H 0.33275 0.31682 0.72361 0.0
C4968 C 0.61849 0.51275 0.11111 0.0
C4969 C 0.6125 0.5235 0.13491 0.0
C4970 C 0.58268 0.53894 0.11112 0.0
C4971 C 0.58973 0.52983 0.08727 0.0
N4972 N 0.6172 0.50991 0.06628 0.0
N4973 N 0.59028 0.5505 0.15646 0.0
C4974 C 0.60846 0.51732 0.08799 0.0
C4975 C 0.59513 0.53779 0.13442 0.0
N4976 N 0.63364 0.4974 0.11037 0.0
N4977 N 0.56299 0.54758 0.11168 0.0
H4978 H 0.59767 0.54905 0.17358 0.0
H4979 H 0.58027 0.56385 0.15771 0.0
H4980 H 0.55407 0.54933 0.09559 0.0
H4981 H 0.5548 0.55148 0.12763 0.0
H4982 H 0.63651 0.48591 0.09415 0.0
H4983 H 0.6423 0.49482 0.12631 0.0
H4984 H 0.63261 0.50405 0.06524 0.0
H4985 H 0.61004 0.51178 0.04932 0.0
C4986 C 0.32094 0.8561 0.87746 0.0
C4987 C 0.3341 0.84803 0.89502 0.0
C4988 C 0.33747 0.81183 0.86374 0.0
C4989 C 0.32208 0.81869 0.84711 0.0
N4990 N 0.29231 0.84133 0.84284 0.0
N4991 N 0.35226 0.81651 0.90678 0.0
C4992 C 0.31186 0.83912 0.85525 0.0
C4993 C 0.34162 0.82529 0.88881 0.0
N4994 N 0.31696 0.87992 0.88196 0.0
N4995 N 0.34851 0.79315 0.85552 0.0
H4996 H 0.35591 0.82643 0.9252 0.0
H4997 H 0.35602 0.79872 0.90376 0.0
H4998 H 0.34555 0.78283 0.83731 0.0
H4999 H 0.36158 0.78907 0.8663 0.0
H5000 H 0.30897 0.887 0.86842 0.0
H5001 H 0.32365 0.8934 0.89816 0.0
H5002 H 0.28298 0.85464 0.84952 0.0
H5003 H 0.28407 0.82787 0.82758 0.0
C5004 C 0.01153 0.52188 0.70219 0.0
C5005 C 0.99232 0.53251 0.69874 0.0
C5006 C 0.99272 0.5229 0.65383 0.0
C5007 C 0.01125 0.51115 0.65722 0.0
N5008 N 0.04252 0.50556 0.68366 0.0
N5009 N 0.96836 0.54938 0.67283 0.0
C5010 C 0.02209 0.51268 0.68117 0.0
C5011 C 0.9843 0.5353 0.67501 0.0
N5012 N 0.01892 0.51963 0.72542 0.0
N5013 N 0.98239 0.52096 0.63049 0.0
H5014 H 0.96139 0.55813 0.68804 0.0
H5015 H 0.96346 0.55425 0.65632 0.0
H5016 H 0.98816 0.51216 0.61442 0.0
H5017 H 0.96721 0.52663 0.62695 0.0
H5018 H 0.03089 0.50921 0.72885 0.0
H5019 H 0.01222 0.5274 0.74136 0.0
H5020 H 0.05241 0.50841 0.7006 0.0
H5021 H 0.05064 0.4987 0.66846 0.0
C5022 C 0.32187 0.23851 0.3689 0.0
C5023 C 0.31933 0.25513 0.39108 0.0
C5024 C 0.32133 0.28959 0.36791 0.0
C5025 C 0.32294 0.27264 0.34518 0.0
N5026 N 0.33292 0.23373 0.32691 0.0
N5027 N 0.31677 0.29647 0.41218 0.0
C5028 C 0.32548 0.24785 0.34655 0.0
C5029 C 0.31941 0.28073 0.39069 0.0
N5030 N 0.31973 0.21336 0.36882 0.0
N5031 N 0.32239 0.31449 0.36818 0.0
H5032 H 0.31767 0.29162 0.42952 0.0
H5033 H 0.31268 0.31393 0.41308 0.0
H5034 H 0.32248 0.3218 0.35242 0.0
H5035 H 0.32482 0.32866 0.38411 0.0
H5036 H 0.31852 0.19962 0.3527 0.0
H5037 H 0.31722 0.20579 0.38467 0.0
H5038 H 0.33743 0.21667 0.32745 0.0
H5039 H 0.33733 0.24054 0.31104 0.0
C5040 C 0.38767 0.55528 0.53051 0.0
C5041 C 0.39095 0.58051 0.52698 0.0
C5042 C 0.42368 0.57625 0.50362 0.0
C5043 C 0.4203 0.55089 0.5069 0.0
N5044 N 0.40426 0.51893 0.52948 0.0
N5045 N 0.41551 0.61746 0.51729 0.0
C5046 C 0.40396 0.54125 0.52237 0.0
C5047 C 0.41031 0.59185 0.51603 0.0
N5048 N 0.36837 0.54427 0.54021 0.0
N5049 N 0.43885 0.58501 0.48782 0.0
H5050 H 0.40587 0.62926 0.52657 0.0
H5051 H 0.43048 0.62724 0.51137 0.0
H5052 H 0.44892 0.57405 0.47817 0.0
H5053 H 0.44016 0.60245 0.48275 0.0
H5054 H 0.3638 0.52501 0.54042 0.0
H5055 H 0.35611 0.55403 0.54672 0.0
H5056 H 0.39433 0.51239 0.54287 0.0
H5057 H 0.41596 0.50807 0.52364 0.0
C5058 C 0.95607 1.00348 0.54708 0.0
C5059 C 0.95241 0.97669 0.5436 0.0
C5060 C 0.9947 0.98152 0.54532 0.0
C5061 C 0.99823 0.00797 0.54574 0.0
N5062 N 0.98324 0.04384 0.56207 0.0
N5063 N 0.96838 0.93986 0.53736 0.0
C5064 C 0.97914 0.01906 0.55054 0.0
C5065 C 0.9718 0.96566 0.54229 0.0
N5066 N 0.93748 0.01416 0.54699 0.0
N5067 N 0.01329 0.9721 0.55078 0.0
H5068 H 0.95204 0.92763 0.53559 0.0
H5069 H 0.9815 0.9306 0.53298 0.0
H5070 H 0.02971 0.98391 0.55658 0.0
H5071 H 0.01199 0.95359 0.55305 0.0
H5072 H 0.93891 0.03319 0.54654 0.0
H5073 H 0.92046 1.00356 0.54539 0.0
H5074 H 0.97031 0.05315 0.56716 0.0
H5075 H 0.99943 0.05299 0.57133 0.0
C5076 C 0.85713 0.19856 0.29091 0.0
C5077 C 0.87264 0.19235 0.27296 0.0
C5078 C 0.86087 0.22626 0.2526 0.0
C5079 C 0.84762 0.23437 0.2722 0.0
N5080 N 0.83827 0.22982 0.31311 0.0
N5081 N 0.89175 0.20569 0.23881 0.0
C5082 C 0.84737 0.22087 0.29213 0.0
C5083 C 0.87492 0.20762 0.25428 0.0
N5084 N 0.85063 0.18243 0.3065 0.0
N5085 N 0.86016 0.23642 0.23197 0.0
H5086 H 0.90279 0.19362 0.23993 0.0
H5087 H 0.89641 0.21791 0.22676 0.0
H5088 H 0.85032 0.24953 0.23011 0.0
H5089 H 0.86732 0.23004 0.2159 0.0
H5090 H 0.83759 0.18402 0.31805 0.0
H5091 H 0.8564 0.16585 0.30583 0.0
H5092 H 0.83964 0.22311 0.32943 0.0
H5093 H 0.83082 0.2453 0.31455 0.0
C5094 C 0.66378 0.04491 0.01723 0.0
C5095 C 0.67753 0.06484 0.0086 0.0
C5096 C 0.64644 0.08691 0.00923 0.0
C5097 C 0.63164 0.06641 0.01666 0.0
N5098 N 0.62716 0.02686 0.02911 0.0
N5099 N 0.68067 0.10064 0.98923 0.0
C5100 C 0.64067 0.04556 0.0208 0.0
C5101 C 0.66832 0.08443 1.00213 0.0
N5102 N 0.6733 0.02609 0.02308 0.0
N5103 N 0.63982 0.10915 0.00988 0.0
H5104 H 0.6967 0.09872 0.98357 0.0
H5105 H 0.674 0.11403 0.98204 0.0
H5106 H 0.6244 0.11204 0.01663 0.0
H5107 H 0.65063 0.12542 0.00643 0.0
H5108 H 0.66516 0.01208 0.03196 0.0
H5109 H 0.68996 0.02472 0.01918 0.0
H5110 H 0.63022 0.00915 0.02974 0.0
H5111 H 0.61319 0.03145 0.03678 0.0
C5112 C 0.27219 0.42555 0.2409 0.0
C5113 C 0.27829 0.45201 0.24298 0.0
C5114 C 0.30988 0.45608 0.27463 0.0
C5115 C 0.30024 0.43083 0.27662 0.0
N5116 N 0.27214 0.39091 0.26189 0.0
N5117 N 0.30304 0.49314 0.26098 0.0
C5118 C 0.28171 0.41508 0.25941 0.0
C5119 C 0.29762 0.46745 0.25911 0.0
N5120 N 0.25657 0.41085 0.22179 0.0
N5121 N 0.33059 0.4691 0.2877 0.0
H5122 H 0.29486 0.50205 0.24926 0.0
H5123 H 0.31485 0.50571 0.27487 0.0
H5124 H 0.33999 0.46107 0.29922 0.0
H5125 H 0.3394 0.48685 0.28534 0.0
H5126 H 0.25252 0.39111 0.21804 0.0
H5127 H 0.24937 0.41866 0.20828 0.0
H5128 H 0.25708 0.37959 0.25147 0.0
H5129 H 0.27829 0.38262 0.27557 0.0
C5130 C 0.20579 0.4473 0.03225 0.0
C5131 C 0.22941 0.45789 0.03019 0.0
C5132 C 0.21874 0.49529 0.01922 0.0
C5133 C 0.19503 0.48264 0.01675 0.0
N5134 N 0.16549 0.44691 0.02153 0.0
N5135 N 0.25875 0.49207 0.02186 0.0
C5136 C 0.18838 0.45893 0.02395 0.0
C5137 C 0.23602 0.48214 0.0241 0.0
N5138 N 0.20007 0.42611 0.04207 0.0
N5139 N 0.22459 0.51995 0.0167 0.0
H5140 H 0.27197 0.48344 0.02607 0.0
H5141 H 0.26444 0.5081 0.01452 0.0
H5142 H 0.21215 0.52991 0.01331 0.0
H5143 H 0.24138 0.53119 0.02024 0.0
H5144 H 0.18351 0.4187 0.04632 0.0
H5145 H 0.21241 0.41705 0.04786 0.0
H5146 H 0.15946 0.42833 0.02358 0.0
H5147 H 0.15241 0.45532 0.0164 0.0
C5148 C 0.84828 0.91349 0.25423 0.0
C5149 C 0.86851 0.92742 0.27041 0.0
C5150 C 0.8689 0.88749 0.28551 0.0
C5151 C 0.84732 0.87376 0.27095 0.0
N5152 N 0.82256 0.87273 0.23461 0.0
N5153 N 0.89552 0.92778 0.30461 0.0
C5154 C 0.83853 0.88674 0.25368 0.0
C5155 C 0.87781 0.9144 0.287 0.0
N5156 N 0.83767 0.92614 0.23985 0.0
N5157 N 0.88268 0.87474 0.29605 0.0
H5158 H 0.90389 0.94659 0.30529 0.0
H5159 H 0.90065 0.92085 0.31981 0.0
H5160 H 0.8797 0.85524 0.29287 0.0
H5161 H 0.89932 0.88317 0.30467 0.0
H5162 H 0.82142 0.91855 0.22997 0.0
H5163 H 0.84431 0.94516 0.23944 0.0
H5164 H 0.81733 0.87971 0.21952 0.0
H5165 H 0.81642 0.8532 0.23237 0.0
C5166 C 0.76433 0.18518 0.77545 0.0
C5167 C 0.77642 0.17226 0.75798 0.0
C5168 C 0.80511 0.21113 0.75974 0.0
C5169 C 0.79063 0.22505 0.7727 0.0
N5170 N 0.76592 0.22351 0.80545 0.0
N5171 N 0.80844 0.17223 0.73333 0.0
C5172 C 0.77266 0.21158 0.78414 0.0
C5173 C 0.79699 0.18495 0.75028 0.0
N5174 N 0.74497 0.17226 0.78364 0.0
N5175 N 0.82745 0.22221 0.75896 0.0
H5176 H 0.80308 0.15278 0.72605 0.0
H5177 H 0.82242 0.18129 0.72531 0.0
H5178 H 0.83352 0.24115 0.76628 0.0
H5179 H 0.83986 0.21223 0.75341 0.0
H5180 H 0.73381 0.18114 0.79386 0.0
H5181 H 0.73944 0.15256 0.77921 0.0
H5182 H 0.75373 0.2147 0.81572 0.0
H5183 H 0.77561 0.24117 0.81488 0.0
loop_
_geom_bond_atom_site_label_1
_geom_bond_atom_site_label_2
_geom_bond_distance
_geom_bond_site_symmetry_2
_ccdc_geom_bond_type
Li0 N17 1.990 . S
Li0 O60 1.956 . S
Li0 O61 1.970 . S
Li0 O62 1.961 . S
Li1 N25 1.990 . S
Li1 O60 1.970 . S
Li1 O61 1.956 . S
Li1 O63 1.961 . S
Li2 N47 1.990 . S
Li2 O60 1.961 . S
Li2 O62 1.956 . S
Li2 O63 1.970 . S
Li3 N53 1.990 . S
Li3 O61 1.961 . S
Li3 O62 1.970 . S
Li3 O63 1.956 . S
C4 C6 1.348 . S
C4 C7 1.356 . S
C4 O60 1.325 . S
N5 C8 1.314 . S
N5 C9 1.279 . S
C6 C4 1.348 . S
C6 C8 1.353 . S
C6 H64 0.929 . S
C7 C4 1.356 . S
C7 C9 1.358 . S
C7 H65 0.930 . S
C8 N5 1.314 . S
C8 C6 1.353 . S
C8 H66 0.930 . S
C9 N5 1.279 . S
C9 C7 1.358 . S
C9 H67 0.930 . S
C10 C13 1.348 . S
C10 C14 1.356 . S
C10 O61 1.325 . S
C11 N12 1.279 . S
C11 C14 1.358 . S
C11 H68 0.930 . S
N12 C11 1.279 . S
N12 C15 1.314 . S
C13 C10 1.348 . S
C13 C15 1.353 . S
C13 H69 0.929 . S
C14 C10 1.356 . S
C14 C11 1.358 . S
C14 H70 0.930 . S
C15 N12 1.314 . S
C15 C13 1.353 . S
C15 H71 0.930 . S
C16 N17 1.314 . S
C16 C21 1.353 . S
C16 H22 0.930 . S
N17 Li0 1.990 . S
N17 C16 1.314 . S
N17 C19 1.279 . S
C18 C19 1.358 . S
C18 C20 1.356 . S
C18 H72 0.930 . S
C19 N17 1.279 . S
C19 C18 1.358 . S
C19 H23 0.930 . S
C20 C18 1.356 . S
C20 C21 1.348 . S
C21 C16 1.353 . S
C21 C20 1.348 . S
C21 H73 0.929 . S
H22 C16 0.930 . S
H23 C19 0.930 . S
C24 N25 1.314 . S
C24 C26 1.353 . S
C24 H30 0.930 . S
N25 Li1 1.990 . S
N25 C24 1.314 . S
N25 C28 1.279 . S
C26 C24 1.353 . S
C26 C29 1.348 . S
C26 H74 0.929 . S
C27 C28 1.358 . S
C27 C29 1.356 . S
C27 H75 0.930 . S
C28 N25 1.279 . S
C28 C27 1.358 . S
C28 H31 0.930 . S
C29 C26 1.348 . S
C29 C27 1.356 . S
H30 C24 0.930 . S
H31 C28 0.930 . S
C32 C34 1.348 . S
C32 C35 1.356 . S
C32 O62 1.325 . S
N33 C36 1.314 . S
N33 C37 1.279 . S
C34 C32 1.348 . S
C34 C36 1.353 . S
C34 H76 0.929 . S
C35 C32 1.356 . S
C35 C37 1.358 . S
C35 H77 0.930 . S
C36 N33 1.314 . S
C36 C34 1.353 . S
C36 H78 0.930 . S
C37 N33 1.279 . S
C37 C35 1.358 . S
C37 H79 0.930 . S
C38 C39 1.348 . S
C38 C40 1.356 . S
C38 O63 1.325 . S
C39 C38 1.348 . S
C39 C41 1.353 . S
C39 H80 0.929 . S
C40 C38 1.356 . S
C40 C42 1.358 . S
C40 H81 0.930 . S
C41 C39 1.353 . S
C41 N43 1.314 . S
C41 H82 0.930 . S
C42 C40 1.358 . S
C42 N43 1.279 . S
C42 H83 0.930 . S
N43 C41 1.314 . S
N43 C42 1.279 . S
C44 C46 1.353 . S
C44 N47 1.314 . S
C44 H50 0.930 . S
C45 N47 1.279 . S
C45 C48 1.358 . S
C45 H51 0.930 . S
C46 C44 1.353 . S
C46 C49 1.348 . S
C46 H84 0.929 . S
N47 Li2 1.990 . S
N47 C44 1.314 . S
N47 C45 1.279 . S
C48 C45 1.358 . S
C48 C49 1.356 . S
C48 H85 0.930 . S
C49 C46 1.348 . S
C49 C48 1.356 . S
H50 C44 0.930 . S
H51 C45 0.930 . S
C52 N53 1.314 . S
C52 C54 1.353 . S
C52 H58 0.930 . S
N53 Li3 1.990 . S
N53 C52 1.314 . S
N53 C56 1.279 . S
C54 C52 1.353 . S
C54 C57 1.348 . S
C54 H86 0.929 . S
C55 C56 1.358 . S
C55 C57 1.356 . S
C55 H87 0.930 . S
C56 N53 1.279 . S
C56 C55 1.358 . S
C56 H59 0.930 . S
C57 C54 1.348 . S
C57 C55 1.356 . S
H58 C52 0.930 . S
H59 C56 0.930 . S
O60 Li0 1.956 . S
O60 Li1 1.970 . S
O60 Li2 1.961 . S
O60 C4 1.325 . S
O61 Li0 1.970 . S
O61 Li1 1.956 . S
O61 Li3 1.961 . S
O61 C10 1.325 . S
O62 Li0 1.961 . S
O62 Li2 1.956 . S
O62 Li3 1.970 . S
O62 C32 1.325 . S
O63 Li1 1.961 . S
O63 Li2 1.970 . S
O63 Li3 1.956 . S
O63 C38 1.325 . S
H64 C6 0.929 . S
H65 C7 0.930 . S
H66 C8 0.930 . S
H67 C9 0.930 . S
H68 C11 0.930 . S
H69 C13 0.929 . S
H70 C14 0.930 . S
H71 C15 0.930 . S
H72 C18 0.930 . S
H73 C21 0.929 . S
H74 C26 0.929 . S
H75 C27 0.930 . S
H76 C34 0.929 . S
H77 C35 0.930 . S
H78 C36 0.930 . S
H79 C37 0.930 . S
H80 C39 0.929 . S
H81 C40 0.930 . S
H82 C41 0.930 . S
H83 C42 0.930 . S
H84 C46 0.929 . S
H85 C48 0.930 . S
H86 C54 0.929 . S
H87 C55 0.930 . S
Li88 N105 1.990 . S
Li88 O148 1.956 . S
Li88 O149 1.970 . S
Li88 O150 1.961 1_455 S
Li89 N113 1.990 . S
Li89 O148 1.970 . S
Li89 O149 1.956 . S
Li89 O151 1.961 1_455 S
Li90 N135 1.990 . S
Li90 O148 1.961 1_655 S
Li90 O150 1.956 . S
Li90 O151 1.970 . S
Li91 N141 1.990 . S
Li91 O149 1.961 1_655 S
Li91 O150 1.970 . S
Li91 O151 1.956 . S
C92 C94 1.348 . S
C92 C95 1.356 . S
C92 O148 1.325 . S
N93 C96 1.314 . S
N93 C97 1.279 . S
C94 C92 1.348 . S
C94 C96 1.353 . S
C94 H152 0.929 . S
C95 C92 1.356 . S
C95 C97 1.358 . S
C95 H153 0.930 . S
C96 N93 1.314 . S
C96 C94 1.353 . S
C96 H154 0.930 . S
C97 N93 1.279 . S
C97 C95 1.358 . S
C97 H155 0.930 . S
C98 C101 1.348 . S
C98 C102 1.356 . S
C98 O149 1.325 . S
C99 N100 1.279 . S
C99 C102 1.358 . S
C99 H156 0.930 . S
N100 C99 1.279 . S
N100 C103 1.314 . S
C101 C98 1.348 . S
C101 C103 1.353 . S
C101 H157 0.929 . S
C102 C98 1.356 . S
C102 C99 1.358 . S
C102 H158 0.929 1_455 S
C103 N100 1.314 . S
C103 C101 1.353 . S
C103 H159 0.930 . S
C104 N105 1.314 1_655 S
C104 C109 1.353 . S
C104 H110 0.930 . S
N105 Li88 1.990 . S
N105 C104 1.314 1_455 S
N105 C107 1.279 . S
C106 C107 1.358 . S
C106 C108 1.356 . S
C106 H160 0.930 . S
C107 N105 1.279 . S
C107 C106 1.358 . S
C107 H111 0.930 . S
C108 C106 1.356 . S
C108 C109 1.348 1_455 S
C109 C104 1.353 . S
C109 C108 1.348 1_655 S
C109 H161 0.929 . S
H110 C104 0.930 . S
H111 C107 0.930 . S
C112 N113 1.314 . S
C112 C114 1.353 . S
C112 H118 0.930 . S
N113 Li89 1.990 . S
N113 C112 1.314 . S
N113 C116 1.279 . S
C114 C112 1.353 . S
C114 C117 1.348 . S
C114 H162 0.929 . S
C115 C116 1.358 . S
C115 C117 1.356 . S
C115 H163 0.930 . S
C116 N113 1.279 . S
C116 C115 1.358 . S
C116 H119 0.930 . S
C117 C114 1.348 . S
C117 C115 1.356 . S
H118 C112 0.930 . S
H119 C116 0.930 . S
C120 C122 1.348 . S
C120 C123 1.356 . S
C120 O150 1.325 . S
N121 C124 1.314 . S
N121 C125 1.279 . S
C122 C120 1.348 . S
C122 C124 1.353 . S
C122 H164 0.929 . S
C123 C120 1.356 . S
C123 C125 1.358 . S
C123 H165 0.930 . S
C124 N121 1.314 . S
C124 C122 1.353 . S
C124 H166 0.930 . S
C125 N121 1.279 . S
C125 C123 1.358 . S
C125 H167 0.930 . S
C126 C127 1.348 . S
C126 C128 1.356 1_655 S
C126 O151 1.325 . S
C127 C126 1.348 . S
C127 C129 1.353 . S
C127 H168 0.929 . S
C128 C126 1.356 1_455 S
C128 C130 1.359 . S
C128 H169 0.930 . S
C129 C127 1.353 . S
C129 N131 1.314 . S
C129 H170 0.930 . S
C130 C128 1.359 . S
C130 N131 1.279 1_455 S
C130 H171 0.930 . S
N131 C129 1.314 . S
N131 C130 1.279 1_655 S
C132 C134 1.353 . S
C132 N135 1.314 1_455 S
C132 H138 0.930 . S
C133 N135 1.279 . S
C133 C136 1.358 . S
C133 H139 0.930 . S
C134 C132 1.353 . S
C134 C137 1.348 1_455 S
C134 H172 0.929 . S
N135 Li90 1.990 . S
N135 C132 1.314 1_655 S
N135 C133 1.279 . S
C136 C133 1.358 . S
C136 C137 1.356 . S
C136 H173 0.930 . S
C137 C134 1.348 1_655 S
C137 C136 1.356 . S
H138 C132 0.930 . S
H139 C133 0.930 . S
C140 N141 1.314 . S
C140 C142 1.353 . S
C140 H146 0.930 . S
N141 Li91 1.990 . S
N141 C140 1.314 . S
N141 C144 1.279 . S
C142 C140 1.353 . S
C142 C145 1.348 . S
C142 H174 0.929 . S
C143 C144 1.358 . S
C143 C145 1.356 . S
C143 H175 0.930 . S
C144 N141 1.279 . S
C144 C143 1.358 . S
C144 H147 0.930 . S
C145 C142 1.348 . S
C145 C143 1.356 . S
H146 C140 0.930 . S
H147 C144 0.930 . S
O148 Li88 1.956 . S
O148 Li89 1.970 . S
O148 Li90 1.961 1_455 S
O148 C92 1.325 . S
O149 Li88 1.970 . S
O149 Li89 1.956 . S
O149 Li91 1.961 1_455 S
O149 C98 1.325 . S
O150 Li88 1.961 1_655 S
O150 Li90 1.956 . S
O150 Li91 1.970 . S
O150 C120 1.325 . S
O151 Li89 1.961 1_655 S
O151 Li90 1.970 . S
O151 Li91 1.956 . S
O151 C126 1.325 . S
H152 C94 0.929 . S
H153 C95 0.930 . S
H154 C96 0.930 . S
H155 C97 0.930 . S
H156 C99 0.930 . S
H157 C101 0.929 . S
H158 C102 0.929 1_655 S
H159 C103 0.930 . S
H160 C106 0.930 . S
H161 C109 0.929 . S
H162 C114 0.929 . S
H163 C115 0.930 . S
H164 C122 0.929 . S
H165 C123 0.930 . S
H166 C124 0.930 . S
H167 C125 0.930 . S
H168 C127 0.929 . S
H169 C128 0.930 . S
H170 C129 0.930 . S
H171 C130 0.930 . S
H172 C134 0.929 . S
H173 C136 0.930 . S
H174 C142 0.929 . S
H175 C143 0.930 . S
Li176 N193 1.990 . S
Li176 O236 1.956 . S
Li176 O237 1.970 . S
Li176 O238 1.961 . S
Li177 N201 1.990 . S
Li177 O236 1.970 . S
Li177 O237 1.956 . S
Li177 O239 1.961 . S
Li178 N223 1.990 . S
Li178 O236 1.961 . S
Li178 O238 1.956 . S
Li178 O239 1.970 . S
Li179 N229 1.990 . S
Li179 O237 1.961 . S
Li179 O238 1.970 . S
Li179 O239 1.956 . S
C180 C182 1.348 . S
C180 C183 1.356 . S
C180 O236 1.325 . S
N181 C184 1.314 . S
N181 C185 1.279 . S
C182 C180 1.348 . S
C182 C184 1.353 . S
C182 H240 0.929 . S
C183 C180 1.356 . S
C183 C185 1.358 . S
C183 H241 0.930 . S
C184 N181 1.314 . S
C184 C182 1.353 . S
C184 H242 0.930 . S
C185 N181 1.279 . S
C185 C183 1.358 . S
C185 H243 0.930 . S
C186 C189 1.348 . S
C186 C190 1.356 . S
C186 O237 1.325 . S
C187 N188 1.279 . S
C187 C190 1.358 . S
C187 H244 0.930 . S
N188 C187 1.279 . S
N188 C191 1.314 . S
C189 C186 1.348 . S
C189 C191 1.353 . S
C189 H245 0.929 . S
C190 C186 1.356 . S
C190 C187 1.358 . S
C190 H246 0.930 . S
C191 N188 1.314 . S
C191 C189 1.353 . S
C191 H247 0.930 . S
C192 N193 1.314 . S
C192 C197 1.353 . S
C192 H198 0.930 . S
N193 Li176 1.990 . S
N193 C192 1.314 . S
N193 C195 1.279 . S
C194 C195 1.358 . S
C194 C196 1.356 . S
C194 H248 0.930 . S
C195 N193 1.279 . S
C195 C194 1.358 . S
C195 H199 0.930 . S
C196 C194 1.356 . S
C196 C197 1.348 . S
C197 C192 1.353 . S
C197 C196 1.348 . S
C197 H249 0.929 . S
H198 C192 0.930 . S
H199 C195 0.930 . S
C200 N201 1.314 . S
C200 C202 1.353 . S
C200 H206 0.930 . S
N201 Li177 1.990 . S
N201 C200 1.314 . S
N201 C204 1.279 . S
C202 C200 1.353 . S
C202 C205 1.348 . S
C202 H250 0.929 . S
C203 C204 1.358 . S
C203 C205 1.356 . S
C203 H251 0.930 . S
C204 N201 1.279 . S
C204 C203 1.358 . S
C204 H207 0.930 . S
C205 C202 1.348 . S
C205 C203 1.356 . S
H206 C200 0.930 . S
H207 C204 0.930 . S
C208 C210 1.348 . S
C208 C211 1.356 . S
C208 O238 1.325 . S
N209 C212 1.314 . S
N209 C213 1.279 . S
C210 C208 1.348 . S
C210 C212 1.353 . S
C210 H252 0.929 . S
C211 C208 1.356 . S
C211 C213 1.358 . S
C211 H253 0.930 . S
C212 N209 1.314 . S
C212 C210 1.353 . S
C212 H254 0.930 . S
C213 N209 1.279 . S
C213 C211 1.358 . S
C213 H255 0.930 . S
C214 C215 1.348 . S
C214 C216 1.356 . S
C214 O239 1.325 . S
C215 C214 1.348 . S
C215 C217 1.353 . S
C215 H256 0.929 . S
C216 C214 1.356 . S
C216 C218 1.358 . S
C216 H257 0.930 . S
C217 C215 1.353 . S
C217 N219 1.314 . S
C217 H258 0.930 . S
C218 C216 1.358 . S
C218 N219 1.279 . S
C218 H259 0.930 . S
N219 C217 1.314 . S
N219 C218 1.279 . S
C220 C222 1.353 . S
C220 N223 1.314 . S
C220 H226 0.930 . S
C221 N223 1.279 . S
C221 C224 1.358 . S
C221 H227 0.930 . S
C222 C220 1.353 . S
C222 C225 1.348 . S
C222 H260 0.929 . S
N223 Li178 1.990 . S
N223 C220 1.314 . S
N223 C221 1.279 . S
C224 C221 1.358 . S
C224 C225 1.356 . S
C224 H261 0.930 . S
C225 C222 1.348 . S
C225 C224 1.356 . S
H226 C220 0.930 . S
H227 C221 0.930 . S
C228 N229 1.314 . S
C228 C230 1.353 . S
C228 H234 0.930 . S
N229 Li179 1.990 . S
N229 C228 1.314 . S
N229 C232 1.279 . S
C230 C228 1.353 . S
C230 C233 1.348 . S
C230 H262 0.929 . S
C231 C232 1.358 . S
C231 C233 1.356 . S
C231 H263 0.930 . S
C232 N229 1.279 . S
C232 C231 1.358 . S
C232 H235 0.930 . S
C233 C230 1.348 . S
C233 C231 1.356 . S
H234 C228 0.930 . S
H235 C232 0.930 . S
O236 Li176 1.956 . S
O236 Li177 1.970 . S
O236 Li178 1.961 . S
O236 C180 1.325 . S
O237 Li176 1.970 . S
O237 Li177 1.956 . S
O237 Li179 1.961 . S
O237 C186 1.325 . S
O238 Li176 1.961 . S
O238 Li178 1.956 . S
O238 Li179 1.970 . S
O238 C208 1.325 . S
O239 Li177 1.961 . S
O239 Li178 1.970 . S
O239 Li179 1.956 . S
O239 C214 1.325 . S
H240 C182 0.929 . S
H241 C183 0.930 . S
H242 C184 0.930 . S
H243 C185 0.930 . S
H244 C187 0.930 . S
H245 C189 0.929 . S
H246 C190 0.930 . S
H247 C191 0.930 . S
H248 C194 0.930 . S
H249 C197 0.929 . S
H250 C202 0.929 . S
H251 C203 0.930 . S
H252 C210 0.929 . S
H253 C211 0.930 . S
H254 C212 0.930 . S
H255 C213 0.930 . S
H256 C215 0.929 . S
H257 C216 0.930 . S
H258 C217 0.930 . S
H259 C218 0.930 . S
H260 C222 0.929 . S
H261 C224 0.930 . S
H262 C230 0.929 . S
H263 C231 0.930 . S
Li264 N281 1.990 . S
Li264 O324 1.956 . S
Li264 O325 1.970 . S
Li264 O326 1.961 . S
Li265 N289 1.990 . S
Li265 O324 1.970 . S
Li265 O325 1.956 . S
Li265 O327 1.961 . S
Li266 N311 1.990 . S
Li266 O324 1.961 . S
Li266 O326 1.956 . S
Li266 O327 1.970 . S
Li267 N317 1.990 . S
Li267 O325 1.961 . S
Li267 O326 1.970 . S
Li267 O327 1.956 . S
C268 C270 1.348 . S
C268 C271 1.356 . S
C268 O324 1.325 . S
N269 C272 1.314 . S
N269 C273 1.279 . S
C270 C268 1.348 . S
C270 C272 1.353 . S
C270 H328 0.929 . S
C271 C268 1.356 . S
C271 C273 1.358 . S
C271 H329 0.930 . S
C272 N269 1.314 . S
C272 C270 1.353 . S
C272 H330 0.930 . S
C273 N269 1.279 . S
C273 C271 1.358 . S
C273 H331 0.930 . S
C274 C277 1.348 . S
C274 C278 1.356 . S
C274 O325 1.325 . S
C275 N276 1.279 . S
C275 C278 1.358 . S
C275 H332 0.930 . S
N276 C275 1.279 . S
N276 C279 1.314 . S
C277 C274 1.348 . S
C277 C279 1.353 . S
C277 H333 0.929 . S
C278 C274 1.356 . S
C278 C275 1.358 . S
C278 H334 0.930 . S
C279 N276 1.314 . S
C279 C277 1.353 . S
C279 H335 0.930 . S
C280 N281 1.314 . S
C280 C285 1.353 . S
C280 H286 0.930 . S
N281 Li264 1.990 . S
N281 C280 1.314 . S
N281 C283 1.279 . S
C282 C283 1.358 . S
C282 C284 1.356 . S
C282 H336 0.930 . S
C283 N281 1.279 . S
C283 C282 1.358 . S
C283 H287 0.930 . S
C284 C282 1.356 . S
C284 C285 1.348 . S
C285 C280 1.353 . S
C285 C284 1.348 . S
C285 H337 0.929 . S
H286 C280 0.930 . S
H287 C283 0.930 . S
C288 N289 1.314 . S
C288 C290 1.353 . S
C288 H294 0.930 . S
N289 Li265 1.990 . S
N289 C288 1.314 . S
N289 C292 1.279 . S
C290 C288 1.353 . S
C290 C293 1.348 . S
C290 H338 0.929 . S
C291 C292 1.358 . S
C291 C293 1.356 . S
C291 H339 0.930 . S
C292 N289 1.279 . S
C292 C291 1.358 . S
C292 H295 0.930 . S
C293 C290 1.348 . S
C293 C291 1.356 . S
H294 C288 0.930 . S
H295 C292 0.930 . S
C296 C298 1.348 . S
C296 C299 1.356 . S
C296 O326 1.325 . S
N297 C300 1.314 . S
N297 C301 1.279 . S
C298 C296 1.348 . S
C298 C300 1.353 . S
C298 H340 0.929 . S
C299 C296 1.356 . S
C299 C301 1.358 . S
C299 H341 0.930 . S
C300 N297 1.314 . S
C300 C298 1.353 . S
C300 H342 0.930 . S
C301 N297 1.279 . S
C301 C299 1.358 . S
C301 H343 0.930 . S
C302 C303 1.348 . S
C302 C304 1.356 . S
C302 O327 1.325 . S
C303 C302 1.348 . S
C303 C305 1.353 . S
C303 H344 0.929 . S
C304 C302 1.356 . S
C304 C306 1.358 . S
C304 H345 0.930 . S
C305 C303 1.353 . S
C305 N307 1.314 . S
C305 H346 0.930 . S
C306 C304 1.358 . S
C306 N307 1.279 . S
C306 H347 0.930 . S
N307 C305 1.314 . S
N307 C306 1.279 . S
C308 C310 1.353 . S
C308 N311 1.314 . S
C308 H314 0.930 . S
C309 N311 1.279 . S
C309 C312 1.358 . S
C309 H315 0.930 . S
C310 C308 1.353 . S
C310 C313 1.348 . S
C310 H348 0.929 . S
N311 Li266 1.990 . S
N311 C308 1.314 . S
N311 C309 1.279 . S
C312 C309 1.358 . S
C312 C313 1.356 . S
C312 H349 0.930 . S
C313 C310 1.348 . S
C313 C312 1.356 . S
H314 C308 0.930 . S
H315 C309 0.930 . S
C316 N317 1.314 . S
C316 C318 1.353 . S
C316 H322 0.930 . S
N317 Li267 1.990 . S
N317 C316 1.314 . S
N317 C320 1.279 . S
C318 C316 1.353 . S
C318 C321 1.348 . S
C318 H350 0.929 . S
C319 C320 1.358 . S
C319 C321 1.356 . S
C319 H351 0.930 . S
C320 N317 1.279 . S
C320 C319 1.358 . S
C320 H323 0.930 . S
C321 C318 1.348 . S
C321 C319 1.356 . S
H322 C316 0.930 . S
H323 C320 0.930 . S
O324 Li264 1.956 . S
O324 Li265 1.970 . S
O324 Li266 1.961 . S
O324 C268 1.325 . S
O325 Li264 1.970 . S
O325 Li265 1.956 . S
O325 Li267 1.961 . S
O325 C274 1.325 . S
O326 Li264 1.961 . S
O326 Li266 1.956 . S
O326 Li267 1.970 . S
O326 C296 1.325 . S
O327 Li265 1.961 . S
O327 Li266 1.970 . S
O327 Li267 1.956 . S
O327 C302 1.325 . S
H328 C270 0.929 . S
H329 C271 0.930 . S
H330 C272 0.930 . S
H331 C273 0.930 . S
H332 C275 0.930 . S
H333 C277 0.929 . S
H334 C278 0.930 . S
H335 C279 0.930 . S
H336 C282 0.930 . S
H337 C285 0.929 . S
H338 C290 0.929 . S
H339 C291 0.930 . S
H340 C298 0.929 . S
H341 C299 0.930 . S
H342 C300 0.930 . S
H343 C301 0.930 . S
H344 C303 0.929 . S
H345 C304 0.930 . S
H346 C305 0.930 . S
H347 C306 0.930 . S
H348 C310 0.929 . S
H349 C312 0.930 . S
H350 C318 0.929 . S
H351 C319 0.930 . S
Li352 N369 1.990 . S
Li352 O412 1.956 . S
Li352 O413 1.970 . S
Li352 O414 1.961 . S
Li353 N377 1.990 . S
Li353 O412 1.970 . S
Li353 O413 1.956 . S
Li353 O415 1.961 . S
Li354 N399 1.990 . S
Li354 O412 1.961 . S
Li354 O414 1.956 . S
Li354 O415 1.970 . S
Li355 N405 1.990 . S
Li355 O413 1.961 . S
Li355 O414 1.970 . S
Li355 O415 1.956 . S
C356 C358 1.348 . S
C356 C359 1.356 . S
C356 O412 1.325 . S
N357 C360 1.314 . S
N357 C361 1.279 . S
C358 C356 1.348 . S
C358 C360 1.353 . S
C358 H416 0.929 . S
C359 C356 1.356 . S
C359 C361 1.358 . S
C359 H417 0.930 . S
C360 N357 1.314 . S
C360 C358 1.353 . S
C360 H418 0.930 . S
C361 N357 1.279 . S
C361 C359 1.358 . S
C361 H419 0.930 . S
C362 C365 1.348 . S
C362 C366 1.356 . S
C362 O413 1.325 . S
C363 N364 1.279 . S
C363 C366 1.358 . S
C363 H420 0.930 . S
N364 C363 1.279 . S
N364 C367 1.314 . S
C365 C362 1.348 . S
C365 C367 1.353 . S
C365 H421 0.929 . S
C366 C362 1.356 . S
C366 C363 1.358 . S
C366 H422 0.930 . S
C367 N364 1.314 . S
C367 C365 1.353 . S
C367 H423 0.930 . S
C368 N369 1.314 . S
C368 C373 1.353 . S
C368 H374 0.930 . S
N369 Li352 1.990 . S
N369 C368 1.314 . S
N369 C371 1.279 . S
C370 C371 1.358 . S
C370 C372 1.356 . S
C370 H424 0.930 . S
C371 N369 1.279 . S
C371 C370 1.358 . S
C371 H375 0.930 . S
C372 C370 1.356 . S
C372 C373 1.348 . S
C373 C368 1.353 . S
C373 C372 1.348 . S
C373 H425 0.929 . S
H374 C368 0.930 . S
H375 C371 0.930 . S
C376 N377 1.314 . S
C376 C378 1.353 . S
C376 H382 0.930 . S
N377 Li353 1.990 . S
N377 C376 1.314 . S
N377 C380 1.279 . S
C378 C376 1.353 . S
C378 C381 1.348 . S
C378 H426 0.929 . S
C379 C380 1.358 . S
C379 C381 1.356 . S
C379 H427 0.930 . S
C380 N377 1.279 . S
C380 C379 1.358 . S
C380 H383 0.930 . S
C381 C378 1.348 . S
C381 C379 1.356 . S
H382 C376 0.930 . S
H383 C380 0.930 . S
C384 C386 1.348 . S
C384 C387 1.356 . S
C384 O414 1.325 . S
N385 C388 1.314 . S
N385 C389 1.279 . S
C386 C384 1.348 . S
C386 C388 1.353 . S
C386 H428 0.929 . S
C387 C384 1.356 . S
C387 C389 1.358 . S
C387 H429 0.930 . S
C388 N385 1.314 . S
C388 C386 1.353 . S
C388 H430 0.930 1_455 S
C389 N385 1.279 . S
C389 C387 1.358 . S
C389 H431 0.930 . S
C390 C391 1.348 . S
C390 C392 1.356 . S
C390 O415 1.325 . S
C391 C390 1.348 . S
C391 C393 1.353 . S
C391 H432 0.929 . S
C392 C390 1.356 . S
C392 C394 1.358 . S
C392 H433 0.930 . S
C393 C391 1.353 . S
C393 N395 1.314 . S
C393 H434 0.930 . S
C394 C392 1.358 . S
C394 N395 1.279 . S
C394 H435 0.930 . S
N395 C393 1.314 . S
N395 C394 1.279 . S
C396 C398 1.353 . S
C396 N399 1.314 . S
C396 H402 0.930 . S
C397 N399 1.279 . S
C397 C400 1.358 . S
C397 H403 0.930 . S
C398 C396 1.353 . S
C398 C401 1.348 . S
C398 H436 0.929 . S
N399 Li354 1.990 . S
N399 C396 1.314 . S
N399 C397 1.279 . S
C400 C397 1.358 . S
C400 C401 1.356 . S
C400 H437 0.930 . S
C401 C398 1.348 . S
C401 C400 1.356 . S
H402 C396 0.930 . S
H403 C397 0.930 . S
C404 N405 1.314 . S
C404 C406 1.353 . S
C404 H410 0.930 . S
N405 Li355 1.990 . S
N405 C404 1.314 . S
N405 C408 1.279 . S
C406 C404 1.353 . S
C406 C409 1.348 . S
C406 H438 0.929 . S
C407 C408 1.358 . S
C407 C409 1.356 . S
C407 H439 0.930 . S
C408 N405 1.279 . S
C408 C407 1.358 . S
C408 H411 0.930 . S
C409 C406 1.348 . S
C409 C407 1.356 . S
H410 C404 0.930 . S
H411 C408 0.930 . S
O412 Li352 1.956 . S
O412 Li353 1.970 . S
O412 Li354 1.961 . S
O412 C356 1.325 . S
O413 Li352 1.970 . S
O413 Li353 1.956 . S
O413 Li355 1.961 . S
O413 C362 1.325 . S
O414 Li352 1.961 . S
O414 Li354 1.956 . S
O414 Li355 1.970 . S
O414 C384 1.325 . S
O415 Li353 1.961 . S
O415 Li354 1.970 . S
O415 Li355 1.956 . S
O415 C390 1.325 . S
H416 C358 0.929 . S
H417 C359 0.930 . S
H418 C360 0.930 . S
H419 C361 0.930 . S
H420 C363 0.930 . S
H421 C365 0.929 . S
H422 C366 0.930 . S
H423 C367 0.930 . S
H424 C370 0.930 . S
H425 C373 0.929 . S
H426 C378 0.929 . S
H427 C379 0.930 . S
H428 C386 0.929 . S
H429 C387 0.930 . S
H430 C388 0.930 1_655 S
H431 C389 0.930 . S
H432 C391 0.929 . S
H433 C392 0.930 . S
H434 C393 0.930 . S
H435 C394 0.930 . S
H436 C398 0.929 . S
H437 C400 0.930 . S
H438 C406 0.929 . S
H439 C407 0.930 . S
Li440 N457 1.990 . S
Li440 O500 1.956 . S
Li440 O501 1.970 . S
Li440 O502 1.961 . S
Li441 N465 1.990 . S
Li441 O500 1.970 . S
Li441 O501 1.956 . S
Li441 O503 1.961 . S
Li442 N487 1.990 . S
Li442 O500 1.961 . S
Li442 O502 1.956 . S
Li442 O503 1.970 . S
Li443 N493 1.990 . S
Li443 O501 1.961 . S
Li443 O502 1.970 . S
Li443 O503 1.956 . S
C444 C446 1.348 . S
C444 C447 1.356 . S
C444 O500 1.325 . S
N445 C448 1.314 . S
N445 C449 1.279 . S
C446 C444 1.348 . S
C446 C448 1.353 . S
C446 H504 0.929 . S
C447 C444 1.356 . S
C447 C449 1.358 . S
C447 H505 0.930 . S
C448 N445 1.314 . S
C448 C446 1.353 . S
C448 H506 0.930 . S
C449 N445 1.279 . S
C449 C447 1.358 . S
C449 H507 0.930 . S
C450 C453 1.348 . S
C450 C454 1.356 . S
C450 O501 1.325 . S
C451 N452 1.279 . S
C451 C454 1.358 . S
C451 H508 0.930 . S
N452 C451 1.279 . S
N452 C455 1.314 . S
C453 C450 1.348 . S
C453 C455 1.353 . S
C453 H509 0.929 . S
C454 C450 1.356 . S
C454 C451 1.358 . S
C454 H510 0.930 . S
C455 N452 1.314 . S
C455 C453 1.353 . S
C455 H511 0.930 . S
C456 N457 1.314 . S
C456 C461 1.353 . S
C456 H462 0.930 . S
N457 Li440 1.990 . S
N457 C456 1.314 . S
N457 C459 1.279 . S
C458 C459 1.358 . S
C458 C460 1.356 . S
C458 H512 0.930 . S
C459 N457 1.279 . S
C459 C458 1.358 . S
C459 H463 0.930 . S
C460 C458 1.356 . S
C460 C461 1.348 . S
C461 C456 1.353 . S
C461 C460 1.348 . S
C461 H513 0.929 . S
H462 C456 0.930 . S
H463 C459 0.930 . S
C464 N465 1.314 . S
C464 C466 1.353 . S
C464 H470 0.930 . S
N465 Li441 1.990 . S
N465 C464 1.314 . S
N465 C468 1.279 . S
C466 C464 1.353 . S
C466 C469 1.348 . S
C466 H514 0.929 . S
C467 C468 1.358 . S
C467 C469 1.356 . S
C467 H515 0.930 . S
C468 N465 1.279 . S
C468 C467 1.358 . S
C468 H471 0.930 . S
C469 C466 1.348 . S
C469 C467 1.356 . S
H470 C464 0.930 . S
H471 C468 0.930 . S
C472 C474 1.348 . S
C472 C475 1.356 . S
C472 O502 1.325 . S
N473 C476 1.314 . S
N473 C477 1.279 . S
C474 C472 1.348 . S
C474 C476 1.353 . S
C474 H516 0.929 . S
C475 C472 1.356 . S
C475 C477 1.358 . S
C475 H517 0.930 . S
C476 N473 1.314 . S
C476 C474 1.353 . S
C476 H518 0.930 . S
C477 N473 1.279 . S
C477 C475 1.358 . S
C477 H519 0.930 . S
C478 C479 1.348 . S
C478 C480 1.356 . S
C478 O503 1.325 . S
C479 C478 1.348 . S
C479 C481 1.353 . S
C479 H520 0.929 . S
C480 C478 1.356 . S
C480 C482 1.358 . S
C480 H521 0.930 . S
C481 C479 1.353 . S
C481 N483 1.314 . S
C481 H522 0.930 . S
C482 C480 1.358 . S
C482 N483 1.279 . S
C482 H523 0.930 . S
N483 C481 1.314 . S
N483 C482 1.279 . S
C484 C486 1.353 . S
C484 N487 1.314 . S
C484 H490 0.930 . S
C485 N487 1.279 . S
C485 C488 1.358 . S
C485 H491 0.930 . S
C486 C484 1.353 . S
C486 C489 1.348 . S
C486 H524 0.929 . S
N487 Li442 1.990 . S
N487 C484 1.314 . S
N487 C485 1.279 . S
C488 C485 1.358 . S
C488 C489 1.356 . S
C488 H525 0.930 . S
C489 C486 1.348 . S
C489 C488 1.356 . S
H490 C484 0.930 . S
H491 C485 0.930 . S
C492 N493 1.314 . S
C492 C494 1.353 . S
C492 H498 0.930 . S
N493 Li443 1.990 . S
N493 C492 1.314 . S
N493 C496 1.279 . S
C494 C492 1.353 . S
C494 C497 1.348 . S
C494 H526 0.929 . S
C495 C496 1.358 . S
C495 C497 1.356 . S
C495 H527 0.930 . S
C496 N493 1.279 . S
C496 C495 1.358 . S
C496 H499 0.930 . S
C497 C494 1.348 . S
C497 C495 1.356 . S
H498 C492 0.930 . S
H499 C496 0.930 . S
O500 Li440 1.956 . S
O500 Li441 1.970 . S
O500 Li442 1.961 . S
O500 C444 1.325 . S
O501 Li440 1.970 . S
O501 Li441 1.956 . S
O501 Li443 1.961 . S
O501 C450 1.325 . S
O502 Li440 1.961 . S
O502 Li442 1.956 . S
O502 Li443 1.970 . S
O502 C472 1.325 . S
O503 Li441 1.961 . S
O503 Li442 1.970 . S
O503 Li443 1.956 . S
O503 C478 1.325 . S
H504 C446 0.929 . S
H505 C447 0.930 . S
H506 C448 0.930 . S
H507 C449 0.930 . S
H508 C451 0.930 . S
H509 C453 0.929 . S
H510 C454 0.930 . S
H511 C455 0.930 . S
H512 C458 0.930 . S
H513 C461 0.929 . S
H514 C466 0.929 . S
H515 C467 0.930 . S
H516 C474 0.929 . S
H517 C475 0.930 . S
H518 C476 0.930 . S
H519 C477 0.930 . S
H520 C479 0.929 . S
H521 C480 0.930 . S
H522 C481 0.930 . S
H523 C482 0.930 . S
H524 C486 0.929 . S
H525 C488 0.930 . S
H526 C494 0.929 . S
H527 C495 0.930 . S
Li528 N545 1.990 . S
Li528 O588 1.956 . S
Li528 O589 1.970 . S
Li528 O590 1.961 . S
Li529 N553 1.990 . S
Li529 O588 1.970 . S
Li529 O589 1.956 . S
Li529 O591 1.961 . S
Li530 N575 1.990 . S
Li530 O588 1.961 . S
Li530 O590 1.956 . S
Li530 O591 1.970 . S
Li531 N581 1.990 . S
Li531 O589 1.961 . S
Li531 O590 1.970 . S
Li531 O591 1.956 . S
C532 C534 1.348 . S
C532 C535 1.356 . S
C532 O588 1.325 . S
N533 C536 1.314 . S
N533 C537 1.279 . S
C534 C532 1.348 . S
C534 C536 1.353 . S
C534 H592 0.929 . S
C535 C532 1.356 . S
C535 C537 1.358 . S
C535 H593 0.930 . S
C536 N533 1.314 . S
C536 C534 1.353 . S
C536 H594 0.930 . S
C537 N533 1.279 . S
C537 C535 1.358 . S
C537 H595 0.930 . S
C538 C541 1.348 . S
C538 C542 1.356 . S
C538 O589 1.325 . S
C539 N540 1.279 . S
C539 C542 1.358 . S
C539 H596 0.930 . S
N540 C539 1.279 . S
N540 C543 1.314 . S
C541 C538 1.348 . S
C541 C543 1.353 . S
C541 H597 0.929 . S
C542 C538 1.356 . S
C542 C539 1.358 . S
C542 H598 0.930 . S
C543 N540 1.314 . S
C543 C541 1.353 . S
C543 H599 0.930 . S
C544 N545 1.314 . S
C544 C549 1.353 . S
C544 H550 0.930 . S
N545 Li528 1.990 . S
N545 C544 1.314 . S
N545 C547 1.279 . S
C546 C547 1.358 . S
C546 C548 1.356 . S
C546 H600 0.930 . S
C547 N545 1.279 . S
C547 C546 1.358 . S
C547 H551 0.930 . S
C548 C546 1.356 . S
C548 C549 1.348 . S
C549 C544 1.353 . S
C549 C548 1.348 . S
C549 H601 0.929 . S
H550 C544 0.930 . S
H551 C547 0.930 . S
C552 N553 1.314 . S
C552 C554 1.353 . S
C552 H558 0.930 . S
N553 Li529 1.990 . S
N553 C552 1.314 . S
N553 C556 1.279 . S
C554 C552 1.353 . S
C554 C557 1.348 . S
C554 H602 0.929 . S
C555 C556 1.358 . S
C555 C557 1.356 . S
C555 H603 0.930 . S
C556 N553 1.279 . S
C556 C555 1.358 . S
C556 H559 0.930 . S
C557 C554 1.348 . S
C557 C555 1.356 . S
H558 C552 0.930 . S
H559 C556 0.930 . S
C560 C562 1.348 . S
C560 C563 1.356 . S
C560 O590 1.325 . S
N561 C564 1.314 . S
N561 C565 1.279 . S
C562 C560 1.348 . S
C562 C564 1.353 . S
C562 H604 0.929 . S
C563 C560 1.356 . S
C563 C565 1.358 . S
C563 H605 0.930 . S
C564 N561 1.314 . S
C564 C562 1.353 . S
C564 H606 0.930 . S
C565 N561 1.279 . S
C565 C563 1.358 . S
C565 H607 0.930 . S
C566 C567 1.348 . S
C566 C568 1.356 . S
C566 O591 1.325 . S
C567 C566 1.348 . S
C567 C569 1.353 . S
C567 H608 0.929 . S
C568 C566 1.356 . S
C568 C570 1.358 . S
C568 H609 0.930 . S
C569 C567 1.353 . S
C569 N571 1.314 . S
C569 H610 0.930 . S
C570 C568 1.358 . S
C570 N571 1.279 . S
C570 H611 0.930 . S
N571 C569 1.314 . S
N571 C570 1.279 . S
C572 C574 1.353 . S
C572 N575 1.314 . S
C572 H578 0.930 . S
C573 N575 1.279 . S
C573 C576 1.358 . S
C573 H579 0.930 . S
C574 C572 1.353 . S
C574 C577 1.348 . S
C574 H612 0.929 . S
N575 Li530 1.990 . S
N575 C572 1.314 . S
N575 C573 1.279 . S
C576 C573 1.358 . S
C576 C577 1.356 . S
C576 H613 0.930 . S
C577 C574 1.348 . S
C577 C576 1.356 . S
H578 C572 0.930 . S
H579 C573 0.930 . S
C580 N581 1.314 . S
C580 C582 1.353 . S
C580 H586 0.930 . S
N581 Li531 1.990 . S
N581 C580 1.314 . S
N581 C584 1.279 . S
C582 C580 1.353 . S
C582 C585 1.348 . S
C582 H614 0.929 . S
C583 C584 1.358 . S
C583 C585 1.356 . S
C583 H615 0.930 . S
C584 N581 1.279 . S
C584 C583 1.358 . S
C584 H587 0.930 . S
C585 C582 1.348 . S
C585 C583 1.356 . S
H586 C580 0.930 . S
H587 C584 0.930 . S
O588 Li528 1.956 . S
O588 Li529 1.970 . S
O588 Li530 1.961 . S
O588 C532 1.325 . S
O589 Li528 1.970 . S
O589 Li529 1.956 . S
O589 Li531 1.961 . S
O589 C538 1.325 . S
O590 Li528 1.961 . S
O590 Li530 1.956 . S
O590 Li531 1.970 . S
O590 C560 1.325 . S
O591 Li529 1.961 . S
O591 Li530 1.970 . S
O591 Li531 1.956 . S
O591 C566 1.325 . S
H592 C534 0.929 . S
H593 C535 0.930 . S
H594 C536 0.930 . S
H595 C537 0.930 . S
H596 C539 0.930 . S
H597 C541 0.929 . S
H598 C542 0.930 . S
H599 C543 0.930 . S
H600 C546 0.930 . S
H601 C549 0.929 . S
H602 C554 0.929 . S
H603 C555 0.930 . S
H604 C562 0.929 . S
H605 C563 0.930 . S
H606 C564 0.930 . S
H607 C565 0.930 . S
H608 C567 0.929 . S
H609 C568 0.930 . S
H610 C569 0.930 . S
H611 C570 0.930 . S
H612 C574 0.929 . S
H613 C576 0.930 . S
H614 C582 0.929 . S
H615 C583 0.930 . S
Li616 N633 1.990 . S
Li616 O676 1.929 1_455 S
Li616 O677 1.970 . S
Li616 O678 1.961 . S
Li617 N641 1.987 . S
Li617 O676 1.966 . S
Li617 O677 1.958 1_655 S
Li617 O679 1.964 1_655 S
Li618 N663 1.990 . S
Li618 O676 1.926 1_455 S
Li618 O678 1.956 . S
Li618 O679 1.970 . S
Li619 N669 1.990 . S
Li619 O677 1.961 . S
Li619 O678 1.970 . S
Li619 O679 1.956 . S
C620 C622 1.348 . S
C620 C623 1.356 . S
C620 O676 1.360 . S
N621 C624 1.314 1_554 S
N621 C625 1.279 . S
C622 C620 1.348 . S
C622 C624 1.353 . S
C622 H680 0.929 . S
C623 C620 1.356 . S
C623 C625 1.358 1_556 S
C623 H681 0.930 1_556 S
C624 N621 1.314 1_556 S
C624 C622 1.353 . S
C624 H682 0.930 . S
C625 N621 1.279 . S
C625 C623 1.358 1_554 S
C625 H683 0.930 . S
C626 C629 1.348 . S
C626 C630 1.356 . S
C626 O677 1.325 . S
C627 N628 1.279 . S
C627 C630 1.358 . S
C627 H684 0.930 . S
N628 C627 1.279 . S
N628 C631 1.314 . S
C629 C626 1.348 . S
C629 C631 1.353 . S
C629 H685 0.929 . S
C630 C626 1.356 . S
C630 C627 1.358 . S
C630 H686 0.930 . S
C631 N628 1.314 . S
C631 C629 1.353 . S
C631 H687 0.930 . S
C632 N633 1.314 . S
C632 C637 1.353 1_556 S
C632 H638 0.930 . S
N633 Li616 1.990 . S
N633 C632 1.314 . S
N633 C635 1.279 . S
C634 C635 1.358 1_554 S
C634 C636 1.356 . S
C634 H688 0.930 . S
C635 N633 1.279 . S
C635 C634 1.358 1_556 S
C635 H639 0.933 . S
C636 C634 1.356 . S
C636 C637 1.348 . S
C637 C632 1.353 1_554 S
C637 C636 1.348 . S
C637 H689 0.929 . S
H638 C632 0.930 . S
H639 C635 0.933 . S
C640 N641 1.314 . S
C640 C642 1.353 . S
C640 H646 0.930 . S
N641 Li617 1.987 . S
N641 C640 1.314 . S
N641 C644 1.279 . S
C642 C640 1.353 . S
C642 C645 1.348 . S
C642 H690 0.929 . S
C643 C644 1.358 . S
C643 C645 1.356 . S
C643 H691 0.930 . S
C644 N641 1.279 . S
C644 C643 1.358 . S
C644 H647 0.930 . S
C645 C642 1.348 . S
C645 C643 1.356 . S
H646 C640 0.930 . S
H647 C644 0.930 . S
C648 C650 1.348 . S
C648 C651 1.370 . S
C648 O678 1.325 . S
N649 C652 1.314 1_554 S
N649 C653 1.279 . S
C650 C648 1.348 . S
C650 C652 1.353 . S
C650 H692 0.929 . S
C651 C648 1.370 . S
C651 C653 1.351 1_556 S
C651 H693 0.923 1_556 S
C652 N649 1.314 1_556 S
C652 C650 1.353 . S
C652 H694 0.930 . S
C653 N649 1.279 . S
C653 C651 1.351 1_554 S
C653 H695 0.930 . S
C654 C655 1.348 . S
C654 C656 1.356 . S
C654 O679 1.325 . S
C655 C654 1.348 . S
C655 C657 1.353 . S
C655 H696 0.929 . S
C656 C654 1.356 . S
C656 C658 1.358 . S
C656 H697 0.930 . S
C657 C655 1.353 . S
C657 N659 1.314 . S
C657 H698 0.930 . S
C658 C656 1.358 . S
C658 N659 1.279 . S
C658 H699 0.930 . S
N659 C657 1.314 . S
N659 C658 1.279 . S
C660 C662 1.354 1_455 S
C660 N663 1.345 . S
C660 H666 0.894 1_455 S
C661 N663 1.279 . S
C661 C664 1.345 1_556 S
C661 H667 0.930 . S
C662 C660 1.354 1_655 S
C662 C665 1.334 1_656 S
C662 H700 0.929 . S
N663 Li618 1.990 . S
N663 C660 1.345 . S
N663 C661 1.279 . S
C664 C661 1.345 1_554 S
C664 C665 1.354 . S
C664 H701 0.940 . S
C665 C662 1.334 1_454 S
C665 C664 1.354 . S
H666 C660 0.894 1_655 S
H667 C661 0.930 . S
C668 N669 1.314 . S
C668 C670 1.353 . S
C668 H674 0.930 . S
N669 Li619 1.990 . S
N669 C668 1.314 . S
N669 C672 1.279 . S
C670 C668 1.353 . S
C670 C673 1.348 . S
C670 H702 0.929 . S
C671 C672 1.358 . S
C671 C673 1.356 . S
C671 H703 0.930 . S
C672 N669 1.279 . S
C672 C671 1.358 . S
C672 H675 0.930 . S
C673 C670 1.348 . S
C673 C671 1.356 . S
H674 C668 0.930 . S
H675 C672 0.930 . S
O676 Li616 1.929 1_655 S
O676 Li617 1.966 . S
O676 Li618 1.926 1_655 S
O676 C620 1.360 . S
O677 Li616 1.970 . S
O677 Li617 1.958 1_455 S
O677 Li619 1.961 . S
O677 C626 1.325 . S
O678 Li616 1.961 . S
O678 Li618 1.956 . S
O678 Li619 1.970 . S
O678 C648 1.325 . S
O679 Li617 1.964 1_455 S
O679 Li618 1.970 . S
O679 Li619 1.956 . S
O679 C654 1.325 . S
H680 C622 0.929 . S
H681 C623 0.930 1_554 S
H682 C624 0.930 . S
H683 C625 0.930 . S
H684 C627 0.930 . S
H685 C629 0.929 . S
H686 C630 0.930 . S
H687 C631 0.930 . S
H688 C634 0.930 . S
H689 C637 0.929 . S
H690 C642 0.929 . S
H691 C643 0.930 . S
H692 C650 0.929 . S
H693 C651 0.923 1_554 S
H694 C652 0.930 . S
H695 C653 0.930 . S
H696 C655 0.929 . S
H697 C656 0.930 . S
H698 C657 0.930 . S
H699 C658 0.930 . S
H700 C662 0.929 . S
H701 C664 0.940 . S
H702 C670 0.929 . S
H703 C671 0.930 . S
Li704 N721 1.990 . S
Li704 O764 1.956 1_545 S
Li704 O765 1.970 . S
Li704 O766 1.961 . S
Li705 N729 1.990 . S
Li705 O764 1.970 . S
Li705 O765 1.956 1_565 S
Li705 O767 1.961 1_565 S
Li706 N751 1.990 . S
Li706 O764 1.961 1_545 S
Li706 O766 1.956 . S
Li706 O767 1.970 . S
Li707 N757 1.990 . S
Li707 O765 1.961 . S
Li707 O766 1.970 . S
Li707 O767 1.956 . S
C708 C710 1.348 . S
C708 C711 1.356 . S
C708 O764 1.325 . S
N709 C712 1.314 . S
N709 C713 1.279 . S
C710 C708 1.348 . S
C710 C712 1.353 . S
C710 H768 0.929 . S
C711 C708 1.356 . S
C711 C713 1.358 . S
C711 H769 0.930 . S
C712 N709 1.314 . S
C712 C710 1.353 . S
C712 H770 0.930 . S
C713 N709 1.279 . S
C713 C711 1.358 . S
C713 H771 0.930 . S
C714 C717 1.348 . S
C714 C718 1.356 . S
C714 O765 1.325 . S
C715 N716 1.279 . S
C715 C718 1.358 . S
C715 H772 0.930 . S
N716 C715 1.279 . S
N716 C719 1.314 . S
C717 C714 1.348 . S
C717 C719 1.353 . S
C717 H773 0.929 . S
C718 C714 1.356 . S
C718 C715 1.358 . S
C718 H774 0.930 . S
C719 N716 1.314 . S
C719 C717 1.353 . S
C719 H775 0.930 . S
C720 N721 1.314 . S
C720 C725 1.353 . S
C720 H726 0.930 . S
N721 Li704 1.990 . S
N721 C720 1.314 . S
N721 C723 1.279 . S
C722 C723 1.358 . S
C722 C724 1.356 . S
C722 H776 0.930 . S
C723 N721 1.279 . S
C723 C722 1.358 . S
C723 H727 0.930 1_545 S
C724 C722 1.356 . S
C724 C725 1.348 . S
C725 C720 1.353 . S
C725 C724 1.348 . S
C725 H777 0.929 . S
H726 C720 0.930 . S
H727 C723 0.930 1_565 S
C728 N729 1.314 . S
C728 C730 1.353 . S
C728 H734 0.930 . S
N729 Li705 1.990 . S
N729 C728 1.314 . S
N729 C732 1.279 . S
C730 C728 1.353 . S
C730 C733 1.348 . S
C730 H778 0.929 . S
C731 C732 1.358 . S
C731 C733 1.356 . S
C731 H779 0.930 . S
C732 N729 1.279 . S
C732 C731 1.358 . S
C732 H735 0.930 . S
C733 C730 1.348 . S
C733 C731 1.356 . S
H734 C728 0.930 . S
H735 C732 0.930 . S
C736 C738 1.348 . S
C736 C739 1.356 . S
C736 O766 1.325 . S
N737 C740 1.314 . S
N737 C741 1.279 . S
C738 C736 1.348 . S
C738 C740 1.353 . S
C738 H780 0.929 . S
C739 C736 1.356 . S
C739 C741 1.358 . S
C739 H781 0.930 . S
C740 N737 1.314 . S
C740 C738 1.353 . S
C740 H782 0.930 . S
C741 N737 1.279 . S
C741 C739 1.358 . S
C741 H783 0.930 . S
C742 C743 1.348 . S
C742 C744 1.354 1_545 S
C742 O767 1.325 . S
C743 C742 1.348 . S
C743 C745 1.353 . S
C743 H784 0.929 . S
C744 C742 1.354 1_565 S
C744 C746 1.354 . S
C744 H785 0.937 . S
C745 C743 1.353 . S
C745 N747 1.315 1_545 S
C745 H786 0.930 . S
C746 C744 1.354 . S
C746 N747 1.278 . S
C746 H787 0.930 . S
N747 C745 1.315 1_565 S
N747 C746 1.278 . S
C748 C750 1.353 . S
C748 N751 1.314 1_565 S
C748 H754 0.930 . S
C749 N751 1.279 . S
C749 C752 1.358 . S
C749 H755 0.930 . S
C750 C748 1.353 . S
C750 C753 1.348 1_565 S
C750 H788 0.929 . S
N751 Li706 1.990 . S
N751 C748 1.314 1_545 S
N751 C749 1.279 . S
C752 C749 1.358 . S
C752 C753 1.356 . S
C752 H789 0.930 . S
C753 C750 1.348 1_545 S
C753 C752 1.356 . S
H754 C748 0.930 . S
H755 C749 0.930 . S
C756 N757 1.314 . S
C756 C758 1.353 . S
C756 H762 0.930 . S
N757 Li707 1.990 . S
N757 C756 1.314 . S
N757 C760 1.279 . S
C758 C756 1.353 . S
C758 C761 1.348 . S
C758 H790 0.929 . S
C759 C760 1.358 . S
C759 C761 1.356 . S
C759 H791 0.930 . S
C760 N757 1.279 . S
C760 C759 1.358 . S
C760 H763 0.930 . S
C761 C758 1.348 . S
C761 C759 1.356 . S
H762 C756 0.930 . S
H763 C760 0.930 . S
O764 Li704 1.956 1_565 S
O764 Li705 1.970 . S
O764 Li706 1.961 1_565 S
O764 C708 1.325 . S
O765 Li704 1.970 . S
O765 Li705 1.956 1_545 S
O765 Li707 1.961 . S
O765 C714 1.325 . S
O766 Li704 1.961 . S
O766 Li706 1.956 . S
O766 Li707 1.970 . S
O766 C736 1.325 . S
O767 Li705 1.961 1_545 S
O767 Li706 1.970 . S
O767 Li707 1.956 . S
O767 C742 1.325 . S
H768 C710 0.929 . S
H769 C711 0.930 . S
H770 C712 0.930 . S
H771 C713 0.930 . S
H772 C715 0.930 . S
H773 C717 0.929 . S
H774 C718 0.930 . S
H775 C719 0.930 . S
H776 C722 0.930 . S
H777 C725 0.929 . S
H778 C730 0.929 . S
H779 C731 0.930 . S
H780 C738 0.929 . S
H781 C739 0.930 . S
H782 C740 0.930 . S
H783 C741 0.930 . S
H784 C743 0.929 . S
H785 C744 0.937 . S
H786 C745 0.930 . S
H787 C746 0.930 . S
H788 C750 0.929 . S
H789 C752 0.930 . S
H790 C758 0.929 . S
H791 C759 0.930 . S
Li792 N809 1.990 . S
Li792 O852 1.956 . S
Li792 O853 1.970 . S
Li792 O854 1.961 . S
Li793 N817 1.990 . S
Li793 O852 1.970 . S
Li793 O853 1.956 . S
Li793 O855 1.961 . S
Li794 N839 1.990 . S
Li794 O852 1.961 . S
Li794 O854 1.956 . S
Li794 O855 1.970 . S
Li795 N845 1.990 . S
Li795 O853 1.961 . S
Li795 O854 1.970 . S
Li795 O855 1.956 . S
C796 C798 1.348 . S
C796 C799 1.356 . S
C796 O852 1.325 . S
N797 C800 1.314 . S
N797 C801 1.279 . S
C798 C796 1.348 . S
C798 C800 1.353 . S
C798 H856 0.929 . S
C799 C796 1.356 . S
C799 C801 1.358 . S
C799 H857 0.930 . S
C800 N797 1.314 . S
C800 C798 1.353 . S
C800 H858 0.930 . S
C801 N797 1.279 . S
C801 C799 1.358 . S
C801 H859 0.930 . S
C802 C805 1.348 . S
C802 C806 1.356 . S
C802 O853 1.325 . S
C803 N804 1.279 . S
C803 C806 1.358 . S
C803 H860 0.930 . S
N804 C803 1.279 . S
N804 C807 1.314 . S
C805 C802 1.348 . S
C805 C807 1.353 . S
C805 H861 0.929 . S
C806 C802 1.356 . S
C806 C803 1.358 . S
C806 H862 0.930 . S
C807 N804 1.314 . S
C807 C805 1.353 . S
C807 H863 0.930 . S
C808 N809 1.314 . S
C808 C813 1.353 . S
C808 H814 0.930 . S
N809 Li792 1.990 . S
N809 C808 1.314 . S
N809 C811 1.279 . S
C810 C811 1.358 . S
C810 C812 1.356 . S
C810 H864 0.930 . S
C811 N809 1.279 . S
C811 C810 1.358 . S
C811 H815 0.930 . S
C812 C810 1.356 . S
C812 C813 1.348 . S
C813 C808 1.353 . S
C813 C812 1.348 . S
C813 H865 0.929 . S
H814 C808 0.930 . S
H815 C811 0.930 . S
C816 N817 1.314 . S
C816 C818 1.353 . S
C816 H822 0.930 . S
N817 Li793 1.990 . S
N817 C816 1.314 . S
N817 C820 1.279 . S
C818 C816 1.353 . S
C818 C821 1.348 . S
C818 H866 0.929 . S
C819 C820 1.358 . S
C819 C821 1.356 . S
C819 H867 0.930 . S
C820 N817 1.279 . S
C820 C819 1.358 . S
C820 H823 0.930 . S
C821 C818 1.348 . S
C821 C819 1.356 . S
H822 C816 0.930 . S
H823 C820 0.930 . S
C824 C826 1.348 . S
C824 C827 1.356 . S
C824 O854 1.325 . S
N825 C828 1.314 . S
N825 C829 1.279 . S
C826 C824 1.348 . S
C826 C828 1.353 . S
C826 H868 0.929 . S
C827 C824 1.356 . S
C827 C829 1.358 . S
C827 H869 0.930 . S
C828 N825 1.314 . S
C828 C826 1.353 . S
C828 H870 0.930 . S
C829 N825 1.279 . S
C829 C827 1.358 . S
C829 H871 0.930 . S
C830 C831 1.348 . S
C830 C832 1.356 . S
C830 O855 1.325 . S
C831 C830 1.348 . S
C831 C833 1.353 . S
C831 H872 0.929 . S
C832 C830 1.356 . S
C832 C834 1.358 . S
C832 H873 0.930 . S
C833 C831 1.353 . S
C833 N835 1.314 . S
C833 H874 0.930 . S
C834 C832 1.358 . S
C834 N835 1.279 . S
C834 H875 0.930 . S
N835 C833 1.314 . S
N835 C834 1.279 . S
C836 C838 1.353 . S
C836 N839 1.314 . S
C836 H842 0.930 . S
C837 N839 1.279 . S
C837 C840 1.358 . S
C837 H843 0.930 . S
C838 C836 1.353 . S
C838 C841 1.348 . S
C838 H876 0.929 . S
N839 Li794 1.990 . S
N839 C836 1.314 . S
N839 C837 1.279 . S
C840 C837 1.358 . S
C840 C841 1.356 . S
C840 H877 0.930 . S
C841 C838 1.348 . S
C841 C840 1.356 . S
H842 C836 0.930 . S
H843 C837 0.930 . S
C844 N845 1.314 . S
C844 C846 1.353 . S
C844 H850 0.930 . S
N845 Li795 1.990 . S
N845 C844 1.314 . S
N845 C848 1.279 . S
C846 C844 1.353 . S
C846 C849 1.348 . S
C846 H878 0.929 . S
C847 C848 1.358 . S
C847 C849 1.356 . S
C847 H879 0.930 . S
C848 N845 1.279 . S
C848 C847 1.358 . S
C848 H851 0.930 . S
C849 C846 1.348 . S
C849 C847 1.356 . S
H850 C844 0.930 . S
H851 C848 0.930 . S
O852 Li792 1.956 . S
O852 Li793 1.970 . S
O852 Li794 1.961 . S
O852 C796 1.325 . S
O853 Li792 1.970 . S
O853 Li793 1.956 . S
O853 Li795 1.961 . S
O853 C802 1.325 . S
O854 Li792 1.961 . S
O854 Li794 1.956 . S
O854 Li795 1.970 . S
O854 C824 1.325 . S
O855 Li793 1.961 . S
O855 Li794 1.970 . S
O855 Li795 1.956 . S
O855 C830 1.325 . S
H856 C798 0.929 . S
H857 C799 0.930 . S
H858 C800 0.930 . S
H859 C801 0.930 . S
H860 C803 0.930 . S
H861 C805 0.929 . S
H862 C806 0.930 . S
H863 C807 0.930 . S
H864 C810 0.930 . S
H865 C813 0.929 . S
H866 C818 0.929 . S
H867 C819 0.930 . S
H868 C826 0.929 . S
H869 C827 0.930 . S
H870 C828 0.930 . S
H871 C829 0.930 . S
H872 C831 0.929 . S
H873 C832 0.930 . S
H874 C833 0.930 . S
H875 C834 0.930 . S
H876 C838 0.929 . S
H877 C840 0.930 . S
H878 C846 0.929 . S
H879 C847 0.930 . S
Li880 N897 1.990 . S
Li880 O940 1.956 . S
Li880 O941 1.970 . S
Li880 O942 1.977 . S
Li881 N905 1.990 . S
Li881 O940 1.966 . S
Li881 O941 1.982 . S
Li881 O943 1.938 1_545 S
Li882 N927 1.990 . S
Li882 O940 1.961 1_565 S
Li882 O942 1.935 1_565 S
Li882 O943 1.970 . S
Li883 N933 1.990 . S
Li883 O941 1.961 1_565 S
Li883 O942 1.972 1_565 S
Li883 O943 1.956 . S
C884 C886 1.348 . S
C884 C887 1.356 . S
C884 O940 1.325 . S
N885 C888 1.314 . S
N885 C889 1.279 . S
C886 C884 1.348 . S
C886 C888 1.353 . S
C886 H944 0.929 . S
C887 C884 1.356 . S
C887 C889 1.358 . S
C887 H945 0.930 . S
C888 N885 1.314 . S
C888 C886 1.353 . S
C888 H946 0.930 . S
C889 N885 1.279 . S
C889 C887 1.358 . S
C889 H947 0.930 . S
C890 C893 1.348 . S
C890 C894 1.356 . S
C890 O941 1.325 . S
C891 N892 1.279 . S
C891 C894 1.358 . S
C891 H948 0.930 . S
N892 C891 1.279 . S
N892 C895 1.314 . S
C893 C890 1.348 . S
C893 C895 1.353 . S
C893 H949 0.929 . S
C894 C890 1.356 . S
C894 C891 1.358 . S
C894 H950 0.930 . S
C895 N892 1.314 . S
C895 C893 1.353 . S
C895 H951 0.930 . S
C896 N897 1.314 . S
C896 C901 1.353 . S
C896 H902 0.930 . S
N897 Li880 1.990 . S
N897 C896 1.314 . S
N897 C899 1.279 . S
C898 C899 1.358 . S
C898 C900 1.356 . S
C898 H952 0.930 . S
C899 N897 1.279 . S
C899 C898 1.358 . S
C899 H903 0.930 . S
C900 C898 1.356 . S
C900 C901 1.348 . S
C901 C896 1.353 . S
C901 C900 1.348 . S
C901 H953 0.929 . S
H902 C896 0.930 . S
H903 C899 0.930 . S
C904 N905 1.280 1_565 S
C904 C906 1.353 . S
C904 H910 0.930 . S
N905 Li881 1.990 . S
N905 C904 1.280 1_545 S
N905 C908 1.312 . S
C906 C904 1.353 . S
C906 C909 1.333 1_565 S
C906 H954 0.929 . S
C907 C908 1.358 . S
C907 C909 1.372 . S
C907 H955 0.930 . S
C908 N905 1.312 . S
C908 C907 1.358 . S
C908 H911 0.930 . S
C909 C906 1.333 1_545 S
C909 C907 1.372 . S
H910 C904 0.930 . S
H911 C908 0.930 . S
C912 C914 1.348 1_545 S
C912 C915 1.356 . S
C912 O942 1.325 . S
N913 C916 1.314 . S
N913 C917 1.279 1_565 S
C914 C912 1.348 1_565 S
C914 C916 1.353 . S
C914 H956 0.929 . S
C915 C912 1.356 . S
C915 C917 1.358 . S
C915 H957 0.930 . S
C916 N913 1.314 . S
C916 C914 1.353 . S
C916 H958 0.930 . S
C917 N913 1.279 1_545 S
C917 C915 1.358 . S
C917 H959 0.930 . S
C918 C919 1.348 . S
C918 C920 1.356 . S
C918 O943 1.325 . S
C919 C918 1.348 . S
C919 C921 1.353 . S
C919 H960 0.929 . S
C920 C918 1.356 . S
C920 C922 1.358 . S
C920 H961 0.930 . S
C921 C919 1.353 . S
C921 N923 1.314 . S
C921 H962 0.930 . S
C922 C920 1.358 . S
C922 N923 1.279 . S
C922 H963 0.930 . S
N923 C921 1.314 . S
N923 C922 1.279 . S
C924 C926 1.353 . S
C924 N927 1.314 . S
C924 H930 0.930 . S
C925 N927 1.279 . S
C925 C928 1.358 . S
C925 H931 0.930 . S
C926 C924 1.353 . S
C926 C929 1.348 . S
C926 H964 0.929 . S
N927 Li882 1.990 . S
N927 C924 1.314 . S
N927 C925 1.279 . S
C928 C925 1.358 . S
C928 C929 1.356 . S
C928 H965 0.930 . S
C929 C926 1.348 . S
C929 C928 1.356 . S
H930 C924 0.930 . S
H931 C925 0.930 . S
C932 N933 1.314 1_545 S
C932 C934 1.353 . S
C932 H938 0.930 . S
N933 Li883 1.990 . S
N933 C932 1.314 1_565 S
N933 C936 1.279 . S
C934 C932 1.353 . S
C934 C937 1.348 1_545 S
C934 H966 0.929 . S
C935 C936 1.358 . S
C935 C937 1.356 . S
C935 H967 0.930 . S
C936 N933 1.279 . S
C936 C935 1.358 . S
C936 H939 0.930 . S
C937 C934 1.348 1_565 S
C937 C935 1.356 . S
H938 C932 0.930 . S
H939 C936 0.930 . S
O940 Li880 1.956 . S
O940 Li881 1.966 . S
O940 Li882 1.961 1_545 S
O940 C884 1.325 . S
O941 Li880 1.970 . S
O941 Li881 1.982 . S
O941 Li883 1.961 1_545 S
O941 C890 1.325 . S
O942 Li880 1.977 . S
O942 Li882 1.935 1_545 S
O942 Li883 1.972 1_545 S
O942 C912 1.325 . S
O943 Li881 1.938 1_565 S
O943 Li882 1.970 . S
O943 Li883 1.956 . S
O943 C918 1.325 . S
H944 C886 0.929 . S
H945 C887 0.930 . S
H946 C888 0.930 . S
H947 C889 0.930 . S
H948 C891 0.930 . S
H949 C893 0.929 . S
H950 C894 0.930 . S
H951 C895 0.930 . S
H952 C898 0.930 . S
H953 C901 0.929 . S
H954 C906 0.929 . S
H955 C907 0.930 . S
H956 C914 0.929 . S
H957 C915 0.930 . S
H958 C916 0.930 . S
H959 C917 0.930 . S
H960 C919 0.929 . S
H961 C920 0.930 . S
H962 C921 0.930 . S
H963 C922 0.930 . S
H964 C926 0.929 . S
H965 C928 0.930 . S
H966 C934 0.929 . S
H967 C935 0.930 . S
Li968 N985 1.990 . S
Li968 O1028 1.956 . S
Li968 O1029 1.970 . S
Li968 O1030 1.961 1_554 S
Li969 N993 1.990 . S
Li969 O1028 1.970 . S
Li969 O1029 1.956 . S
Li969 O1031 1.961 . S
Li970 N1015 1.990 . S
Li970 O1028 1.961 . S
Li970 O1030 1.956 1_554 S
Li970 O1031 1.970 . S
Li971 N1021 1.990 . S
Li971 O1029 1.961 1_556 S
Li971 O1030 1.970 . S
Li971 O1031 1.956 1_556 S
C972 C974 1.348 . S
C972 C975 1.356 . S
C972 O1028 1.325 . S
N973 C976 1.314 1_545 S
N973 C977 1.279 . S
C974 C972 1.348 . S
C974 C976 1.353 . S
C974 H1032 0.929 . S
C975 C972 1.356 . S
C975 C977 1.358 1_565 S
C975 H1033 0.930 1_565 S
C976 N973 1.314 1_565 S
C976 C974 1.353 . S
C976 H1034 0.930 . S
C977 N973 1.279 . S
C977 C975 1.358 1_545 S
C977 H1035 0.930 . S
C978 C981 1.348 . S
C978 C982 1.356 1_554 S
C978 O1029 1.325 . S
C979 N980 1.279 . S
C979 C982 1.358 . S
C979 H1036 0.930 . S
N980 C979 1.279 . S
N980 C983 1.314 1_556 S
C981 C978 1.348 . S
C981 C983 1.353 . S
C981 H1037 0.929 . S
C982 C978 1.356 1_556 S
C982 C979 1.358 . S
C982 H1038 0.930 . S
C983 N980 1.314 1_554 S
C983 C981 1.353 . S
C983 H1039 0.930 . S
C984 N985 1.314 1_556 S
C984 C989 1.353 . S
C984 H990 0.930 . S
N985 Li968 1.990 . S
N985 C984 1.314 1_554 S
N985 C987 1.279 . S
C986 C987 1.358 . S
C986 C988 1.356 . S
C986 H1040 0.930 1_565 S
C987 N985 1.279 . S
C987 C986 1.358 . S
C987 H991 0.930 . S
C988 C986 1.356 . S
C988 C989 1.348 1_554 S
C989 C984 1.353 . S
C989 C988 1.348 1_556 S
C989 H1041 0.929 . S
H990 C984 0.930 . S
H991 C987 0.930 . S
C992 N993 1.314 . S
C992 C994 1.353 . S
C992 H998 0.930 . S
N993 Li969 1.990 . S
N993 C992 1.314 . S
N993 C996 1.279 . S
C994 C992 1.353 . S
C994 C997 1.348 . S
C994 H1042 0.929 . S
C995 C996 1.358 . S
C995 C997 1.356 . S
C995 H1043 0.930 . S
C996 N993 1.279 . S
C996 C995 1.358 . S
C996 H999 0.930 . S
C997 C994 1.348 . S
C997 C995 1.356 . S
H998 C992 0.930 . S
H999 C996 0.930 . S
C1000 C1002 1.348 . S
C1000 C1003 1.356 . S
C1000 O1030 1.325 . S
N1001 C1004 1.314 . S
N1001 C1005 1.272 1_565 S
C1002 C1000 1.348 . S
C1002 C1004 1.353 . S
C1002 H1044 0.929 . S
C1003 C1000 1.356 . S
C1003 C1005 1.332 1_565 S
C1003 H1045 0.930 . S
C1004 N1001 1.314 . S
C1004 C1002 1.353 . S
C1004 H1046 0.930 . S
C1005 N1001 1.272 1_545 S
C1005 C1003 1.332 1_545 S
C1005 H1047 0.970 . S
C1006 C1007 1.353 . S
C1006 C1008 1.356 . S
C1006 O1031 1.325 . S
C1007 C1006 1.353 . S
C1007 C1009 1.353 1_554 S
C1007 H1048 0.924 1_554 S
C1008 C1006 1.356 . S
C1008 C1010 1.358 . S
C1008 H1049 0.930 . S
C1009 C1007 1.353 1_556 S
C1009 N1011 1.304 1_556 S
C1009 H1050 0.930 . S
C1010 C1008 1.358 . S
C1010 N1011 1.291 . S
C1010 H1051 0.930 . S
N1011 C1009 1.304 1_554 S
N1011 C1010 1.291 . S
C1012 C1014 1.353 1_565 S
C1012 N1015 1.314 . S
C1012 H1018 0.930 . S
C1013 N1015 1.279 1_556 S
C1013 C1016 1.362 1_566 S
C1013 H1019 0.930 . S
C1014 C1012 1.353 1_545 S
C1014 C1017 1.348 . S
C1014 H1052 0.929 . S
N1015 Li970 1.990 . S
N1015 C1012 1.314 . S
N1015 C1013 1.279 1_554 S
C1016 C1013 1.362 1_544 S
C1016 C1017 1.385 . S
C1016 H1053 0.897 1_554 S
C1017 C1014 1.348 . S
C1017 C1016 1.385 . S
H1018 C1012 0.930 . S
H1019 C1013 0.930 . S
C1020 N1021 1.314 . S
C1020 C1022 1.353 . S
C1020 H1026 0.930 . S
N1021 Li971 1.990 . S
N1021 C1020 1.314 . S
N1021 C1024 1.279 . S
C1022 C1020 1.353 . S
C1022 C1025 1.348 . S
C1022 H1054 0.929 . S
C1023 C1024 1.358 . S
C1023 C1025 1.356 . S
C1023 H1055 0.930 . S
C1024 N1021 1.279 . S
C1024 C1023 1.358 . S
C1024 H1027 0.930 . S
C1025 C1022 1.348 . S
C1025 C1023 1.356 . S
H1026 C1020 0.930 . S
H1027 C1024 0.930 . S
O1028 Li968 1.956 . S
O1028 Li969 1.970 . S
O1028 Li970 1.961 . S
O1028 C972 1.325 . S
O1029 Li968 1.970 . S
O1029 Li969 1.956 . S
O1029 Li971 1.961 1_554 S
O1029 C978 1.325 . S
O1030 Li968 1.961 1_556 S
O1030 Li970 1.956 1_556 S
O1030 Li971 1.970 . S
O1030 C1000 1.325 . S
O1031 Li969 1.961 . S
O1031 Li970 1.970 . S
O1031 Li971 1.956 1_554 S
O1031 C1006 1.325 . S
H1032 C974 0.929 . S
H1033 C975 0.930 1_545 S
H1034 C976 0.930 . S
H1035 C977 0.930 . S
H1036 C979 0.930 . S
H1037 C981 0.929 . S
H1038 C982 0.930 . S
H1039 C983 0.930 . S
H1040 C986 0.930 1_545 S
H1041 C989 0.929 . S
H1042 C994 0.929 . S
H1043 C995 0.930 . S
H1044 C1002 0.929 . S
H1045 C1003 0.930 . S
H1046 C1004 0.930 . S
H1047 C1005 0.970 . S
H1048 C1007 0.924 1_556 S
H1049 C1008 0.930 . S
H1050 C1009 0.930 . S
H1051 C1010 0.930 . S
H1052 C1014 0.929 . S
H1053 C1016 0.897 1_556 S
H1054 C1022 0.929 . S
H1055 C1023 0.930 . S
Li1056 N1073 1.990 . S
Li1056 O1116 1.956 . S
Li1056 O1117 1.970 . S
Li1056 O1118 1.961 . S
Li1057 N1081 1.990 . S
Li1057 O1116 1.970 . S
Li1057 O1117 1.956 . S
Li1057 O1119 1.961 . S
Li1058 N1103 1.990 . S
Li1058 O1116 1.961 . S
Li1058 O1118 1.956 . S
Li1058 O1119 1.970 . S
Li1059 N1109 1.990 1_554 S
Li1059 O1117 1.961 . S
Li1059 O1118 1.970 . S
Li1059 O1119 1.956 . S
C1060 C1062 1.348 . S
C1060 C1063 1.356 . S
C1060 O1116 1.325 . S
N1061 C1064 1.314 . S
N1061 C1065 1.279 . S
C1062 C1060 1.348 . S
C1062 C1064 1.353 . S
C1062 H1120 0.929 . S
C1063 C1060 1.356 . S
C1063 C1065 1.358 . S
C1063 H1121 0.930 . S
C1064 N1061 1.314 . S
C1064 C1062 1.353 . S
C1064 H1122 0.930 . S
C1065 N1061 1.279 . S
C1065 C1063 1.358 . S
C1065 H1123 0.930 . S
C1066 C1069 1.348 . S
C1066 C1070 1.356 . S
C1066 O1117 1.325 . S
C1067 N1068 1.279 . S
C1067 C1070 1.358 . S
C1067 H1124 0.930 . S
N1068 C1067 1.279 . S
N1068 C1071 1.314 . S
C1069 C1066 1.348 . S
C1069 C1071 1.353 . S
C1069 H1125 0.929 . S
C1070 C1066 1.356 . S
C1070 C1067 1.358 . S
C1070 H1126 0.930 . S
C1071 N1068 1.314 . S
C1071 C1069 1.353 . S
C1071 H1127 0.930 . S
C1072 N1073 1.314 . S
C1072 C1077 1.353 . S
C1072 H1078 0.930 . S
N1073 Li1056 1.990 . S
N1073 C1072 1.314 . S
N1073 C1075 1.279 . S
C1074 C1075 1.358 . S
C1074 C1076 1.356 . S
C1074 H1128 0.930 . S
C1075 N1073 1.279 . S
C1075 C1074 1.358 . S
C1075 H1079 0.930 . S
C1076 C1074 1.356 . S
C1076 C1077 1.348 . S
C1077 C1072 1.353 . S
C1077 C1076 1.348 . S
C1077 H1129 0.929 . S
H1078 C1072 0.930 . S
H1079 C1075 0.930 . S
C1080 N1081 1.314 . S
C1080 C1082 1.353 . S
C1080 H1086 0.930 . S
N1081 Li1057 1.990 . S
N1081 C1080 1.314 . S
N1081 C1084 1.279 . S
C1082 C1080 1.353 . S
C1082 C1085 1.348 . S
C1082 H1130 0.929 . S
C1083 C1084 1.358 . S
C1083 C1085 1.356 . S
C1083 H1131 0.930 . S
C1084 N1081 1.279 . S
C1084 C1083 1.358 . S
C1084 H1087 0.930 . S
C1085 C1082 1.348 . S
C1085 C1083 1.356 . S
H1086 C1080 0.930 . S
H1087 C1084 0.930 . S
C1088 C1090 1.348 . S
C1088 C1091 1.356 . S
C1088 O1118 1.325 1_556 S
N1089 C1092 1.314 . S
N1089 C1093 1.279 . S
C1090 C1088 1.348 . S
C1090 C1092 1.353 . S
C1090 H1132 0.929 . S
C1091 C1088 1.356 . S
C1091 C1093 1.401 . S
C1091 H1133 0.888 1_556 S
C1092 N1089 1.314 . S
C1092 C1090 1.353 . S
C1092 H1134 0.930 . S
C1093 N1089 1.279 . S
C1093 C1091 1.401 . S
C1093 H1135 0.930 . S
C1094 C1095 1.348 . S
C1094 C1096 1.356 . S
C1094 O1119 1.325 . S
C1095 C1094 1.348 . S
C1095 C1097 1.353 . S
C1095 H1136 0.929 . S
C1096 C1094 1.356 . S
C1096 C1098 1.358 . S
C1096 H1137 0.930 . S
C1097 C1095 1.353 . S
C1097 N1099 1.314 . S
C1097 H1138 0.930 . S
C1098 C1096 1.358 . S
C1098 N1099 1.279 . S
C1098 H1139 0.930 . S
N1099 C1097 1.314 . S
N1099 C1098 1.279 . S
C1100 C1102 1.353 . S
C1100 N1103 1.314 . S
C1100 H1106 0.930 . S
C1101 N1103 1.279 . S
C1101 C1104 1.358 . S
C1101 H1107 0.930 . S
C1102 C1100 1.353 . S
C1102 C1105 1.348 . S
C1102 H1140 0.929 . S
N1103 Li1058 1.990 . S
N1103 C1100 1.314 . S
N1103 C1101 1.279 . S
C1104 C1101 1.358 . S
C1104 C1105 1.356 . S
C1104 H1141 0.930 . S
C1105 C1102 1.348 . S
C1105 C1104 1.356 . S
H1106 C1100 0.930 . S
H1107 C1101 0.930 . S
C1108 N1109 1.314 . S
C1108 C1110 1.353 . S
C1108 H1114 0.930 . S
N1109 Li1059 1.990 1_556 S
N1109 C1108 1.314 . S
N1109 C1112 1.279 . S
C1110 C1108 1.353 . S
C1110 C1113 1.348 . S
C1110 H1142 0.929 . S
C1111 C1112 1.358 . S
C1111 C1113 1.356 . S
C1111 H1143 0.930 . S
C1112 N1109 1.279 . S
C1112 C1111 1.358 . S
C1112 H1115 0.930 . S
C1113 C1110 1.348 . S
C1113 C1111 1.356 . S
H1114 C1108 0.930 . S
H1115 C1112 0.930 . S
O1116 Li1056 1.956 . S
O1116 Li1057 1.970 . S
O1116 Li1058 1.961 . S
O1116 C1060 1.325 . S
O1117 Li1056 1.970 . S
O1117 Li1057 1.956 . S
O1117 Li1059 1.961 . S
O1117 C1066 1.325 . S
O1118 Li1056 1.961 . S
O1118 Li1058 1.956 . S
O1118 Li1059 1.970 . S
O1118 C1088 1.325 1_554 S
O1119 Li1057 1.961 . S
O1119 Li1058 1.970 . S
O1119 Li1059 1.956 . S
O1119 C1094 1.325 . S
H1120 C1062 0.929 . S
H1121 C1063 0.930 . S
H1122 C1064 0.930 . S
H1123 C1065 0.930 . S
H1124 C1067 0.930 . S
H1125 C1069 0.929 . S
H1126 C1070 0.930 . S
H1127 C1071 0.930 . S
H1128 C1074 0.930 . S
H1129 C1077 0.929 . S
H1130 C1082 0.929 . S
H1131 C1083 0.930 . S
H1132 C1090 0.929 . S
H1133 C1091 0.888 1_554 S
H1134 C1092 0.930 . S
H1135 C1093 0.930 . S
H1136 C1095 0.929 . S
H1137 C1096 0.930 . S
H1138 C1097 0.930 . S
H1139 C1098 0.930 . S
H1140 C1102 0.929 . S
H1141 C1104 0.930 . S
H1142 C1110 0.929 . S
H1143 C1111 0.930 . S
Li1144 N1161 1.990 . S
Li1144 O1204 1.956 . S
Li1144 O1205 1.970 . S
Li1144 O1206 1.961 . S
Li1145 N1169 1.990 . S
Li1145 O1204 1.970 . S
Li1145 O1205 1.956 . S
Li1145 O1207 1.961 1_554 S
Li1146 N1191 1.990 1_554 S
Li1146 O1204 1.961 . S
Li1146 O1206 1.956 . S
Li1146 O1207 1.970 1_554 S
Li1147 N1197 1.990 . S
Li1147 O1205 1.961 . S
Li1147 O1206 1.970 . S
Li1147 O1207 1.956 1_554 S
C1148 C1150 1.348 . S
C1148 C1151 1.356 . S
C1148 O1204 1.325 . S
N1149 C1152 1.314 . S
N1149 C1153 1.279 . S
C1150 C1148 1.348 . S
C1150 C1152 1.353 . S
C1150 H1208 0.929 . S
C1151 C1148 1.356 . S
C1151 C1153 1.358 . S
C1151 H1209 0.930 . S
C1152 N1149 1.314 . S
C1152 C1150 1.353 . S
C1152 H1210 0.930 . S
C1153 N1149 1.279 . S
C1153 C1151 1.358 . S
C1153 H1211 0.930 . S
C1154 C1157 1.348 . S
C1154 C1158 1.356 . S
C1154 O1205 1.325 . S
C1155 N1156 1.279 . S
C1155 C1158 1.358 . S
C1155 H1212 0.930 . S
N1156 C1155 1.279 . S
N1156 C1159 1.314 . S
C1157 C1154 1.348 . S
C1157 C1159 1.353 . S
C1157 H1213 0.929 . S
C1158 C1154 1.356 . S
C1158 C1155 1.358 . S
C1158 H1214 0.930 . S
C1159 N1156 1.314 . S
C1159 C1157 1.353 . S
C1159 H1215 0.930 . S
C1160 N1161 1.314 . S
C1160 C1165 1.353 . S
C1160 H1166 0.930 . S
N1161 Li1144 1.990 . S
N1161 C1160 1.314 . S
N1161 C1163 1.279 . S
C1162 C1163 1.358 . S
C1162 C1164 1.356 . S
C1162 H1216 0.930 . S
C1163 N1161 1.279 . S
C1163 C1162 1.358 . S
C1163 H1167 0.930 . S
C1164 C1162 1.356 . S
C1164 C1165 1.348 . S
C1165 C1160 1.353 . S
C1165 C1164 1.348 . S
C1165 H1217 0.929 . S
H1166 C1160 0.930 . S
H1167 C1163 0.930 . S
C1168 N1169 1.314 . S
C1168 C1170 1.353 . S
C1168 H1174 0.930 1_554 S
N1169 Li1145 1.990 . S
N1169 C1168 1.314 . S
N1169 C1172 1.279 . S
C1170 C1168 1.353 . S
C1170 C1173 1.348 . S
C1170 H1218 0.929 1_554 S
C1171 C1172 1.358 . S
C1171 C1173 1.356 . S
C1171 H1219 0.930 . S
C1172 N1169 1.279 . S
C1172 C1171 1.358 . S
C1172 H1175 0.930 . S
C1173 C1170 1.348 . S
C1173 C1171 1.356 . S
H1174 C1168 0.930 1_556 S
H1175 C1172 0.930 . S
C1176 C1178 1.348 . S
C1176 C1179 1.356 . S
C1176 O1206 1.325 . S
N1177 C1180 1.314 . S
N1177 C1181 1.279 . S
C1178 C1176 1.348 . S
C1178 C1180 1.353 . S
C1178 H1220 0.929 . S
C1179 C1176 1.356 . S
C1179 C1181 1.358 . S
C1179 H1221 0.930 . S
C1180 N1177 1.314 . S
C1180 C1178 1.353 . S
C1180 H1222 0.930 . S
C1181 N1177 1.279 . S
C1181 C1179 1.358 . S
C1181 H1223 0.930 . S
C1182 C1183 1.348 . S
C1182 C1184 1.356 . S
C1182 O1207 1.325 . S
C1183 C1182 1.348 . S
C1183 C1185 1.353 . S
C1183 H1224 0.929 . S
C1184 C1182 1.356 . S
C1184 C1186 1.358 . S
C1184 H1225 0.930 . S
C1185 C1183 1.353 . S
C1185 N1187 1.314 . S
C1185 H1226 0.930 . S
C1186 C1184 1.358 . S
C1186 N1187 1.279 . S
C1186 H1227 0.930 . S
N1187 C1185 1.314 . S
N1187 C1186 1.279 . S
C1188 C1190 1.353 . S
C1188 N1191 1.314 . S
C1188 H1194 0.930 . S
C1189 N1191 1.279 . S
C1189 C1192 1.358 . S
C1189 H1195 0.930 . S
C1190 C1188 1.353 . S
C1190 C1193 1.348 . S
C1190 H1228 0.929 . S
N1191 Li1146 1.990 1_556 S
N1191 C1188 1.314 . S
N1191 C1189 1.279 . S
C1192 C1189 1.358 . S
C1192 C1193 1.356 . S
C1192 H1229 0.930 . S
C1193 C1190 1.348 . S
C1193 C1192 1.356 . S
H1194 C1188 0.930 . S
H1195 C1189 0.930 . S
C1196 N1197 1.314 . S
C1196 C1198 1.353 . S
C1196 H1202 0.930 . S
N1197 Li1147 1.990 . S
N1197 C1196 1.314 . S
N1197 C1200 1.279 1_554 S
C1198 C1196 1.353 . S
C1198 C1201 1.348 . S
C1198 H1230 0.929 . S
C1199 C1200 1.358 . S
C1199 C1201 1.356 1_556 S
C1199 H1231 0.930 . S
C1200 N1197 1.279 1_556 S
C1200 C1199 1.358 . S
C1200 H1203 0.930 . S
C1201 C1198 1.348 . S
C1201 C1199 1.356 1_554 S
H1202 C1196 0.930 . S
H1203 C1200 0.930 . S
O1204 Li1144 1.956 . S
O1204 Li1145 1.970 . S
O1204 Li1146 1.961 . S
O1204 C1148 1.325 . S
O1205 Li1144 1.970 . S
O1205 Li1145 1.956 . S
O1205 Li1147 1.961 . S
O1205 C1154 1.325 . S
O1206 Li1144 1.961 . S
O1206 Li1146 1.956 . S
O1206 Li1147 1.970 . S
O1206 C1176 1.325 . S
O1207 Li1145 1.961 1_556 S
O1207 Li1146 1.970 1_556 S
O1207 Li1147 1.956 1_556 S
O1207 C1182 1.325 . S
H1208 C1150 0.929 . S
H1209 C1151 0.930 . S
H1210 C1152 0.930 . S
H1211 C1153 0.930 . S
H1212 C1155 0.930 . S
H1213 C1157 0.929 . S
H1214 C1158 0.930 . S
H1215 C1159 0.930 . S
H1216 C1162 0.930 . S
H1217 C1165 0.929 . S
H1218 C1170 0.929 1_556 S
H1219 C1171 0.930 . S
H1220 C1178 0.929 . S
H1221 C1179 0.930 . S
H1222 C1180 0.930 . S
H1223 C1181 0.930 . S
H1224 C1183 0.929 . S
H1225 C1184 0.930 . S
H1226 C1185 0.930 . S
H1227 C1186 0.930 . S
H1228 C1190 0.929 . S
H1229 C1192 0.930 . S
H1230 C1198 0.929 . S
H1231 C1199 0.930 . S
Li1232 N1249 1.990 . S
Li1232 O1292 1.956 . S
Li1232 O1293 1.970 . S
Li1232 O1294 1.961 . S
Li1233 N1257 1.990 . S
Li1233 O1292 1.970 . S
Li1233 O1293 1.956 . S
Li1233 O1295 1.961 . S
Li1234 N1279 1.990 . S
Li1234 O1292 1.961 . S
Li1234 O1294 1.956 . S
Li1234 O1295 1.970 . S
Li1235 N1285 1.990 . S
Li1235 O1293 1.961 . S
Li1235 O1294 1.970 . S
Li1235 O1295 1.956 . S
C1236 C1238 1.348 . S
C1236 C1239 1.356 . S
C1236 O1292 1.325 . S
N1237 C1240 1.314 . S
N1237 C1241 1.279 . S
C1238 C1236 1.348 . S
C1238 C1240 1.353 . S
C1238 H1296 0.929 . S
C1239 C1236 1.356 . S
C1239 C1241 1.358 . S
C1239 H1297 0.930 . S
C1240 N1237 1.314 . S
C1240 C1238 1.353 . S
C1240 H1298 0.930 . S
C1241 N1237 1.279 . S
C1241 C1239 1.358 . S
C1241 H1299 0.930 . S
C1242 C1245 1.348 . S
C1242 C1246 1.356 . S
C1242 O1293 1.325 . S
C1243 N1244 1.279 . S
C1243 C1246 1.358 . S
C1243 H1300 0.930 . S
N1244 C1243 1.279 . S
N1244 C1247 1.314 . S
C1245 C1242 1.348 . S
C1245 C1247 1.353 . S
C1245 H1301 0.929 . S
C1246 C1242 1.356 . S
C1246 C1243 1.358 . S
C1246 H1302 0.930 . S
C1247 N1244 1.314 . S
C1247 C1245 1.353 . S
C1247 H1303 0.930 . S
C1248 N1249 1.314 . S
C1248 C1253 1.353 . S
C1248 H1254 0.930 . S
N1249 Li1232 1.990 . S
N1249 C1248 1.314 . S
N1249 C1251 1.279 . S
C1250 C1251 1.358 . S
C1250 C1252 1.356 . S
C1250 H1304 0.930 . S
C1251 N1249 1.279 . S
C1251 C1250 1.358 . S
C1251 H1255 0.930 . S
C1252 C1250 1.356 . S
C1252 C1253 1.348 . S
C1253 C1248 1.353 . S
C1253 C1252 1.348 . S
C1253 H1305 0.929 . S
H1254 C1248 0.930 . S
H1255 C1251 0.930 . S
C1256 N1257 1.314 . S
C1256 C1258 1.353 . S
C1256 H1262 0.930 . S
N1257 Li1233 1.990 . S
N1257 C1256 1.314 . S
N1257 C1260 1.279 . S
C1258 C1256 1.353 . S
C1258 C1261 1.348 . S
C1258 H1306 0.929 . S
C1259 C1260 1.358 . S
C1259 C1261 1.356 . S
C1259 H1307 0.930 . S
C1260 N1257 1.279 . S
C1260 C1259 1.358 . S
C1260 H1263 0.930 . S
C1261 C1258 1.348 . S
C1261 C1259 1.356 . S
H1262 C1256 0.930 . S
H1263 C1260 0.930 . S
C1264 C1266 1.348 . S
C1264 C1267 1.356 . S
C1264 O1294 1.325 . S
N1265 C1268 1.314 . S
N1265 C1269 1.279 . S
C1266 C1264 1.348 . S
C1266 C1268 1.353 . S
C1266 H1308 0.929 . S
C1267 C1264 1.356 . S
C1267 C1269 1.358 . S
C1267 H1309 0.930 . S
C1268 N1265 1.314 . S
C1268 C1266 1.353 . S
C1268 H1310 0.930 . S
C1269 N1265 1.279 . S
C1269 C1267 1.358 . S
C1269 H1311 0.930 . S
C1270 C1271 1.348 . S
C1270 C1272 1.356 . S
C1270 O1295 1.325 . S
C1271 C1270 1.348 . S
C1271 C1273 1.353 . S
C1271 H1312 0.929 . S
C1272 C1270 1.356 . S
C1272 C1274 1.358 . S
C1272 H1313 0.930 . S
C1273 C1271 1.353 . S
C1273 N1275 1.314 . S
C1273 H1314 0.930 . S
C1274 C1272 1.358 . S
C1274 N1275 1.279 . S
C1274 H1315 0.930 . S
N1275 C1273 1.314 . S
N1275 C1274 1.279 . S
C1276 C1278 1.353 . S
C1276 N1279 1.314 . S
C1276 H1282 0.930 . S
C1277 N1279 1.279 . S
C1277 C1280 1.358 . S
C1277 H1283 0.930 . S
C1278 C1276 1.353 . S
C1278 C1281 1.348 . S
C1278 H1316 0.929 . S
N1279 Li1234 1.990 . S
N1279 C1276 1.314 . S
N1279 C1277 1.279 . S
C1280 C1277 1.358 . S
C1280 C1281 1.356 . S
C1280 H1317 0.930 . S
C1281 C1278 1.348 . S
C1281 C1280 1.356 . S
H1282 C1276 0.930 . S
H1283 C1277 0.930 . S
C1284 N1285 1.314 . S
C1284 C1286 1.353 . S
C1284 H1290 0.930 . S
N1285 Li1235 1.990 . S
N1285 C1284 1.314 . S
N1285 C1288 1.279 . S
C1286 C1284 1.353 . S
C1286 C1289 1.348 . S
C1286 H1318 0.929 . S
C1287 C1288 1.358 . S
C1287 C1289 1.356 . S
C1287 H1319 0.930 . S
C1288 N1285 1.279 . S
C1288 C1287 1.358 . S
C1288 H1291 0.930 . S
C1289 C1286 1.348 . S
C1289 C1287 1.356 . S
H1290 C1284 0.930 . S
H1291 C1288 0.930 . S
O1292 Li1232 1.956 . S
O1292 Li1233 1.970 . S
O1292 Li1234 1.961 . S
O1292 C1236 1.325 . S
O1293 Li1232 1.970 . S
O1293 Li1233 1.956 . S
O1293 Li1235 1.961 . S
O1293 C1242 1.325 . S
O1294 Li1232 1.961 . S
O1294 Li1234 1.956 . S
O1294 Li1235 1.970 . S
O1294 C1264 1.325 . S
O1295 Li1233 1.961 . S
O1295 Li1234 1.970 . S
O1295 Li1235 1.956 . S
O1295 C1270 1.325 . S
H1296 C1238 0.929 . S
H1297 C1239 0.930 . S
H1298 C1240 0.930 . S
H1299 C1241 0.930 . S
H1300 C1243 0.930 . S
H1301 C1245 0.929 . S
H1302 C1246 0.930 . S
H1303 C1247 0.930 . S
H1304 C1250 0.930 . S
H1305 C1253 0.929 . S
H1306 C1258 0.929 . S
H1307 C1259 0.930 . S
H1308 C1266 0.929 . S
H1309 C1267 0.930 . S
H1310 C1268 0.930 . S
H1311 C1269 0.930 . S
H1312 C1271 0.929 . S
H1313 C1272 0.930 . S
H1314 C1273 0.930 . S
H1315 C1274 0.930 . S
H1316 C1278 0.929 . S
H1317 C1280 0.930 . S
H1318 C1286 0.929 . S
H1319 C1287 0.930 . S
Li1320 N1337 1.990 . S
Li1320 O1380 1.956 . S
Li1320 O1381 1.970 . S
Li1320 O1382 1.961 . S
Li1321 N1345 1.990 . S
Li1321 O1380 1.970 . S
Li1321 O1381 1.956 . S
Li1321 O1383 1.961 . S
Li1322 N1367 1.990 . S
Li1322 O1380 1.961 . S
Li1322 O1382 1.956 . S
Li1322 O1383 1.970 . S
Li1323 N1373 1.990 . S
Li1323 O1381 1.961 . S
Li1323 O1382 1.970 . S
Li1323 O1383 1.956 . S
C1324 C1326 1.348 . S
C1324 C1327 1.356 . S
C1324 O1380 1.325 . S
N1325 C1328 1.314 . S
N1325 C1329 1.279 . S
C1326 C1324 1.348 . S
C1326 C1328 1.353 . S
C1326 H1384 0.929 . S
C1327 C1324 1.356 . S
C1327 C1329 1.358 . S
C1327 H1385 0.930 . S
C1328 N1325 1.314 . S
C1328 C1326 1.353 . S
C1328 H1386 0.930 . S
C1329 N1325 1.279 . S
C1329 C1327 1.358 . S
C1329 H1387 0.930 . S
C1330 C1333 1.348 . S
C1330 C1334 1.356 . S
C1330 O1381 1.325 . S
C1331 N1332 1.279 . S
C1331 C1334 1.358 . S
C1331 H1388 0.930 . S
N1332 C1331 1.279 . S
N1332 C1335 1.314 . S
C1333 C1330 1.348 . S
C1333 C1335 1.353 . S
C1333 H1389 0.929 . S
C1334 C1330 1.356 . S
C1334 C1331 1.358 . S
C1334 H1390 0.930 . S
C1335 N1332 1.314 . S
C1335 C1333 1.353 . S
C1335 H1391 0.930 . S
C1336 N1337 1.314 . S
C1336 C1341 1.353 . S
C1336 H1342 0.930 . S
N1337 Li1320 1.990 . S
N1337 C1336 1.314 . S
N1337 C1339 1.279 . S
C1338 C1339 1.358 . S
C1338 C1340 1.356 . S
C1338 H1392 0.930 . S
C1339 N1337 1.279 . S
C1339 C1338 1.358 . S
C1339 H1343 0.930 . S
C1340 C1338 1.356 . S
C1340 C1341 1.348 . S
C1341 C1336 1.353 . S
C1341 C1340 1.348 . S
C1341 H1393 0.929 . S
H1342 C1336 0.930 . S
H1343 C1339 0.930 . S
C1344 N1345 1.314 . S
C1344 C1346 1.353 . S
C1344 H1350 0.930 . S
N1345 Li1321 1.990 . S
N1345 C1344 1.314 . S
N1345 C1348 1.279 . S
C1346 C1344 1.353 . S
C1346 C1349 1.348 . S
C1346 H1394 0.929 . S
C1347 C1348 1.358 . S
C1347 C1349 1.356 . S
C1347 H1395 0.930 . S
C1348 N1345 1.279 . S
C1348 C1347 1.358 . S
C1348 H1351 0.930 . S
C1349 C1346 1.348 . S
C1349 C1347 1.356 . S
H1350 C1344 0.930 . S
H1351 C1348 0.930 . S
C1352 C1354 1.348 . S
C1352 C1355 1.356 . S
C1352 O1382 1.325 . S
N1353 C1356 1.314 . S
N1353 C1357 1.279 . S
C1354 C1352 1.348 . S
C1354 C1356 1.353 . S
C1354 H1396 0.929 . S
C1355 C1352 1.356 . S
C1355 C1357 1.358 . S
C1355 H1397 0.930 . S
C1356 N1353 1.314 . S
C1356 C1354 1.353 . S
C1356 H1398 0.930 . S
C1357 N1353 1.279 . S
C1357 C1355 1.358 . S
C1357 H1399 0.930 . S
C1358 C1359 1.348 . S
C1358 C1360 1.356 . S
C1358 O1383 1.325 . S
C1359 C1358 1.348 . S
C1359 C1361 1.353 . S
C1359 H1400 0.929 . S
C1360 C1358 1.356 . S
C1360 C1362 1.358 . S
C1360 H1401 0.930 . S
C1361 C1359 1.353 . S
C1361 N1363 1.314 . S
C1361 H1402 0.930 . S
C1362 C1360 1.358 . S
C1362 N1363 1.279 . S
C1362 H1403 0.930 . S
N1363 C1361 1.314 . S
N1363 C1362 1.279 . S
C1364 C1366 1.353 . S
C1364 N1367 1.314 . S
C1364 H1370 0.930 . S
C1365 N1367 1.279 . S
C1365 C1368 1.358 . S
C1365 H1371 0.930 . S
C1366 C1364 1.353 . S
C1366 C1369 1.348 . S
C1366 H1404 0.929 . S
N1367 Li1322 1.990 . S
N1367 C1364 1.314 . S
N1367 C1365 1.279 . S
C1368 C1365 1.358 . S
C1368 C1369 1.356 . S
C1368 H1405 0.930 . S
C1369 C1366 1.348 . S
C1369 C1368 1.356 . S
H1370 C1364 0.930 . S
H1371 C1365 0.930 . S
C1372 N1373 1.314 . S
C1372 C1374 1.353 . S
C1372 H1378 0.930 . S
N1373 Li1323 1.990 . S
N1373 C1372 1.314 . S
N1373 C1376 1.279 . S
C1374 C1372 1.353 . S
C1374 C1377 1.348 . S
C1374 H1406 0.929 . S
C1375 C1376 1.358 . S
C1375 C1377 1.356 . S
C1375 H1407 0.930 . S
C1376 N1373 1.279 . S
C1376 C1375 1.358 . S
C1376 H1379 0.930 . S
C1377 C1374 1.348 . S
C1377 C1375 1.356 . S
H1378 C1372 0.930 . S
H1379 C1376 0.930 . S
O1380 Li1320 1.956 . S
O1380 Li1321 1.970 . S
O1380 Li1322 1.961 . S
O1380 C1324 1.325 . S
O1381 Li1320 1.970 . S
O1381 Li1321 1.956 . S
O1381 Li1323 1.961 . S
O1381 C1330 1.325 . S
O1382 Li1320 1.961 . S
O1382 Li1322 1.956 . S
O1382 Li1323 1.970 . S
O1382 C1352 1.325 . S
O1383 Li1321 1.961 . S
O1383 Li1322 1.970 . S
O1383 Li1323 1.956 . S
O1383 C1358 1.325 . S
H1384 C1326 0.929 . S
H1385 C1327 0.930 . S
H1386 C1328 0.930 . S
H1387 C1329 0.930 . S
H1388 C1331 0.930 . S
H1389 C1333 0.929 . S
H1390 C1334 0.930 . S
H1391 C1335 0.930 . S
H1392 C1338 0.930 . S
H1393 C1341 0.929 . S
H1394 C1346 0.929 . S
H1395 C1347 0.930 . S
H1396 C1354 0.929 . S
H1397 C1355 0.930 . S
H1398 C1356 0.930 . S
H1399 C1357 0.930 . S
H1400 C1359 0.929 . S
H1401 C1360 0.930 . S
H1402 C1361 0.930 . S
H1403 C1362 0.930 . S
H1404 C1366 0.929 . S
H1405 C1368 0.930 . S
H1406 C1374 0.929 . S
H1407 C1375 0.930 . S
Li1408 N1425 1.990 . S
Li1408 O1468 1.956 . S
Li1408 O1469 1.970 . S
Li1408 O1470 1.961 . S
Li1409 N1433 1.990 . S
Li1409 O1468 1.970 . S
Li1409 O1469 1.956 . S
Li1409 O1471 1.961 . S
Li1410 N1455 1.990 . S
Li1410 O1468 1.961 . S
Li1410 O1470 1.956 . S
Li1410 O1471 1.970 . S
Li1411 N1461 1.990 . S
Li1411 O1469 1.961 . S
Li1411 O1470 1.970 . S
Li1411 O1471 1.956 . S
C1412 C1414 1.348 . S
C1412 C1415 1.356 . S
C1412 O1468 1.325 . S
N1413 C1416 1.276 1_455 S
N1413 C1417 1.287 1_565 S
C1414 C1412 1.348 . S
C1414 C1416 1.353 1_545 S
C1414 H1472 0.929 . S
C1415 C1412 1.356 . S
C1415 C1417 1.358 1_655 S
C1415 H1473 0.930 1_655 S
C1416 N1413 1.276 1_655 S
C1416 C1414 1.353 1_565 S
C1416 H1474 0.930 . S
C1417 N1413 1.287 1_545 S
C1417 C1415 1.358 1_455 S
C1417 H1475 0.930 . S
C1418 C1421 1.348 . S
C1418 C1422 1.356 . S
C1418 O1469 1.325 . S
C1419 N1420 1.279 . S
C1419 C1422 1.358 . S
C1419 H1476 0.930 . S
N1420 C1419 1.279 . S
N1420 C1423 1.314 . S
C1421 C1418 1.348 . S
C1421 C1423 1.353 . S
C1421 H1477 0.929 . S
C1422 C1418 1.356 . S
C1422 C1419 1.358 . S
C1422 H1478 0.930 . S
C1423 N1420 1.314 . S
C1423 C1421 1.353 . S
C1423 H1479 0.930 . S
C1424 N1425 1.314 . S
C1424 C1429 1.353 1_655 S
C1424 H1430 0.930 . S
N1425 Li1408 1.990 . S
N1425 C1424 1.314 . S
N1425 C1427 1.279 . S
C1426 C1427 1.358 1_455 S
C1426 C1428 1.356 . S
C1426 H1480 0.930 . S
C1427 N1425 1.279 . S
C1427 C1426 1.358 1_655 S
C1427 H1431 0.930 . S
C1428 C1426 1.356 . S
C1428 C1429 1.348 . S
C1429 C1424 1.353 1_455 S
C1429 C1428 1.348 . S
C1429 H1481 0.929 . S
H1430 C1424 0.930 . S
H1431 C1427 0.930 . S
C1432 N1433 1.314 1_565 S
C1432 C1434 1.353 . S
C1432 H1438 0.944 . S
N1433 Li1409 1.990 . S
N1433 C1432 1.314 1_545 S
N1433 C1436 1.279 . S
C1434 C1432 1.353 . S
C1434 C1437 1.348 . S
C1434 H1482 0.929 . S
C1435 C1436 1.358 1_565 S
C1435 C1437 1.356 . S
C1435 H1483 0.930 . S
C1436 N1433 1.279 . S
C1436 C1435 1.358 1_545 S
C1436 H1439 0.930 . S
C1437 C1434 1.348 . S
C1437 C1435 1.356 . S
H1438 C1432 0.944 . S
H1439 C1436 0.930 . S
C1440 C1442 1.348 . S
C1440 C1443 1.356 1_655 S
C1440 O1470 1.325 . S
N1441 C1444 1.314 1_455 S
N1441 C1445 1.279 . S
C1442 C1440 1.348 . S
C1442 C1444 1.353 . S
C1442 H1484 0.929 . S
C1443 C1440 1.356 1_455 S
C1443 C1445 1.358 . S
C1443 H1485 0.930 . S
C1444 N1441 1.314 1_655 S
C1444 C1442 1.353 . S
C1444 H1486 0.930 . S
C1445 N1441 1.279 . S
C1445 C1443 1.358 . S
C1445 H1487 0.930 . S
C1446 C1447 1.348 . S
C1446 C1448 1.356 . S
C1446 O1471 1.325 . S
C1447 C1446 1.348 . S
C1447 C1449 1.353 . S
C1447 H1488 0.929 . S
C1448 C1446 1.356 . S
C1448 C1450 1.358 . S
C1448 H1489 0.930 . S
C1449 C1447 1.353 . S
C1449 N1451 1.314 . S
C1449 H1490 0.930 . S
C1450 C1448 1.358 . S
C1450 N1451 1.279 . S
C1450 H1491 0.930 . S
N1451 C1449 1.314 . S
N1451 C1450 1.279 . S
C1452 C1454 1.353 . S
C1452 N1455 1.314 . S
C1452 H1458 0.930 . S
C1453 N1455 1.279 . S
C1453 C1456 1.358 1_655 S
C1453 H1459 0.930 . S
C1454 C1452 1.353 . S
C1454 C1457 1.348 1_655 S
C1454 H1492 0.929 . S
N1455 Li1410 1.990 . S
N1455 C1452 1.314 . S
N1455 C1453 1.279 . S
C1456 C1453 1.358 1_455 S
C1456 C1457 1.356 . S
C1456 H1493 0.930 . S
C1457 C1454 1.348 1_455 S
C1457 C1456 1.356 . S
H1458 C1452 0.930 . S
H1459 C1453 0.930 . S
C1460 N1461 1.314 . S
C1460 C1462 1.353 . S
C1460 H1466 0.930 . S
N1461 Li1411 1.990 . S
N1461 C1460 1.314 . S
N1461 C1464 1.279 . S
C1462 C1460 1.353 . S
C1462 C1465 1.348 . S
C1462 H1494 0.929 . S
C1463 C1464 1.358 . S
C1463 C1465 1.356 . S
C1463 H1495 0.930 . S
C1464 N1461 1.279 . S
C1464 C1463 1.358 . S
C1464 H1467 0.930 . S
C1465 C1462 1.348 . S
C1465 C1463 1.356 . S
H1466 C1460 0.930 . S
H1467 C1464 0.930 . S
O1468 Li1408 1.956 . S
O1468 Li1409 1.970 . S
O1468 Li1410 1.961 . S
O1468 C1412 1.325 . S
O1469 Li1408 1.970 . S
O1469 Li1409 1.956 . S
O1469 Li1411 1.961 . S
O1469 C1418 1.325 . S
O1470 Li1408 1.961 . S
O1470 Li1410 1.956 . S
O1470 Li1411 1.970 . S
O1470 C1440 1.325 . S
O1471 Li1409 1.961 . S
O1471 Li1410 1.970 . S
O1471 Li1411 1.956 . S
O1471 C1446 1.325 . S
H1472 C1414 0.929 . S
H1473 C1415 0.930 1_455 S
H1474 C1416 0.930 . S
H1475 C1417 0.930 . S
H1476 C1419 0.930 . S
H1477 C1421 0.929 . S
H1478 C1422 0.930 . S
H1479 C1423 0.930 . S
H1480 C1426 0.930 . S
H1481 C1429 0.929 . S
H1482 C1434 0.929 . S
H1483 C1435 0.930 . S
H1484 C1442 0.929 . S
H1485 C1443 0.930 . S
H1486 C1444 0.930 . S
H1487 C1445 0.930 . S
H1488 C1447 0.929 . S
H1489 C1448 0.930 . S
H1490 C1449 0.930 . S
H1491 C1450 0.930 . S
H1492 C1454 0.929 . S
H1493 C1456 0.930 . S
H1494 C1462 0.929 . S
H1495 C1463 0.930 . S
Li1496 N1513 1.990 . S
Li1496 O1556 1.956 . S
Li1496 O1557 1.970 . S
Li1496 O1558 1.961 . S
Li1497 N1521 1.990 . S
Li1497 O1556 1.970 . S
Li1497 O1557 1.956 . S
Li1497 O1559 1.961 . S
Li1498 N1543 1.990 . S
Li1498 O1556 1.961 . S
Li1498 O1558 1.956 . S
Li1498 O1559 1.970 . S
Li1499 N1549 1.990 . S
Li1499 O1557 1.961 . S
Li1499 O1558 1.970 . S
Li1499 O1559 1.956 . S
C1500 C1502 1.348 . S
C1500 C1503 1.356 . S
C1500 O1556 1.325 . S
N1501 C1504 1.314 . S
N1501 C1505 1.279 . S
C1502 C1500 1.348 . S
C1502 C1504 1.353 . S
C1502 H1560 0.929 . S
C1503 C1500 1.356 . S
C1503 C1505 1.358 . S
C1503 H1561 0.930 . S
C1504 N1501 1.314 . S
C1504 C1502 1.353 . S
C1504 H1562 0.930 . S
C1505 N1501 1.279 . S
C1505 C1503 1.358 . S
C1505 H1563 0.930 . S
C1506 C1509 1.348 . S
C1506 C1510 1.356 . S
C1506 O1557 1.325 . S
C1507 N1508 1.279 . S
C1507 C1510 1.358 . S
C1507 H1564 0.930 . S
N1508 C1507 1.279 . S
N1508 C1511 1.314 . S
C1509 C1506 1.348 . S
C1509 C1511 1.353 . S
C1509 H1565 0.929 . S
C1510 C1506 1.356 . S
C1510 C1507 1.358 . S
C1510 H1566 0.930 . S
C1511 N1508 1.314 . S
C1511 C1509 1.353 . S
C1511 H1567 0.930 . S
C1512 N1513 1.314 . S
C1512 C1517 1.353 . S
C1512 H1518 0.930 . S
N1513 Li1496 1.990 . S
N1513 C1512 1.314 . S
N1513 C1515 1.279 . S
C1514 C1515 1.358 . S
C1514 C1516 1.356 . S
C1514 H1568 0.930 . S
C1515 N1513 1.279 . S
C1515 C1514 1.358 . S
C1515 H1519 0.930 . S
C1516 C1514 1.356 . S
C1516 C1517 1.348 . S
C1517 C1512 1.353 . S
C1517 C1516 1.348 . S
C1517 H1569 0.929 . S
H1518 C1512 0.930 . S
H1519 C1515 0.930 . S
C1520 N1521 1.314 . S
C1520 C1522 1.353 . S
C1520 H1526 0.930 . S
N1521 Li1497 1.990 . S
N1521 C1520 1.314 . S
N1521 C1524 1.279 . S
C1522 C1520 1.353 . S
C1522 C1525 1.348 . S
C1522 H1570 0.929 . S
C1523 C1524 1.358 . S
C1523 C1525 1.356 . S
C1523 H1571 0.930 . S
C1524 N1521 1.279 . S
C1524 C1523 1.358 . S
C1524 H1527 0.930 . S
C1525 C1522 1.348 . S
C1525 C1523 1.356 . S
H1526 C1520 0.930 . S
H1527 C1524 0.930 . S
C1528 C1530 1.348 . S
C1528 C1531 1.356 . S
C1528 O1558 1.325 . S
N1529 C1532 1.314 . S
N1529 C1533 1.279 . S
C1530 C1528 1.348 . S
C1530 C1532 1.353 . S
C1530 H1572 0.929 . S
C1531 C1528 1.356 . S
C1531 C1533 1.358 . S
C1531 H1573 0.930 . S
C1532 N1529 1.314 . S
C1532 C1530 1.353 . S
C1532 H1574 0.930 . S
C1533 N1529 1.279 . S
C1533 C1531 1.358 . S
C1533 H1575 0.930 . S
C1534 C1535 1.348 . S
C1534 C1536 1.356 . S
C1534 O1559 1.325 . S
C1535 C1534 1.348 . S
C1535 C1537 1.353 . S
C1535 H1576 0.929 . S
C1536 C1534 1.356 . S
C1536 C1538 1.358 . S
C1536 H1577 0.930 . S
C1537 C1535 1.353 . S
C1537 N1539 1.314 . S
C1537 H1578 0.930 . S
C1538 C1536 1.358 . S
C1538 N1539 1.279 . S
C1538 H1579 0.930 . S
N1539 C1537 1.314 . S
N1539 C1538 1.279 . S
C1540 C1542 1.353 . S
C1540 N1543 1.314 . S
C1540 H1546 0.930 . S
C1541 N1543 1.279 . S
C1541 C1544 1.358 . S
C1541 H1547 0.930 . S
C1542 C1540 1.353 . S
C1542 C1545 1.348 . S
C1542 H1580 0.929 . S
N1543 Li1498 1.990 . S
N1543 C1540 1.314 . S
N1543 C1541 1.279 . S
C1544 C1541 1.358 . S
C1544 C1545 1.356 . S
C1544 H1581 0.930 . S
C1545 C1542 1.348 . S
C1545 C1544 1.356 . S
H1546 C1540 0.930 . S
H1547 C1541 0.930 . S
C1548 N1549 1.314 . S
C1548 C1550 1.353 . S
C1548 H1554 0.930 . S
N1549 Li1499 1.990 . S
N1549 C1548 1.314 . S
N1549 C1552 1.279 . S
C1550 C1548 1.353 . S
C1550 C1553 1.348 . S
C1550 H1582 0.929 . S
C1551 C1552 1.358 . S
C1551 C1553 1.356 . S
C1551 H1583 0.930 . S
C1552 N1549 1.279 . S
C1552 C1551 1.358 . S
C1552 H1555 0.930 . S
C1553 C1550 1.348 . S
C1553 C1551 1.356 . S
H1554 C1548 0.930 . S
H1555 C1552 0.930 . S
O1556 Li1496 1.956 . S
O1556 Li1497 1.970 . S
O1556 Li1498 1.961 . S
O1556 C1500 1.325 . S
O1557 Li1496 1.970 . S
O1557 Li1497 1.956 . S
O1557 Li1499 1.961 . S
O1557 C1506 1.325 . S
O1558 Li1496 1.961 . S
O1558 Li1498 1.956 . S
O1558 Li1499 1.970 . S
O1558 C1528 1.325 . S
O1559 Li1497 1.961 . S
O1559 Li1498 1.970 . S
O1559 Li1499 1.956 . S
O1559 C1534 1.325 . S
H1560 C1502 0.929 . S
H1561 C1503 0.930 . S
H1562 C1504 0.930 . S
H1563 C1505 0.930 . S
H1564 C1507 0.930 . S
H1565 C1509 0.929 . S
H1566 C1510 0.930 . S
H1567 C1511 0.930 . S
H1568 C1514 0.930 . S
H1569 C1517 0.929 . S
H1570 C1522 0.929 . S
H1571 C1523 0.930 . S
H1572 C1530 0.929 . S
H1573 C1531 0.930 . S
H1574 C1532 0.930 . S
H1575 C1533 0.930 . S
H1576 C1535 0.929 . S
H1577 C1536 0.930 . S
H1578 C1537 0.930 . S
H1579 C1538 0.930 . S
H1580 C1542 0.929 . S
H1581 C1544 0.930 . S
H1582 C1550 0.929 . S
H1583 C1551 0.930 . S
Li1584 N1601 1.990 . S
Li1584 O1644 1.956 . S
Li1584 O1645 1.970 . S
Li1584 O1646 1.961 . S
Li1585 N1609 1.990 . S
Li1585 O1644 1.970 . S
Li1585 O1645 1.956 . S
Li1585 O1647 1.961 . S
Li1586 N1631 1.990 . S
Li1586 O1644 1.961 . S
Li1586 O1646 1.956 . S
Li1586 O1647 1.970 . S
Li1587 N1637 1.990 . S
Li1587 O1645 1.961 . S
Li1587 O1646 1.970 . S
Li1587 O1647 1.956 . S
C1588 C1590 1.348 . S
C1588 C1591 1.356 . S
C1588 O1644 1.325 . S
N1589 C1592 1.314 . S
N1589 C1593 1.279 . S
C1590 C1588 1.348 . S
C1590 C1592 1.353 . S
C1590 H1648 0.929 . S
C1591 C1588 1.356 . S
C1591 C1593 1.358 . S
C1591 H1649 0.930 . S
C1592 N1589 1.314 . S
C1592 C1590 1.353 . S
C1592 H1650 0.930 . S
C1593 N1589 1.279 . S
C1593 C1591 1.358 . S
C1593 H1651 0.930 . S
C1594 C1597 1.348 . S
C1594 C1598 1.356 . S
C1594 O1645 1.325 . S
C1595 N1596 1.279 . S
C1595 C1598 1.358 . S
C1595 H1652 0.930 . S
N1596 C1595 1.279 . S
N1596 C1599 1.314 . S
C1597 C1594 1.348 . S
C1597 C1599 1.353 . S
C1597 H1653 0.929 . S
C1598 C1594 1.356 . S
C1598 C1595 1.358 . S
C1598 H1654 0.930 . S
C1599 N1596 1.314 . S
C1599 C1597 1.353 . S
C1599 H1655 0.930 . S
C1600 N1601 1.314 . S
C1600 C1605 1.353 . S
C1600 H1606 0.930 . S
N1601 Li1584 1.990 . S
N1601 C1600 1.314 . S
N1601 C1603 1.279 . S
C1602 C1603 1.358 . S
C1602 C1604 1.356 . S
C1602 H1656 0.930 . S
C1603 N1601 1.279 . S
C1603 C1602 1.358 . S
C1603 H1607 0.930 . S
C1604 C1602 1.356 . S
C1604 C1605 1.348 . S
C1605 C1600 1.353 . S
C1605 C1604 1.348 . S
C1605 H1657 0.929 . S
H1606 C1600 0.930 . S
H1607 C1603 0.930 . S
C1608 N1609 1.314 . S
C1608 C1610 1.353 . S
C1608 H1614 0.930 . S
N1609 Li1585 1.990 . S
N1609 C1608 1.314 . S
N1609 C1612 1.279 . S
C1610 C1608 1.353 . S
C1610 C1613 1.348 . S
C1610 H1658 0.929 . S
C1611 C1612 1.358 . S
C1611 C1613 1.356 . S
C1611 H1659 0.930 . S
C1612 N1609 1.279 . S
C1612 C1611 1.358 . S
C1612 H1615 0.930 . S
C1613 C1610 1.348 . S
C1613 C1611 1.356 . S
H1614 C1608 0.930 . S
H1615 C1612 0.930 . S
C1616 C1618 1.348 . S
C1616 C1619 1.356 . S
C1616 O1646 1.325 . S
N1617 C1620 1.314 . S
N1617 C1621 1.279 . S
C1618 C1616 1.348 . S
C1618 C1620 1.353 . S
C1618 H1660 0.929 . S
C1619 C1616 1.356 . S
C1619 C1621 1.358 . S
C1619 H1661 0.930 . S
C1620 N1617 1.314 . S
C1620 C1618 1.353 . S
C1620 H1662 0.930 . S
C1621 N1617 1.279 . S
C1621 C1619 1.358 . S
C1621 H1663 0.930 . S
C1622 C1623 1.348 . S
C1622 C1624 1.356 . S
C1622 O1647 1.325 . S
C1623 C1622 1.348 . S
C1623 C1625 1.353 . S
C1623 H1664 0.929 . S
C1624 C1622 1.356 . S
C1624 C1626 1.358 . S
C1624 H1665 0.930 . S
C1625 C1623 1.353 . S
C1625 N1627 1.314 . S
C1625 H1666 0.930 . S
C1626 C1624 1.358 . S
C1626 N1627 1.279 . S
C1626 H1667 0.930 . S
N1627 C1625 1.314 . S
N1627 C1626 1.279 . S
C1628 C1630 1.353 . S
C1628 N1631 1.314 . S
C1628 H1634 0.930 . S
C1629 N1631 1.279 . S
C1629 C1632 1.358 . S
C1629 H1635 0.930 . S
C1630 C1628 1.353 . S
C1630 C1633 1.348 . S
C1630 H1668 0.929 . S
N1631 Li1586 1.990 . S
N1631 C1628 1.314 . S
N1631 C1629 1.279 . S
C1632 C1629 1.358 . S
C1632 C1633 1.356 . S
C1632 H1669 0.930 . S
C1633 C1630 1.348 . S
C1633 C1632 1.356 . S
H1634 C1628 0.930 . S
H1635 C1629 0.930 . S
C1636 N1637 1.314 . S
C1636 C1638 1.353 . S
C1636 H1642 0.930 . S
N1637 Li1587 1.990 . S
N1637 C1636 1.314 . S
N1637 C1640 1.279 . S
C1638 C1636 1.353 . S
C1638 C1641 1.348 . S
C1638 H1670 0.929 . S
C1639 C1640 1.358 . S
C1639 C1641 1.356 . S
C1639 H1671 0.930 . S
C1640 N1637 1.279 . S
C1640 C1639 1.358 . S
C1640 H1643 0.930 . S
C1641 C1638 1.348 . S
C1641 C1639 1.356 . S
H1642 C1636 0.930 . S
H1643 C1640 0.930 . S
O1644 Li1584 1.956 . S
O1644 Li1585 1.970 . S
O1644 Li1586 1.961 . S
O1644 C1588 1.325 . S
O1645 Li1584 1.970 . S
O1645 Li1585 1.956 . S
O1645 Li1587 1.961 . S
O1645 C1594 1.325 . S
O1646 Li1584 1.961 . S
O1646 Li1586 1.956 . S
O1646 Li1587 1.970 . S
O1646 C1616 1.325 . S
O1647 Li1585 1.961 . S
O1647 Li1586 1.970 . S
O1647 Li1587 1.956 . S
O1647 C1622 1.325 . S
H1648 C1590 0.929 . S
H1649 C1591 0.930 . S
H1650 C1592 0.930 . S
H1651 C1593 0.930 . S
H1652 C1595 0.930 . S
H1653 C1597 0.929 . S
H1654 C1598 0.930 . S
H1655 C1599 0.930 . S
H1656 C1602 0.930 . S
H1657 C1605 0.929 . S
H1658 C1610 0.929 . S
H1659 C1611 0.930 . S
H1660 C1618 0.929 . S
H1661 C1619 0.930 . S
H1662 C1620 0.930 . S
H1663 C1621 0.930 . S
H1664 C1623 0.929 . S
H1665 C1624 0.930 . S
H1666 C1625 0.930 . S
H1667 C1626 0.930 . S
H1668 C1630 0.929 . S
H1669 C1632 0.930 . S
H1670 C1638 0.929 . S
H1671 C1639 0.930 . S
Li1672 N1689 1.990 . S
Li1672 O1732 1.956 . S
Li1672 O1733 1.970 . S
Li1672 O1734 1.961 . S
Li1673 N1697 1.990 . S
Li1673 O1732 1.970 . S
Li1673 O1733 1.956 . S
Li1673 O1735 1.961 . S
Li1674 N1719 1.990 . S
Li1674 O1732 1.961 . S
Li1674 O1734 1.956 . S
Li1674 O1735 1.970 . S
Li1675 N1725 1.990 . S
Li1675 O1733 1.961 . S
Li1675 O1734 1.970 . S
Li1675 O1735 1.956 . S
C1676 C1678 1.348 . S
C1676 C1679 1.356 . S
C1676 O1732 1.325 . S
N1677 C1680 1.314 . S
N1677 C1681 1.279 . S
C1678 C1676 1.348 . S
C1678 C1680 1.353 . S
C1678 H1736 0.929 . S
C1679 C1676 1.356 . S
C1679 C1681 1.358 . S
C1679 H1737 0.930 . S
C1680 N1677 1.314 . S
C1680 C1678 1.353 . S
C1680 H1738 0.930 . S
C1681 N1677 1.279 . S
C1681 C1679 1.358 . S
C1681 H1739 0.930 . S
C1682 C1685 1.348 . S
C1682 C1686 1.356 . S
C1682 O1733 1.325 . S
C1683 N1684 1.279 . S
C1683 C1686 1.358 . S
C1683 H1740 0.930 . S
N1684 C1683 1.279 . S
N1684 C1687 1.314 . S
C1685 C1682 1.348 . S
C1685 C1687 1.353 . S
C1685 H1741 0.929 . S
C1686 C1682 1.356 . S
C1686 C1683 1.358 . S
C1686 H1742 0.930 . S
C1687 N1684 1.314 . S
C1687 C1685 1.353 . S
C1687 H1743 0.930 . S
C1688 N1689 1.314 . S
C1688 C1693 1.353 . S
C1688 H1694 0.930 . S
N1689 Li1672 1.990 . S
N1689 C1688 1.314 . S
N1689 C1691 1.279 . S
C1690 C1691 1.358 . S
C1690 C1692 1.356 . S
C1690 H1744 0.930 . S
C1691 N1689 1.279 . S
C1691 C1690 1.358 . S
C1691 H1695 0.930 . S
C1692 C1690 1.356 . S
C1692 C1693 1.348 . S
C1693 C1688 1.353 . S
C1693 C1692 1.348 . S
C1693 H1745 0.929 . S
H1694 C1688 0.930 . S
H1695 C1691 0.930 . S
C1696 N1697 1.314 . S
C1696 C1698 1.353 . S
C1696 H1702 0.930 . S
N1697 Li1673 1.990 . S
N1697 C1696 1.314 . S
N1697 C1700 1.279 . S
C1698 C1696 1.353 . S
C1698 C1701 1.348 . S
C1698 H1746 0.929 . S
C1699 C1700 1.358 . S
C1699 C1701 1.356 . S
C1699 H1747 0.930 . S
C1700 N1697 1.279 . S
C1700 C1699 1.358 . S
C1700 H1703 0.930 . S
C1701 C1698 1.348 . S
C1701 C1699 1.356 . S
H1702 C1696 0.930 . S
H1703 C1700 0.930 . S
C1704 C1706 1.304 1_545 S
C1704 C1707 1.372 1_545 S
C1704 O1734 1.361 . S
N1705 C1708 1.314 . S
N1705 C1709 1.279 . S
C1706 C1704 1.304 1_565 S
C1706 C1708 1.353 . S
C1706 H1748 0.929 . S
C1707 C1704 1.372 1_565 S
C1707 C1709 1.397 . S
C1707 H1749 0.885 1_565 S
C1708 N1705 1.314 . S
C1708 C1706 1.353 . S
C1708 H1750 0.930 . S
C1709 N1705 1.279 . S
C1709 C1707 1.397 . S
C1709 H1751 0.930 . S
C1710 C1711 1.348 . S
C1710 C1712 1.356 . S
C1710 O1735 1.325 . S
C1711 C1710 1.348 . S
C1711 C1713 1.353 . S
C1711 H1752 0.929 . S
C1712 C1710 1.356 . S
C1712 C1714 1.358 . S
C1712 H1753 0.930 . S
C1713 C1711 1.353 . S
C1713 N1715 1.314 . S
C1713 H1754 0.930 . S
C1714 C1712 1.358 . S
C1714 N1715 1.279 . S
C1714 H1755 0.930 . S
N1715 C1713 1.314 . S
N1715 C1714 1.279 . S
C1716 C1718 1.353 . S
C1716 N1719 1.314 . S
C1716 H1722 0.930 . S
C1717 N1719 1.279 . S
C1717 C1720 1.358 . S
C1717 H1723 0.930 . S
C1718 C1716 1.353 . S
C1718 C1721 1.348 . S
C1718 H1756 0.929 . S
N1719 Li1674 1.990 . S
N1719 C1716 1.314 . S
N1719 C1717 1.279 . S
C1720 C1717 1.358 . S
C1720 C1721 1.356 . S
C1720 H1757 0.930 1_545 S
C1721 C1718 1.348 . S
C1721 C1720 1.356 . S
H1722 C1716 0.930 . S
H1723 C1717 0.930 . S
C1724 N1725 1.314 1_565 S
C1724 C1726 1.353 . S
C1724 H1730 0.931 . S
N1725 Li1675 1.990 . S
N1725 C1724 1.314 1_545 S
N1725 C1728 1.279 1_545 S
C1726 C1724 1.353 . S
C1726 C1729 1.348 . S
C1726 H1758 0.929 . S
C1727 C1728 1.358 . S
C1727 C1729 1.356 . S
C1727 H1759 0.930 . S
C1728 N1725 1.279 1_565 S
C1728 C1727 1.358 . S
C1728 H1731 0.930 1_565 S
C1729 C1726 1.348 . S
C1729 C1727 1.356 . S
H1730 C1724 0.931 . S
H1731 C1728 0.930 1_545 S
O1732 Li1672 1.956 . S
O1732 Li1673 1.970 . S
O1732 Li1674 1.961 . S
O1732 C1676 1.325 . S
O1733 Li1672 1.970 . S
O1733 Li1673 1.956 . S
O1733 Li1675 1.961 . S
O1733 C1682 1.325 . S
O1734 Li1672 1.961 . S
O1734 Li1674 1.956 . S
O1734 Li1675 1.970 . S
O1734 C1704 1.361 . S
O1735 Li1673 1.961 . S
O1735 Li1674 1.970 . S
O1735 Li1675 1.956 . S
O1735 C1710 1.325 . S
H1736 C1678 0.929 . S
H1737 C1679 0.930 . S
H1738 C1680 0.930 . S
H1739 C1681 0.930 . S
H1740 C1683 0.930 . S
H1741 C1685 0.929 . S
H1742 C1686 0.930 . S
H1743 C1687 0.930 . S
H1744 C1690 0.930 . S
H1745 C1693 0.929 . S
H1746 C1698 0.929 . S
H1747 C1699 0.930 . S
H1748 C1706 0.929 . S
H1749 C1707 0.885 1_545 S
H1750 C1708 0.930 . S
H1751 C1709 0.930 . S
H1752 C1711 0.929 . S
H1753 C1712 0.930 . S
H1754 C1713 0.930 . S
H1755 C1714 0.930 . S
H1756 C1718 0.929 . S
H1757 C1720 0.930 1_565 S
H1758 C1726 0.929 . S
H1759 C1727 0.930 . S
Li1760 N1777 1.990 . S
Li1760 O1820 1.956 . S
Li1760 O1821 1.970 . S
Li1760 O1822 1.961 . S
Li1761 N1785 1.989 . S
Li1761 O1820 1.975 1_556 S
Li1761 O1821 1.930 1_556 S
Li1761 O1823 1.987 . S
Li1762 N1807 1.990 . S
Li1762 O1820 1.961 1_556 S
Li1762 O1822 1.956 1_556 S
Li1762 O1823 1.970 . S
Li1763 N1813 1.990 . S
Li1763 O1821 1.961 1_556 S
Li1763 O1822 1.970 1_556 S
Li1763 O1823 1.956 . S
C1764 C1766 1.348 . S
C1764 C1767 1.356 . S
C1764 O1820 1.325 . S
N1765 C1768 1.314 . S
N1765 C1769 1.279 . S
C1766 C1764 1.348 . S
C1766 C1768 1.353 . S
C1766 H1824 0.929 . S
C1767 C1764 1.356 . S
C1767 C1769 1.358 . S
C1767 H1825 0.930 . S
C1768 N1765 1.314 . S
C1768 C1766 1.353 . S
C1768 H1826 0.930 . S
C1769 N1765 1.279 . S
C1769 C1767 1.358 . S
C1769 H1827 0.930 . S
C1770 C1773 1.348 . S
C1770 C1774 1.356 . S
C1770 O1821 1.325 . S
C1771 N1772 1.279 . S
C1771 C1774 1.358 . S
C1771 H1828 0.930 . S
N1772 C1771 1.279 . S
N1772 C1775 1.314 . S
C1773 C1770 1.348 . S
C1773 C1775 1.353 . S
C1773 H1829 0.929 . S
C1774 C1770 1.356 . S
C1774 C1771 1.358 . S
C1774 H1830 0.930 . S
C1775 N1772 1.314 . S
C1775 C1773 1.353 . S
C1775 H1831 0.930 . S
C1776 N1777 1.314 . S
C1776 C1781 1.353 . S
C1776 H1782 0.930 . S
N1777 Li1760 1.990 . S
N1777 C1776 1.314 . S
N1777 C1779 1.279 . S
C1778 C1779 1.358 . S
C1778 C1780 1.356 . S
C1778 H1832 0.930 . S
C1779 N1777 1.279 . S
C1779 C1778 1.358 . S
C1779 H1783 0.930 . S
C1780 C1778 1.356 . S
C1780 C1781 1.348 . S
C1781 C1776 1.353 . S
C1781 C1780 1.348 . S
C1781 H1833 0.929 . S
H1782 C1776 0.930 . S
H1783 C1779 0.930 . S
C1784 N1785 1.314 . S
C1784 C1786 1.353 . S
C1784 H1790 0.930 . S
N1785 Li1761 1.989 . S
N1785 C1784 1.314 . S
N1785 C1788 1.279 1_556 S
C1786 C1784 1.353 . S
C1786 C1789 1.348 . S
C1786 H1834 0.929 . S
C1787 C1788 1.358 . S
C1787 C1789 1.356 1_554 S
C1787 H1835 0.930 . S
C1788 N1785 1.279 1_554 S
C1788 C1787 1.358 . S
C1788 H1791 0.930 . S
C1789 C1786 1.348 . S
C1789 C1787 1.356 1_556 S
H1790 C1784 0.930 . S
H1791 C1788 0.930 . S
C1792 C1794 1.348 1_554 S
C1792 C1795 1.356 . S
C1792 O1822 1.325 . S
N1793 C1796 1.314 1_554 S
N1793 C1797 1.279 . S
C1794 C1792 1.348 1_556 S
C1794 C1796 1.353 . S
C1794 H1836 0.929 . S
C1795 C1792 1.356 . S
C1795 C1797 1.358 . S
C1795 H1837 0.930 . S
C1796 N1793 1.314 1_556 S
C1796 C1794 1.353 . S
C1796 H1838 0.930 . S
C1797 N1793 1.279 . S
C1797 C1795 1.358 . S
C1797 H1839 0.930 . S
C1798 C1799 1.348 . S
C1798 C1800 1.356 . S
C1798 O1823 1.325 . S
C1799 C1798 1.348 . S
C1799 C1801 1.353 . S
C1799 H1840 0.929 . S
C1800 C1798 1.356 . S
C1800 C1802 1.358 . S
C1800 H1841 0.930 . S
C1801 C1799 1.353 . S
C1801 N1803 1.314 . S
C1801 H1842 0.930 . S
C1802 C1800 1.358 . S
C1802 N1803 1.279 . S
C1802 H1843 0.930 . S
N1803 C1801 1.314 . S
N1803 C1802 1.279 . S
C1804 C1806 1.353 . S
C1804 N1807 1.314 . S
C1804 H1810 0.930 . S
C1805 N1807 1.279 . S
C1805 C1808 1.358 . S
C1805 H1811 0.930 . S
C1806 C1804 1.353 . S
C1806 C1809 1.348 . S
C1806 H1844 0.929 . S
N1807 Li1762 1.990 . S
N1807 C1804 1.314 . S
N1807 C1805 1.279 . S
C1808 C1805 1.358 . S
C1808 C1809 1.356 . S
C1808 H1845 0.930 . S
C1809 C1806 1.348 . S
C1809 C1808 1.356 . S
H1810 C1804 0.930 . S
H1811 C1805 0.930 . S
C1812 N1813 1.314 1_554 S
C1812 C1814 1.353 . S
C1812 H1818 0.930 . S
N1813 Li1763 1.990 . S
N1813 C1812 1.314 1_556 S
N1813 C1816 1.279 . S
C1814 C1812 1.353 . S
C1814 C1817 1.348 1_554 S
C1814 H1846 0.929 . S
C1815 C1816 1.358 . S
C1815 C1817 1.356 . S
C1815 H1847 0.930 . S
C1816 N1813 1.279 . S
C1816 C1815 1.358 . S
C1816 H1819 0.930 . S
C1817 C1814 1.348 1_556 S
C1817 C1815 1.356 . S
H1818 C1812 0.930 . S
H1819 C1816 0.930 . S
O1820 Li1760 1.956 . S
O1820 Li1761 1.975 1_554 S
O1820 Li1762 1.961 1_554 S
O1820 C1764 1.325 . S
O1821 Li1760 1.970 . S
O1821 Li1761 1.930 1_554 S
O1821 Li1763 1.961 1_554 S
O1821 C1770 1.325 . S
O1822 Li1760 1.961 . S
O1822 Li1762 1.956 1_554 S
O1822 Li1763 1.970 1_554 S
O1822 C1792 1.325 . S
O1823 Li1761 1.987 . S
O1823 Li1762 1.970 . S
O1823 Li1763 1.956 . S
O1823 C1798 1.325 . S
H1824 C1766 0.929 . S
H1825 C1767 0.930 . S
H1826 C1768 0.930 . S
H1827 C1769 0.930 . S
H1828 C1771 0.930 . S
H1829 C1773 0.929 . S
H1830 C1774 0.930 . S
H1831 C1775 0.930 . S
H1832 C1778 0.930 . S
H1833 C1781 0.929 . S
H1834 C1786 0.929 . S
H1835 C1787 0.930 . S
H1836 C1794 0.929 . S
H1837 C1795 0.930 . S
H1838 C1796 0.930 . S
H1839 C1797 0.930 . S
H1840 C1799 0.929 . S
H1841 C1800 0.930 . S
H1842 C1801 0.930 . S
H1843 C1802 0.930 . S
H1844 C1806 0.929 . S
H1845 C1808 0.930 . S
H1846 C1814 0.929 . S
H1847 C1815 0.930 . S
Li1848 N1865 1.990 . S
Li1848 O1908 1.956 . S
Li1848 O1909 1.970 . S
Li1848 O1910 1.961 . S
Li1849 N1873 1.990 . S
Li1849 O1908 1.970 . S
Li1849 O1909 1.956 . S
Li1849 O1911 1.961 . S
Li1850 N1895 1.990 . S
Li1850 O1908 1.961 . S
Li1850 O1910 1.956 . S
Li1850 O1911 1.970 . S
Li1851 N1901 1.990 . S
Li1851 O1909 1.961 . S
Li1851 O1910 1.970 . S
Li1851 O1911 1.956 . S
C1852 C1854 1.348 . S
C1852 C1855 1.356 . S
C1852 O1908 1.325 . S
N1853 C1856 1.314 . S
N1853 C1857 1.279 . S
C1854 C1852 1.348 . S
C1854 C1856 1.353 . S
C1854 H1912 0.929 . S
C1855 C1852 1.356 . S
C1855 C1857 1.358 . S
C1855 H1913 0.930 . S
C1856 N1853 1.314 . S
C1856 C1854 1.353 . S
C1856 H1914 0.930 . S
C1857 N1853 1.279 . S
C1857 C1855 1.358 . S
C1857 H1915 0.930 . S
C1858 C1861 1.348 . S
C1858 C1862 1.356 . S
C1858 O1909 1.325 . S
C1859 N1860 1.279 . S
C1859 C1862 1.358 . S
C1859 H1916 0.930 . S
N1860 C1859 1.279 . S
N1860 C1863 1.314 . S
C1861 C1858 1.348 . S
C1861 C1863 1.353 . S
C1861 H1917 0.929 . S
C1862 C1858 1.356 . S
C1862 C1859 1.358 . S
C1862 H1918 0.930 . S
C1863 N1860 1.314 . S
C1863 C1861 1.353 . S
C1863 H1919 0.930 . S
C1864 N1865 1.314 . S
C1864 C1869 1.353 . S
C1864 H1870 0.930 . S
N1865 Li1848 1.990 . S
N1865 C1864 1.314 . S
N1865 C1867 1.279 . S
C1866 C1867 1.358 . S
C1866 C1868 1.356 . S
C1866 H1920 0.930 . S
C1867 N1865 1.279 . S
C1867 C1866 1.358 . S
C1867 H1871 0.930 . S
C1868 C1866 1.356 . S
C1868 C1869 1.348 . S
C1869 C1864 1.353 . S
C1869 C1868 1.348 . S
C1869 H1921 0.929 . S
H1870 C1864 0.930 . S
H1871 C1867 0.930 . S
C1872 N1873 1.314 . S
C1872 C1874 1.353 . S
C1872 H1878 0.930 . S
N1873 Li1849 1.990 . S
N1873 C1872 1.314 . S
N1873 C1876 1.279 . S
C1874 C1872 1.353 . S
C1874 C1877 1.348 . S
C1874 H1922 0.929 . S
C1875 C1876 1.358 . S
C1875 C1877 1.356 . S
C1875 H1923 0.930 . S
C1876 N1873 1.279 . S
C1876 C1875 1.358 . S
C1876 H1879 0.930 . S
C1877 C1874 1.348 . S
C1877 C1875 1.356 . S
H1878 C1872 0.930 . S
H1879 C1876 0.930 . S
C1880 C1882 1.348 . S
C1880 C1883 1.356 . S
C1880 O1910 1.325 . S
N1881 C1884 1.314 . S
N1881 C1885 1.279 . S
C1882 C1880 1.348 . S
C1882 C1884 1.353 . S
C1882 H1924 0.929 . S
C1883 C1880 1.356 . S
C1883 C1885 1.358 . S
C1883 H1925 0.930 . S
C1884 N1881 1.314 . S
C1884 C1882 1.353 . S
C1884 H1926 0.930 . S
C1885 N1881 1.279 . S
C1885 C1883 1.358 . S
C1885 H1927 0.930 . S
C1886 C1887 1.348 . S
C1886 C1888 1.356 . S
C1886 O1911 1.325 . S
C1887 C1886 1.348 . S
C1887 C1889 1.353 . S
C1887 H1928 0.929 . S
C1888 C1886 1.356 . S
C1888 C1890 1.358 . S
C1888 H1929 0.930 . S
C1889 C1887 1.353 . S
C1889 N1891 1.314 . S
C1889 H1930 0.930 . S
C1890 C1888 1.358 . S
C1890 N1891 1.279 . S
C1890 H1931 0.930 1_655 S
N1891 C1889 1.314 . S
N1891 C1890 1.279 . S
C1892 C1894 1.353 . S
C1892 N1895 1.314 . S
C1892 H1898 0.930 . S
C1893 N1895 1.279 . S
C1893 C1896 1.358 . S
C1893 H1899 0.930 . S
C1894 C1892 1.353 . S
C1894 C1897 1.348 . S
C1894 H1932 0.929 . S
N1895 Li1850 1.990 . S
N1895 C1892 1.314 . S
N1895 C1893 1.279 . S
C1896 C1893 1.358 . S
C1896 C1897 1.356 . S
C1896 H1933 0.930 . S
C1897 C1894 1.348 . S
C1897 C1896 1.356 . S
H1898 C1892 0.930 . S
H1899 C1893 0.930 . S
C1900 N1901 1.314 . S
C1900 C1902 1.353 . S
C1900 H1906 0.930 . S
N1901 Li1851 1.990 . S
N1901 C1900 1.314 . S
N1901 C1904 1.279 . S
C1902 C1900 1.353 . S
C1902 C1905 1.348 . S
C1902 H1934 0.929 . S
C1903 C1904 1.358 . S
C1903 C1905 1.356 . S
C1903 H1935 0.930 . S
C1904 N1901 1.279 . S
C1904 C1903 1.358 . S
C1904 H1907 0.930 . S
C1905 C1902 1.348 . S
C1905 C1903 1.356 . S
H1906 C1900 0.930 . S
H1907 C1904 0.930 . S
O1908 Li1848 1.956 . S
O1908 Li1849 1.970 . S
O1908 Li1850 1.961 . S
O1908 C1852 1.325 . S
O1909 Li1848 1.970 . S
O1909 Li1849 1.956 . S
O1909 Li1851 1.961 . S
O1909 C1858 1.325 . S
O1910 Li1848 1.961 . S
O1910 Li1850 1.956 . S
O1910 Li1851 1.970 . S
O1910 C1880 1.325 . S
O1911 Li1849 1.961 . S
O1911 Li1850 1.970 . S
O1911 Li1851 1.956 . S
O1911 C1886 1.325 . S
H1912 C1854 0.929 . S
H1913 C1855 0.930 . S
H1914 C1856 0.930 . S
H1915 C1857 0.930 . S
H1916 C1859 0.930 . S
H1917 C1861 0.929 . S
H1918 C1862 0.930 . S
H1919 C1863 0.930 . S
H1920 C1866 0.930 . S
H1921 C1869 0.929 . S
H1922 C1874 0.929 . S
H1923 C1875 0.930 . S
H1924 C1882 0.929 . S
H1925 C1883 0.930 . S
H1926 C1884 0.930 . S
H1927 C1885 0.930 . S
H1928 C1887 0.929 . S
H1929 C1888 0.930 . S
H1930 C1889 0.930 . S
H1931 C1890 0.930 1_455 S
H1932 C1894 0.929 . S
H1933 C1896 0.930 . S
H1934 C1902 0.929 . S
H1935 C1903 0.930 . S
Li1936 N1953 1.990 . S
Li1936 O1996 1.956 . S
Li1936 O1997 1.970 . S
Li1936 O1998 1.961 . S
Li1937 N1961 1.990 . S
Li1937 O1996 1.970 . S
Li1937 O1997 1.956 . S
Li1937 O1999 1.961 . S
Li1938 N1983 1.990 . S
Li1938 O1996 1.961 . S
Li1938 O1998 1.956 . S
Li1938 O1999 1.970 . S
Li1939 N1989 1.990 . S
Li1939 O1997 1.961 . S
Li1939 O1998 1.970 . S
Li1939 O1999 1.956 . S
C1940 C1942 1.348 . S
C1940 C1943 1.356 . S
C1940 O1996 1.325 . S
N1941 C1944 1.314 . S
N1941 C1945 1.279 . S
C1942 C1940 1.348 . S
C1942 C1944 1.353 . S
C1942 H2000 0.929 . S
C1943 C1940 1.356 . S
C1943 C1945 1.358 . S
C1943 H2001 0.930 . S
C1944 N1941 1.314 . S
C1944 C1942 1.353 . S
C1944 H2002 0.930 . S
C1945 N1941 1.279 . S
C1945 C1943 1.358 . S
C1945 H2003 0.930 . S
C1946 C1949 1.348 . S
C1946 C1950 1.356 . S
C1946 O1997 1.325 . S
C1947 N1948 1.279 . S
C1947 C1950 1.358 . S
C1947 H2004 0.930 . S
N1948 C1947 1.279 . S
N1948 C1951 1.314 . S
C1949 C1946 1.348 . S
C1949 C1951 1.353 . S
C1949 H2005 0.929 . S
C1950 C1946 1.356 . S
C1950 C1947 1.358 . S
C1950 H2006 0.930 . S
C1951 N1948 1.314 . S
C1951 C1949 1.353 . S
C1951 H2007 0.930 . S
C1952 N1953 1.314 . S
C1952 C1957 1.353 . S
C1952 H1958 0.930 . S
N1953 Li1936 1.990 . S
N1953 C1952 1.314 . S
N1953 C1955 1.279 . S
C1954 C1955 1.358 . S
C1954 C1956 1.356 . S
C1954 H2008 0.930 . S
C1955 N1953 1.279 . S
C1955 C1954 1.358 . S
C1955 H1959 0.930 . S
C1956 C1954 1.356 . S
C1956 C1957 1.348 . S
C1957 C1952 1.353 . S
C1957 C1956 1.348 . S
C1957 H2009 0.929 . S
H1958 C1952 0.930 . S
H1959 C1955 0.930 . S
C1960 N1961 1.314 . S
C1960 C1962 1.353 . S
C1960 H1966 0.930 . S
N1961 Li1937 1.990 . S
N1961 C1960 1.314 . S
N1961 C1964 1.279 . S
C1962 C1960 1.353 . S
C1962 C1965 1.348 . S
C1962 H2010 0.929 . S
C1963 C1964 1.358 . S
C1963 C1965 1.356 . S
C1963 H2011 0.930 . S
C1964 N1961 1.279 . S
C1964 C1963 1.358 . S
C1964 H1967 0.930 . S
C1965 C1962 1.348 . S
C1965 C1963 1.356 . S
H1966 C1960 0.930 . S
H1967 C1964 0.930 . S
C1968 C1970 1.348 . S
C1968 C1971 1.356 . S
C1968 O1998 1.325 . S
N1969 C1972 1.314 . S
N1969 C1973 1.279 . S
C1970 C1968 1.348 . S
C1970 C1972 1.353 . S
C1970 H2012 0.929 . S
C1971 C1968 1.356 . S
C1971 C1973 1.358 . S
C1971 H2013 0.930 . S
C1972 N1969 1.314 . S
C1972 C1970 1.353 . S
C1972 H2014 0.930 . S
C1973 N1969 1.279 . S
C1973 C1971 1.358 . S
C1973 H2015 0.930 . S
C1974 C1975 1.348 . S
C1974 C1976 1.356 . S
C1974 O1999 1.325 . S
C1975 C1974 1.348 . S
C1975 C1977 1.353 . S
C1975 H2016 0.929 . S
C1976 C1974 1.356 . S
C1976 C1978 1.358 . S
C1976 H2017 0.930 . S
C1977 C1975 1.353 . S
C1977 N1979 1.314 . S
C1977 H2018 0.930 . S
C1978 C1976 1.358 . S
C1978 N1979 1.279 . S
C1978 H2019 0.930 . S
N1979 C1977 1.314 . S
N1979 C1978 1.279 . S
C1980 C1982 1.353 . S
C1980 N1983 1.314 . S
C1980 H1986 0.930 . S
C1981 N1983 1.279 . S
C1981 C1984 1.358 . S
C1981 H1987 0.930 . S
C1982 C1980 1.353 . S
C1982 C1985 1.348 . S
C1982 H2020 0.929 . S
N1983 Li1938 1.990 . S
N1983 C1980 1.314 . S
N1983 C1981 1.279 . S
C1984 C1981 1.358 . S
C1984 C1985 1.356 . S
C1984 H2021 0.930 . S
C1985 C1982 1.348 . S
C1985 C1984 1.356 . S
H1986 C1980 0.930 . S
H1987 C1981 0.930 . S
C1988 N1989 1.314 . S
C1988 C1990 1.353 . S
C1988 H1994 0.930 . S
N1989 Li1939 1.990 . S
N1989 C1988 1.314 . S
N1989 C1992 1.279 . S
C1990 C1988 1.353 . S
C1990 C1993 1.348 . S
C1990 H2022 0.929 . S
C1991 C1992 1.358 . S
C1991 C1993 1.356 . S
C1991 H2023 0.930 . S
C1992 N1989 1.279 . S
C1992 C1991 1.358 . S
C1992 H1995 0.930 . S
C1993 C1990 1.348 . S
C1993 C1991 1.356 . S
H1994 C1988 0.930 . S
H1995 C1992 0.930 . S
O1996 Li1936 1.956 . S
O1996 Li1937 1.970 . S
O1996 Li1938 1.961 . S
O1996 C1940 1.325 . S
O1997 Li1936 1.970 . S
O1997 Li1937 1.956 . S
O1997 Li1939 1.961 . S
O1997 C1946 1.325 . S
O1998 Li1936 1.961 . S
O1998 Li1938 1.956 . S
O1998 Li1939 1.970 . S
O1998 C1968 1.325 . S
O1999 Li1937 1.961 . S
O1999 Li1938 1.970 . S
O1999 Li1939 1.956 . S
O1999 C1974 1.325 . S
H2000 C1942 0.929 . S
H2001 C1943 0.930 . S
H2002 C1944 0.930 . S
H2003 C1945 0.930 . S
H2004 C1947 0.930 . S
H2005 C1949 0.929 . S
H2006 C1950 0.930 . S
H2007 C1951 0.930 . S
H2008 C1954 0.930 . S
H2009 C1957 0.929 . S
H2010 C1962 0.929 . S
H2011 C1963 0.930 . S
H2012 C1970 0.929 . S
H2013 C1971 0.930 . S
H2014 C1972 0.930 . S
H2015 C1973 0.930 . S
H2016 C1975 0.929 . S
H2017 C1976 0.930 . S
H2018 C1977 0.930 . S
H2019 C1978 0.930 . S
H2020 C1982 0.929 . S
H2021 C1984 0.930 . S
H2022 C1990 0.929 . S
H2023 C1991 0.930 . S
Li2024 N2041 1.990 . S
Li2024 O2084 1.956 . S
Li2024 O2085 1.970 . S
Li2024 O2086 1.961 . S
Li2025 N2049 1.990 . S
Li2025 O2084 1.970 . S
Li2025 O2085 1.956 . S
Li2025 O2087 1.961 . S
Li2026 N2071 1.990 . S
Li2026 O2084 1.961 . S
Li2026 O2086 1.956 . S
Li2026 O2087 1.970 . S
Li2027 N2077 1.990 . S
Li2027 O2085 1.961 . S
Li2027 O2086 1.970 . S
Li2027 O2087 1.956 . S
C2028 C2030 1.348 . S
C2028 C2031 1.356 . S
C2028 O2084 1.325 . S
N2029 C2032 1.314 . S
N2029 C2033 1.279 . S
C2030 C2028 1.348 . S
C2030 C2032 1.353 . S
C2030 H2088 0.929 . S
C2031 C2028 1.356 . S
C2031 C2033 1.358 . S
C2031 H2089 0.930 . S
C2032 N2029 1.314 . S
C2032 C2030 1.353 . S
C2032 H2090 0.930 . S
C2033 N2029 1.279 . S
C2033 C2031 1.358 . S
C2033 H2091 0.930 . S
C2034 C2037 1.348 . S
C2034 C2038 1.356 . S
C2034 O2085 1.325 . S
C2035 N2036 1.279 . S
C2035 C2038 1.358 . S
C2035 H2092 0.930 . S
N2036 C2035 1.279 . S
N2036 C2039 1.314 . S
C2037 C2034 1.348 . S
C2037 C2039 1.353 . S
C2037 H2093 0.929 . S
C2038 C2034 1.356 . S
C2038 C2035 1.358 . S
C2038 H2094 0.930 . S
C2039 N2036 1.314 . S
C2039 C2037 1.353 . S
C2039 H2095 0.930 . S
C2040 N2041 1.314 . S
C2040 C2045 1.353 . S
C2040 H2046 0.930 . S
N2041 Li2024 1.990 . S
N2041 C2040 1.314 . S
N2041 C2043 1.279 . S
C2042 C2043 1.358 . S
C2042 C2044 1.356 . S
C2042 H2096 0.930 . S
C2043 N2041 1.279 . S
C2043 C2042 1.358 . S
C2043 H2047 0.930 . S
C2044 C2042 1.356 . S
C2044 C2045 1.348 . S
C2045 C2040 1.353 . S
C2045 C2044 1.348 . S
C2045 H2097 0.929 . S
H2046 C2040 0.930 . S
H2047 C2043 0.930 . S
C2048 N2049 1.314 . S
C2048 C2050 1.353 . S
C2048 H2054 0.930 . S
N2049 Li2025 1.990 . S
N2049 C2048 1.314 . S
N2049 C2052 1.279 . S
C2050 C2048 1.353 . S
C2050 C2053 1.348 . S
C2050 H2098 0.929 . S
C2051 C2052 1.358 . S
C2051 C2053 1.356 . S
C2051 H2099 0.930 . S
C2052 N2049 1.279 . S
C2052 C2051 1.358 . S
C2052 H2055 0.930 . S
C2053 C2050 1.348 . S
C2053 C2051 1.356 . S
H2054 C2048 0.930 . S
H2055 C2052 0.930 . S
C2056 C2058 1.348 . S
C2056 C2059 1.356 . S
C2056 O2086 1.325 . S
N2057 C2060 1.314 . S
N2057 C2061 1.279 . S
C2058 C2056 1.348 . S
C2058 C2060 1.353 . S
C2058 H2100 0.929 . S
C2059 C2056 1.356 . S
C2059 C2061 1.358 . S
C2059 H2101 0.930 . S
C2060 N2057 1.314 . S
C2060 C2058 1.353 . S
C2060 H2102 0.930 . S
C2061 N2057 1.279 . S
C2061 C2059 1.358 . S
C2061 H2103 0.930 . S
C2062 C2063 1.348 . S
C2062 C2064 1.356 . S
C2062 O2087 1.325 . S
C2063 C2062 1.348 . S
C2063 C2065 1.353 . S
C2063 H2104 0.929 . S
C2064 C2062 1.356 . S
C2064 C2066 1.358 . S
C2064 H2105 0.930 . S
C2065 C2063 1.353 . S
C2065 N2067 1.314 . S
C2065 H2106 0.930 . S
C2066 C2064 1.358 . S
C2066 N2067 1.279 . S
C2066 H2107 0.930 . S
N2067 C2065 1.314 . S
N2067 C2066 1.279 . S
C2068 C2070 1.353 . S
C2068 N2071 1.314 . S
C2068 H2074 0.930 . S
C2069 N2071 1.279 . S
C2069 C2072 1.358 . S
C2069 H2075 0.930 . S
C2070 C2068 1.353 . S
C2070 C2073 1.348 . S
C2070 H2108 0.929 . S
N2071 Li2026 1.990 . S
N2071 C2068 1.314 . S
N2071 C2069 1.279 . S
C2072 C2069 1.358 . S
C2072 C2073 1.356 . S
C2072 H2109 0.930 . S
C2073 C2070 1.348 . S
C2073 C2072 1.356 . S
H2074 C2068 0.930 . S
H2075 C2069 0.930 . S
C2076 N2077 1.314 . S
C2076 C2078 1.353 . S
C2076 H2082 0.930 . S
N2077 Li2027 1.990 . S
N2077 C2076 1.314 . S
N2077 C2080 1.279 . S
C2078 C2076 1.353 . S
C2078 C2081 1.348 . S
C2078 H2110 0.929 . S
C2079 C2080 1.358 . S
C2079 C2081 1.356 . S
C2079 H2111 0.930 . S
C2080 N2077 1.279 . S
C2080 C2079 1.358 . S
C2080 H2083 0.930 . S
C2081 C2078 1.348 . S
C2081 C2079 1.356 . S
H2082 C2076 0.930 . S
H2083 C2080 0.930 . S
O2084 Li2024 1.956 . S
O2084 Li2025 1.970 . S
O2084 Li2026 1.961 . S
O2084 C2028 1.325 . S
O2085 Li2024 1.970 . S
O2085 Li2025 1.956 . S
O2085 Li2027 1.961 . S
O2085 C2034 1.325 . S
O2086 Li2024 1.961 . S
O2086 Li2026 1.956 . S
O2086 Li2027 1.970 . S
O2086 C2056 1.325 . S
O2087 Li2025 1.961 . S
O2087 Li2026 1.970 . S
O2087 Li2027 1.956 . S
O2087 C2062 1.325 . S
H2088 C2030 0.929 . S
H2089 C2031 0.930 . S
H2090 C2032 0.930 . S
H2091 C2033 0.930 . S
H2092 C2035 0.930 . S
H2093 C2037 0.929 . S
H2094 C2038 0.930 . S
H2095 C2039 0.930 . S
H2096 C2042 0.930 . S
H2097 C2045 0.929 . S
H2098 C2050 0.929 . S
H2099 C2051 0.930 . S
H2100 C2058 0.929 . S
H2101 C2059 0.930 . S
H2102 C2060 0.930 . S
H2103 C2061 0.930 . S
H2104 C2063 0.929 . S
H2105 C2064 0.930 . S
H2106 C2065 0.930 . S
H2107 C2066 0.930 . S
H2108 C2070 0.929 . S
H2109 C2072 0.930 . S
H2110 C2078 0.929 . S
H2111 C2079 0.930 . S
Eu2112 N2143 2.657 1_545 S
Eu2112 N2150 2.609 1_544 S
Eu2112 O2156 2.558 1_454 S
Eu2112 O2157 2.612 . S
Eu2112 O2159 2.339 . S
Eu2112 O2160 2.557 1_554 S
Eu2112 O2161 2.419 1_455 S
Eu2112 O2163 2.380 . S
Eu2112 O2164 2.432 1_554 S
Eu2112 C2176 2.848 1_454 S
C2113 C2116 1.429 . S
C2113 C2117 1.411 . S
C2113 N2120 1.377 . S
C2114 C2116 1.420 . S
C2114 C2118 1.423 . S
C2114 C2126 1.392 1_554 S
C2115 C2117 1.420 . S
C2115 C2118 1.351 . S
C2115 H2138 0.931 . S
C2116 C2113 1.429 . S
C2116 C2114 1.420 . S
C2116 N2124 1.362 . S
C2117 C2113 1.411 . S
C2117 C2115 1.420 . S
C2117 C2122 1.395 . S
C2118 C2114 1.423 . S
C2118 C2115 1.351 . S
C2118 H2130 0.930 . S
C2119 C2121 1.400 . S
C2119 C2122 1.386 . S
C2119 H2131 0.930 . S
N2120 C2113 1.377 . S
N2120 C2121 1.321 . S
N2120 Eu2123 2.609 . S
C2121 C2119 1.400 . S
C2121 N2120 1.321 . S
C2121 H2128 0.930 . S
C2122 C2117 1.395 . S
C2122 C2119 1.386 . S
C2122 H2141 0.930 . S
Eu2123 N2120 2.609 . S
Eu2123 N2124 2.657 . S
Eu2123 O2157 2.380 . S
Eu2123 O2158 2.432 . S
Eu2123 O2162 2.558 . S
Eu2123 O2163 2.612 . S
Eu2123 O2165 2.339 1_554 S
Eu2123 O2166 2.563 . S
Eu2123 O2167 2.419 . S
Eu2123 C2187 2.848 . S
N2124 C2116 1.362 . S
N2124 Eu2123 2.657 . S
N2124 C2125 1.334 1_554 S
C2125 N2124 1.334 1_556 S
C2125 C2127 1.413 . S
C2125 H2132 0.929 . S
C2126 C2114 1.392 1_556 S
C2126 C2127 1.367 . S
C2126 H2134 0.930 . S
C2127 C2125 1.413 . S
C2127 C2126 1.367 . S
C2127 H2129 0.930 . S
H2128 C2121 0.930 . S
H2129 C2127 0.930 . S
H2130 C2118 0.930 . S
H2131 C2119 0.930 . S
H2132 C2125 0.929 . S
H2133 C2147 0.930 . S
H2134 C2126 0.930 . S
H2135 C2153 0.930 . S
H2136 C2144 0.929 . S
H2137 C2151 0.930 . S
H2138 C2115 0.931 . S
H2139 C2145 0.930 . S
H2140 C2178 0.928 1_554 S
H2141 C2122 0.930 . S
H2142 C2177 0.931 . S
N2143 Eu2112 2.657 1_565 S
N2143 C2144 1.334 . S
N2143 C2148 1.357 1_455 S
C2144 H2136 0.929 . S
C2144 N2143 1.334 . S
C2144 C2147 1.413 . S
C2145 H2139 0.930 . S
C2145 C2146 1.392 . S
C2145 C2147 1.367 1_655 S
C2146 C2145 1.392 . S
C2146 C2148 1.426 . S
C2146 C2178 1.423 1_554 S
C2147 H2133 0.930 . S
C2147 C2144 1.413 . S
C2147 C2145 1.367 1_455 S
C2148 N2143 1.357 1_655 S
C2148 C2146 1.426 . S
C2148 C2152 1.428 1_554 S
H2149 C2154 0.930 . S
N2150 Eu2112 2.609 1_566 S
N2150 C2152 1.377 1_455 S
N2150 C2153 1.321 . S
C2151 H2137 0.930 . S
C2151 C2153 1.400 1_655 S
C2151 C2154 1.386 . S
C2152 C2148 1.428 1_556 S
C2152 N2150 1.377 1_655 S
C2152 C2155 1.411 . S
C2153 H2135 0.930 . S
C2153 N2150 1.321 . S
C2153 C2151 1.400 1_455 S
C2154 H2149 0.930 . S
C2154 C2151 1.386 . S
C2154 C2155 1.395 . S
C2155 C2152 1.411 . S
C2155 C2154 1.395 . S
C2155 C2177 1.420 . S
O2156 Eu2112 2.558 1_656 S
O2156 C2176 1.257 . S
O2157 Eu2112 2.612 . S
O2157 Eu2123 2.380 . S
O2157 C2168 1.276 . S
O2158 Eu2123 2.432 . S
O2158 C2175 1.264 . S
O2159 Eu2112 2.339 . S
O2159 C2175 1.254 . S
O2160 Eu2112 2.557 1_556 S
O2160 C2168 1.225 1_556 S
O2161 Eu2112 2.419 1_655 S
O2161 C2176 1.249 1_554 S
O2162 Eu2123 2.558 . S
O2162 C2187 1.257 . S
O2163 Eu2112 2.380 . S
O2163 Eu2123 2.612 . S
O2163 C2179 1.276 1_545 S
O2164 Eu2112 2.432 1_556 S
O2164 C2186 1.264 . S
O2165 Eu2123 2.339 1_556 S
O2165 C2186 1.254 . S
O2166 Eu2123 2.563 . S
O2166 C2179 1.235 1_545 S
O2167 Eu2123 2.419 . S
O2167 C2187 1.249 . S
C2168 O2157 1.276 . S
C2168 O2160 1.225 1_554 S
C2169 C2171 1.393 1_556 S
C2169 C2173 1.395 . S
C2169 C2176 1.492 . S
C2170 C2171 1.392 1_556 S
C2170 C2172 1.386 . S
C2171 C2169 1.393 1_554 S
C2171 C2170 1.392 1_554 S
C2171 H2188 0.930 . S
C2172 C2170 1.386 . S
C2172 C2174 1.395 . S
C2172 H2189 0.930 . S
C2173 C2169 1.395 . S
C2173 C2174 1.379 . S
C2173 H2190 0.930 . S
C2174 C2172 1.395 . S
C2174 C2173 1.379 . S
C2174 H2191 0.930 . S
C2175 O2158 1.264 . S
C2175 O2159 1.254 . S
C2176 Eu2112 2.848 1_656 S
C2176 O2156 1.257 . S
C2176 O2161 1.249 1_556 S
C2176 C2169 1.492 . S
C2177 H2142 0.931 . S
C2177 C2155 1.420 . S
C2177 C2178 1.351 . S
C2178 H2140 0.928 1_556 S
C2178 C2146 1.423 1_556 S
C2178 C2177 1.351 . S
C2179 O2163 1.276 1_565 S
C2179 O2166 1.235 1_565 S
C2180 C2181 1.393 . S
C2180 C2184 1.395 . S
C2180 C2187 1.492 . S
C2181 C2180 1.393 . S
C2181 C2182 1.392 . S
C2181 H2192 0.930 . S
C2182 C2181 1.392 . S
C2182 C2183 1.386 . S
C2183 C2182 1.386 . S
C2183 C2185 1.395 . S
C2183 H2193 0.930 . S
C2184 C2180 1.395 . S
C2184 C2185 1.379 . S
C2184 H2194 0.930 . S
C2185 C2183 1.395 . S
C2185 C2184 1.379 . S
C2185 H2195 0.930 . S
C2186 O2164 1.264 . S
C2186 O2165 1.254 . S
C2187 Eu2123 2.848 . S
C2187 O2162 1.257 . S
C2187 O2167 1.249 . S
C2187 C2180 1.492 . S
H2188 C2171 0.930 . S
H2189 C2172 0.930 . S
H2190 C2173 0.930 . S
H2191 C2174 0.930 . S
H2192 C2181 0.930 . S
H2193 C2183 0.930 . S
H2194 C2184 0.930 . S
H2195 C2185 0.930 . S
Eu2196 N2227 2.657 . S
Eu2196 N2234 2.609 . S
Eu2196 O2240 2.558 . S
Eu2196 O2241 2.612 . S
Eu2196 O2243 2.339 . S
Eu2196 O2244 2.563 . S
Eu2196 O2245 2.419 . S
Eu2196 O2247 2.380 . S
Eu2196 O2248 2.432 . S
Eu2196 C2260 2.848 . S
C2197 C2200 1.429 . S
C2197 C2201 1.411 . S
C2197 N2204 1.377 . S
C2198 C2200 1.420 . S
C2198 C2202 1.423 . S
C2198 C2210 1.392 . S
C2199 C2201 1.420 . S
C2199 C2202 1.351 . S
C2199 H2222 0.931 . S
C2200 C2197 1.429 . S
C2200 C2198 1.420 . S
C2200 N2208 1.362 . S
C2201 C2197 1.411 . S
C2201 C2199 1.420 . S
C2201 C2206 1.395 . S
C2202 C2198 1.423 . S
C2202 C2199 1.351 . S
C2202 H2214 0.930 . S
C2203 C2205 1.400 . S
C2203 C2206 1.386 . S
C2203 H2215 0.930 . S
N2204 C2197 1.377 . S
N2204 C2205 1.321 . S
N2204 Eu2207 2.609 . S
C2205 C2203 1.400 . S
C2205 N2204 1.321 . S
C2205 H2212 0.930 . S
C2206 C2201 1.395 . S
C2206 C2203 1.386 . S
C2206 H2225 0.930 . S
Eu2207 N2204 2.609 . S
Eu2207 N2208 2.657 . S
Eu2207 O2241 2.380 . S
Eu2207 O2242 2.432 . S
Eu2207 O2246 2.558 . S
Eu2207 O2247 2.612 . S
Eu2207 O2249 2.339 . S
Eu2207 O2250 2.563 . S
Eu2207 O2251 2.419 . S
Eu2207 C2271 2.848 . S
N2208 C2200 1.362 . S
N2208 Eu2207 2.657 . S
N2208 C2209 1.334 . S
C2209 N2208 1.334 . S
C2209 C2211 1.413 . S
C2209 H2216 0.929 . S
C2210 C2198 1.392 . S
C2210 C2211 1.367 . S
C2210 H2218 0.930 . S
C2211 C2209 1.413 . S
C2211 C2210 1.367 . S
C2211 H2213 0.930 . S
H2212 C2205 0.930 . S
H2213 C2211 0.930 . S
H2214 C2202 0.930 . S
H2215 C2203 0.930 . S
H2216 C2209 0.929 . S
H2217 C2231 0.930 . S
H2218 C2210 0.930 . S
H2219 C2237 0.930 . S
H2220 C2228 0.929 . S
H2221 C2235 0.930 . S
H2222 C2199 0.931 . S
H2223 C2229 0.930 . S
H2224 C2262 0.930 . S
H2225 C2206 0.930 . S
H2226 C2261 0.931 . S
N2227 Eu2196 2.657 . S
N2227 C2228 1.334 . S
N2227 C2232 1.362 . S
C2228 H2220 0.929 . S
C2228 N2227 1.334 . S
C2228 C2231 1.413 . S
C2229 H2223 0.930 . S
C2229 C2230 1.392 . S
C2229 C2231 1.367 . S
C2230 C2229 1.392 . S
C2230 C2232 1.420 . S
C2230 C2262 1.423 . S
C2231 H2217 0.930 . S
C2231 C2228 1.413 . S
C2231 C2229 1.367 . S
C2232 N2227 1.362 . S
C2232 C2230 1.420 . S
C2232 C2236 1.429 . S
H2233 C2238 0.930 . S
N2234 Eu2196 2.609 . S
N2234 C2236 1.377 . S
N2234 C2237 1.321 . S
C2235 H2221 0.930 . S
C2235 C2237 1.400 . S
C2235 C2238 1.386 . S
C2236 C2232 1.429 . S
C2236 N2234 1.377 . S
C2236 C2239 1.411 . S
C2237 H2219 0.930 . S
C2237 N2234 1.321 . S
C2237 C2235 1.400 . S
C2238 H2233 0.930 . S
C2238 C2235 1.386 . S
C2238 C2239 1.395 . S
C2239 C2236 1.411 . S
C2239 C2238 1.395 . S
C2239 C2261 1.420 . S
O2240 Eu2196 2.558 . S
O2240 C2260 1.257 . S
O2241 Eu2196 2.612 . S
O2241 Eu2207 2.380 . S
O2241 C2252 1.276 . S
O2242 Eu2207 2.432 . S
O2242 C2259 1.264 . S
O2243 Eu2196 2.339 . S
O2243 C2259 1.254 . S
O2244 Eu2196 2.563 . S
O2244 C2252 1.235 . S
O2245 Eu2196 2.419 . S
O2245 C2260 1.249 . S
O2246 Eu2207 2.558 . S
O2246 C2271 1.257 . S
O2247 Eu2196 2.380 . S
O2247 Eu2207 2.612 . S
O2247 C2263 1.276 . S
O2248 Eu2196 2.432 . S
O2248 C2270 1.264 . S
O2249 Eu2207 2.339 . S
O2249 C2270 1.254 . S
O2250 Eu2207 2.563 . S
O2250 C2263 1.235 . S
O2251 Eu2207 2.419 . S
O2251 C2271 1.249 . S
C2252 O2241 1.276 . S
C2252 O2244 1.235 . S
C2253 C2255 1.393 . S
C2253 C2257 1.395 . S
C2253 C2260 1.492 . S
C2254 C2255 1.392 . S
C2254 C2256 1.386 . S
C2255 C2253 1.393 . S
C2255 C2254 1.392 . S
C2255 H2272 0.930 . S
C2256 C2254 1.386 . S
C2256 C2258 1.395 . S
C2256 H2273 0.930 . S
C2257 C2253 1.395 . S
C2257 C2258 1.379 . S
C2257 H2274 0.930 . S
C2258 C2256 1.395 . S
C2258 C2257 1.379 . S
C2258 H2275 0.930 . S
C2259 O2242 1.264 . S
C2259 O2243 1.254 . S
C2260 Eu2196 2.848 . S
C2260 O2240 1.257 . S
C2260 O2245 1.249 . S
C2260 C2253 1.492 . S
C2261 H2226 0.931 . S
C2261 C2239 1.420 . S
C2261 C2262 1.351 . S
C2262 H2224 0.930 . S
C2262 C2230 1.423 . S
C2262 C2261 1.351 . S
C2263 O2247 1.276 . S
C2263 O2250 1.235 . S
C2264 C2265 1.393 . S
C2264 C2268 1.395 . S
C2264 C2271 1.492 . S
C2265 C2264 1.393 . S
C2265 C2266 1.392 . S
C2265 H2276 0.930 . S
C2266 C2265 1.392 . S
C2266 C2267 1.386 . S
C2267 C2266 1.386 . S
C2267 C2269 1.395 . S
C2267 H2277 0.930 . S
C2268 C2264 1.395 . S
C2268 C2269 1.379 . S
C2268 H2278 0.930 . S
C2269 C2267 1.395 . S
C2269 C2268 1.379 . S
C2269 H2279 0.930 . S
C2270 O2248 1.264 . S
C2270 O2249 1.254 . S
C2271 Eu2207 2.848 . S
C2271 O2246 1.257 . S
C2271 O2251 1.249 . S
C2271 C2264 1.492 . S
H2272 C2255 0.930 . S
H2273 C2256 0.930 . S
H2274 C2257 0.930 . S
H2275 C2258 0.930 . S
H2276 C2265 0.930 . S
H2277 C2267 0.930 . S
H2278 C2268 0.930 . S
H2279 C2269 0.930 . S
Eu2280 N2311 2.657 . S
Eu2280 N2318 2.609 . S
Eu2280 O2324 2.558 . S
Eu2280 O2325 2.612 . S
Eu2280 O2327 2.339 . S
Eu2280 O2328 2.563 1_545 S
Eu2280 O2329 2.419 . S
Eu2280 O2331 2.380 . S
Eu2280 O2332 2.432 . S
Eu2280 C2344 2.848 . S
C2281 C2284 1.429 . S
C2281 C2285 1.411 . S
C2281 N2288 1.377 1_565 S
C2282 C2284 1.420 . S
C2282 C2286 1.423 . S
C2282 C2294 1.392 . S
C2283 C2285 1.420 . S
C2283 C2286 1.351 . S
C2283 H2306 0.931 . S
C2284 C2281 1.429 . S
C2284 C2282 1.420 . S
C2284 N2292 1.362 . S
C2285 C2281 1.411 . S
C2285 C2283 1.420 . S
C2285 C2290 1.395 . S
C2286 C2282 1.423 . S
C2286 C2283 1.351 . S
C2286 H2298 0.930 . S
C2287 C2289 1.400 . S
C2287 C2290 1.386 1_545 S
C2287 H2299 0.930 . S
N2288 C2281 1.377 1_545 S
N2288 C2289 1.321 . S
N2288 Eu2291 2.609 . S
C2289 C2287 1.400 . S
C2289 N2288 1.321 . S
C2289 H2296 0.930 . S
C2290 C2285 1.395 . S
C2290 C2287 1.386 1_565 S
C2290 H2309 0.930 . S
Eu2291 N2288 2.609 . S
Eu2291 N2292 2.657 1_545 S
Eu2291 O2325 2.380 . S
Eu2291 O2326 2.432 . S
Eu2291 O2330 2.558 . S
Eu2291 O2331 2.612 . S
Eu2291 O2333 2.339 . S
Eu2291 O2334 2.563 . S
Eu2291 O2335 2.419 . S
Eu2291 C2355 2.848 . S
N2292 C2284 1.362 . S
N2292 Eu2291 2.657 1_565 S
N2292 C2293 1.334 . S
C2293 N2292 1.334 . S
C2293 C2295 1.413 . S
C2293 H2300 0.929 . S
C2294 C2282 1.392 . S
C2294 C2295 1.367 . S
C2294 H2302 0.930 . S
C2295 C2293 1.413 . S
C2295 C2294 1.367 . S
C2295 H2297 0.930 . S
H2296 C2289 0.930 . S
H2297 C2295 0.930 . S
H2298 C2286 0.930 . S
H2299 C2287 0.930 . S
H2300 C2293 0.929 . S
H2301 C2315 0.930 . S
H2302 C2294 0.930 . S
H2303 C2321 0.930 . S
H2304 C2312 0.929 . S
H2305 C2319 0.930 . S
H2306 C2283 0.931 . S
H2307 C2313 0.930 . S
H2308 C2346 0.930 . S
H2309 C2290 0.930 . S
H2310 C2345 0.931 . S
N2311 Eu2280 2.657 . S
N2311 C2312 1.334 . S
N2311 C2316 1.362 . S
C2312 H2304 0.929 . S
C2312 N2311 1.334 . S
C2312 C2315 1.413 . S
C2313 H2307 0.930 . S
C2313 C2314 1.392 . S
C2313 C2315 1.367 . S
C2314 C2313 1.392 . S
C2314 C2316 1.420 . S
C2314 C2346 1.423 . S
C2315 H2301 0.930 . S
C2315 C2312 1.413 . S
C2315 C2313 1.367 . S
C2316 N2311 1.362 . S
C2316 C2314 1.420 . S
C2316 C2320 1.429 . S
H2317 C2322 0.930 . S
N2318 Eu2280 2.609 . S
N2318 C2320 1.377 . S
N2318 C2321 1.321 . S
C2319 H2305 0.930 . S
C2319 C2321 1.400 . S
C2319 C2322 1.386 . S
C2320 C2316 1.429 . S
C2320 N2318 1.377 . S
C2320 C2323 1.411 . S
C2321 H2303 0.930 . S
C2321 N2318 1.321 . S
C2321 C2319 1.400 . S
C2322 H2317 0.930 . S
C2322 C2319 1.386 . S
C2322 C2323 1.395 . S
C2323 C2320 1.411 . S
C2323 C2322 1.395 . S
C2323 C2345 1.420 . S
O2324 Eu2280 2.558 . S
O2324 C2344 1.257 . S
O2325 Eu2280 2.612 . S
O2325 Eu2291 2.380 . S
O2325 C2336 1.276 1_545 S
O2326 Eu2291 2.432 . S
O2326 C2343 1.264 . S
O2327 Eu2280 2.339 . S
O2327 C2343 1.254 . S
O2328 Eu2280 2.563 1_565 S
O2328 C2336 1.235 . S
O2329 Eu2280 2.419 . S
O2329 C2344 1.249 . S
O2330 Eu2291 2.558 . S
O2330 C2355 1.257 . S
O2331 Eu2280 2.380 . S
O2331 Eu2291 2.612 . S
O2331 C2347 1.276 . S
O2332 Eu2280 2.432 . S
O2332 C2354 1.264 . S
O2333 Eu2291 2.339 . S
O2333 C2354 1.254 . S
O2334 Eu2291 2.563 . S
O2334 C2347 1.235 . S
O2335 Eu2291 2.419 . S
O2335 C2355 1.249 . S
C2336 O2325 1.276 1_565 S
C2336 O2328 1.235 . S
C2337 C2339 1.393 1_545 S
C2337 C2341 1.395 . S
C2337 C2344 1.492 . S
C2338 C2339 1.392 . S
C2338 C2340 1.386 . S
C2339 C2337 1.393 1_565 S
C2339 C2338 1.392 . S
C2339 H2356 0.930 . S
C2340 C2338 1.386 . S
C2340 C2342 1.395 . S
C2340 H2357 0.930 . S
C2341 C2337 1.395 . S
C2341 C2342 1.379 1_545 S
C2341 H2358 0.930 . S
C2342 C2340 1.395 . S
C2342 C2341 1.379 1_565 S
C2342 H2359 0.930 . S
C2343 O2326 1.264 . S
C2343 O2327 1.254 . S
C2344 Eu2280 2.848 . S
C2344 O2324 1.257 . S
C2344 O2329 1.249 . S
C2344 C2337 1.492 . S
C2345 H2310 0.931 . S
C2345 C2323 1.420 . S
C2345 C2346 1.351 . S
C2346 H2308 0.930 . S
C2346 C2314 1.423 . S
C2346 C2345 1.351 . S
C2347 O2331 1.276 . S
C2347 O2334 1.235 . S
C2348 C2349 1.393 . S
C2348 C2352 1.395 . S
C2348 C2355 1.492 . S
C2349 C2348 1.393 . S
C2349 C2350 1.392 . S
C2349 H2360 0.930 . S
C2350 C2349 1.392 . S
C2350 C2351 1.386 . S
C2351 C2350 1.386 . S
C2351 C2353 1.395 . S
C2351 H2361 0.930 . S
C2352 C2348 1.395 . S
C2352 C2353 1.379 . S
C2352 H2362 0.930 . S
C2353 C2351 1.395 . S
C2353 C2352 1.379 . S
C2353 H2363 0.930 . S
C2354 O2332 1.264 . S
C2354 O2333 1.254 . S
C2355 Eu2291 2.848 . S
C2355 O2330 1.257 . S
C2355 O2335 1.249 . S
C2355 C2348 1.492 . S
H2356 C2339 0.930 . S
H2357 C2340 0.930 . S
H2358 C2341 0.930 . S
H2359 C2342 0.930 . S
H2360 C2349 0.930 . S
H2361 C2351 0.930 . S
H2362 C2352 0.930 . S
H2363 C2353 0.930 . S
Eu2364 N2395 2.657 . S
Eu2364 N2402 2.609 . S
Eu2364 O2408 2.558 . S
Eu2364 O2409 2.612 . S
Eu2364 O2411 2.339 . S
Eu2364 O2412 2.563 . S
Eu2364 O2413 2.419 . S
Eu2364 O2415 2.380 . S
Eu2364 O2416 2.432 . S
Eu2364 C2428 2.848 . S
C2365 C2368 1.429 . S
C2365 C2369 1.411 . S
C2365 N2372 1.377 . S
C2366 C2368 1.420 . S
C2366 C2370 1.423 . S
C2366 C2378 1.392 . S
C2367 C2369 1.420 . S
C2367 C2370 1.351 . S
C2367 H2390 0.931 . S
C2368 C2365 1.429 . S
C2368 C2366 1.420 . S
C2368 N2376 1.362 . S
C2369 C2365 1.411 . S
C2369 C2367 1.420 . S
C2369 C2374 1.395 . S
C2370 C2366 1.423 . S
C2370 C2367 1.351 . S
C2370 H2382 0.930 . S
C2371 C2373 1.400 . S
C2371 C2374 1.386 . S
C2371 H2383 0.930 . S
N2372 C2365 1.377 . S
N2372 C2373 1.321 . S
N2372 Eu2375 2.609 . S
C2373 C2371 1.400 . S
C2373 N2372 1.321 . S
C2373 H2380 0.930 . S
C2374 C2369 1.395 . S
C2374 C2371 1.386 . S
C2374 H2393 0.930 . S
Eu2375 N2372 2.609 . S
Eu2375 N2376 2.657 . S
Eu2375 O2409 2.380 . S
Eu2375 O2410 2.432 . S
Eu2375 O2414 2.558 . S
Eu2375 O2415 2.612 . S
Eu2375 O2417 2.339 . S
Eu2375 O2418 2.563 . S
Eu2375 O2419 2.419 . S
Eu2375 C2439 2.848 . S
N2376 C2368 1.362 . S
N2376 Eu2375 2.657 . S
N2376 C2377 1.334 . S
C2377 N2376 1.334 . S
C2377 C2379 1.413 . S
C2377 H2384 0.929 . S
C2378 C2366 1.392 . S
C2378 C2379 1.367 . S
C2378 H2386 0.930 . S
C2379 C2377 1.413 . S
C2379 C2378 1.367 . S
C2379 H2381 0.930 . S
H2380 C2373 0.930 . S
H2381 C2379 0.930 . S
H2382 C2370 0.930 . S
H2383 C2371 0.930 . S
H2384 C2377 0.929 . S
H2385 C2399 0.930 . S
H2386 C2378 0.930 . S
H2387 C2405 0.930 . S
H2388 C2396 0.929 . S
H2389 C2403 0.930 . S
H2390 C2367 0.931 . S
H2391 C2397 0.930 . S
H2392 C2430 0.930 . S
H2393 C2374 0.930 . S
H2394 C2429 0.931 . S
N2395 Eu2364 2.657 . S
N2395 C2396 1.334 . S
N2395 C2400 1.362 . S
C2396 H2388 0.929 . S
C2396 N2395 1.334 . S
C2396 C2399 1.413 . S
C2397 H2391 0.930 . S
C2397 C2398 1.392 . S
C2397 C2399 1.367 . S
C2398 C2397 1.392 . S
C2398 C2400 1.420 . S
C2398 C2430 1.423 . S
C2399 H2385 0.930 . S
C2399 C2396 1.413 . S
C2399 C2397 1.367 . S
C2400 N2395 1.362 . S
C2400 C2398 1.420 . S
C2400 C2404 1.429 . S
H2401 C2406 0.930 . S
N2402 Eu2364 2.609 . S
N2402 C2404 1.377 . S
N2402 C2405 1.321 . S
C2403 H2389 0.930 . S
C2403 C2405 1.400 . S
C2403 C2406 1.386 . S
C2404 C2400 1.429 . S
C2404 N2402 1.377 . S
C2404 C2407 1.411 . S
C2405 H2387 0.930 . S
C2405 N2402 1.321 . S
C2405 C2403 1.400 . S
C2406 H2401 0.930 . S
C2406 C2403 1.386 . S
C2406 C2407 1.395 . S
C2407 C2404 1.411 . S
C2407 C2406 1.395 . S
C2407 C2429 1.420 . S
O2408 Eu2364 2.558 . S
O2408 C2428 1.257 . S
O2409 Eu2364 2.612 . S
O2409 Eu2375 2.380 . S
O2409 C2420 1.276 . S
O2410 Eu2375 2.432 . S
O2410 C2427 1.264 . S
O2411 Eu2364 2.339 . S
O2411 C2427 1.254 . S
O2412 Eu2364 2.563 . S
O2412 C2420 1.235 . S
O2413 Eu2364 2.419 . S
O2413 C2428 1.249 . S
O2414 Eu2375 2.558 . S
O2414 C2439 1.257 . S
O2415 Eu2364 2.380 . S
O2415 Eu2375 2.612 . S
O2415 C2431 1.276 . S
O2416 Eu2364 2.432 . S
O2416 C2438 1.264 . S
O2417 Eu2375 2.339 . S
O2417 C2438 1.254 . S
O2418 Eu2375 2.563 . S
O2418 C2431 1.235 . S
O2419 Eu2375 2.419 . S
O2419 C2439 1.249 . S
C2420 O2409 1.276 . S
C2420 O2412 1.235 . S
C2421 C2423 1.393 . S
C2421 C2425 1.395 . S
C2421 C2428 1.492 . S
C2422 C2423 1.392 . S
C2422 C2424 1.386 . S
C2423 C2421 1.393 . S
C2423 C2422 1.392 . S
C2423 H2440 0.930 . S
C2424 C2422 1.386 . S
C2424 C2426 1.395 . S
C2424 H2441 0.930 . S
C2425 C2421 1.395 . S
C2425 C2426 1.379 . S
C2425 H2442 0.930 . S
C2426 C2424 1.395 . S
C2426 C2425 1.379 . S
C2426 H2443 0.930 . S
C2427 O2410 1.264 . S
C2427 O2411 1.254 . S
C2428 Eu2364 2.848 . S
C2428 O2408 1.257 . S
C2428 O2413 1.249 . S
C2428 C2421 1.492 . S
C2429 H2394 0.931 . S
C2429 C2407 1.420 . S
C2429 C2430 1.351 . S
C2430 H2392 0.930 . S
C2430 C2398 1.423 . S
C2430 C2429 1.351 . S
C2431 O2415 1.276 . S
C2431 O2418 1.235 . S
C2432 C2433 1.393 . S
C2432 C2436 1.395 . S
C2432 C2439 1.492 . S
C2433 C2432 1.393 . S
C2433 C2434 1.392 . S
C2433 H2444 0.930 . S
C2434 C2433 1.392 . S
C2434 C2435 1.386 . S
C2435 C2434 1.386 . S
C2435 C2437 1.395 . S
C2435 H2445 0.930 . S
C2436 C2432 1.395 . S
C2436 C2437 1.379 . S
C2436 H2446 0.930 . S
C2437 C2435 1.395 . S
C2437 C2436 1.379 . S
C2437 H2447 0.930 . S
C2438 O2416 1.264 . S
C2438 O2417 1.254 . S
C2439 Eu2375 2.848 . S
C2439 O2414 1.257 . S
C2439 O2419 1.249 . S
C2439 C2432 1.492 . S
H2440 C2423 0.930 . S
H2441 C2424 0.930 . S
H2442 C2425 0.930 . S
H2443 C2426 0.930 . S
H2444 C2433 0.930 . S
H2445 C2435 0.930 . S
H2446 C2436 0.930 . S
H2447 C2437 0.930 . S
Eu2448 N2479 2.657 . S
Eu2448 N2486 2.609 . S
Eu2448 O2492 2.558 . S
Eu2448 O2493 2.612 . S
Eu2448 O2495 2.339 . S
Eu2448 O2496 2.563 . S
Eu2448 O2497 2.419 . S
Eu2448 O2499 2.380 . S
Eu2448 O2500 2.432 . S
Eu2448 C2512 2.848 . S
C2449 C2452 1.429 . S
C2449 C2453 1.411 . S
C2449 N2456 1.377 . S
C2450 C2452 1.420 . S
C2450 C2454 1.423 . S
C2450 C2462 1.392 . S
C2451 C2453 1.420 . S
C2451 C2454 1.351 . S
C2451 H2474 0.931 . S
C2452 C2449 1.429 . S
C2452 C2450 1.420 . S
C2452 N2460 1.362 . S
C2453 C2449 1.411 . S
C2453 C2451 1.420 . S
C2453 C2458 1.395 . S
C2454 C2450 1.423 . S
C2454 C2451 1.351 . S
C2454 H2466 0.930 . S
C2455 C2457 1.400 . S
C2455 C2458 1.386 . S
C2455 H2467 0.930 . S
N2456 C2449 1.377 . S
N2456 C2457 1.321 . S
N2456 Eu2459 2.609 1_565 S
C2457 C2455 1.400 . S
C2457 N2456 1.321 . S
C2457 H2464 0.930 . S
C2458 C2453 1.395 . S
C2458 C2455 1.386 . S
C2458 H2477 0.930 . S
Eu2459 N2456 2.609 1_545 S
Eu2459 N2460 2.657 1_545 S
Eu2459 O2493 2.380 . S
Eu2459 O2494 2.432 . S
Eu2459 O2498 2.558 1_545 S
Eu2459 O2499 2.612 . S
Eu2459 O2501 2.336 . S
Eu2459 O2502 2.563 . S
Eu2459 O2503 2.419 1_545 S
Eu2459 C2523 2.848 1_545 S
N2460 C2452 1.362 . S
N2460 Eu2459 2.657 1_565 S
N2460 C2461 1.334 . S
C2461 N2460 1.334 . S
C2461 C2463 1.420 . S
C2461 H2468 0.929 . S
C2462 C2450 1.392 . S
C2462 C2463 1.375 . S
C2462 H2470 0.930 1_455 S
C2463 C2461 1.420 . S
C2463 C2462 1.375 . S
C2463 H2465 0.916 1_455 S
H2464 C2457 0.930 . S
H2465 C2463 0.916 1_655 S
H2466 C2454 0.930 . S
H2467 C2455 0.930 . S
H2468 C2461 0.929 . S
H2469 C2483 0.930 . S
H2470 C2462 0.930 1_655 S
H2471 C2489 0.930 . S
H2472 C2480 0.929 . S
H2473 C2487 0.922 1_655 S
H2474 C2451 0.931 . S
H2475 C2481 0.930 . S
H2476 C2514 0.930 . S
H2477 C2458 0.930 . S
H2478 C2513 0.931 . S
N2479 Eu2448 2.657 . S
N2479 C2480 1.334 . S
N2479 C2484 1.362 . S
C2480 H2472 0.929 . S
C2480 N2479 1.334 . S
C2480 C2483 1.413 . S
C2481 H2475 0.930 . S
C2481 C2482 1.392 . S
C2481 C2483 1.367 . S
C2482 C2481 1.392 . S
C2482 C2484 1.420 . S
C2482 C2514 1.423 . S
C2483 H2469 0.930 . S
C2483 C2480 1.413 . S
C2483 C2481 1.367 . S
C2484 N2479 1.362 . S
C2484 C2482 1.420 . S
C2484 C2488 1.429 . S
H2485 C2490 0.930 . S
N2486 Eu2448 2.609 . S
N2486 C2488 1.377 . S
N2486 C2489 1.321 . S
C2487 H2473 0.922 1_455 S
C2487 C2489 1.404 . S
C2487 C2490 1.389 . S
C2488 C2484 1.429 . S
C2488 N2486 1.377 . S
C2488 C2491 1.411 . S
C2489 H2471 0.930 . S
C2489 N2486 1.321 . S
C2489 C2487 1.404 . S
C2490 H2485 0.930 . S
C2490 C2487 1.389 . S
C2490 C2491 1.395 . S
C2491 C2488 1.411 . S
C2491 C2490 1.395 . S
C2491 C2513 1.420 . S
O2492 Eu2448 2.558 . S
O2492 C2512 1.257 . S
O2493 Eu2448 2.612 . S
O2493 Eu2459 2.380 . S
O2493 C2504 1.276 . S
O2494 Eu2459 2.432 . S
O2494 C2511 1.264 . S
O2495 Eu2448 2.339 . S
O2495 C2511 1.254 . S
O2496 Eu2448 2.563 . S
O2496 C2504 1.235 . S
O2497 Eu2448 2.419 . S
O2497 C2512 1.249 . S
O2498 Eu2459 2.558 1_565 S
O2498 C2523 1.257 . S
O2499 Eu2448 2.380 . S
O2499 Eu2459 2.612 . S
O2499 C2515 1.276 . S
O2500 Eu2448 2.432 . S
O2500 C2522 1.264 . S
O2501 Eu2459 2.336 . S
O2501 C2522 1.266 . S
O2502 Eu2459 2.563 . S
O2502 C2515 1.235 . S
O2503 Eu2459 2.419 1_565 S
O2503 C2523 1.249 . S
C2504 O2493 1.276 . S
C2504 O2496 1.235 . S
C2505 C2507 1.393 . S
C2505 C2509 1.395 . S
C2505 C2512 1.492 . S
C2506 C2507 1.392 . S
C2506 C2508 1.386 . S
C2507 C2505 1.393 . S
C2507 C2506 1.392 . S
C2507 H2524 0.930 . S
C2508 C2506 1.386 . S
C2508 C2510 1.395 . S
C2508 H2525 0.930 . S
C2509 C2505 1.395 . S
C2509 C2510 1.379 . S
C2509 H2526 0.930 . S
C2510 C2508 1.395 . S
C2510 C2509 1.379 . S
C2510 H2527 0.930 . S
C2511 O2494 1.264 . S
C2511 O2495 1.254 . S
C2512 Eu2448 2.848 . S
C2512 O2492 1.257 . S
C2512 O2497 1.249 . S
C2512 C2505 1.492 . S
C2513 H2478 0.931 . S
C2513 C2491 1.420 . S
C2513 C2514 1.351 . S
C2514 H2476 0.930 . S
C2514 C2482 1.423 . S
C2514 C2513 1.351 . S
C2515 O2499 1.276 . S
C2515 O2502 1.235 . S
C2516 C2517 1.393 . S
C2516 C2520 1.395 . S
C2516 C2523 1.492 . S
C2517 C2516 1.393 . S
C2517 C2518 1.392 . S
C2517 H2528 0.930 . S
C2518 C2517 1.392 . S
C2518 C2519 1.386 . S
C2519 C2518 1.386 . S
C2519 C2521 1.395 . S
C2519 H2529 0.930 . S
C2520 C2516 1.395 . S
C2520 C2521 1.379 . S
C2520 H2530 0.930 . S
C2521 C2519 1.395 . S
C2521 C2520 1.379 . S
C2521 H2531 0.930 . S
C2522 O2500 1.264 . S
C2522 O2501 1.266 . S
C2523 Eu2459 2.848 1_565 S
C2523 O2498 1.257 . S
C2523 O2503 1.249 . S
C2523 C2516 1.492 . S
H2524 C2507 0.930 . S
H2525 C2508 0.930 . S
H2526 C2509 0.930 . S
H2527 C2510 0.930 . S
H2528 C2517 0.930 . S
H2529 C2519 0.930 . S
H2530 C2520 0.930 . S
H2531 C2521 0.930 . S
Eu2532 N2563 2.657 . S
Eu2532 N2570 2.609 . S
Eu2532 O2576 2.558 . S
Eu2532 O2577 2.612 . S
Eu2532 O2579 2.339 . S
Eu2532 O2580 2.563 . S
Eu2532 O2581 2.419 . S
Eu2532 O2583 2.380 . S
Eu2532 O2584 2.432 . S
Eu2532 C2596 2.848 . S
C2533 C2536 1.429 . S
C2533 C2537 1.411 . S
C2533 N2540 1.377 . S
C2534 C2536 1.420 . S
C2534 C2538 1.423 . S
C2534 C2546 1.392 . S
C2535 C2537 1.420 . S
C2535 C2538 1.351 . S
C2535 H2558 0.931 . S
C2536 C2533 1.429 . S
C2536 C2534 1.420 . S
C2536 N2544 1.362 . S
C2537 C2533 1.411 . S
C2537 C2535 1.420 . S
C2537 C2542 1.395 . S
C2538 C2534 1.423 . S
C2538 C2535 1.351 . S
C2538 H2550 0.930 . S
C2539 C2541 1.400 . S
C2539 C2542 1.386 . S
C2539 H2551 0.930 . S
N2540 C2533 1.377 . S
N2540 C2541 1.321 . S
N2540 Eu2543 2.609 . S
C2541 C2539 1.400 . S
C2541 N2540 1.321 . S
C2541 H2548 0.930 . S
C2542 C2537 1.395 . S
C2542 C2539 1.386 . S
C2542 H2561 0.930 . S
Eu2543 N2540 2.609 . S
Eu2543 N2544 2.657 . S
Eu2543 O2577 2.380 . S
Eu2543 O2578 2.432 . S
Eu2543 O2582 2.558 . S
Eu2543 O2583 2.612 . S
Eu2543 O2585 2.339 . S
Eu2543 O2586 2.563 . S
Eu2543 O2587 2.419 . S
Eu2543 C2607 2.848 . S
N2544 C2536 1.362 . S
N2544 Eu2543 2.657 . S
N2544 C2545 1.334 . S
C2545 N2544 1.334 . S
C2545 C2547 1.413 . S
C2545 H2552 0.929 . S
C2546 C2534 1.392 . S
C2546 C2547 1.367 . S
C2546 H2554 0.930 . S
C2547 C2545 1.413 . S
C2547 C2546 1.367 . S
C2547 H2549 0.930 . S
H2548 C2541 0.930 . S
H2549 C2547 0.930 . S
H2550 C2538 0.930 . S
H2551 C2539 0.930 . S
H2552 C2545 0.929 . S
H2553 C2567 0.930 . S
H2554 C2546 0.930 . S
H2555 C2573 0.930 . S
H2556 C2564 0.929 . S
H2557 C2571 0.930 . S
H2558 C2535 0.931 . S
H2559 C2565 0.930 . S
H2560 C2598 0.930 . S
H2561 C2542 0.930 . S
H2562 C2597 0.931 . S
N2563 Eu2532 2.657 . S
N2563 C2564 1.334 . S
N2563 C2568 1.362 . S
C2564 H2556 0.929 . S
C2564 N2563 1.334 . S
C2564 C2567 1.413 . S
C2565 H2559 0.930 . S
C2565 C2566 1.392 . S
C2565 C2567 1.367 . S
C2566 C2565 1.392 . S
C2566 C2568 1.420 . S
C2566 C2598 1.423 . S
C2567 H2553 0.930 . S
C2567 C2564 1.413 . S
C2567 C2565 1.367 . S
C2568 N2563 1.362 . S
C2568 C2566 1.420 . S
C2568 C2572 1.429 . S
H2569 C2574 0.930 . S
N2570 Eu2532 2.609 . S
N2570 C2572 1.377 . S
N2570 C2573 1.321 . S
C2571 H2557 0.930 . S
C2571 C2573 1.400 . S
C2571 C2574 1.386 . S
C2572 C2568 1.429 . S
C2572 N2570 1.377 . S
C2572 C2575 1.411 . S
C2573 H2555 0.930 . S
C2573 N2570 1.321 . S
C2573 C2571 1.400 . S
C2574 H2569 0.930 . S
C2574 C2571 1.386 . S
C2574 C2575 1.395 . S
C2575 C2572 1.411 . S
C2575 C2574 1.395 . S
C2575 C2597 1.420 . S
O2576 Eu2532 2.558 . S
O2576 C2596 1.257 . S
O2577 Eu2532 2.612 . S
O2577 Eu2543 2.380 . S
O2577 C2588 1.276 . S
O2578 Eu2543 2.432 . S
O2578 C2595 1.264 . S
O2579 Eu2532 2.339 . S
O2579 C2595 1.254 . S
O2580 Eu2532 2.563 . S
O2580 C2588 1.235 . S
O2581 Eu2532 2.419 . S
O2581 C2596 1.249 . S
O2582 Eu2543 2.558 . S
O2582 C2607 1.257 . S
O2583 Eu2532 2.380 . S
O2583 Eu2543 2.612 . S
O2583 C2599 1.276 . S
O2584 Eu2532 2.432 . S
O2584 C2606 1.264 . S
O2585 Eu2543 2.339 . S
O2585 C2606 1.254 . S
O2586 Eu2543 2.563 . S
O2586 C2599 1.235 . S
O2587 Eu2543 2.419 . S
O2587 C2607 1.249 . S
C2588 O2577 1.276 . S
C2588 O2580 1.235 . S
C2589 C2591 1.393 . S
C2589 C2593 1.395 . S
C2589 C2596 1.492 . S
C2590 C2591 1.392 . S
C2590 C2592 1.386 . S
C2591 C2589 1.393 . S
C2591 C2590 1.392 . S
C2591 H2608 0.930 . S
C2592 C2590 1.386 . S
C2592 C2594 1.395 . S
C2592 H2609 0.930 . S
C2593 C2589 1.395 . S
C2593 C2594 1.379 . S
C2593 H2610 0.930 . S
C2594 C2592 1.395 . S
C2594 C2593 1.379 . S
C2594 H2611 0.930 . S
C2595 O2578 1.264 . S
C2595 O2579 1.254 . S
C2596 Eu2532 2.848 . S
C2596 O2576 1.257 . S
C2596 O2581 1.249 . S
C2596 C2589 1.492 . S
C2597 H2562 0.931 . S
C2597 C2575 1.420 . S
C2597 C2598 1.351 . S
C2598 H2560 0.930 . S
C2598 C2566 1.423 . S
C2598 C2597 1.351 . S
C2599 O2583 1.276 . S
C2599 O2586 1.235 . S
C2600 C2601 1.393 . S
C2600 C2604 1.395 . S
C2600 C2607 1.492 . S
C2601 C2600 1.393 . S
C2601 C2602 1.392 . S
C2601 H2612 0.930 . S
C2602 C2601 1.392 . S
C2602 C2603 1.386 . S
C2603 C2602 1.386 . S
C2603 C2605 1.395 . S
C2603 H2613 0.930 . S
C2604 C2600 1.395 . S
C2604 C2605 1.379 . S
C2604 H2614 0.930 . S
C2605 C2603 1.395 . S
C2605 C2604 1.379 . S
C2605 H2615 0.930 . S
C2606 O2584 1.264 . S
C2606 O2585 1.254 . S
C2607 Eu2543 2.848 . S
C2607 O2582 1.257 . S
C2607 O2587 1.249 . S
C2607 C2600 1.492 . S
H2608 C2591 0.930 . S
H2609 C2592 0.930 . S
H2610 C2593 0.930 . S
H2611 C2594 0.930 . S
H2612 C2601 0.930 . S
H2613 C2603 0.930 . S
H2614 C2604 0.930 . S
H2615 C2605 0.930 . S
Eu2616 N2647 2.657 . S
Eu2616 N2654 2.609 . S
Eu2616 O2660 2.558 1_545 S
Eu2616 O2661 2.612 . S
Eu2616 O2663 2.339 . S
Eu2616 O2664 2.563 . S
Eu2616 O2665 2.419 . S
Eu2616 O2667 2.380 . S
Eu2616 O2668 2.432 1_545 S
Eu2616 C2680 2.848 . S
C2617 C2620 1.429 . S
C2617 C2621 1.411 . S
C2617 N2624 1.377 . S
C2618 C2620 1.420 . S
C2618 C2622 1.423 . S
C2618 C2630 1.392 1_545 S
C2619 C2621 1.420 . S
C2619 C2622 1.351 . S
C2619 H2642 0.931 . S
C2620 C2617 1.429 . S
C2620 C2618 1.420 . S
C2620 N2628 1.362 . S
C2621 C2617 1.411 . S
C2621 C2619 1.420 . S
C2621 C2626 1.395 . S
C2622 C2618 1.423 . S
C2622 C2619 1.351 . S
C2622 H2634 0.930 . S
C2623 C2625 1.400 . S
C2623 C2626 1.386 . S
C2623 H2635 0.930 . S
N2624 C2617 1.377 . S
N2624 C2625 1.321 . S
N2624 Eu2627 2.609 . S
C2625 C2623 1.400 . S
C2625 N2624 1.321 . S
C2625 H2632 0.930 . S
C2626 C2621 1.395 . S
C2626 C2623 1.386 . S
C2626 H2645 0.930 . S
Eu2627 N2624 2.609 . S
Eu2627 N2628 2.657 . S
Eu2627 O2661 2.380 1_556 S
Eu2627 O2662 2.432 1_556 S
Eu2627 O2666 2.558 . S
Eu2627 O2667 2.612 1_556 S
Eu2627 O2669 2.339 . S
Eu2627 O2670 2.563 . S
Eu2627 O2671 2.419 . S
Eu2627 C2691 2.848 . S
N2628 C2620 1.362 . S
N2628 Eu2627 2.657 . S
N2628 C2629 1.334 1_545 S
C2629 N2628 1.334 1_565 S
C2629 C2631 1.413 . S
C2629 H2636 0.929 . S
C2630 C2618 1.392 1_565 S
C2630 C2631 1.367 . S
C2630 H2638 0.930 . S
C2631 C2629 1.413 . S
C2631 C2630 1.367 . S
C2631 H2633 0.930 . S
H2632 C2625 0.930 . S
H2633 C2631 0.930 . S
H2634 C2622 0.930 . S
H2635 C2623 0.930 . S
H2636 C2629 0.929 . S
H2637 C2651 0.930 . S
H2638 C2630 0.930 . S
H2639 C2657 0.930 . S
H2640 C2648 0.929 . S
H2641 C2655 0.930 . S
H2642 C2619 0.931 . S
H2643 C2649 0.930 . S
H2644 C2682 0.930 . S
H2645 C2626 0.930 . S
H2646 C2681 0.931 . S
N2647 Eu2616 2.657 . S
N2647 C2648 1.334 . S
N2647 C2652 1.362 . S
C2648 H2640 0.929 . S
C2648 N2647 1.334 . S
C2648 C2651 1.413 . S
C2649 H2643 0.930 . S
C2649 C2650 1.392 . S
C2649 C2651 1.367 . S
C2650 C2649 1.392 . S
C2650 C2652 1.420 . S
C2650 C2682 1.423 . S
C2651 H2637 0.930 . S
C2651 C2648 1.413 . S
C2651 C2649 1.367 . S
C2652 N2647 1.362 . S
C2652 C2650 1.420 . S
C2652 C2656 1.429 . S
H2653 C2658 0.930 . S
N2654 Eu2616 2.609 . S
N2654 C2656 1.377 . S
N2654 C2657 1.321 1_545 S
C2655 H2641 0.930 . S
C2655 C2657 1.400 . S
C2655 C2658 1.386 . S
C2656 C2652 1.429 . S
C2656 N2654 1.377 . S
C2656 C2659 1.411 . S
C2657 H2639 0.930 . S
C2657 N2654 1.321 1_565 S
C2657 C2655 1.400 . S
C2658 H2653 0.930 . S
C2658 C2655 1.386 . S
C2658 C2659 1.395 1_565 S
C2659 C2656 1.411 . S
C2659 C2658 1.395 1_545 S
C2659 C2681 1.420 . S
O2660 Eu2616 2.558 1_565 S
O2660 C2680 1.257 1_565 S
O2661 Eu2616 2.612 . S
O2661 Eu2627 2.380 1_554 S
O2661 C2672 1.276 . S
O2662 Eu2627 2.432 1_554 S
O2662 C2679 1.264 . S
O2663 Eu2616 2.339 . S
O2663 C2679 1.254 . S
O2664 Eu2616 2.563 . S
O2664 C2672 1.235 . S
O2665 Eu2616 2.419 . S
O2665 C2680 1.249 . S
O2666 Eu2627 2.558 . S
O2666 C2691 1.257 . S
O2667 Eu2616 2.380 . S
O2667 Eu2627 2.612 1_554 S
O2667 C2683 1.276 . S
O2668 Eu2616 2.432 1_565 S
O2668 C2690 1.264 1_554 S
O2669 Eu2627 2.339 . S
O2669 C2690 1.254 1_545 S
O2670 Eu2627 2.563 . S
O2670 C2683 1.235 1_556 S
O2671 Eu2627 2.419 . S
O2671 C2691 1.249 . S
C2672 O2661 1.276 . S
C2672 O2664 1.235 . S
C2673 C2675 1.393 . S
C2673 C2677 1.395 1_545 S
C2673 C2680 1.492 . S
C2674 C2675 1.392 . S
C2674 C2676 1.386 1_545 S
C2675 C2673 1.393 . S
C2675 C2674 1.392 . S
C2675 H2692 0.930 . S
C2676 C2674 1.386 1_565 S
C2676 C2678 1.395 . S
C2676 H2693 0.930 . S
C2677 C2673 1.395 1_565 S
C2677 C2678 1.379 . S
C2677 H2694 0.930 . S
C2678 C2676 1.395 . S
C2678 C2677 1.379 . S
C2678 H2695 0.930 . S
C2679 O2662 1.264 . S
C2679 O2663 1.254 . S
C2680 Eu2616 2.848 . S
C2680 O2660 1.257 1_545 S
C2680 O2665 1.249 . S
C2680 C2673 1.492 . S
C2681 H2646 0.931 . S
C2681 C2659 1.420 . S
C2681 C2682 1.351 . S
C2682 H2644 0.930 . S
C2682 C2650 1.423 . S
C2682 C2681 1.351 . S
C2683 O2667 1.276 . S
C2683 O2670 1.235 1_554 S
C2684 C2685 1.393 . S
C2684 C2688 1.395 . S
C2684 C2691 1.492 . S
C2685 C2684 1.393 . S
C2685 C2686 1.392 . S
C2685 H2696 0.930 . S
C2686 C2685 1.392 . S
C2686 C2687 1.386 . S
C2687 C2686 1.386 . S
C2687 C2689 1.395 . S
C2687 H2697 0.930 . S
C2688 C2684 1.395 . S
C2688 C2689 1.379 . S
C2688 H2698 0.930 . S
C2689 C2687 1.395 . S
C2689 C2688 1.379 . S
C2689 H2699 0.930 . S
C2690 O2668 1.264 1_556 S
C2690 O2669 1.254 1_565 S
C2691 Eu2627 2.848 . S
C2691 O2666 1.257 . S
C2691 O2671 1.249 . S
C2691 C2684 1.492 . S
H2692 C2675 0.930 . S
H2693 C2676 0.930 . S
H2694 C2677 0.930 . S
H2695 C2678 0.930 . S
H2696 C2685 0.930 . S
H2697 C2687 0.930 . S
H2698 C2688 0.930 . S
H2699 C2689 0.930 . S
Eu2700 N2731 2.657 . S
Eu2700 N2738 2.609 . S
Eu2700 O2744 2.558 . S
Eu2700 O2745 2.612 . S
Eu2700 O2747 2.339 . S
Eu2700 O2748 2.563 . S
Eu2700 O2749 2.419 . S
Eu2700 O2751 2.380 . S
Eu2700 O2752 2.432 . S
Eu2700 C2764 2.848 . S
C2701 C2704 1.429 . S
C2701 C2705 1.411 . S
C2701 N2708 1.377 . S
C2702 C2704 1.420 . S
C2702 C2706 1.423 . S
C2702 C2714 1.392 . S
C2703 C2705 1.420 . S
C2703 C2706 1.351 . S
C2703 H2726 0.931 . S
C2704 C2701 1.429 . S
C2704 C2702 1.420 . S
C2704 N2712 1.362 . S
C2705 C2701 1.411 . S
C2705 C2703 1.420 . S
C2705 C2710 1.395 . S
C2706 C2702 1.423 . S
C2706 C2703 1.351 . S
C2706 H2718 0.930 . S
C2707 C2709 1.400 . S
C2707 C2710 1.386 . S
C2707 H2719 0.930 . S
N2708 C2701 1.377 . S
N2708 C2709 1.321 . S
N2708 Eu2711 2.609 . S
C2709 C2707 1.400 . S
C2709 N2708 1.321 . S
C2709 H2716 0.930 . S
C2710 C2705 1.395 . S
C2710 C2707 1.386 . S
C2710 H2729 0.930 . S
Eu2711 N2708 2.609 . S
Eu2711 N2712 2.657 . S
Eu2711 O2745 2.380 . S
Eu2711 O2746 2.432 . S
Eu2711 O2750 2.558 . S
Eu2711 O2751 2.612 . S
Eu2711 O2753 2.339 . S
Eu2711 O2754 2.563 . S
Eu2711 O2755 2.419 . S
Eu2711 C2775 2.848 . S
N2712 C2704 1.362 . S
N2712 Eu2711 2.657 . S
N2712 C2713 1.334 . S
C2713 N2712 1.334 . S
C2713 C2715 1.413 . S
C2713 H2720 0.929 . S
C2714 C2702 1.392 . S
C2714 C2715 1.367 . S
C2714 H2722 0.930 . S
C2715 C2713 1.413 . S
C2715 C2714 1.367 . S
C2715 H2717 0.930 . S
H2716 C2709 0.930 . S
H2717 C2715 0.930 . S
H2718 C2706 0.930 . S
H2719 C2707 0.930 . S
H2720 C2713 0.929 . S
H2721 C2735 0.930 . S
H2722 C2714 0.930 . S
H2723 C2741 0.930 . S
H2724 C2732 0.929 . S
H2725 C2739 0.930 . S
H2726 C2703 0.931 . S
H2727 C2733 0.930 . S
H2728 C2766 0.930 . S
H2729 C2710 0.930 . S
H2730 C2765 0.931 . S
N2731 Eu2700 2.657 . S
N2731 C2732 1.334 . S
N2731 C2736 1.362 . S
C2732 H2724 0.929 . S
C2732 N2731 1.334 . S
C2732 C2735 1.413 . S
C2733 H2727 0.930 . S
C2733 C2734 1.392 . S
C2733 C2735 1.367 . S
C2734 C2733 1.392 . S
C2734 C2736 1.420 . S
C2734 C2766 1.423 . S
C2735 H2721 0.930 . S
C2735 C2732 1.413 . S
C2735 C2733 1.367 . S
C2736 N2731 1.362 . S
C2736 C2734 1.420 . S
C2736 C2740 1.429 . S
H2737 C2742 0.930 . S
N2738 Eu2700 2.609 . S
N2738 C2740 1.377 . S
N2738 C2741 1.321 . S
C2739 H2725 0.930 . S
C2739 C2741 1.400 . S
C2739 C2742 1.386 . S
C2740 C2736 1.429 . S
C2740 N2738 1.377 . S
C2740 C2743 1.411 . S
C2741 H2723 0.930 . S
C2741 N2738 1.321 . S
C2741 C2739 1.400 . S
C2742 H2737 0.930 . S
C2742 C2739 1.386 . S
C2742 C2743 1.395 . S
C2743 C2740 1.411 . S
C2743 C2742 1.395 . S
C2743 C2765 1.420 . S
O2744 Eu2700 2.558 . S
O2744 C2764 1.257 . S
O2745 Eu2700 2.612 . S
O2745 Eu2711 2.380 . S
O2745 C2756 1.276 . S
O2746 Eu2711 2.432 . S
O2746 C2763 1.264 . S
O2747 Eu2700 2.339 . S
O2747 C2763 1.254 . S
O2748 Eu2700 2.563 . S
O2748 C2756 1.235 . S
O2749 Eu2700 2.419 . S
O2749 C2764 1.249 . S
O2750 Eu2711 2.558 . S
O2750 C2775 1.257 . S
O2751 Eu2700 2.380 . S
O2751 Eu2711 2.612 . S
O2751 C2767 1.276 . S
O2752 Eu2700 2.432 . S
O2752 C2774 1.264 . S
O2753 Eu2711 2.339 . S
O2753 C2774 1.254 . S
O2754 Eu2711 2.563 . S
O2754 C2767 1.235 . S
O2755 Eu2711 2.419 . S
O2755 C2775 1.249 . S
C2756 O2745 1.276 . S
C2756 O2748 1.235 . S
C2757 C2759 1.393 . S
C2757 C2761 1.395 . S
C2757 C2764 1.492 . S
C2758 C2759 1.392 . S
C2758 C2760 1.386 . S
C2759 C2757 1.393 . S
C2759 C2758 1.392 . S
C2759 H2776 0.930 . S
C2760 C2758 1.386 . S
C2760 C2762 1.395 . S
C2760 H2777 0.930 . S
C2761 C2757 1.395 . S
C2761 C2762 1.379 . S
C2761 H2778 0.930 . S
C2762 C2760 1.395 . S
C2762 C2761 1.379 . S
C2762 H2779 0.930 . S
C2763 O2746 1.264 . S
C2763 O2747 1.254 . S
C2764 Eu2700 2.848 . S
C2764 O2744 1.257 . S
C2764 O2749 1.249 . S
C2764 C2757 1.492 . S
C2765 H2730 0.931 . S
C2765 C2743 1.420 . S
C2765 C2766 1.351 . S
C2766 H2728 0.930 . S
C2766 C2734 1.423 . S
C2766 C2765 1.351 . S
C2767 O2751 1.276 . S
C2767 O2754 1.235 . S
C2768 C2769 1.393 . S
C2768 C2772 1.395 . S
C2768 C2775 1.492 . S
C2769 C2768 1.393 . S
C2769 C2770 1.392 . S
C2769 H2780 0.930 . S
C2770 C2769 1.392 . S
C2770 C2771 1.386 . S
C2771 C2770 1.386 . S
C2771 C2773 1.395 . S
C2771 H2781 0.930 . S
C2772 C2768 1.395 . S
C2772 C2773 1.379 . S
C2772 H2782 0.930 . S
C2773 C2771 1.395 . S
C2773 C2772 1.379 . S
C2773 H2783 0.930 . S
C2774 O2752 1.264 . S
C2774 O2753 1.254 . S
C2775 Eu2711 2.848 . S
C2775 O2750 1.257 . S
C2775 O2755 1.249 . S
C2775 C2768 1.492 . S
H2776 C2759 0.930 . S
H2777 C2760 0.930 . S
H2778 C2761 0.930 . S
H2779 C2762 0.930 . S
H2780 C2769 0.930 . S
H2781 C2771 0.930 . S
H2782 C2772 0.930 . S
H2783 C2773 0.930 . S
Eu2784 N2815 2.657 . S
Eu2784 N2822 2.609 . S
Eu2784 O2828 2.558 . S
Eu2784 O2829 2.612 1_554 S
Eu2784 O2831 2.339 . S
Eu2784 O2832 2.563 1_554 S
Eu2784 O2833 2.419 . S
Eu2784 O2835 2.380 . S
Eu2784 O2836 2.432 . S
Eu2784 C2848 2.848 . S
C2785 C2788 1.429 . S
C2785 C2789 1.411 . S
C2785 N2792 1.377 . S
C2786 C2788 1.420 . S
C2786 C2790 1.423 . S
C2786 C2798 1.392 . S
C2787 C2789 1.420 . S
C2787 C2790 1.351 . S
C2787 H2810 0.931 . S
C2788 C2785 1.429 . S
C2788 C2786 1.420 . S
C2788 N2796 1.362 . S
C2789 C2785 1.411 . S
C2789 C2787 1.420 . S
C2789 C2794 1.395 . S
C2790 C2786 1.423 . S
C2790 C2787 1.351 . S
C2790 H2802 0.930 . S
C2791 C2793 1.400 . S
C2791 C2794 1.386 . S
C2791 H2803 0.930 . S
N2792 C2785 1.377 . S
N2792 C2793 1.321 . S
N2792 Eu2795 2.609 1_556 S
C2793 C2791 1.400 . S
C2793 N2792 1.321 . S
C2793 H2800 0.930 . S
C2794 C2789 1.395 . S
C2794 C2791 1.386 . S
C2794 H2813 0.930 . S
Eu2795 N2792 2.609 1_554 S
Eu2795 N2796 2.657 1_554 S
Eu2795 O2829 2.380 1_554 S
Eu2795 O2830 2.432 . S
Eu2795 O2834 2.558 . S
Eu2795 O2835 2.612 . S
Eu2795 O2837 2.339 . S
Eu2795 O2838 2.563 . S
Eu2795 O2839 2.419 . S
Eu2795 C2859 2.848 . S
N2796 C2788 1.362 . S
N2796 Eu2795 2.657 1_556 S
N2796 C2797 1.334 . S
C2797 N2796 1.334 . S
C2797 C2799 1.413 . S
C2797 H2804 0.929 . S
C2798 C2786 1.392 . S
C2798 C2799 1.367 . S
C2798 H2806 0.930 . S
C2799 C2797 1.413 . S
C2799 C2798 1.367 . S
C2799 H2801 0.930 . S
H2800 C2793 0.930 . S
H2801 C2799 0.930 . S
H2802 C2790 0.930 . S
H2803 C2791 0.930 . S
H2804 C2797 0.929 . S
H2805 C2819 0.930 . S
H2806 C2798 0.930 . S
H2807 C2825 0.930 . S
H2808 C2816 0.929 . S
H2809 C2823 0.930 . S
H2810 C2787 0.931 . S
H2811 C2817 0.930 . S
H2812 C2850 0.930 . S
H2813 C2794 0.930 . S
H2814 C2849 0.931 . S
N2815 Eu2784 2.657 . S
N2815 C2816 1.334 . S
N2815 C2820 1.362 . S
C2816 H2808 0.929 . S
C2816 N2815 1.334 . S
C2816 C2819 1.413 . S
C2817 H2811 0.930 . S
C2817 C2818 1.392 . S
C2817 C2819 1.367 . S
C2818 C2817 1.392 . S
C2818 C2820 1.420 . S
C2818 C2850 1.423 . S
C2819 H2805 0.930 . S
C2819 C2816 1.413 . S
C2819 C2817 1.367 . S
C2820 N2815 1.362 . S
C2820 C2818 1.420 . S
C2820 C2824 1.429 . S
H2821 C2826 0.930 . S
N2822 Eu2784 2.609 . S
N2822 C2824 1.377 . S
N2822 C2825 1.321 . S
C2823 H2809 0.930 . S
C2823 C2825 1.400 . S
C2823 C2826 1.386 . S
C2824 C2820 1.429 . S
C2824 N2822 1.377 . S
C2824 C2827 1.411 . S
C2825 H2807 0.930 . S
C2825 N2822 1.321 . S
C2825 C2823 1.400 . S
C2826 H2821 0.930 . S
C2826 C2823 1.386 . S
C2826 C2827 1.395 . S
C2827 C2824 1.411 . S
C2827 C2826 1.395 . S
C2827 C2849 1.420 . S
O2828 Eu2784 2.558 . S
O2828 C2848 1.257 . S
O2829 Eu2784 2.612 1_556 S
O2829 Eu2795 2.380 1_556 S
O2829 C2840 1.276 . S
O2830 Eu2795 2.432 . S
O2830 C2847 1.264 . S
O2831 Eu2784 2.339 . S
O2831 C2847 1.254 . S
O2832 Eu2784 2.563 1_556 S
O2832 C2840 1.235 . S
O2833 Eu2784 2.419 . S
O2833 C2848 1.249 . S
O2834 Eu2795 2.558 . S
O2834 C2859 1.257 . S
O2835 Eu2784 2.380 . S
O2835 Eu2795 2.612 . S
O2835 C2851 1.276 . S
O2836 Eu2784 2.432 . S
O2836 C2858 1.264 . S
O2837 Eu2795 2.339 . S
O2837 C2858 1.254 . S
O2838 Eu2795 2.563 . S
O2838 C2851 1.235 . S
O2839 Eu2795 2.419 . S
O2839 C2859 1.249 . S
C2840 O2829 1.276 . S
C2840 O2832 1.235 . S
C2841 C2843 1.393 . S
C2841 C2845 1.395 . S
C2841 C2848 1.492 . S
C2842 C2843 1.392 1_556 S
C2842 C2844 1.386 1_556 S
C2843 C2841 1.393 . S
C2843 C2842 1.392 1_554 S
C2843 H2860 0.930 1_554 S
C2844 C2842 1.386 1_554 S
C2844 C2846 1.395 . S
C2844 H2861 0.929 1_554 S
C2845 C2841 1.395 . S
C2845 C2846 1.379 . S
C2845 H2862 0.930 . S
C2846 C2844 1.395 . S
C2846 C2845 1.379 . S
C2846 H2863 0.930 . S
C2847 O2830 1.264 . S
C2847 O2831 1.254 . S
C2848 Eu2784 2.848 . S
C2848 O2828 1.257 . S
C2848 O2833 1.249 . S
C2848 C2841 1.492 . S
C2849 H2814 0.931 . S
C2849 C2827 1.420 . S
C2849 C2850 1.351 . S
C2850 H2812 0.930 . S
C2850 C2818 1.423 . S
C2850 C2849 1.351 . S
C2851 O2835 1.276 . S
C2851 O2838 1.235 . S
C2852 C2853 1.393 . S
C2852 C2856 1.395 . S
C2852 C2859 1.492 . S
C2853 C2852 1.393 . S
C2853 C2854 1.392 . S
C2853 H2864 0.930 . S
C2854 C2853 1.392 . S
C2854 C2855 1.386 . S
C2855 C2854 1.386 . S
C2855 C2857 1.395 . S
C2855 H2865 0.930 . S
C2856 C2852 1.395 . S
C2856 C2857 1.379 . S
C2856 H2866 0.930 . S
C2857 C2855 1.395 . S
C2857 C2856 1.379 . S
C2857 H2867 0.930 . S
C2858 O2836 1.264 . S
C2858 O2837 1.254 . S
C2859 Eu2795 2.848 . S
C2859 O2834 1.257 . S
C2859 O2839 1.249 . S
C2859 C2852 1.492 . S
H2860 C2843 0.930 1_556 S
H2861 C2844 0.929 1_556 S
H2862 C2845 0.930 . S
H2863 C2846 0.930 . S
H2864 C2853 0.930 . S
H2865 C2855 0.930 . S
H2866 C2856 0.930 . S
H2867 C2857 0.930 . S
Eu2868 N2899 2.657 . S
Eu2868 N2906 2.609 . S
Eu2868 O2912 2.558 . S
Eu2868 O2913 2.612 . S
Eu2868 O2915 2.339 . S
Eu2868 O2916 2.563 . S
Eu2868 O2917 2.419 . S
Eu2868 O2919 2.380 . S
Eu2868 O2920 2.432 . S
Eu2868 C2932 2.848 . S
C2869 C2872 1.429 . S
C2869 C2873 1.411 . S
C2869 N2876 1.377 . S
C2870 C2872 1.420 . S
C2870 C2874 1.423 . S
C2870 C2882 1.392 . S
C2871 C2873 1.420 . S
C2871 C2874 1.351 . S
C2871 H2894 0.931 . S
C2872 C2869 1.429 . S
C2872 C2870 1.420 . S
C2872 N2880 1.362 . S
C2873 C2869 1.411 . S
C2873 C2871 1.420 . S
C2873 C2878 1.395 . S
C2874 C2870 1.423 . S
C2874 C2871 1.351 . S
C2874 H2886 0.930 . S
C2875 C2877 1.400 . S
C2875 C2878 1.386 . S
C2875 H2887 0.930 . S
N2876 C2869 1.377 . S
N2876 C2877 1.321 . S
N2876 Eu2879 2.609 . S
C2877 C2875 1.400 . S
C2877 N2876 1.321 . S
C2877 H2884 0.930 . S
C2878 C2873 1.395 . S
C2878 C2875 1.386 . S
C2878 H2897 0.930 . S
Eu2879 N2876 2.609 . S
Eu2879 N2880 2.657 . S
Eu2879 O2913 2.380 . S
Eu2879 O2914 2.432 . S
Eu2879 O2918 2.558 . S
Eu2879 O2919 2.612 . S
Eu2879 O2921 2.339 . S
Eu2879 O2922 2.563 . S
Eu2879 O2923 2.419 . S
Eu2879 C2943 2.848 . S
N2880 C2872 1.362 . S
N2880 Eu2879 2.657 . S
N2880 C2881 1.334 . S
C2881 N2880 1.334 . S
C2881 C2883 1.413 . S
C2881 H2888 0.929 . S
C2882 C2870 1.392 . S
C2882 C2883 1.367 . S
C2882 H2890 0.930 . S
C2883 C2881 1.413 . S
C2883 C2882 1.367 . S
C2883 H2885 0.930 . S
H2884 C2877 0.930 . S
H2885 C2883 0.930 . S
H2886 C2874 0.930 . S
H2887 C2875 0.930 . S
H2888 C2881 0.929 . S
H2889 C2903 0.930 . S
H2890 C2882 0.930 . S
H2891 C2909 0.930 . S
H2892 C2900 0.929 . S
H2893 C2907 0.930 . S
H2894 C2871 0.931 . S
H2895 C2901 0.930 . S
H2896 C2934 0.930 . S
H2897 C2878 0.930 . S
H2898 C2933 0.931 . S
N2899 Eu2868 2.657 . S
N2899 C2900 1.334 . S
N2899 C2904 1.362 . S
C2900 H2892 0.929 . S
C2900 N2899 1.334 . S
C2900 C2903 1.413 . S
C2901 H2895 0.930 . S
C2901 C2902 1.392 . S
C2901 C2903 1.367 . S
C2902 C2901 1.392 . S
C2902 C2904 1.420 . S
C2902 C2934 1.423 . S
C2903 H2889 0.930 . S
C2903 C2900 1.413 . S
C2903 C2901 1.367 . S
C2904 N2899 1.362 . S
C2904 C2902 1.420 . S
C2904 C2908 1.429 . S
H2905 C2910 0.930 . S
N2906 Eu2868 2.609 . S
N2906 C2908 1.377 . S
N2906 C2909 1.321 . S
C2907 H2893 0.930 . S
C2907 C2909 1.400 . S
C2907 C2910 1.386 . S
C2908 C2904 1.429 . S
C2908 N2906 1.377 . S
C2908 C2911 1.411 . S
C2909 H2891 0.930 . S
C2909 N2906 1.321 . S
C2909 C2907 1.400 . S
C2910 H2905 0.930 . S
C2910 C2907 1.386 . S
C2910 C2911 1.395 . S
C2911 C2908 1.411 . S
C2911 C2910 1.395 . S
C2911 C2933 1.420 . S
O2912 Eu2868 2.558 . S
O2912 C2932 1.257 . S
O2913 Eu2868 2.612 . S
O2913 Eu2879 2.380 . S
O2913 C2924 1.276 . S
O2914 Eu2879 2.432 . S
O2914 C2931 1.264 . S
O2915 Eu2868 2.339 . S
O2915 C2931 1.254 . S
O2916 Eu2868 2.563 . S
O2916 C2924 1.235 . S
O2917 Eu2868 2.419 . S
O2917 C2932 1.249 . S
O2918 Eu2879 2.558 . S
O2918 C2943 1.257 . S
O2919 Eu2868 2.380 . S
O2919 Eu2879 2.612 . S
O2919 C2935 1.276 . S
O2920 Eu2868 2.432 . S
O2920 C2942 1.264 . S
O2921 Eu2879 2.339 . S
O2921 C2942 1.254 . S
O2922 Eu2879 2.563 . S
O2922 C2935 1.235 . S
O2923 Eu2879 2.419 . S
O2923 C2943 1.249 . S
C2924 O2913 1.276 . S
C2924 O2916 1.235 . S
C2925 C2927 1.393 . S
C2925 C2929 1.395 . S
C2925 C2932 1.492 . S
C2926 C2927 1.392 . S
C2926 C2928 1.386 . S
C2927 C2925 1.393 . S
C2927 C2926 1.392 . S
C2927 H2944 0.930 . S
C2928 C2926 1.386 . S
C2928 C2930 1.395 . S
C2928 H2945 0.930 . S
C2929 C2925 1.395 . S
C2929 C2930 1.379 . S
C2929 H2946 0.930 . S
C2930 C2928 1.395 . S
C2930 C2929 1.379 . S
C2930 H2947 0.930 . S
C2931 O2914 1.264 . S
C2931 O2915 1.254 . S
C2932 Eu2868 2.848 . S
C2932 O2912 1.257 . S
C2932 O2917 1.249 . S
C2932 C2925 1.492 . S
C2933 H2898 0.931 . S
C2933 C2911 1.420 . S
C2933 C2934 1.351 . S
C2934 H2896 0.930 . S
C2934 C2902 1.423 . S
C2934 C2933 1.351 . S
C2935 O2919 1.276 . S
C2935 O2922 1.235 . S
C2936 C2937 1.393 . S
C2936 C2940 1.395 . S
C2936 C2943 1.492 . S
C2937 C2936 1.393 . S
C2937 C2938 1.392 . S
C2937 H2948 0.930 . S
C2938 C2937 1.392 . S
C2938 C2939 1.386 . S
C2939 C2938 1.386 . S
C2939 C2941 1.395 . S
C2939 H2949 0.930 . S
C2940 C2936 1.395 . S
C2940 C2941 1.379 . S
C2940 H2950 0.930 . S
C2941 C2939 1.395 . S
C2941 C2940 1.379 . S
C2941 H2951 0.930 . S
C2942 O2920 1.264 . S
C2942 O2921 1.254 . S
C2943 Eu2879 2.848 . S
C2943 O2918 1.257 . S
C2943 O2923 1.249 . S
C2943 C2936 1.492 . S
H2944 C2927 0.930 . S
H2945 C2928 0.930 . S
H2946 C2929 0.930 . S
H2947 C2930 0.930 . S
H2948 C2937 0.930 . S
H2949 C2939 0.930 . S
H2950 C2940 0.930 . S
H2951 C2941 0.930 . S
Eu2952 N2983 2.657 . S
Eu2952 N2990 2.609 . S
Eu2952 O2996 2.558 . S
Eu2952 O2997 2.612 . S
Eu2952 O2999 2.339 . S
Eu2952 O3000 2.563 . S
Eu2952 O3001 2.419 . S
Eu2952 O3003 2.380 . S
Eu2952 O3004 2.432 . S
Eu2952 C3016 2.848 . S
C2953 C2956 1.429 . S
C2953 C2957 1.411 1_455 S
C2953 N2960 1.377 . S
C2954 C2956 1.420 1_655 S
C2954 C2958 1.423 . S
C2954 C2966 1.392 . S
C2955 C2957 1.420 . S
C2955 C2958 1.351 . S
C2955 H2978 0.931 . S
C2956 C2953 1.429 . S
C2956 C2954 1.420 1_455 S
C2956 N2964 1.362 . S
C2957 C2953 1.411 1_655 S
C2957 C2955 1.420 . S
C2957 C2962 1.395 . S
C2958 C2954 1.423 . S
C2958 C2955 1.351 . S
C2958 H2970 0.930 . S
C2959 C2961 1.400 . S
C2959 C2962 1.386 1_455 S
C2959 H2971 0.930 . S
N2960 C2953 1.377 . S
N2960 C2961 1.321 . S
N2960 Eu2963 2.609 . S
C2961 C2959 1.400 . S
C2961 N2960 1.321 . S
C2961 H2968 0.930 . S
C2962 C2957 1.395 . S
C2962 C2959 1.386 1_655 S
C2962 H2981 0.930 . S
Eu2963 N2960 2.609 . S
Eu2963 N2964 2.657 . S
Eu2963 O2997 2.380 . S
Eu2963 O2998 2.432 . S
Eu2963 O3002 2.558 . S
Eu2963 O3003 2.612 . S
Eu2963 O3005 2.339 . S
Eu2963 O3006 2.563 . S
Eu2963 O3007 2.419 . S
Eu2963 C3027 2.848 . S
N2964 C2956 1.362 . S
N2964 Eu2963 2.657 . S
N2964 C2965 1.334 . S
C2965 N2964 1.334 . S
C2965 C2967 1.413 1_455 S
C2965 H2972 0.929 . S
C2966 C2954 1.392 . S
C2966 C2967 1.367 . S
C2966 H2974 0.930 . S
C2967 C2965 1.413 1_655 S
C2967 C2966 1.367 . S
C2967 H2969 0.930 . S
H2968 C2961 0.930 . S
H2969 C2967 0.930 . S
H2970 C2958 0.930 . S
H2971 C2959 0.930 . S
H2972 C2965 0.929 . S
H2973 C2987 0.930 . S
H2974 C2966 0.930 . S
H2975 C2993 0.930 . S
H2976 C2984 0.929 . S
H2977 C2991 0.930 . S
H2978 C2955 0.931 . S
H2979 C2985 0.930 . S
H2980 C3018 0.930 . S
H2981 C2962 0.930 . S
H2982 C3017 0.931 . S
N2983 Eu2952 2.657 . S
N2983 C2984 1.334 . S
N2983 C2988 1.362 . S
C2984 H2976 0.929 . S
C2984 N2983 1.334 . S
C2984 C2987 1.413 . S
C2985 H2979 0.930 . S
C2985 C2986 1.392 . S
C2985 C2987 1.367 . S
C2986 C2985 1.392 . S
C2986 C2988 1.420 . S
C2986 C3018 1.423 . S
C2987 H2973 0.930 . S
C2987 C2984 1.413 . S
C2987 C2985 1.367 . S
C2988 N2983 1.362 . S
C2988 C2986 1.420 . S
C2988 C2992 1.429 . S
H2989 C2994 0.930 . S
N2990 Eu2952 2.609 . S
N2990 C2992 1.377 . S
N2990 C2993 1.321 . S
C2991 H2977 0.930 . S
C2991 C2993 1.400 . S
C2991 C2994 1.386 . S
C2992 C2988 1.429 . S
C2992 N2990 1.377 . S
C2992 C2995 1.411 . S
C2993 H2975 0.930 . S
C2993 N2990 1.321 . S
C2993 C2991 1.400 . S
C2994 H2989 0.930 . S
C2994 C2991 1.386 . S
C2994 C2995 1.395 . S
C2995 C2992 1.411 . S
C2995 C2994 1.395 . S
C2995 C3017 1.420 . S
O2996 Eu2952 2.558 . S
O2996 C3016 1.257 . S
O2997 Eu2952 2.612 . S
O2997 Eu2963 2.380 . S
O2997 C3008 1.276 . S
O2998 Eu2963 2.432 . S
O2998 C3015 1.264 . S
O2999 Eu2952 2.339 . S
O2999 C3015 1.254 . S
O3000 Eu2952 2.563 . S
O3000 C3008 1.235 . S
O3001 Eu2952 2.419 . S
O3001 C3016 1.249 . S
O3002 Eu2963 2.558 . S
O3002 C3027 1.257 . S
O3003 Eu2952 2.380 . S
O3003 Eu2963 2.612 . S
O3003 C3019 1.276 . S
O3004 Eu2952 2.432 . S
O3004 C3026 1.264 . S
O3005 Eu2963 2.339 . S
O3005 C3026 1.254 . S
O3006 Eu2963 2.563 . S
O3006 C3019 1.235 . S
O3007 Eu2963 2.419 . S
O3007 C3027 1.249 . S
C3008 O2997 1.276 . S
C3008 O3000 1.235 . S
C3009 C3011 1.393 . S
C3009 C3013 1.395 . S
C3009 C3016 1.492 . S
C3010 C3011 1.392 . S
C3010 C3012 1.386 . S
C3011 C3009 1.393 . S
C3011 C3010 1.392 . S
C3011 H3028 0.930 . S
C3012 C3010 1.386 . S
C3012 C3014 1.395 . S
C3012 H3029 0.930 . S
C3013 C3009 1.395 . S
C3013 C3014 1.379 . S
C3013 H3030 0.930 . S
C3014 C3012 1.395 . S
C3014 C3013 1.379 . S
C3014 H3031 0.930 . S
C3015 O2998 1.264 . S
C3015 O2999 1.254 . S
C3016 Eu2952 2.848 . S
C3016 O2996 1.257 . S
C3016 O3001 1.249 . S
C3016 C3009 1.492 . S
C3017 H2982 0.931 . S
C3017 C2995 1.420 . S
C3017 C3018 1.351 . S
C3018 H2980 0.930 . S
C3018 C2986 1.423 . S
C3018 C3017 1.351 . S
C3019 O3003 1.276 . S
C3019 O3006 1.235 . S
C3020 C3021 1.393 . S
C3020 C3024 1.395 . S
C3020 C3027 1.492 . S
C3021 C3020 1.393 . S
C3021 C3022 1.392 . S
C3021 H3032 0.930 . S
C3022 C3021 1.392 . S
C3022 C3023 1.386 . S
C3023 C3022 1.386 . S
C3023 C3025 1.395 . S
C3023 H3033 0.930 . S
C3024 C3020 1.395 . S
C3024 C3025 1.379 . S
C3024 H3034 0.930 . S
C3025 C3023 1.395 . S
C3025 C3024 1.379 . S
C3025 H3035 0.930 . S
C3026 O3004 1.264 . S
C3026 O3005 1.254 . S
C3027 Eu2963 2.848 . S
C3027 O3002 1.257 . S
C3027 O3007 1.249 . S
C3027 C3020 1.492 . S
H3028 C3011 0.930 . S
H3029 C3012 0.930 . S
H3030 C3013 0.930 . S
H3031 C3014 0.930 . S
H3032 C3021 0.930 . S
H3033 C3023 0.930 . S
H3034 C3024 0.930 . S
H3035 C3025 0.930 . S
Eu3036 N3067 2.657 . S
Eu3036 N3074 2.609 . S
Eu3036 O3080 2.558 . S
Eu3036 O3081 2.612 . S
Eu3036 O3083 2.339 . S
Eu3036 O3084 2.563 . S
Eu3036 O3085 2.419 . S
Eu3036 O3087 2.380 . S
Eu3036 O3088 2.432 . S
Eu3036 C3100 2.848 . S
C3037 C3040 1.429 . S
C3037 C3041 1.411 . S
C3037 N3044 1.377 . S
C3038 C3040 1.420 . S
C3038 C3042 1.423 . S
C3038 C3050 1.392 . S
C3039 C3041 1.420 . S
C3039 C3042 1.351 . S
C3039 H3062 0.931 . S
C3040 C3037 1.429 . S
C3040 C3038 1.420 . S
C3040 N3048 1.362 . S
C3041 C3037 1.411 . S
C3041 C3039 1.420 . S
C3041 C3046 1.395 . S
C3042 C3038 1.423 . S
C3042 C3039 1.351 . S
C3042 H3054 0.930 . S
C3043 C3045 1.400 . S
C3043 C3046 1.386 . S
C3043 H3055 0.930 . S
N3044 C3037 1.377 . S
N3044 C3045 1.321 . S
N3044 Eu3047 2.609 . S
C3045 C3043 1.400 . S
C3045 N3044 1.321 . S
C3045 H3052 0.930 . S
C3046 C3041 1.395 . S
C3046 C3043 1.386 . S
C3046 H3065 0.930 . S
Eu3047 N3044 2.609 . S
Eu3047 N3048 2.657 . S
Eu3047 O3081 2.380 . S
Eu3047 O3082 2.432 . S
Eu3047 O3086 2.558 . S
Eu3047 O3087 2.612 . S
Eu3047 O3089 2.339 . S
Eu3047 O3090 2.563 . S
Eu3047 O3091 2.419 . S
Eu3047 C3111 2.848 . S
N3048 C3040 1.362 . S
N3048 Eu3047 2.657 . S
N3048 C3049 1.334 . S
C3049 N3048 1.334 . S
C3049 C3051 1.413 . S
C3049 H3056 0.929 . S
C3050 C3038 1.392 . S
C3050 C3051 1.367 . S
C3050 H3058 0.930 . S
C3051 C3049 1.413 . S
C3051 C3050 1.367 . S
C3051 H3053 0.930 . S
H3052 C3045 0.930 . S
H3053 C3051 0.930 . S
H3054 C3042 0.930 . S
H3055 C3043 0.930 . S
H3056 C3049 0.929 . S
H3057 C3071 0.930 . S
H3058 C3050 0.930 . S
H3059 C3077 0.930 . S
H3060 C3068 0.929 . S
H3061 C3075 0.930 . S
H3062 C3039 0.931 . S
H3063 C3069 0.930 . S
H3064 C3102 0.930 . S
H3065 C3046 0.930 . S
H3066 C3101 0.931 . S
N3067 Eu3036 2.657 . S
N3067 C3068 1.334 . S
N3067 C3072 1.362 . S
C3068 H3060 0.929 . S
C3068 N3067 1.334 . S
C3068 C3071 1.413 . S
C3069 H3063 0.930 . S
C3069 C3070 1.392 . S
C3069 C3071 1.367 . S
C3070 C3069 1.392 . S
C3070 C3072 1.420 . S
C3070 C3102 1.423 . S
C3071 H3057 0.930 . S
C3071 C3068 1.413 . S
C3071 C3069 1.367 . S
C3072 N3067 1.362 . S
C3072 C3070 1.420 . S
C3072 C3076 1.429 . S
H3073 C3078 0.930 . S
N3074 Eu3036 2.609 . S
N3074 C3076 1.377 . S
N3074 C3077 1.321 . S
C3075 H3061 0.930 . S
C3075 C3077 1.400 . S
C3075 C3078 1.386 . S
C3076 C3072 1.429 . S
C3076 N3074 1.377 . S
C3076 C3079 1.411 . S
C3077 H3059 0.930 . S
C3077 N3074 1.321 . S
C3077 C3075 1.400 . S
C3078 H3073 0.930 . S
C3078 C3075 1.386 . S
C3078 C3079 1.395 . S
C3079 C3076 1.411 . S
C3079 C3078 1.395 . S
C3079 C3101 1.420 . S
O3080 Eu3036 2.558 . S
O3080 C3100 1.257 . S
O3081 Eu3036 2.612 . S
O3081 Eu3047 2.380 . S
O3081 C3092 1.276 . S
O3082 Eu3047 2.432 . S
O3082 C3099 1.264 . S
O3083 Eu3036 2.339 . S
O3083 C3099 1.254 . S
O3084 Eu3036 2.563 . S
O3084 C3092 1.235 . S
O3085 Eu3036 2.419 . S
O3085 C3100 1.249 . S
O3086 Eu3047 2.558 . S
O3086 C3111 1.257 . S
O3087 Eu3036 2.380 . S
O3087 Eu3047 2.612 . S
O3087 C3103 1.276 . S
O3088 Eu3036 2.432 . S
O3088 C3110 1.264 . S
O3089 Eu3047 2.339 . S
O3089 C3110 1.254 . S
O3090 Eu3047 2.563 . S
O3090 C3103 1.235 . S
O3091 Eu3047 2.419 . S
O3091 C3111 1.249 . S
C3092 O3081 1.276 . S
C3092 O3084 1.235 . S
C3093 C3095 1.393 . S
C3093 C3097 1.395 . S
C3093 C3100 1.492 . S
C3094 C3095 1.392 . S
C3094 C3096 1.386 . S
C3095 C3093 1.393 . S
C3095 C3094 1.392 . S
C3095 H3112 0.930 . S
C3096 C3094 1.386 . S
C3096 C3098 1.395 . S
C3096 H3113 0.930 . S
C3097 C3093 1.395 . S
C3097 C3098 1.379 . S
C3097 H3114 0.930 . S
C3098 C3096 1.395 . S
C3098 C3097 1.379 . S
C3098 H3115 0.930 . S
C3099 O3082 1.264 . S
C3099 O3083 1.254 . S
C3100 Eu3036 2.848 . S
C3100 O3080 1.257 . S
C3100 O3085 1.249 . S
C3100 C3093 1.492 . S
C3101 H3066 0.931 . S
C3101 C3079 1.420 . S
C3101 C3102 1.351 . S
C3102 H3064 0.930 . S
C3102 C3070 1.423 . S
C3102 C3101 1.351 . S
C3103 O3087 1.276 . S
C3103 O3090 1.235 . S
C3104 C3105 1.393 . S
C3104 C3108 1.395 . S
C3104 C3111 1.492 . S
C3105 C3104 1.393 . S
C3105 C3106 1.392 . S
C3105 H3116 0.930 . S
C3106 C3105 1.392 . S
C3106 C3107 1.386 . S
C3107 C3106 1.386 . S
C3107 C3109 1.395 . S
C3107 H3117 0.930 . S
C3108 C3104 1.395 . S
C3108 C3109 1.379 . S
C3108 H3118 0.930 . S
C3109 C3107 1.395 . S
C3109 C3108 1.379 . S
C3109 H3119 0.930 . S
C3110 O3088 1.264 . S
C3110 O3089 1.254 . S
C3111 Eu3047 2.848 . S
C3111 O3086 1.257 . S
C3111 O3091 1.249 . S
C3111 C3104 1.492 . S
H3112 C3095 0.930 . S
H3113 C3096 0.930 . S
H3114 C3097 0.930 . S
H3115 C3098 0.930 . S
H3116 C3105 0.930 . S
H3117 C3107 0.930 . S
H3118 C3108 0.930 . S
H3119 C3109 0.930 . S
Eu3120 N3151 2.657 . S
Eu3120 N3158 2.609 . S
Eu3120 O3164 2.558 . S
Eu3120 O3165 2.612 . S
Eu3120 O3167 2.339 . S
Eu3120 O3168 2.563 . S
Eu3120 O3169 2.419 . S
Eu3120 O3171 2.380 . S
Eu3120 O3172 2.432 . S
Eu3120 C3184 2.848 . S
C3121 C3124 1.429 . S
C3121 C3125 1.411 . S
C3121 N3128 1.377 . S
C3122 C3124 1.420 . S
C3122 C3126 1.423 . S
C3122 C3134 1.392 . S
C3123 C3125 1.420 . S
C3123 C3126 1.351 . S
C3123 H3146 0.931 . S
C3124 C3121 1.429 . S
C3124 C3122 1.420 . S
C3124 N3132 1.362 . S
C3125 C3121 1.411 . S
C3125 C3123 1.420 . S
C3125 C3130 1.395 . S
C3126 C3122 1.423 . S
C3126 C3123 1.351 . S
C3126 H3138 0.930 . S
C3127 C3129 1.400 . S
C3127 C3130 1.386 . S
C3127 H3139 0.930 . S
N3128 C3121 1.377 . S
N3128 C3129 1.321 . S
N3128 Eu3131 2.609 . S
C3129 C3127 1.400 . S
C3129 N3128 1.321 . S
C3129 H3136 0.930 . S
C3130 C3125 1.395 . S
C3130 C3127 1.386 . S
C3130 H3149 0.930 . S
Eu3131 N3128 2.609 . S
Eu3131 N3132 2.657 . S
Eu3131 O3165 2.380 . S
Eu3131 O3166 2.432 . S
Eu3131 O3170 2.558 . S
Eu3131 O3171 2.612 . S
Eu3131 O3173 2.339 . S
Eu3131 O3174 2.563 . S
Eu3131 O3175 2.419 . S
Eu3131 C3195 2.848 . S
N3132 C3124 1.362 . S
N3132 Eu3131 2.657 . S
N3132 C3133 1.334 . S
C3133 N3132 1.334 . S
C3133 C3135 1.413 . S
C3133 H3140 0.929 . S
C3134 C3122 1.392 . S
C3134 C3135 1.367 . S
C3134 H3142 0.930 . S
C3135 C3133 1.413 . S
C3135 C3134 1.367 . S
C3135 H3137 0.930 . S
H3136 C3129 0.930 . S
H3137 C3135 0.930 . S
H3138 C3126 0.930 . S
H3139 C3127 0.930 . S
H3140 C3133 0.929 . S
H3141 C3155 0.930 . S
H3142 C3134 0.930 . S
H3143 C3161 0.930 . S
H3144 C3152 0.929 . S
H3145 C3159 0.930 . S
H3146 C3123 0.931 . S
H3147 C3153 0.930 . S
H3148 C3186 0.930 . S
H3149 C3130 0.930 . S
H3150 C3185 0.931 . S
N3151 Eu3120 2.657 . S
N3151 C3152 1.334 . S
N3151 C3156 1.362 . S
C3152 H3144 0.929 . S
C3152 N3151 1.334 . S
C3152 C3155 1.413 . S
C3153 H3147 0.930 . S
C3153 C3154 1.392 . S
C3153 C3155 1.367 . S
C3154 C3153 1.392 . S
C3154 C3156 1.420 . S
C3154 C3186 1.423 . S
C3155 H3141 0.930 . S
C3155 C3152 1.413 . S
C3155 C3153 1.367 . S
C3156 N3151 1.362 . S
C3156 C3154 1.420 . S
C3156 C3160 1.429 . S
H3157 C3162 0.930 . S
N3158 Eu3120 2.609 . S
N3158 C3160 1.377 . S
N3158 C3161 1.321 . S
C3159 H3145 0.930 . S
C3159 C3161 1.400 . S
C3159 C3162 1.386 . S
C3160 C3156 1.429 . S
C3160 N3158 1.377 . S
C3160 C3163 1.411 . S
C3161 H3143 0.930 . S
C3161 N3158 1.321 . S
C3161 C3159 1.400 . S
C3162 H3157 0.930 . S
C3162 C3159 1.386 . S
C3162 C3163 1.395 . S
C3163 C3160 1.411 . S
C3163 C3162 1.395 . S
C3163 C3185 1.420 . S
O3164 Eu3120 2.558 . S
O3164 C3184 1.257 . S
O3165 Eu3120 2.612 . S
O3165 Eu3131 2.380 . S
O3165 C3176 1.276 . S
O3166 Eu3131 2.432 . S
O3166 C3183 1.264 . S
O3167 Eu3120 2.339 . S
O3167 C3183 1.254 . S
O3168 Eu3120 2.563 . S
O3168 C3176 1.235 . S
O3169 Eu3120 2.419 . S
O3169 C3184 1.249 . S
O3170 Eu3131 2.558 . S
O3170 C3195 1.257 . S
O3171 Eu3120 2.380 . S
O3171 Eu3131 2.612 . S
O3171 C3187 1.276 . S
O3172 Eu3120 2.432 . S
O3172 C3194 1.264 . S
O3173 Eu3131 2.339 . S
O3173 C3194 1.254 . S
O3174 Eu3131 2.563 . S
O3174 C3187 1.235 . S
O3175 Eu3131 2.419 . S
O3175 C3195 1.249 . S
C3176 O3165 1.276 . S
C3176 O3168 1.235 . S
C3177 C3179 1.393 . S
C3177 C3181 1.395 . S
C3177 C3184 1.492 . S
C3178 C3179 1.392 . S
C3178 C3180 1.386 . S
C3179 C3177 1.393 . S
C3179 C3178 1.392 . S
C3179 H3196 0.930 . S
C3180 C3178 1.386 . S
C3180 C3182 1.395 . S
C3180 H3197 0.930 . S
C3181 C3177 1.395 . S
C3181 C3182 1.379 . S
C3181 H3198 0.930 . S
C3182 C3180 1.395 . S
C3182 C3181 1.379 . S
C3182 H3199 0.930 . S
C3183 O3166 1.264 . S
C3183 O3167 1.254 . S
C3184 Eu3120 2.848 . S
C3184 O3164 1.257 . S
C3184 O3169 1.249 . S
C3184 C3177 1.492 . S
C3185 H3150 0.931 . S
C3185 C3163 1.420 . S
C3185 C3186 1.351 . S
C3186 H3148 0.930 . S
C3186 C3154 1.423 . S
C3186 C3185 1.351 . S
C3187 O3171 1.276 . S
C3187 O3174 1.235 . S
C3188 C3189 1.393 . S
C3188 C3192 1.395 . S
C3188 C3195 1.492 . S
C3189 C3188 1.393 . S
C3189 C3190 1.392 . S
C3189 H3200 0.930 . S
C3190 C3189 1.392 . S
C3190 C3191 1.386 . S
C3191 C3190 1.386 . S
C3191 C3193 1.395 . S
C3191 H3201 0.930 . S
C3192 C3188 1.395 . S
C3192 C3193 1.379 . S
C3192 H3202 0.930 . S
C3193 C3191 1.395 . S
C3193 C3192 1.379 . S
C3193 H3203 0.930 . S
C3194 O3172 1.264 . S
C3194 O3173 1.254 . S
C3195 Eu3131 2.848 . S
C3195 O3170 1.257 . S
C3195 O3175 1.249 . S
C3195 C3188 1.492 . S
H3196 C3179 0.930 . S
H3197 C3180 0.930 . S
H3198 C3181 0.930 . S
H3199 C3182 0.930 . S
H3200 C3189 0.930 . S
H3201 C3191 0.930 . S
H3202 C3192 0.930 . S
H3203 C3193 0.930 . S
Eu3204 N3235 2.657 . S
Eu3204 N3242 2.609 . S
Eu3204 O3248 2.558 . S
Eu3204 O3249 2.612 . S
Eu3204 O3251 2.339 . S
Eu3204 O3252 2.563 . S
Eu3204 O3253 2.419 . S
Eu3204 O3255 2.380 . S
Eu3204 O3256 2.432 . S
Eu3204 C3268 2.848 . S
C3205 C3208 1.429 . S
C3205 C3209 1.411 . S
C3205 N3212 1.377 . S
C3206 C3208 1.420 . S
C3206 C3210 1.423 . S
C3206 C3218 1.392 . S
C3207 C3209 1.420 . S
C3207 C3210 1.351 . S
C3207 H3230 0.931 . S
C3208 C3205 1.429 . S
C3208 C3206 1.420 . S
C3208 N3216 1.362 . S
C3209 C3205 1.411 . S
C3209 C3207 1.420 . S
C3209 C3214 1.395 . S
C3210 C3206 1.423 . S
C3210 C3207 1.351 . S
C3210 H3222 0.930 . S
C3211 C3213 1.400 . S
C3211 C3214 1.386 . S
C3211 H3223 0.930 . S
N3212 C3205 1.377 . S
N3212 C3213 1.321 . S
N3212 Eu3215 2.609 . S
C3213 C3211 1.400 . S
C3213 N3212 1.321 . S
C3213 H3220 0.930 . S
C3214 C3209 1.395 . S
C3214 C3211 1.386 . S
C3214 H3233 0.930 . S
Eu3215 N3212 2.609 . S
Eu3215 N3216 2.657 . S
Eu3215 O3249 2.380 . S
Eu3215 O3250 2.432 . S
Eu3215 O3254 2.558 . S
Eu3215 O3255 2.612 . S
Eu3215 O3257 2.339 . S
Eu3215 O3258 2.563 . S
Eu3215 O3259 2.419 . S
Eu3215 C3279 2.848 . S
N3216 C3208 1.362 . S
N3216 Eu3215 2.657 . S
N3216 C3217 1.334 . S
C3217 N3216 1.334 . S
C3217 C3219 1.413 . S
C3217 H3224 0.929 . S
C3218 C3206 1.392 . S
C3218 C3219 1.367 . S
C3218 H3226 0.930 . S
C3219 C3217 1.413 . S
C3219 C3218 1.367 . S
C3219 H3221 0.930 . S
H3220 C3213 0.930 . S
H3221 C3219 0.930 . S
H3222 C3210 0.930 . S
H3223 C3211 0.930 . S
H3224 C3217 0.929 . S
H3225 C3239 0.930 . S
H3226 C3218 0.930 . S
H3227 C3245 0.930 . S
H3228 C3236 0.929 . S
H3229 C3243 0.930 . S
H3230 C3207 0.931 . S
H3231 C3237 0.930 . S
H3232 C3270 0.930 . S
H3233 C3214 0.930 . S
H3234 C3269 0.931 . S
N3235 Eu3204 2.657 . S
N3235 C3236 1.334 . S
N3235 C3240 1.362 . S
C3236 H3228 0.929 . S
C3236 N3235 1.334 . S
C3236 C3239 1.413 . S
C3237 H3231 0.930 . S
C3237 C3238 1.392 . S
C3237 C3239 1.367 . S
C3238 C3237 1.392 . S
C3238 C3240 1.420 . S
C3238 C3270 1.423 . S
C3239 H3225 0.930 . S
C3239 C3236 1.413 . S
C3239 C3237 1.367 . S
C3240 N3235 1.362 . S
C3240 C3238 1.420 . S
C3240 C3244 1.429 . S
H3241 C3246 0.930 . S
N3242 Eu3204 2.609 . S
N3242 C3244 1.377 . S
N3242 C3245 1.321 . S
C3243 H3229 0.930 . S
C3243 C3245 1.400 . S
C3243 C3246 1.386 . S
C3244 C3240 1.429 . S
C3244 N3242 1.377 . S
C3244 C3247 1.411 . S
C3245 H3227 0.930 . S
C3245 N3242 1.321 . S
C3245 C3243 1.400 . S
C3246 H3241 0.930 . S
C3246 C3243 1.386 . S
C3246 C3247 1.395 . S
C3247 C3244 1.411 . S
C3247 C3246 1.395 . S
C3247 C3269 1.420 . S
O3248 Eu3204 2.558 . S
O3248 C3268 1.257 . S
O3249 Eu3204 2.612 . S
O3249 Eu3215 2.380 . S
O3249 C3260 1.276 . S
O3250 Eu3215 2.432 . S
O3250 C3267 1.264 . S
O3251 Eu3204 2.339 . S
O3251 C3267 1.254 . S
O3252 Eu3204 2.563 . S
O3252 C3260 1.235 . S
O3253 Eu3204 2.419 . S
O3253 C3268 1.249 . S
O3254 Eu3215 2.558 . S
O3254 C3279 1.257 . S
O3255 Eu3204 2.380 . S
O3255 Eu3215 2.612 . S
O3255 C3271 1.276 . S
O3256 Eu3204 2.432 . S
O3256 C3278 1.264 . S
O3257 Eu3215 2.339 . S
O3257 C3278 1.254 . S
O3258 Eu3215 2.563 . S
O3258 C3271 1.235 . S
O3259 Eu3215 2.419 . S
O3259 C3279 1.249 . S
C3260 O3249 1.276 . S
C3260 O3252 1.235 . S
C3261 C3263 1.393 . S
C3261 C3265 1.395 . S
C3261 C3268 1.492 . S
C3262 C3263 1.392 . S
C3262 C3264 1.386 . S
C3263 C3261 1.393 . S
C3263 C3262 1.392 . S
C3263 H3280 0.930 . S
C3264 C3262 1.386 . S
C3264 C3266 1.395 . S
C3264 H3281 0.930 . S
C3265 C3261 1.395 . S
C3265 C3266 1.379 . S
C3265 H3282 0.930 . S
C3266 C3264 1.395 . S
C3266 C3265 1.379 . S
C3266 H3283 0.930 . S
C3267 O3250 1.264 . S
C3267 O3251 1.254 . S
C3268 Eu3204 2.848 . S
C3268 O3248 1.257 . S
C3268 O3253 1.249 . S
C3268 C3261 1.492 . S
C3269 H3234 0.931 . S
C3269 C3247 1.420 . S
C3269 C3270 1.351 . S
C3270 H3232 0.930 . S
C3270 C3238 1.423 . S
C3270 C3269 1.351 . S
C3271 O3255 1.276 . S
C3271 O3258 1.235 . S
C3272 C3273 1.393 . S
C3272 C3276 1.395 . S
C3272 C3279 1.492 . S
C3273 C3272 1.393 . S
C3273 C3274 1.392 . S
C3273 H3284 0.930 . S
C3274 C3273 1.392 . S
C3274 C3275 1.386 . S
C3275 C3274 1.386 . S
C3275 C3277 1.395 . S
C3275 H3285 0.930 . S
C3276 C3272 1.395 . S
C3276 C3277 1.379 . S
C3276 H3286 0.930 . S
C3277 C3275 1.395 . S
C3277 C3276 1.379 . S
C3277 H3287 0.930 . S
C3278 O3256 1.264 . S
C3278 O3257 1.254 . S
C3279 Eu3215 2.848 . S
C3279 O3254 1.257 . S
C3279 O3259 1.249 . S
C3279 C3272 1.492 . S
H3280 C3263 0.930 . S
H3281 C3264 0.930 . S
H3282 C3265 0.930 . S
H3283 C3266 0.930 . S
H3284 C3273 0.930 . S
H3285 C3275 0.930 . S
H3286 C3276 0.930 . S
H3287 C3277 0.930 . S
Eu3288 N3319 2.657 . S
Eu3288 N3326 2.609 . S
Eu3288 O3332 2.558 . S
Eu3288 O3333 2.612 . S
Eu3288 O3335 2.339 . S
Eu3288 O3336 2.563 . S
Eu3288 O3337 2.419 . S
Eu3288 O3339 2.380 . S
Eu3288 O3340 2.432 . S
Eu3288 C3352 2.848 . S
C3289 C3292 1.429 . S
C3289 C3293 1.411 . S
C3289 N3296 1.377 . S
C3290 C3292 1.420 . S
C3290 C3294 1.423 . S
C3290 C3302 1.392 . S
C3291 C3293 1.420 . S
C3291 C3294 1.351 . S
C3291 H3314 0.931 . S
C3292 C3289 1.429 . S
C3292 C3290 1.420 . S
C3292 N3300 1.362 . S
C3293 C3289 1.411 . S
C3293 C3291 1.420 . S
C3293 C3298 1.395 . S
C3294 C3290 1.423 . S
C3294 C3291 1.351 . S
C3294 H3306 0.930 . S
C3295 C3297 1.400 . S
C3295 C3298 1.386 . S
C3295 H3307 0.930 . S
N3296 C3289 1.377 . S
N3296 C3297 1.321 . S
N3296 Eu3299 2.609 . S
C3297 C3295 1.400 . S
C3297 N3296 1.321 . S
C3297 H3304 0.930 . S
C3298 C3293 1.395 . S
C3298 C3295 1.386 . S
C3298 H3317 0.930 . S
Eu3299 N3296 2.609 . S
Eu3299 N3300 2.657 . S
Eu3299 O3333 2.380 . S
Eu3299 O3334 2.432 . S
Eu3299 O3338 2.558 . S
Eu3299 O3339 2.612 . S
Eu3299 O3341 2.339 . S
Eu3299 O3342 2.563 . S
Eu3299 O3343 2.419 . S
Eu3299 C3363 2.848 . S
N3300 C3292 1.362 . S
N3300 Eu3299 2.657 . S
N3300 C3301 1.334 . S
C3301 N3300 1.334 . S
C3301 C3303 1.413 . S
C3301 H3308 0.929 . S
C3302 C3290 1.392 . S
C3302 C3303 1.367 . S
C3302 H3310 0.930 . S
C3303 C3301 1.413 . S
C3303 C3302 1.367 . S
C3303 H3305 0.930 . S
H3304 C3297 0.930 . S
H3305 C3303 0.930 . S
H3306 C3294 0.930 . S
H3307 C3295 0.930 . S
H3308 C3301 0.929 . S
H3309 C3323 0.930 . S
H3310 C3302 0.930 . S
H3311 C3329 0.930 . S
H3312 C3320 0.929 . S
H3313 C3327 0.930 . S
H3314 C3291 0.931 . S
H3315 C3321 0.930 . S
H3316 C3354 0.930 . S
H3317 C3298 0.930 . S
H3318 C3353 0.931 . S
N3319 Eu3288 2.657 . S
N3319 C3320 1.334 . S
N3319 C3324 1.362 . S
C3320 H3312 0.929 . S
C3320 N3319 1.334 . S
C3320 C3323 1.413 . S
C3321 H3315 0.930 . S
C3321 C3322 1.392 . S
C3321 C3323 1.367 . S
C3322 C3321 1.392 . S
C3322 C3324 1.420 . S
C3322 C3354 1.423 . S
C3323 H3309 0.930 . S
C3323 C3320 1.413 . S
C3323 C3321 1.367 . S
C3324 N3319 1.362 . S
C3324 C3322 1.420 . S
C3324 C3328 1.429 . S
H3325 C3330 0.930 . S
N3326 Eu3288 2.609 . S
N3326 C3328 1.377 . S
N3326 C3329 1.321 . S
C3327 H3313 0.930 . S
C3327 C3329 1.400 . S
C3327 C3330 1.386 . S
C3328 C3324 1.429 . S
C3328 N3326 1.377 . S
C3328 C3331 1.411 . S
C3329 H3311 0.930 . S
C3329 N3326 1.321 . S
C3329 C3327 1.400 . S
C3330 H3325 0.930 . S
C3330 C3327 1.386 . S
C3330 C3331 1.395 . S
C3331 C3328 1.411 . S
C3331 C3330 1.395 . S
C3331 C3353 1.420 . S
O3332 Eu3288 2.558 . S
O3332 C3352 1.257 . S
O3333 Eu3288 2.612 . S
O3333 Eu3299 2.380 . S
O3333 C3344 1.276 . S
O3334 Eu3299 2.432 . S
O3334 C3351 1.264 . S
O3335 Eu3288 2.339 . S
O3335 C3351 1.254 . S
O3336 Eu3288 2.563 . S
O3336 C3344 1.235 . S
O3337 Eu3288 2.419 . S
O3337 C3352 1.249 . S
O3338 Eu3299 2.558 . S
O3338 C3363 1.257 . S
O3339 Eu3288 2.380 . S
O3339 Eu3299 2.612 . S
O3339 C3355 1.276 . S
O3340 Eu3288 2.432 . S
O3340 C3362 1.264 . S
O3341 Eu3299 2.339 . S
O3341 C3362 1.254 . S
O3342 Eu3299 2.563 . S
O3342 C3355 1.235 . S
O3343 Eu3299 2.419 . S
O3343 C3363 1.249 . S
C3344 O3333 1.276 . S
C3344 O3336 1.235 . S
C3345 C3347 1.393 . S
C3345 C3349 1.395 . S
C3345 C3352 1.492 . S
C3346 C3347 1.392 . S
C3346 C3348 1.386 . S
C3347 C3345 1.393 . S
C3347 C3346 1.392 . S
C3347 H3364 0.930 . S
C3348 C3346 1.386 . S
C3348 C3350 1.395 . S
C3348 H3365 0.930 . S
C3349 C3345 1.395 . S
C3349 C3350 1.379 . S
C3349 H3366 0.930 . S
C3350 C3348 1.395 . S
C3350 C3349 1.379 . S
C3350 H3367 0.930 . S
C3351 O3334 1.264 . S
C3351 O3335 1.254 . S
C3352 Eu3288 2.848 . S
C3352 O3332 1.257 . S
C3352 O3337 1.249 . S
C3352 C3345 1.492 . S
C3353 H3318 0.931 . S
C3353 C3331 1.420 . S
C3353 C3354 1.351 . S
C3354 H3316 0.930 . S
C3354 C3322 1.423 . S
C3354 C3353 1.351 . S
C3355 O3339 1.276 . S
C3355 O3342 1.235 . S
C3356 C3357 1.393 . S
C3356 C3360 1.395 . S
C3356 C3363 1.492 . S
C3357 C3356 1.393 . S
C3357 C3358 1.392 . S
C3357 H3368 0.930 . S
C3358 C3357 1.392 . S
C3358 C3359 1.386 . S
C3359 C3358 1.386 . S
C3359 C3361 1.395 . S
C3359 H3369 0.930 . S
C3360 C3356 1.395 . S
C3360 C3361 1.379 . S
C3360 H3370 0.930 . S
C3361 C3359 1.395 . S
C3361 C3360 1.379 . S
C3361 H3371 0.930 . S
C3362 O3340 1.264 . S
C3362 O3341 1.254 . S
C3363 Eu3299 2.848 . S
C3363 O3338 1.257 . S
C3363 O3343 1.249 . S
C3363 C3356 1.492 . S
H3364 C3347 0.930 . S
H3365 C3348 0.930 . S
H3366 C3349 0.930 . S
H3367 C3350 0.930 . S
H3368 C3357 0.930 . S
H3369 C3359 0.930 . S
H3370 C3360 0.930 . S
H3371 C3361 0.930 . S
Eu3372 N3403 2.657 . S
Eu3372 N3410 2.609 1_554 S
Eu3372 O3416 2.558 1_554 S
Eu3372 O3417 2.612 . S
Eu3372 O3419 2.339 . S
Eu3372 O3420 2.563 1_554 S
Eu3372 O3421 2.419 . S
Eu3372 O3423 2.380 . S
Eu3372 O3424 2.432 1_554 S
Eu3372 C3436 2.848 1_554 S
C3373 C3376 1.429 . S
C3373 C3377 1.411 . S
C3373 N3380 1.377 1_655 S
C3374 C3376 1.420 . S
C3374 C3378 1.423 . S
C3374 C3386 1.392 1_554 S
C3375 C3377 1.420 . S
C3375 C3378 1.351 . S
C3375 H3398 0.931 . S
C3376 C3373 1.429 . S
C3376 C3374 1.420 . S
C3376 N3384 1.362 1_655 S
C3377 C3373 1.411 . S
C3377 C3375 1.420 . S
C3377 C3382 1.395 . S
C3378 C3374 1.423 . S
C3378 C3375 1.351 . S
C3378 H3390 0.930 . S
C3379 C3381 1.400 . S
C3379 C3382 1.386 1_455 S
C3379 H3391 0.930 . S
N3380 C3373 1.377 1_455 S
N3380 C3381 1.321 . S
N3380 Eu3383 2.609 . S
C3381 C3379 1.400 . S
C3381 N3380 1.321 . S
C3381 H3388 0.930 . S
C3382 C3377 1.395 . S
C3382 C3379 1.386 1_655 S
C3382 H3401 0.930 . S
Eu3383 N3380 2.609 . S
Eu3383 N3384 2.657 . S
Eu3383 O3417 2.380 . S
Eu3383 O3418 2.432 . S
Eu3383 O3422 2.558 . S
Eu3383 O3423 2.612 . S
Eu3383 O3425 2.339 1_554 S
Eu3383 O3426 2.563 . S
Eu3383 O3427 2.419 1_455 S
Eu3383 C3447 2.848 1_455 S
N3384 C3376 1.362 1_455 S
N3384 Eu3383 2.657 . S
N3384 C3385 1.334 1_454 S
C3385 N3384 1.334 1_656 S
C3385 C3387 1.413 . S
C3385 H3392 0.929 1_655 S
C3386 C3374 1.392 1_556 S
C3386 C3387 1.367 . S
C3386 H3394 0.930 . S
C3387 C3385 1.413 . S
C3387 C3386 1.367 . S
C3387 H3389 0.930 . S
H3388 C3381 0.930 . S
H3389 C3387 0.930 . S
H3390 C3378 0.930 . S
H3391 C3379 0.930 . S
H3392 C3385 0.929 1_455 S
H3393 C3407 0.930 . S
H3394 C3386 0.930 . S
H3395 C3413 0.930 . S
H3396 C3404 0.929 . S
H3397 C3411 0.930 . S
H3398 C3375 0.931 . S
H3399 C3405 0.930 . S
H3400 C3438 0.928 1_554 S
H3401 C3382 0.930 . S
H3402 C3437 0.931 . S
N3403 Eu3372 2.657 . S
N3403 C3404 1.334 . S
N3403 C3408 1.362 . S
C3404 H3396 0.929 . S
C3404 N3403 1.334 . S
C3404 C3407 1.413 . S
C3405 H3399 0.930 . S
C3405 C3406 1.392 . S
C3405 C3407 1.367 . S
C3406 C3405 1.392 . S
C3406 C3408 1.420 . S
C3406 C3438 1.409 1_554 S
C3407 H3393 0.930 . S
C3407 C3404 1.413 . S
C3407 C3405 1.367 . S
C3408 N3403 1.362 . S
C3408 C3406 1.420 . S
C3408 C3412 1.429 1_554 S
H3409 C3414 0.930 . S
N3410 Eu3372 2.609 1_556 S
N3410 C3412 1.377 . S
N3410 C3413 1.321 . S
C3411 H3397 0.930 . S
C3411 C3413 1.400 . S
C3411 C3414 1.386 . S
C3412 C3408 1.429 1_556 S
C3412 N3410 1.377 . S
C3412 C3415 1.411 . S
C3413 H3395 0.930 . S
C3413 N3410 1.321 . S
C3413 C3411 1.400 . S
C3414 H3409 0.930 . S
C3414 C3411 1.386 . S
C3414 C3415 1.395 . S
C3415 C3412 1.411 . S
C3415 C3414 1.395 . S
C3415 C3437 1.420 . S
O3416 Eu3372 2.558 1_556 S
O3416 C3436 1.257 . S
O3417 Eu3372 2.612 . S
O3417 Eu3383 2.380 . S
O3417 C3428 1.276 . S
O3418 Eu3383 2.432 . S
O3418 C3435 1.264 . S
O3419 Eu3372 2.339 . S
O3419 C3435 1.254 . S
O3420 Eu3372 2.563 1_556 S
O3420 C3428 1.235 1_556 S
O3421 Eu3372 2.419 . S
O3421 C3436 1.249 1_554 S
O3422 Eu3383 2.558 . S
O3422 C3447 1.257 1_455 S
O3423 Eu3372 2.380 . S
O3423 Eu3383 2.612 . S
O3423 C3439 1.276 . S
O3424 Eu3372 2.432 1_556 S
O3424 C3446 1.264 . S
O3425 Eu3383 2.339 1_556 S
O3425 C3446 1.254 . S
O3426 Eu3383 2.563 . S
O3426 C3439 1.235 . S
O3427 Eu3383 2.419 1_655 S
O3427 C3447 1.249 . S
C3428 O3417 1.276 . S
C3428 O3420 1.235 1_554 S
C3429 C3431 1.408 . S
C3429 C3433 1.395 . S
C3429 C3436 1.492 . S
C3430 C3431 1.396 . S
C3430 C3432 1.386 . S
C3431 C3429 1.408 . S
C3431 C3430 1.396 . S
C3431 H3448 0.911 1_556 S
C3432 C3430 1.386 . S
C3432 C3434 1.395 . S
C3432 H3449 0.930 . S
C3433 C3429 1.395 . S
C3433 C3434 1.379 . S
C3433 H3450 0.930 . S
C3434 C3432 1.395 . S
C3434 C3433 1.379 . S
C3434 H3451 0.930 . S
C3435 O3418 1.264 . S
C3435 O3419 1.254 . S
C3436 Eu3372 2.848 1_556 S
C3436 O3416 1.257 . S
C3436 O3421 1.249 1_556 S
C3436 C3429 1.492 . S
C3437 H3402 0.931 . S
C3437 C3415 1.420 . S
C3437 C3438 1.366 . S
C3438 H3400 0.928 1_556 S
C3438 C3406 1.409 1_556 S
C3438 C3437 1.366 . S
C3439 O3423 1.276 . S
C3439 O3426 1.235 . S
C3440 C3441 1.393 . S
C3440 C3444 1.395 . S
C3440 C3447 1.492 . S
C3441 C3440 1.393 . S
C3441 C3442 1.392 . S
C3441 H3452 0.930 . S
C3442 C3441 1.392 . S
C3442 C3443 1.386 . S
C3443 C3442 1.386 . S
C3443 C3445 1.395 . S
C3443 H3453 0.930 . S
C3444 C3440 1.395 . S
C3444 C3445 1.379 . S
C3444 H3454 0.930 . S
C3445 C3443 1.395 . S
C3445 C3444 1.379 . S
C3445 H3455 0.930 . S
C3446 O3424 1.264 . S
C3446 O3425 1.254 . S
C3447 Eu3383 2.848 1_655 S
C3447 O3422 1.257 1_655 S
C3447 O3427 1.249 . S
C3447 C3440 1.492 . S
H3448 C3431 0.911 1_554 S
H3449 C3432 0.930 . S
H3450 C3433 0.930 . S
H3451 C3434 0.930 . S
H3452 C3441 0.930 . S
H3453 C3443 0.930 . S
H3454 C3444 0.930 . S
H3455 C3445 0.930 . S
C3456 C3457 1.363 1_556 S
C3456 C3462 1.379 . S
C3456 N3464 1.356 1_455 S
C3457 C3456 1.363 1_554 S
C3457 C3463 1.363 . S
C3458 C3459 1.363 . S
C3458 C3463 1.379 . S
C3458 N3465 1.356 . S
C3459 C3458 1.363 . S
C3459 C3462 1.363 1_554 S
N3460 C3462 1.356 . S
N3460 H3472 0.984 . S
N3460 H3473 0.985 . S
N3461 C3463 1.356 . S
N3461 H3466 0.984 . S
N3461 H3467 0.985 . S
C3462 C3456 1.379 . S
C3462 C3459 1.363 1_556 S
C3462 N3460 1.356 . S
C3463 C3457 1.363 . S
C3463 C3458 1.379 . S
C3463 N3461 1.356 . S
N3464 C3456 1.356 1_655 S
N3464 H3470 0.984 . S
N3464 H3471 0.984 . S
N3465 C3458 1.356 . S
N3465 H3468 0.984 . S
N3465 H3469 0.985 . S
H3466 N3461 0.984 . S
H3467 N3461 0.985 . S
H3468 N3465 0.984 . S
H3469 N3465 0.985 . S
H3470 N3464 0.984 . S
H3471 N3464 0.984 . S
H3472 N3460 0.984 . S
H3473 N3460 0.985 . S
C3474 C3475 1.363 . S
C3474 C3480 1.379 . S
C3474 N3482 1.356 . S
C3475 C3474 1.363 . S
C3475 C3481 1.363 . S
C3476 C3477 1.363 . S
C3476 C3481 1.379 . S
C3476 N3483 1.356 . S
C3477 C3476 1.363 . S
C3477 C3480 1.363 . S
N3478 C3480 1.356 . S
N3478 H3490 0.984 . S
N3478 H3491 0.985 . S
N3479 C3481 1.356 . S
N3479 H3484 0.984 . S
N3479 H3485 0.985 . S
C3480 C3474 1.379 . S
C3480 C3477 1.363 . S
C3480 N3478 1.356 . S
C3481 C3475 1.363 . S
C3481 C3476 1.379 . S
C3481 N3479 1.356 . S
N3482 C3474 1.356 . S
N3482 H3488 0.984 . S
N3482 H3489 0.984 . S
N3483 C3476 1.356 . S
N3483 H3486 0.984 . S
N3483 H3487 0.985 . S
H3484 N3479 0.984 . S
H3485 N3479 0.985 . S
H3486 N3483 0.984 . S
H3487 N3483 0.985 . S
H3488 N3482 0.984 . S
H3489 N3482 0.984 . S
H3490 N3478 0.984 . S
H3491 N3478 0.985 . S
C3492 C3493 1.363 . S
C3492 C3498 1.379 . S
C3492 N3500 1.356 . S
C3493 C3492 1.363 . S
C3493 C3499 1.363 . S
C3494 C3495 1.363 . S
C3494 C3499 1.379 . S
C3494 N3501 1.356 . S
C3495 C3494 1.363 . S
C3495 C3498 1.363 . S
N3496 C3498 1.356 . S
N3496 H3508 0.984 . S
N3496 H3509 0.985 . S
N3497 C3499 1.356 . S
N3497 H3502 0.984 . S
N3497 H3503 0.985 . S
C3498 C3492 1.379 . S
C3498 C3495 1.363 . S
C3498 N3496 1.356 . S
C3499 C3493 1.363 . S
C3499 C3494 1.379 . S
C3499 N3497 1.356 . S
N3500 C3492 1.356 . S
N3500 H3506 0.984 . S
N3500 H3507 0.984 . S
N3501 C3494 1.356 . S
N3501 H3504 0.984 . S
N3501 H3505 0.985 . S
H3502 N3497 0.984 . S
H3503 N3497 0.985 . S
H3504 N3501 0.984 . S
H3505 N3501 0.985 . S
H3506 N3500 0.984 . S
H3507 N3500 0.984 . S
H3508 N3496 0.984 . S
H3509 N3496 0.985 . S
C3510 C3511 1.363 . S
C3510 C3516 1.379 . S
C3510 N3518 1.356 . S
C3511 C3510 1.363 . S
C3511 C3517 1.363 . S
C3512 C3513 1.363 . S
C3512 C3517 1.379 . S
C3512 N3519 1.356 . S
C3513 C3512 1.363 . S
C3513 C3516 1.363 . S
N3514 C3516 1.356 . S
N3514 H3526 0.984 . S
N3514 H3527 0.985 . S
N3515 C3517 1.356 . S
N3515 H3520 0.984 . S
N3515 H3521 0.985 . S
C3516 C3510 1.379 . S
C3516 C3513 1.363 . S
C3516 N3514 1.356 . S
C3517 C3511 1.363 . S
C3517 C3512 1.379 . S
C3517 N3515 1.356 . S
N3518 C3510 1.356 . S
N3518 H3524 0.984 . S
N3518 H3525 0.984 . S
N3519 C3512 1.356 . S
N3519 H3522 0.984 . S
N3519 H3523 0.985 . S
H3520 N3515 0.984 . S
H3521 N3515 0.985 . S
H3522 N3519 0.984 . S
H3523 N3519 0.985 . S
H3524 N3518 0.984 . S
H3525 N3518 0.984 . S
H3526 N3514 0.984 . S
H3527 N3514 0.985 . S
C3528 C3529 1.363 . S
C3528 C3534 1.379 . S
C3528 N3536 1.356 . S
C3529 C3528 1.363 . S
C3529 C3535 1.363 . S
C3530 C3531 1.363 . S
C3530 C3535 1.379 . S
C3530 N3537 1.356 . S
C3531 C3530 1.363 . S
C3531 C3534 1.363 . S
N3532 C3534 1.356 . S
N3532 H3544 0.984 . S
N3532 H3545 0.985 . S
N3533 C3535 1.356 1_655 S
N3533 H3538 0.984 . S
N3533 H3539 0.985 . S
C3534 C3528 1.379 . S
C3534 C3531 1.363 . S
C3534 N3532 1.356 . S
C3535 C3529 1.363 . S
C3535 C3530 1.379 . S
C3535 N3533 1.356 1_455 S
N3536 C3528 1.356 . S
N3536 H3542 0.984 . S
N3536 H3543 0.984 . S
N3537 C3530 1.356 . S
N3537 H3540 0.984 . S
N3537 H3541 0.985 . S
H3538 N3533 0.984 . S
H3539 N3533 0.985 . S
H3540 N3537 0.984 . S
H3541 N3537 0.985 . S
H3542 N3536 0.984 . S
H3543 N3536 0.984 . S
H3544 N3532 0.984 . S
H3545 N3532 0.985 . S
C3546 C3547 1.363 . S
C3546 C3552 1.379 . S
C3546 N3554 1.356 . S
C3547 C3546 1.363 . S
C3547 C3553 1.363 . S
C3548 C3549 1.363 . S
C3548 C3553 1.379 . S
C3548 N3555 1.356 . S
C3549 C3548 1.363 . S
C3549 C3552 1.363 . S
N3550 C3552 1.356 . S
N3550 H3562 0.984 . S
N3550 H3563 0.985 . S
N3551 C3553 1.356 . S
N3551 H3556 0.984 . S
N3551 H3557 0.985 . S
C3552 C3546 1.379 . S
C3552 C3549 1.363 . S
C3552 N3550 1.356 . S
C3553 C3547 1.363 . S
C3553 C3548 1.379 . S
C3553 N3551 1.356 . S
N3554 C3546 1.356 . S
N3554 H3560 0.984 . S
N3554 H3561 0.984 . S
N3555 C3548 1.356 . S
N3555 H3558 0.984 . S
N3555 H3559 0.985 . S
H3556 N3551 0.984 . S
H3557 N3551 0.985 . S
H3558 N3555 0.984 . S
H3559 N3555 0.985 . S
H3560 N3554 0.984 . S
H3561 N3554 0.984 . S
H3562 N3550 0.984 . S
H3563 N3550 0.985 . S
C3564 C3565 1.363 . S
C3564 C3570 1.379 . S
C3564 N3572 1.356 . S
C3565 C3564 1.363 . S
C3565 C3571 1.363 . S
C3566 C3567 1.363 . S
C3566 C3571 1.379 . S
C3566 N3573 1.356 . S
C3567 C3566 1.363 . S
C3567 C3570 1.363 . S
N3568 C3570 1.356 . S
N3568 H3580 0.984 . S
N3568 H3581 0.985 . S
N3569 C3571 1.356 . S
N3569 H3574 0.984 . S
N3569 H3575 0.985 . S
C3570 C3564 1.379 . S
C3570 C3567 1.363 . S
C3570 N3568 1.356 . S
C3571 C3565 1.363 . S
C3571 C3566 1.379 . S
C3571 N3569 1.356 . S
N3572 C3564 1.356 . S
N3572 H3578 0.984 . S
N3572 H3579 0.984 . S
N3573 C3566 1.356 . S
N3573 H3576 0.984 . S
N3573 H3577 0.985 . S
H3574 N3569 0.984 . S
H3575 N3569 0.985 . S
H3576 N3573 0.984 . S
H3577 N3573 0.985 . S
H3578 N3572 0.984 . S
H3579 N3572 0.984 . S
H3580 N3568 0.984 . S
H3581 N3568 0.985 . S
C3582 C3583 1.363 . S
C3582 C3588 1.379 . S
C3582 N3590 1.356 . S
C3583 C3582 1.363 . S
C3583 C3589 1.363 . S
C3584 C3585 1.363 . S
C3584 C3589 1.379 . S
C3584 N3591 1.356 . S
C3585 C3584 1.363 . S
C3585 C3588 1.363 . S
N3586 C3588 1.356 . S
N3586 H3598 0.984 . S
N3586 H3599 0.985 . S
N3587 C3589 1.356 . S
N3587 H3592 0.984 . S
N3587 H3593 0.985 . S
C3588 C3582 1.379 . S
C3588 C3585 1.363 . S
C3588 N3586 1.356 . S
C3589 C3583 1.363 . S
C3589 C3584 1.379 . S
C3589 N3587 1.356 . S
N3590 C3582 1.356 . S
N3590 H3596 0.984 . S
N3590 H3597 0.984 . S
N3591 C3584 1.356 . S
N3591 H3594 0.984 . S
N3591 H3595 0.985 . S
H3592 N3587 0.984 . S
H3593 N3587 0.985 . S
H3594 N3591 0.984 . S
H3595 N3591 0.985 . S
H3596 N3590 0.984 . S
H3597 N3590 0.984 . S
H3598 N3586 0.984 . S
H3599 N3586 0.985 . S
C3600 C3601 1.363 . S
C3600 C3606 1.379 . S
C3600 N3608 1.356 . S
C3601 C3600 1.363 . S
C3601 C3607 1.363 . S
C3602 C3603 1.363 . S
C3602 C3607 1.379 . S
C3602 N3609 1.356 . S
C3603 C3602 1.363 . S
C3603 C3606 1.363 . S
N3604 C3606 1.356 . S
N3604 H3616 0.984 . S
N3604 H3617 0.985 . S
N3605 C3607 1.356 . S
N3605 H3610 0.984 . S
N3605 H3611 0.985 . S
C3606 C3600 1.379 . S
C3606 C3603 1.363 . S
C3606 N3604 1.356 . S
C3607 C3601 1.363 . S
C3607 C3602 1.379 . S
C3607 N3605 1.356 . S
N3608 C3600 1.356 . S
N3608 H3614 0.984 1_455 S
N3608 H3615 0.984 . S
N3609 C3602 1.356 . S
N3609 H3612 0.984 . S
N3609 H3613 0.985 . S
H3610 N3605 0.984 . S
H3611 N3605 0.985 . S
H3612 N3609 0.984 . S
H3613 N3609 0.985 . S
H3614 N3608 0.984 1_655 S
H3615 N3608 0.984 . S
H3616 N3604 0.984 . S
H3617 N3604 0.985 . S
C3618 C3619 1.363 . S
C3618 C3624 1.379 . S
C3618 N3626 1.356 . S
C3619 C3618 1.363 . S
C3619 C3625 1.363 . S
C3620 C3621 1.363 . S
C3620 C3625 1.379 . S
C3620 N3627 1.356 . S
C3621 C3620 1.363 . S
C3621 C3624 1.363 . S
N3622 C3624 1.356 . S
N3622 H3634 0.984 . S
N3622 H3635 0.985 . S
N3623 C3625 1.356 . S
N3623 H3628 0.984 . S
N3623 H3629 0.985 . S
C3624 C3618 1.379 . S
C3624 C3621 1.363 . S
C3624 N3622 1.356 . S
C3625 C3619 1.363 . S
C3625 C3620 1.379 . S
C3625 N3623 1.356 . S
N3626 C3618 1.356 . S
N3626 H3632 0.984 . S
N3626 H3633 0.984 . S
N3627 C3620 1.356 . S
N3627 H3630 0.984 . S
N3627 H3631 0.985 . S
H3628 N3623 0.984 . S
H3629 N3623 0.985 . S
H3630 N3627 0.984 . S
H3631 N3627 0.985 . S
H3632 N3626 0.984 . S
H3633 N3626 0.984 . S
H3634 N3622 0.984 . S
H3635 N3622 0.985 . S
C3636 C3637 1.363 . S
C3636 C3642 1.379 . S
C3636 N3644 1.356 . S
C3637 C3636 1.363 . S
C3637 C3643 1.363 . S
C3638 C3639 1.363 . S
C3638 C3643 1.379 . S
C3638 N3645 1.356 1_545 S
C3639 C3638 1.363 . S
C3639 C3642 1.363 . S
N3640 C3642 1.356 . S
N3640 H3652 0.984 . S
N3640 H3653 0.985 . S
N3641 C3643 1.356 1_565 S
N3641 H3646 0.984 1_565 S
N3641 H3647 0.985 . S
C3642 C3636 1.379 . S
C3642 C3639 1.363 . S
C3642 N3640 1.356 . S
C3643 C3637 1.363 . S
C3643 C3638 1.379 . S
C3643 N3641 1.356 1_545 S
N3644 C3636 1.356 . S
N3644 H3650 0.984 . S
N3644 H3651 0.984 . S
N3645 C3638 1.356 1_565 S
N3645 H3648 0.984 1_565 S
N3645 H3649 0.985 . S
H3646 N3641 0.984 1_545 S
H3647 N3641 0.985 . S
H3648 N3645 0.984 1_545 S
H3649 N3645 0.985 . S
H3650 N3644 0.984 . S
H3651 N3644 0.984 . S
H3652 N3640 0.984 . S
H3653 N3640 0.985 . S
C3654 C3655 1.363 . S
C3654 C3660 1.379 . S
C3654 N3662 1.356 . S
C3655 C3654 1.363 . S
C3655 C3661 1.363 . S
C3656 C3657 1.363 . S
C3656 C3661 1.379 . S
C3656 N3663 1.356 . S
C3657 C3656 1.363 . S
C3657 C3660 1.363 . S
N3658 C3660 1.356 . S
N3658 H3670 0.984 . S
N3658 H3671 0.985 . S
N3659 C3661 1.356 . S
N3659 H3664 0.984 . S
N3659 H3665 0.985 . S
C3660 C3654 1.379 . S
C3660 C3657 1.363 . S
C3660 N3658 1.356 . S
C3661 C3655 1.363 . S
C3661 C3656 1.379 . S
C3661 N3659 1.356 . S
N3662 C3654 1.356 . S
N3662 H3668 0.984 . S
N3662 H3669 0.984 . S
N3663 C3656 1.356 . S
N3663 H3666 0.984 . S
N3663 H3667 0.985 . S
H3664 N3659 0.984 . S
H3665 N3659 0.985 . S
H3666 N3663 0.984 . S
H3667 N3663 0.985 . S
H3668 N3662 0.984 . S
H3669 N3662 0.984 . S
H3670 N3658 0.984 . S
H3671 N3658 0.985 . S
C3672 C3673 1.363 . S
C3672 C3678 1.379 . S
C3672 N3680 1.356 . S
C3673 C3672 1.363 . S
C3673 C3679 1.363 . S
C3674 C3675 1.363 . S
C3674 C3679 1.379 . S
C3674 N3681 1.356 . S
C3675 C3674 1.363 . S
C3675 C3678 1.363 . S
N3676 C3678 1.356 . S
N3676 H3688 0.984 . S
N3676 H3689 0.985 . S
N3677 C3679 1.356 . S
N3677 H3682 0.984 . S
N3677 H3683 0.985 . S
C3678 C3672 1.379 . S
C3678 C3675 1.363 . S
C3678 N3676 1.356 . S
C3679 C3673 1.363 . S
C3679 C3674 1.379 . S
C3679 N3677 1.356 . S
N3680 C3672 1.356 . S
N3680 H3686 0.984 . S
N3680 H3687 0.984 . S
N3681 C3674 1.356 . S
N3681 H3684 0.984 . S
N3681 H3685 0.985 . S
H3682 N3677 0.984 . S
H3683 N3677 0.985 . S
H3684 N3681 0.984 . S
H3685 N3681 0.985 . S
H3686 N3680 0.984 . S
H3687 N3680 0.984 . S
H3688 N3676 0.984 . S
H3689 N3676 0.985 . S
C3690 C3691 1.363 . S
C3690 C3696 1.379 . S
C3690 N3698 1.356 . S
C3691 C3690 1.363 . S
C3691 C3697 1.363 . S
C3692 C3693 1.363 . S
C3692 C3697 1.379 . S
C3692 N3699 1.356 . S
C3693 C3692 1.363 . S
C3693 C3696 1.363 . S
N3694 C3696 1.356 . S
N3694 H3706 0.984 . S
N3694 H3707 0.985 . S
N3695 C3697 1.356 . S
N3695 H3700 0.984 . S
N3695 H3701 0.985 . S
C3696 C3690 1.379 . S
C3696 C3693 1.363 . S
C3696 N3694 1.356 . S
C3697 C3691 1.363 . S
C3697 C3692 1.379 . S
C3697 N3695 1.356 . S
N3698 C3690 1.356 . S
N3698 H3704 0.984 . S
N3698 H3705 0.984 . S
N3699 C3692 1.356 . S
N3699 H3702 0.984 . S
N3699 H3703 0.985 . S
H3700 N3695 0.984 . S
H3701 N3695 0.985 . S
H3702 N3699 0.984 . S
H3703 N3699 0.985 . S
H3704 N3698 0.984 . S
H3705 N3698 0.984 . S
H3706 N3694 0.984 . S
H3707 N3694 0.985 . S
C3708 C3709 1.363 . S
C3708 C3714 1.379 . S
C3708 N3716 1.356 . S
C3709 C3708 1.363 . S
C3709 C3715 1.363 . S
C3710 C3711 1.363 . S
C3710 C3715 1.379 . S
C3710 N3717 1.356 . S
C3711 C3710 1.363 . S
C3711 C3714 1.363 . S
N3712 C3714 1.356 . S
N3712 H3724 1.016 . S
N3712 H3725 0.985 . S
N3713 C3715 1.356 . S
N3713 H3718 0.984 . S
N3713 H3719 0.985 . S
C3714 C3708 1.379 . S
C3714 C3711 1.363 . S
C3714 N3712 1.356 . S
C3715 C3709 1.363 . S
C3715 C3710 1.379 . S
C3715 N3713 1.356 . S
N3716 C3708 1.356 . S
N3716 H3722 0.987 . S
N3716 H3723 0.984 . S
N3717 C3710 1.356 . S
N3717 H3720 0.984 . S
N3717 H3721 0.985 . S
H3718 N3713 0.984 . S
H3719 N3713 0.985 . S
H3720 N3717 0.984 . S
H3721 N3717 0.985 . S
H3722 N3716 0.987 . S
H3723 N3716 0.984 . S
H3724 N3712 1.016 . S
H3725 N3712 0.985 . S
C3726 C3727 1.363 . S
C3726 C3732 1.379 . S
C3726 N3734 1.356 . S
C3727 C3726 1.363 . S
C3727 C3733 1.363 . S
C3728 C3729 1.363 . S
C3728 C3733 1.379 . S
C3728 N3735 1.356 . S
C3729 C3728 1.363 . S
C3729 C3732 1.363 . S
N3730 C3732 1.356 . S
N3730 H3742 0.984 . S
N3730 H3743 0.985 . S
N3731 C3733 1.356 . S
N3731 H3736 0.984 . S
N3731 H3737 0.985 . S
C3732 C3726 1.379 . S
C3732 C3729 1.363 . S
C3732 N3730 1.356 . S
C3733 C3727 1.363 . S
C3733 C3728 1.379 . S
C3733 N3731 1.356 . S
N3734 C3726 1.356 . S
N3734 H3740 0.984 . S
N3734 H3741 0.984 . S
N3735 C3728 1.356 . S
N3735 H3738 0.984 . S
N3735 H3739 0.985 . S
H3736 N3731 0.984 . S
H3737 N3731 0.985 . S
H3738 N3735 0.984 . S
H3739 N3735 0.985 . S
H3740 N3734 0.984 . S
H3741 N3734 0.984 . S
H3742 N3730 0.984 . S
H3743 N3730 0.985 . S
C3744 C3745 1.363 1_565 S
C3744 C3750 1.379 . S
C3744 N3752 1.356 . S
C3745 C3744 1.363 1_545 S
C3745 C3751 1.363 . S
C3746 C3747 1.363 . S
C3746 C3751 1.379 . S
C3746 N3753 1.356 . S
C3747 C3746 1.363 . S
C3747 C3750 1.363 1_545 S
N3748 C3750 1.356 . S
N3748 H3760 0.984 . S
N3748 H3761 0.985 . S
N3749 C3751 1.356 . S
N3749 H3754 0.984 . S
N3749 H3755 0.985 . S
C3750 C3744 1.379 . S
C3750 C3747 1.363 1_565 S
C3750 N3748 1.356 . S
C3751 C3745 1.363 . S
C3751 C3746 1.379 . S
C3751 N3749 1.356 . S
N3752 C3744 1.356 . S
N3752 H3758 0.984 . S
N3752 H3759 0.984 . S
N3753 C3746 1.356 . S
N3753 H3756 0.984 . S
N3753 H3757 0.985 . S
H3754 N3749 0.984 . S
H3755 N3749 0.985 . S
H3756 N3753 0.984 . S
H3757 N3753 0.985 . S
H3758 N3752 0.984 . S
H3759 N3752 0.984 . S
H3760 N3748 0.984 . S
H3761 N3748 0.985 . S
C3762 C3763 1.363 1_554 S
C3762 C3768 1.379 . S
C3762 N3770 1.356 . S
C3763 C3762 1.363 1_556 S
C3763 C3769 1.363 . S
C3764 C3765 1.363 . S
C3764 C3769 1.379 . S
C3764 N3771 1.356 . S
C3765 C3764 1.363 . S
C3765 C3768 1.363 1_556 S
N3766 C3768 1.356 . S
N3766 H3778 0.984 . S
N3766 H3779 0.985 . S
N3767 C3769 1.356 . S
N3767 H3772 0.984 . S
N3767 H3773 0.985 . S
C3768 C3762 1.379 . S
C3768 C3765 1.363 1_554 S
C3768 N3766 1.356 . S
C3769 C3763 1.363 . S
C3769 C3764 1.379 . S
C3769 N3767 1.356 . S
N3770 C3762 1.356 . S
N3770 H3776 0.984 . S
N3770 H3777 0.984 . S
N3771 C3764 1.356 . S
N3771 H3774 0.984 . S
N3771 H3775 0.985 . S
H3772 N3767 0.984 . S
H3773 N3767 0.985 . S
H3774 N3771 0.984 . S
H3775 N3771 0.985 . S
H3776 N3770 0.984 . S
H3777 N3770 0.984 . S
H3778 N3766 0.984 . S
H3779 N3766 0.985 . S
C3780 C3781 1.363 . S
C3780 C3786 1.379 . S
C3780 N3788 1.356 . S
C3781 C3780 1.363 . S
C3781 C3787 1.363 . S
C3782 C3783 1.363 . S
C3782 C3787 1.379 . S
C3782 N3789 1.356 . S
C3783 C3782 1.363 . S
C3783 C3786 1.363 . S
N3784 C3786 1.356 . S
N3784 H3796 0.984 . S
N3784 H3797 0.985 . S
N3785 C3787 1.356 . S
N3785 H3790 0.984 . S
N3785 H3791 0.985 . S
C3786 C3780 1.379 . S
C3786 C3783 1.363 . S
C3786 N3784 1.356 . S
C3787 C3781 1.363 . S
C3787 C3782 1.379 . S
C3787 N3785 1.356 . S
N3788 C3780 1.356 . S
N3788 H3794 0.984 . S
N3788 H3795 0.984 . S
N3789 C3782 1.356 . S
N3789 H3792 0.984 . S
N3789 H3793 0.985 . S
H3790 N3785 0.984 . S
H3791 N3785 0.985 . S
H3792 N3789 0.984 . S
H3793 N3789 0.985 . S
H3794 N3788 0.984 . S
H3795 N3788 0.984 . S
H3796 N3784 0.984 . S
H3797 N3784 0.985 . S
C3798 C3799 1.363 . S
C3798 C3804 1.379 . S
C3798 N3806 1.356 . S
C3799 C3798 1.363 . S
C3799 C3805 1.363 . S
C3800 C3801 1.363 1_655 S
C3800 C3805 1.379 . S
C3800 N3807 1.356 1_655 S
C3801 C3800 1.363 1_455 S
C3801 C3804 1.363 1_455 S
N3802 C3804 1.356 1_455 S
N3802 H3814 0.984 . S
N3802 H3815 0.985 . S
N3803 C3805 1.356 . S
N3803 H3808 0.984 . S
N3803 H3809 0.985 . S
C3804 C3798 1.379 . S
C3804 C3801 1.363 1_655 S
C3804 N3802 1.356 1_655 S
C3805 C3799 1.363 . S
C3805 C3800 1.379 . S
C3805 N3803 1.356 . S
N3806 C3798 1.356 . S
N3806 H3812 0.984 . S
N3806 H3813 0.984 . S
N3807 C3800 1.356 1_455 S
N3807 H3810 0.984 . S
N3807 H3811 0.985 . S
H3808 N3803 0.984 . S
H3809 N3803 0.985 . S
H3810 N3807 0.984 . S
H3811 N3807 0.985 . S
H3812 N3806 0.984 . S
H3813 N3806 0.984 . S
H3814 N3802 0.984 . S
H3815 N3802 0.985 . S
C3816 C3817 1.363 . S
C3816 C3822 1.379 . S
C3816 N3824 1.356 . S
C3817 C3816 1.363 . S
C3817 C3823 1.363 . S
C3818 C3819 1.363 . S
C3818 C3823 1.379 . S
C3818 N3825 1.356 . S
C3819 C3818 1.363 . S
C3819 C3822 1.363 . S
N3820 C3822 1.356 . S
N3820 H3832 0.984 . S
N3820 H3833 0.985 . S
N3821 C3823 1.356 . S
N3821 H3826 0.984 . S
N3821 H3827 0.985 . S
C3822 C3816 1.379 . S
C3822 C3819 1.363 . S
C3822 N3820 1.356 . S
C3823 C3817 1.363 . S
C3823 C3818 1.379 . S
C3823 N3821 1.356 . S
N3824 C3816 1.356 . S
N3824 H3830 0.984 . S
N3824 H3831 0.984 . S
N3825 C3818 1.356 . S
N3825 H3828 0.984 . S
N3825 H3829 0.985 . S
H3826 N3821 0.984 . S
H3827 N3821 0.985 . S
H3828 N3825 0.984 . S
H3829 N3825 0.985 . S
H3830 N3824 0.984 . S
H3831 N3824 0.984 . S
H3832 N3820 0.984 . S
H3833 N3820 0.985 . S
C3834 C3835 1.363 . S
C3834 C3840 1.379 . S
C3834 N3842 1.356 . S
C3835 C3834 1.363 . S
C3835 C3841 1.363 . S
C3836 C3837 1.363 . S
C3836 C3841 1.379 . S
C3836 N3843 1.356 . S
C3837 C3836 1.363 . S
C3837 C3840 1.363 . S
N3838 C3840 1.356 . S
N3838 H3850 0.984 . S
N3838 H3851 0.985 . S
N3839 C3841 1.356 . S
N3839 H3844 0.984 . S
N3839 H3845 0.985 . S
C3840 C3834 1.379 . S
C3840 C3837 1.363 . S
C3840 N3838 1.356 . S
C3841 C3835 1.363 . S
C3841 C3836 1.379 . S
C3841 N3839 1.356 . S
N3842 C3834 1.356 . S
N3842 H3848 0.984 . S
N3842 H3849 0.984 . S
N3843 C3836 1.356 . S
N3843 H3846 0.984 . S
N3843 H3847 0.985 . S
H3844 N3839 0.984 . S
H3845 N3839 0.985 . S
H3846 N3843 0.984 . S
H3847 N3843 0.985 . S
H3848 N3842 0.984 . S
H3849 N3842 0.984 . S
H3850 N3838 0.984 . S
H3851 N3838 0.985 . S
C3852 C3853 1.363 . S
C3852 C3858 1.379 . S
C3852 N3860 1.356 . S
C3853 C3852 1.363 . S
C3853 C3859 1.363 . S
C3854 C3855 1.363 . S
C3854 C3859 1.379 . S
C3854 N3861 1.356 . S
C3855 C3854 1.363 . S
C3855 C3858 1.363 . S
N3856 C3858 1.356 . S
N3856 H3868 0.984 . S
N3856 H3869 0.985 . S
N3857 C3859 1.356 . S
N3857 H3862 0.984 . S
N3857 H3863 0.985 . S
C3858 C3852 1.379 . S
C3858 C3855 1.363 . S
C3858 N3856 1.356 . S
C3859 C3853 1.363 . S
C3859 C3854 1.379 . S
C3859 N3857 1.356 . S
N3860 C3852 1.356 . S
N3860 H3866 0.984 . S
N3860 H3867 0.984 . S
N3861 C3854 1.356 . S
N3861 H3864 0.984 . S
N3861 H3865 0.985 . S
H3862 N3857 0.984 . S
H3863 N3857 0.985 . S
H3864 N3861 0.984 . S
H3865 N3861 0.985 . S
H3866 N3860 0.984 . S
H3867 N3860 0.984 . S
H3868 N3856 0.984 . S
H3869 N3856 0.985 . S
C3870 C3871 1.363 . S
C3870 C3876 1.379 . S
C3870 N3878 1.356 . S
C3871 C3870 1.363 . S
C3871 C3877 1.363 . S
C3872 C3873 1.363 . S
C3872 C3877 1.379 . S
C3872 N3879 1.356 . S
C3873 C3872 1.363 . S
C3873 C3876 1.363 . S
N3874 C3876 1.356 . S
N3874 H3886 0.984 . S
N3874 H3887 0.985 . S
N3875 C3877 1.356 . S
N3875 H3880 0.984 . S
N3875 H3881 0.985 . S
C3876 C3870 1.379 . S
C3876 C3873 1.363 . S
C3876 N3874 1.356 . S
C3877 C3871 1.363 . S
C3877 C3872 1.379 . S
C3877 N3875 1.356 . S
N3878 C3870 1.356 . S
N3878 H3884 0.984 . S
N3878 H3885 0.984 . S
N3879 C3872 1.356 . S
N3879 H3882 0.984 . S
N3879 H3883 0.985 . S
H3880 N3875 0.984 . S
H3881 N3875 0.985 . S
H3882 N3879 0.984 . S
H3883 N3879 0.985 . S
H3884 N3878 0.984 . S
H3885 N3878 0.984 . S
H3886 N3874 0.984 . S
H3887 N3874 0.985 . S
C3888 C3889 1.363 . S
C3888 C3894 1.379 . S
C3888 N3896 1.356 1_554 S
C3889 C3888 1.363 . S
C3889 C3895 1.363 . S
C3890 C3891 1.363 . S
C3890 C3895 1.379 . S
C3890 N3897 1.356 . S
C3891 C3890 1.363 . S
C3891 C3894 1.363 . S
N3892 C3894 1.356 1_556 S
N3892 H3904 0.984 . S
N3892 H3905 0.985 . S
N3893 C3895 1.356 . S
N3893 H3898 0.984 . S
N3893 H3899 0.985 . S
C3894 C3888 1.379 . S
C3894 C3891 1.363 . S
C3894 N3892 1.356 1_554 S
C3895 C3889 1.363 . S
C3895 C3890 1.379 . S
C3895 N3893 1.356 . S
N3896 C3888 1.356 1_556 S
N3896 H3902 0.984 . S
N3896 H3903 0.984 1_556 S
N3897 C3890 1.356 . S
N3897 H3900 0.984 . S
N3897 H3901 0.985 . S
H3898 N3893 0.984 . S
H3899 N3893 0.985 . S
H3900 N3897 0.984 . S
H3901 N3897 0.985 . S
H3902 N3896 0.984 . S
H3903 N3896 0.984 1_554 S
H3904 N3892 0.984 . S
H3905 N3892 0.985 . S
C3906 C3907 1.363 . S
C3906 C3912 1.379 . S
C3906 N3914 1.356 . S
C3907 C3906 1.363 . S
C3907 C3913 1.363 . S
C3908 C3909 1.363 . S
C3908 C3913 1.379 . S
C3908 N3915 1.356 . S
C3909 C3908 1.363 . S
C3909 C3912 1.363 . S
N3910 C3912 1.356 . S
N3910 H3922 0.984 . S
N3910 H3923 0.985 . S
N3911 C3913 1.356 . S
N3911 H3916 0.984 . S
N3911 H3917 0.985 . S
C3912 C3906 1.379 . S
C3912 C3909 1.363 . S
C3912 N3910 1.356 . S
C3913 C3907 1.363 . S
C3913 C3908 1.379 . S
C3913 N3911 1.356 . S
N3914 C3906 1.356 . S
N3914 H3920 0.984 . S
N3914 H3921 0.984 . S
N3915 C3908 1.356 . S
N3915 H3918 0.984 . S
N3915 H3919 0.985 . S
H3916 N3911 0.984 . S
H3917 N3911 0.985 . S
H3918 N3915 0.984 . S
H3919 N3915 0.985 . S
H3920 N3914 0.984 . S
H3921 N3914 0.984 . S
H3922 N3910 0.984 . S
H3923 N3910 0.985 . S
C3924 C3925 1.363 . S
C3924 C3930 1.379 . S
C3924 N3932 1.356 . S
C3925 C3924 1.363 . S
C3925 C3931 1.363 . S
C3926 C3927 1.363 . S
C3926 C3931 1.379 . S
C3926 N3933 1.356 . S
C3927 C3926 1.363 . S
C3927 C3930 1.363 . S
N3928 C3930 1.356 . S
N3928 H3940 0.984 . S
N3928 H3941 0.985 . S
N3929 C3931 1.356 . S
N3929 H3934 0.984 . S
N3929 H3935 0.985 . S
C3930 C3924 1.379 . S
C3930 C3927 1.363 . S
C3930 N3928 1.356 . S
C3931 C3925 1.363 . S
C3931 C3926 1.379 . S
C3931 N3929 1.356 . S
N3932 C3924 1.356 . S
N3932 H3938 0.984 . S
N3932 H3939 0.984 . S
N3933 C3926 1.356 . S
N3933 H3936 0.984 . S
N3933 H3937 0.985 . S
H3934 N3929 0.984 . S
H3935 N3929 0.985 . S
H3936 N3933 0.984 . S
H3937 N3933 0.985 . S
H3938 N3932 0.984 . S
H3939 N3932 0.984 . S
H3940 N3928 0.984 . S
H3941 N3928 0.985 . S
C3942 C3943 1.363 . S
C3942 C3948 1.379 . S
C3942 N3950 1.356 . S
C3943 C3942 1.363 . S
C3943 C3949 1.363 . S
C3944 C3945 1.363 . S
C3944 C3949 1.379 . S
C3944 N3951 1.356 . S
C3945 C3944 1.363 . S
C3945 C3948 1.363 . S
N3946 C3948 1.356 . S
N3946 H3958 0.984 . S
N3946 H3959 0.985 . S
N3947 C3949 1.356 . S
N3947 H3952 0.984 . S
N3947 H3953 0.985 . S
C3948 C3942 1.379 . S
C3948 C3945 1.363 . S
C3948 N3946 1.356 . S
C3949 C3943 1.363 . S
C3949 C3944 1.379 . S
C3949 N3947 1.356 . S
N3950 C3942 1.356 . S
N3950 H3956 0.984 . S
N3950 H3957 0.984 . S
N3951 C3944 1.356 . S
N3951 H3954 0.984 . S
N3951 H3955 0.985 . S
H3952 N3947 0.984 . S
H3953 N3947 0.985 . S
H3954 N3951 0.984 . S
H3955 N3951 0.985 . S
H3956 N3950 0.984 . S
H3957 N3950 0.984 . S
H3958 N3946 0.984 . S
H3959 N3946 0.985 . S
C3960 C3961 1.363 . S
C3960 C3966 1.379 . S
C3960 N3968 1.356 . S
C3961 C3960 1.363 . S
C3961 C3967 1.363 . S
C3962 C3963 1.363 . S
C3962 C3967 1.379 . S
C3962 N3969 1.356 . S
C3963 C3962 1.363 . S
C3963 C3966 1.363 . S
N3964 C3966 1.356 . S
N3964 H3976 0.984 . S
N3964 H3977 0.985 . S
N3965 C3967 1.356 . S
N3965 H3970 0.984 . S
N3965 H3971 0.985 . S
C3966 C3960 1.379 . S
C3966 C3963 1.363 . S
C3966 N3964 1.356 . S
C3967 C3961 1.363 . S
C3967 C3962 1.379 . S
C3967 N3965 1.356 . S
N3968 C3960 1.356 . S
N3968 H3974 0.984 . S
N3968 H3975 0.984 . S
N3969 C3962 1.356 . S
N3969 H3972 0.984 . S
N3969 H3973 0.985 . S
H3970 N3965 0.984 . S
H3971 N3965 0.985 . S
H3972 N3969 0.984 . S
H3973 N3969 0.985 . S
H3974 N3968 0.984 . S
H3975 N3968 0.984 . S
H3976 N3964 0.984 . S
H3977 N3964 0.985 . S
C3978 C3979 1.363 . S
C3978 C3984 1.379 . S
C3978 N3986 1.356 . S
C3979 C3978 1.363 . S
C3979 C3985 1.363 . S
C3980 C3981 1.363 . S
C3980 C3985 1.379 . S
C3980 N3987 1.356 . S
C3981 C3980 1.363 . S
C3981 C3984 1.363 . S
N3982 C3984 1.356 . S
N3982 H3994 0.984 . S
N3982 H3995 0.985 . S
N3983 C3985 1.356 . S
N3983 H3988 0.984 . S
N3983 H3989 0.985 . S
C3984 C3978 1.379 . S
C3984 C3981 1.363 . S
C3984 N3982 1.356 . S
C3985 C3979 1.363 . S
C3985 C3980 1.379 . S
C3985 N3983 1.356 . S
N3986 C3978 1.356 . S
N3986 H3992 0.984 . S
N3986 H3993 0.984 . S
N3987 C3980 1.356 . S
N3987 H3990 0.984 . S
N3987 H3991 0.985 . S
H3988 N3983 0.984 . S
H3989 N3983 0.985 . S
H3990 N3987 0.984 . S
H3991 N3987 0.985 . S
H3992 N3986 0.984 . S
H3993 N3986 0.984 . S
H3994 N3982 0.984 . S
H3995 N3982 0.985 . S
C3996 C3997 1.363 . S
C3996 C4002 1.379 . S
C3996 N4004 1.356 . S
C3997 C3996 1.363 . S
C3997 C4003 1.363 . S
C3998 C3999 1.363 . S
C3998 C4003 1.379 . S
C3998 N4005 1.356 1_556 S
C3999 C3998 1.363 . S
C3999 C4002 1.363 . S
N4000 C4002 1.356 1_545 S
N4000 H4012 0.984 . S
N4000 H4013 0.985 . S
N4001 C4003 1.356 . S
N4001 H4006 0.984 . S
N4001 H4007 0.985 . S
C4002 C3996 1.379 . S
C4002 C3999 1.363 . S
C4002 N4000 1.356 1_565 S
C4003 C3997 1.363 . S
C4003 C3998 1.379 . S
C4003 N4001 1.356 . S
N4004 C3996 1.356 . S
N4004 H4010 0.984 1_565 S
N4004 H4011 0.984 . S
N4005 C3998 1.356 1_554 S
N4005 H4008 0.984 . S
N4005 H4009 0.985 . S
H4006 N4001 0.984 . S
H4007 N4001 0.985 . S
H4008 N4005 0.984 . S
H4009 N4005 0.985 . S
H4010 N4004 0.984 1_545 S
H4011 N4004 0.984 . S
H4012 N4000 0.984 . S
H4013 N4000 0.985 . S
C4014 C4015 1.363 . S
C4014 C4020 1.379 . S
C4014 N4022 1.356 . S
C4015 C4014 1.363 . S
C4015 C4021 1.363 . S
C4016 C4017 1.363 . S
C4016 C4021 1.379 . S
C4016 N4023 1.356 . S
C4017 C4016 1.363 . S
C4017 C4020 1.363 . S
N4018 C4020 1.356 . S
N4018 H4030 0.984 . S
N4018 H4031 0.985 . S
N4019 C4021 1.356 . S
N4019 H4024 0.984 . S
N4019 H4025 0.985 . S
C4020 C4014 1.379 . S
C4020 C4017 1.363 . S
C4020 N4018 1.356 . S
C4021 C4015 1.363 . S
C4021 C4016 1.379 . S
C4021 N4019 1.356 . S
N4022 C4014 1.356 . S
N4022 H4028 0.984 . S
N4022 H4029 0.984 . S
N4023 C4016 1.356 . S
N4023 H4026 0.984 . S
N4023 H4027 0.985 . S
H4024 N4019 0.984 . S
H4025 N4019 0.985 . S
H4026 N4023 0.984 . S
H4027 N4023 0.985 . S
H4028 N4022 0.984 . S
H4029 N4022 0.984 . S
H4030 N4018 0.984 . S
H4031 N4018 0.985 . S
C4032 C4033 1.363 1_565 S
C4032 C4038 1.379 . S
C4032 N4040 1.356 . S
C4033 C4032 1.363 1_545 S
C4033 C4039 1.363 . S
C4034 C4035 1.363 . S
C4034 C4039 1.379 . S
C4034 N4041 1.356 . S
C4035 C4034 1.363 . S
C4035 C4038 1.363 1_545 S
N4036 C4038 1.356 . S
N4036 H4048 0.984 . S
N4036 H4049 0.985 . S
N4037 C4039 1.356 . S
N4037 H4042 0.984 . S
N4037 H4043 0.985 . S
C4038 C4032 1.379 . S
C4038 C4035 1.363 1_565 S
C4038 N4036 1.356 . S
C4039 C4033 1.363 . S
C4039 C4034 1.379 . S
C4039 N4037 1.356 . S
N4040 C4032 1.356 . S
N4040 H4046 0.984 . S
N4040 H4047 0.984 . S
N4041 C4034 1.356 . S
N4041 H4044 0.984 . S
N4041 H4045 0.985 . S
H4042 N4037 0.984 . S
H4043 N4037 0.985 . S
H4044 N4041 0.984 . S
H4045 N4041 0.985 . S
H4046 N4040 0.984 . S
H4047 N4040 0.984 . S
H4048 N4036 0.984 . S
H4049 N4036 0.985 . S
C4050 C4051 1.363 . S
C4050 C4056 1.379 . S
C4050 N4058 1.356 . S
C4051 C4050 1.363 . S
C4051 C4057 1.363 . S
C4052 C4053 1.363 . S
C4052 C4057 1.379 . S
C4052 N4059 1.356 . S
C4053 C4052 1.363 . S
C4053 C4056 1.363 . S
N4054 C4056 1.356 . S
N4054 H4066 0.984 . S
N4054 H4067 0.985 . S
N4055 C4057 1.356 . S
N4055 H4060 0.984 . S
N4055 H4061 0.985 . S
C4056 C4050 1.379 . S
C4056 C4053 1.363 . S
C4056 N4054 1.356 . S
C4057 C4051 1.363 . S
C4057 C4052 1.379 . S
C4057 N4055 1.356 . S
N4058 C4050 1.356 . S
N4058 H4064 0.984 . S
N4058 H4065 0.984 . S
N4059 C4052 1.356 . S
N4059 H4062 0.984 . S
N4059 H4063 0.985 . S
H4060 N4055 0.984 . S
H4061 N4055 0.985 . S
H4062 N4059 0.984 . S
H4063 N4059 0.985 . S
H4064 N4058 0.984 . S
H4065 N4058 0.984 . S
H4066 N4054 0.984 . S
H4067 N4054 0.985 . S
C4068 C4069 1.363 . S
C4068 C4074 1.379 . S
C4068 N4076 1.356 . S
C4069 C4068 1.363 . S
C4069 C4075 1.363 . S
C4070 C4071 1.363 . S
C4070 C4075 1.379 . S
C4070 N4077 1.356 . S
C4071 C4070 1.363 . S
C4071 C4074 1.363 . S
N4072 C4074 1.356 . S
N4072 H4084 0.984 . S
N4072 H4085 0.985 . S
N4073 C4075 1.356 . S
N4073 H4078 0.984 . S
N4073 H4079 0.985 . S
C4074 C4068 1.379 . S
C4074 C4071 1.363 . S
C4074 N4072 1.356 . S
C4075 C4069 1.363 . S
C4075 C4070 1.379 . S
C4075 N4073 1.356 . S
N4076 C4068 1.356 . S
N4076 H4082 0.984 . S
N4076 H4083 0.984 . S
N4077 C4070 1.356 . S
N4077 H4080 0.984 . S
N4077 H4081 0.985 . S
H4078 N4073 0.984 . S
H4079 N4073 0.985 . S
H4080 N4077 0.984 . S
H4081 N4077 0.985 . S
H4082 N4076 0.984 . S
H4083 N4076 0.984 . S
H4084 N4072 0.984 . S
H4085 N4072 0.985 . S
C4086 C4087 1.363 . S
C4086 C4092 1.379 . S
C4086 N4094 1.356 . S
C4087 C4086 1.363 . S
C4087 C4093 1.363 . S
C4088 C4089 1.363 . S
C4088 C4093 1.379 . S
C4088 N4095 1.356 . S
C4089 C4088 1.363 . S
C4089 C4092 1.363 . S
N4090 C4092 1.356 . S
N4090 H4102 0.984 . S
N4090 H4103 0.985 . S
N4091 C4093 1.356 . S
N4091 H4096 0.984 . S
N4091 H4097 0.985 . S
C4092 C4086 1.379 . S
C4092 C4089 1.363 . S
C4092 N4090 1.356 . S
C4093 C4087 1.363 . S
C4093 C4088 1.379 . S
C4093 N4091 1.356 . S
N4094 C4086 1.356 . S
N4094 H4100 0.984 . S
N4094 H4101 0.984 . S
N4095 C4088 1.356 . S
N4095 H4098 0.984 . S
N4095 H4099 0.985 . S
H4096 N4091 0.984 . S
H4097 N4091 0.985 . S
H4098 N4095 0.984 . S
H4099 N4095 0.985 . S
H4100 N4094 0.984 . S
H4101 N4094 0.984 . S
H4102 N4090 0.984 . S
H4103 N4090 0.985 . S
C4104 C4105 1.363 1_545 S
C4104 C4110 1.379 . S
C4104 N4112 1.356 1_545 S
C4105 C4104 1.363 1_565 S
C4105 C4111 1.363 . S
C4106 C4107 1.363 . S
C4106 C4111 1.379 1_545 S
C4106 N4113 1.356 . S
C4107 C4106 1.363 . S
C4107 C4110 1.363 . S
N4108 C4110 1.356 . S
N4108 H4120 0.984 . S
N4108 H4121 0.985 . S
N4109 C4111 1.356 . S
N4109 H4114 0.984 . S
N4109 H4115 0.985 . S
C4110 C4104 1.379 . S
C4110 C4107 1.363 . S
C4110 N4108 1.356 . S
C4111 C4105 1.363 . S
C4111 C4106 1.379 1_565 S
C4111 N4109 1.356 . S
N4112 C4104 1.356 1_565 S
N4112 H4118 0.978 1_565 S
N4112 H4119 0.984 . S
N4113 C4106 1.356 . S
N4113 H4116 0.984 . S
N4113 H4117 0.985 . S
H4114 N4109 0.984 . S
H4115 N4109 0.985 . S
H4116 N4113 0.984 . S
H4117 N4113 0.985 . S
H4118 N4112 0.978 1_545 S
H4119 N4112 0.984 . S
H4120 N4108 0.984 . S
H4121 N4108 0.985 . S
C4122 C4123 1.363 . S
C4122 C4128 1.379 . S
C4122 N4130 1.356 . S
C4123 C4122 1.363 . S
C4123 C4129 1.363 . S
C4124 C4125 1.363 . S
C4124 C4129 1.379 . S
C4124 N4131 1.356 . S
C4125 C4124 1.363 . S
C4125 C4128 1.363 . S
N4126 C4128 1.356 . S
N4126 H4138 0.984 . S
N4126 H4139 0.985 . S
N4127 C4129 1.356 . S
N4127 H4132 0.984 . S
N4127 H4133 0.985 . S
C4128 C4122 1.379 . S
C4128 C4125 1.363 . S
C4128 N4126 1.356 . S
C4129 C4123 1.363 . S
C4129 C4124 1.379 . S
C4129 N4127 1.356 . S
N4130 C4122 1.356 . S
N4130 H4136 0.984 . S
N4130 H4137 0.984 . S
N4131 C4124 1.356 . S
N4131 H4134 0.984 . S
N4131 H4135 0.985 . S
H4132 N4127 0.984 . S
H4133 N4127 0.985 . S
H4134 N4131 0.984 . S
H4135 N4131 0.985 . S
H4136 N4130 0.984 . S
H4137 N4130 0.984 . S
H4138 N4126 0.984 . S
H4139 N4126 0.985 . S
C4140 C4141 1.363 . S
C4140 C4146 1.375 . S
C4140 N4148 1.356 1_545 S
C4141 C4140 1.363 . S
C4141 C4147 1.363 . S
C4142 C4143 1.363 . S
C4142 C4147 1.379 . S
C4142 N4149 1.356 . S
C4143 C4142 1.363 . S
C4143 C4146 1.401 . S
N4144 C4146 1.332 1_565 S
N4144 H4156 0.984 . S
N4144 H4157 0.985 . S
N4145 C4147 1.356 . S
N4145 H4150 0.984 . S
N4145 H4151 0.985 . S
C4146 C4140 1.375 . S
C4146 C4143 1.401 . S
C4146 N4144 1.332 1_545 S
C4147 C4141 1.363 . S
C4147 C4142 1.379 . S
C4147 N4145 1.356 . S
N4148 C4140 1.356 1_565 S
N4148 H4154 0.984 . S
N4148 H4155 0.984 . S
N4149 C4142 1.356 . S
N4149 H4152 0.984 . S
N4149 H4153 0.985 . S
H4150 N4145 0.984 . S
H4151 N4145 0.985 . S
H4152 N4149 0.984 . S
H4153 N4149 0.985 . S
H4154 N4148 0.984 . S
H4155 N4148 0.984 . S
H4156 N4144 0.984 . S
H4157 N4144 0.985 . S
C4158 C4159 1.363 . S
C4158 C4164 1.379 . S
C4158 N4166 1.356 . S
C4159 C4158 1.363 . S
C4159 C4165 1.363 . S
C4160 C4161 1.363 . S
C4160 C4165 1.379 . S
C4160 N4167 1.356 . S
C4161 C4160 1.363 . S
C4161 C4164 1.363 . S
N4162 C4164 1.356 . S
N4162 H4174 0.984 . S
N4162 H4175 0.985 . S
N4163 C4165 1.356 . S
N4163 H4168 0.984 . S
N4163 H4169 0.985 . S
C4164 C4158 1.379 . S
C4164 C4161 1.363 . S
C4164 N4162 1.356 . S
C4165 C4159 1.363 . S
C4165 C4160 1.379 . S
C4165 N4163 1.356 . S
N4166 C4158 1.356 . S
N4166 H4172 0.984 . S
N4166 H4173 0.984 . S
N4167 C4160 1.356 . S
N4167 H4170 0.984 . S
N4167 H4171 0.985 . S
H4168 N4163 0.984 . S
H4169 N4163 0.985 . S
H4170 N4167 0.984 . S
H4171 N4167 0.985 . S
H4172 N4166 0.984 . S
H4173 N4166 0.984 . S
H4174 N4162 0.984 . S
H4175 N4162 0.985 . S
C4176 C4177 1.363 . S
C4176 C4182 1.379 . S
C4176 N4184 1.356 . S
C4177 C4176 1.363 . S
C4177 C4183 1.363 1_554 S
C4178 C4179 1.363 1_556 S
C4178 C4183 1.379 . S
C4178 N4185 1.356 . S
C4179 C4178 1.363 1_554 S
C4179 C4182 1.363 . S
N4180 C4182 1.356 . S
N4180 H4192 0.984 . S
N4180 H4193 0.985 . S
N4181 C4183 1.356 . S
N4181 H4186 0.984 . S
N4181 H4187 0.985 . S
C4182 C4176 1.379 . S
C4182 C4179 1.363 . S
C4182 N4180 1.356 . S
C4183 C4177 1.363 1_556 S
C4183 C4178 1.379 . S
C4183 N4181 1.356 . S
N4184 C4176 1.356 . S
N4184 H4190 0.984 . S
N4184 H4191 0.984 . S
N4185 C4178 1.356 . S
N4185 H4188 0.984 . S
N4185 H4189 0.985 . S
H4186 N4181 0.984 . S
H4187 N4181 0.985 . S
H4188 N4185 0.984 . S
H4189 N4185 0.985 . S
H4190 N4184 0.984 . S
H4191 N4184 0.984 . S
H4192 N4180 0.984 . S
H4193 N4180 0.985 . S
C4194 C4195 1.363 . S
C4194 C4200 1.379 . S
C4194 N4202 1.356 . S
C4195 C4194 1.363 . S
C4195 C4201 1.363 . S
C4196 C4197 1.363 . S
C4196 C4201 1.379 . S
C4196 N4203 1.356 . S
C4197 C4196 1.363 . S
C4197 C4200 1.363 . S
N4198 C4200 1.356 . S
N4198 H4210 0.984 1_554 S
N4198 H4211 0.985 . S
N4199 C4201 1.356 . S
N4199 H4204 0.984 . S
N4199 H4205 0.985 . S
C4200 C4194 1.379 . S
C4200 C4197 1.363 . S
C4200 N4198 1.356 . S
C4201 C4195 1.363 . S
C4201 C4196 1.379 . S
C4201 N4199 1.356 . S
N4202 C4194 1.356 . S
N4202 H4208 0.984 1_554 S
N4202 H4209 0.984 . S
N4203 C4196 1.356 . S
N4203 H4206 0.984 . S
N4203 H4207 0.985 . S
H4204 N4199 0.984 . S
H4205 N4199 0.985 . S
H4206 N4203 0.984 . S
H4207 N4203 0.985 . S
H4208 N4202 0.984 1_556 S
H4209 N4202 0.984 . S
H4210 N4198 0.984 1_556 S
H4211 N4198 0.985 . S
C4212 C4213 1.363 . S
C4212 C4218 1.379 . S
C4212 N4220 1.356 . S
C4213 C4212 1.363 . S
C4213 C4219 1.363 . S
C4214 C4215 1.363 . S
C4214 C4219 1.379 . S
C4214 N4221 1.356 . S
C4215 C4214 1.363 . S
C4215 C4218 1.363 . S
N4216 C4218 1.356 . S
N4216 H4228 0.984 . S
N4216 H4229 0.985 . S
N4217 C4219 1.356 . S
N4217 H4222 0.984 . S
N4217 H4223 0.985 . S
C4218 C4212 1.379 . S
C4218 C4215 1.363 . S
C4218 N4216 1.356 . S
C4219 C4213 1.363 . S
C4219 C4214 1.379 . S
C4219 N4217 1.356 . S
N4220 C4212 1.356 . S
N4220 H4226 0.984 . S
N4220 H4227 0.984 . S
N4221 C4214 1.356 . S
N4221 H4224 0.984 . S
N4221 H4225 0.985 . S
H4222 N4217 0.984 . S
H4223 N4217 0.985 . S
H4224 N4221 0.984 . S
H4225 N4221 0.985 . S
H4226 N4220 0.984 . S
H4227 N4220 0.984 . S
H4228 N4216 0.984 . S
H4229 N4216 0.985 . S
C4230 C4231 1.363 . S
C4230 C4236 1.379 . S
C4230 N4238 1.356 . S
C4231 C4230 1.363 . S
C4231 C4237 1.363 . S
C4232 C4233 1.363 . S
C4232 C4237 1.379 . S
C4232 N4239 1.356 . S
C4233 C4232 1.363 . S
C4233 C4236 1.363 . S
N4234 C4236 1.356 . S
N4234 H4246 0.984 . S
N4234 H4247 0.985 . S
N4235 C4237 1.356 . S
N4235 H4240 0.984 . S
N4235 H4241 0.985 . S
C4236 C4230 1.379 . S
C4236 C4233 1.363 . S
C4236 N4234 1.356 . S
C4237 C4231 1.363 . S
C4237 C4232 1.379 . S
C4237 N4235 1.356 . S
N4238 C4230 1.356 . S
N4238 H4244 0.984 . S
N4238 H4245 0.984 . S
N4239 C4232 1.356 . S
N4239 H4242 0.984 . S
N4239 H4243 0.985 . S
H4240 N4235 0.984 . S
H4241 N4235 0.985 . S
H4242 N4239 0.984 . S
H4243 N4239 0.985 . S
H4244 N4238 0.984 . S
H4245 N4238 0.984 . S
H4246 N4234 0.984 . S
H4247 N4234 0.985 . S
C4248 C4249 1.363 . S
C4248 C4254 1.379 . S
C4248 N4256 1.356 . S
C4249 C4248 1.363 . S
C4249 C4255 1.363 . S
C4250 C4251 1.363 . S
C4250 C4255 1.379 . S
C4250 N4257 1.356 . S
C4251 C4250 1.363 . S
C4251 C4254 1.363 . S
N4252 C4254 1.356 . S
N4252 H4264 0.984 . S
N4252 H4265 0.985 . S
N4253 C4255 1.356 . S
N4253 H4258 0.984 . S
N4253 H4259 0.985 . S
C4254 C4248 1.379 . S
C4254 C4251 1.363 . S
C4254 N4252 1.356 . S
C4255 C4249 1.363 . S
C4255 C4250 1.379 . S
C4255 N4253 1.356 . S
N4256 C4248 1.356 . S
N4256 H4262 0.984 1_565 S
N4256 H4263 0.984 . S
N4257 C4250 1.356 . S
N4257 H4260 0.984 . S
N4257 H4261 0.985 . S
H4258 N4253 0.984 . S
H4259 N4253 0.985 . S
H4260 N4257 0.984 . S
H4261 N4257 0.985 . S
H4262 N4256 0.984 1_545 S
H4263 N4256 0.984 . S
H4264 N4252 0.984 . S
H4265 N4252 0.985 . S
C4266 C4267 1.363 . S
C4266 C4272 1.379 . S
C4266 N4274 1.356 . S
C4267 C4266 1.363 . S
C4267 C4273 1.363 . S
C4268 C4269 1.363 . S
C4268 C4273 1.379 . S
C4268 N4275 1.356 . S
C4269 C4268 1.363 . S
C4269 C4272 1.363 . S
N4270 C4272 1.356 . S
N4270 H4282 0.984 . S
N4270 H4283 0.985 . S
N4271 C4273 1.356 . S
N4271 H4276 0.984 . S
N4271 H4277 0.985 . S
C4272 C4266 1.379 . S
C4272 C4269 1.363 . S
C4272 N4270 1.356 . S
C4273 C4267 1.363 . S
C4273 C4268 1.379 . S
C4273 N4271 1.356 . S
N4274 C4266 1.356 . S
N4274 H4280 0.984 . S
N4274 H4281 0.984 . S
N4275 C4268 1.356 . S
N4275 H4278 0.984 . S
N4275 H4279 0.985 1_565 S
H4276 N4271 0.984 . S
H4277 N4271 0.985 . S
H4278 N4275 0.984 . S
H4279 N4275 0.985 1_545 S
H4280 N4274 0.984 . S
H4281 N4274 0.984 . S
H4282 N4270 0.984 . S
H4283 N4270 0.985 . S
C4284 C4285 1.363 . S
C4284 C4290 1.379 . S
C4284 N4292 1.356 . S
C4285 C4284 1.363 . S
C4285 C4291 1.363 . S
C4286 C4287 1.363 . S
C4286 C4291 1.379 . S
C4286 N4293 1.356 . S
C4287 C4286 1.363 . S
C4287 C4290 1.363 . S
N4288 C4290 1.356 . S
N4288 H4300 0.984 . S
N4288 H4301 0.985 . S
N4289 C4291 1.356 . S
N4289 H4294 0.984 . S
N4289 H4295 0.985 . S
C4290 C4284 1.379 . S
C4290 C4287 1.363 . S
C4290 N4288 1.356 . S
C4291 C4285 1.363 . S
C4291 C4286 1.379 . S
C4291 N4289 1.356 . S
N4292 C4284 1.356 . S
N4292 H4298 0.984 . S
N4292 H4299 0.984 . S
N4293 C4286 1.356 . S
N4293 H4296 0.984 . S
N4293 H4297 0.985 . S
H4294 N4289 0.984 . S
H4295 N4289 0.985 . S
H4296 N4293 0.984 . S
H4297 N4293 0.985 . S
H4298 N4292 0.984 . S
H4299 N4292 0.984 . S
H4300 N4288 0.984 . S
H4301 N4288 0.985 . S
C4302 C4303 1.363 . S
C4302 C4308 1.379 . S
C4302 N4310 1.356 . S
C4303 C4302 1.363 . S
C4303 C4309 1.363 . S
C4304 C4305 1.363 . S
C4304 C4309 1.379 . S
C4304 N4311 1.356 . S
C4305 C4304 1.363 . S
C4305 C4308 1.363 . S
N4306 C4308 1.356 . S
N4306 H4318 0.984 . S
N4306 H4319 0.985 . S
N4307 C4309 1.356 . S
N4307 H4312 0.984 . S
N4307 H4313 0.985 . S
C4308 C4302 1.379 . S
C4308 C4305 1.363 . S
C4308 N4306 1.356 . S
C4309 C4303 1.363 . S
C4309 C4304 1.379 . S
C4309 N4307 1.356 . S
N4310 C4302 1.356 . S
N4310 H4316 0.984 . S
N4310 H4317 0.984 . S
N4311 C4304 1.356 . S
N4311 H4314 0.984 . S
N4311 H4315 0.985 . S
H4312 N4307 0.984 . S
H4313 N4307 0.985 . S
H4314 N4311 0.984 . S
H4315 N4311 0.985 . S
H4316 N4310 0.984 . S
H4317 N4310 0.984 . S
H4318 N4306 0.984 . S
H4319 N4306 0.985 . S
C4320 C4321 1.363 . S
C4320 C4326 1.379 . S
C4320 N4328 1.356 . S
C4321 C4320 1.363 . S
C4321 C4327 1.363 . S
C4322 C4323 1.363 . S
C4322 C4327 1.379 . S
C4322 N4329 1.356 . S
C4323 C4322 1.363 . S
C4323 C4326 1.363 . S
N4324 C4326 1.356 . S
N4324 H4336 0.984 . S
N4324 H4337 0.985 . S
N4325 C4327 1.356 . S
N4325 H4330 0.984 . S
N4325 H4331 0.985 . S
C4326 C4320 1.379 . S
C4326 C4323 1.363 . S
C4326 N4324 1.356 . S
C4327 C4321 1.363 . S
C4327 C4322 1.379 . S
C4327 N4325 1.356 . S
N4328 C4320 1.356 . S
N4328 H4334 0.984 . S
N4328 H4335 0.984 . S
N4329 C4322 1.356 . S
N4329 H4332 0.984 . S
N4329 H4333 0.985 . S
H4330 N4325 0.984 . S
H4331 N4325 0.985 . S
H4332 N4329 0.984 . S
H4333 N4329 0.985 . S
H4334 N4328 0.984 . S
H4335 N4328 0.984 . S
H4336 N4324 0.984 . S
H4337 N4324 0.985 . S
C4338 C4339 1.363 . S
C4338 C4344 1.379 . S
C4338 N4346 1.356 . S
C4339 C4338 1.363 . S
C4339 C4345 1.363 . S
C4340 C4341 1.363 . S
C4340 C4345 1.379 . S
C4340 N4347 1.356 . S
C4341 C4340 1.363 . S
C4341 C4344 1.363 . S
N4342 C4344 1.356 . S
N4342 H4354 0.984 . S
N4342 H4355 0.985 . S
N4343 C4345 1.356 . S
N4343 H4348 0.984 . S
N4343 H4349 0.985 . S
C4344 C4338 1.379 . S
C4344 C4341 1.363 . S
C4344 N4342 1.356 . S
C4345 C4339 1.363 . S
C4345 C4340 1.379 . S
C4345 N4343 1.356 . S
N4346 C4338 1.356 . S
N4346 H4352 0.984 . S
N4346 H4353 0.984 . S
N4347 C4340 1.356 . S
N4347 H4350 0.984 . S
N4347 H4351 0.985 . S
H4348 N4343 0.984 . S
H4349 N4343 0.985 . S
H4350 N4347 0.984 . S
H4351 N4347 0.985 . S
H4352 N4346 0.984 . S
H4353 N4346 0.984 . S
H4354 N4342 0.984 . S
H4355 N4342 0.985 . S
C4356 C4357 1.363 . S
C4356 C4362 1.379 . S
C4356 N4364 1.356 . S
C4357 C4356 1.363 . S
C4357 C4363 1.363 . S
C4358 C4359 1.363 . S
C4358 C4363 1.379 . S
C4358 N4365 1.356 1_554 S
C4359 C4358 1.363 . S
C4359 C4362 1.363 . S
N4360 C4362 1.356 . S
N4360 H4372 0.984 . S
N4360 H4373 0.985 . S
N4361 C4363 1.356 1_556 S
N4361 H4366 0.961 1_556 S
N4361 H4367 0.985 . S
C4362 C4356 1.379 . S
C4362 C4359 1.363 . S
C4362 N4360 1.356 . S
C4363 C4357 1.363 . S
C4363 C4358 1.379 . S
C4363 N4361 1.356 1_554 S
N4364 C4356 1.356 . S
N4364 H4370 0.984 . S
N4364 H4371 0.984 . S
N4365 C4358 1.356 1_556 S
N4365 H4368 0.984 . S
N4365 H4369 0.985 . S
H4366 N4361 0.961 1_554 S
H4367 N4361 0.985 . S
H4368 N4365 0.984 . S
H4369 N4365 0.985 . S
H4370 N4364 0.984 . S
H4371 N4364 0.984 . S
H4372 N4360 0.984 . S
H4373 N4360 0.985 . S
C4374 C4375 1.363 . S
C4374 C4380 1.379 . S
C4374 N4382 1.356 1_655 S
C4375 C4374 1.363 . S
C4375 C4381 1.363 . S
C4376 C4377 1.363 . S
C4376 C4381 1.379 . S
C4376 N4383 1.356 . S
C4377 C4376 1.363 . S
C4377 C4380 1.363 . S
N4378 C4380 1.356 . S
N4378 H4390 0.984 . S
N4378 H4391 0.985 . S
N4379 C4381 1.356 . S
N4379 H4384 0.984 . S
N4379 H4385 0.985 . S
C4380 C4374 1.379 . S
C4380 C4377 1.363 . S
C4380 N4378 1.356 . S
C4381 C4375 1.363 . S
C4381 C4376 1.379 . S
C4381 N4379 1.356 . S
N4382 C4374 1.356 1_455 S
N4382 H4388 0.984 . S
N4382 H4389 0.984 . S
N4383 C4376 1.356 . S
N4383 H4386 0.984 . S
N4383 H4387 0.985 . S
H4384 N4379 0.984 . S
H4385 N4379 0.985 . S
H4386 N4383 0.984 . S
H4387 N4383 0.985 . S
H4388 N4382 0.984 . S
H4389 N4382 0.984 . S
H4390 N4378 0.984 . S
H4391 N4378 0.985 . S
C4392 C4393 1.363 . S
C4392 C4398 1.379 . S
C4392 N4400 1.356 . S
C4393 C4392 1.363 . S
C4393 C4399 1.363 . S
C4394 C4395 1.363 . S
C4394 C4399 1.379 . S
C4394 N4401 1.356 . S
C4395 C4394 1.363 . S
C4395 C4398 1.363 . S
N4396 C4398 1.356 . S
N4396 H4408 0.984 . S
N4396 H4409 0.985 . S
N4397 C4399 1.356 . S
N4397 H4402 0.984 . S
N4397 H4403 0.985 . S
C4398 C4392 1.379 . S
C4398 C4395 1.363 . S
C4398 N4396 1.356 . S
C4399 C4393 1.363 . S
C4399 C4394 1.379 . S
C4399 N4397 1.356 . S
N4400 C4392 1.356 . S
N4400 H4406 0.984 . S
N4400 H4407 0.984 . S
N4401 C4394 1.356 . S
N4401 H4404 0.984 . S
N4401 H4405 0.985 . S
H4402 N4397 0.984 . S
H4403 N4397 0.985 . S
H4404 N4401 0.984 . S
H4405 N4401 0.985 . S
H4406 N4400 0.984 . S
H4407 N4400 0.984 . S
H4408 N4396 0.984 . S
H4409 N4396 0.985 . S
C4410 C4411 1.363 1_655 S
C4410 C4416 1.379 . S
C4410 N4418 1.356 1_655 S
C4411 C4410 1.363 1_455 S
C4411 C4417 1.363 1_455 S
C4412 C4413 1.363 . S
C4412 C4417 1.379 . S
C4412 N4419 1.356 . S
C4413 C4412 1.363 . S
C4413 C4416 1.363 . S
N4414 C4416 1.356 . S
N4414 H4426 0.984 . S
N4414 H4427 0.985 . S
N4415 C4417 1.356 1_455 S
N4415 H4420 0.984 . S
N4415 H4421 0.985 1_455 S
C4416 C4410 1.379 . S
C4416 C4413 1.363 . S
C4416 N4414 1.356 . S
C4417 C4411 1.363 1_655 S
C4417 C4412 1.379 . S
C4417 N4415 1.356 1_655 S
N4418 C4410 1.356 1_455 S
N4418 H4424 0.984 . S
N4418 H4425 0.984 . S
N4419 C4412 1.356 . S
N4419 H4422 0.984 . S
N4419 H4423 0.985 . S
H4420 N4415 0.984 . S
H4421 N4415 0.985 1_655 S
H4422 N4419 0.984 . S
H4423 N4419 0.985 . S
H4424 N4418 0.984 . S
H4425 N4418 0.984 . S
H4426 N4414 0.984 . S
H4427 N4414 0.985 . S
C4428 C4429 1.363 . S
C4428 C4434 1.379 1_655 S
C4428 N4436 1.356 . S
C4429 C4428 1.363 . S
C4429 C4435 1.363 1_655 S
C4430 C4431 1.363 . S
C4430 C4435 1.379 . S
C4430 N4437 1.356 . S
C4431 C4430 1.363 . S
C4431 C4434 1.363 . S
N4432 C4434 1.356 . S
N4432 H4444 0.984 . S
N4432 H4445 0.985 . S
N4433 C4435 1.356 1_655 S
N4433 H4438 0.984 . S
N4433 H4439 0.985 1_655 S
C4434 C4428 1.379 1_455 S
C4434 C4431 1.363 . S
C4434 N4432 1.356 . S
C4435 C4429 1.363 1_455 S
C4435 C4430 1.379 . S
C4435 N4433 1.356 1_455 S
N4436 C4428 1.356 . S
N4436 H4442 0.984 . S
N4436 H4443 0.984 . S
N4437 C4430 1.356 . S
N4437 H4440 0.984 . S
N4437 H4441 0.985 . S
H4438 N4433 0.984 . S
H4439 N4433 0.985 1_455 S
H4440 N4437 0.984 . S
H4441 N4437 0.985 . S
H4442 N4436 0.984 . S
H4443 N4436 0.984 . S
H4444 N4432 0.984 . S
H4445 N4432 0.985 . S
C4446 C4447 1.363 . S
C4446 C4452 1.379 . S
C4446 N4454 1.356 . S
C4447 C4446 1.363 . S
C4447 C4453 1.363 . S
C4448 C4449 1.363 . S
C4448 C4453 1.379 . S
C4448 N4455 1.356 . S
C4449 C4448 1.363 . S
C4449 C4452 1.363 . S
N4450 C4452 1.356 . S
N4450 H4462 0.984 . S
N4450 H4463 0.985 . S
N4451 C4453 1.356 . S
N4451 H4456 0.984 . S
N4451 H4457 0.985 . S
C4452 C4446 1.379 . S
C4452 C4449 1.363 . S
C4452 N4450 1.356 . S
C4453 C4447 1.363 . S
C4453 C4448 1.379 . S
C4453 N4451 1.356 . S
N4454 C4446 1.356 . S
N4454 H4460 0.984 . S
N4454 H4461 0.984 . S
N4455 C4448 1.356 . S
N4455 H4458 0.984 . S
N4455 H4459 0.985 . S
H4456 N4451 0.984 . S
H4457 N4451 0.985 . S
H4458 N4455 0.984 . S
H4459 N4455 0.985 . S
H4460 N4454 0.984 . S
H4461 N4454 0.984 . S
H4462 N4450 0.984 . S
H4463 N4450 0.985 . S
C4464 C4465 1.363 . S
C4464 C4470 1.379 . S
C4464 N4472 1.356 . S
C4465 C4464 1.363 . S
C4465 C4471 1.363 . S
C4466 C4467 1.363 . S
C4466 C4471 1.379 . S
C4466 N4473 1.356 . S
C4467 C4466 1.363 . S
C4467 C4470 1.363 . S
N4468 C4470 1.356 . S
N4468 H4480 0.984 . S
N4468 H4481 0.985 . S
N4469 C4471 1.356 . S
N4469 H4474 0.984 . S
N4469 H4475 0.985 . S
C4470 C4464 1.379 . S
C4470 C4467 1.363 . S
C4470 N4468 1.356 . S
C4471 C4465 1.363 . S
C4471 C4466 1.379 . S
C4471 N4469 1.356 . S
N4472 C4464 1.356 . S
N4472 H4478 0.984 . S
N4472 H4479 0.984 . S
N4473 C4466 1.356 . S
N4473 H4476 0.984 . S
N4473 H4477 0.985 . S
H4474 N4469 0.984 . S
H4475 N4469 0.985 . S
H4476 N4473 0.984 . S
H4477 N4473 0.985 . S
H4478 N4472 0.984 . S
H4479 N4472 0.984 . S
H4480 N4468 0.984 . S
H4481 N4468 0.985 . S
C4482 C4483 1.363 . S
C4482 C4488 1.379 . S
C4482 N4490 1.356 . S
C4483 C4482 1.363 . S
C4483 C4489 1.363 . S
C4484 C4485 1.363 . S
C4484 C4489 1.379 . S
C4484 N4491 1.356 . S
C4485 C4484 1.363 . S
C4485 C4488 1.363 . S
N4486 C4488 1.356 . S
N4486 H4498 0.984 . S
N4486 H4499 0.985 . S
N4487 C4489 1.356 . S
N4487 H4492 0.984 . S
N4487 H4493 0.985 . S
C4488 C4482 1.379 . S
C4488 C4485 1.363 . S
C4488 N4486 1.356 . S
C4489 C4483 1.363 . S
C4489 C4484 1.379 . S
C4489 N4487 1.356 . S
N4490 C4482 1.356 . S
N4490 H4496 0.984 . S
N4490 H4497 0.984 . S
N4491 C4484 1.356 . S
N4491 H4494 0.984 . S
N4491 H4495 0.985 . S
H4492 N4487 0.984 . S
H4493 N4487 0.985 . S
H4494 N4491 0.984 . S
H4495 N4491 0.985 . S
H4496 N4490 0.984 . S
H4497 N4490 0.984 . S
H4498 N4486 0.984 . S
H4499 N4486 0.985 . S
C4500 C4501 1.363 . S
C4500 C4506 1.379 . S
C4500 N4508 1.356 . S
C4501 C4500 1.363 . S
C4501 C4507 1.363 . S
C4502 C4503 1.363 . S
C4502 C4507 1.379 . S
C4502 N4509 1.356 . S
C4503 C4502 1.363 . S
C4503 C4506 1.363 . S
N4504 C4506 1.356 . S
N4504 H4516 0.984 . S
N4504 H4517 0.985 . S
N4505 C4507 1.356 . S
N4505 H4510 0.984 . S
N4505 H4511 0.985 . S
C4506 C4500 1.379 . S
C4506 C4503 1.363 . S
C4506 N4504 1.356 . S
C4507 C4501 1.363 . S
C4507 C4502 1.379 . S
C4507 N4505 1.356 . S
N4508 C4500 1.356 . S
N4508 H4514 0.984 . S
N4508 H4515 0.984 . S
N4509 C4502 1.356 . S
N4509 H4512 0.984 . S
N4509 H4513 0.985 . S
H4510 N4505 0.984 . S
H4511 N4505 0.985 . S
H4512 N4509 0.984 . S
H4513 N4509 0.985 . S
H4514 N4508 0.984 . S
H4515 N4508 0.984 . S
H4516 N4504 0.984 . S
H4517 N4504 0.985 . S
C4518 C4519 1.363 . S
C4518 C4524 1.379 . S
C4518 N4526 1.356 . S
C4519 C4518 1.363 . S
C4519 C4525 1.363 . S
C4520 C4521 1.363 . S
C4520 C4525 1.379 . S
C4520 N4527 1.356 . S
C4521 C4520 1.363 . S
C4521 C4524 1.363 . S
N4522 C4524 1.356 . S
N4522 H4534 0.984 . S
N4522 H4535 0.985 . S
N4523 C4525 1.356 . S
N4523 H4528 0.984 . S
N4523 H4529 0.985 . S
C4524 C4518 1.379 . S
C4524 C4521 1.363 . S
C4524 N4522 1.356 . S
C4525 C4519 1.363 . S
C4525 C4520 1.379 . S
C4525 N4523 1.356 . S
N4526 C4518 1.356 . S
N4526 H4532 0.984 . S
N4526 H4533 0.984 . S
N4527 C4520 1.356 . S
N4527 H4530 0.984 . S
N4527 H4531 0.985 . S
H4528 N4523 0.984 . S
H4529 N4523 0.985 . S
H4530 N4527 0.984 . S
H4531 N4527 0.985 . S
H4532 N4526 0.984 . S
H4533 N4526 0.984 . S
H4534 N4522 0.984 . S
H4535 N4522 0.985 . S
C4536 C4537 1.363 . S
C4536 C4542 1.379 . S
C4536 N4544 1.356 . S
C4537 C4536 1.363 . S
C4537 C4543 1.363 . S
C4538 C4539 1.363 . S
C4538 C4543 1.379 . S
C4538 N4545 1.356 . S
C4539 C4538 1.363 . S
C4539 C4542 1.363 . S
N4540 C4542 1.356 . S
N4540 H4552 0.984 . S
N4540 H4553 0.985 . S
N4541 C4543 1.356 . S
N4541 H4546 0.984 . S
N4541 H4547 0.985 . S
C4542 C4536 1.379 . S
C4542 C4539 1.363 . S
C4542 N4540 1.356 . S
C4543 C4537 1.363 . S
C4543 C4538 1.379 . S
C4543 N4541 1.356 . S
N4544 C4536 1.356 . S
N4544 H4550 0.984 . S
N4544 H4551 0.984 . S
N4545 C4538 1.356 . S
N4545 H4548 0.984 . S
N4545 H4549 0.985 . S
H4546 N4541 0.984 . S
H4547 N4541 0.985 . S
H4548 N4545 0.984 . S
H4549 N4545 0.985 . S
H4550 N4544 0.984 . S
H4551 N4544 0.984 . S
H4552 N4540 0.984 . S
H4553 N4540 0.985 . S
C4554 C4555 1.363 . S
C4554 C4560 1.379 . S
C4554 N4562 1.356 . S
C4555 C4554 1.363 . S
C4555 C4561 1.363 . S
C4556 C4557 1.363 . S
C4556 C4561 1.379 . S
C4556 N4563 1.356 . S
C4557 C4556 1.363 . S
C4557 C4560 1.363 . S
N4558 C4560 1.356 . S
N4558 H4570 0.984 . S
N4558 H4571 0.985 . S
N4559 C4561 1.356 . S
N4559 H4564 0.984 . S
N4559 H4565 0.985 . S
C4560 C4554 1.379 . S
C4560 C4557 1.363 . S
C4560 N4558 1.356 . S
C4561 C4555 1.363 . S
C4561 C4556 1.379 . S
C4561 N4559 1.356 . S
N4562 C4554 1.356 . S
N4562 H4568 0.984 . S
N4562 H4569 0.984 . S
N4563 C4556 1.356 . S
N4563 H4566 0.984 . S
N4563 H4567 0.985 . S
H4564 N4559 0.984 . S
H4565 N4559 0.985 . S
H4566 N4563 0.984 . S
H4567 N4563 0.985 . S
H4568 N4562 0.984 . S
H4569 N4562 0.984 . S
H4570 N4558 0.984 . S
H4571 N4558 0.985 . S
C4572 C4573 1.363 . S
C4572 C4578 1.379 . S
C4572 N4580 1.356 . S
C4573 C4572 1.363 . S
C4573 C4579 1.363 . S
C4574 C4575 1.363 . S
C4574 C4579 1.379 . S
C4574 N4581 1.356 . S
C4575 C4574 1.363 . S
C4575 C4578 1.363 . S
N4576 C4578 1.356 . S
N4576 H4588 0.984 . S
N4576 H4589 0.985 . S
N4577 C4579 1.356 . S
N4577 H4582 0.984 . S
N4577 H4583 0.985 . S
C4578 C4572 1.379 . S
C4578 C4575 1.363 . S
C4578 N4576 1.356 . S
C4579 C4573 1.363 . S
C4579 C4574 1.379 . S
C4579 N4577 1.356 . S
N4580 C4572 1.356 . S
N4580 H4586 0.984 . S
N4580 H4587 0.984 . S
N4581 C4574 1.356 . S
N4581 H4584 0.984 . S
N4581 H4585 0.985 . S
H4582 N4577 0.984 . S
H4583 N4577 0.985 . S
H4584 N4581 0.984 . S
H4585 N4581 0.985 . S
H4586 N4580 0.984 . S
H4587 N4580 0.984 . S
H4588 N4576 0.984 . S
H4589 N4576 0.985 . S
C4590 C4591 1.363 . S
C4590 C4596 1.379 . S
C4590 N4598 1.356 . S
C4591 C4590 1.363 . S
C4591 C4597 1.363 . S
C4592 C4593 1.363 . S
C4592 C4597 1.379 . S
C4592 N4599 1.356 . S
C4593 C4592 1.363 . S
C4593 C4596 1.363 . S
N4594 C4596 1.356 . S
N4594 H4606 0.984 . S
N4594 H4607 0.985 . S
N4595 C4597 1.356 . S
N4595 H4600 0.984 . S
N4595 H4601 0.985 . S
C4596 C4590 1.379 . S
C4596 C4593 1.363 . S
C4596 N4594 1.356 . S
C4597 C4591 1.363 . S
C4597 C4592 1.379 . S
C4597 N4595 1.356 . S
N4598 C4590 1.356 . S
N4598 H4604 0.984 . S
N4598 H4605 0.984 . S
N4599 C4592 1.356 . S
N4599 H4602 0.984 . S
N4599 H4603 0.985 . S
H4600 N4595 0.984 . S
H4601 N4595 0.985 . S
H4602 N4599 0.984 . S
H4603 N4599 0.985 . S
H4604 N4598 0.984 . S
H4605 N4598 0.984 . S
H4606 N4594 0.984 . S
H4607 N4594 0.985 . S
C4608 C4609 1.363 . S
C4608 C4614 1.379 . S
C4608 N4616 1.356 . S
C4609 C4608 1.363 . S
C4609 C4615 1.363 . S
C4610 C4611 1.363 . S
C4610 C4615 1.379 . S
C4610 N4617 1.356 . S
C4611 C4610 1.363 . S
C4611 C4614 1.363 . S
N4612 C4614 1.356 . S
N4612 H4624 0.984 . S
N4612 H4625 0.985 . S
N4613 C4615 1.356 . S
N4613 H4618 0.984 . S
N4613 H4619 0.985 . S
C4614 C4608 1.379 . S
C4614 C4611 1.363 . S
C4614 N4612 1.356 . S
C4615 C4609 1.363 . S
C4615 C4610 1.379 . S
C4615 N4613 1.356 . S
N4616 C4608 1.356 . S
N4616 H4622 0.984 . S
N4616 H4623 0.984 . S
N4617 C4610 1.356 . S
N4617 H4620 0.984 . S
N4617 H4621 0.985 . S
H4618 N4613 0.984 . S
H4619 N4613 0.985 . S
H4620 N4617 0.984 . S
H4621 N4617 0.985 . S
H4622 N4616 0.984 . S
H4623 N4616 0.984 . S
H4624 N4612 0.984 . S
H4625 N4612 0.985 . S
C4626 C4627 1.363 . S
C4626 C4632 1.379 . S
C4626 N4634 1.356 . S
C4627 C4626 1.363 . S
C4627 C4633 1.363 . S
C4628 C4629 1.363 . S
C4628 C4633 1.379 . S
C4628 N4635 1.356 . S
C4629 C4628 1.363 . S
C4629 C4632 1.363 . S
N4630 C4632 1.356 . S
N4630 H4642 0.984 . S
N4630 H4643 0.985 . S
N4631 C4633 1.356 . S
N4631 H4636 0.984 . S
N4631 H4637 0.985 . S
C4632 C4626 1.379 . S
C4632 C4629 1.363 . S
C4632 N4630 1.356 . S
C4633 C4627 1.363 . S
C4633 C4628 1.379 . S
C4633 N4631 1.356 . S
N4634 C4626 1.356 . S
N4634 H4640 0.984 . S
N4634 H4641 0.984 . S
N4635 C4628 1.356 . S
N4635 H4638 0.984 . S
N4635 H4639 0.985 . S
H4636 N4631 0.984 . S
H4637 N4631 0.985 . S
H4638 N4635 0.984 . S
H4639 N4635 0.985 . S
H4640 N4634 0.984 . S
H4641 N4634 0.984 . S
H4642 N4630 0.984 . S
H4643 N4630 0.985 . S
C4644 C4645 1.363 . S
C4644 C4650 1.379 . S
C4644 N4652 1.356 . S
C4645 C4644 1.363 . S
C4645 C4651 1.363 . S
C4646 C4647 1.363 . S
C4646 C4651 1.379 . S
C4646 N4653 1.356 . S
C4647 C4646 1.363 . S
C4647 C4650 1.363 . S
N4648 C4650 1.356 . S
N4648 H4660 0.984 . S
N4648 H4661 0.985 . S
N4649 C4651 1.356 . S
N4649 H4654 0.984 . S
N4649 H4655 0.985 . S
C4650 C4644 1.379 . S
C4650 C4647 1.363 . S
C4650 N4648 1.356 . S
C4651 C4645 1.363 . S
C4651 C4646 1.379 . S
C4651 N4649 1.356 . S
N4652 C4644 1.356 . S
N4652 H4658 0.984 . S
N4652 H4659 0.984 . S
N4653 C4646 1.356 . S
N4653 H4656 0.984 . S
N4653 H4657 0.985 . S
H4654 N4649 0.984 . S
H4655 N4649 0.985 . S
H4656 N4653 0.984 . S
H4657 N4653 0.985 . S
H4658 N4652 0.984 . S
H4659 N4652 0.984 . S
H4660 N4648 0.984 . S
H4661 N4648 0.985 . S
C4662 C4663 1.363 . S
C4662 C4668 1.379 . S
C4662 N4670 1.356 . S
C4663 C4662 1.363 . S
C4663 C4669 1.363 1_545 S
C4664 C4665 1.363 1_565 S
C4664 C4669 1.379 . S
C4664 N4671 1.356 1_554 S
C4665 C4664 1.363 1_545 S
C4665 C4668 1.363 . S
N4666 C4668 1.356 . S
N4666 H4678 0.984 . S
N4666 H4679 0.985 . S
N4667 C4669 1.356 . S
N4667 H4672 0.984 . S
N4667 H4673 0.985 1_554 S
C4668 C4662 1.379 . S
C4668 C4665 1.363 . S
C4668 N4666 1.356 . S
C4669 C4663 1.363 1_565 S
C4669 C4664 1.379 . S
C4669 N4667 1.356 . S
N4670 C4662 1.356 . S
N4670 H4676 0.984 . S
N4670 H4677 0.984 . S
N4671 C4664 1.356 1_556 S
N4671 H4674 0.984 . S
N4671 H4675 0.985 . S
H4672 N4667 0.984 . S
H4673 N4667 0.985 1_556 S
H4674 N4671 0.984 . S
H4675 N4671 0.985 . S
H4676 N4670 0.984 . S
H4677 N4670 0.984 . S
H4678 N4666 0.984 . S
H4679 N4666 0.985 . S
C4680 C4681 1.363 . S
C4680 C4686 1.379 . S
C4680 N4688 1.356 . S
C4681 C4680 1.363 . S
C4681 C4687 1.363 . S
C4682 C4683 1.363 . S
C4682 C4687 1.379 . S
C4682 N4689 1.356 . S
C4683 C4682 1.363 . S
C4683 C4686 1.363 . S
N4684 C4686 1.356 . S
N4684 H4696 0.984 . S
N4684 H4697 0.985 . S
N4685 C4687 1.356 . S
N4685 H4690 0.984 . S
N4685 H4691 0.985 . S
C4686 C4680 1.379 . S
C4686 C4683 1.363 . S
C4686 N4684 1.356 . S
C4687 C4681 1.363 . S
C4687 C4682 1.379 . S
C4687 N4685 1.356 . S
N4688 C4680 1.356 . S
N4688 H4694 0.984 . S
N4688 H4695 0.984 . S
N4689 C4682 1.356 . S
N4689 H4692 0.984 . S
N4689 H4693 0.985 . S
H4690 N4685 0.984 . S
H4691 N4685 0.985 . S
H4692 N4689 0.984 . S
H4693 N4689 0.985 . S
H4694 N4688 0.984 . S
H4695 N4688 0.984 . S
H4696 N4684 0.984 . S
H4697 N4684 0.985 . S
C4698 C4699 1.363 . S
C4698 C4704 1.379 . S
C4698 N4706 1.356 . S
C4699 C4698 1.363 . S
C4699 C4705 1.357 . S
C4700 C4701 1.363 . S
C4700 C4705 1.396 . S
C4700 N4707 1.356 . S
C4701 C4700 1.363 . S
C4701 C4704 1.363 . S
N4702 C4704 1.356 . S
N4702 H4714 0.984 . S
N4702 H4715 0.985 . S
N4703 C4705 1.342 1_556 S
N4703 H4708 0.984 . S
N4703 H4709 0.985 . S
C4704 C4698 1.379 . S
C4704 C4701 1.363 . S
C4704 N4702 1.356 . S
C4705 C4699 1.357 . S
C4705 C4700 1.396 . S
C4705 N4703 1.342 1_554 S
N4706 C4698 1.356 . S
N4706 H4712 0.984 . S
N4706 H4713 0.998 . S
N4707 C4700 1.356 . S
N4707 H4710 0.984 . S
N4707 H4711 0.985 . S
H4708 N4703 0.984 . S
H4709 N4703 0.985 . S
H4710 N4707 0.984 . S
H4711 N4707 0.985 . S
H4712 N4706 0.984 . S
H4713 N4706 0.998 . S
H4714 N4702 0.984 . S
H4715 N4702 0.985 . S
C4716 C4717 1.363 . S
C4716 C4722 1.379 . S
C4716 N4724 1.356 . S
C4717 C4716 1.363 . S
C4717 C4723 1.363 . S
C4718 C4719 1.363 . S
C4718 C4723 1.379 . S
C4718 N4725 1.356 . S
C4719 C4718 1.363 . S
C4719 C4722 1.363 . S
N4720 C4722 1.356 . S
N4720 H4732 0.984 . S
N4720 H4733 0.985 . S
N4721 C4723 1.356 . S
N4721 H4726 0.984 . S
N4721 H4727 0.985 . S
C4722 C4716 1.379 . S
C4722 C4719 1.363 . S
C4722 N4720 1.356 . S
C4723 C4717 1.363 . S
C4723 C4718 1.379 . S
C4723 N4721 1.356 . S
N4724 C4716 1.356 . S
N4724 H4730 0.984 . S
N4724 H4731 0.984 . S
N4725 C4718 1.356 . S
N4725 H4728 0.984 . S
N4725 H4729 0.985 . S
H4726 N4721 0.984 . S
H4727 N4721 0.985 . S
H4728 N4725 0.984 . S
H4729 N4725 0.985 . S
H4730 N4724 0.984 . S
H4731 N4724 0.984 . S
H4732 N4720 0.984 . S
H4733 N4720 0.985 . S
C4734 C4735 1.363 . S
C4734 C4740 1.379 . S
C4734 N4742 1.356 . S
C4735 C4734 1.363 . S
C4735 C4741 1.363 . S
C4736 C4737 1.363 . S
C4736 C4741 1.379 . S
C4736 N4743 1.356 . S
C4737 C4736 1.363 . S
C4737 C4740 1.363 . S
N4738 C4740 1.356 . S
N4738 H4750 0.984 . S
N4738 H4751 0.985 . S
N4739 C4741 1.356 . S
N4739 H4744 0.984 . S
N4739 H4745 0.985 . S
C4740 C4734 1.379 . S
C4740 C4737 1.363 . S
C4740 N4738 1.356 . S
C4741 C4735 1.363 . S
C4741 C4736 1.379 . S
C4741 N4739 1.356 . S
N4742 C4734 1.356 . S
N4742 H4748 0.984 . S
N4742 H4749 0.984 . S
N4743 C4736 1.356 . S
N4743 H4746 0.984 . S
N4743 H4747 0.985 . S
H4744 N4739 0.984 . S
H4745 N4739 0.985 . S
H4746 N4743 0.984 . S
H4747 N4743 0.985 . S
H4748 N4742 0.984 . S
H4749 N4742 0.984 . S
H4750 N4738 0.984 . S
H4751 N4738 0.985 . S
C4752 C4753 1.363 . S
C4752 C4758 1.379 . S
C4752 N4760 1.356 . S
C4753 C4752 1.363 . S
C4753 C4759 1.363 . S
C4754 C4755 1.363 . S
C4754 C4759 1.379 . S
C4754 N4761 1.356 . S
C4755 C4754 1.363 . S
C4755 C4758 1.363 . S
N4756 C4758 1.356 . S
N4756 H4768 0.984 . S
N4756 H4769 0.985 . S
N4757 C4759 1.356 . S
N4757 H4762 0.984 . S
N4757 H4763 0.985 . S
C4758 C4752 1.379 . S
C4758 C4755 1.363 . S
C4758 N4756 1.356 . S
C4759 C4753 1.363 . S
C4759 C4754 1.379 . S
C4759 N4757 1.356 . S
N4760 C4752 1.356 . S
N4760 H4766 0.984 . S
N4760 H4767 0.984 . S
N4761 C4754 1.356 . S
N4761 H4764 0.984 . S
N4761 H4765 0.985 . S
H4762 N4757 0.984 . S
H4763 N4757 0.985 . S
H4764 N4761 0.984 . S
H4765 N4761 0.985 . S
H4766 N4760 0.984 . S
H4767 N4760 0.984 . S
H4768 N4756 0.984 . S
H4769 N4756 0.985 . S
C4770 C4771 1.363 . S
C4770 C4776 1.379 . S
C4770 N4778 1.356 . S
C4771 C4770 1.363 . S
C4771 C4777 1.363 . S
C4772 C4773 1.363 . S
C4772 C4777 1.379 . S
C4772 N4779 1.356 . S
C4773 C4772 1.363 . S
C4773 C4776 1.363 . S
N4774 C4776 1.356 . S
N4774 H4786 0.984 . S
N4774 H4787 0.985 . S
N4775 C4777 1.356 . S
N4775 H4780 0.984 . S
N4775 H4781 0.985 . S
C4776 C4770 1.379 . S
C4776 C4773 1.363 . S
C4776 N4774 1.356 . S
C4777 C4771 1.363 . S
C4777 C4772 1.379 . S
C4777 N4775 1.356 . S
N4778 C4770 1.356 . S
N4778 H4784 0.984 . S
N4778 H4785 0.984 . S
N4779 C4772 1.356 . S
N4779 H4782 0.984 . S
N4779 H4783 0.985 . S
H4780 N4775 0.984 . S
H4781 N4775 0.985 . S
H4782 N4779 0.984 . S
H4783 N4779 0.985 . S
H4784 N4778 0.984 . S
H4785 N4778 0.984 . S
H4786 N4774 0.984 . S
H4787 N4774 0.985 . S
C4788 C4789 1.363 . S
C4788 C4794 1.379 . S
C4788 N4796 1.356 . S
C4789 C4788 1.363 . S
C4789 C4795 1.363 1_554 S
C4790 C4791 1.400 . S
C4790 C4795 1.364 1_554 S
C4790 N4797 1.346 1_554 S
C4791 C4790 1.400 . S
C4791 C4794 1.363 . S
N4792 C4794 1.356 . S
N4792 H4804 0.984 . S
N4792 H4805 0.985 . S
N4793 C4795 1.356 . S
N4793 H4798 0.984 . S
N4793 H4799 0.985 . S
C4794 C4788 1.379 . S
C4794 C4791 1.363 . S
C4794 N4792 1.356 . S
C4795 C4789 1.363 1_556 S
C4795 C4790 1.364 1_556 S
C4795 N4793 1.356 . S
N4796 C4788 1.356 . S
N4796 H4802 0.984 . S
N4796 H4803 0.984 . S
N4797 C4790 1.346 1_556 S
N4797 H4800 0.984 . S
N4797 H4801 0.985 . S
H4798 N4793 0.984 . S
H4799 N4793 0.985 . S
H4800 N4797 0.984 . S
H4801 N4797 0.985 . S
H4802 N4796 0.984 . S
H4803 N4796 0.984 . S
H4804 N4792 0.984 . S
H4805 N4792 0.985 . S
C4806 C4807 1.363 . S
C4806 C4812 1.379 . S
C4806 N4814 1.356 . S
C4807 C4806 1.363 . S
C4807 C4813 1.363 . S
C4808 C4809 1.363 . S
C4808 C4813 1.379 . S
C4808 N4815 1.356 . S
C4809 C4808 1.363 . S
C4809 C4812 1.363 . S
N4810 C4812 1.356 . S
N4810 H4822 0.984 . S
N4810 H4823 0.985 . S
N4811 C4813 1.356 . S
N4811 H4816 0.984 . S
N4811 H4817 0.985 . S
C4812 C4806 1.379 . S
C4812 C4809 1.363 . S
C4812 N4810 1.356 . S
C4813 C4807 1.363 . S
C4813 C4808 1.379 . S
C4813 N4811 1.356 . S
N4814 C4806 1.356 . S
N4814 H4820 0.984 . S
N4814 H4821 0.984 . S
N4815 C4808 1.356 . S
N4815 H4818 0.984 . S
N4815 H4819 0.985 . S
H4816 N4811 0.984 . S
H4817 N4811 0.985 . S
H4818 N4815 0.984 . S
H4819 N4815 0.985 . S
H4820 N4814 0.984 . S
H4821 N4814 0.984 . S
H4822 N4810 0.984 . S
H4823 N4810 0.985 . S
C4824 C4825 1.363 . S
C4824 C4830 1.379 . S
C4824 N4832 1.356 . S
C4825 C4824 1.363 . S
C4825 C4831 1.363 . S
C4826 C4827 1.363 . S
C4826 C4831 1.379 . S
C4826 N4833 1.356 . S
C4827 C4826 1.363 . S
C4827 C4830 1.363 . S
N4828 C4830 1.356 1_554 S
N4828 H4840 0.984 . S
N4828 H4841 0.985 . S
N4829 C4831 1.356 . S
N4829 H4834 0.984 . S
N4829 H4835 0.985 . S
C4830 C4824 1.379 . S
C4830 C4827 1.363 . S
C4830 N4828 1.356 1_556 S
C4831 C4825 1.363 . S
C4831 C4826 1.379 . S
C4831 N4829 1.356 . S
N4832 C4824 1.356 . S
N4832 H4838 0.984 . S
N4832 H4839 0.984 . S
N4833 C4826 1.356 . S
N4833 H4836 0.984 . S
N4833 H4837 0.985 . S
H4834 N4829 0.984 . S
H4835 N4829 0.985 . S
H4836 N4833 0.984 . S
H4837 N4833 0.985 . S
H4838 N4832 0.984 . S
H4839 N4832 0.984 . S
H4840 N4828 0.984 . S
H4841 N4828 0.985 . S
C4842 C4843 1.363 . S
C4842 C4848 1.379 . S
C4842 N4850 1.356 . S
C4843 C4842 1.363 . S
C4843 C4849 1.363 . S
C4844 C4845 1.363 . S
C4844 C4849 1.379 . S
C4844 N4851 1.356 . S
C4845 C4844 1.363 . S
C4845 C4848 1.363 . S
N4846 C4848 1.356 . S
N4846 H4858 0.984 . S
N4846 H4859 0.985 . S
N4847 C4849 1.356 . S
N4847 H4852 0.984 . S
N4847 H4853 0.985 . S
C4848 C4842 1.379 . S
C4848 C4845 1.363 . S
C4848 N4846 1.356 . S
C4849 C4843 1.363 . S
C4849 C4844 1.379 . S
C4849 N4847 1.356 . S
N4850 C4842 1.356 . S
N4850 H4856 0.984 . S
N4850 H4857 0.984 . S
N4851 C4844 1.356 . S
N4851 H4854 0.984 . S
N4851 H4855 0.985 . S
H4852 N4847 0.984 . S
H4853 N4847 0.985 . S
H4854 N4851 0.984 . S
H4855 N4851 0.985 . S
H4856 N4850 0.984 . S
H4857 N4850 0.984 . S
H4858 N4846 0.984 . S
H4859 N4846 0.985 . S
C4860 C4861 1.363 . S
C4860 C4866 1.379 . S
C4860 N4868 1.356 . S
C4861 C4860 1.363 . S
C4861 C4867 1.363 . S
C4862 C4863 1.363 . S
C4862 C4867 1.379 . S
C4862 N4869 1.356 . S
C4863 C4862 1.363 . S
C4863 C4866 1.363 . S
N4864 C4866 1.356 . S
N4864 H4876 0.984 . S
N4864 H4877 0.985 . S
N4865 C4867 1.356 . S
N4865 H4870 0.984 . S
N4865 H4871 0.985 . S
C4866 C4860 1.379 . S
C4866 C4863 1.363 . S
C4866 N4864 1.356 . S
C4867 C4861 1.363 . S
C4867 C4862 1.379 . S
C4867 N4865 1.356 . S
N4868 C4860 1.356 . S
N4868 H4874 0.984 . S
N4868 H4875 0.984 . S
N4869 C4862 1.356 . S
N4869 H4872 0.984 . S
N4869 H4873 0.985 . S
H4870 N4865 0.984 . S
H4871 N4865 0.985 . S
H4872 N4869 0.984 . S
H4873 N4869 0.985 . S
H4874 N4868 0.984 . S
H4875 N4868 0.984 . S
H4876 N4864 0.984 . S
H4877 N4864 0.985 . S
C4878 C4879 1.363 . S
C4878 C4884 1.379 . S
C4878 N4886 1.356 . S
C4879 C4878 1.363 . S
C4879 C4885 1.363 . S
C4880 C4881 1.363 . S
C4880 C4885 1.379 . S
C4880 N4887 1.356 . S
C4881 C4880 1.363 . S
C4881 C4884 1.363 . S
N4882 C4884 1.356 . S
N4882 H4894 0.984 . S
N4882 H4895 0.985 . S
N4883 C4885 1.356 . S
N4883 H4888 0.984 . S
N4883 H4889 0.985 . S
C4884 C4878 1.379 . S
C4884 C4881 1.363 . S
C4884 N4882 1.356 . S
C4885 C4879 1.363 . S
C4885 C4880 1.379 . S
C4885 N4883 1.356 . S
N4886 C4878 1.356 . S
N4886 H4892 0.984 . S
N4886 H4893 0.984 . S
N4887 C4880 1.356 . S
N4887 H4890 0.984 . S
N4887 H4891 0.985 . S
H4888 N4883 0.984 . S
H4889 N4883 0.985 . S
H4890 N4887 0.984 . S
H4891 N4887 0.985 . S
H4892 N4886 0.984 . S
H4893 N4886 0.984 . S
H4894 N4882 0.984 . S
H4895 N4882 0.985 . S
C4896 C4897 1.363 . S
C4896 C4902 1.379 . S
C4896 N4904 1.356 . S
C4897 C4896 1.363 . S
C4897 C4903 1.363 . S
C4898 C4899 1.363 . S
C4898 C4903 1.379 . S
C4898 N4905 1.356 . S
C4899 C4898 1.363 . S
C4899 C4902 1.363 . S
N4900 C4902 1.356 . S
N4900 H4912 0.984 . S
N4900 H4913 0.985 . S
N4901 C4903 1.356 . S
N4901 H4906 0.984 . S
N4901 H4907 0.985 . S
C4902 C4896 1.379 . S
C4902 C4899 1.363 . S
C4902 N4900 1.356 . S
C4903 C4897 1.363 . S
C4903 C4898 1.379 . S
C4903 N4901 1.356 . S
N4904 C4896 1.356 . S
N4904 H4910 0.984 . S
N4904 H4911 0.984 . S
N4905 C4898 1.356 . S
N4905 H4908 0.984 . S
N4905 H4909 0.985 . S
H4906 N4901 0.984 . S
H4907 N4901 0.985 . S
H4908 N4905 0.984 . S
H4909 N4905 0.985 . S
H4910 N4904 0.984 . S
H4911 N4904 0.984 . S
H4912 N4900 0.984 . S
H4913 N4900 0.985 . S
C4914 C4915 1.363 . S
C4914 C4920 1.379 . S
C4914 N4922 1.356 . S
C4915 C4914 1.363 . S
C4915 C4921 1.363 . S
C4916 C4917 1.363 . S
C4916 C4921 1.379 . S
C4916 N4923 1.356 . S
C4917 C4916 1.363 . S
C4917 C4920 1.363 . S
N4918 C4920 1.356 . S
N4918 H4930 0.984 . S
N4918 H4931 0.985 . S
N4919 C4921 1.356 . S
N4919 H4924 0.984 . S
N4919 H4925 0.985 . S
C4920 C4914 1.379 . S
C4920 C4917 1.363 . S
C4920 N4918 1.356 . S
C4921 C4915 1.363 . S
C4921 C4916 1.379 . S
C4921 N4919 1.356 . S
N4922 C4914 1.356 . S
N4922 H4928 0.984 . S
N4922 H4929 0.984 . S
N4923 C4916 1.356 . S
N4923 H4926 0.984 . S
N4923 H4927 0.985 . S
H4924 N4919 0.984 . S
H4925 N4919 0.985 . S
H4926 N4923 0.984 . S
H4927 N4923 0.985 . S
H4928 N4922 0.984 . S
H4929 N4922 0.984 . S
H4930 N4918 0.984 . S
H4931 N4918 0.985 . S
C4932 C4933 1.363 . S
C4932 C4938 1.379 1_655 S
C4932 N4940 1.356 . S
C4933 C4932 1.363 . S
C4933 C4939 1.363 1_655 S
C4934 C4935 1.363 . S
C4934 C4939 1.379 . S
C4934 N4941 1.356 . S
C4935 C4934 1.363 . S
C4935 C4938 1.363 . S
N4936 C4938 1.356 . S
N4936 H4948 0.984 1_455 S
N4936 H4949 0.985 . S
N4937 C4939 1.356 . S
N4937 H4942 0.984 . S
N4937 H4943 0.985 . S
C4938 C4932 1.379 1_455 S
C4938 C4935 1.363 . S
C4938 N4936 1.356 . S
C4939 C4933 1.363 1_455 S
C4939 C4934 1.379 . S
C4939 N4937 1.356 . S
N4940 C4932 1.356 . S
N4940 H4946 0.984 . S
N4940 H4947 0.984 . S
N4941 C4934 1.356 . S
N4941 H4944 0.984 . S
N4941 H4945 0.985 . S
H4942 N4937 0.984 . S
H4943 N4937 0.985 . S
H4944 N4941 0.984 . S
H4945 N4941 0.985 . S
H4946 N4940 0.984 . S
H4947 N4940 0.984 . S
H4948 N4936 0.984 1_655 S
H4949 N4936 0.985 . S
C4950 C4951 1.363 . S
C4950 C4956 1.379 . S
C4950 N4958 1.356 . S
C4951 C4950 1.363 . S
C4951 C4957 1.363 . S
C4952 C4953 1.363 . S
C4952 C4957 1.379 . S
C4952 N4959 1.356 . S
C4953 C4952 1.363 . S
C4953 C4956 1.363 . S
N4954 C4956 1.356 . S
N4954 H4966 0.984 . S
N4954 H4967 0.985 . S
N4955 C4957 1.356 . S
N4955 H4960 0.984 . S
N4955 H4961 0.985 . S
C4956 C4950 1.379 . S
C4956 C4953 1.363 . S
C4956 N4954 1.356 . S
C4957 C4951 1.363 . S
C4957 C4952 1.379 . S
C4957 N4955 1.356 . S
N4958 C4950 1.356 . S
N4958 H4964 0.984 . S
N4958 H4965 0.984 . S
N4959 C4952 1.356 . S
N4959 H4962 0.984 . S
N4959 H4963 0.985 . S
H4960 N4955 0.984 . S
H4961 N4955 0.985 . S
H4962 N4959 0.984 . S
H4963 N4959 0.985 . S
H4964 N4958 0.984 . S
H4965 N4958 0.984 . S
H4966 N4954 0.984 . S
H4967 N4954 0.985 . S
C4968 C4969 1.363 . S
C4968 C4974 1.379 . S
C4968 N4976 1.356 . S
C4969 C4968 1.363 . S
C4969 C4975 1.363 . S
C4970 C4971 1.363 . S
C4970 C4975 1.379 . S
C4970 N4977 1.356 . S
C4971 C4970 1.363 . S
C4971 C4974 1.363 . S
N4972 C4974 1.356 . S
N4972 H4984 0.984 . S
N4972 H4985 0.985 . S
N4973 C4975 1.356 . S
N4973 H4978 0.984 . S
N4973 H4979 0.985 . S
C4974 C4968 1.379 . S
C4974 C4971 1.363 . S
C4974 N4972 1.356 . S
C4975 C4969 1.363 . S
C4975 C4970 1.379 . S
C4975 N4973 1.356 . S
N4976 C4968 1.356 . S
N4976 H4982 0.984 . S
N4976 H4983 0.984 . S
N4977 C4970 1.356 . S
N4977 H4980 0.984 . S
N4977 H4981 0.985 . S
H4978 N4973 0.984 . S
H4979 N4973 0.985 . S
H4980 N4977 0.984 . S
H4981 N4977 0.985 . S
H4982 N4976 0.984 . S
H4983 N4976 0.984 . S
H4984 N4972 0.984 . S
H4985 N4972 0.985 . S
C4986 C4987 1.363 . S
C4986 C4992 1.379 . S
C4986 N4994 1.356 . S
C4987 C4986 1.363 . S
C4987 C4993 1.363 . S
C4988 C4989 1.363 . S
C4988 C4993 1.379 . S
C4988 N4995 1.356 . S
C4989 C4988 1.363 . S
C4989 C4992 1.363 . S
N4990 C4992 1.356 . S
N4990 H5002 0.984 . S
N4990 H5003 0.985 . S
N4991 C4993 1.356 . S
N4991 H4996 0.984 . S
N4991 H4997 0.985 . S
C4992 C4986 1.379 . S
C4992 C4989 1.363 . S
C4992 N4990 1.356 . S
C4993 C4987 1.363 . S
C4993 C4988 1.379 . S
C4993 N4991 1.356 . S
N4994 C4986 1.356 . S
N4994 H5000 0.984 . S
N4994 H5001 0.984 . S
N4995 C4988 1.356 . S
N4995 H4998 0.984 . S
N4995 H4999 0.985 . S
H4996 N4991 0.984 . S
H4997 N4991 0.985 . S
H4998 N4995 0.984 . S
H4999 N4995 0.985 . S
H5000 N4994 0.984 . S
H5001 N4994 0.984 . S
H5002 N4990 0.984 . S
H5003 N4990 0.985 . S
C5004 C5005 1.363 . S
C5004 C5010 1.379 1_655 S
C5004 N5012 1.356 . S
C5005 C5004 1.363 . S
C5005 C5011 1.363 . S
C5006 C5007 1.361 . S
C5006 C5011 1.379 . S
C5006 N5013 1.356 . S
C5007 C5006 1.361 . S
C5007 C5010 1.364 1_655 S
N5008 C5010 1.356 . S
N5008 H5020 0.984 . S
N5008 H5021 0.985 . S
N5009 C5011 1.356 . S
N5009 H5014 0.984 . S
N5009 H5015 0.985 . S
C5010 C5004 1.379 1_455 S
C5010 C5007 1.364 1_455 S
C5010 N5008 1.356 . S
C5011 C5005 1.363 . S
C5011 C5006 1.379 . S
C5011 N5009 1.356 . S
N5012 C5004 1.356 . S
N5012 H5018 0.984 1_655 S
N5012 H5019 0.984 . S
N5013 C5006 1.356 . S
N5013 H5016 0.984 . S
N5013 H5017 0.985 . S
H5014 N5009 0.984 . S
H5015 N5009 0.985 . S
H5016 N5013 0.984 . S
H5017 N5013 0.985 . S
H5018 N5012 0.984 1_455 S
H5019 N5012 0.984 . S
H5020 N5008 0.984 . S
H5021 N5008 0.985 . S
C5022 C5023 1.363 . S
C5022 C5028 1.379 . S
C5022 N5030 1.356 . S
C5023 C5022 1.363 . S
C5023 C5029 1.363 . S
C5024 C5025 1.363 . S
C5024 C5029 1.379 . S
C5024 N5031 1.356 . S
C5025 C5024 1.363 . S
C5025 C5028 1.363 . S
N5026 C5028 1.356 . S
N5026 H5038 0.984 . S
N5026 H5039 0.985 . S
N5027 C5029 1.356 . S
N5027 H5032 0.984 . S
N5027 H5033 0.985 . S
C5028 C5022 1.379 . S
C5028 C5025 1.363 . S
C5028 N5026 1.356 . S
C5029 C5023 1.363 . S
C5029 C5024 1.379 . S
C5029 N5027 1.356 . S
N5030 C5022 1.356 . S
N5030 H5036 0.984 . S
N5030 H5037 0.984 . S
N5031 C5024 1.356 . S
N5031 H5034 0.984 . S
N5031 H5035 0.985 . S
H5032 N5027 0.984 . S
H5033 N5027 0.985 . S
H5034 N5031 0.984 . S
H5035 N5031 0.985 . S
H5036 N5030 0.984 . S
H5037 N5030 0.984 . S
H5038 N5026 0.984 . S
H5039 N5026 0.985 . S
C5040 C5041 1.363 . S
C5040 C5046 1.379 . S
C5040 N5048 1.356 . S
C5041 C5040 1.363 . S
C5041 C5047 1.363 . S
C5042 C5043 1.363 . S
C5042 C5047 1.379 . S
C5042 N5049 1.356 . S
C5043 C5042 1.363 . S
C5043 C5046 1.363 . S
N5044 C5046 1.356 . S
N5044 H5056 0.984 . S
N5044 H5057 0.985 . S
N5045 C5047 1.356 . S
N5045 H5050 0.984 . S
N5045 H5051 0.985 . S
C5046 C5040 1.379 . S
C5046 C5043 1.363 . S
C5046 N5044 1.356 . S
C5047 C5041 1.363 . S
C5047 C5042 1.379 . S
C5047 N5045 1.356 . S
N5048 C5040 1.356 . S
N5048 H5054 0.984 . S
N5048 H5055 0.984 . S
N5049 C5042 1.356 . S
N5049 H5052 0.984 . S
N5049 H5053 0.985 . S
H5050 N5045 0.984 . S
H5051 N5045 0.985 . S
H5052 N5049 0.984 . S
H5053 N5049 0.985 . S
H5054 N5048 0.984 . S
H5055 N5048 0.984 . S
H5056 N5044 0.984 . S
H5057 N5044 0.985 . S
C5058 C5059 1.363 . S
C5058 C5064 1.379 1_565 S
C5058 N5066 1.356 1_565 S
C5059 C5058 1.363 . S
C5059 C5065 1.363 . S
C5060 C5061 1.363 . S
C5060 C5065 1.379 . S
C5060 N5067 1.356 1_655 S
C5061 C5060 1.363 . S
C5061 C5064 1.363 1_565 S
N5062 C5064 1.356 . S
N5062 H5074 0.984 . S
N5062 H5075 1.012 . S
N5063 C5065 1.356 . S
N5063 H5068 0.984 . S
N5063 H5069 0.985 . S
C5064 C5058 1.379 1_545 S
C5064 C5061 1.363 1_545 S
C5064 N5062 1.356 . S
C5065 C5059 1.363 . S
C5065 C5060 1.379 . S
C5065 N5063 1.356 . S
N5066 C5058 1.356 1_545 S
N5066 H5072 0.984 . S
N5066 H5073 0.984 1_545 S
N5067 C5060 1.356 1_455 S
N5067 H5070 0.984 . S
N5067 H5071 0.985 . S
H5068 N5063 0.984 . S
H5069 N5063 0.985 . S
H5070 N5067 0.984 . S
H5071 N5067 0.985 . S
H5072 N5066 0.984 . S
H5073 N5066 0.984 1_565 S
H5074 N5062 0.984 . S
H5075 N5062 1.012 . S
C5076 C5077 1.363 . S
C5076 C5082 1.379 . S
C5076 N5084 1.356 . S
C5077 C5076 1.363 . S
C5077 C5083 1.363 . S
C5078 C5079 1.363 . S
C5078 C5083 1.379 . S
C5078 N5085 1.356 . S
C5079 C5078 1.363 . S
C5079 C5082 1.363 . S
N5080 C5082 1.356 . S
N5080 H5092 0.984 . S
N5080 H5093 0.985 . S
N5081 C5083 1.356 . S
N5081 H5086 0.984 . S
N5081 H5087 0.985 . S
C5082 C5076 1.379 . S
C5082 C5079 1.363 . S
C5082 N5080 1.356 . S
C5083 C5077 1.363 . S
C5083 C5078 1.379 . S
C5083 N5081 1.356 . S
N5084 C5076 1.356 . S
N5084 H5090 0.984 . S
N5084 H5091 0.984 . S
N5085 C5078 1.356 . S
N5085 H5088 0.984 . S
N5085 H5089 0.985 . S
H5086 N5081 0.984 . S
H5087 N5081 0.985 . S
H5088 N5085 0.984 . S
H5089 N5085 0.985 . S
H5090 N5084 0.984 . S
H5091 N5084 0.984 . S
H5092 N5080 0.984 . S
H5093 N5080 0.985 . S
C5094 C5095 1.363 . S
C5094 C5100 1.379 . S
C5094 N5102 1.356 . S
C5095 C5094 1.363 . S
C5095 C5101 1.363 1_554 S
C5096 C5097 1.389 . S
C5096 C5101 1.374 1_554 S
C5096 N5103 1.342 1_554 S
C5097 C5096 1.389 . S
C5097 C5100 1.363 . S
N5098 C5100 1.356 . S
N5098 H5110 0.984 . S
N5098 H5111 0.985 . S
N5099 C5101 1.356 . S
N5099 H5104 0.984 . S
N5099 H5105 0.985 . S
C5100 C5094 1.379 . S
C5100 C5097 1.363 . S
C5100 N5098 1.356 . S
C5101 C5095 1.363 1_556 S
C5101 C5096 1.374 1_556 S
C5101 N5099 1.356 . S
N5102 C5094 1.356 . S
N5102 H5108 0.984 . S
N5102 H5109 0.984 . S
N5103 C5096 1.342 1_556 S
N5103 H5106 0.984 . S
N5103 H5107 0.985 . S
H5104 N5099 0.984 . S
H5105 N5099 0.985 . S
H5106 N5103 0.984 . S
H5107 N5103 0.985 . S
H5108 N5102 0.984 . S
H5109 N5102 0.984 . S
H5110 N5098 0.984 . S
H5111 N5098 0.985 . S
C5112 C5113 1.363 . S
C5112 C5118 1.379 . S
C5112 N5120 1.356 . S
C5113 C5112 1.363 . S
C5113 C5119 1.363 . S
C5114 C5115 1.363 . S
C5114 C5119 1.379 . S
C5114 N5121 1.356 . S
C5115 C5114 1.363 . S
C5115 C5118 1.363 . S
N5116 C5118 1.356 . S
N5116 H5128 0.984 . S
N5116 H5129 0.985 . S
N5117 C5119 1.356 . S
N5117 H5122 0.984 . S
N5117 H5123 0.985 . S
C5118 C5112 1.379 . S
C5118 C5115 1.363 . S
C5118 N5116 1.356 . S
C5119 C5113 1.363 . S
C5119 C5114 1.379 . S
C5119 N5117 1.356 . S
N5120 C5112 1.356 . S
N5120 H5126 0.984 . S
N5120 H5127 0.984 . S
N5121 C5114 1.356 . S
N5121 H5124 0.984 . S
N5121 H5125 0.985 . S
H5122 N5117 0.984 . S
H5123 N5117 0.985 . S
H5124 N5121 0.984 . S
H5125 N5121 0.985 . S
H5126 N5120 0.984 . S
H5127 N5120 0.984 . S
H5128 N5116 0.984 . S
H5129 N5116 0.985 . S
C5130 C5131 1.363 . S
C5130 C5136 1.379 . S
C5130 N5138 1.356 . S
C5131 C5130 1.363 . S
C5131 C5137 1.363 . S
C5132 C5133 1.363 . S
C5132 C5137 1.379 . S
C5132 N5139 1.356 1_554 S
C5133 C5132 1.363 . S
C5133 C5136 1.363 . S
N5134 C5136 1.356 . S
N5134 H5146 0.984 . S
N5134 H5147 0.985 . S
N5135 C5137 1.356 . S
N5135 H5140 0.984 . S
N5135 H5141 0.985 . S
C5136 C5130 1.379 . S
C5136 C5133 1.363 . S
C5136 N5134 1.356 . S
C5137 C5131 1.363 . S
C5137 C5132 1.379 . S
C5137 N5135 1.356 . S
N5138 C5130 1.356 . S
N5138 H5144 0.984 . S
N5138 H5145 0.984 . S
N5139 C5132 1.356 1_556 S
N5139 H5142 0.984 . S
N5139 H5143 0.985 . S
H5140 N5135 0.984 . S
H5141 N5135 0.985 . S
H5142 N5139 0.984 . S
H5143 N5139 0.985 . S
H5144 N5138 0.984 . S
H5145 N5138 0.984 . S
H5146 N5134 0.984 . S
H5147 N5134 0.985 . S
C5148 C5149 1.363 . S
C5148 C5154 1.379 . S
C5148 N5156 1.356 . S
C5149 C5148 1.363 . S
C5149 C5155 1.363 . S
C5150 C5151 1.363 . S
C5150 C5155 1.379 . S
C5150 N5157 1.356 . S
C5151 C5150 1.363 . S
C5151 C5154 1.363 . S
N5152 C5154 1.356 . S
N5152 H5164 0.984 . S
N5152 H5165 0.985 . S
N5153 C5155 1.356 . S
N5153 H5158 0.984 . S
N5153 H5159 0.985 . S
C5154 C5148 1.379 . S
C5154 C5151 1.363 . S
C5154 N5152 1.356 . S
C5155 C5149 1.363 . S
C5155 C5150 1.379 . S
C5155 N5153 1.356 . S
N5156 C5148 1.356 . S
N5156 H5162 0.984 . S
N5156 H5163 0.984 . S
N5157 C5150 1.356 . S
N5157 H5160 0.984 . S
N5157 H5161 0.985 . S
H5158 N5153 0.984 . S
H5159 N5153 0.985 . S
H5160 N5157 0.984 . S
H5161 N5157 0.985 . S
H5162 N5156 0.984 . S
H5163 N5156 0.984 . S
H5164 N5152 0.984 . S
H5165 N5152 0.985 . S
C5166 C5167 1.363 . S
C5166 C5172 1.379 . S
C5166 N5174 1.356 . S
C5167 C5166 1.363 . S
C5167 C5173 1.363 . S
C5168 C5169 1.363 . S
C5168 C5173 1.379 . S
C5168 N5175 1.356 . S
C5169 C5168 1.363 . S
C5169 C5172 1.363 . S
N5170 C5172 1.356 . S
N5170 H5182 0.984 . S
N5170 H5183 0.985 . S
N5171 C5173 1.356 . S
N5171 H5176 0.984 . S
N5171 H5177 0.985 . S
C5172 C5166 1.379 . S
C5172 C5169 1.363 . S
C5172 N5170 1.356 . S
C5173 C5167 1.363 . S
C5173 C5168 1.379 . S
C5173 N5171 1.356 . S
N5174 C5166 1.356 . S
N5174 H5180 0.984 . S
N5174 H5181 0.984 . S
N5175 C5168 1.356 . S
N5175 H5178 0.984 . S
N5175 H5179 0.985 . S
H5176 N5171 0.984 . S
H5177 N5171 0.985 . S
H5178 N5175 0.984 . S
H5179 N5175 0.985 . S
H5180 N5174 0.984 . S
H5181 N5174 0.984 . S
H5182 N5170 0.984 . S
H5183 N5170 0.985 . S
C3457 C665 1.959 . S
C3459 C2168 1.885 . S
C3475 C381 2.224 . S
C3477 C2259 2.239 . S
C3493 C460 1.817 . S
C3495 C2336 1.915 . S
C3513 C2434 1.426 . S
C3511 C585 1.549 . S
C3529 C108 1.590 . S
C3531 C2518 1.606 . S
C3549 C2590 1.020 . S
C3547 C196 1.172 . S
C3567 C2679 1.394 . S
C3565 C313 1.222 . S
C3583 C49 1.562 . S
C3585 C2756 1.385 . S
C3603 C2175 2.039 . S
C3601 C1457 2.133 . S
C3619 C1545 0.641 . S
C3621 C2266 0.673 . S
C3639 C2343 1.155 . S
C3637 C1721 1.185 . S
C3657 C2420 1.877 . S
C3655 C1113 1.844 . S
C3673 C1428 2.277 . S
C3675 C2504 2.144 . S
C3693 C2606 1.099 . S
C3691 C1516 1.172 . S
C3711 C2686 0.751 . S
C3709 C1692 0.752 . S
C3729 C2763 1.572 . S
C3727 C1085 1.725 . S
C3747 C2182 1.412 . S
C3745 C988 1.493 1_545 S
C3763 C1817 1.933 . S
C3765 C2847 1.888 1_556 S
C3783 C2935 2.182 . S
C3781 C2081 2.366 . S
C3801 C3008 0.689 . S
C3799 C1993 0.700 . S
C3817 C761 1.122 . S
C3819 C2770 1.229 . S
C3835 C821 1.519 . S
C3837 C2350 1.546 . S
C3853 C2053 2.293 . S
C3855 C3099 2.232 . S
C3873 C3176 0.757 . S
C3871 C1868 0.757 . S
C3891 C2179 1.880 . S
C3889 C372 1.949 . S
C3909 C3194 2.238 . S
C3907 C645 2.217 . S
C3925 C577 1.813 . S
C3927 C2347 1.910 . S
C3943 C497 1.548 . S
C3945 C3094 1.424 . S
C3963 C2506 1.603 . S
C3961 C57 1.592 . S
C3979 C293 1.170 . S
C3981 C2938 1.017 . S
C3999 C2690 1.391 . S
C3997 C205 1.210 . S
C4017 C3271 1.381 . S
C4015 C145 1.567 . S
C4035 C2186 2.036 . S
C4033 C909 2.129 . S
C4053 C3178 0.671 . S
C4051 C1956 0.639 . S
C4069 C724 1.183 . S
C4071 C2354 1.154 . S
C4087 C1780 1.840 . S
C4089 C3103 1.865 . S
C4105 C937 2.282 . S
C4107 C2515 2.136 . S
C4125 C2931 1.096 . S
C4123 C1985 1.169 . S
C4141 C753 0.748 . S
C4143 C2674 0.749 . S
C4159 C1809 1.724 . S
C4161 C3278 1.573 . S
C4177 C1173 1.493 . S
C4179 C2170 1.409 1_554 S
C4195 C1105 1.928 . S
C4197 C2858 1.890 . S
C4213 C1633 2.364 . S
C4215 C2588 2.180 . S
C4231 C1553 0.693 . S
C4233 C3019 0.682 . S
C4251 C3262 1.231 . S
C4249 C1729 1.130 . S
C4267 C1340 1.522 . S
C4269 C2338 1.544 . S
C4287 C2438 2.230 . S
C4285 C1604 2.289 . S
C4305 C2263 0.751 . S
C4303 C1252 0.751 . S
C4321 C489 1.946 . S
C4323 C3344 1.885 . S
C4341 C3183 2.239 . S
C4339 C557 2.224 . S
C4357 C636 1.817 . S
C4359 C3428 1.915 . S
C4375 C409 1.549 1_655 S
C4377 C3106 1.426 . S
C4393 C284 1.590 . S
C4395 C2854 1.606 . S
C4413 C2926 1.020 . S
C4411 C20 1.172 . S
C4431 C3015 1.394 . S
C4429 C137 1.222 . S
C4449 C3260 1.385 . S
C4447 C225 1.562 . S
C4467 C3351 2.039 . S
C4465 C1641 2.133 . S
C4483 C1193 0.641 . S
C4485 C3190 0.673 . S
C4503 C3435 1.155 . S
C4501 C1289 1.185 . S
C4521 C3092 1.877 . S
C4519 C1377 1.844 . S
C4539 C2840 2.144 . S
C4537 C1613 2.277 . S
C4555 C1164 1.171 . S
C4557 C2942 1.099 . S
C4575 C3022 0.751 . S
C4573 C1261 0.752 . S
C4591 C1349 1.725 . S
C4593 C3267 1.572 . S
C4611 C3358 1.412 . S
C4609 C1965 1.493 . S
C4627 C849 1.933 . S
C4629 C2511 1.891 . S
C4647 C2599 2.183 . S
C4645 C929 2.371 . S
C4665 C2672 0.689 . S
C4663 C1017 0.700 . S
C4683 C3274 1.229 . S
C4681 C1897 1.122 . S
C4699 C1789 1.518 1_554 S
C4701 C3442 1.542 . S
C4719 C2427 2.231 . S
C4717 C900 2.287 . S
C4737 C2252 0.756 . S
C4735 C733 0.756 . S
C4753 C548 1.949 . S
C4755 C3355 1.880 . S
C4773 C2270 2.238 . S
C4771 C469 2.217 . S
C4789 C401 1.813 . S
C4791 C3439 1.910 . S
C4807 C673 1.548 . S
C4809 C2422 1.423 . S
C4825 C233 1.592 . S
C4827 C2842 1.603 . S
C4845 C2602 1.017 . S
C4843 C117 1.170 . S
C4861 C29 1.210 . S
C4863 C3026 1.391 . S
C4879 C321 1.567 . S
C4881 C2767 1.380 . S
C4899 C3362 2.036 . S
C4897 C2044 2.129 . S
C4915 C997 0.639 . S
C4917 C2254 0.671 . S
C4935 C3446 1.154 . S
C4933 C1877 1.183 . S
C4951 C812 1.841 . S
C4953 C2431 1.871 . S
C4969 C2073 2.282 . S
C4971 C2851 2.139 . S
C4989 C2595 1.096 . S
C4987 C1025 1.170 . S
C5005 C1905 0.748 . S
C5007 C3010 0.751 1_655 S
C5025 C2774 1.567 . S
C5023 C841 1.723 . S
C5043 C3346 1.409 . S
C5041 C1525 1.493 . S
C5061 C2522 1.890 1_665 S
C5059 C1369 1.928 . S
C5077 C1465 2.364 . S
C5079 C2924 2.180 . S
C5097 C2683 0.682 . S
C5095 C1201 0.693 . S
C5113 C1281 1.130 . S
C5115 C2758 1.231 . S
C5131 C1076 1.522 . S
C5133 C3430 1.544 1_554 S
C5151 C3110 2.230 . S
C5149 C1437 2.289 . S
C5169 C3187 0.751 . S
C5167 C1701 0.751 . S
