# Generated by pormake.
# Topology pth, (4,4)-cn, num edge types: 1
# Building blocks:
#     Node 0, Type 0, BuildingBlock: CEKHIL_clean_sbu_0, # of connection points: 4
#     Node 1, Type 0, BuildingBlock: CEKHIL_clean_sbu_0, # of connection points: 4
#     Node 2, Type 0, BuildingBlock: CEKHIL_clean_sbu_0, # of connection points: 4
#     Node 3, Type 1, BuildingBlock: NAWXER_clean_sbu_0, # of connection points: 4
#     Node 4, Type 1, BuildingBlock: NAWXER_clean_sbu_0, # of connection points: 4
#     Node 5, Type 1, BuildingBlock: NAWXER_clean_sbu_0, # of connection points: 4
#     Edge 6, Type (0, 1), BuildingBlock: CIFDUS_clean_linker_0, # of connection points: 2
#     Edge 7, Type (0, 1), BuildingBlock: CIFDUS_clean_linker_0, # of connection points: 2
#     Edge 8, Type (0, 1), BuildingBlock: CIFDUS_clean_linker_0, # of connection points: 2
#     Edge 9, Type (0, 1), BuildingBlock: CIFDUS_clean_linker_0, # of connection points: 2
#     Edge 10, Type (0, 1), BuildingBlock: CIFDUS_clean_linker_0, # of connection points: 2
#     Edge 11, Type (0, 1), BuildingBlock: CIFDUS_clean_linker_0, # of connection points: 2
#     Edge 12, Type (0, 1), BuildingBlock: CIFDUS_clean_linker_0, # of connection points: 2
#     Edge 13, Type (0, 1), BuildingBlock: CIFDUS_clean_linker_0, # of connection points: 2
#     Edge 14, Type (0, 1), BuildingBlock: CIFDUS_clean_linker_0, # of connection points: 2
#     Edge 15, Type (0, 1), BuildingBlock: CIFDUS_clean_linker_0, # of connection points: 2
#     Edge 16, Type (0, 1), BuildingBlock: CIFDUS_clean_linker_0, # of connection points: 2
#     Edge 17, Type (0, 1), BuildingBlock: CIFDUS_clean_linker_0, # of connection points: 2
# Relax obj value: 0.003
# Max RMSD: 0.042
# Mean RMSD: 0.026
data_MOF--net-pth--node1-CEKHIL_clean_sbu_0--node2-NAWXER_clean_sbu_0--edge1-CIFDUS_clean_linker_0
_symmetry_space_group_name_H-M    P1
_symmetry_Int_Tables_number       1
_symmetry_cell_setting            triclinic
loop_
_symmetry_equiv_pos_as_xyz
'x, y, z'
_cell_length_a     19.704877
_cell_length_b     19.74603
_cell_length_c     49.199625
_cell_angle_alpha  90.589627
_cell_angle_beta   89.949481
_cell_angle_gamma 120.14482
loop_
_atom_site_label
_atom_site_type_symbol
_atom_site_fract_x
_atom_site_fract_y
_atom_site_fract_z
_atom_type_partial_charge
Co0 Co 0.06667 0.04159 0.09142 0.0
O1 O 0.02363 0.95838 0.11795 0.0
O2 O 0.1291 0.99105 0.09322 0.0
C3 C 0.05555 0.12892 0.11885 0.0
O4 O 0.13566 0.12519 0.06389 0.0
Co5 Co 0.98343 0.12701 0.06848 0.0
O6 O 0.08974 0.20666 0.05639 0.0
C7 C 0.93638 0.96555 0.04949 0.0
C8 C 0.0825 0.94826 0.1124 0.0
C9 C 0.14323 0.18877 0.05408 0.0
O10 O 0.99587 0.96766 0.06154 0.0
O11 O 0.91985 0.02031 0.05186 0.0
O12 O 0.1154 0.11844 0.12139 0.0
O13 O 1.00492 0.08594 0.10069 0.0
Co14 Co 0.01679 0.0384 0.40822 0.0
O15 O 0.96198 0.07385 0.38504 0.0
O16 O 0.06492 0.15146 0.41061 0.0
C17 C 0.02368 0.95885 0.37612 0.0
O18 O 0.09352 0.02821 0.43358 0.0
Co19 Co 0.95481 0.86505 0.42326 0.0
O20 O 0.06445 0.90303 0.43484 0.0
C21 C 0.88841 0.95465 0.45005 0.0
C22 C 0.01414 0.14465 0.39239 0.0
C23 C 0.11031 0.97537 0.44017 0.0
O24 O 0.94067 0.01943 0.43911 0.0
O25 O 0.88241 0.88822 0.44472 0.0
O26 O 0.07482 0.03332 0.3767 0.0
O27 O 0.96907 0.93547 0.39407 0.0
Co28 Co 0.01894 0.04344 0.74101 0.0
O29 O 0.10543 0.1058 0.71709 0.0
O30 O 0.08786 1.00007 0.73836 0.0
C31 C 0.92728 0.03928 0.71211 0.0
O32 O 0.93711 0.9598 0.76604 0.0
Co33 Co 0.90574 0.09501 0.76379 0.0
O34 O 0.83829 0.98317 0.77304 0.0
C35 C 0.06849 0.16644 0.78542 0.0
C36 C 0.1283 0.05544 0.72119 0.0
C37 C 0.86782 0.93894 0.77478 0.0
O38 O 0.07915 0.11471 0.77285 0.0
O39 O 1.00619 0.17083 0.7826 0.0
O40 O 0.95233 0.98996 0.70942 0.0
O41 O 0.95908 0.09003 0.73153 0.0
C42 C 0.99579 0.61268 0.28287 0.0
C43 C 0.04432 0.44467 0.21974 0.0
O44 O 0.0671 0.63075 0.27918 0.0
Zn45 Zn 0.13767 0.5964 0.25785 0.0
O46 O 0.94067 0.5519 0.27111 0.0
Zn47 Zn 1.00994 0.52366 0.2507 0.0
O48 O 0.05433 0.48729 0.28295 0.0
O49 O 0.18183 0.56511 0.28831 0.0
O50 O 0.97669 0.43577 0.22456 0.0
O51 O 0.1049 0.50183 0.23085 0.0
O52 O 0.1945 0.68938 0.23435 0.0
O53 O 0.06711 0.62337 0.22591 0.0
C54 C 0.11783 0.50513 0.29566 0.0
C55 C 0.13512 0.6818 0.22126 0.0
C56 C 0.64484 0.11381 0.61603 0.0
C57 C 0.4598 0.10736 0.54648 0.0
O58 O 0.59107 0.04639 0.60785 0.0
Zn59 Zn 0.49372 0.99154 0.58183 0.0
O60 O 0.64614 0.17499 0.60715 0.0
Zn61 Zn 0.55444 0.12048 0.58229 0.0
O62 O 0.46124 0.06552 0.6101 0.0
O63 O 0.40619 0.93707 0.6076 0.0
O64 O 0.51332 0.17044 0.55758 0.0
O65 O 0.44963 0.04137 0.55434 0.0
O66 O 0.53201 0.94068 0.5566 0.0
O67 O 0.59765 0.06982 0.55383 0.0
C68 C 0.40932 0.99771 0.61827 0.0
C69 C 0.58625 1.00302 0.54581 0.0
C70 C 0.50017 0.41902 0.9524 0.0
C71 C 0.66558 0.58422 0.87654 0.0
O72 O 0.48497 0.46995 0.94295 0.0
Zn73 Zn 0.52017 0.55644 0.91341 0.0
O74 O 0.55581 0.41212 0.94198 0.0
Zn75 Zn 0.5888 0.49718 0.91467 0.0
O76 O 0.63128 0.59835 0.94029 0.0
O77 O 0.55519 0.64991 0.9358 0.0
O78 O 0.67736 0.53379 0.8884 0.0
O79 O 0.60994 0.5948 0.88459 0.0
O80 O 0.4273 0.51243 0.89028 0.0
O81 O 0.48931 0.4454 0.88807 0.0
C82 C 0.61469 0.65144 0.94664 0.0
C83 C 0.43259 0.45518 0.88054 0.0
H84 H 0.15323 0.234 0.15726 0.0
H85 H 0.9292 0.14944 0.11769 0.0
H86 H 0.90397 0.23712 0.14548 0.0
H87 H 0.94499 0.33848 0.18148 0.0
H88 H 0.17089 0.42509 0.22 0.0
H89 H 0.19518 0.33662 0.1925 0.0
C90 C 0.09909 0.23501 0.15468 0.0
C91 C 0.04343 0.18515 0.13542 0.0
C92 C 0.08481 0.28609 0.1707 0.0
C93 C 0.97342 0.18728 0.13234 0.0
C94 C 0.95864 0.23737 0.14829 0.0
C95 C 0.99931 0.33774 0.18386 0.0
C96 C 0.05583 0.38862 0.20277 0.0
C97 C 0.01377 0.28701 0.16764 0.0
C98 C 0.12629 0.38709 0.20547 0.0
C99 C 0.14044 0.3363 0.18976 0.0
H100 H 0.84605 0.06621 0.45827 0.0
H101 H 0.79974 0.84019 0.48604 0.0
H102 H 0.69915 0.83222 0.51658 0.0
H103 H 0.62389 0.88927 0.53611 0.0
H104 H 0.67093 0.11584 0.50904 0.0
H105 H 0.76994 0.12295 0.47762 0.0
C106 C 0.81433 0.01553 0.47114 0.0
C107 C 0.83076 0.95408 0.4697 0.0
C108 C 0.75564 0.01077 0.48874 0.0
C109 C 0.78839 0.88847 0.48647 0.0
C110 C 0.7305 0.88359 0.50402 0.0
C111 C 0.65511 0.93962 0.52307 0.0
C112 C 0.63981 1.00167 0.52492 0.0
C113 C 0.71323 0.94413 0.50527 0.0
C114 C 0.68161 0.06714 0.5081 0.0
C115 C 0.73855 0.0715 0.49014 0.0
H116 H 0.91944 0.85426 0.8037 0.0
H117 H 0.70965 0.85107 0.77635 0.0
H118 H 0.62899 0.73311 0.80224 0.0
H119 H 0.61779 0.64005 0.83619 0.0
H120 H 0.8243 0.644 0.86707 0.0
H121 H 0.90638 0.7508 0.83578 0.0
C122 C 0.85603 0.82691 0.80314 0.0
C123 C 0.82069 0.86217 0.78832 0.0
C124 C 0.80947 0.75931 0.81873 0.0
C125 C 0.73846 0.82605 0.78784 0.0
C126 C 0.69218 0.75837 0.8026 0.0
C127 C 0.68078 0.66337 0.83584 0.0
C128 C 0.715 0.63464 0.8541 0.0
C129 C 0.72708 0.72592 0.81866 0.0
C130 C 0.79646 0.66478 0.85312 0.0
C131 C 0.84335 0.72646 0.83544 0.0
H132 H 0.04794 0.91158 0.16535 0.0
H133 H 0.16136 0.87301 0.09691 0.0
H134 H 0.19573 0.79253 0.12501 0.0
H135 H 0.18822 0.72802 0.16918 0.0
H136 H 0.07947 0.77359 0.23749 0.0
H137 H 0.05021 0.85743 0.20969 0.0
C138 C 0.07971 0.88509 0.15654 0.0
C139 C 0.10065 0.89688 0.12897 0.0
C140 C 0.10142 0.84117 0.17302 0.0
C141 C 0.14371 0.86396 0.11803 0.0
C142 C 0.16373 0.81827 0.13413 0.0
C143 C 0.16044 0.75845 0.17805 0.0
C144 C 0.13747 0.74613 0.20547 0.0
C145 C 0.14281 0.80625 0.16172 0.0
C146 C 0.09921 0.78377 0.21658 0.0
C147 C 0.08153 0.83089 0.20061 0.0
H148 H 0.20237 0.1099 0.47022 0.0
H149 H 0.18338 0.89075 0.44496 0.0
H150 H 0.29506 0.91778 0.4734 0.0
H151 H 0.39036 0.99649 0.50802 0.0
H152 H 0.4109 0.21386 0.53571 0.0
H153 H 0.30758 0.19562 0.50334 0.0
C154 C 0.22334 0.0686 0.47072 0.0
C155 C 0.18354 0.99774 0.45566 0.0
C156 C 0.28769 0.08405 0.48759 0.0
C157 C 0.21177 0.94505 0.45655 0.0
C158 C 0.27591 0.9605 0.4728 0.0
C159 C 0.37282 0.04045 0.50691 0.0
C160 C 0.40753 0.10595 0.5245 0.0
C161 C 0.31298 0.0287 0.48883 0.0
C162 C 0.38511 0.16293 0.52239 0.0
C163 C 0.32563 0.15209 0.50403 0.0
H164 H 0.21127 0.18237 0.79904 0.0
H165 H 0.06518 0.28477 0.81336 0.0
H166 H 0.16463 0.38351 0.84297 0.0
H167 H 0.29285 0.44144 0.86551 0.0
H168 H 0.43907 0.33919 0.85212 0.0
H169 H 0.34051 0.24102 0.82165 0.0
C170 C 0.2011 0.22616 0.80866 0.0
C171 C 0.13033 0.22538 0.80385 0.0
C172 C 0.25889 0.2835 0.82593 0.0
C173 C 0.11866 0.28311 0.81657 0.0
C174 C 0.17574 0.34011 0.83358 0.0
C175 C 0.30337 0.39797 0.85582 0.0
C176 C 0.37334 0.39797 0.86116 0.0
C177 C 0.24605 0.34097 0.83845 0.0
C178 C 0.38567 0.34074 0.84848 0.0
C179 C 0.32924 0.28433 0.83102 0.0
H180 H 0.89778 0.1587 0.70477 0.0
H181 H 0.82998 0.92542 0.67645 0.0
H182 H 0.7383 0.92984 0.64411 0.0
H183 H 0.67805 0.99902 0.62402 0.0
H184 H 0.74656 0.23393 0.65048 0.0
H185 H 0.83879 0.23041 0.6833 0.0
C186 C 0.86257 0.10869 0.69161 0.0
C187 C 0.87017 0.04142 0.69313 0.0
C188 C 0.81089 0.11226 0.67268 0.0
C189 C 0.82505 0.97761 0.67572 0.0
C190 C 0.77276 0.9802 0.65721 0.0
C191 C 0.7129 0.04971 0.63697 0.0
C192 C 0.70482 0.11654 0.63496 0.0
C193 C 0.76537 0.04715 0.65553 0.0
C194 C 0.75162 0.18189 0.6516 0.0
C195 C 0.804 0.17963 0.67043 0.0
H196 H 0.80234 0.94115 0.02517 0.0
H197 H 0.94958 0.83807 0.03329 0.0
H198 H 0.86189 0.7311 1.00247 0.0
H199 H 0.74504 0.66909 0.9726 0.0
H200 H 0.60014 0.77489 0.96485 0.0
H201 H 0.68627 0.87929 0.99636 0.0
C202 C 0.8159 0.89555 1.02034 0.0
C203 C 0.88322 0.89826 0.03157 0.0
C204 C 0.76569 0.83488 1.00264 0.0
C205 C 0.89856 0.83781 0.02501 0.0
C206 C 0.84842 0.77671 1.00734 0.0
C207 C 0.73207 0.71486 0.97781 0.0
C208 C 0.66602 0.71408 0.96625 0.0
C209 C 0.78206 0.77497 0.99593 0.0
C210 C 0.65035 0.77391 0.97334 0.0
C211 C 0.69964 0.83367 0.99136 0.0
H212 H 0.91227 0.80675 0.36595 0.0
H213 H 0.14435 0.98695 0.34241 0.0
H214 H 0.15299 0.89579 0.31068 0.0
H215 H 0.09718 0.76551 0.29075 0.0
H216 H 0.86483 0.58335 0.31281 0.0
H217 H 0.85296 0.67546 0.34384 0.0
C218 C 0.96473 0.82597 0.35387 0.0
C219 C 0.02801 0.90345 0.3567 0.0
C220 C 0.96898 0.77324 0.33541 0.0
C221 C 0.09512 0.92776 0.3407 0.0
C222 C 0.10004 0.87567 0.32255 0.0
C223 C 0.04363 0.74558 0.3023 0.0
C224 C 0.98221 0.66732 0.29975 0.0
C225 C 0.03765 0.79837 0.31991 0.0
C226 C 0.91285 0.64319 0.31444 0.0
C227 C 0.90639 0.69575 0.33225 0.0
H228 H 0.14732 0.93238 0.70614 0.0
H229 H 0.25112 0.18263 0.69878 0.0
H230 H 0.34874 0.18618 0.66738 0.0
H231 H 0.3995 0.11846 0.64016 0.0
H232 H 0.29382 0.86728 0.64456 0.0
H233 H 0.20162 0.86367 0.67895 0.0
C234 C 0.19221 0.98774 0.69797 0.0
C235 C 0.19239 0.05735 0.70489 0.0
C236 C 0.24696 0.98899 0.67918 0.0
C237 C 0.24988 0.12844 0.69381 0.0
C238 C 0.30552 0.13043 0.67579 0.0
C239 C 0.35669 0.0626 0.64863 0.0
C240 C 0.35367 0.9931 0.63964 0.0
C241 C 0.30371 0.06102 0.66799 0.0
C242 C 0.29741 0.92161 0.65098 0.0
C243 C 0.24477 0.91962 0.67068 0.0
H244 H 0.25006 0.15682 0.02937 0.0
H245 H 0.1992 0.34273 0.04452 0.0
H246 H 0.31106 0.43137 1.01718 0.0
H247 H 0.41624 0.45436 0.98651 0.0
H248 H 0.46703 0.27055 0.96793 0.0
H249 H 0.36373 0.18346 0.99965 0.0
C250 C 0.26403 0.21694 0.02687 0.0
C251 C 0.21544 0.24266 0.03883 0.0
C252 C 0.32843 0.268 1.01056 0.0
C253 C 0.23455 0.32082 0.03534 0.0
C254 C 0.29881 0.37182 1.01975 0.0
C255 C 0.40542 0.39537 0.98945 0.0
C256 C 0.44885 0.36878 0.9746 0.0
C257 C 0.34501 0.34564 1.00689 0.0
C258 C 0.43467 0.29261 0.97912 0.0
C259 C 0.37509 0.24268 0.99708 0.0
H260 H 0.14648 0.28526 0.38278 0.0
H261 H 0.89629 0.15645 0.36894 0.0
H262 H 0.90681 0.26047 0.33975 0.0
H263 H 0.98687 0.38114 0.31539 0.0
H264 H 0.23853 0.50868 0.32578 0.0
H265 H 0.22772 0.41224 0.35926 0.0
C266 C 0.0942 0.28089 0.37377 0.0
C267 C 0.02047 0.21332 0.37811 0.0
C268 C 0.10113 0.3401 0.35617 0.0
C269 C 0.95348 0.20775 0.36594 0.0
C270 C 0.95956 0.26711 0.34917 0.0
C271 C 0.03979 0.38866 0.325 0.0
C272 C 0.11367 0.45216 0.3178 0.0
C273 C 0.03314 0.33248 0.34366 0.0
C274 C 0.181 0.4605 0.3308 0.0
C275 C 0.17474 0.40517 0.34991 0.0
loop_
_geom_bond_atom_site_label_1
_geom_bond_atom_site_label_2
_geom_bond_distance
_geom_bond_site_symmetry_2
_ccdc_geom_bond_type
Co0 O1 2.216 1_445 S
Co0 O2 2.091 1_545 S
Co0 O4 2.004 . S
Co0 O10 2.021 1_445 S
Co0 O12 2.137 . S
Co0 O13 2.244 1_455 S
O1 Co0 2.216 1_665 S
O1 C8 1.247 1_655 S
O2 Co0 2.091 1_565 S
O2 C8 1.261 . S
C3 O12 1.247 . S
C3 O13 1.272 1_455 S
O4 Co0 2.004 . S
O4 C9 1.259 . S
Co5 O6 2.061 1_655 S
Co5 O11 2.052 . S
Co5 O13 2.135 . S
O6 Co5 2.061 1_455 S
O6 C9 1.235 . S
C7 O10 1.238 . S
C7 O11 1.241 1_565 S
C8 O1 1.247 1_455 S
C8 O2 1.261 . S
C9 O4 1.259 . S
C9 O6 1.235 . S
O10 Co0 2.021 1_665 S
O10 C7 1.238 . S
O11 Co5 2.052 . S
O11 C7 1.241 1_545 S
O12 Co0 2.137 . S
O12 C3 1.247 . S
O13 Co0 2.244 1_655 S
O13 C3 1.272 1_655 S
O13 Co5 2.135 . S
Co14 O15 2.216 1_455 S
Co14 O16 2.091 . S
Co14 O18 2.004 . S
Co14 O24 2.021 1_455 S
Co14 O26 2.137 . S
Co14 O27 2.244 1_445 S
O15 Co14 2.216 1_655 S
O15 C22 1.247 1_655 S
O16 Co14 2.091 . S
O16 C22 1.261 . S
C17 O26 1.247 1_565 S
C17 O27 1.272 1_455 S
O18 Co14 2.004 . S
O18 C23 1.259 . S
Co19 O20 2.061 1_655 S
Co19 O25 2.052 . S
Co19 O27 2.135 . S
O20 Co19 2.061 1_455 S
O20 C23 1.235 1_565 S
C21 O24 1.238 . S
C21 O25 1.241 1_545 S
C22 O15 1.247 1_455 S
C22 O16 1.261 . S
C23 O18 1.259 . S
C23 O20 1.235 1_545 S
O24 Co14 2.021 1_655 S
O24 C21 1.238 . S
O25 Co19 2.052 . S
O25 C21 1.241 1_565 S
O26 Co14 2.137 . S
O26 C17 1.247 1_545 S
O27 Co14 2.244 1_665 S
O27 C17 1.272 1_655 S
O27 Co19 2.135 . S
Co28 O29 2.216 . S
Co28 O30 2.091 1_545 S
Co28 O32 2.004 1_445 S
Co28 O38 2.021 . S
Co28 O40 2.137 1_445 S
Co28 O41 2.244 1_455 S
O29 Co28 2.216 . S
O29 C36 1.247 . S
O30 Co28 2.091 1_565 S
O30 C36 1.261 1_565 S
C31 O40 1.247 1_545 S
C31 O41 1.272 . S
O32 Co28 2.004 1_665 S
O32 C37 1.259 . S
Co33 O34 2.061 1_545 S
Co33 O39 2.052 1_655 S
Co33 O41 2.135 . S
O34 Co33 2.061 1_565 S
O34 C37 1.235 . S
C35 O38 1.238 . S
C35 O39 1.241 . S
C36 O29 1.247 . S
C36 O30 1.261 1_545 S
C37 O32 1.259 . S
C37 O34 1.235 . S
O38 Co28 2.021 . S
O38 C35 1.238 . S
O39 Co33 2.052 1_455 S
O39 C35 1.241 . S
O40 Co28 2.137 1_665 S
O40 C31 1.247 1_565 S
O41 Co28 2.244 1_655 S
O41 C31 1.272 . S
O41 Co33 2.135 . S
C42 O44 1.247 . S
C42 O46 1.258 1_455 S
C43 O50 1.247 1_455 S
C43 O51 1.258 . S
O44 C42 1.247 . S
O44 Zn45 2.028 . S
Zn45 O44 2.028 . S
Zn45 O49 2.035 . S
Zn45 O51 2.035 . S
Zn45 O52 2.028 . S
O46 C42 1.258 1_655 S
O46 Zn47 2.035 . S
Zn47 O46 2.035 . S
Zn47 O48 2.028 . S
Zn47 O50 2.028 . S
Zn47 O53 2.035 . S
O48 Zn47 2.028 . S
O48 C54 1.247 1_655 S
O49 Zn45 2.035 . S
O49 C54 1.258 . S
O50 C43 1.247 1_655 S
O50 Zn47 2.028 . S
O51 C43 1.258 . S
O51 Zn45 2.035 . S
O52 Zn45 2.028 . S
O52 C55 1.247 . S
O53 Zn47 2.035 . S
O53 C55 1.258 1_655 S
C54 O48 1.247 1_455 S
C54 O49 1.258 . S
C55 O52 1.247 . S
C55 O53 1.258 1_455 S
C56 O58 1.247 1_545 S
C56 O60 1.258 . S
C57 O64 1.247 . S
C57 O65 1.258 1_545 S
O58 C56 1.247 1_565 S
O58 Zn59 2.028 . S
Zn59 O58 2.028 . S
Zn59 O63 2.035 . S
Zn59 O65 2.035 . S
Zn59 O66 2.028 . S
O60 C56 1.258 . S
O60 Zn61 2.035 . S
Zn61 O60 2.035 . S
Zn61 O62 2.028 . S
Zn61 O64 2.028 . S
Zn61 O67 2.035 . S
O62 Zn61 2.028 . S
O62 C68 1.247 . S
O63 Zn59 2.035 . S
O63 C68 1.258 1_565 S
O64 C57 1.247 . S
O64 Zn61 2.028 . S
O65 C57 1.258 1_565 S
O65 Zn59 2.035 . S
O66 Zn59 2.028 . S
O66 C69 1.247 1_565 S
O67 Zn61 2.035 . S
O67 C69 1.258 . S
C68 O62 1.247 . S
C68 O63 1.258 1_545 S
C69 O66 1.247 1_545 S
C69 O67 1.258 . S
C70 O72 1.247 . S
C70 O74 1.258 . S
C71 O78 1.247 . S
C71 O79 1.258 . S
O72 C70 1.247 . S
O72 Zn73 2.028 . S
Zn73 O72 2.028 . S
Zn73 O77 2.035 . S
Zn73 O79 2.035 . S
Zn73 O80 2.028 . S
O74 C70 1.258 . S
O74 Zn75 2.035 . S
Zn75 O74 2.035 . S
Zn75 O76 2.028 . S
Zn75 O78 2.028 . S
Zn75 O81 2.035 . S
O76 Zn75 2.028 . S
O76 C82 1.247 . S
O77 Zn73 2.035 . S
O77 C82 1.258 . S
O78 C71 1.247 . S
O78 Zn75 2.028 . S
O79 C71 1.258 . S
O79 Zn73 2.035 . S
O80 Zn73 2.028 . S
O80 C83 1.247 . S
O81 Zn75 2.035 . S
O81 C83 1.258 . S
C82 O76 1.247 . S
C82 O77 1.258 . S
C83 O80 1.247 . S
C83 O81 1.258 . S
H84 C90 0.930 . S
H85 C93 0.930 . S
H86 C94 0.930 . S
H87 C95 0.930 . S
H88 C98 0.930 . S
H89 C99 0.930 . S
C90 H84 0.930 . S
C90 C91 1.355 . S
C90 C92 1.415 . S
C91 C90 1.355 . S
C91 C93 1.419 1_455 S
C92 C90 1.415 . S
C92 C97 1.425 1_455 S
C92 C99 1.409 . S
C93 H85 0.930 . S
C93 C91 1.419 1_655 S
C93 C94 1.362 . S
C94 H86 0.930 . S
C94 C93 1.362 . S
C94 C97 1.409 . S
C95 H87 0.930 . S
C95 C96 1.355 1_655 S
C95 C97 1.415 . S
C96 C95 1.355 1_455 S
C96 C98 1.419 . S
C97 C92 1.425 1_655 S
C97 C94 1.409 . S
C97 C95 1.415 . S
C98 H88 0.930 . S
C98 C96 1.419 . S
C98 C99 1.362 . S
C99 H89 0.930 . S
C99 C92 1.409 . S
C99 C98 1.362 . S
H100 C106 0.930 . S
H101 C109 0.930 . S
H102 C110 0.930 . S
H103 C111 0.930 1_565 S
H104 C114 0.930 . S
H105 C115 0.930 . S
C106 H100 0.930 . S
C106 C107 1.355 . S
C106 C108 1.415 . S
C107 C106 1.355 . S
C107 C109 1.419 1_545 S
C108 C106 1.415 . S
C108 C113 1.425 . S
C108 C115 1.409 . S
C109 H101 0.930 . S
C109 C107 1.419 1_565 S
C109 C110 1.362 . S
C110 H102 0.930 . S
C110 C109 1.362 . S
C110 C113 1.409 1_565 S
C111 H103 0.930 1_545 S
C111 C112 1.355 . S
C111 C113 1.415 . S
C112 C111 1.355 . S
C112 C114 1.419 . S
C113 C108 1.425 . S
C113 C110 1.409 1_545 S
C113 C111 1.415 . S
C114 H104 0.930 . S
C114 C112 1.419 . S
C114 C115 1.362 . S
C115 H105 0.930 . S
C115 C108 1.409 . S
C115 C114 1.362 . S
H116 C122 0.930 . S
H117 C125 0.930 . S
H118 C126 0.930 . S
H119 C127 0.930 . S
H120 C130 0.930 . S
H121 C131 0.930 . S
C122 H116 0.930 . S
C122 C123 1.355 . S
C122 C124 1.415 . S
C123 C122 1.355 . S
C123 C125 1.419 . S
C124 C122 1.415 . S
C124 C129 1.425 . S
C124 C131 1.409 . S
C125 H117 0.930 . S
C125 C123 1.419 . S
C125 C126 1.362 . S
C126 H118 0.930 . S
C126 C125 1.362 . S
C126 C129 1.409 . S
C127 H119 0.930 . S
C127 C128 1.355 . S
C127 C129 1.415 . S
C128 C127 1.355 . S
C128 C130 1.419 . S
C129 C124 1.425 . S
C129 C126 1.409 . S
C129 C127 1.415 . S
C130 H120 0.930 . S
C130 C128 1.419 . S
C130 C131 1.362 . S
C131 H121 0.930 . S
C131 C124 1.409 . S
C131 C130 1.362 . S
H132 C138 0.930 . S
H133 C141 0.930 . S
H134 C142 0.930 . S
H135 C143 0.930 . S
H136 C146 0.930 . S
H137 C147 0.930 . S
C138 H132 0.930 . S
C138 C139 1.355 1_655 S
C138 C140 1.415 . S
C139 C138 1.355 1_455 S
C139 C141 1.419 . S
C140 C138 1.415 . S
C140 C145 1.425 1_655 S
C140 C147 1.409 . S
C141 H133 0.930 . S
C141 C139 1.419 . S
C141 C142 1.362 . S
C142 H134 0.930 . S
C142 C141 1.362 . S
C142 C145 1.409 . S
C143 H135 0.930 . S
C143 C144 1.355 . S
C143 C145 1.415 . S
C144 C143 1.355 . S
C144 C146 1.419 1_455 S
C145 C140 1.425 1_455 S
C145 C142 1.409 . S
C145 C143 1.415 . S
C146 H136 0.930 . S
C146 C144 1.419 1_655 S
C146 C147 1.362 . S
C147 H137 0.930 . S
C147 C140 1.409 . S
C147 C146 1.362 . S
H148 C154 0.930 . S
H149 C157 0.930 . S
H150 C158 0.930 . S
H151 C159 0.931 1_565 S
H152 C162 0.930 . S
H153 C163 0.930 . S
C154 H148 0.930 . S
C154 C155 1.355 . S
C154 C156 1.415 . S
C155 C154 1.355 . S
C155 C157 1.419 1_545 S
C156 C154 1.415 . S
C156 C161 1.425 . S
C156 C163 1.409 . S
C157 H149 0.930 . S
C157 C155 1.419 1_565 S
C157 C158 1.362 . S
C158 H150 0.930 . S
C158 C157 1.362 . S
C158 C161 1.409 1_565 S
C159 H151 0.931 1_545 S
C159 C160 1.354 . S
C159 C161 1.414 . S
C160 C159 1.354 . S
C160 C162 1.419 . S
C161 C156 1.425 . S
C161 C158 1.409 1_545 S
C161 C159 1.414 . S
C162 H152 0.930 . S
C162 C160 1.419 . S
C162 C163 1.362 . S
C163 H153 0.930 . S
C163 C156 1.409 . S
C163 C162 1.362 . S
H164 C170 0.930 . S
H165 C173 0.930 . S
H166 C174 0.930 . S
H167 C175 0.930 . S
H168 C178 0.930 . S
H169 C179 0.930 . S
C170 H164 0.930 . S
C170 C171 1.355 . S
C170 C172 1.415 . S
C171 C170 1.355 . S
C171 C173 1.419 . S
C172 C170 1.415 . S
C172 C177 1.425 . S
C172 C179 1.409 . S
C173 H165 0.930 . S
C173 C171 1.419 . S
C173 C174 1.362 . S
C174 H166 0.930 . S
C174 C173 1.362 . S
C174 C177 1.409 . S
C175 H167 0.930 . S
C175 C176 1.355 . S
C175 C177 1.415 . S
C176 C175 1.355 . S
C176 C178 1.419 . S
C177 C172 1.425 . S
C177 C174 1.409 . S
C177 C175 1.415 . S
C178 H168 0.930 . S
C178 C176 1.419 . S
C178 C179 1.362 . S
C179 H169 0.930 . S
C179 C172 1.409 . S
C179 C178 1.362 . S
H180 C186 0.930 . S
H181 C189 0.930 . S
H182 C190 0.932 . S
H183 C191 0.930 . S
H184 C194 0.930 . S
H185 C195 0.930 . S
C186 H180 0.930 . S
C186 C187 1.355 . S
C186 C188 1.415 . S
C187 C186 1.355 . S
C187 C189 1.419 . S
C188 C186 1.415 . S
C188 C193 1.425 . S
C188 C195 1.409 . S
C189 H181 0.930 . S
C189 C187 1.419 . S
C189 C190 1.362 . S
C190 H182 0.932 . S
C190 C189 1.362 . S
C190 C193 1.409 . S
C191 H183 0.930 . S
C191 C192 1.355 . S
C191 C193 1.415 . S
C192 C191 1.355 . S
C192 C194 1.419 . S
C193 C188 1.425 . S
C193 C190 1.409 . S
C193 C191 1.415 . S
C194 H184 0.930 . S
C194 C192 1.419 . S
C194 C195 1.362 . S
C195 H185 0.930 . S
C195 C188 1.409 . S
C195 C194 1.362 . S
H196 C202 0.930 . S
H197 C205 0.930 . S
H198 C206 0.930 . S
H199 C207 0.930 . S
H200 C210 0.930 . S
H201 C211 0.930 1_554 S
C202 H196 0.930 . S
C202 C203 1.355 . S
C202 C204 1.415 1_554 S
C203 C202 1.355 . S
C203 C205 1.419 1_554 S
C204 C202 1.415 1_556 S
C204 C209 1.425 . S
C204 C211 1.409 . S
C205 H197 0.930 . S
C205 C203 1.419 1_556 S
C205 C206 1.362 . S
C206 H198 0.930 . S
C206 C205 1.362 . S
C206 C209 1.409 . S
C207 H199 0.930 . S
C207 C208 1.355 . S
C207 C209 1.415 . S
C208 C207 1.355 . S
C208 C210 1.419 . S
C209 C204 1.425 . S
C209 C206 1.409 . S
C209 C207 1.415 . S
C210 H200 0.930 . S
C210 C208 1.419 . S
C210 C211 1.362 . S
C211 H201 0.930 1_556 S
C211 C204 1.409 . S
C211 C210 1.362 . S
H212 C218 0.930 . S
H213 C221 0.930 . S
H214 C222 0.930 . S
H215 C223 0.930 . S
H216 C226 0.930 . S
H217 C227 0.930 . S
C218 H212 0.930 . S
C218 C219 1.355 1_655 S
C218 C220 1.415 . S
C219 C218 1.355 1_455 S
C219 C221 1.419 . S
C220 C218 1.415 . S
C220 C225 1.425 1_655 S
C220 C227 1.409 . S
C221 H213 0.930 . S
C221 C219 1.419 . S
C221 C222 1.362 . S
C222 H214 0.930 . S
C222 C221 1.362 . S
C222 C225 1.409 . S
C223 H215 0.930 . S
C223 C224 1.355 . S
C223 C225 1.415 . S
C224 C223 1.355 . S
C224 C226 1.419 1_455 S
C225 C220 1.425 1_455 S
C225 C222 1.409 . S
C225 C223 1.415 . S
C226 H216 0.930 . S
C226 C224 1.419 1_655 S
C226 C227 1.362 . S
C227 H217 0.930 . S
C227 C220 1.409 . S
C227 C226 1.362 . S
H228 C234 0.930 1_565 S
H229 C237 0.930 . S
H230 C238 0.930 . S
H231 C239 0.930 . S
H232 C242 0.930 1_565 S
H233 C243 0.930 1_565 S
C234 H228 0.930 1_545 S
C234 C235 1.355 . S
C234 C236 1.415 . S
C235 C234 1.355 . S
C235 C237 1.419 . S
C236 C234 1.415 . S
C236 C241 1.425 . S
C236 C243 1.409 . S
C237 H229 0.930 . S
C237 C235 1.419 . S
C237 C238 1.362 . S
C238 H230 0.930 . S
C238 C237 1.362 . S
C238 C241 1.409 . S
C239 H231 0.930 . S
C239 C240 1.355 . S
C239 C241 1.415 . S
C240 C239 1.355 . S
C240 C242 1.419 . S
C241 C236 1.425 . S
C241 C238 1.409 . S
C241 C239 1.415 . S
C242 H232 0.930 1_545 S
C242 C240 1.419 . S
C242 C243 1.362 . S
C243 H233 0.930 1_545 S
C243 C236 1.409 . S
C243 C242 1.362 . S
H244 C250 0.930 . S
H245 C253 0.930 . S
H246 C254 0.930 . S
H247 C255 0.930 . S
H248 C258 0.930 . S
H249 C259 0.930 . S
C250 H244 0.930 . S
C250 C251 1.355 . S
C250 C252 1.415 1_554 S
C251 C250 1.355 . S
C251 C253 1.419 1_554 S
C252 C250 1.415 1_556 S
C252 C257 1.425 . S
C252 C259 1.409 . S
C253 H245 0.930 . S
C253 C251 1.419 1_556 S
C253 C254 1.362 . S
C254 H246 0.930 . S
C254 C253 1.362 . S
C254 C257 1.409 . S
C255 H247 0.930 . S
C255 C256 1.355 . S
C255 C257 1.415 . S
C256 C255 1.355 . S
C256 C258 1.419 . S
C257 C252 1.425 . S
C257 C254 1.409 . S
C257 C255 1.415 . S
C258 H248 0.930 . S
C258 C256 1.419 . S
C258 C259 1.362 . S
C259 H249 0.930 . S
C259 C252 1.409 . S
C259 C258 1.362 . S
H260 C266 0.930 . S
H261 C269 0.930 . S
H262 C270 0.930 . S
H263 C271 0.930 . S
H264 C274 0.930 . S
H265 C275 0.930 . S
C266 H260 0.930 . S
C266 C267 1.355 . S
C266 C268 1.415 . S
C267 C266 1.355 . S
C267 C269 1.419 1_455 S
C268 C266 1.415 . S
C268 C273 1.425 . S
C268 C275 1.409 . S
C269 H261 0.930 . S
C269 C267 1.419 1_655 S
C269 C270 1.362 . S
C270 H262 0.930 . S
C270 C269 1.362 . S
C270 C273 1.409 1_655 S
C271 H263 0.930 . S
C271 C272 1.355 1_655 S
C271 C273 1.415 1_655 S
C272 C271 1.355 1_455 S
C272 C274 1.419 . S
C273 C268 1.425 . S
C273 C270 1.409 1_455 S
C273 C271 1.415 1_455 S
C274 H264 0.930 . S
C274 C272 1.419 . S
C274 C275 1.362 . S
C275 H265 0.930 . S
C275 C268 1.409 . S
C275 C274 1.362 . S
C96 C43 1.467 . S
C91 C3 1.472 . S
C107 C21 1.462 . S
C112 C69 1.495 . S
C123 C37 1.454 . S
C128 C71 1.482 . S
C139 C8 1.470 . S
C144 C55 1.473 . S
C160 C57 1.479 . S
C155 C23 1.451 . S
C171 C35 1.440 . S
C176 C83 1.477 . S
C192 C56 1.464 . S
C187 C31 1.456 . S
C203 C7 1.434 . S
C208 C82 1.470 . S
C224 C42 1.472 . S
C219 C17 1.459 . S
C240 C68 1.449 . S
C235 C36 1.449 . S
C256 C70 1.473 . S
C251 C9 1.433 . S
C267 C22 1.477 . S
C272 C54 1.476 . S
