# Generated by pormake.
# Topology nia, (6,6)-cn, num edge types: 1
# Building blocks:
#     Node 0, Type 0, BuildingBlock: BETFEN_clean_sbu_0, # of connection points: 6
#     Node 1, Type 0, BuildingBlock: BETFEN_clean_sbu_0, # of connection points: 6
#     Node 2, Type 1, BuildingBlock: MIDCAF_clean_sbu_0, # of connection points: 6
#     Node 3, Type 1, BuildingBlock: MIDCAF_clean_sbu_0, # of connection points: 6
#     Edge 4, Type (0, 1), BuildingBlock: ZUJKAS_clean_linker_0, # of connection points: 2
#     Edge 5, Type (0, 1), BuildingBlock: ZUJKAS_clean_linker_0, # of connection points: 2
#     Edge 6, Type (0, 1), BuildingBlock: ZUJKAS_clean_linker_0, # of connection points: 2
#     Edge 7, Type (0, 1), BuildingBlock: ZUJKAS_clean_linker_0, # of connection points: 2
#     Edge 8, Type (0, 1), BuildingBlock: ZUJKAS_clean_linker_0, # of connection points: 2
#     Edge 9, Type (0, 1), BuildingBlock: ZUJKAS_clean_linker_0, # of connection points: 2
#     Edge 10, Type (0, 1), BuildingBlock: ZUJKAS_clean_linker_0, # of connection points: 2
#     Edge 11, Type (0, 1), BuildingBlock: ZUJKAS_clean_linker_0, # of connection points: 2
#     Edge 12, Type (0, 1), BuildingBlock: ZUJKAS_clean_linker_0, # of connection points: 2
#     Edge 13, Type (0, 1), BuildingBlock: ZUJKAS_clean_linker_0, # of connection points: 2
#     Edge 14, Type (0, 1), BuildingBlock: ZUJKAS_clean_linker_0, # of connection points: 2
#     Edge 15, Type (0, 1), BuildingBlock: ZUJKAS_clean_linker_0, # of connection points: 2
# Relax obj value: 0.211
# Max RMSD: 0.270
# Mean RMSD: 0.214
data_MOF--net-nia--node1-BETFEN_clean_sbu_0--node2-MIDCAF_clean_sbu_0--edge1-ZUJKAS_clean_linker_0
_symmetry_space_group_name_H-M    P1
_symmetry_Int_Tables_number       1
_symmetry_cell_setting            triclinic
loop_
_symmetry_equiv_pos_as_xyz
'x, y, z'
_cell_length_a     35.539683
_cell_length_b     35.46451
_cell_length_c     41.283679
_cell_angle_alpha  89.448675
_cell_angle_beta   89.699375
_cell_angle_gamma 134.13484
loop_
_atom_site_label
_atom_site_type_symbol
_atom_site_fract_x
_atom_site_fract_y
_atom_site_fract_z
_atom_type_partial_charge
Pr0 Pr 0.97164 0.0092 1.00213 0.0
Pr1 Pr 0.02896 -0.00745 0.04385 0.0
C2 C 0.91353 0.02684 0.98022 0.0
C3 C 0.91512 0.06864 0.97163 0.0
C4 C 0.93717 0.09655 0.94199 0.0
C5 C 0.9316 0.13021 0.93198 0.0
C6 C 0.90374 0.13666 0.9513 0.0
C7 C 0.88429 0.11106 0.98175 0.0
C8 C 0.88971 0.07723 0.99173 0.0
C9 C 0.0668 0.05187 0.97472 0.0
C10 C 0.05695 0.0991 0.05702 0.0
C11 C 0.08219 0.97078 0.06902 0.0
C12 C 0.07963 0.92775 0.07539 0.0
C13 C 0.05467 0.8959 0.10355 0.0
C14 C 0.0593 0.86093 0.1119 0.0
C15 C 0.08925 0.85754 0.09242 0.0
C16 C 0.11221 0.88739 0.0636 0.0
C17 C 0.10727 0.92204 0.05507 0.0
C18 C 0.93411 0.95233 0.06996 0.0
C19 C 0.94839 0.90551 0.98733 0.0
O20 O 0.91595 0.01916 1.0109 0.0
O21 O 0.93804 0.02028 0.96111 0.0
O22 O 0.05955 0.05429 1.00427 0.0
O23 O 0.02544 0.03044 0.95789 0.0
O24 O 0.07693 0.07879 0.05797 0.0
O25 O 0.01397 0.07643 0.04064 0.0
O26 O 0.0879 0.9862 0.03895 0.0
O27 O 0.05214 0.97194 0.0864 0.0
O28 O 0.94113 0.94691 0.04114 0.0
O29 O 0.97651 0.97866 0.08667 0.0
O30 O 0.92641 0.92378 0.98673 0.0
O31 O -0.0088 0.92901 1.00396 0.0
H32 H 0.95712 0.09102 0.92592 0.0
H33 H 0.94769 0.14996 0.9086 0.0
H34 H 0.86225 0.11478 0.99711 0.0
H35 H 0.87205 0.05607 1.01462 0.0
H36 H 0.03347 0.89955 0.11991 0.0
H37 H 0.04201 0.83877 0.13451 0.0
H38 H 0.13588 0.88558 0.04844 0.0
H39 H 0.12719 0.94615 0.03333 0.0
Pr40 Pr -0.00148 0.03858 0.54552 0.0
Pr41 Pr 0.01141 0.97675 0.50536 0.0
C42 C 0.98192 0.09723 0.56781 0.0
C43 C 0.93946 0.09511 0.57441 0.0
C44 C 0.91033 0.07342 0.60365 0.0
C45 C 0.87594 0.07867 0.61179 0.0
C46 C 0.87036 0.10603 0.59098 0.0
C47 C 0.89689 0.12472 0.56088 0.0
C48 C 0.93121 0.11946 0.55273 0.0
C49 C 0.95404 0.94332 0.57387 0.0
C50 C 0.90994 0.95502 0.4909 0.0
C51 C 0.03053 0.92095 0.48144 0.0
C52 C 0.07524 0.92654 0.47474 0.0
C53 C 0.10067 0.94474 0.44428 0.0
C54 C 0.13929 0.94508 0.43682 0.0
C55 C 0.15327 0.92699 0.45959 0.0
C56 C 0.12939 0.91086 0.49053 0.0
C57 C 0.09069 0.91047 0.49799 0.0
C58 C 0.0571 0.07338 0.47868 0.0
C59 C 0.09825 0.05652 0.56127 0.0
O60 O -0.00635 0.09831 0.53749 0.0
O61 O 0.98502 0.06971 0.58674 0.0
O62 O 0.9508 0.94985 0.54435 0.0
O63 O 0.97775 0.98567 0.59018 0.0
O64 O 0.92561 0.93074 0.49319 0.0
O65 O 0.93593 0.00081 0.50451 0.0
O66 O 0.01787 0.91807 0.51181 0.0
O67 O 0.02608 0.94796 0.46313 0.0
O68 O 0.06033 0.06546 0.50773 0.0
O69 O 0.03046 0.03118 0.46174 0.0
O70 O 0.08362 0.08192 0.55972 0.0
O71 O 0.07198 0.01158 0.54658 0.0
H72 H 0.91574 0.05443 0.62094 0.0
H73 H 0.85632 0.06424 0.63527 0.0
H74 H 0.89281 0.14545 0.54423 0.0
H75 H 0.95297 0.1365 0.53001 0.0
H76 H 0.08954 0.95712 0.42574 0.0
H77 H 0.15617 0.95696 0.41258 0.0
H78 H 0.1396 0.89717 0.50873 0.0
H79 H 0.07188 0.89616 0.52169 0.0
Zn80 Zn 0.36123 0.65436 0.22255 0.0
Zn81 Zn 0.35229 0.65571 0.34369 0.0
Zn82 Zn 0.35689 0.65665 0.27965 0.0
C83 C 0.45323 0.70416 0.32245 0.0
C84 C 0.28389 0.55319 0.32729 0.0
O85 O 0.32134 0.68389 0.26107 0.0
O86 O 0.30198 0.64732 0.21335 0.0
C87 C 0.46122 0.7296 0.23331 0.0
O88 O 0.43567 0.70041 0.2944 0.0
O89 O 0.4244 0.68585 0.34754 0.0
O90 O 0.29426 0.57979 0.3518 0.0
O91 O 0.30521 0.57566 0.29953 0.0
O92 O 0.433 0.72079 0.21029 0.0
O93 O 0.4395 0.70557 0.26078 0.0
O94 O 0.30682 0.57408 0.2651 0.0
O95 O 0.3461 0.58918 0.21845 0.0
C96 C 0.3134 0.55727 0.24035 0.0
O97 O 0.33264 0.69764 0.29382 0.0
O98 O 0.33878 0.70053 0.34736 0.0
C99 C 0.29677 0.66923 0.23418 0.0
C100 C 0.33009 0.7124 0.32147 0.0
Zn101 Zn 0.64388 0.32813 0.88057 0.0
Zn102 Zn 0.65142 0.35292 0.72126 0.0
Zn103 Zn 0.65323 0.35939 0.77674 0.0
C104 C 0.68872 0.44758 0.72849 0.0
C105 C 0.55201 0.27632 0.73786 0.0
O106 O 0.67557 0.31785 0.78937 0.0
O107 O 0.63778 0.30552 0.83486 0.0
C108 C 0.71619 0.43065 0.84644 0.0
O109 O 0.70027 0.43884 0.7551 0.0
O110 O 0.65464 0.40923 0.71073 0.0
O111 O 0.58171 0.27936 0.71861 0.0
O112 O 0.57192 0.30896 0.76126 0.0
O113 O 0.70507 0.4082 0.87428 0.0
O114 O 0.69285 0.40422 0.82066 0.0
O115 O 0.57285 0.31626 0.79445 0.0
O116 O 0.60053 0.3165 0.8412 0.0
C117 C 0.56338 0.30433 0.82476 0.0
O118 O 0.68415 0.32702 0.75729 0.0
O119 O 0.71433 0.36648 0.70934 0.0
C120 C 0.66594 0.30232 0.81893 0.0
C121 C 0.71087 0.33911 0.73117 0.0
H122 H 0.02849 0.75131 0.09609 0.0
H123 H 0.0527 0.70709 0.12089 0.0
H124 H 0.2056 0.85809 0.14226 0.0
H125 H 0.18195 0.90199 0.11716 0.0
H126 H 0.15494 0.73046 0.10643 0.0
H127 H 0.12954 0.76779 0.23125 0.0
H128 H 0.0976 0.76641 0.19668 0.0
H129 H 0.16589 0.82287 0.20334 0.0
C130 C 0.06734 0.77472 0.10584 0.0
C131 C 0.10356 0.82984 0.10483 0.0
C132 C 0.08109 0.74961 0.11991 0.0
C133 C 0.13073 0.77951 0.1336 0.0
C134 C 0.16707 0.83449 0.13193 0.0
H135 H 0.3175 0.75801 0.24452 0.0
H136 H 0.27102 0.77941 0.22059 0.0
C137 C 0.15365 0.85945 0.11757 0.0
C138 C 0.14489 0.75416 0.15073 0.0
H139 H 0.17485 0.74133 0.22584 0.0
C140 C 0.15861 0.73196 0.13256 0.0
C141 C 0.1498 0.75664 0.18475 0.0
C142 C 0.13459 0.77934 0.2053 0.0
C143 C 0.17971 0.71443 0.14748 0.0
C144 C 0.18586 0.71812 0.1816 0.0
C145 C 0.17029 0.73867 0.19976 0.0
C146 C 0.21066 0.7033 0.19875 0.0
C147 C 0.1976 0.6947 0.12633 0.0
C148 C 0.19083 0.65282 0.19571 0.0
C149 C 0.21776 0.64106 0.20884 0.0
C150 C 0.26402 0.67901 0.22611 0.0
C151 C 0.28169 0.72812 0.23146 0.0
C152 C 0.25532 0.74033 0.21764 0.0
H153 H 0.2032 0.70763 0.10065 0.0
H154 H 0.23499 0.70859 0.13498 0.0
H155 H 0.16736 0.6511 0.12701 0.0
H156 H 0.1554 0.623 0.18234 0.0
H157 H 0.20323 0.60267 0.20474 0.0
H158 H 0.12076 0.00282 0.58495 0.0
H159 H 0.19778 0.03749 0.61521 0.0
H160 H 0.25956 0.19361 0.60679 0.0
H161 H 0.1816 0.15889 0.57699 0.0
H162 H 0.30595 0.1163 0.59949 0.0
H163 H 0.25105 0.16722 0.70473 0.0
H164 H 0.20618 0.12603 0.67255 0.0
H165 H 0.2571 0.19612 0.66669 0.0
C166 C 0.1508 0.04459 0.58948 0.0
C167 C 0.14512 0.07823 0.57907 0.0
C168 C 0.19477 0.06426 0.60661 0.0
C169 C 0.23373 0.11781 0.61346 0.0
C170 C 0.22916 0.15191 0.60215 0.0
H171 H 0.50844 0.31319 0.7271 0.0
H172 H 0.42949 0.27034 0.6963 0.0
C173 C 0.18475 0.13212 0.58529 0.0
C174 C 0.27765 0.1372 0.63399 0.0
H175 H 0.33171 0.19147 0.70723 0.0
C176 C 0.31193 0.13289 0.62306 0.0
C177 C 0.28439 0.15796 0.66477 0.0
C178 C 0.24751 0.16177 0.67809 0.0
C179 C 0.35445 0.15091 0.64177 0.0
C180 C 0.36158 0.17236 0.67254 0.0
C181 C 0.32625 0.17519 0.68364 0.0
C182 C 0.40746 0.1961 0.69275 0.0
C183 C 0.39198 0.14833 0.62783 0.0
C184 C 0.42042 0.16808 0.70187 0.0
C185 C 0.4664 0.19316 0.7188 0.0
C186 C 0.49832 0.24555 0.72797 0.0
C187 C 0.48343 0.27225 0.72092 0.0
C188 C 0.43869 0.24794 0.70307 0.0
H189 H 0.38857 0.14381 0.60111 0.0
H190 H 0.43319 0.18413 0.63352 0.0
H191 H 0.38272 0.11372 0.63841 0.0
H192 H 0.39591 0.1275 0.69516 0.0
H193 H 0.47792 0.17235 0.72381 0.0
H194 H 0.02801 0.15318 0.06012 0.0
H195 H 0.06861 0.23139 0.09173 0.0
H196 H 0.18425 0.23314 0.12587 0.0
H197 H 0.14437 0.15536 0.09431 0.0
H198 H 0.08069 0.23809 0.15999 0.0
H199 H 0.27203 0.38627 0.09545 0.0
H200 H 0.21583 0.32498 0.0775 0.0
H201 H 0.2553 0.32673 0.10578 0.0
C202 C 0.06237 0.17045 0.07413 0.0
C203 C 0.08289 0.14793 0.07472 0.0
C204 C 0.08548 0.21513 0.09214 0.0
C205 C 0.1297 0.23829 0.11083 0.0
C206 C 0.1507 0.21639 0.11113 0.0
H207 H 0.33649 0.49888 0.23783 0.0
H208 H 0.28527 0.41545 0.20963 0.0
C209 C 0.12762 0.17172 0.0932 0.0
C210 C 0.15207 0.28324 0.13179 0.0
H211 H 0.26545 0.40895 0.14775 0.0
C212 C 0.12099 0.27565 0.15729 0.0
C213 C 0.20447 0.33214 0.12798 0.0
C214 C 0.23877 0.34337 0.10002 0.0
C215 C 0.1417 0.31491 0.18011 0.0
C216 C 0.19472 0.36337 0.17692 0.0
C217 C 0.22516 0.37144 0.15066 0.0
C218 C 0.2198 0.40694 0.19997 0.0
C219 C 0.10696 0.30325 0.2079 0.0
C220 C 0.19893 0.42847 0.20542 0.0
C221 C 0.22733 0.47493 0.22261 0.0
C222 C 0.27753 0.50122 0.23376 0.0
C223 C 0.29732 0.47849 0.22993 0.0
C224 C 0.26835 0.43129 0.2135 0.0
H225 H 0.07414 0.26029 0.21248 0.0
H226 H 0.12944 0.32185 0.23053 0.0
H227 H 0.08955 0.31889 0.20177 0.0
H228 H 0.16245 0.41153 0.19451 0.0
H229 H 0.21222 0.49286 0.22451 0.0
H230 H 0.77484 0.04503 0.6226 0.0
H231 H 0.73663 0.0753 0.64703 0.0
H232 H 0.86856 0.23257 0.61136 0.0
H233 H 0.90619 0.2028 0.58679 0.0
H234 H 0.78165 0.14886 0.69419 0.0
H235 H 0.74805 0.21547 0.58661 0.0
H236 H 0.75913 0.17307 0.58361 0.0
H237 H 0.81365 0.24321 0.58637 0.0
C238 C 0.79505 0.08583 0.61955 0.0
C239 C 0.8432 0.12147 0.6025 0.0
C240 C 0.77325 0.103 0.63345 0.0
C241 C 0.79936 0.15596 0.63047 0.0
C242 C 0.84693 0.19123 0.61307 0.0
H243 H 0.80377 0.38256 0.70388 0.0
H244 H 0.82532 0.33449 0.68356 0.0
C245 C 0.86843 0.17413 0.59904 0.0
C246 C 0.78015 0.17621 0.6478 0.0
H247 H 0.75827 0.25498 0.63715 0.0
C248 C 0.77562 0.17133 0.68175 0.0
C249 C 0.77215 0.2053 0.63145 0.0
C250 C 0.77295 0.20908 0.59497 0.0
C251 C 0.76625 0.19742 0.6999 0.0
C252 C 0.76125 0.2288 0.68349 0.0
C253 C 0.76344 0.23177 0.64957 0.0
C254 C 0.75265 0.25839 0.70073 0.0
C255 C 0.76371 0.19291 0.7364 0.0
C256 C 0.70535 0.23142 0.71757 0.0
C257 C 0.69336 0.25875 0.72925 0.0
C258 C 0.72845 0.3132 0.72414 0.0
C259 C 0.77658 0.34055 0.7083 0.0
C260 C 0.78877 0.31324 0.69677 0.0
H261 H 0.77896 0.17613 0.74546 0.0
H262 H 0.78639 0.23192 0.74741 0.0
H263 H 0.72232 0.16673 0.74475 0.0
H264 H 0.67645 0.18899 0.72004 0.0
H265 H 0.65522 0.23686 0.74044 0.0
H266 H 0.92178 0.00339 0.10968 0.0
H267 H 0.84025 0.96865 0.13558 0.0
H268 H 0.75359 0.82232 0.08612 0.0
H269 H 0.83508 0.85773 0.05929 0.0
H270 H 0.73186 0.91371 0.10781 0.0
H271 H 0.74129 0.79434 0.189 0.0
H272 H 0.79698 0.84919 0.16505 0.0
H273 H 0.74419 0.78805 0.14606 0.0
C274 C 0.88516 0.96404 0.10412 0.0
C275 C 0.88446 0.93282 0.08299 0.0
C276 C 0.83871 0.94443 0.11869 0.0
C277 C 0.79114 0.89286 0.11295 0.0
C278 C 0.79002 0.86226 0.09081 0.0
H279 H 0.48943 0.68285 0.20889 0.0
H280 H 0.57153 0.72528 0.18056 0.0
C281 C 0.8364 0.88238 0.0756 0.0
C282 C 0.74414 0.86959 0.13277 0.0
H283 H 0.6699 0.78565 0.19675 0.0
C284 C 0.71811 0.88568 0.12727 0.0
C285 C 0.72662 0.83322 0.15811 0.0
C286 C 0.75376 0.81525 0.16522 0.0
C287 C 0.67411 0.86537 0.14618 0.0
C288 C 0.65691 0.82935 0.17191 0.0
C289 C 0.68331 0.81359 0.17731 0.0
C290 C 0.60945 0.80447 0.19207 0.0
C291 C 0.64555 0.8814 0.13771 0.0
C292 C 0.60409 0.83463 0.2093 0.0
C293 C 0.55674 0.8102 0.22539 0.0
C294 C 0.51492 0.75535 0.22509 0.0
C295 C 0.52165 0.7252 0.20986 0.0
C296 C 0.56839 0.74947 0.19346 0.0
H297 H 0.65526 0.89801 0.11269 0.0
H298 H 0.60243 0.84747 0.13992 0.0
H299 H 0.65726 0.91207 0.15462 0.0
H300 H 0.63579 0.87704 0.20943 0.0
H301 H 0.55198 0.83411 0.23671 0.0
H302 H 0.90828 0.85178 0.54341 0.0
H303 H 0.86706 0.76743 0.56934 0.0
H304 H 0.90759 0.83808 0.66324 0.0
H305 H 0.9487 0.92193 0.63771 0.0
H306 H 0.91112 0.74265 0.61834 0.0
H307 H 0.74245 0.71045 0.66219 0.0
H308 H 0.78502 0.75495 0.62906 0.0
H309 H 0.80578 0.77451 0.67014 0.0
C310 C 0.90842 0.84916 0.56957 0.0
C311 C 0.93094 0.89301 0.58868 0.0
C312 C 0.8852 0.80121 0.58428 0.0
C313 C 0.88392 0.79667 0.61817 0.0
C314 C 0.90785 0.84086 0.63706 0.0
H315 H 0.75627 0.5438 0.7593 0.0
H316 H 0.80689 0.63114 0.73358 0.0
C317 C 0.93121 0.88863 0.62246 0.0
C318 C 0.85539 0.74545 0.63438 0.0
H319 H 0.75036 0.65426 0.68452 0.0
C320 C 0.87596 0.72319 0.63278 0.0
C321 C 0.80922 0.72005 0.65282 0.0
C322 C 0.78388 0.74081 0.65352 0.0
C323 C 0.85202 0.67657 0.64999 0.0
C324 C 0.80691 0.65224 0.66933 0.0
C325 C 0.7859 0.67403 0.67043 0.0
C326 C 0.77745 0.6008 0.68552 0.0
C327 C 0.87465 0.6532 0.64739 0.0
C328 C 0.74387 0.55556 0.66705 0.0
C329 C 0.71473 0.50637 0.68154 0.0
C330 C 0.71871 0.50104 0.71494 0.0
C331 C 0.75239 0.54659 0.73361 0.0
C332 C 0.7813 0.5963 0.71896 0.0
H333 H 0.91361 0.68033 0.63494 0.0
H334 H 0.87851 0.64303 0.67186 0.0
H335 H 0.84756 0.61632 0.63351 0.0
H336 H 0.74019 0.55834 0.64128 0.0
H337 H 0.68961 0.47241 0.66617 0.0
H338 H 0.24278 0.99181 0.42149 0.0
H339 H 0.2865 0.96858 0.39562 0.0
H340 H 0.18572 0.82176 0.44926 0.0
H341 H 0.1409 0.84364 0.47447 0.0
H342 H 0.33144 0.92195 0.42148 0.0
H343 H 0.15118 0.79313 0.34751 0.0
H344 H 0.16976 0.84691 0.37051 0.0
H345 H 0.14129 0.78673 0.39072 0.0
C346 C 0.23052 0.95496 0.42817 0.0
C347 C 0.18768 0.91917 0.4496 0.0
C348 C 0.25587 0.94204 0.41361 0.0
C349 C 0.23879 0.89329 0.42033 0.0
C350 C 0.19927 0.85957 0.44378 0.0
H351 H 0.24134 0.67496 0.3494 0.0
H352 H 0.2241 0.72638 0.36914 0.0
C353 C 0.17385 0.87231 0.45827 0.0
C354 C 0.25587 0.87379 0.39948 0.0
H355 H 0.21035 0.78378 0.3411 0.0
C356 C 0.30545 0.89216 0.40362 0.0
C357 C 0.22174 0.83524 0.37616 0.0
C358 C 0.16811 0.81448 0.37066 0.0
C359 C 0.32064 0.87056 0.38613 0.0
C360 C 0.28565 0.83071 0.36342 0.0
C361 C 0.23717 0.81443 0.35836 0.0
C362 C 0.29479 0.80006 0.34796 0.0
C363 C 0.37262 0.88853 0.39339 0.0
C364 C 0.33902 0.82388 0.32814 0.0
C365 C 0.34862 0.79413 0.31657 0.0
C366 C 0.31383 0.74042 0.32456 0.0
C367 C 0.26818 0.71622 0.3426 0.0
C368 C 0.25862 0.74569 0.35409 0.0
H369 H 0.38996 0.91166 0.41592 0.0
H370 H 0.36823 0.85442 0.39591 0.0
H371 H 0.40058 0.91383 0.37307 0.0
H372 H 0.36685 0.86556 0.32254 0.0
H373 H 0.38459 0.81357 0.30317 0.0
H374 H 0.15334 0.0848 1.00531 0.0
H375 H 0.23878 0.12844 0.98061 0.0
H376 H 0.18203 0.12255 0.88692 0.0
H377 H 0.09646 0.07803 0.91124 0.0
H378 H 0.25806 0.08923 0.92452 0.0
H379 H 0.32243 0.28201 0.90223 0.0
H380 H 0.27237 0.23456 0.93189 0.0
H381 H 0.25711 0.22513 0.88962 0.0
C382 C 0.15917 0.09281 0.97945 0.0
C383 C 0.11837 0.07816 0.96017 0.0
C384 C 0.20788 0.11765 0.9654 0.0
C385 C 0.21681 0.12916 0.932 0.0
C386 C 0.17605 0.11443 0.91277 0.0
H387 H 0.47647 0.27441 0.79614 0.0
H388 H 0.39235 0.23183 0.82229 0.0
C389 C 0.12718 0.08887 0.92668 0.0
C390 C 0.2685 0.15617 0.917 0.0
H391 H 0.37473 0.27038 0.87862 0.0
C392 C 0.28377 0.12894 0.91466 0.0
C393 C 0.30182 0.20791 0.90412 0.0
C394 C 0.28804 0.23949 0.90721 0.0
C395 C 0.33112 0.15178 0.89915 0.0
C396 C 0.36429 0.2034 0.88603 0.0
C397 C 0.34911 0.23072 0.88853 0.0
C398 C 0.4154 0.22993 0.87021 0.0
C399 C 0.34491 0.1202 0.89625 0.0
C400 C 0.45641 0.24357 0.88854 0.0
C401 C 0.5044 0.26791 0.87374 0.0
C402 C 0.51248 0.27921 0.84024 0.0
C403 C 0.47152 0.26611 0.82195 0.0
C404 C 0.42346 0.24186 0.83685 0.0
H405 H 0.31079 0.07784 0.90188 0.0
H406 H 0.3597 0.12426 0.87142 0.0
H407 H 0.3765 0.13526 0.91347 0.0
H408 H 0.45127 0.23541 0.91438 0.0
H409 H 0.53517 0.27775 0.88859 0.0
H410 H 0.00501 0.10142 0.46488 0.0
H411 H 0.04163 0.18444 0.43948 0.0
H412 H 0.19551 0.24121 0.43876 0.0
H413 H 0.15897 0.15852 0.46458 0.0
H414 H 0.13068 0.29649 0.45592 0.0
H415 H 0.15656 0.23456 0.34165 0.0
H416 H 0.11683 0.18972 0.37526 0.0
H417 H 0.18702 0.23511 0.37652 0.0
C418 C 0.04668 0.132 0.45946 0.0
C419 C 0.07938 0.12399 0.46589 0.0
C420 C 0.06752 0.17925 0.44523 0.0
C421 C 0.12098 0.21829 0.43687 0.0
C422 C 0.15404 0.21114 0.44481 0.0
H423 H 0.32294 0.51034 0.33077 0.0
H424 H 0.27904 0.42493 0.35565 0.0
C425 C 0.1333 0.16417 0.45939 0.0
C426 C 0.14127 0.26428 0.41721 0.0
H427 H 0.19077 0.32055 0.34207 0.0
C428 C 0.1436 0.30181 0.43099 0.0
C429 C 0.15771 0.27057 0.38469 0.0
C430 C 0.15408 0.23018 0.36847 0.0
C431 C 0.16357 0.34662 0.41322 0.0
C432 C 0.18041 0.35307 0.38071 0.0
C433 C 0.17752 0.3152 0.36692 0.0
C434 C 0.20396 0.40044 0.36124 0.0
C435 C 0.16809 0.38744 0.42969 0.0
C436 C 0.17546 0.41353 0.35473 0.0
C437 C 0.20063 0.4624 0.34085 0.0
C438 C 0.25399 0.49773 0.3325 0.0
C439 C 0.28137 0.48291 0.3365 0.0
C440 C 0.2565 0.43449 0.35089 0.0
H441 H 0.1643 0.38212 0.45646 0.0
H442 H 0.20624 0.42769 0.42359 0.0
H443 H 0.13635 0.38418 0.42121 0.0
H444 H 0.13452 0.3871 0.36185 0.0
H445 H 0.17925 0.4737 0.33819 0.0
H446 H 0.90461 0.2056 0.98254 0.0
H447 H 0.87111 0.24285 0.96216 0.0
H448 H 0.83771 0.16826 0.87055 0.0
H449 H 0.87019 0.13053 0.89066 0.0
H450 H 0.89785 0.30631 0.90039 0.0
H451 H 0.69412 0.10895 0.90896 0.0
H452 H 0.74772 0.12514 0.93061 0.0
H453 H 0.74033 0.11136 0.88812 0.0
C454 C 0.89051 0.19755 0.95797 0.0
C455 C 0.88992 0.16495 0.93826 0.0
C456 C 0.87169 0.21906 0.94634 0.0
C457 C 0.85152 0.20781 0.91499 0.0
C458 C 0.8529 0.17716 0.89488 0.0
H459 H 0.68222 0.24405 0.79521 0.0
H460 H 0.73147 0.2264 0.81928 0.0
C461 C 0.87187 0.15595 0.90636 0.0
C462 C 0.82553 0.22468 0.90373 0.0
H463 H 0.70632 0.17562 0.88118 0.0
C464 C 0.85593 0.27798 0.89649 0.0
C465 C 0.77084 0.18751 0.89873 0.0
C466 C 0.73611 0.13006 0.90723 0.0
C467 C 0.83309 0.29474 0.88322 0.0
C468 C 0.77853 0.25725 0.87755 0.0
C469 C 0.74816 0.20423 0.88548 0.0
C470 C 0.75201 0.27142 0.86231 0.0
C471 C 0.86755 0.35197 0.87428 0.0
C472 C 0.74699 0.30239 0.87855 0.0
C473 C 0.71867 0.3124 0.86472 0.0
C474 C 0.69522 0.29174 0.83441 0.0
C475 C 0.70068 0.26115 0.81823 0.0
C476 C 0.72855 0.25084 0.83207 0.0
H477 H 0.90987 0.37413 0.87477 0.0
H478 H 0.85804 0.35616 0.84973 0.0
H479 H 0.86031 0.37001 0.89174 0.0
H480 H 0.76425 0.31809 0.9021 0.0
H481 H 0.71583 0.3368 0.87752 0.0
H482 H 0.89204 0.00464 0.45379 0.0
H483 H 0.81682 0.96301 0.41845 0.0
H484 H 0.74807 0.80999 0.4512 0.0
H485 H 0.82342 0.85116 0.48604 0.0
H486 H 0.77812 0.8647 0.37034 0.0
H487 H 0.64032 0.83674 0.45838 0.0
H488 H 0.7106 0.89033 0.46167 0.0
H489 H 0.67941 0.82462 0.47174 0.0
C490 C 0.86048 0.96217 0.45367 0.0
C491 C 0.86317 0.93082 0.47229 0.0
C492 C 0.81799 0.93863 0.43349 0.0
C493 C 0.77773 0.88379 0.43235 0.0
C494 C 0.77936 0.85247 0.45182 0.0
H495 H 0.48131 0.65788 0.34914 0.0
H496 H 0.56911 0.70215 0.36718 0.0
C497 C 0.82215 0.8759 0.47157 0.0
C498 C 0.7345 0.85882 0.41 0.0
H499 H 0.60813 0.80042 0.40673 0.0
C500 C 0.74099 0.85097 0.37801 0.0
C501 C 0.68653 0.84089 0.42063 0.0
C502 C 0.6784 0.84853 0.45495 0.0
C503 C 0.6997 0.82469 0.35616 0.0
C504 C 0.65172 0.80656 0.36692 0.0
C505 C 0.6455 0.81484 0.39883 0.0
C506 C 0.60611 0.77753 0.34614 0.0
C507 C 0.70669 0.81521 0.32214 0.0
C508 C 0.59919 0.80515 0.32701 0.0
C509 C 0.54919 0.77984 0.31651 0.0
C510 C 0.5064 0.72734 0.32571 0.0
C511 C 0.51425 0.69867 0.3422 0.0
C512 C 0.56413 0.72364 0.35219 0.0
H513 H 0.74659 0.83145 0.31766 0.0
H514 H 0.67731 0.77233 0.31763 0.0
H515 H 0.69956 0.83348 0.30455 0.0
H516 H 0.63138 0.84705 0.32269 0.0
H517 H 0.54334 0.80227 0.30382 0.0
H518 H 0.98497 0.85911 0.98388 0.0
H519 H 0.95074 0.78351 0.95228 0.0
H520 H 0.82611 0.76795 0.91808 0.0
H521 H 0.86058 0.84463 0.94954 0.0
H522 H 0.84952 0.68089 0.95673 0.0
H523 H 0.89354 0.77145 0.83417 0.0
H524 H 0.92271 0.81006 0.87039 0.0
H525 H 0.85579 0.77424 0.8613 0.0
C526 C 0.95032 0.83988 0.96964 0.0
C527 C 0.92576 0.85825 0.96899 0.0
C528 C 0.93087 0.79664 0.95158 0.0
C529 C 0.88663 0.77096 0.93244 0.0
C530 C 0.86109 0.78819 0.9322 0.0
H531 H 0.70255 0.49115 0.82222 0.0
H532 H 0.75361 0.58207 0.8375 0.0
C533 C 0.88062 0.8317 0.95031 0.0
C534 C 0.86699 0.72532 0.91351 0.0
H535 H 0.85076 0.68238 0.83647 0.0
C536 C 0.84988 0.68116 0.93045 0.0
C537 C 0.86742 0.72606 0.87927 0.0
C538 C 0.88616 0.77307 0.86007 0.0
C539 C 0.8325 0.63716 0.91409 0.0
C540 C 0.83396 0.63819 0.87973 0.0
C541 C 0.8507 0.68225 0.86275 0.0
C542 C 0.81386 0.59175 0.86154 0.0
C543 C 0.81113 0.58944 0.93389 0.0
C544 C 0.83342 0.56904 0.8675 0.0
C545 C 0.8034 0.5167 0.85982 0.0
C546 C 0.75504 0.48784 0.84474 0.0
C547 C 0.73975 0.51306 0.83407 0.0
C548 C 0.76889 0.56488 0.84275 0.0
H549 H 0.8007 0.59051 0.95905 0.0
H550 H 0.7757 0.55263 0.92265 0.0
H551 H 0.84141 0.58818 0.93534 0.0
H552 H 0.8691 0.58997 0.88098 0.0
H553 H 0.81598 0.49775 0.86775 0.0
loop_
_geom_bond_atom_site_label_1
_geom_bond_atom_site_label_2
_geom_bond_distance
_geom_bond_site_symmetry_2
_ccdc_geom_bond_type
Pr0 C2 2.880 . S
Pr0 O20 2.562 . S
Pr0 O21 2.490 . S
Pr0 O22 2.695 1_655 S
Pr0 O23 2.512 1_655 S
Pr0 O25 2.439 1_655 S
Pr0 O28 2.436 1_546 S
Pr0 O30 2.438 1_545 S
Pr1 C11 2.880 . S
Pr1 O22 2.436 1_564 S
Pr1 O24 2.438 1_565 S
Pr1 O26 2.562 . S
Pr1 O27 2.490 . S
Pr1 O28 2.695 1_455 S
Pr1 O29 2.512 1_455 S
Pr1 O31 2.437 1_455 S
C2 Pr0 2.880 . S
C2 C3 1.491 . S
C2 O20 1.254 . S
C2 O21 1.225 . S
C3 C2 1.491 . S
C3 C4 1.392 . S
C3 C8 1.356 . S
C4 C3 1.392 . S
C4 C5 1.368 . S
C4 H32 0.929 . S
C5 C4 1.368 . S
C5 C6 1.386 . S
C5 H33 0.929 . S
C6 C5 1.386 . S
C6 C7 1.373 . S
C7 C6 1.373 . S
C7 C8 1.409 . S
C7 H34 0.931 . S
C8 C3 1.356 . S
C8 C7 1.409 . S
C8 H35 0.930 . S
C9 O22 1.270 . S
C9 O23 1.248 . S
C10 O24 1.267 . S
C10 O25 1.274 1_554 S
C11 Pr1 2.880 . S
C11 C12 1.491 . S
C11 O26 1.254 . S
C11 O27 1.225 . S
C12 C11 1.491 . S
C12 C13 1.392 . S
C12 C17 1.356 . S
C13 C12 1.392 . S
C13 C14 1.368 . S
C13 H36 0.929 . S
C14 C13 1.368 . S
C14 C15 1.386 . S
C14 H37 0.929 . S
C15 C14 1.386 . S
C15 C16 1.373 . S
C16 C15 1.373 . S
C16 C17 1.409 . S
C16 H38 0.931 . S
C17 C12 1.356 . S
C17 C16 1.409 . S
C17 H39 0.930 . S
C18 O28 1.270 . S
C18 O29 1.248 . S
C19 O30 1.267 . S
C19 O31 1.278 1_556 S
O20 Pr0 2.562 . S
O20 C2 1.254 . S
O21 Pr0 2.490 . S
O21 C2 1.225 . S
O22 Pr0 2.695 1_455 S
O22 Pr1 2.436 1_546 S
O22 C9 1.270 . S
O23 Pr0 2.512 1_455 S
O23 C9 1.248 . S
O24 Pr1 2.438 1_545 S
O24 C10 1.267 . S
O25 Pr0 2.439 1_455 S
O25 C10 1.274 1_556 S
O26 Pr1 2.562 . S
O26 C11 1.254 . S
O27 Pr1 2.490 . S
O27 C11 1.225 . S
O28 Pr0 2.436 1_564 S
O28 Pr1 2.695 1_655 S
O28 C18 1.270 . S
O29 Pr1 2.512 1_655 S
O29 C18 1.248 . S
O30 Pr0 2.438 1_565 S
O30 C19 1.267 . S
O31 Pr1 2.437 1_655 S
O31 C19 1.278 1_554 S
H32 C4 0.929 . S
H33 C5 0.929 . S
H34 C7 0.931 . S
H35 C8 0.930 . S
H36 C13 0.929 . S
H37 C14 0.929 . S
H38 C16 0.931 . S
H39 C17 0.930 . S
Pr40 C42 2.880 1_455 S
Pr40 O60 2.562 1_455 S
Pr40 O61 2.490 1_455 S
Pr40 O62 2.695 1_545 S
Pr40 O63 2.512 1_445 S
Pr40 O65 2.437 1_445 S
Pr40 O68 2.436 . S
Pr40 O70 2.438 . S
Pr41 C51 2.880 . S
Pr41 O62 2.436 . S
Pr41 O64 2.438 1_455 S
Pr41 O66 2.562 . S
Pr41 O67 2.490 . S
Pr41 O68 2.695 1_565 S
Pr41 O69 2.512 1_565 S
Pr41 O71 2.437 1_565 S
C42 Pr40 2.880 1_655 S
C42 C43 1.491 . S
C42 O60 1.254 . S
C42 O61 1.225 . S
C43 C42 1.491 . S
C43 C44 1.392 . S
C43 C48 1.356 . S
C44 C43 1.392 . S
C44 C45 1.368 . S
C44 H72 0.929 . S
C45 C44 1.368 . S
C45 C46 1.386 . S
C45 H73 0.929 . S
C46 C45 1.386 . S
C46 C47 1.373 . S
C47 C46 1.373 . S
C47 C48 1.409 . S
C47 H74 0.931 . S
C48 C43 1.356 . S
C48 C47 1.409 . S
C48 H75 0.930 . S
C49 O62 1.270 1_655 S
C49 O63 1.248 . S
C50 O64 1.267 . S
C50 O65 1.278 . S
C51 Pr41 2.880 . S
C51 C52 1.491 . S
C51 O66 1.254 . S
C51 O67 1.225 . S
C52 C51 1.491 . S
C52 C53 1.392 . S
C52 C57 1.356 . S
C53 C52 1.392 . S
C53 C54 1.368 . S
C53 H76 0.939 . S
C54 C53 1.368 . S
C54 C55 1.386 . S
C54 H77 0.929 . S
C55 C54 1.386 . S
C55 C56 1.373 . S
C56 C55 1.373 . S
C56 C57 1.409 . S
C56 H78 0.931 . S
C57 C52 1.356 . S
C57 C56 1.409 . S
C57 H79 0.930 . S
C58 O68 1.270 . S
C58 O69 1.248 . S
C59 O70 1.267 . S
C59 O71 1.278 . S
O60 Pr40 2.562 1_655 S
O60 C42 1.254 . S
O61 Pr40 2.490 1_655 S
O61 C42 1.225 . S
O62 Pr40 2.695 1_565 S
O62 Pr41 2.436 . S
O62 C49 1.270 1_455 S
O63 Pr40 2.512 1_665 S
O63 C49 1.248 . S
O64 Pr41 2.438 1_655 S
O64 C50 1.267 . S
O65 Pr40 2.437 1_665 S
O65 C50 1.278 . S
O66 Pr41 2.562 . S
O66 C51 1.254 . S
O67 Pr41 2.490 . S
O67 C51 1.225 . S
O68 Pr40 2.436 . S
O68 Pr41 2.695 1_545 S
O68 C58 1.270 . S
O69 Pr41 2.512 1_545 S
O69 C58 1.248 . S
O70 Pr40 2.438 . S
O70 C59 1.267 . S
O71 Pr41 2.437 1_545 S
O71 C59 1.278 . S
H72 C44 0.929 . S
H73 C45 0.929 . S
H74 C47 0.931 . S
H75 C48 0.930 . S
H76 C53 0.939 . S
H77 C54 0.929 . S
H78 C56 0.931 . S
H79 C57 0.930 . S
Zn80 O86 1.920 . S
Zn80 O92 1.898 . S
Zn80 O95 1.905 . S
Zn81 O89 1.905 . S
Zn81 O90 1.898 . S
Zn81 O98 1.920 . S
Zn82 O85 2.080 . S
Zn82 O88 2.114 . S
Zn82 O91 2.120 . S
Zn82 O93 2.120 . S
Zn82 O94 2.114 . S
Zn82 O97 2.080 . S
C83 O88 1.166 . S
C83 O89 1.182 . S
C84 O90 1.167 . S
C84 O91 1.299 . S
O85 Zn82 2.080 . S
O85 C99 1.305 . S
O86 Zn80 1.920 . S
O86 C99 1.234 . S
C87 O92 1.167 . S
C87 O93 1.299 . S
O88 Zn82 2.114 . S
O88 C83 1.166 . S
O89 Zn81 1.905 . S
O89 C83 1.182 . S
O90 Zn81 1.898 . S
O90 C84 1.167 . S
O91 Zn82 2.120 . S
O91 C84 1.299 . S
O92 Zn80 1.898 . S
O92 C87 1.167 . S
O93 Zn82 2.120 . S
O93 C87 1.299 . S
O94 Zn82 2.114 . S
O94 C96 1.166 . S
O95 Zn80 1.905 . S
O95 C96 1.182 . S
C96 O94 1.166 . S
C96 O95 1.182 . S
O97 Zn82 2.080 . S
O97 C100 1.305 . S
O98 Zn81 1.920 . S
O98 C100 1.234 . S
C99 O85 1.305 . S
C99 O86 1.234 . S
C100 O97 1.305 . S
C100 O98 1.234 . S
Zn101 O107 1.920 . S
Zn101 O113 1.898 . S
Zn101 O116 1.905 . S
Zn102 O110 1.905 . S
Zn102 O111 1.898 . S
Zn102 O119 1.920 . S
Zn103 O106 2.080 . S
Zn103 O109 2.114 . S
Zn103 O112 2.120 . S
Zn103 O114 2.120 . S
Zn103 O115 2.114 . S
Zn103 O118 2.080 . S
C104 O109 1.166 . S
C104 O110 1.182 . S
C105 O111 1.167 . S
C105 O112 1.299 . S
O106 Zn103 2.080 . S
O106 C120 1.305 . S
O107 Zn101 1.920 . S
O107 C120 1.234 . S
C108 O113 1.167 . S
C108 O114 1.299 . S
O109 Zn103 2.114 . S
O109 C104 1.166 . S
O110 Zn102 1.905 . S
O110 C104 1.182 . S
O111 Zn102 1.898 . S
O111 C105 1.167 . S
O112 Zn103 2.120 . S
O112 C105 1.299 . S
O113 Zn101 1.898 . S
O113 C108 1.167 . S
O114 Zn103 2.120 . S
O114 C108 1.299 . S
O115 Zn103 2.114 . S
O115 C117 1.166 . S
O116 Zn101 1.905 . S
O116 C117 1.182 . S
C117 O115 1.166 . S
C117 O116 1.182 . S
O118 Zn103 2.080 . S
O118 C121 1.305 . S
O119 Zn102 1.920 . S
O119 C121 1.234 . S
C120 O106 1.305 . S
C120 O107 1.234 . S
C121 O118 1.305 . S
C121 O119 1.234 . S
H122 C130 0.929 . S
H123 C132 0.930 . S
H124 C134 0.930 . S
H125 C137 0.929 . S
H126 C140 0.930 . S
H127 C142 0.960 . S
H128 C142 0.960 . S
H129 C142 0.960 . S
C130 H122 0.929 . S
C130 C131 1.377 . S
C130 C132 1.384 . S
C131 C130 1.377 . S
C131 C137 1.390 . S
C132 H123 0.930 . S
C132 C130 1.384 . S
C132 C133 1.372 . S
C133 C132 1.372 . S
C133 C134 1.400 . S
C133 C138 1.490 . S
C134 H124 0.930 . S
C134 C133 1.400 . S
C134 C137 1.386 . S
H135 C151 0.930 . S
H136 C152 0.931 . S
C137 H125 0.929 . S
C137 C131 1.390 . S
C137 C134 1.386 . S
C138 C133 1.490 . S
C138 C140 1.395 . S
C138 C141 1.403 . S
H139 C145 0.930 . S
C140 H126 0.930 . S
C140 C138 1.395 . S
C140 C143 1.403 . S
C141 C138 1.403 . S
C141 C142 1.524 . S
C141 C145 1.400 . S
C142 H127 0.960 . S
C142 H128 0.960 . S
C142 H129 0.960 . S
C142 C141 1.524 . S
C143 C140 1.403 . S
C143 C144 1.392 . S
C143 C147 1.495 . S
C144 C143 1.392 . S
C144 C145 1.385 . S
C144 C146 1.478 . S
C145 H139 0.930 . S
C145 C141 1.400 . S
C145 C144 1.385 . S
C146 C144 1.478 . S
C146 C148 1.381 . S
C146 C152 1.383 . S
C147 C143 1.495 . S
C147 H153 0.959 . S
C147 H154 0.961 . S
C147 H155 0.960 . S
C148 C146 1.381 . S
C148 C149 1.394 . S
C148 H156 0.930 . S
C149 C148 1.394 . S
C149 C150 1.383 . S
C149 H157 0.929 . S
C150 C149 1.383 . S
C150 C151 1.377 . S
C151 H135 0.930 . S
C151 C150 1.377 . S
C151 C152 1.379 . S
C152 H136 0.931 . S
C152 C146 1.383 . S
C152 C151 1.379 . S
H153 C147 0.959 . S
H154 C147 0.961 . S
H155 C147 0.960 . S
H156 C148 0.930 . S
H157 C149 0.929 . S
H158 C166 0.929 . S
H159 C168 0.930 . S
H160 C170 0.930 . S
H161 C173 0.929 . S
H162 C176 0.930 . S
H163 C178 0.960 . S
H164 C178 0.960 . S
H165 C178 0.960 . S
C166 H158 0.929 . S
C166 C167 1.377 . S
C166 C168 1.384 . S
C167 C166 1.377 . S
C167 C173 1.390 . S
C168 H159 0.930 . S
C168 C166 1.384 . S
C168 C169 1.372 . S
C169 C168 1.372 . S
C169 C170 1.400 . S
C169 C174 1.490 . S
C170 H160 0.930 . S
C170 C169 1.400 . S
C170 C173 1.386 . S
H171 C187 0.930 . S
H172 C188 0.931 . S
C173 H161 0.929 . S
C173 C167 1.390 . S
C173 C170 1.386 . S
C174 C169 1.490 . S
C174 C176 1.395 . S
C174 C177 1.403 . S
H175 C181 0.930 . S
C176 H162 0.930 . S
C176 C174 1.395 . S
C176 C179 1.403 . S
C177 C174 1.403 . S
C177 C178 1.524 . S
C177 C181 1.400 . S
C178 H163 0.960 . S
C178 H164 0.960 . S
C178 H165 0.960 . S
C178 C177 1.524 . S
C179 C176 1.403 . S
C179 C180 1.392 . S
C179 C183 1.495 . S
C180 C179 1.392 . S
C180 C181 1.385 . S
C180 C182 1.478 . S
C181 H175 0.930 . S
C181 C177 1.400 . S
C181 C180 1.385 . S
C182 C180 1.478 . S
C182 C184 1.381 . S
C182 C188 1.383 . S
C183 C179 1.495 . S
C183 H189 0.959 . S
C183 H190 0.961 . S
C183 H191 0.960 . S
C184 C182 1.381 . S
C184 C185 1.394 . S
C184 H192 0.930 . S
C185 C184 1.394 . S
C185 C186 1.383 . S
C185 H193 0.929 . S
C186 C185 1.383 . S
C186 C187 1.377 . S
C187 H171 0.930 . S
C187 C186 1.377 . S
C187 C188 1.379 . S
C188 H172 0.931 . S
C188 C182 1.383 . S
C188 C187 1.379 . S
H189 C183 0.959 . S
H190 C183 0.961 . S
H191 C183 0.960 . S
H192 C184 0.930 . S
H193 C185 0.929 . S
H194 C202 0.929 . S
H195 C204 0.930 . S
H196 C206 0.930 . S
H197 C209 0.929 . S
H198 C212 0.930 . S
H199 C214 0.960 . S
H200 C214 0.960 . S
H201 C214 0.960 . S
C202 H194 0.929 . S
C202 C203 1.377 . S
C202 C204 1.384 . S
C203 C202 1.377 . S
C203 C209 1.390 . S
C204 H195 0.930 . S
C204 C202 1.384 . S
C204 C205 1.372 . S
C205 C204 1.372 . S
C205 C206 1.400 . S
C205 C210 1.490 . S
C206 H196 0.930 . S
C206 C205 1.400 . S
C206 C209 1.386 . S
H207 C223 0.930 . S
H208 C224 0.931 . S
C209 H197 0.929 . S
C209 C203 1.390 . S
C209 C206 1.386 . S
C210 C205 1.490 . S
C210 C212 1.395 . S
C210 C213 1.403 . S
H211 C217 0.930 . S
C212 H198 0.930 . S
C212 C210 1.395 . S
C212 C215 1.403 . S
C213 C210 1.403 . S
C213 C214 1.524 . S
C213 C217 1.400 . S
C214 H199 0.960 . S
C214 H200 0.960 . S
C214 H201 0.960 . S
C214 C213 1.524 . S
C215 C212 1.403 . S
C215 C216 1.392 . S
C215 C219 1.495 . S
C216 C215 1.392 . S
C216 C217 1.385 . S
C216 C218 1.478 . S
C217 H211 0.930 . S
C217 C213 1.400 . S
C217 C216 1.385 . S
C218 C216 1.478 . S
C218 C220 1.381 . S
C218 C224 1.383 . S
C219 C215 1.495 . S
C219 H225 0.959 . S
C219 H226 0.961 . S
C219 H227 0.960 . S
C220 C218 1.381 . S
C220 C221 1.394 . S
C220 H228 0.930 . S
C221 C220 1.394 . S
C221 C222 1.383 . S
C221 H229 0.929 . S
C222 C221 1.383 . S
C222 C223 1.377 . S
C223 H207 0.930 . S
C223 C222 1.377 . S
C223 C224 1.379 . S
C224 H208 0.931 . S
C224 C218 1.383 . S
C224 C223 1.379 . S
H225 C219 0.959 . S
H226 C219 0.961 . S
H227 C219 0.960 . S
H228 C220 0.930 . S
H229 C221 0.929 . S
H230 C238 0.929 . S
H231 C240 0.930 . S
H232 C242 0.930 . S
H233 C245 0.929 . S
H234 C248 0.930 . S
H235 C250 0.960 . S
H236 C250 0.960 . S
H237 C250 0.960 . S
C238 H230 0.929 . S
C238 C239 1.377 . S
C238 C240 1.384 . S
C239 C238 1.377 . S
C239 C245 1.390 . S
C240 H231 0.930 . S
C240 C238 1.384 . S
C240 C241 1.372 . S
C241 C240 1.372 . S
C241 C242 1.400 . S
C241 C246 1.490 . S
C242 H232 0.930 . S
C242 C241 1.400 . S
C242 C245 1.386 . S
H243 C259 0.930 . S
H244 C260 0.931 . S
C245 H233 0.929 . S
C245 C239 1.390 . S
C245 C242 1.386 . S
C246 C241 1.490 . S
C246 C248 1.395 . S
C246 C249 1.403 . S
H247 C253 0.930 . S
C248 H234 0.930 . S
C248 C246 1.395 . S
C248 C251 1.403 . S
C249 C246 1.403 . S
C249 C250 1.524 . S
C249 C253 1.400 . S
C250 H235 0.960 . S
C250 H236 0.960 . S
C250 H237 0.960 . S
C250 C249 1.524 . S
C251 C248 1.403 . S
C251 C252 1.392 . S
C251 C255 1.495 . S
C252 C251 1.392 . S
C252 C253 1.385 . S
C252 C254 1.478 . S
C253 H247 0.930 . S
C253 C249 1.400 . S
C253 C252 1.385 . S
C254 C252 1.478 . S
C254 C256 1.381 . S
C254 C260 1.383 . S
C255 C251 1.495 . S
C255 H261 0.959 . S
C255 H262 0.961 . S
C255 H263 0.960 . S
C256 C254 1.381 . S
C256 C257 1.394 . S
C256 H264 0.930 . S
C257 C256 1.394 . S
C257 C258 1.383 . S
C257 H265 0.929 . S
C258 C257 1.383 . S
C258 C259 1.377 . S
C259 H243 0.930 . S
C259 C258 1.377 . S
C259 C260 1.379 . S
C260 H244 0.931 . S
C260 C254 1.383 . S
C260 C259 1.379 . S
H261 C255 0.959 . S
H262 C255 0.961 . S
H263 C255 0.960 . S
H264 C256 0.930 . S
H265 C257 0.929 . S
H266 C274 0.929 1_545 S
H267 C276 0.930 . S
H268 C278 0.930 . S
H269 C281 0.929 . S
H270 C284 0.930 . S
H271 C286 0.960 . S
H272 C286 0.960 . S
H273 C286 0.960 . S
C274 H266 0.929 1_565 S
C274 C275 1.377 . S
C274 C276 1.384 . S
C275 C274 1.377 . S
C275 C281 1.390 . S
C276 H267 0.930 . S
C276 C274 1.384 . S
C276 C277 1.372 . S
C277 C276 1.372 . S
C277 C278 1.400 . S
C277 C282 1.490 . S
C278 H268 0.930 . S
C278 C277 1.400 . S
C278 C281 1.386 . S
H279 C295 0.930 . S
H280 C296 0.931 . S
C281 H269 0.929 . S
C281 C275 1.390 . S
C281 C278 1.386 . S
C282 C277 1.490 . S
C282 C284 1.395 . S
C282 C285 1.403 . S
H283 C289 0.930 . S
C284 H270 0.930 . S
C284 C282 1.395 . S
C284 C287 1.403 . S
C285 C282 1.403 . S
C285 C286 1.524 . S
C285 C289 1.400 . S
C286 H271 0.960 . S
C286 H272 0.960 . S
C286 H273 0.960 . S
C286 C285 1.524 . S
C287 C284 1.403 . S
C287 C288 1.392 . S
C287 C291 1.495 . S
C288 C287 1.392 . S
C288 C289 1.385 . S
C288 C290 1.478 . S
C289 H283 0.930 . S
C289 C285 1.400 . S
C289 C288 1.385 . S
C290 C288 1.478 . S
C290 C292 1.381 . S
C290 C296 1.383 . S
C291 C287 1.495 . S
C291 H297 0.959 . S
C291 H298 0.961 . S
C291 H299 0.960 . S
C292 C290 1.381 . S
C292 C293 1.394 . S
C292 H300 0.930 . S
C293 C292 1.394 . S
C293 C294 1.383 . S
C293 H301 0.929 . S
C294 C293 1.383 . S
C294 C295 1.377 . S
C295 H279 0.930 . S
C295 C294 1.377 . S
C295 C296 1.379 . S
C296 H280 0.931 . S
C296 C290 1.383 . S
C296 C295 1.379 . S
H297 C291 0.959 . S
H298 C291 0.961 . S
H299 C291 0.960 . S
H300 C292 0.930 . S
H301 C293 0.929 . S
H302 C310 0.929 . S
H303 C312 0.930 . S
H304 C314 0.930 . S
H305 C317 0.929 . S
H306 C320 0.930 . S
H307 C322 0.960 . S
H308 C322 0.960 . S
H309 C322 0.960 . S
C310 H302 0.929 . S
C310 C311 1.377 . S
C310 C312 1.384 . S
C311 C310 1.377 . S
C311 C317 1.390 . S
C312 H303 0.930 . S
C312 C310 1.384 . S
C312 C313 1.372 . S
C313 C312 1.372 . S
C313 C314 1.400 . S
C313 C318 1.490 . S
C314 H304 0.930 . S
C314 C313 1.400 . S
C314 C317 1.386 . S
H315 C331 0.930 . S
H316 C332 0.931 . S
C317 H305 0.929 . S
C317 C311 1.390 . S
C317 C314 1.386 . S
C318 C313 1.490 . S
C318 C320 1.395 . S
C318 C321 1.403 . S
H319 C325 0.930 . S
C320 H306 0.930 . S
C320 C318 1.395 . S
C320 C323 1.403 . S
C321 C318 1.403 . S
C321 C322 1.524 . S
C321 C325 1.400 . S
C322 H307 0.960 . S
C322 H308 0.960 . S
C322 H309 0.960 . S
C322 C321 1.524 . S
C323 C320 1.403 . S
C323 C324 1.392 . S
C323 C327 1.495 . S
C324 C323 1.392 . S
C324 C325 1.385 . S
C324 C326 1.478 . S
C325 H319 0.930 . S
C325 C321 1.400 . S
C325 C324 1.385 . S
C326 C324 1.478 . S
C326 C328 1.381 . S
C326 C332 1.383 . S
C327 C323 1.495 . S
C327 H333 0.959 . S
C327 H334 0.961 . S
C327 H335 0.960 . S
C328 C326 1.381 . S
C328 C329 1.394 . S
C328 H336 0.930 . S
C329 C328 1.394 . S
C329 C330 1.383 . S
C329 H337 0.929 . S
C330 C329 1.383 . S
C330 C331 1.377 . S
C331 H315 0.930 . S
C331 C330 1.377 . S
C331 C332 1.379 . S
C332 H316 0.931 . S
C332 C326 1.383 . S
C332 C331 1.379 . S
H333 C327 0.959 . S
H334 C327 0.961 . S
H335 C327 0.960 . S
H336 C328 0.930 . S
H337 C329 0.929 . S
H338 C346 0.929 . S
H339 C348 0.930 . S
H340 C350 0.930 . S
H341 C353 0.929 . S
H342 C356 0.930 . S
H343 C358 0.960 . S
H344 C358 0.960 . S
H345 C358 0.960 . S
C346 H338 0.929 . S
C346 C347 1.377 . S
C346 C348 1.384 . S
C347 C346 1.377 . S
C347 C353 1.390 . S
C348 H339 0.930 . S
C348 C346 1.384 . S
C348 C349 1.372 . S
C349 C348 1.372 . S
C349 C350 1.400 . S
C349 C354 1.490 . S
C350 H340 0.930 . S
C350 C349 1.400 . S
C350 C353 1.386 . S
H351 C367 0.930 . S
H352 C368 0.931 . S
C353 H341 0.929 . S
C353 C347 1.390 . S
C353 C350 1.386 . S
C354 C349 1.490 . S
C354 C356 1.395 . S
C354 C357 1.403 . S
H355 C361 0.930 . S
C356 H342 0.930 . S
C356 C354 1.395 . S
C356 C359 1.403 . S
C357 C354 1.403 . S
C357 C358 1.524 . S
C357 C361 1.400 . S
C358 H343 0.960 . S
C358 H344 0.960 . S
C358 H345 0.960 . S
C358 C357 1.524 . S
C359 C356 1.403 . S
C359 C360 1.392 . S
C359 C363 1.495 . S
C360 C359 1.392 . S
C360 C361 1.385 . S
C360 C362 1.478 . S
C361 H355 0.930 . S
C361 C357 1.400 . S
C361 C360 1.385 . S
C362 C360 1.478 . S
C362 C364 1.381 . S
C362 C368 1.383 . S
C363 C359 1.495 . S
C363 H369 0.959 . S
C363 H370 0.961 . S
C363 H371 0.960 . S
C364 C362 1.381 . S
C364 C365 1.394 . S
C364 H372 0.930 . S
C365 C364 1.394 . S
C365 C366 1.383 . S
C365 H373 0.929 . S
C366 C365 1.383 . S
C366 C367 1.377 . S
C367 H351 0.930 . S
C367 C366 1.377 . S
C367 C368 1.379 . S
C368 H352 0.931 . S
C368 C362 1.383 . S
C368 C367 1.379 . S
H369 C363 0.959 . S
H370 C363 0.961 . S
H371 C363 0.960 . S
H372 C364 0.930 . S
H373 C365 0.929 . S
H374 C382 0.929 . S
H375 C384 0.930 . S
H376 C386 0.930 . S
H377 C389 0.929 . S
H378 C392 0.930 . S
H379 C394 0.960 . S
H380 C394 0.960 . S
H381 C394 0.960 . S
C382 H374 0.929 . S
C382 C383 1.377 . S
C382 C384 1.384 . S
C383 C382 1.377 . S
C383 C389 1.390 . S
C384 H375 0.930 . S
C384 C382 1.384 . S
C384 C385 1.372 . S
C385 C384 1.372 . S
C385 C386 1.400 . S
C385 C390 1.490 . S
C386 H376 0.930 . S
C386 C385 1.400 . S
C386 C389 1.386 . S
H387 C403 0.930 . S
H388 C404 0.931 . S
C389 H377 0.929 . S
C389 C383 1.390 . S
C389 C386 1.386 . S
C390 C385 1.490 . S
C390 C392 1.395 . S
C390 C393 1.403 . S
H391 C397 0.930 . S
C392 H378 0.930 . S
C392 C390 1.395 . S
C392 C395 1.403 . S
C393 C390 1.403 . S
C393 C394 1.524 . S
C393 C397 1.400 . S
C394 H379 0.960 . S
C394 H380 0.960 . S
C394 H381 0.960 . S
C394 C393 1.524 . S
C395 C392 1.403 . S
C395 C396 1.392 . S
C395 C399 1.495 . S
C396 C395 1.392 . S
C396 C397 1.385 . S
C396 C398 1.478 . S
C397 H391 0.930 . S
C397 C393 1.400 . S
C397 C396 1.385 . S
C398 C396 1.478 . S
C398 C400 1.381 . S
C398 C404 1.383 . S
C399 C395 1.495 . S
C399 H405 0.959 . S
C399 H406 0.961 . S
C399 H407 0.960 . S
C400 C398 1.381 . S
C400 C401 1.394 . S
C400 H408 0.930 . S
C401 C400 1.394 . S
C401 C402 1.383 . S
C401 H409 0.929 . S
C402 C401 1.383 . S
C402 C403 1.377 . S
C403 H387 0.930 . S
C403 C402 1.377 . S
C403 C404 1.379 . S
C404 H388 0.931 . S
C404 C398 1.383 . S
C404 C403 1.379 . S
H405 C399 0.959 . S
H406 C399 0.961 . S
H407 C399 0.960 . S
H408 C400 0.930 . S
H409 C401 0.929 . S
H410 C418 0.929 . S
H411 C420 0.930 . S
H412 C422 0.930 . S
H413 C425 0.929 . S
H414 C428 0.930 . S
H415 C430 0.960 . S
H416 C430 0.960 . S
H417 C430 0.960 . S
C418 H410 0.929 . S
C418 C419 1.377 . S
C418 C420 1.384 . S
C419 C418 1.377 . S
C419 C425 1.390 . S
C420 H411 0.930 . S
C420 C418 1.384 . S
C420 C421 1.372 . S
C421 C420 1.372 . S
C421 C422 1.400 . S
C421 C426 1.490 . S
C422 H412 0.930 . S
C422 C421 1.400 . S
C422 C425 1.386 . S
H423 C439 0.930 . S
H424 C440 0.931 . S
C425 H413 0.929 . S
C425 C419 1.390 . S
C425 C422 1.386 . S
C426 C421 1.490 . S
C426 C428 1.395 . S
C426 C429 1.403 . S
H427 C433 0.930 . S
C428 H414 0.930 . S
C428 C426 1.395 . S
C428 C431 1.403 . S
C429 C426 1.403 . S
C429 C430 1.524 . S
C429 C433 1.400 . S
C430 H415 0.960 . S
C430 H416 0.960 . S
C430 H417 0.960 . S
C430 C429 1.524 . S
C431 C428 1.403 . S
C431 C432 1.392 . S
C431 C435 1.495 . S
C432 C431 1.392 . S
C432 C433 1.385 . S
C432 C434 1.478 . S
C433 H427 0.930 . S
C433 C429 1.400 . S
C433 C432 1.385 . S
C434 C432 1.478 . S
C434 C436 1.381 . S
C434 C440 1.383 . S
C435 C431 1.495 . S
C435 H441 0.959 . S
C435 H442 0.961 . S
C435 H443 0.960 . S
C436 C434 1.381 . S
C436 C437 1.394 . S
C436 H444 0.930 . S
C437 C436 1.394 . S
C437 C438 1.383 . S
C437 H445 0.929 . S
C438 C437 1.383 . S
C438 C439 1.377 . S
C439 H423 0.930 . S
C439 C438 1.377 . S
C439 C440 1.379 . S
C440 H424 0.931 . S
C440 C434 1.383 . S
C440 C439 1.379 . S
H441 C435 0.959 . S
H442 C435 0.961 . S
H443 C435 0.960 . S
H444 C436 0.930 . S
H445 C437 0.929 . S
H446 C454 0.929 . S
H447 C456 0.930 . S
H448 C458 0.930 . S
H449 C461 0.929 . S
H450 C464 0.930 . S
H451 C466 0.960 . S
H452 C466 0.960 . S
H453 C466 0.960 . S
C454 H446 0.929 . S
C454 C455 1.377 . S
C454 C456 1.384 . S
C455 C454 1.377 . S
C455 C461 1.390 . S
C456 H447 0.930 . S
C456 C454 1.384 . S
C456 C457 1.372 . S
C457 C456 1.372 . S
C457 C458 1.400 . S
C457 C462 1.490 . S
C458 H448 0.930 . S
C458 C457 1.400 . S
C458 C461 1.386 . S
H459 C475 0.930 . S
H460 C476 0.931 . S
C461 H449 0.929 . S
C461 C455 1.390 . S
C461 C458 1.386 . S
C462 C457 1.490 . S
C462 C464 1.395 . S
C462 C465 1.403 . S
H463 C469 0.930 . S
C464 H450 0.930 . S
C464 C462 1.395 . S
C464 C467 1.403 . S
C465 C462 1.403 . S
C465 C466 1.524 . S
C465 C469 1.400 . S
C466 H451 0.960 . S
C466 H452 0.960 . S
C466 H453 0.960 . S
C466 C465 1.524 . S
C467 C464 1.403 . S
C467 C468 1.392 . S
C467 C471 1.495 . S
C468 C467 1.392 . S
C468 C469 1.385 . S
C468 C470 1.478 . S
C469 H463 0.930 . S
C469 C465 1.400 . S
C469 C468 1.385 . S
C470 C468 1.478 . S
C470 C472 1.381 . S
C470 C476 1.383 . S
C471 C467 1.495 . S
C471 H477 0.959 . S
C471 H478 0.961 . S
C471 H479 0.960 . S
C472 C470 1.381 . S
C472 C473 1.394 . S
C472 H480 0.930 . S
C473 C472 1.394 . S
C473 C474 1.383 . S
C473 H481 0.929 . S
C474 C473 1.383 . S
C474 C475 1.377 . S
C475 H459 0.930 . S
C475 C474 1.377 . S
C475 C476 1.379 . S
C476 H460 0.931 . S
C476 C470 1.383 . S
C476 C475 1.379 . S
H477 C471 0.959 . S
H478 C471 0.961 . S
H479 C471 0.960 . S
H480 C472 0.930 . S
H481 C473 0.929 . S
H482 C490 0.929 1_545 S
H483 C492 0.930 . S
H484 C494 0.930 . S
H485 C497 0.929 . S
H486 C500 0.930 . S
H487 C502 0.960 . S
H488 C502 0.960 . S
H489 C502 0.960 . S
C490 H482 0.929 1_565 S
C490 C491 1.377 . S
C490 C492 1.384 . S
C491 C490 1.377 . S
C491 C497 1.390 . S
C492 H483 0.930 . S
C492 C490 1.384 . S
C492 C493 1.372 . S
C493 C492 1.372 . S
C493 C494 1.400 . S
C493 C498 1.490 . S
C494 H484 0.930 . S
C494 C493 1.400 . S
C494 C497 1.386 . S
H495 C511 0.930 . S
H496 C512 0.931 . S
C497 H485 0.929 . S
C497 C491 1.390 . S
C497 C494 1.386 . S
C498 C493 1.490 . S
C498 C500 1.395 . S
C498 C501 1.403 . S
H499 C505 0.930 . S
C500 H486 0.930 . S
C500 C498 1.395 . S
C500 C503 1.403 . S
C501 C498 1.403 . S
C501 C502 1.524 . S
C501 C505 1.400 . S
C502 H487 0.960 . S
C502 H488 0.960 . S
C502 H489 0.960 . S
C502 C501 1.524 . S
C503 C500 1.403 . S
C503 C504 1.392 . S
C503 C507 1.495 . S
C504 C503 1.392 . S
C504 C505 1.385 . S
C504 C506 1.478 . S
C505 H499 0.930 . S
C505 C501 1.400 . S
C505 C504 1.385 . S
C506 C504 1.478 . S
C506 C508 1.381 . S
C506 C512 1.383 . S
C507 C503 1.495 . S
C507 H513 0.959 . S
C507 H514 0.961 . S
C507 H515 0.960 . S
C508 C506 1.381 . S
C508 C509 1.394 . S
C508 H516 0.930 . S
C509 C508 1.394 . S
C509 C510 1.383 . S
C509 H517 0.929 . S
C510 C509 1.383 . S
C510 C511 1.377 . S
C511 H495 0.930 . S
C511 C510 1.377 . S
C511 C512 1.379 . S
C512 H496 0.931 . S
C512 C506 1.383 . S
C512 C511 1.379 . S
H513 C507 0.959 . S
H514 C507 0.961 . S
H515 C507 0.960 . S
H516 C508 0.930 . S
H517 C509 0.929 . S
H518 C526 0.929 1_455 S
H519 C528 0.930 . S
H520 C530 0.930 . S
H521 C533 0.929 . S
H522 C536 0.930 . S
H523 C538 0.960 . S
H524 C538 0.960 . S
H525 C538 0.960 . S
C526 H518 0.929 1_655 S
C526 C527 1.377 . S
C526 C528 1.384 . S
C527 C526 1.377 . S
C527 C533 1.390 . S
C528 H519 0.930 . S
C528 C526 1.384 . S
C528 C529 1.372 . S
C529 C528 1.372 . S
C529 C530 1.400 . S
C529 C534 1.490 . S
C530 H520 0.930 . S
C530 C529 1.400 . S
C530 C533 1.386 . S
H531 C547 0.930 . S
H532 C548 0.931 . S
C533 H521 0.929 . S
C533 C527 1.390 . S
C533 C530 1.386 . S
C534 C529 1.490 . S
C534 C536 1.395 . S
C534 C537 1.403 . S
H535 C541 0.930 . S
C536 H522 0.930 . S
C536 C534 1.395 . S
C536 C539 1.403 . S
C537 C534 1.403 . S
C537 C538 1.524 . S
C537 C541 1.400 . S
C538 H523 0.960 . S
C538 H524 0.960 . S
C538 H525 0.960 . S
C538 C537 1.524 . S
C539 C536 1.403 . S
C539 C540 1.392 . S
C539 C543 1.495 . S
C540 C539 1.392 . S
C540 C541 1.385 . S
C540 C542 1.478 . S
C541 H535 0.930 . S
C541 C537 1.400 . S
C541 C540 1.385 . S
C542 C540 1.478 . S
C542 C544 1.381 . S
C542 C548 1.383 . S
C543 C539 1.495 . S
C543 H549 0.959 . S
C543 H550 0.961 . S
C543 H551 0.960 . S
C544 C542 1.381 . S
C544 C545 1.394 . S
C544 H552 0.930 . S
C545 C544 1.394 . S
C545 C546 1.383 . S
C545 H553 0.929 . S
C546 C545 1.383 . S
C546 C547 1.377 . S
C547 H531 0.930 . S
C547 C546 1.377 . S
C547 C548 1.379 . S
C548 H532 0.931 . S
C548 C542 1.383 . S
C548 C547 1.379 . S
H549 C543 0.959 . S
H550 C543 0.961 . S
H551 C543 0.960 . S
H552 C544 0.930 . S
H553 C545 0.929 . S
C131 C15 1.349 . S
C150 C99 1.225 . S
C167 C59 1.138 . S
C186 C105 1.015 . S
C203 C10 1.232 . S
C222 C96 1.172 . S
C239 C46 1.404 . S
C258 C121 1.340 . S
C275 C18 1.914 . S
C294 C87 1.763 . S
C330 C104 1.860 . S
C311 C49 1.994 . S
C347 C55 1.346 . S
C366 C100 1.253 . S
C402 C117 1.866 . S
C383 C9 1.995 . S
C438 C84 1.750 . S
C419 C58 1.915 . S
C474 C120 1.290 . S
C455 C6 1.401 . S
C510 C83 1.196 . S
C491 C50 1.235 . S
C546 C108 0.992 . S
C527 C19 1.140 . S
