# Generated by pormake.
# Topology wbl, (4,4)-cn, num edge types: 1
# Building blocks:
#     Node 0, Type 0, BuildingBlock: MUDLON_clean_sbu_0, # of connection points: 4
#     Node 1, Type 0, BuildingBlock: MUDLON_clean_sbu_0, # of connection points: 4
#     Node 2, Type 0, BuildingBlock: MUDLON_clean_sbu_0, # of connection points: 4
#     Node 3, Type 0, BuildingBlock: MUDLON_clean_sbu_0, # of connection points: 4
#     Node 4, Type 0, BuildingBlock: MUDLON_clean_sbu_0, # of connection points: 4
#     Node 5, Type 0, BuildingBlock: MUDLON_clean_sbu_0, # of connection points: 4
#     Node 6, Type 0, BuildingBlock: MUDLON_clean_sbu_0, # of connection points: 4
#     Node 7, Type 0, BuildingBlock: MUDLON_clean_sbu_0, # of connection points: 4
#     Node 8, Type 1, BuildingBlock: QUQFOY_clean_sbu_1, # of connection points: 4
#     Node 9, Type 1, BuildingBlock: QUQFOY_clean_sbu_1, # of connection points: 4
#     Node 10, Type 1, BuildingBlock: QUQFOY_clean_sbu_1, # of connection points: 4
#     Node 11, Type 1, BuildingBlock: QUQFOY_clean_sbu_1, # of connection points: 4
#     Node 12, Type 1, BuildingBlock: QUQFOY_clean_sbu_1, # of connection points: 4
#     Node 13, Type 1, BuildingBlock: QUQFOY_clean_sbu_1, # of connection points: 4
#     Node 14, Type 1, BuildingBlock: QUQFOY_clean_sbu_1, # of connection points: 4
#     Node 15, Type 1, BuildingBlock: QUQFOY_clean_sbu_1, # of connection points: 4
#     Edge 16, Type (0, 1), BuildingBlock: MIFKUJ_clean_linker_0, # of connection points: 2
#     Edge 17, Type (0, 1), BuildingBlock: MIFKUJ_clean_linker_0, # of connection points: 2
#     Edge 18, Type (0, 1), BuildingBlock: MIFKUJ_clean_linker_0, # of connection points: 2
#     Edge 19, Type (0, 1), BuildingBlock: MIFKUJ_clean_linker_0, # of connection points: 2
#     Edge 20, Type (0, 1), BuildingBlock: MIFKUJ_clean_linker_0, # of connection points: 2
#     Edge 21, Type (0, 1), BuildingBlock: MIFKUJ_clean_linker_0, # of connection points: 2
#     Edge 22, Type (0, 1), BuildingBlock: MIFKUJ_clean_linker_0, # of connection points: 2
#     Edge 23, Type (0, 1), BuildingBlock: MIFKUJ_clean_linker_0, # of connection points: 2
#     Edge 24, Type (0, 1), BuildingBlock: MIFKUJ_clean_linker_0, # of connection points: 2
#     Edge 25, Type (0, 1), BuildingBlock: MIFKUJ_clean_linker_0, # of connection points: 2
#     Edge 26, Type (0, 1), BuildingBlock: MIFKUJ_clean_linker_0, # of connection points: 2
#     Edge 27, Type (0, 1), BuildingBlock: MIFKUJ_clean_linker_0, # of connection points: 2
#     Edge 28, Type (0, 1), BuildingBlock: MIFKUJ_clean_linker_0, # of connection points: 2
#     Edge 29, Type (0, 1), BuildingBlock: MIFKUJ_clean_linker_0, # of connection points: 2
#     Edge 30, Type (0, 1), BuildingBlock: MIFKUJ_clean_linker_0, # of connection points: 2
#     Edge 31, Type (0, 1), BuildingBlock: MIFKUJ_clean_linker_0, # of connection points: 2
#     Edge 32, Type (0, 1), BuildingBlock: MIFKUJ_clean_linker_0, # of connection points: 2
#     Edge 33, Type (0, 1), BuildingBlock: MIFKUJ_clean_linker_0, # of connection points: 2
#     Edge 34, Type (0, 1), BuildingBlock: MIFKUJ_clean_linker_0, # of connection points: 2
#     Edge 35, Type (0, 1), BuildingBlock: MIFKUJ_clean_linker_0, # of connection points: 2
#     Edge 36, Type (0, 1), BuildingBlock: MIFKUJ_clean_linker_0, # of connection points: 2
#     Edge 37, Type (0, 1), BuildingBlock: MIFKUJ_clean_linker_0, # of connection points: 2
#     Edge 38, Type (0, 1), BuildingBlock: MIFKUJ_clean_linker_0, # of connection points: 2
#     Edge 39, Type (0, 1), BuildingBlock: MIFKUJ_clean_linker_0, # of connection points: 2
#     Edge 40, Type (0, 1), BuildingBlock: MIFKUJ_clean_linker_0, # of connection points: 2
#     Edge 41, Type (0, 1), BuildingBlock: MIFKUJ_clean_linker_0, # of connection points: 2
#     Edge 42, Type (0, 1), BuildingBlock: MIFKUJ_clean_linker_0, # of connection points: 2
#     Edge 43, Type (0, 1), BuildingBlock: MIFKUJ_clean_linker_0, # of connection points: 2
#     Edge 44, Type (0, 1), BuildingBlock: MIFKUJ_clean_linker_0, # of connection points: 2
#     Edge 45, Type (0, 1), BuildingBlock: MIFKUJ_clean_linker_0, # of connection points: 2
#     Edge 46, Type (0, 1), BuildingBlock: MIFKUJ_clean_linker_0, # of connection points: 2
#     Edge 47, Type (0, 1), BuildingBlock: MIFKUJ_clean_linker_0, # of connection points: 2
# Relax obj value: 0.235
# Max RMSD: 0.253
# Mean RMSD: 0.183
data_MOF--net-wbl--node1-MUDLON_clean_sbu_0--node2-QUQFOY_clean_sbu_1--edge1-MIFKUJ_clean_linker_0
_symmetry_space_group_name_H-M    P1
_symmetry_Int_Tables_number       1
_symmetry_cell_setting            triclinic
loop_
_symmetry_equiv_pos_as_xyz
'x, y, z'
_cell_length_a     44.906654
_cell_length_b     44.78999
_cell_length_c     98.480873
_cell_angle_alpha  92.941257
_cell_angle_beta   92.948067
_cell_angle_gamma 90.85026
loop_
_atom_site_label
_atom_site_type_symbol
_atom_site_fract_x
_atom_site_fract_y
_atom_site_fract_z
_atom_type_partial_charge
Mg0 Mg 0.22564 0.15711 0.37533 0.0
C1 C 0.24303 0.10986 0.39547 0.0
O2 O 0.26378 0.10364 0.38689 0.0
C3 C 0.15969 0.14558 0.36868 0.0
O4 O 0.16378 0.12622 0.37816 0.0
C5 C 0.25216 0.11337 0.35601 0.0
O6 O 0.22691 0.10012 0.35858 0.0
O7 O 0.25807 0.13925 0.36151 0.0
O8 O 0.22347 0.12905 0.39255 0.0
O9 O 0.23778 0.19908 0.38631 0.0
C10 C 0.21844 0.2194 0.38741 0.0
O11 O 0.19474 0.21807 0.37899 0.0
O12 O 0.18183 0.16089 0.36521 0.0
Mg13 Mg 0.04397 0.71724 0.61874 0.0
C14 C 0.10022 0.72639 0.63734 0.0
O15 O 0.10795 0.7442 0.62789 0.0
C16 C 0.06818 0.66476 0.60206 0.0
O17 O 0.09273 0.67177 0.60945 0.0
C18 C 0.07527 0.75907 0.60182 0.0
O19 O 0.08552 0.73305 0.59764 0.0
O20 O 0.05492 0.75965 0.61032 0.0
O21 O 0.07597 0.71134 0.63562 0.0
O22 O 0.00172 0.71582 0.62846 0.0
C23 C 0.99402 0.68965 0.63149 0.0
O24 O 0.01006 0.66704 0.62726 0.0
O25 O 0.04504 0.68027 0.60368 0.0
Mg26 Mg 0.52081 0.55151 0.86745 0.0
C27 C 0.51321 0.60212 0.88832 0.0
O28 O 0.48782 0.60396 0.8812 0.0
C29 C 0.57471 0.56734 0.8515 0.0
O30 O 0.57114 0.59374 0.85759 0.0
C31 C 0.48252 0.58963 0.85019 0.0
O32 O 0.50913 0.60128 0.84878 0.0
O33 O 0.48031 0.56653 0.85707 0.0
O34 O 0.53245 0.58359 0.88426 0.0
O35 O 0.51422 0.51107 0.87821 0.0
C36 C 0.53378 0.49083 0.87828 0.0
O37 O 0.55565 0.49236 0.86996 0.0
O38 O 0.55695 0.54599 0.85374 0.0
Mg39 Mg 0.66805 0.05181 0.11956 0.0
C40 C 0.7259 0.06763 0.1358 0.0
O41 O 0.72505 0.09106 0.1283 0.0
C42 C 0.63218 0.00818 0.10115 0.0
O43 O 0.61868 0.03315 0.09839 0.0
C44 C 0.68337 0.07884 0.09319 0.0
O45 O 0.68697 0.05052 0.08961 0.0
O46 O 0.67548 0.08588 0.10514 0.0
O47 O 0.70652 0.04683 0.13337 0.0
O48 O 0.63423 0.06454 0.13372 0.0
C49 C 0.61428 0.04582 0.13667 0.0
O50 O 0.6118 0.02005 0.1297 0.0
O51 O 0.65494 0.00931 0.10938 0.0
Mg52 Mg 0.03578 0.68218 0.95985 0.0
C53 C 0.04472 0.74425 0.94983 0.0
O54 O 0.07037 0.74231 0.95674 0.0
C55 C 0.97824 0.64861 0.96106 0.0
O56 O 0.97945 0.65133 0.94787 0.0
C57 C 0.0789 0.7035 0.98332 0.0
O58 O 0.05874 0.72415 0.985 0.0
O59 O 0.07503 0.68373 0.97365 0.0
O60 O 0.02467 0.72443 0.95115 0.0
O61 O 0.04378 0.65504 0.94162 0.0
C62 C 0.05899 0.66598 0.93247 0.0
O63 O 0.0733 0.69153 0.93518 0.0
O64 O 0.99865 0.66088 0.96897 0.0
Mg65 Mg 0.5879 0.51793 0.20523 0.0
C66 C 0.53421 0.49192 0.18844 0.0
O67 O 0.55281 0.47051 0.18544 0.0
C68 C 0.59596 0.46254 0.22291 0.0
O69 O 0.56881 0.45461 0.21839 0.0
C70 C 0.59991 0.57021 0.22614 0.0
O71 O 0.60974 0.54913 0.23393 0.0
O72 O 0.59055 0.5633 0.21397 0.0
O73 O 0.54187 0.51152 0.19781 0.0
O74 O 0.61262 0.5156 0.18691 0.0
C75 C 0.62465 0.49129 0.18311 0.0
O76 O 0.62339 0.46833 0.19086 0.0
O77 O 0.60737 0.48683 0.21929 0.0
Mg78 Mg 0.6698 0.10016 0.4659 0.0
C79 C 0.64094 0.13198 0.44214 0.0
O80 O 0.6202 0.11118 0.44278 0.0
C81 C 0.62705 0.10912 0.489 0.0
O82 O 0.64357 0.13324 0.49201 0.0
C83 C 0.71531 0.14101 0.4801 0.0
O84 O 0.69421 0.15978 0.47687 0.0
O85 O 0.71082 0.11325 0.47728 0.0
O86 O 0.6619 0.13411 0.45133 0.0
O87 O 0.67713 0.06087 0.45287 0.0
C88 C 0.6552 0.04362 0.44914 0.0
O89 O 0.62942 0.04825 0.45455 0.0
O90 O 0.6329 0.09221 0.47875 0.0
Mg91 Mg 0.17304 0.20929 0.72156 0.0
C92 C 0.21507 0.2347 0.70305 0.0
O93 O 0.19203 0.25227 0.70174 0.0
C94 C 0.13377 0.24552 0.7389 0.0
O95 O 0.12293 0.21837 0.73994 0.0
C96 C 0.19937 0.16537 0.74068 0.0
O97 O 0.22307 0.18205 0.73899 0.0
O98 O 0.17481 0.17156 0.73454 0.0
O99 O 0.21521 0.2159 0.71229 0.0
O100 O 0.14358 0.20036 0.70354 0.0
C101 C 0.12506 0.21991 0.69979 0.0
O102 O 0.12114 0.24358 0.70788 0.0
O103 O 0.15703 0.24886 0.73226 0.0
O104 O 0.44118 0.69162 0.02934 0.0
Cd105 Cd 0.42294 0.70461 0.04746 0.0
Cd106 Cd 0.46656 0.66891 0.05739 0.0
O107 O 0.47328 0.65892 0.03705 0.0
O108 O 0.38641 0.72615 0.04166 0.0
O109 O 0.38492 0.68381 0.05222 0.0
C110 C 0.3709 0.70514 0.04646 0.0
C111 C 0.46069 0.63094 0.07248 0.0
C112 C 0.46096 0.67218 0.02718 0.0
C113 C 0.47145 0.7342 0.06575 0.0
O114 O 0.48417 0.70904 0.06568 0.0
O115 O 0.44596 0.73668 0.05974 0.0
O116 O 0.48638 0.63756 0.06806 0.0
O117 O 0.43786 0.64545 0.06799 0.0
O118 O 0.55745 0.9225 0.31503 0.0
Cd119 Cd 0.53037 0.91604 0.29754 0.0
Cd120 Cd 0.5792 0.93489 0.28618 0.0
O121 O 0.59398 0.94659 0.30592 0.0
O122 O 0.48861 0.91523 0.30368 0.0
O123 O 0.50685 0.95165 0.29204 0.0
C124 C 0.48513 0.94089 0.29848 0.0
C125 C 0.57516 0.96878 0.26916 0.0
C126 C 0.58205 0.93703 0.31632 0.0
C127 C 0.56097 0.87138 0.27972 0.0
O128 O 0.58207 0.89063 0.27983 0.0
O129 O 0.53668 0.87792 0.28521 0.0
O130 O 0.60093 0.95989 0.27357 0.0
O131 O 0.55172 0.95925 0.27478 0.0
O132 O 0.30766 0.0201 0.53919 0.0
Cd133 Cd 0.32446 0.01357 0.55858 0.0
Cd134 Cd 0.29009 0.0581 0.5651 0.0
O135 O 0.29074 0.06482 0.54446 0.0
O136 O 0.36399 0.99544 0.55606 0.0
O137 O 0.3581 0.04122 0.56507 0.0
C138 C 0.37564 0.0209 0.56045 0.0
C139 C 0.29798 0.09751 0.58135 0.0
C140 C 0.29686 0.04463 0.53553 0.0
C141 C 0.27286 0.99724 0.57394 0.0
O142 O 0.26416 0.02334 0.57137 0.0
O143 O 0.29878 0.98902 0.57089 0.0
O144 O 0.27373 0.09508 0.57374 0.0
O145 O 0.31851 0.07813 0.57933 0.0
O146 O 0.21 0.81272 0.78018 0.0
Cd147 Cd 0.22097 0.83146 0.79931 0.0
Cd148 Cd 0.1778 0.79533 0.80605 0.0
O149 O 0.16653 0.7943 0.78537 0.0
O150 O 0.24374 0.86869 0.79619 0.0
O151 O 0.19935 0.86868 0.805 0.0
C152 C 0.22147 0.88351 0.80058 0.0
C153 C 0.1427 0.8038 0.82237 0.0
C154 C 0.18509 0.80028 0.77652 0.0
C155 C 0.24034 0.78029 0.81503 0.0
O156 O 0.21381 0.77044 0.81255 0.0
O157 O 0.24752 0.80648 0.81185 0.0
O158 O 0.1428 0.77905 0.81508 0.0
O159 O 0.16178 0.82449 0.81995 0.0
O160 O 0.04394 0.30254 0.55803 0.0
Cd161 Cd 0.03304 0.32025 0.53954 0.0
Cd162 Cd 0.06537 0.27471 0.53048 0.0
O163 O 0.07677 0.2701 0.55084 0.0
O164 O 0.01498 0.3592 0.54465 0.0
O165 O 0.05739 0.35568 0.53427 0.0
C166 C 0.03753 0.37223 0.53978 0.0
C167 C 0.10103 0.2801 0.51441 0.0
C168 C 0.06334 0.28293 0.56052 0.0
C169 C 0.00065 0.27188 0.52233 0.0
O170 O 0.02457 0.25715 0.52322 0.0
O171 O 1.00006 0.29864 0.52725 0.0
O172 O 0.0963 0.25477 0.51967 0.0
O173 O 0.08612 0.3029 0.51867 0.0
O174 O 0.92341 0.54154 0.80096 0.0
Cd175 Cd 0.89912 0.52212 0.78441 0.0
Cd176 Cd 0.93312 0.559 0.77075 0.0
O177 O 0.94546 0.57666 0.79001 0.0
O178 O 0.86355 0.50336 0.79195 0.0
O179 O 0.8608 0.5417 0.77863 0.0
C180 C 0.84758 0.52305 0.78602 0.0
C181 C 0.9242 0.59163 0.75326 0.0
C182 C 0.94027 0.5646 0.80107 0.0
C183 C 0.94241 0.49258 0.76657 0.0
O184 O 0.95189 0.51891 0.76483 0.0
O185 O 0.91954 0.48857 0.77338 0.0
O186 O 0.95063 0.58746 0.75843 0.0
O187 O 0.90226 0.5777 0.75829 0.0
O188 O 0.73521 0.4095 0.04507 0.0
Cd189 Cd 0.74718 0.39138 0.02653 0.0
Cd190 Cd 0.70396 0.42617 0.01691 0.0
O191 O 0.69619 0.43382 0.03721 0.0
O192 O 0.76716 0.35346 0.03085 0.0
O193 O 0.72386 0.3551 0.0191 0.0
C194 C 0.74428 0.33946 0.02498 0.0
C195 C 0.66403 0.41598 0.00118 0.0
C196 C 0.71276 0.42569 0.04714 0.0
C197 C 0.76659 0.44048 0.00953 0.0
O198 O 0.73961 0.44861 0.00961 0.0
O199 O 0.77456 0.41667 0.01512 0.0
O200 O 0.66815 0.44203 0.00721 0.0
O201 O 0.68228 0.39511 0.00434 0.0
O202 O 0.82248 0.1848 0.2726 0.0
Cd203 Cd 0.82231 0.21411 0.28939 0.0
Cd204 Cd 0.8036 0.16553 0.30142 0.0
O205 O 0.7986 0.14782 0.28157 0.0
O206 O 0.81807 0.25505 0.28247 0.0
O207 O 0.78296 0.23235 0.29333 0.0
C208 C 0.79145 0.25505 0.28683 0.0
C209 C 0.76505 0.1625 0.31638 0.0
C210 C 0.80994 0.15911 0.27137 0.0
C211 C 0.86464 0.19118 0.31029 0.0
O212 O 0.84622 0.16936 0.31042 0.0
O213 O 0.85854 0.21339 0.30316 0.0
O214 O 0.78096 0.13958 0.31336 0.0
O215 O 0.77039 0.18699 0.3105 0.0
H216 H 0.30425 0.13512 0.3465 0.0
H217 H 0.34206 0.10675 0.33444 0.0
H218 H 0.28835 0.02643 0.33563 0.0
H219 H 0.25046 0.05449 0.3475 0.0
H220 H 0.34804 0.02048 0.34523 0.0
H221 H 0.29242 0.05788 0.30656 0.0
H222 H 0.2701 0.09725 0.29291 0.0
H223 H 0.35656 0.13783 0.28982 0.0
H224 H 0.37934 0.09891 0.30362 0.0
H225 H 0.43131 0.92085 0.30638 0.0
H226 H 0.38963 0.95101 0.31376 0.0
H227 H 0.43732 0.0313 0.30464 0.0
H228 H 0.4785 0.00109 0.29666 0.0
H229 H 0.38094 0.03871 0.299 0.0
H230 H 0.43729 0.00511 0.33759 0.0
H231 H 0.46192 0.96855 0.35211 0.0
H232 H 0.37762 0.92476 0.35676 0.0
H233 H 0.35253 0.96084 0.34211 0.0
C234 C 0.30039 0.11148 0.34407 0.0
C235 C 0.27436 0.09707 0.34798 0.0
C236 C 0.32195 0.09533 0.33716 0.0
C237 C 0.31794 0.06451 0.33413 0.0
C238 C 0.29185 0.0502 0.33787 0.0
C239 C 0.27019 0.06633 0.34463 0.0
C240 C 0.34148 0.04673 0.32766 0.0
C241 C 0.35497 0.02416 0.33505 0.0
C242 C 0.35121 0.05231 0.31458 0.0
C243 C 0.33754 0.07565 0.30625 0.0
C244 C 0.30663 0.07535 0.30308 0.0
C245 C 0.29391 0.09755 0.29529 0.0
C246 C 0.31189 0.12008 0.29053 0.0
C247 C 0.34265 0.1204 0.29353 0.0
C248 C 0.35548 0.09825 0.30132 0.0
C249 C 0.43268 0.94489 0.30573 0.0
C250 C 0.45827 0.95862 0.30105 0.0
C251 C 0.40893 0.96215 0.31004 0.0
C252 C 0.41064 0.99353 0.31014 0.0
C253 C 0.4355 0.00717 0.30476 0.0
C254 C 0.45905 0.98986 0.3002 0.0
C255 C 0.38734 0.01208 0.3165 0.0
C256 C 0.374 0.0349 0.30916 0.0
C257 C 0.3781 0.00716 0.32977 0.0
C258 C 0.39308 0.9855 0.33864 0.0
C259 C 0.42404 0.98756 0.34163 0.0
C260 C 0.43807 0.96694 0.3499 0.0
C261 C 0.42135 0.9443 0.35532 0.0
C262 C 0.39054 0.94228 0.35253 0.0
C263 C 0.3764 0.96282 0.34425 0.0
H264 H 0.43226 0.92835 0.36172 0.0
H265 H 0.30199 0.13725 0.2845 0.0
H266 H 0.12965 0.76359 0.59111 0.0
H267 H 0.15956 0.80879 0.58894 0.0
H268 H 0.08825 0.86268 0.60383 0.0
H269 H 0.05812 0.8172 0.6064 0.0
H270 H 0.1195 0.88147 0.57855 0.0
H271 H 0.1363 0.85957 0.62522 0.0
H272 H 0.14692 0.8273 0.64437 0.0
H273 H 0.23197 0.80581 0.62876 0.0
H274 H 0.22165 0.83758 0.60938 0.0
H275 H 0.2167 0.00804 0.58232 0.0
H276 H 0.1804 0.97177 0.58955 0.0
H277 H 0.24488 0.90187 0.58555 0.0
H278 H 0.28153 0.93807 0.57848 0.0
H279 H 0.21243 0.89569 0.60788 0.0
H280 H 0.193 0.9126 0.5601 0.0
H281 H 0.18224 0.94349 0.54047 0.0
H282 H 0.10164 0.97355 0.558 0.0
H283 H 0.11216 0.9431 0.57783 0.0
C284 C 0.12007 0.78501 0.59379 0.0
C285 C 0.0915 0.78682 0.59895 0.0
C286 C 0.13729 0.81079 0.5926 0.0
C287 C 0.12615 0.83889 0.59635 0.0
C288 C 0.09718 0.84106 0.60095 0.0
C289 C 0.08005 0.81513 0.60238 0.0
C290 C 0.14543 0.8657 0.59562 0.0
C291 C 0.13946 0.88509 0.58515 0.0
C292 C 0.17167 0.86987 0.60411 0.0
C293 C 0.17807 0.85077 0.61577 0.0
C294 C 0.15715 0.84774 0.62579 0.0
C295 C 0.16313 0.82959 0.6367 0.0
C296 C 0.19008 0.81448 0.63776 0.0
C297 C 0.2111 0.81752 0.62792 0.0
C298 C 0.2052 0.83563 0.61697 0.0
C299 C 0.22332 0.98502 0.58311 0.0
C300 C 0.25195 0.9759 0.57967 0.0
C301 C 0.20249 0.96431 0.58723 0.0
C302 C 0.20979 0.93404 0.58788 0.0
C303 C 0.23877 0.92512 0.58508 0.0
C304 C 0.25967 0.94583 0.581 0.0
C305 C 0.18679 0.91134 0.59064 0.0
C306 C 0.19216 0.89255 0.60145 0.0
C307 C 0.15996 0.9077 0.58245 0.0
C308 C 0.15354 0.92587 0.57051 0.0
C309 C 0.17311 0.92598 0.55981 0.0
C310 C 0.16703 0.94337 0.54865 0.0
C311 C 0.14132 0.96055 0.54801 0.0
C312 C 0.12158 0.96028 0.55852 0.0
C313 C 0.12758 0.94295 0.56972 0.0
H314 H 0.13665 0.974 0.53936 0.0
H315 H 0.1947 0.80047 0.64623 0.0
H316 H 0.42376 0.57396 0.85265 0.0
H317 H 0.37999 0.60428 0.84755 0.0
H318 H 0.43681 0.6728 0.83294 0.0
H319 H 0.48051 0.6428 0.83794 0.0
H320 H 0.39772 0.69466 0.85178 0.0
H321 H 0.3948 0.62961 0.81088 0.0
H322 H 0.39272 0.58079 0.79806 0.0
H323 H 0.30992 0.55929 0.81554 0.0
H324 H 0.31172 0.60785 0.82861 0.0
H325 H 0.30054 0.79041 0.81746 0.0
H326 H 0.33891 0.75602 0.82483 0.0
H327 H 0.27108 0.69104 0.83299 0.0
H328 H 0.23244 0.72511 0.82523 0.0
H329 H 0.31278 0.66481 0.81951 0.0
H330 H 0.31268 0.73012 0.8591 0.0
H331 H 0.31387 0.77817 0.87252 0.0
H332 H 0.40084 0.79818 0.85884 0.0
H333 H 0.40002 0.75043 0.84518 0.0
C334 C 0.42689 0.5953 0.84818 0.0
C335 C 0.45564 0.60599 0.84574 0.0
C336 C 0.40186 0.61258 0.84528 0.0
C337 C 0.40522 0.6408 0.83991 0.0
C338 C 0.43378 0.65114 0.83715 0.0
C339 C 0.45872 0.63387 0.83996 0.0
C340 C 0.37923 0.66024 0.83761 0.0
C341 C 0.37924 0.6883 0.84463 0.0
C342 C 0.35465 0.65137 0.8287 0.0
C343 C 0.35358 0.6222 0.82084 0.0
C344 C 0.37629 0.61436 0.81209 0.0
C345 C 0.37513 0.58676 0.80476 0.0
C346 C 0.35125 0.56691 0.80602 0.0
C347 C 0.32843 0.57466 0.81459 0.0
C348 C 0.3295 0.60222 0.82196 0.0
C349 C 0.2937 0.76896 0.82097 0.0
C350 C 0.2634 0.76052 0.82075 0.0
C351 C 0.31571 0.74933 0.82525 0.0
C352 C 0.30791 0.72103 0.82962 0.0
C353 C 0.27764 0.71275 0.82966 0.0
C354 C 0.25558 0.7323 0.82527 0.0
C355 C 0.33148 0.69966 0.83346 0.0
C356 C 0.33104 0.67116 0.82677 0.0
C357 C 0.35554 0.708 0.84281 0.0
C358 C 0.35617 0.73677 0.85103 0.0
C359 C 0.33197 0.74486 0.85887 0.0
C360 C 0.33259 0.77203 0.86654 0.0
C361 C 0.35739 0.79124 0.86651 0.0
C362 C 0.38164 0.78329 0.85884 0.0
C363 C 0.38112 0.75615 0.85115 0.0
H364 H 0.35783 0.81227 0.87245 0.0
H365 H 0.35039 0.54556 0.80033 0.0
H366 H 0.57848 0.9979 0.08729 0.0
H367 H 0.55289 0.94981 0.08226 0.0
H368 H 0.62842 0.9043 0.09978 0.0
H369 H 0.65429 0.95238 0.10487 0.0
H370 H 0.604 0.87572 0.07567 0.0
H371 H 0.57165 0.91512 0.11845 0.0
H372 H 0.55189 0.95379 0.13412 0.0
H373 H 0.47041 0.95483 0.10935 0.0
H374 H 0.4899 0.91652 0.0934 0.0
H375 H 0.52655 0.73783 0.07912 0.0
H376 H 0.55507 0.78317 0.08657 0.0
H377 H 0.48157 0.83713 0.0731 0.0
H378 H 0.4527 0.79201 0.06587 0.0
H379 H 0.50707 0.86022 0.09658 0.0
H380 H 0.54047 0.82373 0.05308 0.0
H381 H 0.56045 0.7862 0.03691 0.0
H382 H 0.6399 0.78035 0.06276 0.0
H383 H 0.62019 0.81758 0.07918 0.0
C384 C 0.58986 0.97767 0.08993 0.0
C385 C 0.61834 0.97898 0.09658 0.0
C386 C 0.57513 0.95023 0.0871 0.0
C387 C 0.58861 0.92361 0.09085 0.0
C388 C 0.61761 0.92465 0.09687 0.0
C389 C 0.63232 0.95213 0.09978 0.0
C390 C 0.5719 0.89485 0.08893 0.0
C391 C 0.58304 0.87211 0.0804 0.0
C392 C 0.54436 0.89042 0.09497 0.0
C393 C 0.53235 0.91312 0.10466 0.0
C394 C 0.5496 0.92375 0.11629 0.0
C395 C 0.53844 0.94559 0.12523 0.0
C396 C 0.50994 0.95681 0.12272 0.0
C397 C 0.4925 0.94614 0.11128 0.0
C398 C 0.50359 0.92434 0.10229 0.0
C399 C 0.51628 0.75932 0.07791 0.0
C400 C 0.48743 0.76127 0.07177 0.0
C401 C 0.53267 0.78522 0.08212 0.0
C402 C 0.52064 0.81353 0.08015 0.0
C403 C 0.49134 0.81551 0.07466 0.0
C404 C 0.47488 0.78966 0.07051 0.0
C405 C 0.53897 0.84113 0.08317 0.0
C406 C 0.52814 0.86369 0.09193 0.0
C407 C 0.56678 0.84543 0.07731 0.0
C408 C 0.57872 0.82318 0.06742 0.0
C409 C 0.5621 0.81428 0.05536 0.0
C410 C 0.57339 0.79309 0.04615 0.0
C411 C 0.60139 0.78083 0.04883 0.0
C412 C 0.61819 0.78982 0.06071 0.0
C413 C 0.60699 0.81097 0.06997 0.0
H414 H 0.61009 0.76443 0.04168 0.0
H415 H 0.50134 0.97372 0.12964 0.0
H416 H 0.11724 0.6576 0.98711 0.0
H417 H 0.1637 0.65848 0.00127 0.0
H418 H 0.14932 0.75056 0.01379 0.0
H419 H 0.10248 0.74976 0.99983 0.0
H420 H 0.20672 0.73737 0.003 0.0
H421 H 0.14117 0.70328 0.03634 0.0
H422 H 0.10268 0.67028 0.04486 0.0
H423 H 0.15913 0.59464 0.03906 0.0
H424 H 0.19782 0.62713 0.03031 0.0
H425 H 0.33474 0.75307 0.04578 0.0
H426 H 0.28185 0.7533 0.03863 0.0
H427 H 0.28089 0.65689 0.03418 0.0
H428 H 0.3335 0.6566 0.04216 0.0
H429 H 0.22932 0.6737 0.04188 0.0
H430 H 0.29191 0.70312 0.00677 0.0
H431 H 0.3308 0.73267 0.99647 0.0
H432 H 0.28074 0.81255 0.00318 0.0
H433 H 0.24172 0.78351 0.01369 0.0
C434 C 0.12384 0.67798 0.99296 0.0
C435 C 0.10628 0.70365 0.99233 0.0
C436 C 0.15028 0.67837 0.00109 0.0
C437 C 0.15978 0.70453 0.00861 0.0
C438 C 0.14222 0.73014 0.0081 0.0
C439 C 0.1155 0.72962 1.00014 0.0
C440 C 0.18902 0.70564 0.01627 0.0
C441 C 0.21156 0.72391 0.01167 0.0
C442 C 0.19547 0.68717 0.02723 0.0
C443 C 0.17229 0.66762 0.03255 0.0
C444 C 0.14528 0.67957 0.03676 0.0
C445 C 0.12344 0.66096 0.04166 0.0
C446 C 0.12842 0.63037 0.04247 0.0
C447 C 0.15529 0.61834 0.03841 0.0
C448 C 0.17719 0.63685 0.0335 0.0
C449 C 0.32302 0.73192 0.04356 0.0
C450 C 0.33816 0.70482 0.04439 0.0
C451 C 0.29287 0.73206 0.03938 0.0
C452 C 0.27758 0.70517 0.03542 0.0
C453 C 0.29222 0.67795 0.03708 0.0
C454 C 0.32227 0.67778 0.04164 0.0
C455 C 0.24721 0.70558 0.02864 0.0
C456 C 0.22448 0.68745 0.03331 0.0
C457 C 0.24068 0.72369 0.0175 0.0
C458 C 0.26406 0.7412 0.01115 0.0
C459 C 0.2893 0.72702 0.00613 0.0
C460 C 0.31135 0.74367 0.00025 0.0
C461 C 0.30828 0.77448 0.99921 0.0
C462 C 0.28311 0.78869 0.00402 0.0
C463 C 0.26101 0.77215 0.00993 0.0
H464 H 0.32537 0.78734 0.99464 0.0
H465 H 0.11149 0.61601 0.04626 0.0
H466 H 0.5744 0.61726 0.21366 0.0
H467 H 0.56965 0.66839 0.22292 0.0
H468 H 0.61685 0.64554 0.26012 0.0
H469 H 0.62105 0.59396 0.25104 0.0
H470 H 0.57037 0.67773 0.26585 0.0
H471 H 0.65066 0.68685 0.23636 0.0
H472 H 0.67656 0.68089 0.21493 0.0
H473 H 0.61049 0.73393 0.19488 0.0
H474 H 0.58396 0.73988 0.21615 0.0
H475 H 0.61238 0.84778 0.27051 0.0
H476 H 0.62047 0.79683 0.26173 0.0
H477 H 0.52763 0.77502 0.26606 0.0
H478 H 0.51951 0.82586 0.27524 0.0
H479 H 0.60043 0.76508 0.24039 0.0
H480 H 0.51995 0.7026 0.27383 0.0
H481 H 0.49928 0.70851 0.29652 0.0
H482 H 0.57548 0.76221 0.31104 0.0
H483 H 0.59678 0.7563 0.28849 0.0
C484 C 0.58394 0.62309 0.22379 0.0
C485 C 0.5982 0.60152 0.2316 0.0
C486 C 0.58128 0.65241 0.22905 0.0
C487 C 0.5932 0.66093 0.24216 0.0
C488 C 0.60749 0.63947 0.24998 0.0
C489 C 0.60997 0.61003 0.24476 0.0
C490 C 0.59018 0.69209 0.24776 0.0
C491 C 0.57699 0.69683 0.26029 0.0
C492 C 0.59925 0.71704 0.24063 0.0
C493 C 0.61519 0.71359 0.22782 0.0
C494 C 0.64154 0.69706 0.22735 0.0
C495 C 0.65635 0.69371 0.21524 0.0
C496 C 0.64514 0.70696 0.20354 0.0
C497 C 0.61913 0.72365 0.20394 0.0
C498 C 0.60421 0.72705 0.21603 0.0
C499 C 0.59361 0.83221 0.26958 0.0
C500 C 0.56531 0.84088 0.27366 0.0
C501 C 0.59829 0.80306 0.26452 0.0
C502 C 0.57478 0.78195 0.26339 0.0
C503 C 0.54627 0.79074 0.26709 0.0
C504 C 0.54162 0.81987 0.27228 0.0
C505 C 0.58024 0.75075 0.25839 0.0
C506 C 0.59383 0.746 0.24595 0.0
C507 C 0.57225 0.7258 0.26578 0.0
C508 C 0.55978 0.72925 0.27943 0.0
C509 C 0.53233 0.71558 0.28188 0.0
C510 C 0.5205 0.71894 0.29471 0.0
C511 C 0.53601 0.7358 0.3052 0.0
C512 C 0.56344 0.74925 0.30289 0.0
C513 C 0.57538 0.74593 0.29008 0.0
H514 H 0.5268 0.73839 0.31513 0.0
H515 H 0.65665 0.70435 0.19417 0.0
H516 H 0.60682 0.14109 0.51106 0.0
H517 H 0.56637 0.1273 0.52537 0.0
H518 H 0.55144 0.04516 0.50097 0.0
H519 H 0.59134 0.05901 0.48648 0.0
H520 H 0.50003 0.07046 0.50595 0.0
H521 H 0.58872 0.04712 0.5327 0.0
H522 H 0.63776 0.0578 0.54453 0.0
H523 H 0.59907 0.12564 0.57015 0.0
H524 H 0.54985 0.11562 0.55835 0.0
H525 H 0.41517 0.98574 0.54727 0.0
H526 H 0.46129 0.0023 0.53773 0.0
H527 H 0.45343 0.08922 0.55799 0.0
H528 H 0.4068 0.07302 0.56747 0.0
H529 H 0.51558 0.06467 0.55602 0.0
H530 H 0.42651 0.08695 0.52937 0.0
H531 H 0.37733 0.07447 0.51805 0.0
H532 H 0.41712 0.00788 0.49217 0.0
H533 H 0.46646 0.01941 0.5036 0.0
C534 C 0.59491 0.1201 0.50873 0.0
C535 C 0.60236 0.10113 0.49763 0.0
C536 C 0.57188 0.11218 0.51697 0.0
C537 C 0.55608 0.08501 0.51435 0.0
C538 C 0.56331 0.06622 0.5032 0.0
C539 C 0.5862 0.07417 0.49493 0.0
C540 C 0.53179 0.07615 0.5231 0.0
C541 C 0.50359 0.06894 0.51687 0.0
C542 C 0.53614 0.07485 0.53742 0.0
C543 C 0.56568 0.08084 0.54455 0.0
C544 C 0.59072 0.06448 0.54079 0.0
C545 C 0.61854 0.07038 0.5475 0.0
C546 C 0.62155 0.09244 0.55806 0.0
C547 C 0.59672 0.10859 0.56196 0.0
C548 C 0.56886 0.10279 0.55527 0.0
C549 C 0.42362 0.00812 0.55006 0.0
C550 C 0.40707 0.02821 0.55798 0.0
C551 C 0.44998 0.01754 0.54456 0.0
C552 C 0.46041 0.04707 0.54701 0.0
C553 C 0.44561 0.06634 0.55598 0.0
C554 C 0.41898 0.05703 0.56138 0.0
C555 C 0.48427 0.05863 0.53879 0.0
C556 C 0.51218 0.06638 0.54511 0.0
C557 C 0.47972 0.06044 0.52454 0.0
C558 C 0.45015 0.05381 0.51746 0.0
C559 C 0.42474 0.06943 0.52137 0.0
C560 C 0.39683 0.06255 0.51492 0.0
C561 C 0.39409 0.04037 0.50441 0.0
C562 C 0.41927 0.02504 0.50032 0.0
C563 C 0.44721 0.03171 0.50679 0.0
H564 H 0.37247 0.03511 0.49942 0.0
H565 H 0.6431 0.09698 0.56324 0.0
H566 H 0.24976 0.1419 0.75228 0.0
H567 H 0.25372 0.09712 0.76538 0.0
H568 H 0.15819 0.08475 0.76166 0.0
H569 H 0.15396 0.12957 0.74849 0.0
H570 H 0.18369 0.0745 0.7881 0.0
H571 H 0.19741 0.04508 0.74102 0.0
H572 H 0.22048 0.04816 0.71894 0.0
H573 H 0.30621 0.03043 0.73789 0.0
H574 H 0.28368 0.02766 0.76014 0.0
H575 H 0.17227 0.91879 0.80034 0.0
H576 H 0.16933 0.97027 0.79331 0.0
H577 H 0.2649 0.9735 0.79044 0.0
H578 H 0.26778 0.92175 0.79698 0.0
H579 H 0.24004 0.9901 0.7681 0.0
H580 H 0.22703 0.01652 0.81499 0.0
H581 H 0.20498 0.01426 0.83734 0.0
H582 H 0.11987 0.03822 0.81961 0.0
H583 H 0.14132 0.04024 0.7971 0.0
C584 C 0.22954 0.12981 0.75432 0.0
C585 C 0.20155 0.13916 0.74924 0.0
C586 C 0.23187 0.10423 0.76181 0.0
C587 C 0.20627 0.08755 0.7644 0.0
C588 C 0.1782 0.09736 0.75977 0.0
C589 C 0.17586 0.12286 0.75218 0.0
C590 C 0.20902 0.05895 0.77126 0.0
C591 C 0.19575 0.05587 0.78371 0.0
C592 C 0.22537 0.03501 0.76565 0.0
C593 C 0.23891 0.03648 0.75226 0.0
C594 C 0.22122 0.04208 0.7405 0.0
C595 C 0.23419 0.04373 0.72795 0.0
C596 C 0.26481 0.03958 0.72702 0.0
C597 C 0.2825 0.03369 0.73863 0.0
C598 C 0.26964 0.03206 0.75121 0.0
C599 C 0.19272 0.93073 0.79853 0.0
C600 C 0.22023 0.91617 0.79912 0.0
C601 C 0.19103 0.96023 0.79454 0.0
C602 C 0.21691 0.97588 0.79133 0.0
C603 C 0.2446 0.96188 0.79276 0.0
C604 C 0.24624 0.93232 0.79655 0.0
C605 C 0.21491 0.00542 0.78512 0.0
C606 C 0.22819 0.00869 0.77266 0.0
C607 C 0.19874 0.02952 0.79081 0.0
C608 C 0.18574 0.02825 0.80433 0.0
C609 C 0.20356 0.02106 0.81583 0.0
C610 C 0.19117 0.01988 0.82853 0.0
C611 C 0.16103 0.02602 0.82988 0.0
C612 C 0.14321 0.03344 0.81854 0.0
C613 C 0.15548 0.03463 0.80581 0.0
H614 H 0.15149 0.0251 0.83973 0.0
H615 H 0.27481 0.04086 0.71729 0.0
H616 H 0.59466 0.51385 0.84122 0.0
H617 H 0.63772 0.5053 0.82739 0.0
H618 H 0.65431 0.60037 0.82744 0.0
H619 H 0.61134 0.60919 0.84137 0.0
H620 H 0.66026 0.56858 0.80141 0.0
H621 H 0.69381 0.56427 0.84881 0.0
H622 H 0.69174 0.54584 0.87192 0.0
H623 H 0.70508 0.45614 0.85615 0.0
H624 H 0.70681 0.47401 0.8329 0.0
H625 H 0.81287 0.57248 0.7846 0.0
H626 H 0.7629 0.57849 0.793 0.0
H627 H 0.76005 0.48501 0.80171 0.0
H628 H 0.81054 0.47937 0.79395 0.0
H629 H 0.74501 0.51484 0.8226 0.0
H630 H 0.71446 0.51739 0.77555 0.0
H631 H 0.71478 0.53374 0.75203 0.0
H632 H 0.69406 0.62307 0.76597 0.0
H633 H 0.694 0.60735 0.78961 0.0
C634 C 0.6073 0.53298 0.83821 0.0
C635 C 0.59972 0.56221 0.84248 0.0
C636 C 0.63188 0.52803 0.8303 0.0
C637 C 0.64923 0.5522 0.82646 0.0
C638 C 0.64114 0.58144 0.83029 0.0
C639 C 0.61671 0.58641 0.83832 0.0
C640 C 0.67686 0.54685 0.81918 0.0
C641 C 0.67898 0.55707 0.80603 0.0
C642 C 0.70082 0.53113 0.82512 0.0
C643 C 0.70014 0.52043 0.83911 0.0
C644 C 0.69608 0.54059 0.85026 0.0
C645 C 0.695 0.53025 0.86338 0.0
C646 C 0.69819 0.49983 0.8655 0.0
C647 C 0.70257 0.47969 0.85449 0.0
C648 C 0.70362 0.48991 0.84135 0.0
C649 C 0.8013 0.5531 0.78804 0.0
C650 C 0.81561 0.5255 0.78869 0.0
C651 C 0.77264 0.55651 0.7928 0.0
C652 C 0.7575 0.53217 0.79796 0.0
C653 C 0.77126 0.5042 0.79788 0.0
C654 C 0.80009 0.50095 0.79339 0.0
C655 C 0.72871 0.53637 0.80463 0.0
C656 C 0.72635 0.52608 0.81779 0.0
C657 C 0.70444 0.55168 0.79858 0.0
C658 C 0.7045 0.56124 0.78438 0.0
C659 C 0.71021 0.54058 0.77362 0.0
C660 C 0.71029 0.54972 0.76026 0.0
C661 C 0.70452 0.57944 0.75751 0.0
C662 C 0.69857 0.60006 0.76811 0.0
C663 C 0.69847 0.59104 0.78149 0.0
H664 H 0.70459 0.58647 0.74716 0.0
H665 H 0.69734 0.49187 0.87567 0.0
H666 H 0.68247 0.13944 0.09803 0.0
H667 H 0.6912 0.17808 0.08205 0.0
H668 H 0.70418 0.11026 0.05029 0.0
H669 H 0.69608 0.07134 0.06634 0.0
H670 H 0.74489 0.15282 0.04946 0.0
H671 H 0.63967 0.14999 0.05044 0.0
H672 H 0.59067 0.14927 0.06063 0.0
H673 H 0.60885 0.2365 0.07964 0.0
H674 H 0.65816 0.23759 0.06973 0.0
H675 H 0.69764 0.3033 0.01485 0.0
H676 H 0.68641 0.25233 0.02115 0.0
H677 H 0.76893 0.25221 0.04563 0.0
H678 H 0.78066 0.30243 0.03906 0.0
H679 H 0.67509 0.23699 0.04499 0.0
H680 H 0.79316 0.18416 0.05106 0.0
H681 H 0.83977 0.1823 0.03889 0.0
H682 H 0.79155 0.20168 0.00168 0.0
H683 H 0.74457 0.20323 0.01357 0.0
C684 C 0.6871 0.13269 0.08764 0.0
C685 C 0.68846 0.10229 0.08345 0.0
C686 C 0.69195 0.15483 0.07848 0.0
C687 C 0.69788 0.14709 0.0649 0.0
C688 C 0.69954 0.11676 0.0607 0.0
C689 C 0.69484 0.09455 0.06989 0.0
C690 C 0.70289 0.17084 0.05523 0.0
C691 C 0.72957 0.17115 0.0484 0.0
C692 C 0.68242 0.19421 0.05344 0.0
C693 C 0.6527 0.19378 0.05939 0.0
C694 C 0.6333 0.16895 0.05686 0.0
C695 C 0.60546 0.16848 0.06258 0.0
C696 C 0.59667 0.19281 0.0708 0.0
C697 C 0.61569 0.21768 0.07328 0.0
C698 C 0.64358 0.21824 0.0676 0.0
C699 C 0.71377 0.29206 0.02126 0.0
C700 C 0.73996 0.30699 0.02651 0.0
C701 C 0.70727 0.26296 0.02491 0.0
C702 C 0.72681 0.2483 0.03386 0.0
C703 C 0.7537 0.26267 0.03851 0.0
C704 C 0.76032 0.29158 0.03479 0.0
C705 C 0.71776 0.21972 0.03967 0.0
C706 C 0.69027 0.21847 0.04582 0.0
C707 C 0.73716 0.19516 0.04052 0.0
C708 C 0.76533 0.19398 0.03325 0.0
C709 C 0.79245 0.18785 0.04027 0.0
C710 C 0.81895 0.18689 0.03342 0.0
C711 C 0.81863 0.19193 0.01953 0.0
C712 C 0.79178 0.19787 0.01245 0.0
C713 C 0.76522 0.19884 0.01925 0.0
H714 H 0.83917 0.1912 0.01424 0.0
H715 H 0.57511 0.19241 0.07522 0.0
H716 H 0.14222 0.18896 0.35152 0.0
H717 H 0.09185 0.19808 0.34217 0.0
H718 H 0.05828 0.12293 0.36281 0.0
H719 H 0.10858 0.11358 0.37219 0.0
H720 H 0.03641 0.12367 0.33619 0.0
H721 H 0.04753 0.192 0.37545 0.0
H722 H 0.07243 0.23222 0.39008 0.0
H723 H 0.06257 0.29254 0.3577 0.0
H724 H 0.03802 0.25252 0.34279 0.0
H725 H 0.88291 0.14959 0.32814 0.0
H726 H 0.93273 0.1438 0.33864 0.0
H727 H 0.96325 0.22248 0.31962 0.0
H728 H 0.91318 0.22881 0.30924 0.0
H729 H 0.98716 0.22064 0.34523 0.0
H730 H 0.97684 0.15314 0.30588 0.0
H731 H 0.95306 0.11311 0.29075 0.0
H732 H 0.96255 0.05158 0.32266 0.0
H733 H 0.98602 0.09138 0.33806 0.0
C734 C 0.12415 0.17429 0.35404 0.0
C735 C 0.12941 0.15055 0.36262 0.0
C736 C 0.09536 0.17963 0.34874 0.0
C737 C 0.07129 0.16136 0.35191 0.0
C738 C 0.07655 0.13733 0.36027 0.0
C739 C 0.1053 0.13207 0.36564 0.0
C740 C 0.04063 0.16721 0.34648 0.0
C741 C 0.02547 0.14471 0.33832 0.0
C742 C 0.02672 0.19498 0.34896 0.0
C743 C 0.0412 0.21917 0.35796 0.0
C744 C 0.05088 0.21378 0.37141 0.0
C745 C 0.0649 0.23655 0.37976 0.0
C746 C 0.06915 0.2649 0.37481 0.0
C747 C 0.0593 0.27056 0.36151 0.0
C748 C 0.04531 0.24784 0.35311 0.0
C749 C 0.9001 0.16587 0.32627 0.0
C750 C 0.89408 0.18952 0.31773 0.0
C751 C 0.92864 0.16244 0.33225 0.0
C752 C 0.95189 0.18235 0.3297 0.0
C753 C 0.94569 0.20675 0.32168 0.0
C754 C 0.91705 0.21032 0.31574 0.0
C755 C 0.98282 0.17699 0.335 0.0
C756 C 0.99806 0.19958 0.34311 0.0
C757 C 0.99693 0.14934 0.33241 0.0
C758 C 0.98292 0.12532 0.32316 0.0
C759 C 0.97365 0.13113 0.30971 0.0
C760 C 0.96026 0.10848 0.30108 0.0
C761 C 0.95623 0.07984 0.30576 0.0
C762 C 0.96565 0.07378 0.31906 0.0
C763 C 0.97902 0.09637 0.32774 0.0
H764 H 0.94586 0.06233 0.29906 0.0
H765 H 0.08001 0.2825 0.38129 0.0
H766 H 0.0192 0.64064 0.58771 0.0
H767 H 0.01574 0.59367 0.57396 0.0
H768 H 0.11003 0.58077 0.58135 0.0
H769 H 0.11379 0.62787 0.59519 0.0
H770 H 0.08761 0.56437 0.55384 0.0
H771 H 0.06698 0.54684 0.60046 0.0
H772 H 0.04143 0.55636 0.62179 0.0
H773 H 0.95689 0.53587 0.60076 0.0
H774 H 0.98193 0.52666 0.57924 0.0
H775 H 0.08946 0.40516 0.5411 0.0
H776 H 0.09582 0.45799 0.54851 0.0
H777 H 0.0003 0.46597 0.54984 0.0
H778 H 0.99403 0.41302 0.54302 0.0
H779 H 0.02446 0.48615 0.57254 0.0
H780 H 0.04385 0.50158 0.52603 0.0
H781 H 0.06824 0.49334 0.50432 0.0
H782 H 0.15301 0.51833 0.52412 0.0
H783 H 0.12919 0.52635 0.546 0.0
C784 C 0.03932 0.62806 0.58629 0.0
C785 C 0.06673 0.63784 0.59267 0.0
C786 C 0.03728 0.60123 0.57842 0.0
C787 C 0.06258 0.5837 0.57675 0.0
C788 C 0.09027 0.59405 0.58252 0.0
C789 C 0.09232 0.62086 0.59048 0.0
C790 C 0.05951 0.55346 0.56999 0.0
C791 C 0.07407 0.54707 0.55794 0.0
C792 C 0.04135 0.53124 0.57526 0.0
C793 C 0.0263 0.53635 0.58822 0.0
C794 C 0.04293 0.54458 0.60037 0.0
C795 C 0.02854 0.54989 0.61249 0.0
C796 C 0.99755 0.5468 0.61262 0.0
C797 C 0.98089 0.53829 0.60064 0.0
C798 C 0.99517 0.53301 0.58848 0.0
C799 C 0.06983 0.41841 0.54268 0.0
C800 C 0.04127 0.40501 0.54159 0.0
C801 C 0.07346 0.44864 0.54688 0.0
C802 C 0.04852 0.46606 0.54975 0.0
C803 C 0.0199 0.453 0.5478 0.0
C804 C 0.01632 0.42275 0.54386 0.0
C805 C 0.05216 0.49682 0.55612 0.0
C806 C 0.03786 0.50332 0.56825 0.0
C807 C 0.07036 0.5191 0.55083 0.0
C808 C 0.08476 0.51428 0.53769 0.0
C809 C 0.06773 0.50508 0.52578 0.0
C810 C 0.08145 0.5005 0.51344 0.0
C811 C 0.11217 0.50523 0.51285 0.0
C812 C 0.12922 0.51464 0.5246 0.0
C813 C 0.11562 0.51924 0.53697 0.0
H814 H 0.12274 0.50167 0.50328 0.0
H815 H 0.98645 0.55094 0.62202 0.0
H816 H 0.76666 0.10956 0.48402 0.0
H817 H 0.81644 0.12973 0.49078 0.0
H818 H 0.78059 0.21835 0.49513 0.0
H819 H 0.73094 0.19849 0.48816 0.0
H820 H 0.82892 0.21864 0.48067 0.0
H821 H 0.80213 0.1785 0.52292 0.0
H822 H 0.7855 0.1394 0.53771 0.0
H823 H 0.86105 0.08643 0.52777 0.0
H824 H 0.87792 0.12507 0.51277 0.0
H825 H 0.94638 0.29746 0.51793 0.0
H826 H 0.89959 0.27276 0.50984 0.0
H827 H 0.94472 0.1888 0.50514 0.0
H828 H 0.99177 0.21332 0.51337 0.0
H829 H 0.89379 0.18321 0.51863 0.0
H830 H 0.92212 0.2248 0.47741 0.0
H831 H 0.93892 0.26417 0.46281 0.0
H832 H 0.86055 0.31453 0.47084 0.0
H833 H 0.84347 0.27565 0.48565 0.0
C834 C 0.76932 0.13329 0.48657 0.0
C835 C 0.74486 0.15245 0.48552 0.0
C836 C 0.79778 0.14478 0.49046 0.0
C837 C 0.80222 0.17555 0.4935 0.0
C838 C 0.7777 0.19456 0.49277 0.0
C839 C 0.7493 0.18314 0.48883 0.0
C840 C 0.83252 0.18826 0.49692 0.0
C841 C 0.84296 0.21113 0.48907 0.0
C842 C 0.85122 0.17777 0.50759 0.0
C843 C 0.84111 0.15453 0.51661 0.0
C844 C 0.81506 0.1584 0.5238 0.0
C845 C 0.80562 0.13634 0.53224 0.0
C846 C 0.82216 0.1104 0.53365 0.0
C847 C 0.84823 0.10651 0.52665 0.0
C848 C 0.85775 0.12849 0.51819 0.0
C849 C 0.94649 0.2738 0.51506 0.0
C850 C 0.97285 0.25737 0.51631 0.0
C851 C 0.91971 0.25973 0.51039 0.0
C852 C 0.91873 0.22899 0.5068 0.0
C853 C 0.94503 0.21256 0.50785 0.0
C854 C 0.97191 0.22664 0.5125 0.0
C855 C 0.88992 0.21392 0.50252 0.0
C856 C 0.8798 0.19058 0.51017 0.0
C857 C 0.87148 0.22398 0.49167 0.0
C858 C 0.88164 0.2474 0.48274 0.0
C859 C 0.90858 0.24438 0.47616 0.0
C860 C 0.91813 0.26659 0.46782 0.0
C861 C 0.90084 0.29186 0.46592 0.0
C862 C 0.87393 0.29495 0.47233 0.0
C863 C 0.86428 0.27281 0.48068 0.0
H864 H 0.90827 0.30903 0.45947 0.0
H865 H 0.81482 0.09336 0.54019 0.0
H866 H 0.08094 0.24555 0.75141 0.0
H867 H 0.04871 0.28802 0.75576 0.0
H868 H 0.11396 0.3472 0.74022 0.0
H869 H 0.14652 0.30479 0.73588 0.0
H870 H 0.08894 0.37172 0.76294 0.0
H871 H 0.05574 0.32417 0.72017 0.0
H872 H 0.03931 0.2819 0.7044 0.0
H873 H 0.96319 0.2671 0.72801 0.0
H874 H 0.97944 0.30901 0.74406 0.0
H875 H 0.99394 0.49342 0.75296 0.0
H876 H 0.02607 0.45139 0.74767 0.0
H877 H 0.96318 0.39105 0.76411 0.0
H878 H 0.93068 0.433 0.7694 0.0
H879 H 0.98731 0.36757 0.74046 0.0
H880 H 0.02197 0.4152 0.78349 0.0
H881 H 0.03891 0.45795 0.79888 0.0
H882 H 0.11293 0.47322 0.77405 0.0
H883 H 0.09618 0.4308 0.7584 0.0
C884 C 0.08866 0.26763 0.74907 0.0
C885 C 0.11622 0.27174 0.7432 0.0
C886 C 0.07012 0.29186 0.7515 0.0
C887 C 0.07872 0.32065 0.74808 0.0
C888 C 0.10685 0.32511 0.74286 0.0
C889 C 0.12542 0.30085 0.7404 0.0
C890 C 0.0579 0.34584 0.74953 0.0
C891 C 0.06688 0.37099 0.75788 0.0
C892 C 0.02895 0.34465 0.74308 0.0
C893 C 0.01897 0.31956 0.73339 0.0
C894 C 0.03562 0.31176 0.72206 0.0
C895 C 0.02633 0.28788 0.71307 0.0
C896 C 0.00026 0.27178 0.71522 0.0
C897 C 0.9834 0.27957 0.72637 0.0
C898 C 0.99263 0.3034 0.73541 0.0
C899 C 0.98667 0.47118 0.7553 0.0
C900 C 0.95983 0.46664 0.76174 0.0
C901 C 0.00516 0.4472 0.75231 0.0
C902 C 0.99723 0.41822 0.75571 0.0
C903 C 0.96975 0.4133 0.76146 0.0
C904 C 0.95123 0.43731 0.76449 0.0
C905 C 0.01832 0.39335 0.75391 0.0
C906 C 0.0094 0.36828 0.74549 0.0
C907 C 0.04739 0.39468 0.76024 0.0
C908 C 0.05765 0.42001 0.76971 0.0
C909 C 0.04174 0.42782 0.78126 0.0
C910 C 0.05132 0.45196 0.79004 0.0
C911 C 0.07694 0.46834 0.78742 0.0
C912 C 0.09307 0.46054 0.77605 0.0
C913 C 0.08356 0.43643 0.76723 0.0
H914 H 0.08432 0.48703 0.79423 0.0
H915 H 0.99309 0.25331 0.70825 0.0
H916 H 0.97177 0.63461 0.98752 0.0
H917 H 0.9367 0.59843 0.9959 0.0
H918 H 0.89787 0.58191 0.95518 0.0
H919 H 0.93303 0.61771 0.94668 0.0
H920 H 0.87701 0.59486 0.99598 0.0
H921 H 0.8794 0.50795 0.95045 0.0
H922 H 0.91374 0.49102 0.93298 0.0
H923 H 0.98881 0.51995 0.95941 0.0
H924 H 0.95494 0.53666 0.9771 0.0
H925 H 0.7568 0.49287 0.99716 0.0
H926 H 0.79377 0.5272 0.98907 0.0
H927 H 0.86394 0.46719 0.00041 0.0
H928 H 0.82697 0.4324 0.00849 0.0
H929 H 0.87238 0.49094 0.97575 0.0
H930 H 0.85179 0.52648 0.02091 0.0
H931 H 0.81988 0.54232 0.03952 0.0
H932 H 0.78645 0.61413 0.01616 0.0
H933 H 0.81786 0.59845 0.99732 0.0
C934 C 0.95563 0.62345 0.98036 0.0
C935 C 0.95534 0.6289 0.96641 0.0
C936 C 0.93559 0.60279 0.98517 0.0
C937 C 0.91501 0.58714 0.97614 0.0
C938 C 0.91395 0.59334 0.9623 0.0
C939 C 0.93397 0.61394 0.95747 0.0
C940 C 0.89492 0.564 0.98114 0.0
C941 C 0.876 0.57215 0.99155 0.0
C942 C 0.894 0.53421 0.97553 0.0
C943 C 0.9146 0.52381 0.96504 0.0
C944 C 0.90324 0.51058 0.95255 0.0
C945 C 0.92262 0.50104 0.94261 0.0
C946 C 0.95343 0.5045 0.94507 0.0
C947 C 0.96494 0.51739 0.9575 0.0
C948 C 0.94565 0.52693 0.96748 0.0
C949 C 0.78005 0.48677 0.99786 0.0
C950 C 0.78893 0.45994 0.00358 0.0
C951 C 0.80116 0.50651 0.99326 0.0
C952 C 0.8316 0.49995 0.99434 0.0
C953 C 0.84053 0.47271 0.99954 0.0
C954 C 0.81938 0.45289 0.00418 0.0
C955 C 0.85406 0.52202 0.99036 0.0
C956 C 0.87341 0.51366 0.98016 0.0
C957 C 0.85574 0.55149 0.99631 0.0
C958 C 0.83699 0.56113 0.00766 0.0
C959 C 0.83747 0.54552 0.0197 0.0
C960 C 0.8195 0.55449 0.03029 0.0
C961 C 0.8011 0.57917 0.02901 0.0
C962 C 0.80069 0.59499 0.01713 0.0
C963 C 0.8186 0.58609 0.0065 0.0
H964 H 0.7872 0.58608 0.03722 0.0
H965 H 0.9684 0.49713 0.93735 0.0
H966 H 0.57894 0.40997 0.23376 0.0
H967 H 0.61057 0.37591 0.24659 0.0
H968 H 0.68598 0.43561 0.24382 0.0
H969 H 0.65474 0.46966 0.23109 0.0
H970 H 0.69806 0.37716 0.2361 0.0
H971 H 0.6534 0.43121 0.27335 0.0
H972 H 0.61139 0.45025 0.28623 0.0
H973 H 0.57996 0.36041 0.29058 0.0
H974 H 0.62159 0.34084 0.27755 0.0
H975 H 0.80491 0.31024 0.27806 0.0
H976 H 0.77016 0.347 0.26934 0.0
H977 H 0.69594 0.29019 0.27821 0.0
H978 H 0.73065 0.25386 0.28747 0.0
H979 H 0.6815 0.346 0.28278 0.0
H980 H 0.72352 0.29105 0.24574 0.0
H981 H 0.76358 0.26991 0.23219 0.0
H982 H 0.7972 0.35831 0.22632 0.0
H983 H 0.75756 0.37997 0.24 0.0
C984 C 0.6022 0.41595 0.23598 0.0
C985 C 0.61428 0.44253 0.23137 0.0
C986 C 0.62021 0.39651 0.24335 0.0
C987 C 0.65062 0.40329 0.24619 0.0
C988 C 0.6626 0.42994 0.24173 0.0
C989 C 0.64463 0.44942 0.23447 0.0
C990 C 0.67043 0.38213 0.25326 0.0
C991 C 0.69468 0.37064 0.24637 0.0
C992 C 0.66538 0.37283 0.26648 0.0
C993 C 0.64043 0.38458 0.27435 0.0
C994 C 0.63739 0.41552 0.27695 0.0
C995 C 0.61367 0.42641 0.2843 0.0
C996 C 0.59297 0.40656 0.28919 0.0
C997 C 0.59599 0.37577 0.28677 0.0
C998 C 0.61965 0.36476 0.27941 0.0
C999 C 0.78118 0.30579 0.27835 0.0
C1000 C 0.77052 0.27904 0.28334 0.0
C1001 C 0.76131 0.32674 0.27328 0.0
C1002 C 0.7304 0.32102 0.27275 0.0
C1003 C 0.71967 0.29505 0.27841 0.0
C1004 C 0.73955 0.27429 0.28371 0.0
C1005 C 0.70949 0.34134 0.26569 0.0
C1006 C 0.68495 0.35252 0.27251 0.0
C1007 C 0.71395 0.35005 0.2523 0.0
C1008 C 0.73774 0.33711 0.244 0.0
C1009 C 0.73958 0.30597 0.24164 0.0
C1010 C 0.76219 0.2939 0.23392 0.0
C1011 C 0.78297 0.31276 0.22842 0.0
C1012 C 0.78112 0.34373 0.2306 0.0
C1013 C 0.75857 0.35592 0.23832 0.0
H1014 H 0.80046 0.30337 0.22246 0.0
H1015 H 0.57463 0.41503 0.29488 0.0
H1016 H 0.2708 0.05966 0.404 0.0
H1017 H 0.27994 0.04543 0.4276 0.0
H1018 H 0.23259 0.12289 0.44192 0.0
H1019 H 0.22257 0.13676 0.41846 0.0
H1020 H 0.28994 0.1166 0.45468 0.0
H1021 H 0.1998 0.05858 0.44312 0.0
H1022 H 0.16836 0.02154 0.42938 0.0
H1023 H 0.23221 0.95342 0.43746 0.0
H1024 H 0.26427 0.99018 0.4511 0.0
H1025 H 0.27167 0.09309 0.52394 0.0
H1026 H 0.26369 0.10134 0.49971 0.0
H1027 H 0.30313 0.01633 0.48967 0.0
H1028 H 0.31091 0.00768 0.51389 0.0
H1029 H 0.25279 0.02396 0.47416 0.0
H1030 H 0.34238 0.07957 0.48605 0.0
H1031 H 0.37577 0.11565 0.49934 0.0
H1032 H 0.31606 0.18675 0.49027 0.0
H1033 H 0.28218 0.15108 0.47698 0.0
C1034 C 0.26187 0.0733 0.41218 0.0
C1035 C 0.24576 0.09915 0.4094 0.0
C1036 C 0.26712 0.06519 0.42562 0.0
C1037 C 0.25678 0.08311 0.43645 0.0
C1038 C 0.24045 0.1087 0.43367 0.0
C1039 C 0.23463 0.11646 0.42027 0.0
C1040 C 0.26393 0.07602 0.45074 0.0
C1041 C 0.28159 0.0965 0.459 0.0
C1042 C 0.25385 0.04931 0.45618 0.0
C1043 C 0.2346 0.02721 0.44799 0.0
C1044 C 0.20728 0.03577 0.44186 0.0
C1045 C 0.18932 0.01481 0.43411 0.0
C1046 C 0.19833 0.98517 0.43251 0.0
C1047 C 0.22529 0.9764 0.43869 0.0
C1048 C 0.24336 0.99728 0.44643 0.0
C1049 C 0.27866 0.07613 0.51659 0.0
C1050 C 0.29189 0.04972 0.52086 0.0
C1051 C 0.27419 0.08094 0.50274 0.0
C1052 C 0.28306 0.05955 0.49289 0.0
C1053 C 0.29609 0.03309 0.4971 0.0
C1054 C 0.30055 0.02823 0.51096 0.0
C1055 C 0.27841 0.06482 0.4782 0.0
C1056 C 0.26132 0.04398 0.46985 0.0
C1057 C 0.28933 0.09105 0.47261 0.0
C1058 C 0.3096 0.1126 0.48061 0.0
C1059 C 0.33624 0.10286 0.48697 0.0
C1060 C 0.35528 0.12324 0.49449 0.0
C1061 C 0.34797 0.15343 0.49569 0.0
C1062 C 0.32166 0.16334 0.48934 0.0
C1063 C 0.30256 0.14307 0.48179 0.0
H1064 H 0.36274 0.16917 0.50152 0.0
H1065 H 0.18438 0.96897 0.42652 0.0
H1066 H 0.08873 0.69456 0.65951 0.0
H1067 H 0.10872 0.70463 0.68285 0.0
H1068 H 0.16783 0.77239 0.66922 0.0
H1069 H 0.14781 0.76265 0.64583 0.0
H1070 H 0.16442 0.70633 0.69699 0.0
H1071 H 0.16424 0.83211 0.69132 0.0
H1072 H 0.14234 0.86867 0.67592 0.0
H1073 H 0.06477 0.81198 0.66803 0.0
H1074 H 0.08611 0.77526 0.68347 0.0
H1075 H 0.22457 0.79136 0.75668 0.0
H1076 H 0.21355 0.7764 0.73267 0.0
H1077 H 0.11943 0.7762 0.73934 0.0
H1078 H 0.13024 0.79043 0.76352 0.0
H1079 H 0.14182 0.80861 0.71507 0.0
H1080 H 0.14274 0.71415 0.73733 0.0
H1081 H 0.16547 0.67721 0.75224 0.0
H1082 H 0.24053 0.67063 0.72701 0.0
H1083 H 0.21842 0.70791 0.71206 0.0
C1084 C 0.10642 0.71118 0.66141 0.0
C1085 C 0.11633 0.72817 0.65085 0.0
C1086 C 0.11789 0.71682 0.67476 0.0
C1087 C 0.13936 0.73957 0.67777 0.0
C1088 C 0.15098 0.75497 0.66711 0.0
C1089 C 0.13953 0.74934 0.65375 0.0
C1090 C 0.14698 0.74927 0.69213 0.0
C1091 C 0.15965 0.72873 0.70093 0.0
C1092 C 0.14053 0.77843 0.69728 0.0
C1093 C 0.12685 0.80092 0.68847 0.0
C1094 C 0.14241 0.82759 0.68637 0.0
C1095 C 0.13014 0.84829 0.67762 0.0
C1096 C 0.10221 0.84262 0.67098 0.0
C1097 C 0.08643 0.81632 0.67315 0.0
C1098 C 0.0986 0.79555 0.6819 0.0
C1099 C 0.20151 0.78822 0.75304 0.0
C1100 C 0.17823 0.79203 0.76197 0.0
C1101 C 0.1953 0.77964 0.73935 0.0
C1102 C 0.16574 0.77524 0.73432 0.0
C1103 C 0.1424 0.77956 0.7431 0.0
C1104 C 0.1486 0.78756 0.75688 0.0
C1105 C 0.15924 0.76567 0.71989 0.0
C1106 C 0.1468 0.7863 0.7111 0.0
C1107 C 0.16591 0.73661 0.71476 0.0
C1108 C 0.17909 0.71405 0.72367 0.0
C1109 C 0.16423 0.70504 0.73504 0.0
C1110 C 0.17697 0.684 0.74348 0.0
C1111 C 0.20447 0.67165 0.7406 0.0
C1112 C 0.21925 0.68025 0.72924 0.0
C1113 C 0.20661 0.70132 0.72078 0.0
H1114 H 0.2143 0.65535 0.74714 0.0
H1115 H 0.0928 0.85862 0.66417 0.0
H1116 H 0.47728 0.64404 0.89975 0.0
H1117 H 0.47673 0.66026 0.9238 0.0
H1118 H 0.55531 0.60911 0.93242 0.0
H1119 H 0.55603 0.59253 0.90831 0.0
H1120 H 0.50775 0.59419 0.94773 0.0
H1121 H 0.56072 0.68181 0.93682 0.0
H1122 H 0.57149 0.7263 0.92406 0.0
H1123 H 0.48815 0.76416 0.93489 0.0
H1124 H 0.47664 0.71968 0.94756 0.0
H1125 H 0.50628 0.63644 0.01867 0.0
H1126 H 0.52204 0.62756 0.99541 0.0
H1127 H 0.45206 0.68434 0.9806 0.0
H1128 H 0.43657 0.69377 0.00376 0.0
H1129 H 0.50228 0.69664 0.96898 0.0
H1130 H 0.44673 0.60754 0.97763 0.0
H1131 H 0.4341 0.56234 0.98956 0.0
H1132 H 0.52026 0.52652 0.98207 0.0
H1133 H 0.5336 0.57176 0.97029 0.0
C1134 C 0.49486 0.63671 0.90669 0.0
C1135 C 0.5165 0.61667 0.90216 0.0
C1136 C 0.49456 0.64609 0.92043 0.0
C1137 C 0.51589 0.63563 0.92987 0.0
C1138 C 0.53858 0.61713 0.92526 0.0
C1139 C 0.53902 0.60786 0.9115 0.0
C1140 C 0.5124 0.64125 0.94465 0.0
C1141 C 0.5072 0.61657 0.95248 0.0
C1142 C 0.51094 0.67046 0.95069 0.0
C1143 C 0.51771 0.69726 0.94306 0.0
C1144 C 0.54455 0.69949 0.93638 0.0
C1145 C 0.55082 0.72474 0.92919 0.0
C1146 C 0.53049 0.74801 0.92864 0.0
C1147 C 0.50387 0.7461 0.93532 0.0
C1148 C 0.49748 0.72089 0.94252 0.0
C1149 C 0.49419 0.64696 0.01046 0.0
C1150 C 0.4701 0.66576 0.01309 0.0
C1151 C 0.50321 0.64183 0.99716 0.0
C1152 C 0.48812 0.65514 0.98624 0.0
C1153 C 0.46412 0.67392 0.98886 0.0
C1154 C 0.4552 0.67916 0.00212 0.0
C1155 C 0.49707 0.64957 0.97203 0.0
C1156 C 0.50325 0.67423 0.9643 0.0
C1157 C 0.49919 0.62031 0.96603 0.0
C1158 C 0.49134 0.59327 0.97328 0.0
C1159 C 0.46312 0.5902 0.97867 0.0
C1160 C 0.45581 0.56453 0.98538 0.0
C1161 C 0.47641 0.54164 0.98663 0.0
C1162 C 0.50436 0.54433 0.98115 0.0
C1163 C 0.51182 0.56998 0.97446 0.0
H1164 H 0.47069 0.52176 0.9918 0.0
H1165 H 0.53539 0.76755 0.92307 0.0
H1166 H 0.5711 0.00999 0.14624 0.0
H1167 H 0.55602 0.0093 0.16973 0.0
H1168 H 0.60834 0.08921 0.18014 0.0
H1169 H 0.62402 0.09013 0.15671 0.0
H1170 H 0.62576 0.03561 0.19377 0.0
H1171 H 0.54044 0.0954 0.1844 0.0
H1172 H 0.49409 0.10902 0.17188 0.0
H1173 H 0.45271 0.02625 0.18151 0.0
H1174 H 0.49897 0.01192 0.19394 0.0
H1175 H 0.61107 0.01523 0.26303 0.0
H1176 H 0.6103 0.04094 0.24167 0.0
H1177 H 0.53448 0.9864 0.22641 0.0
H1178 H 0.53368 0.96279 0.2482 0.0
H1179 H 0.52883 0.03525 0.21572 0.0
H1180 H 0.61328 0.97007 0.2203 0.0
H1181 H 0.65972 0.95093 0.23087 0.0
H1182 H 0.70253 0.03665 0.22814 0.0
H1183 H 0.65615 0.05638 0.21777 0.0
C1184 C 0.57883 0.02792 0.15342 0.0
C1185 C 0.59926 0.04978 0.14966 0.0
C1186 C 0.57005 0.02755 0.16682 0.0
C1187 C 0.5815 0.04904 0.17665 0.0
C1188 C 0.5997 0.07234 0.17266 0.0
C1189 C 0.60846 0.07284 0.15927 0.0
C1190 C 0.57885 0.04418 0.19128 0.0
C1191 C 0.60468 0.03618 0.1987 0.0
C1192 C 0.55118 0.0439 0.19745 0.0
C1193 C 0.52328 0.05249 0.19002 0.0
C1194 C 0.52156 0.07998 0.18375 0.0
C1195 C 0.49527 0.08786 0.17669 0.0
C1196 C 0.47049 0.06849 0.17588 0.0
C1197 C 0.47193 0.04123 0.18215 0.0
C1198 C 0.49816 0.03324 0.18922 0.0
C1199 C 0.59389 0.00931 0.25518 0.0
C1200 C 0.57256 0.98698 0.25715 0.0
C1201 C 0.5936 0.02376 0.24293 0.0
C1202 C 0.57299 0.01493 0.23216 0.0
C1203 C 0.55073 0.99363 0.23446 0.0
C1204 C 0.5503 0.98005 0.24691 0.0
C1205 C 0.57579 0.02608 0.21827 0.0
C1206 C 0.55004 0.03514 0.21093 0.0
C1207 C 0.60349 0.0265 0.21196 0.0
C1208 C 0.63122 0.01476 0.21838 0.0
C1209 C 0.63255 0.98486 0.22205 0.0
C1210 C 0.65885 0.97391 0.228 0.0
C1211 C 0.68404 0.99257 0.23021 0.0
C1212 C 0.68299 0.02222 0.22646 0.0
C1213 C 0.65672 0.0333 0.22054 0.0
H1214 H 0.70439 0.98404 0.23481 0.0
H1215 H 0.45016 0.07463 0.17041 0.0
H1216 H 0.08226 0.78961 0.94358 0.0
H1217 H 0.0879 0.80877 0.92102 0.0
H1218 H 0.0107 0.75706 0.90545 0.0
H1219 H 0.00464 0.73808 0.92794 0.0
H1220 H 0.0632 0.74308 0.89271 0.0
H1221 H 0.00777 0.83002 0.90466 0.0
H1222 H 0.99487 0.87437 0.91889 0.0
H1223 H 0.08146 0.91312 0.91405 0.0
H1224 H 0.09506 0.8688 0.89995 0.0
H1225 H 0.09029 0.7742 0.82566 0.0
H1226 H 0.06304 0.7725 0.84647 0.0
H1227 H 0.12547 0.83661 0.86658 0.0
H1228 H 0.15182 0.83952 0.84555 0.0
H1229 H 0.0739 0.84541 0.87635 0.0
H1230 H 0.1329 0.75846 0.86814 0.0
H1231 H 0.15028 0.71345 0.85563 0.0
H1232 H 0.06263 0.67387 0.85547 0.0
H1233 H 0.04455 0.71892 0.86781 0.0
C1234 C 0.06587 0.78313 0.93548 0.0
C1235 C 0.04321 0.76208 0.93755 0.0
C1236 C 0.06909 0.79414 0.92259 0.0
C1237 C 0.0498 0.78419 0.91156 0.0
C1238 C 0.0258 0.76501 0.91384 0.0
C1239 C 0.02233 0.75428 0.92674 0.0
C1240 C 0.0574 0.79001 0.89746 0.0
C1241 C 0.06484 0.76542 0.88899 0.0
C1242 C 0.06063 0.81921 0.89287 0.0
C1243 C 0.05251 0.84595 0.90132 0.0
C1244 C 0.02416 0.84787 0.90672 0.0
C1245 C 0.0167 0.87304 0.91474 0.0
C1246 C 0.03735 0.89653 0.91739 0.0
C1247 C 0.06549 0.89491 0.91199 0.0
C1248 C 0.07307 0.86978 0.90397 0.0
C1249 C 0.09778 0.78843 0.83444 0.0
C1250 C 0.12334 0.80676 0.83404 0.0
C1251 C 0.0823 0.78731 0.84636 0.0
C1252 C 0.0927 0.80373 0.85825 0.0
C1253 C 0.11707 0.82357 0.85758 0.0
C1254 C 0.13215 0.82522 0.84555 0.0
C1255 C 0.07988 0.79843 0.87158 0.0
C1256 C 0.0717 0.82304 0.87995 0.0
C1257 C 0.07658 0.7692 0.87627 0.0
C1258 C 0.08726 0.74227 0.86869 0.0
C1259 C 0.11724 0.74031 0.8653 0.0
C1260 C 0.12722 0.71477 0.85827 0.0
C1261 C 0.1075 0.6909 0.8547 0.0
C1262 C 0.07778 0.69249 0.85817 0.0
C1263 C 0.06765 0.71802 0.86516 0.0
H1264 H 0.11529 0.67111 0.84929 0.0
H1265 H 0.03153 0.91599 0.9236 0.0
H1266 H 0.51069 0.54631 0.18386 0.0
H1267 H 0.48191 0.56007 0.16379 0.0
H1268 H 0.47269 0.467 0.15015 0.0
H1269 H 0.50397 0.45336 0.16989 0.0
H1270 H 0.4889 0.49194 0.13084 0.0
H1271 H 0.40973 0.51654 0.15752 0.0
H1272 H 0.38222 0.53633 0.17695 0.0
H1273 H 0.40952 0.62573 0.16896 0.0
H1274 H 0.43758 0.6065 0.14961 0.0
H1275 H 0.41 0.61031 0.08375 0.0
H1276 H 0.40702 0.57589 0.10224 0.0
H1277 H 0.50279 0.56792 0.10371 0.0
H1278 H 0.50576 0.60121 0.0851 0.0
H1279 H 0.42527 0.58087 0.127 0.0
H1280 H 0.52648 0.50196 0.11493 0.0
H1281 H 0.54611 0.47432 0.09525 0.0
H1282 H 0.46295 0.48383 0.0725 0.0
H1283 H 0.4421 0.51012 0.09234 0.0
C1284 C 0.50184 0.5286 0.17682 0.0
C1285 C 0.50987 0.49872 0.17841 0.0
C1286 C 0.48499 0.53652 0.1653 0.0
C1287 C 0.47472 0.51467 0.15532 0.0
C1288 C 0.48048 0.48444 0.15756 0.0
C1289 C 0.49821 0.47658 0.16891 0.0
C1290 C 0.46259 0.52399 0.14179 0.0
C1291 C 0.47469 0.51117 0.13002 0.0
C1292 C 0.44274 0.54812 0.14046 0.0
C1293 C 0.42584 0.56 0.15209 0.0
C1294 C 0.41002 0.54041 0.15994 0.0
C1295 C 0.39431 0.55154 0.17094 0.0
C1296 C 0.39413 0.58227 0.17419 0.0
C1297 C 0.40964 0.60193 0.16642 0.0
C1298 C 0.4254 0.59093 0.15541 0.0
C1299 C 0.43033 0.60079 0.08788 0.0
C1300 C 0.45811 0.60848 0.08293 0.0
C1301 C 0.42861 0.58119 0.09848 0.0
C1302 C 0.45462 0.56891 0.10431 0.0
C1303 C 0.48227 0.57636 0.09921 0.0
C1304 C 0.48397 0.59567 0.08859 0.0
C1305 C 0.45364 0.55024 0.11639 0.0
C1306 C 0.43895 0.56123 0.12782 0.0
C1307 C 0.4701 0.52362 0.11729 0.0
C1308 C 0.48274 0.50833 0.10516 0.0
C1309 C 0.51223 0.49805 0.10578 0.0
C1310 C 0.52361 0.48258 0.09456 0.0
C1311 C 0.50593 0.4776 0.08255 0.0
C1312 C 0.4767 0.48785 0.08178 0.0
C1313 C 0.46504 0.50296 0.09304 0.0
H1314 H 0.51482 0.46566 0.07387 0.0
H1315 H 0.38196 0.59084 0.18271 0.0
H1316 H 0.61139 0.00636 0.43755 0.0
H1317 H 0.6113 0.97899 0.41557 0.0
H1318 H 0.70289 0.00584 0.41135 0.0
H1319 H 0.703 0.03389 0.43334 0.0
H1320 H 0.67025 0.01937 0.38997 0.0
H1321 H 0.68397 0.93132 0.41309 0.0
H1322 H 0.67701 0.89419 0.43033 0.0
H1323 H 0.58646 0.87859 0.41518 0.0
H1324 H 0.59269 0.91595 0.39797 0.0
H1325 H 0.63986 0.95497 0.32285 0.0
H1326 H 0.6635 0.96467 0.34565 0.0
H1327 H 0.58061 0.94258 0.36341 0.0
H1328 H 0.55727 0.93186 0.34077 0.0
H1329 H 0.62438 0.91984 0.37747 0.0
H1330 H 0.60601 0.01489 0.35806 0.0
H1331 H 0.61053 0.05497 0.34203 0.0
H1332 H 0.70476 0.06182 0.35172 0.0
H1333 H 0.70094 0.02122 0.36758 0.0
C1334 C 0.63177 0.00591 0.43213 0.0
C1335 C 0.65711 0.02253 0.43716 0.0
C1336 C 0.63177 0.99001 0.41957 0.0
C1337 C 0.65718 0.99011 0.41183 0.0
C1338 C 0.68308 0.00534 0.41717 0.0
C1339 C 0.68309 0.02133 0.42975 0.0
C1340 C 0.65496 0.97791 0.39751 0.0
C1341 C 0.66051 0.9975 0.38723 0.0
C1342 C 0.64274 0.94915 0.39392 0.0
C1343 C 0.63879 0.92657 0.40425 0.0
C1344 C 0.6625 0.92013 0.41348 0.0
C1345 C 0.65869 0.89901 0.42325 0.0
C1346 C 0.63131 0.88406 0.42386 0.0
C1347 C 0.60767 0.89017 0.41469 0.0
C1348 C 0.61135 0.91129 0.40491 0.0
C1349 C 0.62673 0.95212 0.33163 0.0
C1350 C 0.59664 0.94282 0.33002 0.0
C1351 C 0.64027 0.95768 0.34465 0.0
C1352 C 0.62376 0.95465 0.35625 0.0
C1353 C 0.59386 0.94494 0.35462 0.0
C1354 C 0.58048 0.93897 0.34166 0.0
C1355 C 0.63692 0.96252 0.37013 0.0
C1356 C 0.63402 0.9418 0.38025 0.0
C1357 C 0.65085 0.99065 0.37365 0.0
C1358 C 0.65329 0.01448 0.36379 0.0
C1359 C 0.62781 0.02449 0.35657 0.0
C1360 C 0.63022 0.04739 0.34754 0.0
C1361 C 0.65796 0.06075 0.34576 0.0
C1362 C 0.68332 0.0513 0.35304 0.0
C1363 C 0.68105 0.02831 0.36203 0.0
H1364 H 0.65976 0.07858 0.33882 0.0
H1365 H 0.62841 0.86771 0.43142 0.0
H1366 H 0.26348 0.19815 0.70138 0.0
H1367 H 0.28859 0.18326 0.68064 0.0
H1368 H 0.23714 0.24683 0.65836 0.0
H1369 H 0.21234 0.26222 0.67897 0.0
H1370 H 0.22909 0.18319 0.65005 0.0
H1371 H 0.30586 0.25888 0.66016 0.0
H1372 H 0.34604 0.28467 0.67444 0.0
H1373 H 0.39593 0.20364 0.67483 0.0
H1374 H 0.35582 0.17723 0.66071 0.0
H1375 H 0.26661 0.1487 0.58443 0.0
H1376 H 0.26306 0.18012 0.60526 0.0
H1377 H 0.33015 0.12774 0.62545 0.0
H1378 H 0.33451 0.09671 0.60443 0.0
H1379 H 0.33315 0.18599 0.6354 0.0
H1380 H 0.25914 0.109 0.62739 0.0
H1381 H 0.21971 0.07922 0.61437 0.0
H1382 H 0.16499 0.1568 0.61228 0.0
H1383 H 0.20445 0.18716 0.62515 0.0
C1384 C 0.25822 0.20967 0.69217 0.0
C1385 C 0.23558 0.23106 0.69179 0.0
C1386 C 0.27265 0.20117 0.68035 0.0
C1387 C 0.26455 0.21387 0.66799 0.0
C1388 C 0.24369 0.23683 0.66783 0.0
C1389 C 0.22954 0.24558 0.67964 0.0
C1390 C 0.27373 0.1999 0.65496 0.0
C1391 C 0.25174 0.18426 0.64673 0.0
C1392 C 0.30356 0.20013 0.65102 0.0
C1393 C 0.32768 0.21599 0.6595 0.0
C1394 C 0.32525 0.24647 0.66341 0.0
C1395 C 0.34806 0.26123 0.67144 0.0
C1396 C 0.37349 0.24578 0.67557 0.0
C1397 C 0.3762 0.21557 0.67164 0.0
C1398 C 0.35345 0.2007 0.66361 0.0
C1399 C 0.28116 0.14433 0.5932 0.0
C1400 C 0.30049 0.11997 0.59289 0.0
C1401 C 0.27911 0.1623 0.6051 0.0
C1402 C 0.29581 0.15579 0.617 0.0
C1403 C 0.31697 0.13306 0.6164 0.0
C1404 C 0.31938 0.11531 0.60439 0.0
C1405 C 0.28825 0.17005 0.6303 0.0
C1406 C 0.31047 0.18524 0.63866 0.0
C1407 C 0.25869 0.16879 0.63463 0.0
C1408 C 0.23485 0.15047 0.62705 0.0
C1409 C 0.23881 0.11978 0.62405 0.0
C1410 C 0.21646 0.10278 0.61672 0.0
C1411 C 0.18991 0.11616 0.61245 0.0
C1412 C 0.18562 0.14653 0.61555 0.0
C1413 C 0.20794 0.16363 0.62286 0.0
H1414 H 0.17263 0.10296 0.60678 0.0
H1415 H 0.39112 0.25725 0.68179 0.0
H1416 H 0.5016 0.49251 0.90112 0.0
H1417 H 0.51426 0.46858 0.92232 0.0
H1418 H 0.58421 0.42025 0.90298 0.0
H1419 H 0.57201 0.44441 0.8817 0.0
H1420 H 0.55267 0.38794 0.92414 0.0
H1421 H 0.60654 0.47907 0.91665 0.0
H1422 H 0.61367 0.53187 0.91146 0.0
H1423 H 0.56012 0.5592 0.94465 0.0
H1424 H 0.55226 0.50644 0.94989 0.0
H1425 H 0.66435 0.3778 0.97864 0.0
H1426 H 0.63152 0.37963 0.95807 0.0
H1427 H 0.57802 0.44566 0.97844 0.0
H1428 H 0.61153 0.44483 0.99872 0.0
H1429 H 0.597 0.46646 0.95673 0.0
H1430 H 0.5505 0.37384 0.9665 0.0
H1431 H 0.5482 0.32092 0.97219 0.0
H1432 H 0.5905 0.29544 0.93533 0.0
H1433 H 0.59345 0.34826 0.92951 0.0
C1434 C 0.51908 0.47611 0.90121 0.0
C1435 C 0.53616 0.47077 0.88977 0.0
C1436 C 0.52624 0.46243 0.91335 0.0
C1437 C 0.55033 0.44292 0.91422 0.0
C1438 C 0.56549 0.43521 0.90248 0.0
C1439 C 0.55858 0.44917 0.89035 0.0
C1440 C 0.56276 0.43488 0.92773 0.0
C1441 C 0.56246 0.40496 0.93132 0.0
C1442 C 0.57519 0.45721 0.93708 0.0
C1443 C 0.57847 0.48882 0.93353 0.0
C1444 C 0.59585 0.4963 0.92269 0.0
C1445 C 0.60014 0.52621 0.91978 0.0
C1446 C 0.5874 0.54885 0.92773 0.0
C1447 C 0.56998 0.54163 0.9385 0.0
C1448 C 0.56558 0.51172 0.94143 0.0
C1449 C 0.64506 0.39202 0.97882 0.0
C1450 C 0.64064 0.41147 0.99017 0.0
C1451 C 0.62619 0.39296 0.96708 0.0
C1452 C 0.60227 0.41288 0.96666 0.0
C1453 C 0.59642 0.43028 0.97847 0.0
C1454 C 0.61557 0.4298 0.99005 0.0
C1455 C 0.5866 0.41938 0.95349 0.0
C1456 C 0.58661 0.44924 0.94982 0.0
C1457 C 0.57413 0.39688 0.94415 0.0
C1458 C 0.57241 0.36508 0.94762 0.0
C1459 C 0.55954 0.35699 0.95966 0.0
C1460 C 0.55808 0.32699 0.9629 0.0
C1461 C 0.56926 0.30484 0.95414 0.0
C1462 C 0.58187 0.31263 0.94211 0.0
C1463 C 0.5834 0.34259 0.93883 0.0
H1464 H 0.5681 0.28163 0.95667 0.0
H1465 H 0.5913 0.57197 0.9256 0.0
H1466 H 0.72029 0.03207 0.15725 0.0
H1467 H 0.74228 0.04101 0.18029 0.0
H1468 H 0.79468 0.11438 0.16703 0.0
H1469 H 0.77224 0.10609 0.14388 0.0
H1470 H 0.82377 0.07551 0.18845 0.0
H1471 H 0.7405 0.13755 0.17856 0.0
H1472 H 0.68988 0.14965 0.16993 0.0
H1473 H 0.65235 0.09003 0.19752 0.0
H1474 H 0.70293 0.07704 0.20611 0.0
H1475 H 0.83888 0.17231 0.24864 0.0
H1476 H 0.83173 0.14861 0.22579 0.0
H1477 H 0.76852 0.08605 0.24047 0.0
H1478 H 0.77557 0.1096 0.26343 0.0
H1479 H 0.7467 0.11599 0.2184 0.0
H1480 H 0.83428 0.06155 0.23069 0.0
H1481 H 0.88621 0.05558 0.23937 0.0
H1482 H 0.91753 0.10715 0.20724 0.0
H1483 H 0.86574 0.11382 0.19847 0.0
C1484 C 0.73708 0.04963 0.15909 0.0
C1485 C 0.74423 0.06866 0.14876 0.0
C1486 C 0.74963 0.05465 0.17229 0.0
C1487 C 0.7699 0.07844 0.17533 0.0
C1488 C 0.77912 0.09585 0.16482 0.0
C1489 C 0.76618 0.09116 0.15164 0.0
C1490 C 0.77779 0.08769 0.18971 0.0
C1491 C 0.80708 0.08454 0.19502 0.0
C1492 C 0.75587 0.09921 0.19823 0.0
C1493 C 0.72545 0.10599 0.19282 0.0
C1494 C 0.72147 0.12662 0.18262 0.0
C1495 C 0.69281 0.13371 0.17777 0.0
C1496 C 0.66794 0.12057 0.18315 0.0
C1497 C 0.67166 0.10011 0.19333 0.0
C1498 C 0.70032 0.09285 0.19819 0.0
C1499 C 0.82372 0.15327 0.24706 0.0
C1500 C 0.80762 0.14298 0.25784 0.0
C1501 C 0.81985 0.13961 0.23401 0.0
C1502 C 0.79976 0.11546 0.23147 0.0
C1503 C 0.78424 0.10459 0.24226 0.0
C1504 C 0.7883 0.11808 0.25536 0.0
C1505 C 0.79273 0.10365 0.21732 0.0
C1506 C 0.76345 0.10649 0.21197 0.0
C1507 C 0.81489 0.09245 0.20877 0.0
C1508 C 0.84608 0.08839 0.21399 0.0
C1509 C 0.85221 0.07184 0.22554 0.0
C1510 C 0.88164 0.06829 0.23046 0.0
C1511 C 0.90515 0.08103 0.22387 0.0
C1512 C 0.89929 0.09731 0.21233 0.0
C1513 C 0.8699 0.10094 0.20737 0.0
H1514 H 0.92792 0.07826 0.2277 0.0
H1515 H 0.64581 0.12651 0.17948 0.0
H1516 H 0.24986 0.21095 0.41138 0.0
H1517 H 0.23723 0.23032 0.43392 0.0
H1518 H 0.17171 0.2875 0.41574 0.0
H1519 H 0.18368 0.26769 0.39304 0.0
H1520 H 0.20562 0.31129 0.44195 0.0
H1521 H 0.14661 0.22834 0.42126 0.0
H1522 H 0.13873 0.17838 0.40988 0.0
H1523 H 0.18134 0.13832 0.44429 0.0
H1524 H 0.191 0.18822 0.45558 0.0
H1525 H 0.10134 0.32154 0.49493 0.0
H1526 H 0.12903 0.31926 0.47415 0.0
H1527 H 0.17432 0.24092 0.48767 0.0
H1528 H 0.14583 0.24244 0.50813 0.0
H1529 H 0.15217 0.22991 0.46352 0.0
H1530 H 0.21007 0.31181 0.48487 0.0
H1531 H 0.21867 0.36153 0.49646 0.0
H1532 H 0.17772 0.40298 0.46202 0.0
H1533 H 0.16852 0.35346 0.45028 0.0
C1534 C 0.2335 0.22842 0.41209 0.0
C1535 C 0.21743 0.23747 0.4004 0.0
C1536 C 0.2263 0.23943 0.42501 0.0
C1537 C 0.20332 0.26003 0.42646 0.0
C1538 C 0.18953 0.27159 0.4148 0.0
C1539 C 0.19634 0.26019 0.40185 0.0
C1540 C 0.19046 0.26543 0.43989 0.0
C1541 C 0.19374 0.29366 0.44669 0.0
C1542 C 0.17535 0.24219 0.44607 0.0
C1543 C 0.17009 0.21214 0.43915 0.0
C1544 C 0.15495 0.20897 0.42628 0.0
C1545 C 0.15016 0.18063 0.41984 0.0
C1546 C 0.15982 0.1552 0.4263 0.0
C1547 C 0.17426 0.15807 0.43922 0.0
C1548 C 0.17952 0.18639 0.44561 0.0
C1549 C 0.11766 0.30422 0.49358 0.0
C1550 C 0.12127 0.28203 0.5031 0.0
C1551 C 0.13359 0.30299 0.48171 0.0
C1552 C 0.15388 0.27993 0.47931 0.0
C1553 C 0.15868 0.25882 0.48922 0.0
C1554 C 0.14242 0.25973 0.50094 0.0
C1555 C 0.16774 0.27575 0.46594 0.0
C1556 C 0.16435 0.24763 0.45899 0.0
C1557 C 0.18281 0.29908 0.45972 0.0
C1558 C 0.18836 0.32889 0.46675 0.0
C1559 C 0.20269 0.33151 0.47981 0.0
C1560 C 0.20771 0.35966 0.48639 0.0
C1561 C 0.19868 0.38539 0.47999 0.0
C1562 C 0.18467 0.38303 0.46697 0.0
C1563 C 0.17958 0.35492 0.46034 0.0
H1564 H 0.20259 0.40717 0.48511 0.0
H1565 H 0.15597 0.13326 0.42133 0.0
H1566 H 0.97813 0.63707 0.64191 0.0
H1567 H 0.94873 0.62992 0.66143 0.0
H1568 H 0.92818 0.72386 0.66359 0.0
H1569 H 0.9591 0.73146 0.64421 0.0
H1570 H 0.9455 0.71057 0.68696 0.0
H1571 H 0.87168 0.66673 0.65723 0.0
H1572 H 0.84864 0.6362 0.63784 0.0
H1573 H 0.87945 0.55622 0.65582 0.0
H1574 H 0.90308 0.58623 0.67523 0.0
H1575 H 0.87197 0.60366 0.7388 0.0
H1576 H 0.86669 0.63129 0.71792 0.0
H1577 H 0.96173 0.64822 0.71992 0.0
H1578 H 0.96694 0.6218 0.74074 0.0
H1579 H 0.8863 0.61899 0.69432 0.0
H1580 H 0.98256 0.70857 0.70651 0.0
H1581 H 0.00029 0.74242 0.72586 0.0
H1582 H 0.91414 0.73784 0.7427 0.0
H1583 H 0.8957 0.70433 0.72336 0.0
C1584 C 0.96691 0.6562 0.64631 0.0
C1585 C 0.97127 0.68492 0.64157 0.0
C1586 C 0.94971 0.65199 0.65746 0.0
C1587 C 0.9358 0.67626 0.66399 0.0
C1588 C 0.93863 0.70474 0.65875 0.0
C1589 C 0.95625 0.70906 0.64765 0.0
C1590 C 0.92218 0.67214 0.67726 0.0
C1591 C 0.93212 0.69082 0.68852 0.0
C1592 C 0.90348 0.64719 0.67934 0.0
C1593 C 0.88919 0.62882 0.66772 0.0
C1594 C 0.87368 0.64264 0.65703 0.0
C1595 C 0.8605 0.62541 0.64603 0.0
C1596 C 0.86258 0.59429 0.6456 0.0
C1597 C 0.87781 0.58033 0.65618 0.0
C1598 C 0.89104 0.59744 0.66721 0.0
C1599 C 0.8916 0.61383 0.7349 0.0
C1600 C 0.91987 0.61053 0.74143 0.0
C1601 C 0.88856 0.62955 0.72296 0.0
C1602 C 0.91373 0.6423 0.71742 0.0
C1603 C 0.9418 0.63942 0.72414 0.0
C1604 C 0.9448 0.62398 0.73603 0.0
C1605 C 0.91179 0.65605 0.70397 0.0
C1606 C 0.89884 0.63926 0.6927 0.0
C1607 C 0.9268 0.68332 0.70186 0.0
C1608 C 0.93774 0.70385 0.71346 0.0
C1609 C 0.96729 0.71497 0.71427 0.0
C1610 C 0.97749 0.73405 0.72526 0.0
C1611 C 0.95836 0.74225 0.73551 0.0
C1612 C 0.92896 0.73142 0.73477 0.0
C1613 C 0.91863 0.71235 0.7238 0.0
H1614 H 0.96632 0.75701 0.74401 0.0
H1615 H 0.85237 0.58099 0.63707 0.0
H1616 H 0.60002 0.13617 0.42066 0.0
H1617 H 0.61039 0.15058 0.39768 0.0
H1618 H 0.70098 0.17391 0.41139 0.0
H1619 H 0.69035 0.16133 0.43435 0.0
H1620 H 0.68603 0.20732 0.39199 0.0
H1621 H 0.67653 0.10153 0.39927 0.0
H1622 H 0.64764 0.05811 0.40613 0.0
H1623 H 0.58353 0.06887 0.37295 0.0
H1624 H 0.61135 0.11326 0.36626 0.0
H1625 H 0.75675 0.11796 0.33374 0.0
H1626 H 0.72572 0.11888 0.35334 0.0
H1627 H 0.69165 0.20459 0.34258 0.0
H1628 H 0.72368 0.20433 0.3232 0.0
H1629 H 0.67044 0.12049 0.35892 0.0
H1630 H 0.68102 0.24748 0.37114 0.0
H1631 H 0.71446 0.28996 0.36704 0.0
H1632 H 0.78803 0.23034 0.36367 0.0
H1633 H 0.7551 0.1876 0.36791 0.0
C1634 C 0.62185 0.14528 0.41885 0.0
C1635 C 0.64452 0.14703 0.42927 0.0
C1636 C 0.6278 0.15337 0.40569 0.0
C1637 C 0.65676 0.16239 0.40268 0.0
C1638 C 0.67852 0.1668 0.41338 0.0
C1639 C 0.67241 0.15943 0.42655 0.0
C1640 C 0.66585 0.16352 0.38839 0.0
C1641 C 0.68222 0.1885 0.38469 0.0
C1642 C 0.66147 0.13871 0.37891 0.0
C1643 C 0.6458 0.11094 0.38238 0.0
C1644 C 0.65621 0.0947 0.39346 0.0
C1645 C 0.63992 0.07004 0.39737 0.0
C1646 C 0.61378 0.06069 0.38997 0.0
C1647 C 0.60374 0.07619 0.37871 0.0
C1648 C 0.61968 0.1012 0.37488 0.0
C1649 C 0.74241 0.13688 0.33544 0.0
C1650 C 0.74301 0.16128 0.32703 0.0
C1651 C 0.72454 0.13731 0.34664 0.0
C1652 C 0.70671 0.16205 0.34963 0.0
C1653 C 0.70572 0.18555 0.34069 0.0
C1654 C 0.72396 0.18533 0.32958 0.0
C1655 C 0.69119 0.16401 0.36264 0.0
C1656 C 0.67362 0.13959 0.36608 0.0
C1657 C 0.69547 0.18882 0.3721 0.0
C1658 C 0.71551 0.21436 0.36966 0.0
C1659 C 0.70434 0.24348 0.36955 0.0
C1660 C 0.7232 0.26759 0.3672 0.0
C1661 C 0.75332 0.26284 0.36503 0.0
C1662 C 0.76468 0.23398 0.36528 0.0
C1663 C 0.74592 0.20981 0.36765 0.0
H1664 H 0.76787 0.28152 0.3632 0.0
H1665 H 0.60139 0.04138 0.39294 0.0
H1666 H 0.08317 0.25644 0.68885 0.0
H1667 H 0.06988 0.26158 0.66476 0.0
H1668 H 0.12671 0.18803 0.65423 0.0
H1669 H 0.1404 0.1829 0.67835 0.0
H1670 H 0.13902 0.23665 0.64033 0.0
H1671 H 0.05133 0.18079 0.64945 0.0
H1672 H 0.00674 0.16852 0.66181 0.0
H1673 H 0.96925 0.25336 0.65283 0.0
H1674 H 0.01381 0.26633 0.64057 0.0
H1675 H 0.09901 0.23812 0.56955 0.0
H1676 H 0.1071 0.22294 0.59293 0.0
H1677 H 0.04962 0.2931 0.60697 0.0
H1678 H 0.04096 0.30807 0.58364 0.0
H1679 H 0.03723 0.24212 0.61862 0.0
H1680 H 0.12621 0.30024 0.61178 0.0
H1681 H 0.1712 0.31392 0.59996 0.0
H1682 H 0.20589 0.22611 0.60504 0.0
H1683 H 0.16076 0.21193 0.61672 0.0
C1684 C 0.0924 0.24094 0.68144 0.0
C1685 C 0.11293 0.21934 0.68552 0.0
C1686 C 0.08469 0.24386 0.66766 0.0
C1687 C 0.09726 0.22515 0.6577 0.0
C1688 C 0.11677 0.2027 0.66177 0.0
C1689 C 0.12441 0.19969 0.67556 0.0
C1690 C 0.09202 0.23078 0.64306 0.0
C1691 C 0.11677 0.23727 0.63551 0.0
C1692 C 0.06297 0.23243 0.63689 0.0
C1693 C 0.03604 0.22462 0.64418 0.0
C1694 C 0.03368 0.19692 0.65019 0.0
C1695 C 0.00838 0.18982 0.65717 0.0
C1696 C 0.98521 0.21017 0.65813 0.0
C1697 C 0.98724 0.23763 0.65209 0.0
C1698 C 0.01249 0.24485 0.64511 0.0
C1699 C 0.0882 0.25042 0.57761 0.0
C1700 C 0.0694 0.27437 0.57471 0.0
C1701 C 0.09288 0.24174 0.59098 0.0
C1702 C 0.07913 0.25703 0.60171 0.0
C1703 C 0.06039 0.28093 0.59885 0.0
C1704 C 0.05559 0.28954 0.58549 0.0
C1705 C 0.08422 0.24818 0.61595 0.0
C1706 C 0.05946 0.2412 0.62342 0.0
C1707 C 0.11323 0.24631 0.62211 0.0
C1708 C 0.14018 0.25494 0.61505 0.0
C1709 C 0.14337 0.28382 0.6103 0.0
C1710 C 0.16887 0.29168 0.60363 0.0
C1711 C 0.19139 0.27089 0.60174 0.0
C1712 C 0.18846 0.2422 0.60652 0.0
C1713 C 0.16297 0.23426 0.61317 0.0
H1714 H 0.21112 0.27702 0.59658 0.0
H1715 H 0.96565 0.20463 0.66354 0.0
H1716 H 0.03153 0.61339 0.92333 0.0
H1717 H 0.0185 0.59693 0.89975 0.0
H1718 H 0.0646 0.67394 0.8859 0.0
H1719 H 0.07744 0.69083 0.90948 0.0
H1720 H 0.00864 0.66816 0.87447 0.0
H1721 H 0.09228 0.60514 0.87992 0.0
H1722 H 0.12487 0.56893 0.89113 0.0
H1723 H 0.0538 0.50335 0.88777 0.0
H1724 H 0.02062 0.5393 0.87671 0.0
H1725 H 0.9772 0.61388 0.80528 0.0
H1726 H 0.00315 0.63201 0.82665 0.0
H1727 H 0.96267 0.56073 0.84752 0.0
H1728 H 0.93684 0.54233 0.82626 0.0
H1729 H 0.02231 0.56621 0.85385 0.0
H1730 H 0.93733 0.63108 0.85143 0.0
H1731 H 0.90385 0.66718 0.84065 0.0
H1732 H 0.97733 0.72892 0.83848 0.0
H1733 H 0.01127 0.69297 0.84903 0.0
C1734 C 0.03941 0.62654 0.91527 0.0
C1735 C 0.05549 0.65342 0.91829 0.0
C1736 C 0.03201 0.61706 0.90178 0.0
C1737 C 0.04066 0.63418 0.89106 0.0
C1738 C 0.05769 0.66043 0.89402 0.0
C1739 C 0.06518 0.66992 0.90751 0.0
C1740 C 0.02982 0.62574 0.87689 0.0
C1741 C 0.01216 0.64608 0.86983 0.0
C1742 C 0.034 0.59678 0.87095 0.0
C1743 C 0.0539 0.57501 0.87756 0.0
C1744 C 0.08352 0.58307 0.88166 0.0
C1745 C 0.10212 0.56257 0.88797 0.0
C1746 C 0.0914 0.53388 0.89018 0.0
C1747 C 0.06207 0.52559 0.88605 0.0
C1748 C 0.04337 0.54601 0.87974 0.0
C1749 C 0.97368 0.60213 0.81444 0.0
C1750 C 0.9549 0.57664 0.81406 0.0
C1751 C 0.98852 0.61257 0.82663 0.0
C1752 C 0.98477 0.59775 0.83866 0.0
C1753 C 0.96595 0.57243 0.83833 0.0
C1754 C 0.95107 0.56201 0.82617 0.0
C1755 C 0.00058 0.60835 0.85162 0.0
C1756 C 0.01918 0.58842 0.85842 0.0
C1757 C 0.99725 0.63765 0.85733 0.0
C1758 C 0.97689 0.65925 0.85093 0.0
C1759 C 0.94638 0.65227 0.84855 0.0
C1760 C 0.9273 0.67271 0.8425 0.0
C1761 C 0.93846 0.7003 0.83886 0.0
C1762 C 0.96871 0.70753 0.84129 0.0
C1763 C 0.98787 0.68714 0.84732 0.0
H1764 H 0.92366 0.71611 0.83417 0.0
H1765 H 0.10583 0.51805 0.89507 0.0
H1766 H 0.65368 0.4432 0.17231 0.0
H1767 H 0.6714 0.43629 0.14935 0.0
H1768 H 0.64198 0.52463 0.14022 0.0
H1769 H 0.62397 0.53169 0.16317 0.0
H1770 H 0.6237 0.48304 0.12033 0.0
H1771 H 0.7152 0.51174 0.14485 0.0
H1772 H 0.75472 0.50988 0.1631 0.0
H1773 H 0.77313 0.41924 0.15031 0.0
H1774 H 0.73341 0.4204 0.13209 0.0
H1775 H 0.68596 0.47691 0.05572 0.0
H1776 H 0.67461 0.49257 0.07899 0.0
H1777 H 0.71138 0.41067 0.09334 0.0
H1778 H 0.72451 0.39592 0.07018 0.0
H1779 H 0.72686 0.45354 0.11063 0.0
H1780 H 0.63156 0.42302 0.08792 0.0
H1781 H 0.59332 0.42505 0.06909 0.0
H1782 H 0.58288 0.51896 0.07826 0.0
H1783 H 0.62104 0.51745 0.09716 0.0
C1784 C 0.65121 0.46129 0.16547 0.0
C1785 C 0.63743 0.488 0.16958 0.0
C1786 C 0.66144 0.45733 0.15236 0.0
C1787 C 0.65818 0.48003 0.14311 0.0
C1788 C 0.64473 0.50685 0.14721 0.0
C1789 C 0.63458 0.51088 0.16035 0.0
C1790 C 0.66776 0.4752 0.129 0.0
C1791 C 0.64637 0.47701 0.11819 0.0
C1792 C 0.69719 0.46686 0.12624 0.0
C1793 C 0.72114 0.46609 0.13717 0.0
C1794 C 0.7275 0.49133 0.14599 0.0
C1795 C 0.74998 0.49042 0.15632 0.0
C1796 C 0.76638 0.46444 0.15788 0.0
C1797 C 0.76039 0.43934 0.14909 0.0
C1798 C 0.73792 0.44012 0.13875 0.0
C1799 C 0.69162 0.46231 0.06386 0.0
C1800 C 0.70587 0.43512 0.06117 0.0
C1801 C 0.685 0.47119 0.07715 0.0
C1802 C 0.69144 0.45248 0.08791 0.0
C1803 C 0.70609 0.42548 0.08523 0.0
C1804 C 0.71349 0.417 0.07199 0.0
C1805 C 0.68267 0.46073 0.10195 0.0
C1806 C 0.70421 0.45963 0.11276 0.0
C1807 C 0.65334 0.46958 0.10473 0.0
C1808 C 0.62927 0.47016 0.09387 0.0
C1809 C 0.62105 0.44408 0.08592 0.0
C1810 C 0.59944 0.44515 0.07523 0.0
C1811 C 0.58585 0.47217 0.07241 0.0
C1812 C 0.59357 0.4981 0.0804 0.0
C1813 C 0.61504 0.49711 0.09115 0.0
H1814 H 0.56921 0.47298 0.0641 0.0
H1815 H 0.78377 0.46378 0.16588 0.0
loop_
_geom_bond_atom_site_label_1
_geom_bond_atom_site_label_2
_geom_bond_distance
_geom_bond_site_symmetry_2
_ccdc_geom_bond_type
Mg0 O7 2.141 . S
Mg0 O8 2.048 . S
Mg0 O9 2.048 . S
Mg0 O12 2.141 . S
C1 O2 1.313 . S
C1 O8 1.195 . S
O2 C1 1.313 . S
C3 O4 1.245 . S
C3 O12 1.289 . S
O4 C3 1.245 . S
C5 O6 1.245 . S
C5 O7 1.289 . S
O6 C5 1.245 . S
O7 Mg0 2.141 . S
O7 C5 1.289 . S
O8 Mg0 2.048 . S
O8 C1 1.195 . S
O9 Mg0 2.048 . S
O9 C10 1.195 . S
C10 O9 1.195 . S
C10 O11 1.313 . S
O11 C10 1.313 . S
O12 Mg0 2.141 . S
O12 C3 1.289 . S
Mg13 O20 2.141 . S
Mg13 O21 2.048 . S
Mg13 O22 2.048 . S
Mg13 O25 2.141 . S
C14 O15 1.313 . S
C14 O21 1.195 . S
O15 C14 1.313 . S
C16 O17 1.245 . S
C16 O25 1.289 . S
O17 C16 1.245 . S
C18 O19 1.245 . S
C18 O20 1.289 . S
O19 C18 1.245 . S
O20 Mg13 2.141 . S
O20 C18 1.289 . S
O21 Mg13 2.048 . S
O21 C14 1.195 . S
O22 Mg13 2.048 . S
O22 C23 1.195 . S
C23 O22 1.195 . S
C23 O24 1.313 . S
O24 C23 1.313 . S
O25 Mg13 2.141 . S
O25 C16 1.289 . S
Mg26 O33 2.141 . S
Mg26 O34 2.048 . S
Mg26 O35 2.048 . S
Mg26 O38 2.141 . S
C27 O28 1.313 . S
C27 O34 1.195 . S
O28 C27 1.313 . S
C29 O30 1.245 . S
C29 O38 1.289 . S
O30 C29 1.245 . S
C31 O32 1.245 . S
C31 O33 1.289 . S
O32 C31 1.245 . S
O33 Mg26 2.141 . S
O33 C31 1.289 . S
O34 Mg26 2.048 . S
O34 C27 1.195 . S
O35 Mg26 2.048 . S
O35 C36 1.195 . S
C36 O35 1.195 . S
C36 O37 1.313 . S
O37 C36 1.313 . S
O38 Mg26 2.141 . S
O38 C29 1.289 . S
Mg39 O46 2.141 . S
Mg39 O47 2.048 . S
Mg39 O48 2.048 1_545 S
Mg39 O51 2.141 1_545 S
C40 O41 1.313 . S
C40 O47 1.195 . S
O41 C40 1.313 . S
C42 O43 1.245 . S
C42 O51 1.289 . S
O43 C42 1.245 . S
C44 O45 1.245 . S
C44 O46 1.289 . S
O45 C44 1.245 . S
O46 Mg39 2.141 . S
O46 C44 1.289 . S
O47 Mg39 2.048 . S
O47 C40 1.195 . S
O48 Mg39 2.048 1_565 S
O48 C49 1.195 . S
C49 O48 1.195 . S
C49 O50 1.313 . S
O50 C49 1.313 . S
O51 Mg39 2.141 1_565 S
O51 C42 1.289 . S
Mg52 O59 2.141 . S
Mg52 O60 2.048 . S
Mg52 O61 2.048 1_455 S
Mg52 O64 2.141 1_455 S
C53 O54 1.313 . S
C53 O60 1.195 . S
O54 C53 1.313 . S
C55 O56 1.245 . S
C55 O64 1.289 . S
O56 C55 1.245 . S
C57 O58 1.245 . S
C57 O59 1.289 . S
O58 C57 1.245 . S
O59 Mg52 2.141 . S
O59 C57 1.289 . S
O60 Mg52 2.048 . S
O60 C53 1.195 . S
O61 Mg52 2.048 1_655 S
O61 C62 1.195 . S
C62 O61 1.195 . S
C62 O63 1.313 . S
O63 C62 1.313 . S
O64 Mg52 2.141 1_655 S
O64 C55 1.289 . S
Mg65 O72 2.141 . S
Mg65 O73 2.048 . S
Mg65 O74 2.048 . S
Mg65 O77 2.141 . S
C66 O67 1.313 . S
C66 O73 1.195 . S
O67 C66 1.313 . S
C68 O69 1.245 . S
C68 O77 1.289 . S
O69 C68 1.245 . S
C70 O71 1.245 . S
C70 O72 1.289 . S
O71 C70 1.245 . S
O72 Mg65 2.141 . S
O72 C70 1.289 . S
O73 Mg65 2.048 . S
O73 C66 1.195 . S
O74 Mg65 2.048 . S
O74 C75 1.195 . S
C75 O74 1.195 . S
C75 O76 1.313 . S
O76 C75 1.313 . S
O77 Mg65 2.141 . S
O77 C68 1.289 . S
Mg78 O85 2.141 . S
Mg78 O86 2.048 . S
Mg78 O87 2.030 1_545 S
Mg78 O90 2.141 . S
C79 O80 1.313 . S
C79 O86 1.195 . S
O80 C79 1.313 . S
C81 O82 1.245 . S
C81 O90 1.289 . S
O82 C81 1.245 . S
C83 O84 1.245 . S
C83 O85 1.289 . S
O84 C83 1.245 . S
O85 Mg78 2.141 . S
O85 C83 1.289 . S
O86 Mg78 2.048 . S
O86 C79 1.195 . S
O87 Mg78 2.030 1_565 S
O87 C88 1.189 1_565 S
C88 O87 1.189 1_545 S
C88 O89 1.313 . S
O89 C88 1.313 . S
O90 Mg78 2.141 . S
O90 C81 1.289 . S
Mg91 O98 2.141 . S
Mg91 O99 2.048 . S
Mg91 O100 2.048 . S
Mg91 O103 2.141 . S
C92 O93 1.313 . S
C92 O99 1.195 . S
O93 C92 1.313 . S
C94 O95 1.245 . S
C94 O103 1.289 . S
O95 C94 1.245 . S
C96 O97 1.245 . S
C96 O98 1.289 . S
O97 C96 1.245 . S
O98 Mg91 2.141 . S
O98 C96 1.289 . S
O99 Mg91 2.048 . S
O99 C92 1.195 . S
O100 Mg91 2.048 . S
O100 C101 1.195 . S
C101 O100 1.195 . S
C101 O102 1.313 . S
O102 C101 1.313 . S
O103 Mg91 2.141 . S
O103 C94 1.289 . S
O104 Cd105 2.223 . S
O104 C112 1.315 . S
Cd105 O104 2.223 . S
Cd105 O108 2.297 . S
Cd105 O109 2.439 . S
Cd105 O115 2.240 . S
Cd106 O107 2.240 . S
Cd106 O114 2.223 . S
Cd106 O116 2.297 . S
Cd106 O117 2.439 . S
O107 Cd106 2.240 . S
O107 C112 1.279 . S
O108 Cd105 2.297 . S
O108 C110 1.247 . S
O109 Cd105 2.439 . S
O109 C110 1.208 . S
C110 O108 1.247 . S
C110 O109 1.208 . S
C111 O116 1.247 . S
C111 O117 1.208 . S
C112 O104 1.315 . S
C112 O107 1.279 . S
C113 O114 1.315 . S
C113 O115 1.279 . S
O114 Cd106 2.223 . S
O114 C113 1.315 . S
O115 Cd105 2.240 . S
O115 C113 1.279 . S
O116 Cd106 2.297 . S
O116 C111 1.247 . S
O117 Cd106 2.439 . S
O117 C111 1.208 . S
O118 Cd119 2.223 . S
O118 C126 1.315 . S
Cd119 O118 2.223 . S
Cd119 O122 2.297 . S
Cd119 O123 2.439 . S
Cd119 O129 2.240 . S
Cd120 O121 2.240 . S
Cd120 O128 2.223 . S
Cd120 O130 2.297 . S
Cd120 O131 2.439 . S
O121 Cd120 2.240 . S
O121 C126 1.279 . S
O122 Cd119 2.297 . S
O122 C124 1.247 . S
O123 Cd119 2.439 . S
O123 C124 1.208 . S
C124 O122 1.247 . S
C124 O123 1.208 . S
C125 O130 1.247 . S
C125 O131 1.208 . S
C126 O118 1.315 . S
C126 O121 1.279 . S
C127 O128 1.315 . S
C127 O129 1.279 . S
O128 Cd120 2.223 . S
O128 C127 1.315 . S
O129 Cd119 2.240 . S
O129 C127 1.279 . S
O130 Cd120 2.297 . S
O130 C125 1.247 . S
O131 Cd120 2.439 . S
O131 C125 1.208 . S
O132 Cd133 2.223 . S
O132 C140 1.315 . S
Cd133 O132 2.223 . S
Cd133 O136 2.297 . S
Cd133 O137 2.439 1_565 S
Cd133 O143 2.240 . S
Cd134 O135 2.240 . S
Cd134 O142 2.223 1_545 S
Cd134 O144 2.297 . S
Cd134 O145 2.439 . S
O135 Cd134 2.240 . S
O135 C140 1.279 1_545 S
O136 Cd133 2.297 . S
O136 C138 1.247 . S
O137 Cd133 2.439 1_545 S
O137 C138 1.208 1_545 S
C138 O136 1.247 . S
C138 O137 1.208 1_565 S
C139 O144 1.247 . S
C139 O145 1.208 . S
C140 O132 1.315 . S
C140 O135 1.279 1_565 S
C141 O142 1.315 . S
C141 O143 1.279 . S
O142 Cd134 2.223 1_565 S
O142 C141 1.315 . S
O143 Cd133 2.240 . S
O143 C141 1.279 . S
O144 Cd134 2.297 . S
O144 C139 1.247 . S
O145 Cd134 2.439 . S
O145 C139 1.208 . S
O146 Cd147 2.223 . S
O146 C154 1.315 . S
Cd147 O146 2.223 . S
Cd147 O150 2.297 . S
Cd147 O151 2.439 . S
Cd147 O157 2.240 . S
Cd148 O149 2.240 . S
Cd148 O156 2.223 . S
Cd148 O158 2.297 . S
Cd148 O159 2.439 . S
O149 Cd148 2.240 . S
O149 C154 1.279 . S
O150 Cd147 2.297 . S
O150 C152 1.247 . S
O151 Cd147 2.439 . S
O151 C152 1.208 . S
C152 O150 1.247 . S
C152 O151 1.208 . S
C153 O158 1.247 . S
C153 O159 1.208 . S
C154 O146 1.315 . S
C154 O149 1.279 . S
C155 O156 1.315 . S
C155 O157 1.279 . S
O156 Cd148 2.223 . S
O156 C155 1.315 . S
O157 Cd147 2.240 . S
O157 C155 1.279 . S
O158 Cd148 2.297 . S
O158 C153 1.247 . S
O159 Cd148 2.439 . S
O159 C153 1.208 . S
O160 Cd161 2.223 . S
O160 C168 1.315 1_655 S
Cd161 O160 2.223 . S
Cd161 O164 2.297 . S
Cd161 O165 2.439 1_655 S
Cd161 O171 2.240 . S
Cd162 O163 2.240 . S
Cd162 O170 2.223 1_455 S
Cd162 O172 2.297 . S
Cd162 O173 2.439 . S
O163 Cd162 2.240 . S
O163 C168 1.279 . S
O164 Cd161 2.297 . S
O164 C166 1.236 1_655 S
O165 Cd161 2.439 1_455 S
O165 C166 1.214 . S
C166 O164 1.236 1_455 S
C166 O165 1.214 . S
C167 O172 1.247 . S
C167 O173 1.208 . S
C168 O160 1.315 1_455 S
C168 O163 1.279 . S
C169 O170 1.315 . S
C169 O171 1.279 . S
O170 Cd162 2.223 1_655 S
O170 C169 1.315 . S
O171 Cd161 2.240 . S
O171 C169 1.279 . S
O172 Cd162 2.297 . S
O172 C167 1.247 . S
O173 Cd162 2.439 . S
O173 C167 1.208 . S
O174 Cd175 2.223 . S
O174 C182 1.315 . S
Cd175 O174 2.223 . S
Cd175 O178 2.297 . S
Cd175 O179 2.439 . S
Cd175 O185 2.240 . S
Cd176 O177 2.240 . S
Cd176 O184 2.223 . S
Cd176 O186 2.297 . S
Cd176 O187 2.439 . S
O177 Cd176 2.240 . S
O177 C182 1.279 . S
O178 Cd175 2.297 . S
O178 C180 1.247 . S
O179 Cd175 2.439 . S
O179 C180 1.208 . S
C180 O178 1.247 . S
C180 O179 1.208 . S
C181 O186 1.247 . S
C181 O187 1.208 . S
C182 O174 1.315 . S
C182 O177 1.279 . S
C183 O184 1.315 . S
C183 O185 1.279 . S
O184 Cd176 2.223 . S
O184 C183 1.315 . S
O185 Cd175 2.240 . S
O185 C183 1.279 . S
O186 Cd176 2.297 . S
O186 C181 1.247 . S
O187 Cd176 2.439 . S
O187 C181 1.208 . S
O188 Cd189 2.223 . S
O188 C196 1.315 . S
Cd189 O188 2.223 . S
Cd189 O192 2.297 . S
Cd189 O193 2.439 . S
Cd189 O199 2.240 . S
Cd190 O191 2.240 . S
Cd190 O198 2.223 . S
Cd190 O200 2.297 1_554 S
Cd190 O201 2.439 1_554 S
O191 Cd190 2.240 . S
O191 C196 1.279 . S
O192 Cd189 2.297 . S
O192 C194 1.247 . S
O193 Cd189 2.439 . S
O193 C194 1.208 . S
C194 O192 1.247 . S
C194 O193 1.208 . S
C195 O200 1.247 . S
C195 O201 1.208 . S
C196 O188 1.315 . S
C196 O191 1.279 . S
C197 O198 1.315 . S
C197 O199 1.279 . S
O198 Cd190 2.223 . S
O198 C197 1.315 . S
O199 Cd189 2.240 . S
O199 C197 1.279 . S
O200 Cd190 2.297 1_556 S
O200 C195 1.247 . S
O201 Cd190 2.439 1_556 S
O201 C195 1.208 . S
O202 Cd203 2.223 . S
O202 C210 1.315 . S
Cd203 O202 2.223 . S
Cd203 O206 2.297 . S
Cd203 O207 2.439 . S
Cd203 O213 2.240 . S
Cd204 O205 2.240 . S
Cd204 O212 2.223 . S
Cd204 O214 2.297 . S
Cd204 O215 2.439 . S
O205 Cd204 2.240 . S
O205 C210 1.279 . S
O206 Cd203 2.297 . S
O206 C208 1.247 . S
O207 Cd203 2.439 . S
O207 C208 1.208 . S
C208 O206 1.247 . S
C208 O207 1.208 . S
C209 O214 1.247 . S
C209 O215 1.208 . S
C210 O202 1.315 . S
C210 O205 1.279 . S
C211 O212 1.315 . S
C211 O213 1.279 . S
O212 Cd204 2.223 . S
O212 C211 1.315 . S
O213 Cd203 2.240 . S
O213 C211 1.279 . S
O214 Cd204 2.297 . S
O214 C209 1.247 . S
O215 Cd204 2.439 . S
O215 C209 1.208 . S
H216 C234 0.951 . S
H217 C236 0.951 . S
H218 C238 0.950 . S
H219 C239 0.950 . S
H220 C241 0.950 . S
H221 C244 0.950 . S
H222 C245 0.950 . S
H223 C247 0.950 . S
H224 C248 0.950 . S
H225 C249 0.951 . S
H226 C251 0.951 . S
H227 C253 0.950 . S
H228 C254 0.950 . S
H229 C256 0.950 . S
H230 C259 0.950 . S
H231 C260 0.950 . S
H232 C262 0.950 . S
H233 C263 0.950 . S
C234 H216 0.951 . S
C234 C235 1.366 . S
C234 C236 1.388 . S
C235 C234 1.366 . S
C235 C239 1.385 . S
C236 H217 0.951 . S
C236 C234 1.388 . S
C236 C237 1.366 . S
C237 C236 1.366 . S
C237 C238 1.414 . S
C237 C240 1.499 . S
C238 H218 0.950 . S
C238 C237 1.414 . S
C238 C239 1.374 . S
C239 H219 0.950 . S
C239 C235 1.385 . S
C239 C238 1.374 . S
C240 C237 1.499 . S
C240 C241 1.373 1_545 S
C240 C242 1.389 . S
C241 H220 0.950 . S
C241 C240 1.373 1_565 S
C241 C257 1.377 . S
C242 C240 1.389 . S
C242 C243 1.524 . S
C242 C256 1.377 . S
C243 C242 1.524 . S
C243 C244 1.397 . S
C243 C248 1.363 . S
C244 H221 0.950 . S
C244 C243 1.397 . S
C244 C245 1.334 . S
C245 H222 0.950 . S
C245 C244 1.334 . S
C245 C246 1.287 . S
C246 C245 1.287 . S
C246 C247 1.524 . S
C246 H265 0.913 . S
C247 H223 0.950 . S
C247 C246 1.524 . S
C247 C248 1.415 . S
C248 H224 0.950 . S
C248 C243 1.363 . S
C248 C247 1.415 . S
C249 H225 0.951 . S
C249 C250 1.366 . S
C249 C251 1.388 . S
C250 C249 1.366 . S
C250 C254 1.385 . S
C251 H226 0.951 . S
C251 C249 1.388 . S
C251 C252 1.366 . S
C252 C251 1.366 . S
C252 C253 1.414 . S
C252 C255 1.499 . S
C253 H227 0.950 . S
C253 C252 1.414 . S
C253 C254 1.374 . S
C254 H228 0.950 . S
C254 C250 1.385 . S
C254 C253 1.374 . S
C255 C252 1.499 . S
C255 C256 1.373 1_565 S
C255 C257 1.389 . S
C256 H229 0.950 . S
C256 C242 1.377 . S
C256 C255 1.373 1_545 S
C257 C241 1.377 . S
C257 C255 1.389 . S
C257 C258 1.524 . S
C258 C257 1.524 . S
C258 C259 1.397 . S
C258 C263 1.363 . S
C259 H230 0.950 . S
C259 C258 1.397 . S
C259 C260 1.334 . S
C260 H231 0.950 . S
C260 C259 1.334 . S
C260 C261 1.287 . S
C261 C260 1.287 . S
C261 C262 1.524 . S
C261 H264 0.999 . S
C262 H232 0.950 . S
C262 C261 1.524 . S
C262 C263 1.415 . S
C263 H233 0.950 . S
C263 C258 1.363 . S
C263 C262 1.415 . S
H264 C261 0.999 . S
H265 C246 0.913 . S
H266 C284 0.951 . S
H267 C286 0.951 . S
H268 C288 0.950 . S
H269 C289 0.950 . S
H270 C291 0.950 . S
H271 C294 0.950 . S
H272 C295 0.950 . S
H273 C297 0.950 . S
H274 C298 0.950 . S
H275 C299 0.951 . S
H276 C301 0.951 . S
H277 C303 0.950 . S
H278 C304 0.950 . S
H279 C306 0.950 . S
H280 C309 0.950 . S
H281 C310 0.950 . S
H282 C312 0.950 . S
H283 C313 0.950 . S
C284 H266 0.951 . S
C284 C285 1.366 . S
C284 C286 1.388 . S
C285 C284 1.366 . S
C285 C289 1.385 . S
C286 H267 0.951 . S
C286 C284 1.388 . S
C286 C287 1.366 . S
C287 C286 1.366 . S
C287 C288 1.414 . S
C287 C290 1.499 . S
C288 H268 0.950 . S
C288 C287 1.414 . S
C288 C289 1.374 . S
C289 H269 0.950 . S
C289 C285 1.385 . S
C289 C288 1.374 . S
C290 C287 1.499 . S
C290 C291 1.373 . S
C290 C292 1.389 . S
C291 H270 0.950 . S
C291 C290 1.373 . S
C291 C307 1.377 . S
C292 C290 1.389 . S
C292 C293 1.524 . S
C292 C306 1.377 . S
C293 C292 1.524 . S
C293 C294 1.397 . S
C293 C298 1.363 . S
C294 H271 0.950 . S
C294 C293 1.397 . S
C294 C295 1.334 . S
C295 H272 0.950 . S
C295 C294 1.334 . S
C295 C296 1.287 . S
C296 C295 1.287 . S
C296 C297 1.524 . S
C296 H315 0.913 . S
C297 H273 0.950 . S
C297 C296 1.524 . S
C297 C298 1.415 . S
C298 H274 0.950 . S
C298 C293 1.363 . S
C298 C297 1.415 . S
C299 H275 0.951 . S
C299 C300 1.366 . S
C299 C301 1.388 . S
C300 C299 1.366 . S
C300 C304 1.385 . S
C301 H276 0.951 . S
C301 C299 1.388 . S
C301 C302 1.366 . S
C302 C301 1.366 . S
C302 C303 1.414 . S
C302 C305 1.499 . S
C303 H277 0.950 . S
C303 C302 1.414 . S
C303 C304 1.374 . S
C304 H278 0.950 . S
C304 C300 1.385 . S
C304 C303 1.374 . S
C305 C302 1.499 . S
C305 C306 1.373 . S
C305 C307 1.389 . S
C306 H279 0.950 . S
C306 C292 1.377 . S
C306 C305 1.373 . S
C307 C291 1.377 . S
C307 C305 1.389 . S
C307 C308 1.524 . S
C308 C307 1.524 . S
C308 C309 1.397 . S
C308 C313 1.363 . S
C309 H280 0.950 . S
C309 C308 1.397 . S
C309 C310 1.334 . S
C310 H281 0.950 . S
C310 C309 1.334 . S
C310 C311 1.287 . S
C311 C310 1.287 . S
C311 C312 1.524 . S
C311 H314 0.999 . S
C312 H282 0.950 . S
C312 C311 1.524 . S
C312 C313 1.415 . S
C313 H283 0.950 . S
C313 C308 1.363 . S
C313 C312 1.415 . S
H314 C311 0.999 . S
H315 C296 0.913 . S
H316 C334 0.951 . S
H317 C336 0.951 . S
H318 C338 0.950 . S
H319 C339 0.950 . S
H320 C341 0.950 . S
H321 C344 0.950 . S
H322 C345 0.950 . S
H323 C347 0.950 . S
H324 C348 0.950 . S
H325 C349 0.951 . S
H326 C351 0.951 . S
H327 C353 0.950 . S
H328 C354 0.950 . S
H329 C356 0.950 . S
H330 C359 0.950 . S
H331 C360 0.950 . S
H332 C362 0.950 . S
H333 C363 0.950 . S
C334 H316 0.951 . S
C334 C335 1.366 . S
C334 C336 1.388 . S
C335 C334 1.366 . S
C335 C339 1.385 . S
C336 H317 0.951 . S
C336 C334 1.388 . S
C336 C337 1.366 . S
C337 C336 1.366 . S
C337 C338 1.414 . S
C337 C340 1.499 . S
C338 H318 0.950 . S
C338 C337 1.414 . S
C338 C339 1.374 . S
C339 H319 0.950 . S
C339 C335 1.385 . S
C339 C338 1.374 . S
C340 C337 1.499 . S
C340 C341 1.373 . S
C340 C342 1.389 . S
C341 H320 0.950 . S
C341 C340 1.373 . S
C341 C357 1.377 . S
C342 C340 1.389 . S
C342 C343 1.524 . S
C342 C356 1.377 . S
C343 C342 1.524 . S
C343 C344 1.397 . S
C343 C348 1.363 . S
C344 H321 0.950 . S
C344 C343 1.397 . S
C344 C345 1.334 . S
C345 H322 0.950 . S
C345 C344 1.334 . S
C345 C346 1.287 . S
C346 C345 1.287 . S
C346 C347 1.524 . S
C346 H365 0.913 . S
C347 H323 0.950 . S
C347 C346 1.524 . S
C347 C348 1.415 . S
C348 H324 0.950 . S
C348 C343 1.363 . S
C348 C347 1.415 . S
C349 H325 0.951 . S
C349 C350 1.366 . S
C349 C351 1.388 . S
C350 C349 1.366 . S
C350 C354 1.385 . S
C351 H326 0.951 . S
C351 C349 1.388 . S
C351 C352 1.366 . S
C352 C351 1.366 . S
C352 C353 1.414 . S
C352 C355 1.499 . S
C353 H327 0.950 . S
C353 C352 1.414 . S
C353 C354 1.374 . S
C354 H328 0.950 . S
C354 C350 1.385 . S
C354 C353 1.374 . S
C355 C352 1.499 . S
C355 C356 1.373 . S
C355 C357 1.389 . S
C356 H329 0.950 . S
C356 C342 1.377 . S
C356 C355 1.373 . S
C357 C341 1.377 . S
C357 C355 1.389 . S
C357 C358 1.524 . S
C358 C357 1.524 . S
C358 C359 1.397 . S
C358 C363 1.363 . S
C359 H330 0.950 . S
C359 C358 1.397 . S
C359 C360 1.334 . S
C360 H331 0.950 . S
C360 C359 1.334 . S
C360 C361 1.287 . S
C361 C360 1.287 . S
C361 C362 1.524 . S
C361 H364 0.999 . S
C362 H332 0.950 . S
C362 C361 1.524 . S
C362 C363 1.415 . S
C363 H333 0.950 . S
C363 C358 1.363 . S
C363 C362 1.415 . S
H364 C361 0.999 . S
H365 C346 0.913 . S
H366 C384 0.951 . S
H367 C386 0.951 . S
H368 C388 0.950 . S
H369 C389 0.950 . S
H370 C391 0.950 . S
H371 C394 0.950 . S
H372 C395 0.950 . S
H373 C397 0.950 . S
H374 C398 0.950 . S
H375 C399 0.951 . S
H376 C401 0.951 . S
H377 C403 0.950 . S
H378 C404 0.950 . S
H379 C406 0.950 . S
H380 C409 0.950 . S
H381 C410 0.950 . S
H382 C412 0.950 . S
H383 C413 0.950 . S
C384 H366 0.951 . S
C384 C385 1.366 . S
C384 C386 1.388 . S
C385 C384 1.366 . S
C385 C389 1.385 . S
C386 H367 0.951 . S
C386 C384 1.388 . S
C386 C387 1.366 . S
C387 C386 1.366 . S
C387 C388 1.414 . S
C387 C390 1.499 . S
C388 H368 0.950 . S
C388 C387 1.414 . S
C388 C389 1.374 . S
C389 H369 0.950 . S
C389 C385 1.385 . S
C389 C388 1.374 . S
C390 C387 1.499 . S
C390 C391 1.373 . S
C390 C392 1.389 . S
C391 H370 0.950 . S
C391 C390 1.373 . S
C391 C407 1.377 . S
C392 C390 1.389 . S
C392 C393 1.524 . S
C392 C406 1.377 . S
C393 C392 1.524 . S
C393 C394 1.397 . S
C393 C398 1.363 . S
C394 H371 0.950 . S
C394 C393 1.397 . S
C394 C395 1.334 . S
C395 H372 0.950 . S
C395 C394 1.334 . S
C395 C396 1.287 . S
C396 C395 1.287 . S
C396 C397 1.524 . S
C396 H415 0.913 1_565 S
C397 H373 0.950 . S
C397 C396 1.524 . S
C397 C398 1.415 . S
C398 H374 0.950 . S
C398 C393 1.363 . S
C398 C397 1.415 . S
C399 H375 0.951 . S
C399 C400 1.366 . S
C399 C401 1.388 . S
C400 C399 1.366 . S
C400 C404 1.385 . S
C401 H376 0.951 . S
C401 C399 1.388 . S
C401 C402 1.366 . S
C402 C401 1.366 . S
C402 C403 1.414 . S
C402 C405 1.499 . S
C403 H377 0.950 . S
C403 C402 1.414 . S
C403 C404 1.374 . S
C404 H378 0.950 . S
C404 C400 1.385 . S
C404 C403 1.374 . S
C405 C402 1.499 . S
C405 C406 1.373 . S
C405 C407 1.389 . S
C406 H379 0.950 . S
C406 C392 1.377 . S
C406 C405 1.373 . S
C407 C391 1.377 . S
C407 C405 1.389 . S
C407 C408 1.524 . S
C408 C407 1.524 . S
C408 C409 1.397 . S
C408 C413 1.363 . S
C409 H380 0.950 . S
C409 C408 1.397 . S
C409 C410 1.334 . S
C410 H381 0.950 . S
C410 C409 1.334 . S
C410 C411 1.287 . S
C411 C410 1.287 . S
C411 C412 1.524 . S
C411 H414 0.999 . S
C412 H382 0.950 . S
C412 C411 1.524 . S
C412 C413 1.415 . S
C413 H383 0.950 . S
C413 C408 1.363 . S
C413 C412 1.415 . S
H414 C411 0.999 . S
H415 C396 0.913 1_545 S
H416 C434 0.951 . S
H417 C436 0.951 . S
H418 C438 0.950 . S
H419 C439 0.950 . S
H420 C441 0.950 . S
H421 C444 0.950 . S
H422 C445 0.950 . S
H423 C447 0.950 . S
H424 C448 0.950 . S
H425 C449 0.951 . S
H426 C451 0.951 . S
H427 C453 0.950 . S
H428 C454 0.950 . S
H429 C456 0.950 . S
H430 C459 0.950 . S
H431 C460 0.950 . S
H432 C462 0.950 . S
H433 C463 0.950 . S
C434 H416 0.951 . S
C434 C435 1.366 . S
C434 C436 1.388 . S
C435 C434 1.366 . S
C435 C439 1.385 . S
C436 H417 0.951 . S
C436 C434 1.388 . S
C436 C437 1.366 . S
C437 C436 1.366 . S
C437 C438 1.414 1_556 S
C437 C440 1.499 1_556 S
C438 H418 0.950 . S
C438 C437 1.414 1_554 S
C438 C439 1.374 1_554 S
C439 H419 0.950 . S
C439 C435 1.385 . S
C439 C438 1.374 1_556 S
C440 C437 1.499 1_554 S
C440 C441 1.373 . S
C440 C442 1.389 . S
C441 H420 0.950 . S
C441 C440 1.373 . S
C441 C457 1.377 . S
C442 C440 1.389 . S
C442 C443 1.524 . S
C442 C456 1.377 . S
C443 C442 1.524 . S
C443 C444 1.397 . S
C443 C448 1.363 . S
C444 H421 0.950 . S
C444 C443 1.397 . S
C444 C445 1.334 . S
C445 H422 0.950 . S
C445 C444 1.334 . S
C445 C446 1.287 . S
C446 C445 1.287 . S
C446 C447 1.524 . S
C446 H465 0.913 . S
C447 H423 0.950 . S
C447 C446 1.524 . S
C447 C448 1.415 . S
C448 H424 0.950 . S
C448 C443 1.363 . S
C448 C447 1.415 . S
C449 H425 0.951 . S
C449 C450 1.366 . S
C449 C451 1.388 . S
C450 C449 1.366 . S
C450 C454 1.385 . S
C451 H426 0.951 . S
C451 C449 1.388 . S
C451 C452 1.366 . S
C452 C451 1.366 . S
C452 C453 1.414 . S
C452 C455 1.499 . S
C453 H427 0.950 . S
C453 C452 1.414 . S
C453 C454 1.374 . S
C454 H428 0.950 . S
C454 C450 1.385 . S
C454 C453 1.374 . S
C455 C452 1.499 . S
C455 C456 1.373 . S
C455 C457 1.389 . S
C456 H429 0.950 . S
C456 C442 1.377 . S
C456 C455 1.373 . S
C457 C441 1.377 . S
C457 C455 1.389 . S
C457 C458 1.524 . S
C458 C457 1.524 . S
C458 C459 1.397 . S
C458 C463 1.363 . S
C459 H430 0.950 . S
C459 C458 1.397 . S
C459 C460 1.334 . S
C460 H431 0.950 . S
C460 C459 1.334 . S
C460 C461 1.287 . S
C461 C460 1.287 . S
C461 C462 1.524 . S
C461 H464 0.999 . S
C462 H432 0.950 . S
C462 C461 1.524 . S
C462 C463 1.415 . S
C463 H433 0.950 . S
C463 C458 1.363 . S
C463 C462 1.415 . S
H464 C461 0.999 . S
H465 C446 0.913 . S
H466 C484 0.951 . S
H467 C486 0.951 . S
H468 C488 0.950 . S
H469 C489 0.950 . S
H470 C491 0.950 . S
H471 C494 0.950 . S
H472 C495 0.950 . S
H473 C497 0.950 . S
H474 C498 0.950 . S
H475 C499 0.951 . S
H476 C501 0.951 . S
H477 C503 0.950 . S
H478 C504 0.950 . S
H479 C506 0.950 . S
H480 C509 0.950 . S
H481 C510 0.950 . S
H482 C512 0.950 . S
H483 C513 0.950 . S
C484 H466 0.951 . S
C484 C485 1.366 . S
C484 C486 1.388 . S
C485 C484 1.366 . S
C485 C489 1.385 . S
C486 H467 0.951 . S
C486 C484 1.388 . S
C486 C487 1.366 . S
C487 C486 1.366 . S
C487 C488 1.414 . S
C487 C490 1.499 . S
C488 H468 0.950 . S
C488 C487 1.414 . S
C488 C489 1.374 . S
C489 H469 0.950 . S
C489 C485 1.385 . S
C489 C488 1.374 . S
C490 C487 1.499 . S
C490 C491 1.373 . S
C490 C492 1.389 . S
C491 H470 0.950 . S
C491 C490 1.373 . S
C491 C507 1.377 . S
C492 C490 1.389 . S
C492 C493 1.524 . S
C492 C506 1.377 . S
C493 C492 1.524 . S
C493 C494 1.397 . S
C493 C498 1.363 . S
C494 H471 0.950 . S
C494 C493 1.397 . S
C494 C495 1.334 . S
C495 H472 0.950 . S
C495 C494 1.334 . S
C495 C496 1.287 . S
C496 C495 1.287 . S
C496 C497 1.524 . S
C496 H515 0.913 . S
C497 H473 0.950 . S
C497 C496 1.524 . S
C497 C498 1.415 . S
C498 H474 0.950 . S
C498 C493 1.363 . S
C498 C497 1.415 . S
C499 H475 0.951 . S
C499 C500 1.366 . S
C499 C501 1.388 . S
C500 C499 1.366 . S
C500 C504 1.385 . S
C501 H476 0.951 . S
C501 C499 1.388 . S
C501 C502 1.366 . S
C502 C501 1.366 . S
C502 C503 1.414 . S
C502 C505 1.499 . S
C503 H477 0.950 . S
C503 C502 1.414 . S
C503 C504 1.374 . S
C504 H478 0.950 . S
C504 C500 1.385 . S
C504 C503 1.374 . S
C505 C502 1.499 . S
C505 C506 1.373 . S
C505 C507 1.389 . S
C506 H479 0.950 . S
C506 C492 1.377 . S
C506 C505 1.373 . S
C507 C491 1.377 . S
C507 C505 1.389 . S
C507 C508 1.524 . S
C508 C507 1.524 . S
C508 C509 1.397 . S
C508 C513 1.363 . S
C509 H480 0.950 . S
C509 C508 1.397 . S
C509 C510 1.334 . S
C510 H481 0.950 . S
C510 C509 1.334 . S
C510 C511 1.287 . S
C511 C510 1.287 . S
C511 C512 1.524 . S
C511 H514 0.999 . S
C512 H482 0.950 . S
C512 C511 1.524 . S
C512 C513 1.415 . S
C513 H483 0.950 . S
C513 C508 1.363 . S
C513 C512 1.415 . S
H514 C511 0.999 . S
H515 C496 0.913 . S
H516 C534 0.951 . S
H517 C536 0.951 . S
H518 C538 0.950 . S
H519 C539 0.950 . S
H520 C541 0.950 . S
H521 C544 0.950 . S
H522 C545 0.950 . S
H523 C547 0.950 . S
H524 C548 0.950 . S
H525 C549 0.951 . S
H526 C551 0.951 . S
H527 C553 0.950 . S
H528 C554 0.950 . S
H529 C556 0.950 . S
H530 C559 0.950 . S
H531 C560 0.950 . S
H532 C562 0.950 . S
H533 C563 0.950 . S
C534 H516 0.951 . S
C534 C535 1.366 . S
C534 C536 1.388 . S
C535 C534 1.366 . S
C535 C539 1.385 1_545 S
C536 H517 0.951 . S
C536 C534 1.388 . S
C536 C537 1.366 . S
C537 C536 1.366 . S
C537 C538 1.414 1_545 S
C537 C540 1.499 . S
C538 H518 0.950 . S
C538 C537 1.414 1_565 S
C538 C539 1.374 . S
C539 H519 0.950 . S
C539 C535 1.385 1_565 S
C539 C538 1.374 . S
C540 C537 1.499 . S
C540 C541 1.373 1_545 S
C540 C542 1.389 . S
C541 H520 0.950 . S
C541 C540 1.373 1_565 S
C541 C557 1.377 . S
C542 C540 1.389 . S
C542 C543 1.524 . S
C542 C556 1.377 . S
C543 C542 1.524 . S
C543 C544 1.397 . S
C543 C548 1.363 . S
C544 H521 0.950 . S
C544 C543 1.397 . S
C544 C545 1.334 . S
C545 H522 0.950 . S
C545 C544 1.334 . S
C545 C546 1.287 . S
C546 C545 1.287 . S
C546 C547 1.524 . S
C546 H565 0.913 . S
C547 H523 0.950 . S
C547 C546 1.524 . S
C547 C548 1.415 . S
C548 H524 0.950 . S
C548 C543 1.363 . S
C548 C547 1.415 . S
C549 H525 0.951 . S
C549 C550 1.366 1_565 S
C549 C551 1.388 . S
C550 C549 1.366 1_545 S
C550 C554 1.385 . S
C551 H526 0.951 . S
C551 C549 1.388 . S
C551 C552 1.366 1_565 S
C552 C551 1.366 1_545 S
C552 C553 1.414 . S
C552 C555 1.499 . S
C553 H527 0.950 . S
C553 C552 1.414 . S
C553 C554 1.374 . S
C554 H528 0.950 . S
C554 C550 1.385 . S
C554 C553 1.374 . S
C555 C552 1.499 . S
C555 C556 1.373 . S
C555 C557 1.389 1_545 S
C556 H529 0.950 . S
C556 C542 1.377 . S
C556 C555 1.373 . S
C557 C541 1.377 . S
C557 C555 1.389 1_565 S
C557 C558 1.524 . S
C558 C557 1.524 . S
C558 C559 1.397 . S
C558 C563 1.363 . S
C559 H530 0.950 . S
C559 C558 1.397 . S
C559 C560 1.334 . S
C560 H531 0.950 . S
C560 C559 1.334 . S
C560 C561 1.287 . S
C561 C560 1.287 . S
C561 C562 1.524 . S
C561 H564 0.999 . S
C562 H532 0.950 . S
C562 C561 1.524 . S
C562 C563 1.415 . S
C563 H533 0.950 . S
C563 C558 1.363 . S
C563 C562 1.415 . S
H564 C561 0.999 . S
H565 C546 0.913 . S
H566 C584 0.951 . S
H567 C586 0.951 . S
H568 C588 0.950 . S
H569 C589 0.950 . S
H570 C591 0.950 . S
H571 C594 0.950 . S
H572 C595 0.950 . S
H573 C597 0.950 . S
H574 C598 0.950 . S
H575 C599 0.951 . S
H576 C601 0.951 . S
H577 C603 0.950 . S
H578 C604 0.950 . S
H579 C606 0.950 . S
H580 C609 0.950 . S
H581 C610 0.950 . S
H582 C612 0.950 . S
H583 C613 0.950 . S
C584 H566 0.951 . S
C584 C585 1.366 . S
C584 C586 1.388 . S
C585 C584 1.366 . S
C585 C589 1.385 . S
C586 H567 0.951 . S
C586 C584 1.388 . S
C586 C587 1.366 . S
C587 C586 1.366 . S
C587 C588 1.414 . S
C587 C590 1.499 . S
C588 H568 0.950 . S
C588 C587 1.414 . S
C588 C589 1.374 . S
C589 H569 0.950 . S
C589 C585 1.385 . S
C589 C588 1.374 . S
C590 C587 1.499 . S
C590 C591 1.373 . S
C590 C592 1.389 . S
C591 H570 0.950 . S
C591 C590 1.373 . S
C591 C607 1.377 . S
C592 C590 1.389 . S
C592 C593 1.524 . S
C592 C606 1.377 . S
C593 C592 1.524 . S
C593 C594 1.397 . S
C593 C598 1.363 . S
C594 H571 0.950 . S
C594 C593 1.397 . S
C594 C595 1.334 . S
C595 H572 0.950 . S
C595 C594 1.334 . S
C595 C596 1.287 . S
C596 C595 1.287 . S
C596 C597 1.524 . S
C596 H615 0.913 . S
C597 H573 0.950 . S
C597 C596 1.524 . S
C597 C598 1.415 . S
C598 H574 0.950 . S
C598 C593 1.363 . S
C598 C597 1.415 . S
C599 H575 0.951 . S
C599 C600 1.366 1_545 S
C599 C601 1.388 . S
C600 C599 1.366 1_565 S
C600 C604 1.385 . S
C601 H576 0.951 . S
C601 C599 1.388 . S
C601 C602 1.366 . S
C602 C601 1.366 . S
C602 C603 1.414 . S
C602 C605 1.499 . S
C603 H577 0.950 . S
C603 C602 1.414 . S
C603 C604 1.374 1_545 S
C604 H578 0.950 . S
C604 C600 1.385 . S
C604 C603 1.374 1_565 S
C605 C602 1.499 . S
C605 C606 1.373 . S
C605 C607 1.389 . S
C606 H579 0.950 . S
C606 C592 1.377 . S
C606 C605 1.373 . S
C607 C591 1.377 . S
C607 C605 1.389 . S
C607 C608 1.524 . S
C608 C607 1.524 . S
C608 C609 1.397 . S
C608 C613 1.363 . S
C609 H580 0.950 . S
C609 C608 1.397 . S
C609 C610 1.334 . S
C610 H581 0.950 . S
C610 C609 1.334 . S
C610 C611 1.287 . S
C611 C610 1.287 . S
C611 C612 1.524 . S
C611 H614 0.999 . S
C612 H582 0.950 . S
C612 C611 1.524 . S
C612 C613 1.415 . S
C613 H583 0.950 . S
C613 C608 1.363 . S
C613 C612 1.415 . S
H614 C611 0.999 . S
H615 C596 0.913 . S
H616 C634 0.951 . S
H617 C636 0.951 . S
H618 C638 0.950 . S
H619 C639 0.950 . S
H620 C641 0.950 . S
H621 C644 0.950 . S
H622 C645 0.950 . S
H623 C647 0.950 . S
H624 C648 0.950 . S
H625 C649 0.951 . S
H626 C651 0.951 . S
H627 C653 0.950 . S
H628 C654 0.950 . S
H629 C656 0.950 . S
H630 C659 0.950 . S
H631 C660 0.950 . S
H632 C662 0.950 . S
H633 C663 0.950 . S
C634 H616 0.951 . S
C634 C635 1.366 . S
C634 C636 1.388 . S
C635 C634 1.366 . S
C635 C639 1.385 . S
C636 H617 0.951 . S
C636 C634 1.388 . S
C636 C637 1.366 . S
C637 C636 1.366 . S
C637 C638 1.414 . S
C637 C640 1.499 . S
C638 H618 0.950 . S
C638 C637 1.414 . S
C638 C639 1.374 . S
C639 H619 0.950 . S
C639 C635 1.385 . S
C639 C638 1.374 . S
C640 C637 1.499 . S
C640 C641 1.373 . S
C640 C642 1.389 . S
C641 H620 0.950 . S
C641 C640 1.373 . S
C641 C657 1.377 . S
C642 C640 1.389 . S
C642 C643 1.524 . S
C642 C656 1.377 . S
C643 C642 1.524 . S
C643 C644 1.397 . S
C643 C648 1.363 . S
C644 H621 0.950 . S
C644 C643 1.397 . S
C644 C645 1.334 . S
C645 H622 0.950 . S
C645 C644 1.334 . S
C645 C646 1.287 . S
C646 C645 1.287 . S
C646 C647 1.524 . S
C646 H665 0.913 . S
C647 H623 0.950 . S
C647 C646 1.524 . S
C647 C648 1.415 . S
C648 H624 0.950 . S
C648 C643 1.363 . S
C648 C647 1.415 . S
C649 H625 0.951 . S
C649 C650 1.366 . S
C649 C651 1.388 . S
C650 C649 1.366 . S
C650 C654 1.385 . S
C651 H626 0.951 . S
C651 C649 1.388 . S
C651 C652 1.366 . S
C652 C651 1.366 . S
C652 C653 1.414 . S
C652 C655 1.499 . S
C653 H627 0.950 . S
C653 C652 1.414 . S
C653 C654 1.374 . S
C654 H628 0.950 . S
C654 C650 1.385 . S
C654 C653 1.374 . S
C655 C652 1.499 . S
C655 C656 1.373 . S
C655 C657 1.389 . S
C656 H629 0.950 . S
C656 C642 1.377 . S
C656 C655 1.373 . S
C657 C641 1.377 . S
C657 C655 1.389 . S
C657 C658 1.524 . S
C658 C657 1.524 . S
C658 C659 1.397 . S
C658 C663 1.363 . S
C659 H630 0.950 . S
C659 C658 1.397 . S
C659 C660 1.334 . S
C660 H631 0.950 . S
C660 C659 1.334 . S
C660 C661 1.287 . S
C661 C660 1.287 . S
C661 C662 1.524 . S
C661 H664 0.999 . S
C662 H632 0.950 . S
C662 C661 1.524 . S
C662 C663 1.415 . S
C663 H633 0.950 . S
C663 C658 1.363 . S
C663 C662 1.415 . S
H664 C661 0.999 . S
H665 C646 0.913 . S
H666 C684 0.951 . S
H667 C686 0.951 . S
H668 C688 0.950 . S
H669 C689 0.950 . S
H670 C691 0.950 . S
H671 C694 0.950 . S
H672 C695 0.950 . S
H673 C697 0.950 . S
H674 C698 0.950 . S
H675 C699 0.951 . S
H676 C701 0.951 . S
H677 C703 0.950 . S
H678 C704 0.950 . S
H679 C706 0.950 . S
H680 C709 0.950 . S
H681 C710 0.950 . S
H682 C712 0.950 . S
H683 C713 0.950 . S
C684 H666 0.951 . S
C684 C685 1.366 . S
C684 C686 1.388 . S
C685 C684 1.366 . S
C685 C689 1.385 . S
C686 H667 0.951 . S
C686 C684 1.388 . S
C686 C687 1.366 . S
C687 C686 1.366 . S
C687 C688 1.414 . S
C687 C690 1.499 . S
C688 H668 0.950 . S
C688 C687 1.414 . S
C688 C689 1.374 . S
C689 H669 0.950 . S
C689 C685 1.385 . S
C689 C688 1.374 . S
C690 C687 1.499 . S
C690 C691 1.373 . S
C690 C692 1.389 . S
C691 H670 0.950 . S
C691 C690 1.373 . S
C691 C707 1.377 . S
C692 C690 1.389 . S
C692 C693 1.524 . S
C692 C706 1.377 . S
C693 C692 1.524 . S
C693 C694 1.397 . S
C693 C698 1.363 . S
C694 H671 0.950 . S
C694 C693 1.397 . S
C694 C695 1.334 . S
C695 H672 0.950 . S
C695 C694 1.334 . S
C695 C696 1.287 . S
C696 C695 1.287 . S
C696 C697 1.524 . S
C696 H715 0.913 . S
C697 H673 0.950 . S
C697 C696 1.524 . S
C697 C698 1.415 . S
C698 H674 0.950 . S
C698 C693 1.363 . S
C698 C697 1.415 . S
C699 H675 0.951 . S
C699 C700 1.366 . S
C699 C701 1.388 . S
C700 C699 1.366 . S
C700 C704 1.385 . S
C701 H676 0.951 . S
C701 C699 1.388 . S
C701 C702 1.366 . S
C702 C701 1.366 . S
C702 C703 1.414 . S
C702 C705 1.499 . S
C703 H677 0.950 . S
C703 C702 1.414 . S
C703 C704 1.374 . S
C704 H678 0.950 . S
C704 C700 1.385 . S
C704 C703 1.374 . S
C705 C702 1.499 . S
C705 C706 1.373 . S
C705 C707 1.389 . S
C706 H679 0.950 . S
C706 C692 1.377 . S
C706 C705 1.373 . S
C707 C691 1.377 . S
C707 C705 1.389 . S
C707 C708 1.524 . S
C708 C707 1.524 . S
C708 C709 1.397 . S
C708 C713 1.363 . S
C709 H680 0.950 . S
C709 C708 1.397 . S
C709 C710 1.334 . S
C710 H681 0.950 . S
C710 C709 1.334 . S
C710 C711 1.287 . S
C711 C710 1.287 . S
C711 C712 1.524 . S
C711 H714 0.999 . S
C712 H682 0.950 . S
C712 C711 1.524 . S
C712 C713 1.415 . S
C713 H683 0.950 . S
C713 C708 1.363 . S
C713 C712 1.415 . S
H714 C711 0.999 . S
H715 C696 0.913 . S
H716 C734 0.951 . S
H717 C736 0.951 . S
H718 C738 0.950 . S
H719 C739 0.950 . S
H720 C741 0.950 . S
H721 C744 0.950 . S
H722 C745 0.950 . S
H723 C747 0.950 . S
H724 C748 0.950 . S
H725 C749 0.951 . S
H726 C751 0.951 . S
H727 C753 0.950 1_455 S
H728 C754 0.950 . S
H729 C756 0.950 . S
H730 C759 0.950 . S
H731 C760 0.950 . S
H732 C762 0.950 1_655 S
H733 C763 0.950 . S
C734 H716 0.951 . S
C734 C735 1.366 . S
C734 C736 1.388 . S
C735 C734 1.366 . S
C735 C739 1.385 . S
C736 H717 0.951 . S
C736 C734 1.388 . S
C736 C737 1.366 . S
C737 C736 1.366 . S
C737 C738 1.414 . S
C737 C740 1.499 . S
C738 H718 0.950 . S
C738 C737 1.414 . S
C738 C739 1.374 . S
C739 H719 0.950 . S
C739 C735 1.385 . S
C739 C738 1.374 . S
C740 C737 1.499 . S
C740 C741 1.373 . S
C740 C742 1.389 . S
C741 H720 0.950 . S
C741 C740 1.373 . S
C741 C757 1.377 . S
C742 C740 1.389 . S
C742 C743 1.524 . S
C742 C756 1.377 . S
C743 C742 1.524 . S
C743 C744 1.397 . S
C743 C748 1.363 . S
C744 H721 0.950 . S
C744 C743 1.397 . S
C744 C745 1.334 . S
C745 H722 0.950 . S
C745 C744 1.334 . S
C745 C746 1.287 . S
C746 C745 1.287 . S
C746 C747 1.524 . S
C746 H765 0.913 . S
C747 H723 0.950 . S
C747 C746 1.524 . S
C747 C748 1.415 . S
C748 H724 0.950 . S
C748 C743 1.363 . S
C748 C747 1.415 . S
C749 H725 0.951 . S
C749 C750 1.366 . S
C749 C751 1.388 . S
C750 C749 1.366 . S
C750 C754 1.385 . S
C751 H726 0.951 . S
C751 C749 1.388 . S
C751 C752 1.366 . S
C752 C751 1.366 . S
C752 C753 1.414 . S
C752 C755 1.499 1_655 S
C753 H727 0.950 1_655 S
C753 C752 1.414 . S
C753 C754 1.374 . S
C754 H728 0.950 . S
C754 C750 1.385 . S
C754 C753 1.374 . S
C755 C752 1.499 1_455 S
C755 C756 1.373 . S
C755 C757 1.389 . S
C756 H729 0.950 . S
C756 C742 1.377 . S
C756 C755 1.373 . S
C757 C741 1.377 . S
C757 C755 1.389 . S
C757 C758 1.524 . S
C758 C757 1.524 . S
C758 C759 1.397 . S
C758 C763 1.363 . S
C759 H730 0.950 . S
C759 C758 1.397 . S
C759 C760 1.334 . S
C760 H731 0.950 . S
C760 C759 1.334 . S
C760 C761 1.287 . S
C761 C760 1.287 . S
C761 C762 1.524 . S
C761 H764 0.999 1_455 S
C762 H732 0.950 1_455 S
C762 C761 1.524 . S
C762 C763 1.415 . S
C763 H733 0.950 . S
C763 C758 1.363 . S
C763 C762 1.415 . S
H764 C761 0.999 1_655 S
H765 C746 0.913 . S
H766 C784 0.951 1_655 S
H767 C786 0.951 1_655 S
H768 C788 0.950 . S
H769 C789 0.950 . S
H770 C791 0.950 . S
H771 C794 0.950 . S
H772 C795 0.950 . S
H773 C797 0.950 . S
H774 C798 0.950 . S
H775 C799 0.951 . S
H776 C801 0.951 . S
H777 C803 0.950 . S
H778 C804 0.950 . S
H779 C806 0.950 1_655 S
H780 C809 0.950 . S
H781 C810 0.950 . S
H782 C812 0.950 . S
H783 C813 0.950 . S
C784 H766 0.951 1_455 S
C784 C785 1.366 . S
C784 C786 1.388 . S
C785 C784 1.366 . S
C785 C789 1.385 . S
C786 H767 0.951 1_455 S
C786 C784 1.388 . S
C786 C787 1.366 . S
C787 C786 1.366 . S
C787 C788 1.414 . S
C787 C790 1.499 . S
C788 H768 0.950 . S
C788 C787 1.414 . S
C788 C789 1.374 . S
C789 H769 0.950 . S
C789 C785 1.385 . S
C789 C788 1.374 . S
C790 C787 1.499 . S
C790 C791 1.373 . S
C790 C792 1.389 . S
C791 H770 0.950 . S
C791 C790 1.373 . S
C791 C807 1.377 . S
C792 C790 1.389 . S
C792 C793 1.524 1_455 S
C792 C806 1.377 . S
C793 C792 1.524 1_655 S
C793 C794 1.397 1_655 S
C793 C798 1.363 . S
C794 H771 0.950 . S
C794 C793 1.397 1_455 S
C794 C795 1.334 . S
C795 H772 0.950 . S
C795 C794 1.334 . S
C795 C796 1.287 1_455 S
C796 C795 1.287 1_655 S
C796 C797 1.524 . S
C796 H815 0.913 . S
C797 H773 0.950 . S
C797 C796 1.524 . S
C797 C798 1.415 . S
C798 H774 0.950 . S
C798 C793 1.363 . S
C798 C797 1.415 . S
C799 H775 0.951 . S
C799 C800 1.366 . S
C799 C801 1.388 . S
C800 C799 1.366 . S
C800 C804 1.385 1_455 S
C801 H776 0.951 . S
C801 C799 1.388 . S
C801 C802 1.366 . S
C802 C801 1.366 . S
C802 C803 1.414 1_455 S
C802 C805 1.499 . S
C803 H777 0.950 . S
C803 C802 1.414 1_655 S
C803 C804 1.374 . S
C804 H778 0.950 . S
C804 C800 1.385 1_655 S
C804 C803 1.374 . S
C805 C802 1.499 . S
C805 C806 1.373 . S
C805 C807 1.389 . S
C806 H779 0.950 1_455 S
C806 C792 1.377 . S
C806 C805 1.373 . S
C807 C791 1.377 . S
C807 C805 1.389 . S
C807 C808 1.524 . S
C808 C807 1.524 . S
C808 C809 1.397 . S
C808 C813 1.363 . S
C809 H780 0.950 . S
C809 C808 1.397 . S
C809 C810 1.334 . S
C810 H781 0.950 . S
C810 C809 1.334 . S
C810 C811 1.287 . S
C811 C810 1.287 . S
C811 C812 1.524 . S
C811 H814 0.999 . S
C812 H782 0.950 . S
C812 C811 1.524 . S
C812 C813 1.415 . S
C813 H783 0.950 . S
C813 C808 1.363 . S
C813 C812 1.415 . S
H814 C811 0.999 . S
H815 C796 0.913 . S
H816 C834 0.951 . S
H817 C836 0.951 . S
H818 C838 0.950 . S
H819 C839 0.950 . S
H820 C841 0.950 . S
H821 C844 0.950 . S
H822 C845 0.950 . S
H823 C847 0.950 . S
H824 C848 0.950 . S
H825 C849 0.951 . S
H826 C851 0.951 . S
H827 C853 0.950 . S
H828 C854 0.950 . S
H829 C856 0.950 . S
H830 C859 0.950 . S
H831 C860 0.950 . S
H832 C862 0.950 . S
H833 C863 0.950 . S
C834 H816 0.951 . S
C834 C835 1.366 . S
C834 C836 1.388 . S
C835 C834 1.366 . S
C835 C839 1.385 . S
C836 H817 0.951 . S
C836 C834 1.388 . S
C836 C837 1.366 . S
C837 C836 1.366 . S
C837 C838 1.414 . S
C837 C840 1.499 . S
C838 H818 0.950 . S
C838 C837 1.414 . S
C838 C839 1.374 . S
C839 H819 0.950 . S
C839 C835 1.385 . S
C839 C838 1.374 . S
C840 C837 1.499 . S
C840 C841 1.373 . S
C840 C842 1.389 . S
C841 H820 0.950 . S
C841 C840 1.373 . S
C841 C857 1.377 . S
C842 C840 1.389 . S
C842 C843 1.524 . S
C842 C856 1.377 . S
C843 C842 1.524 . S
C843 C844 1.397 . S
C843 C848 1.363 . S
C844 H821 0.950 . S
C844 C843 1.397 . S
C844 C845 1.334 . S
C845 H822 0.950 . S
C845 C844 1.334 . S
C845 C846 1.287 . S
C846 C845 1.287 . S
C846 C847 1.524 . S
C846 H865 0.913 . S
C847 H823 0.950 . S
C847 C846 1.524 . S
C847 C848 1.415 . S
C848 H824 0.950 . S
C848 C843 1.363 . S
C848 C847 1.415 . S
C849 H825 0.951 . S
C849 C850 1.366 . S
C849 C851 1.388 . S
C850 C849 1.366 . S
C850 C854 1.385 . S
C851 H826 0.951 . S
C851 C849 1.388 . S
C851 C852 1.366 . S
C852 C851 1.366 . S
C852 C853 1.414 . S
C852 C855 1.499 . S
C853 H827 0.950 . S
C853 C852 1.414 . S
C853 C854 1.374 . S
C854 H828 0.950 . S
C854 C850 1.385 . S
C854 C853 1.374 . S
C855 C852 1.499 . S
C855 C856 1.373 . S
C855 C857 1.389 . S
C856 H829 0.950 . S
C856 C842 1.377 . S
C856 C855 1.373 . S
C857 C841 1.377 . S
C857 C855 1.389 . S
C857 C858 1.524 . S
C858 C857 1.524 . S
C858 C859 1.397 . S
C858 C863 1.363 . S
C859 H830 0.950 . S
C859 C858 1.397 . S
C859 C860 1.334 . S
C860 H831 0.950 . S
C860 C859 1.334 . S
C860 C861 1.287 . S
C861 C860 1.287 . S
C861 C862 1.524 . S
C861 H864 0.999 . S
C862 H832 0.950 . S
C862 C861 1.524 . S
C862 C863 1.415 . S
C863 H833 0.950 . S
C863 C858 1.363 . S
C863 C862 1.415 . S
H864 C861 0.999 . S
H865 C846 0.913 . S
H866 C884 0.951 . S
H867 C886 0.951 . S
H868 C888 0.950 . S
H869 C889 0.950 . S
H870 C891 0.950 . S
H871 C894 0.950 . S
H872 C895 0.950 . S
H873 C897 0.950 . S
H874 C898 0.950 . S
H875 C899 0.951 . S
H876 C901 0.951 . S
H877 C903 0.950 . S
H878 C904 0.950 . S
H879 C906 0.950 . S
H880 C909 0.950 . S
H881 C910 0.950 . S
H882 C912 0.950 . S
H883 C913 0.950 . S
C884 H866 0.951 . S
C884 C885 1.366 . S
C884 C886 1.388 . S
C885 C884 1.366 . S
C885 C889 1.385 . S
C886 H867 0.951 . S
C886 C884 1.388 . S
C886 C887 1.366 . S
C887 C886 1.366 . S
C887 C888 1.414 . S
C887 C890 1.499 . S
C888 H868 0.950 . S
C888 C887 1.414 . S
C888 C889 1.374 . S
C889 H869 0.950 . S
C889 C885 1.385 . S
C889 C888 1.374 . S
C890 C887 1.499 . S
C890 C891 1.373 . S
C890 C892 1.389 . S
C891 H870 0.950 . S
C891 C890 1.373 . S
C891 C907 1.377 . S
C892 C890 1.389 . S
C892 C893 1.524 . S
C892 C906 1.377 1_455 S
C893 C892 1.524 . S
C893 C894 1.397 . S
C893 C898 1.363 . S
C894 H871 0.950 . S
C894 C893 1.397 . S
C894 C895 1.334 . S
C895 H872 0.950 . S
C895 C894 1.334 . S
C895 C896 1.287 . S
C896 C895 1.287 . S
C896 C897 1.524 . S
C896 H915 0.913 . S
C897 H873 0.950 . S
C897 C896 1.524 . S
C897 C898 1.415 . S
C898 H874 0.950 . S
C898 C893 1.363 . S
C898 C897 1.415 . S
C899 H875 0.951 . S
C899 C900 1.366 . S
C899 C901 1.388 . S
C900 C899 1.366 . S
C900 C904 1.385 . S
C901 H876 0.951 . S
C901 C899 1.388 . S
C901 C902 1.366 . S
C902 C901 1.366 . S
C902 C903 1.414 . S
C902 C905 1.499 . S
C903 H877 0.950 . S
C903 C902 1.414 . S
C903 C904 1.374 . S
C904 H878 0.950 . S
C904 C900 1.385 . S
C904 C903 1.374 . S
C905 C902 1.499 . S
C905 C906 1.373 . S
C905 C907 1.389 1_655 S
C906 H879 0.950 . S
C906 C892 1.377 1_655 S
C906 C905 1.373 . S
C907 C891 1.377 . S
C907 C905 1.389 1_455 S
C907 C908 1.524 . S
C908 C907 1.524 . S
C908 C909 1.397 . S
C908 C913 1.363 . S
C909 H880 0.950 . S
C909 C908 1.397 . S
C909 C910 1.334 . S
C910 H881 0.950 . S
C910 C909 1.334 . S
C910 C911 1.287 . S
C911 C910 1.287 . S
C911 C912 1.524 . S
C911 H914 0.999 . S
C912 H882 0.950 . S
C912 C911 1.524 . S
C912 C913 1.415 . S
C913 H883 0.950 . S
C913 C908 1.363 . S
C913 C912 1.415 . S
H914 C911 0.999 . S
H915 C896 0.913 . S
H916 C934 0.951 . S
H917 C936 0.951 . S
H918 C938 0.950 . S
H919 C939 0.950 . S
H920 C941 0.972 . S
H921 C944 0.950 . S
H922 C945 0.950 . S
H923 C947 0.950 . S
H924 C948 0.950 . S
H925 C949 0.951 . S
H926 C951 0.951 . S
H927 C953 0.967 . S
H928 C954 0.950 . S
H929 C956 0.950 . S
H930 C959 0.950 . S
H931 C960 0.950 . S
H932 C962 0.950 . S
H933 C963 0.950 . S
C934 H916 0.951 . S
C934 C935 1.366 . S
C934 C936 1.388 . S
C935 C934 1.366 . S
C935 C939 1.385 . S
C936 H917 0.951 . S
C936 C934 1.388 . S
C936 C937 1.366 . S
C937 C936 1.366 . S
C937 C938 1.414 . S
C937 C940 1.499 . S
C938 H918 0.950 . S
C938 C937 1.414 . S
C938 C939 1.374 . S
C939 H919 0.950 . S
C939 C935 1.385 . S
C939 C938 1.374 . S
C940 C937 1.499 . S
C940 C941 1.333 1_556 S
C940 C942 1.389 . S
C941 H920 0.972 . S
C941 C940 1.333 1_554 S
C941 C957 1.397 . S
C942 C940 1.389 . S
C942 C943 1.524 . S
C942 C956 1.377 . S
C943 C942 1.524 . S
C943 C944 1.397 . S
C943 C948 1.363 . S
C944 H921 0.950 . S
C944 C943 1.397 . S
C944 C945 1.334 . S
C945 H922 0.950 . S
C945 C944 1.334 . S
C945 C946 1.287 . S
C946 C945 1.287 . S
C946 C947 1.524 . S
C946 H965 0.913 . S
C947 H923 0.950 . S
C947 C946 1.524 . S
C947 C948 1.415 . S
C948 H924 0.950 . S
C948 C943 1.363 . S
C948 C947 1.415 . S
C949 H925 0.951 . S
C949 C950 1.366 . S
C949 C951 1.388 . S
C950 C949 1.366 . S
C950 C954 1.385 . S
C951 H926 0.951 . S
C951 C949 1.388 . S
C951 C952 1.366 . S
C952 C951 1.366 . S
C952 C953 1.414 . S
C952 C955 1.499 1_554 S
C953 H927 0.967 . S
C953 C952 1.414 . S
C953 C954 1.374 . S
C954 H928 0.950 . S
C954 C950 1.385 . S
C954 C953 1.374 . S
C955 C952 1.499 1_556 S
C955 C956 1.373 . S
C955 C957 1.389 1_556 S
C956 H929 0.950 . S
C956 C942 1.377 . S
C956 C955 1.373 . S
C957 C941 1.397 . S
C957 C955 1.389 1_554 S
C957 C958 1.524 . S
C958 C957 1.524 . S
C958 C959 1.397 . S
C958 C963 1.363 . S
C959 H930 0.950 . S
C959 C958 1.397 . S
C959 C960 1.334 . S
C960 H931 0.950 . S
C960 C959 1.334 . S
C960 C961 1.287 . S
C961 C960 1.287 . S
C961 C962 1.524 . S
C961 H964 0.999 . S
C962 H932 0.950 . S
C962 C961 1.524 . S
C962 C963 1.415 . S
C963 H933 0.950 . S
C963 C958 1.363 . S
C963 C962 1.415 . S
H964 C961 0.999 . S
H965 C946 0.913 . S
H966 C984 0.951 . S
H967 C986 0.951 . S
H968 C988 0.950 . S
H969 C989 0.950 . S
H970 C991 0.950 . S
H971 C994 0.950 . S
H972 C995 0.950 . S
H973 C997 0.950 . S
H974 C998 0.950 . S
H975 C999 0.951 . S
H976 C1001 0.951 . S
H977 C1003 0.950 . S
H978 C1004 0.950 . S
H979 C1006 0.950 . S
H980 C1009 0.950 . S
H981 C1010 0.950 . S
H982 C1012 0.950 . S
H983 C1013 0.950 . S
C984 H966 0.951 . S
C984 C985 1.366 . S
C984 C986 1.388 . S
C985 C984 1.366 . S
C985 C989 1.385 . S
C986 H967 0.951 . S
C986 C984 1.388 . S
C986 C987 1.366 . S
C987 C986 1.366 . S
C987 C988 1.414 . S
C987 C990 1.499 . S
C988 H968 0.950 . S
C988 C987 1.414 . S
C988 C989 1.374 . S
C989 H969 0.950 . S
C989 C985 1.385 . S
C989 C988 1.374 . S
C990 C987 1.499 . S
C990 C991 1.373 . S
C990 C992 1.389 . S
C991 H970 0.950 . S
C991 C990 1.373 . S
C991 C1007 1.377 . S
C992 C990 1.389 . S
C992 C993 1.524 . S
C992 C1006 1.377 . S
C993 C992 1.524 . S
C993 C994 1.397 . S
C993 C998 1.363 . S
C994 H971 0.950 . S
C994 C993 1.397 . S
C994 C995 1.334 . S
C995 H972 0.950 . S
C995 C994 1.334 . S
C995 C996 1.287 . S
C996 C995 1.287 . S
C996 C997 1.524 . S
C996 H1015 0.913 . S
C997 H973 0.950 . S
C997 C996 1.524 . S
C997 C998 1.415 . S
C998 H974 0.950 . S
C998 C993 1.363 . S
C998 C997 1.415 . S
C999 H975 0.951 . S
C999 C1000 1.366 . S
C999 C1001 1.388 . S
C1000 C999 1.366 . S
C1000 C1004 1.385 . S
C1001 H976 0.951 . S
C1001 C999 1.388 . S
C1001 C1002 1.366 . S
C1002 C1001 1.366 . S
C1002 C1003 1.414 . S
C1002 C1005 1.499 . S
C1003 H977 0.950 . S
C1003 C1002 1.414 . S
C1003 C1004 1.374 . S
C1004 H978 0.950 . S
C1004 C1000 1.385 . S
C1004 C1003 1.374 . S
C1005 C1002 1.499 . S
C1005 C1006 1.373 . S
C1005 C1007 1.389 . S
C1006 H979 0.950 . S
C1006 C992 1.377 . S
C1006 C1005 1.373 . S
C1007 C991 1.377 . S
C1007 C1005 1.389 . S
C1007 C1008 1.524 . S
C1008 C1007 1.524 . S
C1008 C1009 1.397 . S
C1008 C1013 1.363 . S
C1009 H980 0.950 . S
C1009 C1008 1.397 . S
C1009 C1010 1.334 . S
C1010 H981 0.950 . S
C1010 C1009 1.334 . S
C1010 C1011 1.287 . S
C1011 C1010 1.287 . S
C1011 C1012 1.524 . S
C1011 H1014 0.999 . S
C1012 H982 0.950 . S
C1012 C1011 1.524 . S
C1012 C1013 1.415 . S
C1013 H983 0.950 . S
C1013 C1008 1.363 . S
C1013 C1012 1.415 . S
H1014 C1011 0.999 . S
H1015 C996 0.913 . S
H1016 C1034 0.951 . S
H1017 C1036 0.951 . S
H1018 C1038 0.950 . S
H1019 C1039 0.950 . S
H1020 C1041 0.950 . S
H1021 C1044 0.950 . S
H1022 C1045 0.950 . S
H1023 C1047 0.950 . S
H1024 C1048 0.950 . S
H1025 C1049 0.951 . S
H1026 C1051 0.951 . S
H1027 C1053 0.950 . S
H1028 C1054 0.950 . S
H1029 C1056 0.950 . S
H1030 C1059 0.950 . S
H1031 C1060 0.950 . S
H1032 C1062 0.950 . S
H1033 C1063 0.950 . S
C1034 H1016 0.951 . S
C1034 C1035 1.366 . S
C1034 C1036 1.388 . S
C1035 C1034 1.366 . S
C1035 C1039 1.385 . S
C1036 H1017 0.951 . S
C1036 C1034 1.388 . S
C1036 C1037 1.366 . S
C1037 C1036 1.366 . S
C1037 C1038 1.414 . S
C1037 C1040 1.499 . S
C1038 H1018 0.950 . S
C1038 C1037 1.414 . S
C1038 C1039 1.374 . S
C1039 H1019 0.950 . S
C1039 C1035 1.385 . S
C1039 C1038 1.374 . S
C1040 C1037 1.499 . S
C1040 C1041 1.373 . S
C1040 C1042 1.389 . S
C1041 H1020 0.950 . S
C1041 C1040 1.373 . S
C1041 C1057 1.377 . S
C1042 C1040 1.389 . S
C1042 C1043 1.524 . S
C1042 C1056 1.377 . S
C1043 C1042 1.524 . S
C1043 C1044 1.397 . S
C1043 C1048 1.363 1_545 S
C1044 H1021 0.950 . S
C1044 C1043 1.397 . S
C1044 C1045 1.334 . S
C1045 H1022 0.950 . S
C1045 C1044 1.334 . S
C1045 C1046 1.287 1_545 S
C1046 C1045 1.287 1_565 S
C1046 C1047 1.524 . S
C1046 H1065 0.913 . S
C1047 H1023 0.950 . S
C1047 C1046 1.524 . S
C1047 C1048 1.415 . S
C1048 H1024 0.950 . S
C1048 C1043 1.363 1_565 S
C1048 C1047 1.415 . S
C1049 H1025 0.951 . S
C1049 C1050 1.366 . S
C1049 C1051 1.388 . S
C1050 C1049 1.366 . S
C1050 C1054 1.385 1_545 S
C1051 H1026 0.951 . S
C1051 C1049 1.388 . S
C1051 C1052 1.366 . S
C1052 C1051 1.366 . S
C1052 C1053 1.414 1_545 S
C1052 C1055 1.499 . S
C1053 H1027 0.950 . S
C1053 C1052 1.414 1_565 S
C1053 C1054 1.374 . S
C1054 H1028 0.950 . S
C1054 C1050 1.385 1_565 S
C1054 C1053 1.374 . S
C1055 C1052 1.499 . S
C1055 C1056 1.373 . S
C1055 C1057 1.389 . S
C1056 H1029 0.950 . S
C1056 C1042 1.377 . S
C1056 C1055 1.373 . S
C1057 C1041 1.377 . S
C1057 C1055 1.389 . S
C1057 C1058 1.524 . S
C1058 C1057 1.524 . S
C1058 C1059 1.397 . S
C1058 C1063 1.363 . S
C1059 H1030 0.950 . S
C1059 C1058 1.397 . S
C1059 C1060 1.334 . S
C1060 H1031 0.950 . S
C1060 C1059 1.334 . S
C1060 C1061 1.287 . S
C1061 C1060 1.287 . S
C1061 C1062 1.524 . S
C1061 H1064 0.999 . S
C1062 H1032 0.950 . S
C1062 C1061 1.524 . S
C1062 C1063 1.415 . S
C1063 H1033 0.950 . S
C1063 C1058 1.363 . S
C1063 C1062 1.415 . S
H1064 C1061 0.999 . S
H1065 C1046 0.913 . S
H1066 C1084 0.951 . S
H1067 C1086 0.951 . S
H1068 C1088 0.950 . S
H1069 C1089 0.950 . S
H1070 C1091 0.950 . S
H1071 C1094 0.950 . S
H1072 C1095 0.950 . S
H1073 C1097 0.950 . S
H1074 C1098 0.950 . S
H1075 C1099 0.951 . S
H1076 C1101 0.951 . S
H1077 C1103 0.950 . S
H1078 C1104 0.950 . S
H1079 C1106 0.950 . S
H1080 C1109 0.950 . S
H1081 C1110 0.950 . S
H1082 C1112 0.950 . S
H1083 C1113 0.950 . S
C1084 H1066 0.951 . S
C1084 C1085 1.366 . S
C1084 C1086 1.388 . S
C1085 C1084 1.366 . S
C1085 C1089 1.385 . S
C1086 H1067 0.951 . S
C1086 C1084 1.388 . S
C1086 C1087 1.366 . S
C1087 C1086 1.366 . S
C1087 C1088 1.414 . S
C1087 C1090 1.499 . S
C1088 H1068 0.950 . S
C1088 C1087 1.414 . S
C1088 C1089 1.374 . S
C1089 H1069 0.950 . S
C1089 C1085 1.385 . S
C1089 C1088 1.374 . S
C1090 C1087 1.499 . S
C1090 C1091 1.373 . S
C1090 C1092 1.389 . S
C1091 H1070 0.950 . S
C1091 C1090 1.373 . S
C1091 C1107 1.377 . S
C1092 C1090 1.389 . S
C1092 C1093 1.524 . S
C1092 C1106 1.377 . S
C1093 C1092 1.524 . S
C1093 C1094 1.397 . S
C1093 C1098 1.363 . S
C1094 H1071 0.950 . S
C1094 C1093 1.397 . S
C1094 C1095 1.334 . S
C1095 H1072 0.950 . S
C1095 C1094 1.334 . S
C1095 C1096 1.287 . S
C1096 C1095 1.287 . S
C1096 C1097 1.524 . S
C1096 H1115 0.913 . S
C1097 H1073 0.950 . S
C1097 C1096 1.524 . S
C1097 C1098 1.415 . S
C1098 H1074 0.950 . S
C1098 C1093 1.363 . S
C1098 C1097 1.415 . S
C1099 H1075 0.951 . S
C1099 C1100 1.366 . S
C1099 C1101 1.388 . S
C1100 C1099 1.366 . S
C1100 C1104 1.385 . S
C1101 H1076 0.951 . S
C1101 C1099 1.388 . S
C1101 C1102 1.366 . S
C1102 C1101 1.366 . S
C1102 C1103 1.414 . S
C1102 C1105 1.499 . S
C1103 H1077 0.950 . S
C1103 C1102 1.414 . S
C1103 C1104 1.374 . S
C1104 H1078 0.950 . S
C1104 C1100 1.385 . S
C1104 C1103 1.374 . S
C1105 C1102 1.499 . S
C1105 C1106 1.373 . S
C1105 C1107 1.389 . S
C1106 H1079 0.950 . S
C1106 C1092 1.377 . S
C1106 C1105 1.373 . S
C1107 C1091 1.377 . S
C1107 C1105 1.389 . S
C1107 C1108 1.524 . S
C1108 C1107 1.524 . S
C1108 C1109 1.397 . S
C1108 C1113 1.363 . S
C1109 H1080 0.950 . S
C1109 C1108 1.397 . S
C1109 C1110 1.334 . S
C1110 H1081 0.950 . S
C1110 C1109 1.334 . S
C1110 C1111 1.287 . S
C1111 C1110 1.287 . S
C1111 C1112 1.524 . S
C1111 H1114 0.999 . S
C1112 H1082 0.950 . S
C1112 C1111 1.524 . S
C1112 C1113 1.415 . S
C1113 H1083 0.950 . S
C1113 C1108 1.363 . S
C1113 C1112 1.415 . S
H1114 C1111 0.999 . S
H1115 C1096 0.913 . S
H1116 C1134 0.951 . S
H1117 C1136 0.951 . S
H1118 C1138 0.950 . S
H1119 C1139 0.950 . S
H1120 C1141 0.950 . S
H1121 C1144 0.950 . S
H1122 C1145 0.950 . S
H1123 C1147 0.950 . S
H1124 C1148 0.950 . S
H1125 C1149 0.951 . S
H1126 C1151 0.951 . S
H1127 C1153 0.950 . S
H1128 C1154 0.950 . S
H1129 C1156 0.950 . S
H1130 C1159 0.950 . S
H1131 C1160 0.950 . S
H1132 C1162 0.950 . S
H1133 C1163 0.950 . S
C1134 H1116 0.951 . S
C1134 C1135 1.366 . S
C1134 C1136 1.388 . S
C1135 C1134 1.366 . S
C1135 C1139 1.385 . S
C1136 H1117 0.951 . S
C1136 C1134 1.388 . S
C1136 C1137 1.366 . S
C1137 C1136 1.366 . S
C1137 C1138 1.414 . S
C1137 C1140 1.499 . S
C1138 H1118 0.950 . S
C1138 C1137 1.414 . S
C1138 C1139 1.374 . S
C1139 H1119 0.950 . S
C1139 C1135 1.385 . S
C1139 C1138 1.374 . S
C1140 C1137 1.499 . S
C1140 C1141 1.373 . S
C1140 C1142 1.389 . S
C1141 H1120 0.950 . S
C1141 C1140 1.373 . S
C1141 C1157 1.377 . S
C1142 C1140 1.389 . S
C1142 C1143 1.524 . S
C1142 C1156 1.377 . S
C1143 C1142 1.524 . S
C1143 C1144 1.397 . S
C1143 C1148 1.363 . S
C1144 H1121 0.950 . S
C1144 C1143 1.397 . S
C1144 C1145 1.334 . S
C1145 H1122 0.950 . S
C1145 C1144 1.334 . S
C1145 C1146 1.287 . S
C1146 C1145 1.287 . S
C1146 C1147 1.524 . S
C1146 H1165 0.913 . S
C1147 H1123 0.950 . S
C1147 C1146 1.524 . S
C1147 C1148 1.415 . S
C1148 H1124 0.950 . S
C1148 C1143 1.363 . S
C1148 C1147 1.415 . S
C1149 H1125 0.951 . S
C1149 C1150 1.366 . S
C1149 C1151 1.388 1_554 S
C1150 C1149 1.366 . S
C1150 C1154 1.385 . S
C1151 H1126 0.951 . S
C1151 C1149 1.388 1_556 S
C1151 C1152 1.366 . S
C1152 C1151 1.366 . S
C1152 C1153 1.414 . S
C1152 C1155 1.499 . S
C1153 H1127 0.950 . S
C1153 C1152 1.414 . S
C1153 C1154 1.374 1_556 S
C1154 H1128 0.950 . S
C1154 C1150 1.385 . S
C1154 C1153 1.374 1_554 S
C1155 C1152 1.499 . S
C1155 C1156 1.373 . S
C1155 C1157 1.389 . S
C1156 H1129 0.950 . S
C1156 C1142 1.377 . S
C1156 C1155 1.373 . S
C1157 C1141 1.377 . S
C1157 C1155 1.389 . S
C1157 C1158 1.524 . S
C1158 C1157 1.524 . S
C1158 C1159 1.397 . S
C1158 C1163 1.363 . S
C1159 H1130 0.950 . S
C1159 C1158 1.397 . S
C1159 C1160 1.334 . S
C1160 H1131 0.950 . S
C1160 C1159 1.334 . S
C1160 C1161 1.287 . S
C1161 C1160 1.287 . S
C1161 C1162 1.524 . S
C1161 H1164 0.999 . S
C1162 H1132 0.950 . S
C1162 C1161 1.524 . S
C1162 C1163 1.415 . S
C1163 H1133 0.950 . S
C1163 C1158 1.363 . S
C1163 C1162 1.415 . S
H1164 C1161 0.999 . S
H1165 C1146 0.913 . S
H1166 C1184 0.951 . S
H1167 C1186 0.951 . S
H1168 C1188 0.950 . S
H1169 C1189 0.950 . S
H1170 C1191 0.950 . S
H1171 C1194 0.950 . S
H1172 C1195 0.950 . S
H1173 C1197 0.950 . S
H1174 C1198 0.950 . S
H1175 C1199 0.951 . S
H1176 C1201 0.951 . S
H1177 C1203 0.950 . S
H1178 C1204 0.950 . S
H1179 C1206 0.950 . S
H1180 C1209 0.950 . S
H1181 C1210 0.950 . S
H1182 C1212 0.950 . S
H1183 C1213 0.950 . S
C1184 H1166 0.951 . S
C1184 C1185 1.366 . S
C1184 C1186 1.388 . S
C1185 C1184 1.366 . S
C1185 C1189 1.385 . S
C1186 H1167 0.951 . S
C1186 C1184 1.388 . S
C1186 C1187 1.366 . S
C1187 C1186 1.366 . S
C1187 C1188 1.414 . S
C1187 C1190 1.499 . S
C1188 H1168 0.950 . S
C1188 C1187 1.414 . S
C1188 C1189 1.374 . S
C1189 H1169 0.950 . S
C1189 C1185 1.385 . S
C1189 C1188 1.374 . S
C1190 C1187 1.499 . S
C1190 C1191 1.373 . S
C1190 C1192 1.389 . S
C1191 H1170 0.950 . S
C1191 C1190 1.373 . S
C1191 C1207 1.377 . S
C1192 C1190 1.389 . S
C1192 C1193 1.524 . S
C1192 C1206 1.377 . S
C1193 C1192 1.524 . S
C1193 C1194 1.397 . S
C1193 C1198 1.363 . S
C1194 H1171 0.950 . S
C1194 C1193 1.397 . S
C1194 C1195 1.334 . S
C1195 H1172 0.950 . S
C1195 C1194 1.334 . S
C1195 C1196 1.287 . S
C1196 C1195 1.287 . S
C1196 C1197 1.524 . S
C1196 H1215 0.913 . S
C1197 H1173 0.950 . S
C1197 C1196 1.524 . S
C1197 C1198 1.415 . S
C1198 H1174 0.950 . S
C1198 C1193 1.363 . S
C1198 C1197 1.415 . S
C1199 H1175 0.951 . S
C1199 C1200 1.366 . S
C1199 C1201 1.388 . S
C1200 C1199 1.366 . S
C1200 C1204 1.385 . S
C1201 H1176 0.951 . S
C1201 C1199 1.388 . S
C1201 C1202 1.366 . S
C1202 C1201 1.366 . S
C1202 C1203 1.414 . S
C1202 C1205 1.499 . S
C1203 H1177 0.950 . S
C1203 C1202 1.414 . S
C1203 C1204 1.374 . S
C1204 H1178 0.950 . S
C1204 C1200 1.385 . S
C1204 C1203 1.374 . S
C1205 C1202 1.499 . S
C1205 C1206 1.373 . S
C1205 C1207 1.389 . S
C1206 H1179 0.950 . S
C1206 C1192 1.377 . S
C1206 C1205 1.373 . S
C1207 C1191 1.377 . S
C1207 C1205 1.389 . S
C1207 C1208 1.524 . S
C1208 C1207 1.524 . S
C1208 C1209 1.397 . S
C1208 C1213 1.363 . S
C1209 H1180 0.950 . S
C1209 C1208 1.397 . S
C1209 C1210 1.334 . S
C1210 H1181 0.950 . S
C1210 C1209 1.334 . S
C1210 C1211 1.287 . S
C1211 C1210 1.287 . S
C1211 C1212 1.524 . S
C1211 H1214 0.999 . S
C1212 H1182 0.950 . S
C1212 C1211 1.524 . S
C1212 C1213 1.415 . S
C1213 H1183 0.950 . S
C1213 C1208 1.363 . S
C1213 C1212 1.415 . S
H1214 C1211 0.999 . S
H1215 C1196 0.913 . S
H1216 C1234 0.951 . S
H1217 C1236 0.951 . S
H1218 C1238 0.950 . S
H1219 C1239 0.950 . S
H1220 C1241 0.950 . S
H1221 C1244 0.950 . S
H1222 C1245 0.950 . S
H1223 C1247 0.950 . S
H1224 C1248 0.950 . S
H1225 C1249 0.951 . S
H1226 C1251 0.951 . S
H1227 C1253 0.950 . S
H1228 C1254 0.950 . S
H1229 C1256 0.950 . S
H1230 C1259 0.950 . S
H1231 C1260 0.950 . S
H1232 C1262 0.950 . S
H1233 C1263 0.950 . S
C1234 H1216 0.951 . S
C1234 C1235 1.366 . S
C1234 C1236 1.388 . S
C1235 C1234 1.366 . S
C1235 C1239 1.385 . S
C1236 H1217 0.951 . S
C1236 C1234 1.388 . S
C1236 C1237 1.366 . S
C1237 C1236 1.366 . S
C1237 C1238 1.414 . S
C1237 C1240 1.499 . S
C1238 H1218 0.950 . S
C1238 C1237 1.414 . S
C1238 C1239 1.374 . S
C1239 H1219 0.950 . S
C1239 C1235 1.385 . S
C1239 C1238 1.374 . S
C1240 C1237 1.499 . S
C1240 C1241 1.373 . S
C1240 C1242 1.389 . S
C1241 H1220 0.950 . S
C1241 C1240 1.373 . S
C1241 C1257 1.377 . S
C1242 C1240 1.389 . S
C1242 C1243 1.524 . S
C1242 C1256 1.377 . S
C1243 C1242 1.524 . S
C1243 C1244 1.397 . S
C1243 C1248 1.363 . S
C1244 H1221 0.950 . S
C1244 C1243 1.397 . S
C1244 C1245 1.334 . S
C1245 H1222 0.950 . S
C1245 C1244 1.334 . S
C1245 C1246 1.287 . S
C1246 C1245 1.287 . S
C1246 C1247 1.524 . S
C1246 H1265 0.913 . S
C1247 H1223 0.950 . S
C1247 C1246 1.524 . S
C1247 C1248 1.415 . S
C1248 H1224 0.950 . S
C1248 C1243 1.363 . S
C1248 C1247 1.415 . S
C1249 H1225 0.951 . S
C1249 C1250 1.366 . S
C1249 C1251 1.388 . S
C1250 C1249 1.366 . S
C1250 C1254 1.385 . S
C1251 H1226 0.951 . S
C1251 C1249 1.388 . S
C1251 C1252 1.366 . S
C1252 C1251 1.366 . S
C1252 C1253 1.414 . S
C1252 C1255 1.499 . S
C1253 H1227 0.950 . S
C1253 C1252 1.414 . S
C1253 C1254 1.374 . S
C1254 H1228 0.950 . S
C1254 C1250 1.385 . S
C1254 C1253 1.374 . S
C1255 C1252 1.499 . S
C1255 C1256 1.373 . S
C1255 C1257 1.389 . S
C1256 H1229 0.950 . S
C1256 C1242 1.377 . S
C1256 C1255 1.373 . S
C1257 C1241 1.377 . S
C1257 C1255 1.389 . S
C1257 C1258 1.524 . S
C1258 C1257 1.524 . S
C1258 C1259 1.397 . S
C1258 C1263 1.363 . S
C1259 H1230 0.950 . S
C1259 C1258 1.397 . S
C1259 C1260 1.334 . S
C1260 H1231 0.950 . S
C1260 C1259 1.334 . S
C1260 C1261 1.287 . S
C1261 C1260 1.287 . S
C1261 C1262 1.524 . S
C1261 H1264 0.999 . S
C1262 H1232 0.950 . S
C1262 C1261 1.524 . S
C1262 C1263 1.415 . S
C1263 H1233 0.950 . S
C1263 C1258 1.363 . S
C1263 C1262 1.415 . S
H1264 C1261 0.999 . S
H1265 C1246 0.913 . S
H1266 C1284 0.951 . S
H1267 C1286 0.951 . S
H1268 C1288 0.950 . S
H1269 C1289 0.950 . S
H1270 C1291 0.950 . S
H1271 C1294 0.950 . S
H1272 C1295 0.950 . S
H1273 C1297 0.950 . S
H1274 C1298 0.950 . S
H1275 C1299 0.951 . S
H1276 C1301 0.951 . S
H1277 C1303 0.950 . S
H1278 C1304 0.950 . S
H1279 C1306 0.950 . S
H1280 C1309 0.950 . S
H1281 C1310 0.950 . S
H1282 C1312 0.950 . S
H1283 C1313 0.950 . S
C1284 H1266 0.951 . S
C1284 C1285 1.366 . S
C1284 C1286 1.388 . S
C1285 C1284 1.366 . S
C1285 C1289 1.385 . S
C1286 H1267 0.951 . S
C1286 C1284 1.388 . S
C1286 C1287 1.366 . S
C1287 C1286 1.366 . S
C1287 C1288 1.414 . S
C1287 C1290 1.499 . S
C1288 H1268 0.950 . S
C1288 C1287 1.414 . S
C1288 C1289 1.374 . S
C1289 H1269 0.950 . S
C1289 C1285 1.385 . S
C1289 C1288 1.374 . S
C1290 C1287 1.499 . S
C1290 C1291 1.373 . S
C1290 C1292 1.389 . S
C1291 H1270 0.950 . S
C1291 C1290 1.373 . S
C1291 C1307 1.377 . S
C1292 C1290 1.389 . S
C1292 C1293 1.524 . S
C1292 C1306 1.377 . S
C1293 C1292 1.524 . S
C1293 C1294 1.397 . S
C1293 C1298 1.363 . S
C1294 H1271 0.950 . S
C1294 C1293 1.397 . S
C1294 C1295 1.334 . S
C1295 H1272 0.950 . S
C1295 C1294 1.334 . S
C1295 C1296 1.287 . S
C1296 C1295 1.287 . S
C1296 C1297 1.524 . S
C1296 H1315 0.913 . S
C1297 H1273 0.950 . S
C1297 C1296 1.524 . S
C1297 C1298 1.415 . S
C1298 H1274 0.950 . S
C1298 C1293 1.363 . S
C1298 C1297 1.415 . S
C1299 H1275 0.951 . S
C1299 C1300 1.366 . S
C1299 C1301 1.388 . S
C1300 C1299 1.366 . S
C1300 C1304 1.385 . S
C1301 H1276 0.951 . S
C1301 C1299 1.388 . S
C1301 C1302 1.366 . S
C1302 C1301 1.366 . S
C1302 C1303 1.414 . S
C1302 C1305 1.499 . S
C1303 H1277 0.950 . S
C1303 C1302 1.414 . S
C1303 C1304 1.374 . S
C1304 H1278 0.950 . S
C1304 C1300 1.385 . S
C1304 C1303 1.374 . S
C1305 C1302 1.499 . S
C1305 C1306 1.373 . S
C1305 C1307 1.389 . S
C1306 H1279 0.950 . S
C1306 C1292 1.377 . S
C1306 C1305 1.373 . S
C1307 C1291 1.377 . S
C1307 C1305 1.389 . S
C1307 C1308 1.524 . S
C1308 C1307 1.524 . S
C1308 C1309 1.397 . S
C1308 C1313 1.363 . S
C1309 H1280 0.950 . S
C1309 C1308 1.397 . S
C1309 C1310 1.334 . S
C1310 H1281 0.950 . S
C1310 C1309 1.334 . S
C1310 C1311 1.287 . S
C1311 C1310 1.287 . S
C1311 C1312 1.524 . S
C1311 H1314 0.999 . S
C1312 H1282 0.950 . S
C1312 C1311 1.524 . S
C1312 C1313 1.415 . S
C1313 H1283 0.950 . S
C1313 C1308 1.363 . S
C1313 C1312 1.415 . S
H1314 C1311 0.999 . S
H1315 C1296 0.913 . S
H1316 C1334 0.951 . S
H1317 C1336 0.951 . S
H1318 C1338 0.950 . S
H1319 C1339 0.950 . S
H1320 C1341 0.950 . S
H1321 C1344 0.950 . S
H1322 C1345 0.950 . S
H1323 C1347 0.950 . S
H1324 C1348 0.950 . S
H1325 C1349 0.951 . S
H1326 C1351 0.951 . S
H1327 C1353 0.950 . S
H1328 C1354 0.950 . S
H1329 C1356 0.950 . S
H1330 C1359 0.950 . S
H1331 C1360 0.950 . S
H1332 C1362 0.950 . S
H1333 C1363 0.950 . S
C1334 H1316 0.951 . S
C1334 C1335 1.366 . S
C1334 C1336 1.388 . S
C1335 C1334 1.366 . S
C1335 C1339 1.385 . S
C1336 H1317 0.951 . S
C1336 C1334 1.388 . S
C1336 C1337 1.366 . S
C1337 C1336 1.366 . S
C1337 C1338 1.414 . S
C1337 C1340 1.499 . S
C1338 H1318 0.950 . S
C1338 C1337 1.414 . S
C1338 C1339 1.374 . S
C1339 H1319 0.950 . S
C1339 C1335 1.385 . S
C1339 C1338 1.374 . S
C1340 C1337 1.499 . S
C1340 C1341 1.373 . S
C1340 C1342 1.389 . S
C1341 H1320 0.950 . S
C1341 C1340 1.373 . S
C1341 C1357 1.377 . S
C1342 C1340 1.389 . S
C1342 C1343 1.524 . S
C1342 C1356 1.377 . S
C1343 C1342 1.524 . S
C1343 C1344 1.397 . S
C1343 C1348 1.363 . S
C1344 H1321 0.950 . S
C1344 C1343 1.397 . S
C1344 C1345 1.334 . S
C1345 H1322 0.950 . S
C1345 C1344 1.334 . S
C1345 C1346 1.287 . S
C1346 C1345 1.287 . S
C1346 C1347 1.524 . S
C1346 H1365 0.913 . S
C1347 H1323 0.950 . S
C1347 C1346 1.524 . S
C1347 C1348 1.415 . S
C1348 H1324 0.950 . S
C1348 C1343 1.363 . S
C1348 C1347 1.415 . S
C1349 H1325 0.951 . S
C1349 C1350 1.366 . S
C1349 C1351 1.388 . S
C1350 C1349 1.366 . S
C1350 C1354 1.385 . S
C1351 H1326 0.951 . S
C1351 C1349 1.388 . S
C1351 C1352 1.366 . S
C1352 C1351 1.366 . S
C1352 C1353 1.414 . S
C1352 C1355 1.499 . S
C1353 H1327 0.950 . S
C1353 C1352 1.414 . S
C1353 C1354 1.374 . S
C1354 H1328 0.950 . S
C1354 C1350 1.385 . S
C1354 C1353 1.374 . S
C1355 C1352 1.499 . S
C1355 C1356 1.373 . S
C1355 C1357 1.389 . S
C1356 H1329 0.950 . S
C1356 C1342 1.377 . S
C1356 C1355 1.373 . S
C1357 C1341 1.377 . S
C1357 C1355 1.389 . S
C1357 C1358 1.524 . S
C1358 C1357 1.524 . S
C1358 C1359 1.397 . S
C1358 C1363 1.363 . S
C1359 H1330 0.950 . S
C1359 C1358 1.397 . S
C1359 C1360 1.334 . S
C1360 H1331 0.950 . S
C1360 C1359 1.334 . S
C1360 C1361 1.287 . S
C1361 C1360 1.287 . S
C1361 C1362 1.524 . S
C1361 H1364 1.010 . S
C1362 H1332 0.950 . S
C1362 C1361 1.524 . S
C1362 C1363 1.415 . S
C1363 H1333 0.950 . S
C1363 C1358 1.363 . S
C1363 C1362 1.415 . S
H1364 C1361 1.010 . S
H1365 C1346 0.913 . S
H1366 C1384 0.951 . S
H1367 C1386 0.951 . S
H1368 C1388 0.950 . S
H1369 C1389 0.950 . S
H1370 C1391 0.950 . S
H1371 C1394 0.950 . S
H1372 C1395 0.950 . S
H1373 C1397 0.950 . S
H1374 C1398 0.950 . S
H1375 C1399 0.951 . S
H1376 C1401 0.951 . S
H1377 C1403 0.950 . S
H1378 C1404 0.950 . S
H1379 C1406 0.950 . S
H1380 C1409 0.950 . S
H1381 C1410 0.950 . S
H1382 C1412 0.950 . S
H1383 C1413 0.950 . S
C1384 H1366 0.951 . S
C1384 C1385 1.366 . S
C1384 C1386 1.388 . S
C1385 C1384 1.366 . S
C1385 C1389 1.385 . S
C1386 H1367 0.951 . S
C1386 C1384 1.388 . S
C1386 C1387 1.366 . S
C1387 C1386 1.366 . S
C1387 C1388 1.414 . S
C1387 C1390 1.499 . S
C1388 H1368 0.950 . S
C1388 C1387 1.414 . S
C1388 C1389 1.374 . S
C1389 H1369 0.950 . S
C1389 C1385 1.385 . S
C1389 C1388 1.374 . S
C1390 C1387 1.499 . S
C1390 C1391 1.373 . S
C1390 C1392 1.389 . S
C1391 H1370 0.950 . S
C1391 C1390 1.373 . S
C1391 C1407 1.377 . S
C1392 C1390 1.389 . S
C1392 C1393 1.524 . S
C1392 C1406 1.377 . S
C1393 C1392 1.524 . S
C1393 C1394 1.397 . S
C1393 C1398 1.363 . S
C1394 H1371 0.950 . S
C1394 C1393 1.397 . S
C1394 C1395 1.334 . S
C1395 H1372 0.950 . S
C1395 C1394 1.334 . S
C1395 C1396 1.287 . S
C1396 C1395 1.287 . S
C1396 C1397 1.524 . S
C1396 H1415 0.913 . S
C1397 H1373 0.950 . S
C1397 C1396 1.524 . S
C1397 C1398 1.415 . S
C1398 H1374 0.950 . S
C1398 C1393 1.363 . S
C1398 C1397 1.415 . S
C1399 H1375 0.951 . S
C1399 C1400 1.366 . S
C1399 C1401 1.388 . S
C1400 C1399 1.366 . S
C1400 C1404 1.385 . S
C1401 H1376 0.951 . S
C1401 C1399 1.388 . S
C1401 C1402 1.366 . S
C1402 C1401 1.366 . S
C1402 C1403 1.414 . S
C1402 C1405 1.499 . S
C1403 H1377 0.950 . S
C1403 C1402 1.414 . S
C1403 C1404 1.374 . S
C1404 H1378 0.950 . S
C1404 C1400 1.385 . S
C1404 C1403 1.374 . S
C1405 C1402 1.499 . S
C1405 C1406 1.373 . S
C1405 C1407 1.389 . S
C1406 H1379 0.950 . S
C1406 C1392 1.377 . S
C1406 C1405 1.373 . S
C1407 C1391 1.377 . S
C1407 C1405 1.389 . S
C1407 C1408 1.524 . S
C1408 C1407 1.524 . S
C1408 C1409 1.397 . S
C1408 C1413 1.363 . S
C1409 H1380 0.950 . S
C1409 C1408 1.397 . S
C1409 C1410 1.334 . S
C1410 H1381 0.950 . S
C1410 C1409 1.334 . S
C1410 C1411 1.287 . S
C1411 C1410 1.287 . S
C1411 C1412 1.524 . S
C1411 H1414 0.999 . S
C1412 H1382 0.950 . S
C1412 C1411 1.524 . S
C1412 C1413 1.415 . S
C1413 H1383 0.950 . S
C1413 C1408 1.363 . S
C1413 C1412 1.415 . S
H1414 C1411 0.999 . S
H1415 C1396 0.913 . S
H1416 C1434 0.951 . S
H1417 C1436 0.951 . S
H1418 C1438 0.950 . S
H1419 C1439 0.950 . S
H1420 C1441 0.950 . S
H1421 C1444 0.950 . S
H1422 C1445 0.950 . S
H1423 C1447 0.950 . S
H1424 C1448 0.950 . S
H1425 C1449 0.951 . S
H1426 C1451 0.951 . S
H1427 C1453 0.950 . S
H1428 C1454 0.950 . S
H1429 C1456 0.950 . S
H1430 C1459 0.950 . S
H1431 C1460 0.950 . S
H1432 C1462 0.950 . S
H1433 C1463 0.950 . S
C1434 H1416 0.951 . S
C1434 C1435 1.366 . S
C1434 C1436 1.388 . S
C1435 C1434 1.366 . S
C1435 C1439 1.385 . S
C1436 H1417 0.951 . S
C1436 C1434 1.388 . S
C1436 C1437 1.366 . S
C1437 C1436 1.366 . S
C1437 C1438 1.414 . S
C1437 C1440 1.499 . S
C1438 H1418 0.950 . S
C1438 C1437 1.414 . S
C1438 C1439 1.374 . S
C1439 H1419 0.950 . S
C1439 C1435 1.385 . S
C1439 C1438 1.374 . S
C1440 C1437 1.499 . S
C1440 C1441 1.373 . S
C1440 C1442 1.389 . S
C1441 H1420 0.950 . S
C1441 C1440 1.373 . S
C1441 C1457 1.377 . S
C1442 C1440 1.389 . S
C1442 C1443 1.524 . S
C1442 C1456 1.377 . S
C1443 C1442 1.524 . S
C1443 C1444 1.397 . S
C1443 C1448 1.363 . S
C1444 H1421 0.950 . S
C1444 C1443 1.397 . S
C1444 C1445 1.334 . S
C1445 H1422 0.950 . S
C1445 C1444 1.334 . S
C1445 C1446 1.287 . S
C1446 C1445 1.287 . S
C1446 C1447 1.524 . S
C1446 H1465 0.913 . S
C1447 H1423 0.950 . S
C1447 C1446 1.524 . S
C1447 C1448 1.415 . S
C1448 H1424 0.950 . S
C1448 C1443 1.363 . S
C1448 C1447 1.415 . S
C1449 H1425 0.951 . S
C1449 C1450 1.366 . S
C1449 C1451 1.388 . S
C1450 C1449 1.366 . S
C1450 C1454 1.385 . S
C1451 H1426 0.951 . S
C1451 C1449 1.388 . S
C1451 C1452 1.366 . S
C1452 C1451 1.366 . S
C1452 C1453 1.414 . S
C1452 C1455 1.499 . S
C1453 H1427 0.950 . S
C1453 C1452 1.414 . S
C1453 C1454 1.374 . S
C1454 H1428 0.950 . S
C1454 C1450 1.385 . S
C1454 C1453 1.374 . S
C1455 C1452 1.499 . S
C1455 C1456 1.373 . S
C1455 C1457 1.389 . S
C1456 H1429 0.950 . S
C1456 C1442 1.377 . S
C1456 C1455 1.373 . S
C1457 C1441 1.377 . S
C1457 C1455 1.389 . S
C1457 C1458 1.524 . S
C1458 C1457 1.524 . S
C1458 C1459 1.397 . S
C1458 C1463 1.363 . S
C1459 H1430 0.950 . S
C1459 C1458 1.397 . S
C1459 C1460 1.334 . S
C1460 H1431 0.950 . S
C1460 C1459 1.334 . S
C1460 C1461 1.287 . S
C1461 C1460 1.287 . S
C1461 C1462 1.524 . S
C1461 H1464 0.999 . S
C1462 H1432 0.950 . S
C1462 C1461 1.524 . S
C1462 C1463 1.415 . S
C1463 H1433 0.950 . S
C1463 C1458 1.363 . S
C1463 C1462 1.415 . S
H1464 C1461 0.999 . S
H1465 C1446 0.913 . S
H1466 C1484 0.951 . S
H1467 C1486 0.951 . S
H1468 C1488 0.950 . S
H1469 C1489 0.950 . S
H1470 C1491 0.950 . S
H1471 C1494 0.950 . S
H1472 C1495 0.950 . S
H1473 C1497 0.950 . S
H1474 C1498 0.950 . S
H1475 C1499 0.951 . S
H1476 C1501 0.951 . S
H1477 C1503 0.950 . S
H1478 C1504 0.950 . S
H1479 C1506 0.950 . S
H1480 C1509 0.950 . S
H1481 C1510 0.950 . S
H1482 C1512 0.950 . S
H1483 C1513 0.950 . S
C1484 H1466 0.951 . S
C1484 C1485 1.366 . S
C1484 C1486 1.388 . S
C1485 C1484 1.366 . S
C1485 C1489 1.385 . S
C1486 H1467 0.951 . S
C1486 C1484 1.388 . S
C1486 C1487 1.366 . S
C1487 C1486 1.366 . S
C1487 C1488 1.414 . S
C1487 C1490 1.499 . S
C1488 H1468 0.950 . S
C1488 C1487 1.414 . S
C1488 C1489 1.374 . S
C1489 H1469 0.950 . S
C1489 C1485 1.385 . S
C1489 C1488 1.374 . S
C1490 C1487 1.499 . S
C1490 C1491 1.373 . S
C1490 C1492 1.389 . S
C1491 H1470 0.950 . S
C1491 C1490 1.373 . S
C1491 C1507 1.377 . S
C1492 C1490 1.389 . S
C1492 C1493 1.524 . S
C1492 C1506 1.377 . S
C1493 C1492 1.524 . S
C1493 C1494 1.397 . S
C1493 C1498 1.363 . S
C1494 H1471 0.950 . S
C1494 C1493 1.397 . S
C1494 C1495 1.334 . S
C1495 H1472 0.950 . S
C1495 C1494 1.334 . S
C1495 C1496 1.287 . S
C1496 C1495 1.287 . S
C1496 C1497 1.524 . S
C1496 H1515 0.913 . S
C1497 H1473 0.950 . S
C1497 C1496 1.524 . S
C1497 C1498 1.415 . S
C1498 H1474 0.950 . S
C1498 C1493 1.363 . S
C1498 C1497 1.415 . S
C1499 H1475 0.951 . S
C1499 C1500 1.366 . S
C1499 C1501 1.388 . S
C1500 C1499 1.366 . S
C1500 C1504 1.385 . S
C1501 H1476 0.951 . S
C1501 C1499 1.388 . S
C1501 C1502 1.366 . S
C1502 C1501 1.366 . S
C1502 C1503 1.414 . S
C1502 C1505 1.499 . S
C1503 H1477 0.950 . S
C1503 C1502 1.414 . S
C1503 C1504 1.374 . S
C1504 H1478 0.950 . S
C1504 C1500 1.385 . S
C1504 C1503 1.374 . S
C1505 C1502 1.499 . S
C1505 C1506 1.373 . S
C1505 C1507 1.389 . S
C1506 H1479 0.950 . S
C1506 C1492 1.377 . S
C1506 C1505 1.373 . S
C1507 C1491 1.377 . S
C1507 C1505 1.389 . S
C1507 C1508 1.524 . S
C1508 C1507 1.524 . S
C1508 C1509 1.397 . S
C1508 C1513 1.363 . S
C1509 H1480 0.950 . S
C1509 C1508 1.397 . S
C1509 C1510 1.334 . S
C1510 H1481 0.950 . S
C1510 C1509 1.334 . S
C1510 C1511 1.287 . S
C1511 C1510 1.287 . S
C1511 C1512 1.524 . S
C1511 H1514 0.999 . S
C1512 H1482 0.950 . S
C1512 C1511 1.524 . S
C1512 C1513 1.415 . S
C1513 H1483 0.950 . S
C1513 C1508 1.363 . S
C1513 C1512 1.415 . S
H1514 C1511 0.999 . S
H1515 C1496 0.913 . S
H1516 C1534 0.951 . S
H1517 C1536 0.951 . S
H1518 C1538 0.950 . S
H1519 C1539 0.950 . S
H1520 C1541 0.950 . S
H1521 C1544 0.950 . S
H1522 C1545 0.950 . S
H1523 C1547 0.950 . S
H1524 C1548 0.950 . S
H1525 C1549 0.951 . S
H1526 C1551 0.951 . S
H1527 C1553 0.950 . S
H1528 C1554 0.950 . S
H1529 C1556 0.950 . S
H1530 C1559 0.950 . S
H1531 C1560 0.950 . S
H1532 C1562 0.950 . S
H1533 C1563 0.950 . S
C1534 H1516 0.951 . S
C1534 C1535 1.366 . S
C1534 C1536 1.388 . S
C1535 C1534 1.366 . S
C1535 C1539 1.385 . S
C1536 H1517 0.951 . S
C1536 C1534 1.388 . S
C1536 C1537 1.366 . S
C1537 C1536 1.366 . S
C1537 C1538 1.414 . S
C1537 C1540 1.499 . S
C1538 H1518 0.950 . S
C1538 C1537 1.414 . S
C1538 C1539 1.374 . S
C1539 H1519 0.950 . S
C1539 C1535 1.385 . S
C1539 C1538 1.374 . S
C1540 C1537 1.499 . S
C1540 C1541 1.373 . S
C1540 C1542 1.389 . S
C1541 H1520 0.950 . S
C1541 C1540 1.373 . S
C1541 C1557 1.377 . S
C1542 C1540 1.389 . S
C1542 C1543 1.524 . S
C1542 C1556 1.377 . S
C1543 C1542 1.524 . S
C1543 C1544 1.397 . S
C1543 C1548 1.363 . S
C1544 H1521 0.950 . S
C1544 C1543 1.397 . S
C1544 C1545 1.334 . S
C1545 H1522 0.950 . S
C1545 C1544 1.334 . S
C1545 C1546 1.287 . S
C1546 C1545 1.287 . S
C1546 C1547 1.524 . S
C1546 H1565 0.913 . S
C1547 H1523 0.950 . S
C1547 C1546 1.524 . S
C1547 C1548 1.415 . S
C1548 H1524 0.950 . S
C1548 C1543 1.363 . S
C1548 C1547 1.415 . S
C1549 H1525 0.951 . S
C1549 C1550 1.366 . S
C1549 C1551 1.388 . S
C1550 C1549 1.366 . S
C1550 C1554 1.385 . S
C1551 H1526 0.951 . S
C1551 C1549 1.388 . S
C1551 C1552 1.366 . S
C1552 C1551 1.366 . S
C1552 C1553 1.414 . S
C1552 C1555 1.499 . S
C1553 H1527 0.950 . S
C1553 C1552 1.414 . S
C1553 C1554 1.374 . S
C1554 H1528 0.950 . S
C1554 C1550 1.385 . S
C1554 C1553 1.374 . S
C1555 C1552 1.499 . S
C1555 C1556 1.373 . S
C1555 C1557 1.389 . S
C1556 H1529 0.950 . S
C1556 C1542 1.377 . S
C1556 C1555 1.373 . S
C1557 C1541 1.377 . S
C1557 C1555 1.389 . S
C1557 C1558 1.524 . S
C1558 C1557 1.524 . S
C1558 C1559 1.397 . S
C1558 C1563 1.363 . S
C1559 H1530 0.950 . S
C1559 C1558 1.397 . S
C1559 C1560 1.334 . S
C1560 H1531 0.950 . S
C1560 C1559 1.334 . S
C1560 C1561 1.287 . S
C1561 C1560 1.287 . S
C1561 C1562 1.524 . S
C1561 H1564 0.999 . S
C1562 H1532 0.950 . S
C1562 C1561 1.524 . S
C1562 C1563 1.415 . S
C1563 H1533 0.950 . S
C1563 C1558 1.363 . S
C1563 C1562 1.415 . S
H1564 C1561 0.999 . S
H1565 C1546 0.913 . S
H1566 C1584 0.951 . S
H1567 C1586 0.951 . S
H1568 C1588 0.950 . S
H1569 C1589 0.950 . S
H1570 C1591 0.950 . S
H1571 C1594 0.950 . S
H1572 C1595 0.950 . S
H1573 C1597 0.950 . S
H1574 C1598 0.950 . S
H1575 C1599 0.951 . S
H1576 C1601 0.951 . S
H1577 C1603 0.950 . S
H1578 C1604 0.950 . S
H1579 C1606 0.950 . S
H1580 C1609 0.950 . S
H1581 C1610 0.950 . S
H1582 C1612 0.950 . S
H1583 C1613 0.950 . S
C1584 H1566 0.951 . S
C1584 C1585 1.366 . S
C1584 C1586 1.388 1_455 S
C1585 C1584 1.366 . S
C1585 C1589 1.385 1_455 S
C1586 H1567 0.951 . S
C1586 C1584 1.388 1_655 S
C1586 C1587 1.366 . S
C1587 C1586 1.366 . S
C1587 C1588 1.414 . S
C1587 C1590 1.499 . S
C1588 H1568 0.950 . S
C1588 C1587 1.414 . S
C1588 C1589 1.374 . S
C1589 H1569 0.950 . S
C1589 C1585 1.385 1_655 S
C1589 C1588 1.374 . S
C1590 C1587 1.499 . S
C1590 C1591 1.373 . S
C1590 C1592 1.389 . S
C1591 H1570 0.950 . S
C1591 C1590 1.373 . S
C1591 C1607 1.377 . S
C1592 C1590 1.389 . S
C1592 C1593 1.524 . S
C1592 C1606 1.377 . S
C1593 C1592 1.524 . S
C1593 C1594 1.397 . S
C1593 C1598 1.363 . S
C1594 H1571 0.950 . S
C1594 C1593 1.397 . S
C1594 C1595 1.334 . S
C1595 H1572 0.950 . S
C1595 C1594 1.334 . S
C1595 C1596 1.287 . S
C1596 C1595 1.287 . S
C1596 C1597 1.524 . S
C1596 H1615 0.913 . S
C1597 H1573 0.950 . S
C1597 C1596 1.524 . S
C1597 C1598 1.415 . S
C1598 H1574 0.950 . S
C1598 C1593 1.363 . S
C1598 C1597 1.415 . S
C1599 H1575 0.951 . S
C1599 C1600 1.366 . S
C1599 C1601 1.388 . S
C1600 C1599 1.366 . S
C1600 C1604 1.385 . S
C1601 H1576 0.951 . S
C1601 C1599 1.388 . S
C1601 C1602 1.366 . S
C1602 C1601 1.366 . S
C1602 C1603 1.414 . S
C1602 C1605 1.499 . S
C1603 H1577 0.950 . S
C1603 C1602 1.414 . S
C1603 C1604 1.374 . S
C1604 H1578 0.950 . S
C1604 C1600 1.385 . S
C1604 C1603 1.374 . S
C1605 C1602 1.499 . S
C1605 C1606 1.373 . S
C1605 C1607 1.389 . S
C1606 H1579 0.950 . S
C1606 C1592 1.377 . S
C1606 C1605 1.373 . S
C1607 C1591 1.377 . S
C1607 C1605 1.389 . S
C1607 C1608 1.524 . S
C1608 C1607 1.524 . S
C1608 C1609 1.397 . S
C1608 C1613 1.363 . S
C1609 H1580 0.950 . S
C1609 C1608 1.397 . S
C1609 C1610 1.334 . S
C1610 H1581 0.950 . S
C1610 C1609 1.334 . S
C1610 C1611 1.287 . S
C1611 C1610 1.287 . S
C1611 C1612 1.524 . S
C1611 H1614 0.999 . S
C1612 H1582 0.950 . S
C1612 C1611 1.524 . S
C1612 C1613 1.415 . S
C1613 H1583 0.950 . S
C1613 C1608 1.363 . S
C1613 C1612 1.415 . S
H1614 C1611 0.999 . S
H1615 C1596 0.913 . S
H1616 C1634 0.951 . S
H1617 C1636 0.951 . S
H1618 C1638 0.950 . S
H1619 C1639 0.950 . S
H1620 C1641 0.950 . S
H1621 C1644 0.950 . S
H1622 C1645 0.950 . S
H1623 C1647 0.950 . S
H1624 C1648 0.950 . S
H1625 C1649 0.951 . S
H1626 C1651 0.951 . S
H1627 C1653 0.950 . S
H1628 C1654 0.950 . S
H1629 C1656 0.950 . S
H1630 C1659 0.950 . S
H1631 C1660 0.950 . S
H1632 C1662 0.950 . S
H1633 C1663 0.950 . S
C1634 H1616 0.951 . S
C1634 C1635 1.366 . S
C1634 C1636 1.388 . S
C1635 C1634 1.366 . S
C1635 C1639 1.385 . S
C1636 H1617 0.951 . S
C1636 C1634 1.388 . S
C1636 C1637 1.366 . S
C1637 C1636 1.366 . S
C1637 C1638 1.414 . S
C1637 C1640 1.499 . S
C1638 H1618 0.950 . S
C1638 C1637 1.414 . S
C1638 C1639 1.374 . S
C1639 H1619 0.950 . S
C1639 C1635 1.385 . S
C1639 C1638 1.374 . S
C1640 C1637 1.499 . S
C1640 C1641 1.373 . S
C1640 C1642 1.389 . S
C1641 H1620 0.950 . S
C1641 C1640 1.373 . S
C1641 C1657 1.377 . S
C1642 C1640 1.389 . S
C1642 C1643 1.524 . S
C1642 C1656 1.377 . S
C1643 C1642 1.524 . S
C1643 C1644 1.397 . S
C1643 C1648 1.363 . S
C1644 H1621 0.950 . S
C1644 C1643 1.397 . S
C1644 C1645 1.334 . S
C1645 H1622 0.950 . S
C1645 C1644 1.334 . S
C1645 C1646 1.287 . S
C1646 C1645 1.287 . S
C1646 C1647 1.524 . S
C1646 H1665 0.913 . S
C1647 H1623 0.950 . S
C1647 C1646 1.524 . S
C1647 C1648 1.415 . S
C1648 H1624 0.950 . S
C1648 C1643 1.363 . S
C1648 C1647 1.415 . S
C1649 H1625 0.951 . S
C1649 C1650 1.366 . S
C1649 C1651 1.388 . S
C1650 C1649 1.366 . S
C1650 C1654 1.385 . S
C1651 H1626 0.951 . S
C1651 C1649 1.388 . S
C1651 C1652 1.366 . S
C1652 C1651 1.366 . S
C1652 C1653 1.414 . S
C1652 C1655 1.499 . S
C1653 H1627 0.950 . S
C1653 C1652 1.414 . S
C1653 C1654 1.374 . S
C1654 H1628 0.950 . S
C1654 C1650 1.385 . S
C1654 C1653 1.374 . S
C1655 C1652 1.499 . S
C1655 C1656 1.373 . S
C1655 C1657 1.389 . S
C1656 H1629 0.950 . S
C1656 C1642 1.377 . S
C1656 C1655 1.373 . S
C1657 C1641 1.377 . S
C1657 C1655 1.389 . S
C1657 C1658 1.524 . S
C1658 C1657 1.524 . S
C1658 C1659 1.397 . S
C1658 C1663 1.363 . S
C1659 H1630 0.950 . S
C1659 C1658 1.397 . S
C1659 C1660 1.334 . S
C1660 H1631 0.950 . S
C1660 C1659 1.334 . S
C1660 C1661 1.287 . S
C1661 C1660 1.287 . S
C1661 C1662 1.524 . S
C1661 H1664 0.999 . S
C1662 H1632 0.950 . S
C1662 C1661 1.524 . S
C1662 C1663 1.415 . S
C1663 H1633 0.950 . S
C1663 C1658 1.363 . S
C1663 C1662 1.415 . S
H1664 C1661 0.999 . S
H1665 C1646 0.913 . S
H1666 C1684 0.951 . S
H1667 C1686 0.951 . S
H1668 C1688 0.950 . S
H1669 C1689 0.950 . S
H1670 C1691 0.950 . S
H1671 C1694 0.950 . S
H1672 C1695 0.950 . S
H1673 C1697 0.950 . S
H1674 C1698 0.950 . S
H1675 C1699 0.951 . S
H1676 C1701 0.951 . S
H1677 C1703 0.950 . S
H1678 C1704 0.950 . S
H1679 C1706 0.950 . S
H1680 C1709 0.950 . S
H1681 C1710 0.950 . S
H1682 C1712 0.950 . S
H1683 C1713 0.950 . S
C1684 H1666 0.951 . S
C1684 C1685 1.366 . S
C1684 C1686 1.388 . S
C1685 C1684 1.366 . S
C1685 C1689 1.385 . S
C1686 H1667 0.951 . S
C1686 C1684 1.388 . S
C1686 C1687 1.366 . S
C1687 C1686 1.366 . S
C1687 C1688 1.414 . S
C1687 C1690 1.499 . S
C1688 H1668 0.950 . S
C1688 C1687 1.414 . S
C1688 C1689 1.374 . S
C1689 H1669 0.950 . S
C1689 C1685 1.385 . S
C1689 C1688 1.374 . S
C1690 C1687 1.499 . S
C1690 C1691 1.373 . S
C1690 C1692 1.389 . S
C1691 H1670 0.950 . S
C1691 C1690 1.373 . S
C1691 C1707 1.377 . S
C1692 C1690 1.389 . S
C1692 C1693 1.524 . S
C1692 C1706 1.377 . S
C1693 C1692 1.524 . S
C1693 C1694 1.397 . S
C1693 C1698 1.363 . S
C1694 H1671 0.950 . S
C1694 C1693 1.397 . S
C1694 C1695 1.334 . S
C1695 H1672 0.950 . S
C1695 C1694 1.334 . S
C1695 C1696 1.287 . S
C1696 C1695 1.287 . S
C1696 C1697 1.524 . S
C1696 H1715 0.913 . S
C1697 H1673 0.950 . S
C1697 C1696 1.524 . S
C1697 C1698 1.415 . S
C1698 H1674 0.950 . S
C1698 C1693 1.363 . S
C1698 C1697 1.415 . S
C1699 H1675 0.951 . S
C1699 C1700 1.366 . S
C1699 C1701 1.388 . S
C1700 C1699 1.366 . S
C1700 C1704 1.385 . S
C1701 H1676 0.951 . S
C1701 C1699 1.388 . S
C1701 C1702 1.366 . S
C1702 C1701 1.366 . S
C1702 C1703 1.414 . S
C1702 C1705 1.499 . S
C1703 H1677 0.950 . S
C1703 C1702 1.414 . S
C1703 C1704 1.374 . S
C1704 H1678 0.950 . S
C1704 C1700 1.385 . S
C1704 C1703 1.374 . S
C1705 C1702 1.499 . S
C1705 C1706 1.373 . S
C1705 C1707 1.389 . S
C1706 H1679 0.950 . S
C1706 C1692 1.377 . S
C1706 C1705 1.373 . S
C1707 C1691 1.377 . S
C1707 C1705 1.389 . S
C1707 C1708 1.524 . S
C1708 C1707 1.524 . S
C1708 C1709 1.397 . S
C1708 C1713 1.363 . S
C1709 H1680 0.950 . S
C1709 C1708 1.397 . S
C1709 C1710 1.334 . S
C1710 H1681 0.950 . S
C1710 C1709 1.334 . S
C1710 C1711 1.287 . S
C1711 C1710 1.287 . S
C1711 C1712 1.524 . S
C1711 H1714 0.999 . S
C1712 H1682 0.950 . S
C1712 C1711 1.524 . S
C1712 C1713 1.415 . S
C1713 H1683 0.950 . S
C1713 C1708 1.363 . S
C1713 C1712 1.415 . S
H1714 C1711 0.999 . S
H1715 C1696 0.913 . S
H1716 C1734 0.951 . S
H1717 C1736 0.951 . S
H1718 C1738 0.950 . S
H1719 C1739 0.950 . S
H1720 C1741 0.950 . S
H1721 C1744 0.950 . S
H1722 C1745 0.950 . S
H1723 C1747 0.950 . S
H1724 C1748 0.950 . S
H1725 C1749 0.951 . S
H1726 C1751 0.951 . S
H1727 C1753 0.950 . S
H1728 C1754 0.950 . S
H1729 C1756 0.950 . S
H1730 C1759 0.950 . S
H1731 C1760 0.950 . S
H1732 C1762 0.950 . S
H1733 C1763 0.950 . S
C1734 H1716 0.951 . S
C1734 C1735 1.366 . S
C1734 C1736 1.388 . S
C1735 C1734 1.366 . S
C1735 C1739 1.385 . S
C1736 H1717 0.951 . S
C1736 C1734 1.388 . S
C1736 C1737 1.366 . S
C1737 C1736 1.366 . S
C1737 C1738 1.414 . S
C1737 C1740 1.499 . S
C1738 H1718 0.950 . S
C1738 C1737 1.414 . S
C1738 C1739 1.374 . S
C1739 H1719 0.950 . S
C1739 C1735 1.385 . S
C1739 C1738 1.374 . S
C1740 C1737 1.499 . S
C1740 C1741 1.373 . S
C1740 C1742 1.389 . S
C1741 H1720 0.950 . S
C1741 C1740 1.373 . S
C1741 C1757 1.377 . S
C1742 C1740 1.389 . S
C1742 C1743 1.524 . S
C1742 C1756 1.377 . S
C1743 C1742 1.524 . S
C1743 C1744 1.397 . S
C1743 C1748 1.363 . S
C1744 H1721 0.950 . S
C1744 C1743 1.397 . S
C1744 C1745 1.334 1_655 S
C1745 H1722 0.950 . S
C1745 C1744 1.334 1_455 S
C1745 C1746 1.287 . S
C1746 C1745 1.287 . S
C1746 C1747 1.524 1_455 S
C1746 H1765 0.913 . S
C1747 H1723 0.950 . S
C1747 C1746 1.524 1_655 S
C1747 C1748 1.415 . S
C1748 H1724 0.950 . S
C1748 C1743 1.363 . S
C1748 C1747 1.415 . S
C1749 H1725 0.951 . S
C1749 C1750 1.366 . S
C1749 C1751 1.388 . S
C1750 C1749 1.366 . S
C1750 C1754 1.385 . S
C1751 H1726 0.951 . S
C1751 C1749 1.388 . S
C1751 C1752 1.366 . S
C1752 C1751 1.366 . S
C1752 C1753 1.414 . S
C1752 C1755 1.499 . S
C1753 H1727 0.950 . S
C1753 C1752 1.414 . S
C1753 C1754 1.374 . S
C1754 H1728 0.950 . S
C1754 C1750 1.385 . S
C1754 C1753 1.374 . S
C1755 C1752 1.499 . S
C1755 C1756 1.373 . S
C1755 C1757 1.389 . S
C1756 H1729 0.950 . S
C1756 C1742 1.377 . S
C1756 C1755 1.373 . S
C1757 C1741 1.377 . S
C1757 C1755 1.389 . S
C1757 C1758 1.524 . S
C1758 C1757 1.524 . S
C1758 C1759 1.397 . S
C1758 C1763 1.363 . S
C1759 H1730 0.950 . S
C1759 C1758 1.397 . S
C1759 C1760 1.334 . S
C1760 H1731 0.950 . S
C1760 C1759 1.334 . S
C1760 C1761 1.287 . S
C1761 C1760 1.287 . S
C1761 C1762 1.524 . S
C1761 H1764 0.999 . S
C1762 H1732 0.950 . S
C1762 C1761 1.524 . S
C1762 C1763 1.415 . S
C1763 H1733 0.950 . S
C1763 C1758 1.363 . S
C1763 C1762 1.415 . S
H1764 C1761 0.999 . S
H1765 C1746 0.913 . S
H1766 C1784 0.951 . S
H1767 C1786 0.951 . S
H1768 C1788 0.950 . S
H1769 C1789 0.950 . S
H1770 C1791 0.950 . S
H1771 C1794 0.950 . S
H1772 C1795 0.950 . S
H1773 C1797 0.950 . S
H1774 C1798 0.950 . S
H1775 C1799 0.951 . S
H1776 C1801 0.951 . S
H1777 C1803 0.950 . S
H1778 C1804 0.950 . S
H1779 C1806 0.950 . S
H1780 C1809 0.950 . S
H1781 C1810 0.950 . S
H1782 C1812 0.950 . S
H1783 C1813 0.950 . S
C1784 H1766 0.951 . S
C1784 C1785 1.366 . S
C1784 C1786 1.388 . S
C1785 C1784 1.366 . S
C1785 C1789 1.385 . S
C1786 H1767 0.951 . S
C1786 C1784 1.388 . S
C1786 C1787 1.366 . S
C1787 C1786 1.366 . S
C1787 C1788 1.414 . S
C1787 C1790 1.499 . S
C1788 H1768 0.950 . S
C1788 C1787 1.414 . S
C1788 C1789 1.374 . S
C1789 H1769 0.950 . S
C1789 C1785 1.385 . S
C1789 C1788 1.374 . S
C1790 C1787 1.499 . S
C1790 C1791 1.373 . S
C1790 C1792 1.389 . S
C1791 H1770 0.950 . S
C1791 C1790 1.373 . S
C1791 C1807 1.377 . S
C1792 C1790 1.389 . S
C1792 C1793 1.524 . S
C1792 C1806 1.377 . S
C1793 C1792 1.524 . S
C1793 C1794 1.397 . S
C1793 C1798 1.363 . S
C1794 H1771 0.950 . S
C1794 C1793 1.397 . S
C1794 C1795 1.334 . S
C1795 H1772 0.950 . S
C1795 C1794 1.334 . S
C1795 C1796 1.287 . S
C1796 C1795 1.287 . S
C1796 C1797 1.524 . S
C1796 H1815 0.913 . S
C1797 H1773 0.950 . S
C1797 C1796 1.524 . S
C1797 C1798 1.415 . S
C1798 H1774 0.950 . S
C1798 C1793 1.363 . S
C1798 C1797 1.415 . S
C1799 H1775 0.951 . S
C1799 C1800 1.366 . S
C1799 C1801 1.388 . S
C1800 C1799 1.366 . S
C1800 C1804 1.385 . S
C1801 H1776 0.951 . S
C1801 C1799 1.388 . S
C1801 C1802 1.366 . S
C1802 C1801 1.366 . S
C1802 C1803 1.414 . S
C1802 C1805 1.499 . S
C1803 H1777 0.950 . S
C1803 C1802 1.414 . S
C1803 C1804 1.374 . S
C1804 H1778 0.950 . S
C1804 C1800 1.385 . S
C1804 C1803 1.374 . S
C1805 C1802 1.499 . S
C1805 C1806 1.373 . S
C1805 C1807 1.389 . S
C1806 H1779 0.950 . S
C1806 C1792 1.377 . S
C1806 C1805 1.373 . S
C1807 C1791 1.377 . S
C1807 C1805 1.389 . S
C1807 C1808 1.524 . S
C1808 C1807 1.524 . S
C1808 C1809 1.397 . S
C1808 C1813 1.363 . S
C1809 H1780 0.950 . S
C1809 C1808 1.397 . S
C1809 C1810 1.334 . S
C1810 H1781 0.950 . S
C1810 C1809 1.334 . S
C1810 C1811 1.287 . S
C1811 C1810 1.287 . S
C1811 C1812 1.524 . S
C1811 H1814 0.999 . S
C1812 H1782 0.950 . S
C1812 C1811 1.524 . S
C1812 C1813 1.415 . S
C1813 H1783 0.950 . S
C1813 C1808 1.363 . S
C1813 C1812 1.415 . S
H1814 C1811 0.999 . S
H1815 C1796 0.913 . S
C250 C124 1.238 . S
C235 C5 1.233 . S
C300 C141 1.425 . S
C285 C18 1.456 . S
C350 C155 1.607 . S
C335 C31 1.628 . S
C385 C42 1.383 . S
C400 C113 1.335 . S
C435 C57 0.995 . S
C450 C110 0.971 . S
C485 C70 0.910 . S
C500 C127 0.880 . S
C550 C138 1.380 1_545 S
C535 C81 1.360 . S
C600 C152 1.120 . S
C585 C96 1.155 . S
C635 C29 1.109 . S
C650 C180 1.117 . S
C700 C194 1.382 . S
C685 C44 1.422 . S
C735 C3 0.888 . S
C750 C211 0.873 . S
C800 C166 1.006 . S
C785 C16 0.991 . S
C835 C83 1.345 . S
C850 C169 1.324 . S
C885 C94 1.646 . S
C900 C183 1.592 . S
C950 C197 1.444 . S
C935 C55 1.502 . S
C985 C68 1.217 . S
C1000 C208 1.221 . S
C1050 C140 1.775 1_545 S
C1035 C1 1.751 . S
C1100 C154 1.864 . S
C1085 C14 1.809 . S
C1135 C27 1.722 . S
C1150 C112 1.772 . S
C1185 C49 1.697 . S
C1200 C125 1.610 . S
C1235 C53 1.343 . S
C1250 C153 1.240 . S
C1300 C111 1.115 . S
C1285 C66 1.196 . S
C1350 C126 1.545 . S
C1335 C88 1.555 1_565 S
C1400 C139 1.369 . S
C1385 C92 1.479 . S
C1450 C195 1.379 . S
C1435 C36 1.480 . S
C1500 C210 1.535 . S
C1485 C40 1.561 . S
C1535 C10 1.236 . S
C1550 C167 1.141 . S
C1600 C181 1.232 . S
C1585 C23 1.325 . S
C1650 C209 1.607 . S
C1635 C79 1.632 . S
C1685 C101 1.806 . S
C1700 C168 1.790 . S
C1750 C182 1.856 . S
C1735 C62 1.871 . S
C1800 C196 1.778 . S
C1785 C75 1.795 . S
