# Generated by pormake.
# Topology scu, (8,4)-cn, num edge types: 1
# Building blocks:
#     Node 0, Type 0, BuildingBlock: VETTIZ_charged_sbu_0, # of connection points: 8
#     Node 1, Type 1, BuildingBlock: KOZSID_clean_sbu_0, # of connection points: 4
#     Node 2, Type 1, BuildingBlock: KOZSID_clean_sbu_0, # of connection points: 4
#     Edge 3, Type (0, 1), BuildingBlock: UVAHIK_clean_linker_0, # of connection points: 2
#     Edge 4, Type (0, 1), BuildingBlock: UVAHIK_clean_linker_0, # of connection points: 2
#     Edge 5, Type (0, 1), BuildingBlock: UVAHIK_clean_linker_0, # of connection points: 2
#     Edge 6, Type (0, 1), BuildingBlock: UVAHIK_clean_linker_0, # of connection points: 2
#     Edge 7, Type (0, 1), BuildingBlock: UVAHIK_clean_linker_0, # of connection points: 2
#     Edge 8, Type (0, 1), BuildingBlock: UVAHIK_clean_linker_0, # of connection points: 2
#     Edge 9, Type (0, 1), BuildingBlock: UVAHIK_clean_linker_0, # of connection points: 2
#     Edge 10, Type (0, 1), BuildingBlock: UVAHIK_clean_linker_0, # of connection points: 2
# Relax obj value: 0.001
# Max RMSD: 0.023
# Mean RMSD: 0.014
data_MOF--net-scu--node1-VETTIZ_charged_sbu_0--node2-KOZSID_clean_sbu_0--edge1-UVAHIK_clean_linker_0
_symmetry_space_group_name_H-M    P1
_symmetry_Int_Tables_number       1
_symmetry_cell_setting            triclinic
loop_
_symmetry_equiv_pos_as_xyz
'x, y, z'
_cell_length_a     35.775713
_cell_length_b     35.809604
_cell_length_c     25.791403
_cell_angle_alpha  87.034259
_cell_angle_beta   86.905927
_cell_angle_gamma 91.441096
loop_
_atom_site_label
_atom_site_type_symbol
_atom_site_fract_x
_atom_site_fract_y
_atom_site_fract_z
_atom_type_partial_charge
Fe0 Fe 0.98229 0.98106 0.12151 0.0
O1 O 0.98457 0.98635 0.04521 0.0
Fe2 Fe 0.03429 0.9715 1.00476 0.0
Fe3 Fe 0.97541 0.03449 0.00567 0.0
O4 O 0.98726 0.9836 0.04523 0.0
O5 O 0.02555 0.01998 0.96579 0.0
O6 O 0.02288 0.02286 0.96586 0.0
Fe7 Fe 0.02756 0.02574 0.88959 0.0
C8 C 0.90956 0.01517 0.08779 0.0
O9 O 0.98441 0.03798 0.13172 0.0
O10 O 0.00548 0.06493 0.05558 0.0
O11 O 0.08369 0.01792 0.89886 0.0
O12 O 0.08326 0.9661 0.95635 0.0
O13 O 0.06719 0.99918 0.05439 0.0
O14 O 0.03932 0.98013 0.13096 0.0
O15 O 0.97352 0.08458 0.95851 0.0
O16 O 0.02538 0.08202 0.90153 0.0
C17 C 0.0677 0.99346 0.10346 0.0
O18 O 0.02447 0.96905 0.87903 0.0
O19 O 1.00336 0.94153 0.95476 0.0
O20 O 0.92598 0.98745 0.11095 0.0
O21 O 0.92595 0.03918 0.0534 0.0
C22 C 0.9993 0.06572 0.10455 0.0
C23 C 0.9986 0.09992 0.92461 0.0
C24 C 0.94242 0.01387 0.90687 0.0
O25 O 0.94318 0.0061 0.95551 0.0
O26 O 0.97074 0.02843 0.88061 0.0
C27 C 0.09931 0.9891 0.9204 0.0
O28 O 0.0363 0.9216 0.05182 0.0
O29 O 0.98536 0.92449 0.11042 0.0
C30 C 0.00959 0.94107 0.90569 0.0
C31 C 0.01182 0.90656 0.08669 0.0
C32 C 0.04586 0.55212 0.42305 0.0
C33 C 0.08231 0.56114 0.40457 0.0
C34 C 0.10529 0.5422 0.43657 0.0
C35 C 0.08169 0.52255 0.47233 0.0
N36 N 0.04498 0.5277 0.46511 0.0
Co37 Co 1.00139 0.50292 0.50682 0.0
N38 N 0.03521 0.47797 0.55669 0.0
C39 C 0.07278 0.48293 0.55727 0.0
C40 C 0.08829 0.46394 0.59788 0.0
C41 C 0.0589 0.44559 0.62482 0.0
C42 C 0.02704 0.4541 0.59854 0.0
N43 N 0.95793 0.47641 0.5468 0.0
C44 C 0.95725 0.45041 0.58711 0.0
C45 C 0.92111 0.43663 0.60003 0.0
C46 C 0.89817 0.45479 0.56719 0.0
C47 C 0.92148 0.47817 0.53579 0.0
N48 N 0.96746 0.52969 0.4587 0.0
C49 C 0.92961 0.5281 0.46167 0.0
C50 C 0.91374 0.55127 0.42563 0.0
C51 C 0.94322 0.56914 0.39825 0.0
C52 C 0.97553 0.5555 0.419 0.0
N53 N 0.00464 0.45989 0.46089 0.0
C54 C 0.0088 0.39797 0.39735 0.0
C55 C 0.97667 0.41928 0.40047 0.0
C56 C 0.97506 0.44965 0.43249 0.0
C57 C 0.03891 0.40833 0.4263 0.0
C58 C 0.03641 0.43929 0.45714 0.0
N59 N 0.99816 0.54591 0.55277 0.0
C60 C 0.96164 0.58703 0.60607 0.0
C61 C 0.99372 0.60789 0.61615 0.0
C62 C 0.02807 0.59693 0.59445 0.0
C63 C 0.0297 0.56601 0.56355 0.0
C64 C 0.96441 0.55659 0.57423 0.0
H65 H 0.05686 0.55901 0.54872 0.0
H66 H 0.93879 0.54234 0.56723 0.0
H67 H 0.94945 0.46422 0.43384 0.0
H68 H 0.06059 0.44594 0.47763 0.0
C69 C 0.09299 0.50264 0.51642 0.0
C70 C 0.01314 0.56839 0.40029 0.0
C71 C 0.99004 0.43754 0.61362 0.0
C72 C 0.90987 0.50317 0.49705 0.0
H73 H 0.09134 0.58003 0.37193 0.0
H74 H 0.1356 0.54354 0.43496 0.0
H75 H 0.1176 0.46279 0.60615 0.0
H76 H 0.06083 0.42742 0.65936 0.0
H77 H 0.91212 0.41548 0.62985 0.0
H78 H 0.86807 0.45129 0.56626 0.0
H79 H 0.88425 0.55472 0.41988 0.0
H80 H 0.9411 0.58998 0.36672 0.0
H81 H 0.95248 0.41209 0.37908 0.0
H82 H 0.06456 0.39287 0.42468 0.0
H83 H 0.93434 0.59468 0.6217 0.0
H84 H 0.05377 0.61198 0.60167 0.0
C85 C 0.45438 0.95688 0.58403 0.0
C86 C 0.44322 0.92006 0.59725 0.0
C87 C 0.4626 0.89842 0.56373 0.0
C88 C 0.48431 0.92316 0.53206 0.0
N89 N 0.48036 0.95931 0.54363 0.0
Co90 Co 0.50511 0.00437 0.50541 0.0
N91 N 0.53384 0.97248 0.45633 0.0
C92 C 0.53382 0.93466 0.45775 0.0
C93 C 0.55783 0.92048 0.42105 0.0
C94 C 0.57457 0.95104 0.39487 0.0
C95 C 0.5595 0.98226 0.41699 0.0
N96 N 0.52846 0.04952 0.46566 0.0
C97 C 0.5535 0.05208 0.42413 0.0
C98 C 0.5615 0.08904 0.40748 0.0
C99 C 0.54116 0.11063 0.44002 0.0
C100 C 0.52179 0.08574 0.47432 0.0
N101 N 0.47785 0.03621 0.55606 0.0
C102 C 0.48041 0.07389 0.5575 0.0
C103 C 0.45898 0.08791 0.59725 0.0
C104 C 0.44162 0.05737 0.62276 0.0
C105 C 0.45346 0.02638 0.59686 0.0
N106 N 0.54776 1.00241 0.55198 0.0
C107 C 0.60924 0.99984 0.61629 0.0
C108 C 0.59609 0.03394 0.59702 0.0
C109 C 0.56543 0.03461 0.56559 0.0
C110 C 0.59082 0.96705 0.60331 0.0
C111 C 0.56059 0.96893 0.57109 0.0
N112 N 0.46238 0.00633 0.45889 0.0
C113 C 0.41011 0.03899 0.42367 0.0
C114 C 0.40051 0.00839 0.39516 0.0
C115 C 0.42264 0.97687 0.39868 0.0
C116 C 0.45299 0.97631 0.43077 0.0
C117 C 0.44103 0.03752 0.45461 0.0
H118 H 0.46821 0.95113 0.43247 0.0
H119 H 0.447 0.06199 0.4748 0.0
H120 H 0.55665 0.06156 0.55269 0.0
H121 H 0.54827 0.94286 0.5619 0.0
C122 C 0.50989 0.91328 0.49273 0.0
C123 C 0.43932 0.98848 0.61094 0.0
C124 C 0.57106 0.02053 0.39993 0.0
C125 C 0.5002 0.09546 0.51803 0.0
H126 H 0.42316 0.90992 0.62801 0.0
H127 H 0.46118 0.86823 0.56273 0.0
H128 H 0.56262 0.89137 0.41418 0.0
H129 H 0.59565 0.95034 0.36327 0.0
H130 H 0.58055 0.09932 0.37559 0.0
H131 H 0.54127 0.14087 0.43961 0.0
H132 H 0.4555 0.11695 0.6057 0.0
H133 H 0.42184 0.0579 0.65596 0.0
H134 H 0.60921 0.06013 0.60652 0.0
H135 H 0.60023 0.93993 0.61696 0.0
H136 H 0.39403 0.06422 0.4217 0.0
H137 H 0.41611 0.95234 0.37762 0.0
C138 C 0.00585 0.13584 0.10326 0.0
C139 C 0.00673 0.1009 0.13067 0.0
C140 C 0.009 0.16906 0.12937 0.0
C141 C 0.04255 0.20905 0.2475 0.0
H142 H 0.96503 0.28149 0.229 0.0
C143 C 0.02396 0.33081 0.38453 0.0
C144 C 0.01076 0.36497 0.36459 0.0
C145 C 0.02517 0.29953 0.35415 0.0
C146 C 0.98739 0.26204 0.23408 0.0
H147 H 0.01325 0.07347 0.20644 0.0
H148 H 0.01968 0.13141 0.25163 0.0
H149 H 0.96589 0.22604 0.17808 0.0
H150 H 0.9893 0.39335 0.29672 0.0
H151 H 0.99259 0.33934 0.24298 0.0
H152 H 0.06464 0.24508 0.30262 0.0
C153 C 0.01615 0.1331 0.21013 0.0
C154 C 0.98774 0.23013 0.20489 0.0
C155 C 0.0123 0.09994 0.18427 0.0
C156 C 0.9992 0.36727 0.31335 0.0
C157 C 1.00095 0.33615 0.28264 0.0
C158 C 0.04259 0.24124 0.27611 0.0
C159 C 0.01387 0.16803 0.18317 0.0
C160 C 0.01506 0.20308 0.21171 0.0
C161 C 0.01375 0.30168 0.30264 0.0
C162 C 0.01472 0.26806 0.27035 0.0
H163 H 1.00141 0.13753 0.06199 0.0
H164 H 0.00739 0.19559 0.10754 0.0
H165 H 0.06419 0.18885 0.25319 0.0
H166 H 0.03261 0.32805 0.42412 0.0
H167 H 0.03443 0.27347 0.37158 0.0
C168 C 0.8483 0.98925 0.12646 0.0
C169 C 0.86977 0.02014 0.1046 0.0
C170 C 0.81242 0.99383 0.14865 0.0
C171 C 0.75592 0.06318 0.21341 0.0
H172 H 0.67741 0.98709 0.20761 0.0
C173 C 0.59642 0.02091 0.30732 0.0
C174 C 0.60207 0.02726 0.35955 0.0
C175 C 0.62627 0.02505 0.26992 0.0
C176 C 0.69871 0.00896 0.2092 0.0
H177 H 0.86967 0.07998 0.08709 0.0
H178 H 0.80653 0.08808 0.12628 0.0
H179 H 0.73342 0.98522 0.14997 0.0
H180 H 0.64247 0.04375 0.41396 0.0
H181 H 0.69494 0.05062 0.34895 0.0
H182 H 0.72132 0.08667 0.27312 0.0
C183 C 0.8178 0.0603 0.12631 0.0
C184 C 0.73103 0.00767 0.17644 0.0
C185 C 0.8538 0.05563 0.10351 0.0
C186 C 0.63764 0.0388 0.37374 0.0
C187 C 0.66751 0.04294 0.33642 0.0
C188 C 0.72356 0.06446 0.24627 0.0
C189 C 0.79696 0.02947 0.14989 0.0
C190 C 0.76044 0.03421 0.17902 0.0
C191 C 0.66234 0.03564 0.28411 0.0
C192 C 0.69491 0.03687 0.24539 0.0
H193 H 0.85963 0.96146 0.12766 0.0
H194 H 0.79743 0.96953 0.1669 0.0
H195 H 0.77811 0.08393 0.21665 0.0
H196 H 0.56904 0.01216 0.2957 0.0
H197 H 0.62115 0.01967 0.22995 0.0
C198 C 0.04954 0.84878 0.10094 0.0
C199 C 0.01496 0.86659 0.10359 0.0
C200 C 0.05287 0.81271 0.1239 0.0
C201 C 0.99728 0.72894 0.17795 0.0
H202 H 0.07846 0.71647 0.27046 0.0
C203 C 0.0305 0.63499 0.37357 0.0
C204 C 0.01814 0.59955 0.35994 0.0
C205 C 0.03407 0.66476 0.3362 0.0
C206 C 0.05562 0.7195 0.24479 0.0
H207 H 0.95636 0.85961 0.12955 0.0
H208 H 0.96214 0.79723 0.1691 0.0
H209 H 0.07676 0.77298 0.21357 0.0
H210 H 1.00079 0.56672 0.29701 0.0
H211 H 0.00708 0.61876 0.2312 0.0
H212 H 0.97521 0.67632 0.2107 0.0
C213 C 0.98674 0.81086 0.1495 0.0
C214 C 0.05492 0.75168 0.21168 0.0
C215 C 0.98349 0.84685 0.12712 0.0
C216 C 0.01012 0.59401 0.30823 0.0
C217 C 0.01361 0.62379 0.27079 0.0
C218 C 0.99802 0.69676 0.21093 0.0
C219 C 0.02158 0.79363 0.14925 0.0
C220 C 0.02525 0.75718 0.17875 0.0
C221 C 0.02535 0.65964 0.28441 0.0
C222 C 0.02676 0.69201 0.24561 0.0
H223 H 0.07431 0.86328 0.08319 0.0
H224 H 0.08005 0.80003 0.12267 0.0
H225 H 0.97424 0.73214 0.15266 0.0
H226 H 0.03678 0.63974 0.41337 0.0
H227 H 0.04265 0.69205 0.34826 0.0
C228 C 0.13801 0.99867 0.10224 0.0
C229 C 0.10303 1.00022 0.12958 0.0
C230 C 0.17127 1.00194 0.12824 0.0
C231 C 0.21107 0.03746 0.24535 0.0
H232 H 0.2843 0.96046 0.22837 0.0
C233 C 0.33299 0.02202 0.38233 0.0
C234 C 0.36742 0.00921 0.36254 0.0
C235 C 0.30166 0.02233 0.35207 0.0
C236 C 0.26461 0.98265 0.23301 0.0
H237 H 0.07559 0.0079 0.20517 0.0
H238 H 0.13356 0.01444 0.25014 0.0
H239 H 0.22875 0.96005 0.17768 0.0
H240 H 0.3962 0.98739 0.29506 0.0
H241 H 0.34205 0.98904 0.24152 0.0
H242 H 0.24693 0.06063 0.2998 0.0
C243 C 0.13527 0.01033 0.20877 0.0
C244 C 0.23264 0.98229 0.20396 0.0
C245 C 0.10207 0.00638 0.18304 0.0
C246 C 0.36992 0.99703 0.31158 0.0
C247 C 0.33872 0.99784 0.28098 0.0
C248 C 0.24328 0.03819 0.27383 0.0
C249 C 0.17023 0.00759 0.18187 0.0
C250 C 0.20531 0.00942 0.21025 0.0
C251 C 0.30402 0.01035 0.30082 0.0
C252 C 0.27037 0.01052 0.26863 0.0
H253 H 0.1397 0.99382 0.06108 0.0
H254 H 0.19782 0.99997 0.10644 0.0
H255 H 0.19068 0.05899 0.25059 0.0
H256 H 0.33006 0.03112 0.42172 0.0
H257 H 0.27541 0.03138 0.36939 0.0
C258 C 0.985 0.87421 0.90441 0.0
C259 C 1.00196 0.90629 0.87834 0.0
C260 C 0.97968 0.84125 0.8781 0.0
C261 C 0.97927 0.80623 0.74376 0.0
H262 H 0.99722 0.71006 0.81264 0.0
C263 C 0.01058 0.67478 0.63101 0.0
C264 C 0.99144 0.64127 0.64812 0.0
C265 C 0.00843 0.70636 0.66062 0.0
C266 C 0.99175 0.7367 0.79307 0.0
H267 H 0.02663 0.9285 0.80391 0.0
H268 H 0.01829 0.87157 0.75909 0.0
H269 H 0.99913 0.76661 0.86182 0.0
H270 H 0.9554 0.61449 0.71012 0.0
H271 H 0.9521 0.66974 0.76245 0.0
H272 H 0.97325 0.77644 0.67464 0.0
C273 C 0.00812 0.8718 0.79937 0.0
C274 C 0.99268 0.76914 0.82128 0.0
C275 C 0.01317 0.9046 0.82539 0.0
C276 C 0.97026 0.64 0.69579 0.0
C277 C 0.96858 0.67149 0.72588 0.0
C278 C 0.9788 0.77395 0.71554 0.0
C279 C 0.99132 0.83959 0.82518 0.0
C280 C 0.98707 0.80448 0.79677 0.0
C281 C 0.98747 0.70509 0.70843 0.0
C282 C 0.98555 0.73889 0.73964 0.0
H283 H 0.97602 0.87445 0.94517 0.0
H284 H 0.96631 0.81716 0.89921 0.0
H285 H 0.97379 0.83268 0.72373 0.0
H286 H 0.0269 0.67672 0.5943 0.0
H287 H 0.02356 0.73174 0.64636 0.0
C288 C 0.14217 0.98428 0.84262 0.0
C289 C 0.13632 0.98007 0.89691 0.0
C290 C 0.17698 0.97771 0.81864 0.0
C291 C 0.2757 0.98378 0.83555 0.0
H292 H 0.28189 0.92687 0.71156 0.0
C293 C 0.41203 0.97948 0.70255 0.0
C294 C 0.40688 0.9824 0.649 0.0
C295 C 0.38115 0.97377 0.73812 0.0
C296 C 0.28068 0.94303 0.74593 0.0
H297 H 0.16214 0.96522 0.96886 0.0
H298 H 0.22432 0.95479 0.92646 0.0
H299 H 0.22385 0.92535 0.76576 0.0
H300 H 0.36629 0.98184 0.59001 0.0
H301 H 0.31219 0.97257 0.65169 0.0
H302 H 0.33188 0.0031 0.81427 0.0
C303 C 0.20143 0.96278 0.90277 0.0
C304 C 0.24753 0.94187 0.77717 0.0
C305 C 0.16602 0.96859 0.92692 0.0
C306 C 0.37068 0.97949 0.63128 0.0
C307 C 0.33986 0.97387 0.66666 0.0
C308 C 0.3089 0.98521 0.80396 0.0
C309 C 0.2071 0.9673 0.84833 0.0
C310 C 0.24434 0.96304 0.82146 0.0
C311 C 0.34464 0.97085 0.72058 0.0
C312 C 0.31137 0.96572 0.75788 0.0
H313 H 0.11967 0.99278 0.81849 0.0
H314 H 0.18061 0.98179 0.77672 0.0
H315 H 0.27384 1.00061 0.86926 0.0
H316 H 0.43991 0.9816 0.71675 0.0
H317 H 0.3859 0.97132 0.77925 0.0
C318 C 0.02565 0.15784 0.8774 0.0
C319 C 0.99591 0.14007 0.90787 0.0
C320 C 0.02249 0.19404 0.85603 0.0
C321 C 0.952 0.261 0.81496 0.0
H322 H 0.04068 0.32497 0.78656 0.0
C323 C 0.966 0.40948 0.70108 0.0
C324 C 0.98646 0.40593 0.65358 0.0
C325 C 0.96384 0.37991 0.73898 0.0
C326 C 0.01566 0.30751 0.79469 0.0
H327 H 0.93996 0.14752 0.94174 0.0
H328 H 0.93463 0.21154 0.90483 0.0
H329 H 0.04336 0.26967 0.84549 0.0
H330 H 0.02062 0.36914 0.60824 0.0
H331 H 0.01797 0.31788 0.67536 0.0
H332 H 0.92459 0.29945 0.76366 0.0
C333 C 0.96023 0.19687 0.89686 0.0
C334 C 0.01715 0.27571 0.8281 0.0
C335 C 0.96339 0.16029 0.91836 0.0
C336 C 0.00473 0.37245 0.6446 0.0
C337 C 1.00319 0.34327 0.68279 0.0
C338 C 0.95039 0.29328 0.78211 0.0
C339 C 0.98961 0.21396 0.86473 0.0
C340 C 0.98577 0.25122 0.83717 0.0
C341 C 0.98279 0.3468 0.73021 0.0
C342 C 0.98254 0.31607 0.77062 0.0
H343 H 0.05131 0.14344 0.86861 0.0
H344 H 0.0455 0.20575 0.83083 0.0
H345 H 0.92737 0.24274 0.82063 0.0
H346 H 0.95198 0.43522 0.70891 0.0
H347 H 0.94811 0.38314 0.77547 0.0
C348 C 0.90486 0.02295 0.82835 0.0
C349 C 0.9072 0.00832 0.87971 0.0
C350 C 0.87201 0.01886 0.80219 0.0
C351 C 0.76984 0.99831 0.82256 0.0
H352 H 0.77835 0.98719 0.67361 0.0
C353 C 0.64224 0.9754 0.69444 0.0
C354 C 0.64243 0.99855 0.64866 0.0
C355 C 0.67367 0.97428 0.72462 0.0
C356 C 0.77551 0.99044 0.71515 0.0
H357 H 0.87642 0.97763 0.94372 0.0
H358 H 0.819 0.96963 0.89738 0.0
H359 H 0.83453 0.98772 0.72271 0.0
H360 H 0.67586 0.03831 0.59837 0.0
H361 H 0.7308 0.03601 0.6506 0.0
H362 H 0.71047 1.00046 0.8145 0.0
C363 C 0.84262 0.98489 0.8777 0.0
C364 C 0.80775 0.9909 0.7434 0.0
C365 C 0.87562 0.98927 0.90421 0.0
C366 C 0.67475 0.02041 0.63362 0.0
C367 C 0.7063 0.01886 0.66331 0.0
C368 C 0.73745 0.99738 0.79426 0.0
C369 C 0.84043 0.9996 0.82621 0.0
C370 C 0.80552 0.99566 0.79734 0.0
C371 C 0.70615 0.99579 0.70912 0.0
C372 C 0.74004 0.99416 0.74009 0.0
H373 H 0.92836 0.03817 0.80822 0.0
H374 H 0.87129 0.03146 0.76319 0.0
H375 H 0.76694 1.00234 0.86388 0.0
H376 H 0.61763 0.95842 0.70717 0.0
H377 H 0.67281 0.95613 0.75962 0.0
loop_
_geom_bond_atom_site_label_1
_geom_bond_atom_site_label_2
_geom_bond_distance
_geom_bond_site_symmetry_2
_ccdc_geom_bond_type
Fe0 O1 1.886 1_565 S
Fe0 O4 1.715 1_655 S
Fe0 O9 2.077 1_565 S
Fe0 O14 1.935 1_665 S
Fe0 O20 2.077 . S
Fe0 O29 1.935 . S
O1 Fe0 1.886 1_545 S
O1 Fe3 1.715 1_554 S
Fe2 O4 1.886 . S
Fe2 O5 1.715 1_554 S
Fe2 O12 1.935 1_554 S
Fe2 O13 2.077 . S
Fe2 O19 1.935 1_554 S
Fe2 O28 2.077 . S
Fe3 O1 1.715 1_556 S
Fe3 O6 1.886 . S
Fe3 O10 1.935 1_556 S
Fe3 O15 2.077 . S
Fe3 O21 1.935 1_556 S
Fe3 O25 2.077 . S
O4 Fe0 1.715 1_455 S
O4 Fe2 1.886 . S
O5 Fe2 1.715 1_556 S
O5 Fe7 1.886 1_565 S
O6 Fe3 1.886 . S
O6 Fe7 1.715 1_655 S
Fe7 O5 1.886 1_545 S
Fe7 O6 1.715 1_455 S
Fe7 O11 2.077 . S
Fe7 O16 1.935 . S
Fe7 O18 2.077 1_545 S
Fe7 O26 1.935 1_445 S
C8 O20 1.381 1_545 S
C8 O21 1.421 . S
O9 Fe0 2.077 1_545 S
O9 C22 1.381 . S
O10 Fe3 1.935 1_554 S
O10 C22 1.421 . S
O11 Fe7 2.077 . S
O11 C27 1.381 1_545 S
O12 Fe2 1.935 1_556 S
O12 C27 1.421 . S
O13 Fe2 2.077 . S
O13 C17 1.381 . S
O14 Fe0 1.935 1_445 S
O14 C17 1.421 1_545 S
O15 Fe3 2.077 . S
O15 C23 1.381 . S
O16 Fe7 1.935 . S
O16 C23 1.421 1_455 S
C17 O13 1.381 . S
C17 O14 1.421 1_565 S
O18 Fe7 2.077 1_565 S
O18 C30 1.381 . S
O19 Fe2 1.935 1_556 S
O19 C30 1.421 . S
O20 Fe0 2.077 . S
O20 C8 1.381 1_565 S
O21 Fe3 1.935 1_554 S
O21 C8 1.421 . S
C22 O9 1.381 . S
C22 O10 1.421 . S
C23 O15 1.381 . S
C23 O16 1.421 1_655 S
C24 O25 1.381 . S
C24 O26 1.421 1_545 S
O25 Fe3 2.077 . S
O25 C24 1.381 . S
O26 Fe7 1.935 1_665 S
O26 C24 1.421 1_565 S
C27 O11 1.381 1_565 S
C27 O12 1.421 . S
O28 Fe2 2.077 . S
O28 C31 1.381 . S
O29 Fe0 1.935 . S
O29 C31 1.421 1_655 S
C30 O18 1.381 . S
C30 O19 1.421 . S
C31 O28 1.381 . S
C31 O29 1.421 1_455 S
C32 C33 1.443 . S
C32 N36 1.376 . S
C32 C70 1.404 . S
C33 C32 1.443 . S
C33 C34 1.340 . S
C33 H73 0.951 . S
C34 C33 1.340 . S
C34 C35 1.439 . S
C34 H74 0.950 . S
C35 C34 1.439 . S
C35 N36 1.374 . S
C35 C69 1.395 . S
N36 C32 1.376 . S
N36 C35 1.374 . S
N36 Co37 2.008 . S
Co37 N36 2.008 . S
Co37 N38 1.995 . S
Co37 N43 2.008 1_455 S
Co37 N48 1.995 1_455 S
Co37 N53 2.282 . S
Co37 N59 2.282 1_455 S
N38 Co37 1.995 . S
N38 C39 1.376 . S
N38 C42 1.383 . S
C39 N38 1.376 . S
C39 C40 1.446 . S
C39 C69 1.391 . S
C40 C39 1.446 . S
C40 C41 1.339 . S
C40 H75 0.949 . S
C41 C40 1.339 . S
C41 C42 1.439 . S
C41 H76 0.950 . S
C42 N38 1.383 . S
C42 C41 1.439 . S
C42 C71 1.384 1_455 S
N43 Co37 2.008 1_655 S
N43 C44 1.376 . S
N43 C47 1.374 . S
C44 N43 1.376 . S
C44 C45 1.443 . S
C44 C71 1.397 . S
C45 C44 1.443 . S
C45 C46 1.340 . S
C45 H77 0.951 . S
C46 C45 1.340 . S
C46 C47 1.439 . S
C46 H78 0.950 . S
C47 N43 1.374 . S
C47 C46 1.439 . S
C47 C72 1.395 . S
N48 Co37 1.995 1_655 S
N48 C49 1.376 . S
N48 C52 1.383 . S
C49 N48 1.376 . S
C49 C50 1.446 . S
C49 C72 1.391 . S
C50 C49 1.446 . S
C50 C51 1.339 . S
C50 H79 0.949 . S
C51 C50 1.339 . S
C51 C52 1.439 . S
C51 H80 0.950 . S
C52 N48 1.383 . S
C52 C51 1.439 . S
C52 C70 1.378 1_655 S
N53 Co37 2.282 . S
N53 C56 1.332 1_455 S
N53 C58 1.332 . S
C54 C55 1.375 1_455 S
C54 C57 1.400 . S
C55 C54 1.375 1_655 S
C55 C56 1.382 . S
C55 H81 0.950 . S
C56 N53 1.332 1_655 S
C56 C55 1.382 . S
C56 H67 0.952 . S
C57 C54 1.400 . S
C57 C58 1.382 . S
C57 H82 0.950 . S
C58 N53 1.332 . S
C58 C57 1.382 . S
C58 H68 0.948 . S
N59 Co37 2.282 1_655 S
N59 C63 1.332 1_655 S
N59 C64 1.332 . S
C60 C61 1.394 . S
C60 C64 1.382 . S
C60 H83 0.950 . S
C61 C60 1.394 . S
C61 C62 1.380 1_655 S
C62 C61 1.380 1_455 S
C62 C63 1.382 . S
C62 H84 0.950 . S
C63 N59 1.332 1_455 S
C63 C62 1.382 . S
C63 H65 0.952 . S
C64 N59 1.332 . S
C64 C60 1.382 . S
C64 H66 0.948 . S
H65 C63 0.952 . S
H66 C64 0.948 . S
H67 C56 0.952 . S
H68 C58 0.948 . S
C69 C35 1.395 . S
C69 C39 1.391 . S
C70 C32 1.404 . S
C70 C52 1.378 1_455 S
C71 C42 1.384 1_655 S
C71 C44 1.397 . S
C72 C47 1.395 . S
C72 C49 1.391 . S
H73 C33 0.951 . S
H74 C34 0.950 . S
H75 C40 0.949 . S
H76 C41 0.950 . S
H77 C45 0.951 . S
H78 C46 0.950 . S
H79 C50 0.949 . S
H80 C51 0.950 . S
H81 C55 0.950 . S
H82 C57 0.950 . S
H83 C60 0.950 . S
H84 C62 0.950 . S
C85 C86 1.443 . S
C85 N89 1.376 . S
C85 C123 1.397 . S
C86 C85 1.443 . S
C86 C87 1.340 . S
C86 H126 0.951 . S
C87 C86 1.340 . S
C87 C88 1.439 . S
C87 H127 0.950 . S
C88 C87 1.439 . S
C88 N89 1.374 . S
C88 C122 1.395 . S
N89 C85 1.376 . S
N89 C88 1.374 . S
N89 Co90 2.008 1_565 S
Co90 N89 2.008 1_545 S
Co90 N91 1.995 1_545 S
Co90 N96 2.008 . S
Co90 N101 1.995 . S
Co90 N106 2.282 1_545 S
Co90 N112 2.282 . S
N91 Co90 1.995 1_565 S
N91 C92 1.376 . S
N91 C95 1.383 . S
C92 N91 1.376 . S
C92 C93 1.446 . S
C92 C122 1.391 . S
C93 C92 1.446 . S
C93 C94 1.339 . S
C93 H128 0.949 . S
C94 C93 1.339 . S
C94 C95 1.439 . S
C94 H129 0.950 . S
C95 N91 1.383 . S
C95 C94 1.439 . S
C95 C124 1.378 1_565 S
N96 Co90 2.008 . S
N96 C97 1.376 . S
N96 C100 1.374 . S
C97 N96 1.376 . S
C97 C98 1.443 . S
C97 C124 1.404 . S
C98 C97 1.443 . S
C98 C99 1.340 . S
C98 H130 0.951 . S
C99 C98 1.340 . S
C99 C100 1.439 . S
C99 H131 0.950 . S
C100 N96 1.374 . S
C100 C99 1.439 . S
C100 C125 1.395 . S
N101 Co90 1.995 . S
N101 C102 1.376 . S
N101 C105 1.383 . S
C102 N101 1.376 . S
C102 C103 1.446 . S
C102 C125 1.391 . S
C103 C102 1.446 . S
C103 C104 1.339 . S
C103 H132 0.949 . S
C104 C103 1.339 . S
C104 C105 1.439 . S
C104 H133 0.950 . S
C105 N101 1.383 . S
C105 C104 1.439 . S
C105 C123 1.384 1_545 S
N106 Co90 2.282 1_565 S
N106 C109 1.332 1_565 S
N106 C111 1.332 . S
C107 C108 1.380 1_565 S
C107 C110 1.394 . S
C108 C107 1.380 1_545 S
C108 C109 1.382 . S
C108 H134 0.950 . S
C109 N106 1.332 1_545 S
C109 C108 1.382 . S
C109 H120 0.952 . S
C110 C107 1.394 . S
C110 C111 1.382 . S
C110 H135 0.950 . S
C111 N106 1.332 . S
C111 C110 1.382 . S
C111 H121 0.948 . S
N112 Co90 2.282 . S
N112 C116 1.332 1_545 S
N112 C117 1.332 . S
C113 C114 1.400 . S
C113 C117 1.382 . S
C113 H136 0.950 . S
C114 C113 1.400 . S
C114 C115 1.375 1_545 S
C115 C114 1.375 1_565 S
C115 C116 1.382 . S
C115 H137 0.950 . S
C116 N112 1.332 1_565 S
C116 C115 1.382 . S
C116 H118 0.952 . S
C117 N112 1.332 . S
C117 C113 1.382 . S
C117 H119 0.948 . S
H118 C116 0.952 . S
H119 C117 0.948 . S
H120 C109 0.952 . S
H121 C111 0.948 . S
C122 C88 1.395 . S
C122 C92 1.391 . S
C123 C85 1.397 . S
C123 C105 1.384 1_565 S
C124 C95 1.378 1_545 S
C124 C97 1.404 . S
C125 C100 1.395 . S
C125 C102 1.391 . S
H126 C86 0.951 . S
H127 C87 0.950 . S
H128 C93 0.949 . S
H129 C94 0.950 . S
H130 C98 0.951 . S
H131 C99 0.950 . S
H132 C103 0.949 . S
H133 C104 0.950 . S
H134 C108 0.950 . S
H135 C110 0.950 . S
H136 C113 0.950 . S
H137 C115 0.950 . S
C138 C139 1.349 . S
C138 C140 1.327 . S
C138 H163 0.950 . S
C139 C138 1.349 . S
C139 C155 1.349 1_655 S
C140 C138 1.327 . S
C140 C159 1.429 . S
C140 H164 0.950 . S
C141 C158 1.574 . S
C141 C160 1.368 1_455 S
C141 H165 0.949 . S
H142 C146 0.949 . S
C143 C144 1.351 1_455 S
C143 C145 1.327 . S
C143 H166 0.950 . S
C144 C143 1.351 1_655 S
C144 C156 1.347 . S
C145 C143 1.327 . S
C145 C161 1.417 1_455 S
C145 H167 0.950 . S
C146 H142 0.949 . S
C146 C154 1.574 . S
C146 C162 1.389 . S
H147 C155 0.950 . S
H148 C153 0.950 . S
H149 C154 0.949 . S
H150 C156 0.950 . S
H151 C157 0.950 . S
H152 C158 0.949 . S
C153 H148 0.950 . S
C153 C155 1.327 . S
C153 C159 1.429 1_455 S
C154 C146 1.574 . S
C154 H149 0.949 . S
C154 C160 1.368 . S
C155 C139 1.349 1_455 S
C155 H147 0.950 . S
C155 C153 1.327 . S
C156 C144 1.347 . S
C156 H150 0.950 . S
C156 C157 1.327 . S
C157 H151 0.950 . S
C157 C156 1.327 . S
C157 C161 1.439 . S
C158 C141 1.574 . S
C158 H152 0.949 . S
C158 C162 1.349 1_455 S
C159 C140 1.429 . S
C159 C153 1.429 1_655 S
C159 C160 1.523 . S
C160 C141 1.368 1_655 S
C160 C154 1.368 . S
C160 C159 1.523 . S
C161 C145 1.417 1_655 S
C161 C157 1.439 . S
C161 C162 1.523 . S
C162 C146 1.389 . S
C162 C158 1.349 1_655 S
C162 C161 1.523 . S
H163 C138 0.950 . S
H164 C140 0.950 . S
H165 C141 0.949 . S
H166 C143 0.950 . S
H167 C145 0.950 . S
C168 C169 1.349 . S
C168 C170 1.327 . S
C168 H193 0.950 . S
C169 C168 1.349 . S
C169 C185 1.349 1_565 S
C170 C168 1.327 . S
C170 C189 1.429 . S
C170 H194 0.950 . S
C171 C188 1.574 . S
C171 C190 1.368 1_545 S
C171 H195 0.949 . S
H172 C176 0.949 . S
C173 C174 1.350 1_545 S
C173 C175 1.327 . S
C173 H196 0.950 . S
C174 C173 1.350 1_565 S
C174 C186 1.348 . S
C175 C173 1.327 . S
C175 C191 1.416 1_545 S
C175 H197 0.950 . S
C176 H172 0.949 . S
C176 C184 1.574 . S
C176 C192 1.389 . S
H177 C185 0.950 . S
H178 C183 0.950 . S
H179 C184 0.949 . S
H180 C186 0.950 . S
H181 C187 0.950 . S
H182 C188 0.949 . S
C183 H178 0.950 . S
C183 C185 1.327 . S
C183 C189 1.429 1_545 S
C184 C176 1.574 . S
C184 H179 0.949 . S
C184 C190 1.368 . S
C185 C169 1.349 1_545 S
C185 H177 0.950 . S
C185 C183 1.327 . S
C186 C174 1.348 . S
C186 H180 0.950 . S
C186 C187 1.327 . S
C187 H181 0.950 . S
C187 C186 1.327 . S
C187 C191 1.440 . S
C188 C171 1.574 . S
C188 H182 0.949 . S
C188 C192 1.349 1_545 S
C189 C170 1.429 . S
C189 C183 1.429 1_565 S
C189 C190 1.523 . S
C190 C171 1.368 1_565 S
C190 C184 1.368 . S
C190 C189 1.523 . S
C191 C175 1.416 1_565 S
C191 C187 1.440 . S
C191 C192 1.522 . S
C192 C176 1.389 . S
C192 C188 1.349 1_565 S
C192 C191 1.522 . S
H193 C168 0.950 . S
H194 C170 0.950 . S
H195 C171 0.949 . S
H196 C173 0.950 . S
H197 C175 0.950 . S
C198 C199 1.349 1_455 S
C198 C200 1.327 . S
C198 H223 0.950 . S
C199 C198 1.349 1_655 S
C199 C215 1.349 . S
C200 C198 1.327 . S
C200 C219 1.429 1_455 S
C200 H224 0.950 . S
C201 C218 1.574 . S
C201 C220 1.368 . S
C201 H225 0.949 . S
H202 C206 0.949 . S
C203 C204 1.348 . S
C203 C205 1.327 . S
C203 H226 0.950 . S
C204 C203 1.348 . S
C204 C216 1.349 1_655 S
C205 C203 1.327 . S
C205 C221 1.438 . S
C205 H227 0.950 . S
C206 H202 0.949 . S
C206 C214 1.574 . S
C206 C222 1.353 1_455 S
H207 C215 0.950 . S
H208 C213 0.950 . S
H209 C214 0.949 . S
H210 C216 0.950 . S
H211 C217 0.950 . S
H212 C218 0.949 . S
C213 H208 0.950 . S
C213 C215 1.327 . S
C213 C219 1.429 . S
C214 C206 1.574 . S
C214 H209 0.949 . S
C214 C220 1.368 1_455 S
C215 C199 1.349 . S
C215 H207 0.950 . S
C215 C213 1.327 . S
C216 C204 1.349 1_455 S
C216 H210 0.950 . S
C216 C217 1.327 . S
C217 H211 0.950 . S
C217 C216 1.327 . S
C217 C221 1.418 1_455 S
C218 C201 1.574 . S
C218 H212 0.949 . S
C218 C222 1.386 . S
C219 C200 1.429 1_655 S
C219 C213 1.429 . S
C219 C220 1.523 . S
C220 C201 1.368 . S
C220 C214 1.368 1_655 S
C220 C219 1.523 . S
C221 C205 1.438 . S
C221 C217 1.418 1_655 S
C221 C222 1.522 . S
C222 C206 1.353 1_655 S
C222 C218 1.386 . S
C222 C221 1.522 . S
H223 C198 0.950 . S
H224 C200 0.950 . S
H225 C201 0.949 . S
H226 C203 0.950 . S
H227 C205 0.950 . S
C228 C229 1.349 . S
C228 C230 1.327 . S
C228 H253 0.950 . S
C229 C228 1.349 . S
C229 C245 1.349 1_565 S
C230 C228 1.327 . S
C230 C249 1.429 . S
C230 H254 0.950 . S
C231 C248 1.574 . S
C231 C250 1.368 1_545 S
C231 H255 0.949 . S
H232 C236 0.949 . S
C233 C234 1.351 1_545 S
C233 C235 1.327 . S
C233 H256 0.950 . S
C234 C233 1.351 1_565 S
C234 C246 1.347 . S
C235 C233 1.327 . S
C235 C251 1.416 1_545 S
C235 H257 0.950 . S
C236 H232 0.949 . S
C236 C244 1.574 . S
C236 C252 1.390 . S
H237 C245 0.950 . S
H238 C243 0.950 . S
H239 C244 0.949 . S
H240 C246 0.950 . S
H241 C247 0.950 . S
H242 C248 0.949 . S
C243 H238 0.950 . S
C243 C245 1.327 . S
C243 C249 1.429 1_545 S
C244 C236 1.574 . S
C244 H239 0.949 . S
C244 C250 1.368 . S
C245 C229 1.349 1_545 S
C245 H237 0.950 . S
C245 C243 1.327 . S
C246 C234 1.347 . S
C246 H240 0.950 . S
C246 C247 1.327 . S
C247 H241 0.950 . S
C247 C246 1.327 . S
C247 C251 1.440 . S
C248 C231 1.574 . S
C248 H242 0.949 . S
C248 C252 1.347 1_545 S
C249 C230 1.429 . S
C249 C243 1.429 1_565 S
C249 C250 1.523 . S
C250 C231 1.368 1_565 S
C250 C244 1.368 . S
C250 C249 1.523 . S
C251 C235 1.416 1_565 S
C251 C247 1.440 . S
C251 C252 1.523 . S
C252 C236 1.390 . S
C252 C248 1.347 1_565 S
C252 C251 1.523 . S
H253 C228 0.950 . S
H254 C230 0.950 . S
H255 C231 0.949 . S
H256 C233 0.950 . S
H257 C235 0.950 . S
C258 C259 1.349 1_655 S
C258 C260 1.327 . S
C258 H283 0.950 . S
C259 C258 1.349 1_455 S
C259 C275 1.349 . S
C260 C258 1.327 . S
C260 C279 1.429 1_655 S
C260 H284 0.950 . S
C261 C278 1.574 . S
C261 C280 1.368 . S
C261 H285 0.949 . S
H262 C266 0.949 . S
C263 C264 1.350 . S
C263 C265 1.327 . S
C263 H286 0.950 . S
C264 C263 1.350 . S
C264 C276 1.347 1_455 S
C265 C263 1.327 . S
C265 C281 1.436 . S
C265 H287 0.950 . S
C266 H262 0.949 . S
C266 C274 1.574 . S
C266 C282 1.357 1_655 S
H267 C275 0.950 . S
H268 C273 0.950 . S
H269 C274 0.949 . S
H270 C276 0.950 . S
H271 C277 0.950 . S
H272 C278 0.949 . S
C273 H268 0.950 . S
C273 C275 1.327 . S
C273 C279 1.429 . S
C274 C266 1.574 . S
C274 H269 0.949 . S
C274 C280 1.368 1_655 S
C275 C259 1.349 . S
C275 H267 0.950 . S
C275 C273 1.327 . S
C276 C264 1.347 1_655 S
C276 H270 0.950 . S
C276 C277 1.327 . S
C277 H271 0.950 . S
C277 C276 1.327 . S
C277 C281 1.421 1_655 S
C278 C261 1.574 . S
C278 H272 0.949 . S
C278 C282 1.381 . S
C279 C260 1.429 1_455 S
C279 C273 1.429 . S
C279 C280 1.523 . S
C280 C261 1.368 . S
C280 C274 1.368 1_455 S
C280 C279 1.523 . S
C281 C265 1.436 . S
C281 C277 1.421 1_455 S
C281 C282 1.523 . S
C282 C266 1.357 1_455 S
C282 C278 1.381 . S
C282 C281 1.523 . S
H283 C258 0.950 . S
H284 C260 0.950 . S
H285 C261 0.949 . S
H286 C263 0.950 . S
H287 C265 0.950 . S
C288 C289 1.349 1_565 S
C288 C290 1.327 . S
C288 H313 0.950 . S
C289 C288 1.349 1_545 S
C289 C305 1.349 . S
C290 C288 1.327 . S
C290 C309 1.429 1_565 S
C290 H314 0.950 . S
C291 C308 1.574 . S
C291 C310 1.368 . S
C291 H315 0.949 . S
H292 C296 0.949 . S
C293 C294 1.353 . S
C293 C295 1.327 . S
C293 H316 0.950 . S
C294 C293 1.353 . S
C294 C306 1.345 1_545 S
C295 C293 1.327 . S
C295 C311 1.446 . S
C295 H317 0.950 . S
C296 H292 0.949 . S
C296 C304 1.574 . S
C296 C312 1.368 1_565 S
H297 C305 0.950 . S
H298 C303 0.950 . S
H299 C304 0.949 . S
H300 C306 0.950 . S
H301 C307 0.950 . S
H302 C308 0.949 . S
C303 H298 0.950 . S
C303 C305 1.327 . S
C303 C309 1.429 . S
C304 C296 1.574 . S
C304 H299 0.949 . S
C304 C310 1.368 1_565 S
C305 C289 1.349 . S
C305 H297 0.950 . S
C305 C303 1.327 . S
C306 C294 1.345 1_565 S
C306 H300 0.950 . S
C306 C307 1.327 . S
C307 H301 0.950 . S
C307 C306 1.327 . S
C307 C311 1.410 1_565 S
C308 C291 1.574 . S
C308 H302 0.949 . S
C308 C312 1.368 . S
C309 C290 1.429 1_545 S
C309 C303 1.429 . S
C309 C310 1.523 . S
C310 C291 1.368 . S
C310 C304 1.368 1_545 S
C310 C309 1.523 . S
C311 C295 1.446 . S
C311 C307 1.410 1_545 S
C311 C312 1.525 . S
C312 C296 1.368 1_545 S
C312 C308 1.368 . S
C312 C311 1.525 . S
H313 C288 0.950 . S
H314 C290 0.950 . S
H315 C291 0.949 . S
H316 C293 0.950 . S
H317 C295 0.950 . S
C318 C319 1.349 . S
C318 C320 1.327 . S
C318 H343 0.950 . S
C319 C318 1.349 . S
C319 C335 1.349 1_455 S
C320 C318 1.327 . S
C320 C339 1.429 . S
C320 H344 0.950 . S
C321 C338 1.574 . S
C321 C340 1.368 1_655 S
C321 H345 0.949 . S
H322 C326 0.949 . S
C323 C324 1.346 1_655 S
C323 C325 1.327 . S
C323 H346 0.950 . S
C324 C323 1.346 1_455 S
C324 C336 1.352 . S
C325 C323 1.327 . S
C325 C341 1.414 1_655 S
C325 H347 0.950 . S
C326 H322 0.949 . S
C326 C334 1.574 . S
C326 C342 1.368 . S
H327 C335 0.950 . S
H328 C333 0.950 . S
H329 C334 0.949 . S
H330 C336 0.950 . S
H331 C337 0.950 . S
H332 C338 0.949 . S
C333 H328 0.950 . S
C333 C335 1.327 . S
C333 C339 1.429 1_655 S
C334 C326 1.574 . S
C334 H329 0.949 . S
C334 C340 1.368 . S
C335 C319 1.349 1_655 S
C335 H327 0.950 . S
C335 C333 1.327 . S
C336 C324 1.352 . S
C336 H330 0.950 . S
C336 C337 1.327 . S
C337 H331 0.950 . S
C337 C336 1.327 . S
C337 C341 1.442 . S
C338 C321 1.574 . S
C338 H332 0.949 . S
C338 C342 1.368 1_655 S
C339 C320 1.429 . S
C339 C333 1.429 1_455 S
C339 C340 1.523 . S
C340 C321 1.368 1_455 S
C340 C334 1.368 . S
C340 C339 1.523 . S
C341 C325 1.414 1_455 S
C341 C337 1.442 . S
C341 C342 1.525 . S
C342 C326 1.368 . S
C342 C338 1.368 1_455 S
C342 C341 1.525 . S
H343 C318 0.950 . S
H344 C320 0.950 . S
H345 C321 0.949 . S
H346 C323 0.950 . S
H347 C325 0.950 . S
C348 C349 1.349 . S
C348 C350 1.327 . S
C348 H373 0.950 . S
C349 C348 1.349 . S
C349 C365 1.349 1_545 S
C350 C348 1.327 . S
C350 C369 1.429 . S
C350 H374 0.950 . S
C351 C368 1.574 . S
C351 C370 1.368 1_565 S
C351 H375 0.949 . S
H352 C356 0.949 . S
C353 C354 1.346 1_565 S
C353 C355 1.327 . S
C353 H376 0.950 . S
C354 C353 1.346 1_545 S
C354 C366 1.352 . S
C355 C353 1.327 . S
C355 C371 1.414 1_565 S
C355 H377 0.950 . S
C356 H352 0.949 . S
C356 C364 1.574 . S
C356 C372 1.392 . S
H357 C365 0.950 . S
H358 C363 0.950 . S
H359 C364 0.949 . S
H360 C366 0.950 . S
H361 C367 0.950 . S
H362 C368 0.949 . S
C363 H358 0.950 . S
C363 C365 1.327 . S
C363 C369 1.429 1_565 S
C364 C356 1.574 . S
C364 H359 0.949 . S
C364 C370 1.368 . S
C365 C349 1.349 1_565 S
C365 H357 0.950 . S
C365 C363 1.327 . S
C366 C354 1.352 . S
C366 H360 0.950 . S
C366 C367 1.327 . S
C367 H361 0.950 . S
C367 C366 1.327 . S
C367 C371 1.443 . S
C368 C351 1.574 . S
C368 H362 0.949 . S
C368 C372 1.346 1_565 S
C369 C350 1.429 . S
C369 C363 1.429 1_545 S
C369 C370 1.523 . S
C370 C351 1.368 1_545 S
C370 C364 1.368 . S
C370 C369 1.523 . S
C371 C355 1.414 1_545 S
C371 C367 1.443 . S
C371 C372 1.523 . S
C372 C356 1.392 . S
C372 C368 1.346 1_545 S
C372 C371 1.523 . S
H373 C348 0.950 . S
H374 C350 0.950 . S
H375 C351 0.949 . S
H376 C353 0.950 . S
H377 C355 0.950 . S
C139 C22 1.379 . S
C144 C54 1.420 1_655 S
C169 C8 1.506 1_565 S
C174 C124 1.562 1_565 S
C199 C31 1.508 1_655 S
C204 C70 1.562 1_655 S
C229 C17 1.377 . S
C234 C114 1.419 1_565 S
C259 C30 1.379 . S
C264 C61 1.425 1_455 S
C289 C27 1.506 1_545 S
C294 C123 1.561 1_545 S
C324 C71 1.561 1_455 S
C319 C23 1.507 1_455 S
C349 C24 1.377 . S
C354 C107 1.426 1_545 S
