# Generated by pormake.
# Topology gar, (4,6)-cn, num edge types: 1
# Building blocks:
#     Node 0, Type 0, BuildingBlock: TATPOV_clean_sbu_0, # of connection points: 4
#     Node 1, Type 0, BuildingBlock: TATPOV_clean_sbu_0, # of connection points: 4
#     Node 2, Type 0, BuildingBlock: TATPOV_clean_sbu_0, # of connection points: 4
#     Node 3, Type 0, BuildingBlock: TATPOV_clean_sbu_0, # of connection points: 4
#     Node 4, Type 0, BuildingBlock: TATPOV_clean_sbu_0, # of connection points: 4
#     Node 5, Type 0, BuildingBlock: TATPOV_clean_sbu_0, # of connection points: 4
#     Node 6, Type 0, BuildingBlock: TATPOV_clean_sbu_0, # of connection points: 4
#     Node 7, Type 0, BuildingBlock: TATPOV_clean_sbu_0, # of connection points: 4
#     Node 8, Type 0, BuildingBlock: TATPOV_clean_sbu_0, # of connection points: 4
#     Node 9, Type 0, BuildingBlock: TATPOV_clean_sbu_0, # of connection points: 4
#     Node 10, Type 0, BuildingBlock: TATPOV_clean_sbu_0, # of connection points: 4
#     Node 11, Type 0, BuildingBlock: TATPOV_clean_sbu_0, # of connection points: 4
#     Node 12, Type 0, BuildingBlock: TATPOV_clean_sbu_0, # of connection points: 4
#     Node 13, Type 0, BuildingBlock: TATPOV_clean_sbu_0, # of connection points: 4
#     Node 14, Type 0, BuildingBlock: TATPOV_clean_sbu_0, # of connection points: 4
#     Node 15, Type 0, BuildingBlock: TATPOV_clean_sbu_0, # of connection points: 4
#     Node 16, Type 0, BuildingBlock: TATPOV_clean_sbu_0, # of connection points: 4
#     Node 17, Type 0, BuildingBlock: TATPOV_clean_sbu_0, # of connection points: 4
#     Node 18, Type 0, BuildingBlock: TATPOV_clean_sbu_0, # of connection points: 4
#     Node 19, Type 0, BuildingBlock: TATPOV_clean_sbu_0, # of connection points: 4
#     Node 20, Type 0, BuildingBlock: TATPOV_clean_sbu_0, # of connection points: 4
#     Node 21, Type 0, BuildingBlock: TATPOV_clean_sbu_0, # of connection points: 4
#     Node 22, Type 0, BuildingBlock: TATPOV_clean_sbu_0, # of connection points: 4
#     Node 23, Type 0, BuildingBlock: TATPOV_clean_sbu_0, # of connection points: 4
#     Node 24, Type 1, BuildingBlock: KUMJIN_clean_sbu_0, # of connection points: 6
#     Node 25, Type 1, BuildingBlock: KUMJIN_clean_sbu_0, # of connection points: 6
#     Node 26, Type 1, BuildingBlock: KUMJIN_clean_sbu_0, # of connection points: 6
#     Node 27, Type 1, BuildingBlock: KUMJIN_clean_sbu_0, # of connection points: 6
#     Node 28, Type 1, BuildingBlock: KUMJIN_clean_sbu_0, # of connection points: 6
#     Node 29, Type 1, BuildingBlock: KUMJIN_clean_sbu_0, # of connection points: 6
#     Node 30, Type 1, BuildingBlock: KUMJIN_clean_sbu_0, # of connection points: 6
#     Node 31, Type 1, BuildingBlock: KUMJIN_clean_sbu_0, # of connection points: 6
#     Node 32, Type 1, BuildingBlock: KUMJIN_clean_sbu_0, # of connection points: 6
#     Node 33, Type 1, BuildingBlock: KUMJIN_clean_sbu_0, # of connection points: 6
#     Node 34, Type 1, BuildingBlock: KUMJIN_clean_sbu_0, # of connection points: 6
#     Node 35, Type 1, BuildingBlock: KUMJIN_clean_sbu_0, # of connection points: 6
#     Node 36, Type 1, BuildingBlock: KUMJIN_clean_sbu_0, # of connection points: 6
#     Node 37, Type 1, BuildingBlock: KUMJIN_clean_sbu_0, # of connection points: 6
#     Node 38, Type 1, BuildingBlock: KUMJIN_clean_sbu_0, # of connection points: 6
#     Node 39, Type 1, BuildingBlock: KUMJIN_clean_sbu_0, # of connection points: 6
#     Edge 40, Type (0, 1), BuildingBlock: XUDNAN_clean_linker_2, # of connection points: 2
#     Edge 41, Type (0, 1), BuildingBlock: XUDNAN_clean_linker_2, # of connection points: 2
#     Edge 42, Type (0, 1), BuildingBlock: XUDNAN_clean_linker_2, # of connection points: 2
#     Edge 43, Type (0, 1), BuildingBlock: XUDNAN_clean_linker_2, # of connection points: 2
#     Edge 44, Type (0, 1), BuildingBlock: XUDNAN_clean_linker_2, # of connection points: 2
#     Edge 45, Type (0, 1), BuildingBlock: XUDNAN_clean_linker_2, # of connection points: 2
#     Edge 46, Type (0, 1), BuildingBlock: XUDNAN_clean_linker_2, # of connection points: 2
#     Edge 47, Type (0, 1), BuildingBlock: XUDNAN_clean_linker_2, # of connection points: 2
#     Edge 48, Type (0, 1), BuildingBlock: XUDNAN_clean_linker_2, # of connection points: 2
#     Edge 49, Type (0, 1), BuildingBlock: XUDNAN_clean_linker_2, # of connection points: 2
#     Edge 50, Type (0, 1), BuildingBlock: XUDNAN_clean_linker_2, # of connection points: 2
#     Edge 51, Type (0, 1), BuildingBlock: XUDNAN_clean_linker_2, # of connection points: 2
#     Edge 52, Type (0, 1), BuildingBlock: XUDNAN_clean_linker_2, # of connection points: 2
#     Edge 53, Type (0, 1), BuildingBlock: XUDNAN_clean_linker_2, # of connection points: 2
#     Edge 54, Type (0, 1), BuildingBlock: XUDNAN_clean_linker_2, # of connection points: 2
#     Edge 55, Type (0, 1), BuildingBlock: XUDNAN_clean_linker_2, # of connection points: 2
#     Edge 56, Type (0, 1), BuildingBlock: XUDNAN_clean_linker_2, # of connection points: 2
#     Edge 57, Type (0, 1), BuildingBlock: XUDNAN_clean_linker_2, # of connection points: 2
#     Edge 58, Type (0, 1), BuildingBlock: XUDNAN_clean_linker_2, # of connection points: 2
#     Edge 59, Type (0, 1), BuildingBlock: XUDNAN_clean_linker_2, # of connection points: 2
#     Edge 60, Type (0, 1), BuildingBlock: XUDNAN_clean_linker_2, # of connection points: 2
#     Edge 61, Type (0, 1), BuildingBlock: XUDNAN_clean_linker_2, # of connection points: 2
#     Edge 62, Type (0, 1), BuildingBlock: XUDNAN_clean_linker_2, # of connection points: 2
#     Edge 63, Type (0, 1), BuildingBlock: XUDNAN_clean_linker_2, # of connection points: 2
#     Edge 64, Type (0, 1), BuildingBlock: XUDNAN_clean_linker_2, # of connection points: 2
#     Edge 65, Type (0, 1), BuildingBlock: XUDNAN_clean_linker_2, # of connection points: 2
#     Edge 66, Type (0, 1), BuildingBlock: XUDNAN_clean_linker_2, # of connection points: 2
#     Edge 67, Type (0, 1), BuildingBlock: XUDNAN_clean_linker_2, # of connection points: 2
#     Edge 68, Type (0, 1), BuildingBlock: XUDNAN_clean_linker_2, # of connection points: 2
#     Edge 69, Type (0, 1), BuildingBlock: XUDNAN_clean_linker_2, # of connection points: 2
#     Edge 70, Type (0, 1), BuildingBlock: XUDNAN_clean_linker_2, # of connection points: 2
#     Edge 71, Type (0, 1), BuildingBlock: XUDNAN_clean_linker_2, # of connection points: 2
#     Edge 72, Type (0, 1), BuildingBlock: XUDNAN_clean_linker_2, # of connection points: 2
#     Edge 73, Type (0, 1), BuildingBlock: XUDNAN_clean_linker_2, # of connection points: 2
#     Edge 74, Type (0, 1), BuildingBlock: XUDNAN_clean_linker_2, # of connection points: 2
#     Edge 75, Type (0, 1), BuildingBlock: XUDNAN_clean_linker_2, # of connection points: 2
#     Edge 76, Type (0, 1), BuildingBlock: XUDNAN_clean_linker_2, # of connection points: 2
#     Edge 77, Type (0, 1), BuildingBlock: XUDNAN_clean_linker_2, # of connection points: 2
#     Edge 78, Type (0, 1), BuildingBlock: XUDNAN_clean_linker_2, # of connection points: 2
#     Edge 79, Type (0, 1), BuildingBlock: XUDNAN_clean_linker_2, # of connection points: 2
#     Edge 80, Type (0, 1), BuildingBlock: XUDNAN_clean_linker_2, # of connection points: 2
#     Edge 81, Type (0, 1), BuildingBlock: XUDNAN_clean_linker_2, # of connection points: 2
#     Edge 82, Type (0, 1), BuildingBlock: XUDNAN_clean_linker_2, # of connection points: 2
#     Edge 83, Type (0, 1), BuildingBlock: XUDNAN_clean_linker_2, # of connection points: 2
#     Edge 84, Type (0, 1), BuildingBlock: XUDNAN_clean_linker_2, # of connection points: 2
#     Edge 85, Type (0, 1), BuildingBlock: XUDNAN_clean_linker_2, # of connection points: 2
#     Edge 86, Type (0, 1), BuildingBlock: XUDNAN_clean_linker_2, # of connection points: 2
#     Edge 87, Type (0, 1), BuildingBlock: XUDNAN_clean_linker_2, # of connection points: 2
#     Edge 88, Type (0, 1), BuildingBlock: XUDNAN_clean_linker_2, # of connection points: 2
#     Edge 89, Type (0, 1), BuildingBlock: XUDNAN_clean_linker_2, # of connection points: 2
#     Edge 90, Type (0, 1), BuildingBlock: XUDNAN_clean_linker_2, # of connection points: 2
#     Edge 91, Type (0, 1), BuildingBlock: XUDNAN_clean_linker_2, # of connection points: 2
#     Edge 92, Type (0, 1), BuildingBlock: XUDNAN_clean_linker_2, # of connection points: 2
#     Edge 93, Type (0, 1), BuildingBlock: XUDNAN_clean_linker_2, # of connection points: 2
#     Edge 94, Type (0, 1), BuildingBlock: XUDNAN_clean_linker_2, # of connection points: 2
#     Edge 95, Type (0, 1), BuildingBlock: XUDNAN_clean_linker_2, # of connection points: 2
#     Edge 96, Type (0, 1), BuildingBlock: XUDNAN_clean_linker_2, # of connection points: 2
#     Edge 97, Type (0, 1), BuildingBlock: XUDNAN_clean_linker_2, # of connection points: 2
#     Edge 98, Type (0, 1), BuildingBlock: XUDNAN_clean_linker_2, # of connection points: 2
#     Edge 99, Type (0, 1), BuildingBlock: XUDNAN_clean_linker_2, # of connection points: 2
#     Edge 100, Type (0, 1), BuildingBlock: XUDNAN_clean_linker_2, # of connection points: 2
#     Edge 101, Type (0, 1), BuildingBlock: XUDNAN_clean_linker_2, # of connection points: 2
#     Edge 102, Type (0, 1), BuildingBlock: XUDNAN_clean_linker_2, # of connection points: 2
#     Edge 103, Type (0, 1), BuildingBlock: XUDNAN_clean_linker_2, # of connection points: 2
#     Edge 104, Type (0, 1), BuildingBlock: XUDNAN_clean_linker_2, # of connection points: 2
#     Edge 105, Type (0, 1), BuildingBlock: XUDNAN_clean_linker_2, # of connection points: 2
#     Edge 106, Type (0, 1), BuildingBlock: XUDNAN_clean_linker_2, # of connection points: 2
#     Edge 107, Type (0, 1), BuildingBlock: XUDNAN_clean_linker_2, # of connection points: 2
#     Edge 108, Type (0, 1), BuildingBlock: XUDNAN_clean_linker_2, # of connection points: 2
#     Edge 109, Type (0, 1), BuildingBlock: XUDNAN_clean_linker_2, # of connection points: 2
#     Edge 110, Type (0, 1), BuildingBlock: XUDNAN_clean_linker_2, # of connection points: 2
#     Edge 111, Type (0, 1), BuildingBlock: XUDNAN_clean_linker_2, # of connection points: 2
#     Edge 112, Type (0, 1), BuildingBlock: XUDNAN_clean_linker_2, # of connection points: 2
#     Edge 113, Type (0, 1), BuildingBlock: XUDNAN_clean_linker_2, # of connection points: 2
#     Edge 114, Type (0, 1), BuildingBlock: XUDNAN_clean_linker_2, # of connection points: 2
#     Edge 115, Type (0, 1), BuildingBlock: XUDNAN_clean_linker_2, # of connection points: 2
#     Edge 116, Type (0, 1), BuildingBlock: XUDNAN_clean_linker_2, # of connection points: 2
#     Edge 117, Type (0, 1), BuildingBlock: XUDNAN_clean_linker_2, # of connection points: 2
#     Edge 118, Type (0, 1), BuildingBlock: XUDNAN_clean_linker_2, # of connection points: 2
#     Edge 119, Type (0, 1), BuildingBlock: XUDNAN_clean_linker_2, # of connection points: 2
#     Edge 120, Type (0, 1), BuildingBlock: XUDNAN_clean_linker_2, # of connection points: 2
#     Edge 121, Type (0, 1), BuildingBlock: XUDNAN_clean_linker_2, # of connection points: 2
#     Edge 122, Type (0, 1), BuildingBlock: XUDNAN_clean_linker_2, # of connection points: 2
#     Edge 123, Type (0, 1), BuildingBlock: XUDNAN_clean_linker_2, # of connection points: 2
#     Edge 124, Type (0, 1), BuildingBlock: XUDNAN_clean_linker_2, # of connection points: 2
#     Edge 125, Type (0, 1), BuildingBlock: XUDNAN_clean_linker_2, # of connection points: 2
#     Edge 126, Type (0, 1), BuildingBlock: XUDNAN_clean_linker_2, # of connection points: 2
#     Edge 127, Type (0, 1), BuildingBlock: XUDNAN_clean_linker_2, # of connection points: 2
#     Edge 128, Type (0, 1), BuildingBlock: XUDNAN_clean_linker_2, # of connection points: 2
#     Edge 129, Type (0, 1), BuildingBlock: XUDNAN_clean_linker_2, # of connection points: 2
#     Edge 130, Type (0, 1), BuildingBlock: XUDNAN_clean_linker_2, # of connection points: 2
#     Edge 131, Type (0, 1), BuildingBlock: XUDNAN_clean_linker_2, # of connection points: 2
#     Edge 132, Type (0, 1), BuildingBlock: XUDNAN_clean_linker_2, # of connection points: 2
#     Edge 133, Type (0, 1), BuildingBlock: XUDNAN_clean_linker_2, # of connection points: 2
#     Edge 134, Type (0, 1), BuildingBlock: XUDNAN_clean_linker_2, # of connection points: 2
#     Edge 135, Type (0, 1), BuildingBlock: XUDNAN_clean_linker_2, # of connection points: 2
# Relax obj value: 0.137
# Max RMSD: 0.331
# Mean RMSD: 0.171
data_MOF--net-gar--node1-TATPOV_clean_sbu_0--node2-KUMJIN_clean_sbu_0--edge1-XUDNAN_clean_linker_2
_symmetry_space_group_name_H-M    P1
_symmetry_Int_Tables_number       1
_symmetry_cell_setting            triclinic
loop_
_symmetry_equiv_pos_as_xyz
'x, y, z'
_cell_length_a     60.709439
_cell_length_b     56.092673
_cell_length_c     56.217815
_cell_angle_alpha  101.06905
_cell_angle_beta   94.023373
_cell_angle_gamma 104.23424
loop_
_atom_site_label
_atom_site_type_symbol
_atom_site_fract_x
_atom_site_fract_y
_atom_site_fract_z
_atom_type_partial_charge
Zn0 Zn 0.07635 0.32531 0.42026 0.0
Zn1 Zn 0.10821 0.32729 0.39001 0.0
O2 O 0.11319 0.36419 0.4076 0.0
O3 O 0.08771 0.36221 0.43371 0.0
O4 O 0.13253 0.32901 0.36782 0.0
O5 O 0.08888 0.30241 0.43647 0.0
O6 O 0.11419 0.30197 0.41024 0.0
C7 C 0.10378 0.37495 0.42453 0.0
C8 C 0.05805 0.31027 0.36932 0.0
O9 O 0.07907 0.3153 0.36609 0.0
O10 O 0.05244 0.31232 0.39076 0.0
C11 C 0.1534 0.33319 0.37621 0.0
O12 O 0.15896 0.33651 0.39985 0.0
C13 C 0.10536 0.29471 0.42837 0.0
Zn14 Zn 0.99033 0.71521 0.68411 0.0
Zn15 Zn 0.01676 0.76089 0.68196 0.0
O16 O 0.98902 0.76838 0.69766 0.0
O17 O 0.96853 0.73143 0.70182 0.0
O18 O 0.03389 0.79464 0.67668 0.0
O19 O 0.01803 0.71062 0.70247 0.0
O20 O 0.03932 0.74866 0.70256 0.0
C21 C 0.97167 0.75501 0.70478 0.0
C22 C 0.99781 0.71878 0.63577 0.0
O23 O 0.01016 0.74031 0.64706 0.0
O24 O 0.98599 0.7041 0.6474 0.0
C25 C 0.02264 0.80405 0.66277 0.0
O26 O 1.00123 0.79197 0.65442 0.0
C27 C 0.03697 0.7273 0.70826 0.0
Zn28 Zn 0.58924 0.85551 0.95021 0.0
Zn29 Zn 0.62168 0.85174 0.92192 0.0
O30 O 0.6321 0.88895 0.93999 0.0
O31 O 0.60492 0.89163 0.96363 0.0
O32 O 0.64766 0.84633 0.90355 0.0
O33 O 0.5945 0.82947 0.96756 0.0
O34 O 0.61945 0.82421 0.94185 0.0
C35 C 0.6233 0.90171 0.95605 0.0
C36 C 0.57346 0.84365 0.89841 0.0
O37 O 0.59445 0.84549 0.89587 0.0
O38 O 0.5671 0.84618 0.91953 0.0
C39 C 0.65325 0.85305 0.88402 0.0
O40 O 0.64143 0.86582 0.8736 0.0
C41 C 0.60867 0.81789 0.95925 0.0
Zn42 Zn 0.50488 0.23898 0.18218 0.0
Zn43 Zn 0.52244 0.28685 0.17838 0.0
O44 O 0.49389 0.28856 0.19536 0.0
O45 O 0.48092 0.24976 0.20058 0.0
O46 O 0.53426 0.32154 0.17207 0.0
O47 O 0.53495 0.24114 0.20072 0.0
O48 O 0.54852 0.28121 0.19998 0.0
C49 C 0.47968 0.27228 0.20354 0.0
C50 C 0.50915 0.24238 0.13343 0.0
O51 O 0.518 0.26536 0.14383 0.0
O52 O 0.50044 0.22669 0.14585 0.0
C53 C 0.55216 0.32566 0.1614 0.0
O54 O 0.56281 0.30785 0.15665 0.0
C55 C 0.55088 0.26137 0.20657 0.0
Zn56 Zn 0.13704 0.81871 0.09269 0.0
Zn57 Zn 0.10608 0.81842 0.12396 0.0
O58 O 0.10317 0.84811 0.1056 0.0
O59 O 0.12902 0.84824 0.08018 0.0
O60 O 0.08017 0.81687 0.14614 0.0
O61 O 0.12138 0.78228 0.07521 0.0
O62 O 0.09797 0.78082 0.10341 0.0
C63 C 0.11343 0.85741 0.08896 0.0
C64 C 0.157 0.82544 0.1434 0.0
O65 O 0.13644 0.82508 0.14757 0.0
O66 O 0.16187 0.82348 0.12163 0.0
C67 C 0.07135 0.83524 0.15225 0.0
O68 O 0.0798 0.85629 0.1452 0.0
C69 C 0.10546 0.76975 0.08483 0.0
Zn70 Zn 0.49973 0.76302 0.4674 0.0
Zn71 Zn 0.52478 0.75756 0.43166 0.0
O72 O 0.5332 0.79618 0.44859 0.0
O73 O 0.51463 0.80132 0.48045 0.0
O74 O 0.54958 0.7575 0.40879 0.0
O75 O 0.50958 0.73519 0.48198 0.0
O76 O 0.52862 0.72838 0.4508 0.0
C77 C 0.52818 0.81088 0.46656 0.0
C78 C 0.47424 0.75159 0.41702 0.0
O79 O 0.49365 0.75121 0.40968 0.0
O80 O 0.47248 0.75466 0.43978 0.0
C81 C 0.57001 0.76604 0.41952 0.0
O82 O 0.57304 0.77324 0.44345 0.0
C83 C 0.52179 0.72255 0.47055 0.0
Zn84 Zn 0.62531 0.30607 0.58894 0.0
Zn85 Zn 0.60437 0.312 0.62797 0.0
O86 O 0.5979 0.34155 0.6104 0.0
O87 O 0.6139 0.33432 0.5769 0.0
O88 O 0.58351 0.31024 0.6551 0.0
O89 O 0.60942 0.26798 0.57609 0.0
O90 O 0.59416 0.27347 0.61024 0.0
C91 C 0.60283 0.34722 0.58994 0.0
C92 C 0.656 0.31776 0.63617 0.0
O93 O 0.63772 0.31843 0.646 0.0
O94 O 0.65511 0.31413 0.61303 0.0
C95 C 0.5644 0.31587 0.6558 0.0
O96 O 0.55726 0.32613 0.63866 0.0
C97 C 0.59719 0.25863 0.59112 0.0
Zn98 Zn 0.99599 0.26533 0.97 0.0
Zn99 Zn 0.0255 0.26215 0.93731 0.0
O100 O 0.0341 0.30031 0.95528 0.0
O101 O 0.01219 0.30313 0.98464 0.0
O102 O 0.05043 0.26092 0.91495 0.0
O103 O 1.00521 0.23616 0.98364 0.0
O104 O 0.02874 0.23332 0.95603 0.0
C105 C 0.02759 0.31375 0.97308 0.0
C106 C 0.97498 0.25572 0.91847 0.0
O107 O 0.99528 0.25506 0.91421 0.0
O108 O 0.97048 0.25918 0.94044 0.0
C109 C 0.05961 0.27847 0.90451 0.0
O110 O 0.05218 0.29883 0.90714 0.0
C111 C 0.01964 0.22553 0.97393 0.0
Zn112 Zn 0.49276 0.03338 0.28419 0.0
Zn113 Zn 0.45861 0.05641 0.28429 0.0
O114 O 0.47221 0.06956 0.32003 0.0
O115 O 0.5018 0.05322 0.31886 0.0
O116 O 0.43303 0.0718 0.27801 0.0
O117 O 0.50633 0.04944 0.25746 0.0
O118 O 0.47962 0.06977 0.26039 0.0
C119 C 0.49039 0.06669 0.33048 0.0
C120 C 0.44815 0.99878 0.27555 0.0
O121 O 0.44202 0.01905 0.27682 0.0
O122 O 0.4692 0.99941 0.27803 0.0
C123 C 0.42258 0.08438 0.29217 0.0
O124 O 0.42831 0.08918 0.31592 0.0
C125 C 0.49729 0.06575 0.25128 0.0
Zn126 Zn 0.28016 0.22241 0.52033 0.0
Zn127 Zn 0.30642 0.19048 0.51428 0.0
O128 O 0.31506 0.21211 0.48863 0.0
O129 O 0.29076 0.23561 0.49114 0.0
O130 O 0.32827 0.16837 0.51265 0.0
O131 O 0.2952 0.23877 0.55475 0.0
O132 O 0.31144 0.20745 0.5508 0.0
C133 C 0.30658 0.2283 0.48093 0.0
C134 C 0.25519 0.16933 0.50841 0.0
O135 O 0.27476 0.16555 0.50549 0.0
O136 O 0.25328 0.19152 0.51548 0.0
C137 C 0.33809 0.16237 0.49402 0.0
O138 O 0.33395 0.17063 0.47427 0.0
C139 C 0.30682 0.22626 0.56411 0.0
Zn140 Zn 0.15759 0.03209 0.77794 0.0
Zn141 Zn 0.18538 1.00186 0.7752 0.0
O142 O 0.168 1.00284 0.81056 0.0
O143 O 0.14274 0.02482 0.80848 0.0
O144 O 0.20446 0.9704 0.77139 0.0
O145 O 0.14015 0.02085 0.74334 0.0
O146 O 0.16588 0.99931 0.73764 0.0
C147 C 0.15218 0.01218 0.82036 0.0
C148 C 0.20692 0.0601 0.78168 0.0
O149 O 0.21054 0.03807 0.77957 0.0
O150 O 0.18649 0.06197 0.78212 0.0
C151 C 0.21028 0.95716 0.78639 0.0
O152 O 0.20458 0.96173 0.80859 0.0
C153 C 0.14951 1.00759 0.72853 0.0
Zn154 Zn 0.37943 0.93807 0.03211 0.0
Zn155 Zn 0.35292 0.9681 0.026 0.0
O156 O 0.34117 0.93805 0.99614 0.0
O157 O 0.36296 0.91308 1.00248 0.0
O158 O 0.33155 0.99027 0.02405 0.0
O159 O 0.36878 0.93367 0.06378 0.0
O160 O 0.34721 0.95934 0.05954 0.0
C161 C 0.34694 0.91755 0.98996 0.0
C162 C 0.40491 0.98668 0.02704 0.0
O163 O 0.38517 0.99074 0.02475 0.0
O164 O 0.40686 0.96561 0.03045 0.0
C165 C 0.31991 0.99112 1.00469 0.0
O166 O 0.32237 0.97768 0.98367 0.0
C167 C 0.3545 0.94527 0.07167 0.0
Zn168 Zn 0.34083 0.36063 0.04323 0.0
Zn169 Zn 0.31637 0.39415 0.04611 0.0
O170 O 0.31206 0.37472 0.01007 0.0
O171 O 0.32698 0.3426 0.00886 0.0
O172 O 0.29288 0.41416 0.04644 0.0
O173 O 0.32943 0.34855 0.07293 0.0
O174 O 0.30929 0.37634 0.07467 0.0
C175 C 0.31644 0.35507 0.99801 0.0
C176 C 0.36678 0.41445 0.0519 0.0
O177 O 0.34761 0.4196 0.05365 0.0
O178 O 0.36789 0.39175 0.04706 0.0
C179 C 0.29083 0.42706 0.03053 0.0
O180 O 0.30494 0.42815 0.01385 0.0
C181 C 0.31564 0.35941 0.08343 0.0
Zn182 Zn 0.80626 0.2179 0.03074 0.0
Zn183 Zn 0.82409 0.14383 0.02689 0.0
O184 O 0.84214 0.16342 1.00334 0.0
O185 O 0.8247 0.19052 0.01989 0.0
O186 O 0.83316 0.11175 0.02407 0.0
O187 O 0.81897 0.19012 0.04486 0.0
O188 O 0.83073 0.1639 0.06298 0.0
C189 C 0.83799 0.18466 1.0044 0.0
C190 C 0.78359 0.15715 0.01583 0.0
O191 O 0.78944 0.13682 0.01546 0.0
O192 O 0.79933 0.1777 0.02343 0.0
C193 C 0.82711 0.09542 1.00415 0.0
O194 O 0.81375 0.09942 0.98676 0.0
C195 C 0.82586 0.18489 0.06483 0.0
Zn196 Zn 0.1948 0.59095 0.22394 0.0
Zn197 Zn 0.20021 0.53697 0.24226 0.0
O198 O 0.1702 0.53995 0.25346 0.0
O199 O 0.16689 0.57448 0.24074 0.0
O200 O 0.20997 0.50867 0.25242 0.0
O201 O 0.21229 0.56678 0.20685 0.0
O202 O 0.19363 0.52856 0.2048 0.0
C203 C 0.15913 0.55615 0.25095 0.0
C204 C 0.23378 0.58635 0.25151 0.0
O205 O 0.22362 0.56903 0.26144 0.0
O206 O 0.2271 0.5844 0.22917 0.0
C207 C 0.22783 0.50498 0.24357 0.0
O208 O 0.23669 0.5185 0.2282 0.0
C209 C 0.19824 0.54697 0.19442 0.0
Zn210 Zn 0.84727 0.85141 0.54061 0.0
Zn211 Zn 0.82006 0.88143 0.53571 0.0
O212 O 0.81664 0.8565 0.50252 0.0
O213 O 0.83538 0.82859 0.50778 0.0
O214 O 0.79534 0.89875 0.52993 0.0
O215 O 0.83431 0.84338 0.57093 0.0
O216 O 0.81236 0.86864 0.56697 0.0
C217 C 0.82297 0.8368 0.49408 0.0
C218 C 0.87059 0.90467 0.5429 0.0
O219 O 0.85064 0.90816 0.54139 0.0
O220 O 0.8732 0.88284 0.54245 0.0
C221 C 0.79577 0.92124 0.53987 0.0
O222 O 0.81373 0.93529 0.55503 0.0
C223 C 0.81929 0.85401 0.5787 0.0
Zn224 Zn 0.97084 0.0353 0.27473 0.0
Zn225 Zn 0.94673 0.06808 0.28088 0.0
O226 O 0.96773 0.07143 0.31852 0.0
O227 O 0.98978 0.04625 0.30804 0.0
O228 O 0.92544 0.09779 0.28045 0.0
O229 O 0.98376 0.03958 0.24286 0.0
O230 O 0.96592 0.06955 0.24649 0.0
C231 C 0.98349 0.06073 0.32486 0.0
C232 C 0.92402 1.00844 0.2741 0.0
O233 O 0.92119 0.03088 0.27603 0.0
O234 O 0.94399 1.00565 0.273 0.0
C235 C 0.92558 0.12032 0.29257 0.0
O236 O 0.94154 0.13078 0.31122 0.0
C237 C 0.97848 0.05691 0.23417 0.0
Zn238 Zn 0.29322 0.6999 0.51581 0.0
Zn239 Zn 0.30585 0.65888 0.51475 0.0
O240 O 0.32024 0.67336 0.48657 0.0
O241 O 0.3145 0.71108 0.4926 0.0
O242 O 0.31945 0.62993 0.51635 0.0
O243 O 0.30212 0.71326 0.55119 0.0
O244 O 0.314 0.67917 0.55042 0.0
C245 C 0.32292 0.69465 0.48076 0.0
C246 C 0.25598 0.65455 0.50131 0.0
O247 O 0.2714 0.64363 0.50581 0.0
O248 O 0.26115 0.67822 0.50342 0.0
C249 C 0.32433 0.61616 0.49784 0.0
O250 O 0.31929 0.61985 0.47595 0.0
C251 C 0.31118 0.69979 0.5622 0.0
Zn252 Zn 0.47342 0.54213 0.78355 0.0
Zn253 Zn 0.44516 0.57144 0.78672 0.0
O254 O 0.46394 0.57185 0.82423 0.0
O255 O 0.49122 0.55261 0.81791 0.0
O256 O 0.42585 0.6029 0.79122 0.0
O257 O 0.48816 0.54919 0.75301 0.0
O258 O 0.46253 0.57074 0.75115 0.0
C259 C 0.48079 0.56406 0.83305 0.0
C260 C 0.42403 0.51367 0.77958 0.0
O261 O 0.42008 0.53552 0.78164 0.0
O262 O 0.44457 0.51213 0.77935 0.0
C263 C 0.41913 0.61578 0.77633 0.0
O264 O 0.42393 0.61092 0.75378 0.0
C265 C 0.47843 0.56164 0.74118 0.0
Zn266 Zn 0.68268 0.05631 0.68434 0.0
Zn267 Zn 0.70258 0.03614 0.71394 0.0
O268 O 0.6793 0.04686 0.73486 0.0
O269 O 0.66127 0.06296 0.70927 0.0
O270 O 0.71981 0.02001 0.73509 0.0
O271 O 0.67392 0.02516 0.65873 0.0
O272 O 0.68604 1.00601 0.68558 0.0
C273 C 0.66361 0.05721 0.72985 0.0
C274 C 0.72771 0.08372 0.69581 0.0
O275 O 0.72732 0.06735 0.70884 0.0
O276 O 0.70996 0.08283 0.6822 0.0
C277 C 0.74027 0.01957 0.73214 0.0
O278 O 0.75016 0.03011 0.71531 0.0
C279 C 0.67612 1.00517 0.66461 0.0
Zn280 Zn 0.77536 0.72448 0.0143 0.0
Zn281 Zn 0.80306 0.69403 0.01495 0.0
O282 O 0.81093 0.71143 0.98612 0.0
O283 O 0.78794 0.73617 0.98534 0.0
O284 O 0.82604 0.67329 0.01613 0.0
O285 O 0.78839 0.74397 0.04806 0.0
O286 O 0.80822 0.7162 0.04998 0.0
C287 C 0.80357 0.72727 0.97652 0.0
C288 C 0.75173 0.67133 0.00768 0.0
O289 O 0.77178 0.66807 0.00821 0.0
O290 O 0.74894 0.69331 0.01022 0.0
C291 C 0.83218 0.66264 0.99658 0.0
O292 O 0.82312 0.66486 0.97547 0.0
C293 C 0.80171 0.73526 0.06014 0.0
Zn294 Zn 0.98805 0.5226 0.79705 0.0
Zn295 Zn 0.9425 0.5614 0.7965 0.0
O296 O 0.95647 0.57277 0.83287 0.0
O297 O 0.96996 0.54426 0.81304 0.0
O298 O 0.92397 0.58459 0.78927 0.0
O299 O 0.9963 0.54256 0.77115 0.0
O300 O 0.96844 0.56285 0.77302 0.0
C301 C 0.97044 0.55941 0.83279 0.0
C302 C 0.93098 0.50878 0.79366 0.0
O303 O 0.92107 0.526 0.79212 0.0
O304 O 0.95266 0.51416 0.79494 0.0
C305 C 0.9099 0.59011 0.80367 0.0
O306 O 0.90787 0.58045 0.82319 0.0
C307 C 0.98604 0.55774 0.76382 0.0
Zn308 Zn 0.85625 0.39198 0.52139 0.0
Zn309 Zn 0.83592 0.42756 0.52631 0.0
O310 O 0.81706 0.39967 0.49767 0.0
O311 O 0.83018 0.36679 0.49928 0.0
O312 O 0.816 0.45116 0.53307 0.0
O313 O 0.86123 0.39322 0.55699 0.0
O314 O 0.83954 0.41957 0.56036 0.0
C315 C 0.81615 0.37655 0.48961 0.0
C316 C 0.88129 0.43703 0.50702 0.0
O317 O 0.86599 0.44685 0.51594 0.0
O318 O 0.88001 0.41404 0.5064 0.0
C319 C 0.81172 0.4671 0.52143 0.0
O320 O 0.82153 0.47025 0.50175 0.0
C321 C 0.85078 0.4067 0.56993 0.0
Zn322 Zn 0.65562 0.53163 0.28253 0.0
Zn323 Zn 0.6818 0.50004 0.27951 0.0
O324 O 0.66266 0.49935 0.31372 0.0
O325 O 0.64327 0.52788 0.31508 0.0
O326 O 0.70292 0.47048 0.27909 0.0
O327 O 0.6368 0.51828 0.2487 0.0
O328 O 0.6623 0.49658 0.24177 0.0
C329 C 0.64948 0.51181 0.3251 0.0
C330 C 0.70351 0.55902 0.28436 0.0
O331 O 0.70689 0.53709 0.28432 0.0
O332 O 0.68318 0.56112 0.28351 0.0
C333 C 0.6996 0.44642 0.26973 0.0
O334 O 0.67984 0.43458 0.25651 0.0
C335 C 0.64566 0.50491 0.23338 0.0
Eu336 Eu 0.04146 0.02048 0.01337 0.0
C337 C 0.10591 0.11749 0.07794 0.0
C338 C 0.10906 0.1466 0.05087 0.0
C339 C 0.11266 0.16234 0.09475 0.0
C340 C 0.1054 0.12181 0.05457 0.0
C341 C 0.1101 0.13776 0.09834 0.0
C342 C 0.11211 0.16675 0.07104 0.0
C343 C 0.11083 0.10821 0.12433 0.0
N344 N 0.10356 0.0936 0.08077 0.0
C345 C 0.10676 0.08878 0.10352 0.0
C346 C 0.11222 0.13278 0.12174 0.0
Eu347 Eu 0.09508 0.0613 0.04487 0.0
N348 N 0.10255 0.10193 0.03553 0.0
C349 C 0.10519 0.10585 0.0125 0.0
C350 C 0.11025 0.15048 0.0271 0.0
C351 C 0.10873 0.13006 0.0079 0.0
H352 H 0.10545 0.06973 0.10558 0.0
H353 H 0.11008 0.13291 0.9895 0.0
H354 H 0.11468 0.18588 0.06854 0.0
H355 H 0.11284 0.10421 0.14232 0.0
H356 H 0.10374 0.09036 0.99732 0.0
H357 H 0.02643 0.94303 0.06148 0.0
H358 H 0.11293 0.16921 0.02347 0.0
H359 H 0.02851 0.01582 0.95325 0.0
H360 H 0.03149 0.98671 0.05695 0.0
H361 H 0.02253 0.98406 0.91459 0.0
H362 H 0.11564 0.17813 0.11018 0.0
H363 H 0.02671 0.90963 0.02576 0.0
H364 H 0.02702 0.89681 0.98044 0.0
H365 H 0.11545 0.14784 0.13788 0.0
H366 H 0.02579 0.908 0.94021 0.0
N367 N 0.03545 0.97859 0.01914 0.0
C368 C 0.03157 0.97243 0.04113 0.0
C369 C 0.02896 0.92884 0.02364 0.0
C370 C 0.03097 0.9349 1.00074 0.0
C371 C 0.0287 0.94761 0.04382 0.0
C372 C 0.03394 0.96024 0.99903 0.0
H373 H 0.02354 0.94039 0.91542 0.0
N374 N 0.03378 0.99059 0.97558 0.0
C375 C 0.0256 0.97887 0.93185 0.0
C376 C 0.0331 0.96646 0.97647 0.0
C377 C 0.02888 0.99675 0.95375 0.0
C378 C 0.0263 0.95428 0.9324 0.0
C379 C 0.02951 0.94764 0.95491 0.0
O380 O 0.01063 0.02687 0.99607 0.0
O381 O 0.06074 0.06101 0.02751 0.0
O382 O 0.06848 0.06655 0.07164 0.0
O383 O 0.03861 0.03083 0.0557 0.0
O384 O 0.0437 0.052 0.99271 0.0
O385 O 0.00919 0.01196 0.02877 0.0
O386 O 0.12511 0.0564 0.06508 0.0
O387 O 0.07555 0.02085 0.03144 0.0
O388 O 0.06701 0.01706 0.98464 0.0
O389 O 0.09919 0.04893 1.00359 0.0
O390 O 0.09138 0.03087 0.06695 0.0
O391 O 0.12718 0.06451 0.02897 0.0
C392 C 0.05592 0.07036 0.00952 0.0
C393 C 0.97572 0.99959 1.00072 0.0
C394 C 0.93457 0.99149 0.99 0.0
C395 C 0.95605 1.00825 0.99953 0.0
C396 C 0.93317 0.96586 0.98127 0.0
C397 C 0.97408 0.97397 0.99206 0.0
C398 C 0.95287 0.95722 0.98231 0.0
C399 C 0.04892 0.05052 0.07394 0.0
C400 C 0.99763 0.01766 0.01132 0.0
C401 C 0.02824 0.92268 0.95655 0.0
C402 C 0.02896 0.91631 0.97945 0.0
C403 C 0.07975 0.01215 0.05009 0.0
C404 C 0.16192 0.07466 0.05508 0.0
C405 C 0.17876 0.06523 0.04373 0.0
C406 C 0.20207 0.07757 0.05055 0.0
C407 C 0.20836 0.09967 0.06899 0.0
C408 C 0.16831 0.0969 0.07321 0.0
C409 C 0.19152 0.10934 0.08011 0.0
C410 C 0.08795 0.03138 0.98408 0.0
C411 C 0.13799 0.06021 0.04787 0.0
H412 H 0.95758 0.02818 1.0059 0.0
H413 H 0.91685 0.95247 0.97399 0.0
H414 H 0.98909 0.96694 0.99294 0.0
H415 H 0.95166 0.93745 0.97568 0.0
H416 H 0.17367 0.04785 0.0299 0.0
H417 H 0.22623 0.10957 0.0746 0.0
H418 H 0.15547 0.10447 0.08209 0.0
H419 H 0.19648 0.12646 0.09418 0.0
Eu420 Eu 0.33013 0.78533 0.25329 0.0
C421 C 0.34218 0.87303 0.33129 0.0
C422 C 0.36654 0.8736 0.36755 0.0
C423 C 0.36975 0.91201 0.35267 0.0
C424 C 0.34954 0.86045 0.34779 0.0
C425 C 0.35162 0.89923 0.33418 0.0
C426 C 0.37724 0.89919 0.36932 0.0
C427 C 0.3223 0.89907 0.30295 0.0
N428 N 0.3244 0.86015 0.31382 0.0
C429 C 0.3136 0.87311 0.30068 0.0
C430 C 0.34181 0.91207 0.31925 0.0
Eu431 Eu 0.31295 0.81541 0.30956 0.0
N432 N 0.33856 0.8359 0.34586 0.0
C433 C 0.34193 0.82418 0.36455 0.0
C434 C 0.3715 0.86096 0.38558 0.0
C435 C 0.35878 0.83629 0.38433 0.0
H436 H 0.29836 0.86391 0.28812 0.0
H437 H 0.36199 0.82655 0.39854 0.0
H438 H 0.39061 0.90951 0.38411 0.0
H439 H 0.314 0.909 0.29197 0.0
H440 H 0.33245 0.80491 0.36347 0.0
H441 H 0.24742 0.71417 0.22321 0.0
H442 H 0.38446 0.8704 0.40101 0.0
H443 H 0.38303 0.77726 0.25485 0.0
H444 H 0.27238 0.75513 0.24374 0.0
H445 H 0.40212 0.74383 0.24113 0.0
H446 H 0.37743 0.93202 0.35488 0.0
H447 H 0.26387 0.6797 0.20526 0.0
H448 H 0.29861 0.66457 0.1969 0.0
H449 H 0.34855 0.93216 0.32089 0.0
H450 H 0.34045 0.67211 0.2029 0.0
N451 N 0.30362 0.74503 0.2375 0.0
C452 C 0.28028 0.74083 0.23571 0.0
C453 C 0.27515 0.69787 0.21426 0.0
C454 C 0.29892 0.702 0.21633 0.0
C455 C 0.26581 0.71729 0.22427 0.0
C456 C 0.31287 0.72589 0.22861 0.0
H457 H 0.37901 0.70121 0.22008 0.0
N458 N 0.34933 0.75327 0.24357 0.0
C459 C 0.38362 0.73964 0.23854 0.0
C460 C 0.3364 0.7301 0.23191 0.0
C461 C 0.37274 0.75842 0.24655 0.0
C462 C 0.37053 0.71565 0.22664 0.0
C463 C 0.34666 0.71069 0.22293 0.0
O464 O 0.32401 0.80613 0.22545 0.0
O465 O 0.33194 0.82204 0.27835 0.0
O466 O 0.29151 0.82117 0.27731 0.0
O467 O 0.29628 0.79376 0.24239 0.0
O468 O 0.36273 0.81526 0.27012 0.0
O469 O 0.34906 0.78511 0.2215 0.0
O470 O 0.27553 0.80464 0.30635 0.0
O471 O 0.30673 0.7797 0.28139 0.0
O472 O 0.35281 0.77818 0.28439 0.0
O473 O 0.34485 0.80245 0.3198 0.0
O474 O 0.31048 0.77697 0.31753 0.0
O475 O 0.29464 0.82249 0.34137 0.0
C476 C 0.35321 0.83186 0.28078 0.0
C477 C 0.35813 0.82544 0.21204 0.0
C478 C 0.36575 0.86626 0.20073 0.0
C479 C 0.35062 0.84306 0.20134 0.0
C480 C 0.38861 0.87181 0.21134 0.0
C481 C 0.38112 0.83115 0.22228 0.0
C482 C 0.3962 0.85426 0.22196 0.0
C483 C 0.2855 0.80953 0.25404 0.0
C484 C 0.34126 0.80243 0.21438 0.0
C485 C 0.33287 0.68716 0.21013 0.0
C486 C 0.30907 0.6829 0.20663 0.0
C487 C 0.30667 0.76444 0.29525 0.0
C488 C 0.26289 0.78741 0.33899 0.0
C489 C 0.2758 0.77525 0.35169 0.0
C490 C 0.2663 0.75104 0.35539 0.0
C491 C 0.24297 0.73947 0.34743 0.0
C492 C 0.23958 0.77577 0.33132 0.0
C493 C 0.22964 0.752 0.33578 0.0
C494 C 0.35662 0.7877 0.30829 0.0
C495 C 0.27481 0.80933 0.3297 0.0
H496 H 0.3328 0.83882 0.19382 0.0
H497 H 0.40077 0.8894 0.2109 0.0
H498 H 0.38739 0.818 0.2309 0.0
H499 H 0.41385 0.8585 0.22987 0.0
H500 H 0.2938 0.78403 0.35743 0.0
H501 H 0.23504 0.7209 0.35032 0.0
H502 H 0.22936 0.78459 0.32105 0.0
H503 H 0.2117 0.74295 0.3296 0.0
Eu504 Eu 0.58838 0.04259 0.51841 0.0
C505 C 0.50066 0.97876 0.55248 0.0
C506 C 0.48257 0.94574 0.51709 0.0
C507 C 0.47619 0.93922 0.55784 0.0
C508 C 0.49696 0.96998 0.52739 0.0
C509 C 0.49013 0.96357 0.56798 0.0
C510 C 0.47236 0.93035 0.53245 0.0
C511 C 0.5068 0.99821 0.6023 0.0
N512 N 0.514 1.00247 0.56172 0.0
C513 C 0.51678 0.0126 0.5862 0.0
C514 C 0.49356 0.97352 0.59318 0.0
Eu515 Eu 0.52976 0.02575 0.53327 0.0
N516 N 0.50677 0.98544 0.51303 0.0
C517 C 0.50204 0.97828 0.48819 0.0
C518 C 0.47858 0.93782 0.49164 0.0
C519 C 0.48824 0.95425 0.47713 0.0
H520 H 0.52695 0.03168 0.5934 0.0
H521 H 0.48499 0.94846 0.45743 0.0
H522 H 0.46135 0.91163 0.52487 0.0
H523 H 0.5093 1.00619 0.62172 0.0
H524 H 0.50922 0.99086 0.47676 0.0
H525 H 0.63247 0.11736 0.59651 0.0
H526 H 0.46778 0.91927 0.48302 0.0
H527 H 0.59439 0.03804 0.45925 0.0
H528 H 0.60844 0.07528 0.57556 0.0
H529 H 0.61264 0.06477 0.43207 0.0
H530 H 0.46803 0.92723 0.56946 0.0
H531 H 0.64954 0.14816 0.57237 0.0
H532 H 0.65656 0.1576 0.53123 0.0
H533 H 0.48577 0.96245 0.60569 0.0
H534 H 0.65077 0.14352 0.48649 0.0
N535 N 0.61054 0.08277 0.53999 0.0
C536 C 0.61545 0.08871 0.56483 0.0
C537 C 0.6387 0.12985 0.56309 0.0
C538 C 0.63479 0.12305 0.53756 0.0
C539 C 0.62915 0.1125 0.57677 0.0
C540 C 0.62032 0.0991 0.52639 0.0
H541 H 0.63443 0.10896 0.44935 0.0
N542 N 0.60468 0.06724 0.49124 0.0
C543 C 0.614 0.07245 0.45147 0.0
C544 C 0.61723 0.09112 0.50122 0.0
C545 C 0.60366 0.05739 0.46689 0.0
C546 C 0.6262 0.09742 0.46128 0.0
C547 C 0.62838 0.10688 0.4865 0.0
O548 O 0.60986 0.02025 0.50048 0.0
O549 O 0.55728 0.01078 0.51642 0.0
O550 O 0.54901 1.0048 0.55371 0.0
O551 O 0.58524 0.03174 0.55565 0.0
O552 O 0.57377 1.00995 0.48583 0.0
O553 O 0.61844 0.03839 0.53887 0.0
O554 O 0.50916 0.04917 0.55093 0.0
O555 O 0.56083 0.05788 0.53472 0.0
O556 O 0.56786 0.06026 0.4952 0.0
O557 O 0.53149 0.03409 0.49532 0.0
O558 O 0.54526 0.05802 0.56593 0.0
O559 O 0.49996 0.0305 0.51266 0.0
C560 C 0.55719 0.99758 0.49545 0.0
C561 C 0.64881 0.03114 0.51714 0.0
C562 C 0.6846 0.01872 0.51697 0.0
C563 C 0.6609 0.01301 0.51837 0.0
C564 C 0.69594 0.04285 0.51395 0.0
C565 C 0.66037 0.05508 0.51419 0.0
C566 C 0.68384 0.06084 0.51251 0.0
C567 C 0.57102 0.01246 0.5619 0.0
C568 C 0.62439 0.02489 0.52008 0.0
C569 C 0.64213 0.1311 0.49749 0.0
C570 C 0.64546 0.1391 0.52297 0.0
C571 C 0.56127 0.07076 0.55592 0.0
C572 C 0.47045 0.0406 0.53437 0.0
C573 C 0.45819 0.05587 0.52549 0.0
C574 C 0.43491 0.05275 0.52829 0.0
C575 C 0.42406 0.03404 0.54024 0.0
C576 C 0.45942 0.02192 0.54609 0.0
C577 C 0.43627 0.01871 0.54901 0.0
C578 C 0.54575 0.05175 0.48714 0.0
C579 C 0.49475 0.04494 0.53129 0.0
H580 H 0.6519 0.99467 0.52104 0.0
H581 H 0.71411 0.04774 0.51244 0.0
H582 H 0.65137 0.06932 0.51338 0.0
H583 H 0.69271 0.07935 0.51019 0.0
H584 H 0.46696 0.07047 0.51669 0.0
H585 H 0.40608 0.03103 0.54251 0.0
H586 H 0.46866 1.00997 0.55303 0.0
H587 H 0.42777 1.00427 0.55808 0.0
Eu588 Eu 0.28676 0.2885 0.77905 0.0
C589 C 0.36051 0.27251 0.83618 0.0
C590 C 0.37358 0.31156 0.86659 0.0
C591 C 0.37225 0.27191 0.87837 0.0
C592 C 0.36502 0.29846 0.84231 0.0
C593 C 0.36501 0.25909 0.85402 0.0
C594 C 0.37659 0.29812 0.88462 0.0
C595 C 0.35958 0.22228 0.8218 0.0
N596 N 0.35418 0.26071 0.81236 0.0
C597 C 0.35578 0.23652 0.80485 0.0
C598 C 0.36356 0.23344 0.84661 0.0
Eu599 Eu 0.34592 0.28578 0.7847 0.0
N600 N 0.36228 0.31102 0.82436 0.0
C601 C 0.36979 0.33679 0.82935 0.0
C602 C 0.37956 0.33786 0.87194 0.0
C603 C 0.37807 0.35051 0.85313 0.0
H604 H 0.35398 0.22797 0.78566 0.0
H605 H 0.38348 0.37088 0.85688 0.0
H606 H 0.38303 0.3079 0.90331 0.0
H607 H 0.35984 0.20286 0.81566 0.0
H608 H 0.36988 0.34733 0.81532 0.0
H609 H 0.24745 0.20377 0.707 0.0
H610 H 0.38608 0.34856 0.89034 0.0
H611 H 0.27867 0.34645 0.77921 0.0
H612 H 0.26242 0.22704 0.74832 0.0
H613 H 0.27191 0.37188 0.74979 0.0
H614 H 0.37549 0.26185 0.89232 0.0
H615 H 0.24351 0.22635 0.67402 0.0
H616 H 0.24585 0.26712 0.66157 0.0
H617 H 0.36689 0.22251 0.85973 0.0
H618 H 0.25358 0.31316 0.67295 0.0
N619 N 0.26951 0.26349 0.73958 0.0
C620 C 0.26196 0.23771 0.73448 0.0
C621 C 0.25065 0.23694 0.69231 0.0
C622 C 0.2567 0.26323 0.69783 0.0
C623 C 0.25289 0.22414 0.71084 0.0
C624 C 0.26607 0.2762 0.72195 0.0
H625 H 0.26337 0.35241 0.70571 0.0
N626 N 0.27782 0.31387 0.75201 0.0
C627 C 0.27204 0.35245 0.74335 0.0
C628 C 0.27066 0.30216 0.72829 0.0
C629 C 0.27643 0.33808 0.75994 0.0
C630 C 0.26719 0.34139 0.71853 0.0
C631 C 0.26549 0.31571 0.71083 0.0
O632 O 0.26714 0.30995 0.8017 0.0
O633 O 0.31958 0.30014 0.8047 0.0
O634 O 0.32175 0.24476 0.77853 0.0
O635 O 0.28508 0.2488 0.78401 0.0
O636 O 0.29085 0.27907 0.81592 0.0
O637 O 0.25131 0.27134 0.78325 0.0
O638 O 0.36717 0.26448 0.76435 0.0
O639 O 0.3131 0.27437 0.75911 0.0
O640 O 0.31095 0.32925 0.78428 0.0
O641 O 0.34771 0.32532 0.77932 0.0
O642 O 0.34209 0.29423 0.74735 0.0
O643 O 0.38081 0.30413 0.77978 0.0
C644 C 0.31181 0.29163 0.82259 0.0
C645 C 0.22645 0.29709 0.79332 0.0
C646 C 0.18846 0.2963 0.80577 0.0
C647 C 0.21029 0.29216 0.8097 0.0
C648 C 0.18328 0.30588 0.78531 0.0
C649 C 0.22072 0.3061 0.77279 0.0
C650 C 0.19931 0.31071 0.76898 0.0
C651 C 0.29993 0.23499 0.78155 0.0
C652 C 0.24861 0.29137 0.79746 0.0
C653 C 0.25736 0.30301 0.6866 0.0
C654 C 0.25292 0.2768 0.68014 0.0
C655 C 0.32081 0.28278 0.74119 0.0
C656 C 0.40754 0.28016 0.77514 0.0
C657 C 0.42429 0.28124 0.75888 0.0
C658 C 0.44647 0.27955 0.7664 0.0
C659 C 0.45145 0.27699 0.79051 0.0
C660 C 0.41304 0.27751 0.79894 0.0
C661 C 0.43485 0.27587 0.80652 0.0
C662 C 0.33277 0.339 0.78139 0.0
C663 C 0.38503 0.28381 0.76781 0.0
H664 H 0.21472 0.28497 0.82545 0.0
H665 H 0.1666 0.309 0.78152 0.0
H666 H 0.23257 0.30924 0.75956 0.0
H667 H 0.19498 0.31768 0.75309 0.0
H668 H 0.42003 0.28338 0.7405 0.0
H669 H 0.46837 0.27626 0.79725 0.0
H670 H 0.40064 0.27723 0.81183 0.0
H671 H 0.43902 0.27406 0.82501 0.0
Eu672 Eu 0.06542 0.062 0.54254 0.0
C673 C 0.08373 0.98752 0.45855 0.0
C674 C 0.05276 0.98355 0.42705 0.0
C675 C 0.08952 0.97868 0.41568 0.0
C676 C 0.0614 0.98829 0.45199 0.0
C677 C 0.09769 0.98186 0.44037 0.0
C678 C 0.06714 0.97958 0.40904 0.0
C679 C 0.12587 0.98001 0.47204 0.0
N680 N 0.09128 0.99053 0.48256 0.0
C681 C 0.1116 0.98584 0.48945 0.0
C682 C 0.11912 0.97856 0.44744 0.0
Eu683 Eu 0.06627 1.0017 0.51043 0.0
N684 N 0.04766 0.99183 0.46977 0.0
C685 C 0.02468 0.9883 0.4636 0.0
C686 C 0.02966 0.98196 0.42084 0.0
C687 C 0.01548 0.98381 0.43916 0.0
H688 H 0.11707 0.98703 0.50841 0.0
H689 H 0.99743 0.98188 0.43449 0.0
H690 H 0.06085 0.97627 0.38986 0.0
H691 H 0.14215 0.97684 0.47762 0.0
H692 H 0.01317 0.98952 0.47721 0.0
H693 H 0.12506 0.0831 0.62572 0.0
H694 H 0.02243 0.97845 0.40191 0.0
H695 H 0.01543 0.07948 0.536 0.0
H696 H 0.11312 0.07219 0.58138 0.0
H697 H 0.9878 0.09224 0.56192 0.0
H698 H 0.10013 0.97468 0.40151 0.0
H699 H 0.09711 0.09059 0.65429 0.0
H700 H 0.05758 0.09408 0.66066 0.0
H701 H 0.13026 0.9741 0.434 0.0
H702 H 0.02014 0.09649 0.64322 0.0
N703 N 0.07823 0.07131 0.58471 0.0
C704 C 0.10053 0.07457 0.59361 0.0
C705 C 0.09161 0.08514 0.63481 0.0
C706 C 0.06915 0.08344 0.62555 0.0
C707 C 0.10746 0.08107 0.61876 0.0
C708 C 0.06297 0.07693 0.6 0.0
H709 H 0.99435 0.0966 0.60658 0.0
N710 N 0.03742 0.0752 0.5654 0.0
C711 C 1.00284 0.08829 0.57005 0.0
C712 C 0.04199 0.07889 0.5901 0.0
C713 C 0.01861 0.08079 0.55534 0.0
C714 C 1.00657 0.09067 0.59525 0.0
C715 C 0.02654 0.08652 0.60563 0.0
O716 O 0.07664 0.08999 0.52055 0.0
O717 O 0.06026 0.03825 0.5041 0.0
O718 O 0.09782 0.02929 0.50301 0.0
O719 O 0.10169 0.06066 0.53743 0.0
O720 O 0.03761 0.05944 0.51129 0.0
O721 O 0.08237 0.10117 0.55979 0.0
O722 O 0.0528 0.97468 0.53277 0.0
O723 O 0.07287 0.02552 0.54938 0.0
O724 O 0.03309 0.03595 0.54964 0.0
O725 O 0.03006 1.00234 0.51718 0.0
O726 O 0.09628 1.00561 0.5388 0.0
O727 O 0.05918 0.96119 0.49609 0.0
C728 C 0.04314 0.04403 0.49403 0.0
C729 C 0.07665 0.13147 0.53803 0.0
C730 C 0.08093 0.16878 0.52102 0.0
C731 C 0.08731 0.14681 0.52301 0.0
C732 C 0.06351 0.1751 0.53418 0.0
C733 C 0.0596 0.13819 0.55138 0.0
C734 C 0.05301 0.1599 0.54933 0.0
C735 C 0.10946 0.05065 0.51768 0.0
C736 C 0.0837 0.10861 0.53935 0.0
C737 C 0.03193 0.09091 0.63106 0.0
C738 C 0.05324 0.08949 0.641 0.0
C739 C 0.091 0.01976 0.55732 0.0
C740 C 0.06844 0.93969 0.52619 0.0
C741 C 0.06409 0.93176 0.54807 0.0
C742 C 0.07778 0.91819 0.55786 0.0
C743 C 0.09585 0.91261 0.54554 0.0
C744 C 0.08627 0.9333 0.51388 0.0
C745 C 0.09995 0.92003 0.52363 0.0
C746 C 0.02163 0.01422 0.53549 0.0
C747 C 0.05502 0.95545 0.51696 0.0
H748 H 0.1008 0.14175 0.51314 0.0
H749 H 0.05787 0.19168 0.53264 0.0
H750 H 0.05146 0.12681 0.56343 0.0
H751 H 0.03972 0.16495 0.55949 0.0
H752 H 0.05026 0.93637 0.55761 0.0
H753 H 0.10644 0.90189 0.55251 0.0
H754 H 0.08979 0.93861 0.49675 0.0
H755 H 0.11371 0.91534 0.51408 0.0
Eu756 Eu 0.3381 0.80653 0.77642 0.0
C757 C 0.2813 0.73658 0.83379 0.0
C758 C 0.29205 0.69745 0.82293 0.0
C759 C 0.28005 0.70937 0.86283 0.0
C760 C 0.28937 0.72012 0.81732 0.0
C761 C 0.27608 0.73114 0.85655 0.0
C762 C 0.288 0.69253 0.84603 0.0
C763 C 0.26139 0.76783 0.86423 0.0
N764 N 0.27729 0.7572 0.82694 0.0
C765 C 0.26672 0.77234 0.84143 0.0
C766 C 0.26636 0.74733 0.87198 0.0
Eu767 Eu 0.28794 0.76433 0.78847 0.0
N768 N 0.29256 0.72517 0.79497 0.0
C769 C 0.29664 0.70741 0.77678 0.0
C770 C 0.29774 0.67992 0.80479 0.0
C771 C 0.29963 0.68474 0.78147 0.0
H772 H 0.26282 0.7883 0.83577 0.0
H773 H 0.30347 0.67105 0.76711 0.0
H774 H 0.29024 0.67538 0.85078 0.0
H775 H 0.25348 0.7802 0.87584 0.0
H776 H 0.29804 0.71081 0.75869 0.0
H777 H 0.32342 0.90013 0.79966 0.0
H778 H 0.29998 0.6623 0.80837 0.0
H779 H 0.36224 0.78217 0.72847 0.0
H780 H 0.32716 0.85938 0.80693 0.0
H781 H 0.37345 0.79185 0.68954 0.0
H782 H 0.27635 0.705 0.88032 0.0
H783 H 0.32938 0.9107 0.75945 0.0
H784 H 0.34067 0.89899 0.71757 0.0
H785 H 0.26212 0.74382 0.88962 0.0
H786 H 0.35454 0.86966 0.68772 0.0
N787 N 0.33436 0.84632 0.77096 0.0
C788 C 0.32976 0.8636 0.78928 0.0
C789 C 0.33095 0.89267 0.76252 0.0
C790 C 0.33699 0.87553 0.74428 0.0
C791 C 0.32766 0.88682 0.78525 0.0
C792 C 0.33874 0.85226 0.74918 0.0
H793 H 0.36741 0.83009 0.67743 0.0
N794 N 0.34928 0.81429 0.73837 0.0
C795 C 0.3658 0.80431 0.70136 0.0
C796 C 0.34657 0.83581 0.73242 0.0
C797 C 0.35939 0.7989 0.72353 0.0
C798 C 0.36232 0.82589 0.69458 0.0
C799 C 0.35281 0.84208 0.71024 0.0
O800 O 0.37365 0.80527 0.78206 0.0
O801 O 0.32648 0.76983 0.78974 0.0
O802 O 0.30973 0.7815 0.82443 0.0
O803 O 0.32895 0.81861 0.81471 0.0
O804 O 0.34977 0.77051 0.76508 0.0
O805 O 0.36347 0.83726 0.80145 0.0
O806 O 0.25179 0.76381 0.78382 0.0
O807 O 0.29968 0.80089 0.77513 0.0
O808 O 0.31638 0.78924 0.7404 0.0
O809 O 0.29779 0.75213 0.75061 0.0
O810 O 0.2762 0.80043 0.79942 0.0
O811 O 0.26321 0.73409 0.76218 0.0
C812 C 0.33869 0.75652 0.77831 0.0
C813 C 0.40133 0.84408 0.79091 0.0
C814 C 0.44301 0.85572 0.79435 0.0
C815 C 0.42234 0.84063 0.7991 0.0
C816 C 0.44227 0.87396 0.78051 0.0
C817 C 0.40078 0.86243 0.77726 0.0
C818 C 0.42122 0.87721 0.77199 0.0
C819 C 0.32127 0.80533 0.83084 0.0
C820 C 0.38041 0.82754 0.79631 0.0
C821 C 0.35004 0.86464 0.70476 0.0
C822 C 0.34213 0.88133 0.72175 0.0
C823 C 0.28754 0.81435 0.78632 0.0
C824 C 0.22605 0.72368 0.7741 0.0
C825 C 0.20371 0.72309 0.76517 0.0
C826 C 0.18469 0.70659 0.77167 0.0
C827 C 0.18851 0.691 0.78754 0.0
C828 C 0.22939 0.70748 0.78932 0.0
C829 C 0.21072 0.69136 0.79611 0.0
C830 C 0.30565 0.76514 0.73435 0.0
C831 C 0.24564 0.74215 0.76848 0.0
H832 H 0.42252 0.826 0.80917 0.0
H833 H 0.45791 0.88603 0.77672 0.0
H834 H 0.3847 0.86534 0.7707 0.0
H835 H 0.42076 0.89138 0.76147 0.0
H836 H 0.20124 0.73533 0.75303 0.0
H837 H 0.17435 0.67859 0.7935 0.0
H838 H 0.24636 0.70735 0.79609 0.0
H839 H 0.21347 0.67917 0.80816 0.0
Eu840 Eu 0.60295 0.1205 0.03733 0.0
C841 C 0.52628 0.10355 0.95082 0.0
C842 C 0.4984 0.0644 0.95111 0.0
C843 C 0.48629 0.0975 0.93591 0.0
C844 C 0.52103 0.07994 0.95635 0.0
C845 C 0.50903 0.11245 0.9402 0.0
C846 C 0.48099 0.07351 0.94132 0.0
C847 C 0.53829 0.14941 0.93714 0.0
N848 N 0.54842 0.11743 0.95494 0.0
C849 C 0.55481 0.13966 0.9475 0.0
C850 C 0.51526 0.13586 0.93368 0.0
Eu851 Eu 0.5752 0.09975 0.9727 0.0
N852 N 0.53822 0.07168 0.96587 0.0
C853 C 0.53428 0.0475 0.96898 0.0
C854 C 0.49406 0.03996 0.9553 0.0
C855 C 0.51215 0.03137 0.96391 0.0
H856 H 0.57264 0.15011 0.95019 0.0
H857 H 0.50911 0.01231 0.96661 0.0
H858 H 0.46347 0.06195 0.93741 0.0
H859 H 0.54332 0.16731 0.93176 0.0
H860 H 0.54813 0.04066 0.97565 0.0
H861 H 0.67285 0.20488 0.04423 0.0
H862 H 0.47692 0.02743 0.95148 0.0
H863 H 0.60144 0.07004 0.06191 0.0
H864 H 0.63377 0.17722 0.03201 0.0
H865 H 0.62736 0.05384 0.08633 0.0
H866 H 0.47276 0.10409 0.92793 0.0
H867 H 0.70177 0.19092 0.06723 0.0
H868 H 0.71113 0.15846 0.08837 0.0
H869 H 0.5025 0.14338 0.92551 0.0
H870 H 0.69885 0.11732 0.09955 0.0
N871 N 0.64072 0.14708 0.04644 0.0
C872 C 0.64631 0.1706 0.04154 0.0
C873 C 0.6847 0.17851 0.06158 0.0
C874 C 0.67854 0.15495 0.0677 0.0
C875 C 0.66843 0.18646 0.04862 0.0
C876 C 0.65614 0.13939 0.05967 0.0
H877 H 0.66779 0.07813 0.09867 0.0
N878 N 0.6271 0.10275 0.05945 0.0
C879 C 0.63372 0.07148 0.08081 0.0
C880 C 0.64914 0.11649 0.06632 0.0
C881 C 0.61907 0.08076 0.06696 0.0
C882 C 0.65654 0.08521 0.08768 0.0
C883 C 0.66444 0.10819 0.08077 0.0
O884 O 0.58409 0.12023 0.06891 0.0
O885 O 0.57095 0.10237 0.01187 0.0
O886 O 0.56176 0.13083 0.99305 0.0
O887 O 0.5942 0.15148 0.02042 0.0
O888 O 0.57413 0.08788 0.04251 0.0
O889 O 0.60298 0.15581 0.06183 0.0
O890 O 0.58701 0.10183 0.93722 0.0
O891 O 0.60699 0.11689 0.99795 0.0
O892 O 0.61675 0.08864 0.01949 0.0
O893 O 0.58743 0.0691 0.98713 0.0
O894 O 0.60537 0.13099 0.96691 0.0
O895 O 0.57633 0.06555 0.94742 0.0
C896 C 0.56095 0.08615 0.02293 0.0
C897 C 0.60016 0.15273 0.10305 0.0
C898 C 0.59263 0.15328 0.14507 0.0
C899 C 0.58482 0.14791 0.12006 0.0
C900 C 0.61608 0.16393 0.153 0.0
C901 C 0.62356 0.16356 0.11116 0.0
C902 C 0.63141 0.16924 0.13609 0.0
C903 C 0.57407 0.15074 0.00929 0.0
C904 C 0.59135 0.14451 0.07701 0.0
C905 C 0.68688 0.12336 0.08841 0.0
C906 C 0.69386 0.14679 0.08207 0.0
C907 C 0.61812 0.13208 0.98663 0.0
C908 C 0.56867 0.06672 0.9059 0.0
C909 C 0.5794 0.06973 0.88508 0.0
C910 C 0.56694 0.06056 0.86174 0.0
C911 C 0.54343 0.04859 0.85941 0.0
C912 C 0.54525 0.05427 0.90331 0.0
C913 C 0.5327 0.04542 0.88016 0.0
C914 C 0.60595 0.06941 1.00149 0.0
C915 C 0.58217 0.07735 0.92998 0.0
H916 H 0.56686 0.13892 0.11367 0.0
H917 H 0.62255 0.16803 0.1722 0.0
H918 H 0.63576 0.1673 0.09831 0.0
H919 H 0.64947 0.17742 0.14229 0.0
H920 H 0.59747 0.07944 0.88708 0.0
H921 H 0.53351 0.04125 0.84157 0.0
H922 H 0.53663 0.05127 0.919 0.0
H923 H 0.51464 0.03593 0.87831 0.0
Eu924 Eu 0.3334 0.33371 0.30215 0.0
C925 C 0.2499 0.25805 0.23463 0.0
C926 C 0.21763 0.26131 0.2569 0.0
C927 C 0.21205 0.2506 0.21255 0.0
C928 C 0.24125 0.26338 0.2566 0.0
C929 C 0.23526 0.25103 0.21238 0.0
C930 C 0.20324 0.25566 0.23478 0.0
C931 C 0.26686 0.2424 0.19163 0.0
N932 N 0.27232 0.25814 0.2351 0.0
C933 C 0.28061 0.24915 0.21413 0.0
C934 C 0.24418 0.24373 0.19069 0.0
Eu935 Eu 0.29467 0.27175 0.27407 0.0
N936 N 0.25555 0.26869 0.27771 0.0
C937 C 0.24701 0.26979 0.29961 0.0
C938 C 0.20901 0.26388 0.27941 0.0
C939 C 0.22368 0.26755 0.30079 0.0
H940 H 0.29796 0.24756 0.2145 0.0
H941 H 0.21699 0.26868 0.31816 0.0
H942 H 0.18512 0.25434 0.23468 0.0
H943 H 0.27372 0.236 0.17504 0.0
H944 H 0.25814 0.27262 0.3163 0.0
H945 H 0.34773 0.40868 0.25048 0.0
H946 H 0.19096 0.26227 0.28042 0.0
H947 H 0.37513 0.32142 0.33776 0.0
H948 H 0.32658 0.38118 0.27527 0.0
H949 H 0.4161 0.32402 0.33875 0.0
H950 H 0.20061 0.24551 0.19563 0.0
H951 H 0.38707 0.40727 0.2428 0.0
H952 H 0.42135 0.3917 0.25216 0.0
H953 H 0.2335 0.23825 0.17324 0.0
H954 H 0.44011 0.36848 0.27641 0.0
N955 N 0.35312 0.36319 0.28042 0.0
C956 C 0.34374 0.38038 0.27208 0.0
C957 C 0.37776 0.39497 0.25352 0.0
C958 C 0.38814 0.37929 0.26427 0.0
C959 C 0.35563 0.39593 0.25792 0.0
C960 C 0.37526 0.36353 0.27797 0.0
H961 H 0.43847 0.34376 0.30922 0.0
N962 N 0.37335 0.33722 0.30624 0.0
C963 C 0.40771 0.33107 0.32504 0.0
C964 C 0.38575 0.35024 0.29142 0.0
C965 C 0.38425 0.32919 0.32405 0.0
C966 C 0.42027 0.34223 0.30835 0.0
C967 C 0.40949 0.35269 0.29177 0.0
O968 O 0.32154 0.34166 0.33803 0.0
O969 O 0.29746 0.30964 0.29715 0.0
O970 O 0.29418 0.29538 0.24563 0.0
O971 O 0.32436 0.3318 0.26144 0.0
O972 O 0.30202 0.34593 0.29143 0.0
O973 O 0.34878 0.36913 0.32863 0.0
O974 O 0.276 0.23521 0.28004 0.0
O975 O 0.33098 0.29445 0.28461 0.0
O976 O 0.33723 0.30211 0.32084 0.0
O977 O 0.29921 0.28137 0.31555 0.0
O978 O 0.32319 0.27071 0.25015 0.0
O979 O 0.31187 0.24208 0.27647 0.0
C980 C 0.28711 0.32516 0.29162 0.0
C981 C 0.32225 0.3838 0.35204 0.0
C982 C 0.30125 0.41303 0.3416 0.0
C983 C 0.31384 0.39546 0.33485 0.0
C984 C 0.29706 0.41877 0.36607 0.0
C985 C 0.31795 0.38965 0.37632 0.0
C986 C 0.30543 0.40715 0.3833 0.0
C987 C 0.30828 0.31697 0.24393 0.0
C988 C 0.33433 0.36453 0.3442 0.0
C989 C 0.42197 0.3668 0.27672 0.0
C990 C 0.41129 0.38003 0.26292 0.0
C991 C 0.33899 0.2875 0.26523 0.0
C992 C 0.28924 0.2007 0.26128 0.0
C993 C 0.30511 0.1866 0.26341 0.0
C994 C 0.30217 0.163 0.24774 0.0
C995 C 0.28293 0.15362 0.22988 0.0
C996 C 0.27026 0.19119 0.24318 0.0
C997 C 0.26714 0.1677 0.22763 0.0
C998 C 0.31962 0.28772 0.32832 0.0
C999 C 0.29324 0.22545 0.27785 0.0
H1000 H 0.31691 0.39056 0.31608 0.0
H1001 H 0.28763 0.43245 0.37199 0.0
H1002 H 0.32409 0.38057 0.38979 0.0
H1003 H 0.30213 0.41165 0.40208 0.0
H1004 H 0.32003 0.19437 0.27701 0.0
H1005 H 0.27999 0.13536 0.21773 0.0
H1006 H 0.2579 0.20187 0.24099 0.0
H1007 H 0.25244 0.16037 0.21377 0.0
Eu1008 Eu 0.56391 0.56371 0.04791 0.0
C1009 C 0.53614 0.47678 0.96438 0.0
C1010 C 0.50838 0.43983 0.97033 0.0
C1011 C 0.5086 0.44993 0.93027 0.0
C1012 C 0.52647 0.46165 0.97969 0.0
C1013 C 0.52765 0.47059 0.93929 0.0
C1014 C 0.49904 0.4345 0.94575 0.0
C1015 C 0.55945 0.50313 0.933 0.0
N1016 N 0.55495 0.49625 0.97351 0.0
C1017 C 0.5671 0.5088 0.95797 0.0
C1018 C 0.5393 0.48446 0.9237 0.0
Eu1019 Eu 0.56641 0.5042 0.01637 0.0
N1020 N 0.53585 0.46718 1.00336 0.0
C1021 C 0.52889 0.45086 0.01829 0.0
C1022 C 0.50084 0.42341 0.98568 0.0
C1023 C 0.51128 0.42885 0.00971 0.0
H1024 H 0.58276 0.5233 0.96432 0.0
H1025 H 0.50572 0.41613 0.02166 0.0
H1026 H 0.48493 0.41802 0.93835 0.0
H1027 H 0.56927 0.51309 0.92092 0.0
H1028 H 0.53692 0.45482 0.03687 0.0
H1029 H 0.62611 0.58282 0.12894 0.0
H1030 H 0.48722 0.40628 0.97904 0.0
H1031 H 0.51052 0.57418 0.04457 0.0
H1032 H 0.61291 0.57336 0.08506 0.0
H1033 H 0.48279 0.58303 0.07226 0.0
H1034 H 0.50175 0.4451 0.91113 0.0
H1035 H 0.59904 0.58865 0.15898 0.0
H1036 H 0.55947 0.59029 0.16738 0.0
H1037 H 0.53346 0.48016 0.90432 0.0
H1038 H 0.52059 0.59032 0.15198 0.0
N1039 N 0.57821 0.57253 0.08982 0.0
C1040 C 0.60072 0.5755 0.0978 0.0
C1041 C 0.59299 0.58404 0.13965 0.0
C1042 C 0.5702 0.58209 0.13143 0.0
C1043 C 0.60835 0.58095 0.12276 0.0
C1044 C 0.56324 0.57658 0.10603 0.0
H1045 H 0.4921 0.58812 0.11673 0.0
N1046 N 0.53552 0.57296 0.07277 0.0
C1047 C 0.49911 0.58115 0.07953 0.0
C1048 C 0.54136 0.5769 0.09732 0.0
C1049 C 0.51497 0.57592 0.06381 0.0
C1050 C 0.50443 0.584 0.10461 0.0
C1051 C 0.52585 0.58228 0.11384 0.0
O1052 O 0.5717 0.59228 0.02583 0.0
O1053 O 0.5589 0.53985 0.00878 0.0
O1054 O 0.59304 0.53513 1.00567 0.0
O1055 O 0.60011 0.56287 0.04248 0.0
O1056 O 0.5341 0.55788 0.01838 0.0
O1057 O 0.57906 0.60341 0.06483 0.0
O1058 O 0.60214 0.50311 0.01583 0.0
O1059 O 0.57916 0.53178 0.05298 0.0
O1060 O 0.53351 0.53566 0.0565 0.0
O1061 O 0.52986 0.50095 0.02506 0.0
O1062 O 0.56393 0.49592 0.0548 0.0
O1063 O 0.57603 0.46847 0.00909 0.0
C1064 C 0.54005 0.54372 1.00045 0.0
C1065 C 0.5693 0.63266 0.04409 0.0
C1066 C 0.57125 0.6718 0.03075 0.0
C1067 C 0.58 0.65104 0.03192 0.0
C1068 C 0.55139 0.67366 0.04171 0.0
C1069 C 0.54996 0.6352 0.05553 0.0
C1070 C 0.54095 0.65553 0.05416 0.0
C1071 C 0.60633 0.55487 0.02118 0.0
C1072 C 0.57858 0.611 0.0445 0.0
C1073 C 0.53236 0.58641 0.13906 0.0
C1074 C 0.55449 0.58637 0.14784 0.0
C1075 C 0.57442 0.51756 0.06829 0.0
C1076 C 0.61101 0.47098 0.03236 0.0
C1077 C 0.60017 0.45811 0.0493 0.0
C1078 C 0.6132 0.45214 0.06789 0.0
C1079 C 0.63723 0.45944 0.06949 0.0
C1080 C 0.635 0.47792 0.03419 0.0
C1081 C 0.648 0.47222 0.05272 0.0
C1082 C 0.52178 0.5136 0.04317 0.0
C1083 C 0.59782 0.47906 0.01386 0.0
H1084 H 0.59533 0.64928 0.02373 0.0
H1085 H 0.54383 0.68907 0.04062 0.0
H1086 H 0.5419 0.62162 0.06561 0.0
H1087 H 0.52586 0.65726 0.06278 0.0
H1088 H 0.58165 0.4526 0.04795 0.0
H1089 H 0.6477 0.45542 0.08382 0.0
H1090 H 0.64367 0.48812 0.02151 0.0
H1091 H 0.66651 0.47785 0.05415 0.0
Eu1092 Eu 0.83644 0.30169 0.27438 0.0
C1093 C 0.76152 0.25524 0.32709 0.0
C1094 C 0.77035 0.21989 0.34096 0.0
C1095 C 0.74728 0.24364 0.36383 0.0
C1096 C 0.77212 0.23582 0.3242 0.0
C1097 C 0.74908 0.25942 0.34706 0.0
C1098 C 0.75789 0.22391 0.36078 0.0
C1099 C 0.74109 0.29454 0.3325 0.0
N1100 N 0.76397 0.27046 0.31077 0.0
C1101 C 0.75357 0.28964 0.313 0.0
C1102 C 0.73892 0.27945 0.34968 0.0
Eu1103 Eu 0.78545 0.26063 0.27807 0.0
N1104 N 0.78453 0.23282 0.30516 0.0
C1105 C 0.79422 0.21316 0.30095 0.0
C1106 C 0.78114 0.20035 0.33727 0.0
C1107 C 0.79295 0.19683 0.31701 0.0
H1108 H 0.75472 0.3014 0.29994 0.0
H1109 H 0.80078 0.18132 0.31354 0.0
H1110 H 0.75638 0.21191 0.37388 0.0
H1111 H 0.73314 0.30997 0.33424 0.0
H1112 H 0.80193 0.20941 0.28452 0.0
H1113 H 0.8201 0.37062 0.22336 0.0
H1114 H 0.78013 0.18765 0.34969 0.0
H1115 H 0.8734 0.26422 0.26318 0.0
H1116 H 0.81874 0.34863 0.25743 0.0
H1117 H 0.89401 0.24952 0.23033 0.0
H1118 H 0.73779 0.24658 0.37926 0.0
H1119 H 0.84125 0.35879 0.1889 0.0
H1120 H 0.86503 0.33152 0.16944 0.0
H1121 H 0.72931 0.28336 0.36483 0.0
H1122 H 0.88428 0.29796 0.17094 0.0
N1123 N 0.83792 0.32406 0.24225 0.0
C1124 C 0.82748 0.34301 0.24231 0.0
C1125 C 0.84059 0.34907 0.20383 0.0
C1126 C 0.85179 0.33008 0.20409 0.0
C1127 C 0.82853 0.3557 0.22316 0.0
C1128 C 0.85047 0.31806 0.22402 0.0
H1129 H 0.89479 0.26706 0.19324 0.0
N1130 N 0.85958 0.28799 0.24446 0.0
C1131 C 0.88453 0.26318 0.22834 0.0
C1132 C 0.86121 0.29912 0.22491 0.0
C1133 C 0.87211 0.27119 0.24686 0.0
C1134 C 0.88506 0.27323 0.20753 0.0
C1135 C 0.87375 0.29182 0.20582 0.0
O1136 O 0.86852 0.31515 0.29836 0.0
O1137 O 0.8218 0.25894 0.27128 0.0
O1138 O 0.80538 0.27576 0.316 0.0
O1139 O 0.82045 0.31424 0.30831 0.0
O1140 O 0.8511 0.27553 0.29436 0.0
O1141 O 0.85376 0.34209 0.28512 0.0
O1142 O 0.75273 0.25152 0.25555 0.0
O1143 O 0.80024 0.30323 0.28099 0.0
O1144 O 0.81375 0.28917 0.23837 0.0
O1145 O 0.80108 0.24942 0.24352 0.0
O1146 O 0.7692 0.28775 0.26118 0.0
O1147 O 0.76619 0.2213 0.26341 0.0
C1148 C 0.83703 0.25387 0.28513 0.0
C1149 C 0.89415 0.34886 0.28701 0.0
C1150 C 0.93369 0.34761 0.28263 0.0
C1151 C 0.91211 0.3375 0.28941 0.0
C1152 C 0.9368 0.3688 0.27207 0.0
C1153 C 0.89759 0.37008 0.27654 0.0
C1154 C 0.91876 0.37979 0.2689 0.0
C1155 C 0.81396 0.30008 0.32411 0.0
C1156 C 0.87203 0.33818 0.29539 0.0
C1157 C 0.87486 0.30347 0.18579 0.0
C1158 C 0.86396 0.32262 0.18496 0.0
C1159 C 0.78436 0.30897 0.26872 0.0
C1160 C 0.72613 0.21663 0.26341 0.0
C1161 C 0.70772 0.2269 0.25922 0.0
C1162 C 0.68703 0.21878 0.26855 0.0
C1163 C 0.68447 0.19938 0.28147 0.0
C1164 C 0.72339 0.19735 0.27652 0.0
C1165 C 0.7026 0.18873 0.28537 0.0
C1166 C 0.80548 0.26518 0.22882 0.0
C1167 C 0.74827 0.22754 0.25527 0.0
H1168 H 0.90932 0.32069 0.2968 0.0
H1169 H 0.95326 0.37733 0.26689 0.0
H1170 H 0.88399 0.37914 0.27425 0.0
H1171 H 0.92133 0.39619 0.26088 0.0
H1172 H 0.70957 0.24149 0.24877 0.0
H1173 H 0.66863 0.19274 0.28882 0.0
H1174 H 0.73732 0.18915 0.28019 0.0
H1175 H 0.70061 0.17395 0.29554 0.0
Eu1176 Eu 0.07177 0.58005 0.52214 0.0
C1177 C 0.01231 0.60883 0.44402 0.0
C1178 C 0.97244 0.58476 0.43798 0.0
C1179 C 0.98228 0.62818 0.43342 0.0
C1180 C 0.99589 0.58663 0.44383 0.0
C1181 C 1.0056 0.62998 0.43924 0.0
C1182 C 0.96576 0.60561 0.43271 0.0
C1183 C 0.04534 0.65368 0.44781 0.0
N1184 N 0.03474 0.61014 0.45014 0.0
C1185 C 0.0512 0.63226 0.45245 0.0
C1186 C 0.02248 0.6525 0.44101 0.0
Eu1187 Eu 0.04278 0.57297 0.45829 0.0
N1188 N 1.0028 0.56699 0.44969 0.0
C1189 C 0.98727 0.54444 0.44826 0.0
C1190 C 0.95639 0.56195 0.43755 0.0
C1191 C 0.96389 0.5416 0.44243 0.0
H1192 H 0.06884 0.63382 0.45847 0.0
H1193 H 0.95174 0.52359 0.44133 0.0
H1194 H 0.94784 0.60452 0.42822 0.0
H1195 H 0.05845 0.67117 0.44974 0.0
H1196 H 0.99292 0.52822 0.45043 0.0
H1197 H 0.14352 0.66347 0.53757 0.0
H1198 H 0.93825 0.55972 0.43305 0.0
H1199 H 0.06928 0.52563 0.53895 0.0
H1200 H 0.10346 0.63844 0.52583 0.0
H1201 H 0.09561 0.50241 0.55311 0.0
H1202 H 0.97683 0.64422 0.42964 0.0
H1203 H 0.17346 0.64287 0.54834 0.0
H1204 H 0.18342 0.6036 0.55565 0.0
H1205 H 0.018 0.66919 0.43761 0.0
H1206 H 0.17031 0.55951 0.55969 0.0
N1207 N 0.11031 0.60425 0.53087 0.0
C1208 C 0.11626 0.62932 0.53083 0.0
C1209 C 0.15579 0.63187 0.54355 0.0
C1210 C 0.14944 0.60629 0.54415 0.0
C1211 C 0.13901 0.64354 0.53736 0.0
C1212 C 0.12616 0.59299 0.5381 0.0
H1213 H 0.13748 0.52165 0.55914 0.0
N1214 N 0.09604 0.5572 0.5364 0.0
C1215 C 0.10239 0.52094 0.54956 0.0
C1216 C 0.1188 0.56849 0.54068 0.0
C1217 C 0.08754 0.53413 0.54162 0.0
C1218 C 0.12602 0.53185 0.55288 0.0
C1219 C 0.13448 0.55614 0.54891 0.0
O1220 O 0.05627 0.57596 0.55556 0.0
O1221 O 0.0413 0.56311 0.49458 0.0
O1222 O 0.02799 0.59635 0.48679 0.0
O1223 O 0.06284 0.61354 0.51049 0.0
O1224 O 0.04024 0.54969 0.52625 0.0
O1225 O 0.0717 0.61315 0.54971 0.0
O1226 O 0.05366 0.56941 0.42213 0.0
O1227 O 0.07416 0.5871 0.48484 0.0
O1228 O 0.07987 0.5473 0.49778 0.0
O1229 O 0.05102 0.53693 0.4643 0.0
O1230 O 0.07831 0.59424 0.45092 0.0
O1231 O 0.02866 0.53803 0.43089 0.0
C1232 C 0.02898 0.54837 0.50555 0.0
C1233 C 0.07347 0.60768 0.59017 0.0
C1234 C 0.06981 0.61309 0.63353 0.0
C1235 C 0.05977 0.60696 0.60914 0.0
C1236 C 0.09381 0.62032 0.63876 0.0
C1237 C 0.09742 0.61485 0.59559 0.0
C1238 C 0.10751 0.62127 0.61983 0.0
C1239 C 0.04156 0.61386 0.50432 0.0
C1240 C 0.06239 0.60007 0.56492 0.0
C1241 C 0.15793 0.56874 0.5536 0.0
C1242 C 0.16539 0.59384 0.55131 0.0
C1243 C 0.08895 0.59597 0.47206 0.0
C1244 C 0.02751 0.54254 0.38945 0.0
C1245 C 0.04044 0.54251 0.36983 0.0
C1246 C 0.03007 0.53941 0.34594 0.0
C1247 C 1.00633 0.53632 0.34186 0.0
C1248 C 1.0038 0.53933 0.38516 0.0
C1249 C 0.9933 0.5362 0.36141 0.0
C1250 C 0.06869 0.5329 0.47678 0.0
C1251 C 0.03975 0.54696 0.41401 0.0
H1252 H 0.04128 0.60083 0.60483 0.0
H1253 H 0.10194 0.62515 0.65745 0.0
H1254 H 0.10829 0.6154 0.58116 0.0
H1255 H 0.12597 0.62677 0.62395 0.0
H1256 H 0.05884 0.54561 0.37336 0.0
H1257 H 0.99788 0.53389 0.32361 0.0
H1258 H 0.99344 0.5394 0.39999 0.0
H1259 H 0.97502 0.5338 0.35817 0.0
Eu1260 Eu 0.78475 0.78575 0.27178 0.0
C1261 C 0.86604 0.75745 0.32379 0.0
C1262 C 0.87652 0.78978 0.36101 0.0
C1263 C 0.88272 0.74853 0.3606 0.0
C1264 C 0.86725 0.78159 0.33619 0.0
C1265 C 0.87453 0.74093 0.3356 0.0
C1266 C 0.88363 0.7729 0.37332 0.0
C1267 C 0.86875 0.71189 0.29649 0.0
N1268 N 0.85819 0.75077 0.29965 0.0
C1269 C 0.86041 0.7289 0.28565 0.0
C1270 C 0.87541 0.71771 0.32168 0.0
Eu1271 Eu 0.84414 0.7802 0.28243 0.0
N1272 N 0.86052 0.79751 0.32365 0.0
C1273 C 0.86435 0.82244 0.33436 0.0
C1274 C 0.87898 0.81489 0.37251 0.0
C1275 C 0.87322 0.83139 0.359 0.0
H1276 H 0.85507 0.72433 0.2662 0.0
H1277 H 0.87551 0.85098 0.36757 0.0
H1278 H 0.89054 0.77875 0.39245 0.0
H1279 H 0.86992 0.69428 0.28546 0.0
H1280 H 0.85987 0.83546 0.32431 0.0
H1281 H 0.75427 0.71278 0.18788 0.0
H1282 H 0.88588 0.82188 0.39159 0.0
H1283 H 0.77294 0.84126 0.28628 0.0
H1284 H 0.76997 0.7296 0.23093 0.0
H1285 H 0.75742 0.87017 0.26598 0.0
H1286 H 0.88903 0.73599 0.37009 0.0
H1287 H 0.74308 0.74064 0.16288 0.0
H1288 H 0.73751 0.78314 0.16077 0.0
H1289 H 0.88189 0.70452 0.33005 0.0
H1290 H 0.73834 0.82609 0.18203 0.0
N1291 N 0.76843 0.76714 0.23065 0.0
C1292 C 0.76508 0.74212 0.22053 0.0
C1293 C 0.74996 0.74822 0.1819 0.0
C1294 C 0.75197 0.77339 0.19277 0.0
C1295 C 0.75619 0.73242 0.19597 0.0
C1296 C 0.76124 0.78236 0.21755 0.0
H1297 H 0.74523 0.85851 0.2214 0.0
N1298 N 0.76997 0.81402 0.25343 0.0
C1299 C 0.75879 0.85243 0.2554 0.0
C1300 C 0.76204 0.80658 0.22933 0.0
C1301 C 0.7675 0.83604 0.26683 0.0
C1302 C 0.752 0.84582 0.23023 0.0
C1303 C 0.75317 0.82244 0.21693 0.0
O1304 O 0.76166 0.79529 0.29809 0.0
O1305 O 0.81274 0.78474 0.29891 0.0
O1306 O 0.82077 0.74321 0.28852 0.0
O1307 O 0.78439 0.74453 0.27289 0.0
O1308 O 0.79618 0.81281 0.30827 0.0
O1309 O 0.75265 0.75855 0.27391 0.0
O1310 O 0.8672 0.77155 0.25574 0.0
O1311 O 0.81623 0.78154 0.25552 0.0
O1312 O 0.80806 0.82294 0.2662 0.0
O1313 O 0.84436 0.82166 0.28223 0.0
O1314 O 0.8328 0.75364 0.24554 0.0
O1315 O 0.8767 0.80736 0.28138 0.0
C1316 C 0.8113 0.80245 0.31583 0.0
C1317 C 0.72226 0.77531 0.28731 0.0
C1318 C 0.68618 0.77595 0.30424 0.0
C1319 C 0.7089 0.77378 0.3067 0.0
C1320 C 0.67713 0.77942 0.28177 0.0
C1321 C 0.71281 0.77869 0.26514 0.0
C1322 C 0.69034 0.78068 0.26242 0.0
C1323 C 0.79847 0.73243 0.28151 0.0
C1324 C 0.74617 0.77392 0.29076 0.0
C1325 C 0.74495 0.81406 0.19197 0.0
C1326 C 0.74443 0.7896 0.17988 0.0
C1327 C 0.81767 0.76416 0.2383 0.0
C1328 C 0.90678 0.79079 0.26659 0.0
C1329 C 0.92176 0.79837 0.24974 0.0
C1330 C 0.9445 0.79617 0.2519 0.0
C1331 C 0.95182 0.78614 0.27121 0.0
C1332 C 0.91465 0.78108 0.28572 0.0
C1333 C 0.937 0.77871 0.28794 0.0
C1334 C 0.83028 0.83382 0.27364 0.0
C1335 C 0.88293 0.79263 0.26373 0.0
H1336 H 0.71627 0.77081 0.32366 0.0
H1337 H 0.65999 0.78171 0.27922 0.0
H1338 H 0.7228 0.77989 0.25 0.0
H1339 H 0.68319 0.78346 0.2453 0.0
H1340 H 0.91561 0.80575 0.23486 0.0
H1341 H 0.9692 0.78454 0.27374 0.0
H1342 H 0.90354 0.77535 0.29896 0.0
H1343 H 0.94294 0.77122 0.3028 0.0
Eu1344 Eu 0.84213 0.2895 0.74494 0.0
C1345 C 0.80475 0.35845 0.80972 0.0
C1346 C 0.83903 0.38465 0.83591 0.0
C1347 C 0.80934 0.40351 0.82376 0.0
C1348 C 0.82603 0.36081 0.82223 0.0
C1349 C 0.79595 0.37975 0.81111 0.0
C1350 C 0.8308 0.40594 0.83614 0.0
C1351 C 0.75975 0.35214 0.79113 0.0
N1352 N 0.79187 0.3352 0.79788 0.0
C1353 C 0.76902 0.33164 0.79064 0.0
C1354 C 0.77346 0.3764 0.80086 0.0
Eu1355 Eu 0.80964 0.30159 0.79698 0.0
N1356 N 0.83374 0.33988 0.82175 0.0
C1357 C 0.8536 0.34156 0.83597 0.0
C1358 C 0.85975 0.38642 0.84947 0.0
C1359 C 0.86688 0.36473 0.84976 0.0
H1360 H 0.75782 0.3129 0.78408 0.0
H1361 H 0.88272 0.36583 0.86057 0.0
H1362 H 0.84069 0.42433 0.84636 0.0
H1363 H 0.74192 0.34914 0.78439 0.0
H1364 H 0.8598 0.32543 0.83705 0.0
H1365 H 0.82277 0.30008 0.65205 0.0
H1366 H 0.87018 0.40437 0.86012 0.0
H1367 H 0.85085 0.23602 0.7639 0.0
H1368 H 0.8337 0.31395 0.69659 0.0
H1369 H 0.84984 0.19317 0.74588 0.0
H1370 H 0.80293 0.42004 0.82473 0.0
H1371 H 0.81664 0.25526 0.6321 0.0
H1372 H 0.8178 0.21181 0.63566 0.0
H1373 H 0.76615 0.39227 0.80156 0.0
H1374 H 0.82583 0.18316 0.66106 0.0
N1375 N 0.83242 0.2772 0.70207 0.0
C1376 C 0.83068 0.29427 0.68812 0.0
C1377 C 0.82121 0.26124 0.65171 0.0
C1378 C 0.82445 0.24413 0.66587 0.0
C1379 C 0.82464 0.28652 0.66287 0.0
C1380 C 0.83036 0.25283 0.69138 0.0
H1381 H 0.83817 0.1762 0.70177 0.0
N1382 N 0.84088 0.2458 0.73033 0.0
C1383 C 0.8457 0.20523 0.73434 0.0
C1384 C 0.83504 0.23679 0.70579 0.0
C1385 C 0.84657 0.23025 0.74448 0.0
C1386 C 0.83907 0.19572 0.70947 0.0
C1387 C 0.83373 0.21147 0.69484 0.0
O1388 O 0.87718 0.30858 0.76211 0.0
O1389 O 0.838 0.31784 0.77697 0.0
O1390 O 0.78725 0.30144 0.76172 0.0
O1391 O 0.80842 0.2951 0.72881 0.0
O1392 O 0.83846 0.32823 0.74347 0.0
O1393 O 0.87017 0.2984 0.72302 0.0
O1394 O 0.77603 0.28453 0.80664 0.0
O1395 O 0.81288 0.27487 0.76377 0.0
O1396 O 0.85758 0.27782 0.77733 0.0
O1397 O 0.83987 0.28868 0.81189 0.0
O1398 O 0.80183 0.25883 0.79214 0.0
O1399 O 0.80465 0.30265 0.83498 0.0
C1400 C 0.83814 0.33603 0.76658 0.0
C1401 C 0.89605 0.33786 0.74066 0.0
C1402 C 0.89522 0.37526 0.72503 0.0
C1403 C 0.88595 0.34984 0.72498 0.0
C1404 C 0.9151 0.3889 0.74089 0.0
C1405 C 0.91588 0.35164 0.75653 0.0
C1406 C 0.92535 0.37707 0.7566 0.0
C1407 C 0.78991 0.29968 0.73816 0.0
C1408 C 0.88485 0.31168 0.74167 0.0
C1409 C 0.82714 0.20257 0.66962 0.0
C1410 C 0.8225 0.21885 0.65517 0.0
C1411 C 0.8065 0.25428 0.77006 0.0
C1412 C 0.77941 0.26495 0.84001 0.0
C1413 C 0.79526 0.26268 0.85833 0.0
C1414 C 0.79184 0.24068 0.86753 0.0
C1415 C 0.77233 0.22064 0.85798 0.0
C1416 C 0.7599 0.24483 0.83091 0.0
C1417 C 0.7565 0.22277 0.83978 0.0
C1418 C 0.85595 0.28004 0.80101 0.0
C1419 C 0.78393 0.28769 0.82958 0.0
H1420 H 0.87086 0.33932 0.71241 0.0
H1421 H 0.92258 0.4086 0.74116 0.0
H1422 H 0.92378 0.34284 0.76908 0.0
H1423 H 0.94056 0.38769 0.76897 0.0
H1424 H 0.81052 0.27794 0.86531 0.0
H1425 H 0.769 0.20356 0.86496 0.0
H1426 H 0.74743 0.24603 0.81674 0.0
H1427 H 0.74148 0.2073 0.83262 0.0
Eu1428 Eu 0.82587 0.83346 0.79864 0.0
C1429 C 0.73574 0.77354 0.77064 0.0
C1430 C 0.72143 0.75381 0.80329 0.0
C1431 C 0.69727 0.77277 0.78098 0.0
C1432 C 0.73915 0.76105 0.78898 0.0
C1433 C 0.71454 0.7791 0.76619 0.0
C1434 C 0.70075 0.76026 0.79956 0.0
C1435 C 0.72801 0.79469 0.73139 0.0
N1436 N 0.75281 0.77959 0.75667 0.0
C1437 C 0.74859 0.78862 0.73632 0.0
C1438 C 0.71106 0.79039 0.74667 0.0
Eu1439 Eu 0.78824 0.77079 0.76812 0.0
N1440 N 0.75939 0.75517 0.79233 0.0
C1441 C 0.76171 0.73937 0.80764 0.0
C1442 C 0.72477 0.73978 0.82059 0.0
C1443 C 0.74482 0.73209 0.8224 0.0
H1444 H 0.76053 0.79066 0.72316 0.0
H1445 H 0.74715 0.72019 0.8349 0.0
H1446 H 0.6871 0.7551 0.81055 0.0
H1447 H 0.7251 0.80232 0.71552 0.0
H1448 H 0.77639 0.73179 0.80843 0.0
H1449 H 0.85374 0.90767 0.74805 0.0
H1450 H 0.71162 0.73397 0.83195 0.0
H1451 H 0.86063 0.80575 0.83004 0.0
H1452 H 0.82757 0.88202 0.77063 0.0
H1453 H 0.89961 0.80235 0.83224 0.0
H1454 H 0.68095 0.77692 0.77781 0.0
H1455 H 0.89275 0.90241 0.74494 0.0
H1456 H 0.92307 0.88242 0.75706 0.0
H1457 H 0.69507 0.79501 0.74273 0.0
H1458 H 0.9356 0.85434 0.78042 0.0
N1459 N 0.85076 0.86068 0.77848 0.0
C1460 C 0.84436 0.87899 0.76883 0.0
C1461 C 0.88119 0.8908 0.75458 0.0
C1462 C 0.88836 0.87367 0.76631 0.0
C1463 C 0.85921 0.8938 0.75626 0.0
C1464 C 0.87264 0.8589 0.77861 0.0
H1465 H 0.92718 0.825 0.80868 0.0
N1466 N 0.86433 0.82956 0.80411 0.0
C1467 C 0.89422 0.81378 0.8207 0.0
C1468 C 0.87971 0.84319 0.792 0.0
C1469 C 0.87167 0.8157 0.8191 0.0
C1470 C 0.90972 0.82658 0.80742 0.0
C1471 C 0.90269 0.84174 0.79309 0.0
O1472 O 0.82005 0.84537 0.83666 0.0
O1473 O 0.79137 0.80689 0.79459 0.0
O1474 O 0.79735 0.79483 0.7401 0.0
O1475 O 0.81117 0.83663 0.76153 0.0
O1476 O 0.79246 0.84356 0.79202 0.0
O1477 O 0.83869 0.87263 0.81819 0.0
O1478 O 0.78445 0.75134 0.72973 0.0
O1479 O 0.82279 0.79746 0.77212 0.0
O1480 O 0.8234 0.80695 0.82484 0.0
O1481 O 0.80459 0.7659 0.80343 0.0
O1482 O 0.82184 0.76012 0.77127 0.0
O1483 O 0.77643 0.72991 0.75755 0.0
C1484 C 0.77925 0.82206 0.79351 0.0
C1485 C 0.81253 0.88538 0.84387 0.0
C1486 C 0.7937 0.91734 0.8356 0.0
C1487 C 0.8087 0.90225 0.8295 0.0
C1488 C 0.78211 0.91499 0.85618 0.0
C1489 C 0.80082 0.88335 0.86433 0.0
C1490 C 0.78562 0.89802 0.87035 0.0
C1491 C 0.80334 0.81941 0.74119 0.0
C1492 C 0.82793 0.86917 0.83694 0.0
C1493 C 0.91804 0.85555 0.78001 0.0
C1494 C 0.91089 0.87146 0.76664 0.0
C1495 C 0.83497 0.78229 0.77204 0.0
C1496 C 0.79327 0.71199 0.72434 0.0
C1497 C 0.80706 0.70277 0.73952 0.0
C1498 C 0.81882 0.68521 0.72958 0.0
C1499 C 0.81726 0.6778 0.70398 0.0
C1500 C 0.79206 0.70441 0.69894 0.0
C1501 C 0.80415 0.68754 0.68885 0.0
C1502 C 0.81578 0.78237 0.82317 0.0
C1503 C 0.77975 0.72907 0.73481 0.0
H1504 H 0.81709 0.90334 0.81322 0.0
H1505 H 0.77055 0.92644 0.86149 0.0
H1506 H 0.80328 0.87029 0.87554 0.0
H1507 H 0.77658 0.8963 0.88612 0.0
H1508 H 0.80848 0.70917 0.75913 0.0
H1509 H 0.82563 0.66399 0.69553 0.0
H1510 H 0.78163 0.71139 0.68693 0.0
H1511 H 0.80301 0.68162 0.66921 0.0
Eu1512 Eu 0.53473 0.51686 0.51505 0.0
C1513 C 0.59852 0.61016 0.57944 0.0
C1514 C 0.60353 0.63883 0.55187 0.0
C1515 C 0.604 0.65506 0.5952 0.0
C1516 C 0.59952 0.61409 0.55592 0.0
C1517 C 0.60155 0.63074 0.59941 0.0
C1518 C 0.60497 0.65909 0.57146 0.0
C1519 C 0.60249 0.60237 0.62655 0.0
N1520 N 0.59646 0.58654 0.58304 0.0
C1521 C 0.59974 0.58266 0.60624 0.0
C1522 C 0.60296 0.62645 0.62312 0.0
Eu1523 Eu 0.58883 0.55348 0.54751 0.0
N1524 N 0.59816 0.5941 0.5373 0.0
C1525 C 0.60317 0.59824 0.51477 0.0
C1526 C 0.60677 0.64266 0.5284 0.0
C1527 C 0.60713 0.62236 0.50993 0.0
H1528 H 0.59937 0.564 0.60899 0.0
H1529 H 0.61033 0.62524 0.49185 0.0
H1530 H 0.60766 0.6781 0.56857 0.0
H1531 H 0.60427 0.59896 0.64481 0.0
H1532 H 0.60374 0.58328 0.49996 0.0
H1533 H 0.51367 0.44139 0.56517 0.0
H1534 H 0.60979 0.66132 0.52454 0.0
H1535 H 0.52585 0.51261 0.45464 0.0
H1536 H 0.52269 0.48516 0.55989 0.0
H1537 H 0.51766 0.47992 0.41643 0.0
H1538 H 0.606 0.67101 0.61027 0.0
H1539 H 0.5099 0.40638 0.52959 0.0
H1540 H 0.50877 0.39207 0.48423 0.0
H1541 H 0.60525 0.64176 0.63889 0.0
H1542 H 0.50974 0.40254 0.44369 0.0
N1543 N 0.52492 0.47531 0.52178 0.0
C1544 C 0.52106 0.47014 0.54415 0.0
C1545 C 0.51391 0.42561 0.52715 0.0
C1546 C 0.51625 0.43091 0.50398 0.0
C1547 C 0.51594 0.4453 0.54725 0.0
C1548 C 0.52163 0.45629 0.50183 0.0
H1549 H 0.5126 0.43518 0.41821 0.0
N1550 N 0.52612 0.48666 0.47766 0.0
C1551 C 0.51906 0.47467 0.43391 0.0
C1552 C 0.52223 0.46214 0.47905 0.0
C1553 C 0.52363 0.49311 0.45555 0.0
C1554 C 0.51627 0.44945 0.435 0.0
C1555 C 0.51743 0.44285 0.45775 0.0
O1556 O 0.50748 0.52861 0.49704 0.0
O1557 O 0.55579 0.55699 0.5298 0.0
O1558 O 0.56362 0.55349 0.57719 0.0
O1559 O 0.52898 0.52873 0.55572 0.0
O1560 O 0.54143 0.54788 0.49368 0.0
O1561 O 0.50037 0.50881 0.52628 0.0
O1562 O 0.62308 0.56419 0.56767 0.0
O1563 O 0.56723 0.51388 0.53451 0.0
O1564 O 0.56116 0.50917 0.48889 0.0
O1565 O 0.5923 0.54332 0.50535 0.0
O1566 O 0.58302 0.52313 0.56992 0.0
O1567 O 0.61566 0.53653 0.5339 0.0
C1568 C 0.55281 0.56619 0.51108 0.0
C1569 C 0.4691 0.50696 0.49765 0.0
C1570 C 0.42955 0.50866 0.49049 0.0
C1571 C 0.45167 0.51867 0.50316 0.0
C1572 C 0.42502 0.48658 0.47215 0.0
C1573 C 0.46438 0.48475 0.47957 0.0
C1574 C 0.44235 0.47461 0.46689 0.0
C1575 C 0.54136 0.54272 0.57647 0.0
C1576 C 0.49218 0.51934 0.51023 0.0
C1577 C 0.51322 0.41762 0.45984 0.0
C1578 C 0.51266 0.41166 0.48292 0.0
C1579 C 0.57061 0.50472 0.55315 0.0
C1580 C 0.65388 0.56095 0.54524 0.0
C1581 C 0.67079 0.54805 0.54653 0.0
C1582 C 0.69314 0.55854 0.54174 0.0
C1583 C 0.6981 0.58205 0.53506 0.0
C1584 C 0.65907 0.58437 0.53862 0.0
C1585 C 0.68112 0.5948 0.53346 0.0
C1586 C 0.58135 0.52417 0.48686 0.0
C1587 C 0.63122 0.54983 0.5517 0.0
H1588 H 0.45553 0.53606 0.51693 0.0
H1589 H 0.40808 0.47852 0.46209 0.0
H1590 H 0.47768 0.47547 0.47511 0.0
H1591 H 0.43873 0.45753 0.45284 0.0
H1592 H 0.66645 0.52977 0.5513 0.0
H1593 H 0.71518 0.59081 0.53151 0.0
H1594 H 0.64622 0.59465 0.5377 0.0
H1595 H 0.68513 0.61295 0.52848 0.0
Eu1596 Eu 0.09345 0.54714 0.02337 0.0
C1597 C 0.01023 0.49912 0.06886 0.0
C1598 C 0.99478 0.45768 0.04272 0.0
C1599 C 0.9904 0.46429 0.08594 0.0
C1600 C 1.00698 0.4832 0.04612 0.0
C1601 C 1.00149 0.48999 0.08892 0.0
C1602 C 0.98702 0.44817 0.06286 0.0
C1603 C 0.01292 0.5328 0.1126 0.0
N1604 N 0.02062 0.52392 0.07098 0.0
C1605 C 0.02108 0.54098 0.09211 0.0
C1606 C 1.00338 0.50714 0.11111 0.0
Eu1607 Eu 0.03412 0.53628 0.03545 0.0
N1608 N 0.01436 0.49306 0.027 0.0
C1609 C 0.00897 0.47883 1.00374 0.0
C1610 C 0.98998 0.44273 0.01902 0.0
C1611 C 0.99698 0.45341 0.99943 0.0
H1612 H 0.0283 0.56085 0.09329 0.0
H1613 H 0.99309 0.44211 0.981 0.0
H1614 H 0.97785 0.42854 0.06066 0.0
H1615 H 0.01388 0.54629 0.12948 0.0
H1616 H 0.01419 0.48693 0.98844 0.0
H1617 H 0.15641 0.54383 0.09658 0.0
H1618 H 0.98036 0.42314 0.01558 0.0
H1619 H 0.09625 0.59341 0.99255 0.0
H1620 H 0.1249 0.52628 0.06247 0.0
H1621 H 0.11548 0.63851 0.99776 0.0
H1622 H 0.98376 0.45686 0.10119 0.0
H1623 H 0.17367 0.58973 0.10859 0.0
H1624 H 0.17658 0.63274 0.1 0.0
H1625 H 0.99687 0.50087 0.12696 0.0
H1626 H 0.16535 0.65865 0.07303 0.0
N1627 N 0.12435 0.56215 0.05556 0.0
C1628 C 0.13257 0.54637 0.06744 0.0
C1629 C 0.16001 0.58218 0.09354 0.0
C1630 C 0.15267 0.59799 0.08013 0.0
C1631 C 0.15027 0.55621 0.08681 0.0
C1632 C 0.13485 0.58719 0.06071 0.0
H1633 H 0.14295 0.66088 0.03453 0.0
N1634 N 0.11236 0.59014 0.0262 0.0
C1635 C 0.11921 0.62842 0.01147 0.0
C1636 C 0.12852 0.60168 0.04561 0.0
C1637 C 0.10831 0.6028 0.00861 0.0
C1638 C 0.13464 0.641 0.03228 0.0
C1639 C 0.13987 0.62751 0.04941 0.0
O1640 O 0.11202 0.55023 0.99169 0.0
O1641 O 0.0595 0.51784 0.01797 0.0
O1642 O 0.05584 0.53142 0.06814 0.0
O1643 O 0.09147 0.55642 0.06361 0.0
O1644 O 0.08733 0.5087 0.03301 0.0
O1645 O 0.11247 0.5199 0.00987 0.0
O1646 O 0.01488 0.5648 0.04031 0.0
O1647 O 0.06464 0.56525 0.02871 0.0
O1648 O 0.07248 0.5511 0.99017 0.0
O1649 O 0.03497 0.53149 0.99461 0.0
O1650 O 0.04852 0.57567 0.0588 0.0
O1651 O 1.0002 0.52936 0.01523 0.0
C1652 C 0.06583 0.5002 0.02525 0.0
C1653 C 0.14699 0.53857 0.99583 0.0
C1654 C 0.18283 0.52731 1.00419 0.0
C1655 C 0.15873 0.52131 1.00176 0.0
C1656 C 0.19506 0.55081 1.00049 0.0
C1657 C 0.15966 0.56192 0.99219 0.0
C1658 C 0.18352 0.56791 0.99451 0.0
C1659 C 0.07697 0.54493 0.07677 0.0
C1660 C 0.12169 0.53244 0.99428 0.0
C1661 C 0.15667 0.63876 0.0696 0.0
C1662 C 0.16308 0.62401 0.08495 0.0
C1663 C 0.06465 0.58344 0.04617 0.0
C1664 C 0.97472 0.55054 0.03403 0.0
C1665 C 0.96155 0.56504 0.02518 0.0
C1666 C 0.94013 0.56537 0.03315 0.0
C1667 C 0.93224 0.55107 0.05036 0.0
C1668 C 0.96652 0.5363 0.05103 0.0
C1669 C 0.94539 0.53666 0.05919 0.0
C1670 C 0.05059 0.54173 0.98171 0.0
C1671 C 0.99707 0.55087 0.0255 0.0
H1672 H 0.14911 0.50319 1.0044 0.0
H1673 H 0.2136 0.55616 1.00258 0.0
H1674 H 0.15121 0.57569 0.98775 0.0
H1675 H 0.19313 0.586 0.99183 0.0
H1676 H 0.96813 0.57624 0.01224 0.0
H1677 H 0.91572 0.55063 0.05664 0.0
H1678 H 0.97638 0.52491 0.05794 0.0
H1679 H 0.93911 0.52561 0.0723 0.0
H1680 H 0.03426 0.18444 0.95 0.0
H1681 H 0.0195 0.21866 0.02089 0.0
H1682 H 0.0297 0.18501 0.03837 0.0
H1683 H 0.00954 0.12049 0.95477 0.0
H1684 H 0.03033 0.10779 0.93895 0.0
H1685 H 0.02374 0.13562 0.93238 0.0
H1686 H 0.06669 0.15963 0.94231 0.0
H1687 H 0.07336 0.13187 0.94908 0.0
H1688 H 0.08181 0.16109 0.97156 0.0
H1689 H 0.04227 0.14685 0.04868 0.0
H1690 H 0.05098 0.1059 0.04914 0.0
H1691 H 0.05441 0.09418 0.97121 0.0
C1692 C 0.03339 0.18501 0.96926 0.0
C1693 C 0.02622 0.20467 0.98404 0.0
C1694 C 0.02493 0.2041 0.00906 0.0
C1695 C 0.03082 0.185 0.01925 0.0
C1696 C 0.03774 0.16594 1.00426 0.0
C1697 C 0.03872 0.1656 0.97967 0.0
C1698 C 0.04517 0.142 0.96723 0.0
C1699 C 0.02606 0.1255 0.94715 0.0
C1700 C 0.06812 0.14908 0.95693 0.0
C1701 C 0.04744 0.12908 0.98849 0.0
C1702 C 0.0436 0.14345 0.00985 0.0
C1703 C 0.04518 0.13549 0.03195 0.0
C1704 C 0.05029 0.11219 0.03211 0.0
C1705 C 0.05358 0.0967 0.0103 0.0
C1706 C 0.05211 0.10553 0.98827 0.0
H1707 H 0.19807 0.81252 0.13984 0.0
H1708 H 0.15639 0.83965 0.19292 0.0
H1709 H 0.18497 0.8393 0.22635 0.0
H1710 H 0.21505 0.76991 0.17289 0.0
H1711 H 0.24364 0.7754 0.16435 0.0
H1712 H 0.22073 0.77912 0.14444 0.0
H1713 H 0.24375 0.82474 0.14503 0.0
H1714 H 0.26678 0.82111 0.16486 0.0
H1715 H 0.25397 0.8467 0.17389 0.0
H1716 H 0.21812 0.83608 0.2542 0.0
H1717 H 0.25221 0.82856 0.27453 0.0
H1718 H 0.27214 0.80119 0.20385 0.0
C1719 C 0.19506 0.81871 0.1585 0.0
C1720 C 0.17493 0.82641 0.16364 0.0
C1721 C 0.17159 0.83382 0.18839 0.0
C1722 C 0.18779 0.83368 0.20754 0.0
C1723 C 0.20728 0.82583 0.20183 0.0
C1724 C 0.21096 0.81835 0.1779 0.0
C1725 C 0.23292 0.80978 0.17683 0.0
C1726 C 0.22777 0.7819 0.16386 0.0
C1727 C 0.25039 0.82659 0.16442 0.0
C1728 C 0.24101 0.81358 0.20389 0.0
C1729 C 0.22603 0.8231 0.21792 0.0
C1730 C 0.2299 0.82859 0.24335 0.0
C1731 C 0.24947 0.82427 0.25476 0.0
C1732 C 0.26507 0.81422 0.24094 0.0
C1733 C 0.26061 0.80875 0.21505 0.0
H1734 H 0.53106 0.85081 0.50668 0.0
H1735 H 0.53929 0.83471 0.42962 0.0
H1736 H 0.54488 0.87948 0.42901 0.0
H1737 H 0.50194 0.8989 0.50658 0.0
H1738 H 0.51722 0.91939 0.53477 0.0
H1739 H 0.51375 0.88593 0.52985 0.0
H1740 H 0.55763 0.89356 0.53801 0.0
H1741 H 0.56104 0.92707 0.54318 0.0
H1742 H 0.57592 0.91216 0.52063 0.0
H1743 H 0.54712 0.92506 0.43528 0.0
H1744 H 0.55259 0.97066 0.44961 0.0
H1745 H 0.54625 0.9604 0.52363 0.0
C1746 C 0.53433 0.8568 0.48978 0.0
C1747 C 0.53466 0.83888 0.46813 0.0
C1748 C 0.53908 0.84774 0.44648 0.0
C1749 C 0.5421 0.87325 0.44589 0.0
C1750 C 0.54121 0.89021 0.46722 0.0
C1751 C 0.53812 0.88263 0.48899 0.0
C1752 C 0.53918 0.90542 0.50944 0.0
C1753 C 0.51666 0.90221 0.52082 0.0
C1754 C 0.55966 0.90981 0.52897 0.0
C1755 C 0.54266 0.92671 0.49552 0.0
C1756 C 0.54357 0.91722 0.47114 0.0
C1757 C 0.54662 0.93272 0.45436 0.0
C1758 C 0.54961 0.95867 0.46269 0.0
C1759 C 0.54971 0.96936 0.48768 0.0
C1760 C 0.54589 0.95296 0.50433 0.0
H1761 H 0.5258 0.33099 0.66813 0.0
H1762 H 0.56826 0.28291 0.68489 0.0
H1763 H 0.54186 0.26749 0.71328 0.0
H1764 H 0.51213 0.34816 0.73001 0.0
H1765 H 0.48325 0.34842 0.72036 0.0
H1766 H 0.50531 0.35554 0.701 0.0
H1767 H 0.48084 0.32021 0.66567 0.0
H1768 H 0.45882 0.31283 0.68502 0.0
H1769 H 0.47119 0.28859 0.67039 0.0
H1770 H 0.51035 0.2558 0.73843 0.0
H1771 H 0.47788 0.25182 0.7625 0.0
H1772 H 0.45638 0.30923 0.73205 0.0
C1773 C 0.52958 0.31729 0.67785 0.0
C1774 C 0.54917 0.30815 0.67418 0.0
C1775 C 0.55351 0.29032 0.6874 0.0
C1776 C 0.53851 0.28131 0.70349 0.0
C1777 C 0.51929 0.29045 0.70646 0.0
C1778 C 0.5149 0.30831 0.69432 0.0
C1779 C 0.49332 0.3155 0.70155 0.0
C1780 C 0.49884 0.34357 0.71397 0.0
C1781 C 0.47496 0.30888 0.67933 0.0
C1782 C 0.48626 0.29881 0.71956 0.0
C1783 C 0.50142 0.28437 0.72185 0.0
C1784 C 0.49854 0.26726 0.73705 0.0
C1785 C 0.48005 0.26525 0.75079 0.0
C1786 C 0.46465 0.2805 0.74964 0.0
C1787 C 0.46769 0.29721 0.73339 0.0
H1788 H 1.00425 0.82481 0.62872 0.0
H1789 H 0.06665 0.83391 0.67619 0.0
H1790 H 0.08631 0.86894 0.65809 0.0
H1791 H 0.02989 0.83246 0.57709 0.0
H1792 H 0.01109 0.84918 0.56567 0.0
H1793 H 1.00109 0.82776 0.58499 0.0
H1794 H 0.99066 0.86348 0.61491 0.0
H1795 H 1.00072 0.88507 0.59561 0.0
H1796 H 0.01224 0.89256 0.62739 0.0
H1797 H 0.10031 0.8992 0.63147 0.0
H1798 H 0.10783 0.92133 0.59765 0.0
H1799 H 0.03634 0.89221 0.56752 0.0
C1800 C 0.02189 0.83456 0.63578 0.0
C1801 C 0.03388 0.82673 0.654 0.0
C1802 C 0.05708 0.83968 0.66236 0.0
C1803 C 0.06836 0.85967 0.65225 0.0
C1804 C 0.05614 0.86655 0.63394 0.0
C1805 C 0.03338 0.85443 0.62585 0.0
C1806 C 0.02472 0.86368 0.60435 0.0
C1807 C 0.01621 0.84198 0.5817 0.0
C1808 C 1.00598 0.87699 0.61097 0.0
C1809 C 0.04641 0.88221 0.60097 0.0
C1810 C 0.06425 0.88393 0.61848 0.0
C1811 C 0.08641 0.8983 0.61791 0.0
C1812 C 0.09054 0.9107 0.59861 0.0
C1813 C 0.07263 0.90851 0.58012 0.0
C1814 C 0.05021 0.89464 0.58173 0.0
H1815 H 0.52764 0.83693 0.89842 0.0
H1816 H 0.58113 0.84547 0.85092 0.0
H1817 H 0.55299 0.8473 0.81764 0.0
H1818 H 0.48021 0.79946 0.85176 0.0
H1819 H 0.46033 0.81521 0.86578 0.0
H1820 H 0.48412 0.81141 0.88434 0.0
H1821 H 0.49697 0.85965 0.90168 0.0
H1822 H 0.47344 0.86368 0.88302 0.0
H1823 H 0.50234 0.88069 0.88094 0.0
H1824 H 0.51915 0.85197 0.79087 0.0
H1825 H 0.4827 0.8573 0.77279 0.0
H1826 H 0.4533 0.84784 0.83966 0.0
C1827 C 0.53345 0.83867 0.8809 0.0
C1828 C 0.55656 0.84101 0.87724 0.0
C1829 C 0.56343 0.84346 0.85406 0.0
C1830 C 0.54759 0.84458 0.83509 0.0
C1831 C 0.52506 0.84309 0.83968 0.0
C1832 C 0.51803 0.83997 0.86201 0.0
C1833 C 0.49342 0.84055 0.86314 0.0
C1834 C 0.47865 0.81514 0.86644 0.0
C1835 C 0.49145 0.86245 0.88339 0.0
C1836 C 0.4877 0.84496 0.8381 0.0
C1837 C 0.50599 0.84618 0.82466 0.0
C1838 C 0.50466 0.85085 0.80118 0.0
C1839 C 0.484 0.85408 0.79116 0.0
C1840 C 0.46508 0.85277 0.80473 0.0
C1841 C 0.4672 0.84834 0.82854 0.0
H1842 H 0.50056 0.19355 0.10923 0.0
H1843 H 0.52836 0.27032 0.10142 0.0
H1844 H 0.54384 0.25435 0.06396 0.0
H1845 H 0.54782 0.17467 0.09682 0.0
H1846 H 0.53335 0.14294 0.08094 0.0
H1847 H 0.51974 0.15965 0.10335 0.0
H1848 H 0.48453 0.15236 0.07119 0.0
H1849 H 0.49809 0.13537 0.04872 0.0
H1850 H 0.48862 0.16188 0.04259 0.0
H1851 H 0.5628 0.23072 0.03261 0.0
H1852 H 0.58129 0.20071 0.00852 0.0
H1853 H 0.542 0.14062 0.03853 0.0
C1854 C 0.509 0.20701 0.09909 0.0
C1855 C 0.51307 0.23316 0.10812 0.0
C1856 C 0.52482 0.25016 0.09467 0.0
C1857 C 0.5337 0.24127 0.07338 0.0
C1858 C 0.53052 0.21538 0.06578 0.0
C1859 C 0.51818 0.19847 0.0781 0.0
C1860 C 0.51989 0.17201 0.06851 0.0
C1861 C 0.53085 0.16176 0.08859 0.0
C1862 C 0.49638 0.15437 0.05706 0.0
C1863 C 0.53558 0.17678 0.04933 0.0
C1864 C 0.54143 0.2018 0.04775 0.0
C1865 C 0.55776 0.21094 0.03308 0.0
C1866 C 0.56822 0.19395 0.0196 0.0
C1867 C 0.56213 0.16839 0.02108 0.0
C1868 C 0.54575 0.15979 0.03606 0.0
H1869 H 0.19883 0.33645 0.38742 0.0
H1870 H 0.14767 0.33013 0.32689 0.0
H1871 H 0.17675 0.3288 0.29846 0.0
H1872 H 0.24724 0.37567 0.36412 0.0
H1873 H 0.26707 0.36017 0.37564 0.0
H1874 H 0.24257 0.36309 0.39111 0.0
H1875 H 0.23176 0.31502 0.38739 0.0
H1876 H 0.25511 0.31135 0.37027 0.0
H1877 H 0.22616 0.29424 0.35775 0.0
H1878 H 0.21145 0.32777 0.27648 0.0
H1879 H 0.24892 0.32466 0.26274 0.0
H1880 H 0.27607 0.32958 0.33738 0.0
C1881 C 0.19377 0.33507 0.36824 0.0
C1882 C 0.17101 0.33346 0.35938 0.0
C1883 C 0.16504 0.33142 0.33409 0.0
C1884 C 0.18143 0.33073 0.3178 0.0
C1885 C 0.20368 0.33214 0.32711 0.0
C1886 C 0.20987 0.33428 0.35175 0.0
C1887 C 0.23468 0.33445 0.35696 0.0
C1888 C 0.2487 0.35987 0.3729 0.0
C1889 C 0.23706 0.31245 0.36875 0.0
C1890 C 0.24118 0.33116 0.33133 0.0
C1891 C 0.22329 0.33048 0.31438 0.0
C1892 C 0.22557 0.3282 0.28956 0.0
C1893 C 0.24673 0.32636 0.2819 0.0
C1894 C 0.26481 0.32624 0.29902 0.0
C1895 C 0.26215 0.32904 0.32397 0.0
H1896 H 0.98628 0.0219 0.19502 0.0
H1897 H 0.99192 0.10171 0.21714 0.0
H1898 H 0.01013 0.10851 0.17983 0.0
H1899 H 0.03887 0.02591 0.16832 0.0
H1900 H 0.02726 0.99941 0.14313 0.0
H1901 H 0.01486 1.00086 0.1714 0.0
H1902 H 0.97521 0.99604 0.14822 0.0
H1903 H 0.98748 0.99443 0.11986 0.0
H1904 H 0.97203 0.01762 0.12905 0.0
H1905 H 0.03176 0.10669 0.14019 0.0
H1906 H 0.04841 0.09636 0.10182 0.0
H1907 H 0.02518 0.01695 0.10193 0.0
C1908 C 0.9911 0.04089 0.19202 0.0
C1909 C 0.98736 0.06129 0.20973 0.0
C1910 C 0.99413 0.08561 0.20438 0.0
C1911 C 1.00475 0.08965 0.18305 0.0
C1912 C 1.00835 0.0692 0.16629 0.0
C1913 C 1.00119 0.04514 0.17037 0.0
C1914 C 1.00626 0.02616 0.14915 0.0
C1915 C 0.02279 0.01226 0.15857 0.0
C1916 C 0.98392 1.00745 0.13578 0.0
C1917 C 0.01766 0.04311 0.13251 0.0
C1918 C 0.01905 0.06798 0.14301 0.0
C1919 C 0.03019 0.08718 0.13188 0.0
C1920 C 0.03975 0.08107 0.10981 0.0
C1921 C 0.03801 0.05575 0.09789 0.0
C1922 C 0.02659 0.03653 0.10978 0.0
H1923 H 0.34003 0.73886 0.46816 0.0
H1924 H 0.31845 0.6584 0.43926 0.0
H1925 H 0.31001 0.66563 0.3982 0.0
H1926 H 0.29582 0.74958 0.44471 0.0
H1927 H 0.30794 0.77974 0.43761 0.0
H1928 H 0.32249 0.76991 0.46116 0.0
H1929 H 0.35865 0.77619 0.43983 0.0
H1930 H 0.34477 0.78548 0.41502 0.0
H1931 H 0.35794 0.7598 0.40892 0.0
H1932 H 0.2903 0.68014 0.36604 0.0
H1933 H 0.26699 0.70118 0.34368 0.0
H1934 H 0.29883 0.77202 0.39456 0.0
C1935 C 0.33505 0.72288 0.4528 0.0
C1936 C 0.32968 0.69818 0.45677 0.0
C1937 C 0.32286 0.67753 0.43654 0.0
C1938 C 0.31783 0.68151 0.41312 0.0
C1939 C 0.32015 0.70619 0.41035 0.0
C1940 C 0.32931 0.72666 0.42961 0.0
C1941 C 0.32528 0.75064 0.4239 0.0
C1942 C 0.31209 0.76313 0.44295 0.0
C1943 C 0.348 0.76912 0.42175 0.0
C1944 C 0.31077 0.74016 0.39943 0.0
C1945 C 0.30842 0.71466 0.39154 0.0
C1946 C 0.29273 0.70028 0.37148 0.0
C1947 C 0.27921 0.71226 0.3592 0.0
C1948 C 0.28116 0.73826 0.36737 0.0
C1949 C 0.29744 0.75228 0.38744 0.0
H1950 H 0.67757 0.98704 0.61731 0.0
H1951 H 0.64027 0.97367 0.67796 0.0
H1952 H 0.60405 0.9601 0.65076 0.0
H1953 H 0.65218 0.01976 0.59972 0.0
H1954 H 0.6491 0.0112 0.56692 0.0
H1955 H 0.67165 1.00436 0.58417 0.0
H1956 H 0.6583 0.95717 0.5648 0.0
H1957 H 0.63598 0.963 0.54563 0.0
H1958 H 0.62888 0.93995 0.56412 0.0
H1959 H 0.57416 0.96867 0.62429 0.0
H1960 H 0.55413 0.99042 0.59898 0.0
H1961 H 0.60979 0.9987 0.5548 0.0
C1962 C 0.66185 0.97886 0.62414 0.0
C1963 C 0.66145 0.98165 0.64947 0.0
C1964 C 0.64085 0.97147 0.65845 0.0
C1965 C 0.62007 0.96405 0.64306 0.0
C1966 C 0.6205 0.96606 0.61872 0.0
C1967 C 0.64106 0.97206 0.60891 0.0
C1968 C 0.63753 0.9792 0.58453 0.0
C1969 C 0.65354 1.00514 0.58386 0.0
C1970 C 0.64034 0.9586 0.56353 0.0
C1971 C 0.61284 0.97997 0.58405 0.0
C1972 C 0.6029 0.97136 0.60324 0.0
C1973 C 0.58148 0.97451 0.60866 0.0
C1974 C 0.57032 0.98714 0.59444 0.0
C1975 C 0.58094 0.99693 0.57554 0.0
C1976 C 0.60177 0.99215 0.56967 0.0
H1977 H 0.31057 0.30946 0.96637 0.0
H1978 H 0.31627 0.38855 0.96878 0.0
H1979 H 0.31841 0.38134 0.92438 0.0
H1980 H 0.348 0.30015 0.92406 0.0
H1981 H 0.3316 0.26956 0.90681 0.0
H1982 H 0.32868 0.27933 0.9386 0.0
H1983 H 0.28525 0.27272 0.92955 0.0
H1984 H 0.28716 0.26111 0.8978 0.0
H1985 H 0.27428 0.2867 0.90659 0.0
H1986 H 0.32267 0.36616 0.88029 0.0
H1987 H 0.32182 0.34257 0.83812 0.0
H1988 H 0.31153 0.27305 0.86382 0.0
C1989 C 0.31182 0.32514 0.95744 0.0
C1990 C 0.31325 0.34956 0.971 0.0
C1991 C 0.31491 0.36963 0.95871 0.0
C1992 C 0.31638 0.36578 0.93354 0.0
C1993 C 0.31572 0.34165 0.92084 0.0
C1994 C 0.31276 0.32151 0.93221 0.0
C1995 C 0.31176 0.29731 0.91418 0.0
C1996 C 0.33118 0.28592 0.92132 0.0
C1997 C 0.28821 0.27834 0.91189 0.0
C1998 C 0.31518 0.30711 0.89101 0.0
C1999 C 0.31764 0.33279 0.89531 0.0
C2000 C 0.32074 0.34606 0.87669 0.0
C2001 C 0.3205 0.33258 0.85288 0.0
C2002 C 0.31718 0.30616 0.84798 0.0
C2003 C 0.31462 0.29334 0.8673 0.0
H2004 H 0.96674 0.05923 0.37219 0.0
H2005 H 0.02869 0.06631 0.33715 0.0
H2006 H 0.04954 0.06154 0.37428 0.0
H2007 H 0.99641 0.09402 0.43468 0.0
H2008 H 0.97762 0.07388 0.4504 0.0
H2009 H 0.96725 0.07874 0.42134 0.0
H2010 H 0.95524 0.03058 0.40444 0.0
H2011 H 0.96584 0.02567 0.43339 0.0
H2012 H 0.97627 0.01294 0.40583 0.0
H2013 H 0.06426 0.0524 0.41537 0.0
H2014 H 0.07172 0.0458 0.45727 0.0
H2015 H 1.00219 0.04684 0.46898 0.0
C2016 C 0.98487 0.06067 0.37252 0.0
C2017 C 0.99582 0.06381 0.35096 0.0
C2018 C 0.01952 0.06442 0.35283 0.0
C2019 C 0.03169 0.06147 0.37409 0.0
C2020 C 0.02047 0.05784 0.39451 0.0
C2021 C 0.99763 0.05791 0.39416 0.0
C2022 C 0.98995 0.05371 0.419 0.0
C2023 C 0.98235 0.07644 0.43214 0.0
C2024 C 0.97067 0.02928 0.41544 0.0
C2025 C 0.01184 0.05136 0.43311 0.0
C2026 C 0.02916 0.05341 0.41839 0.0
C2027 C 0.05071 0.05104 0.42696 0.0
C2028 C 0.05485 0.04706 0.45099 0.0
C2029 C 0.03775 0.04547 0.46704 0.0
C2030 C 0.01586 0.04777 0.45755 0.0
H2031 H 0.31009 0.74401 0.5915 0.0
H2032 H 0.32164 0.67097 0.59345 0.0
H2033 H 0.32268 0.6805 0.63839 0.0
H2034 H 0.34549 0.77926 0.64884 0.0
H2035 H 0.32556 0.79792 0.65632 0.0
H2036 H 0.32836 0.78613 0.62489 0.0
H2037 H 0.2847 0.76518 0.617 0.0
H2038 H 0.28195 0.77642 0.64856 0.0
H2039 H 0.27207 0.74323 0.635 0.0
H2040 H 0.31797 0.69599 0.68209 0.0
H2041 H 0.31202 0.71822 0.72239 0.0
H2042 H 0.30408 0.78133 0.69166 0.0
C2043 C 0.31336 0.7302 0.60137 0.0
C2044 C 0.31581 0.70676 0.58903 0.0
C2045 C 0.31989 0.68913 0.6026 0.0
C2046 C 0.3204 0.69432 0.62807 0.0
C2047 C 0.31699 0.71725 0.63952 0.0
C2048 C 0.31388 0.73504 0.62665 0.0
C2049 C 0.30945 0.75766 0.64301 0.0
C2050 C 0.32837 0.78167 0.64331 0.0
C2051 C 0.28563 0.76078 0.63543 0.0
C2052 C 0.31039 0.74979 0.66719 0.0
C2053 C 0.31457 0.72633 0.66474 0.0
C2054 C 0.31489 0.71445 0.68427 0.0
C2055 C 0.31115 0.72706 0.70699 0.0
C2056 C 0.30727 0.75128 0.70993 0.0
C2057 C 0.30696 0.76278 0.6898 0.0
H2058 H 0.66417 0.04846 0.77618 0.0
H2059 H 0.62641 0.07562 0.72339 0.0
H2060 H 0.59813 0.08071 0.75202 0.0
H2061 H 0.61606 0.01269 0.79727 0.0
H2062 H 0.62868 0.02029 0.82868 0.0
H2063 H 0.6467 0.02003 0.8046 0.0
H2064 H 0.66949 0.06599 0.82423 0.0
H2065 H 0.65153 0.06639 0.84841 0.0
H2066 H 0.65445 0.09007 0.83039 0.0
H2067 H 0.57282 0.08053 0.78516 0.0
H2068 H 0.55291 0.07661 0.82173 0.0
H2069 H 0.60737 0.04991 0.85269 0.0
C2070 C 0.65009 0.05571 0.77071 0.0
C2071 C 0.64749 0.06164 0.74756 0.0
C2072 C 0.62878 0.071 0.74107 0.0
C2073 C 0.61262 0.07396 0.75718 0.0
C2074 C 0.61553 0.06764 0.77972 0.0
C2075 C 0.63386 0.05887 0.78658 0.0
C2076 C 0.6327 0.05286 0.81163 0.0
C2077 C 0.63092 0.0248 0.81045 0.0
C2078 C 0.65326 0.06985 0.82973 0.0
C2079 C 0.61067 0.05928 0.81758 0.0
C2080 C 0.60103 0.0678 0.79897 0.0
C2081 C 0.58024 0.07407 0.79997 0.0
C2082 C 0.56901 0.07164 0.82065 0.0
C2083 C 0.57871 0.06308 0.83994 0.0
C2084 C 0.59979 0.05688 0.83833 0.0
H2085 H 0.32104 0.32062 0.1047 0.0
H2086 H 0.29611 0.38766 0.11655 0.0
H2087 H 0.28993 0.38292 0.15848 0.0
H2088 H 0.28116 0.28574 0.14067 0.0
H2089 H 0.30235 0.27191 0.15226 0.0
H2090 H 0.30333 0.27958 0.12258 0.0
H2091 H 0.34519 0.30681 0.13589 0.0
H2092 H 0.34419 0.29932 0.16559 0.0
H2093 H 0.35149 0.33175 0.16292 0.0
H2094 H 0.29076 0.37388 0.20049 0.0
H2095 H 0.29456 0.35817 0.23848 0.0
H2096 H 0.31654 0.29565 0.19886 0.0
C2097 C 0.31388 0.33404 0.11595 0.0
C2098 C 0.30904 0.35451 0.10729 0.0
C2099 C 0.2998 0.37173 0.12266 0.0
C2100 C 0.29631 0.36926 0.14657 0.0
C2101 C 0.30179 0.34925 0.15471 0.0
C2102 C 0.31 0.33167 0.13976 0.0
C2103 C 0.31498 0.3122 0.1532 0.0
C2104 C 0.29953 0.28579 0.14147 0.0
C2105 C 0.34047 0.31256 0.15447 0.0
C2106 C 0.30872 0.32189 0.17816 0.0
C2107 C 0.3013 0.34339 0.17869 0.0
C2108 C 0.2961 0.35679 0.20017 0.0
C2109 C 0.29839 0.34786 0.22162 0.0
C2110 C 0.30552 0.32567 0.22124 0.0
C2111 C 0.31062 0.31243 0.1993 0.0
H2112 H 0.309 0.01874 0.04586 0.0
H2113 H 0.29101 0.9958 0.96717 0.0
H2114 H 0.26026 0.0176 0.97017 0.0
H2115 H 0.25246 1.00987 0.0608 0.0
H2116 H 0.25917 0.03672 0.08607 0.0
H2117 H 0.28075 0.0208 0.07762 0.0
H2118 H 0.30774 0.06283 0.07292 0.0
H2119 H 0.28623 0.07892 0.08139 0.0
H2120 H 0.2979 0.08071 0.05298 0.0
H2121 H 0.22994 0.03948 0.98197 0.0
H2122 H 0.20258 0.06054 1.00173 0.0
H2123 H 0.24054 0.06953 0.07263 0.0
C2124 C 0.29881 0.01856 0.02919 0.0
C2125 C 0.30249 1.00561 1.00624 0.0
C2126 C 0.2886 1.00565 0.98493 0.0
C2127 C 0.27109 0.018 0.98645 0.0
C2128 C 0.26776 0.03031 0.00938 0.0
C2129 C 0.2813 0.03079 0.03036 0.0
C2130 C 0.27362 0.04454 0.05286 0.0
C2131 C 0.26605 0.02693 0.07036 0.0
C2132 C 0.2925 0.06816 0.06579 0.0
C2133 C 0.25347 0.05149 0.04127 0.0
C2134 C 0.25041 0.04314 0.01617 0.0
C2135 C 0.2323 0.04632 1.00158 0.0
C2136 C 0.21682 0.05821 0.01296 0.0
C2137 C 0.21957 0.0668 0.03866 0.0
C2138 C 0.23829 0.06359 0.05291 0.0
H2139 H 0.71176 0.67248 0.02598 0.0
H2140 H 0.74642 0.62172 0.98565 0.0
H2141 H 0.71215 0.58601 0.98316 0.0
H2142 H 0.68601 0.63052 0.06225 0.0
H2143 H 0.66009 0.64076 0.06273 0.0
H2144 H 0.68664 0.66222 0.05968 0.0
H2145 H 0.668 0.66978 0.01981 0.0
H2146 H 0.64139 0.64834 0.02277 0.0
H2147 H 0.6546 0.64324 0.99518 0.0
H2148 H 0.6732 0.55619 0.98443 0.0
H2149 H 0.63483 0.5342 0.99301 0.0
H2150 H 0.62802 0.6046 0.03555 0.0
C2151 C 0.71206 0.6539 0.01635 0.0
C2152 C 0.73153 0.64982 1.00568 0.0
C2153 C 0.73155 0.62517 0.99381 0.0
C2154 C 0.71218 0.60486 0.99226 0.0
C2155 C 0.69321 0.60958 1.00302 0.0
C2156 C 0.69318 0.63348 0.0151 0.0
C2157 C 0.67135 0.63351 0.02647 0.0
C2158 C 0.67633 0.64226 0.05444 0.0
C2159 C 0.65806 0.64967 0.01538 0.0
C2160 C 0.65901 0.60586 0.01892 0.0
C2161 C 0.67165 0.59236 1.00506 0.0
C2162 C 0.66326 0.56655 0.99543 0.0
C2163 C 0.64149 0.55425 1.00033 0.0
C2164 C 0.62873 0.56773 0.01514 0.0
C2165 C 0.63762 0.59381 0.02446 0.0
H2166 H 0.69609 0.39551 0.24934 0.0
H2167 H 0.74318 0.45992 0.29806 0.0
H2168 H 0.76979 0.43339 0.30346 0.0
H2169 H 0.70566 0.34785 0.28153 0.0
H2170 H 0.70331 0.32429 0.25405 0.0
H2171 H 0.68832 0.34833 0.25433 0.0
H2172 H 0.70798 0.36114 0.21766 0.0
H2173 H 0.72298 0.33708 0.21727 0.0
H2174 H 0.7388 0.36934 0.21968 0.0
H2175 H 0.79218 0.39654 0.30373 0.0
H2176 H 0.80597 0.35782 0.29779 0.0
H2177 H 0.74458 0.31787 0.24822 0.0
C2178 C 0.712 0.40433 0.26121 0.0
C2179 C 0.71701 0.43053 0.27323 0.0
C2180 C 0.73837 0.44038 0.28846 0.0
C2181 C 0.75376 0.42516 0.29167 0.0
C2182 C 0.74814 0.39954 0.27957 0.0
C2183 C 0.7276 0.38936 0.26453 0.0
C2184 C 0.72529 0.36146 0.2533 0.0
C2185 C 0.7044 0.34448 0.26127 0.0
C2186 C 0.72366 0.357 0.22531 0.0
C2187 C 0.74764 0.35726 0.26409 0.0
C2188 C 0.76067 0.37934 0.27939 0.0
C2189 C 0.78183 0.37946 0.2916 0.0
C2190 C 0.78967 0.35705 0.28816 0.0
C2191 C 0.77686 0.33405 0.27229 0.0
C2192 C 0.75537 0.33474 0.26029 0.0
H2193 H 0.89976 0.48869 0.51804 0.0
H2194 H 0.90852 0.41871 0.4763 0.0
H2195 H 0.94547 0.44143 0.46638 0.0
H2196 H 0.92954 0.52993 0.47765 0.0
H2197 H 0.94319 0.55551 0.50307 0.0
H2198 H 0.91534 0.53535 0.50445 0.0
H2199 H 0.92986 0.52464 0.5442 0.0
H2200 H 0.95762 0.54522 0.54382 0.0
H2201 H 0.95489 0.5128 0.54524 0.0
H2202 H 0.98409 0.46862 0.46858 0.0
H2203 H 0.02116 0.50096 0.47863 0.0
H2204 H 0.98781 0.55469 0.51596 0.0
C2205 C 0.90912 0.47838 0.50613 0.0
C2206 C 0.90131 0.45194 0.49803 0.0
C2207 C 0.91423 0.43896 0.48287 0.0
C2208 C 0.93521 0.4517 0.47698 0.0
C2209 C 0.94297 0.47753 0.48607 0.0
C2210 C 0.93023 0.49092 0.49995 0.0
C2211 C 0.94366 0.51824 0.50916 0.0
C2212 C 0.93226 0.5358 0.49791 0.0
C2213 C 0.94668 0.52563 0.53726 0.0
C2214 C 0.96623 0.51758 0.49944 0.0
C2215 C 0.96534 0.49391 0.486 0.0
C2216 C 0.98482 0.48757 0.47802 0.0
C2217 C 1.00576 0.50599 0.48375 0.0
C2218 C 1.0068 0.53053 0.49665 0.0
C2219 C 0.98694 0.53636 0.50481 0.0
H2220 H 0.39612 0.11279 0.31584 0.0
H2221 H 0.40776 0.07707 0.2438 0.0
H2222 H 0.378 0.09275 0.22498 0.0
H2223 H 0.33457 0.10027 0.30236 0.0
H2224 H 0.33346 0.13012 0.3204 0.0
H2225 H 0.35561 0.11582 0.32852 0.0
H2226 H 0.38646 0.15636 0.32664 0.0
H2227 H 0.3644 0.17073 0.31838 0.0
H2228 H 0.38664 0.16841 0.29911 0.0
H2229 H 0.3479 0.11281 0.21358 0.0
H2230 H 0.31859 0.13601 0.21043 0.0
H2231 H 0.32528 0.15779 0.2896 0.0
C2232 C 0.39235 0.10821 0.29613 0.0
C2233 C 0.40431 0.09369 0.28135 0.0
C2234 C 0.39887 0.08815 0.25558 0.0
C2235 C 0.38197 0.09696 0.24465 0.0
C2236 C 0.37058 0.11127 0.25968 0.0
C2237 C 0.37543 0.11685 0.28484 0.0
C2238 C 0.36064 0.13278 0.29663 0.0
C2239 C 0.34515 0.11891 0.31294 0.0
C2240 C 0.37542 0.1586 0.31103 0.0
C2241 C 0.34683 0.13525 0.27413 0.0
C2242 C 0.35288 0.1227 0.25304 0.0
C2243 C 0.34282 0.12255 0.22996 0.0
C2244 C 0.32607 0.13562 0.22837 0.0
C2245 C 0.31948 0.14859 0.24973 0.0
C2246 C 0.33003 0.14826 0.27289 0.0
H2247 H 0.34806 0.13934 0.53081 0.0
H2248 H 0.36438 0.1491 0.4587 0.0
H2249 H 0.39111 0.1224 0.45976 0.0
H2250 H 0.40485 0.14067 0.55552 0.0
H2251 H 0.39495 0.11699 0.57276 0.0
H2252 H 0.37727 0.13709 0.56647 0.0
H2253 H 0.34406 0.09783 0.54661 0.0
H2254 H 0.36164 0.07761 0.55283 0.0
H2255 H 0.34895 0.07457 0.52206 0.0
H2256 H 0.416 0.09458 0.46861 0.0
H2257 H 0.43679 0.06701 0.48435 0.0
H2258 H 0.40422 0.07543 0.55066 0.0
C2259 C 0.35727 0.13592 0.51524 0.0
C2260 C 0.35412 0.14634 0.49466 0.0
C2261 C 0.36647 0.14131 0.47465 0.0
C2262 C 0.38172 0.1262 0.47509 0.0
C2263 C 0.38439 0.11621 0.49563 0.0
C2264 C 0.37249 0.12082 0.51533 0.0
C2265 C 0.37829 0.10759 0.53507 0.0
C2266 C 0.38951 0.12673 0.55886 0.0
C2267 C 0.35697 0.08825 0.53938 0.0
C2268 C 0.39525 0.09474 0.52335 0.0
C2269 C 0.3986 0.10003 0.50066 0.0
C2270 C 0.41354 0.09033 0.48637 0.0
C2271 C 0.42534 0.07479 0.49552 0.0
C2272 C 0.42211 0.06904 0.51873 0.0
C2273 C 0.40683 0.07921 0.53274 0.0
H2274 H 0.69917 0.60336 0.27264 0.0
H2275 H 0.75094 0.56915 0.29695 0.0
H2276 H 0.78067 0.60921 0.29902 0.0
H2277 H 0.73349 0.63888 0.2344 0.0
H2278 H 0.72144 0.66534 0.24167 0.0
H2279 H 0.70468 0.63416 0.24226 0.0
H2280 H 0.69816 0.64997 0.28688 0.0
H2281 H 0.71496 0.68116 0.28645 0.0
H2282 H 0.72251 0.66539 0.30963 0.0
H2283 H 0.80486 0.6554 0.30027 0.0
H2284 H 0.8206 0.69971 0.29783 0.0
H2285 H 0.7531 0.70283 0.27037 0.0
C2286 C 0.71676 0.60409 0.27843 0.0
C2287 C 0.72245 0.58268 0.2848 0.0
C2288 C 0.74588 0.58491 0.29196 0.0
C2289 C 0.76293 0.60778 0.29325 0.0
C2290 C 0.75656 0.62847 0.28705 0.0
C2291 C 0.73395 0.6266 0.27951 0.0
C2292 C 0.73136 0.65123 0.27341 0.0
C2293 C 0.7222 0.64715 0.24632 0.0
C2294 C 0.71583 0.6626 0.29009 0.0
C2295 C 0.75599 0.66755 0.27883 0.0
C2296 C 0.7703 0.65417 0.28684 0.0
C2297 C 0.79368 0.66569 0.29366 0.0
C2298 C 0.8026 0.6911 0.29208 0.0
C2299 C 0.78848 0.70521 0.28342 0.0
C2300 C 0.76471 0.69292 0.27683 0.0
H2301 H 0.88576 0.48382 0.77671 0.0
H2302 H 0.94818 0.47608 0.81346 0.0
H2303 H 0.92895 0.43247 0.81448 0.0
H2304 H 0.84544 0.44291 0.80769 0.0
H2305 H 0.82515 0.42793 0.78073 0.0
H2306 H 0.8419 0.46008 0.78445 0.0
H2307 H 0.85674 0.45011 0.74416 0.0
H2308 H 0.84156 0.4173 0.73829 0.0
H2309 H 0.87234 0.4267 0.73851 0.0
H2310 H 0.90525 0.38998 0.80931 0.0
H2311 H 0.87826 0.34828 0.7955 0.0
H2312 H 0.83066 0.38092 0.76028 0.0
C2313 C 0.89511 0.47304 0.78544 0.0
C2314 C 0.91837 0.48327 0.79511 0.0
C2315 C 0.93034 0.46854 0.80589 0.0
C2316 C 0.91953 0.44382 0.80678 0.0
C2317 C 0.89674 0.4341 0.79684 0.0
C2318 C 0.88458 0.44806 0.7863 0.0
C2319 C 0.86097 0.43191 0.77473 0.0
C2320 C 0.84224 0.44123 0.78767 0.0
C2321 C 0.85768 0.43139 0.74727 0.0
C2322 C 0.86226 0.40654 0.77967 0.0
C2323 C 0.88289 0.40865 0.79305 0.0
C2324 C 0.88882 0.38806 0.79924 0.0
C2325 C 0.87333 0.36446 0.7914 0.0
C2326 C 0.85214 0.36161 0.77756 0.0
C2327 C 0.84652 0.38287 0.7715 0.0
H2328 H 0.09768 0.89815 0.11208 0.0
H2329 H 0.11488 0.86406 0.04233 0.0
H2330 H 0.10592 0.89785 0.02428 0.0
H2331 H 0.05131 0.92194 0.088 0.0
H2332 H 0.05913 0.95122 0.11042 0.0
H2333 H 0.06509 0.9234 0.11791 0.0
H2334 H 0.10794 0.94697 0.12974 0.0
H2335 H 0.10215 0.97496 0.12259 0.0
H2336 H 0.12346 0.96203 0.10806 0.0
H2337 H 0.09518 0.93608 0.01328 0.0
H2338 H 0.08713 0.97709 0.01181 0.0
H2339 H 0.07953 0.98876 0.08891 0.0
C2340 C 0.09926 0.89763 0.09294 0.0
C2341 C 0.10683 0.87803 0.07864 0.0
C2342 C 0.10911 0.87861 0.05377 0.0
C2343 C 0.10396 0.89779 0.04326 0.0
C2344 C 0.09677 0.91687 0.05777 0.0
C2345 C 0.09465 0.91713 0.08217 0.0
C2346 C 0.08804 0.94083 0.09401 0.0
C2347 C 0.06449 0.93393 0.10313 0.0
C2348 C 0.1065 0.95716 0.11484 0.0
C2349 C 0.08702 0.95384 0.07261 0.0
C2350 C 0.09169 0.93946 0.05172 0.0
C2351 C 0.09155 0.94746 0.0296 0.0
C2352 C 0.08684 0.97079 0.02886 0.0
C2353 C 0.08246 0.98618 0.05012 0.0
C2354 C 0.08267 0.97742 0.07227 0.0
H2355 H 0.93259 0.26705 0.92016 0.0
H2356 H 0.97763 0.24274 0.86956 0.0
H2357 H 0.95123 0.24456 0.83511 0.0
H2358 H 0.8779 0.23311 0.88023 0.0
H2359 H 0.86442 0.25811 0.8892 0.0
H2360 H 0.8857 0.25314 0.91036 0.0
H2361 H 0.90912 0.29949 0.91534 0.0
H2362 H 0.88789 0.3045 0.89419 0.0
H2363 H 0.91744 0.31111 0.88865 0.0
H2364 H 0.92176 0.25109 0.8061 0.0
H2365 H 0.89076 0.26157 0.78373 0.0
H2366 H 0.86304 0.28219 0.85166 0.0
C2367 C 0.93667 0.26164 0.9018 0.0
C2368 C 0.95734 0.25453 0.89777 0.0
C2369 C 0.96206 0.24811 0.87337 0.0
C2370 C 0.9471 0.24909 0.85357 0.0
C2371 C 0.92722 0.25651 0.85816 0.0
C2372 C 0.9218 0.26257 0.88162 0.0
C2373 C 0.89961 0.27091 0.88118 0.0
C2374 C 0.88081 0.25274 0.89083 0.0
C2375 C 0.90377 0.29812 0.89571 0.0
C2376 C 0.89377 0.26905 0.85389 0.0
C2377 C 0.90995 0.26048 0.84112 0.0
C2378 C 0.9089 0.25761 0.8159 0.0
C2379 C 0.891 0.26366 0.8033 0.0
C2380 C 0.87399 0.27265 0.81564 0.0
C2381 C 0.87549 0.27523 0.84146 0.0
H2382 H 0.59112 0.21933 0.54966 0.0
H2383 H 0.58682 0.2338 0.62766 0.0
H2384 H 0.57924 0.18845 0.62653 0.0
H2385 H 0.54399 0.15961 0.53585 0.0
H2386 H 0.55727 0.14455 0.51173 0.0
H2387 H 0.562 0.17829 0.51831 0.0
H2388 H 0.60542 0.18345 0.52359 0.0
H2389 H 0.60106 0.14981 0.51793 0.0
H2390 H 0.61769 0.16967 0.54583 0.0
H2391 H 0.57437 0.14223 0.61821 0.0
H2392 H 0.56707 0.09662 0.60229 0.0
H2393 H 0.57175 0.10902 0.52875 0.0
C2394 C 0.58828 0.2129 0.56643 0.0
C2395 C 0.58966 0.23051 0.58884 0.0
C2396 C 0.58577 0.22104 0.61026 0.0
C2397 C 0.58158 0.19517 0.60984 0.0
C2398 C 0.58077 0.17849 0.58774 0.0
C2399 C 0.58338 0.18676 0.56625 0.0
C2400 C 0.58074 0.16429 0.54492 0.0
C2401 C 0.55975 0.16152 0.52662 0.0
C2402 C 0.60255 0.16695 0.53232 0.0
C2403 C 0.57702 0.1423 0.55798 0.0
C2404 C 0.5772 0.15121 0.58271 0.0
C2405 C 0.57405 0.13504 0.59886 0.0
C2406 C 0.56997 0.10906 0.58961 0.0
C2407 C 0.56897 0.09899 0.56433 0.0
C2408 C 0.57276 0.11601 0.54824 0.0
H2409 H 0.57136 0.75135 0.36964 0.0
H2410 H 0.61474 0.78689 0.43837 0.0
H2411 H 0.64876 0.79234 0.4166 0.0
H2412 H 0.61074 0.71769 0.3425 0.0
H2413 H 0.60399 0.72223 0.31223 0.0
H2414 H 0.58274 0.72076 0.33311 0.0
H2415 H 0.57814 0.76418 0.32768 0.0
H2416 H 0.59937 0.76577 0.30678 0.0
H2417 H 0.603 0.7908 0.33336 0.0
H2418 H 0.67817 0.79536 0.3876 0.0
H2419 H 0.70105 0.7952 0.35316 0.0
H2420 H 0.63938 0.75603 0.30298 0.0
C2421 C 0.58802 0.76021 0.3801 0.0
C2422 C 0.59027 0.76867 0.4058 0.0
C2423 C 0.61244 0.78018 0.41874 0.0
C2424 C 0.63195 0.7834 0.40653 0.0
C2425 C 0.62918 0.77492 0.38129 0.0
C2426 C 0.60782 0.76349 0.36817 0.0
C2427 C 0.60977 0.75622 0.34109 0.0
C2428 C 0.60131 0.72752 0.33169 0.0
C2429 C 0.5968 0.77007 0.32636 0.0
C2430 C 0.63549 0.76554 0.34112 0.0
C2431 C 0.64631 0.77627 0.36451 0.0
C2432 C 0.66991 0.78676 0.36919 0.0
C2433 C 0.68282 0.78638 0.34944 0.0
C2434 C 0.67222 0.77543 0.32517 0.0
C2435 C 0.64815 0.76477 0.32116 0.0
H2436 H 0.10969 0.29496 0.47621 0.0
H2437 H 0.11612 0.25218 0.40548 0.0
H2438 H 0.11764 0.21578 0.42391 0.0
H2439 H 0.14484 0.26475 0.51479 0.0
H2440 H 0.1256 0.26598 0.53774 0.0
H2441 H 0.13137 0.29024 0.52038 0.0
H2442 H 0.08781 0.28157 0.50755 0.0
H2443 H 0.08187 0.25708 0.52436 0.0
H2444 H 0.07159 0.25019 0.49228 0.0
H2445 H 0.10858 0.1818 0.44771 0.0
H2446 H 0.09299 0.15424 0.47529 0.0
H2447 H 0.09403 0.22005 0.53086 0.0
C2448 C 0.11251 0.27829 0.46489 0.0
C2449 C 0.11296 0.27618 0.43961 0.0
C2450 C 0.11619 0.25412 0.42503 0.0
C2451 C 0.11698 0.2334 0.43535 0.0
C2452 C 0.11507 0.23553 0.46024 0.0
C2453 C 0.11347 0.2577 0.47493 0.0
C2454 C 0.10848 0.25441 0.50021 0.0
C2455 C 0.12879 0.26975 0.51941 0.0
C2456 C 0.08612 0.2612 0.50642 0.0
C2457 C 0.10595 0.22654 0.49704 0.0
C2458 C 0.11017 0.21596 0.47405 0.0
C2459 C 0.106 0.18998 0.46602 0.0
C2460 C 0.09711 0.17447 0.4818 0.0
C2461 C 0.09233 0.18507 0.50523 0.0
C2462 C 0.09744 0.21143 0.51304 0.0
H2463 H 0.56265 0.2205 0.21733 0.0
H2464 H 0.58827 0.30145 0.22556 0.0
H2465 H 0.62524 0.29979 0.24581 0.0
H2466 H 0.59153 0.21528 0.27449 0.0
H2467 H 0.5973 0.18598 0.26082 0.0
H2468 H 0.57227 0.19394 0.24915 0.0
H2469 H 0.58494 0.18842 0.20601 0.0
H2470 H 0.6099 0.18022 0.21731 0.0
H2471 H 0.61298 0.20579 0.20156 0.0
H2472 H 0.65997 0.28871 0.26271 0.0
H2473 H 0.69031 0.26907 0.27387 0.0
H2474 H 0.64174 0.19531 0.25331 0.0
C2475 C 0.57584 0.23801 0.22376 0.0
C2476 C 0.57254 0.26116 0.22005 0.0
C2477 C 0.59041 0.28353 0.22834 0.0
C2478 C 0.61141 0.28277 0.2399 0.0
C2479 C 0.61412 0.25952 0.24299 0.0
C2480 C 0.5968 0.23757 0.23514 0.0
C2481 C 0.60446 0.21474 0.23898 0.0
C2482 C 0.59056 0.20174 0.25694 0.0
C2483 C 0.60301 0.19622 0.21451 0.0
C2484 C 0.62898 0.22723 0.24997 0.0
C2485 C 0.63417 0.25308 0.25234 0.0
C2486 C 0.65606 0.26853 0.2611 0.0
C2487 C 0.67317 0.2572 0.26726 0.0
C2488 C 0.6683 0.23068 0.26444 0.0
C2489 C 0.64583 0.21563 0.25605 0.0
H2490 H 0.60346 0.93117 0.93557 0.0
H2491 H 0.65756 0.93288 0.99071 0.0
H2492 H 0.66224 0.97868 1.00617 0.0
H2493 H 0.62542 0.99683 0.92562 0.0
H2494 H 0.59676 1.00055 0.92258 0.0
H2495 H 0.6016 0.96992 0.91281 0.0
H2496 H 0.57247 0.95212 0.94078 0.0
H2497 H 0.56788 0.98268 0.95099 0.0
H2498 H 0.57685 0.96633 0.97295 0.0
H2499 H 0.65688 0.02266 0.01872 0.0
H2500 H 0.64254 0.06064 0.02705 0.0
H2501 H 0.59017 0.02777 0.96468 0.0
C2502 C 0.61702 0.94157 0.95015 0.0
C2503 C 0.63069 0.92912 0.9616 0.0
C2504 C 0.64753 0.94261 0.98137 0.0
C2505 C 0.65016 0.96847 0.99026 0.0
C2506 C 0.63571 0.98013 0.97911 0.0
C2507 C 0.61959 0.96707 0.9593 0.0
C2508 C 0.6041 0.98266 0.95248 0.0
C2509 C 0.60717 0.9878 0.92685 0.0
C2510 C 0.57885 0.9702 0.95443 0.0
C2511 C 0.61349 1.0063 0.972 0.0
C2512 C 0.63193 1.00479 0.98696 0.0
C2513 C 0.64261 0.02412 0.00694 0.0
C2514 C 0.6342 0.04552 0.01165 0.0
C2515 C 0.61506 0.04712 0.99668 0.0
C2516 C 0.6048 0.02725 0.97655 0.0
H2517 H 0.94546 0.73968 0.73891 0.0
H2518 H 0.95882 0.79576 0.69457 0.0
H2519 H 0.92617 0.81124 0.70907 0.0
H2520 H 0.88586 0.72384 0.72922 0.0
H2521 H 0.88214 0.72013 0.75996 0.0
H2522 H 0.90742 0.71542 0.74706 0.0
H2523 H 0.93226 0.74821 0.78397 0.0
H2524 H 0.90704 0.75393 0.7965 0.0
H2525 H 0.92875 0.7797 0.79054 0.0
H2526 H 0.88838 0.8154 0.72326 0.0
H2527 H 0.85194 0.81254 0.74116 0.0
H2528 H 0.86601 0.7565 0.77899 0.0
C2529 C 0.94174 0.75551 0.73259 0.0
C2530 C 0.95445 0.76654 0.71562 0.0
C2531 C 0.94925 0.78723 0.70773 0.0
C2532 C 0.93075 0.79604 0.71578 0.0
C2533 C 0.91813 0.78426 0.73207 0.0
C2534 C 0.92374 0.76482 0.7408 0.0
C2535 C 0.90728 0.75494 0.75777 0.0
C2536 C 0.89492 0.72693 0.74789 0.0
C2537 C 0.91956 0.75948 0.78374 0.0
C2538 C 0.89109 0.7713 0.75667 0.0
C2539 C 0.89746 0.78799 0.74162 0.0
C2540 C 0.88367 0.80307 0.73576 0.0
C2541 C 0.8631 0.80139 0.74602 0.0
C2542 C 0.85699 0.78524 0.76235 0.0
C2543 C 0.87094 0.76977 0.76737 0.0
H2544 H 0.11066 0.01412 0.8393 0.0
H2545 H 0.17872 1.00888 0.86173 0.0
H2546 H 0.16993 0.01312 0.90459 0.0
H2547 H 0.10499 0.05876 0.89195 0.0
H2548 H 0.07527 0.04425 0.89341 0.0
H2549 H 0.08666 0.04052 0.86457 0.0
H2550 H 0.07289 0.99214 0.85857 0.0
H2551 H 0.06136 0.99573 0.88735 0.0
H2552 H 0.08161 0.97718 0.88191 0.0
H2553 H 0.15425 0.02241 0.94724 0.0
H2554 H 0.13259 0.0293 0.98248 0.0
H2555 H 0.07267 0.02398 0.93312 0.0
C2556 C 0.1237 0.01343 0.8531 0.0
C2557 C 0.14562 0.01092 0.84637 0.0
C2558 C 0.16183 1.01036 0.86563 0.0
C2559 C 0.15694 0.013 0.89034 0.0
C2560 C 0.13541 0.01576 0.89623 0.0
C2561 C 0.11883 0.01536 0.87793 0.0
C2562 C 0.09678 0.01795 0.88901 0.0
C2563 C 0.09056 0.04178 0.88445 0.0
C2564 C 0.07698 0.99435 0.87858 0.0
C2565 C 0.10348 0.02023 0.91644 0.0
C2566 C 0.12602 0.01932 0.92021 0.0
C2567 C 0.13651 0.02262 0.9441 0.0
C2568 C 0.12394 0.02664 0.96427 0.0
C2569 C 0.10053 0.02687 0.96125 0.0
C2570 C 0.09029 0.02346 0.93658 0.0
H2571 H 0.88985 0.41606 0.59986 0.0
H2572 H 0.81624 0.40029 0.59864 0.0
H2573 H 0.82003 0.39676 0.642 0.0
H2574 H 0.89889 0.37413 0.63238 0.0
H2575 H 0.92536 0.39334 0.65012 0.0
H2576 H 0.91706 0.39877 0.62076 0.0
H2577 H 0.91995 0.44542 0.64021 0.0
H2578 H 0.92851 0.44022 0.66975 0.0
H2579 H 0.90422 0.45272 0.66543 0.0
H2580 H 0.8315 0.38585 0.68143 0.0
H2581 H 0.84992 0.37312 0.71576 0.0
H2582 H 0.91642 0.40036 0.69274 0.0
C2583 C 0.87464 0.41256 0.60904 0.0
C2584 C 0.85279 0.40832 0.59627 0.0
C2585 C 0.83311 0.4037 0.60845 0.0
C2586 C 0.83514 0.40172 0.63297 0.0
C2587 C 0.857 0.40527 0.64497 0.0
C2588 C 0.87645 0.41124 0.63355 0.0
C2589 C 0.89779 0.41234 0.64971 0.0
C2590 C 0.9105 0.39352 0.63751 0.0
C2591 C 0.91354 0.43928 0.65669 0.0
C2592 C 0.88725 0.40453 0.67149 0.0
C2593 C 0.86371 0.40064 0.6685 0.0
C2594 C 0.84996 0.38976 0.68446 0.0
C2595 C 0.86053 0.38246 0.70378 0.0
C2596 C 0.88462 0.38653 0.70719 0.0
C2597 C 0.89811 0.39815 0.69113 0.0
H2598 H 0.53259 0.07508 0.35486 0.0
H2599 H 0.46319 0.07807 0.3655 0.0
H2600 H 0.47261 0.0826 0.40989 0.0
H2601 H 0.53669 0.036 0.39074 0.0
H2602 H 0.56626 0.04948 0.40345 0.0
H2603 H 0.55654 0.05388 0.37413 0.0
H2604 H 0.57109 0.10234 0.38921 0.0
H2605 H 0.58127 0.09804 0.4186 0.0
H2606 H 0.56192 0.11753 0.41656 0.0
H2607 H 0.48633 0.07585 0.45009 0.0
H2608 H 0.50441 0.06234 0.48395 0.0
H2609 H 0.56486 0.06394 0.44716 0.0
C2610 C 0.51967 0.0778 0.36669 0.0
C2611 C 0.4972 0.07626 0.35689 0.0
C2612 C 0.48059 0.07952 0.37275 0.0
C2613 C 0.4858 0.08206 0.39796 0.0
C2614 C 0.50778 0.08186 0.40688 0.0
C2615 C 0.52464 0.0804 0.39177 0.0
C2616 C 0.5458 0.07693 0.40507 0.0
C2617 C 0.55163 0.05263 0.39261 0.0
C2618 C 0.56622 0.1001 0.40751 0.0
C2619 C 0.53764 0.07492 0.42953 0.0
C2620 C 0.51585 0.07824 0.43039 0.0
C2621 C 0.50364 0.07399 0.44991 0.0
C2622 C 0.51393 0.06598 0.4689 0.0
C2623 C 0.53612 0.06226 0.46814 0.0
C2624 C 0.54824 0.06736 0.44851 0.0
H2625 H 0.8107 0.71047 0.09558 0.0
H2626 H 0.80367 0.78282 0.0845 0.0
H2627 H 0.80696 0.79834 0.12915 0.0
H2628 H 0.77633 0.70782 0.14384 0.0
H2629 H 0.79308 0.69275 0.16074 0.0
H2630 H 0.79225 0.68781 0.12804 0.0
H2631 H 0.83657 0.70335 0.13233 0.0
H2632 H 0.83755 0.70791 0.16503 0.0
H2633 H 0.85092 0.73366 0.15154 0.0
H2634 H 0.8095 0.80542 0.17487 0.0
H2635 H 0.81254 0.80387 0.2186 0.0
H2636 H 0.81599 0.72632 0.19959 0.0
C2637 C 0.81047 0.72979 0.10259 0.0
C2638 C 0.80723 0.74559 0.08666 0.0
C2639 C 0.80632 0.77051 0.09646 0.0
C2640 C 0.80809 0.77945 0.12175 0.0
C2641 C 0.81057 0.76315 0.13695 0.0
C2642 C 0.81186 0.73889 0.12777 0.0
C2643 C 0.81341 0.72481 0.14799 0.0
C2644 C 0.79252 0.70195 0.14496 0.0
C2645 C 0.83596 0.71698 0.1493 0.0
C2646 C 0.81304 0.74501 0.16993 0.0
C2647 C 0.81133 0.76698 0.1632 0.0
C2648 C 0.81079 0.78829 0.18036 0.0
C2649 C 0.81233 0.78719 0.2051 0.0
C2650 C 0.81399 0.76479 0.21229 0.0
C2651 C 0.81441 0.74354 0.19447 0.0
H2652 H 0.10816 1.00926 0.70291 0.0
H2653 H 0.17639 1.00294 0.69072 0.0
H2654 H 0.16875 1.007 0.648 0.0
H2655 H 0.08062 0.97212 0.64 0.0
H2656 H 0.06047 0.99074 0.63817 0.0
H2657 H 0.07098 0.98646 0.66744 0.0
H2658 H 0.08392 0.03447 0.68279 0.0
H2659 H 0.07443 0.03935 0.65345 0.0
H2660 H 0.1038 0.05332 0.66705 0.0
H2661 H 0.15472 0.01518 0.60664 0.0
H2662 H 0.13471 0.02049 0.56931 0.0
H2663 H 0.07324 0.01863 0.60461 0.0
C2664 C 0.12143 1.0082 0.69116 0.0
C2665 C 0.1431 1.0055 0.70089 0.0
C2666 C 0.15967 1.00453 0.68435 0.0
C2667 C 0.15545 1.00709 0.65984 0.0
C2668 C 0.13425 1.01018 0.65117 0.0
C2669 C 0.11721 1.01001 0.66616 0.0
C2670 C 0.09565 0.01285 0.65183 0.0
C2671 C 0.07574 0.98914 0.64921 0.0
C2672 C 0.08904 0.03641 0.66451 0.0
C2673 C 0.10338 0.01557 0.62667 0.0
C2674 C 0.12583 0.014 0.62699 0.0
C2675 C 0.13713 0.01617 0.6064 0.0
C2676 C 0.12544 0.01933 0.58501 0.0
C2677 C 0.10219 0.02036 0.58322 0.0
C2678 C 0.09103 0.01843 0.60484 0.0
H2679 H 0.81227 0.32801 0.4662 0.0
H2680 H 0.79198 0.39534 0.45827 0.0
H2681 H 0.78279 0.37861 0.41401 0.0
H2682 H 0.84221 0.32469 0.42086 0.0
H2683 H 0.83449 0.2911 0.40915 0.0
H2684 H 0.83241 0.30343 0.44056 0.0
H2685 H 0.78958 0.27919 0.43523 0.0
H2686 H 0.79152 0.26609 0.40377 0.0
H2687 H 0.77022 0.28282 0.41121 0.0
H2688 H 0.78745 0.36193 0.37164 0.0
H2689 H 0.79885 0.34217 0.33326 0.0
H2690 H 0.81453 0.28418 0.36715 0.0
C2691 C 0.80472 0.33862 0.45533 0.0
C2692 C 0.80299 0.36305 0.46567 0.0
C2693 C 0.79339 0.37655 0.45082 0.0
C2694 C 0.78814 0.36719 0.42558 0.0
C2695 C 0.79203 0.34406 0.41565 0.0
C2696 C 0.79935 0.32947 0.4301 0.0
C2697 C 0.80517 0.30702 0.41469 0.0
C2698 C 0.83004 0.30657 0.42174 0.0
C2699 C 0.7881 0.28231 0.41632 0.0
C2700 C 0.802 0.31259 0.3896 0.0
C2701 C 0.79406 0.33382 0.39056 0.0
C2702 C 0.79289 0.34481 0.37049 0.0
C2703 C 0.79982 0.33372 0.34888 0.0
C2704 C 0.80766 0.3118 0.3474 0.0
C2705 C 0.80837 0.30083 0.36787 0.0
H2706 H 0.54112 0.07319 0.23974 0.0
H2707 H 0.4779 0.09414 0.22608 0.0
H2708 H 0.49643 0.12164 0.19969 0.0
H2709 H 0.57923 0.13527 0.24192 0.0
H2710 H 0.60061 0.12253 0.22736 0.0
H2711 H 0.58259 0.10514 0.24582 0.0
H2712 H 0.56967 0.06654 0.20936 0.0
H2713 H 0.58775 0.08373 0.1909 0.0
H2714 H 0.55764 0.07042 0.18056 0.0
H2715 H 0.52127 0.14507 0.17325 0.0
H2716 H 0.5505 0.16218 0.14804 0.0
H2717 H 0.59764 0.1268 0.1801 0.0
C2718 C 0.53114 0.08348 0.23113 0.0
C2719 C 0.50803 0.0814 0.23477 0.0
C2720 C 0.49563 0.09543 0.22346 0.0
C2721 C 0.50602 0.11116 0.20854 0.0
C2722 C 0.52889 0.1129 0.20546 0.0
C2723 C 0.54131 0.09952 0.2165 0.0
C2724 C 0.56551 0.10438 0.20992 0.0
C2725 C 0.58301 0.11761 0.23261 0.0
C2726 C 0.57042 0.07981 0.1969 0.0
C2727 C 0.56452 0.12191 0.19278 0.0
C2728 C 0.54333 0.12682 0.19065 0.0
C2729 C 0.538 0.14157 0.17495 0.0
C2730 C 0.55464 0.15114 0.1607 0.0
C2731 C 0.5763 0.1459 0.16232 0.0
C2732 C 0.58138 0.13148 0.17888 0.0
H2733 H 0.80042 0.76841 0.95875 0.0
H2734 H 0.8246 0.70106 0.9431 0.0
H2735 H 0.83336 0.70968 0.90277 0.0
H2736 H 0.77267 0.76213 0.90077 0.0
H2737 H 0.78036 0.79528 0.90079 0.0
H2738 H 0.77811 0.78512 0.9292 0.0
H2739 H 0.81974 0.81164 0.94527 0.0
H2740 H 0.82203 0.822 0.9169 0.0
H2741 H 0.84265 0.80701 0.9277 0.0
H2742 H 0.83405 0.72239 0.86212 0.0
H2743 H 0.83043 0.74074 0.82575 0.0
H2744 H 0.80842 0.80124 0.86918 0.0
C2745 C 0.80798 0.75572 0.94704 0.0
C2746 C 0.81184 0.73406 0.95401 0.0
C2747 C 0.82168 0.71787 0.93818 0.0
C2748 C 0.82663 0.72258 0.91523 0.0
C2749 C 0.82203 0.74378 0.90867 0.0
C2750 C 0.8133 0.76033 0.9243 0.0
C2751 C 0.80904 0.7812 0.9126 0.0
C2752 C 0.78354 0.78089 0.91073 0.0
C2753 C 0.82428 0.80699 0.92644 0.0
C2754 C 0.81625 0.7735 0.88769 0.0
C2755 C 0.82356 0.75178 0.8857 0.0
C2756 C 0.82893 0.73973 0.86365 0.0
C2757 C 0.82676 0.75018 0.84313 0.0
C2758 C 0.81964 0.77257 0.84502 0.0
C2759 C 0.81458 0.78451 0.86759 0.0
H2760 H 0.86089 0.08682 0.03337 0.0
H2761 H 0.81748 0.0564 0.96401 0.0
H2762 H 0.8382 0.02364 0.95432 0.0
H2763 H 0.91153 0.0807 0.01124 0.0
H2764 H 0.92332 0.07244 0.03788 0.0
H2765 H 0.90324 0.09135 0.04078 0.0
H2766 H 0.87698 0.05919 0.06098 0.0
H2767 H 0.89708 0.04022 0.05835 0.0
H2768 H 0.86758 0.02649 0.0455 0.0
H2769 H 0.86618 0.99707 0.95047 0.0
H2770 H 0.89909 0.97865 0.95289 0.0
H2771 H 0.92355 0.02632 0.02504 0.0
C2772 C 0.85534 0.07292 0.01638 0.0
C2773 C 0.83749 0.07405 0.99949 0.0
C2774 C 0.83105 0.0558 0.97727 0.0
C2775 C 0.84269 0.03711 0.97162 0.0
C2776 C 0.86061 0.03694 0.98844 0.0
C2777 C 0.86681 0.05429 0.01043 0.0
C2778 C 0.88772 0.0513 0.02456 0.0
C2779 C 0.90762 0.07537 0.02885 0.0
C2780 C 0.88199 0.04385 0.04878 0.0
C2781 C 0.89263 0.02987 0.00684 0.0
C2782 C 0.87672 0.02169 0.9862 0.0
C2783 C 0.87853 1.00302 0.96671 0.0
C2784 C 0.89722 0.99261 0.96828 0.0
C2785 C 0.91387 1.00101 0.98915 0.0
C2786 C 0.91122 0.0196 0.00877 0.0
H2787 H 0.3985 0.41613 0.02067 0.0
H2788 H 0.38252 0.45773 0.08748 0.0
H2789 H 0.42043 0.48894 0.09221 0.0
H2790 H 0.45617 0.42321 0.03893 0.0
H2791 H 0.46454 0.42631 0.00938 0.0
H2792 H 0.43605 0.40909 0.01169 0.0
H2793 H 0.42074 0.43825 0.98761 0.0
H2794 H 0.44964 0.45564 0.98613 0.0
H2795 H 0.42965 0.47188 0.99913 0.0
H2796 H 0.46188 0.51259 0.09135 0.0
H2797 H 0.50152 0.52921 0.0833 0.0
H2798 H 0.4887 0.47336 0.01523 0.0
C2799 C 0.40291 0.43204 0.03612 0.0
C2800 C 0.38791 0.43461 0.05384 0.0
C2801 C 0.39395 0.45563 0.07373 0.0
C2802 C 0.41539 0.47333 0.07654 0.0
C2803 C 0.43011 0.46991 0.05892 0.0
C2804 C 0.42384 0.45009 0.03881 0.0
C2805 C 0.44271 0.45016 0.02269 0.0
C2806 C 0.45031 0.42573 0.02061 0.0
C2807 C 0.43523 0.45423 0.9974 0.0
C2808 C 0.46102 0.47272 0.03716 0.0
C2809 C 0.45345 0.4839 0.058 0.0
C2810 C 0.46778 0.50431 0.07481 0.0
C2811 C 0.49028 0.5137 0.07 0.0
C2812 C 0.4982 0.50294 0.04842 0.0
C2813 C 0.48327 0.4821 0.03188 0.0
H2814 H 0.4044 0.64534 0.74676 0.0
H2815 H 0.40297 0.63416 0.82078 0.0
H2816 H 0.38172 0.66699 0.82981 0.0
H2817 H 0.41273 0.71291 0.76113 0.0
H2818 H 0.395 0.71308 0.73409 0.0
H2819 H 0.40963 0.68874 0.73392 0.0
H2820 H 0.37103 0.6548 0.7205 0.0
H2821 H 0.35634 0.67911 0.72073 0.0
H2822 H 0.34773 0.65568 0.73857 0.0
H2823 H 0.35924 0.70432 0.83017 0.0
H2824 H 0.34155 0.73808 0.82191 0.0
H2825 H 0.35772 0.72415 0.74766 0.0
C2826 C 0.39971 0.64957 0.76501 0.0
C2827 C 0.40585 0.63636 0.78296 0.0
C2828 C 0.39891 0.64334 0.80643 0.0
C2829 C 0.38663 0.66225 0.81173 0.0
C2830 C 0.38094 0.67472 0.79354 0.0
C2831 C 0.38745 0.66841 0.77057 0.0
C2832 C 0.37971 0.68439 0.75395 0.0
C2833 C 0.4005 0.70074 0.74526 0.0
C2834 C 0.3627 0.66748 0.73214 0.0
C2835 C 0.36786 0.70083 0.77085 0.0
C2836 C 0.36857 0.6951 0.79372 0.0
C2837 C 0.35875 0.70846 0.81215 0.0
C2838 C 0.34842 0.72776 0.80726 0.0
C2839 C 0.34742 0.73404 0.78389 0.0
C2840 C 0.35757 0.72001 0.7657 0.0
H2841 H 0.22023 0.67154 0.48565 0.0
H2842 H 0.23696 0.60511 0.50237 0.0
H2843 H 0.19588 0.58241 0.49467 0.0
H2844 H 0.17502 0.66942 0.51453 0.0
H2845 H 0.15502 0.67673 0.49353 0.0
H2846 H 0.18539 0.68856 0.49353 0.0
H2847 H 0.18651 0.6687 0.4495 0.0
H2848 H 0.15565 0.65932 0.446 0.0
H2849 H 0.17131 0.63625 0.43717 0.0
H2850 H 0.15348 0.56723 0.48533 0.0
H2851 H 0.11216 0.56116 0.47809 0.0
H2852 H 0.12222 0.63856 0.47143 0.0
C2853 C 0.21535 0.65207 0.48729 0.0
C2854 C 0.23179 0.64006 0.49459 0.0
C2855 C 0.22467 0.61462 0.49667 0.0
C2856 C 0.20141 0.60158 0.49228 0.0
C2857 C 0.18565 0.61418 0.48555 0.0
C2858 C 0.19229 0.63876 0.48282 0.0
C2859 C 0.17182 0.64841 0.47676 0.0
C2860 C 0.17173 0.67213 0.49571 0.0
C2861 C 0.1713 0.65346 0.45082 0.0
C2862 C 0.15252 0.62586 0.47799 0.0
C2863 C 0.16098 0.60609 0.48223 0.0
C2864 C 0.14666 0.58276 0.48268 0.0
C2865 C 0.12304 0.57965 0.4792 0.0
C2866 C 0.11391 0.59997 0.47637 0.0
C2867 C 0.12884 0.62311 0.47483 0.0
H2868 H 0.72257 0.98857 0.76234 0.0
H2869 H 0.78586 0.02173 0.73556 0.0
H2870 H 0.80652 1.00005 0.76 0.0
H2871 H 0.74702 0.99165 0.82368 0.0
H2872 H 0.72859 0.96173 0.82572 0.0
H2873 H 0.71882 0.98042 0.80667 0.0
H2874 H 0.71055 0.94275 0.76949 0.0
H2875 H 0.72031 0.92399 0.78845 0.0
H2876 H 0.73312 0.92827 0.76108 0.0
H2877 H 0.82025 0.97483 0.78709 0.0
H2878 H 0.82611 0.94675 0.81426 0.0
H2879 H 0.75362 0.9289 0.82241 0.0
C2880 C 0.7408 0.99141 0.76174 0.0
C2881 C 0.75264 1.00692 0.74712 0.0
C2882 C 0.77645 1.00993 0.74662 0.0
C2883 C 0.78834 0.99774 0.76047 0.0
C2884 C 0.77614 0.98253 0.7746 0.0
C2885 C 0.7529 0.97923 0.77529 0.0
C2886 C 0.74378 0.96131 0.7915 0.0
C2887 C 0.73398 0.97458 0.81318 0.0
C2888 C 0.72589 0.93768 0.77674 0.0
C2889 C 0.76555 0.9551 0.79983 0.0
C2890 C 0.78401 0.9676 0.78992 0.0
C2891 C 0.80591 0.96484 0.79487 0.0
C2892 C 0.80901 0.9487 0.81022 0.0
C2893 C 0.79028 0.93533 0.82032 0.0
C2894 C 0.76832 0.93886 0.81514 0.0
H2895 H 0.79206 0.96959 0.5548 0.0
H2896 H 0.75464 0.8955 0.51269 0.0
H2897 H 0.72164 0.91196 0.50352 0.0
H2898 H 0.74346 0.98668 0.58051 0.0
H2899 H 0.75322 0.01918 0.57842 0.0
H2900 H 0.77367 1.00139 0.58242 0.0
H2901 H 0.79086 0.01206 0.54358 0.0
H2902 H 0.77046 0.02988 0.5395 0.0
H2903 H 0.77235 1.00464 0.51516 0.0
H2904 H 0.69291 0.93664 0.49824 0.0
H2905 H 0.67112 0.96816 0.49613 0.0
H2906 H 0.72715 0.02603 0.54183 0.0
C2907 C 0.77689 0.95678 0.54375 0.0
C2908 C 0.77596 0.93123 0.53451 0.0
C2909 C 0.75581 0.91515 0.51998 0.0
C2910 C 0.73692 0.9243 0.51471 0.0
C2911 C 0.73843 0.94958 0.52407 0.0
C2912 C 0.7579 0.96562 0.53823 0.0
C2913 C 0.75533 0.99214 0.54548 0.0
C2914 C 0.75648 1.00032 0.57336 0.0
C2915 C 0.77332 0.01077 0.53532 0.0
C2916 C 0.73148 0.98855 0.53295 0.0
C2917 C 0.72195 0.96384 0.52086 0.0
C2918 C 0.70016 0.95604 0.50772 0.0
C2919 C 0.68787 0.97406 0.50673 0.0
C2920 C 0.69744 0.9996 0.51874 0.0
C2921 C 0.71948 1.00676 0.53217 0.0
H2922 H 0.42742 0.46453 0.77009 0.0
H2923 H 0.37851 0.50788 0.78829 0.0
H2924 H 0.34969 0.46855 0.79045 0.0
H2925 H 0.3869 0.409 0.73215 0.0
H2926 H 0.40113 0.38749 0.74246 0.0
H2927 H 0.4173 0.4189 0.74185 0.0
H2928 H 0.43208 0.42636 0.78771 0.0
H2929 H 0.41583 0.39504 0.78847 0.0
H2930 H 0.41177 0.42182 0.80943 0.0
H2931 H 0.32648 0.42302 0.79289 0.0
H2932 H 0.31154 0.3779 0.79305 0.0
H2933 H 0.37529 0.3644 0.77135 0.0
C2934 C 0.41059 0.46591 0.77433 0.0
C2935 C 0.40544 0.48973 0.77894 0.0
C2936 C 0.38307 0.49016 0.78448 0.0
C2937 C 0.36656 0.46778 0.78586 0.0
C2938 C 0.37239 0.44476 0.7815 0.0
C2939 C 0.39391 0.44377 0.77562 0.0
C2940 C 0.39617 0.41686 0.77181 0.0
C2941 C 0.40064 0.40751 0.7455 0.0
C2942 C 0.41509 0.41492 0.79046 0.0
C2943 C 0.37263 0.40269 0.77651 0.0
C2944 C 0.35912 0.41905 0.7822 0.0
C2945 C 0.33694 0.41018 0.78802 0.0
C2946 C 0.32842 0.38422 0.78784 0.0
C2947 C 0.34173 0.36688 0.78157 0.0
C2948 C 0.36427 0.37668 0.77596 0.0
H2949 H 0.27766 0.61495 0.26688 0.0
H2950 H 0.2065 0.61547 0.26762 0.0
H2951 H 0.21806 0.66167 0.28186 0.0
H2952 H 0.29982 0.67172 0.32282 0.0
H2953 H 0.32564 0.68248 0.30957 0.0
H2954 H 0.3121 0.64921 0.30493 0.0
H2955 H 0.31209 0.64635 0.25939 0.0
H2956 H 0.32243 0.67973 0.26155 0.0
H2957 H 0.29518 0.66224 0.24399 0.0
H2958 H 0.2362 0.70697 0.28748 0.0
H2959 H 0.26086 0.74995 0.29092 0.0
H2960 H 0.32088 0.72124 0.28897 0.0
C2961 C 0.26472 0.62479 0.27135 0.0
C2962 C 0.24128 0.61194 0.26651 0.0
C2963 C 0.22455 0.62519 0.2716 0.0
C2964 C 0.23096 0.65137 0.27966 0.0
C2965 C 0.25418 0.66379 0.28313 0.0
C2966 C 0.27092 0.65097 0.28016 0.0
C2967 C 0.29452 0.66918 0.28336 0.0
C2968 C 0.30887 0.66809 0.30655 0.0
C2969 C 0.30684 0.66414 0.26073 0.0
C2970 C 0.28816 0.69399 0.28631 0.0
C2971 C 0.26482 0.69038 0.28657 0.0
C2972 C 0.25454 0.71012 0.28782 0.0
C2973 C 0.26857 0.73435 0.28953 0.0
C2974 C 0.29249 0.73851 0.28982 0.0
C2975 C 0.3025 0.71822 0.28838 0.0
H2976 H 0.53515 0.67969 0.44723 0.0
H2977 H 0.52234 0.71713 0.51785 0.0
H2978 H 0.53088 0.68337 0.53616 0.0
H2979 H 0.5087 0.61665 0.4538 0.0
H2980 H 0.52894 0.60249 0.43849 0.0
H2981 H 0.52342 0.63043 0.43093 0.0
H2982 H 0.5667 0.65307 0.44058 0.0
H2983 H 0.57228 0.62514 0.44821 0.0
H2984 H 0.58156 0.65477 0.47004 0.0
H2985 H 0.54043 0.64436 0.54746 0.0
H2986 H 0.54741 0.60294 0.54934 0.0
H2987 H 0.55265 0.58904 0.47172 0.0
C2988 C 0.53439 0.68096 0.4666 0.0
C2989 C 0.52813 0.70161 0.48098 0.0
C2990 C 0.52704 0.70188 0.50621 0.0
C2991 C 0.53197 0.68266 0.51691 0.0
C2992 C 0.53788 0.66263 0.50235 0.0
C2993 C 0.53897 0.66152 0.47765 0.0
C2994 C 0.54465 0.63712 0.46596 0.0
C2995 C 0.52527 0.6207 0.44612 0.0
C2996 C 0.56766 0.64288 0.45557 0.0
C2997 C 0.54633 0.62472 0.48777 0.0
C2998 C 0.54269 0.63993 0.5087 0.0
C2999 C 0.54334 0.63242 0.5311 0.0
C3000 C 0.54747 0.60882 0.53209 0.0
C3001 C 0.55098 0.59264 0.51085 0.0
C3002 C 0.55031 0.60096 0.48843 0.0
H3003 H 0.66434 0.30625 0.68208 0.0
H3004 H 0.69862 0.33267 0.62313 0.0
H3005 H 0.7355 0.33172 0.6434 0.0
H3006 H 0.71172 0.34053 0.73192 0.0
H3007 H 0.70755 0.3151 0.74786 0.0
H3008 H 0.68361 0.31947 0.72994 0.0
H3009 H 0.6753 0.27353 0.70539 0.0
H3010 H 0.6993 0.26914 0.72313 0.0
H3011 H 0.69764 0.26324 0.6903 0.0
H3012 H 0.76859 0.32651 0.66832 0.0
H3013 H 0.79638 0.3181 0.6971 0.0
H3014 H 0.74263 0.29354 0.74087 0.0
C3015 C 0.67969 0.31236 0.67374 0.0
C3016 C 0.67837 0.31978 0.6509 0.0
C3017 C 0.69894 0.32701 0.64049 0.0
C3018 C 0.7201 0.32652 0.65191 0.0
C3019 C 0.72078 0.31867 0.67395 0.0
C3020 C 0.70124 0.31182 0.68496 0.0
C3021 C 0.70711 0.30324 0.70834 0.0
C3022 C 0.7022 0.32062 0.73085 0.0
C3023 C 0.69406 0.27565 0.70668 0.0
C3024 C 0.73285 0.30613 0.70845 0.0
C3025 C 0.74019 0.31517 0.68839 0.0
C3026 C 0.76298 0.31931 0.68403 0.0
C3027 C 0.77872 0.31411 0.70046 0.0
C3028 C 0.77198 0.30462 0.72121 0.0
C3029 C 0.74856 0.30079 0.72529 0.0
H3030 H 0.03305 0.34978 0.01656 0.0
H3031 H 0.0384 0.34183 0.93905 0.0
H3032 H 0.04609 0.38788 0.94378 0.0
H3033 H 1.00684 0.39941 0.02484 0.0
H3034 H 0.02318 0.4178 0.05336 0.0
H3035 H 0.01888 0.38414 0.04579 0.0
H3036 H 0.0619 0.38782 0.05015 0.0
H3037 H 0.06717 0.42148 0.05974 0.0
H3038 H 0.08045 0.40833 0.03456 0.0
H3039 H 0.05104 0.43478 0.95622 0.0
H3040 H 0.05927 0.47978 0.97663 0.0
H3041 H 0.05442 0.45909 0.04684 0.0
C3042 C 0.03609 0.35779 1.00065 0.0
C3043 C 0.03506 0.34197 0.97735 0.0
C3044 C 0.03925 0.35336 0.95709 0.0
C3045 C 0.04346 0.37958 0.95956 0.0
C3046 C 0.044 0.39457 0.98259 0.0
C3047 C 0.04111 0.38421 1.00295 0.0
C3048 C 0.04389 0.40492 0.0258 0.0
C3049 C 0.02189 0.40139 0.03819 0.0
C3050 C 0.06458 0.40568 0.04361 0.0
C3051 C 0.04823 0.42839 0.01501 0.0
C3052 C 0.04793 0.42186 0.98997 0.0
C3053 C 0.0514 0.44008 0.97583 0.0
C3054 C 0.05592 0.46562 0.98754 0.0
C3055 C 0.05712 0.47296 0.01323 0.0
C3056 C 0.05323 0.454 0.02712 0.0
H3057 H 0.05126 0.79668 0.17472 0.0
H3058 H 0.04548 0.86871 0.16124 0.0
H3059 H 0.01175 0.86561 0.1835 0.0
H3060 H 0.99023 0.76688 0.16902 0.0
H3061 H 0.9927 0.75064 0.1934 0.0
H3062 H 0.01616 0.75794 0.17576 0.0
H3063 H 0.04328 0.78147 0.21542 0.0
H3064 H 0.01993 0.77417 0.23317 0.0
H3065 H 0.03585 0.80644 0.23585 0.0
H3066 H 0.97862 0.8551 0.20748 0.0
H3067 H 0.94983 0.83887 0.23343 0.0
H3068 H 0.97675 0.77376 0.23188 0.0
C3069 C 0.04286 0.81176 0.1764 0.0
C3070 C 0.05113 0.83294 0.16611 0.0
C3071 C 0.03963 0.8523 0.16891 0.0
C3072 C 0.02034 0.85069 0.18149 0.0
C3073 C 0.01263 0.82963 0.19136 0.0
C3074 C 0.02357 0.81055 0.18911 0.0
C3075 C 0.01208 0.79034 0.20213 0.0
C3076 C 1.00221 0.76495 0.18399 0.0
C3077 C 0.02878 0.78798 0.22287 0.0
C3078 C 0.99312 0.80115 0.2121 0.0
C3079 C 0.99365 0.82373 0.2055 0.0
C3080 C 0.97799 0.83738 0.21271 0.0
C3081 C 0.96156 0.8279 0.22732 0.0
C3082 C 0.96089 0.80501 0.23477 0.0
C3083 C 0.97685 0.79143 0.22675 0.0
H3084 H 0.58949 0.33967 0.13773 0.0
H3085 H 0.53103 0.36392 0.16327 0.0
H3086 H 0.54131 0.4005 0.14387 0.0
H3087 H 0.62831 0.40277 0.14506 0.0
H3088 H 0.641 0.39378 0.11785 0.0
H3089 H 0.63 0.37077 0.13543 0.0
H3090 H 0.60412 0.34198 0.09676 0.0
H3091 H 0.61491 0.36493 0.07912 0.0
H3092 H 0.58453 0.35425 0.08017 0.0
H3093 H 0.55618 0.43233 0.11836 0.0
H3094 H 0.57604 0.45836 0.09136 0.0
H3095 H 0.62432 0.41263 0.08278 0.0
C3096 C 0.57901 0.35285 0.1396 0.0
C3097 C 0.55946 0.34893 0.15204 0.0
C3098 C 0.54615 0.36658 0.1539 0.0
C3099 C 0.55183 0.3874 0.14292 0.0
C3100 C 0.57095 0.39037 0.13033 0.0
C3101 C 0.58446 0.3737 0.12885 0.0
C3102 C 0.60359 0.3805 0.11351 0.0
C3103 C 0.62712 0.38737 0.12889 0.0
C3104 C 0.60165 0.35915 0.09107 0.0
C3105 C 0.59853 0.40335 0.10623 0.0
C3106 C 0.57968 0.40884 0.1161 0.0
C3107 C 0.57121 0.42848 0.11089 0.0
C3108 C 0.58245 0.443 0.09538 0.0
C3109 C 0.60181 0.4376 0.08511 0.0
C3110 C 0.60989 0.41757 0.09076 0.0
H3111 H 0.01218 0.30111 0.37075 0.0
H3112 H 0.06397 0.3121 0.3216 0.0
H3113 H 0.03532 0.31647 0.29048 0.0
H3114 H 0.96088 0.26975 0.32259 0.0
H3115 H 0.94347 0.28642 0.34019 0.0
H3116 H 0.96611 0.27721 0.35548 0.0
H3117 H 0.98341 0.32362 0.37851 0.0
H3118 H 0.96117 0.33304 0.36312 0.0
H3119 H 0.99074 0.34783 0.36125 0.0
H3120 H 1.00301 0.32769 0.2681 0.0
H3121 H 0.96994 0.34319 0.25628 0.0
H3122 H 0.94173 0.32835 0.32249 0.0
C3123 C 0.01732 0.30339 0.35308 0.0
C3124 C 0.04027 0.30624 0.3486 0.0
C3125 C 0.0464 0.30966 0.32538 0.0
C3126 C 0.03023 0.31217 0.30757 0.0
C3127 C 1.00804 0.31093 0.31324 0.0
C3128 C 1.00154 0.30625 0.33537 0.0
C3129 C 0.97792 0.30949 0.3387 0.0
C3130 C 0.9611 0.28421 0.33926 0.0
C3131 C 0.97837 0.3297 0.36174 0.0
C3132 C 0.97266 0.31814 0.31566 0.0
C3133 C 0.98985 0.31823 0.30082 0.0
C3134 C 0.98925 0.32725 0.27938 0.0
C3135 C 0.97055 0.33635 0.27299 0.0
C3136 C 0.95299 0.33681 0.28828 0.0
C3137 C 0.95427 0.32749 0.30982 0.0
H3138 H 0.97868 0.67159 0.60766 0.0
H3139 H 0.0237 0.74449 0.60624 0.0
H3140 H 0.03525 0.72609 0.5673 0.0
H3141 H 0.01533 0.63761 0.59011 0.0
H3142 H 0.99478 0.61045 0.57143 0.0
H3143 H 0.98585 0.63011 0.59594 0.0
H3144 H 0.95488 0.63697 0.56566 0.0
H3145 H 0.96361 0.61698 0.54104 0.0
H3146 H 0.96308 0.6485 0.53889 0.0
H3147 H 0.04893 0.69852 0.53526 0.0
H3148 H 0.06043 0.66385 0.50918 0.0
H3149 H 1.00506 0.60931 0.52924 0.0
C3150 C 0.99021 0.68394 0.59865 0.0
C3151 C 1.00026 0.70946 0.60997 0.0
C3152 C 0.01569 0.72489 0.59786 0.0
C3153 C 0.02234 0.71462 0.57569 0.0
C3154 C 0.01309 0.68905 0.5657 0.0
C3155 C 0.99698 0.67398 0.57649 0.0
C3156 C 0.99179 0.64654 0.5637 0.0
C3157 C 0.99728 0.63025 0.58135 0.0
C3158 C 0.96685 0.63667 0.5516 0.0
C3159 C 1.00829 0.64842 0.54481 0.0
C3160 C 0.02037 0.67313 0.54619 0.0
C3161 C 0.039 0.67922 0.53325 0.0
C3162 C 0.04549 0.65954 0.51865 0.0
C3163 C 0.03312 0.63433 0.51696 0.0
C3164 C 0.01407 0.62867 0.52969 0.0
H3165 H 0.67203 0.86528 0.84315 0.0
H3166 H 0.67836 0.82389 0.90009 0.0
H3167 H 0.71032 0.81067 0.88213 0.0
H3168 H 0.68407 0.8211 0.79457 0.0
H3169 H 0.70125 0.84387 0.78007 0.0
H3170 H 0.67888 0.85164 0.79695 0.0
H3171 H 0.70709 0.89054 0.82458 0.0
H3172 H 0.72984 0.88408 0.80763 0.0
H3173 H 0.73273 0.88728 0.84031 0.0
H3174 H 0.74198 0.80286 0.85949 0.0
H3175 H 0.77186 0.80041 0.83247 0.0
H3176 H 0.7453 0.84576 0.78921 0.0
C3177 C 0.68013 0.85343 0.85181 0.0
C3178 C 0.67263 0.84562 0.87302 0.0
C3179 C 0.68376 0.83017 0.88385 0.0
C3180 C 0.70193 0.82249 0.87379 0.0
C3181 C 0.70885 0.83043 0.85291 0.0
C3182 C 0.69843 0.8456 0.84201 0.0
C3183 C 0.70961 0.85162 0.8198 0.0
C3184 C 0.69244 0.84144 0.79646 0.0
C3185 C 0.72046 0.88007 0.82331 0.0
C3186 C 0.72778 0.83734 0.81996 0.0
C3187 C 0.72703 0.82536 0.83931 0.0
C3188 C 0.74258 0.81184 0.84406 0.0
C3189 C 0.7594 0.81044 0.82853 0.0
C3190 C 0.76027 0.82216 0.8083 0.0
C3191 C 0.74448 0.83605 0.80416 0.0
H3192 H 0.51946 0.55853 0.72162 0.0
H3193 H 0.45205 0.56623 0.7002 0.0
H3194 H 0.4606 0.56227 0.65727 0.0
H3195 H 0.54921 0.59535 0.67935 0.0
H3196 H 0.56875 0.576 0.67336 0.0
H3197 H 0.55746 0.57964 0.70227 0.0
H3198 H 0.54243 0.5313 0.69562 0.0
H3199 H 0.55356 0.52753 0.66665 0.0
H3200 H 0.5237 0.51385 0.66823 0.0
H3201 H 0.47595 0.5533 0.6144 0.0
H3202 H 0.49716 0.5463 0.57888 0.0
H3203 H 0.55671 0.54852 0.62731 0.0
C3204 C 0.5065 0.5598 0.70803 0.0
C3205 C 0.48484 0.56294 0.7151 0.0
C3206 C 0.46874 0.56425 0.69608 0.0
C3207 C 0.4735 0.56177 0.67133 0.0
C3208 C 0.49477 0.55839 0.66511 0.0
C3209 C 0.51124 0.55799 0.68316 0.0
C3210 C 0.53301 0.55477 0.67176 0.0
C3211 C 0.55331 0.57781 0.68232 0.0
C3212 C 0.5385 0.53042 0.67582 0.0
C3213 C 0.52628 0.55306 0.64444 0.0
C3214 C 0.50397 0.55483 0.64101 0.0
C3215 C 0.49349 0.55234 0.61729 0.0
C3216 C 0.50582 0.54824 0.59693 0.0
C3217 C 0.52901 0.54705 0.59956 0.0
C3218 C 0.53925 0.54967 0.6241 0.0
H3219 H 0.83734 0.16698 0.95595 0.0
H3220 H 0.84888 0.23542 0.01139 0.0
H3221 H 0.84745 0.25972 0.97942 0.0
H3222 H 0.86505 0.19776 0.90506 0.0
H3223 H 0.84276 0.17678 0.88229 0.0
H3224 H 0.85272 0.16603 0.90826 0.0
H3225 H 0.8113 0.15333 0.9189 0.0
H3226 H 0.80103 0.16401 0.89327 0.0
H3227 H 0.79524 0.17661 0.92347 0.0
H3228 H 0.83484 0.27415 0.94389 0.0
H3229 H 0.81207 0.27786 0.90759 0.0
H3230 H 0.80741 0.20009 0.874 0.0
C3231 C 0.84097 0.1873 0.96115 0.0
C3232 C 0.84378 0.19957 0.98591 0.0
C3233 C 0.84719 0.22592 0.99239 0.0
C3234 C 0.84646 0.23984 0.97435 0.0
C3235 C 0.84218 0.22703 0.94997 0.0
C3236 C 0.83972 0.20133 0.94327 0.0
C3237 C 0.83065 0.19128 0.91647 0.0
C3238 C 0.84889 0.18245 0.90217 0.0
C3239 C 0.80823 0.17009 0.91285 0.0
C3240 C 0.82653 0.21481 0.90975 0.0
C3241 C 0.83407 0.23539 0.92908 0.0
C3242 C 0.82954 0.25842 0.92835 0.0
C3243 C 0.81654 0.26033 0.9076 0.0
C3244 C 0.80803 0.23926 0.88789 0.0
C3245 C 0.81372 0.21649 0.88878 0.0
H3246 H 0.15977 0.51069 0.16898 0.0
H3247 H 0.19481 0.59034 0.18116 0.0
H3248 H 0.16122 0.59805 0.16055 0.0
H3249 H 0.13671 0.5068 0.10776 0.0
H3250 H 0.11022 0.48425 0.10893 0.0
H3251 H 0.13566 0.48537 0.12798 0.0
H3252 H 0.11388 0.49077 0.16577 0.0
H3253 H 0.08861 0.49055 0.14675 0.0
H3254 H 0.10095 0.51664 0.17214 0.0
H3255 H 0.12467 0.59833 0.14045 0.0
H3256 H 0.09328 0.58945 0.10738 0.0
H3257 H 0.08323 0.5093 0.10169 0.0
C3258 C 0.1603 0.52975 0.16737 0.0
C3259 C 0.17955 0.55012 0.17789 0.0
C3260 C 0.17997 0.57456 0.17432 0.0
C3261 C 0.16086 0.57923 0.16281 0.0
C3262 C 0.14169 0.55913 0.15407 0.0
C3263 C 0.14158 0.53468 0.155 0.0
C3264 C 0.12008 0.5162 0.14044 0.0
C3265 C 0.12603 0.49707 0.12007 0.0
C3266 C 0.10499 0.50275 0.15729 0.0
C3267 C 0.10882 0.53416 0.13034 0.0
C3268 C 0.12103 0.5589 0.1398 0.0
C3269 C 0.11484 0.5791 0.13295 0.0
C3270 C 0.09681 0.57389 0.11439 0.0
C3271 C 0.08584 0.54877 0.10237 0.0
C3272 C 0.09095 0.52861 0.11124 0.0
H3273 H 0.81504 0.85986 0.457 0.0
H3274 H 0.82266 0.78892 0.47157 0.0
H3275 H 0.82092 0.77214 0.42724 0.0
H3276 H 0.77659 0.8346 0.40027 0.0
H3277 H 0.7901 0.85992 0.38633 0.0
H3278 H 0.79018 0.86541 0.41897 0.0
H3279 H 0.83451 0.8817 0.42456 0.0
H3280 H 0.83455 0.87588 0.39192 0.0
H3281 H 0.85115 0.86177 0.41012 0.0
H3282 H 0.81918 0.76354 0.3812 0.0
H3283 H 0.81663 0.76366 0.33708 0.0
H3284 H 0.81269 0.84113 0.35339 0.0
C3285 C 0.81578 0.84059 0.45084 0.0
C3286 C 0.81867 0.82554 0.46765 0.0
C3287 C 0.82025 0.80066 0.45893 0.0
C3288 C 0.81936 0.79102 0.43383 0.0
C3289 C 0.81715 0.8066 0.41777 0.0
C3290 C 0.81533 0.83084 0.42593 0.0
C3291 C 0.81414 0.84415 0.40508 0.0
C3292 C 0.7914 0.85144 0.40251 0.0
C3293 C 0.83482 0.86724 0.40812 0.0
C3294 C 0.81532 0.82354 0.38389 0.0
C3295 C 0.81706 0.80202 0.39152 0.0
C3296 C 0.81796 0.78035 0.37505 0.0
C3297 C 0.8167 0.78064 0.35008 0.0
C3298 C 0.81504 0.80262 0.34203 0.0
C3299 C 0.81435 0.82425 0.35919 0.0
H3300 H 0.52343 0.57287 0.862 0.0
H3301 H 0.45048 0.5518 0.86614 0.0
H3302 H 0.45799 0.54191 0.90658 0.0
H3303 H 0.54047 0.52825 0.89229 0.0
H3304 H 0.56628 0.55048 0.90884 0.0
H3305 H 0.55436 0.55496 0.88036 0.0
H3306 H 0.55392 0.5998 0.90281 0.0
H3307 H 0.56497 0.59423 0.93127 0.0
H3308 H 0.53857 0.60335 0.92902 0.0
H3309 H 0.47365 0.53047 0.94623 0.0
H3310 H 0.49506 0.52644 0.98355 0.0
H3311 H 0.55892 0.55917 0.95805 0.0
C3312 C 0.50898 0.56674 0.87162 0.0
C3313 C 0.4861 0.56355 0.86029 0.0
C3314 C 0.46805 0.55509 0.87397 0.0
C3315 C 0.47224 0.54905 0.89709 0.0
C3316 C 0.4948 0.55196 0.90737 0.0
C3317 C 0.51295 0.56147 0.89539 0.0
C3318 C 0.53563 0.56417 0.91124 0.0
C3319 C 0.55002 0.54849 0.89735 0.0
C3320 C 0.54907 0.59205 0.91904 0.0
C3321 C 0.52753 0.55378 0.93358 0.0
C3322 C 0.50382 0.54663 0.93067 0.0
C3323 C 0.49217 0.53622 0.94846 0.0
C3324 C 0.50466 0.53372 0.96977 0.0
C3325 C 0.52899 0.54147 0.97414 0.0
C3326 C 0.54048 0.55189 0.95541 0.0
H3327 H 0.82682 0.1738 0.11041 0.0
H3328 H 0.82487 0.2338 0.0723 0.0
H3329 H 0.81971 0.26065 0.11038 0.0
H3330 H 0.78416 0.18209 0.14709 0.0
H3331 H 0.79765 0.17641 0.17429 0.0
H3332 H 0.80359 0.1623 0.14471 0.0
H3333 H 0.84713 0.18265 0.1574 0.0
H3334 H 0.84127 0.19642 0.18719 0.0
H3335 H 0.85728 0.2162 0.16913 0.0
H3336 H 0.81161 0.27966 0.15085 0.0
H3337 H 0.80391 0.29139 0.19337 0.0
H3338 H 0.81146 0.21973 0.20613 0.0
C3339 C 0.82582 0.19279 0.11027 0.0
C3340 C 0.82606 0.2017 0.08842 0.0
C3341 C 0.82445 0.22652 0.08879 0.0
C3342 C 0.8216 0.24196 0.11034 0.0
C3343 C 0.82058 0.23235 0.13137 0.0
C3344 C 0.82297 0.20854 0.13172 0.0
C3345 C 0.8204 0.20268 0.15676 0.0
C3346 C 0.80025 0.1795 0.15563 0.0
C3347 C 0.84286 0.19929 0.1683 0.0
C3348 C 0.81545 0.22658 0.17005 0.0
C3349 C 0.81584 0.24347 0.15504 0.0
C3350 C 0.81145 0.26672 0.1629 0.0
C3351 C 0.80703 0.27316 0.18699 0.0
C3352 C 0.80715 0.25645 0.20288 0.0
C3353 C 0.81108 0.23272 0.19423 0.0
H3354 H 0.14134 0.52825 0.28355 0.0
H3355 H 0.12625 0.57901 0.23916 0.0
H3356 H 0.08935 0.5766 0.2556 0.0
H3357 H 0.0823 0.48903 0.27962 0.0
H3358 H 0.08592 0.48608 0.31093 0.0
H3359 H 0.11008 0.48969 0.29379 0.0
H3360 H 0.13243 0.5285 0.32712 0.0
H3361 H 0.10837 0.52506 0.3443 0.0
H3362 H 0.11998 0.5545 0.33562 0.0
H3363 H 0.05558 0.57133 0.27904 0.0
H3364 H 0.02818 0.5649 0.3092 0.0
H3365 H 0.0651 0.5173 0.33786 0.0
C3366 C 0.13011 0.53853 0.27697 0.0
C3367 C 0.13664 0.55377 0.26004 0.0
C3368 C 0.12163 0.56727 0.2522 0.0
C3369 C 0.10057 0.5659 0.2613 0.0
C3370 C 0.09477 0.55094 0.27819 0.0
C3371 C 0.1091 0.5375 0.28598 0.0
C3372 C 0.0996 0.52435 0.30561 0.0
C3373 C 0.09415 0.49558 0.29696 0.0
C3374 C 0.11607 0.53367 0.32958 0.0
C3375 C 0.07795 0.53294 0.30798 0.0
C3376 C 0.07532 0.548 0.29181 0.0
C3377 C 0.05725 0.55926 0.29156 0.0
C3378 C 0.0417 0.55539 0.30864 0.0
C3379 C 0.04448 0.54056 0.32579 0.0
C3380 C 0.06257 0.52879 0.325 0.0
H3381 H 0.82119 0.81611 0.60221 0.0
H3382 H 0.80061 0.88571 0.60931 0.0
H3383 H 0.79268 0.88367 0.65154 0.0
H3384 H 0.7785 0.78583 0.63811 0.0
H3385 H 0.79808 0.77102 0.65128 0.0
H3386 H 0.80054 0.77723 0.62116 0.0
H3387 H 0.84296 0.80223 0.63498 0.0
H3388 H 0.84054 0.7963 0.66516 0.0
H3389 H 0.84984 0.8282 0.66114 0.0
H3390 H 0.79159 0.87658 0.69454 0.0
H3391 H 0.79295 0.86221 0.73351 0.0
H3392 H 0.81195 0.79606 0.69716 0.0
C3393 C 0.81463 0.8307 0.6125 0.0
C3394 C 0.81151 0.85108 0.60253 0.0
C3395 C 0.80294 0.86982 0.61655 0.0
C3396 C 0.7985 0.86889 0.64057 0.0
C3397 C 0.80235 0.84886 0.65007 0.0
C3398 C 0.80981 0.82985 0.6363 0.0
C3399 C 0.81301 0.81064 0.65087 0.0
C3400 C 0.79654 0.78464 0.63969 0.0
C3401 C 0.83807 0.80928 0.65317 0.0
C3402 C 0.80663 0.82206 0.67515 0.0
C3403 C 0.8007 0.84421 0.67442 0.0
C3404 C 0.79576 0.85902 0.6952 0.0
C3405 C 0.7967 0.85083 0.71722 0.0
C3406 C 0.80224 0.82793 0.7181 0.0
C3407 C 0.80716 0.81338 0.69679 0.0
H3408 H 0.79665 0.50188 0.50067 0.0
H3409 H 0.78802 0.46309 0.56065 0.0
H3410 H 0.75822 0.48389 0.57341 0.0
H3411 H 0.78734 0.56109 0.53395 0.0
H3412 H 0.77213 0.56619 0.50749 0.0
H3413 H 0.79397 0.54951 0.50385 0.0
H3414 H 0.76478 0.51167 0.47482 0.0
H3415 H 0.74288 0.5282 0.47839 0.0
H3416 H 0.73826 0.49733 0.48516 0.0
H3417 H 0.72832 0.50728 0.57882 0.0
H3418 H 0.69999 0.53175 0.57632 0.0
H3419 H 0.72705 0.55458 0.51226 0.0
C3420 C 0.78867 0.49797 0.51663 0.0
C3421 C 0.79473 0.48085 0.52963 0.0
C3422 C 0.78375 0.47615 0.55037 0.0
C3423 C 0.76679 0.48791 0.55783 0.0
C3424 C 0.76106 0.50444 0.54448 0.0
C3425 C 0.77168 0.50959 0.5244 0.0
C3426 C 0.76172 0.52754 0.51285 0.0
C3427 C 0.77987 0.55257 0.51465 0.0
C3428 C 0.75129 0.51545 0.48623 0.0
C3429 C 0.74342 0.53104 0.52915 0.0
C3430 C 0.74354 0.51779 0.54746 0.0
C3431 C 0.72805 0.51776 0.56457 0.0
C3432 C 0.71188 0.53156 0.56285 0.0
C3433 C 0.71112 0.54498 0.54397 0.0
C3434 C 0.7273 0.54481 0.52707 0.0
H3435 H 0.21618 0.16887 0.52939 0.0
H3436 H 0.24826 0.12136 0.48093 0.0
H3437 H 0.21388 0.08549 0.47699 0.0
H3438 H 0.19166 0.12248 0.56168 0.0
H3439 H 0.16605 0.13293 0.56537 0.0
H3440 H 0.19241 0.15503 0.56288 0.0
H3441 H 0.17249 0.16706 0.52629 0.0
H3442 H 0.14604 0.14508 0.5288 0.0
H3443 H 0.15795 0.14269 0.50023 0.0
H3444 H 0.17509 0.0553 0.47771 0.0
H3445 H 0.13704 0.03253 0.48581 0.0
H3446 H 0.13282 0.09947 0.53673 0.0
C3447 C 0.2159 0.15102 0.51768 0.0
C3448 C 0.2347 0.14791 0.50519 0.0
C3449 C 0.23392 0.12411 0.49053 0.0
C3450 C 0.21448 0.1037 0.48816 0.0
C3451 C 0.19624 0.10744 0.50085 0.0
C3452 C 0.19693 0.13048 0.51549 0.0
C3453 C 0.17574 0.1294 0.52829 0.0
C3454 C 0.18184 0.1353 0.5562 0.0
C3455 C 0.16227 0.1471 0.52042 0.0
C3456 C 0.16298 0.1021 0.51862 0.0
C3457 C 0.17484 0.08979 0.50253 0.0
C3458 C 0.16584 0.06467 0.49059 0.0
C3459 C 0.14425 0.0518 0.4954 0.0
C3460 C 0.13221 0.0639 0.51243 0.0
C3461 C 0.14178 0.08943 0.52404 0.0
H3462 H 0.22369 0.92721 0.81631 0.0
H3463 H 0.22728 0.93878 0.74257 0.0
H3464 H 0.24801 0.90542 0.73408 0.0
H3465 H 0.27985 0.91558 0.8258 0.0
H3466 H 0.27024 0.89218 0.8434 0.0
H3467 H 0.25625 0.91702 0.84329 0.0
H3468 H 0.2173 0.88379 0.82908 0.0
H3469 H 0.23127 0.85895 0.82919 0.0
H3470 H 0.21427 0.85965 0.80186 0.0
H3471 H 0.26957 0.86752 0.73423 0.0
H3472 H 0.2862 0.83314 0.74283 0.0
H3473 H 0.26839 0.84698 0.81643 0.0
C3474 C 0.22877 0.92296 0.79825 0.0
C3475 C 0.22339 0.93641 0.78019 0.0
C3476 C 0.23078 0.92941 0.75697 0.0
C3477 C 0.24276 0.91021 0.75199 0.0
C3478 C 0.24768 0.89749 0.77026 0.0
C3479 C 0.24075 0.90384 0.79301 0.0
C3480 C 0.24766 0.88754 0.80974 0.0
C3481 C 0.26449 0.90407 0.83187 0.0
C3482 C 0.22636 0.87154 0.81795 0.0
C3483 C 0.25945 0.8708 0.79313 0.0
C3484 C 0.2595 0.87672 0.77034 0.0
C3485 C 0.26945 0.8632 0.75218 0.0
C3486 C 0.27915 0.84353 0.75726 0.0
C3487 C 0.27932 0.83703 0.78054 0.0
C3488 C 0.26908 0.85124 0.79847 0.0
H3489 H 0.44888 0.98529 0.03781 0.0
H3490 H 0.40852 0.03191 0.01303 0.0
H3491 H 0.44432 0.06302 0.00928 0.0
H3492 H 0.49493 0.03612 0.07341 0.0
H3493 H 0.5164 0.01983 0.0653 0.0
H3494 H 0.48759 1.00217 0.0667 0.0
H3495 H 0.48613 0.97785 0.02264 0.0
H3496 H 0.51441 0.99598 0.0199 0.0
H3497 H 0.49043 0.99464 0.99838 0.0
H3498 H 0.48488 0.08837 0.00755 0.0
H3499 H 0.5264 0.10583 0.00808 0.0
H3500 H 0.53948 0.04231 0.03438 0.0
C3501 C 0.44744 1.00206 0.03168 0.0
C3502 C 0.42589 1.00616 0.02564 0.0
C3503 C 0.42486 0.02843 0.01779 0.0
C3504 C 0.44508 0.04615 0.01559 0.0
C3505 C 0.46603 0.04129 0.02148 0.0
C3506 C 0.46728 0.01984 0.02951 0.0
C3507 C 0.49175 0.0187 0.03445 0.0
C3508 C 0.49803 0.01925 0.06158 0.0
C3509 C 0.49594 0.99543 0.01785 0.0
C3510 C 0.50422 0.04279 0.02771 0.0
C3511 C 0.48914 0.05565 0.02037 0.0
C3512 C 0.49679 0.07846 0.01332 0.0
C3513 C 0.52043 0.08825 0.01368 0.0
C3514 C 0.53607 0.07521 0.02094 0.0
C3515 C 0.52782 0.05242 0.02837 0.0
H3516 H 0.90977 0.61241 0.76442 0.0
H3517 H 0.87728 0.60458 0.82994 0.0
H3518 H 0.85203 0.63042 0.81937 0.0
H3519 H 0.90788 0.67718 0.76512 0.0
H3520 H 0.9021 0.67077 0.73222 0.0
H3521 H 0.91831 0.65336 0.74655 0.0
H3522 H 0.8893 0.61195 0.72273 0.0
H3523 H 0.87281 0.6297 0.70925 0.0
H3524 H 0.85931 0.60708 0.72617 0.0
H3525 H 0.82833 0.6538 0.79992 0.0
H3526 H 0.80829 0.67413 0.77377 0.0
H3527 H 0.85803 0.66937 0.72218 0.0
C3528 C 0.89752 0.61633 0.77672 0.0
C3529 C 0.89549 0.6065 0.79803 0.0
C3530 C 0.87915 0.61194 0.81353 0.0
C3531 C 0.86476 0.62662 0.8077 0.0
C3532 C 0.86707 0.6358 0.78641 0.0
C3533 C 0.88309 0.63097 0.77122 0.0
C3534 C 0.88148 0.6422 0.74895 0.0
C3535 C 0.90377 0.66209 0.7482 0.0
C3536 C 0.87536 0.62149 0.72539 0.0
C3537 C 0.8619 0.654 0.7539 0.0
C3538 C 0.85381 0.65001 0.77556 0.0
C3539 C 0.8348 0.65753 0.78318 0.0
C3540 C 0.82363 0.66932 0.76819 0.0
C3541 C 0.83163 0.6738 0.74589 0.0
C3542 C 0.85125 0.6662 0.73894 0.0
H3543 H 0.85133 0.65001 0.03669 0.0
H3544 H 0.85214 0.64228 0.95842 0.0
H3545 H 0.88074 0.61785 0.95952 0.0
H3546 H 0.91182 0.65642 0.05206 0.0
H3547 H 0.9073 0.6383 0.07536 0.0
H3548 H 0.88739 0.6559 0.06863 0.0
H3549 H 0.85401 0.61524 0.06062 0.0
H3550 H 0.87381 0.59753 0.06733 0.0
H3551 H 0.85562 0.58796 0.03856 0.0
H3552 H 0.90871 0.59358 0.96889 0.0
H3553 H 0.93326 0.57017 0.98575 0.0
H3554 H 0.91447 0.5938 0.05794 0.0
C3555 C 0.85759 0.64329 0.01979 0.0
C3556 C 0.84948 0.64811 0.99746 0.0
C3557 C 0.85804 0.63882 0.97575 0.0
C3558 C 0.87434 0.62497 0.97618 0.0
C3559 C 0.88192 0.6205 0.99846 0.0
C3560 C 0.87381 0.62933 0.01987 0.0
C3561 C 0.88434 0.62132 0.04126 0.0
C3562 C 0.89856 0.64436 0.06046 0.0
C3563 C 0.86584 0.60451 0.0526 0.0
C3564 C 0.89949 0.60648 0.02849 0.0
C3565 C 0.89795 0.60636 1.00384 0.0
C3566 C 0.91014 0.59363 0.9882 0.0
C3567 C 0.92416 0.5805 0.99798 0.0
C3568 C 0.92585 0.58013 0.02319 0.0
C3569 C 0.91339 0.59348 0.03857 0.0
H3570 H 0.2039 0.10943 0.79068 0.0
H3571 H 0.25268 0.06565 0.7736 0.0
H3572 H 0.28191 0.10488 0.77191 0.0
H3573 H 0.2208 0.15229 0.75158 0.0
H3574 H 0.21652 0.17905 0.77238 0.0
H3575 H 0.19998 0.14775 0.77277 0.0
H3576 H 0.2138 0.15494 0.81884 0.0
H3577 H 0.23027 0.18633 0.81859 0.0
H3578 H 0.24408 0.16463 0.82921 0.0
H3579 H 0.30579 0.15068 0.77015 0.0
H3580 H 0.3212 0.19592 0.77054 0.0
H3581 H 0.25695 0.20948 0.79047 0.0
C3582 C 0.22077 0.10791 0.78675 0.0
C3583 C 0.22574 0.08397 0.78235 0.0
C3584 C 0.24821 0.08342 0.77722 0.0
C3585 C 0.26497 0.10576 0.77613 0.0
C3586 C 0.25931 0.12891 0.78031 0.0
C3587 C 0.23768 0.13 0.78571 0.0
C3588 C 0.23561 0.15699 0.78945 0.0
C3589 C 0.21713 0.15914 0.77041 0.0
C3590 C 0.23065 0.16627 0.81558 0.0
C3591 C 0.2594 0.17111 0.78531 0.0
C3592 C 0.27288 0.15466 0.77991 0.0
C3593 C 0.2953 0.16355 0.77471 0.0
C3594 C 0.30408 0.18958 0.77517 0.0
C3595 C 0.29076 0.20699 0.78106 0.0
C3596 C 0.26799 0.19717 0.7861 0.0
H3597 H 0.45243 0.95786 0.29322 0.0
H3598 H 0.40399 0.98626 0.25386 0.0
H3599 H 0.37393 0.94694 0.25207 0.0
H3600 H 0.43386 0.89375 0.2628 0.0
H3601 H 0.43657 0.88106 0.28968 0.0
H3602 H 0.4547 0.91137 0.28844 0.0
H3603 H 0.44165 0.93224 0.32765 0.0
H3604 H 0.42322 0.90246 0.33002 0.0
H3605 H 0.41163 0.92905 0.32956 0.0
H3606 H 0.35053 0.903 0.25102 0.0
H3607 H 0.3334 0.8599 0.25627 0.0
H3608 H 0.39578 0.86173 0.29984 0.0
C3609 C 0.4356 0.95558 0.28383 0.0
C3610 C 0.43059 0.97479 0.27319 0.0
C3611 C 0.4082 0.97157 0.26183 0.0
C3612 C 0.39106 0.94934 0.2607 0.0
C3613 C 0.39661 0.93067 0.27121 0.0
C3614 C 0.4182 0.93373 0.28294 0.0
C3615 C 0.41934 0.91138 0.29395 0.0
C3616 C 0.43716 0.89861 0.28306 0.0
C3617 C 0.42425 0.91925 0.32196 0.0
C3618 C 0.39518 0.8949 0.28591 0.0
C3619 C 0.38241 0.90634 0.27269 0.0
C3620 C 0.3601 0.89419 0.262 0.0
C3621 C 0.35046 0.86985 0.26527 0.0
C3622 C 0.3629 0.85824 0.2796 0.0
C3623 C 0.38565 0.87074 0.2897 0.0
H3624 H 0.59195 0.39114 0.61519 0.0
H3625 H 0.59795 0.35183 0.54255 0.0
H3626 H 0.5885 0.38572 0.52527 0.0
H3627 H 0.54472 0.41745 0.59699 0.0
H3628 H 0.556 0.44727 0.61821 0.0
H3629 H 0.56179 0.41916 0.62515 0.0
H3630 H 0.60532 0.44056 0.63068 0.0
H3631 H 0.59959 0.46867 0.62377 0.0
H3632 H 0.61801 0.45343 0.60628 0.0
H3633 H 0.57906 0.42514 0.5151 0.0
H3634 H 0.5727 0.46698 0.51407 0.0
H3635 H 0.57359 0.48241 0.5927 0.0
C3636 C 0.59098 0.38948 0.59562 0.0
C3637 C 0.59566 0.36824 0.58038 0.0
C3638 C 0.59452 0.36751 0.55487 0.0
C3639 C 0.58907 0.38681 0.54474 0.0
C3640 C 0.58479 0.40743 0.56012 0.0
C3641 C 0.58579 0.409 0.58508 0.0
C3642 C 0.58148 0.43394 0.59752 0.0
C3643 C 0.5597 0.42916 0.61023 0.0
C3644 C 0.60234 0.4501 0.61564 0.0
C3645 C 0.57814 0.44608 0.5758 0.0
C3646 C 0.57986 0.43031 0.55432 0.0
C3647 C 0.57761 0.43751 0.53189 0.0
C3648 C 0.57383 0.46137 0.53141 0.0
C3649 C 0.57222 0.47812 0.55317 0.0
C3650 C 0.57444 0.47008 0.57562 0.0
H3651 H 0.47266 0.76918 0.37383 0.0
H3652 H 0.42937 0.73335 0.42213 0.0
H3653 H 0.39519 0.73642 0.39782 0.0
H3654 H 0.44134 0.81366 0.36702 0.0
H3655 H 0.44462 0.81313 0.33532 0.0
H3656 H 0.46587 0.80579 0.3546 0.0
H3657 H 0.4605 0.76295 0.32468 0.0
H3658 H 0.4393 0.77024 0.30523 0.0
H3659 H 0.43229 0.74159 0.31643 0.0
H3660 H 0.36565 0.74497 0.36994 0.0
H3661 H 0.34273 0.76105 0.34205 0.0
H3662 H 0.40369 0.79177 0.31038 0.0
C3663 C 0.45593 0.76131 0.37882 0.0
C3664 C 0.4538 0.75054 0.39978 0.0
C3665 C 0.43156 0.74137 0.40612 0.0
C3666 C 0.41197 0.74304 0.39237 0.0
C3667 C 0.41464 0.75411 0.37219 0.0
C3668 C 0.43601 0.76313 0.36533 0.0
C3669 C 0.43391 0.77577 0.34378 0.0
C3670 C 0.44723 0.80375 0.35059 0.0
C3671 C 0.44198 0.7618 0.32119 0.0
C3672 C 0.40814 0.77271 0.33991 0.0
C3673 C 0.39745 0.75995 0.35647 0.0
C3674 C 0.3739 0.7553 0.3572 0.0
C3675 C 0.36097 0.76441 0.34114 0.0
C3676 C 0.37134 0.77766 0.32402 0.0
C3677 C 0.39526 0.78155 0.32316 0.0
H3678 H 0.10416 0.73103 0.10896 0.0
H3679 H 0.0886 0.746 0.03778 0.0
H3680 H 0.07732 0.70016 0.01978 0.0
H3681 H 0.12966 0.68055 0.08602 0.0
H3682 H 0.11938 0.66199 0.10778 0.0
H3683 H 0.12482 0.69579 0.11573 0.0
H3684 H 0.08326 0.69167 0.12584 0.0
H3685 H 0.07779 0.65788 0.11844 0.0
H3686 H 0.05969 0.67296 0.1033 0.0
H3687 H 0.06641 0.65212 0.00976 0.0
H3688 H 0.05879 0.60631 0.00829 0.0
H3689 H 0.08474 0.62233 0.08496 0.0
C3690 C 0.09794 0.72455 0.08968 0.0
C3691 C 0.09666 0.74207 0.07484 0.0
C3692 C 0.0893 0.73292 0.04953 0.0
C3693 C 0.08296 0.7069 0.03915 0.0
C3694 C 0.08461 0.69011 0.05416 0.0
C3695 C 0.09213 0.69857 0.07886 0.0
C3696 C 0.09346 0.6766 0.09064 0.0
C3697 C 0.11831 0.67888 0.10064 0.0
C3698 C 0.0776 0.67467 0.11074 0.0
C3699 C 0.08495 0.65447 0.06891 0.0
C3700 C 0.0799 0.66266 0.04802 0.0
C3701 C 0.07076 0.6456 0.02592 0.0
C3702 C 0.06666 0.6196 0.02516 0.0
C3703 C 0.07222 0.61078 0.04618 0.0
C3704 C 0.08123 0.62856 0.06836 0.0
H3705 H 0.08268 0.31212 0.87908 0.0
H3706 H 0.08114 0.24044 0.89837 0.0
H3707 H 0.11443 0.23769 0.87618 0.0
H3708 H 0.09772 0.29587 0.81841 0.0
H3709 H 0.11608 0.32677 0.81956 0.0
H3710 H 0.09226 0.32321 0.83716 0.0
H3711 H 0.11981 0.34679 0.87655 0.0
H3712 H 0.14372 0.35034 0.85908 0.0
H3713 H 0.14402 0.33549 0.88478 0.0
H3714 H 0.14816 0.24284 0.85191 0.0
H3715 H 0.17853 0.25465 0.82603 0.0
H3716 H 0.15817 0.32303 0.82277 0.0
C3717 C 0.08929 0.2958 0.87864 0.0
C3718 C 0.07922 0.27649 0.89053 0.0
C3719 C 0.08847 0.25547 0.88941 0.0
C3720 C 0.10744 0.25376 0.87689 0.0
C3721 C 0.117 0.27319 0.86551 0.0
C3722 C 0.10818 0.29376 0.86617 0.0
C3723 C 0.12146 0.31191 0.85217 0.0
C3724 C 0.10595 0.31459 0.83054 0.0
C3725 C 0.13293 0.33766 0.86917 0.0
C3726 C 0.13907 0.29831 0.84346 0.0
C3727 C 0.1363 0.27607 0.85145 0.0
C3728 C 0.15051 0.26025 0.84561 0.0
C3729 C 0.16784 0.26722 0.83103 0.0
C3730 C 0.17082 0.28979 0.82234 0.0
C3731 C 0.15625 0.30554 0.82888 0.0
H3732 H 0.59849 0.80777 1.00303 0.0
H3733 H 0.62328 0.77794 0.93615 0.0
H3734 H 0.62061 0.73782 0.94943 0.0
H3735 H 0.62638 0.77514 0.04336 0.0
H3736 H 0.60214 0.77031 0.06034 0.0
H3737 H 0.60954 0.79767 0.04718 0.0
H3738 H 0.56839 0.78554 0.02439 0.0
H3739 H 0.56092 0.75807 0.0372 0.0
H3740 H 0.55729 0.75483 1.00454 0.0
H3741 H 0.60883 0.69904 0.96696 0.0
H3742 H 0.59159 0.66589 0.98845 0.0
H3743 H 0.57681 0.72251 0.04479 0.0
C3744 C 0.60395 0.79304 0.99146 0.0
C3745 C 0.61108 0.79583 0.96862 0.0
C3746 C 0.61797 0.77616 0.95387 0.0
C3747 C 0.61646 0.75335 0.96124 0.0
C3748 C 0.6085 0.75088 0.98355 0.0
C3749 C 0.60276 0.7704 0.99862 0.0
C3750 C 0.593 0.76255 0.02074 0.0
C3751 C 0.60871 0.77729 0.0443 0.0
C3752 C 0.56845 0.76542 0.02175 0.0
C3753 C 0.5932 0.73523 0.01529 0.0
C3754 C 0.60232 0.7288 0.99388 0.0
C3755 C 0.60222 0.70399 0.98408 0.0
C3756 C 0.59241 0.6853 0.99644 0.0
C3757 C 0.58284 0.6916 0.01835 0.0
C3758 C 0.58375 0.71699 0.028 0.0
H3759 H 0.08049 0.75793 0.72596 0.0
H3760 H 0.03821 0.681 0.71533 0.0
H3761 H 0.07133 0.66789 0.73016 0.0
H3762 H 0.13103 0.74251 0.70714 0.0
H3763 H 0.1506 0.76712 0.72983 0.0
H3764 H 0.12343 0.77123 0.71903 0.0
H3765 H 0.11352 0.77989 0.76338 0.0
H3766 H 0.14076 0.77605 0.77437 0.0
H3767 H 0.11467 0.75729 0.782 0.0
H3768 H 0.10879 0.66209 0.74325 0.0
H3769 H 0.14857 0.66456 0.75773 0.0
H3770 H 0.16693 0.74552 0.76283 0.0
C3771 C 0.07817 0.73842 0.72705 0.0
C3772 C 0.05669 0.72055 0.7195 0.0
C3773 C 0.05439 0.69514 0.72111 0.0
C3774 C 0.07315 0.68742 0.72943 0.0
C3775 C 0.09408 0.70534 0.73635 0.0
C3776 C 0.09674 0.73036 0.73561 0.0
C3777 C 0.1213 0.74562 0.74424 0.0
C3778 C 0.13223 0.7573 0.72384 0.0
C3779 C 0.12263 0.76591 0.76738 0.0
C3780 C 0.13192 0.72513 0.74972 0.0
C3781 C 0.11586 0.70207 0.74483 0.0
C3782 C 0.1215 0.6801 0.7476 0.0
C3783 C 0.14415 0.68176 0.75601 0.0
C3784 C 0.16092 0.70528 0.76188 0.0
C3785 C 0.15463 0.72722 0.75847 0.0
H3786 H 0.10104 0.40391 0.46821 0.0
H3787 H 0.1149 0.40723 0.39414 0.0
H3788 H 0.11068 0.45062 0.40092 0.0
H3789 H 0.05832 0.4317 0.46979 0.0
H3790 H 0.06543 0.4499 0.50072 0.0
H3791 H 0.07431 0.42147 0.4923 0.0
H3792 H 0.11677 0.44584 0.5072 0.0
H3793 H 0.10779 0.47419 0.51648 0.0
H3794 H 0.1293 0.47356 0.49603 0.0
H3795 H 0.096 0.4885 0.4124 0.0
H3796 H 0.07924 0.52269 0.43079 0.0
H3797 H 0.07711 0.49584 0.49808 0.0
C3798 C 0.10422 0.41426 0.45383 0.0
C3799 C 0.1084 0.40247 0.43074 0.0
C3800 C 0.11207 0.4162 0.4121 0.0
C3801 C 0.10954 0.44075 0.41574 0.0
C3802 C 0.10398 0.45131 0.43829 0.0
C3803 C 0.10213 0.43885 0.45732 0.0
C3804 C 0.0943 0.45352 0.4791 0.0
C3805 C 0.07176 0.43823 0.48584 0.0
C3806 C 0.11317 0.46231 0.50099 0.0
C3807 C 0.09078 0.47545 0.46884 0.0
C3808 C 0.09645 0.47385 0.44528 0.0
C3809 C 0.0922 0.49042 0.43108 0.0
C3810 C 0.08241 0.50947 0.44149 0.0
C3811 C 0.07723 0.51176 0.4658 0.0
C3812 C 0.0815 0.49467 0.47965 0.0
H3813 H 0.44536 0.29295 0.19103 0.0
H3814 H 0.47612 0.26682 0.24952 0.0
H3815 H 0.44545 0.27395 0.2743 0.0
H3816 H 0.42285 0.34017 0.22897 0.0
H3817 H 0.3956 0.33275 0.21037 0.0
H3818 H 0.4208 0.32892 0.19655 0.0
H3819 H 0.40272 0.28242 0.17729 0.0
H3820 H 0.3764 0.28532 0.18883 0.0
H3821 H 0.38938 0.26145 0.19586 0.0
H3822 H 0.40934 0.27651 0.28943 0.0
H3823 H 0.36958 0.27692 0.29562 0.0
H3824 H 0.36133 0.30177 0.22801 0.0
C3825 C 0.44589 0.2896 0.20938 0.0
C3826 C 0.46304 0.27979 0.21876 0.0
C3827 C 0.46305 0.27461 0.24236 0.0
C3828 C 0.44582 0.27867 0.25652 0.0
C3829 C 0.42869 0.2877 0.24663 0.0
C3830 C 0.4285 0.29315 0.22364 0.0
C3831 C 0.40662 0.29979 0.21634 0.0
C3832 C 0.41174 0.32703 0.21287 0.0
C3833 C 0.39298 0.28112 0.19322 0.0
C3834 C 0.39447 0.2967 0.23863 0.0
C3835 C 0.40761 0.28979 0.25586 0.0
C3836 C 0.39914 0.28278 0.27658 0.0
C3837 C 0.37667 0.28314 0.28001 0.0
C3838 C 0.36315 0.29058 0.26288 0.0
C3839 C 0.37196 0.29721 0.24185 0.0
H3840 H 0.64117 0.548 0.36292 0.0
H3841 H 0.63757 0.46844 0.34453 0.0
H3842 H 0.62019 0.46314 0.3826 0.0
H3843 H 0.65679 0.55587 0.4293 0.0
H3844 H 0.64077 0.57868 0.43765 0.0
H3845 H 0.65253 0.57603 0.40898 0.0
H3846 H 0.61231 0.56909 0.38609 0.0
H3847 H 0.60043 0.5716 0.41467 0.0
H3848 H 0.58899 0.54403 0.39054 0.0
H3849 H 0.59911 0.46628 0.42258 0.0
H3850 H 0.58279 0.47787 0.46093 0.0
H3851 H 0.60385 0.55644 0.45702 0.0
C3852 C 0.63695 0.52939 0.3669 0.0
C3853 C 0.64101 0.50858 0.34999 0.0
C3854 C 0.63507 0.48481 0.35663 0.0
C3855 C 0.62494 0.48163 0.37841 0.0
C3856 C 0.62102 0.50244 0.39436 0.0
C3857 C 0.6274 0.52604 0.38905 0.0
C3858 C 0.6222 0.54559 0.40966 0.0
C3859 C 0.6444 0.56521 0.42214 0.0
C3860 C 0.60496 0.55834 0.39964 0.0
C3861 C 0.61161 0.52947 0.42734 0.0
C3862 C 0.61074 0.5045 0.4179 0.0
C3863 C 0.60032 0.48589 0.43009 0.0
C3864 C 0.59096 0.49272 0.45213 0.0
C3865 C 0.59223 0.5182 0.46302 0.0
C3866 C 0.60291 0.53679 0.45005 0.0
H3867 H 0.32998 0.90189 0.08005 0.0
H3868 H 0.36334 0.97933 0.11495 0.0
H3869 H 0.3617 0.96826 0.15545 0.0
H3870 H 0.2949 0.88524 0.13331 0.0
H3871 H 0.29972 0.85431 0.12716 0.0
H3872 H 0.29607 0.86975 0.10239 0.0
H3873 H 0.33469 0.86381 0.08906 0.0
H3874 H 0.33873 0.84889 0.11384 0.0
H3875 H 0.36029 0.87625 0.11068 0.0
H3876 H 0.36727 0.94694 0.1893 0.0
H3877 H 0.37628 0.91786 0.21404 0.0
H3878 H 0.3389 0.8542 0.15716 0.0
C3879 C 0.33553 0.91668 0.09641 0.0
C3880 C 0.34628 0.94144 0.09477 0.0
C3881 C 0.35443 0.96041 0.11615 0.0
C3882 C 0.35362 0.95422 0.13915 0.0
C3883 C 0.34426 0.92912 0.14021 0.0
C3884 C 0.33474 0.91073 0.11936 0.0
C3885 C 0.32948 0.88461 0.12467 0.0
C3886 C 0.30349 0.87279 0.12172 0.0
C3887 C 0.34154 0.86743 0.10864 0.0
C3888 C 0.33949 0.89096 0.15116 0.0
C3889 C 0.34739 0.91671 0.16005 0.0
C3890 C 0.36038 0.92681 0.18286 0.0
C3891 C 0.36562 0.91019 0.19672 0.0
C3892 C 0.35797 0.88384 0.18769 0.0
C3893 C 0.34429 0.87425 0.16491 0.0
H3894 H 0.96329 0.56291 0.88052 0.0
H3895 H 0.01467 0.559 0.83119 0.0
H3896 H 0.04168 0.55594 0.86471 0.0
H3897 H 1.00273 0.59767 0.9367 0.0
H3898 H 0.98622 0.57946 0.95567 0.0
H3899 H 0.97221 0.5851 0.92877 0.0
H3900 H 0.95524 0.53696 0.9131 0.0
H3901 H 0.9695 0.53121 0.93975 0.0
H3902 H 0.97425 0.51669 0.90974 0.0
H3903 H 0.06228 0.55115 0.90265 0.0
H3904 H 0.07495 0.54387 0.94283 0.0
H3905 H 0.00906 0.54747 0.96643 0.0
C3906 C 0.9805 0.56226 0.87713 0.0
C3907 C 0.98723 0.56169 0.85362 0.0
C3908 C 0.00947 0.55977 0.84931 0.0
C3909 C 0.02487 0.55803 0.86817 0.0
C3910 C 0.01758 0.5579 0.89106 0.0
C3911 C 0.99593 0.55994 0.89567 0.0
C3912 C 0.99171 0.55699 0.92128 0.0
C3913 C 0.98801 0.58125 0.9365 0.0
C3914 C 0.97148 0.5341 0.92092 0.0
C3915 C 0.0142 0.55263 0.93014 0.0
C3916 C 0.02901 0.55362 0.91257 0.0
C3917 C 0.05088 0.55033 0.9166 0.0
C3918 C 0.05788 0.54614 0.93936 0.0
C3919 C 0.04285 0.54479 0.95745 0.0
C3920 C 0.02074 0.54797 0.95271 0.0
H3921 H 0.3155 0.2711 0.59756 0.0
H3922 H 0.30688 0.1909 0.591 0.0
H3923 H 0.30696 0.1964 0.63564 0.0
H3924 H 0.3547 0.28949 0.65581 0.0
H3925 H 0.34363 0.31602 0.66692 0.0
H3926 H 0.34386 0.30549 0.63461 0.0
H3927 H 0.30095 0.30213 0.62837 0.0
H3928 H 0.29923 0.31032 0.66063 0.0
H3929 H 0.28132 0.281 0.64228 0.0
H3930 H 0.30541 0.21005 0.68043 0.0
H3931 H 0.30886 0.23214 0.72361 0.0
H3932 H 0.32009 0.30363 0.70153 0.0
C3933 C 0.31407 0.25482 0.60563 0.0
C3934 C 0.31117 0.23059 0.59092 0.0
C3935 C 0.30936 0.20967 0.60202 0.0
C3936 C 0.30916 0.21256 0.62731 0.0
C3937 C 0.31129 0.23657 0.64125 0.0
C3938 C 0.31447 0.25746 0.63095 0.0
C3939 C 0.31722 0.28128 0.65019 0.0
C3940 C 0.34128 0.29911 0.65199 0.0
C3941 C 0.29855 0.29446 0.6451 0.0
C3942 C 0.31424 0.27037 0.67278 0.0
C3943 C 0.31076 0.24452 0.66718 0.0
C3944 C 0.30809 0.23027 0.68506 0.0
C3945 C 0.3098 0.24289 0.70946 0.0
C3946 C 0.31403 0.2694 0.71561 0.0
C3947 C 0.3162 0.28326 0.69706 0.0
H3948 H 0.6038 0.50737 0.21046 0.0
H3949 H 0.67039 0.49931 0.19337 0.0
H3950 H 0.66038 0.50328 0.15093 0.0
H3951 H 0.57244 0.47078 0.15083 0.0
H3952 H 0.55275 0.49005 0.14976 0.0
H3953 H 0.56478 0.48658 0.17875 0.0
H3954 H 0.57958 0.53419 0.19287 0.0
H3955 H 0.5687 0.53921 0.1641 0.0
H3956 H 0.59868 0.55195 0.17565 0.0
H3957 H 0.64333 0.51222 0.1095 0.0
H3958 H 0.6201 0.51811 0.07407 0.0
H3959 H 0.56295 0.5166 0.11611 0.0
C3960 C 0.61624 0.50593 0.19775 0.0
C3961 C 0.6381 0.50271 0.20595 0.0
C3962 C 0.65353 0.50128 0.18815 0.0
C3963 C 0.64796 0.50382 0.1638 0.0
C3964 C 0.62655 0.50746 0.15663 0.0
C3965 C 0.61071 0.50784 0.17309 0.0
C3966 C 0.58861 0.51131 0.16076 0.0
C3967 C 0.56843 0.48832 0.15997 0.0
C3968 C 0.58357 0.53561 0.17412 0.0
C3969 C 0.59442 0.51324 0.13489 0.0
C3970 C 0.61657 0.51133 0.13298 0.0
C3971 C 0.62598 0.51349 0.1111 0.0
C3972 C 0.6126 0.51706 0.09087 0.0
C3973 C 0.58953 0.5182 0.09179 0.0
C3974 C 0.5805 0.51613 0.11445 0.0
H3975 H 0.34135 0.92283 0.94273 0.0
H3976 H 0.32838 0.86868 0.98903 0.0
H3977 H 0.31736 0.83385 0.95265 0.0
H3978 H 0.29558 0.8852 0.88989 0.0
H3979 H 0.31394 0.89489 0.86773 0.0
H3980 H 0.31599 0.91572 0.897 0.0
H3981 H 0.35935 0.91878 0.90394 0.0
H3982 H 0.3573 0.89751 0.87503 0.0
H3983 H 0.36853 0.89037 0.90258 0.0
H3984 H 0.31403 0.80519 0.91271 0.0
H3985 H 0.31508 0.78387 0.87036 0.0
H3986 H 0.33067 0.8562 0.84933 0.0
C3987 C 0.33512 0.90368 0.94499 0.0
C3988 C 0.3352 0.89823 0.96845 0.0
C3989 C 0.32801 0.87302 0.97105 0.0
C3990 C 0.32178 0.85318 0.95055 0.0
C3991 C 0.32293 0.85895 0.92762 0.0
C3992 C 0.32906 0.88355 0.92459 0.0
C3993 C 0.33122 0.88431 0.89802 0.0
C3994 C 0.3131 0.8957 0.88755 0.0
C3995 C 0.35555 0.89858 0.89472 0.0
C3996 C 0.32632 0.85643 0.88695 0.0
C3997 C 0.32131 0.84217 0.9043 0.0
C3998 C 0.31742 0.81608 0.8988 0.0
C3999 C 0.31814 0.80416 0.87473 0.0
C4000 C 0.32265 0.81832 0.8565 0.0
C4001 C 0.32705 0.84483 0.86282 0.0
H4002 H 0.02606 0.55652 0.74528 0.0
H4003 H 0.96723 0.58695 0.73849 0.0
H4004 H 0.98324 0.60668 0.70545 0.0
H4005 H 0.0683 0.60988 0.73456 0.0
H4006 H 0.08402 0.59034 0.71775 0.0
H4007 H 0.0682 0.57973 0.74139 0.0
H4008 H 0.046 0.53877 0.71043 0.0
H4009 H 0.06172 0.54926 0.68672 0.0
H4010 H 0.03086 0.54098 0.68252 0.0
H4011 H 1.00516 0.62115 0.67162 0.0
H4012 H 0.0311 0.62929 0.64027 0.0
H4013 H 0.07512 0.5894 0.67055 0.0
C4014 C 0.01648 0.56739 0.73699 0.0
C4015 C 0.99536 0.57015 0.74444 0.0
C4016 C 0.98348 0.58462 0.73309 0.0
C4017 C 0.99244 0.5959 0.71435 0.0
C4018 C 0.01331 0.59264 0.70743 0.0
C4019 C 0.02516 0.57879 0.71851 0.0
C4020 C 0.04688 0.57742 0.70748 0.0
C4021 C 0.0681 0.59011 0.72643 0.0
C4022 C 0.04632 0.54998 0.69611 0.0
C4023 C 0.04537 0.59246 0.68818 0.0
C4024 C 0.02594 0.60117 0.68839 0.0
C4025 C 0.02052 0.61463 0.67144 0.0
C4026 C 0.03527 0.6191 0.65372 0.0
C4027 C 0.05518 0.61018 0.65325 0.0
C4028 C 0.0603 0.59692 0.67086 0.0
H4029 H 0.28127 0.24512 0.44931 0.0
H4030 H 0.34769 0.23094 0.46246 0.0
H4031 H 0.35885 0.24562 0.42502 0.0
H4032 H 0.27421 0.22261 0.38451 0.0
H4033 H 0.25965 0.24557 0.37832 0.0
H4034 H 0.25759 0.23516 0.40665 0.0
H4035 H 0.27258 0.28149 0.43073 0.0
H4036 H 0.27467 0.29196 0.40243 0.0
H4037 H 0.29943 0.30056 0.42505 0.0
H4038 H 0.36281 0.26325 0.3866 0.0
H4039 H 0.35809 0.27851 0.34851 0.0
H4040 H 0.28799 0.27783 0.3596 0.0
C4041 C 0.29828 0.24536 0.44449 0.0
C4042 C 0.3138 0.23731 0.45895 0.0
C4043 C 0.33565 0.23724 0.45169 0.0
C4044 C 0.34211 0.24557 0.43052 0.0
C4045 C 0.32635 0.25344 0.4167 0.0
C4046 C 0.30478 0.25307 0.42327 0.0
C4047 C 0.29055 0.26125 0.40478 0.0
C4048 C 0.26925 0.23987 0.39286 0.0
C4049 C 0.28393 0.28524 0.41645 0.0
C4050 C 0.30751 0.26647 0.38678 0.0
C4051 C 0.32817 0.26217 0.39408 0.0
C4052 C 0.34666 0.26648 0.38065 0.0
C4053 C 0.34387 0.27522 0.35914 0.0
C4054 C 0.32265 0.27912 0.35116 0.0
C4055 C 0.3043 0.27466 0.36517 0.0
H4056 H 0.34023 0.58566 0.46263 0.0
H4057 H 0.33867 0.6057 0.54095 0.0
H4058 H 0.3633 0.57793 0.54723 0.0
H4059 H 0.34025 0.51954 0.4596 0.0
H4060 H 0.35954 0.51962 0.43664 0.0
H4061 H 0.34027 0.53956 0.43806 0.0
H4062 H 0.37465 0.57854 0.44138 0.0
H4063 H 0.39402 0.55877 0.44005 0.0
H4064 H 0.39808 0.58526 0.46533 0.0
H4065 H 0.39061 0.55106 0.54544 0.0
H4066 H 0.41804 0.52567 0.53545 0.0
H4067 H 0.40146 0.52236 0.45837 0.0
C4068 C 0.34474 0.5839 0.48107 0.0
C4069 C 0.33745 0.59782 0.50129 0.0
C4070 C 0.34396 0.59518 0.52515 0.0
C4071 C 0.35795 0.57943 0.52893 0.0
C4072 C 0.36514 0.56629 0.50865 0.0
C4073 C 0.35865 0.56819 0.48517 0.0
C4074 C 0.3696 0.5529 0.46666 0.0
C4075 C 0.35132 0.53164 0.44921 0.0
C4076 C 0.385 0.56989 0.45253 0.0
C4077 C 0.38358 0.54251 0.48344 0.0
C4078 C 0.38069 0.55042 0.50759 0.0
C4079 C 0.39278 0.54444 0.52659 0.0
C4080 C 0.40835 0.53012 0.52076 0.0
C4081 C 0.41163 0.52189 0.49615 0.0
C4082 C 0.39888 0.52795 0.47728 0.0
H4083 H 0.90941 0.90202 0.52291 0.0
H4084 H 0.87756 0.95444 0.56523 0.0
H4085 H 0.91305 0.98885 0.56834 0.0
H4086 H 0.96584 0.92645 0.55391 0.0
H4087 H 0.9795 0.92171 0.52659 0.0
H4088 H 0.95177 0.90155 0.52807 0.0
H4089 H 0.93544 0.91285 0.48906 0.0
H4090 H 0.96316 0.93299 0.48741 0.0
H4091 H 0.93848 0.94545 0.48822 0.0
H4092 H 0.95358 0.01637 0.56935 0.0
H4093 H 0.99348 0.03586 0.56391 0.0
H4094 H 0.99649 0.96578 0.51734 0.0
C4095 C 0.90992 0.92075 0.53287 0.0
C4096 C 0.89099 0.92565 0.54411 0.0
C4097 C 0.89202 0.95042 0.55657 0.0
C4098 C 0.91207 0.96997 0.55848 0.0
C4099 C 0.93059 0.96439 0.54735 0.0
C4100 C 0.92947 0.94045 0.53443 0.0
C4101 C 0.9513 0.93937 0.52343 0.0
C4102 C 0.96277 0.9212 0.53362 0.0
C4103 C 0.94682 0.93225 0.49537 0.0
C4104 C 0.9651 0.96639 0.53243 0.0
C4105 C 0.95305 0.98051 0.54646 0.0
C4106 C 0.96295 1.00562 0.55792 0.0
C4107 C 0.98563 0.01661 0.55463 0.0
C4108 C 0.99792 1.00269 0.53954 0.0
C4109 C 0.98742 0.9772 0.52848 0.0
H4110 H 0.92204 0.16753 0.31793 0.0
H4111 H 0.88996 0.11018 0.25339 0.0
H4112 H 0.86411 0.13643 0.2443 0.0
H4113 H 0.87049 0.18486 0.33529 0.0
H4114 H 0.88477 0.21787 0.34587 0.0
H4115 H 0.90051 0.19464 0.34688 0.0
H4116 H 0.9298 0.21674 0.32153 0.0
H4117 H 0.91406 0.23994 0.32038 0.0
H4118 H 0.91987 0.22199 0.29248 0.0
H4119 H 0.84106 0.17246 0.24193 0.0
H4120 H 0.82496 0.20961 0.2476 0.0
H4121 H 0.87116 0.24284 0.31439 0.0
C4122 C 0.9096 0.16019 0.30179 0.0
C4123 C 0.90861 0.13602 0.28649 0.0
C4124 C 0.89164 0.12809 0.2657 0.0
C4125 C 0.8767 0.14319 0.26034 0.0
C4126 C 0.8783 0.16677 0.2758 0.0
C4127 C 0.89447 0.17505 0.29624 0.0
C4128 C 0.89293 0.20093 0.31026 0.0
C4129 C 0.88682 0.19948 0.33611 0.0
C4130 C 0.91551 0.22108 0.31122 0.0
C4131 C 0.8734 0.20615 0.29484 0.0
C4132 C 0.86517 0.18634 0.27485 0.0
C4133 C 0.84749 0.18763 0.25783 0.0
C4134 C 0.8382 0.20905 0.26125 0.0
C4135 C 0.8459 0.22958 0.28187 0.0
C4136 C 0.86409 0.22765 0.29864 0.0
H4137 H 0.74472 0.11797 0.00858 0.0
H4138 H 0.76892 0.19703 1.00665 0.0
H4139 H 0.72919 0.19859 0.99675 0.0
H4140 H 0.69597 0.10285 0.95857 0.0
H4141 H 0.67792 0.08116 0.97351 0.0
H4142 H 0.70849 0.08558 0.97716 0.0
H4143 H 0.70781 0.09499 0.0232 0.0
H4144 H 0.67783 0.0939 0.02122 0.0
H4145 H 0.69894 0.12187 0.03765 0.0
H4146 H 0.68684 0.19165 0.98691 0.0
H4147 H 0.64437 0.17758 0.98236 0.0
H4148 H 0.64801 0.10445 0.99403 0.0
C4149 C 0.74166 0.13548 1.00566 0.0
C4150 C 0.75987 0.15739 0.00841 0.0
C4151 C 0.75521 0.18005 1.00478 0.0
C4152 C 0.73271 0.1811 0.99897 0.0
C4153 C 0.7151 0.1593 0.99678 0.0
C4154 C 0.71927 0.13687 0.99993 0.0
C4155 C 0.69713 0.1166 0.99804 0.0
C4156 C 0.69474 0.0953 0.97547 0.0
C4157 C 0.69527 0.10621 0.02141 0.0
C4158 C 0.67997 0.13163 0.99481 0.0
C4159 C 0.69064 0.1559 0.99312 0.0
C4160 C 0.67826 0.17279 0.98851 0.0
C4161 C 0.65427 0.16473 0.98596 0.0
C4162 C 0.64317 0.14045 0.98903 0.0
C4163 C 0.65616 0.12358 0.99299 0.0
H4164 H 0.21687 0.47832 0.27917 0.0
H4165 H 0.26676 0.49412 0.22867 0.0
H4166 H 0.28971 0.46996 0.24674 0.0
H4167 H 0.25592 0.48573 0.33007 0.0
H4168 H 0.23914 0.46055 0.34212 0.0
H4169 H 0.22513 0.47661 0.32356 0.0
H4170 H 0.20491 0.43411 0.29392 0.0
H4171 H 0.21872 0.41782 0.31251 0.0
H4172 H 0.22181 0.41398 0.28045 0.0
H4173 H 0.30923 0.44844 0.27289 0.0
H4174 H 0.32332 0.42883 0.30422 0.0
H4175 H 0.26011 0.42525 0.33691 0.0
C4176 C 0.23237 0.47625 0.27156 0.0
C4177 C 0.24002 0.48807 0.25249 0.0
C4178 C 0.26054 0.48519 0.24324 0.0
C4179 C 0.2737 0.47148 0.25336 0.0
C4180 C 0.26599 0.46064 0.27256 0.0
C4181 C 0.24569 0.46259 0.28142 0.0
C4182 C 0.24195 0.45025 0.30304 0.0
C4183 C 0.24046 0.46943 0.32605 0.0
C4184 C 0.22058 0.4277 0.29712 0.0
C4185 C 0.26365 0.44174 0.30539 0.0
C4186 C 0.27718 0.44779 0.28752 0.0
C4187 C 0.29861 0.44314 0.28669 0.0
C4188 C 0.30641 0.43189 0.30456 0.0
C4189 C 0.29275 0.42524 0.32297 0.0
C4190 C 0.27104 0.43021 0.32323 0.0
H4191 H 0.28315 0.45823 1.00062 0.0
H4192 H 0.25639 0.42499 0.05984 0.0
H4193 H 0.22503 0.44587 0.05882 0.0
H4194 H 0.27151 0.51794 0.02074 0.0
H4195 H 0.2639 0.52147 0.99028 0.0
H4196 H 0.28389 0.50347 0.99545 0.0
H4197 H 0.25847 0.46501 0.96368 0.0
H4198 H 0.23835 0.48286 0.95846 0.0
H4199 H 0.22877 0.45313 0.96732 0.0
H4200 H 0.19651 0.47077 0.05129 0.0
H4201 H 0.1743 0.49891 0.03895 0.0
H4202 H 0.21988 0.51541 0.98467 0.0
C4203 C 0.27071 0.45529 0.01338 0.0
C4204 C 0.27224 0.43994 0.03029 0.0
C4205 C 0.25561 0.43669 0.04672 0.0
C4206 C 0.23768 0.44842 0.04625 0.0
C4207 C 0.23665 0.46337 0.02927 0.0
C4208 C 0.25278 0.4669 0.01321 0.0
C4209 C 0.2481 0.48423 0.99706 0.0
C4210 C 0.26803 0.5082 1.00114 0.0
C4211 C 0.24312 0.47048 0.97003 0.0
C4212 C 0.22687 0.49002 1.00658 0.0
C4213 C 0.22042 0.47773 0.02507 0.0
C4214 C 0.20138 0.48042 0.03677 0.0
C4215 C 0.18879 0.49632 0.02955 0.0
C4216 C 0.19536 0.50939 0.01087 0.0
C4217 C 0.21455 0.50591 0.99918 0.0
H4218 H 0.92865 0.96383 0.28443 0.0
H4219 H 0.87633 0.99878 0.26313 0.0
H4220 H 0.84678 0.95842 0.2606 0.0
H4221 H 0.90512 0.90277 0.24611 0.0
H4222 H 0.91324 0.88618 0.26829 0.0
H4223 H 0.92978 0.91768 0.26859 0.0
H4224 H 0.92398 0.93196 0.31376 0.0
H4225 H 0.9075 0.90047 0.31362 0.0
H4226 H 0.89537 0.92669 0.32225 0.0
H4227 H 0.82294 0.91178 0.25824 0.0
H4228 H 0.80763 0.86707 0.25936 0.0
H4229 H 0.87562 0.86353 0.28455 0.0
C4230 C 0.91097 0.96322 0.27925 0.0
C4231 C 0.90506 0.98489 0.27382 0.0
C4232 C 0.88154 0.98282 0.26742 0.0
C4233 C 0.86461 0.95979 0.26586 0.0
C4234 C 0.87122 0.93881 0.27104 0.0
C4235 C 0.89394 0.94058 0.27791 0.0
C4236 C 0.89686 0.91566 0.28293 0.0
C4237 C 0.91215 0.90495 0.26544 0.0
C4238 C 0.9065 0.91889 0.30973 0.0
C4239 C 0.87227 0.89926 0.27764 0.0
C4240 C 0.85771 0.91286 0.27064 0.0
C4241 C 0.83432 0.90131 0.26406 0.0
C4242 C 0.82567 0.87565 0.26485 0.0
C4243 C 0.84005 0.86129 0.27249 0.0
C4244 C 0.86382 0.87362 0.27887 0.0
H4245 H 0.75802 0.1062 0.73704 0.0
H4246 H 0.73926 0.11331 0.66334 0.0
H4247 H 0.76153 0.15772 0.67353 0.0
H4248 H 0.75071 0.16026 0.76627 0.0
H4249 H 0.77481 0.16949 0.78977 0.0
H4250 H 0.76273 0.13675 0.77584 0.0
H4251 H 0.80206 0.13264 0.7637 0.0
H4252 H 0.81475 0.16539 0.77775 0.0
H4253 H 0.81743 0.15356 0.74622 0.0
H4254 H 0.77554 0.20243 0.69413 0.0
H4255 H 0.78966 0.24423 0.72194 0.0
H4256 H 0.80181 0.20877 0.78181 0.0
C4257 C 0.75969 0.11674 0.72271 0.0
C4258 C 0.74696 0.10643 0.69943 0.0
C4259 C 0.74894 0.12094 0.6813 0.0
C4260 C 0.76149 0.14618 0.68691 0.0
C4261 C 0.77228 0.15644 0.71061 0.0
C4262 C 0.77227 0.14205 0.72805 0.0
C4263 C 0.78343 0.15837 0.75274 0.0
C4264 C 0.76692 0.15607 0.77228 0.0
C4265 C 0.80575 0.15213 0.76056 0.0
C4266 C 0.78824 0.18416 0.74671 0.0
C4267 C 0.78169 0.1826 0.7223 0.0
C4268 C 0.78171 0.20393 0.71303 0.0
C4269 C 0.78966 0.22755 0.72892 0.0
C4270 C 0.79783 0.22953 0.75357 0.0
C4271 C 0.79653 0.2076 0.76272 0.0
loop_
_geom_bond_atom_site_label_1
_geom_bond_atom_site_label_2
_geom_bond_distance
_geom_bond_site_symmetry_2
_ccdc_geom_bond_type
Zn0 O3 2.031 . S
Zn0 O5 2.049 . S
Zn0 O10 2.067 . S
Zn1 O2 1.962 . S
Zn1 O4 1.986 . S
Zn1 O6 1.996 . S
Zn1 O9 1.943 . S
O2 Zn1 1.962 . S
O2 C7 1.254 . S
O3 Zn0 2.031 . S
O3 C7 1.269 . S
O4 Zn1 1.986 . S
O4 C11 1.262 . S
O5 Zn0 2.049 . S
O5 C13 1.260 . S
O6 Zn1 1.996 . S
O6 C13 1.257 . S
C7 O2 1.254 . S
C7 O3 1.269 . S
C8 O9 1.249 . S
C8 O10 1.270 . S
O9 Zn1 1.943 . S
O9 C8 1.249 . S
O10 Zn0 2.067 . S
O10 C8 1.270 . S
C11 O4 1.262 . S
C11 O12 1.232 . S
O12 C11 1.232 . S
C13 O5 1.260 . S
C13 O6 1.257 . S
Zn14 O17 2.031 1_455 S
Zn14 O19 2.049 . S
Zn14 O24 2.067 . S
Zn15 O16 1.934 1_455 S
Zn15 O18 1.997 . S
Zn15 O20 2.018 . S
Zn15 O23 1.949 1_455 S
O16 Zn15 1.934 1_655 S
O16 C21 1.254 . S
O17 Zn14 2.031 1_655 S
O17 C21 1.269 . S
O18 Zn15 1.997 . S
O18 C25 1.262 . S
O19 Zn14 2.049 . S
O19 C27 1.260 . S
O20 Zn15 2.018 . S
O20 C27 1.257 . S
C21 O16 1.254 . S
C21 O17 1.269 . S
C22 O23 1.249 . S
C22 O24 1.270 1_655 S
O23 Zn15 1.949 1_655 S
O23 C22 1.249 . S
O24 Zn14 2.067 . S
O24 C22 1.270 1_455 S
C25 O18 1.262 . S
C25 O26 1.232 1_455 S
O26 C25 1.232 1_655 S
C27 O19 1.260 . S
C27 O20 1.257 . S
Zn28 O31 2.031 . S
Zn28 O33 2.049 . S
Zn28 O38 2.067 . S
Zn29 O30 1.962 . S
Zn29 O32 1.986 . S
Zn29 O34 1.996 . S
Zn29 O37 1.943 . S
O30 Zn29 1.962 . S
O30 C35 1.254 . S
O31 Zn28 2.031 . S
O31 C35 1.269 . S
O32 Zn29 1.986 . S
O32 C39 1.262 . S
O33 Zn28 2.049 . S
O33 C41 1.260 . S
O34 Zn29 1.996 . S
O34 C41 1.257 . S
C35 O30 1.254 . S
C35 O31 1.269 . S
C36 O37 1.249 . S
C36 O38 1.270 . S
O37 Zn29 1.943 . S
O37 C36 1.249 . S
O38 Zn28 2.067 . S
O38 C36 1.270 . S
C39 O32 1.262 . S
C39 O40 1.232 . S
O40 C39 1.232 . S
C41 O33 1.260 . S
C41 O34 1.257 . S
Zn42 O45 2.031 . S
Zn42 O47 2.049 . S
Zn42 O52 2.067 . S
Zn43 O44 1.962 . S
Zn43 O46 1.986 . S
Zn43 O48 1.996 . S
Zn43 O51 1.943 . S
O44 Zn43 1.962 . S
O44 C49 1.254 . S
O45 Zn42 2.031 . S
O45 C49 1.269 . S
O46 Zn43 1.986 . S
O46 C53 1.262 . S
O47 Zn42 2.049 . S
O47 C55 1.260 . S
O48 Zn43 1.996 . S
O48 C55 1.257 . S
C49 O44 1.254 . S
C49 O45 1.269 . S
C50 O51 1.249 . S
C50 O52 1.270 . S
O51 Zn43 1.943 . S
O51 C50 1.249 . S
O52 Zn42 2.067 . S
O52 C50 1.270 . S
C53 O46 1.262 . S
C53 O54 1.232 . S
O54 C53 1.232 . S
C55 O47 1.260 . S
C55 O48 1.257 . S
Zn56 O59 2.031 . S
Zn56 O61 2.049 . S
Zn56 O66 2.067 . S
Zn57 O58 1.962 . S
Zn57 O60 1.986 . S
Zn57 O62 1.996 . S
Zn57 O65 1.943 . S
O58 Zn57 1.962 . S
O58 C63 1.254 . S
O59 Zn56 2.031 . S
O59 C63 1.269 . S
O60 Zn57 1.986 . S
O60 C67 1.262 . S
O61 Zn56 2.049 . S
O61 C69 1.260 . S
O62 Zn57 1.996 . S
O62 C69 1.257 . S
C63 O58 1.254 . S
C63 O59 1.269 . S
C64 O65 1.249 . S
C64 O66 1.270 . S
O65 Zn57 1.943 . S
O65 C64 1.249 . S
O66 Zn56 2.067 . S
O66 C64 1.270 . S
C67 O60 1.262 . S
C67 O68 1.232 . S
O68 C67 1.232 . S
C69 O61 1.260 . S
C69 O62 1.257 . S
Zn70 O73 2.031 . S
Zn70 O75 2.049 . S
Zn70 O80 2.067 . S
Zn71 O72 1.962 . S
Zn71 O74 1.986 . S
Zn71 O76 1.996 . S
Zn71 O79 1.943 . S
O72 Zn71 1.962 . S
O72 C77 1.254 . S
O73 Zn70 2.031 . S
O73 C77 1.269 . S
O74 Zn71 1.986 . S
O74 C81 1.262 . S
O75 Zn70 2.049 . S
O75 C83 1.260 . S
O76 Zn71 1.996 . S
O76 C83 1.257 . S
C77 O72 1.254 . S
C77 O73 1.269 . S
C78 O79 1.249 . S
C78 O80 1.270 . S
O79 Zn71 1.943 . S
O79 C78 1.249 . S
O80 Zn70 2.067 . S
O80 C78 1.270 . S
C81 O74 1.262 . S
C81 O82 1.232 . S
O82 C81 1.232 . S
C83 O75 1.260 . S
C83 O76 1.257 . S
Zn84 O87 2.031 . S
Zn84 O89 2.049 . S
Zn84 O94 2.067 . S
Zn85 O86 1.962 . S
Zn85 O88 1.986 . S
Zn85 O90 1.996 . S
Zn85 O93 1.943 . S
O86 Zn85 1.962 . S
O86 C91 1.254 . S
O87 Zn84 2.031 . S
O87 C91 1.269 . S
O88 Zn85 1.986 . S
O88 C95 1.262 . S
O89 Zn84 2.049 . S
O89 C97 1.260 . S
O90 Zn85 1.996 . S
O90 C97 1.257 . S
C91 O86 1.254 . S
C91 O87 1.269 . S
C92 O93 1.249 . S
C92 O94 1.270 . S
O93 Zn85 1.943 . S
O93 C92 1.249 . S
O94 Zn84 2.067 . S
O94 C92 1.270 . S
C95 O88 1.262 . S
C95 O96 1.232 . S
O96 C95 1.232 . S
C97 O89 1.260 . S
C97 O90 1.257 . S
Zn98 O101 2.031 1_655 S
Zn98 O103 2.049 . S
Zn98 O108 2.067 . S
Zn99 O100 1.962 . S
Zn99 O102 1.986 . S
Zn99 O104 1.996 . S
Zn99 O107 1.943 . S
O100 Zn99 1.962 . S
O100 C105 1.254 . S
O101 Zn98 2.031 1_455 S
O101 C105 1.269 . S
O102 Zn99 1.986 . S
O102 C109 1.262 . S
O103 Zn98 2.049 . S
O103 C111 1.260 1_655 S
O104 Zn99 1.996 . S
O104 C111 1.257 . S
C105 O100 1.254 . S
C105 O101 1.269 . S
C106 O107 1.249 1_655 S
C106 O108 1.270 . S
O107 Zn99 1.943 . S
O107 C106 1.249 1_455 S
O108 Zn98 2.067 . S
O108 C106 1.270 . S
C109 O102 1.262 . S
C109 O110 1.232 . S
O110 C109 1.232 . S
C111 O103 1.260 1_455 S
C111 O104 1.257 . S
Zn112 O115 2.031 1_565 S
Zn112 O117 2.049 . S
Zn112 O122 2.067 . S
Zn113 O114 1.962 . S
Zn113 O116 1.986 . S
Zn113 O118 1.996 . S
Zn113 O121 1.911 1_545 S
O114 Zn113 1.962 . S
O114 C119 1.254 . S
O115 Zn112 2.031 1_545 S
O115 C119 1.269 . S
O116 Zn113 1.986 . S
O116 C123 1.262 . S
O117 Zn112 2.049 . S
O117 C125 1.260 1_565 S
O118 Zn113 1.996 . S
O118 C125 1.257 . S
C119 O114 1.254 . S
C119 O115 1.269 . S
C120 O121 1.292 . S
C120 O122 1.270 . S
O121 Zn113 1.911 1_565 S
O121 C120 1.292 . S
O122 Zn112 2.067 . S
O122 C120 1.270 . S
C123 O116 1.262 . S
C123 O124 1.232 . S
O124 C123 1.232 . S
C125 O117 1.260 1_545 S
C125 O118 1.257 . S
Zn126 O129 2.031 . S
Zn126 O131 2.049 . S
Zn126 O136 2.067 . S
Zn127 O128 1.962 . S
Zn127 O130 1.986 . S
Zn127 O132 1.996 . S
Zn127 O135 1.943 . S
O128 Zn127 1.962 . S
O128 C133 1.254 . S
O129 Zn126 2.031 . S
O129 C133 1.269 . S
O130 Zn127 1.986 . S
O130 C137 1.262 . S
O131 Zn126 2.049 . S
O131 C139 1.260 . S
O132 Zn127 1.996 . S
O132 C139 1.257 . S
C133 O128 1.254 . S
C133 O129 1.269 . S
C134 O135 1.249 . S
C134 O136 1.270 . S
O135 Zn127 1.943 . S
O135 C134 1.249 . S
O136 Zn126 2.067 . S
O136 C134 1.270 . S
C137 O130 1.262 . S
C137 O138 1.232 . S
O138 C137 1.232 . S
C139 O131 1.260 . S
C139 O132 1.257 . S
Zn140 O143 2.031 . S
Zn140 O145 2.049 . S
Zn140 O150 2.067 . S
Zn141 O142 1.962 . S
Zn141 O144 1.986 . S
Zn141 O146 1.996 . S
Zn141 O149 1.943 1_565 S
O142 Zn141 1.962 . S
O142 C147 1.254 1_565 S
O143 Zn140 2.031 . S
O143 C147 1.269 . S
O144 Zn141 1.986 . S
O144 C151 1.262 . S
O145 Zn140 2.049 . S
O145 C153 1.260 1_545 S
O146 Zn141 1.996 . S
O146 C153 1.257 . S
C147 O142 1.254 1_545 S
C147 O143 1.269 . S
C148 O149 1.249 . S
C148 O150 1.270 . S
O149 Zn141 1.943 1_545 S
O149 C148 1.249 . S
O150 Zn140 2.067 . S
O150 C148 1.270 . S
C151 O144 1.262 . S
C151 O152 1.232 . S
O152 C151 1.232 . S
C153 O145 1.260 1_565 S
C153 O146 1.257 . S
Zn154 O157 2.031 1_554 S
Zn154 O159 2.049 . S
Zn154 O164 2.067 . S
Zn155 O156 1.962 1_554 S
Zn155 O158 1.986 . S
Zn155 O160 1.996 . S
Zn155 O163 1.943 . S
O156 Zn155 1.962 1_556 S
O156 C161 1.254 . S
O157 Zn154 2.031 1_556 S
O157 C161 1.269 . S
O158 Zn155 1.986 . S
O158 C165 1.262 . S
O159 Zn154 2.049 . S
O159 C167 1.260 . S
O160 Zn155 1.996 . S
O160 C167 1.257 . S
C161 O156 1.254 . S
C161 O157 1.269 . S
C162 O163 1.249 . S
C162 O164 1.270 . S
O163 Zn155 1.943 . S
O163 C162 1.249 . S
O164 Zn154 2.067 . S
O164 C162 1.270 . S
C165 O158 1.262 . S
C165 O166 1.232 1_554 S
O166 C165 1.232 1_556 S
C167 O159 1.260 . S
C167 O160 1.257 . S
Zn168 O171 2.031 . S
Zn168 O173 2.049 . S
Zn168 O178 2.067 . S
Zn169 O170 1.962 . S
Zn169 O172 1.986 . S
Zn169 O174 1.996 . S
Zn169 O177 1.943 . S
O170 Zn169 1.962 . S
O170 C175 1.254 1_554 S
O171 Zn168 2.031 . S
O171 C175 1.269 1_554 S
O172 Zn169 1.986 . S
O172 C179 1.262 . S
O173 Zn168 2.049 . S
O173 C181 1.260 . S
O174 Zn169 1.996 . S
O174 C181 1.257 . S
C175 O170 1.254 1_556 S
C175 O171 1.269 1_556 S
C176 O177 1.249 . S
C176 O178 1.270 . S
O177 Zn169 1.943 . S
O177 C176 1.249 . S
O178 Zn168 2.067 . S
O178 C176 1.270 . S
C179 O172 1.262 . S
C179 O180 1.232 . S
O180 C179 1.232 . S
C181 O173 1.260 . S
C181 O174 1.257 . S
Zn182 O185 2.031 . S
Zn182 O187 2.049 . S
Zn182 O192 2.067 . S
Zn183 O184 1.962 . S
Zn183 O186 1.986 . S
Zn183 O188 1.996 . S
Zn183 O191 1.943 . S
O184 Zn183 1.962 . S
O184 C189 1.254 1_554 S
O185 Zn182 2.031 . S
O185 C189 1.269 1_554 S
O186 Zn183 1.986 . S
O186 C193 1.262 . S
O187 Zn182 2.049 . S
O187 C195 1.260 . S
O188 Zn183 1.996 . S
O188 C195 1.257 . S
C189 O184 1.254 1_556 S
C189 O185 1.269 1_556 S
C190 O191 1.249 . S
C190 O192 1.270 . S
O191 Zn183 1.943 . S
O191 C190 1.249 . S
O192 Zn182 2.067 . S
O192 C190 1.270 . S
C193 O186 1.262 . S
C193 O194 1.232 . S
O194 C193 1.232 . S
C195 O187 1.260 . S
C195 O188 1.257 . S
Zn196 O199 2.031 . S
Zn196 O201 2.049 . S
Zn196 O206 2.067 . S
Zn197 O198 1.962 . S
Zn197 O200 1.986 . S
Zn197 O202 1.996 . S
Zn197 O205 1.943 . S
O198 Zn197 1.962 . S
O198 C203 1.254 . S
O199 Zn196 2.031 . S
O199 C203 1.269 . S
O200 Zn197 1.986 . S
O200 C207 1.262 . S
O201 Zn196 2.049 . S
O201 C209 1.260 . S
O202 Zn197 1.996 . S
O202 C209 1.257 . S
C203 O198 1.254 . S
C203 O199 1.269 . S
C204 O205 1.249 . S
C204 O206 1.270 . S
O205 Zn197 1.943 . S
O205 C204 1.249 . S
O206 Zn196 2.067 . S
O206 C204 1.270 . S
C207 O200 1.262 . S
C207 O208 1.232 . S
O208 C207 1.232 . S
C209 O201 1.260 . S
C209 O202 1.257 . S
Zn210 O213 2.031 . S
Zn210 O215 2.049 . S
Zn210 O220 2.067 . S
Zn211 O212 1.962 . S
Zn211 O214 1.986 . S
Zn211 O216 1.996 . S
Zn211 O219 1.943 . S
O212 Zn211 1.962 . S
O212 C217 1.254 . S
O213 Zn210 2.031 . S
O213 C217 1.269 . S
O214 Zn211 1.986 . S
O214 C221 1.262 . S
O215 Zn210 2.049 . S
O215 C223 1.260 . S
O216 Zn211 1.996 . S
O216 C223 1.257 . S
C217 O212 1.254 . S
C217 O213 1.269 . S
C218 O219 1.249 . S
C218 O220 1.270 . S
O219 Zn211 1.943 . S
O219 C218 1.249 . S
O220 Zn210 2.067 . S
O220 C218 1.270 . S
C221 O214 1.262 . S
C221 O222 1.232 . S
O222 C221 1.232 . S
C223 O215 1.260 . S
C223 O216 1.257 . S
Zn224 O227 2.031 . S
Zn224 O229 2.049 . S
Zn224 O234 2.067 . S
Zn225 O226 1.962 . S
Zn225 O228 1.986 . S
Zn225 O230 1.996 . S
Zn225 O233 1.943 . S
O226 Zn225 1.962 . S
O226 C231 1.254 . S
O227 Zn224 2.031 . S
O227 C231 1.269 . S
O228 Zn225 1.986 . S
O228 C235 1.262 . S
O229 Zn224 2.049 . S
O229 C237 1.260 . S
O230 Zn225 1.996 . S
O230 C237 1.257 . S
C231 O226 1.254 . S
C231 O227 1.269 . S
C232 O233 1.249 . S
C232 O234 1.270 . S
O233 Zn225 1.943 . S
O233 C232 1.249 . S
O234 Zn224 2.067 . S
O234 C232 1.270 . S
C235 O228 1.262 . S
C235 O236 1.232 . S
O236 C235 1.232 . S
C237 O229 1.260 . S
C237 O230 1.257 . S
Zn238 O241 2.031 . S
Zn238 O243 2.049 . S
Zn238 O248 2.067 . S
Zn239 O240 1.962 . S
Zn239 O242 1.986 . S
Zn239 O244 1.996 . S
Zn239 O247 1.943 . S
O240 Zn239 1.962 . S
O240 C245 1.254 . S
O241 Zn238 2.031 . S
O241 C245 1.269 . S
O242 Zn239 1.986 . S
O242 C249 1.262 . S
O243 Zn238 2.049 . S
O243 C251 1.260 . S
O244 Zn239 1.996 . S
O244 C251 1.257 . S
C245 O240 1.254 . S
C245 O241 1.269 . S
C246 O247 1.249 . S
C246 O248 1.270 . S
O247 Zn239 1.943 . S
O247 C246 1.249 . S
O248 Zn238 2.067 . S
O248 C246 1.270 . S
C249 O242 1.262 . S
C249 O250 1.232 . S
O250 C249 1.232 . S
C251 O243 1.260 . S
C251 O244 1.257 . S
Zn252 O255 2.031 . S
Zn252 O257 2.049 . S
Zn252 O262 2.067 . S
Zn253 O254 1.962 . S
Zn253 O256 1.986 . S
Zn253 O258 1.996 . S
Zn253 O261 1.943 . S
O254 Zn253 1.962 . S
O254 C259 1.254 . S
O255 Zn252 2.031 . S
O255 C259 1.269 . S
O256 Zn253 1.986 . S
O256 C263 1.262 . S
O257 Zn252 2.049 . S
O257 C265 1.260 . S
O258 Zn253 1.996 . S
O258 C265 1.257 . S
C259 O254 1.254 . S
C259 O255 1.269 . S
C260 O261 1.249 . S
C260 O262 1.270 . S
O261 Zn253 1.943 . S
O261 C260 1.249 . S
O262 Zn252 2.067 . S
O262 C260 1.270 . S
C263 O256 1.262 . S
C263 O264 1.232 . S
O264 C263 1.232 . S
C265 O257 1.260 . S
C265 O258 1.257 . S
Zn266 O269 2.031 . S
Zn266 O271 2.049 . S
Zn266 O276 2.067 . S
Zn267 O268 1.962 . S
Zn267 O270 1.986 . S
Zn267 O272 1.996 . S
Zn267 O275 1.943 . S
O268 Zn267 1.962 . S
O268 C273 1.254 . S
O269 Zn266 2.031 . S
O269 C273 1.269 . S
O270 Zn267 1.986 . S
O270 C277 1.262 . S
O271 Zn266 2.049 . S
O271 C279 1.260 . S
O272 Zn267 1.996 . S
O272 C279 1.257 . S
C273 O268 1.254 . S
C273 O269 1.269 . S
C274 O275 1.249 . S
C274 O276 1.270 . S
O275 Zn267 1.943 . S
O275 C274 1.249 . S
O276 Zn266 2.067 . S
O276 C274 1.270 . S
C277 O270 1.262 . S
C277 O278 1.232 . S
O278 C277 1.232 . S
C279 O271 1.260 . S
C279 O272 1.257 . S
Zn280 O283 2.031 1_554 S
Zn280 O285 2.049 . S
Zn280 O290 2.067 . S
Zn281 O282 1.989 . S
Zn281 O284 1.972 1_556 S
Zn281 O286 1.976 1_556 S
Zn281 O289 1.940 . S
O282 Zn281 1.989 . S
O282 C287 1.254 . S
O283 Zn280 2.031 1_556 S
O283 C287 1.269 . S
O284 Zn281 1.972 1_554 S
O284 C291 1.262 1_554 S
O285 Zn280 2.049 . S
O285 C293 1.260 . S
O286 Zn281 1.976 1_554 S
O286 C293 1.257 . S
C287 O282 1.254 . S
C287 O283 1.269 . S
C288 O289 1.249 . S
C288 O290 1.270 1_556 S
O289 Zn281 1.940 . S
O289 C288 1.249 . S
O290 Zn280 2.067 . S
O290 C288 1.270 1_554 S
C291 O284 1.262 1_556 S
C291 O292 1.232 . S
O292 C291 1.232 . S
C293 O285 1.260 . S
C293 O286 1.257 . S
Zn294 O297 2.031 . S
Zn294 O299 2.049 . S
Zn294 O304 2.067 . S
Zn295 O296 1.962 . S
Zn295 O298 1.986 . S
Zn295 O300 1.996 . S
Zn295 O303 1.943 . S
O296 Zn295 1.962 . S
O296 C301 1.254 . S
O297 Zn294 2.031 . S
O297 C301 1.269 . S
O298 Zn295 1.986 . S
O298 C305 1.262 . S
O299 Zn294 2.049 . S
O299 C307 1.260 . S
O300 Zn295 1.996 . S
O300 C307 1.257 . S
C301 O296 1.254 . S
C301 O297 1.269 . S
C302 O303 1.249 . S
C302 O304 1.270 . S
O303 Zn295 1.943 . S
O303 C302 1.249 . S
O304 Zn294 2.067 . S
O304 C302 1.270 . S
C305 O298 1.262 . S
C305 O306 1.232 . S
O306 C305 1.232 . S
C307 O299 1.260 . S
C307 O300 1.257 . S
Zn308 O311 2.031 . S
Zn308 O313 2.049 . S
Zn308 O318 2.067 . S
Zn309 O310 1.962 . S
Zn309 O312 1.986 . S
Zn309 O314 1.996 . S
Zn309 O317 1.943 . S
O310 Zn309 1.962 . S
O310 C315 1.254 . S
O311 Zn308 2.031 . S
O311 C315 1.269 . S
O312 Zn309 1.986 . S
O312 C319 1.262 . S
O313 Zn308 2.049 . S
O313 C321 1.260 . S
O314 Zn309 1.996 . S
O314 C321 1.257 . S
C315 O310 1.254 . S
C315 O311 1.269 . S
C316 O317 1.249 . S
C316 O318 1.270 . S
O317 Zn309 1.943 . S
O317 C316 1.249 . S
O318 Zn308 2.067 . S
O318 C316 1.270 . S
C319 O312 1.262 . S
C319 O320 1.232 . S
O320 C319 1.232 . S
C321 O313 1.260 . S
C321 O314 1.257 . S
Zn322 O325 2.031 . S
Zn322 O327 2.049 . S
Zn322 O332 2.067 . S
Zn323 O324 1.962 . S
Zn323 O326 1.986 . S
Zn323 O328 1.996 . S
Zn323 O331 1.943 . S
O324 Zn323 1.962 . S
O324 C329 1.254 . S
O325 Zn322 2.031 . S
O325 C329 1.269 . S
O326 Zn323 1.986 . S
O326 C333 1.262 . S
O327 Zn322 2.049 . S
O327 C335 1.260 . S
O328 Zn323 1.996 . S
O328 C335 1.257 . S
C329 O324 1.254 . S
C329 O325 1.269 . S
C330 O331 1.249 . S
C330 O332 1.270 . S
O331 Zn323 1.943 . S
O331 C330 1.249 . S
O332 Zn322 2.067 . S
O332 C330 1.270 . S
C333 O326 1.262 . S
C333 O334 1.232 . S
O334 C333 1.232 . S
C335 O327 1.260 . S
C335 O328 1.257 . S
Eu336 N367 2.657 1_545 S
Eu336 N374 2.609 1_544 S
Eu336 O380 2.558 1_454 S
Eu336 O381 2.612 . S
Eu336 O383 2.339 . S
Eu336 O384 2.563 . S
Eu336 O385 2.419 1_455 S
Eu336 O387 2.380 . S
Eu336 O388 2.432 1_554 S
Eu336 C400 2.848 1_454 S
C337 C340 1.429 . S
C337 C341 1.411 . S
C337 N344 1.377 . S
C338 C340 1.420 . S
C338 C342 1.423 . S
C338 C350 1.392 . S
C339 C341 1.420 . S
C339 C342 1.351 . S
C339 H362 0.931 . S
C340 C337 1.429 . S
C340 C338 1.420 . S
C340 N348 1.362 . S
C341 C337 1.411 . S
C341 C339 1.420 . S
C341 C346 1.395 . S
C342 C338 1.423 . S
C342 C339 1.351 . S
C342 H354 0.930 . S
C343 C345 1.400 . S
C343 C346 1.386 . S
C343 H355 0.930 . S
N344 C337 1.377 . S
N344 C345 1.321 . S
N344 Eu347 2.609 . S
C345 C343 1.400 . S
C345 N344 1.321 . S
C345 H352 0.930 . S
C346 C341 1.395 . S
C346 C343 1.386 . S
C346 H365 0.930 . S
Eu347 N344 2.609 . S
Eu347 N348 2.657 . S
Eu347 O381 2.380 . S
Eu347 O382 2.432 . S
Eu347 O386 2.558 . S
Eu347 O387 2.612 . S
Eu347 O389 2.339 1_554 S
Eu347 O390 2.563 . S
Eu347 O391 2.419 . S
Eu347 C411 2.848 . S
N348 C340 1.362 . S
N348 Eu347 2.657 . S
N348 C349 1.334 1_554 S
C349 N348 1.334 1_556 S
C349 C351 1.413 . S
C349 H356 0.929 . S
C350 C338 1.392 . S
C350 C351 1.367 1_554 S
C350 H358 0.930 1_554 S
C351 C349 1.413 . S
C351 C350 1.367 1_556 S
C351 H353 0.930 . S
H352 C345 0.930 . S
H353 C351 0.930 . S
H354 C342 0.930 . S
H355 C343 0.930 . S
H356 C349 0.929 . S
H357 C371 0.930 . S
H358 C350 0.930 1_556 S
H359 C377 0.930 . S
H360 C368 0.921 1_545 S
H361 C375 0.930 . S
H362 C339 0.931 . S
H363 C369 0.930 . S
H364 C402 0.929 . S
H365 C346 0.930 . S
H366 C401 0.931 . S
N367 Eu336 2.657 1_565 S
N367 C368 1.334 . S
N367 C372 1.362 . S
C368 H360 0.921 1_565 S
C368 N367 1.334 . S
C368 C371 1.413 . S
C369 H363 0.930 . S
C369 C370 1.392 . S
C369 C371 1.367 1_655 S
C370 C369 1.392 . S
C370 C372 1.420 1_655 S
C370 C402 1.422 . S
C371 H357 0.930 . S
C371 C368 1.413 . S
C371 C369 1.367 1_455 S
C372 N367 1.362 . S
C372 C370 1.420 1_455 S
C372 C376 1.429 1_554 S
H373 C378 0.930 . S
N374 Eu336 2.609 1_566 S
N374 C376 1.377 . S
N374 C377 1.321 . S
C375 H361 0.930 . S
C375 C377 1.400 1_655 S
C375 C378 1.385 . S
C376 C372 1.429 1_556 S
C376 N374 1.377 . S
C376 C379 1.411 1_455 S
C377 H359 0.930 . S
C377 N374 1.321 . S
C377 C375 1.400 1_455 S
C378 H373 0.930 . S
C378 C375 1.385 . S
C378 C379 1.395 . S
C379 C376 1.411 1_655 S
C379 C378 1.395 . S
C379 C401 1.420 . S
O380 Eu336 2.558 1_656 S
O380 C400 1.257 . S
O381 Eu336 2.612 . S
O381 Eu347 2.380 . S
O381 C392 1.276 . S
O382 Eu347 2.432 . S
O382 C399 1.264 . S
O383 Eu336 2.339 . S
O383 C399 1.254 . S
O384 Eu336 2.563 . S
O384 C392 1.235 . S
O385 Eu336 2.419 1_655 S
O385 C400 1.249 1_554 S
O386 Eu347 2.558 . S
O386 C411 1.257 . S
O387 Eu336 2.380 . S
O387 Eu347 2.612 . S
O387 C403 1.276 1_545 S
O388 Eu336 2.432 1_556 S
O388 C410 1.264 . S
O389 Eu347 2.339 1_556 S
O389 C410 1.254 . S
O390 Eu347 2.563 . S
O390 C403 1.235 1_545 S
O391 Eu347 2.419 . S
O391 C411 1.249 . S
C392 O381 1.276 . S
C392 O384 1.235 . S
C393 C395 1.393 1_556 S
C393 C397 1.395 . S
C393 C400 1.492 . S
C394 C395 1.393 1_556 S
C394 C396 1.385 . S
C395 C393 1.393 1_554 S
C395 C394 1.393 1_554 S
C395 H412 0.930 . S
C396 C394 1.385 . S
C396 C398 1.395 . S
C396 H413 0.930 . S
C397 C393 1.395 . S
C397 C398 1.379 . S
C397 H414 0.930 . S
C398 C396 1.395 . S
C398 C397 1.379 . S
C398 H415 0.930 . S
C399 O382 1.264 . S
C399 O383 1.254 . S
C400 Eu336 2.848 1_656 S
C400 O380 1.257 . S
C400 O385 1.249 1_556 S
C400 C393 1.492 . S
C401 H366 0.931 . S
C401 C379 1.420 . S
C401 C402 1.352 1_556 S
C402 H364 0.929 . S
C402 C370 1.422 . S
C402 C401 1.352 1_554 S
C403 O387 1.276 1_565 S
C403 O390 1.235 1_565 S
C404 C405 1.393 . S
C404 C408 1.395 . S
C404 C411 1.492 . S
C405 C404 1.393 . S
C405 C406 1.392 . S
C405 H416 0.930 . S
C406 C405 1.392 . S
C406 C407 1.386 . S
C407 C406 1.386 . S
C407 C409 1.395 . S
C407 H417 0.930 . S
C408 C404 1.395 . S
C408 C409 1.379 . S
C408 H418 0.930 . S
C409 C407 1.395 . S
C409 C408 1.379 . S
C409 H419 0.930 . S
C410 O388 1.264 . S
C410 O389 1.254 . S
C411 Eu347 2.848 . S
C411 O386 1.257 . S
C411 O391 1.249 . S
C411 C404 1.492 . S
H412 C395 0.930 . S
H413 C396 0.930 . S
H414 C397 0.930 . S
H415 C398 0.930 . S
H416 C405 0.930 . S
H417 C407 0.930 . S
H418 C408 0.930 . S
H419 C409 0.930 . S
Eu420 N451 2.657 . S
Eu420 N458 2.609 . S
Eu420 O464 2.558 . S
Eu420 O465 2.612 . S
Eu420 O467 2.339 . S
Eu420 O468 2.563 . S
Eu420 O469 2.419 . S
Eu420 O471 2.380 . S
Eu420 O472 2.432 . S
Eu420 C484 2.848 . S
C421 C424 1.429 . S
C421 C425 1.411 . S
C421 N428 1.377 . S
C422 C424 1.420 . S
C422 C426 1.423 . S
C422 C434 1.392 . S
C423 C425 1.420 . S
C423 C426 1.351 . S
C423 H446 0.931 . S
C424 C421 1.429 . S
C424 C422 1.420 . S
C424 N432 1.362 . S
C425 C421 1.411 . S
C425 C423 1.420 . S
C425 C430 1.395 . S
C426 C422 1.423 . S
C426 C423 1.351 . S
C426 H438 0.930 . S
C427 C429 1.400 . S
C427 C430 1.386 . S
C427 H439 0.930 . S
N428 C421 1.377 . S
N428 C429 1.321 . S
N428 Eu431 2.609 . S
C429 C427 1.400 . S
C429 N428 1.321 . S
C429 H436 0.930 . S
C430 C425 1.395 . S
C430 C427 1.386 . S
C430 H449 0.930 . S
Eu431 N428 2.609 . S
Eu431 N432 2.657 . S
Eu431 O465 2.380 . S
Eu431 O466 2.432 . S
Eu431 O470 2.558 . S
Eu431 O471 2.612 . S
Eu431 O473 2.339 . S
Eu431 O474 2.563 . S
Eu431 O475 2.419 . S
Eu431 C495 2.848 . S
N432 C424 1.362 . S
N432 Eu431 2.657 . S
N432 C433 1.334 . S
C433 N432 1.334 . S
C433 C435 1.413 . S
C433 H440 0.929 . S
C434 C422 1.392 . S
C434 C435 1.367 . S
C434 H442 0.930 . S
C435 C433 1.413 . S
C435 C434 1.367 . S
C435 H437 0.930 . S
H436 C429 0.930 . S
H437 C435 0.930 . S
H438 C426 0.930 . S
H439 C427 0.930 . S
H440 C433 0.929 . S
H441 C455 0.930 . S
H442 C434 0.930 . S
H443 C461 0.930 . S
H444 C452 0.929 . S
H445 C459 0.930 . S
H446 C423 0.931 . S
H447 C453 0.930 . S
H448 C486 0.930 . S
H449 C430 0.930 . S
H450 C485 0.931 . S
N451 Eu420 2.657 . S
N451 C452 1.334 . S
N451 C456 1.362 . S
C452 H444 0.929 . S
C452 N451 1.334 . S
C452 C455 1.413 . S
C453 H447 0.930 . S
C453 C454 1.392 . S
C453 C455 1.367 . S
C454 C453 1.392 . S
C454 C456 1.420 . S
C454 C486 1.423 . S
C455 H441 0.930 . S
C455 C452 1.413 . S
C455 C453 1.367 . S
C456 N451 1.362 . S
C456 C454 1.420 . S
C456 C460 1.429 . S
H457 C462 0.930 . S
N458 Eu420 2.609 . S
N458 C460 1.377 . S
N458 C461 1.321 . S
C459 H445 0.930 . S
C459 C461 1.400 . S
C459 C462 1.386 . S
C460 C456 1.429 . S
C460 N458 1.377 . S
C460 C463 1.411 . S
C461 H443 0.930 . S
C461 N458 1.321 . S
C461 C459 1.400 . S
C462 H457 0.930 . S
C462 C459 1.386 . S
C462 C463 1.395 . S
C463 C460 1.411 . S
C463 C462 1.395 . S
C463 C485 1.420 . S
O464 Eu420 2.558 . S
O464 C484 1.257 . S
O465 Eu420 2.612 . S
O465 Eu431 2.380 . S
O465 C476 1.276 . S
O466 Eu431 2.432 . S
O466 C483 1.264 . S
O467 Eu420 2.339 . S
O467 C483 1.254 . S
O468 Eu420 2.563 . S
O468 C476 1.235 . S
O469 Eu420 2.419 . S
O469 C484 1.249 . S
O470 Eu431 2.558 . S
O470 C495 1.257 . S
O471 Eu420 2.380 . S
O471 Eu431 2.612 . S
O471 C487 1.276 . S
O472 Eu420 2.432 . S
O472 C494 1.264 . S
O473 Eu431 2.339 . S
O473 C494 1.254 . S
O474 Eu431 2.563 . S
O474 C487 1.235 . S
O475 Eu431 2.419 . S
O475 C495 1.249 . S
C476 O465 1.276 . S
C476 O468 1.235 . S
C477 C479 1.393 . S
C477 C481 1.395 . S
C477 C484 1.492 . S
C478 C479 1.392 . S
C478 C480 1.386 . S
C479 C477 1.393 . S
C479 C478 1.392 . S
C479 H496 0.930 . S
C480 C478 1.386 . S
C480 C482 1.395 . S
C480 H497 0.930 . S
C481 C477 1.395 . S
C481 C482 1.379 . S
C481 H498 0.930 . S
C482 C480 1.395 . S
C482 C481 1.379 . S
C482 H499 0.930 . S
C483 O466 1.264 . S
C483 O467 1.254 . S
C484 Eu420 2.848 . S
C484 O464 1.257 . S
C484 O469 1.249 . S
C484 C477 1.492 . S
C485 H450 0.931 . S
C485 C463 1.420 . S
C485 C486 1.351 . S
C486 H448 0.930 . S
C486 C454 1.423 . S
C486 C485 1.351 . S
C487 O471 1.276 . S
C487 O474 1.235 . S
C488 C489 1.393 . S
C488 C492 1.395 . S
C488 C495 1.492 . S
C489 C488 1.393 . S
C489 C490 1.392 . S
C489 H500 0.930 . S
C490 C489 1.392 . S
C490 C491 1.386 . S
C491 C490 1.386 . S
C491 C493 1.395 . S
C491 H501 0.930 . S
C492 C488 1.395 . S
C492 C493 1.379 . S
C492 H502 0.930 . S
C493 C491 1.395 . S
C493 C492 1.379 . S
C493 H503 0.930 . S
C494 O472 1.264 . S
C494 O473 1.254 . S
C495 Eu431 2.848 . S
C495 O470 1.257 . S
C495 O475 1.249 . S
C495 C488 1.492 . S
H496 C479 0.930 . S
H497 C480 0.930 . S
H498 C481 0.930 . S
H499 C482 0.930 . S
H500 C489 0.930 . S
H501 C491 0.930 . S
H502 C492 0.930 . S
H503 C493 0.930 . S
Eu504 N535 2.657 . S
Eu504 N542 2.609 . S
Eu504 O548 2.558 . S
Eu504 O549 2.612 . S
Eu504 O551 2.339 . S
Eu504 O552 2.563 1_545 S
Eu504 O553 2.419 . S
Eu504 O555 2.380 . S
Eu504 O556 2.432 . S
Eu504 C568 2.848 . S
C505 C508 1.429 . S
C505 C509 1.411 . S
C505 N512 1.377 1_565 S
C506 C508 1.420 . S
C506 C510 1.423 . S
C506 C518 1.392 . S
C507 C509 1.420 . S
C507 C510 1.351 . S
C507 H530 0.931 . S
C508 C505 1.429 . S
C508 C506 1.420 . S
C508 N516 1.362 . S
C509 C505 1.411 . S
C509 C507 1.420 . S
C509 C514 1.395 . S
C510 C506 1.423 . S
C510 C507 1.351 . S
C510 H522 0.930 . S
C511 C513 1.400 1_565 S
C511 C514 1.386 . S
C511 H523 0.930 1_565 S
N512 C505 1.377 1_545 S
N512 C513 1.321 . S
N512 Eu515 2.609 . S
C513 C511 1.400 1_545 S
C513 N512 1.321 . S
C513 H520 0.930 . S
C514 C509 1.395 . S
C514 C511 1.386 . S
C514 H533 0.930 . S
Eu515 N512 2.609 . S
Eu515 N516 2.657 1_545 S
Eu515 O549 2.380 . S
Eu515 O550 2.432 . S
Eu515 O554 2.558 . S
Eu515 O555 2.612 . S
Eu515 O557 2.339 . S
Eu515 O558 2.563 . S
Eu515 O559 2.419 . S
Eu515 C579 2.848 . S
N516 C508 1.362 . S
N516 Eu515 2.657 1_565 S
N516 C517 1.334 . S
C517 N516 1.334 . S
C517 C519 1.413 . S
C517 H524 0.929 . S
C518 C506 1.392 . S
C518 C519 1.367 . S
C518 H526 0.930 . S
C519 C517 1.413 . S
C519 C518 1.367 . S
C519 H521 0.930 . S
H520 C513 0.930 . S
H521 C519 0.930 . S
H522 C510 0.930 . S
H523 C511 0.930 1_545 S
H524 C517 0.929 . S
H525 C539 0.930 . S
H526 C518 0.930 . S
H527 C545 0.930 . S
H528 C536 0.929 . S
H529 C543 0.930 . S
H530 C507 0.931 . S
H531 C537 0.930 . S
H532 C570 0.930 . S
H533 C514 0.930 . S
H534 C569 0.931 . S
N535 Eu504 2.657 . S
N535 C536 1.334 . S
N535 C540 1.362 . S
C536 H528 0.929 . S
C536 N535 1.334 . S
C536 C539 1.413 . S
C537 H531 0.930 . S
C537 C538 1.392 . S
C537 C539 1.367 . S
C538 C537 1.392 . S
C538 C540 1.420 . S
C538 C570 1.423 . S
C539 H525 0.930 . S
C539 C536 1.413 . S
C539 C537 1.367 . S
C540 N535 1.362 . S
C540 C538 1.420 . S
C540 C544 1.429 . S
H541 C546 0.930 . S
N542 Eu504 2.609 . S
N542 C544 1.377 . S
N542 C545 1.321 . S
C543 H529 0.930 . S
C543 C545 1.400 . S
C543 C546 1.386 . S
C544 C540 1.429 . S
C544 N542 1.377 . S
C544 C547 1.411 . S
C545 H527 0.930 . S
C545 N542 1.321 . S
C545 C543 1.400 . S
C546 H541 0.930 . S
C546 C543 1.386 . S
C546 C547 1.395 . S
C547 C544 1.411 . S
C547 C546 1.395 . S
C547 C569 1.420 . S
O548 Eu504 2.558 . S
O548 C568 1.257 . S
O549 Eu504 2.612 . S
O549 Eu515 2.380 . S
O549 C560 1.276 1_545 S
O550 Eu515 2.432 . S
O550 C567 1.264 . S
O551 Eu504 2.339 . S
O551 C567 1.254 . S
O552 Eu504 2.563 1_565 S
O552 C560 1.235 . S
O553 Eu504 2.419 . S
O553 C568 1.249 . S
O554 Eu515 2.558 . S
O554 C579 1.257 . S
O555 Eu504 2.380 . S
O555 Eu515 2.612 . S
O555 C571 1.276 . S
O556 Eu504 2.432 . S
O556 C578 1.264 . S
O557 Eu515 2.339 . S
O557 C578 1.254 . S
O558 Eu515 2.563 . S
O558 C571 1.235 . S
O559 Eu515 2.419 . S
O559 C579 1.249 . S
C560 O549 1.276 1_565 S
C560 O552 1.235 . S
C561 C563 1.393 1_545 S
C561 C565 1.395 . S
C561 C568 1.492 . S
C562 C563 1.392 . S
C562 C564 1.386 . S
C563 C561 1.393 1_565 S
C563 C562 1.392 . S
C563 H580 0.930 . S
C564 C562 1.386 . S
C564 C566 1.395 . S
C564 H581 0.930 . S
C565 C561 1.395 . S
C565 C566 1.379 1_545 S
C565 H582 0.930 . S
C566 C564 1.395 . S
C566 C565 1.379 1_565 S
C566 H583 0.930 . S
C567 O550 1.264 . S
C567 O551 1.254 . S
C568 Eu504 2.848 . S
C568 O548 1.257 . S
C568 O553 1.249 . S
C568 C561 1.492 . S
C569 H534 0.931 . S
C569 C547 1.420 . S
C569 C570 1.351 . S
C570 H532 0.930 . S
C570 C538 1.423 . S
C570 C569 1.351 . S
C571 O555 1.276 . S
C571 O558 1.235 . S
C572 C573 1.393 . S
C572 C576 1.395 . S
C572 C579 1.492 . S
C573 C572 1.393 . S
C573 C574 1.392 . S
C573 H584 0.930 . S
C574 C573 1.392 . S
C574 C575 1.386 . S
C575 C574 1.386 . S
C575 C577 1.395 . S
C575 H585 0.930 . S
C576 C572 1.395 . S
C576 C577 1.379 . S
C576 H586 0.930 . S
C577 C575 1.395 . S
C577 C576 1.379 . S
C577 H587 0.930 . S
C578 O556 1.264 . S
C578 O557 1.254 . S
C579 Eu515 2.848 . S
C579 O554 1.257 . S
C579 O559 1.249 . S
C579 C572 1.492 . S
H580 C563 0.930 . S
H581 C564 0.930 . S
H582 C565 0.930 . S
H583 C566 0.930 . S
H584 C573 0.930 . S
H585 C575 0.930 . S
H586 C576 0.930 . S
H587 C577 0.930 . S
Eu588 N619 2.657 . S
Eu588 N626 2.609 . S
Eu588 O632 2.558 . S
Eu588 O633 2.612 . S
Eu588 O635 2.339 . S
Eu588 O636 2.563 . S
Eu588 O637 2.419 . S
Eu588 O639 2.380 . S
Eu588 O640 2.432 . S
Eu588 C652 2.848 . S
C589 C592 1.429 . S
C589 C593 1.411 . S
C589 N596 1.377 . S
C590 C592 1.420 . S
C590 C594 1.423 . S
C590 C602 1.392 . S
C591 C593 1.420 . S
C591 C594 1.351 . S
C591 H614 0.931 . S
C592 C589 1.429 . S
C592 C590 1.420 . S
C592 N600 1.362 . S
C593 C589 1.411 . S
C593 C591 1.420 . S
C593 C598 1.395 . S
C594 C590 1.423 . S
C594 C591 1.351 . S
C594 H606 0.930 . S
C595 C597 1.400 . S
C595 C598 1.386 . S
C595 H607 0.930 . S
N596 C589 1.377 . S
N596 C597 1.321 . S
N596 Eu599 2.609 . S
C597 C595 1.400 . S
C597 N596 1.321 . S
C597 H604 0.930 . S
C598 C593 1.395 . S
C598 C595 1.386 . S
C598 H617 0.930 . S
Eu599 N596 2.609 . S
Eu599 N600 2.657 . S
Eu599 O633 2.380 . S
Eu599 O634 2.432 . S
Eu599 O638 2.558 . S
Eu599 O639 2.612 . S
Eu599 O641 2.339 . S
Eu599 O642 2.563 . S
Eu599 O643 2.419 . S
Eu599 C663 2.848 . S
N600 C592 1.362 . S
N600 Eu599 2.657 . S
N600 C601 1.334 . S
C601 N600 1.334 . S
C601 C603 1.413 . S
C601 H608 0.929 . S
C602 C590 1.392 . S
C602 C603 1.367 . S
C602 H610 0.930 . S
C603 C601 1.413 . S
C603 C602 1.367 . S
C603 H605 0.930 . S
H604 C597 0.930 . S
H605 C603 0.930 . S
H606 C594 0.930 . S
H607 C595 0.930 . S
H608 C601 0.929 . S
H609 C623 0.930 . S
H610 C602 0.930 . S
H611 C629 0.930 . S
H612 C620 0.929 . S
H613 C627 0.930 . S
H614 C591 0.931 . S
H615 C621 0.930 . S
H616 C654 0.930 . S
H617 C598 0.930 . S
H618 C653 0.931 . S
N619 Eu588 2.657 . S
N619 C620 1.334 . S
N619 C624 1.362 . S
C620 H612 0.929 . S
C620 N619 1.334 . S
C620 C623 1.413 . S
C621 H615 0.930 . S
C621 C622 1.392 . S
C621 C623 1.367 . S
C622 C621 1.392 . S
C622 C624 1.420 . S
C622 C654 1.423 . S
C623 H609 0.930 . S
C623 C620 1.413 . S
C623 C621 1.367 . S
C624 N619 1.362 . S
C624 C622 1.420 . S
C624 C628 1.429 . S
H625 C630 0.930 . S
N626 Eu588 2.609 . S
N626 C628 1.377 . S
N626 C629 1.321 . S
C627 H613 0.930 . S
C627 C629 1.400 . S
C627 C630 1.386 . S
C628 C624 1.429 . S
C628 N626 1.377 . S
C628 C631 1.411 . S
C629 H611 0.930 . S
C629 N626 1.321 . S
C629 C627 1.400 . S
C630 H625 0.930 . S
C630 C627 1.386 . S
C630 C631 1.395 . S
C631 C628 1.411 . S
C631 C630 1.395 . S
C631 C653 1.420 . S
O632 Eu588 2.558 . S
O632 C652 1.257 . S
O633 Eu588 2.612 . S
O633 Eu599 2.380 . S
O633 C644 1.276 . S
O634 Eu599 2.432 . S
O634 C651 1.264 . S
O635 Eu588 2.339 . S
O635 C651 1.254 . S
O636 Eu588 2.563 . S
O636 C644 1.235 . S
O637 Eu588 2.419 . S
O637 C652 1.249 . S
O638 Eu599 2.558 . S
O638 C663 1.257 . S
O639 Eu588 2.380 . S
O639 Eu599 2.612 . S
O639 C655 1.276 . S
O640 Eu588 2.432 . S
O640 C662 1.264 . S
O641 Eu599 2.339 . S
O641 C662 1.254 . S
O642 Eu599 2.563 . S
O642 C655 1.235 . S
O643 Eu599 2.419 . S
O643 C663 1.249 . S
C644 O633 1.276 . S
C644 O636 1.235 . S
C645 C647 1.393 . S
C645 C649 1.395 . S
C645 C652 1.492 . S
C646 C647 1.392 . S
C646 C648 1.386 . S
C647 C645 1.393 . S
C647 C646 1.392 . S
C647 H664 0.930 . S
C648 C646 1.386 . S
C648 C650 1.395 . S
C648 H665 0.930 . S
C649 C645 1.395 . S
C649 C650 1.379 . S
C649 H666 0.930 . S
C650 C648 1.395 . S
C650 C649 1.379 . S
C650 H667 0.930 . S
C651 O634 1.264 . S
C651 O635 1.254 . S
C652 Eu588 2.848 . S
C652 O632 1.257 . S
C652 O637 1.249 . S
C652 C645 1.492 . S
C653 H618 0.931 . S
C653 C631 1.420 . S
C653 C654 1.351 . S
C654 H616 0.930 . S
C654 C622 1.423 . S
C654 C653 1.351 . S
C655 O639 1.276 . S
C655 O642 1.235 . S
C656 C657 1.393 . S
C656 C660 1.395 . S
C656 C663 1.492 . S
C657 C656 1.393 . S
C657 C658 1.392 . S
C657 H668 0.930 . S
C658 C657 1.392 . S
C658 C659 1.386 . S
C659 C658 1.386 . S
C659 C661 1.395 . S
C659 H669 0.930 . S
C660 C656 1.395 . S
C660 C661 1.379 . S
C660 H670 0.930 . S
C661 C659 1.395 . S
C661 C660 1.379 . S
C661 H671 0.930 . S
C662 O640 1.264 . S
C662 O641 1.254 . S
C663 Eu599 2.848 . S
C663 O638 1.257 . S
C663 O643 1.249 . S
C663 C656 1.492 . S
H664 C647 0.930 . S
H665 C648 0.930 . S
H666 C649 0.930 . S
H667 C650 0.930 . S
H668 C657 0.930 . S
H669 C659 0.930 . S
H670 C660 0.930 . S
H671 C661 0.930 . S
Eu672 N703 2.657 . S
Eu672 N710 2.609 . S
Eu672 O716 2.558 . S
Eu672 O717 2.612 . S
Eu672 O719 2.339 . S
Eu672 O720 2.563 . S
Eu672 O721 2.419 . S
Eu672 O723 2.380 . S
Eu672 O724 2.432 . S
Eu672 C736 2.848 . S
C673 C676 1.429 . S
C673 C677 1.411 . S
C673 N680 1.377 . S
C674 C676 1.420 . S
C674 C678 1.423 . S
C674 C686 1.392 . S
C675 C677 1.420 . S
C675 C678 1.351 . S
C675 H698 0.931 . S
C676 C673 1.429 . S
C676 C674 1.420 . S
C676 N684 1.362 . S
C677 C673 1.411 . S
C677 C675 1.420 . S
C677 C682 1.395 . S
C678 C674 1.423 . S
C678 C675 1.351 . S
C678 H690 0.930 . S
C679 C681 1.400 . S
C679 C682 1.386 . S
C679 H691 0.930 . S
N680 C673 1.377 . S
N680 C681 1.321 . S
N680 Eu683 2.609 1_565 S
C681 C679 1.400 . S
C681 N680 1.321 . S
C681 H688 0.930 . S
C682 C677 1.395 . S
C682 C679 1.386 . S
C682 H701 0.930 . S
Eu683 N680 2.609 1_545 S
Eu683 N684 2.657 1_545 S
Eu683 O717 2.380 . S
Eu683 O718 2.432 . S
Eu683 O722 2.558 1_545 S
Eu683 O723 2.612 . S
Eu683 O725 2.333 . S
Eu683 O726 2.563 . S
Eu683 O727 2.419 1_545 S
Eu683 C747 2.848 1_545 S
N684 C676 1.362 . S
N684 Eu683 2.657 1_565 S
N684 C685 1.334 . S
C685 N684 1.334 . S
C685 C687 1.400 1_455 S
C685 H692 0.929 . S
C686 C674 1.392 . S
C686 C687 1.352 1_455 S
C686 H694 0.930 1_455 S
C687 C685 1.400 1_655 S
C687 C686 1.352 1_655 S
C687 H689 0.959 . S
H688 C681 0.930 . S
H689 C687 0.959 . S
H690 C678 0.930 . S
H691 C679 0.930 . S
H692 C685 0.929 . S
H693 C707 0.930 . S
H694 C686 0.930 1_655 S
H695 C713 0.930 . S
H696 C704 0.929 . S
H697 C711 0.930 1_655 S
H698 C675 0.931 . S
H699 C705 0.930 . S
H700 C738 0.930 . S
H701 C682 0.930 . S
H702 C737 0.931 . S
N703 Eu672 2.657 . S
N703 C704 1.334 . S
N703 C708 1.362 . S
C704 H696 0.929 . S
C704 N703 1.334 . S
C704 C707 1.413 . S
C705 H699 0.930 . S
C705 C706 1.392 . S
C705 C707 1.367 . S
C706 C705 1.392 . S
C706 C708 1.420 . S
C706 C738 1.423 . S
C707 H693 0.930 . S
C707 C704 1.413 . S
C707 C705 1.367 . S
C708 N703 1.362 . S
C708 C706 1.420 . S
C708 C712 1.429 . S
H709 C714 0.930 . S
N710 Eu672 2.609 . S
N710 C712 1.377 . S
N710 C713 1.321 . S
C711 H697 0.930 1_455 S
C711 C713 1.400 . S
C711 C714 1.386 . S
C712 C708 1.429 . S
C712 N710 1.377 . S
C712 C715 1.411 . S
C713 H695 0.930 . S
C713 N710 1.321 . S
C713 C711 1.400 . S
C714 H709 0.930 . S
C714 C711 1.386 . S
C714 C715 1.395 . S
C715 C712 1.411 . S
C715 C714 1.395 . S
C715 C737 1.420 . S
O716 Eu672 2.558 . S
O716 C736 1.257 . S
O717 Eu672 2.612 . S
O717 Eu683 2.380 . S
O717 C728 1.276 . S
O718 Eu683 2.432 . S
O718 C735 1.264 . S
O719 Eu672 2.339 . S
O719 C735 1.254 . S
O720 Eu672 2.563 . S
O720 C728 1.235 . S
O721 Eu672 2.419 . S
O721 C736 1.249 . S
O722 Eu683 2.558 1_565 S
O722 C747 1.257 . S
O723 Eu672 2.380 . S
O723 Eu683 2.612 . S
O723 C739 1.276 . S
O724 Eu672 2.432 . S
O724 C746 1.264 . S
O725 Eu683 2.333 . S
O725 C746 1.275 . S
O726 Eu683 2.563 . S
O726 C739 1.235 . S
O727 Eu683 2.419 1_565 S
O727 C747 1.249 . S
C728 O717 1.276 . S
C728 O720 1.235 . S
C729 C731 1.393 . S
C729 C733 1.395 . S
C729 C736 1.492 . S
C730 C731 1.392 . S
C730 C732 1.386 . S
C731 C729 1.393 . S
C731 C730 1.392 . S
C731 H748 0.930 . S
C732 C730 1.386 . S
C732 C734 1.395 . S
C732 H749 0.930 . S
C733 C729 1.395 . S
C733 C734 1.379 . S
C733 H750 0.930 . S
C734 C732 1.395 . S
C734 C733 1.379 . S
C734 H751 0.930 . S
C735 O718 1.264 . S
C735 O719 1.254 . S
C736 Eu672 2.848 . S
C736 O716 1.257 . S
C736 O721 1.249 . S
C736 C729 1.492 . S
C737 H702 0.931 . S
C737 C715 1.420 . S
C737 C738 1.351 . S
C738 H700 0.930 . S
C738 C706 1.423 . S
C738 C737 1.351 . S
C739 O723 1.276 . S
C739 O726 1.235 . S
C740 C741 1.393 . S
C740 C744 1.395 . S
C740 C747 1.492 . S
C741 C740 1.393 . S
C741 C742 1.392 . S
C741 H752 0.930 . S
C742 C741 1.392 . S
C742 C743 1.386 . S
C743 C742 1.386 . S
C743 C745 1.395 . S
C743 H753 0.930 . S
C744 C740 1.395 . S
C744 C745 1.379 . S
C744 H754 0.930 . S
C745 C743 1.395 . S
C745 C744 1.379 . S
C745 H755 0.930 . S
C746 O724 1.264 . S
C746 O725 1.275 . S
C747 Eu683 2.848 1_565 S
C747 O722 1.257 . S
C747 O727 1.249 . S
C747 C740 1.492 . S
H748 C731 0.930 . S
H749 C732 0.930 . S
H750 C733 0.930 . S
H751 C734 0.930 . S
H752 C741 0.930 . S
H753 C743 0.930 . S
H754 C744 0.930 . S
H755 C745 0.930 . S
Eu756 N787 2.657 . S
Eu756 N794 2.609 . S
Eu756 O800 2.558 . S
Eu756 O801 2.612 . S
Eu756 O803 2.339 . S
Eu756 O804 2.563 . S
Eu756 O805 2.419 . S
Eu756 O807 2.380 . S
Eu756 O808 2.432 . S
Eu756 C820 2.848 . S
C757 C760 1.429 . S
C757 C761 1.411 . S
C757 N764 1.377 . S
C758 C760 1.420 . S
C758 C762 1.423 . S
C758 C770 1.392 . S
C759 C761 1.420 . S
C759 C762 1.351 . S
C759 H782 0.931 . S
C760 C757 1.429 . S
C760 C758 1.420 . S
C760 N768 1.362 . S
C761 C757 1.411 . S
C761 C759 1.420 . S
C761 C766 1.395 . S
C762 C758 1.423 . S
C762 C759 1.351 . S
C762 H774 0.930 . S
C763 C765 1.400 . S
C763 C766 1.386 . S
C763 H775 0.930 . S
N764 C757 1.377 . S
N764 C765 1.321 . S
N764 Eu767 2.609 . S
C765 C763 1.400 . S
C765 N764 1.321 . S
C765 H772 0.930 . S
C766 C761 1.395 . S
C766 C763 1.386 . S
C766 H785 0.930 . S
Eu767 N764 2.609 . S
Eu767 N768 2.657 . S
Eu767 O801 2.380 . S
Eu767 O802 2.432 . S
Eu767 O806 2.558 . S
Eu767 O807 2.612 . S
Eu767 O809 2.339 . S
Eu767 O810 2.563 . S
Eu767 O811 2.419 . S
Eu767 C831 2.848 . S
N768 C760 1.362 . S
N768 Eu767 2.657 . S
N768 C769 1.334 . S
C769 N768 1.334 . S
C769 C771 1.413 . S
C769 H776 0.929 . S
C770 C758 1.392 . S
C770 C771 1.367 . S
C770 H778 0.930 . S
C771 C769 1.413 . S
C771 C770 1.367 . S
C771 H773 0.930 . S
H772 C765 0.930 . S
H773 C771 0.930 . S
H774 C762 0.930 . S
H775 C763 0.930 . S
H776 C769 0.929 . S
H777 C791 0.930 . S
H778 C770 0.930 . S
H779 C797 0.930 . S
H780 C788 0.929 . S
H781 C795 0.930 . S
H782 C759 0.931 . S
H783 C789 0.930 . S
H784 C822 0.930 . S
H785 C766 0.930 . S
H786 C821 0.931 . S
N787 Eu756 2.657 . S
N787 C788 1.334 . S
N787 C792 1.362 . S
C788 H780 0.929 . S
C788 N787 1.334 . S
C788 C791 1.413 . S
C789 H783 0.930 . S
C789 C790 1.392 . S
C789 C791 1.367 . S
C790 C789 1.392 . S
C790 C792 1.420 . S
C790 C822 1.423 . S
C791 H777 0.930 . S
C791 C788 1.413 . S
C791 C789 1.367 . S
C792 N787 1.362 . S
C792 C790 1.420 . S
C792 C796 1.429 . S
H793 C798 0.930 . S
N794 Eu756 2.609 . S
N794 C796 1.377 . S
N794 C797 1.321 . S
C795 H781 0.930 . S
C795 C797 1.400 . S
C795 C798 1.386 . S
C796 C792 1.429 . S
C796 N794 1.377 . S
C796 C799 1.411 . S
C797 H779 0.930 . S
C797 N794 1.321 . S
C797 C795 1.400 . S
C798 H793 0.930 . S
C798 C795 1.386 . S
C798 C799 1.395 . S
C799 C796 1.411 . S
C799 C798 1.395 . S
C799 C821 1.420 . S
O800 Eu756 2.558 . S
O800 C820 1.257 . S
O801 Eu756 2.612 . S
O801 Eu767 2.380 . S
O801 C812 1.276 . S
O802 Eu767 2.432 . S
O802 C819 1.264 . S
O803 Eu756 2.339 . S
O803 C819 1.254 . S
O804 Eu756 2.563 . S
O804 C812 1.235 . S
O805 Eu756 2.419 . S
O805 C820 1.249 . S
O806 Eu767 2.558 . S
O806 C831 1.257 . S
O807 Eu756 2.380 . S
O807 Eu767 2.612 . S
O807 C823 1.276 . S
O808 Eu756 2.432 . S
O808 C830 1.264 . S
O809 Eu767 2.339 . S
O809 C830 1.254 . S
O810 Eu767 2.563 . S
O810 C823 1.235 . S
O811 Eu767 2.419 . S
O811 C831 1.249 . S
C812 O801 1.276 . S
C812 O804 1.235 . S
C813 C815 1.393 . S
C813 C817 1.395 . S
C813 C820 1.492 . S
C814 C815 1.392 . S
C814 C816 1.386 . S
C815 C813 1.393 . S
C815 C814 1.392 . S
C815 H832 0.930 . S
C816 C814 1.386 . S
C816 C818 1.395 . S
C816 H833 0.930 . S
C817 C813 1.395 . S
C817 C818 1.379 . S
C817 H834 0.930 . S
C818 C816 1.395 . S
C818 C817 1.379 . S
C818 H835 0.930 . S
C819 O802 1.264 . S
C819 O803 1.254 . S
C820 Eu756 2.848 . S
C820 O800 1.257 . S
C820 O805 1.249 . S
C820 C813 1.492 . S
C821 H786 0.931 . S
C821 C799 1.420 . S
C821 C822 1.351 . S
C822 H784 0.930 . S
C822 C790 1.423 . S
C822 C821 1.351 . S
C823 O807 1.276 . S
C823 O810 1.235 . S
C824 C825 1.393 . S
C824 C828 1.395 . S
C824 C831 1.492 . S
C825 C824 1.393 . S
C825 C826 1.392 . S
C825 H836 0.930 . S
C826 C825 1.392 . S
C826 C827 1.386 . S
C827 C826 1.386 . S
C827 C829 1.395 . S
C827 H837 0.930 . S
C828 C824 1.395 . S
C828 C829 1.379 . S
C828 H838 0.930 . S
C829 C827 1.395 . S
C829 C828 1.379 . S
C829 H839 0.930 . S
C830 O808 1.264 . S
C830 O809 1.254 . S
C831 Eu767 2.848 . S
C831 O806 1.257 . S
C831 O811 1.249 . S
C831 C824 1.492 . S
H832 C815 0.930 . S
H833 C816 0.930 . S
H834 C817 0.930 . S
H835 C818 0.930 . S
H836 C825 0.930 . S
H837 C827 0.930 . S
H838 C828 0.930 . S
H839 C829 0.930 . S
Eu840 N871 2.657 . S
Eu840 N878 2.609 . S
Eu840 O884 2.564 . S
Eu840 O885 2.612 . S
Eu840 O887 2.339 . S
Eu840 O888 2.563 . S
Eu840 O889 2.419 . S
Eu840 O891 2.380 . S
Eu840 O892 2.432 1_545 S
Eu840 C904 2.848 . S
C841 C844 1.429 . S
C841 C845 1.411 . S
C841 N848 1.377 . S
C842 C844 1.420 . S
C842 C846 1.423 . S
C842 C854 1.392 1_545 S
C843 C845 1.420 . S
C843 C846 1.351 . S
C843 H866 0.931 . S
C844 C841 1.429 . S
C844 C842 1.420 . S
C844 N852 1.362 . S
C845 C841 1.411 . S
C845 C843 1.420 . S
C845 C850 1.395 . S
C846 C842 1.423 . S
C846 C843 1.351 . S
C846 H858 0.930 . S
C847 C849 1.400 . S
C847 C850 1.386 . S
C847 H859 0.930 . S
N848 C841 1.377 . S
N848 C849 1.321 . S
N848 Eu851 2.609 . S
C849 C847 1.400 . S
C849 N848 1.321 . S
C849 H856 0.930 . S
C850 C845 1.395 . S
C850 C847 1.386 . S
C850 H869 0.930 . S
Eu851 N848 2.609 . S
Eu851 N852 2.657 . S
Eu851 O885 2.380 1_556 S
Eu851 O886 2.432 1_556 S
Eu851 O890 2.558 . S
Eu851 O891 2.612 1_556 S
Eu851 O893 2.339 . S
Eu851 O894 2.563 . S
Eu851 O895 2.419 . S
Eu851 C915 2.848 . S
N852 C844 1.362 . S
N852 Eu851 2.657 . S
N852 C853 1.334 1_545 S
C853 N852 1.334 1_565 S
C853 C855 1.413 . S
C853 H860 0.929 . S
C854 C842 1.392 1_565 S
C854 C855 1.367 . S
C854 H862 0.930 . S
C855 C853 1.413 . S
C855 C854 1.367 . S
C855 H857 0.930 . S
H856 C849 0.930 . S
H857 C855 0.930 . S
H858 C846 0.930 . S
H859 C847 0.930 . S
H860 C853 0.929 . S
H861 C875 0.930 . S
H862 C854 0.930 . S
H863 C881 0.930 . S
H864 C872 0.929 . S
H865 C879 0.930 . S
H866 C843 0.931 . S
H867 C873 0.930 . S
H868 C906 0.930 . S
H869 C850 0.930 . S
H870 C905 0.931 . S
N871 Eu840 2.657 . S
N871 C872 1.334 . S
N871 C876 1.362 . S
C872 H864 0.929 . S
C872 N871 1.334 . S
C872 C875 1.413 . S
C873 H867 0.930 . S
C873 C874 1.392 . S
C873 C875 1.367 . S
C874 C873 1.392 . S
C874 C876 1.420 . S
C874 C906 1.423 . S
C875 H861 0.930 . S
C875 C872 1.413 . S
C875 C873 1.367 . S
C876 N871 1.362 . S
C876 C874 1.420 . S
C876 C880 1.429 . S
H877 C882 0.930 . S
N878 Eu840 2.609 . S
N878 C880 1.377 . S
N878 C881 1.321 1_545 S
C879 H865 0.930 . S
C879 C881 1.400 . S
C879 C882 1.386 . S
C880 C876 1.429 . S
C880 N878 1.377 . S
C880 C883 1.411 . S
C881 H863 0.930 . S
C881 N878 1.321 1_565 S
C881 C879 1.400 . S
C882 H877 0.930 . S
C882 C879 1.386 . S
C882 C883 1.395 1_565 S
C883 C880 1.411 . S
C883 C882 1.395 1_545 S
C883 C905 1.420 . S
O884 Eu840 2.564 . S
O884 C904 1.262 . S
O885 Eu840 2.612 . S
O885 Eu851 2.380 1_554 S
O885 C896 1.276 . S
O886 Eu851 2.432 1_554 S
O886 C903 1.264 . S
O887 Eu840 2.339 . S
O887 C903 1.254 . S
O888 Eu840 2.563 . S
O888 C896 1.235 . S
O889 Eu840 2.419 . S
O889 C904 1.249 . S
O890 Eu851 2.558 . S
O890 C915 1.257 . S
O891 Eu840 2.380 . S
O891 Eu851 2.612 1_554 S
O891 C907 1.276 . S
O892 Eu840 2.432 1_565 S
O892 C914 1.264 1_554 S
O893 Eu851 2.339 . S
O893 C914 1.257 1_545 S
O894 Eu851 2.563 . S
O894 C907 1.235 1_556 S
O895 Eu851 2.419 . S
O895 C915 1.249 . S
C896 O885 1.276 . S
C896 O888 1.235 . S
C897 C899 1.393 . S
C897 C901 1.395 1_545 S
C897 C904 1.492 . S
C898 C899 1.392 . S
C898 C900 1.386 1_545 S
C899 C897 1.393 . S
C899 C898 1.392 . S
C899 H916 0.930 . S
C900 C898 1.386 1_565 S
C900 C902 1.395 . S
C900 H917 0.930 . S
C901 C897 1.395 1_565 S
C901 C902 1.379 . S
C901 H918 0.930 . S
C902 C900 1.395 . S
C902 C901 1.379 . S
C902 H919 0.930 . S
C903 O886 1.264 . S
C903 O887 1.254 . S
C904 Eu840 2.848 . S
C904 O884 1.262 . S
C904 O889 1.249 . S
C904 C897 1.492 . S
C905 H870 0.931 . S
C905 C883 1.420 . S
C905 C906 1.351 . S
C906 H868 0.930 . S
C906 C874 1.423 . S
C906 C905 1.351 . S
C907 O891 1.276 . S
C907 O894 1.235 1_554 S
C908 C909 1.393 . S
C908 C912 1.395 . S
C908 C915 1.492 . S
C909 C908 1.393 . S
C909 C910 1.392 . S
C909 H920 0.930 . S
C910 C909 1.392 . S
C910 C911 1.386 . S
C911 C910 1.386 . S
C911 C913 1.395 . S
C911 H921 0.930 . S
C912 C908 1.395 . S
C912 C913 1.379 . S
C912 H922 0.930 . S
C913 C911 1.395 . S
C913 C912 1.379 . S
C913 H923 0.930 . S
C914 O892 1.264 1_556 S
C914 O893 1.257 1_565 S
C915 Eu851 2.848 . S
C915 O890 1.257 . S
C915 O895 1.249 . S
C915 C908 1.492 . S
H916 C899 0.930 . S
H917 C900 0.930 . S
H918 C901 0.930 . S
H919 C902 0.930 . S
H920 C909 0.930 . S
H921 C911 0.930 . S
H922 C912 0.930 . S
H923 C913 0.930 . S
Eu924 N955 2.657 . S
Eu924 N962 2.609 . S
Eu924 O968 2.558 . S
Eu924 O969 2.612 . S
Eu924 O971 2.339 . S
Eu924 O972 2.563 . S
Eu924 O973 2.419 . S
Eu924 O975 2.380 . S
Eu924 O976 2.432 . S
Eu924 C988 2.848 . S
C925 C928 1.429 . S
C925 C929 1.411 . S
C925 N932 1.377 . S
C926 C928 1.420 . S
C926 C930 1.423 . S
C926 C938 1.392 . S
C927 C929 1.420 . S
C927 C930 1.351 . S
C927 H950 0.931 . S
C928 C925 1.429 . S
C928 C926 1.420 . S
C928 N936 1.362 . S
C929 C925 1.411 . S
C929 C927 1.420 . S
C929 C934 1.395 . S
C930 C926 1.423 . S
C930 C927 1.351 . S
C930 H942 0.930 . S
C931 C933 1.400 . S
C931 C934 1.386 . S
C931 H943 0.930 . S
N932 C925 1.377 . S
N932 C933 1.321 . S
N932 Eu935 2.609 . S
C933 C931 1.400 . S
C933 N932 1.321 . S
C933 H940 0.930 . S
C934 C929 1.395 . S
C934 C931 1.386 . S
C934 H953 0.930 . S
Eu935 N932 2.609 . S
Eu935 N936 2.657 . S
Eu935 O969 2.380 . S
Eu935 O970 2.432 . S
Eu935 O974 2.558 . S
Eu935 O975 2.612 . S
Eu935 O977 2.339 . S
Eu935 O978 2.563 . S
Eu935 O979 2.419 . S
Eu935 C999 2.848 . S
N936 C928 1.362 . S
N936 Eu935 2.657 . S
N936 C937 1.334 . S
C937 N936 1.334 . S
C937 C939 1.413 . S
C937 H944 0.929 . S
C938 C926 1.392 . S
C938 C939 1.367 . S
C938 H946 0.930 . S
C939 C937 1.413 . S
C939 C938 1.367 . S
C939 H941 0.930 . S
H940 C933 0.930 . S
H941 C939 0.930 . S
H942 C930 0.930 . S
H943 C931 0.930 . S
H944 C937 0.929 . S
H945 C959 0.930 . S
H946 C938 0.930 . S
H947 C965 0.930 . S
H948 C956 0.929 . S
H949 C963 0.930 . S
H950 C927 0.931 . S
H951 C957 0.930 . S
H952 C990 0.930 . S
H953 C934 0.930 . S
H954 C989 0.931 . S
N955 Eu924 2.657 . S
N955 C956 1.334 . S
N955 C960 1.362 . S
C956 H948 0.929 . S
C956 N955 1.334 . S
C956 C959 1.413 . S
C957 H951 0.930 . S
C957 C958 1.392 . S
C957 C959 1.367 . S
C958 C957 1.392 . S
C958 C960 1.420 . S
C958 C990 1.423 . S
C959 H945 0.930 . S
C959 C956 1.413 . S
C959 C957 1.367 . S
C960 N955 1.362 . S
C960 C958 1.420 . S
C960 C964 1.429 . S
H961 C966 0.930 . S
N962 Eu924 2.609 . S
N962 C964 1.377 . S
N962 C965 1.321 . S
C963 H949 0.930 . S
C963 C965 1.400 . S
C963 C966 1.386 . S
C964 C960 1.429 . S
C964 N962 1.377 . S
C964 C967 1.411 . S
C965 H947 0.930 . S
C965 N962 1.321 . S
C965 C963 1.400 . S
C966 H961 0.930 . S
C966 C963 1.386 . S
C966 C967 1.395 . S
C967 C964 1.411 . S
C967 C966 1.395 . S
C967 C989 1.420 . S
O968 Eu924 2.558 . S
O968 C988 1.257 . S
O969 Eu924 2.612 . S
O969 Eu935 2.380 . S
O969 C980 1.276 . S
O970 Eu935 2.432 . S
O970 C987 1.264 . S
O971 Eu924 2.339 . S
O971 C987 1.254 . S
O972 Eu924 2.563 . S
O972 C980 1.235 . S
O973 Eu924 2.419 . S
O973 C988 1.249 . S
O974 Eu935 2.558 . S
O974 C999 1.257 . S
O975 Eu924 2.380 . S
O975 Eu935 2.612 . S
O975 C991 1.276 . S
O976 Eu924 2.432 . S
O976 C998 1.264 . S
O977 Eu935 2.339 . S
O977 C998 1.254 . S
O978 Eu935 2.563 . S
O978 C991 1.235 . S
O979 Eu935 2.419 . S
O979 C999 1.249 . S
C980 O969 1.276 . S
C980 O972 1.235 . S
C981 C983 1.393 . S
C981 C985 1.395 . S
C981 C988 1.492 . S
C982 C983 1.392 . S
C982 C984 1.386 . S
C983 C981 1.393 . S
C983 C982 1.392 . S
C983 H1000 0.930 . S
C984 C982 1.386 . S
C984 C986 1.395 . S
C984 H1001 0.930 . S
C985 C981 1.395 . S
C985 C986 1.379 . S
C985 H1002 0.930 . S
C986 C984 1.395 . S
C986 C985 1.379 . S
C986 H1003 0.930 . S
C987 O970 1.264 . S
C987 O971 1.254 . S
C988 Eu924 2.848 . S
C988 O968 1.257 . S
C988 O973 1.249 . S
C988 C981 1.492 . S
C989 H954 0.931 . S
C989 C967 1.420 . S
C989 C990 1.351 . S
C990 H952 0.930 . S
C990 C958 1.423 . S
C990 C989 1.351 . S
C991 O975 1.276 . S
C991 O978 1.235 . S
C992 C993 1.393 . S
C992 C996 1.395 . S
C992 C999 1.492 . S
C993 C992 1.393 . S
C993 C994 1.392 . S
C993 H1004 0.930 . S
C994 C993 1.392 . S
C994 C995 1.386 . S
C995 C994 1.386 . S
C995 C997 1.395 . S
C995 H1005 0.930 . S
C996 C992 1.395 . S
C996 C997 1.379 . S
C996 H1006 0.930 . S
C997 C995 1.395 . S
C997 C996 1.379 . S
C997 H1007 0.930 . S
C998 O976 1.264 . S
C998 O977 1.254 . S
C999 Eu935 2.848 . S
C999 O974 1.257 . S
C999 O979 1.249 . S
C999 C992 1.492 . S
H1000 C983 0.930 . S
H1001 C984 0.930 . S
H1002 C985 0.930 . S
H1003 C986 0.930 . S
H1004 C993 0.930 . S
H1005 C995 0.930 . S
H1006 C996 0.930 . S
H1007 C997 0.930 . S
Eu1008 N1039 2.657 . S
Eu1008 N1046 2.609 . S
Eu1008 O1052 2.558 . S
Eu1008 O1053 2.612 1_554 S
Eu1008 O1055 2.339 . S
Eu1008 O1056 2.563 1_554 S
Eu1008 O1057 2.419 . S
Eu1008 O1059 2.380 . S
Eu1008 O1060 2.432 . S
Eu1008 C1072 2.848 . S
C1009 C1012 1.429 . S
C1009 C1013 1.411 . S
C1009 N1016 1.377 . S
C1010 C1012 1.420 . S
C1010 C1014 1.423 . S
C1010 C1022 1.392 . S
C1011 C1013 1.420 . S
C1011 C1014 1.351 . S
C1011 H1034 0.931 . S
C1012 C1009 1.429 . S
C1012 C1010 1.420 . S
C1012 N1020 1.362 . S
C1013 C1009 1.411 . S
C1013 C1011 1.420 . S
C1013 C1018 1.395 . S
C1014 C1010 1.423 . S
C1014 C1011 1.351 . S
C1014 H1026 0.930 . S
C1015 C1017 1.400 . S
C1015 C1018 1.386 . S
C1015 H1027 0.930 . S
N1016 C1009 1.377 . S
N1016 C1017 1.321 . S
N1016 Eu1019 2.609 1_556 S
C1017 C1015 1.400 . S
C1017 N1016 1.321 . S
C1017 H1024 0.930 . S
C1018 C1013 1.395 . S
C1018 C1015 1.386 . S
C1018 H1037 0.930 . S
Eu1019 N1016 2.609 1_554 S
Eu1019 N1020 2.657 1_554 S
Eu1019 O1053 2.380 1_554 S
Eu1019 O1054 2.432 . S
Eu1019 O1058 2.558 . S
Eu1019 O1059 2.612 . S
Eu1019 O1061 2.339 . S
Eu1019 O1062 2.563 . S
Eu1019 O1063 2.419 . S
Eu1019 C1083 2.848 . S
N1020 C1012 1.362 . S
N1020 Eu1019 2.657 1_556 S
N1020 C1021 1.334 . S
C1021 N1020 1.334 . S
C1021 C1023 1.413 . S
C1021 H1028 0.929 . S
C1022 C1010 1.392 . S
C1022 C1023 1.367 . S
C1022 H1030 0.930 . S
C1023 C1021 1.413 . S
C1023 C1022 1.367 . S
C1023 H1025 0.930 . S
H1024 C1017 0.930 . S
H1025 C1023 0.930 . S
H1026 C1014 0.930 . S
H1027 C1015 0.930 . S
H1028 C1021 0.929 . S
H1029 C1043 0.930 . S
H1030 C1022 0.930 . S
H1031 C1049 0.930 . S
H1032 C1040 0.929 . S
H1033 C1047 0.930 . S
H1034 C1011 0.931 . S
H1035 C1041 0.930 . S
H1036 C1074 0.930 . S
H1037 C1018 0.930 . S
H1038 C1073 0.931 . S
N1039 Eu1008 2.657 . S
N1039 C1040 1.334 . S
N1039 C1044 1.362 . S
C1040 H1032 0.929 . S
C1040 N1039 1.334 . S
C1040 C1043 1.413 . S
C1041 H1035 0.930 . S
C1041 C1042 1.392 . S
C1041 C1043 1.367 . S
C1042 C1041 1.392 . S
C1042 C1044 1.420 . S
C1042 C1074 1.423 . S
C1043 H1029 0.930 . S
C1043 C1040 1.413 . S
C1043 C1041 1.367 . S
C1044 N1039 1.362 . S
C1044 C1042 1.420 . S
C1044 C1048 1.429 . S
H1045 C1050 0.930 . S
N1046 Eu1008 2.609 . S
N1046 C1048 1.377 . S
N1046 C1049 1.321 . S
C1047 H1033 0.930 . S
C1047 C1049 1.400 . S
C1047 C1050 1.386 . S
C1048 C1044 1.429 . S
C1048 N1046 1.377 . S
C1048 C1051 1.411 . S
C1049 H1031 0.930 . S
C1049 N1046 1.321 . S
C1049 C1047 1.400 . S
C1050 H1045 0.930 . S
C1050 C1047 1.386 . S
C1050 C1051 1.395 . S
C1051 C1048 1.411 . S
C1051 C1050 1.395 . S
C1051 C1073 1.420 . S
O1052 Eu1008 2.558 . S
O1052 C1072 1.257 . S
O1053 Eu1008 2.612 1_556 S
O1053 Eu1019 2.380 1_556 S
O1053 C1064 1.276 . S
O1054 Eu1019 2.432 . S
O1054 C1071 1.264 . S
O1055 Eu1008 2.339 . S
O1055 C1071 1.254 . S
O1056 Eu1008 2.563 1_556 S
O1056 C1064 1.235 . S
O1057 Eu1008 2.419 . S
O1057 C1072 1.249 . S
O1058 Eu1019 2.558 . S
O1058 C1083 1.257 . S
O1059 Eu1008 2.380 . S
O1059 Eu1019 2.612 . S
O1059 C1075 1.276 . S
O1060 Eu1008 2.432 . S
O1060 C1082 1.264 . S
O1061 Eu1019 2.339 . S
O1061 C1082 1.254 . S
O1062 Eu1019 2.563 . S
O1062 C1075 1.235 . S
O1063 Eu1019 2.419 . S
O1063 C1083 1.249 . S
C1064 O1053 1.276 . S
C1064 O1056 1.235 . S
C1065 C1067 1.393 . S
C1065 C1069 1.395 . S
C1065 C1072 1.492 . S
C1066 C1067 1.392 1_556 S
C1066 C1068 1.386 1_556 S
C1067 C1065 1.393 . S
C1067 C1066 1.392 1_554 S
C1067 H1084 0.930 1_554 S
C1068 C1066 1.386 1_554 S
C1068 C1070 1.395 . S
C1068 H1085 0.915 1_554 S
C1069 C1065 1.395 . S
C1069 C1070 1.379 . S
C1069 H1086 0.930 . S
C1070 C1068 1.395 . S
C1070 C1069 1.379 . S
C1070 H1087 0.930 . S
C1071 O1054 1.264 . S
C1071 O1055 1.254 . S
C1072 Eu1008 2.848 . S
C1072 O1052 1.257 . S
C1072 O1057 1.249 . S
C1072 C1065 1.492 . S
C1073 H1038 0.931 . S
C1073 C1051 1.420 . S
C1073 C1074 1.351 . S
C1074 H1036 0.930 . S
C1074 C1042 1.423 . S
C1074 C1073 1.351 . S
C1075 O1059 1.276 . S
C1075 O1062 1.235 . S
C1076 C1077 1.393 . S
C1076 C1080 1.395 . S
C1076 C1083 1.492 . S
C1077 C1076 1.393 . S
C1077 C1078 1.392 . S
C1077 H1088 0.930 . S
C1078 C1077 1.392 . S
C1078 C1079 1.386 . S
C1079 C1078 1.386 . S
C1079 C1081 1.395 . S
C1079 H1089 0.930 . S
C1080 C1076 1.395 . S
C1080 C1081 1.379 . S
C1080 H1090 0.961 . S
C1081 C1079 1.395 . S
C1081 C1080 1.379 . S
C1081 H1091 0.930 . S
C1082 O1060 1.264 . S
C1082 O1061 1.254 . S
C1083 Eu1019 2.848 . S
C1083 O1058 1.257 . S
C1083 O1063 1.249 . S
C1083 C1076 1.492 . S
H1084 C1067 0.930 1_556 S
H1085 C1068 0.915 1_556 S
H1086 C1069 0.930 . S
H1087 C1070 0.930 . S
H1088 C1077 0.930 . S
H1089 C1079 0.930 . S
H1090 C1080 0.961 . S
H1091 C1081 0.930 . S
Eu1092 N1123 2.657 . S
Eu1092 N1130 2.609 . S
Eu1092 O1136 2.558 . S
Eu1092 O1137 2.612 . S
Eu1092 O1139 2.339 . S
Eu1092 O1140 2.563 . S
Eu1092 O1141 2.419 . S
Eu1092 O1143 2.380 . S
Eu1092 O1144 2.432 . S
Eu1092 C1156 2.848 . S
C1093 C1096 1.429 . S
C1093 C1097 1.411 . S
C1093 N1100 1.377 . S
C1094 C1096 1.420 . S
C1094 C1098 1.423 . S
C1094 C1106 1.392 . S
C1095 C1097 1.420 . S
C1095 C1098 1.351 . S
C1095 H1118 0.931 . S
C1096 C1093 1.429 . S
C1096 C1094 1.420 . S
C1096 N1104 1.362 . S
C1097 C1093 1.411 . S
C1097 C1095 1.420 . S
C1097 C1102 1.395 . S
C1098 C1094 1.423 . S
C1098 C1095 1.351 . S
C1098 H1110 0.930 . S
C1099 C1101 1.400 . S
C1099 C1102 1.386 . S
C1099 H1111 0.930 . S
N1100 C1093 1.377 . S
N1100 C1101 1.321 . S
N1100 Eu1103 2.609 . S
C1101 C1099 1.400 . S
C1101 N1100 1.321 . S
C1101 H1108 0.930 . S
C1102 C1097 1.395 . S
C1102 C1099 1.386 . S
C1102 H1121 0.930 . S
Eu1103 N1100 2.609 . S
Eu1103 N1104 2.657 . S
Eu1103 O1137 2.380 . S
Eu1103 O1138 2.432 . S
Eu1103 O1142 2.558 . S
Eu1103 O1143 2.612 . S
Eu1103 O1145 2.339 . S
Eu1103 O1146 2.563 . S
Eu1103 O1147 2.419 . S
Eu1103 C1167 2.848 . S
N1104 C1096 1.362 . S
N1104 Eu1103 2.657 . S
N1104 C1105 1.334 . S
C1105 N1104 1.334 . S
C1105 C1107 1.413 . S
C1105 H1112 0.929 . S
C1106 C1094 1.392 . S
C1106 C1107 1.367 . S
C1106 H1114 0.930 . S
C1107 C1105 1.413 . S
C1107 C1106 1.367 . S
C1107 H1109 0.930 . S
H1108 C1101 0.930 . S
H1109 C1107 0.930 . S
H1110 C1098 0.930 . S
H1111 C1099 0.930 . S
H1112 C1105 0.929 . S
H1113 C1127 0.930 . S
H1114 C1106 0.930 . S
H1115 C1133 0.930 . S
H1116 C1124 0.929 . S
H1117 C1131 0.930 . S
H1118 C1095 0.931 . S
H1119 C1125 0.930 . S
H1120 C1158 0.930 . S
H1121 C1102 0.930 . S
H1122 C1157 0.931 . S
N1123 Eu1092 2.657 . S
N1123 C1124 1.334 . S
N1123 C1128 1.362 . S
C1124 H1116 0.929 . S
C1124 N1123 1.334 . S
C1124 C1127 1.413 . S
C1125 H1119 0.930 . S
C1125 C1126 1.392 . S
C1125 C1127 1.367 . S
C1126 C1125 1.392 . S
C1126 C1128 1.420 . S
C1126 C1158 1.423 . S
C1127 H1113 0.930 . S
C1127 C1124 1.413 . S
C1127 C1125 1.367 . S
C1128 N1123 1.362 . S
C1128 C1126 1.420 . S
C1128 C1132 1.429 . S
H1129 C1134 0.930 . S
N1130 Eu1092 2.609 . S
N1130 C1132 1.377 . S
N1130 C1133 1.321 . S
C1131 H1117 0.930 . S
C1131 C1133 1.400 . S
C1131 C1134 1.386 . S
C1132 C1128 1.429 . S
C1132 N1130 1.377 . S
C1132 C1135 1.411 . S
C1133 H1115 0.930 . S
C1133 N1130 1.321 . S
C1133 C1131 1.400 . S
C1134 H1129 0.930 . S
C1134 C1131 1.386 . S
C1134 C1135 1.395 . S
C1135 C1132 1.411 . S
C1135 C1134 1.395 . S
C1135 C1157 1.420 . S
O1136 Eu1092 2.558 . S
O1136 C1156 1.257 . S
O1137 Eu1092 2.612 . S
O1137 Eu1103 2.380 . S
O1137 C1148 1.276 . S
O1138 Eu1103 2.432 . S
O1138 C1155 1.264 . S
O1139 Eu1092 2.339 . S
O1139 C1155 1.254 . S
O1140 Eu1092 2.563 . S
O1140 C1148 1.235 . S
O1141 Eu1092 2.419 . S
O1141 C1156 1.249 . S
O1142 Eu1103 2.558 . S
O1142 C1167 1.257 . S
O1143 Eu1092 2.380 . S
O1143 Eu1103 2.612 . S
O1143 C1159 1.276 . S
O1144 Eu1092 2.432 . S
O1144 C1166 1.264 . S
O1145 Eu1103 2.339 . S
O1145 C1166 1.254 . S
O1146 Eu1103 2.563 . S
O1146 C1159 1.235 . S
O1147 Eu1103 2.419 . S
O1147 C1167 1.249 . S
C1148 O1137 1.276 . S
C1148 O1140 1.235 . S
C1149 C1151 1.393 . S
C1149 C1153 1.395 . S
C1149 C1156 1.492 . S
C1150 C1151 1.392 . S
C1150 C1152 1.386 . S
C1151 C1149 1.393 . S
C1151 C1150 1.392 . S
C1151 H1168 0.930 . S
C1152 C1150 1.386 . S
C1152 C1154 1.395 . S
C1152 H1169 0.930 . S
C1153 C1149 1.395 . S
C1153 C1154 1.379 . S
C1153 H1170 0.930 . S
C1154 C1152 1.395 . S
C1154 C1153 1.379 . S
C1154 H1171 0.930 . S
C1155 O1138 1.264 . S
C1155 O1139 1.254 . S
C1156 Eu1092 2.848 . S
C1156 O1136 1.257 . S
C1156 O1141 1.249 . S
C1156 C1149 1.492 . S
C1157 H1122 0.931 . S
C1157 C1135 1.420 . S
C1157 C1158 1.351 . S
C1158 H1120 0.930 . S
C1158 C1126 1.423 . S
C1158 C1157 1.351 . S
C1159 O1143 1.276 . S
C1159 O1146 1.235 . S
C1160 C1161 1.393 . S
C1160 C1164 1.395 . S
C1160 C1167 1.492 . S
C1161 C1160 1.393 . S
C1161 C1162 1.392 . S
C1161 H1172 0.930 . S
C1162 C1161 1.392 . S
C1162 C1163 1.386 . S
C1163 C1162 1.386 . S
C1163 C1165 1.395 . S
C1163 H1173 0.930 . S
C1164 C1160 1.395 . S
C1164 C1165 1.379 . S
C1164 H1174 0.930 . S
C1165 C1163 1.395 . S
C1165 C1164 1.379 . S
C1165 H1175 0.930 . S
C1166 O1144 1.264 . S
C1166 O1145 1.254 . S
C1167 Eu1103 2.848 . S
C1167 O1142 1.257 . S
C1167 O1147 1.249 . S
C1167 C1160 1.492 . S
H1168 C1151 0.930 . S
H1169 C1152 0.930 . S
H1170 C1153 0.930 . S
H1171 C1154 0.930 . S
H1172 C1161 0.930 . S
H1173 C1163 0.930 . S
H1174 C1164 0.930 . S
H1175 C1165 0.930 . S
Eu1176 N1207 2.657 . S
Eu1176 N1214 2.609 . S
Eu1176 O1220 2.558 . S
Eu1176 O1221 2.612 . S
Eu1176 O1223 2.339 . S
Eu1176 O1224 2.563 . S
Eu1176 O1225 2.419 . S
Eu1176 O1227 2.380 . S
Eu1176 O1228 2.432 . S
Eu1176 C1240 2.848 . S
C1177 C1180 1.428 1_455 S
C1177 C1181 1.414 1_455 S
C1177 N1184 1.374 . S
C1178 C1180 1.420 . S
C1178 C1182 1.423 . S
C1178 C1190 1.392 . S
C1179 C1181 1.420 . S
C1179 C1182 1.351 . S
C1179 H1202 0.931 . S
C1180 C1177 1.428 1_655 S
C1180 C1178 1.420 . S
C1180 N1188 1.362 1_655 S
C1181 C1177 1.414 1_655 S
C1181 C1179 1.420 . S
C1181 C1186 1.395 . S
C1182 C1178 1.423 . S
C1182 C1179 1.351 . S
C1182 H1194 0.930 . S
C1183 C1185 1.400 . S
C1183 C1186 1.386 1_455 S
C1183 H1195 0.930 . S
N1184 C1177 1.374 . S
N1184 C1185 1.321 . S
N1184 Eu1187 2.609 . S
C1185 C1183 1.400 . S
C1185 N1184 1.321 . S
C1185 H1192 0.930 . S
C1186 C1181 1.395 . S
C1186 C1183 1.386 1_655 S
C1186 H1205 0.930 . S
Eu1187 N1184 2.609 . S
Eu1187 N1188 2.657 . S
Eu1187 O1221 2.380 . S
Eu1187 O1222 2.432 . S
Eu1187 O1226 2.558 . S
Eu1187 O1227 2.612 . S
Eu1187 O1229 2.339 . S
Eu1187 O1230 2.563 . S
Eu1187 O1231 2.419 . S
Eu1187 C1251 2.848 . S
N1188 C1180 1.362 1_455 S
N1188 Eu1187 2.657 . S
N1188 C1189 1.334 . S
C1189 N1188 1.334 . S
C1189 C1191 1.413 1_455 S
C1189 H1196 0.929 . S
C1190 C1178 1.392 . S
C1190 C1191 1.367 . S
C1190 H1198 0.930 . S
C1191 C1189 1.413 1_655 S
C1191 C1190 1.367 . S
C1191 H1193 0.930 . S
H1192 C1185 0.930 . S
H1193 C1191 0.930 . S
H1194 C1182 0.930 . S
H1195 C1183 0.930 . S
H1196 C1189 0.929 . S
H1197 C1211 0.930 . S
H1198 C1190 0.930 . S
H1199 C1217 0.930 . S
H1200 C1208 0.929 . S
H1201 C1215 0.930 . S
H1202 C1179 0.931 . S
H1203 C1209 0.930 . S
H1204 C1242 0.930 . S
H1205 C1186 0.930 . S
H1206 C1241 0.931 . S
N1207 Eu1176 2.657 . S
N1207 C1208 1.334 . S
N1207 C1212 1.362 . S
C1208 H1200 0.929 . S
C1208 N1207 1.334 . S
C1208 C1211 1.413 . S
C1209 H1203 0.930 . S
C1209 C1210 1.392 . S
C1209 C1211 1.367 . S
C1210 C1209 1.392 . S
C1210 C1212 1.420 . S
C1210 C1242 1.423 . S
C1211 H1197 0.930 . S
C1211 C1208 1.413 . S
C1211 C1209 1.367 . S
C1212 N1207 1.362 . S
C1212 C1210 1.420 . S
C1212 C1216 1.429 . S
H1213 C1218 0.930 . S
N1214 Eu1176 2.609 . S
N1214 C1216 1.377 . S
N1214 C1217 1.321 . S
C1215 H1201 0.930 . S
C1215 C1217 1.400 . S
C1215 C1218 1.386 . S
C1216 C1212 1.429 . S
C1216 N1214 1.377 . S
C1216 C1219 1.411 . S
C1217 H1199 0.930 . S
C1217 N1214 1.321 . S
C1217 C1215 1.400 . S
C1218 H1213 0.930 . S
C1218 C1215 1.386 . S
C1218 C1219 1.395 . S
C1219 C1216 1.411 . S
C1219 C1218 1.395 . S
C1219 C1241 1.420 . S
O1220 Eu1176 2.558 . S
O1220 C1240 1.257 . S
O1221 Eu1176 2.612 . S
O1221 Eu1187 2.380 . S
O1221 C1232 1.276 . S
O1222 Eu1187 2.432 . S
O1222 C1239 1.264 . S
O1223 Eu1176 2.339 . S
O1223 C1239 1.254 . S
O1224 Eu1176 2.563 . S
O1224 C1232 1.235 . S
O1225 Eu1176 2.419 . S
O1225 C1240 1.249 . S
O1226 Eu1187 2.558 . S
O1226 C1251 1.257 . S
O1227 Eu1176 2.380 . S
O1227 Eu1187 2.612 . S
O1227 C1243 1.276 . S
O1228 Eu1176 2.432 . S
O1228 C1250 1.264 . S
O1229 Eu1187 2.339 . S
O1229 C1250 1.254 . S
O1230 Eu1187 2.563 . S
O1230 C1243 1.235 . S
O1231 Eu1187 2.419 . S
O1231 C1251 1.249 . S
C1232 O1221 1.276 . S
C1232 O1224 1.235 . S
C1233 C1235 1.393 . S
C1233 C1237 1.395 . S
C1233 C1240 1.492 . S
C1234 C1235 1.392 . S
C1234 C1236 1.386 . S
C1235 C1233 1.393 . S
C1235 C1234 1.392 . S
C1235 H1252 0.930 . S
C1236 C1234 1.386 . S
C1236 C1238 1.395 . S
C1236 H1253 0.930 . S
C1237 C1233 1.395 . S
C1237 C1238 1.379 . S
C1237 H1254 0.930 . S
C1238 C1236 1.395 . S
C1238 C1237 1.379 . S
C1238 H1255 0.930 . S
C1239 O1222 1.264 . S
C1239 O1223 1.254 . S
C1240 Eu1176 2.848 . S
C1240 O1220 1.257 . S
C1240 O1225 1.249 . S
C1240 C1233 1.492 . S
C1241 H1206 0.931 . S
C1241 C1219 1.420 . S
C1241 C1242 1.351 . S
C1242 H1204 0.930 . S
C1242 C1210 1.423 . S
C1242 C1241 1.351 . S
C1243 O1227 1.276 . S
C1243 O1230 1.235 . S
C1244 C1245 1.393 . S
C1244 C1248 1.395 . S
C1244 C1251 1.492 . S
C1245 C1244 1.393 . S
C1245 C1246 1.392 . S
C1245 H1256 0.930 . S
C1246 C1245 1.392 . S
C1246 C1247 1.386 . S
C1247 C1246 1.386 . S
C1247 C1249 1.395 . S
C1247 H1257 0.930 . S
C1248 C1244 1.395 . S
C1248 C1249 1.379 . S
C1248 H1258 0.930 . S
C1249 C1247 1.395 . S
C1249 C1248 1.379 . S
C1249 H1259 0.930 . S
C1250 O1228 1.264 . S
C1250 O1229 1.254 . S
C1251 Eu1187 2.848 . S
C1251 O1226 1.257 . S
C1251 O1231 1.249 . S
C1251 C1244 1.492 . S
H1252 C1235 0.930 . S
H1253 C1236 0.930 . S
H1254 C1237 0.930 . S
H1255 C1238 0.930 . S
H1256 C1245 0.930 . S
H1257 C1247 0.930 . S
H1258 C1248 0.930 . S
H1259 C1249 0.930 . S
Eu1260 N1291 2.657 . S
Eu1260 N1298 2.609 . S
Eu1260 O1304 2.558 . S
Eu1260 O1305 2.612 . S
Eu1260 O1307 2.339 . S
Eu1260 O1308 2.563 . S
Eu1260 O1309 2.419 . S
Eu1260 O1311 2.380 . S
Eu1260 O1312 2.432 . S
Eu1260 C1324 2.848 . S
C1261 C1264 1.429 . S
C1261 C1265 1.411 . S
C1261 N1268 1.377 . S
C1262 C1264 1.420 . S
C1262 C1266 1.423 . S
C1262 C1274 1.392 . S
C1263 C1265 1.420 . S
C1263 C1266 1.351 . S
C1263 H1286 0.931 . S
C1264 C1261 1.429 . S
C1264 C1262 1.420 . S
C1264 N1272 1.362 . S
C1265 C1261 1.411 . S
C1265 C1263 1.420 . S
C1265 C1270 1.395 . S
C1266 C1262 1.423 . S
C1266 C1263 1.351 . S
C1266 H1278 0.930 . S
C1267 C1269 1.400 . S
C1267 C1270 1.386 . S
C1267 H1279 0.930 . S
N1268 C1261 1.377 . S
N1268 C1269 1.321 . S
N1268 Eu1271 2.609 . S
C1269 C1267 1.400 . S
C1269 N1268 1.321 . S
C1269 H1276 0.930 . S
C1270 C1265 1.395 . S
C1270 C1267 1.386 . S
C1270 H1289 0.930 . S
Eu1271 N1268 2.609 . S
Eu1271 N1272 2.657 . S
Eu1271 O1305 2.380 . S
Eu1271 O1306 2.432 . S
Eu1271 O1310 2.558 . S
Eu1271 O1311 2.612 . S
Eu1271 O1313 2.339 . S
Eu1271 O1314 2.563 . S
Eu1271 O1315 2.419 . S
Eu1271 C1335 2.848 . S
N1272 C1264 1.362 . S
N1272 Eu1271 2.657 . S
N1272 C1273 1.334 . S
C1273 N1272 1.334 . S
C1273 C1275 1.413 . S
C1273 H1280 0.929 . S
C1274 C1262 1.392 . S
C1274 C1275 1.367 . S
C1274 H1282 0.930 . S
C1275 C1273 1.413 . S
C1275 C1274 1.367 . S
C1275 H1277 0.930 . S
H1276 C1269 0.930 . S
H1277 C1275 0.930 . S
H1278 C1266 0.930 . S
H1279 C1267 0.930 . S
H1280 C1273 0.929 . S
H1281 C1295 0.930 . S
H1282 C1274 0.930 . S
H1283 C1301 0.930 . S
H1284 C1292 0.929 . S
H1285 C1299 0.930 . S
H1286 C1263 0.931 . S
H1287 C1293 0.930 . S
H1288 C1326 0.930 . S
H1289 C1270 0.930 . S
H1290 C1325 0.931 . S
N1291 Eu1260 2.657 . S
N1291 C1292 1.334 . S
N1291 C1296 1.362 . S
C1292 H1284 0.929 . S
C1292 N1291 1.334 . S
C1292 C1295 1.413 . S
C1293 H1287 0.930 . S
C1293 C1294 1.392 . S
C1293 C1295 1.367 . S
C1294 C1293 1.392 . S
C1294 C1296 1.420 . S
C1294 C1326 1.423 . S
C1295 H1281 0.930 . S
C1295 C1292 1.413 . S
C1295 C1293 1.367 . S
C1296 N1291 1.362 . S
C1296 C1294 1.420 . S
C1296 C1300 1.429 . S
H1297 C1302 0.930 . S
N1298 Eu1260 2.609 . S
N1298 C1300 1.377 . S
N1298 C1301 1.321 . S
C1299 H1285 0.930 . S
C1299 C1301 1.400 . S
C1299 C1302 1.386 . S
C1300 C1296 1.429 . S
C1300 N1298 1.377 . S
C1300 C1303 1.411 . S
C1301 H1283 0.930 . S
C1301 N1298 1.321 . S
C1301 C1299 1.400 . S
C1302 H1297 0.930 . S
C1302 C1299 1.386 . S
C1302 C1303 1.395 . S
C1303 C1300 1.411 . S
C1303 C1302 1.395 . S
C1303 C1325 1.420 . S
O1304 Eu1260 2.558 . S
O1304 C1324 1.257 . S
O1305 Eu1260 2.612 . S
O1305 Eu1271 2.380 . S
O1305 C1316 1.276 . S
O1306 Eu1271 2.432 . S
O1306 C1323 1.264 . S
O1307 Eu1260 2.339 . S
O1307 C1323 1.254 . S
O1308 Eu1260 2.563 . S
O1308 C1316 1.235 . S
O1309 Eu1260 2.419 . S
O1309 C1324 1.249 . S
O1310 Eu1271 2.558 . S
O1310 C1335 1.257 . S
O1311 Eu1260 2.380 . S
O1311 Eu1271 2.612 . S
O1311 C1327 1.276 . S
O1312 Eu1260 2.432 . S
O1312 C1334 1.264 . S
O1313 Eu1271 2.339 . S
O1313 C1334 1.254 . S
O1314 Eu1271 2.563 . S
O1314 C1327 1.235 . S
O1315 Eu1271 2.419 . S
O1315 C1335 1.249 . S
C1316 O1305 1.276 . S
C1316 O1308 1.235 . S
C1317 C1319 1.393 . S
C1317 C1321 1.395 . S
C1317 C1324 1.492 . S
C1318 C1319 1.392 . S
C1318 C1320 1.386 . S
C1319 C1317 1.393 . S
C1319 C1318 1.392 . S
C1319 H1336 0.930 . S
C1320 C1318 1.386 . S
C1320 C1322 1.395 . S
C1320 H1337 0.930 . S
C1321 C1317 1.395 . S
C1321 C1322 1.379 . S
C1321 H1338 0.930 . S
C1322 C1320 1.395 . S
C1322 C1321 1.379 . S
C1322 H1339 0.930 . S
C1323 O1306 1.264 . S
C1323 O1307 1.254 . S
C1324 Eu1260 2.848 . S
C1324 O1304 1.257 . S
C1324 O1309 1.249 . S
C1324 C1317 1.492 . S
C1325 H1290 0.931 . S
C1325 C1303 1.420 . S
C1325 C1326 1.351 . S
C1326 H1288 0.930 . S
C1326 C1294 1.423 . S
C1326 C1325 1.351 . S
C1327 O1311 1.276 . S
C1327 O1314 1.235 . S
C1328 C1329 1.393 . S
C1328 C1332 1.395 . S
C1328 C1335 1.492 . S
C1329 C1328 1.393 . S
C1329 C1330 1.392 . S
C1329 H1340 0.930 . S
C1330 C1329 1.392 . S
C1330 C1331 1.386 . S
C1331 C1330 1.386 . S
C1331 C1333 1.395 . S
C1331 H1341 0.930 . S
C1332 C1328 1.395 . S
C1332 C1333 1.379 . S
C1332 H1342 0.930 . S
C1333 C1331 1.395 . S
C1333 C1332 1.379 . S
C1333 H1343 0.930 . S
C1334 O1312 1.264 . S
C1334 O1313 1.254 . S
C1335 Eu1271 2.848 . S
C1335 O1310 1.257 . S
C1335 O1315 1.249 . S
C1335 C1328 1.492 . S
H1336 C1319 0.930 . S
H1337 C1320 0.930 . S
H1338 C1321 0.930 . S
H1339 C1322 0.930 . S
H1340 C1329 0.930 . S
H1341 C1331 0.930 . S
H1342 C1332 0.930 . S
H1343 C1333 0.930 . S
Eu1344 N1375 2.657 . S
Eu1344 N1382 2.609 . S
Eu1344 O1388 2.558 . S
Eu1344 O1389 2.612 . S
Eu1344 O1391 2.339 . S
Eu1344 O1392 2.563 . S
Eu1344 O1393 2.419 . S
Eu1344 O1395 2.380 . S
Eu1344 O1396 2.432 . S
Eu1344 C1408 2.848 . S
C1345 C1348 1.429 . S
C1345 C1349 1.411 . S
C1345 N1352 1.377 . S
C1346 C1348 1.420 . S
C1346 C1350 1.423 . S
C1346 C1358 1.392 . S
C1347 C1349 1.420 . S
C1347 C1350 1.351 . S
C1347 H1370 0.931 . S
C1348 C1345 1.429 . S
C1348 C1346 1.420 . S
C1348 N1356 1.362 . S
C1349 C1345 1.411 . S
C1349 C1347 1.420 . S
C1349 C1354 1.395 . S
C1350 C1346 1.423 . S
C1350 C1347 1.351 . S
C1350 H1362 0.930 . S
C1351 C1353 1.400 . S
C1351 C1354 1.386 . S
C1351 H1363 0.930 . S
N1352 C1345 1.377 . S
N1352 C1353 1.321 . S
N1352 Eu1355 2.609 . S
C1353 C1351 1.400 . S
C1353 N1352 1.321 . S
C1353 H1360 0.930 . S
C1354 C1349 1.395 . S
C1354 C1351 1.386 . S
C1354 H1373 0.930 . S
Eu1355 N1352 2.609 . S
Eu1355 N1356 2.657 . S
Eu1355 O1389 2.380 . S
Eu1355 O1390 2.432 . S
Eu1355 O1394 2.558 . S
Eu1355 O1395 2.612 . S
Eu1355 O1397 2.339 . S
Eu1355 O1398 2.563 . S
Eu1355 O1399 2.419 . S
Eu1355 C1419 2.848 . S
N1356 C1348 1.362 . S
N1356 Eu1355 2.657 . S
N1356 C1357 1.334 . S
C1357 N1356 1.334 . S
C1357 C1359 1.413 . S
C1357 H1364 0.929 . S
C1358 C1346 1.392 . S
C1358 C1359 1.367 . S
C1358 H1366 0.930 . S
C1359 C1357 1.413 . S
C1359 C1358 1.367 . S
C1359 H1361 0.930 . S
H1360 C1353 0.930 . S
H1361 C1359 0.930 . S
H1362 C1350 0.930 . S
H1363 C1351 0.930 . S
H1364 C1357 0.929 . S
H1365 C1379 0.930 . S
H1366 C1358 0.930 . S
H1367 C1385 0.930 . S
H1368 C1376 0.929 . S
H1369 C1383 0.930 . S
H1370 C1347 0.931 . S
H1371 C1377 0.930 . S
H1372 C1410 0.930 . S
H1373 C1354 0.930 . S
H1374 C1409 0.931 . S
N1375 Eu1344 2.657 . S
N1375 C1376 1.334 . S
N1375 C1380 1.362 . S
C1376 H1368 0.929 . S
C1376 N1375 1.334 . S
C1376 C1379 1.413 . S
C1377 H1371 0.930 . S
C1377 C1378 1.392 . S
C1377 C1379 1.367 . S
C1378 C1377 1.392 . S
C1378 C1380 1.420 . S
C1378 C1410 1.423 . S
C1379 H1365 0.930 . S
C1379 C1376 1.413 . S
C1379 C1377 1.367 . S
C1380 N1375 1.362 . S
C1380 C1378 1.420 . S
C1380 C1384 1.429 . S
H1381 C1386 0.930 . S
N1382 Eu1344 2.609 . S
N1382 C1384 1.377 . S
N1382 C1385 1.321 . S
C1383 H1369 0.930 . S
C1383 C1385 1.400 . S
C1383 C1386 1.386 . S
C1384 C1380 1.429 . S
C1384 N1382 1.377 . S
C1384 C1387 1.411 . S
C1385 H1367 0.930 . S
C1385 N1382 1.321 . S
C1385 C1383 1.400 . S
C1386 H1381 0.930 . S
C1386 C1383 1.386 . S
C1386 C1387 1.395 . S
C1387 C1384 1.411 . S
C1387 C1386 1.395 . S
C1387 C1409 1.420 . S
O1388 Eu1344 2.558 . S
O1388 C1408 1.257 . S
O1389 Eu1344 2.612 . S
O1389 Eu1355 2.380 . S
O1389 C1400 1.276 . S
O1390 Eu1355 2.432 . S
O1390 C1407 1.264 . S
O1391 Eu1344 2.339 . S
O1391 C1407 1.254 . S
O1392 Eu1344 2.563 . S
O1392 C1400 1.235 . S
O1393 Eu1344 2.419 . S
O1393 C1408 1.249 . S
O1394 Eu1355 2.558 . S
O1394 C1419 1.257 . S
O1395 Eu1344 2.380 . S
O1395 Eu1355 2.612 . S
O1395 C1411 1.276 . S
O1396 Eu1344 2.432 . S
O1396 C1418 1.264 . S
O1397 Eu1355 2.339 . S
O1397 C1418 1.254 . S
O1398 Eu1355 2.563 . S
O1398 C1411 1.235 . S
O1399 Eu1355 2.419 . S
O1399 C1419 1.249 . S
C1400 O1389 1.276 . S
C1400 O1392 1.235 . S
C1401 C1403 1.393 . S
C1401 C1405 1.395 . S
C1401 C1408 1.492 . S
C1402 C1403 1.392 . S
C1402 C1404 1.386 . S
C1403 C1401 1.393 . S
C1403 C1402 1.392 . S
C1403 H1420 0.930 . S
C1404 C1402 1.386 . S
C1404 C1406 1.395 . S
C1404 H1421 0.930 . S
C1405 C1401 1.395 . S
C1405 C1406 1.379 . S
C1405 H1422 0.930 . S
C1406 C1404 1.395 . S
C1406 C1405 1.379 . S
C1406 H1423 0.930 . S
C1407 O1390 1.264 . S
C1407 O1391 1.254 . S
C1408 Eu1344 2.848 . S
C1408 O1388 1.257 . S
C1408 O1393 1.249 . S
C1408 C1401 1.492 . S
C1409 H1374 0.931 . S
C1409 C1387 1.420 . S
C1409 C1410 1.351 . S
C1410 H1372 0.930 . S
C1410 C1378 1.423 . S
C1410 C1409 1.351 . S
C1411 O1395 1.276 . S
C1411 O1398 1.235 . S
C1412 C1413 1.393 . S
C1412 C1416 1.395 . S
C1412 C1419 1.492 . S
C1413 C1412 1.393 . S
C1413 C1414 1.392 . S
C1413 H1424 0.930 . S
C1414 C1413 1.392 . S
C1414 C1415 1.386 . S
C1415 C1414 1.386 . S
C1415 C1417 1.395 . S
C1415 H1425 0.930 . S
C1416 C1412 1.395 . S
C1416 C1417 1.379 . S
C1416 H1426 0.930 . S
C1417 C1415 1.395 . S
C1417 C1416 1.379 . S
C1417 H1427 0.930 . S
C1418 O1396 1.264 . S
C1418 O1397 1.254 . S
C1419 Eu1355 2.848 . S
C1419 O1394 1.257 . S
C1419 O1399 1.249 . S
C1419 C1412 1.492 . S
H1420 C1403 0.930 . S
H1421 C1404 0.930 . S
H1422 C1405 0.930 . S
H1423 C1406 0.930 . S
H1424 C1413 0.930 . S
H1425 C1415 0.930 . S
H1426 C1416 0.930 . S
H1427 C1417 0.930 . S
Eu1428 N1459 2.657 . S
Eu1428 N1466 2.609 . S
Eu1428 O1472 2.558 . S
Eu1428 O1473 2.612 . S
Eu1428 O1475 2.339 . S
Eu1428 O1476 2.563 . S
Eu1428 O1477 2.419 . S
Eu1428 O1479 2.380 . S
Eu1428 O1480 2.432 . S
Eu1428 C1492 2.848 . S
C1429 C1432 1.429 . S
C1429 C1433 1.411 . S
C1429 N1436 1.377 . S
C1430 C1432 1.420 . S
C1430 C1434 1.423 . S
C1430 C1442 1.392 . S
C1431 C1433 1.420 . S
C1431 C1434 1.351 . S
C1431 H1454 0.931 . S
C1432 C1429 1.429 . S
C1432 C1430 1.420 . S
C1432 N1440 1.362 . S
C1433 C1429 1.411 . S
C1433 C1431 1.420 . S
C1433 C1438 1.395 . S
C1434 C1430 1.423 . S
C1434 C1431 1.351 . S
C1434 H1446 0.930 . S
C1435 C1437 1.400 . S
C1435 C1438 1.386 . S
C1435 H1447 0.930 . S
N1436 C1429 1.377 . S
N1436 C1437 1.321 . S
N1436 Eu1439 2.609 . S
C1437 C1435 1.400 . S
C1437 N1436 1.321 . S
C1437 H1444 0.930 . S
C1438 C1433 1.395 . S
C1438 C1435 1.386 . S
C1438 H1457 0.930 . S
Eu1439 N1436 2.609 . S
Eu1439 N1440 2.657 . S
Eu1439 O1473 2.380 . S
Eu1439 O1474 2.432 . S
Eu1439 O1478 2.558 . S
Eu1439 O1479 2.612 . S
Eu1439 O1481 2.339 . S
Eu1439 O1482 2.563 . S
Eu1439 O1483 2.419 . S
Eu1439 C1503 2.848 . S
N1440 C1432 1.362 . S
N1440 Eu1439 2.657 . S
N1440 C1441 1.334 . S
C1441 N1440 1.334 . S
C1441 C1443 1.413 . S
C1441 H1448 0.929 . S
C1442 C1430 1.392 . S
C1442 C1443 1.367 . S
C1442 H1450 0.930 . S
C1443 C1441 1.413 . S
C1443 C1442 1.367 . S
C1443 H1445 0.930 . S
H1444 C1437 0.930 . S
H1445 C1443 0.930 . S
H1446 C1434 0.930 . S
H1447 C1435 0.930 . S
H1448 C1441 0.929 . S
H1449 C1463 0.930 . S
H1450 C1442 0.930 . S
H1451 C1469 0.930 . S
H1452 C1460 0.929 . S
H1453 C1467 0.930 . S
H1454 C1431 0.931 . S
H1455 C1461 0.930 . S
H1456 C1494 0.930 . S
H1457 C1438 0.930 . S
H1458 C1493 0.931 . S
N1459 Eu1428 2.657 . S
N1459 C1460 1.334 . S
N1459 C1464 1.362 . S
C1460 H1452 0.929 . S
C1460 N1459 1.334 . S
C1460 C1463 1.413 . S
C1461 H1455 0.930 . S
C1461 C1462 1.392 . S
C1461 C1463 1.367 . S
C1462 C1461 1.392 . S
C1462 C1464 1.420 . S
C1462 C1494 1.423 . S
C1463 H1449 0.930 . S
C1463 C1460 1.413 . S
C1463 C1461 1.367 . S
C1464 N1459 1.362 . S
C1464 C1462 1.420 . S
C1464 C1468 1.429 . S
H1465 C1470 0.930 . S
N1466 Eu1428 2.609 . S
N1466 C1468 1.377 . S
N1466 C1469 1.321 . S
C1467 H1453 0.930 . S
C1467 C1469 1.400 . S
C1467 C1470 1.386 . S
C1468 C1464 1.429 . S
C1468 N1466 1.377 . S
C1468 C1471 1.411 . S
C1469 H1451 0.930 . S
C1469 N1466 1.321 . S
C1469 C1467 1.400 . S
C1470 H1465 0.930 . S
C1470 C1467 1.386 . S
C1470 C1471 1.395 . S
C1471 C1468 1.411 . S
C1471 C1470 1.395 . S
C1471 C1493 1.420 . S
O1472 Eu1428 2.558 . S
O1472 C1492 1.257 . S
O1473 Eu1428 2.612 . S
O1473 Eu1439 2.380 . S
O1473 C1484 1.276 . S
O1474 Eu1439 2.432 . S
O1474 C1491 1.264 . S
O1475 Eu1428 2.339 . S
O1475 C1491 1.254 . S
O1476 Eu1428 2.563 . S
O1476 C1484 1.235 . S
O1477 Eu1428 2.419 . S
O1477 C1492 1.249 . S
O1478 Eu1439 2.558 . S
O1478 C1503 1.257 . S
O1479 Eu1428 2.380 . S
O1479 Eu1439 2.612 . S
O1479 C1495 1.276 . S
O1480 Eu1428 2.432 . S
O1480 C1502 1.264 . S
O1481 Eu1439 2.339 . S
O1481 C1502 1.254 . S
O1482 Eu1439 2.563 . S
O1482 C1495 1.235 . S
O1483 Eu1439 2.419 . S
O1483 C1503 1.249 . S
C1484 O1473 1.276 . S
C1484 O1476 1.235 . S
C1485 C1487 1.393 . S
C1485 C1489 1.395 . S
C1485 C1492 1.492 . S
C1486 C1487 1.392 . S
C1486 C1488 1.386 . S
C1487 C1485 1.393 . S
C1487 C1486 1.392 . S
C1487 H1504 0.930 . S
C1488 C1486 1.386 . S
C1488 C1490 1.395 . S
C1488 H1505 0.930 . S
C1489 C1485 1.395 . S
C1489 C1490 1.379 . S
C1489 H1506 0.930 . S
C1490 C1488 1.395 . S
C1490 C1489 1.379 . S
C1490 H1507 0.930 . S
C1491 O1474 1.264 . S
C1491 O1475 1.254 . S
C1492 Eu1428 2.848 . S
C1492 O1472 1.257 . S
C1492 O1477 1.249 . S
C1492 C1485 1.492 . S
C1493 H1458 0.931 . S
C1493 C1471 1.420 . S
C1493 C1494 1.351 . S
C1494 H1456 0.930 . S
C1494 C1462 1.423 . S
C1494 C1493 1.351 . S
C1495 O1479 1.276 . S
C1495 O1482 1.235 . S
C1496 C1497 1.393 . S
C1496 C1500 1.395 . S
C1496 C1503 1.492 . S
C1497 C1496 1.393 . S
C1497 C1498 1.392 . S
C1497 H1508 0.930 . S
C1498 C1497 1.392 . S
C1498 C1499 1.386 . S
C1499 C1498 1.386 . S
C1499 C1501 1.395 . S
C1499 H1509 0.930 . S
C1500 C1496 1.395 . S
C1500 C1501 1.379 . S
C1500 H1510 0.930 . S
C1501 C1499 1.395 . S
C1501 C1500 1.379 . S
C1501 H1511 0.930 . S
C1502 O1480 1.264 . S
C1502 O1481 1.254 . S
C1503 Eu1439 2.848 . S
C1503 O1478 1.257 . S
C1503 O1483 1.249 . S
C1503 C1496 1.492 . S
H1504 C1487 0.930 . S
H1505 C1488 0.930 . S
H1506 C1489 0.930 . S
H1507 C1490 0.930 . S
H1508 C1497 0.930 . S
H1509 C1499 0.930 . S
H1510 C1500 0.930 . S
H1511 C1501 0.930 . S
Eu1512 N1543 2.657 . S
Eu1512 N1550 2.609 . S
Eu1512 O1556 2.558 . S
Eu1512 O1557 2.612 . S
Eu1512 O1559 2.339 . S
Eu1512 O1560 2.563 . S
Eu1512 O1561 2.419 . S
Eu1512 O1563 2.380 . S
Eu1512 O1564 2.432 . S
Eu1512 C1576 2.848 . S
C1513 C1516 1.429 . S
C1513 C1517 1.411 . S
C1513 N1520 1.377 . S
C1514 C1516 1.420 . S
C1514 C1518 1.423 . S
C1514 C1526 1.392 . S
C1515 C1517 1.420 . S
C1515 C1518 1.351 . S
C1515 H1538 0.931 . S
C1516 C1513 1.429 . S
C1516 C1514 1.420 . S
C1516 N1524 1.362 . S
C1517 C1513 1.411 . S
C1517 C1515 1.420 . S
C1517 C1522 1.395 . S
C1518 C1514 1.423 . S
C1518 C1515 1.351 . S
C1518 H1530 0.930 . S
C1519 C1521 1.400 . S
C1519 C1522 1.386 . S
C1519 H1531 0.930 . S
N1520 C1513 1.377 . S
N1520 C1521 1.321 . S
N1520 Eu1523 2.609 . S
C1521 C1519 1.400 . S
C1521 N1520 1.321 . S
C1521 H1528 0.930 . S
C1522 C1517 1.395 . S
C1522 C1519 1.386 . S
C1522 H1541 0.930 . S
Eu1523 N1520 2.609 . S
Eu1523 N1524 2.657 . S
Eu1523 O1557 2.380 . S
Eu1523 O1558 2.432 . S
Eu1523 O1562 2.558 . S
Eu1523 O1563 2.612 . S
Eu1523 O1565 2.339 . S
Eu1523 O1566 2.563 . S
Eu1523 O1567 2.419 . S
Eu1523 C1587 2.848 . S
N1524 C1516 1.362 . S
N1524 Eu1523 2.657 . S
N1524 C1525 1.334 . S
C1525 N1524 1.334 . S
C1525 C1527 1.413 . S
C1525 H1532 0.929 . S
C1526 C1514 1.392 . S
C1526 C1527 1.367 . S
C1526 H1534 0.930 . S
C1527 C1525 1.413 . S
C1527 C1526 1.367 . S
C1527 H1529 0.930 . S
H1528 C1521 0.930 . S
H1529 C1527 0.930 . S
H1530 C1518 0.930 . S
H1531 C1519 0.930 . S
H1532 C1525 0.929 . S
H1533 C1547 0.930 . S
H1534 C1526 0.930 . S
H1535 C1553 0.930 . S
H1536 C1544 0.929 . S
H1537 C1551 0.930 . S
H1538 C1515 0.931 . S
H1539 C1545 0.930 . S
H1540 C1578 0.930 . S
H1541 C1522 0.930 . S
H1542 C1577 0.931 . S
N1543 Eu1512 2.657 . S
N1543 C1544 1.334 . S
N1543 C1548 1.362 . S
C1544 H1536 0.929 . S
C1544 N1543 1.334 . S
C1544 C1547 1.413 . S
C1545 H1539 0.930 . S
C1545 C1546 1.392 . S
C1545 C1547 1.367 . S
C1546 C1545 1.392 . S
C1546 C1548 1.420 . S
C1546 C1578 1.423 . S
C1547 H1533 0.930 . S
C1547 C1544 1.413 . S
C1547 C1545 1.367 . S
C1548 N1543 1.362 . S
C1548 C1546 1.420 . S
C1548 C1552 1.429 . S
H1549 C1554 0.930 . S
N1550 Eu1512 2.609 . S
N1550 C1552 1.377 . S
N1550 C1553 1.321 . S
C1551 H1537 0.930 . S
C1551 C1553 1.400 . S
C1551 C1554 1.386 . S
C1552 C1548 1.429 . S
C1552 N1550 1.377 . S
C1552 C1555 1.411 . S
C1553 H1535 0.930 . S
C1553 N1550 1.321 . S
C1553 C1551 1.400 . S
C1554 H1549 0.930 . S
C1554 C1551 1.386 . S
C1554 C1555 1.395 . S
C1555 C1552 1.411 . S
C1555 C1554 1.395 . S
C1555 C1577 1.420 . S
O1556 Eu1512 2.558 . S
O1556 C1576 1.257 . S
O1557 Eu1512 2.612 . S
O1557 Eu1523 2.380 . S
O1557 C1568 1.276 . S
O1558 Eu1523 2.432 . S
O1558 C1575 1.264 . S
O1559 Eu1512 2.339 . S
O1559 C1575 1.254 . S
O1560 Eu1512 2.563 . S
O1560 C1568 1.235 . S
O1561 Eu1512 2.419 . S
O1561 C1576 1.249 . S
O1562 Eu1523 2.558 . S
O1562 C1587 1.257 . S
O1563 Eu1512 2.380 . S
O1563 Eu1523 2.612 . S
O1563 C1579 1.276 . S
O1564 Eu1512 2.432 . S
O1564 C1586 1.264 . S
O1565 Eu1523 2.339 . S
O1565 C1586 1.254 . S
O1566 Eu1523 2.563 . S
O1566 C1579 1.235 . S
O1567 Eu1523 2.419 . S
O1567 C1587 1.249 . S
C1568 O1557 1.276 . S
C1568 O1560 1.235 . S
C1569 C1571 1.393 . S
C1569 C1573 1.395 . S
C1569 C1576 1.492 . S
C1570 C1571 1.392 . S
C1570 C1572 1.386 . S
C1571 C1569 1.393 . S
C1571 C1570 1.392 . S
C1571 H1588 0.930 . S
C1572 C1570 1.386 . S
C1572 C1574 1.395 . S
C1572 H1589 0.930 . S
C1573 C1569 1.395 . S
C1573 C1574 1.379 . S
C1573 H1590 0.930 . S
C1574 C1572 1.395 . S
C1574 C1573 1.379 . S
C1574 H1591 0.930 . S
C1575 O1558 1.264 . S
C1575 O1559 1.254 . S
C1576 Eu1512 2.848 . S
C1576 O1556 1.257 . S
C1576 O1561 1.249 . S
C1576 C1569 1.492 . S
C1577 H1542 0.931 . S
C1577 C1555 1.420 . S
C1577 C1578 1.351 . S
C1578 H1540 0.930 . S
C1578 C1546 1.423 . S
C1578 C1577 1.351 . S
C1579 O1563 1.276 . S
C1579 O1566 1.235 . S
C1580 C1581 1.393 . S
C1580 C1584 1.395 . S
C1580 C1587 1.492 . S
C1581 C1580 1.393 . S
C1581 C1582 1.392 . S
C1581 H1592 0.930 . S
C1582 C1581 1.392 . S
C1582 C1583 1.386 . S
C1583 C1582 1.386 . S
C1583 C1585 1.395 . S
C1583 H1593 0.930 . S
C1584 C1580 1.395 . S
C1584 C1585 1.379 . S
C1584 H1594 0.930 . S
C1585 C1583 1.395 . S
C1585 C1584 1.379 . S
C1585 H1595 0.930 . S
C1586 O1564 1.264 . S
C1586 O1565 1.254 . S
C1587 Eu1523 2.848 . S
C1587 O1562 1.257 . S
C1587 O1567 1.249 . S
C1587 C1580 1.492 . S
H1588 C1571 0.930 . S
H1589 C1572 0.930 . S
H1590 C1573 0.930 . S
H1591 C1574 0.930 . S
H1592 C1581 0.930 . S
H1593 C1583 0.930 . S
H1594 C1584 0.930 . S
H1595 C1585 0.930 . S
Eu1596 N1627 2.657 . S
Eu1596 N1634 2.609 1_554 S
Eu1596 O1640 2.558 1_554 S
Eu1596 O1641 2.612 . S
Eu1596 O1643 2.339 . S
Eu1596 O1644 2.567 1_554 S
Eu1596 O1645 2.419 . S
Eu1596 O1647 2.380 . S
Eu1596 O1648 2.432 1_554 S
Eu1596 C1660 2.848 1_554 S
C1597 C1600 1.429 . S
C1597 C1601 1.411 . S
C1597 N1604 1.377 1_655 S
C1598 C1600 1.420 . S
C1598 C1602 1.423 . S
C1598 C1610 1.392 1_554 S
C1599 C1601 1.420 . S
C1599 C1602 1.351 . S
C1599 H1622 0.931 . S
C1600 C1597 1.429 . S
C1600 C1598 1.420 . S
C1600 N1608 1.362 . S
C1601 C1597 1.411 . S
C1601 C1599 1.420 . S
C1601 C1606 1.395 . S
C1602 C1598 1.423 . S
C1602 C1599 1.351 . S
C1602 H1614 0.930 . S
C1603 C1605 1.400 . S
C1603 C1606 1.386 1_455 S
C1603 H1615 0.930 . S
N1604 C1597 1.377 1_455 S
N1604 C1605 1.321 . S
N1604 Eu1607 2.609 . S
C1605 C1603 1.400 . S
C1605 N1604 1.321 . S
C1605 H1612 0.930 . S
C1606 C1601 1.395 . S
C1606 C1603 1.386 1_655 S
C1606 H1625 0.930 . S
Eu1607 N1604 2.609 . S
Eu1607 N1608 2.657 1_455 S
Eu1607 O1641 2.380 . S
Eu1607 O1642 2.432 . S
Eu1607 O1646 2.558 . S
Eu1607 O1647 2.612 . S
Eu1607 O1649 2.339 1_554 S
Eu1607 O1650 2.563 . S
Eu1607 O1651 2.419 1_455 S
Eu1607 C1671 2.848 1_455 S
N1608 C1600 1.362 . S
N1608 Eu1607 2.657 1_655 S
N1608 C1609 1.334 1_554 S
C1609 N1608 1.334 1_556 S
C1609 C1611 1.413 . S
C1609 H1616 0.930 . S
C1610 C1598 1.392 1_556 S
C1610 C1611 1.367 . S
C1610 H1618 0.930 . S
C1611 C1609 1.413 . S
C1611 C1610 1.367 . S
C1611 H1613 0.930 . S
H1612 C1605 0.930 . S
H1613 C1611 0.930 . S
H1614 C1602 0.930 . S
H1615 C1603 0.930 . S
H1616 C1609 0.930 . S
H1617 C1631 0.930 . S
H1618 C1610 0.930 . S
H1619 C1637 0.930 . S
H1620 C1628 0.929 . S
H1621 C1635 0.930 . S
H1622 C1599 0.931 . S
H1623 C1629 0.930 . S
H1624 C1662 0.930 . S
H1625 C1606 0.930 . S
H1626 C1661 0.931 . S
N1627 Eu1596 2.657 . S
N1627 C1628 1.334 . S
N1627 C1632 1.362 . S
C1628 H1620 0.929 . S
C1628 N1627 1.334 . S
C1628 C1631 1.413 . S
C1629 H1623 0.930 . S
C1629 C1630 1.392 . S
C1629 C1631 1.367 . S
C1630 C1629 1.392 . S
C1630 C1632 1.420 . S
C1630 C1662 1.423 . S
C1631 H1617 0.930 . S
C1631 C1628 1.413 . S
C1631 C1629 1.367 . S
C1632 N1627 1.362 . S
C1632 C1630 1.420 . S
C1632 C1636 1.429 1_554 S
H1633 C1638 0.930 . S
N1634 Eu1596 2.609 1_556 S
N1634 C1636 1.377 . S
N1634 C1637 1.321 . S
C1635 H1621 0.930 . S
C1635 C1637 1.400 . S
C1635 C1638 1.386 . S
C1636 C1632 1.429 1_556 S
C1636 N1634 1.377 . S
C1636 C1639 1.411 . S
C1637 H1619 0.930 . S
C1637 N1634 1.321 . S
C1637 C1635 1.400 . S
C1638 H1633 0.930 . S
C1638 C1635 1.386 . S
C1638 C1639 1.395 . S
C1639 C1636 1.411 . S
C1639 C1638 1.395 . S
C1639 C1661 1.420 . S
O1640 Eu1596 2.558 1_556 S
O1640 C1660 1.257 . S
O1641 Eu1596 2.612 . S
O1641 Eu1607 2.380 . S
O1641 C1652 1.276 . S
O1642 Eu1607 2.432 . S
O1642 C1659 1.264 . S
O1643 Eu1596 2.339 . S
O1643 C1659 1.254 . S
O1644 Eu1596 2.567 1_556 S
O1644 C1652 1.215 1_556 S
O1645 Eu1596 2.419 . S
O1645 C1660 1.249 1_554 S
O1646 Eu1607 2.558 . S
O1646 C1671 1.257 1_455 S
O1647 Eu1596 2.380 . S
O1647 Eu1607 2.612 . S
O1647 C1663 1.276 . S
O1648 Eu1596 2.432 1_556 S
O1648 C1670 1.264 . S
O1649 Eu1607 2.339 1_556 S
O1649 C1670 1.254 . S
O1650 Eu1607 2.563 . S
O1650 C1663 1.235 . S
O1651 Eu1607 2.419 1_655 S
O1651 C1671 1.249 . S
C1652 O1641 1.276 . S
C1652 O1644 1.215 1_554 S
C1653 C1655 1.393 1_556 S
C1653 C1657 1.395 . S
C1653 C1660 1.492 . S
C1654 C1655 1.392 1_556 S
C1654 C1656 1.386 . S
C1655 C1653 1.393 1_554 S
C1655 C1654 1.392 1_554 S
C1655 H1672 0.930 . S
C1656 C1654 1.386 . S
C1656 C1658 1.395 . S
C1656 H1673 0.930 . S
C1657 C1653 1.395 . S
C1657 C1658 1.379 . S
C1657 H1674 0.930 . S
C1658 C1656 1.395 . S
C1658 C1657 1.379 . S
C1658 H1675 0.930 . S
C1659 O1642 1.264 . S
C1659 O1643 1.254 . S
C1660 Eu1596 2.848 1_556 S
C1660 O1640 1.257 . S
C1660 O1645 1.249 1_556 S
C1660 C1653 1.492 . S
C1661 H1626 0.931 . S
C1661 C1639 1.420 . S
C1661 C1662 1.351 1_556 S
C1662 H1624 0.930 . S
C1662 C1630 1.423 . S
C1662 C1661 1.351 1_554 S
C1663 O1647 1.276 . S
C1663 O1650 1.235 . S
C1664 C1665 1.393 . S
C1664 C1668 1.395 . S
C1664 C1671 1.492 . S
C1665 C1664 1.393 . S
C1665 C1666 1.392 . S
C1665 H1676 0.930 . S
C1666 C1665 1.392 . S
C1666 C1667 1.386 . S
C1667 C1666 1.386 . S
C1667 C1669 1.395 . S
C1667 H1677 0.930 . S
C1668 C1664 1.395 . S
C1668 C1669 1.379 . S
C1668 H1678 0.930 . S
C1669 C1667 1.395 . S
C1669 C1668 1.379 . S
C1669 H1679 0.930 . S
C1670 O1648 1.264 . S
C1670 O1649 1.254 . S
C1671 Eu1607 2.848 1_655 S
C1671 O1646 1.257 1_655 S
C1671 O1651 1.249 . S
C1671 C1664 1.492 . S
H1672 C1655 0.930 . S
H1673 C1656 0.930 . S
H1674 C1657 0.930 . S
H1675 C1658 0.930 . S
H1676 C1665 0.930 . S
H1677 C1667 0.930 . S
H1678 C1668 0.930 . S
H1679 C1669 0.930 . S
H1680 C1692 0.930 . S
H1681 C1694 0.930 1_554 S
H1682 C1695 0.930 . S
H1683 C1699 0.961 1_655 S
H1684 C1699 0.961 1_655 S
H1685 C1699 0.963 1_655 S
H1686 C1700 0.960 . S
H1687 C1700 0.961 . S
H1688 C1700 0.959 . S
H1689 C1703 0.929 . S
H1690 C1704 0.931 . S
H1691 C1706 0.930 . S
C1692 H1680 0.930 . S
C1692 C1693 1.399 . S
C1692 C1697 1.399 . S
C1693 C1692 1.399 . S
C1693 C1694 1.376 . S
C1694 H1681 0.930 1_556 S
C1694 C1693 1.376 . S
C1694 C1695 1.388 1_556 S
C1695 H1682 0.930 . S
C1695 C1694 1.388 1_554 S
C1695 C1696 1.390 1_554 S
C1696 C1695 1.390 1_556 S
C1696 C1697 1.394 . S
C1696 C1702 1.465 1_556 S
C1697 C1692 1.399 . S
C1697 C1696 1.394 . S
C1697 C1698 1.516 . S
C1698 C1697 1.516 . S
C1698 C1699 1.499 . S
C1698 C1700 1.561 . S
C1698 C1701 1.526 . S
C1699 H1683 0.961 1_455 S
C1699 H1684 0.961 1_455 S
C1699 H1685 0.963 1_455 S
C1699 C1698 1.499 . S
C1700 H1686 0.960 . S
C1700 H1687 0.961 . S
C1700 H1688 0.959 . S
C1700 C1698 1.561 . S
C1701 C1698 1.526 . S
C1701 C1702 1.396 1_556 S
C1701 C1706 1.390 . S
C1702 C1696 1.465 1_554 S
C1702 C1701 1.396 1_554 S
C1702 C1703 1.399 . S
C1703 H1689 0.929 . S
C1703 C1702 1.399 . S
C1703 C1704 1.385 . S
C1704 H1690 0.931 . S
C1704 C1703 1.385 . S
C1704 C1705 1.389 . S
C1705 C1704 1.389 . S
C1705 C1706 1.387 1_554 S
C1706 H1691 0.930 . S
C1706 C1701 1.390 . S
C1706 C1705 1.387 1_556 S
H1707 C1719 0.930 . S
H1708 C1721 0.930 . S
H1709 C1722 0.930 . S
H1710 C1726 0.959 . S
H1711 C1726 0.959 . S
H1712 C1726 0.961 . S
H1713 C1727 0.960 . S
H1714 C1727 0.961 . S
H1715 C1727 0.959 . S
H1716 C1730 0.929 . S
H1717 C1731 0.931 . S
H1718 C1733 0.930 . S
C1719 H1707 0.930 . S
C1719 C1720 1.399 . S
C1719 C1724 1.399 . S
C1720 C1719 1.399 . S
C1720 C1721 1.376 . S
C1721 H1708 0.930 . S
C1721 C1720 1.376 . S
C1721 C1722 1.388 . S
C1722 H1709 0.930 . S
C1722 C1721 1.388 . S
C1722 C1723 1.390 . S
C1723 C1722 1.390 . S
C1723 C1724 1.394 . S
C1723 C1729 1.465 . S
C1724 C1719 1.399 . S
C1724 C1723 1.394 . S
C1724 C1725 1.516 . S
C1725 C1724 1.516 . S
C1725 C1726 1.502 . S
C1725 C1727 1.561 . S
C1725 C1728 1.526 . S
C1726 H1710 0.959 . S
C1726 H1711 0.959 . S
C1726 H1712 0.961 . S
C1726 C1725 1.502 . S
C1727 H1713 0.960 . S
C1727 H1714 0.961 . S
C1727 H1715 0.959 . S
C1727 C1725 1.561 . S
C1728 C1725 1.526 . S
C1728 C1729 1.396 . S
C1728 C1733 1.390 . S
C1729 C1723 1.465 . S
C1729 C1728 1.396 . S
C1729 C1730 1.399 . S
C1730 H1716 0.929 . S
C1730 C1729 1.399 . S
C1730 C1731 1.385 . S
C1731 H1717 0.931 . S
C1731 C1730 1.385 . S
C1731 C1732 1.389 . S
C1732 C1731 1.389 . S
C1732 C1733 1.387 . S
C1733 H1718 0.930 . S
C1733 C1728 1.390 . S
C1733 C1732 1.387 . S
H1734 C1746 0.930 . S
H1735 C1748 0.930 . S
H1736 C1749 0.930 . S
H1737 C1753 0.959 . S
H1738 C1753 0.959 . S
H1739 C1753 0.961 . S
H1740 C1754 0.960 . S
H1741 C1754 0.961 . S
H1742 C1754 0.959 . S
H1743 C1757 0.929 . S
H1744 C1758 0.931 . S
H1745 C1760 0.930 . S
C1746 H1734 0.930 . S
C1746 C1747 1.399 . S
C1746 C1751 1.399 . S
C1747 C1746 1.399 . S
C1747 C1748 1.376 . S
C1748 H1735 0.930 . S
C1748 C1747 1.376 . S
C1748 C1749 1.388 . S
C1749 H1736 0.930 . S
C1749 C1748 1.388 . S
C1749 C1750 1.390 . S
C1750 C1749 1.390 . S
C1750 C1751 1.394 . S
C1750 C1756 1.465 . S
C1751 C1746 1.399 . S
C1751 C1750 1.394 . S
C1751 C1752 1.516 . S
C1752 C1751 1.516 . S
C1752 C1753 1.502 . S
C1752 C1754 1.561 . S
C1752 C1755 1.526 . S
C1753 H1737 0.959 . S
C1753 H1738 0.959 . S
C1753 H1739 0.961 . S
C1753 C1752 1.502 . S
C1754 H1740 0.960 . S
C1754 H1741 0.961 . S
C1754 H1742 0.959 . S
C1754 C1752 1.561 . S
C1755 C1752 1.526 . S
C1755 C1756 1.396 . S
C1755 C1760 1.390 . S
C1756 C1750 1.465 . S
C1756 C1755 1.396 . S
C1756 C1757 1.399 . S
C1757 H1743 0.929 . S
C1757 C1756 1.399 . S
C1757 C1758 1.385 . S
C1758 H1744 0.931 . S
C1758 C1757 1.385 . S
C1758 C1759 1.389 . S
C1759 C1758 1.389 . S
C1759 C1760 1.387 . S
C1760 H1745 0.930 . S
C1760 C1755 1.390 . S
C1760 C1759 1.387 . S
H1761 C1773 0.930 . S
H1762 C1775 0.930 . S
H1763 C1776 0.930 . S
H1764 C1780 0.959 . S
H1765 C1780 0.959 . S
H1766 C1780 0.961 . S
H1767 C1781 0.960 . S
H1768 C1781 0.961 . S
H1769 C1781 0.959 . S
H1770 C1784 0.929 . S
H1771 C1785 0.931 . S
H1772 C1787 0.930 . S
C1773 H1761 0.930 . S
C1773 C1774 1.399 . S
C1773 C1778 1.399 . S
C1774 C1773 1.399 . S
C1774 C1775 1.376 . S
C1775 H1762 0.930 . S
C1775 C1774 1.376 . S
C1775 C1776 1.388 . S
C1776 H1763 0.930 . S
C1776 C1775 1.388 . S
C1776 C1777 1.390 . S
C1777 C1776 1.390 . S
C1777 C1778 1.394 . S
C1777 C1783 1.465 . S
C1778 C1773 1.399 . S
C1778 C1777 1.394 . S
C1778 C1779 1.516 . S
C1779 C1778 1.516 . S
C1779 C1780 1.502 . S
C1779 C1781 1.561 . S
C1779 C1782 1.526 . S
C1780 H1764 0.959 . S
C1780 H1765 0.959 . S
C1780 H1766 0.961 . S
C1780 C1779 1.502 . S
C1781 H1767 0.960 . S
C1781 H1768 0.961 . S
C1781 H1769 0.959 . S
C1781 C1779 1.561 . S
C1782 C1779 1.526 . S
C1782 C1783 1.396 . S
C1782 C1787 1.390 . S
C1783 C1777 1.465 . S
C1783 C1782 1.396 . S
C1783 C1784 1.399 . S
C1784 H1770 0.929 . S
C1784 C1783 1.399 . S
C1784 C1785 1.385 . S
C1785 H1771 0.931 . S
C1785 C1784 1.385 . S
C1785 C1786 1.389 . S
C1786 C1785 1.389 . S
C1786 C1787 1.387 . S
C1787 H1772 0.930 . S
C1787 C1782 1.390 . S
C1787 C1786 1.387 . S
H1788 C1800 0.930 1_655 S
H1789 C1802 0.930 . S
H1790 C1803 0.930 . S
H1791 C1807 0.959 . S
H1792 C1807 0.959 . S
H1793 C1807 0.961 . S
H1794 C1808 0.960 . S
H1795 C1808 0.961 . S
H1796 C1808 0.959 . S
H1797 C1811 0.929 . S
H1798 C1812 0.931 . S
H1799 C1814 0.930 . S
C1800 H1788 0.930 1_455 S
C1800 C1801 1.399 . S
C1800 C1805 1.399 . S
C1801 C1800 1.399 . S
C1801 C1802 1.376 . S
C1802 H1789 0.930 . S
C1802 C1801 1.376 . S
C1802 C1803 1.388 . S
C1803 H1790 0.930 . S
C1803 C1802 1.388 . S
C1803 C1804 1.390 . S
C1804 C1803 1.390 . S
C1804 C1805 1.394 . S
C1804 C1810 1.465 . S
C1805 C1800 1.399 . S
C1805 C1804 1.394 . S
C1805 C1806 1.516 . S
C1806 C1805 1.516 . S
C1806 C1807 1.502 1_455 S
C1806 C1808 1.561 . S
C1806 C1809 1.526 . S
C1807 H1791 0.959 . S
C1807 H1792 0.959 . S
C1807 H1793 0.961 . S
C1807 C1806 1.502 1_655 S
C1808 H1794 0.960 . S
C1808 H1795 0.961 . S
C1808 H1796 0.959 . S
C1808 C1806 1.561 . S
C1809 C1806 1.526 . S
C1809 C1810 1.396 . S
C1809 C1814 1.390 . S
C1810 C1804 1.465 . S
C1810 C1809 1.396 . S
C1810 C1811 1.399 . S
C1811 H1797 0.929 . S
C1811 C1810 1.399 . S
C1811 C1812 1.385 . S
C1812 H1798 0.931 . S
C1812 C1811 1.385 . S
C1812 C1813 1.389 . S
C1813 C1812 1.389 . S
C1813 C1814 1.387 . S
C1814 H1799 0.930 . S
C1814 C1809 1.390 . S
C1814 C1813 1.387 . S
H1815 C1827 0.930 . S
H1816 C1829 0.930 . S
H1817 C1830 0.930 . S
H1818 C1834 0.959 . S
H1819 C1834 0.959 . S
H1820 C1834 0.961 . S
H1821 C1835 0.960 . S
H1822 C1835 0.961 . S
H1823 C1835 0.959 . S
H1824 C1838 0.929 . S
H1825 C1839 0.931 . S
H1826 C1841 0.930 . S
C1827 H1815 0.930 . S
C1827 C1828 1.399 . S
C1827 C1832 1.399 . S
C1828 C1827 1.399 . S
C1828 C1829 1.376 . S
C1829 H1816 0.930 . S
C1829 C1828 1.376 . S
C1829 C1830 1.388 . S
C1830 H1817 0.930 . S
C1830 C1829 1.388 . S
C1830 C1831 1.390 . S
C1831 C1830 1.390 . S
C1831 C1832 1.394 . S
C1831 C1837 1.465 . S
C1832 C1827 1.399 . S
C1832 C1831 1.394 . S
C1832 C1833 1.516 . S
C1833 C1832 1.516 . S
C1833 C1834 1.502 . S
C1833 C1835 1.561 . S
C1833 C1836 1.526 . S
C1834 H1818 0.959 . S
C1834 H1819 0.959 . S
C1834 H1820 0.961 . S
C1834 C1833 1.502 . S
C1835 H1821 0.960 . S
C1835 H1822 0.961 . S
C1835 H1823 0.959 . S
C1835 C1833 1.561 . S
C1836 C1833 1.526 . S
C1836 C1837 1.396 . S
C1836 C1841 1.390 . S
C1837 C1831 1.465 . S
C1837 C1836 1.396 . S
C1837 C1838 1.399 . S
C1838 H1824 0.929 . S
C1838 C1837 1.399 . S
C1838 C1839 1.385 . S
C1839 H1825 0.931 . S
C1839 C1838 1.385 . S
C1839 C1840 1.389 . S
C1840 C1839 1.389 . S
C1840 C1841 1.387 . S
C1841 H1826 0.930 . S
C1841 C1836 1.390 . S
C1841 C1840 1.387 . S
H1842 C1854 0.930 . S
H1843 C1856 0.930 . S
H1844 C1857 0.930 . S
H1845 C1861 0.959 . S
H1846 C1861 0.959 . S
H1847 C1861 0.961 . S
H1848 C1862 0.960 . S
H1849 C1862 0.961 . S
H1850 C1862 0.959 . S
H1851 C1865 0.929 . S
H1852 C1866 0.931 . S
H1853 C1868 0.930 . S
C1854 H1842 0.930 . S
C1854 C1855 1.399 . S
C1854 C1859 1.399 . S
C1855 C1854 1.399 . S
C1855 C1856 1.376 . S
C1856 H1843 0.930 . S
C1856 C1855 1.376 . S
C1856 C1857 1.388 . S
C1857 H1844 0.930 . S
C1857 C1856 1.388 . S
C1857 C1858 1.390 . S
C1858 C1857 1.390 . S
C1858 C1859 1.394 . S
C1858 C1864 1.465 . S
C1859 C1854 1.399 . S
C1859 C1858 1.394 . S
C1859 C1860 1.516 . S
C1860 C1859 1.516 . S
C1860 C1861 1.502 . S
C1860 C1862 1.561 . S
C1860 C1863 1.526 . S
C1861 H1845 0.959 . S
C1861 H1846 0.959 . S
C1861 H1847 0.961 . S
C1861 C1860 1.502 . S
C1862 H1848 0.960 . S
C1862 H1849 0.961 . S
C1862 H1850 0.959 . S
C1862 C1860 1.561 . S
C1863 C1860 1.526 . S
C1863 C1864 1.396 . S
C1863 C1868 1.390 . S
C1864 C1858 1.465 . S
C1864 C1863 1.396 . S
C1864 C1865 1.399 . S
C1865 H1851 0.929 . S
C1865 C1864 1.399 . S
C1865 C1866 1.385 . S
C1866 H1852 0.931 . S
C1866 C1865 1.385 . S
C1866 C1867 1.389 . S
C1867 C1866 1.389 . S
C1867 C1868 1.387 . S
C1868 H1853 0.930 . S
C1868 C1863 1.390 . S
C1868 C1867 1.387 . S
H1869 C1881 0.930 . S
H1870 C1883 0.930 . S
H1871 C1884 0.930 . S
H1872 C1888 0.959 . S
H1873 C1888 0.959 . S
H1874 C1888 0.961 . S
H1875 C1889 0.960 . S
H1876 C1889 0.961 . S
H1877 C1889 0.959 . S
H1878 C1892 0.929 . S
H1879 C1893 0.931 . S
H1880 C1895 0.930 . S
C1881 H1869 0.930 . S
C1881 C1882 1.399 . S
C1881 C1886 1.399 . S
C1882 C1881 1.399 . S
C1882 C1883 1.376 . S
C1883 H1870 0.930 . S
C1883 C1882 1.376 . S
C1883 C1884 1.388 . S
C1884 H1871 0.930 . S
C1884 C1883 1.388 . S
C1884 C1885 1.390 . S
C1885 C1884 1.390 . S
C1885 C1886 1.394 . S
C1885 C1891 1.465 . S
C1886 C1881 1.399 . S
C1886 C1885 1.394 . S
C1886 C1887 1.516 . S
C1887 C1886 1.516 . S
C1887 C1888 1.502 . S
C1887 C1889 1.561 . S
C1887 C1890 1.526 . S
C1888 H1872 0.959 . S
C1888 H1873 0.959 . S
C1888 H1874 0.961 . S
C1888 C1887 1.502 . S
C1889 H1875 0.960 . S
C1889 H1876 0.961 . S
C1889 H1877 0.959 . S
C1889 C1887 1.561 . S
C1890 C1887 1.526 . S
C1890 C1891 1.396 . S
C1890 C1895 1.390 . S
C1891 C1885 1.465 . S
C1891 C1890 1.396 . S
C1891 C1892 1.399 . S
C1892 H1878 0.929 . S
C1892 C1891 1.399 . S
C1892 C1893 1.385 . S
C1893 H1879 0.931 . S
C1893 C1892 1.385 . S
C1893 C1894 1.389 . S
C1894 C1893 1.389 . S
C1894 C1895 1.387 . S
C1895 H1880 0.930 . S
C1895 C1890 1.390 . S
C1895 C1894 1.387 . S
H1896 C1908 0.930 . S
H1897 C1910 0.930 . S
H1898 C1911 0.930 . S
H1899 C1915 0.959 . S
H1900 C1915 0.959 . S
H1901 C1915 0.961 . S
H1902 C1916 0.960 . S
H1903 C1916 0.961 . S
H1904 C1916 0.959 . S
H1905 C1919 0.929 . S
H1906 C1920 0.931 . S
H1907 C1922 0.930 . S
C1908 H1896 0.930 . S
C1908 C1909 1.399 . S
C1908 C1913 1.399 1_655 S
C1909 C1908 1.399 . S
C1909 C1910 1.376 . S
C1910 H1897 0.930 . S
C1910 C1909 1.376 . S
C1910 C1911 1.388 . S
C1911 H1898 0.930 . S
C1911 C1910 1.388 . S
C1911 C1912 1.390 1_655 S
C1912 C1911 1.390 1_455 S
C1912 C1913 1.394 . S
C1912 C1918 1.465 . S
C1913 C1908 1.399 1_455 S
C1913 C1912 1.394 . S
C1913 C1914 1.516 . S
C1914 C1913 1.516 . S
C1914 C1915 1.502 . S
C1914 C1916 1.561 1_455 S
C1914 C1917 1.526 . S
C1915 H1899 0.959 . S
C1915 H1900 0.959 . S
C1915 H1901 0.961 . S
C1915 C1914 1.502 . S
C1916 H1902 0.960 . S
C1916 H1903 0.961 . S
C1916 H1904 0.959 . S
C1916 C1914 1.561 1_655 S
C1917 C1914 1.526 . S
C1917 C1918 1.396 . S
C1917 C1922 1.390 . S
C1918 C1912 1.465 . S
C1918 C1917 1.396 . S
C1918 C1919 1.399 . S
C1919 H1905 0.929 . S
C1919 C1918 1.399 . S
C1919 C1920 1.385 . S
C1920 H1906 0.931 . S
C1920 C1919 1.385 . S
C1920 C1921 1.389 . S
C1921 C1920 1.389 . S
C1921 C1922 1.387 . S
C1922 H1907 0.930 . S
C1922 C1917 1.390 . S
C1922 C1921 1.387 . S
H1923 C1935 0.930 . S
H1924 C1937 0.930 . S
H1925 C1938 0.930 . S
H1926 C1942 0.959 . S
H1927 C1942 0.959 . S
H1928 C1942 0.961 . S
H1929 C1943 0.960 . S
H1930 C1943 0.961 . S
H1931 C1943 0.959 . S
H1932 C1946 0.929 . S
H1933 C1947 0.931 . S
H1934 C1949 0.930 . S
C1935 H1923 0.930 . S
C1935 C1936 1.399 . S
C1935 C1940 1.399 . S
C1936 C1935 1.399 . S
C1936 C1937 1.376 . S
C1937 H1924 0.930 . S
C1937 C1936 1.376 . S
C1937 C1938 1.388 . S
C1938 H1925 0.930 . S
C1938 C1937 1.388 . S
C1938 C1939 1.390 . S
C1939 C1938 1.390 . S
C1939 C1940 1.394 . S
C1939 C1945 1.465 . S
C1940 C1935 1.399 . S
C1940 C1939 1.394 . S
C1940 C1941 1.516 . S
C1941 C1940 1.516 . S
C1941 C1942 1.502 . S
C1941 C1943 1.561 . S
C1941 C1944 1.526 . S
C1942 H1926 0.959 . S
C1942 H1927 0.959 . S
C1942 H1928 0.961 . S
C1942 C1941 1.502 . S
C1943 H1929 0.960 . S
C1943 H1930 0.961 . S
C1943 H1931 0.959 . S
C1943 C1941 1.561 . S
C1944 C1941 1.526 . S
C1944 C1945 1.396 . S
C1944 C1949 1.390 . S
C1945 C1939 1.465 . S
C1945 C1944 1.396 . S
C1945 C1946 1.399 . S
C1946 H1932 0.929 . S
C1946 C1945 1.399 . S
C1946 C1947 1.385 . S
C1947 H1933 0.931 . S
C1947 C1946 1.385 . S
C1947 C1948 1.389 . S
C1948 C1947 1.389 . S
C1948 C1949 1.387 . S
C1949 H1934 0.930 . S
C1949 C1944 1.390 . S
C1949 C1948 1.387 . S
H1950 C1962 0.930 . S
H1951 C1964 0.930 . S
H1952 C1965 0.930 1_565 S
H1953 C1969 0.959 . S
H1954 C1969 0.959 . S
H1955 C1969 0.961 . S
H1956 C1970 0.960 . S
H1957 C1970 0.961 . S
H1958 C1970 0.959 . S
H1959 C1973 0.929 1_565 S
H1960 C1974 0.931 1_565 S
H1961 C1976 0.930 . S
C1962 H1950 0.930 . S
C1962 C1963 1.399 . S
C1962 C1967 1.399 . S
C1963 C1962 1.399 . S
C1963 C1964 1.376 . S
C1964 H1951 0.930 . S
C1964 C1963 1.376 . S
C1964 C1965 1.388 . S
C1965 H1952 0.930 1_545 S
C1965 C1964 1.388 . S
C1965 C1966 1.390 . S
C1966 C1965 1.390 . S
C1966 C1967 1.394 . S
C1966 C1972 1.465 . S
C1967 C1962 1.399 . S
C1967 C1966 1.394 . S
C1967 C1968 1.516 . S
C1968 C1967 1.516 . S
C1968 C1969 1.502 . S
C1968 C1970 1.561 . S
C1968 C1971 1.526 . S
C1969 H1953 0.959 . S
C1969 H1954 0.959 . S
C1969 H1955 0.961 . S
C1969 C1968 1.502 . S
C1970 H1956 0.960 . S
C1970 H1957 0.961 . S
C1970 H1958 0.959 . S
C1970 C1968 1.561 . S
C1971 C1968 1.526 . S
C1971 C1972 1.396 . S
C1971 C1976 1.390 . S
C1972 C1966 1.465 . S
C1972 C1971 1.396 . S
C1972 C1973 1.399 . S
C1973 H1959 0.929 1_545 S
C1973 C1972 1.399 . S
C1973 C1974 1.385 . S
C1974 H1960 0.931 1_545 S
C1974 C1973 1.385 . S
C1974 C1975 1.389 . S
C1975 C1974 1.389 . S
C1975 C1976 1.387 . S
C1976 H1961 0.930 . S
C1976 C1971 1.390 . S
C1976 C1975 1.387 . S
H1977 C1989 0.930 . S
H1978 C1991 0.930 . S
H1979 C1992 0.930 . S
H1980 C1996 0.959 . S
H1981 C1996 0.959 . S
H1982 C1996 0.961 . S
H1983 C1997 0.960 . S
H1984 C1997 0.961 . S
H1985 C1997 0.959 . S
H1986 C2000 0.929 . S
H1987 C2001 0.931 . S
H1988 C2003 0.930 . S
C1989 H1977 0.930 . S
C1989 C1990 1.399 . S
C1989 C1994 1.399 . S
C1990 C1989 1.399 . S
C1990 C1991 1.376 . S
C1991 H1978 0.930 . S
C1991 C1990 1.376 . S
C1991 C1992 1.388 . S
C1992 H1979 0.930 . S
C1992 C1991 1.388 . S
C1992 C1993 1.390 . S
C1993 C1992 1.390 . S
C1993 C1994 1.394 . S
C1993 C1999 1.465 . S
C1994 C1989 1.399 . S
C1994 C1993 1.394 . S
C1994 C1995 1.516 . S
C1995 C1994 1.516 . S
C1995 C1996 1.502 . S
C1995 C1997 1.561 . S
C1995 C1998 1.526 . S
C1996 H1980 0.959 . S
C1996 H1981 0.959 . S
C1996 H1982 0.961 . S
C1996 C1995 1.502 . S
C1997 H1983 0.960 . S
C1997 H1984 0.961 . S
C1997 H1985 0.959 . S
C1997 C1995 1.561 . S
C1998 C1995 1.526 . S
C1998 C1999 1.396 . S
C1998 C2003 1.390 . S
C1999 C1993 1.465 . S
C1999 C1998 1.396 . S
C1999 C2000 1.399 . S
C2000 H1986 0.929 . S
C2000 C1999 1.399 . S
C2000 C2001 1.385 . S
C2001 H1987 0.931 . S
C2001 C2000 1.385 . S
C2001 C2002 1.389 . S
C2002 C2001 1.389 . S
C2002 C2003 1.387 . S
C2003 H1988 0.930 . S
C2003 C1998 1.390 . S
C2003 C2002 1.387 . S
H2004 C2016 0.926 . S
H2005 C2018 0.930 . S
H2006 C2019 0.930 . S
H2007 C2023 0.959 . S
H2008 C2023 0.959 . S
H2009 C2023 0.961 . S
H2010 C2024 0.960 1_655 S
H2011 C2024 0.961 . S
H2012 C2024 0.959 1_655 S
H2013 C2027 0.929 . S
H2014 C2028 0.931 . S
H2015 C2030 0.930 . S
C2016 H2004 0.926 . S
C2016 C2017 1.384 1_455 S
C2016 C2021 1.421 . S
C2017 C2016 1.384 1_655 S
C2017 C2018 1.376 . S
C2018 H2005 0.930 . S
C2018 C2017 1.376 . S
C2018 C2019 1.388 . S
C2019 H2006 0.930 . S
C2019 C2018 1.388 . S
C2019 C2020 1.390 1_655 S
C2020 C2019 1.390 1_455 S
C2020 C2021 1.394 . S
C2020 C2026 1.465 . S
C2021 C2016 1.421 . S
C2021 C2020 1.394 . S
C2021 C2022 1.516 . S
C2022 C2021 1.516 . S
C2022 C2023 1.502 . S
C2022 C2024 1.561 . S
C2022 C2025 1.526 . S
C2023 H2007 0.959 . S
C2023 H2008 0.959 . S
C2023 H2009 0.961 . S
C2023 C2022 1.502 . S
C2024 H2010 0.960 1_455 S
C2024 H2011 0.961 . S
C2024 H2012 0.959 1_455 S
C2024 C2022 1.561 . S
C2025 C2022 1.526 . S
C2025 C2026 1.396 . S
C2025 C2030 1.390 . S
C2026 C2020 1.465 . S
C2026 C2025 1.396 . S
C2026 C2027 1.399 . S
C2027 H2013 0.929 . S
C2027 C2026 1.399 . S
C2027 C2028 1.385 . S
C2028 H2014 0.931 . S
C2028 C2027 1.385 . S
C2028 C2029 1.389 . S
C2029 C2028 1.389 . S
C2029 C2030 1.387 . S
C2030 H2015 0.930 . S
C2030 C2025 1.390 . S
C2030 C2029 1.387 . S
H2031 C2043 0.930 . S
H2032 C2045 0.930 . S
H2033 C2046 0.930 . S
H2034 C2050 0.959 . S
H2035 C2050 0.959 . S
H2036 C2050 0.961 . S
H2037 C2051 0.960 . S
H2038 C2051 0.961 . S
H2039 C2051 0.959 . S
H2040 C2054 0.929 . S
H2041 C2055 0.931 . S
H2042 C2057 0.930 . S
C2043 H2031 0.930 . S
C2043 C2044 1.399 . S
C2043 C2048 1.399 . S
C2044 C2043 1.399 . S
C2044 C2045 1.376 . S
C2045 H2032 0.930 . S
C2045 C2044 1.376 . S
C2045 C2046 1.388 . S
C2046 H2033 0.930 . S
C2046 C2045 1.388 . S
C2046 C2047 1.390 . S
C2047 C2046 1.390 . S
C2047 C2048 1.394 . S
C2047 C2053 1.465 . S
C2048 C2043 1.399 . S
C2048 C2047 1.394 . S
C2048 C2049 1.516 . S
C2049 C2048 1.516 . S
C2049 C2050 1.502 . S
C2049 C2051 1.561 . S
C2049 C2052 1.526 . S
C2050 H2034 0.959 . S
C2050 H2035 0.959 . S
C2050 H2036 0.961 . S
C2050 C2049 1.502 . S
C2051 H2037 0.960 . S
C2051 H2038 0.961 . S
C2051 H2039 0.959 . S
C2051 C2049 1.561 . S
C2052 C2049 1.526 . S
C2052 C2053 1.396 . S
C2052 C2057 1.390 . S
C2053 C2047 1.465 . S
C2053 C2052 1.396 . S
C2053 C2054 1.399 . S
C2054 H2040 0.929 . S
C2054 C2053 1.399 . S
C2054 C2055 1.385 . S
C2055 H2041 0.931 . S
C2055 C2054 1.385 . S
C2055 C2056 1.389 . S
C2056 C2055 1.389 . S
C2056 C2057 1.387 . S
C2057 H2042 0.930 . S
C2057 C2052 1.390 . S
C2057 C2056 1.387 . S
H2058 C2070 0.930 . S
H2059 C2072 0.930 . S
H2060 C2073 0.930 . S
H2061 C2077 0.959 . S
H2062 C2077 0.959 1_565 S
H2063 C2077 0.961 1_565 S
H2064 C2078 0.960 . S
H2065 C2078 0.961 . S
H2066 C2078 0.959 . S
H2067 C2081 0.929 . S
H2068 C2082 0.931 . S
H2069 C2084 0.930 . S
C2070 H2058 0.930 . S
C2070 C2071 1.399 . S
C2070 C2075 1.399 . S
C2071 C2070 1.399 . S
C2071 C2072 1.376 . S
C2072 H2059 0.930 . S
C2072 C2071 1.376 . S
C2072 C2073 1.388 . S
C2073 H2060 0.930 . S
C2073 C2072 1.388 . S
C2073 C2074 1.390 . S
C2074 C2073 1.390 . S
C2074 C2075 1.394 . S
C2074 C2080 1.465 . S
C2075 C2070 1.399 . S
C2075 C2074 1.394 . S
C2075 C2076 1.516 . S
C2076 C2075 1.516 . S
C2076 C2077 1.502 . S
C2076 C2078 1.561 . S
C2076 C2079 1.526 . S
C2077 H2061 0.959 . S
C2077 H2062 0.959 1_545 S
C2077 H2063 0.961 1_545 S
C2077 C2076 1.502 . S
C2078 H2064 0.960 . S
C2078 H2065 0.961 . S
C2078 H2066 0.959 . S
C2078 C2076 1.561 . S
C2079 C2076 1.526 . S
C2079 C2080 1.396 . S
C2079 C2084 1.390 . S
C2080 C2074 1.465 . S
C2080 C2079 1.396 . S
C2080 C2081 1.399 . S
C2081 H2067 0.929 . S
C2081 C2080 1.399 . S
C2081 C2082 1.385 . S
C2082 H2068 0.931 . S
C2082 C2081 1.385 . S
C2082 C2083 1.389 . S
C2083 C2082 1.389 . S
C2083 C2084 1.387 . S
C2084 H2069 0.930 . S
C2084 C2079 1.390 . S
C2084 C2083 1.387 . S
H2085 C2097 0.930 . S
H2086 C2099 0.930 . S
H2087 C2100 0.930 . S
H2088 C2104 0.959 . S
H2089 C2104 0.959 . S
H2090 C2104 0.961 . S
H2091 C2105 0.960 . S
H2092 C2105 0.961 . S
H2093 C2105 0.959 . S
H2094 C2108 0.929 . S
H2095 C2109 0.931 . S
H2096 C2111 0.930 . S
C2097 H2085 0.930 . S
C2097 C2098 1.399 . S
C2097 C2102 1.399 . S
C2098 C2097 1.399 . S
C2098 C2099 1.376 . S
C2099 H2086 0.930 . S
C2099 C2098 1.376 . S
C2099 C2100 1.388 . S
C2100 H2087 0.930 . S
C2100 C2099 1.388 . S
C2100 C2101 1.390 . S
C2101 C2100 1.390 . S
C2101 C2102 1.394 . S
C2101 C2107 1.465 . S
C2102 C2097 1.399 . S
C2102 C2101 1.394 . S
C2102 C2103 1.516 . S
C2103 C2102 1.516 . S
C2103 C2104 1.502 . S
C2103 C2105 1.561 . S
C2103 C2106 1.526 . S
C2104 H2088 0.959 . S
C2104 H2089 0.959 . S
C2104 H2090 0.961 . S
C2104 C2103 1.502 . S
C2105 H2091 0.960 . S
C2105 H2092 0.961 . S
C2105 H2093 0.959 . S
C2105 C2103 1.561 . S
C2106 C2103 1.526 . S
C2106 C2107 1.396 . S
C2106 C2111 1.390 . S
C2107 C2101 1.465 . S
C2107 C2106 1.396 . S
C2107 C2108 1.399 . S
C2108 H2094 0.929 . S
C2108 C2107 1.399 . S
C2108 C2109 1.385 . S
C2109 H2095 0.931 . S
C2109 C2108 1.385 . S
C2109 C2110 1.389 . S
C2110 C2109 1.389 . S
C2110 C2111 1.387 . S
C2111 H2096 0.930 . S
C2111 C2106 1.390 . S
C2111 C2110 1.387 . S
H2112 C2124 0.930 . S
H2113 C2126 0.930 1_556 S
H2114 C2127 0.930 1_556 S
H2115 C2131 0.959 . S
H2116 C2131 0.959 . S
H2117 C2131 0.961 . S
H2118 C2132 0.960 . S
H2119 C2132 0.961 . S
H2120 C2132 0.959 1_545 S
H2121 C2135 0.929 1_556 S
H2122 C2136 0.931 . S
H2123 C2138 0.924 1_565 S
C2124 H2112 0.930 . S
C2124 C2125 1.399 . S
C2124 C2129 1.399 . S
C2125 C2124 1.399 . S
C2125 C2126 1.376 . S
C2126 H2113 0.930 1_554 S
C2126 C2125 1.376 . S
C2126 C2127 1.388 1_565 S
C2127 H2114 0.930 1_554 S
C2127 C2126 1.388 1_545 S
C2127 C2128 1.390 1_545 S
C2128 C2127 1.390 1_565 S
C2128 C2129 1.394 . S
C2128 C2134 1.465 1_565 S
C2129 C2124 1.399 . S
C2129 C2128 1.394 . S
C2129 C2130 1.516 . S
C2130 C2129 1.516 . S
C2130 C2131 1.502 . S
C2130 C2132 1.561 . S
C2130 C2133 1.526 . S
C2131 H2115 0.959 . S
C2131 H2116 0.959 . S
C2131 H2117 0.961 . S
C2131 C2130 1.502 . S
C2132 H2118 0.960 . S
C2132 H2119 0.961 . S
C2132 H2120 0.959 1_565 S
C2132 C2130 1.561 . S
C2133 C2130 1.526 . S
C2133 C2134 1.396 1_565 S
C2133 C2138 1.384 1_565 S
C2134 C2128 1.465 1_545 S
C2134 C2133 1.396 1_545 S
C2134 C2135 1.399 . S
C2135 H2121 0.929 1_554 S
C2135 C2134 1.399 . S
C2135 C2136 1.385 . S
C2136 H2122 0.931 . S
C2136 C2135 1.385 . S
C2136 C2137 1.389 . S
C2137 C2136 1.389 . S
C2137 C2138 1.398 . S
C2138 H2123 0.924 1_545 S
C2138 C2133 1.384 1_545 S
C2138 C2137 1.398 . S
H2139 C2151 0.930 . S
H2140 C2153 0.930 . S
H2141 C2154 0.930 . S
H2142 C2158 0.959 . S
H2143 C2158 0.959 . S
H2144 C2158 0.961 . S
H2145 C2159 0.960 . S
H2146 C2159 0.961 . S
H2147 C2159 0.959 . S
H2148 C2162 0.929 . S
H2149 C2163 0.931 . S
H2150 C2165 0.930 . S
C2151 H2139 0.930 . S
C2151 C2152 1.399 1_554 S
C2151 C2156 1.399 . S
C2152 C2151 1.399 1_556 S
C2152 C2153 1.376 . S
C2153 H2140 0.930 . S
C2153 C2152 1.376 . S
C2153 C2154 1.388 . S
C2154 H2141 0.930 . S
C2154 C2153 1.388 . S
C2154 C2155 1.390 . S
C2155 C2154 1.390 . S
C2155 C2156 1.394 1_556 S
C2155 C2161 1.465 . S
C2156 C2151 1.399 . S
C2156 C2155 1.394 1_554 S
C2156 C2157 1.516 . S
C2157 C2156 1.516 . S
C2157 C2158 1.502 . S
C2157 C2159 1.561 . S
C2157 C2160 1.526 . S
C2158 H2142 0.959 . S
C2158 H2143 0.959 . S
C2158 H2144 0.961 . S
C2158 C2157 1.502 . S
C2159 H2145 0.960 . S
C2159 H2146 0.961 . S
C2159 H2147 0.959 . S
C2159 C2157 1.561 . S
C2160 C2157 1.526 . S
C2160 C2161 1.396 1_554 S
C2160 C2165 1.390 . S
C2161 C2155 1.465 . S
C2161 C2160 1.396 1_556 S
C2161 C2162 1.399 . S
C2162 H2148 0.929 . S
C2162 C2161 1.399 . S
C2162 C2163 1.385 . S
C2163 H2149 0.931 . S
C2163 C2162 1.385 . S
C2163 C2164 1.389 . S
C2164 C2163 1.389 . S
C2164 C2165 1.387 1_556 S
C2165 H2150 0.930 . S
C2165 C2160 1.390 . S
C2165 C2164 1.387 1_554 S
H2166 C2178 0.930 . S
H2167 C2180 0.930 . S
H2168 C2181 0.930 . S
H2169 C2185 0.959 . S
H2170 C2185 0.959 . S
H2171 C2185 0.961 . S
H2172 C2186 0.960 . S
H2173 C2186 0.961 . S
H2174 C2186 0.959 . S
H2175 C2189 0.929 . S
H2176 C2190 0.931 . S
H2177 C2192 0.930 . S
C2178 H2166 0.930 . S
C2178 C2179 1.399 . S
C2178 C2183 1.399 . S
C2179 C2178 1.399 . S
C2179 C2180 1.376 . S
C2180 H2167 0.930 . S
C2180 C2179 1.376 . S
C2180 C2181 1.388 . S
C2181 H2168 0.930 . S
C2181 C2180 1.388 . S
C2181 C2182 1.390 . S
C2182 C2181 1.390 . S
C2182 C2183 1.394 . S
C2182 C2188 1.465 . S
C2183 C2178 1.399 . S
C2183 C2182 1.394 . S
C2183 C2184 1.516 . S
C2184 C2183 1.516 . S
C2184 C2185 1.502 . S
C2184 C2186 1.561 . S
C2184 C2187 1.526 . S
C2185 H2169 0.959 . S
C2185 H2170 0.959 . S
C2185 H2171 0.961 . S
C2185 C2184 1.502 . S
C2186 H2172 0.960 . S
C2186 H2173 0.961 . S
C2186 H2174 0.959 . S
C2186 C2184 1.561 . S
C2187 C2184 1.526 . S
C2187 C2188 1.396 . S
C2187 C2192 1.390 . S
C2188 C2182 1.465 . S
C2188 C2187 1.396 . S
C2188 C2189 1.399 . S
C2189 H2175 0.929 . S
C2189 C2188 1.399 . S
C2189 C2190 1.385 . S
C2190 H2176 0.931 . S
C2190 C2189 1.385 . S
C2190 C2191 1.389 . S
C2191 C2190 1.389 . S
C2191 C2192 1.387 . S
C2192 H2177 0.930 . S
C2192 C2187 1.390 . S
C2192 C2191 1.387 . S
H2193 C2205 0.930 . S
H2194 C2207 0.930 . S
H2195 C2208 0.930 . S
H2196 C2212 0.959 . S
H2197 C2212 0.959 . S
H2198 C2212 0.961 . S
H2199 C2213 0.960 . S
H2200 C2213 0.961 . S
H2201 C2213 0.959 . S
H2202 C2216 0.929 . S
H2203 C2217 0.931 1_455 S
H2204 C2219 0.930 . S
C2205 H2193 0.930 . S
C2205 C2206 1.399 . S
C2205 C2210 1.399 . S
C2206 C2205 1.399 . S
C2206 C2207 1.376 . S
C2207 H2194 0.930 . S
C2207 C2206 1.376 . S
C2207 C2208 1.388 . S
C2208 H2195 0.930 . S
C2208 C2207 1.388 . S
C2208 C2209 1.390 . S
C2209 C2208 1.390 . S
C2209 C2210 1.394 . S
C2209 C2215 1.465 . S
C2210 C2205 1.399 . S
C2210 C2209 1.394 . S
C2210 C2211 1.516 . S
C2211 C2210 1.516 . S
C2211 C2212 1.502 . S
C2211 C2213 1.561 . S
C2211 C2214 1.526 . S
C2212 H2196 0.959 . S
C2212 H2197 0.959 . S
C2212 H2198 0.961 . S
C2212 C2211 1.502 . S
C2213 H2199 0.960 . S
C2213 H2200 0.961 . S
C2213 H2201 0.959 . S
C2213 C2211 1.561 . S
C2214 C2211 1.526 . S
C2214 C2215 1.396 . S
C2214 C2219 1.390 . S
C2215 C2209 1.465 . S
C2215 C2214 1.396 . S
C2215 C2216 1.399 . S
C2216 H2202 0.929 . S
C2216 C2215 1.399 . S
C2216 C2217 1.385 . S
C2217 H2203 0.931 1_655 S
C2217 C2216 1.385 . S
C2217 C2218 1.389 1_655 S
C2218 C2217 1.389 1_455 S
C2218 C2219 1.387 1_455 S
C2219 H2204 0.930 . S
C2219 C2214 1.390 . S
C2219 C2218 1.387 1_655 S
H2220 C2232 0.930 . S
H2221 C2234 0.930 . S
H2222 C2235 0.930 . S
H2223 C2239 0.959 . S
H2224 C2239 0.959 . S
H2225 C2239 0.961 . S
H2226 C2240 0.960 . S
H2227 C2240 0.961 . S
H2228 C2240 0.959 . S
H2229 C2243 0.929 . S
H2230 C2244 0.931 . S
H2231 C2246 0.930 . S
C2232 H2220 0.930 . S
C2232 C2233 1.399 . S
C2232 C2237 1.399 . S
C2233 C2232 1.399 . S
C2233 C2234 1.376 . S
C2234 H2221 0.930 . S
C2234 C2233 1.376 . S
C2234 C2235 1.388 . S
C2235 H2222 0.930 . S
C2235 C2234 1.388 . S
C2235 C2236 1.390 . S
C2236 C2235 1.390 . S
C2236 C2237 1.394 . S
C2236 C2242 1.465 . S
C2237 C2232 1.399 . S
C2237 C2236 1.394 . S
C2237 C2238 1.516 . S
C2238 C2237 1.516 . S
C2238 C2239 1.502 . S
C2238 C2240 1.561 . S
C2238 C2241 1.526 . S
C2239 H2223 0.959 . S
C2239 H2224 0.959 . S
C2239 H2225 0.961 . S
C2239 C2238 1.502 . S
C2240 H2226 0.960 . S
C2240 H2227 0.961 . S
C2240 H2228 0.959 . S
C2240 C2238 1.561 . S
C2241 C2238 1.526 . S
C2241 C2242 1.396 . S
C2241 C2246 1.390 . S
C2242 C2236 1.465 . S
C2242 C2241 1.396 . S
C2242 C2243 1.399 . S
C2243 H2229 0.929 . S
C2243 C2242 1.399 . S
C2243 C2244 1.385 . S
C2244 H2230 0.931 . S
C2244 C2243 1.385 . S
C2244 C2245 1.389 . S
C2245 C2244 1.389 . S
C2245 C2246 1.387 . S
C2246 H2231 0.930 . S
C2246 C2241 1.390 . S
C2246 C2245 1.387 . S
H2247 C2259 0.930 . S
H2248 C2261 0.930 . S
H2249 C2262 0.930 . S
H2250 C2266 0.959 . S
H2251 C2266 0.959 . S
H2252 C2266 0.961 . S
H2253 C2267 0.960 . S
H2254 C2267 0.961 . S
H2255 C2267 0.959 . S
H2256 C2270 0.929 . S
H2257 C2271 0.931 . S
H2258 C2273 0.930 . S
C2259 H2247 0.930 . S
C2259 C2260 1.399 . S
C2259 C2264 1.399 . S
C2260 C2259 1.399 . S
C2260 C2261 1.376 . S
C2261 H2248 0.930 . S
C2261 C2260 1.376 . S
C2261 C2262 1.388 . S
C2262 H2249 0.930 . S
C2262 C2261 1.388 . S
C2262 C2263 1.390 . S
C2263 C2262 1.390 . S
C2263 C2264 1.394 . S
C2263 C2269 1.465 . S
C2264 C2259 1.399 . S
C2264 C2263 1.394 . S
C2264 C2265 1.516 . S
C2265 C2264 1.516 . S
C2265 C2266 1.502 . S
C2265 C2267 1.561 . S
C2265 C2268 1.526 . S
C2266 H2250 0.959 . S
C2266 H2251 0.959 . S
C2266 H2252 0.961 . S
C2266 C2265 1.502 . S
C2267 H2253 0.960 . S
C2267 H2254 0.961 . S
C2267 H2255 0.959 . S
C2267 C2265 1.561 . S
C2268 C2265 1.526 . S
C2268 C2269 1.396 . S
C2268 C2273 1.390 . S
C2269 C2263 1.465 . S
C2269 C2268 1.396 . S
C2269 C2270 1.399 . S
C2270 H2256 0.929 . S
C2270 C2269 1.399 . S
C2270 C2271 1.385 . S
C2271 H2257 0.931 . S
C2271 C2270 1.385 . S
C2271 C2272 1.389 . S
C2272 C2271 1.389 . S
C2272 C2273 1.387 . S
C2273 H2258 0.930 . S
C2273 C2268 1.390 . S
C2273 C2272 1.387 . S
H2274 C2286 0.930 . S
H2275 C2288 0.930 . S
H2276 C2289 0.930 . S
H2277 C2293 0.959 . S
H2278 C2293 0.959 . S
H2279 C2293 0.961 . S
H2280 C2294 0.960 . S
H2281 C2294 0.961 . S
H2282 C2294 0.959 . S
H2283 C2297 0.929 . S
H2284 C2298 0.931 . S
H2285 C2300 0.930 . S
C2286 H2274 0.930 . S
C2286 C2287 1.399 . S
C2286 C2291 1.399 . S
C2287 C2286 1.399 . S
C2287 C2288 1.376 . S
C2288 H2275 0.930 . S
C2288 C2287 1.376 . S
C2288 C2289 1.388 . S
C2289 H2276 0.930 . S
C2289 C2288 1.388 . S
C2289 C2290 1.390 . S
C2290 C2289 1.390 . S
C2290 C2291 1.394 . S
C2290 C2296 1.465 . S
C2291 C2286 1.399 . S
C2291 C2290 1.394 . S
C2291 C2292 1.516 . S
C2292 C2291 1.516 . S
C2292 C2293 1.502 . S
C2292 C2294 1.561 . S
C2292 C2295 1.526 . S
C2293 H2277 0.959 . S
C2293 H2278 0.959 . S
C2293 H2279 0.961 . S
C2293 C2292 1.502 . S
C2294 H2280 0.960 . S
C2294 H2281 0.961 . S
C2294 H2282 0.959 . S
C2294 C2292 1.561 . S
C2295 C2292 1.526 . S
C2295 C2296 1.396 . S
C2295 C2300 1.390 . S
C2296 C2290 1.465 . S
C2296 C2295 1.396 . S
C2296 C2297 1.399 . S
C2297 H2283 0.929 . S
C2297 C2296 1.399 . S
C2297 C2298 1.385 . S
C2298 H2284 0.931 . S
C2298 C2297 1.385 . S
C2298 C2299 1.389 . S
C2299 C2298 1.389 . S
C2299 C2300 1.387 . S
C2300 H2285 0.930 . S
C2300 C2295 1.390 . S
C2300 C2299 1.387 . S
H2301 C2313 0.930 . S
H2302 C2315 0.930 . S
H2303 C2316 0.930 . S
H2304 C2320 0.959 . S
H2305 C2320 0.959 . S
H2306 C2320 0.961 . S
H2307 C2321 0.960 . S
H2308 C2321 0.961 . S
H2309 C2321 0.959 . S
H2310 C2324 0.929 . S
H2311 C2325 0.931 . S
H2312 C2327 0.930 . S
C2313 H2301 0.930 . S
C2313 C2314 1.399 . S
C2313 C2318 1.399 . S
C2314 C2313 1.399 . S
C2314 C2315 1.376 . S
C2315 H2302 0.930 . S
C2315 C2314 1.376 . S
C2315 C2316 1.388 . S
C2316 H2303 0.930 . S
C2316 C2315 1.388 . S
C2316 C2317 1.390 . S
C2317 C2316 1.390 . S
C2317 C2318 1.394 . S
C2317 C2323 1.465 . S
C2318 C2313 1.399 . S
C2318 C2317 1.394 . S
C2318 C2319 1.516 . S
C2319 C2318 1.516 . S
C2319 C2320 1.502 . S
C2319 C2321 1.561 . S
C2319 C2322 1.526 . S
C2320 H2304 0.959 . S
C2320 H2305 0.959 . S
C2320 H2306 0.961 . S
C2320 C2319 1.502 . S
C2321 H2307 0.960 . S
C2321 H2308 0.961 . S
C2321 H2309 0.959 . S
C2321 C2319 1.561 . S
C2322 C2319 1.526 . S
C2322 C2323 1.396 . S
C2322 C2327 1.390 . S
C2323 C2317 1.465 . S
C2323 C2322 1.396 . S
C2323 C2324 1.399 . S
C2324 H2310 0.929 . S
C2324 C2323 1.399 . S
C2324 C2325 1.385 . S
C2325 H2311 0.931 . S
C2325 C2324 1.385 . S
C2325 C2326 1.389 . S
C2326 C2325 1.389 . S
C2326 C2327 1.387 . S
C2327 H2312 0.930 . S
C2327 C2322 1.390 . S
C2327 C2326 1.387 . S
H2328 C2340 0.930 . S
H2329 C2342 0.930 . S
H2330 C2343 0.930 . S
H2331 C2347 0.959 . S
H2332 C2347 0.959 . S
H2333 C2347 0.961 . S
H2334 C2348 0.960 . S
H2335 C2348 0.961 . S
H2336 C2348 0.959 . S
H2337 C2351 0.929 . S
H2338 C2352 0.931 . S
H2339 C2354 0.930 . S
C2340 H2328 0.930 . S
C2340 C2341 1.399 . S
C2340 C2345 1.399 . S
C2341 C2340 1.399 . S
C2341 C2342 1.376 . S
C2342 H2329 0.930 . S
C2342 C2341 1.376 . S
C2342 C2343 1.388 . S
C2343 H2330 0.930 . S
C2343 C2342 1.388 . S
C2343 C2344 1.390 . S
C2344 C2343 1.390 . S
C2344 C2345 1.394 . S
C2344 C2350 1.465 . S
C2345 C2340 1.399 . S
C2345 C2344 1.394 . S
C2345 C2346 1.516 . S
C2346 C2345 1.516 . S
C2346 C2347 1.502 . S
C2346 C2348 1.561 . S
C2346 C2349 1.526 . S
C2347 H2331 0.959 . S
C2347 H2332 0.959 . S
C2347 H2333 0.961 . S
C2347 C2346 1.502 . S
C2348 H2334 0.960 . S
C2348 H2335 0.961 . S
C2348 H2336 0.959 . S
C2348 C2346 1.561 . S
C2349 C2346 1.526 . S
C2349 C2350 1.396 . S
C2349 C2354 1.390 . S
C2350 C2344 1.465 . S
C2350 C2349 1.396 . S
C2350 C2351 1.399 . S
C2351 H2337 0.929 . S
C2351 C2350 1.399 . S
C2351 C2352 1.385 . S
C2352 H2338 0.931 . S
C2352 C2351 1.385 . S
C2352 C2353 1.389 . S
C2353 C2352 1.389 . S
C2353 C2354 1.387 . S
C2354 H2339 0.930 . S
C2354 C2349 1.390 . S
C2354 C2353 1.387 . S
H2355 C2367 0.930 . S
H2356 C2369 0.930 . S
H2357 C2370 0.930 . S
H2358 C2374 0.959 . S
H2359 C2374 0.959 . S
H2360 C2374 0.961 . S
H2361 C2375 0.960 . S
H2362 C2375 0.961 . S
H2363 C2375 0.959 . S
H2364 C2378 0.929 . S
H2365 C2379 0.931 . S
H2366 C2381 0.930 . S
C2367 H2355 0.930 . S
C2367 C2368 1.399 . S
C2367 C2372 1.399 . S
C2368 C2367 1.399 . S
C2368 C2369 1.376 . S
C2369 H2356 0.930 . S
C2369 C2368 1.376 . S
C2369 C2370 1.388 . S
C2370 H2357 0.930 . S
C2370 C2369 1.388 . S
C2370 C2371 1.390 . S
C2371 C2370 1.390 . S
C2371 C2372 1.394 . S
C2371 C2377 1.465 . S
C2372 C2367 1.399 . S
C2372 C2371 1.394 . S
C2372 C2373 1.516 . S
C2373 C2372 1.516 . S
C2373 C2374 1.502 . S
C2373 C2375 1.561 . S
C2373 C2376 1.526 . S
C2374 H2358 0.959 . S
C2374 H2359 0.959 . S
C2374 H2360 0.961 . S
C2374 C2373 1.502 . S
C2375 H2361 0.960 . S
C2375 H2362 0.961 . S
C2375 H2363 0.959 . S
C2375 C2373 1.561 . S
C2376 C2373 1.526 . S
C2376 C2377 1.396 . S
C2376 C2381 1.390 . S
C2377 C2371 1.465 . S
C2377 C2376 1.396 . S
C2377 C2378 1.399 . S
C2378 H2364 0.929 . S
C2378 C2377 1.399 . S
C2378 C2379 1.385 . S
C2379 H2365 0.931 . S
C2379 C2378 1.385 . S
C2379 C2380 1.389 . S
C2380 C2379 1.389 . S
C2380 C2381 1.387 . S
C2381 H2366 0.930 . S
C2381 C2376 1.390 . S
C2381 C2380 1.387 . S
H2382 C2394 0.930 . S
H2383 C2396 0.930 . S
H2384 C2397 0.930 . S
H2385 C2401 0.959 . S
H2386 C2401 0.959 . S
H2387 C2401 0.961 . S
H2388 C2402 0.960 . S
H2389 C2402 0.961 . S
H2390 C2402 0.959 . S
H2391 C2405 0.929 . S
H2392 C2406 0.931 . S
H2393 C2408 0.930 . S
C2394 H2382 0.930 . S
C2394 C2395 1.399 . S
C2394 C2399 1.399 . S
C2395 C2394 1.399 . S
C2395 C2396 1.376 . S
C2396 H2383 0.930 . S
C2396 C2395 1.376 . S
C2396 C2397 1.388 . S
C2397 H2384 0.930 . S
C2397 C2396 1.388 . S
C2397 C2398 1.390 . S
C2398 C2397 1.390 . S
C2398 C2399 1.394 . S
C2398 C2404 1.465 . S
C2399 C2394 1.399 . S
C2399 C2398 1.394 . S
C2399 C2400 1.516 . S
C2400 C2399 1.516 . S
C2400 C2401 1.502 . S
C2400 C2402 1.561 . S
C2400 C2403 1.526 . S
C2401 H2385 0.959 . S
C2401 H2386 0.959 . S
C2401 H2387 0.961 . S
C2401 C2400 1.502 . S
C2402 H2388 0.960 . S
C2402 H2389 0.961 . S
C2402 H2390 0.959 . S
C2402 C2400 1.561 . S
C2403 C2400 1.526 . S
C2403 C2404 1.396 . S
C2403 C2408 1.390 . S
C2404 C2398 1.465 . S
C2404 C2403 1.396 . S
C2404 C2405 1.399 . S
C2405 H2391 0.929 . S
C2405 C2404 1.399 . S
C2405 C2406 1.385 . S
C2406 H2392 0.931 . S
C2406 C2405 1.385 . S
C2406 C2407 1.389 . S
C2407 C2406 1.389 . S
C2407 C2408 1.387 . S
C2408 H2393 0.930 . S
C2408 C2403 1.390 . S
C2408 C2407 1.387 . S
H2409 C2421 0.930 . S
H2410 C2423 0.930 . S
H2411 C2424 0.930 . S
H2412 C2428 0.959 . S
H2413 C2428 0.959 . S
H2414 C2428 0.961 . S
H2415 C2429 0.960 . S
H2416 C2429 0.961 . S
H2417 C2429 0.959 . S
H2418 C2432 0.929 . S
H2419 C2433 0.931 . S
H2420 C2435 0.930 . S
C2421 H2409 0.930 . S
C2421 C2422 1.399 . S
C2421 C2426 1.399 . S
C2422 C2421 1.399 . S
C2422 C2423 1.376 . S
C2423 H2410 0.930 . S
C2423 C2422 1.376 . S
C2423 C2424 1.388 . S
C2424 H2411 0.930 . S
C2424 C2423 1.388 . S
C2424 C2425 1.390 . S
C2425 C2424 1.390 . S
C2425 C2426 1.394 . S
C2425 C2431 1.465 . S
C2426 C2421 1.399 . S
C2426 C2425 1.394 . S
C2426 C2427 1.516 . S
C2427 C2426 1.516 . S
C2427 C2428 1.502 . S
C2427 C2429 1.561 . S
C2427 C2430 1.526 . S
C2428 H2412 0.959 . S
C2428 H2413 0.959 . S
C2428 H2414 0.961 . S
C2428 C2427 1.502 . S
C2429 H2415 0.960 . S
C2429 H2416 0.961 . S
C2429 H2417 0.959 . S
C2429 C2427 1.561 . S
C2430 C2427 1.526 . S
C2430 C2431 1.396 . S
C2430 C2435 1.390 . S
C2431 C2425 1.465 . S
C2431 C2430 1.396 . S
C2431 C2432 1.399 . S
C2432 H2418 0.929 . S
C2432 C2431 1.399 . S
C2432 C2433 1.385 . S
C2433 H2419 0.931 . S
C2433 C2432 1.385 . S
C2433 C2434 1.389 . S
C2434 C2433 1.389 . S
C2434 C2435 1.387 . S
C2435 H2420 0.930 . S
C2435 C2430 1.390 . S
C2435 C2434 1.387 . S
H2436 C2448 0.930 . S
H2437 C2450 0.930 . S
H2438 C2451 0.930 . S
H2439 C2455 0.959 . S
H2440 C2455 0.959 . S
H2441 C2455 0.961 . S
H2442 C2456 0.960 . S
H2443 C2456 0.961 . S
H2444 C2456 0.959 . S
H2445 C2459 0.929 . S
H2446 C2460 0.931 . S
H2447 C2462 0.930 . S
C2448 H2436 0.930 . S
C2448 C2449 1.399 . S
C2448 C2453 1.399 . S
C2449 C2448 1.399 . S
C2449 C2450 1.376 . S
C2450 H2437 0.930 . S
C2450 C2449 1.376 . S
C2450 C2451 1.388 . S
C2451 H2438 0.930 . S
C2451 C2450 1.388 . S
C2451 C2452 1.390 . S
C2452 C2451 1.390 . S
C2452 C2453 1.394 . S
C2452 C2458 1.465 . S
C2453 C2448 1.399 . S
C2453 C2452 1.394 . S
C2453 C2454 1.516 . S
C2454 C2453 1.516 . S
C2454 C2455 1.502 . S
C2454 C2456 1.561 . S
C2454 C2457 1.526 . S
C2455 H2439 0.959 . S
C2455 H2440 0.959 . S
C2455 H2441 0.961 . S
C2455 C2454 1.502 . S
C2456 H2442 0.960 . S
C2456 H2443 0.961 . S
C2456 H2444 0.959 . S
C2456 C2454 1.561 . S
C2457 C2454 1.526 . S
C2457 C2458 1.396 . S
C2457 C2462 1.390 . S
C2458 C2452 1.465 . S
C2458 C2457 1.396 . S
C2458 C2459 1.399 . S
C2459 H2445 0.929 . S
C2459 C2458 1.399 . S
C2459 C2460 1.385 . S
C2460 H2446 0.931 . S
C2460 C2459 1.385 . S
C2460 C2461 1.389 . S
C2461 C2460 1.389 . S
C2461 C2462 1.387 . S
C2462 H2447 0.930 . S
C2462 C2457 1.390 . S
C2462 C2461 1.387 . S
H2463 C2475 0.930 . S
H2464 C2477 0.930 . S
H2465 C2478 0.930 . S
H2466 C2482 0.959 . S
H2467 C2482 0.959 . S
H2468 C2482 0.961 . S
H2469 C2483 0.960 . S
H2470 C2483 0.961 . S
H2471 C2483 0.959 . S
H2472 C2486 0.929 . S
H2473 C2487 0.931 . S
H2474 C2489 0.930 . S
C2475 H2463 0.930 . S
C2475 C2476 1.399 . S
C2475 C2480 1.399 . S
C2476 C2475 1.399 . S
C2476 C2477 1.376 . S
C2477 H2464 0.930 . S
C2477 C2476 1.376 . S
C2477 C2478 1.388 . S
C2478 H2465 0.930 . S
C2478 C2477 1.388 . S
C2478 C2479 1.390 . S
C2479 C2478 1.390 . S
C2479 C2480 1.394 . S
C2479 C2485 1.465 . S
C2480 C2475 1.399 . S
C2480 C2479 1.394 . S
C2480 C2481 1.516 . S
C2481 C2480 1.516 . S
C2481 C2482 1.502 . S
C2481 C2483 1.561 . S
C2481 C2484 1.526 . S
C2482 H2466 0.959 . S
C2482 H2467 0.959 . S
C2482 H2468 0.961 . S
C2482 C2481 1.502 . S
C2483 H2469 0.960 . S
C2483 H2470 0.961 . S
C2483 H2471 0.959 . S
C2483 C2481 1.561 . S
C2484 C2481 1.526 . S
C2484 C2485 1.396 . S
C2484 C2489 1.390 . S
C2485 C2479 1.465 . S
C2485 C2484 1.396 . S
C2485 C2486 1.399 . S
C2486 H2472 0.929 . S
C2486 C2485 1.399 . S
C2486 C2487 1.385 . S
C2487 H2473 0.931 . S
C2487 C2486 1.385 . S
C2487 C2488 1.389 . S
C2488 C2487 1.389 . S
C2488 C2489 1.387 . S
C2489 H2474 0.930 . S
C2489 C2484 1.390 . S
C2489 C2488 1.387 . S
H2490 C2502 0.930 . S
H2491 C2504 0.930 . S
H2492 C2505 0.930 . S
H2493 C2509 0.959 . S
H2494 C2509 0.959 . S
H2495 C2509 0.961 . S
H2496 C2510 0.960 . S
H2497 C2510 0.961 . S
H2498 C2510 0.959 . S
H2499 C2513 0.929 1_554 S
H2500 C2514 0.931 . S
H2501 C2516 0.930 . S
C2502 H2490 0.930 . S
C2502 C2503 1.399 . S
C2502 C2507 1.399 . S
C2503 C2502 1.399 . S
C2503 C2504 1.376 . S
C2504 H2491 0.930 . S
C2504 C2503 1.376 . S
C2504 C2505 1.388 . S
C2505 H2492 0.930 . S
C2505 C2504 1.388 . S
C2505 C2506 1.390 . S
C2506 C2505 1.390 . S
C2506 C2507 1.394 . S
C2506 C2512 1.465 . S
C2507 C2502 1.399 . S
C2507 C2506 1.394 . S
C2507 C2508 1.516 . S
C2508 C2507 1.516 . S
C2508 C2509 1.502 . S
C2508 C2510 1.561 . S
C2508 C2511 1.526 . S
C2509 H2493 0.959 . S
C2509 H2494 0.959 . S
C2509 H2495 0.961 . S
C2509 C2508 1.502 . S
C2510 H2496 0.960 . S
C2510 H2497 0.961 . S
C2510 H2498 0.959 . S
C2510 C2508 1.561 . S
C2511 C2508 1.526 . S
C2511 C2512 1.396 . S
C2511 C2516 1.390 . S
C2512 C2506 1.465 . S
C2512 C2511 1.396 . S
C2512 C2513 1.399 . S
C2513 H2499 0.929 1_556 S
C2513 C2512 1.399 . S
C2513 C2514 1.385 1_556 S
C2514 H2500 0.931 . S
C2514 C2513 1.385 1_554 S
C2514 C2515 1.389 1_554 S
C2515 C2514 1.389 1_556 S
C2515 C2516 1.387 . S
C2516 H2501 0.930 . S
C2516 C2511 1.390 . S
C2516 C2515 1.387 . S
H2517 C2529 0.930 . S
H2518 C2531 0.930 . S
H2519 C2532 0.930 . S
H2520 C2536 0.959 . S
H2521 C2536 0.959 . S
H2522 C2536 0.961 . S
H2523 C2537 0.960 . S
H2524 C2537 0.961 . S
H2525 C2537 0.959 . S
H2526 C2540 0.929 . S
H2527 C2541 0.931 . S
H2528 C2543 0.930 . S
C2529 H2517 0.930 . S
C2529 C2530 1.399 . S
C2529 C2534 1.399 . S
C2530 C2529 1.399 . S
C2530 C2531 1.376 . S
C2531 H2518 0.930 . S
C2531 C2530 1.376 . S
C2531 C2532 1.388 . S
C2532 H2519 0.930 . S
C2532 C2531 1.388 . S
C2532 C2533 1.390 . S
C2533 C2532 1.390 . S
C2533 C2534 1.394 . S
C2533 C2539 1.465 . S
C2534 C2529 1.399 . S
C2534 C2533 1.394 . S
C2534 C2535 1.516 . S
C2535 C2534 1.516 . S
C2535 C2536 1.502 . S
C2535 C2537 1.561 . S
C2535 C2538 1.526 . S
C2536 H2520 0.959 . S
C2536 H2521 0.959 . S
C2536 H2522 0.961 . S
C2536 C2535 1.502 . S
C2537 H2523 0.960 . S
C2537 H2524 0.961 . S
C2537 H2525 0.959 . S
C2537 C2535 1.561 . S
C2538 C2535 1.526 . S
C2538 C2539 1.396 . S
C2538 C2543 1.390 . S
C2539 C2533 1.465 . S
C2539 C2538 1.396 . S
C2539 C2540 1.399 . S
C2540 H2526 0.929 . S
C2540 C2539 1.399 . S
C2540 C2541 1.385 . S
C2541 H2527 0.931 . S
C2541 C2540 1.385 . S
C2541 C2542 1.389 . S
C2542 C2541 1.389 . S
C2542 C2543 1.387 . S
C2543 H2528 0.930 . S
C2543 C2538 1.390 . S
C2543 C2542 1.387 . S
H2544 C2556 0.930 . S
H2545 C2558 0.930 . S
H2546 C2559 0.930 . S
H2547 C2563 0.959 . S
H2548 C2563 0.959 . S
H2549 C2563 0.961 . S
H2550 C2564 0.960 . S
H2551 C2564 0.961 . S
H2552 C2564 0.959 . S
H2553 C2567 0.929 . S
H2554 C2568 0.931 . S
H2555 C2570 0.930 . S
C2556 H2544 0.930 . S
C2556 C2557 1.399 1_565 S
C2556 C2561 1.399 . S
C2557 C2556 1.399 1_545 S
C2557 C2558 1.376 . S
C2558 H2545 0.930 . S
C2558 C2557 1.376 . S
C2558 C2559 1.388 . S
C2559 H2546 0.930 . S
C2559 C2558 1.388 . S
C2559 C2560 1.390 . S
C2560 C2559 1.390 . S
C2560 C2561 1.394 1_545 S
C2560 C2566 1.465 . S
C2561 C2556 1.399 . S
C2561 C2560 1.394 1_565 S
C2561 C2562 1.516 . S
C2562 C2561 1.516 . S
C2562 C2563 1.502 . S
C2562 C2564 1.561 . S
C2562 C2565 1.512 1_565 S
C2563 H2547 0.959 . S
C2563 H2548 0.959 . S
C2563 H2549 0.961 . S
C2563 C2562 1.502 . S
C2564 H2550 0.960 . S
C2564 H2551 0.961 . S
C2564 H2552 0.959 . S
C2564 C2562 1.561 . S
C2565 C2562 1.512 1_545 S
C2565 C2566 1.417 . S
C2565 C2570 1.386 1_545 S
C2566 C2560 1.465 . S
C2566 C2565 1.417 . S
C2566 C2567 1.399 . S
C2567 H2553 0.929 . S
C2567 C2566 1.399 . S
C2567 C2568 1.385 . S
C2568 H2554 0.931 . S
C2568 C2567 1.385 . S
C2568 C2569 1.389 . S
C2569 C2568 1.389 . S
C2569 C2570 1.387 1_545 S
C2570 H2555 0.930 . S
C2570 C2565 1.386 1_565 S
C2570 C2569 1.387 1_565 S
H2571 C2583 0.930 . S
H2572 C2585 0.930 . S
H2573 C2586 0.930 . S
H2574 C2590 0.959 . S
H2575 C2590 0.959 . S
H2576 C2590 0.961 . S
H2577 C2591 0.960 . S
H2578 C2591 0.961 . S
H2579 C2591 0.959 . S
H2580 C2594 0.929 . S
H2581 C2595 0.931 . S
H2582 C2597 0.930 . S
C2583 H2571 0.930 . S
C2583 C2584 1.399 . S
C2583 C2588 1.399 . S
C2584 C2583 1.399 . S
C2584 C2585 1.376 . S
C2585 H2572 0.930 . S
C2585 C2584 1.376 . S
C2585 C2586 1.388 . S
C2586 H2573 0.930 . S
C2586 C2585 1.388 . S
C2586 C2587 1.390 . S
C2587 C2586 1.390 . S
C2587 C2588 1.394 . S
C2587 C2593 1.465 . S
C2588 C2583 1.399 . S
C2588 C2587 1.394 . S
C2588 C2589 1.516 . S
C2589 C2588 1.516 . S
C2589 C2590 1.502 . S
C2589 C2591 1.561 . S
C2589 C2592 1.526 . S
C2590 H2574 0.959 . S
C2590 H2575 0.959 . S
C2590 H2576 0.961 . S
C2590 C2589 1.502 . S
C2591 H2577 0.960 . S
C2591 H2578 0.961 . S
C2591 H2579 0.959 . S
C2591 C2589 1.561 . S
C2592 C2589 1.526 . S
C2592 C2593 1.396 . S
C2592 C2597 1.390 . S
C2593 C2587 1.465 . S
C2593 C2592 1.396 . S
C2593 C2594 1.399 . S
C2594 H2580 0.929 . S
C2594 C2593 1.399 . S
C2594 C2595 1.385 . S
C2595 H2581 0.931 . S
C2595 C2594 1.385 . S
C2595 C2596 1.389 . S
C2596 C2595 1.389 . S
C2596 C2597 1.387 . S
C2597 H2582 0.930 . S
C2597 C2592 1.390 . S
C2597 C2596 1.387 . S
H2598 C2610 0.930 . S
H2599 C2612 0.930 . S
H2600 C2613 0.930 . S
H2601 C2617 0.959 . S
H2602 C2617 0.959 . S
H2603 C2617 0.961 . S
H2604 C2618 0.960 . S
H2605 C2618 0.961 . S
H2606 C2618 0.959 . S
H2607 C2621 0.929 . S
H2608 C2622 0.931 . S
H2609 C2624 0.930 . S
C2610 H2598 0.930 . S
C2610 C2611 1.399 . S
C2610 C2615 1.399 . S
C2611 C2610 1.399 . S
C2611 C2612 1.376 . S
C2612 H2599 0.930 . S
C2612 C2611 1.376 . S
C2612 C2613 1.388 . S
C2613 H2600 0.930 . S
C2613 C2612 1.388 . S
C2613 C2614 1.390 . S
C2614 C2613 1.390 . S
C2614 C2615 1.394 . S
C2614 C2620 1.465 . S
C2615 C2610 1.399 . S
C2615 C2614 1.394 . S
C2615 C2616 1.516 . S
C2616 C2615 1.516 . S
C2616 C2617 1.502 . S
C2616 C2618 1.561 . S
C2616 C2619 1.526 . S
C2617 H2601 0.959 . S
C2617 H2602 0.959 . S
C2617 H2603 0.961 . S
C2617 C2616 1.502 . S
C2618 H2604 0.960 . S
C2618 H2605 0.961 . S
C2618 H2606 0.959 . S
C2618 C2616 1.561 . S
C2619 C2616 1.526 . S
C2619 C2620 1.396 . S
C2619 C2624 1.390 . S
C2620 C2614 1.465 . S
C2620 C2619 1.396 . S
C2620 C2621 1.399 . S
C2621 H2607 0.929 . S
C2621 C2620 1.399 . S
C2621 C2622 1.385 . S
C2622 H2608 0.931 . S
C2622 C2621 1.385 . S
C2622 C2623 1.389 . S
C2623 C2622 1.389 . S
C2623 C2624 1.387 . S
C2624 H2609 0.930 . S
C2624 C2619 1.390 . S
C2624 C2623 1.387 . S
H2625 C2637 0.930 . S
H2626 C2639 0.930 . S
H2627 C2640 0.930 . S
H2628 C2644 0.959 . S
H2629 C2644 0.959 . S
H2630 C2644 0.961 . S
H2631 C2645 0.960 . S
H2632 C2645 0.961 . S
H2633 C2645 0.959 . S
H2634 C2648 0.929 . S
H2635 C2649 0.931 . S
H2636 C2651 0.930 . S
C2637 H2625 0.930 . S
C2637 C2638 1.399 . S
C2637 C2642 1.399 . S
C2638 C2637 1.399 . S
C2638 C2639 1.376 . S
C2639 H2626 0.930 . S
C2639 C2638 1.376 . S
C2639 C2640 1.388 . S
C2640 H2627 0.930 . S
C2640 C2639 1.388 . S
C2640 C2641 1.390 . S
C2641 C2640 1.390 . S
C2641 C2642 1.394 . S
C2641 C2647 1.465 . S
C2642 C2637 1.399 . S
C2642 C2641 1.394 . S
C2642 C2643 1.516 . S
C2643 C2642 1.516 . S
C2643 C2644 1.502 . S
C2643 C2645 1.561 . S
C2643 C2646 1.526 . S
C2644 H2628 0.959 . S
C2644 H2629 0.959 . S
C2644 H2630 0.961 . S
C2644 C2643 1.502 . S
C2645 H2631 0.960 . S
C2645 H2632 0.961 . S
C2645 H2633 0.959 . S
C2645 C2643 1.561 . S
C2646 C2643 1.526 . S
C2646 C2647 1.396 . S
C2646 C2651 1.390 . S
C2647 C2641 1.465 . S
C2647 C2646 1.396 . S
C2647 C2648 1.399 . S
C2648 H2634 0.929 . S
C2648 C2647 1.399 . S
C2648 C2649 1.385 . S
C2649 H2635 0.931 . S
C2649 C2648 1.385 . S
C2649 C2650 1.389 . S
C2650 C2649 1.389 . S
C2650 C2651 1.387 . S
C2651 H2636 0.930 . S
C2651 C2646 1.390 . S
C2651 C2650 1.387 . S
H2652 C2664 0.930 . S
H2653 C2666 0.930 . S
H2654 C2667 0.930 . S
H2655 C2671 0.959 . S
H2656 C2671 0.959 . S
H2657 C2671 0.961 . S
H2658 C2672 0.960 . S
H2659 C2672 0.961 . S
H2660 C2672 0.959 . S
H2661 C2675 0.929 . S
H2662 C2676 0.931 1_565 S
H2663 C2678 0.930 . S
C2664 H2652 0.930 . S
C2664 C2665 1.399 1_545 S
C2664 C2669 1.399 . S
C2665 C2664 1.399 1_565 S
C2665 C2666 1.376 . S
C2666 H2653 0.930 . S
C2666 C2665 1.376 . S
C2666 C2667 1.388 . S
C2667 H2654 0.930 . S
C2667 C2666 1.388 . S
C2667 C2668 1.390 . S
C2668 C2667 1.390 . S
C2668 C2669 1.394 1_565 S
C2668 C2674 1.465 1_565 S
C2669 C2664 1.399 . S
C2669 C2668 1.394 1_545 S
C2669 C2670 1.516 . S
C2670 C2669 1.516 . S
C2670 C2671 1.502 . S
C2670 C2672 1.561 . S
C2670 C2673 1.526 . S
C2671 H2655 0.959 . S
C2671 H2656 0.959 . S
C2671 H2657 0.961 . S
C2671 C2670 1.502 . S
C2672 H2658 0.960 . S
C2672 H2659 0.961 . S
C2672 H2660 0.959 . S
C2672 C2670 1.561 . S
C2673 C2670 1.526 . S
C2673 C2674 1.396 . S
C2673 C2678 1.390 . S
C2674 C2668 1.465 1_545 S
C2674 C2673 1.396 . S
C2674 C2675 1.399 1_545 S
C2675 H2661 0.929 . S
C2675 C2674 1.399 1_565 S
C2675 C2676 1.385 1_565 S
C2676 H2662 0.931 1_545 S
C2676 C2675 1.385 1_545 S
C2676 C2677 1.389 . S
C2677 C2676 1.389 . S
C2677 C2678 1.387 . S
C2678 H2663 0.930 . S
C2678 C2673 1.390 . S
C2678 C2677 1.387 . S
H2679 C2691 0.930 . S
H2680 C2693 0.930 . S
H2681 C2694 0.930 . S
H2682 C2698 0.959 . S
H2683 C2698 0.959 . S
H2684 C2698 0.961 . S
H2685 C2699 0.960 . S
H2686 C2699 0.961 . S
H2687 C2699 0.959 . S
H2688 C2702 0.929 . S
H2689 C2703 0.931 . S
H2690 C2705 0.930 . S
C2691 H2679 0.930 . S
C2691 C2692 1.399 . S
C2691 C2696 1.399 . S
C2692 C2691 1.399 . S
C2692 C2693 1.376 . S
C2693 H2680 0.930 . S
C2693 C2692 1.376 . S
C2693 C2694 1.388 . S
C2694 H2681 0.930 . S
C2694 C2693 1.388 . S
C2694 C2695 1.390 . S
C2695 C2694 1.390 . S
C2695 C2696 1.394 . S
C2695 C2701 1.465 . S
C2696 C2691 1.399 . S
C2696 C2695 1.394 . S
C2696 C2697 1.516 . S
C2697 C2696 1.516 . S
C2697 C2698 1.502 . S
C2697 C2699 1.561 . S
C2697 C2700 1.526 . S
C2698 H2682 0.959 . S
C2698 H2683 0.959 . S
C2698 H2684 0.961 . S
C2698 C2697 1.502 . S
C2699 H2685 0.960 . S
C2699 H2686 0.961 . S
C2699 H2687 0.959 . S
C2699 C2697 1.561 . S
C2700 C2697 1.526 . S
C2700 C2701 1.396 . S
C2700 C2705 1.390 . S
C2701 C2695 1.465 . S
C2701 C2700 1.396 . S
C2701 C2702 1.399 . S
C2702 H2688 0.929 . S
C2702 C2701 1.399 . S
C2702 C2703 1.385 . S
C2703 H2689 0.931 . S
C2703 C2702 1.385 . S
C2703 C2704 1.389 . S
C2704 C2703 1.389 . S
C2704 C2705 1.387 . S
C2705 H2690 0.930 . S
C2705 C2700 1.390 . S
C2705 C2704 1.387 . S
H2706 C2718 0.930 1_565 S
H2707 C2720 0.930 . S
H2708 C2721 0.930 . S
H2709 C2725 0.959 1_545 S
H2710 C2725 0.959 . S
H2711 C2725 0.961 . S
H2712 C2726 0.960 . S
H2713 C2726 0.961 . S
H2714 C2726 0.959 . S
H2715 C2729 0.929 . S
H2716 C2730 0.931 . S
H2717 C2732 0.930 1_565 S
C2718 H2706 0.930 1_545 S
C2718 C2719 1.399 . S
C2718 C2723 1.399 . S
C2719 C2718 1.399 . S
C2719 C2720 1.376 . S
C2720 H2707 0.930 . S
C2720 C2719 1.376 . S
C2720 C2721 1.388 . S
C2721 H2708 0.930 . S
C2721 C2720 1.388 . S
C2721 C2722 1.390 . S
C2722 C2721 1.390 . S
C2722 C2723 1.394 . S
C2722 C2728 1.465 . S
C2723 C2718 1.399 . S
C2723 C2722 1.394 . S
C2723 C2724 1.516 1_545 S
C2724 C2723 1.516 1_565 S
C2724 C2725 1.502 . S
C2724 C2726 1.561 . S
C2724 C2727 1.526 1_565 S
C2725 H2709 0.959 1_565 S
C2725 H2710 0.959 . S
C2725 H2711 0.961 . S
C2725 C2724 1.502 . S
C2726 H2712 0.960 . S
C2726 H2713 0.961 . S
C2726 H2714 0.959 . S
C2726 C2724 1.561 . S
C2727 C2724 1.526 1_545 S
C2727 C2728 1.396 . S
C2727 C2732 1.390 . S
C2728 C2722 1.465 . S
C2728 C2727 1.396 . S
C2728 C2729 1.399 . S
C2729 H2715 0.929 . S
C2729 C2728 1.399 . S
C2729 C2730 1.385 . S
C2730 H2716 0.931 . S
C2730 C2729 1.385 . S
C2730 C2731 1.389 . S
C2731 C2730 1.389 . S
C2731 C2732 1.387 . S
C2732 H2717 0.930 1_545 S
C2732 C2727 1.390 . S
C2732 C2731 1.387 . S
H2733 C2745 0.930 . S
H2734 C2747 0.930 . S
H2735 C2748 0.930 . S
H2736 C2752 0.959 . S
H2737 C2752 0.959 . S
H2738 C2752 0.961 . S
H2739 C2753 0.960 . S
H2740 C2753 0.961 . S
H2741 C2753 0.959 . S
H2742 C2756 0.929 . S
H2743 C2757 0.931 . S
H2744 C2759 0.930 . S
C2745 H2733 0.930 . S
C2745 C2746 1.399 . S
C2745 C2750 1.399 . S
C2746 C2745 1.399 . S
C2746 C2747 1.376 . S
C2747 H2734 0.930 . S
C2747 C2746 1.376 . S
C2747 C2748 1.388 . S
C2748 H2735 0.930 . S
C2748 C2747 1.388 . S
C2748 C2749 1.390 . S
C2749 C2748 1.390 . S
C2749 C2750 1.394 . S
C2749 C2755 1.465 . S
C2750 C2745 1.399 . S
C2750 C2749 1.394 . S
C2750 C2751 1.516 . S
C2751 C2750 1.516 . S
C2751 C2752 1.502 . S
C2751 C2753 1.561 . S
C2751 C2754 1.526 . S
C2752 H2736 0.959 . S
C2752 H2737 0.959 . S
C2752 H2738 0.961 . S
C2752 C2751 1.502 . S
C2753 H2739 0.960 . S
C2753 H2740 0.961 . S
C2753 H2741 0.959 . S
C2753 C2751 1.561 . S
C2754 C2751 1.526 . S
C2754 C2755 1.396 . S
C2754 C2759 1.390 . S
C2755 C2749 1.465 . S
C2755 C2754 1.396 . S
C2755 C2756 1.399 . S
C2756 H2742 0.929 . S
C2756 C2755 1.399 . S
C2756 C2757 1.385 . S
C2757 H2743 0.931 . S
C2757 C2756 1.385 . S
C2757 C2758 1.389 . S
C2758 C2757 1.389 . S
C2758 C2759 1.387 . S
C2759 H2744 0.930 . S
C2759 C2754 1.390 . S
C2759 C2758 1.387 . S
H2760 C2772 0.930 . S
H2761 C2774 0.901 1_556 S
H2762 C2775 0.930 . S
H2763 C2779 0.959 . S
H2764 C2779 0.959 . S
H2765 C2779 0.961 . S
H2766 C2780 0.960 . S
H2767 C2780 0.961 . S
H2768 C2780 0.959 . S
H2769 C2783 0.929 . S
H2770 C2784 0.931 . S
H2771 C2786 0.930 . S
C2772 H2760 0.930 . S
C2772 C2773 1.399 . S
C2772 C2777 1.399 . S
C2773 C2772 1.399 . S
C2773 C2774 1.421 . S
C2774 H2761 0.901 1_554 S
C2774 C2773 1.421 . S
C2774 C2775 1.374 1_554 S
C2775 H2762 0.930 . S
C2775 C2774 1.374 1_556 S
C2775 C2776 1.390 1_556 S
C2776 C2775 1.390 1_554 S
C2776 C2777 1.394 . S
C2776 C2782 1.465 . S
C2777 C2772 1.399 . S
C2777 C2776 1.394 . S
C2777 C2778 1.516 . S
C2778 C2777 1.516 . S
C2778 C2779 1.502 . S
C2778 C2780 1.561 . S
C2778 C2781 1.526 . S
C2779 H2763 0.959 . S
C2779 H2764 0.959 . S
C2779 H2765 0.961 . S
C2779 C2778 1.502 . S
C2780 H2766 0.960 . S
C2780 H2767 0.961 . S
C2780 H2768 0.959 . S
C2780 C2778 1.561 . S
C2781 C2778 1.526 . S
C2781 C2782 1.396 . S
C2781 C2786 1.390 . S
C2782 C2776 1.465 . S
C2782 C2781 1.396 . S
C2782 C2783 1.399 1_554 S
C2783 H2769 0.929 . S
C2783 C2782 1.399 1_556 S
C2783 C2784 1.385 . S
C2784 H2770 0.931 . S
C2784 C2783 1.385 . S
C2784 C2785 1.389 1_556 S
C2785 C2784 1.389 1_554 S
C2785 C2786 1.387 . S
C2786 H2771 0.930 . S
C2786 C2781 1.390 . S
C2786 C2785 1.387 . S
H2787 C2799 0.930 . S
H2788 C2801 0.930 . S
H2789 C2802 0.930 . S
H2790 C2806 0.959 . S
H2791 C2806 0.959 . S
H2792 C2806 0.961 . S
H2793 C2807 0.960 . S
H2794 C2807 0.961 . S
H2795 C2807 0.959 . S
H2796 C2810 0.929 . S
H2797 C2811 0.931 . S
H2798 C2813 0.930 . S
C2799 H2787 0.930 . S
C2799 C2800 1.399 . S
C2799 C2804 1.399 . S
C2800 C2799 1.399 . S
C2800 C2801 1.376 . S
C2801 H2788 0.930 . S
C2801 C2800 1.376 . S
C2801 C2802 1.388 . S
C2802 H2789 0.930 . S
C2802 C2801 1.388 . S
C2802 C2803 1.390 . S
C2803 C2802 1.390 . S
C2803 C2804 1.394 . S
C2803 C2809 1.465 . S
C2804 C2799 1.399 . S
C2804 C2803 1.394 . S
C2804 C2805 1.516 . S
C2805 C2804 1.516 . S
C2805 C2806 1.502 . S
C2805 C2807 1.561 . S
C2805 C2808 1.526 . S
C2806 H2790 0.959 . S
C2806 H2791 0.959 . S
C2806 H2792 0.961 . S
C2806 C2805 1.502 . S
C2807 H2793 0.960 . S
C2807 H2794 0.961 . S
C2807 H2795 0.959 . S
C2807 C2805 1.561 . S
C2808 C2805 1.526 . S
C2808 C2809 1.396 . S
C2808 C2813 1.390 . S
C2809 C2803 1.465 . S
C2809 C2808 1.396 . S
C2809 C2810 1.399 . S
C2810 H2796 0.929 . S
C2810 C2809 1.399 . S
C2810 C2811 1.385 . S
C2811 H2797 0.931 . S
C2811 C2810 1.385 . S
C2811 C2812 1.389 . S
C2812 C2811 1.389 . S
C2812 C2813 1.387 . S
C2813 H2798 0.930 . S
C2813 C2808 1.390 . S
C2813 C2812 1.387 . S
H2814 C2826 0.930 . S
H2815 C2828 0.930 . S
H2816 C2829 0.930 . S
H2817 C2833 0.959 . S
H2818 C2833 0.959 . S
H2819 C2833 0.961 . S
H2820 C2834 0.960 . S
H2821 C2834 0.961 . S
H2822 C2834 0.959 . S
H2823 C2837 0.929 . S
H2824 C2838 0.931 . S
H2825 C2840 0.930 . S
C2826 H2814 0.930 . S
C2826 C2827 1.399 . S
C2826 C2831 1.399 . S
C2827 C2826 1.399 . S
C2827 C2828 1.376 . S
C2828 H2815 0.930 . S
C2828 C2827 1.376 . S
C2828 C2829 1.388 . S
C2829 H2816 0.930 . S
C2829 C2828 1.388 . S
C2829 C2830 1.390 . S
C2830 C2829 1.390 . S
C2830 C2831 1.394 . S
C2830 C2836 1.465 . S
C2831 C2826 1.399 . S
C2831 C2830 1.394 . S
C2831 C2832 1.516 . S
C2832 C2831 1.516 . S
C2832 C2833 1.502 . S
C2832 C2834 1.561 . S
C2832 C2835 1.526 . S
C2833 H2817 0.959 . S
C2833 H2818 0.959 . S
C2833 H2819 0.961 . S
C2833 C2832 1.502 . S
C2834 H2820 0.960 . S
C2834 H2821 0.961 . S
C2834 H2822 0.959 . S
C2834 C2832 1.561 . S
C2835 C2832 1.526 . S
C2835 C2836 1.396 . S
C2835 C2840 1.390 . S
C2836 C2830 1.465 . S
C2836 C2835 1.396 . S
C2836 C2837 1.399 . S
C2837 H2823 0.929 . S
C2837 C2836 1.399 . S
C2837 C2838 1.385 . S
C2838 H2824 0.931 . S
C2838 C2837 1.385 . S
C2838 C2839 1.389 . S
C2839 C2838 1.389 . S
C2839 C2840 1.387 . S
C2840 H2825 0.930 . S
C2840 C2835 1.390 . S
C2840 C2839 1.387 . S
H2841 C2853 0.930 . S
H2842 C2855 0.930 . S
H2843 C2856 0.930 . S
H2844 C2860 0.959 . S
H2845 C2860 0.959 . S
H2846 C2860 0.961 . S
H2847 C2861 0.960 . S
H2848 C2861 0.961 . S
H2849 C2861 0.959 . S
H2850 C2864 0.929 . S
H2851 C2865 0.931 . S
H2852 C2867 0.930 . S
C2853 H2841 0.930 . S
C2853 C2854 1.399 . S
C2853 C2858 1.399 . S
C2854 C2853 1.399 . S
C2854 C2855 1.376 . S
C2855 H2842 0.930 . S
C2855 C2854 1.376 . S
C2855 C2856 1.388 . S
C2856 H2843 0.930 . S
C2856 C2855 1.388 . S
C2856 C2857 1.390 . S
C2857 C2856 1.390 . S
C2857 C2858 1.394 . S
C2857 C2863 1.465 . S
C2858 C2853 1.399 . S
C2858 C2857 1.394 . S
C2858 C2859 1.516 . S
C2859 C2858 1.516 . S
C2859 C2860 1.502 . S
C2859 C2861 1.561 . S
C2859 C2862 1.526 . S
C2860 H2844 0.959 . S
C2860 H2845 0.959 . S
C2860 H2846 0.961 . S
C2860 C2859 1.502 . S
C2861 H2847 0.960 . S
C2861 H2848 0.961 . S
C2861 H2849 0.959 . S
C2861 C2859 1.561 . S
C2862 C2859 1.526 . S
C2862 C2863 1.396 . S
C2862 C2867 1.390 . S
C2863 C2857 1.465 . S
C2863 C2862 1.396 . S
C2863 C2864 1.399 . S
C2864 H2850 0.929 . S
C2864 C2863 1.399 . S
C2864 C2865 1.385 . S
C2865 H2851 0.931 . S
C2865 C2864 1.385 . S
C2865 C2866 1.389 . S
C2866 C2865 1.389 . S
C2866 C2867 1.387 . S
C2867 H2852 0.930 . S
C2867 C2862 1.390 . S
C2867 C2866 1.387 . S
H2868 C2880 0.930 1_545 S
H2869 C2882 0.930 . S
H2870 C2883 0.930 . S
H2871 C2887 0.963 . S
H2872 C2887 0.959 . S
H2873 C2887 0.961 1_545 S
H2874 C2888 0.960 . S
H2875 C2888 0.961 . S
H2876 C2888 0.959 . S
H2877 C2891 0.929 . S
H2878 C2892 0.931 . S
H2879 C2894 0.930 . S
C2880 H2868 0.930 1_565 S
C2880 C2881 1.399 . S
C2880 C2885 1.399 . S
C2881 C2880 1.399 . S
C2881 C2882 1.376 . S
C2882 H2869 0.930 . S
C2882 C2881 1.376 . S
C2882 C2883 1.388 . S
C2883 H2870 0.930 . S
C2883 C2882 1.388 . S
C2883 C2884 1.390 . S
C2884 C2883 1.390 . S
C2884 C2885 1.394 . S
C2884 C2890 1.465 . S
C2885 C2880 1.399 . S
C2885 C2884 1.394 . S
C2885 C2886 1.516 . S
C2886 C2885 1.516 . S
C2886 C2887 1.502 . S
C2886 C2888 1.561 . S
C2886 C2889 1.526 . S
C2887 H2871 0.963 . S
C2887 H2872 0.959 . S
C2887 H2873 0.961 1_565 S
C2887 C2886 1.502 . S
C2888 H2874 0.960 . S
C2888 H2875 0.961 . S
C2888 H2876 0.959 . S
C2888 C2886 1.561 . S
C2889 C2886 1.526 . S
C2889 C2890 1.396 . S
C2889 C2894 1.390 . S
C2890 C2884 1.465 . S
C2890 C2889 1.396 . S
C2890 C2891 1.399 . S
C2891 H2877 0.929 . S
C2891 C2890 1.399 . S
C2891 C2892 1.385 . S
C2892 H2878 0.931 . S
C2892 C2891 1.385 . S
C2892 C2893 1.389 . S
C2893 C2892 1.389 . S
C2893 C2894 1.387 . S
C2894 H2879 0.930 . S
C2894 C2889 1.390 . S
C2894 C2893 1.387 . S
H2895 C2907 0.930 . S
H2896 C2909 0.930 . S
H2897 C2910 0.930 . S
H2898 C2914 0.959 . S
H2899 C2914 0.959 . S
H2900 C2914 0.961 . S
H2901 C2915 0.960 . S
H2902 C2915 0.961 1_545 S
H2903 C2915 0.959 . S
H2904 C2918 0.929 . S
H2905 C2919 0.931 . S
H2906 C2921 0.930 . S
C2907 H2895 0.930 . S
C2907 C2908 1.399 . S
C2907 C2912 1.399 . S
C2908 C2907 1.399 . S
C2908 C2909 1.376 . S
C2909 H2896 0.930 . S
C2909 C2908 1.376 . S
C2909 C2910 1.388 . S
C2910 H2897 0.930 . S
C2910 C2909 1.388 . S
C2910 C2911 1.390 . S
C2911 C2910 1.390 . S
C2911 C2912 1.394 . S
C2911 C2917 1.465 . S
C2912 C2907 1.399 . S
C2912 C2911 1.394 . S
C2912 C2913 1.516 . S
C2913 C2912 1.516 . S
C2913 C2914 1.502 . S
C2913 C2915 1.561 . S
C2913 C2916 1.526 . S
C2914 H2898 0.959 . S
C2914 H2899 0.959 . S
C2914 H2900 0.961 . S
C2914 C2913 1.502 . S
C2915 H2901 0.960 . S
C2915 H2902 0.961 1_565 S
C2915 H2903 0.959 . S
C2915 C2913 1.561 . S
C2916 C2913 1.526 . S
C2916 C2917 1.396 . S
C2916 C2921 1.390 . S
C2917 C2911 1.465 . S
C2917 C2916 1.396 . S
C2917 C2918 1.399 . S
C2918 H2904 0.929 . S
C2918 C2917 1.399 . S
C2918 C2919 1.385 . S
C2919 H2905 0.931 . S
C2919 C2918 1.385 . S
C2919 C2920 1.389 . S
C2920 C2919 1.389 . S
C2920 C2921 1.387 . S
C2921 H2906 0.930 . S
C2921 C2916 1.390 . S
C2921 C2920 1.387 . S
H2922 C2934 0.930 . S
H2923 C2936 0.930 . S
H2924 C2937 0.930 . S
H2925 C2941 0.959 . S
H2926 C2941 0.959 . S
H2927 C2941 0.961 . S
H2928 C2942 0.960 . S
H2929 C2942 0.961 . S
H2930 C2942 0.959 . S
H2931 C2945 0.929 . S
H2932 C2946 0.931 . S
H2933 C2948 0.930 . S
C2934 H2922 0.930 . S
C2934 C2935 1.399 . S
C2934 C2939 1.399 . S
C2935 C2934 1.399 . S
C2935 C2936 1.376 . S
C2936 H2923 0.930 . S
C2936 C2935 1.376 . S
C2936 C2937 1.388 . S
C2937 H2924 0.930 . S
C2937 C2936 1.388 . S
C2937 C2938 1.390 . S
C2938 C2937 1.390 . S
C2938 C2939 1.394 . S
C2938 C2944 1.465 . S
C2939 C2934 1.399 . S
C2939 C2938 1.394 . S
C2939 C2940 1.516 . S
C2940 C2939 1.516 . S
C2940 C2941 1.502 . S
C2940 C2942 1.561 . S
C2940 C2943 1.526 . S
C2941 H2925 0.959 . S
C2941 H2926 0.959 . S
C2941 H2927 0.961 . S
C2941 C2940 1.502 . S
C2942 H2928 0.960 . S
C2942 H2929 0.961 . S
C2942 H2930 0.959 . S
C2942 C2940 1.561 . S
C2943 C2940 1.526 . S
C2943 C2944 1.396 . S
C2943 C2948 1.390 . S
C2944 C2938 1.465 . S
C2944 C2943 1.396 . S
C2944 C2945 1.399 . S
C2945 H2931 0.929 . S
C2945 C2944 1.399 . S
C2945 C2946 1.385 . S
C2946 H2932 0.931 . S
C2946 C2945 1.385 . S
C2946 C2947 1.389 . S
C2947 C2946 1.389 . S
C2947 C2948 1.387 . S
C2948 H2933 0.930 . S
C2948 C2943 1.390 . S
C2948 C2947 1.387 . S
H2949 C2961 0.930 . S
H2950 C2963 0.930 . S
H2951 C2964 0.930 . S
H2952 C2968 0.959 . S
H2953 C2968 0.959 . S
H2954 C2968 0.961 . S
H2955 C2969 0.960 . S
H2956 C2969 0.961 . S
H2957 C2969 0.959 . S
H2958 C2972 0.929 . S
H2959 C2973 0.931 . S
H2960 C2975 0.930 . S
C2961 H2949 0.930 . S
C2961 C2962 1.399 . S
C2961 C2966 1.399 . S
C2962 C2961 1.399 . S
C2962 C2963 1.376 . S
C2963 H2950 0.930 . S
C2963 C2962 1.376 . S
C2963 C2964 1.388 . S
C2964 H2951 0.930 . S
C2964 C2963 1.388 . S
C2964 C2965 1.390 . S
C2965 C2964 1.390 . S
C2965 C2966 1.394 . S
C2965 C2971 1.465 . S
C2966 C2961 1.399 . S
C2966 C2965 1.394 . S
C2966 C2967 1.516 . S
C2967 C2966 1.516 . S
C2967 C2968 1.502 . S
C2967 C2969 1.561 . S
C2967 C2970 1.526 . S
C2968 H2952 0.959 . S
C2968 H2953 0.959 . S
C2968 H2954 0.961 . S
C2968 C2967 1.502 . S
C2969 H2955 0.960 . S
C2969 H2956 0.961 . S
C2969 H2957 0.959 . S
C2969 C2967 1.561 . S
C2970 C2967 1.526 . S
C2970 C2971 1.396 . S
C2970 C2975 1.390 . S
C2971 C2965 1.465 . S
C2971 C2970 1.396 . S
C2971 C2972 1.399 . S
C2972 H2958 0.929 . S
C2972 C2971 1.399 . S
C2972 C2973 1.385 . S
C2973 H2959 0.931 . S
C2973 C2972 1.385 . S
C2973 C2974 1.389 . S
C2974 C2973 1.389 . S
C2974 C2975 1.387 . S
C2975 H2960 0.930 . S
C2975 C2970 1.390 . S
C2975 C2974 1.387 . S
H2976 C2988 0.930 . S
H2977 C2990 0.930 . S
H2978 C2991 0.930 . S
H2979 C2995 0.959 . S
H2980 C2995 0.959 . S
H2981 C2995 0.961 . S
H2982 C2996 0.960 . S
H2983 C2996 0.961 . S
H2984 C2996 0.959 . S
H2985 C2999 0.929 . S
H2986 C3000 0.931 . S
H2987 C3002 0.930 . S
C2988 H2976 0.930 . S
C2988 C2989 1.399 . S
C2988 C2993 1.399 . S
C2989 C2988 1.399 . S
C2989 C2990 1.376 . S
C2990 H2977 0.930 . S
C2990 C2989 1.376 . S
C2990 C2991 1.388 . S
C2991 H2978 0.930 . S
C2991 C2990 1.388 . S
C2991 C2992 1.390 . S
C2992 C2991 1.390 . S
C2992 C2993 1.394 . S
C2992 C2998 1.465 . S
C2993 C2988 1.399 . S
C2993 C2992 1.394 . S
C2993 C2994 1.516 . S
C2994 C2993 1.516 . S
C2994 C2995 1.502 . S
C2994 C2996 1.561 . S
C2994 C2997 1.526 . S
C2995 H2979 0.959 . S
C2995 H2980 0.959 . S
C2995 H2981 0.961 . S
C2995 C2994 1.502 . S
C2996 H2982 0.960 . S
C2996 H2983 0.961 . S
C2996 H2984 0.959 . S
C2996 C2994 1.561 . S
C2997 C2994 1.526 . S
C2997 C2998 1.396 . S
C2997 C3002 1.390 . S
C2998 C2992 1.465 . S
C2998 C2997 1.396 . S
C2998 C2999 1.399 . S
C2999 H2985 0.929 . S
C2999 C2998 1.399 . S
C2999 C3000 1.385 . S
C3000 H2986 0.931 . S
C3000 C2999 1.385 . S
C3000 C3001 1.389 . S
C3001 C3000 1.389 . S
C3001 C3002 1.387 . S
C3002 H2987 0.930 . S
C3002 C2997 1.390 . S
C3002 C3001 1.387 . S
H3003 C3015 0.930 . S
H3004 C3017 0.930 . S
H3005 C3018 0.930 . S
H3006 C3022 0.959 . S
H3007 C3022 0.959 . S
H3008 C3022 0.961 . S
H3009 C3023 0.960 . S
H3010 C3023 0.961 . S
H3011 C3023 0.959 . S
H3012 C3026 0.929 . S
H3013 C3027 0.931 . S
H3014 C3029 0.930 . S
C3015 H3003 0.930 . S
C3015 C3016 1.399 . S
C3015 C3020 1.399 . S
C3016 C3015 1.399 . S
C3016 C3017 1.376 . S
C3017 H3004 0.930 . S
C3017 C3016 1.376 . S
C3017 C3018 1.388 . S
C3018 H3005 0.930 . S
C3018 C3017 1.388 . S
C3018 C3019 1.390 . S
C3019 C3018 1.390 . S
C3019 C3020 1.394 . S
C3019 C3025 1.465 . S
C3020 C3015 1.399 . S
C3020 C3019 1.394 . S
C3020 C3021 1.516 . S
C3021 C3020 1.516 . S
C3021 C3022 1.502 . S
C3021 C3023 1.561 . S
C3021 C3024 1.526 . S
C3022 H3006 0.959 . S
C3022 H3007 0.959 . S
C3022 H3008 0.961 . S
C3022 C3021 1.502 . S
C3023 H3009 0.960 . S
C3023 H3010 0.961 . S
C3023 H3011 0.959 . S
C3023 C3021 1.561 . S
C3024 C3021 1.526 . S
C3024 C3025 1.396 . S
C3024 C3029 1.390 . S
C3025 C3019 1.465 . S
C3025 C3024 1.396 . S
C3025 C3026 1.399 . S
C3026 H3012 0.929 . S
C3026 C3025 1.399 . S
C3026 C3027 1.385 . S
C3027 H3013 0.931 . S
C3027 C3026 1.385 . S
C3027 C3028 1.389 . S
C3028 C3027 1.389 . S
C3028 C3029 1.387 . S
C3029 H3014 0.930 . S
C3029 C3024 1.390 . S
C3029 C3028 1.387 . S
H3030 C3042 0.930 1_554 S
H3031 C3044 0.930 . S
H3032 C3045 0.930 . S
H3033 C3049 0.959 1_556 S
H3034 C3049 0.959 . S
H3035 C3049 0.961 . S
H3036 C3050 0.960 . S
H3037 C3050 0.961 . S
H3038 C3050 0.959 . S
H3039 C3053 0.929 . S
H3040 C3054 0.931 . S
H3041 C3056 0.930 . S
C3042 H3030 0.930 1_556 S
C3042 C3043 1.399 . S
C3042 C3047 1.399 . S
C3043 C3042 1.399 . S
C3043 C3044 1.376 . S
C3044 H3031 0.930 . S
C3044 C3043 1.376 . S
C3044 C3045 1.388 . S
C3045 H3032 0.930 . S
C3045 C3044 1.388 . S
C3045 C3046 1.390 . S
C3046 C3045 1.390 . S
C3046 C3047 1.394 . S
C3046 C3052 1.465 . S
C3047 C3042 1.399 . S
C3047 C3046 1.394 . S
C3047 C3048 1.516 1_556 S
C3048 C3047 1.516 1_554 S
C3048 C3049 1.502 1_455 S
C3048 C3050 1.561 . S
C3048 C3051 1.526 . S
C3049 H3033 0.959 1_554 S
C3049 H3034 0.959 . S
C3049 H3035 0.961 . S
C3049 C3048 1.502 1_655 S
C3050 H3036 0.960 . S
C3050 H3037 0.961 . S
C3050 H3038 0.959 . S
C3050 C3048 1.561 . S
C3051 C3048 1.526 . S
C3051 C3052 1.396 1_554 S
C3051 C3056 1.390 . S
C3052 C3046 1.465 . S
C3052 C3051 1.396 1_556 S
C3052 C3053 1.399 . S
C3053 H3039 0.929 . S
C3053 C3052 1.399 . S
C3053 C3054 1.385 . S
C3054 H3040 0.931 . S
C3054 C3053 1.385 . S
C3054 C3055 1.389 1_556 S
C3055 C3054 1.389 1_554 S
C3055 C3056 1.387 . S
C3056 H3041 0.930 . S
C3056 C3051 1.390 . S
C3056 C3055 1.387 . S
H3057 C3069 0.930 . S
H3058 C3071 0.930 . S
H3059 C3072 0.930 . S
H3060 C3076 0.959 . S
H3061 C3076 0.959 . S
H3062 C3076 0.961 . S
H3063 C3077 0.960 1_455 S
H3064 C3077 0.961 . S
H3065 C3077 0.959 1_455 S
H3066 C3080 0.929 . S
H3067 C3081 0.931 . S
H3068 C3083 0.930 . S
C3069 H3057 0.930 . S
C3069 C3070 1.399 . S
C3069 C3074 1.399 . S
C3070 C3069 1.399 . S
C3070 C3071 1.376 . S
C3071 H3058 0.930 . S
C3071 C3070 1.376 . S
C3071 C3072 1.388 . S
C3072 H3059 0.930 . S
C3072 C3071 1.388 . S
C3072 C3073 1.390 . S
C3073 C3072 1.390 . S
C3073 C3074 1.394 . S
C3073 C3079 1.465 1_455 S
C3074 C3069 1.399 . S
C3074 C3073 1.394 . S
C3074 C3075 1.516 1_455 S
C3075 C3074 1.516 1_655 S
C3075 C3076 1.502 . S
C3075 C3077 1.561 . S
C3075 C3078 1.526 . S
C3076 H3060 0.959 . S
C3076 H3061 0.959 . S
C3076 H3062 0.961 . S
C3076 C3075 1.502 . S
C3077 H3063 0.960 1_655 S
C3077 H3064 0.961 . S
C3077 H3065 0.959 1_655 S
C3077 C3075 1.561 . S
C3078 C3075 1.526 . S
C3078 C3079 1.396 . S
C3078 C3083 1.390 . S
C3079 C3073 1.465 1_655 S
C3079 C3078 1.396 . S
C3079 C3080 1.399 . S
C3080 H3066 0.929 . S
C3080 C3079 1.399 . S
C3080 C3081 1.385 . S
C3081 H3067 0.931 . S
C3081 C3080 1.385 . S
C3081 C3082 1.389 . S
C3082 C3081 1.389 . S
C3082 C3083 1.387 . S
C3083 H3068 0.930 . S
C3083 C3078 1.390 . S
C3083 C3082 1.387 . S
H3084 C3096 0.930 . S
H3085 C3098 0.930 . S
H3086 C3099 0.930 . S
H3087 C3103 0.959 . S
H3088 C3103 0.959 . S
H3089 C3103 0.961 . S
H3090 C3104 0.960 . S
H3091 C3104 0.961 . S
H3092 C3104 0.959 . S
H3093 C3107 0.929 . S
H3094 C3108 0.931 . S
H3095 C3110 0.930 . S
C3096 H3084 0.930 . S
C3096 C3097 1.399 . S
C3096 C3101 1.399 . S
C3097 C3096 1.399 . S
C3097 C3098 1.376 . S
C3098 H3085 0.930 . S
C3098 C3097 1.376 . S
C3098 C3099 1.388 . S
C3099 H3086 0.930 . S
C3099 C3098 1.388 . S
C3099 C3100 1.390 . S
C3100 C3099 1.390 . S
C3100 C3101 1.394 . S
C3100 C3106 1.465 . S
C3101 C3096 1.399 . S
C3101 C3100 1.394 . S
C3101 C3102 1.516 . S
C3102 C3101 1.516 . S
C3102 C3103 1.502 . S
C3102 C3104 1.561 . S
C3102 C3105 1.526 . S
C3103 H3087 0.959 . S
C3103 H3088 0.959 . S
C3103 H3089 0.961 . S
C3103 C3102 1.502 . S
C3104 H3090 0.960 . S
C3104 H3091 0.961 . S
C3104 H3092 0.959 . S
C3104 C3102 1.561 . S
C3105 C3102 1.526 . S
C3105 C3106 1.396 . S
C3105 C3110 1.390 . S
C3106 C3100 1.465 . S
C3106 C3105 1.396 . S
C3106 C3107 1.399 . S
C3107 H3093 0.929 . S
C3107 C3106 1.399 . S
C3107 C3108 1.385 . S
C3108 H3094 0.931 . S
C3108 C3107 1.385 . S
C3108 C3109 1.389 . S
C3109 C3108 1.389 . S
C3109 C3110 1.387 . S
C3110 H3095 0.930 . S
C3110 C3105 1.390 . S
C3110 C3109 1.387 . S
H3111 C3123 0.930 . S
H3112 C3125 0.930 . S
H3113 C3126 0.930 . S
H3114 C3130 0.959 . S
H3115 C3130 0.959 . S
H3116 C3130 0.961 . S
H3117 C3131 0.960 . S
H3118 C3131 0.961 . S
H3119 C3131 0.959 . S
H3120 C3134 0.929 . S
H3121 C3135 0.931 . S
H3122 C3137 0.930 . S
C3123 H3111 0.930 . S
C3123 C3124 1.399 . S
C3123 C3128 1.399 . S
C3124 C3123 1.399 . S
C3124 C3125 1.376 . S
C3125 H3112 0.930 . S
C3125 C3124 1.376 . S
C3125 C3126 1.388 . S
C3126 H3113 0.930 . S
C3126 C3125 1.388 . S
C3126 C3127 1.390 . S
C3127 C3126 1.390 . S
C3127 C3128 1.394 . S
C3127 C3133 1.465 . S
C3128 C3123 1.399 . S
C3128 C3127 1.394 . S
C3128 C3129 1.516 . S
C3129 C3128 1.516 . S
C3129 C3130 1.502 . S
C3129 C3131 1.561 . S
C3129 C3132 1.526 1_455 S
C3130 H3114 0.959 . S
C3130 H3115 0.959 . S
C3130 H3116 0.961 . S
C3130 C3129 1.502 . S
C3131 H3117 0.960 . S
C3131 H3118 0.961 . S
C3131 H3119 0.959 . S
C3131 C3129 1.561 . S
C3132 C3129 1.526 1_655 S
C3132 C3133 1.396 1_655 S
C3132 C3137 1.390 . S
C3133 C3127 1.465 . S
C3133 C3132 1.396 1_455 S
C3133 C3134 1.399 1_455 S
C3134 H3120 0.929 . S
C3134 C3133 1.399 1_655 S
C3134 C3135 1.385 . S
C3135 H3121 0.931 . S
C3135 C3134 1.385 . S
C3135 C3136 1.389 . S
C3136 C3135 1.389 . S
C3136 C3137 1.387 . S
C3137 H3122 0.930 . S
C3137 C3132 1.390 . S
C3137 C3136 1.387 . S
H3138 C3150 0.930 . S
H3139 C3152 0.930 . S
H3140 C3153 0.930 . S
H3141 C3157 0.959 . S
H3142 C3157 0.959 . S
H3143 C3157 0.961 . S
H3144 C3158 0.960 . S
H3145 C3158 0.961 . S
H3146 C3158 0.959 1_455 S
H3147 C3161 0.929 . S
H3148 C3162 0.931 . S
H3149 C3164 0.930 . S
C3150 H3138 0.930 . S
C3150 C3151 1.399 . S
C3150 C3155 1.399 . S
C3151 C3150 1.399 . S
C3151 C3152 1.376 1_655 S
C3152 H3139 0.930 . S
C3152 C3151 1.376 1_455 S
C3152 C3153 1.388 . S
C3153 H3140 0.930 . S
C3153 C3152 1.388 . S
C3153 C3154 1.390 . S
C3154 C3153 1.390 . S
C3154 C3155 1.394 1_455 S
C3154 C3160 1.465 . S
C3155 C3150 1.399 . S
C3155 C3154 1.394 1_655 S
C3155 C3156 1.516 . S
C3156 C3155 1.516 . S
C3156 C3157 1.502 . S
C3156 C3158 1.561 . S
C3156 C3159 1.526 1_655 S
C3157 H3141 0.959 . S
C3157 H3142 0.959 . S
C3157 H3143 0.961 . S
C3157 C3156 1.502 . S
C3158 H3144 0.960 . S
C3158 H3145 0.961 . S
C3158 H3146 0.959 1_655 S
C3158 C3156 1.561 . S
C3159 C3156 1.526 1_455 S
C3159 C3160 1.396 . S
C3159 C3164 1.390 . S
C3160 C3154 1.465 . S
C3160 C3159 1.396 . S
C3160 C3161 1.399 . S
C3161 H3147 0.929 . S
C3161 C3160 1.399 . S
C3161 C3162 1.385 . S
C3162 H3148 0.931 . S
C3162 C3161 1.385 . S
C3162 C3163 1.389 . S
C3163 C3162 1.389 . S
C3163 C3164 1.387 . S
C3164 H3149 0.930 . S
C3164 C3159 1.390 . S
C3164 C3163 1.387 . S
H3165 C3177 0.930 . S
H3166 C3179 0.930 . S
H3167 C3180 0.930 . S
H3168 C3184 0.959 . S
H3169 C3184 0.959 . S
H3170 C3184 0.961 . S
H3171 C3185 0.960 . S
H3172 C3185 0.961 . S
H3173 C3185 0.959 . S
H3174 C3188 0.929 . S
H3175 C3189 0.931 . S
H3176 C3191 0.930 . S
C3177 H3165 0.930 . S
C3177 C3178 1.399 . S
C3177 C3182 1.399 . S
C3178 C3177 1.399 . S
C3178 C3179 1.376 . S
C3179 H3166 0.930 . S
C3179 C3178 1.376 . S
C3179 C3180 1.388 . S
C3180 H3167 0.930 . S
C3180 C3179 1.388 . S
C3180 C3181 1.390 . S
C3181 C3180 1.390 . S
C3181 C3182 1.394 . S
C3181 C3187 1.465 . S
C3182 C3177 1.399 . S
C3182 C3181 1.394 . S
C3182 C3183 1.516 . S
C3183 C3182 1.516 . S
C3183 C3184 1.502 . S
C3183 C3185 1.561 . S
C3183 C3186 1.526 . S
C3184 H3168 0.959 . S
C3184 H3169 0.959 . S
C3184 H3170 0.961 . S
C3184 C3183 1.502 . S
C3185 H3171 0.960 . S
C3185 H3172 0.961 . S
C3185 H3173 0.959 . S
C3185 C3183 1.561 . S
C3186 C3183 1.526 . S
C3186 C3187 1.396 . S
C3186 C3191 1.390 . S
C3187 C3181 1.465 . S
C3187 C3186 1.396 . S
C3187 C3188 1.399 . S
C3188 H3174 0.929 . S
C3188 C3187 1.399 . S
C3188 C3189 1.385 . S
C3189 H3175 0.931 . S
C3189 C3188 1.385 . S
C3189 C3190 1.389 . S
C3190 C3189 1.389 . S
C3190 C3191 1.387 . S
C3191 H3176 0.930 . S
C3191 C3186 1.390 . S
C3191 C3190 1.387 . S
H3192 C3204 0.930 . S
H3193 C3206 0.930 . S
H3194 C3207 0.930 . S
H3195 C3211 0.959 . S
H3196 C3211 0.959 . S
H3197 C3211 0.961 . S
H3198 C3212 0.960 . S
H3199 C3212 0.961 . S
H3200 C3212 0.959 . S
H3201 C3215 0.929 . S
H3202 C3216 0.931 . S
H3203 C3218 0.930 . S
C3204 H3192 0.930 . S
C3204 C3205 1.399 . S
C3204 C3209 1.399 . S
C3205 C3204 1.399 . S
C3205 C3206 1.376 . S
C3206 H3193 0.930 . S
C3206 C3205 1.376 . S
C3206 C3207 1.388 . S
C3207 H3194 0.930 . S
C3207 C3206 1.388 . S
C3207 C3208 1.390 . S
C3208 C3207 1.390 . S
C3208 C3209 1.394 . S
C3208 C3214 1.465 . S
C3209 C3204 1.399 . S
C3209 C3208 1.394 . S
C3209 C3210 1.516 . S
C3210 C3209 1.516 . S
C3210 C3211 1.502 . S
C3210 C3212 1.561 . S
C3210 C3213 1.526 . S
C3211 H3195 0.959 . S
C3211 H3196 0.959 . S
C3211 H3197 0.961 . S
C3211 C3210 1.502 . S
C3212 H3198 0.960 . S
C3212 H3199 0.961 . S
C3212 H3200 0.959 . S
C3212 C3210 1.561 . S
C3213 C3210 1.526 . S
C3213 C3214 1.396 . S
C3213 C3218 1.390 . S
C3214 C3208 1.465 . S
C3214 C3213 1.396 . S
C3214 C3215 1.399 . S
C3215 H3201 0.929 . S
C3215 C3214 1.399 . S
C3215 C3216 1.385 . S
C3216 H3202 0.931 . S
C3216 C3215 1.385 . S
C3216 C3217 1.389 . S
C3217 C3216 1.389 . S
C3217 C3218 1.387 . S
C3218 H3203 0.930 . S
C3218 C3213 1.390 . S
C3218 C3217 1.387 . S
H3219 C3231 0.930 . S
H3220 C3233 0.930 1_554 S
H3221 C3234 0.930 . S
H3222 C3238 0.959 . S
H3223 C3238 0.959 . S
H3224 C3238 0.961 . S
H3225 C3239 0.960 . S
H3226 C3239 0.961 . S
H3227 C3239 0.959 . S
H3228 C3242 0.929 . S
H3229 C3243 0.931 . S
H3230 C3245 0.930 . S
C3231 H3219 0.930 . S
C3231 C3232 1.399 . S
C3231 C3236 1.399 . S
C3232 C3231 1.399 . S
C3232 C3233 1.376 . S
C3233 H3220 0.930 1_556 S
C3233 C3232 1.376 . S
C3233 C3234 1.388 . S
C3234 H3221 0.930 . S
C3234 C3233 1.388 . S
C3234 C3235 1.390 . S
C3235 C3234 1.390 . S
C3235 C3236 1.394 . S
C3235 C3241 1.465 . S
C3236 C3231 1.399 . S
C3236 C3235 1.394 . S
C3236 C3237 1.516 . S
C3237 C3236 1.516 . S
C3237 C3238 1.502 . S
C3237 C3239 1.561 . S
C3237 C3240 1.526 . S
C3238 H3222 0.959 . S
C3238 H3223 0.959 . S
C3238 H3224 0.961 . S
C3238 C3237 1.502 . S
C3239 H3225 0.960 . S
C3239 H3226 0.961 . S
C3239 H3227 0.959 . S
C3239 C3237 1.561 . S
C3240 C3237 1.526 . S
C3240 C3241 1.396 . S
C3240 C3245 1.390 . S
C3241 C3235 1.465 . S
C3241 C3240 1.396 . S
C3241 C3242 1.399 . S
C3242 H3228 0.929 . S
C3242 C3241 1.399 . S
C3242 C3243 1.385 . S
C3243 H3229 0.931 . S
C3243 C3242 1.385 . S
C3243 C3244 1.389 . S
C3244 C3243 1.389 . S
C3244 C3245 1.387 . S
C3245 H3230 0.930 . S
C3245 C3240 1.390 . S
C3245 C3244 1.387 . S
H3246 C3258 0.930 . S
H3247 C3260 0.930 . S
H3248 C3261 0.930 . S
H3249 C3265 0.959 . S
H3250 C3265 0.959 . S
H3251 C3265 0.961 . S
H3252 C3266 0.960 . S
H3253 C3266 0.961 . S
H3254 C3266 0.959 . S
H3255 C3269 0.929 . S
H3256 C3270 0.931 . S
H3257 C3272 0.930 . S
C3258 H3246 0.930 . S
C3258 C3259 1.399 . S
C3258 C3263 1.399 . S
C3259 C3258 1.399 . S
C3259 C3260 1.376 . S
C3260 H3247 0.930 . S
C3260 C3259 1.376 . S
C3260 C3261 1.388 . S
C3261 H3248 0.930 . S
C3261 C3260 1.388 . S
C3261 C3262 1.390 . S
C3262 C3261 1.390 . S
C3262 C3263 1.394 . S
C3262 C3268 1.465 . S
C3263 C3258 1.399 . S
C3263 C3262 1.394 . S
C3263 C3264 1.516 . S
C3264 C3263 1.516 . S
C3264 C3265 1.502 . S
C3264 C3266 1.561 . S
C3264 C3267 1.526 . S
C3265 H3249 0.959 . S
C3265 H3250 0.959 . S
C3265 H3251 0.961 . S
C3265 C3264 1.502 . S
C3266 H3252 0.960 . S
C3266 H3253 0.961 . S
C3266 H3254 0.959 . S
C3266 C3264 1.561 . S
C3267 C3264 1.526 . S
C3267 C3268 1.396 . S
C3267 C3272 1.390 . S
C3268 C3262 1.465 . S
C3268 C3267 1.396 . S
C3268 C3269 1.399 . S
C3269 H3255 0.929 . S
C3269 C3268 1.399 . S
C3269 C3270 1.385 . S
C3270 H3256 0.931 . S
C3270 C3269 1.385 . S
C3270 C3271 1.389 . S
C3271 C3270 1.389 . S
C3271 C3272 1.387 . S
C3272 H3257 0.930 . S
C3272 C3267 1.390 . S
C3272 C3271 1.387 . S
H3273 C3285 0.930 . S
H3274 C3287 0.930 . S
H3275 C3288 0.930 . S
H3276 C3292 0.959 . S
H3277 C3292 0.959 . S
H3278 C3292 0.961 . S
H3279 C3293 0.960 . S
H3280 C3293 0.961 . S
H3281 C3293 0.959 . S
H3282 C3296 0.929 . S
H3283 C3297 0.931 . S
H3284 C3299 0.930 . S
C3285 H3273 0.930 . S
C3285 C3286 1.399 . S
C3285 C3290 1.399 . S
C3286 C3285 1.399 . S
C3286 C3287 1.376 . S
C3287 H3274 0.930 . S
C3287 C3286 1.376 . S
C3287 C3288 1.388 . S
C3288 H3275 0.930 . S
C3288 C3287 1.388 . S
C3288 C3289 1.390 . S
C3289 C3288 1.390 . S
C3289 C3290 1.394 . S
C3289 C3295 1.465 . S
C3290 C3285 1.399 . S
C3290 C3289 1.394 . S
C3290 C3291 1.516 . S
C3291 C3290 1.516 . S
C3291 C3292 1.502 . S
C3291 C3293 1.561 . S
C3291 C3294 1.526 . S
C3292 H3276 0.959 . S
C3292 H3277 0.959 . S
C3292 H3278 0.961 . S
C3292 C3291 1.502 . S
C3293 H3279 0.960 . S
C3293 H3280 0.961 . S
C3293 H3281 0.959 . S
C3293 C3291 1.561 . S
C3294 C3291 1.526 . S
C3294 C3295 1.396 . S
C3294 C3299 1.390 . S
C3295 C3289 1.465 . S
C3295 C3294 1.396 . S
C3295 C3296 1.399 . S
C3296 H3282 0.929 . S
C3296 C3295 1.399 . S
C3296 C3297 1.385 . S
C3297 H3283 0.931 . S
C3297 C3296 1.385 . S
C3297 C3298 1.389 . S
C3298 C3297 1.389 . S
C3298 C3299 1.387 . S
C3299 H3284 0.930 . S
C3299 C3294 1.390 . S
C3299 C3298 1.387 . S
H3300 C3312 0.930 . S
H3301 C3314 0.930 . S
H3302 C3315 0.930 . S
H3303 C3319 0.959 . S
H3304 C3319 0.959 . S
H3305 C3319 0.961 . S
H3306 C3320 0.960 . S
H3307 C3320 0.961 . S
H3308 C3320 0.959 . S
H3309 C3323 0.929 . S
H3310 C3324 0.931 . S
H3311 C3326 0.930 . S
C3312 H3300 0.930 . S
C3312 C3313 1.399 . S
C3312 C3317 1.399 . S
C3313 C3312 1.399 . S
C3313 C3314 1.376 . S
C3314 H3301 0.930 . S
C3314 C3313 1.376 . S
C3314 C3315 1.388 . S
C3315 H3302 0.930 . S
C3315 C3314 1.388 . S
C3315 C3316 1.390 . S
C3316 C3315 1.390 . S
C3316 C3317 1.394 . S
C3316 C3322 1.465 . S
C3317 C3312 1.399 . S
C3317 C3316 1.394 . S
C3317 C3318 1.516 . S
C3318 C3317 1.516 . S
C3318 C3319 1.502 . S
C3318 C3320 1.561 . S
C3318 C3321 1.526 . S
C3319 H3303 0.959 . S
C3319 H3304 0.959 . S
C3319 H3305 0.961 . S
C3319 C3318 1.502 . S
C3320 H3306 0.960 . S
C3320 H3307 0.961 . S
C3320 H3308 0.959 . S
C3320 C3318 1.561 . S
C3321 C3318 1.526 . S
C3321 C3322 1.396 . S
C3321 C3326 1.390 . S
C3322 C3316 1.465 . S
C3322 C3321 1.396 . S
C3322 C3323 1.399 . S
C3323 H3309 0.929 . S
C3323 C3322 1.399 . S
C3323 C3324 1.385 . S
C3324 H3310 0.931 . S
C3324 C3323 1.385 . S
C3324 C3325 1.389 . S
C3325 C3324 1.389 . S
C3325 C3326 1.387 . S
C3326 H3311 0.930 . S
C3326 C3321 1.390 . S
C3326 C3325 1.387 . S
H3327 C3339 0.930 . S
H3328 C3341 0.930 . S
H3329 C3342 0.930 . S
H3330 C3346 0.959 . S
H3331 C3346 0.959 . S
H3332 C3346 0.961 . S
H3333 C3347 0.960 . S
H3334 C3347 0.961 . S
H3335 C3347 0.959 . S
H3336 C3350 0.929 . S
H3337 C3351 0.931 . S
H3338 C3353 0.930 . S
C3339 H3327 0.930 . S
C3339 C3340 1.399 . S
C3339 C3344 1.399 . S
C3340 C3339 1.399 . S
C3340 C3341 1.376 . S
C3341 H3328 0.930 . S
C3341 C3340 1.376 . S
C3341 C3342 1.388 . S
C3342 H3329 0.930 . S
C3342 C3341 1.388 . S
C3342 C3343 1.390 . S
C3343 C3342 1.390 . S
C3343 C3344 1.394 . S
C3343 C3349 1.465 . S
C3344 C3339 1.399 . S
C3344 C3343 1.394 . S
C3344 C3345 1.516 . S
C3345 C3344 1.516 . S
C3345 C3346 1.502 . S
C3345 C3347 1.561 . S
C3345 C3348 1.526 . S
C3346 H3330 0.959 . S
C3346 H3331 0.959 . S
C3346 H3332 0.961 . S
C3346 C3345 1.502 . S
C3347 H3333 0.960 . S
C3347 H3334 0.961 . S
C3347 H3335 0.959 . S
C3347 C3345 1.561 . S
C3348 C3345 1.526 . S
C3348 C3349 1.396 . S
C3348 C3353 1.390 . S
C3349 C3343 1.465 . S
C3349 C3348 1.396 . S
C3349 C3350 1.399 . S
C3350 H3336 0.929 . S
C3350 C3349 1.399 . S
C3350 C3351 1.385 . S
C3351 H3337 0.931 . S
C3351 C3350 1.385 . S
C3351 C3352 1.389 . S
C3352 C3351 1.389 . S
C3352 C3353 1.387 . S
C3353 H3338 0.930 . S
C3353 C3348 1.390 . S
C3353 C3352 1.387 . S
H3354 C3366 0.930 . S
H3355 C3368 0.930 . S
H3356 C3369 0.930 . S
H3357 C3373 0.959 . S
H3358 C3373 0.959 . S
H3359 C3373 0.961 . S
H3360 C3374 0.960 . S
H3361 C3374 0.961 . S
H3362 C3374 0.959 . S
H3363 C3377 0.929 . S
H3364 C3378 0.931 . S
H3365 C3380 0.930 . S
C3366 H3354 0.930 . S
C3366 C3367 1.399 . S
C3366 C3371 1.399 . S
C3367 C3366 1.399 . S
C3367 C3368 1.376 . S
C3368 H3355 0.930 . S
C3368 C3367 1.376 . S
C3368 C3369 1.388 . S
C3369 H3356 0.930 . S
C3369 C3368 1.388 . S
C3369 C3370 1.390 . S
C3370 C3369 1.390 . S
C3370 C3371 1.394 . S
C3370 C3376 1.465 . S
C3371 C3366 1.399 . S
C3371 C3370 1.394 . S
C3371 C3372 1.516 . S
C3372 C3371 1.516 . S
C3372 C3373 1.502 . S
C3372 C3374 1.561 . S
C3372 C3375 1.526 . S
C3373 H3357 0.959 . S
C3373 H3358 0.959 . S
C3373 H3359 0.961 . S
C3373 C3372 1.502 . S
C3374 H3360 0.960 . S
C3374 H3361 0.961 . S
C3374 H3362 0.959 . S
C3374 C3372 1.561 . S
C3375 C3372 1.526 . S
C3375 C3376 1.396 . S
C3375 C3380 1.390 . S
C3376 C3370 1.465 . S
C3376 C3375 1.396 . S
C3376 C3377 1.399 . S
C3377 H3363 0.929 . S
C3377 C3376 1.399 . S
C3377 C3378 1.385 . S
C3378 H3364 0.931 . S
C3378 C3377 1.385 . S
C3378 C3379 1.389 . S
C3379 C3378 1.389 . S
C3379 C3380 1.387 . S
C3380 H3365 0.930 . S
C3380 C3375 1.390 . S
C3380 C3379 1.387 . S
H3381 C3393 0.930 . S
H3382 C3395 0.930 . S
H3383 C3396 0.930 . S
H3384 C3400 0.959 . S
H3385 C3400 0.959 . S
H3386 C3400 0.961 . S
H3387 C3401 0.960 . S
H3388 C3401 0.961 . S
H3389 C3401 0.959 . S
H3390 C3404 0.929 . S
H3391 C3405 0.931 . S
H3392 C3407 0.930 . S
C3393 H3381 0.930 . S
C3393 C3394 1.399 . S
C3393 C3398 1.399 . S
C3394 C3393 1.399 . S
C3394 C3395 1.376 . S
C3395 H3382 0.930 . S
C3395 C3394 1.376 . S
C3395 C3396 1.388 . S
C3396 H3383 0.930 . S
C3396 C3395 1.388 . S
C3396 C3397 1.390 . S
C3397 C3396 1.390 . S
C3397 C3398 1.394 . S
C3397 C3403 1.465 . S
C3398 C3393 1.399 . S
C3398 C3397 1.394 . S
C3398 C3399 1.516 . S
C3399 C3398 1.516 . S
C3399 C3400 1.502 . S
C3399 C3401 1.561 . S
C3399 C3402 1.526 . S
C3400 H3384 0.959 . S
C3400 H3385 0.959 . S
C3400 H3386 0.961 . S
C3400 C3399 1.502 . S
C3401 H3387 0.960 . S
C3401 H3388 0.961 . S
C3401 H3389 0.959 . S
C3401 C3399 1.561 . S
C3402 C3399 1.526 . S
C3402 C3403 1.396 . S
C3402 C3407 1.390 . S
C3403 C3397 1.465 . S
C3403 C3402 1.396 . S
C3403 C3404 1.399 . S
C3404 H3390 0.929 . S
C3404 C3403 1.399 . S
C3404 C3405 1.385 . S
C3405 H3391 0.931 . S
C3405 C3404 1.385 . S
C3405 C3406 1.389 . S
C3406 C3405 1.389 . S
C3406 C3407 1.387 . S
C3407 H3392 0.930 . S
C3407 C3402 1.390 . S
C3407 C3406 1.387 . S
H3408 C3420 0.930 . S
H3409 C3422 0.930 . S
H3410 C3423 0.930 . S
H3411 C3427 0.959 . S
H3412 C3427 0.959 . S
H3413 C3427 0.961 . S
H3414 C3428 0.960 . S
H3415 C3428 0.961 . S
H3416 C3428 0.959 . S
H3417 C3431 0.929 . S
H3418 C3432 0.931 . S
H3419 C3434 0.930 . S
C3420 H3408 0.930 . S
C3420 C3421 1.399 . S
C3420 C3425 1.399 . S
C3421 C3420 1.399 . S
C3421 C3422 1.376 . S
C3422 H3409 0.930 . S
C3422 C3421 1.376 . S
C3422 C3423 1.388 . S
C3423 H3410 0.930 . S
C3423 C3422 1.388 . S
C3423 C3424 1.390 . S
C3424 C3423 1.390 . S
C3424 C3425 1.394 . S
C3424 C3430 1.465 . S
C3425 C3420 1.399 . S
C3425 C3424 1.394 . S
C3425 C3426 1.516 . S
C3426 C3425 1.516 . S
C3426 C3427 1.502 . S
C3426 C3428 1.561 . S
C3426 C3429 1.526 . S
C3427 H3411 0.959 . S
C3427 H3412 0.959 . S
C3427 H3413 0.961 . S
C3427 C3426 1.502 . S
C3428 H3414 0.960 . S
C3428 H3415 0.961 . S
C3428 H3416 0.959 . S
C3428 C3426 1.561 . S
C3429 C3426 1.526 . S
C3429 C3430 1.396 . S
C3429 C3434 1.390 . S
C3430 C3424 1.465 . S
C3430 C3429 1.396 . S
C3430 C3431 1.399 . S
C3431 H3417 0.929 . S
C3431 C3430 1.399 . S
C3431 C3432 1.385 . S
C3432 H3418 0.931 . S
C3432 C3431 1.385 . S
C3432 C3433 1.389 . S
C3433 C3432 1.389 . S
C3433 C3434 1.387 . S
C3434 H3419 0.930 . S
C3434 C3429 1.390 . S
C3434 C3433 1.387 . S
H3435 C3447 0.930 . S
H3436 C3449 0.930 . S
H3437 C3450 0.930 . S
H3438 C3454 0.959 . S
H3439 C3454 0.959 . S
H3440 C3454 0.961 . S
H3441 C3455 0.960 . S
H3442 C3455 0.961 . S
H3443 C3455 0.959 . S
H3444 C3458 0.929 . S
H3445 C3459 0.931 . S
H3446 C3461 0.930 . S
C3447 H3435 0.930 . S
C3447 C3448 1.399 . S
C3447 C3452 1.399 . S
C3448 C3447 1.399 . S
C3448 C3449 1.376 . S
C3449 H3436 0.930 . S
C3449 C3448 1.376 . S
C3449 C3450 1.388 . S
C3450 H3437 0.930 . S
C3450 C3449 1.388 . S
C3450 C3451 1.390 . S
C3451 C3450 1.390 . S
C3451 C3452 1.394 . S
C3451 C3457 1.465 . S
C3452 C3447 1.399 . S
C3452 C3451 1.394 . S
C3452 C3453 1.516 . S
C3453 C3452 1.516 . S
C3453 C3454 1.502 . S
C3453 C3455 1.561 . S
C3453 C3456 1.526 . S
C3454 H3438 0.959 . S
C3454 H3439 0.959 . S
C3454 H3440 0.961 . S
C3454 C3453 1.502 . S
C3455 H3441 0.960 . S
C3455 H3442 0.961 . S
C3455 H3443 0.959 . S
C3455 C3453 1.561 . S
C3456 C3453 1.526 . S
C3456 C3457 1.396 . S
C3456 C3461 1.390 . S
C3457 C3451 1.465 . S
C3457 C3456 1.396 . S
C3457 C3458 1.399 . S
C3458 H3444 0.929 . S
C3458 C3457 1.399 . S
C3458 C3459 1.385 . S
C3459 H3445 0.931 . S
C3459 C3458 1.385 . S
C3459 C3460 1.389 . S
C3460 C3459 1.389 . S
C3460 C3461 1.387 . S
C3461 H3446 0.930 . S
C3461 C3456 1.390 . S
C3461 C3460 1.387 . S
H3462 C3474 0.930 . S
H3463 C3476 0.930 . S
H3464 C3477 0.930 . S
H3465 C3481 0.959 . S
H3466 C3481 0.959 . S
H3467 C3481 0.961 . S
H3468 C3482 0.960 . S
H3469 C3482 0.961 . S
H3470 C3482 0.959 . S
H3471 C3485 0.929 . S
H3472 C3486 0.931 . S
H3473 C3488 0.930 . S
C3474 H3462 0.930 . S
C3474 C3475 1.399 . S
C3474 C3479 1.399 . S
C3475 C3474 1.399 . S
C3475 C3476 1.376 . S
C3476 H3463 0.930 . S
C3476 C3475 1.376 . S
C3476 C3477 1.388 . S
C3477 H3464 0.930 . S
C3477 C3476 1.388 . S
C3477 C3478 1.390 . S
C3478 C3477 1.390 . S
C3478 C3479 1.394 . S
C3478 C3484 1.465 . S
C3479 C3474 1.399 . S
C3479 C3478 1.394 . S
C3479 C3480 1.516 . S
C3480 C3479 1.516 . S
C3480 C3481 1.502 . S
C3480 C3482 1.561 . S
C3480 C3483 1.526 . S
C3481 H3465 0.959 . S
C3481 H3466 0.959 . S
C3481 H3467 0.961 . S
C3481 C3480 1.502 . S
C3482 H3468 0.960 . S
C3482 H3469 0.961 . S
C3482 H3470 0.959 . S
C3482 C3480 1.561 . S
C3483 C3480 1.526 . S
C3483 C3484 1.396 . S
C3483 C3488 1.390 . S
C3484 C3478 1.465 . S
C3484 C3483 1.396 . S
C3484 C3485 1.399 . S
C3485 H3471 0.929 . S
C3485 C3484 1.399 . S
C3485 C3486 1.385 . S
C3486 H3472 0.931 . S
C3486 C3485 1.385 . S
C3486 C3487 1.389 . S
C3487 C3486 1.389 . S
C3487 C3488 1.387 . S
C3488 H3473 0.930 . S
C3488 C3483 1.390 . S
C3488 C3487 1.387 . S
H3489 C3501 0.930 1_556 S
H3490 C3503 0.930 . S
H3491 C3504 0.930 . S
H3492 C3508 0.959 . S
H3493 C3508 0.942 1_545 S
H3494 C3508 0.961 . S
H3495 C3509 0.960 . S
H3496 C3509 0.961 . S
H3497 C3509 0.959 1_554 S
H3498 C3512 0.929 1_565 S
H3499 C3513 0.931 . S
H3500 C3515 0.977 . S
C3501 H3489 0.930 1_554 S
C3501 C3502 1.399 . S
C3501 C3506 1.399 . S
C3502 C3501 1.399 . S
C3502 C3503 1.376 . S
C3503 H3490 0.930 . S
C3503 C3502 1.376 . S
C3503 C3504 1.388 . S
C3504 H3491 0.930 . S
C3504 C3503 1.388 . S
C3504 C3505 1.390 . S
C3505 C3504 1.390 . S
C3505 C3506 1.394 . S
C3505 C3511 1.468 . S
C3506 C3501 1.399 . S
C3506 C3505 1.394 . S
C3506 C3507 1.516 1_564 S
C3507 C3506 1.516 1_546 S
C3507 C3508 1.502 1_545 S
C3507 C3509 1.561 . S
C3507 C3510 1.526 1_556 S
C3508 H3492 0.959 . S
C3508 H3493 0.942 1_565 S
C3508 H3494 0.961 . S
C3508 C3507 1.502 1_565 S
C3509 H3495 0.960 . S
C3509 H3496 0.961 . S
C3509 H3497 0.959 1_556 S
C3509 C3507 1.561 . S
C3510 C3507 1.526 1_554 S
C3510 C3511 1.390 1_545 S
C3510 C3515 1.371 1_554 S
C3511 C3505 1.468 . S
C3511 C3510 1.390 1_565 S
C3511 C3512 1.401 1_565 S
C3512 H3498 0.929 1_545 S
C3512 C3511 1.401 1_545 S
C3512 C3513 1.385 . S
C3513 H3499 0.931 . S
C3513 C3512 1.385 . S
C3513 C3514 1.389 . S
C3514 C3513 1.389 . S
C3514 C3515 1.359 1_554 S
C3515 H3500 0.977 . S
C3515 C3510 1.371 1_556 S
C3515 C3514 1.359 1_556 S
H3516 C3528 0.930 . S
H3517 C3530 0.930 . S
H3518 C3531 0.930 . S
H3519 C3535 0.959 . S
H3520 C3535 0.959 . S
H3521 C3535 0.961 . S
H3522 C3536 0.960 . S
H3523 C3536 0.961 . S
H3524 C3536 0.959 . S
H3525 C3539 0.929 . S
H3526 C3540 0.931 . S
H3527 C3542 0.930 . S
C3528 H3516 0.930 . S
C3528 C3529 1.399 . S
C3528 C3533 1.399 . S
C3529 C3528 1.399 . S
C3529 C3530 1.376 . S
C3530 H3517 0.930 . S
C3530 C3529 1.376 . S
C3530 C3531 1.388 . S
C3531 H3518 0.930 . S
C3531 C3530 1.388 . S
C3531 C3532 1.390 . S
C3532 C3531 1.390 . S
C3532 C3533 1.394 . S
C3532 C3538 1.465 . S
C3533 C3528 1.399 . S
C3533 C3532 1.394 . S
C3533 C3534 1.516 . S
C3534 C3533 1.516 . S
C3534 C3535 1.502 . S
C3534 C3536 1.561 . S
C3534 C3537 1.526 . S
C3535 H3519 0.959 . S
C3535 H3520 0.959 . S
C3535 H3521 0.961 . S
C3535 C3534 1.502 . S
C3536 H3522 0.960 . S
C3536 H3523 0.961 . S
C3536 H3524 0.959 . S
C3536 C3534 1.561 . S
C3537 C3534 1.526 . S
C3537 C3538 1.396 . S
C3537 C3542 1.390 . S
C3538 C3532 1.465 . S
C3538 C3537 1.396 . S
C3538 C3539 1.399 . S
C3539 H3525 0.929 . S
C3539 C3538 1.399 . S
C3539 C3540 1.385 . S
C3540 H3526 0.931 . S
C3540 C3539 1.385 . S
C3540 C3541 1.389 . S
C3541 C3540 1.389 . S
C3541 C3542 1.387 . S
C3542 H3527 0.930 . S
C3542 C3537 1.390 . S
C3542 C3541 1.387 . S
H3543 C3555 0.930 . S
H3544 C3557 0.930 . S
H3545 C3558 0.930 . S
H3546 C3562 0.959 . S
H3547 C3562 0.959 . S
H3548 C3562 0.961 . S
H3549 C3563 0.960 . S
H3550 C3563 0.961 . S
H3551 C3563 0.959 . S
H3552 C3566 0.929 . S
H3553 C3567 0.931 1_556 S
H3554 C3569 0.930 . S
C3555 H3543 0.930 . S
C3555 C3556 1.399 1_554 S
C3555 C3560 1.399 . S
C3556 C3555 1.399 1_556 S
C3556 C3557 1.376 . S
C3557 H3544 0.930 . S
C3557 C3556 1.376 . S
C3557 C3558 1.388 . S
C3558 H3545 0.930 . S
C3558 C3557 1.388 . S
C3558 C3559 1.374 1_556 S
C3559 C3558 1.374 1_554 S
C3559 C3560 1.408 . S
C3559 C3565 1.470 . S
C3560 C3555 1.399 . S
C3560 C3559 1.408 . S
C3560 C3561 1.516 . S
C3561 C3560 1.516 . S
C3561 C3562 1.502 . S
C3561 C3563 1.561 . S
C3561 C3564 1.526 . S
C3562 H3546 0.959 . S
C3562 H3547 0.959 . S
C3562 H3548 0.961 . S
C3562 C3561 1.502 . S
C3563 H3549 0.960 . S
C3563 H3550 0.961 . S
C3563 H3551 0.959 . S
C3563 C3561 1.561 . S
C3564 C3561 1.526 . S
C3564 C3565 1.396 . S
C3564 C3569 1.390 . S
C3565 C3559 1.470 . S
C3565 C3564 1.396 . S
C3565 C3566 1.399 1_554 S
C3566 H3552 0.929 . S
C3566 C3565 1.399 1_556 S
C3566 C3567 1.385 1_556 S
C3567 H3553 0.931 1_554 S
C3567 C3566 1.385 1_554 S
C3567 C3568 1.389 . S
C3568 C3567 1.389 . S
C3568 C3569 1.387 . S
C3569 H3554 0.930 . S
C3569 C3564 1.390 . S
C3569 C3568 1.387 . S
H3570 C3582 0.930 . S
H3571 C3584 0.930 . S
H3572 C3585 0.930 . S
H3573 C3589 0.959 . S
H3574 C3589 0.959 . S
H3575 C3589 0.961 . S
H3576 C3590 0.960 . S
H3577 C3590 0.961 . S
H3578 C3590 0.959 . S
H3579 C3593 0.929 . S
H3580 C3594 0.931 . S
H3581 C3596 0.930 . S
C3582 H3570 0.930 . S
C3582 C3583 1.399 . S
C3582 C3587 1.399 . S
C3583 C3582 1.399 . S
C3583 C3584 1.376 . S
C3584 H3571 0.930 . S
C3584 C3583 1.376 . S
C3584 C3585 1.388 . S
C3585 H3572 0.930 . S
C3585 C3584 1.388 . S
C3585 C3586 1.390 . S
C3586 C3585 1.390 . S
C3586 C3587 1.394 . S
C3586 C3592 1.465 . S
C3587 C3582 1.399 . S
C3587 C3586 1.394 . S
C3587 C3588 1.516 . S
C3588 C3587 1.516 . S
C3588 C3589 1.502 . S
C3588 C3590 1.561 . S
C3588 C3591 1.526 . S
C3589 H3573 0.959 . S
C3589 H3574 0.959 . S
C3589 H3575 0.961 . S
C3589 C3588 1.502 . S
C3590 H3576 0.960 . S
C3590 H3577 0.961 . S
C3590 H3578 0.959 . S
C3590 C3588 1.561 . S
C3591 C3588 1.526 . S
C3591 C3592 1.396 . S
C3591 C3596 1.390 . S
C3592 C3586 1.465 . S
C3592 C3591 1.396 . S
C3592 C3593 1.399 . S
C3593 H3579 0.929 . S
C3593 C3592 1.399 . S
C3593 C3594 1.385 . S
C3594 H3580 0.931 . S
C3594 C3593 1.385 . S
C3594 C3595 1.389 . S
C3595 C3594 1.389 . S
C3595 C3596 1.387 . S
C3596 H3581 0.930 . S
C3596 C3591 1.390 . S
C3596 C3595 1.387 . S
H3597 C3609 0.930 . S
H3598 C3611 0.930 . S
H3599 C3612 0.930 . S
H3600 C3616 0.959 . S
H3601 C3616 0.959 . S
H3602 C3616 0.961 . S
H3603 C3617 0.960 . S
H3604 C3617 0.961 . S
H3605 C3617 0.959 . S
H3606 C3620 0.929 . S
H3607 C3621 0.931 . S
H3608 C3623 0.930 . S
C3609 H3597 0.930 . S
C3609 C3610 1.399 . S
C3609 C3614 1.399 . S
C3610 C3609 1.399 . S
C3610 C3611 1.376 . S
C3611 H3598 0.930 . S
C3611 C3610 1.376 . S
C3611 C3612 1.388 . S
C3612 H3599 0.930 . S
C3612 C3611 1.388 . S
C3612 C3613 1.390 . S
C3613 C3612 1.390 . S
C3613 C3614 1.394 . S
C3613 C3619 1.465 . S
C3614 C3609 1.399 . S
C3614 C3613 1.394 . S
C3614 C3615 1.516 . S
C3615 C3614 1.516 . S
C3615 C3616 1.502 . S
C3615 C3617 1.561 . S
C3615 C3618 1.526 . S
C3616 H3600 0.959 . S
C3616 H3601 0.959 . S
C3616 H3602 0.961 . S
C3616 C3615 1.502 . S
C3617 H3603 0.960 . S
C3617 H3604 0.961 . S
C3617 H3605 0.959 . S
C3617 C3615 1.561 . S
C3618 C3615 1.526 . S
C3618 C3619 1.396 . S
C3618 C3623 1.390 . S
C3619 C3613 1.465 . S
C3619 C3618 1.396 . S
C3619 C3620 1.399 . S
C3620 H3606 0.929 . S
C3620 C3619 1.399 . S
C3620 C3621 1.385 . S
C3621 H3607 0.931 . S
C3621 C3620 1.385 . S
C3621 C3622 1.389 . S
C3622 C3621 1.389 . S
C3622 C3623 1.387 . S
C3623 H3608 0.930 . S
C3623 C3618 1.390 . S
C3623 C3622 1.387 . S
H3624 C3636 0.930 . S
H3625 C3638 0.930 . S
H3626 C3639 0.930 . S
H3627 C3643 0.959 . S
H3628 C3643 0.959 . S
H3629 C3643 0.961 . S
H3630 C3644 0.960 . S
H3631 C3644 0.961 . S
H3632 C3644 0.959 . S
H3633 C3647 0.929 . S
H3634 C3648 0.931 . S
H3635 C3650 0.930 . S
C3636 H3624 0.930 . S
C3636 C3637 1.399 . S
C3636 C3641 1.399 . S
C3637 C3636 1.399 . S
C3637 C3638 1.376 . S
C3638 H3625 0.930 . S
C3638 C3637 1.376 . S
C3638 C3639 1.388 . S
C3639 H3626 0.930 . S
C3639 C3638 1.388 . S
C3639 C3640 1.390 . S
C3640 C3639 1.390 . S
C3640 C3641 1.394 . S
C3640 C3646 1.465 . S
C3641 C3636 1.399 . S
C3641 C3640 1.394 . S
C3641 C3642 1.516 . S
C3642 C3641 1.516 . S
C3642 C3643 1.502 . S
C3642 C3644 1.561 . S
C3642 C3645 1.526 . S
C3643 H3627 0.959 . S
C3643 H3628 0.959 . S
C3643 H3629 0.961 . S
C3643 C3642 1.502 . S
C3644 H3630 0.960 . S
C3644 H3631 0.961 . S
C3644 H3632 0.959 . S
C3644 C3642 1.561 . S
C3645 C3642 1.526 . S
C3645 C3646 1.396 . S
C3645 C3650 1.390 . S
C3646 C3640 1.465 . S
C3646 C3645 1.396 . S
C3646 C3647 1.399 . S
C3647 H3633 0.929 . S
C3647 C3646 1.399 . S
C3647 C3648 1.385 . S
C3648 H3634 0.931 . S
C3648 C3647 1.385 . S
C3648 C3649 1.389 . S
C3649 C3648 1.389 . S
C3649 C3650 1.387 . S
C3650 H3635 0.930 . S
C3650 C3645 1.390 . S
C3650 C3649 1.387 . S
H3651 C3663 0.930 . S
H3652 C3665 0.930 . S
H3653 C3666 0.930 . S
H3654 C3670 0.959 . S
H3655 C3670 0.959 . S
H3656 C3670 0.961 . S
H3657 C3671 0.960 . S
H3658 C3671 0.961 . S
H3659 C3671 0.959 . S
H3660 C3674 0.929 . S
H3661 C3675 0.931 . S
H3662 C3677 0.930 . S
C3663 H3651 0.930 . S
C3663 C3664 1.399 . S
C3663 C3668 1.399 . S
C3664 C3663 1.399 . S
C3664 C3665 1.376 . S
C3665 H3652 0.930 . S
C3665 C3664 1.376 . S
C3665 C3666 1.388 . S
C3666 H3653 0.930 . S
C3666 C3665 1.388 . S
C3666 C3667 1.390 . S
C3667 C3666 1.390 . S
C3667 C3668 1.394 . S
C3667 C3673 1.465 . S
C3668 C3663 1.399 . S
C3668 C3667 1.394 . S
C3668 C3669 1.516 . S
C3669 C3668 1.516 . S
C3669 C3670 1.502 . S
C3669 C3671 1.561 . S
C3669 C3672 1.526 . S
C3670 H3654 0.959 . S
C3670 H3655 0.959 . S
C3670 H3656 0.961 . S
C3670 C3669 1.502 . S
C3671 H3657 0.960 . S
C3671 H3658 0.961 . S
C3671 H3659 0.959 . S
C3671 C3669 1.561 . S
C3672 C3669 1.526 . S
C3672 C3673 1.396 . S
C3672 C3677 1.390 . S
C3673 C3667 1.465 . S
C3673 C3672 1.396 . S
C3673 C3674 1.399 . S
C3674 H3660 0.929 . S
C3674 C3673 1.399 . S
C3674 C3675 1.385 . S
C3675 H3661 0.931 . S
C3675 C3674 1.385 . S
C3675 C3676 1.389 . S
C3676 C3675 1.389 . S
C3676 C3677 1.387 . S
C3677 H3662 0.930 . S
C3677 C3672 1.390 . S
C3677 C3676 1.387 . S
H3678 C3690 0.930 . S
H3679 C3692 0.930 . S
H3680 C3693 0.930 . S
H3681 C3697 0.959 . S
H3682 C3697 0.959 . S
H3683 C3697 0.961 . S
H3684 C3698 0.960 . S
H3685 C3698 0.961 . S
H3686 C3698 0.959 . S
H3687 C3701 0.929 1_556 S
H3688 C3702 0.931 1_556 S
H3689 C3704 0.930 . S
C3690 H3678 0.930 . S
C3690 C3691 1.399 . S
C3690 C3695 1.399 . S
C3691 C3690 1.399 . S
C3691 C3692 1.376 . S
C3692 H3679 0.930 . S
C3692 C3691 1.376 . S
C3692 C3693 1.388 . S
C3693 H3680 0.930 . S
C3693 C3692 1.388 . S
C3693 C3694 1.390 . S
C3694 C3693 1.390 . S
C3694 C3695 1.394 . S
C3694 C3700 1.465 . S
C3695 C3690 1.399 . S
C3695 C3694 1.394 . S
C3695 C3696 1.516 . S
C3696 C3695 1.516 . S
C3696 C3697 1.502 . S
C3696 C3698 1.561 . S
C3696 C3699 1.526 . S
C3697 H3681 0.959 . S
C3697 H3682 0.959 . S
C3697 H3683 0.961 . S
C3697 C3696 1.502 . S
C3698 H3684 0.960 . S
C3698 H3685 0.961 . S
C3698 H3686 0.959 . S
C3698 C3696 1.561 . S
C3699 C3696 1.526 . S
C3699 C3700 1.396 . S
C3699 C3704 1.390 . S
C3700 C3694 1.465 . S
C3700 C3699 1.396 . S
C3700 C3701 1.399 . S
C3701 H3687 0.929 1_554 S
C3701 C3700 1.399 . S
C3701 C3702 1.385 . S
C3702 H3688 0.931 1_554 S
C3702 C3701 1.385 . S
C3702 C3703 1.389 . S
C3703 C3702 1.389 . S
C3703 C3704 1.387 . S
C3704 H3689 0.930 . S
C3704 C3699 1.390 . S
C3704 C3703 1.387 . S
H3705 C3717 0.930 . S
H3706 C3719 0.930 . S
H3707 C3720 0.930 . S
H3708 C3724 0.959 . S
H3709 C3724 0.959 . S
H3710 C3724 0.961 . S
H3711 C3725 0.960 . S
H3712 C3725 0.961 . S
H3713 C3725 0.959 . S
H3714 C3728 0.929 . S
H3715 C3729 0.931 . S
H3716 C3731 0.930 . S
C3717 H3705 0.930 . S
C3717 C3718 1.399 . S
C3717 C3722 1.399 . S
C3718 C3717 1.399 . S
C3718 C3719 1.376 . S
C3719 H3706 0.930 . S
C3719 C3718 1.376 . S
C3719 C3720 1.388 . S
C3720 H3707 0.930 . S
C3720 C3719 1.388 . S
C3720 C3721 1.390 . S
C3721 C3720 1.390 . S
C3721 C3722 1.394 . S
C3721 C3727 1.465 . S
C3722 C3717 1.399 . S
C3722 C3721 1.394 . S
C3722 C3723 1.516 . S
C3723 C3722 1.516 . S
C3723 C3724 1.502 . S
C3723 C3725 1.561 . S
C3723 C3726 1.526 . S
C3724 H3708 0.959 . S
C3724 H3709 0.959 . S
C3724 H3710 0.961 . S
C3724 C3723 1.502 . S
C3725 H3711 0.960 . S
C3725 H3712 0.961 . S
C3725 H3713 0.959 . S
C3725 C3723 1.561 . S
C3726 C3723 1.526 . S
C3726 C3727 1.396 . S
C3726 C3731 1.390 . S
C3727 C3721 1.465 . S
C3727 C3726 1.396 . S
C3727 C3728 1.399 . S
C3728 H3714 0.929 . S
C3728 C3727 1.399 . S
C3728 C3729 1.385 . S
C3729 H3715 0.931 . S
C3729 C3728 1.385 . S
C3729 C3730 1.389 . S
C3730 C3729 1.389 . S
C3730 C3731 1.387 . S
C3731 H3716 0.930 . S
C3731 C3726 1.390 . S
C3731 C3730 1.387 . S
H3732 C3744 0.930 . S
H3733 C3746 0.930 . S
H3734 C3747 0.930 . S
H3735 C3751 0.959 . S
H3736 C3751 0.936 1_554 S
H3737 C3751 0.961 . S
H3738 C3752 0.960 . S
H3739 C3752 0.961 1_554 S
H3740 C3752 0.959 . S
H3741 C3755 0.929 . S
H3742 C3756 0.931 . S
H3743 C3758 0.930 1_554 S
C3744 H3732 0.930 . S
C3744 C3745 1.399 . S
C3744 C3749 1.399 . S
C3745 C3744 1.399 . S
C3745 C3746 1.376 . S
C3746 H3733 0.930 . S
C3746 C3745 1.376 . S
C3746 C3747 1.388 . S
C3747 H3734 0.930 . S
C3747 C3746 1.388 . S
C3747 C3748 1.390 . S
C3748 C3747 1.390 . S
C3748 C3749 1.394 . S
C3748 C3754 1.465 . S
C3749 C3744 1.399 . S
C3749 C3748 1.394 . S
C3749 C3750 1.516 . S
C3750 C3749 1.516 . S
C3750 C3751 1.502 . S
C3750 C3752 1.561 . S
C3750 C3753 1.526 . S
C3751 H3735 0.959 . S
C3751 H3736 0.936 1_556 S
C3751 H3737 0.961 . S
C3751 C3750 1.502 . S
C3752 H3738 0.960 . S
C3752 H3739 0.961 1_556 S
C3752 H3740 0.959 . S
C3752 C3750 1.561 . S
C3753 C3750 1.526 . S
C3753 C3754 1.396 . S
C3753 C3758 1.390 . S
C3754 C3748 1.465 . S
C3754 C3753 1.396 . S
C3754 C3755 1.399 . S
C3755 H3741 0.929 . S
C3755 C3754 1.399 . S
C3755 C3756 1.385 . S
C3756 H3742 0.931 . S
C3756 C3755 1.385 . S
C3756 C3757 1.389 . S
C3757 C3756 1.389 . S
C3757 C3758 1.387 . S
C3758 H3743 0.930 1_556 S
C3758 C3753 1.390 . S
C3758 C3757 1.387 . S
H3759 C3771 0.930 . S
H3760 C3773 0.930 . S
H3761 C3774 0.930 . S
H3762 C3778 0.959 . S
H3763 C3778 0.959 . S
H3764 C3778 0.961 . S
H3765 C3779 0.960 . S
H3766 C3779 0.961 . S
H3767 C3779 0.959 . S
H3768 C3782 0.929 . S
H3769 C3783 0.931 . S
H3770 C3785 0.930 . S
C3771 H3759 0.930 . S
C3771 C3772 1.399 . S
C3771 C3776 1.399 . S
C3772 C3771 1.399 . S
C3772 C3773 1.376 . S
C3773 H3760 0.930 . S
C3773 C3772 1.376 . S
C3773 C3774 1.388 . S
C3774 H3761 0.930 . S
C3774 C3773 1.388 . S
C3774 C3775 1.390 . S
C3775 C3774 1.390 . S
C3775 C3776 1.394 . S
C3775 C3781 1.465 . S
C3776 C3771 1.399 . S
C3776 C3775 1.394 . S
C3776 C3777 1.516 . S
C3777 C3776 1.516 . S
C3777 C3778 1.502 . S
C3777 C3779 1.561 . S
C3777 C3780 1.526 . S
C3778 H3762 0.959 . S
C3778 H3763 0.959 . S
C3778 H3764 0.961 . S
C3778 C3777 1.502 . S
C3779 H3765 0.960 . S
C3779 H3766 0.961 . S
C3779 H3767 0.959 . S
C3779 C3777 1.561 . S
C3780 C3777 1.526 . S
C3780 C3781 1.396 . S
C3780 C3785 1.390 . S
C3781 C3775 1.465 . S
C3781 C3780 1.396 . S
C3781 C3782 1.399 . S
C3782 H3768 0.929 . S
C3782 C3781 1.399 . S
C3782 C3783 1.385 . S
C3783 H3769 0.931 . S
C3783 C3782 1.385 . S
C3783 C3784 1.389 . S
C3784 C3783 1.389 . S
C3784 C3785 1.387 . S
C3785 H3770 0.930 . S
C3785 C3780 1.390 . S
C3785 C3784 1.387 . S
H3786 C3798 0.930 . S
H3787 C3800 0.930 . S
H3788 C3801 0.930 . S
H3789 C3805 0.959 . S
H3790 C3805 0.959 . S
H3791 C3805 0.961 . S
H3792 C3806 0.960 . S
H3793 C3806 0.961 . S
H3794 C3806 0.959 . S
H3795 C3809 0.929 . S
H3796 C3810 0.931 . S
H3797 C3812 0.930 . S
C3798 H3786 0.930 . S
C3798 C3799 1.399 . S
C3798 C3803 1.399 . S
C3799 C3798 1.399 . S
C3799 C3800 1.376 . S
C3800 H3787 0.930 . S
C3800 C3799 1.376 . S
C3800 C3801 1.388 . S
C3801 H3788 0.930 . S
C3801 C3800 1.388 . S
C3801 C3802 1.390 . S
C3802 C3801 1.390 . S
C3802 C3803 1.394 . S
C3802 C3808 1.465 . S
C3803 C3798 1.399 . S
C3803 C3802 1.394 . S
C3803 C3804 1.516 . S
C3804 C3803 1.516 . S
C3804 C3805 1.502 . S
C3804 C3806 1.561 . S
C3804 C3807 1.526 . S
C3805 H3789 0.959 . S
C3805 H3790 0.959 . S
C3805 H3791 0.961 . S
C3805 C3804 1.502 . S
C3806 H3792 0.960 . S
C3806 H3793 0.961 . S
C3806 H3794 0.959 . S
C3806 C3804 1.561 . S
C3807 C3804 1.526 . S
C3807 C3808 1.396 . S
C3807 C3812 1.390 . S
C3808 C3802 1.465 . S
C3808 C3807 1.396 . S
C3808 C3809 1.399 . S
C3809 H3795 0.929 . S
C3809 C3808 1.399 . S
C3809 C3810 1.385 . S
C3810 H3796 0.931 . S
C3810 C3809 1.385 . S
C3810 C3811 1.389 . S
C3811 C3810 1.389 . S
C3811 C3812 1.387 . S
C3812 H3797 0.930 . S
C3812 C3807 1.390 . S
C3812 C3811 1.387 . S
H3813 C3825 0.930 . S
H3814 C3827 0.930 . S
H3815 C3828 0.930 . S
H3816 C3832 0.959 . S
H3817 C3832 0.959 . S
H3818 C3832 0.961 . S
H3819 C3833 0.960 . S
H3820 C3833 0.961 . S
H3821 C3833 0.959 . S
H3822 C3836 0.929 . S
H3823 C3837 0.931 . S
H3824 C3839 0.930 . S
C3825 H3813 0.930 . S
C3825 C3826 1.399 . S
C3825 C3830 1.399 . S
C3826 C3825 1.399 . S
C3826 C3827 1.376 . S
C3827 H3814 0.930 . S
C3827 C3826 1.376 . S
C3827 C3828 1.388 . S
C3828 H3815 0.930 . S
C3828 C3827 1.388 . S
C3828 C3829 1.390 . S
C3829 C3828 1.390 . S
C3829 C3830 1.394 . S
C3829 C3835 1.465 . S
C3830 C3825 1.399 . S
C3830 C3829 1.394 . S
C3830 C3831 1.516 . S
C3831 C3830 1.516 . S
C3831 C3832 1.502 . S
C3831 C3833 1.561 . S
C3831 C3834 1.526 . S
C3832 H3816 0.959 . S
C3832 H3817 0.959 . S
C3832 H3818 0.961 . S
C3832 C3831 1.502 . S
C3833 H3819 0.960 . S
C3833 H3820 0.961 . S
C3833 H3821 0.959 . S
C3833 C3831 1.561 . S
C3834 C3831 1.526 . S
C3834 C3835 1.396 . S
C3834 C3839 1.390 . S
C3835 C3829 1.465 . S
C3835 C3834 1.396 . S
C3835 C3836 1.399 . S
C3836 H3822 0.929 . S
C3836 C3835 1.399 . S
C3836 C3837 1.385 . S
C3837 H3823 0.931 . S
C3837 C3836 1.385 . S
C3837 C3838 1.389 . S
C3838 C3837 1.389 . S
C3838 C3839 1.387 . S
C3839 H3824 0.930 . S
C3839 C3834 1.390 . S
C3839 C3838 1.387 . S
H3840 C3852 0.930 . S
H3841 C3854 0.930 . S
H3842 C3855 0.930 . S
H3843 C3859 0.959 . S
H3844 C3859 0.959 . S
H3845 C3859 0.961 . S
H3846 C3860 0.960 . S
H3847 C3860 0.961 . S
H3848 C3860 0.959 . S
H3849 C3863 0.929 . S
H3850 C3864 0.931 . S
H3851 C3866 0.930 . S
C3852 H3840 0.930 . S
C3852 C3853 1.399 . S
C3852 C3857 1.399 . S
C3853 C3852 1.399 . S
C3853 C3854 1.376 . S
C3854 H3841 0.930 . S
C3854 C3853 1.376 . S
C3854 C3855 1.388 . S
C3855 H3842 0.930 . S
C3855 C3854 1.388 . S
C3855 C3856 1.390 . S
C3856 C3855 1.390 . S
C3856 C3857 1.394 . S
C3856 C3862 1.465 . S
C3857 C3852 1.399 . S
C3857 C3856 1.394 . S
C3857 C3858 1.516 . S
C3858 C3857 1.516 . S
C3858 C3859 1.502 . S
C3858 C3860 1.561 . S
C3858 C3861 1.526 . S
C3859 H3843 0.959 . S
C3859 H3844 0.959 . S
C3859 H3845 0.961 . S
C3859 C3858 1.502 . S
C3860 H3846 0.960 . S
C3860 H3847 0.961 . S
C3860 H3848 0.959 . S
C3860 C3858 1.561 . S
C3861 C3858 1.526 . S
C3861 C3862 1.396 . S
C3861 C3866 1.390 . S
C3862 C3856 1.465 . S
C3862 C3861 1.396 . S
C3862 C3863 1.399 . S
C3863 H3849 0.929 . S
C3863 C3862 1.399 . S
C3863 C3864 1.385 . S
C3864 H3850 0.931 . S
C3864 C3863 1.385 . S
C3864 C3865 1.389 . S
C3865 C3864 1.389 . S
C3865 C3866 1.387 . S
C3866 H3851 0.930 . S
C3866 C3861 1.390 . S
C3866 C3865 1.387 . S
H3867 C3879 0.930 . S
H3868 C3881 0.930 . S
H3869 C3882 0.930 . S
H3870 C3886 0.959 . S
H3871 C3886 0.959 . S
H3872 C3886 0.961 . S
H3873 C3887 0.960 . S
H3874 C3887 0.961 . S
H3875 C3887 0.959 . S
H3876 C3890 0.929 . S
H3877 C3891 0.931 . S
H3878 C3893 0.930 . S
C3879 H3867 0.930 . S
C3879 C3880 1.399 . S
C3879 C3884 1.399 . S
C3880 C3879 1.399 . S
C3880 C3881 1.376 . S
C3881 H3868 0.930 . S
C3881 C3880 1.376 . S
C3881 C3882 1.388 . S
C3882 H3869 0.930 . S
C3882 C3881 1.388 . S
C3882 C3883 1.390 . S
C3883 C3882 1.390 . S
C3883 C3884 1.394 . S
C3883 C3889 1.465 . S
C3884 C3879 1.399 . S
C3884 C3883 1.394 . S
C3884 C3885 1.516 . S
C3885 C3884 1.516 . S
C3885 C3886 1.502 . S
C3885 C3887 1.561 . S
C3885 C3888 1.526 . S
C3886 H3870 0.959 . S
C3886 H3871 0.959 . S
C3886 H3872 0.961 . S
C3886 C3885 1.502 . S
C3887 H3873 0.960 . S
C3887 H3874 0.961 . S
C3887 H3875 0.959 . S
C3887 C3885 1.561 . S
C3888 C3885 1.526 . S
C3888 C3889 1.396 . S
C3888 C3893 1.390 . S
C3889 C3883 1.465 . S
C3889 C3888 1.396 . S
C3889 C3890 1.399 . S
C3890 H3876 0.929 . S
C3890 C3889 1.399 . S
C3890 C3891 1.385 . S
C3891 H3877 0.931 . S
C3891 C3890 1.385 . S
C3891 C3892 1.389 . S
C3892 C3891 1.389 . S
C3892 C3893 1.387 . S
C3893 H3878 0.930 . S
C3893 C3888 1.390 . S
C3893 C3892 1.387 . S
H3894 C3906 0.930 . S
H3895 C3908 0.930 . S
H3896 C3909 0.930 . S
H3897 C3913 0.959 . S
H3898 C3913 0.959 . S
H3899 C3913 0.961 . S
H3900 C3914 0.960 . S
H3901 C3914 0.961 1_455 S
H3902 C3914 0.959 . S
H3903 C3917 0.929 . S
H3904 C3918 0.931 . S
H3905 C3920 0.930 . S
C3906 H3894 0.930 . S
C3906 C3907 1.399 . S
C3906 C3911 1.399 . S
C3907 C3906 1.399 . S
C3907 C3908 1.376 . S
C3908 H3895 0.930 . S
C3908 C3907 1.376 . S
C3908 C3909 1.388 . S
C3909 H3896 0.930 . S
C3909 C3908 1.388 . S
C3909 C3910 1.390 . S
C3910 C3909 1.390 . S
C3910 C3911 1.394 . S
C3910 C3916 1.465 . S
C3911 C3906 1.399 . S
C3911 C3910 1.394 . S
C3911 C3912 1.516 1_655 S
C3912 C3911 1.516 1_455 S
C3912 C3913 1.502 . S
C3912 C3914 1.561 1_455 S
C3912 C3915 1.526 . S
C3913 H3897 0.959 . S
C3913 H3898 0.959 . S
C3913 H3899 0.961 . S
C3913 C3912 1.502 . S
C3914 H3900 0.960 . S
C3914 H3901 0.961 1_655 S
C3914 H3902 0.959 . S
C3914 C3912 1.561 1_655 S
C3915 C3912 1.526 . S
C3915 C3916 1.396 1_455 S
C3915 C3920 1.390 . S
C3916 C3910 1.465 . S
C3916 C3915 1.396 1_655 S
C3916 C3917 1.399 . S
C3917 H3903 0.929 . S
C3917 C3916 1.399 . S
C3917 C3918 1.385 1_655 S
C3918 H3904 0.931 . S
C3918 C3917 1.385 1_455 S
C3918 C3919 1.389 . S
C3919 C3918 1.389 . S
C3919 C3920 1.387 . S
C3920 H3905 0.930 . S
C3920 C3915 1.390 . S
C3920 C3919 1.387 . S
H3921 C3933 0.930 . S
H3922 C3935 0.930 . S
H3923 C3936 0.930 . S
H3924 C3940 0.959 . S
H3925 C3940 0.959 . S
H3926 C3940 0.961 . S
H3927 C3941 0.960 . S
H3928 C3941 0.961 . S
H3929 C3941 0.959 . S
H3930 C3944 0.929 . S
H3931 C3945 0.931 . S
H3932 C3947 0.930 . S
C3933 H3921 0.930 . S
C3933 C3934 1.399 . S
C3933 C3938 1.399 . S
C3934 C3933 1.399 . S
C3934 C3935 1.376 . S
C3935 H3922 0.930 . S
C3935 C3934 1.376 . S
C3935 C3936 1.388 . S
C3936 H3923 0.930 . S
C3936 C3935 1.388 . S
C3936 C3937 1.390 . S
C3937 C3936 1.390 . S
C3937 C3938 1.394 . S
C3937 C3943 1.465 . S
C3938 C3933 1.399 . S
C3938 C3937 1.394 . S
C3938 C3939 1.516 . S
C3939 C3938 1.516 . S
C3939 C3940 1.502 . S
C3939 C3941 1.561 . S
C3939 C3942 1.526 . S
C3940 H3924 0.959 . S
C3940 H3925 0.959 . S
C3940 H3926 0.961 . S
C3940 C3939 1.502 . S
C3941 H3927 0.960 . S
C3941 H3928 0.961 . S
C3941 H3929 0.959 . S
C3941 C3939 1.561 . S
C3942 C3939 1.526 . S
C3942 C3943 1.396 . S
C3942 C3947 1.390 . S
C3943 C3937 1.465 . S
C3943 C3942 1.396 . S
C3943 C3944 1.399 . S
C3944 H3930 0.929 . S
C3944 C3943 1.399 . S
C3944 C3945 1.385 . S
C3945 H3931 0.931 . S
C3945 C3944 1.385 . S
C3945 C3946 1.389 . S
C3946 C3945 1.389 . S
C3946 C3947 1.387 . S
C3947 H3932 0.930 . S
C3947 C3942 1.390 . S
C3947 C3946 1.387 . S
H3948 C3960 0.930 . S
H3949 C3962 0.930 . S
H3950 C3963 0.930 . S
H3951 C3967 0.959 . S
H3952 C3967 0.959 . S
H3953 C3967 0.961 . S
H3954 C3968 0.960 . S
H3955 C3968 0.961 . S
H3956 C3968 0.959 . S
H3957 C3971 0.929 . S
H3958 C3972 0.931 . S
H3959 C3974 0.930 . S
C3960 H3948 0.930 . S
C3960 C3961 1.399 . S
C3960 C3965 1.399 . S
C3961 C3960 1.399 . S
C3961 C3962 1.376 . S
C3962 H3949 0.930 . S
C3962 C3961 1.376 . S
C3962 C3963 1.388 . S
C3963 H3950 0.930 . S
C3963 C3962 1.388 . S
C3963 C3964 1.390 . S
C3964 C3963 1.390 . S
C3964 C3965 1.394 . S
C3964 C3970 1.465 . S
C3965 C3960 1.399 . S
C3965 C3964 1.394 . S
C3965 C3966 1.516 . S
C3966 C3965 1.516 . S
C3966 C3967 1.502 . S
C3966 C3968 1.561 . S
C3966 C3969 1.526 . S
C3967 H3951 0.959 . S
C3967 H3952 0.959 . S
C3967 H3953 0.961 . S
C3967 C3966 1.502 . S
C3968 H3954 0.960 . S
C3968 H3955 0.961 . S
C3968 H3956 0.959 . S
C3968 C3966 1.561 . S
C3969 C3966 1.526 . S
C3969 C3970 1.396 . S
C3969 C3974 1.390 . S
C3970 C3964 1.465 . S
C3970 C3969 1.396 . S
C3970 C3971 1.399 . S
C3971 H3957 0.929 . S
C3971 C3970 1.399 . S
C3971 C3972 1.385 . S
C3972 H3958 0.931 . S
C3972 C3971 1.385 . S
C3972 C3973 1.389 . S
C3973 C3972 1.389 . S
C3973 C3974 1.387 . S
C3974 H3959 0.930 . S
C3974 C3969 1.390 . S
C3974 C3973 1.387 . S
H3975 C3987 0.930 . S
H3976 C3989 0.930 . S
H3977 C3990 0.930 . S
H3978 C3994 0.959 . S
H3979 C3994 0.959 . S
H3980 C3994 0.961 . S
H3981 C3995 0.960 . S
H3982 C3995 0.961 . S
H3983 C3995 0.959 . S
H3984 C3998 0.929 . S
H3985 C3999 0.931 . S
H3986 C4001 0.930 . S
C3987 H3975 0.930 . S
C3987 C3988 1.399 . S
C3987 C3992 1.399 . S
C3988 C3987 1.399 . S
C3988 C3989 1.376 . S
C3989 H3976 0.930 . S
C3989 C3988 1.376 . S
C3989 C3990 1.388 . S
C3990 H3977 0.930 . S
C3990 C3989 1.388 . S
C3990 C3991 1.390 . S
C3991 C3990 1.390 . S
C3991 C3992 1.394 . S
C3991 C3997 1.465 . S
C3992 C3987 1.399 . S
C3992 C3991 1.394 . S
C3992 C3993 1.516 . S
C3993 C3992 1.516 . S
C3993 C3994 1.502 . S
C3993 C3995 1.561 . S
C3993 C3996 1.526 . S
C3994 H3978 0.959 . S
C3994 H3979 0.959 . S
C3994 H3980 0.961 . S
C3994 C3993 1.502 . S
C3995 H3981 0.960 . S
C3995 H3982 0.961 . S
C3995 H3983 0.959 . S
C3995 C3993 1.561 . S
C3996 C3993 1.526 . S
C3996 C3997 1.396 . S
C3996 C4001 1.390 . S
C3997 C3991 1.465 . S
C3997 C3996 1.396 . S
C3997 C3998 1.399 . S
C3998 H3984 0.929 . S
C3998 C3997 1.399 . S
C3998 C3999 1.385 . S
C3999 H3985 0.931 . S
C3999 C3998 1.385 . S
C3999 C4000 1.389 . S
C4000 C3999 1.389 . S
C4000 C4001 1.387 . S
C4001 H3986 0.930 . S
C4001 C3996 1.390 . S
C4001 C4000 1.387 . S
H4002 C4014 0.930 . S
H4003 C4016 0.930 . S
H4004 C4017 0.930 . S
H4005 C4021 0.959 1_455 S
H4006 C4021 0.959 1_455 S
H4007 C4021 0.961 . S
H4008 C4022 0.960 . S
H4009 C4022 0.961 . S
H4010 C4022 0.959 . S
H4011 C4025 0.929 . S
H4012 C4026 0.931 . S
H4013 C4028 0.930 . S
C4014 H4002 0.930 . S
C4014 C4015 1.399 . S
C4014 C4019 1.399 . S
C4015 C4014 1.399 . S
C4015 C4016 1.376 . S
C4016 H4003 0.930 . S
C4016 C4015 1.376 . S
C4016 C4017 1.388 . S
C4017 H4004 0.930 . S
C4017 C4016 1.388 . S
C4017 C4018 1.390 . S
C4018 C4017 1.390 . S
C4018 C4019 1.394 . S
C4018 C4024 1.465 . S
C4019 C4014 1.399 . S
C4019 C4018 1.394 . S
C4019 C4020 1.516 . S
C4020 C4019 1.516 . S
C4020 C4021 1.502 . S
C4020 C4022 1.561 . S
C4020 C4023 1.526 . S
C4021 H4005 0.959 1_655 S
C4021 H4006 0.959 1_655 S
C4021 H4007 0.961 . S
C4021 C4020 1.502 . S
C4022 H4008 0.960 . S
C4022 H4009 0.961 . S
C4022 H4010 0.959 . S
C4022 C4020 1.561 . S
C4023 C4020 1.526 . S
C4023 C4024 1.396 . S
C4023 C4028 1.390 . S
C4024 C4018 1.465 . S
C4024 C4023 1.396 . S
C4024 C4025 1.399 . S
C4025 H4011 0.929 . S
C4025 C4024 1.399 . S
C4025 C4026 1.385 . S
C4026 H4012 0.931 . S
C4026 C4025 1.385 . S
C4026 C4027 1.389 . S
C4027 C4026 1.389 . S
C4027 C4028 1.387 . S
C4028 H4013 0.930 . S
C4028 C4023 1.390 . S
C4028 C4027 1.387 . S
H4029 C4041 0.930 . S
H4030 C4043 0.930 . S
H4031 C4044 0.930 . S
H4032 C4048 0.959 . S
H4033 C4048 0.959 . S
H4034 C4048 0.961 . S
H4035 C4049 0.960 . S
H4036 C4049 0.961 . S
H4037 C4049 0.959 . S
H4038 C4052 0.929 . S
H4039 C4053 0.931 . S
H4040 C4055 0.930 . S
C4041 H4029 0.930 . S
C4041 C4042 1.399 . S
C4041 C4046 1.399 . S
C4042 C4041 1.399 . S
C4042 C4043 1.376 . S
C4043 H4030 0.930 . S
C4043 C4042 1.376 . S
C4043 C4044 1.388 . S
C4044 H4031 0.930 . S
C4044 C4043 1.388 . S
C4044 C4045 1.390 . S
C4045 C4044 1.390 . S
C4045 C4046 1.394 . S
C4045 C4051 1.465 . S
C4046 C4041 1.399 . S
C4046 C4045 1.394 . S
C4046 C4047 1.516 . S
C4047 C4046 1.516 . S
C4047 C4048 1.502 . S
C4047 C4049 1.561 . S
C4047 C4050 1.526 . S
C4048 H4032 0.959 . S
C4048 H4033 0.959 . S
C4048 H4034 0.961 . S
C4048 C4047 1.502 . S
C4049 H4035 0.960 . S
C4049 H4036 0.961 . S
C4049 H4037 0.959 . S
C4049 C4047 1.561 . S
C4050 C4047 1.526 . S
C4050 C4051 1.396 . S
C4050 C4055 1.390 . S
C4051 C4045 1.465 . S
C4051 C4050 1.396 . S
C4051 C4052 1.399 . S
C4052 H4038 0.929 . S
C4052 C4051 1.399 . S
C4052 C4053 1.385 . S
C4053 H4039 0.931 . S
C4053 C4052 1.385 . S
C4053 C4054 1.389 . S
C4054 C4053 1.389 . S
C4054 C4055 1.387 . S
C4055 H4040 0.930 . S
C4055 C4050 1.390 . S
C4055 C4054 1.387 . S
H4056 C4068 0.930 . S
H4057 C4070 0.930 . S
H4058 C4071 0.930 . S
H4059 C4075 0.959 . S
H4060 C4075 0.959 . S
H4061 C4075 0.961 . S
H4062 C4076 0.960 . S
H4063 C4076 0.961 . S
H4064 C4076 0.959 . S
H4065 C4079 0.929 . S
H4066 C4080 0.931 . S
H4067 C4082 0.930 . S
C4068 H4056 0.930 . S
C4068 C4069 1.399 . S
C4068 C4073 1.399 . S
C4069 C4068 1.399 . S
C4069 C4070 1.376 . S
C4070 H4057 0.930 . S
C4070 C4069 1.376 . S
C4070 C4071 1.388 . S
C4071 H4058 0.930 . S
C4071 C4070 1.388 . S
C4071 C4072 1.390 . S
C4072 C4071 1.390 . S
C4072 C4073 1.394 . S
C4072 C4078 1.465 . S
C4073 C4068 1.399 . S
C4073 C4072 1.394 . S
C4073 C4074 1.516 . S
C4074 C4073 1.516 . S
C4074 C4075 1.502 . S
C4074 C4076 1.561 . S
C4074 C4077 1.526 . S
C4075 H4059 0.959 . S
C4075 H4060 0.959 . S
C4075 H4061 0.961 . S
C4075 C4074 1.502 . S
C4076 H4062 0.960 . S
C4076 H4063 0.961 . S
C4076 H4064 0.959 . S
C4076 C4074 1.561 . S
C4077 C4074 1.526 . S
C4077 C4078 1.396 . S
C4077 C4082 1.390 . S
C4078 C4072 1.465 . S
C4078 C4077 1.396 . S
C4078 C4079 1.399 . S
C4079 H4065 0.929 . S
C4079 C4078 1.399 . S
C4079 C4080 1.385 . S
C4080 H4066 0.931 . S
C4080 C4079 1.385 . S
C4080 C4081 1.389 . S
C4081 C4080 1.389 . S
C4081 C4082 1.387 . S
C4082 H4067 0.930 . S
C4082 C4077 1.390 . S
C4082 C4081 1.387 . S
H4083 C4095 0.930 . S
H4084 C4097 0.930 . S
H4085 C4098 0.930 . S
H4086 C4102 0.959 . S
H4087 C4102 0.959 . S
H4088 C4102 0.961 . S
H4089 C4103 0.960 . S
H4090 C4103 0.961 . S
H4091 C4103 0.959 . S
H4092 C4106 0.929 1_545 S
H4093 C4107 0.931 . S
H4094 C4109 0.930 . S
C4095 H4083 0.930 . S
C4095 C4096 1.399 . S
C4095 C4100 1.399 . S
C4096 C4095 1.399 . S
C4096 C4097 1.376 . S
C4097 H4084 0.930 . S
C4097 C4096 1.376 . S
C4097 C4098 1.388 . S
C4098 H4085 0.930 . S
C4098 C4097 1.388 . S
C4098 C4099 1.390 . S
C4099 C4098 1.390 . S
C4099 C4100 1.394 . S
C4099 C4105 1.465 . S
C4100 C4095 1.399 . S
C4100 C4099 1.394 . S
C4100 C4101 1.516 . S
C4101 C4100 1.516 . S
C4101 C4102 1.502 . S
C4101 C4103 1.561 . S
C4101 C4104 1.526 . S
C4102 H4086 0.959 . S
C4102 H4087 0.959 . S
C4102 H4088 0.961 . S
C4102 C4101 1.502 . S
C4103 H4089 0.960 . S
C4103 H4090 0.961 . S
C4103 H4091 0.959 . S
C4103 C4101 1.561 . S
C4104 C4101 1.526 . S
C4104 C4105 1.396 . S
C4104 C4109 1.390 . S
C4105 C4099 1.465 . S
C4105 C4104 1.396 . S
C4105 C4106 1.399 . S
C4106 H4092 0.929 1_565 S
C4106 C4105 1.399 . S
C4106 C4107 1.385 1_565 S
C4107 H4093 0.931 . S
C4107 C4106 1.385 1_545 S
C4107 C4108 1.389 1_545 S
C4108 C4107 1.389 1_565 S
C4108 C4109 1.387 . S
C4109 H4094 0.930 . S
C4109 C4104 1.390 . S
C4109 C4108 1.387 . S
H4110 C4122 0.930 . S
H4111 C4124 0.930 . S
H4112 C4125 0.930 . S
H4113 C4129 0.959 . S
H4114 C4129 0.959 . S
H4115 C4129 0.961 . S
H4116 C4130 0.960 . S
H4117 C4130 0.961 . S
H4118 C4130 0.959 . S
H4119 C4133 0.929 . S
H4120 C4134 0.931 . S
H4121 C4136 0.930 . S
C4122 H4110 0.930 . S
C4122 C4123 1.399 . S
C4122 C4127 1.399 . S
C4123 C4122 1.399 . S
C4123 C4124 1.376 . S
C4124 H4111 0.930 . S
C4124 C4123 1.376 . S
C4124 C4125 1.388 . S
C4125 H4112 0.930 . S
C4125 C4124 1.388 . S
C4125 C4126 1.390 . S
C4126 C4125 1.390 . S
C4126 C4127 1.394 . S
C4126 C4132 1.465 . S
C4127 C4122 1.399 . S
C4127 C4126 1.394 . S
C4127 C4128 1.516 . S
C4128 C4127 1.516 . S
C4128 C4129 1.502 . S
C4128 C4130 1.561 . S
C4128 C4131 1.526 . S
C4129 H4113 0.959 . S
C4129 H4114 0.959 . S
C4129 H4115 0.961 . S
C4129 C4128 1.502 . S
C4130 H4116 0.960 . S
C4130 H4117 0.961 . S
C4130 H4118 0.959 . S
C4130 C4128 1.561 . S
C4131 C4128 1.526 . S
C4131 C4132 1.396 . S
C4131 C4136 1.390 . S
C4132 C4126 1.465 . S
C4132 C4131 1.396 . S
C4132 C4133 1.399 . S
C4133 H4119 0.929 . S
C4133 C4132 1.399 . S
C4133 C4134 1.385 . S
C4134 H4120 0.931 . S
C4134 C4133 1.385 . S
C4134 C4135 1.389 . S
C4135 C4134 1.389 . S
C4135 C4136 1.387 . S
C4136 H4121 0.930 . S
C4136 C4131 1.390 . S
C4136 C4135 1.387 . S
H4137 C4149 0.930 . S
H4138 C4151 0.930 1_556 S
H4139 C4152 0.930 . S
H4140 C4156 0.959 . S
H4141 C4156 0.959 . S
H4142 C4156 0.961 . S
H4143 C4157 0.960 . S
H4144 C4157 0.961 . S
H4145 C4157 0.959 . S
H4146 C4160 0.929 . S
H4147 C4161 0.931 . S
H4148 C4163 0.930 . S
C4149 H4137 0.930 . S
C4149 C4150 1.399 . S
C4149 C4154 1.399 . S
C4150 C4149 1.399 . S
C4150 C4151 1.376 . S
C4151 H4138 0.930 1_554 S
C4151 C4150 1.376 . S
C4151 C4152 1.388 1_554 S
C4152 H4139 0.930 . S
C4152 C4151 1.388 1_556 S
C4152 C4153 1.390 1_556 S
C4153 C4152 1.390 1_554 S
C4153 C4154 1.394 . S
C4153 C4159 1.465 . S
C4154 C4149 1.399 . S
C4154 C4153 1.394 . S
C4154 C4155 1.516 . S
C4155 C4154 1.516 . S
C4155 C4156 1.502 . S
C4155 C4157 1.561 . S
C4155 C4158 1.526 . S
C4156 H4140 0.959 . S
C4156 H4141 0.959 . S
C4156 H4142 0.961 . S
C4156 C4155 1.502 . S
C4157 H4143 0.960 . S
C4157 H4144 0.961 . S
C4157 H4145 0.959 . S
C4157 C4155 1.561 . S
C4158 C4155 1.526 . S
C4158 C4159 1.396 . S
C4158 C4163 1.390 . S
C4159 C4153 1.465 . S
C4159 C4158 1.396 . S
C4159 C4160 1.399 1_554 S
C4160 H4146 0.929 . S
C4160 C4159 1.399 1_556 S
C4160 C4161 1.385 . S
C4161 H4147 0.931 . S
C4161 C4160 1.385 . S
C4161 C4162 1.389 1_556 S
C4162 C4161 1.389 1_554 S
C4162 C4163 1.387 . S
C4163 H4148 0.930 . S
C4163 C4158 1.390 . S
C4163 C4162 1.387 . S
H4164 C4176 0.930 . S
H4165 C4178 0.930 . S
H4166 C4179 0.930 . S
H4167 C4183 0.959 . S
H4168 C4183 0.959 . S
H4169 C4183 0.961 . S
H4170 C4184 0.960 . S
H4171 C4184 0.961 . S
H4172 C4184 0.959 . S
H4173 C4187 0.929 . S
H4174 C4188 0.931 . S
H4175 C4190 0.930 . S
C4176 H4164 0.930 . S
C4176 C4177 1.399 . S
C4176 C4181 1.399 . S
C4177 C4176 1.399 . S
C4177 C4178 1.376 . S
C4178 H4165 0.930 . S
C4178 C4177 1.376 . S
C4178 C4179 1.388 . S
C4179 H4166 0.930 . S
C4179 C4178 1.388 . S
C4179 C4180 1.390 . S
C4180 C4179 1.390 . S
C4180 C4181 1.394 . S
C4180 C4186 1.465 . S
C4181 C4176 1.399 . S
C4181 C4180 1.394 . S
C4181 C4182 1.516 . S
C4182 C4181 1.516 . S
C4182 C4183 1.502 . S
C4182 C4184 1.561 . S
C4182 C4185 1.526 . S
C4183 H4167 0.959 . S
C4183 H4168 0.959 . S
C4183 H4169 0.961 . S
C4183 C4182 1.502 . S
C4184 H4170 0.960 . S
C4184 H4171 0.961 . S
C4184 H4172 0.959 . S
C4184 C4182 1.561 . S
C4185 C4182 1.526 . S
C4185 C4186 1.396 . S
C4185 C4190 1.390 . S
C4186 C4180 1.465 . S
C4186 C4185 1.396 . S
C4186 C4187 1.399 . S
C4187 H4173 0.929 . S
C4187 C4186 1.399 . S
C4187 C4188 1.385 . S
C4188 H4174 0.931 . S
C4188 C4187 1.385 . S
C4188 C4189 1.389 . S
C4189 C4188 1.389 . S
C4189 C4190 1.387 . S
C4190 H4175 0.930 . S
C4190 C4185 1.390 . S
C4190 C4189 1.387 . S
H4191 C4203 0.930 . S
H4192 C4205 0.930 . S
H4193 C4206 0.930 . S
H4194 C4210 0.959 . S
H4195 C4210 0.959 . S
H4196 C4210 0.961 . S
H4197 C4211 0.960 . S
H4198 C4211 0.961 . S
H4199 C4211 0.959 . S
H4200 C4214 0.929 . S
H4201 C4215 0.931 . S
H4202 C4217 0.930 . S
C4203 H4191 0.930 . S
C4203 C4204 1.399 . S
C4203 C4208 1.399 . S
C4204 C4203 1.399 . S
C4204 C4205 1.376 . S
C4205 H4192 0.930 . S
C4205 C4204 1.376 . S
C4205 C4206 1.388 . S
C4206 H4193 0.930 . S
C4206 C4205 1.388 . S
C4206 C4207 1.390 . S
C4207 C4206 1.390 . S
C4207 C4208 1.394 . S
C4207 C4213 1.465 . S
C4208 C4203 1.399 . S
C4208 C4207 1.394 . S
C4208 C4209 1.516 1_554 S
C4209 C4208 1.516 1_556 S
C4209 C4210 1.502 . S
C4209 C4211 1.561 . S
C4209 C4212 1.526 1_556 S
C4210 H4194 0.959 . S
C4210 H4195 0.959 . S
C4210 H4196 0.961 . S
C4210 C4209 1.502 . S
C4211 H4197 0.960 . S
C4211 H4198 0.961 . S
C4211 H4199 0.959 . S
C4211 C4209 1.561 . S
C4212 C4209 1.526 1_554 S
C4212 C4213 1.396 . S
C4212 C4217 1.390 1_554 S
C4213 C4207 1.465 . S
C4213 C4212 1.396 . S
C4213 C4214 1.399 . S
C4214 H4200 0.929 . S
C4214 C4213 1.399 . S
C4214 C4215 1.385 . S
C4215 H4201 0.931 . S
C4215 C4214 1.385 . S
C4215 C4216 1.389 . S
C4216 C4215 1.389 . S
C4216 C4217 1.387 1_554 S
C4217 H4202 0.930 . S
C4217 C4212 1.390 1_556 S
C4217 C4216 1.387 1_556 S
H4218 C4230 0.930 . S
H4219 C4232 0.930 1_545 S
H4220 C4233 0.930 . S
H4221 C4237 0.959 . S
H4222 C4237 0.959 . S
H4223 C4237 0.961 . S
H4224 C4238 0.960 . S
H4225 C4238 0.961 . S
H4226 C4238 0.959 . S
H4227 C4241 0.929 . S
H4228 C4242 0.931 . S
H4229 C4244 0.930 . S
C4230 H4218 0.930 . S
C4230 C4231 1.399 . S
C4230 C4235 1.399 . S
C4231 C4230 1.399 . S
C4231 C4232 1.376 . S
C4232 H4219 0.930 1_565 S
C4232 C4231 1.376 . S
C4232 C4233 1.388 . S
C4233 H4220 0.930 . S
C4233 C4232 1.388 . S
C4233 C4234 1.390 . S
C4234 C4233 1.390 . S
C4234 C4235 1.394 . S
C4234 C4240 1.465 . S
C4235 C4230 1.399 . S
C4235 C4234 1.394 . S
C4235 C4236 1.516 . S
C4236 C4235 1.516 . S
C4236 C4237 1.502 . S
C4236 C4238 1.561 . S
C4236 C4239 1.526 . S
C4237 H4221 0.959 . S
C4237 H4222 0.959 . S
C4237 H4223 0.961 . S
C4237 C4236 1.502 . S
C4238 H4224 0.960 . S
C4238 H4225 0.961 . S
C4238 H4226 0.959 . S
C4238 C4236 1.561 . S
C4239 C4236 1.526 . S
C4239 C4240 1.396 . S
C4239 C4244 1.390 . S
C4240 C4234 1.465 . S
C4240 C4239 1.396 . S
C4240 C4241 1.399 . S
C4241 H4227 0.929 . S
C4241 C4240 1.399 . S
C4241 C4242 1.385 . S
C4242 H4228 0.931 . S
C4242 C4241 1.385 . S
C4242 C4243 1.389 . S
C4243 C4242 1.389 . S
C4243 C4244 1.387 . S
C4244 H4229 0.930 . S
C4244 C4239 1.390 . S
C4244 C4243 1.387 . S
H4245 C4257 0.930 . S
H4246 C4259 0.930 . S
H4247 C4260 0.930 . S
H4248 C4264 0.959 . S
H4249 C4264 0.959 . S
H4250 C4264 0.961 . S
H4251 C4265 0.960 . S
H4252 C4265 0.961 . S
H4253 C4265 0.959 . S
H4254 C4268 0.929 . S
H4255 C4269 0.931 . S
H4256 C4271 0.930 . S
C4257 H4245 0.930 . S
C4257 C4258 1.399 . S
C4257 C4262 1.399 . S
C4258 C4257 1.399 . S
C4258 C4259 1.376 . S
C4259 H4246 0.930 . S
C4259 C4258 1.376 . S
C4259 C4260 1.388 . S
C4260 H4247 0.930 . S
C4260 C4259 1.388 . S
C4260 C4261 1.390 . S
C4261 C4260 1.390 . S
C4261 C4262 1.394 . S
C4261 C4267 1.465 . S
C4262 C4257 1.399 . S
C4262 C4261 1.394 . S
C4262 C4263 1.516 . S
C4263 C4262 1.516 . S
C4263 C4264 1.502 . S
C4263 C4265 1.561 . S
C4263 C4266 1.526 . S
C4264 H4248 0.959 . S
C4264 H4249 0.959 . S
C4264 H4250 0.961 . S
C4264 C4263 1.502 . S
C4265 H4251 0.960 . S
C4265 H4252 0.961 . S
C4265 H4253 0.959 . S
C4265 C4263 1.561 . S
C4266 C4263 1.526 . S
C4266 C4267 1.396 . S
C4266 C4271 1.390 . S
C4267 C4261 1.465 . S
C4267 C4266 1.396 . S
C4267 C4268 1.399 . S
C4268 H4254 0.929 . S
C4268 C4267 1.399 . S
C4268 C4269 1.385 . S
C4269 H4255 0.931 . S
C4269 C4268 1.385 . S
C4269 C4270 1.389 . S
C4270 C4269 1.389 . S
C4270 C4271 1.387 . S
C4271 H4256 0.930 . S
C4271 C4266 1.390 . S
C4271 C4270 1.387 . S
C1693 C111 1.771 . S
C1705 C392 1.695 . S
C1720 C64 2.158 . S
C1732 C483 2.180 . S
C1747 C77 1.500 . S
C1759 C560 1.387 . S
C1786 C658 1.246 . S
C1774 C95 1.404 . S
C1801 C25 1.366 . S
C1813 C742 1.269 . S
C1840 C814 0.887 . S
C1828 C36 1.049 . S
C1867 C903 0.887 . S
C1855 C50 0.852 . S
C1882 C11 1.424 . S
C1894 C980 1.323 . S
C1921 C399 1.993 . S
C1909 C237 1.996 . S
C1936 C245 0.688 . S
C1948 C490 0.741 . S
C1975 C567 1.095 . S
C1963 C279 1.091 . S
C2002 C644 1.458 . S
C1990 C175 1.586 . S
C2017 C231 1.943 . S
C2029 C728 1.861 . S
C2056 C830 1.038 . S
C2044 C251 1.046 . S
C2083 C910 0.684 . S
C2071 C273 0.758 . S
C2110 C987 1.418 . S
C2098 C181 1.539 . S
C2137 C406 1.311 . S
C2125 C165 1.391 . S
C2152 C288 1.890 . S
C2164 C1071 1.904 1_556 S
C2191 C1159 2.163 . S
C2179 C333 2.341 . S
C2218 C1232 0.595 . S
C2206 C316 0.442 . S
C2233 C123 0.860 . S
C2245 C994 0.858 . S
C2260 C137 1.371 . S
C2272 C574 1.321 . S
C2287 C330 2.166 . S
C2299 C1323 2.200 . S
C2326 C1400 0.616 . S
C2314 C302 0.645 . S
C2353 C403 1.734 . S
C2341 C63 1.922 . S
C2380 C1418 2.200 . S
C2368 C106 2.276 . S
C2395 C97 1.543 . S
C2407 C571 1.501 . S
C2422 C81 1.452 . S
C2434 C1318 1.270 . S
C2461 C730 1.382 . S
C2449 C13 1.287 . S
C2476 C55 1.033 . S
C2488 C1162 0.997 . S
C2515 C914 0.962 . S
C2503 C35 0.906 . S
C2542 C1495 1.448 . S
C2530 C21 1.574 . S
C2569 C410 2.056 . S
C2557 C147 2.184 . S
C2596 C1402 0.687 . S
C2584 C321 0.679 . S
C2611 C119 1.142 . S
C2623 C578 1.058 . S
C2638 C293 1.657 . S
C2650 C1327 1.633 . S
C2665 C153 1.992 . S
C2677 C739 1.958 . S
C2704 C1155 1.024 . S
C2692 C315 1.182 . S
C2719 C125 0.846 . S
C2731 C898 0.869 . S
C2746 C287 1.711 . S
C2758 C1502 1.599 . S
C2773 C193 1.395 . S
C2785 C394 1.306 1_554 S
C2800 C176 1.919 . S
C2812 C1082 1.900 . S
C2827 C263 2.297 . S
C2839 C812 2.164 . S
C2854 C246 0.648 . S
C2866 C1243 0.719 . S
C2893 C1486 0.911 . S
C2881 C277 0.912 1_565 S
C2908 C221 1.320 . S
C2920 C562 1.302 . S
C2947 C662 2.204 . S
C2935 C260 2.246 . S
C2974 C487 0.759 . S
C2962 C204 0.805 . S
C2989 C83 1.770 . S
C3001 C1568 1.694 . S
C3028 C1407 2.205 . S
C3016 C92 2.167 . S
C3043 C105 1.504 . S
C3055 C1652 1.386 . S
C3070 C67 1.396 . S
C3082 C1330 1.318 . S
C3097 C53 1.370 . S
C3109 C1078 1.355 . S
C3136 C1150 0.912 . S
C3124 C8 1.034 . S
C3163 C1239 0.877 . S
C3151 C22 0.775 . S
C3190 C1484 1.256 . S
C3178 C39 1.432 . S
C3217 C1575 1.926 . S
C3205 C265 1.928 . S
C3232 C189 0.631 . S
C3244 C1414 0.565 . S
C3271 C1659 1.022 . S
C3259 C209 0.931 . S
C3298 C1316 1.544 . S
C3286 C217 1.585 . S
C3325 C1064 1.833 . S
C3313 C259 1.957 . S
C3340 C195 1.038 . S
C3352 C1166 1.104 . S
C3379 C1246 0.690 . S
C3367 C203 0.761 . S
C3394 C223 1.555 . S
C3406 C1491 1.441 . S
C3433 C1582 1.305 . S
C3421 C319 1.364 . S
C3448 C134 1.860 . S
C3460 C735 1.890 . S
C3487 C823 2.179 . S
C3475 C151 2.358 . S
C3514 C896 0.404 . S
C3502 C162 0.435 . S
C3541 C1498 0.830 . S
C3529 C305 0.834 . S
C3556 C291 1.376 . S
C3568 C1666 1.345 . S
C3595 C651 2.198 . S
C3583 C148 2.159 . S
C3622 C476 0.787 . S
C3610 C120 0.750 . S
C3637 C91 1.905 . S
C3649 C1579 1.816 . S
C3676 C494 2.213 . S
C3664 C78 2.267 . S
C3691 C69 1.571 . S
C3703 C1663 1.538 . S
C3718 C109 1.477 . S
C3730 C646 1.361 . S
C3745 C41 1.306 . S
C3757 C1066 1.397 . S
C3784 C826 0.977 . S
C3772 C27 0.907 . S
C3799 C7 1.003 . S
C3811 C1250 0.991 . S
C3826 C49 1.566 . S
C3838 C991 1.478 . S
C3865 C1586 2.100 . S
C3853 C329 2.183 . S
C3880 C167 0.618 . S
C3892 C478 0.622 . S
C3919 C1670 1.039 . S
C3907 C301 1.130 . S
C3934 C139 1.624 . S
C3946 C655 1.619 . S
C3961 C335 1.970 . S
C3973 C1075 1.966 . S
C4000 C819 1.151 . S
C3988 C161 1.143 . S
C4015 C307 0.846 . S
C4027 C1234 0.870 1_655 S
C4054 C998 1.617 . S
C4042 C133 1.711 . S
C4081 C1570 1.393 . S
C4069 C249 1.423 . S
C4108 C746 1.914 1_665 S
C4096 C218 1.954 . S
C4123 C235 2.311 . S
C4135 C1148 2.093 . S
C4162 C907 0.552 . S
C4150 C190 0.620 . S
C4177 C207 0.913 . S
C4189 C982 0.910 . S
C4204 C179 1.383 . S
C4216 C1654 1.373 1_554 S
C4243 C1334 2.200 . S
C4231 C232 2.257 1_565 S
C4270 C1411 0.759 . S
C4258 C274 0.795 . S
