# Generated by pormake.
# Topology ssa, (4,4)-cn, num edge types: 1
# Building blocks:
#     Node 0, Type 0, BuildingBlock: KOZSID_clean_sbu_0, # of connection points: 4
#     Node 1, Type 0, BuildingBlock: KOZSID_clean_sbu_0, # of connection points: 4
#     Node 2, Type 0, BuildingBlock: KOZSID_clean_sbu_0, # of connection points: 4
#     Node 3, Type 0, BuildingBlock: KOZSID_clean_sbu_0, # of connection points: 4
#     Node 4, Type 0, BuildingBlock: KOZSID_clean_sbu_0, # of connection points: 4
#     Node 5, Type 0, BuildingBlock: KOZSID_clean_sbu_0, # of connection points: 4
#     Node 6, Type 1, BuildingBlock: KOZSID_clean_sbu_0, # of connection points: 4
#     Node 7, Type 1, BuildingBlock: KOZSID_clean_sbu_0, # of connection points: 4
#     Node 8, Type 1, BuildingBlock: KOZSID_clean_sbu_0, # of connection points: 4
#     Node 9, Type 1, BuildingBlock: KOZSID_clean_sbu_0, # of connection points: 4
#     Node 10, Type 1, BuildingBlock: KOZSID_clean_sbu_0, # of connection points: 4
#     Node 11, Type 1, BuildingBlock: KOZSID_clean_sbu_0, # of connection points: 4
#     Edge 12, Type (0, 1), BuildingBlock: CIFDUS_clean_linker_0, # of connection points: 2
#     Edge 13, Type (0, 1), BuildingBlock: CIFDUS_clean_linker_0, # of connection points: 2
#     Edge 14, Type (0, 1), BuildingBlock: CIFDUS_clean_linker_0, # of connection points: 2
#     Edge 15, Type (0, 1), BuildingBlock: CIFDUS_clean_linker_0, # of connection points: 2
#     Edge 16, Type (0, 1), BuildingBlock: CIFDUS_clean_linker_0, # of connection points: 2
#     Edge 17, Type (0, 1), BuildingBlock: CIFDUS_clean_linker_0, # of connection points: 2
#     Edge 18, Type (0, 1), BuildingBlock: CIFDUS_clean_linker_0, # of connection points: 2
#     Edge 19, Type (0, 1), BuildingBlock: CIFDUS_clean_linker_0, # of connection points: 2
#     Edge 20, Type (0, 1), BuildingBlock: CIFDUS_clean_linker_0, # of connection points: 2
#     Edge 21, Type (0, 1), BuildingBlock: CIFDUS_clean_linker_0, # of connection points: 2
#     Edge 22, Type (0, 1), BuildingBlock: CIFDUS_clean_linker_0, # of connection points: 2
#     Edge 23, Type (0, 1), BuildingBlock: CIFDUS_clean_linker_0, # of connection points: 2
#     Edge 24, Type (0, 1), BuildingBlock: CIFDUS_clean_linker_0, # of connection points: 2
#     Edge 25, Type (0, 1), BuildingBlock: CIFDUS_clean_linker_0, # of connection points: 2
#     Edge 26, Type (0, 1), BuildingBlock: CIFDUS_clean_linker_0, # of connection points: 2
#     Edge 27, Type (0, 1), BuildingBlock: CIFDUS_clean_linker_0, # of connection points: 2
#     Edge 28, Type (0, 1), BuildingBlock: CIFDUS_clean_linker_0, # of connection points: 2
#     Edge 29, Type (0, 1), BuildingBlock: CIFDUS_clean_linker_0, # of connection points: 2
#     Edge 30, Type (0, 1), BuildingBlock: CIFDUS_clean_linker_0, # of connection points: 2
#     Edge 31, Type (0, 1), BuildingBlock: CIFDUS_clean_linker_0, # of connection points: 2
#     Edge 32, Type (0, 1), BuildingBlock: CIFDUS_clean_linker_0, # of connection points: 2
#     Edge 33, Type (0, 1), BuildingBlock: CIFDUS_clean_linker_0, # of connection points: 2
#     Edge 34, Type (0, 1), BuildingBlock: CIFDUS_clean_linker_0, # of connection points: 2
#     Edge 35, Type (0, 1), BuildingBlock: CIFDUS_clean_linker_0, # of connection points: 2
# Relax obj value: 0.011
# Max RMSD: 0.039
# Mean RMSD: 0.019
data_MOF--net-ssa--node1-KOZSID_clean_sbu_0--node2-KOZSID_clean_sbu_0--edge1-CIFDUS_clean_linker_0
_symmetry_space_group_name_H-M    P1
_symmetry_Int_Tables_number       1
_symmetry_cell_setting            triclinic
loop_
_symmetry_equiv_pos_as_xyz
'x, y, z'
_cell_length_a     52.262866
_cell_length_b     53.618836
_cell_length_c     37.54314
_cell_angle_alpha  90.614247
_cell_angle_beta   93.271384
_cell_angle_gamma 122.69832
loop_
_atom_site_label
_atom_site_type_symbol
_atom_site_fract_x
_atom_site_fract_y
_atom_site_fract_z
_atom_type_partial_charge
C0 C 0.95039 0.50995 0.00838 0.0
C1 C 0.92964 0.50966 0.03024 0.0
C2 C 0.93289 0.49925 0.06209 0.0
C3 C 0.95587 0.49452 0.05838 0.0
N4 N 0.96784 0.50171 0.02629 0.0
Co5 Co 0.00449 0.50212 0.01214 0.0
N6 N 0.00747 0.48416 0.05772 0.0
C7 C 0.9874 0.47429 0.08331 0.0
C8 C 0.99444 0.46197 0.11088 0.0
C9 C 0.02072 0.46429 0.1026 0.0
C10 C 0.02854 0.47837 0.07054 0.0
N11 N 0.04232 0.50421 0.99899 0.0
C12 C 0.06165 0.49905 0.01852 0.0
C13 C 0.08759 0.50752 1.00076 0.0
C14 C 0.08439 0.51791 0.96895 0.0
C15 C 0.05708 0.51573 0.9692 0.0
N16 N 1.00026 0.51832 0.96561 0.0
C17 C 0.01822 0.52472 0.93819 0.0
C18 C 0.00715 0.52991 0.90723 0.0
C19 C 0.98029 0.52639 0.91507 0.0
C20 C 0.97681 0.52008 0.95098 0.0
N21 N 0.03089 0.54261 0.03477 0.0
C22 C 0.07061 0.59897 0.06908 0.0
C23 C 0.07094 0.59449 0.03239 0.0
C24 C 0.05095 0.56629 0.01584 0.0
C25 C 0.04972 0.57487 0.08797 0.0
C26 C 0.03016 0.54736 0.07048 0.0
N27 N 0.97795 0.46173 0.98947 0.0
C28 C 0.96385 0.42782 0.93848 0.0
C29 C 0.93525 0.40834 0.95105 0.0
C30 C 0.92926 0.41504 0.98437 0.0
C31 C 0.95082 0.44157 0.00306 0.0
C32 C 0.98485 0.4541 0.95815 0.0
H33 H 0.94454 0.44576 0.02785 0.0
H34 H 0.00612 0.46831 0.94699 0.0
H35 H 0.05234 0.56413 0.98784 0.0
H36 H 0.01504 0.5302 0.08677 0.0
C37 C 0.96478 0.48074 0.08304 0.0
C38 C 0.95096 0.51586 0.97011 0.0
C39 C 0.05678 0.4868 0.05411 0.0
C40 C 0.04454 0.52408 0.94179 0.0
H41 H 0.91316 0.51549 0.02359 0.0
H42 H 0.91948 0.49487 0.08486 0.0
H43 H 0.98255 0.45337 0.13485 0.0
H44 H 0.03312 0.4571 0.11885 0.0
H45 H 0.10718 0.50683 0.00992 0.0
H46 H 0.10034 0.52651 0.94834 0.0
H47 H 0.01684 0.53454 0.88156 0.0
H48 H 0.96487 0.52754 0.89582 0.0
H49 H 0.08652 0.61255 0.0165 0.0
H50 H 0.04887 0.57685 0.11655 0.0
H51 H 0.96981 0.4231 0.91322 0.0
H52 H 0.90746 0.40058 0.99531 0.0
C53 C 0.55603 0.02105 0.55941 0.0
C54 C 0.56022 0.01423 0.59407 0.0
C55 C 0.53553 0.98688 0.59958 0.0
C56 C 0.51715 0.97876 0.56873 0.0
N57 N 0.52891 0.99892 0.54328 0.0
Co58 Co 0.50621 0.99999 0.49889 0.0
N59 N 0.46701 0.9638 0.51151 0.0
C60 C 0.46316 0.94684 0.53961 0.0
C61 C 0.43469 0.92158 0.53949 0.0
C62 C 0.41951 0.92201 0.50904 0.0
C63 C 0.43963 0.94788 0.49245 0.0
N64 N 0.48356 0.00235 0.45556 0.0
C65 C 0.45407 0.98392 0.44306 0.0
C66 C 0.44728 0.99418 0.41245 0.0
C67 C 0.47369 0.01955 0.40477 0.0
C68 C 0.49494 0.02349 0.4312 0.0
N69 N 0.54548 0.03516 0.48544 0.0
C70 C 0.55068 0.04938 0.45463 0.0
C71 C 0.58062 0.07161 0.45231 0.0
C72 C 0.59511 0.07211 0.48403 0.0
C73 C 0.5729 0.05051 0.50421 0.0
N74 N 0.51485 0.97345 0.47135 0.0
C75 C 0.5204 0.9324 0.42945 0.0
C76 C 0.52275 0.95734 0.41473 0.0
C77 C 0.5199 0.97724 0.4358 0.0
C78 C 0.5167 0.92922 0.46613 0.0
C79 C 0.51417 0.9499 0.48642 0.0
N80 N 0.49753 0.02637 0.52622 0.0
C81 C 0.50237 0.07366 0.53526 0.0
C82 C 0.49016 0.0658 0.56855 0.0
C83 C 0.48078 0.03743 0.5796 0.0
C84 C 0.48449 0.01822 0.55819 0.0
C85 C 0.50587 0.05381 0.51473 0.0
H86 H 0.47712 0.99704 0.56837 0.0
H87 H 0.51597 0.06135 0.48995 0.0
H88 H 0.52134 0.99524 0.42235 0.0
H89 H 0.51109 0.94599 0.51408 0.0
C90 C 0.48692 0.95494 0.56532 0.0
C91 C 0.57742 0.04893 0.54274 0.0
C92 C 0.43245 0.95548 0.45762 0.0
C93 C 0.52636 0.0442 0.43114 0.0
H94 H 0.57793 0.02767 0.61461 0.0
H95 H 0.53044 0.9754 0.62426 0.0
H96 H 0.42626 0.90444 0.55871 0.0
H97 H 0.39653 0.90462 0.49984 0.0
H98 H 0.42573 0.98375 0.39659 0.0
H99 H 0.47729 0.03273 0.38172 0.0
H100 H 0.59037 0.08687 0.43112 0.0
H101 H 0.61881 0.08808 0.49251 0.0
H102 H 0.52657 0.96154 0.38677 0.0
H103 H 0.5148 0.9104 0.47907 0.0
H104 H 0.51013 0.09541 0.52552 0.0
H105 H 0.47066 0.03 0.60483 0.0
C106 C 0.5493 0.52425 0.95548 0.0
C107 C 0.55812 0.54054 0.92511 0.0
C108 C 0.53426 0.54268 0.91303 0.0
C109 C 0.5124 0.5277 0.93673 0.0
N110 N 0.52124 0.5169 0.96379 0.0
Co111 Co 0.49616 0.49173 0.0026 0.0
N112 N 0.45894 0.48942 0.9809 0.0
C113 C 0.45655 0.50145 0.95036 0.0
C114 C 0.42827 0.49681 0.94289 0.0
C115 C 0.41179 0.48145 0.97066 0.0
C116 C 0.43113 0.47774 0.99362 0.0
N117 N 0.47106 0.46661 0.04154 0.0
C118 C 0.4422 0.45751 0.04873 0.0
C119 C 0.43412 0.44225 0.08 0.0
C120 C 0.45884 0.44203 0.09323 0.0
C121 C 0.48059 0.4572 0.06955 0.0
N122 N 0.53342 0.49384 0.02397 0.0
C123 C 0.53604 0.48216 0.05466 0.0
C124 C 0.56356 0.48486 0.06064 0.0
C125 C 0.57916 0.4983 0.03152 0.0
C126 C 0.56018 0.50314 0.00948 0.0
N127 N 0.50691 0.52807 0.03176 0.0
C128 C 0.51791 0.57765 0.07409 0.0
C129 C 0.52171 0.55588 0.0888 0.0
C130 C 0.5162 0.53161 0.06741 0.0
C131 C 0.50897 0.57427 0.03759 0.0
C132 C 0.50379 0.54972 0.01718 0.0
N133 N 0.48554 0.45558 0.97353 0.0
C134 C 0.48362 0.4095 0.96781 0.0
C135 C 0.47707 0.40738 0.93079 0.0
C136 C 0.47388 0.42945 0.91586 0.0
C137 C 0.47811 0.45305 0.93747 0.0
C138 C 0.48754 0.43342 0.98846 0.0
H139 H 0.47574 0.46926 0.92428 0.0
H140 H 0.49286 0.43385 0.01638 0.0
H141 H 0.51939 0.51588 0.08048 0.0
H142 H 0.49682 0.54859 0.98973 0.0
C143 C 0.48206 0.51942 0.93126 0.0
C144 C 0.567 0.51387 0.97358 0.0
C145 C 0.42274 0.46497 0.02837 0.0
C146 C 0.51084 0.46518 0.07453 0.0
H147 H 0.57902 0.54868 0.9121 0.0
H148 H 0.53232 0.55227 0.88861 0.0
H149 H 0.42091 0.50476 0.9207 0.0
H150 H 0.38853 0.47467 0.97435 0.0
H151 H 0.41302 0.43314 0.09277 0.0
H152 H 0.46114 0.43302 0.118 0.0
H153 H 0.57068 0.47635 0.08242 0.0
H154 H 0.60133 0.50263 0.02642 0.0
H155 H 0.52913 0.55757 0.11674 0.0
H156 H 0.5053 0.59018 0.02474 0.0
H157 H 0.48655 0.39321 0.98089 0.0
H158 H 0.46811 0.42863 0.88753 0.0
C159 C 0.94379 0.44333 0.50617 0.0
C160 C 0.916 0.42166 0.48909 0.0
C161 C 0.91469 0.43127 0.45593 0.0
C162 C 0.94159 0.45819 0.45465 0.0
N163 N 0.9604 0.46613 0.48467 0.0
Co164 Co 1.00036 0.50502 0.49527 0.0
N165 N 0.99672 0.52088 0.4482 0.0
C166 C 0.97385 0.50613 0.42226 0.0
C167 C 0.97853 0.52121 0.39163 0.0
C168 C 0.00623 0.54703 0.39809 0.0
C169 C 0.01686 0.54648 0.43268 0.0
N170 N 0.03999 0.54407 0.50628 0.0
C171 C 0.05561 0.56805 0.48602 0.0
C172 C 0.08221 0.59054 0.50449 0.0
C173 C 0.08396 0.58015 0.53696 0.0
C174 C 0.05831 0.55213 0.53676 0.0
N175 N 0.00423 0.48896 0.54204 0.0
C176 C 0.02802 0.50269 0.56701 0.0
C177 C 0.0237 0.48693 0.59705 0.0
C178 C 0.9952 0.46188 0.59127 0.0
C179 C 0.98368 0.46386 0.55797 0.0
N180 N 0.0227 0.48947 0.47225 0.0
C181 C 0.05929 0.47671 0.43339 0.0
C182 C 0.06904 0.49007 0.46782 0.0
C183 C 0.05051 0.49609 0.48665 0.0
C184 C 0.02992 0.46785 0.41996 0.0
C185 C 0.01206 0.47406 0.43984 0.0
N186 N 0.97802 0.52047 0.51821 0.0
C187 C 0.96701 0.53684 0.57209 0.0
C188 C 0.93934 0.53089 0.55599 0.0
C189 C 0.93272 0.52202 0.5197 0.0
C190 C 0.95225 0.51705 0.50145 0.0
C191 C 0.98604 0.53195 0.55271 0.0
H192 H 0.9455 0.50949 0.47414 0.0
H193 H 0.00652 0.53646 0.5667 0.0
H194 H 0.05958 0.50687 0.51237 0.0
H195 H 0.99014 0.46703 0.42783 0.0
C196 C 0.94895 0.47747 0.42678 0.0
C197 C 0.95252 0.44213 0.54355 0.0
C198 C 0.04672 0.5703 0.44897 0.0
C199 C 0.05203 0.53203 0.56353 0.0
H200 H 0.8981 0.40145 0.49987 0.0
H201 H 0.89586 0.42046 0.43568 0.0
H202 H 0.96397 0.51388 0.36709 0.0
H203 H 0.01756 0.56391 0.37897 0.0
H204 H 0.09896 0.61206 0.49524 0.0
H205 H 0.10221 0.5914 0.55786 0.0
H206 H 0.0388 0.49359 0.62108 0.0
H207 H 0.98373 0.44459 0.60995 0.0
H208 H 0.09115 0.49642 0.48005 0.0
H209 H 0.02106 0.45727 0.39354 0.0
H210 H 0.97347 0.5439 0.60005 0.0
H211 H 0.91216 0.51817 0.50553 0.0
C212 C 0.46705 0.98496 0.06272 0.0
C213 C 0.46722 0.99742 0.09538 0.0
C214 C 0.49379 0.02465 0.09933 0.0
C215 C 0.50825 0.02737 0.06892 0.0
N216 N 0.49232 0.00372 0.04543 0.0
Co217 Co 0.5059 0.99809 0.99858 0.0
N218 N 0.54658 0.03662 0.00631 0.0
C219 C 0.55681 0.05541 0.03552 0.0
C220 C 0.58545 0.08014 0.03341 0.0
C221 C 0.59387 0.07733 1.00061 0.0
C222 C 0.56962 0.05109 0.98427 0.0
N223 N 0.51937 0.99267 0.9515 0.0
C224 C 0.54427 0.01179 0.93378 0.0
C225 C 0.54267 1.00016 0.89985 0.0
C226 C 0.51625 0.97289 0.89611 0.0
C227 C 0.5029 0.96942 0.92753 0.0
N228 N 0.46531 0.95936 0.99107 0.0
C229 C 0.45553 0.93998 0.96252 0.0
C230 C 0.42778 0.91435 0.96568 0.0
C231 C 0.41946 0.9172 0.99849 0.0
C232 C 0.44266 0.94462 0.01352 0.0
N233 N 0.48909 0.01934 0.97412 0.0
C234 C 0.4771 0.05507 0.93157 0.0
C235 C 0.46647 0.02599 0.9202 0.0
C236 C 0.47227 0.00846 0.94201 0.0
C237 C 0.49114 0.06499 0.96598 0.0
C238 C 0.49675 0.04678 0.98677 0.0
N239 N 0.52261 0.97678 0.02305 0.0
C240 C 0.5208 0.93112 0.0297 0.0
C241 C 0.53183 0.93917 0.06541 0.0
C242 C 0.54137 0.96762 0.07832 0.0
C243 C 0.53698 0.98612 0.05662 0.0
C244 C 0.51664 0.9503 0.00899 0.0
H245 H 0.54409 0.00728 0.06821 0.0
H246 H 0.50721 0.94262 0.9823 0.0
H247 H 0.46402 0.98666 0.93166 0.0
H248 H 0.5085 0.05591 0.01228 0.0
C249 C 0.53803 0.05035 0.06326 0.0
C250 C 0.44281 0.95489 0.0499 0.0
C251 C 0.56917 0.04159 0.94728 0.0
C252 C 0.47376 0.94576 0.93407 0.0
H253 H 0.45024 0.98752 0.11476 0.0
H254 H 0.50211 0.04013 0.12227 0.0
H255 H 0.59832 0.09848 0.05295 0.0
H256 H 0.6152 0.09321 0.98967 0.0
H257 H 0.55832 0.01052 0.87922 0.0
H258 H 0.50719 0.95793 0.87263 0.0
H259 H 0.41552 0.8954 0.94685 0.0
H260 H 0.39902 0.90054 0.01039 0.0
H261 H 0.4546 0.01713 0.89408 0.0
H262 H 0.49938 0.0873 0.97604 0.0
H263 H 0.51366 0.90945 0.01836 0.0
H264 H 0.55115 0.97519 0.10549 0.0
C265 C 0.51684 0.56606 0.51924 0.0
C266 C 0.50884 0.58243 0.53911 0.0
C267 C 0.49056 0.5642 0.56416 0.0
C268 C 0.48841 0.53784 0.55799 0.0
N269 N 0.50499 0.53846 0.53124 0.0
Co270 Co 0.50562 0.50437 0.50998 0.0
N271 N 0.47537 0.47632 0.54312 0.0
C272 C 0.46199 0.48258 0.56846 0.0
C273 C 0.44415 0.45903 0.58889 0.0
C274 C 0.44713 0.43673 0.57659 0.0
C275 C 0.46664 0.44808 0.5493 0.0
N276 N 0.50561 0.47017 0.48802 0.0
C277 C 0.49339 0.44235 0.4994 0.0
C278 C 0.49989 0.42559 0.47785 0.0
C279 C 0.5175 0.44378 0.45234 0.0
C280 C 0.52076 0.4705 0.45982 0.0
N281 N 0.53657 0.53254 0.47764 0.0
C282 C 0.551 0.52653 0.45349 0.0
C283 C 0.57017 0.55049 0.43433 0.0
C284 C 0.56717 0.57286 0.4464 0.0
C285 C 0.54625 0.56109 0.47221 0.0
N286 N 0.53918 0.51191 0.54578 0.0
C287 C 0.5843 0.51843 0.59779 0.0
C288 C 0.58494 0.512 0.56174 0.0
C289 C 0.56243 0.5089 0.53646 0.0
C290 C 0.561 0.52224 0.60702 0.0
C291 C 0.53898 0.51895 0.58094 0.0
N292 N 0.472 0.49688 0.47419 0.0
C293 C 0.45285 0.49337 0.41267 0.0
C294 C 0.42634 0.49103 0.42326 0.0
C295 C 0.42306 0.49107 0.46002 0.0
C296 C 0.44589 0.49411 0.48467 0.0
C297 C 0.47492 0.49594 0.43821 0.0
H298 H 0.44195 0.49443 0.51211 0.0
H299 H 0.49449 0.49774 0.42814 0.0
H300 H 0.56403 0.50355 0.50959 0.0
H301 H 0.52176 0.52184 0.59 0.0
C302 C 0.4688 0.51142 0.57435 0.0
C303 C 0.53279 0.57623 0.48685 0.0
C304 C 0.47897 0.43249 0.53282 0.0
C305 C 0.54216 0.49728 0.4454 0.0
H306 H 0.5145 0.60474 0.53486 0.0
H307 H 0.47891 0.56906 0.58329 0.0
H308 H 0.43175 0.45862 0.61125 0.0
H309 H 0.43733 0.41504 0.58749 0.0
H310 H 0.49397 0.40312 0.48132 0.0
H311 H 0.52847 0.43876 0.43242 0.0
H312 H 0.58308 0.55105 0.41247 0.0
H313 H 0.5776 0.59474 0.43593 0.0
H314 H 0.60225 0.50855 0.55305 0.0
H315 H 0.55965 0.52779 0.63437 0.0
H316 H 0.45713 0.49393 0.38474 0.0
H317 H 0.40283 0.48858 0.47006 0.0
C318 C 0.22038 0.51495 0.17909 0.0
C319 C 0.22797 0.54117 0.16331 0.0
C320 C 0.25819 0.5614 0.17313 0.0
C321 C 0.26741 0.54643 0.19409 0.0
N322 N 0.24491 0.51809 0.19811 0.0
Co323 Co 0.24892 0.48868 0.22538 0.0
N324 N 0.28684 0.52033 0.25284 0.0
C325 C 0.30446 0.54868 0.24352 0.0
C326 C 0.33009 0.56546 0.26618 0.0
C327 C 0.32886 0.54643 0.29107 0.0
C328 C 0.30236 0.51892 0.28225 0.0
N329 N 0.253 0.45907 0.25236 0.0
C330 C 0.27108 0.46266 0.28201 0.0
C331 C 0.26618 0.43558 0.29182 0.0
C332 C 0.24521 0.41461 0.26681 0.0
C333 C 0.23818 0.42986 0.24336 0.0
N334 N 0.21092 0.4573 0.19775 0.0
C335 C 0.20088 0.42832 0.19473 0.0
C336 C 0.17294 0.41159 0.17605 0.0
C337 C 0.16494 0.43126 0.16661 0.0
C338 C 0.18873 0.45914 0.17967 0.0
N339 N 0.27357 0.48735 0.18887 0.0
C340 C 0.3102 0.48684 0.13788 0.0
C341 C 0.28362 0.48593 0.12722 0.0
C342 C 0.26551 0.48616 0.15323 0.0
C343 C 0.31799 0.48774 0.1742 0.0
C344 C 0.29944 0.48794 0.19918 0.0
N345 N 0.22446 0.48996 0.26191 0.0
C346 C 0.18396 0.46453 0.30112 0.0
C347 C 0.18824 0.49147 0.31315 0.0
C348 C 0.21142 0.5177 0.2991 0.0
C349 C 0.22937 0.51647 0.27382 0.0
C350 C 0.20205 0.46424 0.2754 0.0
H351 H 0.24702 0.53699 0.2636 0.0
H352 H 0.19777 0.44312 0.26635 0.0
H353 H 0.24514 0.48556 0.14456 0.0
H354 H 0.30633 0.48878 0.2269 0.0
C355 C 0.29484 0.55929 0.21531 0.0
C356 C 0.19034 0.48708 0.17352 0.0
C357 C 0.2952 0.49144 0.29929 0.0
C358 C 0.21493 0.41705 0.21582 0.0
H359 H 0.21326 0.54524 0.14637 0.0
H360 H 0.27146 0.58455 0.16687 0.0
H361 H 0.34756 0.58876 0.26487 0.0
H362 H 0.34614 0.55201 0.31246 0.0
H363 H 0.27697 0.4314 0.31436 0.0
H364 H 0.23567 0.39097 0.26634 0.0
H365 H 0.15914 0.38771 0.17168 0.0
H366 H 0.14372 0.42539 0.15237 0.0
H367 H 0.27704 0.48524 0.09916 0.0
H368 H 0.33847 0.48847 0.18325 0.0
H369 H 0.16684 0.44368 0.31153 0.0
H370 H 0.21543 0.53908 0.30701 0.0
C371 C 0.70496 0.20636 0.68343 0.0
C372 C 0.6798 0.20754 0.67222 0.0
C373 C 0.68429 0.23297 0.68718 0.0
C374 C 0.71127 0.24554 0.70757 0.0
N375 N 0.72455 0.22978 0.70635 0.0
Co376 Co 0.76 0.23627 0.73854 0.0
N377 N 0.76278 0.27015 0.76569 0.0
C378 C 0.74513 0.28124 0.75977 0.0
C379 C 0.7531 0.30521 0.78196 0.0
C380 C 0.77767 0.31004 0.803 0.0
C381 C 0.7833 0.28871 0.79223 0.0
N382 N 0.79495 0.24217 0.77095 0.0
C383 C 0.81203 0.26302 0.79748 0.0
C384 C 0.8346 0.25945 0.8129 0.0
C385 C 0.83177 0.2356 0.79539 0.0
C386 C 0.80784 0.22606 0.77034 0.0
N387 N 0.75763 0.20284 0.7111 0.0
C388 C 0.77675 0.19326 0.71527 0.0
C389 C 0.77173 0.1724 0.68969 0.0
C390 C 0.74739 0.16781 0.66843 0.0
C391 C 0.73839 0.18561 0.68299 0.0
N392 N 0.78951 0.26518 0.70504 0.0
C393 C 0.83246 0.30731 0.65933 0.0
C394 C 0.83615 0.28561 0.67455 0.0
C395 C 0.81479 0.26514 0.69708 0.0
C396 C 0.80674 0.30745 0.66758 0.0
C397 C 0.78574 0.28636 0.69004 0.0
N398 N 0.73058 0.20763 0.77216 0.0
C399 C 0.71342 0.16658 0.81165 0.0
C400 C 0.68838 0.16791 0.82061 0.0
C401 C 0.68491 0.18928 0.80385 0.0
C402 C 0.70615 0.20887 0.78077 0.0
C403 C 0.73375 0.18616 0.78728 0.0
H404 H 0.70215 0.22485 0.77014 0.0
H405 H 0.75197 0.18362 0.78111 0.0
H406 H 0.81945 0.24963 0.70795 0.0
H407 H 0.76664 0.28771 0.69492 0.0
C408 C 0.72181 0.26917 0.73253 0.0
C409 C 0.70945 0.18267 0.67218 0.0
C410 C 0.80902 0.28765 0.80722 0.0
C411 C 0.79892 0.20398 0.74373 0.0
H412 H 0.6594 0.19135 0.65634 0.0
H413 H 0.6686 0.24029 0.68545 0.0
H414 H 0.74263 0.31796 0.78236 0.0
H415 H 0.79035 0.32759 0.82354 0.0
H416 H 0.85198 0.27315 0.83385 0.0
H417 H 0.84619 0.22697 0.79949 0.0
H418 H 0.78399 0.1615 0.68712 0.0
H419 H 0.73671 0.15218 0.64564 0.0
H420 H 0.8558 0.28462 0.66957 0.0
H421 H 0.80246 0.32348 0.65628 0.0
H422 H 0.71776 0.15081 0.82354 0.0
H423 H 0.66568 0.1911 0.80806 0.0
C424 C 0.49938 0.69603 0.22189 0.0
C425 C 0.47061 0.67321 0.20832 0.0
C426 C 0.45014 0.67807 0.22252 0.0
C427 C 0.46745 0.7036 0.24359 0.0
N428 N 0.4978 0.71545 0.24373 0.0
Co429 Co 0.53098 0.75341 0.26944 0.0
N430 N 0.50065 0.75913 0.29267 0.0
C431 C 0.46997 0.74029 0.28974 0.0
C432 C 0.45499 0.74904 0.31008 0.0
C433 C 0.47739 0.77508 0.32711 0.0
C434 C 0.50491 0.78097 0.31576 0.0
N435 N 0.5641 0.79205 0.29396 0.0
C436 C 0.56242 0.81173 0.3153 0.0
C437 C 0.59112 0.83682 0.32444 0.0
C438 C 0.6116 0.83277 0.30872 0.0
C439 C 0.59438 0.8057 0.29063 0.0
N440 N 0.56128 0.74686 0.24756 0.0
C441 C 0.59201 0.76454 0.25261 0.0
C442 C 0.60698 0.75377 0.23588 0.0
C443 C 0.5845 0.72747 0.21935 0.0
C444 C 0.55696 0.72379 0.22671 0.0
N445 N 0.53035 0.77567 0.22787 0.0
C446 C 0.53129 0.81199 0.17388 0.0
C447 C 0.55712 0.81146 0.18351 0.0
C448 C 0.55619 0.79335 0.21044 0.0
C449 C 0.50455 0.79304 0.19035 0.0
C450 C 0.50448 0.77492 0.21679 0.0
N451 N 0.5318 0.73139 0.311 0.0
C452 C 0.56023 0.72355 0.35756 0.0
C453 C 0.53356 0.69851 0.3679 0.0
C454 C 0.50586 0.6907 0.34993 0.0
C455 C 0.5055 0.70732 0.32179 0.0
C456 C 0.55884 0.73956 0.32935 0.0
H457 H 0.48373 0.70009 0.3089 0.0
H458 H 0.58002 0.75819 0.32252 0.0
H459 H 0.57693 0.79466 0.21713 0.0
H460 H 0.48337 0.76094 0.22828 0.0
C461 C 0.45585 0.71552 0.26593 0.0
C462 C 0.52736 0.69787 0.21366 0.0
C463 C 0.53432 0.80782 0.32728 0.0
C464 C 0.60604 0.79176 0.27191 0.0
H465 H 0.46494 0.65473 0.19033 0.0
H466 H 0.42552 0.66426 0.21856 0.0
H467 H 0.43065 0.73799 0.31198 0.0
H468 H 0.47378 0.78832 0.34559 0.0
H469 H 0.59674 0.85614 0.34074 0.0
H470 H 0.63616 0.84773 0.31046 0.0
H471 H 0.63135 0.76388 0.23564 0.0
H472 H 0.58803 0.71266 0.2037 0.0
H473 H 0.57834 0.82587 0.17138 0.0
H474 H 0.48385 0.79246 0.18315 0.0
H475 H 0.58229 0.73032 0.3704 0.0
H476 H 0.48452 0.6717 0.35736 0.0
C477 C 0.74856 0.56437 0.74283 0.0
C478 C 0.75358 0.59193 0.73542 0.0
C479 C 0.77861 0.61244 0.7566 0.0
C480 C 0.78741 0.59638 0.77581 0.0
N481 N 0.76953 0.56677 0.76824 0.0
Co482 Co 0.7743 0.53543 0.79061 0.0
N483 N 0.81108 0.56564 0.82191 0.0
C484 C 0.823 0.5952 0.82445 0.0
C485 C 0.84683 0.61018 0.84986 0.0
C486 C 0.85084 0.58909 0.86395 0.0
C487 C 0.82957 0.56232 0.84571 0.0
N488 N 0.77946 0.50416 0.81256 0.0
C489 C 0.80297 0.50684 0.83381 0.0
C490 C 0.79954 0.47941 0.83747 0.0
C491 C 0.77268 0.45879 0.8194 0.0
C492 C 0.76147 0.47457 0.80482 0.0
N493 N 0.73731 0.50513 0.75952 0.0
C494 C 0.72411 0.47539 0.75878 0.0
C495 C 0.6991 0.46006 0.73496 0.0
C496 C 0.69589 0.48122 0.7196 0.0
C497 C 0.71916 0.50839 0.7352 0.0
N498 N 0.80115 0.5393 0.75288 0.0
C499 C 0.84113 0.54498 0.7015 0.0
C500 C 0.81679 0.51707 0.70995 0.0
C501 C 0.79716 0.51478 0.73531 0.0
C502 C 0.84465 0.56998 0.71878 0.0
C503 C 0.82468 0.56666 0.7442 0.0
N504 N 0.74728 0.5317 0.82838 0.0
C505 C 0.70302 0.50191 0.86203 0.0
C506 C 0.70615 0.52737 0.87742 0.0
C507 C 0.73063 0.55488 0.86856 0.0
C508 C 0.75065 0.5565 0.84435 0.0
C509 C 0.72386 0.50456 0.83801 0.0
H510 H 0.76828 0.57822 0.83861 0.0
H511 H 0.72036 0.48438 0.82728 0.0
H512 H 0.77913 0.49292 0.74057 0.0
H513 H 0.82888 0.58658 0.75669 0.0
C514 C 0.81164 0.60831 0.80212 0.0
C515 C 0.72305 0.53658 0.72573 0.0
C516 C 0.82903 0.53482 0.85055 0.0
C517 C 0.73622 0.46259 0.78016 0.0
H518 H 0.7403 0.59673 0.71694 0.0
H519 H 0.78891 0.63622 0.75819 0.0
H520 H 0.85992 0.63371 0.85707 0.0
H521 H 0.86792 0.59317 0.88492 0.0
H522 H 0.8151 0.47445 0.85056 0.0
H523 H 0.7633 0.43526 0.81566 0.0
H524 H 0.68499 0.43632 0.72925 0.0
H525 H 0.67843 0.47705 0.69911 0.0
H526 H 0.81319 0.49693 0.69772 0.0
H527 H 0.86274 0.59214 0.71278 0.0
H528 H 0.68461 0.48003 0.86848 0.0
H529 H 0.73393 0.57531 0.87941 0.0
C530 C 0.27658 0.82884 0.31198 0.0
C531 C 0.27184 0.85063 0.32365 0.0
C532 C 0.24359 0.84272 0.30939 0.0
C533 C 0.23284 0.81697 0.28933 0.0
N534 N 0.25261 0.8082 0.29014 0.0
Co535 Co 0.24791 0.7742 0.26216 0.0
N536 N 0.21626 0.77235 0.22846 0.0
C537 C 0.20103 0.78574 0.23343 0.0
C538 C 0.18219 0.78237 0.2043 0.0
C539 C 0.18538 0.76542 0.17968 0.0
C540 C 0.20568 0.75889 0.19548 0.0
N541 N 0.24308 0.73994 0.2347 0.0
C542 C 0.22849 0.72749 0.20227 0.0
C543 C 0.22896 0.7023 0.19447 0.0
C544 C 0.24406 0.69888 0.22307 0.0
C545 C 0.25191 0.72194 0.2468 0.0
N546 N 0.27974 0.7764 0.29572 0.0
C547 C 0.28455 0.75453 0.30167 0.0
C548 C 0.30817 0.76266 0.3269 0.0
C549 C 0.31877 0.79146 0.3374 0.0
C550 C 0.30103 0.79927 0.31775 0.0
N551 N 0.21613 0.74622 0.29306 0.0
C552 C 0.17442 0.70224 0.33688 0.0
C553 C 0.20105 0.72784 0.35175 0.0
C554 C 0.22129 0.74974 0.3295 0.0
C555 C 0.16847 0.6997 0.29975 0.0
C556 C 0.18959 0.72176 0.27836 0.0
N557 N 0.27975 0.80185 0.23135 0.0
C558 C 0.32553 0.81702 0.20179 0.0
C559 C 0.32635 0.84181 0.18841 0.0
C560 C 0.30291 0.84581 0.1969 0.0
C561 C 0.27998 0.82572 0.21831 0.0
C562 C 0.30224 0.79749 0.22304 0.0
H563 H 0.26256 0.82969 0.22452 0.0
H564 H 0.30253 0.77883 0.2329 0.0
H565 H 0.24166 0.7691 0.34181 0.0
H566 H 0.18482 0.71843 0.24981 0.0
C567 C 0.20879 0.80523 0.26294 0.0
C568 C 0.30348 0.82769 0.32228 0.0
C569 C 0.21062 0.73643 0.18059 0.0
C570 C 0.27032 0.72918 0.27867 0.0
H571 H 0.28727 0.87066 0.33982 0.0
H572 H 0.23324 0.85552 0.31117 0.0
H573 H 0.16854 0.79191 0.20088 0.0
H574 H 0.17342 0.75797 0.15345 0.0
H575 H 0.2187 0.6873 0.17112 0.0
H576 H 0.24894 0.68177 0.22601 0.0
H577 H 0.31741 0.7497 0.33555 0.0
H578 H 0.33733 0.8051 0.35728 0.0
H579 H 0.20644 0.73069 0.38038 0.0
H580 H 0.14821 0.6802 0.28718 0.0
H581 H 0.34266 0.81247 0.19568 0.0
H582 H 0.30253 0.86468 0.18769 0.0
C583 C 0.4478 0.26839 0.77374 0.0
C584 C 0.41986 0.26412 0.78037 0.0
C585 C 0.39801 0.23855 0.76191 0.0
C586 C 0.41374 0.22879 0.74485 0.0
N587 N 0.44435 0.24643 0.7515 0.0
Co588 Co 0.47566 0.24137 0.72972 0.0
N589 N 0.44346 0.20374 0.70248 0.0
C590 C 0.41295 0.18985 0.7041 0.0
C591 C 0.39647 0.16365 0.68405 0.0
C592 C 0.4177 0.16039 0.66895 0.0
C593 C 0.44605 0.185 0.68052 0.0
N594 N 0.50703 0.23711 0.70676 0.0
C595 C 0.50368 0.21586 0.68338 0.0
C596 C 0.53166 0.22206 0.6734 0.0
C597 C 0.55345 0.24785 0.69147 0.0
C598 C 0.53765 0.25605 0.71115 0.0
N599 N 0.50789 0.27824 0.75809 0.0
C600 C 0.53835 0.29047 0.75922 0.0
C601 C 0.55484 0.31503 0.78203 0.0
C602 C 0.5337 0.31884 0.79632 0.0
C603 C 0.50539 0.29644 0.78105 0.0
N604 N 0.47509 0.21723 0.76971 0.0
C605 C 0.47313 0.1795 0.82231 0.0
C606 C 0.50032 0.19924 0.80715 0.0
C607 C 0.50089 0.21807 0.78143 0.0
C608 C 0.44723 0.17966 0.8119 0.0
C609 C 0.44864 0.19844 0.78556 0.0
N610 N 0.47607 0.26543 0.68978 0.0
C611 C 0.50296 0.30895 0.65514 0.0
C612 C 0.47567 0.30219 0.63706 0.0
C613 C 0.44877 0.27611 0.64485 0.0
C614 C 0.44951 0.25816 0.67095 0.0
C615 C 0.50266 0.29037 0.68114 0.0
H616 H 0.42816 0.23885 0.6759 0.0
H617 H 0.52414 0.29689 0.69426 0.0
H618 H 0.52236 0.23274 0.77106 0.0
H619 H 0.42786 0.19684 0.77807 0.0
C620 C 0.40046 0.20263 0.7235 0.0
C621 C 0.47695 0.29388 0.78874 0.0
C622 C 0.47471 0.18923 0.67039 0.0
C623 C 0.55089 0.27981 0.73641 0.0
H624 H 0.41563 0.27808 0.79672 0.0
H625 H 0.37357 0.22828 0.76104 0.0
H626 H 0.37193 0.14871 0.68076 0.0
H627 H 0.41286 0.1419 0.65152 0.0
H628 H 0.53592 0.20905 0.65532 0.0
H629 H 0.57793 0.25891 0.69099 0.0
H630 H 0.57937 0.32889 0.78711 0.0
H631 H 0.53864 0.33638 0.81548 0.0
H632 H 0.52102 0.19999 0.81495 0.0
H633 H 0.42568 0.16457 0.82304 0.0
H634 H 0.5245 0.32863 0.64953 0.0
H635 H 0.42699 0.26998 0.63178 0.0
H636 H 0.08808 0.51074 0.11925 0.0
H637 H 0.0775 0.45252 0.03173 0.0
H638 H 0.11788 0.44769 0.06013 0.0
H639 H 0.15787 0.46178 0.10883 0.0
H640 H 0.16484 0.5156 0.19948 0.0
H641 H 0.12465 0.52074 0.17094 0.0
C642 C 0.09445 0.49677 0.10664 0.0
C643 C 0.08015 0.48242 0.07307 0.0
C644 C 0.11715 0.49341 0.1237 0.0
C645 C 0.0885 0.4642 0.05722 0.0
C646 C 0.11155 0.46139 0.07351 0.0
C647 C 0.14993 0.47384 0.12286 0.0
C648 C 0.1639 0.48771 0.15671 0.0
C649 C 0.12622 0.47605 0.10664 0.0
C650 C 0.15421 0.50441 0.17366 0.0
C651 C 0.13126 0.50738 0.15731 0.0
H652 H 0.62158 0.05669 0.59405 0.0
H653 H 0.58829 0.10455 0.53753 0.0
H654 H 0.62936 0.15086 0.56775 0.0
H655 H 0.67489 0.17722 0.61058 0.0
H656 H 0.68932 0.12537 0.68668 0.0
H657 H 0.65474 0.08041 0.64954 0.0
C658 C 0.62149 0.07659 0.59006 0.0
C659 C 0.60107 0.07661 0.56403 0.0
C660 C 0.64213 0.10242 0.61104 0.0
C661 C 0.60381 0.10372 0.55714 0.0
C662 C 0.62711 0.13022 0.57463 0.0
C663 C 0.66929 0.15606 0.62045 0.0
C664 C 0.68492 0.15498 0.6516 0.0
C665 C 0.64628 0.12977 0.60188 0.0
C666 C 0.67822 0.12711 0.66244 0.0
C667 C 0.65829 0.10132 0.64138 0.0
H668 H 0.50401 0.57866 0.14334 0.0
H669 H 0.54353 0.63534 0.0553 0.0
H670 H 0.55016 0.67724 0.09042 0.0
H671 H 0.54402 0.69799 0.14609 0.0
H672 H 0.50578 0.64183 0.23444 0.0
H673 H 0.49979 0.59979 0.19964 0.0
C674 C 0.51446 0.60023 0.13191 0.0
C675 C 0.52304 0.60355 0.09644 0.0
C676 C 0.51848 0.62446 0.15243 0.0
C677 C 0.53613 0.63177 0.08217 0.0
C678 C 0.54015 0.6559 0.10236 0.0
C679 C 0.53463 0.67656 0.15767 0.0
C680 C 0.5254 0.67291 0.19272 0.0
C681 C 0.53127 0.65251 0.13745 0.0
C682 C 0.51306 0.64506 0.2075 0.0
C683 C 0.50962 0.62106 0.18759 0.0
H684 H 0.95056 0.56995 0.61142 0.0
H685 H 0.87712 0.49383 0.54938 0.0
H686 H 0.84031 0.49286 0.5872 0.0
H687 H 0.82904 0.51172 0.63983 0.0
H688 H 0.90294 0.58491 0.70506 0.0
H689 H 0.9393 0.58877 0.66409 0.0
C690 C 0.92654 0.55301 0.6062 0.0
C691 C 0.91681 0.53201 0.57746 0.0
C692 C 0.90546 0.55194 0.62876 0.0
C693 C 0.88541 0.51066 0.57083 0.0
C694 C 0.86427 0.50985 0.59272 0.0
C695 C 0.85311 0.52839 0.64531 0.0
C696 C 0.8631 0.54792 0.67564 0.0
C697 C 0.87408 0.53007 0.62209 0.0
C698 C 0.8944 0.5698 0.68173 0.0
C699 C 0.91532 0.5719 0.65843 0.0
H700 H 0.44652 0.92733 0.10888 0.0
H701 H 0.3833 0.93827 0.04328 0.0
H702 H 0.34185 0.90483 0.08014 0.0
H703 H 0.32327 0.8714 0.13033 0.0
H704 H 0.38699 0.86119 0.1966 0.0
H705 H 0.42815 0.89489 0.16023 0.0
C706 C 0.42365 0.9224 0.10286 0.0
C707 C 0.41788 0.93511 0.07334 0.0
C708 C 0.3999 0.90306 0.12421 0.0
C709 C 0.3882 0.92863 0.06578 0.0
C710 C 0.36453 0.90951 0.08686 0.0
C711 C 0.34619 0.87673 0.13713 0.0
C712 C 0.35166 0.86333 0.16627 0.0
C713 C 0.37003 0.89644 0.11609 0.0
C714 C 0.38167 0.87049 0.1741 0.0
C715 C 0.40542 0.89003 0.15339 0.0
H716 H 0.45039 0.37287 0.52166 0.0
H717 H 0.51692 0.44653 0.59199 0.0
H718 H 0.52292 0.41285 0.62989 0.0
H719 H 0.50746 0.36233 0.64421 0.0
H720 H 0.44169 0.28845 0.57318 0.0
H721 H 0.43715 0.32228 0.53423 0.0
C722 C 0.4664 0.38138 0.54509 0.0
C723 C 0.48329 0.41188 0.55422 0.0
C724 C 0.46974 0.36191 0.56658 0.0
C725 C 0.50376 0.42297 0.58472 0.0
C726 C 0.50718 0.40379 0.60627 0.0
C727 C 0.49256 0.35364 0.61987 0.0
C728 C 0.47488 0.32289 0.61172 0.0
C729 C 0.4901 0.37319 0.5976 0.0
C730 C 0.45526 0.312 0.58036 0.0
C731 C 0.45271 0.33132 0.558 0.0
H732 H 0.54603 0.89999 0.44523 0.0
H733 H 0.49512 0.91305 0.36107 0.0
H734 H 0.49634 0.87727 0.32201 0.0
H735 H 0.51124 0.84156 0.31135 0.0
H736 H 0.55947 0.82598 0.39582 0.0
H737 H 0.55989 0.86319 0.43498 0.0
C738 C 0.53498 0.89487 0.41847 0.0
C739 C 0.52083 0.9097 0.40622 0.0
C740 C 0.53534 0.87376 0.39603 0.0
C741 C 0.50686 0.90272 0.3712 0.0
C742 C 0.50731 0.88201 0.34878 0.0
C743 C 0.52185 0.84642 0.33835 0.0
C744 C 0.53542 0.83121 0.35071 0.0
C745 C 0.52151 0.86742 0.36083 0.0
C746 C 0.54907 0.83759 0.38572 0.0
C747 C 0.5492 0.85876 0.40811 0.0
H748 H 0.62866 0.5458 0.9855 0.0
H749 H 0.55473 0.47634 0.91696 0.0
H750 H 0.59106 0.47291 0.88202 0.0
H751 H 0.64412 0.49132 0.86966 0.0
H752 H 0.71797 0.56034 0.93921 0.0
H753 H 0.68155 0.5621 0.97532 0.0
C754 C 0.62066 0.52971 0.96317 0.0
C755 C 0.58928 0.51119 0.95379 0.0
C756 C 0.64165 0.52782 0.94343 0.0
C757 C 0.57892 0.4907 0.92454 0.0
C758 C 0.59964 0.48874 0.90467 0.0
C759 C 0.65221 0.50635 0.89309 0.0
C760 C 0.68375 0.5258 0.90154 0.0
C761 C 0.6311 0.50734 0.91373 0.0
C762 C 0.69384 0.54542 0.93179 0.0
C763 C 0.67303 0.54642 0.95251 0.0
H764 H 0.10438 0.58949 0.43071 0.0
H765 H 0.03617 0.61122 0.42121 0.0
H766 H 0.0689 0.65337 0.38526 0.0
H767 H 0.1171 0.684 0.35552 0.0
H768 H 0.18677 0.66445 0.36896 0.0
H769 H 0.15376 0.62193 0.40433 0.0
C770 C 0.09682 0.6036 0.4209 0.0
C771 C 0.06764 0.59691 0.42821 0.0
C772 C 0.11615 0.62829 0.40089 0.0
C773 C 0.05829 0.61558 0.41554 0.0
C774 C 0.07706 0.63975 0.39504 0.0
C775 C 0.12499 0.67044 0.36636 0.0
C776 C 0.1543 0.67727 0.35957 0.0
C777 C 0.10601 0.64628 0.38733 0.0
C778 C 0.16434 0.65964 0.37391 0.0
C779 C 0.14543 0.6353 0.39408 0.0
H780 H 0.45849 0.0929 0.94347 0.0
H781 H 0.49443 0.06376 0.86388 0.0
H782 H 0.49671 0.1 0.82325 0.0
H783 H 0.48963 0.14071 0.8108 0.0
H784 H 0.45209 0.16915 0.88888 0.0
H785 H 0.44936 0.13257 0.92987 0.0
C786 C 0.4667 0.09452 0.91717 0.0
C787 C 0.47618 0.07571 0.90656 0.0
C788 C 0.46784 0.11535 0.89387 0.0
C789 C 0.48662 0.07777 0.87238 0.0
C790 C 0.48815 0.09861 0.84926 0.0
C791 C 0.48102 0.13893 0.83691 0.0
C792 C 0.47143 0.15765 0.84719 0.0
C793 C 0.47905 0.11763 0.85983 0.0
C794 C 0.45969 0.1549 0.88065 0.0
C795 C 0.45814 0.13406 0.90399 0.0
H796 H 0.38827 0.51153 0.42964 0.0
H797 H 0.40987 0.46444 0.35547 0.0
H798 H 0.37241 0.46132 0.31103 0.0
H799 H 0.3332 0.47177 0.29259 0.0
H800 H 0.30849 0.51512 0.36768 0.0
H801 H 0.34705 0.51948 0.4124 0.0
C802 C 0.38459 0.50012 0.40404 0.0
C803 C 0.40246 0.48848 0.39629 0.0
C804 C 0.36222 0.49761 0.37862 0.0
C805 C 0.39732 0.47434 0.36238 0.0
C806 C 0.37556 0.47224 0.33685 0.0
C807 C 0.336 0.48177 0.31896 0.0
C808 C 0.31775 0.49275 0.32706 0.0
C809 C 0.35789 0.48379 0.34462 0.0
C810 C 0.32207 0.50626 0.36102 0.0
C811 C 0.34414 0.50878 0.3865 0.0
H812 H 0.92063 0.40616 0.88018 0.0
H813 H 0.89519 0.35221 0.97207 0.0
H814 H 0.85316 0.31031 0.93591 0.0
H815 H 0.82333 0.28914 0.87803 0.0
H816 H 0.84964 0.34273 0.78611 0.0
H817 H 0.8917 0.38484 0.82236 0.0
C818 C 0.9062 0.38509 0.89217 0.0
C819 C 0.91109 0.38226 0.92871 0.0
C820 C 0.88212 0.36119 0.87127 0.0
C821 C 0.89176 0.355 0.94404 0.0
C822 C 0.86777 0.33105 0.92339 0.0
C823 C 0.8384 0.31012 0.86617 0.0
C824 C 0.83376 0.31312 0.82972 0.0
C825 C 0.86263 0.33395 0.88705 0.0
C826 C 0.85305 0.34021 0.81426 0.0
C827 C 0.87705 0.36412 0.83489 0.0
H828 H 0.9529 0.55764 0.9256 0.0
H829 H 0.88969 0.47478 0.97174 0.0
H830 H 0.8469 0.47588 0.94398 0.0
H831 H 0.82736 0.50014 0.90556 0.0
H832 H 0.89025 0.572 0.84275 0.0
H833 H 0.93319 0.57563 0.87761 0.0
C834 C 0.92983 0.53923 0.92872 0.0
C835 C 0.92483 0.51619 0.95106 0.0
C836 C 0.9052 0.53824 0.90963 0.0
C837 C 0.89448 0.49314 0.95539 0.0
C838 C 0.86991 0.4936 0.93924 0.0
C839 C 0.85037 0.516 0.89856 0.0
C840 C 0.85526 0.53579 0.87136 0.0
C841 C 0.87497 0.51596 0.91607 0.0
C842 C 0.88556 0.55677 0.86382 0.0
C843 C 0.9102 0.55871 0.88359 0.0
H844 H 0.43085 0.93026 0.39412 0.0
H845 H 0.37286 0.93088 0.47073 0.0
H846 H 0.32775 0.8902 0.43652 0.0
H847 H 0.30538 0.85308 0.38634 0.0
H848 H 0.36229 0.85667 0.30533 0.0
H849 H 0.40767 0.89664 0.34016 0.0
C850 C 0.40824 0.92162 0.40295 0.0
C851 C 0.40497 0.93287 0.43513 0.0
C852 C 0.38248 0.89893 0.38261 0.0
C853 C 0.37572 0.92198 0.44631 0.0
C854 C 0.35005 0.89882 0.42682 0.0
C855 C 0.32761 0.86328 0.3758 0.0
C856 C 0.33056 0.85268 0.34293 0.0
C857 C 0.35321 0.88694 0.39514 0.0
C858 C 0.35961 0.86494 0.33039 0.0
C859 C 0.38544 0.88773 0.35022 0.0
H860 H 0.49571 0.40965 0.86344 0.0
H861 H 0.4513 0.34897 0.94674 0.0
H862 H 0.44747 0.30885 0.91058 0.0
H863 H 0.45701 0.29073 0.85513 0.0
H864 H 0.49964 0.35086 0.77124 0.0
H865 H 0.50349 0.39125 0.80742 0.0
C866 C 0.48478 0.38759 0.87358 0.0
C867 C 0.47391 0.38259 0.90802 0.0
C868 C 0.4823 0.36441 0.85242 0.0
C869 C 0.46036 0.3538 0.92071 0.0
C870 C 0.45795 0.3307 0.89991 0.0
C871 C 0.46692 0.31267 0.84483 0.0
C872 C 0.47799 0.31791 0.81063 0.0
C873 C 0.46891 0.33573 0.86576 0.0
C874 C 0.49097 0.34641 0.79751 0.0
C875 C 0.49317 0.36945 0.81819 0.0
H876 H 0.12049 0.51546 0.42995 0.0
H877 H 0.04484 0.43099 0.38561 0.0
H878 H 0.07791 0.42832 0.34459 0.0
H879 H 0.12759 0.45092 0.31954 0.0
H880 H 0.20412 0.53358 0.36692 0.0
H881 H 0.1712 0.53591 0.40842 0.0
C882 C 0.11127 0.49612 0.41189 0.0
C883 C 0.08006 0.47357 0.41084 0.0
C884 C 0.13049 0.49452 0.38859 0.0
C885 C 0.06859 0.44898 0.38666 0.0
C886 C 0.08753 0.44734 0.36325 0.0
C887 C 0.13734 0.46922 0.33932 0.0
C888 C 0.1684 0.49215 0.33969 0.0
C889 C 0.11843 0.47016 0.36369 0.0
C890 C 0.18023 0.51591 0.36528 0.0
C891 C 0.16146 0.51716 0.38932 0.0
H892 H 0.58496 0.09705 0.92876 0.0
H893 H 0.60935 0.03295 0.91362 0.0
H894 H 0.64746 0.06535 0.87272 0.0
H895 H 0.67292 0.11153 0.83988 0.0
H896 H 0.65339 0.17858 0.86312 0.0
H897 H 0.61458 0.14548 0.90154 0.0
C898 C 0.59878 0.09028 0.91667 0.0
C899 C 0.59371 0.06223 0.9236 0.0
C900 C 0.6215 0.10955 0.8942 0.0
C901 C 0.61219 0.05405 0.90808 0.0
C902 C 0.63412 0.07268 0.8848 0.0
C903 C 0.66068 0.11934 0.85359 0.0
C904 C 0.66604 0.1477 0.84696 0.0
C905 C 0.6389 0.10049 0.87741 0.0
C906 C 0.64937 0.15669 0.86565 0.0
C907 C 0.62718 0.1378 0.88833 0.0
H908 H 0.56078 0.63607 0.49291 0.0
H909 H 0.49359 0.55847 0.42842 0.0
H910 H 0.48665 0.58935 0.38656 0.0
H911 H 0.50178 0.63847 0.36685 0.0
H912 H 0.56878 0.7166 0.43126 0.0
H913 H 0.5739 0.68559 0.47465 0.0
C914 C 0.54445 0.62613 0.46984 0.0
C915 C 0.52762 0.59528 0.46346 0.0
C916 C 0.54074 0.64407 0.4459 0.0
C917 C 0.50666 0.58228 0.43355 0.0
C918 C 0.50274 0.59989 0.40971 0.0
C919 C 0.51707 0.64873 0.39071 0.0
C920 C 0.5349 0.67978 0.39577 0.0
C921 C 0.5199 0.63082 0.41544 0.0
C922 C 0.55507 0.69272 0.42652 0.0
C923 C 0.55793 0.67503 0.4514 0.0
H924 H 0.47199 0.10366 0.55009 0.0
H925 H 0.50415 0.07636 0.64056 0.0
H926 H 0.50148 0.11127 0.67992 0.0
H927 H 0.49083 0.15043 0.68885 0.0
H928 H 0.45875 0.17795 0.59892 0.0
H929 H 0.4606 0.14236 0.55919 0.0
C930 C 0.47855 0.10545 0.57838 0.0
C931 C 0.48818 0.08723 0.59224 0.0
C932 C 0.47693 0.12567 0.60102 0.0
C933 C 0.49625 0.08971 0.62913 0.0
C934 C 0.49489 0.10983 0.6517 0.0
C935 C 0.48413 0.14842 0.66056 0.0
C936 C 0.4746 0.1666 0.64668 0.0
C937 C 0.4853 0.12794 0.63799 0.0
C938 C 0.46603 0.16401 0.61005 0.0
C939 C 0.46718 0.14374 0.5874 0.0
H940 H 0.41955 0.51128 0.0499 0.0
H941 H 0.36842 0.41578 0.04332 0.0
H942 H 0.32733 0.41394 0.07422 0.0
H943 H 0.30775 0.4399 0.10674 0.0
H944 H 0.35905 0.5354 0.11316 0.0
H945 H 0.39817 0.53713 0.0782 0.0
C946 C 0.39921 0.49014 0.05504 0.0
C947 C 0.39698 0.46369 0.04506 0.0
C948 C 0.37579 0.48936 0.07257 0.0
C949 C 0.3706 0.43634 0.05138 0.0
C950 C 0.34718 0.43533 0.06891 0.0
C951 C 0.32721 0.46097 0.09968 0.0
C952 C 0.33059 0.48749 0.11189 0.0
C953 C 0.34972 0.4617 0.08008 0.0
C954 C 0.35601 0.51479 0.10342 0.0
C955 C 0.3784 0.51575 0.08374 0.0
H956 H 0.92941 0.38268 0.54637 0.0
H957 H 0.92422 0.4529 0.59445 0.0
H958 H 0.88649 0.41783 0.63408 0.0
H959 H 0.85511 0.367 0.65551 0.0
H960 H 0.86076 0.29684 0.60737 0.0
H961 H 0.89797 0.3318 0.56779 0.0
C962 C 0.9199 0.39016 0.56553 0.0
C963 C 0.92942 0.42027 0.56744 0.0
C964 C 0.89828 0.36983 0.58836 0.0
C965 C 0.91714 0.42981 0.5925 0.0
C966 C 0.89557 0.40975 0.61512 0.0
C967 C 0.86427 0.35926 0.63618 0.0
C968 C 0.85499 0.32912 0.63474 0.0
C969 C 0.88591 0.37965 0.61334 0.0
C970 C 0.86761 0.31983 0.60966 0.0
C971 C 0.88887 0.33985 0.58677 0.0
H972 H 0.55032 0.90112 0.05414 0.0
H973 H 0.51028 0.92778 0.13119 0.0
H974 H 0.50584 0.89022 0.17102 0.0
H975 H 0.51304 0.84969 0.18392 0.0
H976 H 0.55393 0.82323 0.10805 0.0
H977 H 0.55817 0.86066 0.06757 0.0
C978 C 0.54065 0.89863 0.07966 0.0
C979 C 0.53084 0.91727 0.08986 0.0
C980 C 0.53815 0.87696 0.10248 0.0
C981 C 0.51849 0.91401 0.12306 0.0
C982 C 0.5157 0.8924 0.14571 0.0
C983 C 0.52256 0.85195 0.15832 0.0
C984 C 0.53286 0.83366 0.14868 0.0
C985 C 0.52535 0.87371 0.13564 0.0
C986 C 0.54582 0.83714 0.11588 0.0
C987 C 0.54824 0.85849 0.09281 0.0
H988 H 0.64568 0.54255 0.59329 0.0
H989 H 0.57424 0.49822 0.66547 0.0
H990 H 0.61073 0.50112 0.71145 0.0
H991 H 0.66298 0.51535 0.73131 0.0
H992 H 0.7341 0.55795 0.65894 0.0
H993 H 0.69791 0.55657 0.61305 0.0
C994 C 0.638 0.53333 0.61897 0.0
C995 C 0.60708 0.52034 0.62573 0.0
C996 C 0.65917 0.5348 0.64541 0.0
C997 C 0.59785 0.50885 0.65949 0.0
C998 C 0.61872 0.51031 0.68585 0.0
C999 C 0.67046 0.5244 0.70548 0.0
C1000 C 0.70111 0.53682 0.69845 0.0
C1001 C 0.64942 0.52319 0.67915 0.0
C1002 C 0.71063 0.54843 0.66493 0.0
C1003 C 0.68991 0.54754 0.63871 0.0
H1004 H 0.1309 0.63812 0.05833 0.0
H1005 H 0.05948 0.62507 0.12357 0.0
H1006 H 0.09669 0.66673 0.16335 0.0
H1007 H 0.1497 0.70315 0.18311 0.0
H1008 H 0.22121 0.7209 0.11578 0.0
H1009 H 0.18367 0.6808 0.0731 0.0
C1010 C 0.12334 0.64484 0.08068 0.0
C1011 C 0.09251 0.62786 0.08852 0.0
C1012 C 0.14485 0.66931 0.10325 0.0
C1013 C 0.08319 0.63704 0.1176 0.0
C1014 C 0.10441 0.66095 0.14032 0.0
C1015 C 0.15696 0.69883 0.15855 0.0
C1016 C 0.18801 0.71489 0.15233 0.0
C1017 C 0.13533 0.67661 0.13398 0.0
C1018 C 0.1973 0.70873 0.12088 0.0
C1019 C 0.17589 0.68588 0.09662 0.0
loop_
_geom_bond_atom_site_label_1
_geom_bond_atom_site_label_2
_geom_bond_distance
_geom_bond_site_symmetry_2
_ccdc_geom_bond_type
C0 C1 1.443 . S
C0 N4 1.376 1_556 S
C0 C38 1.389 . S
C1 C0 1.443 . S
C1 C2 1.340 1_556 S
C1 H41 0.951 . S
C2 C1 1.340 1_554 S
C2 C3 1.439 . S
C2 H42 0.950 . S
C3 C2 1.439 . S
C3 N4 1.374 . S
C3 C37 1.395 . S
N4 C0 1.376 1_554 S
N4 C3 1.374 . S
N4 Co5 1.971 1_655 S
Co5 N4 1.971 1_455 S
Co5 N6 2.013 1_455 S
Co5 N11 2.045 1_554 S
Co5 N16 1.977 1_554 S
Co5 N21 2.293 . S
Co5 N27 2.272 1_454 S
N6 Co5 2.013 1_655 S
N6 C7 1.376 . S
N6 C10 1.383 1_655 S
C7 N6 1.376 . S
C7 C8 1.446 . S
C7 C37 1.391 . S
C8 C7 1.446 . S
C8 C9 1.339 1_655 S
C8 H43 0.949 . S
C9 C8 1.339 1_455 S
C9 C10 1.439 . S
C9 H44 0.950 . S
C10 N6 1.383 1_455 S
C10 C9 1.439 . S
C10 C39 1.392 . S
N11 Co5 2.045 1_556 S
N11 C12 1.376 1_556 S
N11 C15 1.374 . S
C12 N11 1.376 1_554 S
C12 C13 1.443 . S
C12 C39 1.389 . S
C13 C12 1.443 . S
C13 C14 1.340 1_554 S
C13 H45 0.951 . S
C14 C13 1.340 1_556 S
C14 C15 1.439 . S
C14 H46 0.950 . S
C15 N11 1.374 . S
C15 C14 1.439 . S
C15 C40 1.395 . S
N16 Co5 1.977 1_556 S
N16 C17 1.376 . S
N16 C20 1.383 1_455 S
C17 N16 1.376 . S
C17 C18 1.446 . S
C17 C40 1.391 . S
C18 C17 1.446 . S
C18 C19 1.339 1_455 S
C18 H47 0.949 . S
C19 C18 1.339 1_655 S
C19 C20 1.439 . S
C19 H48 0.950 . S
C20 N16 1.383 1_655 S
C20 C19 1.439 . S
C20 C38 1.392 . S
N21 Co5 2.293 . S
N21 C24 1.332 . S
N21 C26 1.332 . S
C22 C23 1.386 . S
C22 C25 1.388 . S
C23 C22 1.386 . S
C23 C24 1.382 . S
C23 H49 0.950 . S
C24 N21 1.332 . S
C24 C23 1.382 . S
C24 H35 0.960 . S
C25 C22 1.388 . S
C25 C26 1.382 . S
C25 H50 0.950 . S
C26 N21 1.332 . S
C26 C25 1.382 . S
C26 H36 0.948 . S
N27 Co5 2.272 1_656 S
N27 C31 1.332 . S
N27 C32 1.332 . S
C28 C29 1.388 . S
C28 C32 1.382 . S
C28 H51 0.950 . S
C29 C28 1.388 . S
C29 C30 1.386 . S
C30 C29 1.386 . S
C30 C31 1.382 . S
C30 H52 0.950 . S
C31 N27 1.332 . S
C31 C30 1.382 . S
C31 H33 0.933 1_556 S
C32 N27 1.332 . S
C32 C28 1.382 . S
C32 H34 0.948 . S
H33 C31 0.933 1_554 S
H34 C32 0.948 . S
H35 C24 0.960 . S
H36 C26 0.948 . S
C37 C3 1.395 . S
C37 C7 1.391 . S
C38 C0 1.389 . S
C38 C20 1.392 . S
C39 C10 1.392 . S
C39 C12 1.389 . S
C40 C15 1.395 . S
C40 C17 1.391 . S
H41 C1 0.951 . S
H42 C2 0.950 . S
H43 C8 0.949 . S
H44 C9 0.950 . S
H45 C13 0.951 . S
H46 C14 0.950 . S
H47 C18 0.949 . S
H48 C19 0.950 . S
H49 C23 0.950 . S
H50 C25 0.950 . S
H51 C28 0.950 . S
H52 C30 0.950 . S
C53 C54 1.443 . S
C53 N57 1.364 1_545 S
C53 C91 1.389 . S
C54 C53 1.443 . S
C54 C55 1.340 1_545 S
C54 H94 0.951 . S
C55 C54 1.340 1_565 S
C55 C56 1.439 . S
C55 H95 0.950 . S
C56 C55 1.439 . S
C56 N57 1.394 . S
C56 C90 1.395 . S
N57 C53 1.364 1_565 S
N57 C56 1.394 . S
N57 Co58 1.993 1_565 S
Co58 N57 1.993 1_545 S
Co58 N59 1.984 1_545 S
Co58 N64 2.014 . S
Co58 N69 2.005 . S
Co58 N74 2.264 1_545 S
Co58 N80 2.301 . S
N59 Co58 1.984 1_565 S
N59 C60 1.376 . S
N59 C63 1.383 . S
C60 N59 1.376 . S
C60 C61 1.446 . S
C60 C90 1.391 . S
C61 C60 1.446 . S
C61 C62 1.339 . S
C61 H96 0.949 . S
C62 C61 1.339 . S
C62 C63 1.439 . S
C62 H97 0.950 . S
C63 N59 1.383 . S
C63 C62 1.439 . S
C63 C92 1.392 . S
N64 Co58 2.014 . S
N64 C65 1.376 1_545 S
N64 C68 1.374 . S
C65 N64 1.376 1_565 S
C65 C66 1.443 . S
C65 C92 1.389 . S
C66 C65 1.443 . S
C66 C67 1.340 1_565 S
C66 H98 0.951 . S
C67 C66 1.340 1_545 S
C67 C68 1.439 . S
C67 H99 0.950 . S
C68 N64 1.374 . S
C68 C67 1.439 . S
C68 C93 1.395 . S
N69 Co58 2.005 . S
N69 C70 1.376 . S
N69 C73 1.383 . S
C70 N69 1.376 . S
C70 C71 1.446 . S
C70 C93 1.391 . S
C71 C70 1.446 . S
C71 C72 1.339 . S
C71 H100 0.949 . S
C72 C71 1.339 . S
C72 C73 1.439 . S
C72 H101 0.950 . S
C73 N69 1.383 . S
C73 C72 1.439 . S
C73 C91 1.392 . S
N74 Co58 2.264 1_565 S
N74 C77 1.332 . S
N74 C79 1.332 . S
C75 C76 1.386 . S
C75 C78 1.388 . S
C76 C75 1.386 . S
C76 C77 1.382 . S
C76 H102 0.950 . S
C77 N74 1.332 . S
C77 C76 1.382 . S
C77 H88 0.952 1_565 S
C78 C75 1.388 . S
C78 C79 1.382 . S
C78 H103 0.950 . S
C79 N74 1.332 . S
C79 C78 1.382 . S
C79 H89 0.948 . S
N80 Co58 2.301 . S
N80 C84 1.332 . S
N80 C85 1.332 . S
C81 C82 1.388 . S
C81 C85 1.382 . S
C81 H104 0.950 . S
C82 C81 1.388 . S
C82 C83 1.386 . S
C83 C82 1.386 . S
C83 C84 1.382 . S
C83 H105 0.950 . S
C84 N80 1.332 . S
C84 C83 1.382 . S
C84 H86 0.952 1_545 S
C85 N80 1.332 . S
C85 C81 1.382 . S
C85 H87 0.948 . S
H86 C84 0.952 1_565 S
H87 C85 0.948 . S
H88 C77 0.952 1_545 S
H89 C79 0.948 . S
C90 C56 1.395 . S
C90 C60 1.391 . S
C91 C53 1.389 . S
C91 C73 1.392 . S
C92 C63 1.392 . S
C92 C65 1.389 . S
C93 C68 1.395 . S
C93 C70 1.391 . S
H94 C54 0.951 . S
H95 C55 0.950 . S
H96 C61 0.949 . S
H97 C62 0.950 . S
H98 C66 0.951 . S
H99 C67 0.950 . S
H100 C71 0.949 . S
H101 C72 0.950 . S
H102 C76 0.950 . S
H103 C78 0.950 . S
H104 C81 0.950 . S
H105 C83 0.950 . S
C106 C107 1.443 . S
C106 N110 1.376 . S
C106 C144 1.389 . S
C107 C106 1.443 . S
C107 C108 1.340 . S
C107 H147 0.951 . S
C108 C107 1.340 . S
C108 C109 1.439 . S
C108 H148 0.950 . S
C109 C108 1.439 . S
C109 N110 1.374 . S
C109 C143 1.395 . S
N110 C106 1.376 . S
N110 C109 1.374 . S
N110 Co111 1.996 1_556 S
Co111 N110 1.996 1_554 S
Co111 N112 1.992 1_554 S
Co111 N117 2.021 . S
Co111 N122 1.997 . S
Co111 N127 2.289 . S
Co111 N133 2.276 1_554 S
N112 Co111 1.992 1_556 S
N112 C113 1.376 . S
N112 C116 1.383 1_556 S
C113 N112 1.376 . S
C113 C114 1.446 . S
C113 C143 1.391 . S
C114 C113 1.446 . S
C114 C115 1.339 . S
C114 H149 0.949 . S
C115 C114 1.339 . S
C115 C116 1.439 1_556 S
C115 H150 0.950 1_556 S
C116 N112 1.383 1_554 S
C116 C115 1.439 1_554 S
C116 C145 1.392 . S
N117 Co111 2.021 . S
N117 C118 1.376 . S
N117 C121 1.374 . S
C118 N117 1.376 . S
C118 C119 1.443 . S
C118 C145 1.389 . S
C119 C118 1.443 . S
C119 C120 1.340 . S
C119 H151 0.951 . S
C120 C119 1.340 . S
C120 C121 1.439 . S
C120 H152 0.950 . S
C121 N117 1.374 . S
C121 C120 1.439 . S
C121 C146 1.395 . S
N122 Co111 1.997 . S
N122 C123 1.376 . S
N122 C126 1.383 1_554 S
C123 N122 1.376 . S
C123 C124 1.446 . S
C123 C146 1.391 . S
C124 C123 1.446 . S
C124 C125 1.339 . S
C124 H153 0.949 . S
C125 C124 1.339 . S
C125 C126 1.439 1_554 S
C125 H154 0.950 1_554 S
C126 N122 1.383 1_556 S
C126 C125 1.439 1_556 S
C126 C144 1.392 . S
N127 Co111 2.289 . S
N127 C130 1.332 . S
N127 C132 1.332 . S
C128 C129 1.386 . S
C128 C131 1.388 . S
C129 C128 1.386 . S
C129 C130 1.382 . S
C129 H155 0.950 . S
C130 N127 1.332 . S
C130 C129 1.382 . S
C130 H141 0.952 . S
C131 C128 1.388 . S
C131 C132 1.382 . S
C131 H156 0.950 . S
C132 N127 1.332 . S
C132 C131 1.382 . S
C132 H142 0.948 . S
N133 Co111 2.276 1_556 S
N133 C137 1.332 . S
N133 C138 1.332 . S
C134 C135 1.388 . S
C134 C138 1.382 . S
C134 H157 0.950 . S
C135 C134 1.388 . S
C135 C136 1.386 . S
C136 C135 1.386 . S
C136 C137 1.382 . S
C136 H158 0.950 . S
C137 N133 1.332 . S
C137 C136 1.382 . S
C137 H139 0.952 . S
C138 N133 1.332 . S
C138 C134 1.382 . S
C138 H140 0.948 . S
H139 C137 0.952 . S
H140 C138 0.948 . S
H141 C130 0.952 . S
H142 C132 0.948 . S
C143 C109 1.395 . S
C143 C113 1.391 . S
C144 C106 1.389 . S
C144 C126 1.392 . S
C145 C116 1.392 . S
C145 C118 1.389 . S
C146 C121 1.395 . S
C146 C123 1.391 . S
H147 C107 0.951 . S
H148 C108 0.950 . S
H149 C114 0.949 . S
H150 C115 0.950 1_554 S
H151 C119 0.951 . S
H152 C120 0.950 . S
H153 C124 0.949 . S
H154 C125 0.950 1_556 S
H155 C129 0.950 . S
H156 C131 0.950 . S
H157 C134 0.950 . S
H158 C136 0.950 . S
C159 C160 1.443 . S
C159 N163 1.376 . S
C159 C197 1.389 . S
C160 C159 1.443 . S
C160 C161 1.340 . S
C160 H200 0.951 . S
C161 C160 1.340 . S
C161 C162 1.439 . S
C161 H201 0.950 . S
C162 C161 1.439 . S
C162 N163 1.374 . S
C162 C196 1.395 . S
N163 C159 1.376 . S
N163 C162 1.374 . S
N163 Co164 1.984 1_655 S
Co164 N163 1.984 1_455 S
Co164 N165 1.979 1_455 S
Co164 N170 2.033 . S
Co164 N175 2.011 . S
Co164 N180 2.313 . S
Co164 N186 2.252 1_455 S
N165 Co164 1.979 1_655 S
N165 C166 1.376 . S
N165 C169 1.383 1_655 S
C166 N165 1.376 . S
C166 C167 1.446 . S
C166 C196 1.391 . S
C167 C166 1.446 . S
C167 C168 1.339 1_655 S
C167 H202 0.949 . S
C168 C167 1.339 1_455 S
C168 C169 1.439 . S
C168 H203 0.950 . S
C169 N165 1.383 1_455 S
C169 C168 1.439 . S
C169 C198 1.392 . S
N170 Co164 2.033 . S
N170 C171 1.376 . S
N170 C174 1.374 . S
C171 N170 1.376 . S
C171 C172 1.443 . S
C171 C198 1.389 . S
C172 C171 1.443 . S
C172 C173 1.340 . S
C172 H204 0.951 . S
C173 C172 1.340 . S
C173 C174 1.439 . S
C173 H205 0.950 . S
C174 N170 1.374 . S
C174 C173 1.439 . S
C174 C199 1.395 . S
N175 Co164 2.011 . S
N175 C176 1.376 . S
N175 C179 1.383 1_455 S
C176 N175 1.376 . S
C176 C177 1.446 . S
C176 C199 1.391 . S
C177 C176 1.446 . S
C177 C178 1.333 1_455 S
C177 H206 0.949 . S
C178 C177 1.333 1_655 S
C178 C179 1.443 . S
C178 H207 0.951 . S
C179 N175 1.383 1_655 S
C179 C178 1.443 . S
C179 C197 1.392 . S
N180 Co164 2.313 . S
N180 C183 1.332 . S
N180 C185 1.332 . S
C181 C182 1.386 . S
C181 C184 1.388 . S
C182 C181 1.386 . S
C182 C183 1.382 . S
C182 H208 0.950 . S
C183 N180 1.332 . S
C183 C182 1.382 . S
C183 H194 0.952 . S
C184 C181 1.388 . S
C184 C185 1.382 . S
C184 H209 0.950 . S
C185 N180 1.332 . S
C185 C184 1.382 . S
C185 H195 0.919 1_455 S
N186 Co164 2.252 1_655 S
N186 C190 1.332 . S
N186 C191 1.332 . S
C187 C188 1.388 . S
C187 C191 1.382 . S
C187 H210 0.950 . S
C188 C187 1.388 . S
C188 C189 1.386 . S
C189 C188 1.386 . S
C189 C190 1.382 . S
C189 H211 0.950 . S
C190 N186 1.332 . S
C190 C189 1.382 . S
C190 H192 0.952 . S
C191 N186 1.332 . S
C191 C187 1.382 . S
C191 H193 0.948 1_655 S
H192 C190 0.952 . S
H193 C191 0.948 1_455 S
H194 C183 0.952 . S
H195 C185 0.919 1_655 S
C196 C162 1.395 . S
C196 C166 1.391 . S
C197 C159 1.389 . S
C197 C179 1.392 . S
C198 C169 1.392 . S
C198 C171 1.389 . S
C199 C174 1.395 . S
C199 C176 1.391 . S
H200 C160 0.951 . S
H201 C161 0.950 . S
H202 C167 0.949 . S
H203 C168 0.950 . S
H204 C172 0.951 . S
H205 C173 0.950 . S
H206 C177 0.949 . S
H207 C178 0.951 . S
H208 C182 0.950 . S
H209 C184 0.950 . S
H210 C187 0.950 . S
H211 C189 0.950 . S
C212 C213 1.443 . S
C212 N216 1.376 1_565 S
C212 C250 1.389 . S
C213 C212 1.443 . S
C213 C214 1.340 1_565 S
C213 H253 0.951 . S
C214 C213 1.340 1_545 S
C214 C215 1.439 . S
C214 H254 0.950 . S
C215 C214 1.439 . S
C215 N216 1.374 . S
C215 C249 1.395 . S
N216 C212 1.376 1_545 S
N216 C215 1.374 . S
N216 Co217 2.028 . S
Co217 N216 2.028 . S
Co217 N218 2.006 . S
Co217 N223 1.989 1_544 S
Co217 N228 1.984 1_544 S
Co217 N233 2.294 1_554 S
Co217 N239 2.271 1_545 S
N218 Co217 2.006 . S
N218 C219 1.376 . S
N218 C222 1.383 1_554 S
C219 N218 1.376 . S
C219 C220 1.446 . S
C219 C249 1.391 . S
C220 C219 1.446 . S
C220 C221 1.339 1_554 S
C220 H255 0.949 . S
C221 C220 1.339 1_556 S
C221 C222 1.439 . S
C221 H256 0.950 . S
C222 N218 1.383 1_556 S
C222 C221 1.439 . S
C222 C251 1.392 . S
N223 Co217 1.989 1_566 S
N223 C224 1.376 1_565 S
N223 C227 1.374 . S
C224 N223 1.376 1_545 S
C224 C225 1.443 . S
C224 C251 1.389 . S
C225 C224 1.443 . S
C225 C226 1.340 1_545 S
C225 H257 0.951 . S
C226 C225 1.340 1_565 S
C226 C227 1.439 . S
C226 H258 0.950 . S
C227 N223 1.374 . S
C227 C226 1.439 . S
C227 C252 1.395 . S
N228 Co217 1.984 1_566 S
N228 C229 1.376 . S
N228 C232 1.383 1_556 S
C229 N228 1.376 . S
C229 C230 1.446 . S
C229 C252 1.391 . S
C230 C229 1.446 . S
C230 C231 1.339 1_556 S
C230 H259 0.949 . S
C231 C230 1.339 1_554 S
C231 C232 1.439 . S
C231 H260 0.950 . S
C232 N228 1.383 1_554 S
C232 C231 1.439 . S
C232 C250 1.392 . S
N233 Co217 2.294 1_556 S
N233 C236 1.332 . S
N233 C238 1.332 . S
C234 C235 1.386 . S
C234 C237 1.388 . S
C235 C234 1.386 . S
C235 C236 1.382 . S
C235 H261 0.950 . S
C236 N233 1.332 . S
C236 C235 1.382 . S
C236 H247 0.952 1_545 S
C237 C234 1.388 . S
C237 C238 1.382 . S
C237 H262 0.950 . S
C238 N233 1.332 . S
C238 C237 1.382 . S
C238 H248 0.948 . S
N239 Co217 2.271 1_565 S
N239 C243 1.332 . S
N239 C244 1.332 . S
C240 C241 1.388 . S
C240 C244 1.382 . S
C240 H263 0.950 . S
C241 C240 1.388 . S
C241 C242 1.386 . S
C242 C241 1.386 . S
C242 C243 1.382 . S
C242 H264 0.950 . S
C243 N239 1.332 . S
C243 C242 1.382 . S
C243 H245 0.952 1_565 S
C244 N239 1.332 . S
C244 C240 1.382 . S
C244 H246 0.948 . S
H245 C243 0.952 1_545 S
H246 C244 0.948 . S
H247 C236 0.952 1_565 S
H248 C238 0.948 . S
C249 C215 1.395 . S
C249 C219 1.391 . S
C250 C212 1.389 . S
C250 C232 1.392 . S
C251 C222 1.392 . S
C251 C224 1.389 . S
C252 C227 1.395 . S
C252 C229 1.391 . S
H253 C213 0.951 . S
H254 C214 0.950 . S
H255 C220 0.949 . S
H256 C221 0.950 . S
H257 C225 0.951 . S
H258 C226 0.950 . S
H259 C230 0.949 . S
H260 C231 0.950 . S
H261 C235 0.950 . S
H262 C237 0.950 . S
H263 C240 0.950 . S
H264 C242 0.950 . S
C265 C266 1.443 . S
C265 N269 1.376 . S
C265 C303 1.389 . S
C266 C265 1.443 . S
C266 C267 1.340 . S
C266 H306 0.951 . S
C267 C266 1.340 . S
C267 C268 1.439 . S
C267 H307 0.950 . S
C268 C267 1.439 . S
C268 N269 1.374 . S
C268 C302 1.395 . S
N269 C265 1.376 . S
N269 C268 1.374 . S
N269 Co270 2.008 . S
Co270 N269 2.008 . S
Co270 N271 1.995 . S
Co270 N276 2.008 . S
Co270 N281 1.995 . S
Co270 N286 2.282 . S
Co270 N292 2.282 . S
N271 Co270 1.995 . S
N271 C272 1.376 . S
N271 C275 1.383 . S
C272 N271 1.376 . S
C272 C273 1.446 . S
C272 C302 1.391 . S
C273 C272 1.446 . S
C273 C274 1.339 . S
C273 H308 0.949 . S
C274 C273 1.339 . S
C274 C275 1.439 . S
C274 H309 0.950 . S
C275 N271 1.383 . S
C275 C274 1.439 . S
C275 C304 1.392 . S
N276 Co270 2.008 . S
N276 C277 1.376 . S
N276 C280 1.374 . S
C277 N276 1.376 . S
C277 C278 1.443 . S
C277 C304 1.389 . S
C278 C277 1.443 . S
C278 C279 1.340 . S
C278 H310 0.951 . S
C279 C278 1.340 . S
C279 C280 1.439 . S
C279 H311 0.950 . S
C280 N276 1.374 . S
C280 C279 1.439 . S
C280 C305 1.395 . S
N281 Co270 1.995 . S
N281 C282 1.376 . S
N281 C285 1.383 . S
C282 N281 1.376 . S
C282 C283 1.446 . S
C282 C305 1.391 . S
C283 C282 1.446 . S
C283 C284 1.339 . S
C283 H312 0.949 . S
C284 C283 1.339 . S
C284 C285 1.439 . S
C284 H313 0.950 . S
C285 N281 1.383 . S
C285 C284 1.439 . S
C285 C303 1.392 . S
N286 Co270 2.282 . S
N286 C289 1.332 . S
N286 C291 1.332 . S
C287 C288 1.386 . S
C287 C290 1.388 . S
C288 C287 1.386 . S
C288 C289 1.382 . S
C288 H314 0.950 . S
C289 N286 1.332 . S
C289 C288 1.382 . S
C289 H300 0.952 . S
C290 C287 1.388 . S
C290 C291 1.382 . S
C290 H315 0.950 . S
C291 N286 1.332 . S
C291 C290 1.382 . S
C291 H301 0.948 . S
N292 Co270 2.282 . S
N292 C296 1.332 . S
N292 C297 1.332 . S
C293 C294 1.388 . S
C293 C297 1.382 . S
C293 H316 0.950 . S
C294 C293 1.388 . S
C294 C295 1.386 . S
C295 C294 1.386 . S
C295 C296 1.382 . S
C295 H317 0.950 . S
C296 N292 1.332 . S
C296 C295 1.382 . S
C296 H298 0.952 . S
C297 N292 1.332 . S
C297 C293 1.382 . S
C297 H299 0.948 . S
H298 C296 0.952 . S
H299 C297 0.948 . S
H300 C289 0.952 . S
H301 C291 0.948 . S
C302 C268 1.395 . S
C302 C272 1.391 . S
C303 C265 1.389 . S
C303 C285 1.392 . S
C304 C275 1.392 . S
C304 C277 1.389 . S
C305 C280 1.395 . S
C305 C282 1.391 . S
H306 C266 0.951 . S
H307 C267 0.950 . S
H308 C273 0.949 . S
H309 C274 0.950 . S
H310 C278 0.951 . S
H311 C279 0.950 . S
H312 C283 0.949 . S
H313 C284 0.950 . S
H314 C288 0.950 . S
H315 C290 0.950 . S
H316 C293 0.950 . S
H317 C295 0.950 . S
C318 C319 1.443 . S
C318 N322 1.376 . S
C318 C356 1.389 . S
C319 C318 1.443 . S
C319 C320 1.340 . S
C319 H359 0.951 . S
C320 C319 1.340 . S
C320 C321 1.439 . S
C320 H360 0.950 . S
C321 C320 1.439 . S
C321 N322 1.374 . S
C321 C355 1.395 . S
N322 C318 1.376 . S
N322 C321 1.374 . S
N322 Co323 2.008 . S
Co323 N322 2.008 . S
Co323 N324 1.995 . S
Co323 N329 2.008 . S
Co323 N334 1.995 . S
Co323 N339 2.282 . S
Co323 N345 2.282 . S
N324 Co323 1.995 . S
N324 C325 1.376 . S
N324 C328 1.383 . S
C325 N324 1.376 . S
C325 C326 1.446 . S
C325 C355 1.391 . S
C326 C325 1.446 . S
C326 C327 1.339 . S
C326 H361 0.949 . S
C327 C326 1.339 . S
C327 C328 1.439 . S
C327 H362 0.950 . S
C328 N324 1.383 . S
C328 C327 1.439 . S
C328 C357 1.392 . S
N329 Co323 2.008 . S
N329 C330 1.376 . S
N329 C333 1.374 . S
C330 N329 1.376 . S
C330 C331 1.443 . S
C330 C357 1.389 . S
C331 C330 1.443 . S
C331 C332 1.340 . S
C331 H363 0.951 . S
C332 C331 1.340 . S
C332 C333 1.439 . S
C332 H364 0.950 . S
C333 N329 1.374 . S
C333 C332 1.439 . S
C333 C358 1.395 . S
N334 Co323 1.995 . S
N334 C335 1.376 . S
N334 C338 1.383 . S
C335 N334 1.376 . S
C335 C336 1.446 . S
C335 C358 1.391 . S
C336 C335 1.446 . S
C336 C337 1.339 . S
C336 H365 0.949 . S
C337 C336 1.339 . S
C337 C338 1.439 . S
C337 H366 0.950 . S
C338 N334 1.383 . S
C338 C337 1.439 . S
C338 C356 1.392 . S
N339 Co323 2.282 . S
N339 C342 1.332 . S
N339 C344 1.332 . S
C340 C341 1.386 . S
C340 C343 1.388 . S
C341 C340 1.386 . S
C341 C342 1.382 . S
C341 H367 0.950 . S
C342 N339 1.332 . S
C342 C341 1.382 . S
C342 H353 0.952 . S
C343 C340 1.388 . S
C343 C344 1.382 . S
C343 H368 0.950 . S
C344 N339 1.332 . S
C344 C343 1.382 . S
C344 H354 0.948 . S
N345 Co323 2.282 . S
N345 C349 1.332 . S
N345 C350 1.332 . S
C346 C347 1.388 . S
C346 C350 1.382 . S
C346 H369 0.950 . S
C347 C346 1.388 . S
C347 C348 1.386 . S
C348 C347 1.386 . S
C348 C349 1.382 . S
C348 H370 0.950 . S
C349 N345 1.332 . S
C349 C348 1.382 . S
C349 H351 0.952 . S
C350 N345 1.332 . S
C350 C346 1.382 . S
C350 H352 0.948 . S
H351 C349 0.952 . S
H352 C350 0.948 . S
H353 C342 0.952 . S
H354 C344 0.948 . S
C355 C321 1.395 . S
C355 C325 1.391 . S
C356 C318 1.389 . S
C356 C338 1.392 . S
C357 C328 1.392 . S
C357 C330 1.389 . S
C358 C333 1.395 . S
C358 C335 1.391 . S
H359 C319 0.951 . S
H360 C320 0.950 . S
H361 C326 0.949 . S
H362 C327 0.950 . S
H363 C331 0.951 . S
H364 C332 0.950 . S
H365 C336 0.949 . S
H366 C337 0.950 . S
H367 C341 0.950 . S
H368 C343 0.950 . S
H369 C346 0.950 . S
H370 C348 0.950 . S
C371 C372 1.443 . S
C371 N375 1.376 . S
C371 C409 1.389 . S
C372 C371 1.443 . S
C372 C373 1.340 . S
C372 H412 0.951 . S
C373 C372 1.340 . S
C373 C374 1.439 . S
C373 H413 0.950 . S
C374 C373 1.439 . S
C374 N375 1.374 . S
C374 C408 1.395 . S
N375 C371 1.376 . S
N375 C374 1.374 . S
N375 Co376 2.008 . S
Co376 N375 2.008 . S
Co376 N377 1.995 . S
Co376 N382 2.008 . S
Co376 N387 1.995 . S
Co376 N392 2.282 . S
Co376 N398 2.282 . S
N377 Co376 1.995 . S
N377 C378 1.376 . S
N377 C381 1.383 . S
C378 N377 1.376 . S
C378 C379 1.446 . S
C378 C408 1.391 . S
C379 C378 1.446 . S
C379 C380 1.339 . S
C379 H414 0.949 . S
C380 C379 1.339 . S
C380 C381 1.439 . S
C380 H415 0.950 . S
C381 N377 1.383 . S
C381 C380 1.439 . S
C381 C410 1.392 . S
N382 Co376 2.008 . S
N382 C383 1.376 . S
N382 C386 1.374 . S
C383 N382 1.376 . S
C383 C384 1.443 . S
C383 C410 1.389 . S
C384 C383 1.443 . S
C384 C385 1.340 . S
C384 H416 0.951 . S
C385 C384 1.340 . S
C385 C386 1.439 . S
C385 H417 0.950 . S
C386 N382 1.374 . S
C386 C385 1.439 . S
C386 C411 1.395 . S
N387 Co376 1.995 . S
N387 C388 1.376 . S
N387 C391 1.383 . S
C388 N387 1.376 . S
C388 C389 1.446 . S
C388 C411 1.391 . S
C389 C388 1.446 . S
C389 C390 1.339 . S
C389 H418 0.949 . S
C390 C389 1.339 . S
C390 C391 1.439 . S
C390 H419 0.950 . S
C391 N387 1.383 . S
C391 C390 1.439 . S
C391 C409 1.392 . S
N392 Co376 2.282 . S
N392 C395 1.332 . S
N392 C397 1.332 . S
C393 C394 1.386 . S
C393 C396 1.388 . S
C394 C393 1.386 . S
C394 C395 1.382 . S
C394 H420 0.950 . S
C395 N392 1.332 . S
C395 C394 1.382 . S
C395 H406 0.952 . S
C396 C393 1.388 . S
C396 C397 1.382 . S
C396 H421 0.950 . S
C397 N392 1.332 . S
C397 C396 1.382 . S
C397 H407 0.948 . S
N398 Co376 2.282 . S
N398 C402 1.332 . S
N398 C403 1.332 . S
C399 C400 1.388 . S
C399 C403 1.382 . S
C399 H422 0.950 . S
C400 C399 1.388 . S
C400 C401 1.386 . S
C401 C400 1.386 . S
C401 C402 1.382 . S
C401 H423 0.950 . S
C402 N398 1.332 . S
C402 C401 1.382 . S
C402 H404 0.952 . S
C403 N398 1.332 . S
C403 C399 1.382 . S
C403 H405 0.948 . S
H404 C402 0.952 . S
H405 C403 0.948 . S
H406 C395 0.952 . S
H407 C397 0.948 . S
C408 C374 1.395 . S
C408 C378 1.391 . S
C409 C371 1.389 . S
C409 C391 1.392 . S
C410 C381 1.392 . S
C410 C383 1.389 . S
C411 C386 1.395 . S
C411 C388 1.391 . S
H412 C372 0.951 . S
H413 C373 0.950 . S
H414 C379 0.949 . S
H415 C380 0.950 . S
H416 C384 0.951 . S
H417 C385 0.950 . S
H418 C389 0.949 . S
H419 C390 0.950 . S
H420 C394 0.950 . S
H421 C396 0.950 . S
H422 C399 0.950 . S
H423 C401 0.950 . S
C424 C425 1.443 . S
C424 N428 1.376 . S
C424 C462 1.389 . S
C425 C424 1.443 . S
C425 C426 1.340 . S
C425 H465 0.951 . S
C426 C425 1.340 . S
C426 C427 1.439 . S
C426 H466 0.950 . S
C427 C426 1.439 . S
C427 N428 1.374 . S
C427 C461 1.395 . S
N428 C424 1.376 . S
N428 C427 1.374 . S
N428 Co429 2.008 . S
Co429 N428 2.008 . S
Co429 N430 1.995 . S
Co429 N435 2.008 . S
Co429 N440 1.995 . S
Co429 N445 2.282 . S
Co429 N451 2.282 . S
N430 Co429 1.995 . S
N430 C431 1.376 . S
N430 C434 1.383 . S
C431 N430 1.376 . S
C431 C432 1.446 . S
C431 C461 1.391 . S
C432 C431 1.446 . S
C432 C433 1.339 . S
C432 H467 0.949 . S
C433 C432 1.339 . S
C433 C434 1.439 . S
C433 H468 0.950 . S
C434 N430 1.383 . S
C434 C433 1.439 . S
C434 C463 1.392 . S
N435 Co429 2.008 . S
N435 C436 1.376 . S
N435 C439 1.374 . S
C436 N435 1.376 . S
C436 C437 1.443 . S
C436 C463 1.389 . S
C437 C436 1.443 . S
C437 C438 1.340 . S
C437 H469 0.951 . S
C438 C437 1.340 . S
C438 C439 1.439 . S
C438 H470 0.950 . S
C439 N435 1.374 . S
C439 C438 1.439 . S
C439 C464 1.395 . S
N440 Co429 1.995 . S
N440 C441 1.376 . S
N440 C444 1.383 . S
C441 N440 1.376 . S
C441 C442 1.446 . S
C441 C464 1.391 . S
C442 C441 1.446 . S
C442 C443 1.339 . S
C442 H471 0.949 . S
C443 C442 1.339 . S
C443 C444 1.439 . S
C443 H472 0.950 . S
C444 N440 1.383 . S
C444 C443 1.439 . S
C444 C462 1.392 . S
N445 Co429 2.282 . S
N445 C448 1.332 . S
N445 C450 1.332 . S
C446 C447 1.386 . S
C446 C449 1.388 . S
C447 C446 1.386 . S
C447 C448 1.382 . S
C447 H473 0.950 . S
C448 N445 1.332 . S
C448 C447 1.382 . S
C448 H459 0.952 . S
C449 C446 1.388 . S
C449 C450 1.382 . S
C449 H474 0.950 . S
C450 N445 1.332 . S
C450 C449 1.382 . S
C450 H460 0.948 . S
N451 Co429 2.282 . S
N451 C455 1.332 . S
N451 C456 1.332 . S
C452 C453 1.388 . S
C452 C456 1.382 . S
C452 H475 0.950 . S
C453 C452 1.388 . S
C453 C454 1.386 . S
C454 C453 1.386 . S
C454 C455 1.382 . S
C454 H476 0.950 . S
C455 N451 1.332 . S
C455 C454 1.382 . S
C455 H457 0.952 . S
C456 N451 1.332 . S
C456 C452 1.382 . S
C456 H458 0.948 . S
H457 C455 0.952 . S
H458 C456 0.948 . S
H459 C448 0.952 . S
H460 C450 0.948 . S
C461 C427 1.395 . S
C461 C431 1.391 . S
C462 C424 1.389 . S
C462 C444 1.392 . S
C463 C434 1.392 . S
C463 C436 1.389 . S
C464 C439 1.395 . S
C464 C441 1.391 . S
H465 C425 0.951 . S
H466 C426 0.950 . S
H467 C432 0.949 . S
H468 C433 0.950 . S
H469 C437 0.951 . S
H470 C438 0.950 . S
H471 C442 0.949 . S
H472 C443 0.950 . S
H473 C447 0.950 . S
H474 C449 0.950 . S
H475 C452 0.950 . S
H476 C454 0.950 . S
C477 C478 1.443 . S
C477 N481 1.376 . S
C477 C515 1.389 . S
C478 C477 1.443 . S
C478 C479 1.340 . S
C478 H518 0.951 . S
C479 C478 1.340 . S
C479 C480 1.439 . S
C479 H519 0.950 . S
C480 C479 1.439 . S
C480 N481 1.374 . S
C480 C514 1.395 . S
N481 C477 1.376 . S
N481 C480 1.374 . S
N481 Co482 2.008 . S
Co482 N481 2.008 . S
Co482 N483 1.995 . S
Co482 N488 2.008 . S
Co482 N493 1.995 . S
Co482 N498 2.282 . S
Co482 N504 2.282 . S
N483 Co482 1.995 . S
N483 C484 1.376 . S
N483 C487 1.383 . S
C484 N483 1.376 . S
C484 C485 1.446 . S
C484 C514 1.391 . S
C485 C484 1.446 . S
C485 C486 1.339 . S
C485 H520 0.949 . S
C486 C485 1.339 . S
C486 C487 1.439 . S
C486 H521 0.950 . S
C487 N483 1.383 . S
C487 C486 1.439 . S
C487 C516 1.392 . S
N488 Co482 2.008 . S
N488 C489 1.376 . S
N488 C492 1.374 . S
C489 N488 1.376 . S
C489 C490 1.443 . S
C489 C516 1.389 . S
C490 C489 1.443 . S
C490 C491 1.340 . S
C490 H522 0.951 . S
C491 C490 1.340 . S
C491 C492 1.439 . S
C491 H523 0.950 . S
C492 N488 1.374 . S
C492 C491 1.439 . S
C492 C517 1.395 . S
N493 Co482 1.995 . S
N493 C494 1.376 . S
N493 C497 1.383 . S
C494 N493 1.376 . S
C494 C495 1.446 . S
C494 C517 1.391 . S
C495 C494 1.446 . S
C495 C496 1.339 . S
C495 H524 0.949 . S
C496 C495 1.339 . S
C496 C497 1.439 . S
C496 H525 0.950 . S
C497 N493 1.383 . S
C497 C496 1.439 . S
C497 C515 1.392 . S
N498 Co482 2.282 . S
N498 C501 1.332 . S
N498 C503 1.332 . S
C499 C500 1.386 . S
C499 C502 1.388 . S
C500 C499 1.386 . S
C500 C501 1.382 . S
C500 H526 0.950 . S
C501 N498 1.332 . S
C501 C500 1.382 . S
C501 H512 0.952 . S
C502 C499 1.388 . S
C502 C503 1.382 . S
C502 H527 0.950 . S
C503 N498 1.332 . S
C503 C502 1.382 . S
C503 H513 0.948 . S
N504 Co482 2.282 . S
N504 C508 1.332 . S
N504 C509 1.332 . S
C505 C506 1.388 . S
C505 C509 1.382 . S
C505 H528 0.950 . S
C506 C505 1.388 . S
C506 C507 1.386 . S
C507 C506 1.386 . S
C507 C508 1.382 . S
C507 H529 0.950 . S
C508 N504 1.332 . S
C508 C507 1.382 . S
C508 H510 0.952 . S
C509 N504 1.332 . S
C509 C505 1.382 . S
C509 H511 0.948 . S
H510 C508 0.952 . S
H511 C509 0.948 . S
H512 C501 0.952 . S
H513 C503 0.948 . S
C514 C480 1.395 . S
C514 C484 1.391 . S
C515 C477 1.389 . S
C515 C497 1.392 . S
C516 C487 1.392 . S
C516 C489 1.389 . S
C517 C492 1.395 . S
C517 C494 1.391 . S
H518 C478 0.951 . S
H519 C479 0.950 . S
H520 C485 0.949 . S
H521 C486 0.950 . S
H522 C490 0.951 . S
H523 C491 0.950 . S
H524 C495 0.949 . S
H525 C496 0.950 . S
H526 C500 0.950 . S
H527 C502 0.950 . S
H528 C505 0.950 . S
H529 C507 0.950 . S
C530 C531 1.443 . S
C530 N534 1.376 . S
C530 C568 1.389 . S
C531 C530 1.443 . S
C531 C532 1.340 . S
C531 H571 0.951 . S
C532 C531 1.340 . S
C532 C533 1.439 . S
C532 H572 0.950 . S
C533 C532 1.439 . S
C533 N534 1.374 . S
C533 C567 1.395 . S
N534 C530 1.376 . S
N534 C533 1.374 . S
N534 Co535 2.008 . S
Co535 N534 2.008 . S
Co535 N536 1.995 . S
Co535 N541 2.008 . S
Co535 N546 1.995 . S
Co535 N551 2.282 . S
Co535 N557 2.282 . S
N536 Co535 1.995 . S
N536 C537 1.376 . S
N536 C540 1.383 . S
C537 N536 1.376 . S
C537 C538 1.446 . S
C537 C567 1.391 . S
C538 C537 1.446 . S
C538 C539 1.339 . S
C538 H573 0.949 . S
C539 C538 1.339 . S
C539 C540 1.439 . S
C539 H574 0.950 . S
C540 N536 1.383 . S
C540 C539 1.439 . S
C540 C569 1.392 . S
N541 Co535 2.008 . S
N541 C542 1.376 . S
N541 C545 1.374 . S
C542 N541 1.376 . S
C542 C543 1.443 . S
C542 C569 1.389 . S
C543 C542 1.443 . S
C543 C544 1.340 . S
C543 H575 0.951 . S
C544 C543 1.340 . S
C544 C545 1.439 . S
C544 H576 0.950 . S
C545 N541 1.374 . S
C545 C544 1.439 . S
C545 C570 1.395 . S
N546 Co535 1.995 . S
N546 C547 1.376 . S
N546 C550 1.383 . S
C547 N546 1.376 . S
C547 C548 1.446 . S
C547 C570 1.391 . S
C548 C547 1.446 . S
C548 C549 1.339 . S
C548 H577 0.949 . S
C549 C548 1.339 . S
C549 C550 1.439 . S
C549 H578 0.950 . S
C550 N546 1.383 . S
C550 C549 1.439 . S
C550 C568 1.392 . S
N551 Co535 2.282 . S
N551 C554 1.332 . S
N551 C556 1.332 . S
C552 C553 1.386 . S
C552 C555 1.388 . S
C553 C552 1.386 . S
C553 C554 1.382 . S
C553 H579 0.950 . S
C554 N551 1.332 . S
C554 C553 1.382 . S
C554 H565 0.952 . S
C555 C552 1.388 . S
C555 C556 1.382 . S
C555 H580 0.950 . S
C556 N551 1.332 . S
C556 C555 1.382 . S
C556 H566 0.948 . S
N557 Co535 2.282 . S
N557 C561 1.332 . S
N557 C562 1.332 . S
C558 C559 1.388 . S
C558 C562 1.382 . S
C558 H581 0.950 . S
C559 C558 1.388 . S
C559 C560 1.386 . S
C560 C559 1.386 . S
C560 C561 1.382 . S
C560 H582 0.950 . S
C561 N557 1.332 . S
C561 C560 1.382 . S
C561 H563 0.952 . S
C562 N557 1.332 . S
C562 C558 1.382 . S
C562 H564 0.948 . S
H563 C561 0.952 . S
H564 C562 0.948 . S
H565 C554 0.952 . S
H566 C556 0.948 . S
C567 C533 1.395 . S
C567 C537 1.391 . S
C568 C530 1.389 . S
C568 C550 1.392 . S
C569 C540 1.392 . S
C569 C542 1.389 . S
C570 C545 1.395 . S
C570 C547 1.391 . S
H571 C531 0.951 . S
H572 C532 0.950 . S
H573 C538 0.949 . S
H574 C539 0.950 . S
H575 C543 0.951 . S
H576 C544 0.950 . S
H577 C548 0.949 . S
H578 C549 0.950 . S
H579 C553 0.950 . S
H580 C555 0.950 . S
H581 C558 0.950 . S
H582 C560 0.950 . S
C583 C584 1.443 . S
C583 N587 1.376 . S
C583 C621 1.389 . S
C584 C583 1.443 . S
C584 C585 1.340 . S
C584 H624 0.951 . S
C585 C584 1.340 . S
C585 C586 1.439 . S
C585 H625 0.950 . S
C586 C585 1.439 . S
C586 N587 1.374 . S
C586 C620 1.395 . S
N587 C583 1.376 . S
N587 C586 1.374 . S
N587 Co588 2.008 . S
Co588 N587 2.008 . S
Co588 N589 1.995 . S
Co588 N594 2.008 . S
Co588 N599 1.995 . S
Co588 N604 2.282 . S
Co588 N610 2.282 . S
N589 Co588 1.995 . S
N589 C590 1.376 . S
N589 C593 1.383 . S
C590 N589 1.376 . S
C590 C591 1.446 . S
C590 C620 1.391 . S
C591 C590 1.446 . S
C591 C592 1.339 . S
C591 H626 0.949 . S
C592 C591 1.339 . S
C592 C593 1.439 . S
C592 H627 0.950 . S
C593 N589 1.383 . S
C593 C592 1.439 . S
C593 C622 1.392 . S
N594 Co588 2.008 . S
N594 C595 1.376 . S
N594 C598 1.374 . S
C595 N594 1.376 . S
C595 C596 1.443 . S
C595 C622 1.389 . S
C596 C595 1.443 . S
C596 C597 1.340 . S
C596 H628 0.951 . S
C597 C596 1.340 . S
C597 C598 1.439 . S
C597 H629 0.950 . S
C598 N594 1.374 . S
C598 C597 1.439 . S
C598 C623 1.395 . S
N599 Co588 1.995 . S
N599 C600 1.376 . S
N599 C603 1.383 . S
C600 N599 1.376 . S
C600 C601 1.446 . S
C600 C623 1.391 . S
C601 C600 1.446 . S
C601 C602 1.339 . S
C601 H630 0.949 . S
C602 C601 1.339 . S
C602 C603 1.439 . S
C602 H631 0.950 . S
C603 N599 1.383 . S
C603 C602 1.439 . S
C603 C621 1.392 . S
N604 Co588 2.282 . S
N604 C607 1.332 . S
N604 C609 1.332 . S
C605 C606 1.386 . S
C605 C608 1.388 . S
C606 C605 1.386 . S
C606 C607 1.382 . S
C606 H632 0.950 . S
C607 N604 1.332 . S
C607 C606 1.382 . S
C607 H618 0.952 . S
C608 C605 1.388 . S
C608 C609 1.382 . S
C608 H633 0.950 . S
C609 N604 1.332 . S
C609 C608 1.382 . S
C609 H619 0.948 . S
N610 Co588 2.282 . S
N610 C614 1.332 . S
N610 C615 1.332 . S
C611 C612 1.388 . S
C611 C615 1.382 . S
C611 H634 0.950 . S
C612 C611 1.388 . S
C612 C613 1.386 . S
C613 C612 1.386 . S
C613 C614 1.382 . S
C613 H635 0.950 . S
C614 N610 1.332 . S
C614 C613 1.382 . S
C614 H616 0.952 . S
C615 N610 1.332 . S
C615 C611 1.382 . S
C615 H617 0.948 . S
H616 C614 0.952 . S
H617 C615 0.948 . S
H618 C607 0.952 . S
H619 C609 0.948 . S
C620 C586 1.395 . S
C620 C590 1.391 . S
C621 C583 1.389 . S
C621 C603 1.392 . S
C622 C593 1.392 . S
C622 C595 1.389 . S
C623 C598 1.395 . S
C623 C600 1.391 . S
H624 C584 0.951 . S
H625 C585 0.950 . S
H626 C591 0.949 . S
H627 C592 0.950 . S
H628 C596 0.951 . S
H629 C597 0.950 . S
H630 C601 0.949 . S
H631 C602 0.950 . S
H632 C606 0.950 . S
H633 C608 0.950 . S
H634 C611 0.950 . S
H635 C613 0.950 . S
H636 C642 0.930 . S
H637 C645 0.930 . S
H638 C646 0.930 . S
H639 C647 0.930 . S
H640 C650 0.930 . S
H641 C651 0.930 . S
C642 H636 0.930 . S
C642 C643 1.355 . S
C642 C644 1.415 . S
C643 C642 1.355 . S
C643 C645 1.419 . S
C644 C642 1.415 . S
C644 C649 1.425 . S
C644 C651 1.409 . S
C645 H637 0.930 . S
C645 C643 1.419 . S
C645 C646 1.362 . S
C646 H638 0.930 . S
C646 C645 1.362 . S
C646 C649 1.409 . S
C647 H639 0.930 . S
C647 C648 1.355 . S
C647 C649 1.415 . S
C648 C647 1.355 . S
C648 C650 1.419 . S
C649 C644 1.425 . S
C649 C646 1.409 . S
C649 C647 1.415 . S
C650 H640 0.930 . S
C650 C648 1.419 . S
C650 C651 1.362 . S
C651 H641 0.930 . S
C651 C644 1.409 . S
C651 C650 1.362 . S
H652 C658 0.930 . S
H653 C661 0.930 . S
H654 C662 0.930 . S
H655 C663 0.930 . S
H656 C666 0.930 . S
H657 C667 0.930 . S
C658 H652 0.930 . S
C658 C659 1.355 . S
C658 C660 1.415 . S
C659 C658 1.355 . S
C659 C661 1.419 . S
C660 C658 1.415 . S
C660 C665 1.425 . S
C660 C667 1.409 . S
C661 H653 0.930 . S
C661 C659 1.419 . S
C661 C662 1.362 . S
C662 H654 0.930 . S
C662 C661 1.362 . S
C662 C665 1.409 . S
C663 H655 0.930 . S
C663 C664 1.355 . S
C663 C665 1.415 . S
C664 C663 1.355 . S
C664 C666 1.419 . S
C665 C660 1.425 . S
C665 C662 1.409 . S
C665 C663 1.415 . S
C666 H656 0.930 . S
C666 C664 1.419 . S
C666 C667 1.362 . S
C667 H657 0.930 . S
C667 C660 1.409 . S
C667 C666 1.362 . S
H668 C674 0.930 . S
H669 C677 0.930 . S
H670 C678 0.930 . S
H671 C679 0.930 . S
H672 C682 0.930 . S
H673 C683 0.930 . S
C674 H668 0.930 . S
C674 C675 1.355 . S
C674 C676 1.415 . S
C675 C674 1.355 . S
C675 C677 1.419 . S
C676 C674 1.415 . S
C676 C681 1.425 . S
C676 C683 1.409 . S
C677 H669 0.930 . S
C677 C675 1.419 . S
C677 C678 1.362 . S
C678 H670 0.930 . S
C678 C677 1.362 . S
C678 C681 1.409 . S
C679 H671 0.930 . S
C679 C680 1.355 . S
C679 C681 1.415 . S
C680 C679 1.355 . S
C680 C682 1.419 . S
C681 C676 1.425 . S
C681 C678 1.409 . S
C681 C679 1.415 . S
C682 H672 0.930 . S
C682 C680 1.419 . S
C682 C683 1.362 . S
C683 H673 0.930 . S
C683 C676 1.409 . S
C683 C682 1.362 . S
H684 C690 0.930 . S
H685 C693 0.930 . S
H686 C694 0.930 . S
H687 C695 0.930 . S
H688 C698 0.930 . S
H689 C699 0.930 . S
C690 H684 0.930 . S
C690 C691 1.355 . S
C690 C692 1.415 . S
C691 C690 1.355 . S
C691 C693 1.419 . S
C692 C690 1.415 . S
C692 C697 1.425 . S
C692 C699 1.409 . S
C693 H685 0.930 . S
C693 C691 1.419 . S
C693 C694 1.362 . S
C694 H686 0.930 . S
C694 C693 1.362 . S
C694 C697 1.409 . S
C695 H687 0.930 . S
C695 C696 1.355 . S
C695 C697 1.415 . S
C696 C695 1.355 . S
C696 C698 1.419 . S
C697 C692 1.425 . S
C697 C694 1.409 . S
C697 C695 1.415 . S
C698 H688 0.930 . S
C698 C696 1.419 . S
C698 C699 1.362 . S
C699 H689 0.930 . S
C699 C692 1.409 . S
C699 C698 1.362 . S
H700 C706 0.930 . S
H701 C709 0.930 . S
H702 C710 0.930 . S
H703 C711 0.930 . S
H704 C714 0.930 . S
H705 C715 0.930 . S
C706 H700 0.930 . S
C706 C707 1.355 . S
C706 C708 1.415 . S
C707 C706 1.355 . S
C707 C709 1.419 . S
C708 C706 1.415 . S
C708 C713 1.425 . S
C708 C715 1.409 . S
C709 H701 0.930 . S
C709 C707 1.419 . S
C709 C710 1.362 . S
C710 H702 0.930 . S
C710 C709 1.362 . S
C710 C713 1.409 . S
C711 H703 0.930 . S
C711 C712 1.355 . S
C711 C713 1.415 . S
C712 C711 1.355 . S
C712 C714 1.419 . S
C713 C708 1.425 . S
C713 C710 1.409 . S
C713 C711 1.415 . S
C714 H704 0.930 . S
C714 C712 1.419 . S
C714 C715 1.362 . S
C715 H705 0.930 . S
C715 C708 1.409 . S
C715 C714 1.362 . S
H716 C722 0.930 . S
H717 C725 0.930 . S
H718 C726 0.930 . S
H719 C727 0.930 . S
H720 C730 0.930 . S
H721 C731 0.930 . S
C722 H716 0.930 . S
C722 C723 1.355 . S
C722 C724 1.415 . S
C723 C722 1.355 . S
C723 C725 1.419 . S
C724 C722 1.415 . S
C724 C729 1.425 . S
C724 C731 1.409 . S
C725 H717 0.930 . S
C725 C723 1.419 . S
C725 C726 1.362 . S
C726 H718 0.930 . S
C726 C725 1.362 . S
C726 C729 1.409 . S
C727 H719 0.930 . S
C727 C728 1.355 . S
C727 C729 1.415 . S
C728 C727 1.355 . S
C728 C730 1.419 . S
C729 C724 1.425 . S
C729 C726 1.409 . S
C729 C727 1.415 . S
C730 H720 0.930 . S
C730 C728 1.419 . S
C730 C731 1.362 . S
C731 H721 0.930 . S
C731 C724 1.409 . S
C731 C730 1.362 . S
H732 C738 0.930 . S
H733 C741 0.930 . S
H734 C742 0.930 . S
H735 C743 0.930 . S
H736 C746 0.930 . S
H737 C747 0.930 . S
C738 H732 0.930 . S
C738 C739 1.355 . S
C738 C740 1.415 . S
C739 C738 1.355 . S
C739 C741 1.419 . S
C740 C738 1.415 . S
C740 C745 1.425 . S
C740 C747 1.409 . S
C741 H733 0.930 . S
C741 C739 1.419 . S
C741 C742 1.362 . S
C742 H734 0.930 . S
C742 C741 1.362 . S
C742 C745 1.409 . S
C743 H735 0.930 . S
C743 C744 1.355 . S
C743 C745 1.415 . S
C744 C743 1.355 . S
C744 C746 1.419 . S
C745 C740 1.425 . S
C745 C742 1.409 . S
C745 C743 1.415 . S
C746 H736 0.930 . S
C746 C744 1.419 . S
C746 C747 1.362 . S
C747 H737 0.930 . S
C747 C740 1.409 . S
C747 C746 1.362 . S
H748 C754 0.930 . S
H749 C757 0.930 . S
H750 C758 0.930 . S
H751 C759 0.930 . S
H752 C762 0.930 . S
H753 C763 0.930 . S
C754 H748 0.930 . S
C754 C755 1.355 . S
C754 C756 1.415 . S
C755 C754 1.355 . S
C755 C757 1.419 . S
C756 C754 1.415 . S
C756 C761 1.425 . S
C756 C763 1.409 . S
C757 H749 0.930 . S
C757 C755 1.419 . S
C757 C758 1.362 . S
C758 H750 0.930 . S
C758 C757 1.362 . S
C758 C761 1.409 . S
C759 H751 0.930 . S
C759 C760 1.355 . S
C759 C761 1.415 . S
C760 C759 1.355 . S
C760 C762 1.419 . S
C761 C756 1.425 . S
C761 C758 1.409 . S
C761 C759 1.415 . S
C762 H752 0.930 . S
C762 C760 1.419 . S
C762 C763 1.362 . S
C763 H753 0.930 . S
C763 C756 1.409 . S
C763 C762 1.362 . S
H764 C770 0.930 . S
H765 C773 0.930 . S
H766 C774 0.930 . S
H767 C775 0.930 . S
H768 C778 0.930 . S
H769 C779 0.930 . S
C770 H764 0.930 . S
C770 C771 1.355 . S
C770 C772 1.415 . S
C771 C770 1.355 . S
C771 C773 1.419 . S
C772 C770 1.415 . S
C772 C777 1.425 . S
C772 C779 1.409 . S
C773 H765 0.930 . S
C773 C771 1.419 . S
C773 C774 1.362 . S
C774 H766 0.930 . S
C774 C773 1.362 . S
C774 C777 1.409 . S
C775 H767 0.930 . S
C775 C776 1.355 . S
C775 C777 1.415 . S
C776 C775 1.355 . S
C776 C778 1.419 . S
C777 C772 1.425 . S
C777 C774 1.409 . S
C777 C775 1.415 . S
C778 H768 0.930 . S
C778 C776 1.419 . S
C778 C779 1.362 . S
C779 H769 0.930 . S
C779 C772 1.409 . S
C779 C778 1.362 . S
H780 C786 0.930 . S
H781 C789 0.930 . S
H782 C790 0.930 . S
H783 C791 0.930 . S
H784 C794 0.930 . S
H785 C795 0.930 . S
C786 H780 0.930 . S
C786 C787 1.355 . S
C786 C788 1.415 . S
C787 C786 1.355 . S
C787 C789 1.419 . S
C788 C786 1.415 . S
C788 C793 1.425 . S
C788 C795 1.409 . S
C789 H781 0.930 . S
C789 C787 1.419 . S
C789 C790 1.362 . S
C790 H782 0.930 . S
C790 C789 1.362 . S
C790 C793 1.409 . S
C791 H783 0.930 . S
C791 C792 1.355 . S
C791 C793 1.415 . S
C792 C791 1.355 . S
C792 C794 1.419 . S
C793 C788 1.425 . S
C793 C790 1.409 . S
C793 C791 1.415 . S
C794 H784 0.930 . S
C794 C792 1.419 . S
C794 C795 1.362 . S
C795 H785 0.930 . S
C795 C788 1.409 . S
C795 C794 1.362 . S
H796 C802 0.930 . S
H797 C805 0.930 . S
H798 C806 0.930 . S
H799 C807 0.930 . S
H800 C810 0.930 . S
H801 C811 0.930 . S
C802 H796 0.930 . S
C802 C803 1.355 . S
C802 C804 1.415 . S
C803 C802 1.355 . S
C803 C805 1.419 . S
C804 C802 1.415 . S
C804 C809 1.425 . S
C804 C811 1.409 . S
C805 H797 0.930 . S
C805 C803 1.419 . S
C805 C806 1.362 . S
C806 H798 0.930 . S
C806 C805 1.362 . S
C806 C809 1.409 . S
C807 H799 0.930 . S
C807 C808 1.355 . S
C807 C809 1.415 . S
C808 C807 1.355 . S
C808 C810 1.419 . S
C809 C804 1.425 . S
C809 C806 1.409 . S
C809 C807 1.415 . S
C810 H800 0.930 . S
C810 C808 1.419 . S
C810 C811 1.362 . S
C811 H801 0.930 . S
C811 C804 1.409 . S
C811 C810 1.362 . S
H812 C818 0.930 . S
H813 C821 0.930 . S
H814 C822 0.930 . S
H815 C823 0.930 . S
H816 C826 0.930 . S
H817 C827 0.930 . S
C818 H812 0.930 . S
C818 C819 1.355 . S
C818 C820 1.415 . S
C819 C818 1.355 . S
C819 C821 1.419 . S
C820 C818 1.415 . S
C820 C825 1.425 . S
C820 C827 1.409 . S
C821 H813 0.930 . S
C821 C819 1.419 . S
C821 C822 1.362 . S
C822 H814 0.930 . S
C822 C821 1.362 . S
C822 C825 1.409 . S
C823 H815 0.930 . S
C823 C824 1.355 . S
C823 C825 1.415 . S
C824 C823 1.355 . S
C824 C826 1.419 . S
C825 C820 1.425 . S
C825 C822 1.409 . S
C825 C823 1.415 . S
C826 H816 0.930 . S
C826 C824 1.419 . S
C826 C827 1.362 . S
C827 H817 0.930 . S
C827 C820 1.409 . S
C827 C826 1.362 . S
H828 C834 0.930 . S
H829 C837 0.930 . S
H830 C838 0.930 . S
H831 C839 0.930 . S
H832 C842 0.930 . S
H833 C843 0.930 . S
C834 H828 0.930 . S
C834 C835 1.355 . S
C834 C836 1.415 . S
C835 C834 1.355 . S
C835 C837 1.419 . S
C836 C834 1.415 . S
C836 C841 1.425 . S
C836 C843 1.409 . S
C837 H829 0.930 . S
C837 C835 1.419 . S
C837 C838 1.362 . S
C838 H830 0.930 . S
C838 C837 1.362 . S
C838 C841 1.409 . S
C839 H831 0.930 . S
C839 C840 1.355 . S
C839 C841 1.415 . S
C840 C839 1.355 . S
C840 C842 1.419 . S
C841 C836 1.425 . S
C841 C838 1.409 . S
C841 C839 1.415 . S
C842 H832 0.930 . S
C842 C840 1.419 . S
C842 C843 1.362 . S
C843 H833 0.930 . S
C843 C836 1.409 . S
C843 C842 1.362 . S
H844 C850 0.930 . S
H845 C853 0.930 . S
H846 C854 0.930 . S
H847 C855 0.930 . S
H848 C858 0.930 . S
H849 C859 0.930 . S
C850 H844 0.930 . S
C850 C851 1.355 . S
C850 C852 1.415 . S
C851 C850 1.355 . S
C851 C853 1.419 . S
C852 C850 1.415 . S
C852 C857 1.425 . S
C852 C859 1.409 . S
C853 H845 0.930 . S
C853 C851 1.419 . S
C853 C854 1.362 . S
C854 H846 0.930 . S
C854 C853 1.362 . S
C854 C857 1.409 . S
C855 H847 0.930 . S
C855 C856 1.355 . S
C855 C857 1.415 . S
C856 C855 1.355 . S
C856 C858 1.419 . S
C857 C852 1.425 . S
C857 C854 1.409 . S
C857 C855 1.415 . S
C858 H848 0.930 . S
C858 C856 1.419 . S
C858 C859 1.362 . S
C859 H849 0.930 . S
C859 C852 1.409 . S
C859 C858 1.362 . S
H860 C866 0.930 . S
H861 C869 0.930 . S
H862 C870 0.930 . S
H863 C871 0.930 . S
H864 C874 0.930 . S
H865 C875 0.930 . S
C866 H860 0.930 . S
C866 C867 1.355 . S
C866 C868 1.415 . S
C867 C866 1.355 . S
C867 C869 1.419 . S
C868 C866 1.415 . S
C868 C873 1.425 . S
C868 C875 1.409 . S
C869 H861 0.930 . S
C869 C867 1.419 . S
C869 C870 1.362 . S
C870 H862 0.930 . S
C870 C869 1.362 . S
C870 C873 1.409 . S
C871 H863 0.930 . S
C871 C872 1.355 . S
C871 C873 1.415 . S
C872 C871 1.355 . S
C872 C874 1.419 . S
C873 C868 1.425 . S
C873 C870 1.409 . S
C873 C871 1.415 . S
C874 H864 0.930 . S
C874 C872 1.419 . S
C874 C875 1.362 . S
C875 H865 0.930 . S
C875 C868 1.409 . S
C875 C874 1.362 . S
H876 C882 0.930 . S
H877 C885 0.930 . S
H878 C886 0.930 . S
H879 C887 0.930 . S
H880 C890 0.930 . S
H881 C891 0.930 . S
C882 H876 0.930 . S
C882 C883 1.355 . S
C882 C884 1.415 . S
C883 C882 1.355 . S
C883 C885 1.419 . S
C884 C882 1.415 . S
C884 C889 1.425 . S
C884 C891 1.409 . S
C885 H877 0.930 . S
C885 C883 1.419 . S
C885 C886 1.362 . S
C886 H878 0.930 . S
C886 C885 1.362 . S
C886 C889 1.409 . S
C887 H879 0.930 . S
C887 C888 1.355 . S
C887 C889 1.415 . S
C888 C887 1.355 . S
C888 C890 1.419 . S
C889 C884 1.425 . S
C889 C886 1.409 . S
C889 C887 1.415 . S
C890 H880 0.930 . S
C890 C888 1.419 . S
C890 C891 1.362 . S
C891 H881 0.930 . S
C891 C884 1.409 . S
C891 C890 1.362 . S
H892 C898 0.930 . S
H893 C901 0.930 . S
H894 C902 0.930 . S
H895 C903 0.930 . S
H896 C906 0.930 . S
H897 C907 0.930 . S
C898 H892 0.930 . S
C898 C899 1.355 . S
C898 C900 1.415 . S
C899 C898 1.355 . S
C899 C901 1.419 . S
C900 C898 1.415 . S
C900 C905 1.425 . S
C900 C907 1.409 . S
C901 H893 0.930 . S
C901 C899 1.419 . S
C901 C902 1.362 . S
C902 H894 0.930 . S
C902 C901 1.362 . S
C902 C905 1.409 . S
C903 H895 0.930 . S
C903 C904 1.355 . S
C903 C905 1.415 . S
C904 C903 1.355 . S
C904 C906 1.419 . S
C905 C900 1.425 . S
C905 C902 1.409 . S
C905 C903 1.415 . S
C906 H896 0.930 . S
C906 C904 1.419 . S
C906 C907 1.362 . S
C907 H897 0.930 . S
C907 C900 1.409 . S
C907 C906 1.362 . S
H908 C914 0.930 . S
H909 C917 0.930 . S
H910 C918 0.930 . S
H911 C919 0.930 . S
H912 C922 0.930 . S
H913 C923 0.930 . S
C914 H908 0.930 . S
C914 C915 1.355 . S
C914 C916 1.415 . S
C915 C914 1.355 . S
C915 C917 1.419 . S
C916 C914 1.415 . S
C916 C921 1.425 . S
C916 C923 1.409 . S
C917 H909 0.930 . S
C917 C915 1.419 . S
C917 C918 1.362 . S
C918 H910 0.930 . S
C918 C917 1.362 . S
C918 C921 1.409 . S
C919 H911 0.930 . S
C919 C920 1.355 . S
C919 C921 1.415 . S
C920 C919 1.355 . S
C920 C922 1.419 . S
C921 C916 1.425 . S
C921 C918 1.409 . S
C921 C919 1.415 . S
C922 H912 0.930 . S
C922 C920 1.419 . S
C922 C923 1.362 . S
C923 H913 0.930 . S
C923 C916 1.409 . S
C923 C922 1.362 . S
H924 C930 0.930 . S
H925 C933 0.930 . S
H926 C934 0.930 . S
H927 C935 0.930 . S
H928 C938 0.930 . S
H929 C939 0.930 . S
C930 H924 0.930 . S
C930 C931 1.355 . S
C930 C932 1.415 . S
C931 C930 1.355 . S
C931 C933 1.419 . S
C932 C930 1.415 . S
C932 C937 1.425 . S
C932 C939 1.409 . S
C933 H925 0.930 . S
C933 C931 1.419 . S
C933 C934 1.362 . S
C934 H926 0.930 . S
C934 C933 1.362 . S
C934 C937 1.409 . S
C935 H927 0.930 . S
C935 C936 1.355 . S
C935 C937 1.415 . S
C936 C935 1.355 . S
C936 C938 1.419 . S
C937 C932 1.425 . S
C937 C934 1.409 . S
C937 C935 1.415 . S
C938 H928 0.930 . S
C938 C936 1.419 . S
C938 C939 1.362 . S
C939 H929 0.930 . S
C939 C932 1.409 . S
C939 C938 1.362 . S
H940 C946 0.930 . S
H941 C949 0.930 . S
H942 C950 0.930 . S
H943 C951 0.930 . S
H944 C954 0.930 . S
H945 C955 0.930 . S
C946 H940 0.930 . S
C946 C947 1.355 . S
C946 C948 1.415 . S
C947 C946 1.355 . S
C947 C949 1.419 . S
C948 C946 1.415 . S
C948 C953 1.425 . S
C948 C955 1.409 . S
C949 H941 0.930 . S
C949 C947 1.419 . S
C949 C950 1.362 . S
C950 H942 0.930 . S
C950 C949 1.362 . S
C950 C953 1.409 . S
C951 H943 0.930 . S
C951 C952 1.355 . S
C951 C953 1.415 . S
C952 C951 1.355 . S
C952 C954 1.419 . S
C953 C948 1.425 . S
C953 C950 1.409 . S
C953 C951 1.415 . S
C954 H944 0.930 . S
C954 C952 1.419 . S
C954 C955 1.362 . S
C955 H945 0.930 . S
C955 C948 1.409 . S
C955 C954 1.362 . S
H956 C962 0.930 . S
H957 C965 0.930 . S
H958 C966 0.930 . S
H959 C967 0.930 . S
H960 C970 0.930 . S
H961 C971 0.930 . S
C962 H956 0.930 . S
C962 C963 1.355 . S
C962 C964 1.415 . S
C963 C962 1.355 . S
C963 C965 1.419 . S
C964 C962 1.415 . S
C964 C969 1.425 . S
C964 C971 1.409 . S
C965 H957 0.930 . S
C965 C963 1.419 . S
C965 C966 1.362 . S
C966 H958 0.930 . S
C966 C965 1.362 . S
C966 C969 1.409 . S
C967 H959 0.930 . S
C967 C968 1.355 . S
C967 C969 1.415 . S
C968 C967 1.355 . S
C968 C970 1.419 . S
C969 C964 1.425 . S
C969 C966 1.409 . S
C969 C967 1.415 . S
C970 H960 0.930 . S
C970 C968 1.419 . S
C970 C971 1.362 . S
C971 H961 0.930 . S
C971 C964 1.409 . S
C971 C970 1.362 . S
H972 C978 0.930 . S
H973 C981 0.930 . S
H974 C982 0.930 . S
H975 C983 0.930 . S
H976 C986 0.930 . S
H977 C987 0.930 . S
C978 H972 0.930 . S
C978 C979 1.355 . S
C978 C980 1.415 . S
C979 C978 1.355 . S
C979 C981 1.419 . S
C980 C978 1.415 . S
C980 C985 1.425 . S
C980 C987 1.409 . S
C981 H973 0.930 . S
C981 C979 1.419 . S
C981 C982 1.362 . S
C982 H974 0.930 . S
C982 C981 1.362 . S
C982 C985 1.409 . S
C983 H975 0.930 . S
C983 C984 1.355 . S
C983 C985 1.415 . S
C984 C983 1.355 . S
C984 C986 1.419 . S
C985 C980 1.425 . S
C985 C982 1.409 . S
C985 C983 1.415 . S
C986 H976 0.930 . S
C986 C984 1.419 . S
C986 C987 1.362 . S
C987 H977 0.930 . S
C987 C980 1.409 . S
C987 C986 1.362 . S
H988 C994 0.930 . S
H989 C997 0.930 . S
H990 C998 0.930 . S
H991 C999 0.930 . S
H992 C1002 0.930 . S
H993 C1003 0.930 . S
C994 H988 0.930 . S
C994 C995 1.355 . S
C994 C996 1.415 . S
C995 C994 1.355 . S
C995 C997 1.419 . S
C996 C994 1.415 . S
C996 C1001 1.425 . S
C996 C1003 1.409 . S
C997 H989 0.930 . S
C997 C995 1.419 . S
C997 C998 1.362 . S
C998 H990 0.930 . S
C998 C997 1.362 . S
C998 C1001 1.409 . S
C999 H991 0.930 . S
C999 C1000 1.355 . S
C999 C1001 1.415 . S
C1000 C999 1.355 . S
C1000 C1002 1.419 . S
C1001 C996 1.425 . S
C1001 C998 1.409 . S
C1001 C999 1.415 . S
C1002 H992 0.930 . S
C1002 C1000 1.419 . S
C1002 C1003 1.362 . S
C1003 H993 0.930 . S
C1003 C996 1.409 . S
C1003 C1002 1.362 . S
H1004 C1010 0.930 . S
H1005 C1013 0.930 . S
H1006 C1014 0.930 . S
H1007 C1015 0.930 . S
H1008 C1018 0.930 . S
H1009 C1019 0.930 . S
C1010 H1004 0.930 . S
C1010 C1011 1.355 . S
C1010 C1012 1.415 . S
C1011 C1010 1.355 . S
C1011 C1013 1.419 . S
C1012 C1010 1.415 . S
C1012 C1017 1.425 . S
C1012 C1019 1.409 . S
C1013 H1005 0.930 . S
C1013 C1011 1.419 . S
C1013 C1014 1.362 . S
C1014 H1006 0.930 . S
C1014 C1013 1.362 . S
C1014 C1017 1.409 . S
C1015 H1007 0.930 . S
C1015 C1016 1.355 . S
C1015 C1017 1.415 . S
C1016 C1015 1.355 . S
C1016 C1018 1.419 . S
C1017 C1012 1.425 . S
C1017 C1014 1.409 . S
C1017 C1015 1.415 . S
C1018 H1008 0.930 . S
C1018 C1016 1.419 . S
C1018 C1019 1.362 . S
C1019 H1009 0.930 . S
C1019 C1012 1.409 . S
C1019 C1018 1.362 . S
C643 C39 1.964 . S
C648 C356 1.947 . S
C659 C91 1.644 . S
C664 C409 1.635 . S
C680 C462 1.688 . S
C675 C128 1.702 . S
C696 C499 1.340 . S
C691 C188 1.346 . S
C712 C559 1.680 . S
C707 C250 1.704 . S
C728 C612 1.549 . S
C723 C304 1.587 . S
C739 C75 1.821 . S
C744 C463 1.793 . S
C755 C144 1.611 . S
C760 C506 1.594 . S
C776 C552 1.714 . S
C771 C198 1.738 . S
C792 C605 1.353 . S
C787 C234 1.362 . S
C803 C294 1.634 . S
C808 C357 1.606 . S
C824 C410 1.465 . S
C819 C29 1.473 . S
C840 C516 1.955 . S
C835 C38 1.970 . S
C851 C92 1.623 . S
C856 C568 1.606 . S
C872 C621 1.655 . S
C867 C135 1.689 . S
C883 C181 1.327 . S
C888 C347 1.302 . S
C899 C251 1.703 . S
C904 C400 1.682 . S
C915 C303 1.593 . S
C920 C453 1.566 . S
C931 C82 1.836 . S
C936 C622 1.821 . S
C952 C340 1.569 . S
C947 C145 1.598 . S
C963 C197 1.756 . S
C968 C393 1.747 . S
C979 C241 1.364 . S
C984 C446 1.356 . S
C995 C287 1.643 . S
C1000 C515 1.622 . S
C1011 C22 1.471 . S
C1016 C569 1.445 . S
