# Generated by pormake.
# Topology pth, (4,4)-cn, num edge types: 1
# Building blocks:
#     Node 0, Type 0, BuildingBlock: NAHDIM_clean_sbu_0, # of connection points: 4
#     Node 1, Type 0, BuildingBlock: NAHDIM_clean_sbu_0, # of connection points: 4
#     Node 2, Type 0, BuildingBlock: NAHDIM_clean_sbu_0, # of connection points: 4
#     Node 3, Type 1, BuildingBlock: MUDLON_clean_sbu_0, # of connection points: 4
#     Node 4, Type 1, BuildingBlock: MUDLON_clean_sbu_0, # of connection points: 4
#     Node 5, Type 1, BuildingBlock: MUDLON_clean_sbu_0, # of connection points: 4
#     Edge 6, Type (0, 1), BuildingBlock: CIFDUS_clean_linker_0, # of connection points: 2
#     Edge 7, Type (0, 1), BuildingBlock: CIFDUS_clean_linker_0, # of connection points: 2
#     Edge 8, Type (0, 1), BuildingBlock: CIFDUS_clean_linker_0, # of connection points: 2
#     Edge 9, Type (0, 1), BuildingBlock: CIFDUS_clean_linker_0, # of connection points: 2
#     Edge 10, Type (0, 1), BuildingBlock: CIFDUS_clean_linker_0, # of connection points: 2
#     Edge 11, Type (0, 1), BuildingBlock: CIFDUS_clean_linker_0, # of connection points: 2
#     Edge 12, Type (0, 1), BuildingBlock: CIFDUS_clean_linker_0, # of connection points: 2
#     Edge 13, Type (0, 1), BuildingBlock: CIFDUS_clean_linker_0, # of connection points: 2
#     Edge 14, Type (0, 1), BuildingBlock: CIFDUS_clean_linker_0, # of connection points: 2
#     Edge 15, Type (0, 1), BuildingBlock: CIFDUS_clean_linker_0, # of connection points: 2
#     Edge 16, Type (0, 1), BuildingBlock: CIFDUS_clean_linker_0, # of connection points: 2
#     Edge 17, Type (0, 1), BuildingBlock: CIFDUS_clean_linker_0, # of connection points: 2
# Relax obj value: 0.076
# Max RMSD: 0.190
# Mean RMSD: 0.122
data_MOF--net-pth--node1-NAHDIM_clean_sbu_0--node2-MUDLON_clean_sbu_0--edge1-CIFDUS_clean_linker_0
_symmetry_space_group_name_H-M    P1
_symmetry_Int_Tables_number       1
_symmetry_cell_setting            triclinic
loop_
_symmetry_equiv_pos_as_xyz
'x, y, z'
_cell_length_a     19.753316
_cell_length_b     19.762717
_cell_length_c     51.847525
_cell_angle_alpha  92.481357
_cell_angle_beta   89.34335
_cell_angle_gamma 119.96479
loop_
_atom_site_label
_atom_site_type_symbol
_atom_site_fract_x
_atom_site_fract_y
_atom_site_fract_z
_atom_type_partial_charge
C0 C 0.13967 0.02081 0.1234 0.0
O1 O 0.16829 0.08985 0.1353 0.0
O2 O 0.06248 0.15113 0.11264 0.0
Zn3 Zn 0.07809 0.08359 0.08563 0.0
O4 O 0.97836 0.02167 0.06467 0.0
C5 C 0.23075 0.20732 0.0687 0.0
O6 O 0.24287 0.22953 0.09327 0.0
O7 O 0.10074 1.0068 0.10254 0.0
C8 C 0.96921 0.04206 0.04263 0.0
O9 O 0.02574 0.10647 0.03323 0.0
C10 C 0.05575 0.209 0.10638 0.0
O11 O 0.06113 0.22599 0.08195 0.0
O12 O 0.1661 0.14819 0.0616 0.0
C13 C 0.10687 0.21178 0.38925 0.0
O14 O 0.16525 0.19921 0.38454 0.0
O15 O 0.0207 0.98473 0.39887 0.0
Zn16 Zn 0.04795 0.07788 0.42314 0.0
O17 O 0.96447 0.0468 0.4503 0.0
C18 C 0.1797 0.1487 0.46056 0.0
O19 O 0.13892 0.1748 0.47332 0.0
O20 O 0.05308 0.16781 0.4044 0.0
C21 C 0.96176 0.01031 0.47024 0.0
O22 O 0.01529 0.99056 0.47373 0.0
C23 C 0.99087 0.97297 0.37637 0.0
O24 O 0.97405 0.02402 0.36735 0.0
O25 O 0.15256 0.10914 0.43944 0.0
C26 C 0.07477 0.99033 0.70733 0.0
O27 O 1.0038 0.97789 0.70341 0.0
O28 O 0.97252 0.06981 0.74133 0.0
Zn29 Zn 0.06305 0.06329 0.756 0.0
O30 O 0.14566 0.17044 0.76912 0.0
C31 C 0.97615 0.92093 0.78493 0.0
O32 O 0.94763 0.88674 0.76222 0.0
O33 O 0.11001 0.02361 0.7285 0.0
C34 C 0.13339 0.20246 0.78905 0.0
O35 O 0.06538 0.16558 0.80046 0.0
C36 C 0.98154 0.11957 0.72491 0.0
O37 O 0.05238 0.16925 0.71729 0.0
O38 O 0.02597 0.99356 0.78638 0.0
Mg39 Mg 0.08799 0.60158 0.2545 0.0
C40 C 0.10713 0.53458 0.30194 0.0
O41 O 0.04164 0.53524 0.30586 0.0
C42 C 0.1519 0.7038 0.20939 0.0
O43 O 0.10885 0.63508 0.19767 0.0
C44 C 0.01648 0.43623 0.23122 0.0
O45 O 0.02303 0.42148 0.25523 0.0
O46 O 0.03187 0.50474 0.226 0.0
O47 O 0.14595 0.56539 0.28178 0.0
O48 O 1.01293 0.63361 0.27644 0.0
C49 C 0.99208 0.67903 0.26716 0.0
O50 O 1.00496 0.69528 0.24267 0.0
O51 O 0.16182 0.70712 0.23372 0.0
Mg52 Mg 0.55273 0.07943 0.58991 0.0
C53 C 0.50817 0.14427 0.546 0.0
O54 O 0.53335 0.10251 0.53319 0.0
C55 C 0.64878 0.11043 0.63729 0.0
O56 O 0.58205 0.0494 0.64328 0.0
C57 C 0.38537 0.9934 0.60854 0.0
O58 O 0.37255 0.0147 0.5863 0.0
O59 O 0.45342 1.00535 0.6136 0.0
O60 O 0.51616 0.15177 0.57045 0.0
O61 O 0.58728 0.02053 0.56064 0.0
C62 C 0.64002 1.00368 0.56545 0.0
O63 O 0.66512 0.01149 0.58934 0.0
O64 O 0.65362 0.14156 0.61585 0.0
Mg65 Mg 0.56204 0.58443 0.9251 0.0
C66 C 0.45776 0.54397 0.87847 0.0
O67 O 0.52594 0.57208 0.86723 0.0
C68 C 0.59685 0.68933 0.97293 0.0
O69 O 0.54992 0.6216 0.98287 0.0
C70 C 0.47481 0.42267 0.9455 0.0
O71 O 0.44685 0.40715 0.92177 0.0
O72 O 0.5301 0.4911 0.95155 0.0
O73 O 0.45572 0.54935 0.90298 0.0
O74 O 0.65268 0.60214 0.89744 0.0
C75 C 0.71936 0.66372 0.89943 0.0
O76 O 0.73623 0.70897 0.92046 0.0
O77 O 0.60622 0.69213 0.94861 0.0
H78 H 0.01985 0.17737 0.1569 0.0
H79 H 0.06173 0.34864 0.1007 0.0
H80 H 0.04569 0.43079 0.13391 0.0
H81 H 0.02789 0.45778 0.1794 0.0
H82 H 0.98696 0.28676 0.23564 0.0
H83 H 0.99309 0.20032 0.20182 0.0
C84 C 0.02525 0.23256 0.15188 0.0
C85 C 0.04279 0.25711 0.12638 0.0
C86 C 0.01578 0.2795 0.17107 0.0
C87 C 0.04865 0.3284 0.12018 0.0
C88 C 0.03943 0.37547 0.13917 0.0
C89 C 0.0191 0.40111 0.18424 0.0
C90 C 1.00752 0.37918 0.21011 0.0
C91 C 0.02395 0.35207 0.16474 0.0
C92 C 0.99625 0.30542 0.21594 0.0
C93 C 1.00013 0.256 0.19662 0.0
H94 H 0.82732 0.01505 0.46514 0.0
H95 H 0.96197 0.97144 0.52014 0.0
H96 H 0.86971 0.95798 0.55405 0.0
H97 H 0.7569 0.96919 0.56882 0.0
H98 H 0.62186 0.01196 0.51366 0.0
H99 H 0.70739 0.01376 0.47907 0.0
C100 C 0.83621 1.00209 0.48451 0.0
C101 C 0.90201 0.99526 0.49016 0.0
C102 C 0.78281 0.9942 0.50391 0.0
C103 C 0.91202 0.9773 0.51527 0.0
C104 C 0.85933 0.96973 0.5347 0.0
C105 C 0.74542 0.97778 0.54918 0.0
C106 C 0.68345 0.99127 0.54396 0.0
C107 C 0.79534 0.97951 0.52936 0.0
C108 C 0.66919 1.00168 0.51832 0.0
C109 C 0.7184 1.00317 0.4985 0.0
H110 H 0.86153 0.76889 0.78937 0.0
H111 H 0.02149 0.97604 0.83457 0.0
H112 H 0.96191 0.9107 0.87422 0.0
H113 H 0.85664 0.80002 0.89587 0.0
H114 H 0.69364 0.59393 0.85091 0.0
H115 H 0.76315 0.6531 0.81151 0.0
C116 C 0.88397 0.79947 0.80789 0.0
C117 C 0.94531 0.87767 0.8089 0.0
C118 C 0.8488 0.76181 0.83073 0.0
C119 C 0.97392 0.91611 0.83313 0.0
C120 C 0.93986 0.87879 0.85587 0.0
C121 C 0.83693 0.76737 0.87753 0.0
C122 C 0.76943 0.69294 0.87639 0.0
C123 C 0.8761 0.80237 0.85488 0.0
C124 C 0.74518 0.65147 0.85241 0.0
C125 C 0.78468 0.68546 0.82981 0.0
H126 H 0.20121 0.02301 0.17061 0.0
H127 H 0.09783 0.87699 0.10168 0.0
H128 H 0.10194 0.76927 0.12126 0.0
H129 H 0.1242 0.71293 0.15896 0.0
H130 H 0.22204 0.85556 0.22881 0.0
H131 H 0.23232 0.96849 0.20764 0.0
C132 C 0.18028 0.96788 0.15977 0.0
C133 C 0.14849 0.95803 0.13479 0.0
C134 C 0.18186 0.90548 0.17129 0.0
C135 C 0.1219 0.88616 0.12102 0.0
C136 C 0.12431 0.82441 0.13219 0.0
C137 C 0.14892 0.76893 0.16951 0.0
C138 C 0.17175 0.77542 0.19552 0.0
C139 C 0.15267 0.83292 0.15747 0.0
C140 C 0.20392 0.84872 0.20878 0.0
C141 C 0.20933 0.91327 0.19673 0.0
H142 H 0.24018 0.20354 0.50908 0.0
H143 H 0.2832 0.11346 0.43719 0.0
H144 H 0.39488 0.11349 0.45664 0.0
H145 H 0.47221 0.1267 0.49492 0.0
H146 H 0.4271 0.2116 0.56748 0.0
H147 H 0.32555 0.22736 0.54677 0.0
C148 C 0.2746 0.1849 0.49757 0.0
C149 C 0.25263 0.15769 0.47177 0.0
C150 C 0.33836 0.18389 0.50901 0.0
C151 C 0.29813 0.13393 0.45715 0.0
C152 C 0.36214 0.13393 0.46825 0.0
C153 C 0.44108 0.14979 0.50618 0.0
C154 C 0.45689 0.1672 0.53279 0.0
C155 C 0.38158 0.15693 0.49431 0.0
C156 C 0.41612 0.19751 0.54698 0.0
C157 C 0.35765 0.20612 0.53517 0.0
H158 H 0.1344 0.27344 0.83539 0.0
H159 H 0.27646 0.29831 0.76863 0.0
H160 H 0.38668 0.41309 0.78935 0.0
H161 H 0.44625 0.49818 0.82783 0.0
H162 H 0.30679 0.4697 0.89557 0.0
H163 H 0.1917 0.36554 0.87284 0.0
C164 C 0.18916 0.30448 0.82523 0.0
C165 C 0.1973 0.2767 0.80059 0.0
C166 C 0.25288 0.36977 0.83745 0.0
C167 C 0.2687 0.31787 0.7877 0.0
C168 C 0.33183 0.38361 0.79953 0.0
C169 C 0.39047 0.47022 0.83754 0.0
C170 C 0.38545 0.49142 0.86347 0.0
C171 C 0.32511 0.40893 0.82463 0.0
C172 C 0.31249 0.45445 0.87566 0.0
C173 C 0.24668 0.39454 0.86271 0.0
H174 H 0.97796 0.20364 0.68502 0.0
H175 H 0.82924 0.03035 0.73858 0.0
H176 H 0.71391 0.01859 0.71762 0.0
H177 H 0.65483 0.05005 0.68247 0.0
H178 H 0.80146 0.2193 0.62759 0.0
H179 H 0.91806 0.24106 0.651 0.0
C180 C 0.92036 0.16382 0.69225 0.0
C181 C 0.91239 0.11749 0.71324 0.0
C182 C 0.85388 0.15658 0.67989 0.0
C183 C 0.83723 0.06632 0.72237 0.0
C184 C 0.77112 0.05955 0.71041 0.0
C185 C 0.7122 0.09242 0.67572 0.0
C186 C 0.71929 0.13257 0.65318 0.0
C187 C 0.77872 0.10333 0.6889 0.0
C188 C 0.79423 0.18753 0.64487 0.0
C189 C 0.86096 0.19968 0.65817 0.0
H190 H 0.83412 0.91727 0.05822 0.0
H191 H 0.9457 0.0506 0.99135 0.0
H192 H 0.83544 0.95747 0.96418 0.0
H193 H 0.71358 0.83175 0.95875 0.0
H194 H 0.60251 0.69804 0.02563 0.0
H195 H 0.70557 0.7985 0.05343 0.0
C196 C 0.83403 0.92635 0.03774 0.0
C197 C 0.89861 0.99022 0.0268 0.0
C198 C 0.77049 0.87247 0.02219 0.0
C199 C 0.89701 1.00171 1.00029 0.0
C200 C 0.83398 0.94838 0.9847 0.0
C201 C 0.71108 0.82512 0.97945 0.0
C202 C 0.65078 0.75684 0.99 0.0
C203 C 0.77124 0.88262 0.99534 0.0
C204 C 0.64841 0.74964 0.01691 0.0
C205 C 0.7076 0.80694 0.03286 0.0
H206 H 0.94865 0.94066 0.32541 0.0
H207 H 1.01085 0.85254 0.39043 0.0
H208 H 1.00674 0.74751 0.36283 0.0
H209 H 0.99763 0.68798 0.31969 0.0
H210 H 0.94128 0.77901 0.25416 0.0
H211 H 0.92951 0.87437 0.28259 0.0
C212 C 0.96047 0.89801 0.33362 0.0
C213 C 0.98086 0.90517 0.35993 0.0
C214 C 0.95913 0.83814 0.31753 0.0
C215 C 0.99573 0.84907 0.37021 0.0
C216 C 0.99334 0.7888 0.35444 0.0
C217 C 0.98136 0.72766 0.31163 0.0
C218 C 0.97093 0.72658 0.28477 0.0
C219 C 0.9768 0.78378 0.32798 0.0
C220 C 0.95 0.77869 0.27474 0.0
C221 C 0.94363 0.83357 0.29097 0.0
H222 H 0.20743 0.98131 0.71098 0.0
H223 H 0.036 0.96351 0.65612 0.0
H224 H 0.11306 0.95369 0.62055 0.0
H225 H 0.23563 0.96411 0.60487 0.0
H226 H 0.40652 0.98063 0.65977 0.0
H227 H 0.32249 0.97539 0.69535 0.0
C228 C 0.18654 0.97443 0.69125 0.0
C229 C 0.11667 0.97434 0.68621 0.0
C230 C 0.23111 0.96869 0.67084 0.0
C231 C 0.08977 0.96416 0.66056 0.0
C232 C 0.13393 0.95874 0.64017 0.0
C233 C 0.25395 0.96518 0.6246 0.0
C234 C 0.32785 0.97392 0.62958 0.0
C235 C 0.20564 0.96293 0.64505 0.0
C236 C 0.35018 0.97434 0.65529 0.0
C237 C 0.30233 0.97185 0.67572 0.0
H238 H 0.22856 0.16945 0.01755 0.0
H239 H 0.36645 0.34697 0.076 0.0
H240 H 0.45919 0.42582 0.04328 0.0
H241 H 0.49543 0.44881 0.99767 0.0
H242 H 0.35563 0.27202 0.93924 0.0
H243 H 0.27025 0.188 0.97245 0.0
C244 C 0.27914 0.22516 0.0232 0.0
C245 C 0.28999 0.25256 0.04918 0.0
C246 C 0.33206 0.27036 1.00428 0.0
C247 C 0.35635 0.32457 0.05614 0.0
C248 C 0.40946 0.36977 0.03743 0.0
C249 C 0.44709 0.39137 0.9922 0.0
C250 C 0.43173 0.3671 0.96593 0.0
C251 C 0.39719 0.34383 0.01137 0.0
C252 C 0.36871 0.29244 0.95926 0.0
C253 C 0.31955 0.24441 0.97825 0.0
H254 H 0.20284 0.30843 0.35243 0.0
H255 H 1.00006 0.25866 0.39808 0.0
H256 H 0.98725 0.35891 0.37666 0.0
H257 H 0.0284 0.45525 0.34358 0.0
H258 H 0.22795 0.50376 0.29649 0.0
H259 H 0.24792 0.41047 0.32018 0.0
C260 C 0.15613 0.31982 0.35779 0.0
C261 C 0.10219 0.27548 0.37675 0.0
C262 C 0.14854 0.37747 0.34519 0.0
C263 C 0.04213 0.29129 0.38346 0.0
C264 C 0.03475 0.34882 0.37125 0.0
C265 C 0.07687 0.44622 0.3386 0.0
C266 C 0.12637 0.48633 0.31818 0.0
C267 C 0.08695 0.3915 0.35189 0.0
C268 C 0.18893 0.47378 0.31212 0.0
C269 C 0.20013 0.42009 0.32558 0.0
loop_
_geom_bond_atom_site_label_1
_geom_bond_atom_site_label_2
_geom_bond_distance
_geom_bond_site_symmetry_2
_ccdc_geom_bond_type
C0 O1 1.160 . S
C0 O7 1.185 1_565 S
O1 C0 1.160 . S
O2 Zn3 1.899 . S
O2 C10 1.284 . S
Zn3 O2 1.899 . S
Zn3 O4 2.032 1_445 S
Zn3 O7 2.086 . S
Zn3 O12 1.977 . S
O4 Zn3 2.032 1_665 S
O4 C8 1.278 . S
C5 O6 1.203 . S
C5 O12 1.267 . S
O6 C5 1.203 . S
O7 C0 1.185 1_545 S
O7 Zn3 2.086 . S
C8 O4 1.278 . S
C8 O9 1.211 1_565 S
O9 C8 1.211 1_545 S
C10 O2 1.284 . S
C10 O11 1.273 1_455 S
O11 C10 1.273 1_655 S
O12 Zn3 1.977 . S
O12 C5 1.267 . S
C13 O14 1.160 . S
C13 O20 1.185 . S
O14 C13 1.160 . S
O15 Zn16 1.899 . S
O15 C23 1.284 1_545 S
Zn16 O15 1.899 . S
Zn16 O17 2.032 1_455 S
Zn16 O20 2.086 . S
Zn16 O25 1.977 . S
O17 Zn16 2.032 1_655 S
O17 C21 1.278 . S
C18 O19 1.203 . S
C18 O25 1.267 . S
O19 C18 1.203 . S
O20 C13 1.185 . S
O20 Zn16 2.086 . S
C21 O17 1.278 . S
C21 O22 1.208 1_655 S
O22 C21 1.208 1_455 S
C23 O15 1.284 1_565 S
C23 O24 1.273 1_455 S
O24 C23 1.273 1_655 S
O25 Zn16 1.977 . S
O25 C18 1.267 . S
C26 O27 1.160 . S
C26 O33 1.185 1_545 S
O27 C26 1.160 . S
O28 Zn29 1.899 1_655 S
O28 C36 1.284 . S
Zn29 O28 1.899 1_455 S
Zn29 O30 2.032 . S
Zn29 O33 2.086 1_545 S
Zn29 O38 1.977 1_445 S
O30 Zn29 2.032 . S
O30 C34 1.278 . S
C31 O32 1.203 . S
C31 O38 1.267 . S
O32 C31 1.203 . S
O33 C26 1.185 1_565 S
O33 Zn29 2.086 1_565 S
C34 O30 1.278 . S
C34 O35 1.211 . S
O35 C34 1.211 . S
C36 O28 1.284 . S
C36 O37 1.273 . S
O37 C36 1.273 . S
O38 Zn29 1.977 1_665 S
O38 C31 1.267 . S
Mg39 O46 2.141 . S
Mg39 O47 2.048 . S
Mg39 O48 2.048 . S
Mg39 O51 2.141 . S
C40 O41 1.313 1_455 S
C40 O47 1.195 . S
O41 C40 1.313 1_655 S
C42 O43 1.245 1_455 S
C42 O51 1.289 . S
O43 C42 1.245 1_655 S
C44 O45 1.245 1_455 S
C44 O46 1.289 . S
O45 C44 1.245 1_655 S
O46 Mg39 2.141 . S
O46 C44 1.289 . S
O47 Mg39 2.048 . S
O47 C40 1.195 . S
O48 Mg39 2.048 . S
O48 C49 1.195 . S
C49 O48 1.195 . S
C49 O50 1.313 1_455 S
O50 C49 1.313 1_655 S
O51 Mg39 2.141 . S
O51 C42 1.289 . S
Mg52 O59 2.141 . S
Mg52 O60 2.048 . S
Mg52 O61 2.048 . S
Mg52 O64 2.141 . S
C53 O54 1.313 1_545 S
C53 O60 1.195 . S
O54 C53 1.313 1_565 S
C55 O56 1.245 1_545 S
C55 O64 1.289 . S
O56 C55 1.245 1_565 S
C57 O58 1.245 1_545 S
C57 O59 1.289 . S
O58 C57 1.245 1_565 S
O59 Mg52 2.141 . S
O59 C57 1.289 . S
O60 Mg52 2.048 . S
O60 C53 1.195 . S
O61 Mg52 2.048 . S
O61 C62 1.195 . S
C62 O61 1.195 . S
C62 O63 1.313 1_545 S
O63 C62 1.313 1_565 S
O64 Mg52 2.141 . S
O64 C55 1.289 . S
Mg65 O72 2.141 . S
Mg65 O73 2.048 . S
Mg65 O74 2.048 . S
Mg65 O77 2.141 . S
C66 O67 1.313 . S
C66 O73 1.195 . S
O67 C66 1.313 . S
C68 O69 1.245 . S
C68 O77 1.289 . S
O69 C68 1.245 . S
C70 O71 1.245 . S
C70 O72 1.289 . S
O71 C70 1.245 . S
O72 Mg65 2.141 . S
O72 C70 1.289 . S
O73 Mg65 2.048 . S
O73 C66 1.195 . S
O74 Mg65 2.048 . S
O74 C75 1.195 . S
C75 O74 1.195 . S
C75 O76 1.313 . S
O76 C75 1.313 . S
O77 Mg65 2.141 . S
O77 C68 1.289 . S
H78 C84 0.930 1_655 S
H79 C87 0.930 . S
H80 C88 0.930 . S
H81 C89 0.930 . S
H82 C92 0.930 . S
H83 C93 0.930 . S
C84 H78 0.930 1_455 S
C84 C85 1.355 . S
C84 C86 1.415 . S
C85 C84 1.355 . S
C85 C87 1.419 . S
C86 C84 1.415 . S
C86 C91 1.425 . S
C86 C93 1.409 . S
C87 H79 0.930 . S
C87 C85 1.419 . S
C87 C88 1.362 . S
C88 H80 0.930 . S
C88 C87 1.362 . S
C88 C91 1.409 . S
C89 H81 0.930 . S
C89 C90 1.355 . S
C89 C91 1.415 . S
C90 C89 1.355 . S
C90 C92 1.419 . S
C91 C86 1.425 . S
C91 C88 1.409 . S
C91 C89 1.415 . S
C92 H82 0.930 . S
C92 C90 1.419 . S
C92 C93 1.362 . S
C93 H83 0.930 . S
C93 C86 1.409 . S
C93 C92 1.362 . S
H94 C100 0.930 . S
H95 C103 0.930 . S
H96 C104 0.930 . S
H97 C105 0.930 1_565 S
H98 C108 0.930 . S
H99 C109 0.930 . S
C100 H94 0.930 . S
C100 C101 1.355 . S
C100 C102 1.415 . S
C101 C100 1.355 . S
C101 C103 1.419 1_545 S
C102 C100 1.415 . S
C102 C107 1.425 . S
C102 C109 1.409 . S
C103 H95 0.930 . S
C103 C101 1.419 1_565 S
C103 C104 1.362 . S
C104 H96 0.930 . S
C104 C103 1.362 . S
C104 C107 1.409 1_565 S
C105 H97 0.930 1_545 S
C105 C106 1.355 . S
C105 C107 1.415 . S
C106 C105 1.355 . S
C106 C108 1.419 . S
C107 C102 1.425 . S
C107 C104 1.409 1_545 S
C107 C105 1.415 . S
C108 H98 0.930 . S
C108 C106 1.419 . S
C108 C109 1.362 . S
C109 H99 0.930 . S
C109 C102 1.409 . S
C109 C108 1.362 . S
H110 C116 0.930 . S
H111 C119 0.930 . S
H112 C120 0.930 . S
H113 C121 0.930 . S
H114 C124 0.930 . S
H115 C125 0.930 . S
C116 H110 0.930 . S
C116 C117 1.355 . S
C116 C118 1.415 . S
C117 C116 1.355 . S
C117 C119 1.419 . S
C118 C116 1.415 . S
C118 C123 1.425 . S
C118 C125 1.409 . S
C119 H111 0.930 . S
C119 C117 1.419 . S
C119 C120 1.362 . S
C120 H112 0.930 . S
C120 C119 1.362 . S
C120 C123 1.409 . S
C121 H113 0.930 . S
C121 C122 1.355 . S
C121 C123 1.415 . S
C122 C121 1.355 . S
C122 C124 1.419 . S
C123 C118 1.425 . S
C123 C120 1.409 . S
C123 C121 1.415 . S
C124 H114 0.930 . S
C124 C122 1.419 . S
C124 C125 1.362 . S
C125 H115 0.930 . S
C125 C118 1.409 . S
C125 C124 1.362 . S
H126 C132 0.930 . S
H127 C135 0.930 . S
H128 C136 0.930 . S
H129 C137 0.930 . S
H130 C140 0.930 . S
H131 C141 0.930 . S
C132 H126 0.930 . S
C132 C133 1.355 . S
C132 C134 1.415 . S
C133 C132 1.355 . S
C133 C135 1.419 . S
C134 C132 1.415 . S
C134 C139 1.425 . S
C134 C141 1.409 . S
C135 H127 0.930 . S
C135 C133 1.419 . S
C135 C136 1.362 . S
C136 H128 0.930 . S
C136 C135 1.362 . S
C136 C139 1.409 . S
C137 H129 0.930 . S
C137 C138 1.355 . S
C137 C139 1.415 . S
C138 C137 1.355 . S
C138 C140 1.419 . S
C139 C134 1.425 . S
C139 C136 1.409 . S
C139 C137 1.415 . S
C140 H130 0.930 . S
C140 C138 1.419 . S
C140 C141 1.362 . S
C141 H131 0.930 . S
C141 C134 1.409 . S
C141 C140 1.362 . S
H142 C148 0.930 . S
H143 C151 0.930 . S
H144 C152 0.930 . S
H145 C153 0.930 . S
H146 C156 0.930 . S
H147 C157 0.930 . S
C148 H142 0.930 . S
C148 C149 1.355 . S
C148 C150 1.415 . S
C149 C148 1.355 . S
C149 C151 1.419 . S
C150 C148 1.415 . S
C150 C155 1.425 . S
C150 C157 1.409 . S
C151 H143 0.930 . S
C151 C149 1.419 . S
C151 C152 1.362 . S
C152 H144 0.930 . S
C152 C151 1.362 . S
C152 C155 1.409 . S
C153 H145 0.930 . S
C153 C154 1.355 . S
C153 C155 1.415 . S
C154 C153 1.355 . S
C154 C156 1.419 . S
C155 C150 1.425 . S
C155 C152 1.409 . S
C155 C153 1.415 . S
C156 H146 0.930 . S
C156 C154 1.419 . S
C156 C157 1.362 . S
C157 H147 0.930 . S
C157 C150 1.409 . S
C157 C156 1.362 . S
H158 C164 0.930 . S
H159 C167 0.930 . S
H160 C168 0.930 . S
H161 C169 0.930 . S
H162 C172 0.930 . S
H163 C173 0.930 . S
C164 H158 0.930 . S
C164 C165 1.355 . S
C164 C166 1.415 . S
C165 C164 1.355 . S
C165 C167 1.419 . S
C166 C164 1.415 . S
C166 C171 1.425 . S
C166 C173 1.409 . S
C167 H159 0.930 . S
C167 C165 1.419 . S
C167 C168 1.362 . S
C168 H160 0.930 . S
C168 C167 1.362 . S
C168 C171 1.409 . S
C169 H161 0.930 . S
C169 C170 1.355 . S
C169 C171 1.415 . S
C170 C169 1.355 . S
C170 C172 1.419 . S
C171 C166 1.425 . S
C171 C168 1.409 . S
C171 C169 1.415 . S
C172 H162 0.930 . S
C172 C170 1.419 . S
C172 C173 1.362 . S
C173 H163 0.930 . S
C173 C166 1.409 . S
C173 C172 1.362 . S
H174 C180 0.930 . S
H175 C183 0.930 . S
H176 C184 0.930 . S
H177 C185 0.930 1_565 S
H178 C188 0.930 . S
H179 C189 0.930 . S
C180 H174 0.930 . S
C180 C181 1.355 . S
C180 C182 1.415 . S
C181 C180 1.355 . S
C181 C183 1.419 1_545 S
C182 C180 1.415 . S
C182 C187 1.425 . S
C182 C189 1.409 . S
C183 H175 0.930 . S
C183 C181 1.419 1_565 S
C183 C184 1.362 . S
C184 H176 0.930 . S
C184 C183 1.362 . S
C184 C187 1.409 1_565 S
C185 H177 0.930 1_545 S
C185 C186 1.355 . S
C185 C187 1.415 . S
C186 C185 1.355 . S
C186 C188 1.419 . S
C187 C182 1.425 . S
C187 C184 1.409 1_545 S
C187 C185 1.415 . S
C188 H178 0.930 . S
C188 C186 1.419 . S
C188 C189 1.362 . S
C189 H179 0.930 . S
C189 C182 1.409 . S
C189 C188 1.362 . S
H190 C196 0.930 . S
H191 C199 0.930 1_545 S
H192 C200 0.919 1_556 S
H193 C201 0.930 . S
H194 C204 0.930 . S
H195 C205 0.930 1_554 S
C196 H190 0.930 . S
C196 C197 1.355 . S
C196 C198 1.415 . S
C197 C196 1.355 . S
C197 C199 1.419 . S
C198 C196 1.415 . S
C198 C203 1.425 1_554 S
C198 C205 1.409 1_554 S
C199 H191 0.930 1_565 S
C199 C197 1.419 . S
C199 C200 1.362 . S
C200 H192 0.919 1_554 S
C200 C199 1.362 . S
C200 C203 1.409 1_554 S
C201 H193 0.930 . S
C201 C202 1.355 . S
C201 C203 1.415 . S
C202 C201 1.355 . S
C202 C204 1.419 . S
C203 C198 1.425 1_556 S
C203 C200 1.409 1_556 S
C203 C201 1.415 . S
C204 H194 0.930 . S
C204 C202 1.419 . S
C204 C205 1.362 . S
C205 H195 0.930 1_556 S
C205 C198 1.409 1_556 S
C205 C204 1.362 . S
H206 C212 0.930 . S
H207 C215 0.930 . S
H208 C216 0.930 . S
H209 C217 0.930 . S
H210 C220 0.930 . S
H211 C221 0.930 . S
C212 H206 0.930 . S
C212 C213 1.355 1_655 S
C212 C214 1.415 1_655 S
C213 C212 1.355 1_455 S
C213 C215 1.419 . S
C214 C212 1.415 1_455 S
C214 C219 1.425 . S
C214 C221 1.409 1_455 S
C215 H207 0.930 . S
C215 C213 1.419 . S
C215 C216 1.362 . S
C216 H208 0.930 . S
C216 C215 1.362 . S
C216 C219 1.409 . S
C217 H209 0.930 . S
C217 C218 1.355 . S
C217 C219 1.415 . S
C218 C217 1.355 . S
C218 C220 1.419 1_455 S
C219 C214 1.425 . S
C219 C216 1.409 . S
C219 C217 1.415 . S
C220 H210 0.930 . S
C220 C218 1.419 1_655 S
C220 C221 1.362 . S
C221 H211 0.930 . S
C221 C214 1.409 1_655 S
C221 C220 1.362 . S
H222 C228 0.930 . S
H223 C231 0.930 . S
H224 C232 0.930 . S
H225 C233 0.930 . S
H226 C236 0.930 . S
H227 C237 0.930 . S
C228 H222 0.930 . S
C228 C229 1.355 . S
C228 C230 1.415 . S
C229 C228 1.355 . S
C229 C231 1.419 . S
C230 C228 1.415 . S
C230 C235 1.425 . S
C230 C237 1.409 . S
C231 H223 0.930 . S
C231 C229 1.419 . S
C231 C232 1.362 . S
C232 H224 0.930 . S
C232 C231 1.362 . S
C232 C235 1.409 . S
C233 H225 0.930 . S
C233 C234 1.355 . S
C233 C235 1.415 . S
C234 C233 1.355 . S
C234 C236 1.419 . S
C235 C230 1.425 . S
C235 C232 1.409 . S
C235 C233 1.415 . S
C236 H226 0.930 . S
C236 C234 1.419 . S
C236 C237 1.362 . S
C237 H227 0.930 . S
C237 C230 1.409 . S
C237 C236 1.362 . S
H238 C244 0.930 . S
H239 C247 0.930 . S
H240 C248 0.930 . S
H241 C249 0.930 . S
H242 C252 0.930 . S
H243 C253 0.930 . S
C244 H238 0.930 . S
C244 C245 1.355 . S
C244 C246 1.415 . S
C245 C244 1.355 . S
C245 C247 1.419 . S
C246 C244 1.415 . S
C246 C251 1.425 1_554 S
C246 C253 1.409 . S
C247 H239 0.930 . S
C247 C245 1.419 . S
C247 C248 1.362 1_554 S
C248 H240 0.930 . S
C248 C247 1.362 1_556 S
C248 C251 1.409 . S
C249 H241 0.930 . S
C249 C250 1.355 . S
C249 C251 1.415 . S
C250 C249 1.355 . S
C250 C252 1.419 . S
C251 C246 1.425 1_556 S
C251 C248 1.409 . S
C251 C249 1.415 . S
C252 H242 0.930 . S
C252 C250 1.419 . S
C252 C253 1.362 1_556 S
C253 H243 0.930 . S
C253 C246 1.409 . S
C253 C252 1.362 1_554 S
H254 C260 0.930 . S
H255 C263 0.930 . S
H256 C264 0.930 . S
H257 C265 0.931 1_655 S
H258 C268 0.930 . S
H259 C269 0.930 . S
C260 H254 0.930 . S
C260 C261 1.355 . S
C260 C262 1.415 . S
C261 C260 1.355 . S
C261 C263 1.419 . S
C262 C260 1.415 . S
C262 C267 1.425 . S
C262 C269 1.409 . S
C263 H255 0.930 . S
C263 C261 1.419 . S
C263 C264 1.362 . S
C264 H256 0.930 . S
C264 C263 1.362 . S
C264 C267 1.409 . S
C265 H257 0.931 1_455 S
C265 C266 1.355 . S
C265 C267 1.415 . S
C266 C265 1.355 . S
C266 C268 1.419 . S
C267 C262 1.425 . S
C267 C264 1.409 . S
C267 C265 1.415 . S
C268 H258 0.930 . S
C268 C266 1.419 . S
C268 C269 1.362 . S
C269 H259 0.930 . S
C269 C262 1.409 . S
C269 C268 1.362 . S
C90 C44 1.372 . S
C85 C10 1.381 . S
C101 C21 1.449 . S
C106 C62 1.499 . S
C117 C31 1.421 . S
C122 C75 1.465 . S
C133 C0 1.372 . S
C138 C42 1.393 . S
C154 C53 1.456 . S
C149 C18 1.412 . S
C165 C34 1.439 . S
C170 C66 1.441 . S
C186 C55 1.391 . S
C181 C36 1.386 . S
C197 C8 1.330 . S
C202 C68 1.355 . S
C218 C49 1.429 . S
C213 C23 1.448 . S
C234 C57 1.311 . S
C229 C26 1.228 . S
C250 C70 1.353 . S
C245 C5 1.294 . S
C261 C13 1.424 . S
C266 C40 1.464 . S
