# Generated by pormake.
# Topology pth, (4,4)-cn, num edge types: 1
# Building blocks:
#     Node 0, Type 0, BuildingBlock: QUQFOY_clean_sbu_3, # of connection points: 4
#     Node 1, Type 0, BuildingBlock: QUQFOY_clean_sbu_3, # of connection points: 4
#     Node 2, Type 0, BuildingBlock: QUQFOY_clean_sbu_3, # of connection points: 4
#     Node 3, Type 1, BuildingBlock: MUDLON_clean_sbu_0, # of connection points: 4
#     Node 4, Type 1, BuildingBlock: MUDLON_clean_sbu_0, # of connection points: 4
#     Node 5, Type 1, BuildingBlock: MUDLON_clean_sbu_0, # of connection points: 4
#     Edge 6, Type (0, 1), BuildingBlock: XIVTED_clean_linker_0, # of connection points: 2
#     Edge 7, Type (0, 1), BuildingBlock: XIVTED_clean_linker_0, # of connection points: 2
#     Edge 8, Type (0, 1), BuildingBlock: XIVTED_clean_linker_0, # of connection points: 2
#     Edge 9, Type (0, 1), BuildingBlock: XIVTED_clean_linker_0, # of connection points: 2
#     Edge 10, Type (0, 1), BuildingBlock: XIVTED_clean_linker_0, # of connection points: 2
#     Edge 11, Type (0, 1), BuildingBlock: XIVTED_clean_linker_0, # of connection points: 2
#     Edge 12, Type (0, 1), BuildingBlock: XIVTED_clean_linker_0, # of connection points: 2
#     Edge 13, Type (0, 1), BuildingBlock: XIVTED_clean_linker_0, # of connection points: 2
#     Edge 14, Type (0, 1), BuildingBlock: XIVTED_clean_linker_0, # of connection points: 2
#     Edge 15, Type (0, 1), BuildingBlock: XIVTED_clean_linker_0, # of connection points: 2
#     Edge 16, Type (0, 1), BuildingBlock: XIVTED_clean_linker_0, # of connection points: 2
#     Edge 17, Type (0, 1), BuildingBlock: XIVTED_clean_linker_0, # of connection points: 2
# Relax obj value: 0.015
# Max RMSD: 0.070
# Mean RMSD: 0.054
data_MOF--net-pth--node1-QUQFOY_clean_sbu_3--node2-MUDLON_clean_sbu_0--edge1-XIVTED_clean_linker_0
_symmetry_space_group_name_H-M    P1
_symmetry_Int_Tables_number       1
_symmetry_cell_setting            triclinic
loop_
_symmetry_equiv_pos_as_xyz
'x, y, z'
_cell_length_a     23.113662
_cell_length_b     23.008211
_cell_length_c     62.968303
_cell_angle_alpha  90.165581
_cell_angle_beta   90.604613
_cell_angle_gamma 120.73731
loop_
_atom_site_label
_atom_site_type_symbol
_atom_site_fract_x
_atom_site_fract_y
_atom_site_fract_z
_atom_type_partial_charge
C0 C -0.00374 0.22509 0.09535 0.0
O1 O 0.97393 0.22073 0.07654 0.0
Cd2 Cd 0.96889 0.14447 0.04938 0.0
O3 O 0.02107 0.18901 0.10107 0.0
Cd4 Cd 0.04301 0.10292 0.08439 0.0
C5 C 0.13663 0.20045 0.04308 0.0
O6 O 0.93215 0.03866 0.06619 0.0
O7 O 0.0039 0.00845 0.05923 0.0
O8 O 0.02665 0.0532 0.11998 0.0
C9 C 0.94521 -0.00143 0.05643 0.0
O10 O 0.08112 0.18924 0.03495 0.0
C11 C 0.07684 0.04483 0.11943 0.0
O12 O 0.13896 0.18096 0.06186 0.0
O13 O 0.11209 0.06446 0.10278 0.0
C14 C 0.1752 0.15222 0.43561 0.0
O15 O 0.20258 0.17805 0.41803 0.0
Cd16 Cd 0.14289 0.18406 0.38725 0.0
O17 O 0.11174 0.12533 0.43771 0.0
Cd18 Cd 0.01264 0.10452 0.41532 0.0
C19 C 0.03413 0.01648 0.37577 0.0
O20 O 0.06642 0.21827 0.39893 0.0
O21 O 0.96866 0.14357 0.38686 0.0
O22 O 0.96281 0.11482 0.44849 0.0
C23 C 0.01748 0.20396 0.38642 0.0
O24 O 0.08212 0.07354 0.36974 0.0
C25 C 0.90488 0.06342 0.44502 0.0
O26 O 0.00418 0.01135 0.39317 0.0
O27 O 0.89718 0.03067 0.42794 0.0
C28 C 0.93074 0.14425 0.72455 0.0
O29 O 0.92569 0.16644 0.74251 0.0
Cd30 Cd 0.98884 0.17133 0.77369 0.0
O31 O 0.96965 0.12051 0.72235 0.0
Cd32 Cd 0.04765 0.10155 0.74547 0.0
C33 C 0.93146 0.00349 0.78181 0.0
O34 O 0.10254 0.21396 0.7629 0.0
O35 O 0.12492 0.14208 0.77652 0.0
O36 O 0.11221 0.11663 0.71294 0.0
C37 C 0.13594 0.20196 0.77642 0.0
O38 O 0.93894 0.05856 0.78919 0.0
C39 C 0.12156 0.06765 0.71634 0.0
O40 O 0.95933 0.00281 0.76453 0.0
O41 O 0.09672 0.03448 0.73321 0.0
Mg42 Mg 0.02776 0.61326 0.24535 0.0
C43 C 0.02353 0.5071 0.27096 0.0
O44 O 0.96712 0.48018 0.25985 0.0
C45 C 0.10191 0.7612 0.23447 0.0
O46 O 0.07933 0.76389 0.25328 0.0
C47 C 0.98948 0.54871 0.201 0.0
O48 O 0.0203 0.6122 0.19509 0.0
O49 O 0.97979 0.53511 0.22068 0.0
O50 O 0.06664 0.56949 0.26826 0.0
O51 O 0.96476 0.64154 0.26309 0.0
C52 C 0.9573 0.63246 0.28306 0.0
O53 O 0.97552 0.59306 0.29225 0.0
O54 O 0.09652 0.7058 0.22838 0.0
Mg55 Mg 0.51729 0.07572 0.57959 0.0
C56 C 0.44385 0.13968 0.55997 0.0
O57 O 0.4152 0.12352 0.57863 0.0
C58 C 0.65653 0.13908 0.59912 0.0
O59 O 0.66786 0.12137 0.58048 0.0
C60 C 0.4295 0.01596 0.61844 0.0
O61 O 0.48781 0.03336 0.62739 0.0
O62 O 0.42625 0.02065 0.59838 0.0
O63 O 0.49383 0.13209 0.55661 0.0
O64 O 0.55019 0.01749 0.5612 0.0
C65 C 0.5426 0.01187 0.54111 0.0
O66 O 0.50328 0.0302 0.53184 0.0
O67 O 0.59943 0.13299 0.6024 0.0
Mg68 Mg 0.55217 0.58071 0.91228 0.0
C69 C 0.40836 0.50697 0.89691 0.0
O70 O 0.40104 0.47971 0.91572 0.0
C71 C 0.65551 0.68408 0.93919 0.0
O72 O 0.68131 0.65113 0.93008 0.0
C73 C 0.52437 0.49336 0.95153 0.0
O74 O 0.56354 0.55265 0.96051 0.0
O75 O 0.51803 0.48957 0.93136 0.0
O76 O 0.46497 0.55838 0.89241 0.0
O77 O 0.63371 0.60949 0.88982 0.0
C78 C 0.62442 0.60826 0.86982 0.0
O79 O 0.56262 0.5759 0.86214 0.0
O80 O 0.59489 0.66656 0.93453 0.0
H81 H 0.97133 0.32709 0.08702 0.0
H82 H 0.96398 0.42061 0.20904 0.0
H83 H 0.01011 0.2287 0.13885 0.0
H84 H 0.99169 0.55558 0.15756 0.0
H85 H 0.96194 0.33952 0.18334 0.0
H86 H 0.96198 0.40196 0.11257 0.0
C87 C 0.97785 0.32113 0.10378 0.0
C88 C 0.99183 0.27158 0.11077 0.0
C89 C 0.96797 0.38669 0.17768 0.0
C90 C 0.98034 0.35688 0.14015 0.0
C91 C 0.96856 0.43281 0.19231 0.0
C92 C 0.97829 0.49523 0.18546 0.0
C93 C 0.97637 0.40265 0.156 0.0
C94 C 0.98436 0.50828 0.16358 0.0
C95 C 0.97254 0.36399 0.11835 0.0
C96 C -0.00024 0.26641 0.13271 0.0
N97 N 0.98342 0.4625 0.14964 0.0
N98 N 0.99366 0.30834 0.14662 0.0
H99 H 0.76982 0.98189 0.43694 0.0
H100 H 0.65901 0.01704 0.5539 0.0
H101 H 0.91157 0.10106 0.48669 0.0
H102 H 0.53394 0.98361 0.49846 0.0
H103 H 0.74552 0.02031 0.53102 0.0
H104 H 0.67711 0.95647 0.46101 0.0
C105 C 0.78145 0.00213 0.45299 0.0
C106 C 0.84851 0.04405 0.45979 0.0
C107 C 0.69874 0.01142 0.52394 0.0
C108 C 0.74283 0.01439 0.4874 0.0
C109 C 0.64906 0.00904 0.53698 0.0
C110 C 0.58927 0.00075 0.52807 0.0
C111 C 0.68821 0.00432 0.50186 0.0
C112 C 0.57943 0.99067 0.506 0.0
C113 C 0.72855 0.98773 0.46666 0.0
C114 C 0.86063 0.06898 0.48074 0.0
N115 N 0.62852 0.99301 0.49363 0.0
N116 N 0.80832 0.0537 0.49381 0.0
H117 H 0.86395 0.8721 0.76698 0.0
H118 H 0.74743 0.71395 0.88241 0.0
H119 H 0.90904 0.99131 0.82439 0.0
H120 H 0.62768 0.61516 0.82627 0.0
H121 H 0.82833 0.80667 0.86036 0.0
H122 H 0.79603 0.76914 0.78786 0.0
C123 C 0.85993 0.87657 0.78395 0.0
C124 C 0.89163 0.94037 0.79395 0.0
C125 C 0.78479 0.76418 0.85286 0.0
C126 C 0.81573 0.82327 0.81783 0.0
C127 C 0.7388 0.71088 0.86539 0.0
C128 C 0.68016 0.65688 0.85621 0.0
C129 C 0.77273 0.76322 0.83093 0.0
C130 C 0.67186 0.65604 0.83404 0.0
C131 C 0.82121 0.81796 0.79581 0.0
C132 C 0.88482 0.94328 0.81599 0.0
N133 N 0.71743 0.70867 0.82214 0.0
N134 N 0.84791 0.88564 0.82718 0.0
H135 H 0.15706 0.98901 0.1187 0.0
H136 H 0.09029 0.87271 0.23998 0.0
H137 H 0.03066 0.02462 0.16015 0.0
H138 H 0.14399 0.77171 0.19309 0.0
H139 H 0.09328 0.94893 0.21257 0.0
H140 H 0.17534 0.92801 0.14745 0.0
C141 C 0.1337 0.98459 0.1339 0.0
C142 C 0.09195 0.01164 0.13701 0.0
C143 C 0.10515 0.91057 0.20834 0.0
C144 C 0.11332 0.94269 0.16995 0.0
C145 C 0.10397 0.86722 0.22401 0.0
C146 C 0.11633 0.81511 0.21884 0.0
C147 C 0.1195 0.9025 0.18731 0.0
C148 C 0.13377 0.81084 0.19781 0.0
C149 C 0.14401 0.94962 0.15025 0.0
C150 C 0.06284 0.00422 0.15701 0.0
N151 N 0.13446 0.85368 0.18278 0.0
N152 N 0.07415 0.97057 0.17271 0.0
H153 H 0.3085 0.18908 0.43563 0.0
H154 H 0.32793 0.14412 0.56108 0.0
H155 H 0.13922 0.1216 0.47731 0.0
H156 H 0.48173 0.16522 0.51811 0.0
H157 H 0.26462 0.15137 0.531 0.0
H158 H 0.37781 0.19384 0.46599 0.0
C159 C 0.28583 0.1753 0.45115 0.0
C160 C 0.21769 0.15465 0.45386 0.0
C161 C 0.31242 0.15486 0.52814 0.0
C162 C 0.2972 0.16065 0.48875 0.0
C163 C 0.34893 0.15116 0.54535 0.0
C164 C 0.41025 0.1537 0.54216 0.0
C165 C 0.33733 0.16152 0.50751 0.0
C166 C 0.43468 0.16288 0.52135 0.0
C167 C 0.32552 0.17804 0.46847 0.0
C168 C 0.19129 0.13745 0.47439 0.0
N169 N 0.39802 0.16614 0.50481 0.0
N170 N 0.23108 0.14098 0.49102 0.0
H171 H 0.19028 0.3396 0.77694 0.0
H172 H 0.29833 0.37981 0.89914 0.0
H173 H 0.17 0.17522 0.81527 0.0
H174 H 0.40644 0.54376 0.85534 0.0
H175 H 0.22971 0.30791 0.86962 0.0
H176 H 0.25182 0.4184 0.8065 0.0
C177 C 0.19882 0.32015 0.79154 0.0
C178 C 0.17532 0.25083 0.79363 0.0
C179 C 0.26802 0.35984 0.86651 0.0
C180 C 0.24379 0.34005 0.82749 0.0
C181 C 0.30695 0.40125 0.88339 0.0
C182 C 0.35881 0.46797 0.87974 0.0
C183 C 0.28012 0.38532 0.84581 0.0
C184 C 0.36729 0.49258 0.85889 0.0
C185 C 0.23383 0.36506 0.80834 0.0
C186 C 0.18762 0.22826 0.81289 0.0
N187 N 0.32849 0.45115 0.84266 0.0
N188 N 0.22049 0.27262 0.82911 0.0
H189 H 0.83369 0.17918 0.72436 0.0
H190 H 0.77579 0.14088 0.59827 0.0
H191 H 0.93996 0.11777 0.6825 0.0
H192 H 0.64491 0.16558 0.64101 0.0
H193 H 0.84512 0.14631 0.62858 0.0
H194 H 0.77169 0.18609 0.69377 0.0
C195 C 0.84408 0.16712 0.70874 0.0
C196 C 0.8921 0.14758 0.70606 0.0
C197 C 0.80152 0.15103 0.63133 0.0
C198 C 0.82134 0.15599 0.67086 0.0
C199 C 0.76203 0.14837 0.614 0.0
C200 C 0.70406 0.15244 0.61706 0.0
C201 C 0.78326 0.15806 0.65196 0.0
C202 C 0.68899 0.16209 0.63786 0.0
C203 C 0.80859 0.17114 0.69127 0.0
C204 C 0.90326 0.1327 0.68539 0.0
N205 N 0.72811 0.16421 0.65451 0.0
N206 N 0.86824 0.13729 0.6686 0.0
H207 H 0.96666 0.91509 0.03133 0.0
H208 H 0.61614 0.75068 0.96709 0.0
H209 H 0.81925 0.97241 0.044 0.0
H210 H 0.78659 0.73295 0.94954 0.0
H211 H 0.68443 0.82762 -0.00366 0.0
H212 H 0.89491 0.84105 0.00284 0.0
C213 C 0.91894 0.91188 0.02818 0.0
C214 C 0.89912 0.95025 0.04005 0.0
C215 C 0.70665 0.80693 0.98596 0.0
C216 C 0.81624 0.8653 0.00715 0.0
C217 C 0.66783 0.76328 0.96925 0.0
C218 C 0.69549 0.73497 0.9559 0.0
C219 C 0.77317 0.82177 0.98929 0.0
C220 C 0.7627 0.75293 0.95946 0.0
C221 C 0.87796 0.86969 0.0118 0.0
C222 C 0.8365 0.94374 0.03522 0.0
N223 N 0.79885 0.79467 0.9758 0.0
N224 N 0.79718 0.90208 0.01909 0.0
H225 H 0.05615 0.01461 0.33341 0.0
H226 H 0.93471 0.6261 0.32587 0.0
H227 H 0.96144 0.88158 0.38633 0.0
H228 H 0.95766 0.74704 0.2708 0.0
H229 H 0.94245 0.71648 0.34856 0.0
H230 H 0.02209 0.91638 0.31054 0.0
C231 C 0.02818 0.96465 0.34025 0.0
C232 C 0.01211 0.95638 0.36189 0.0
C233 C 0.94462 0.72267 0.33149 0.0
C234 C 0.97293 0.8433 0.33567 0.0
C235 C 0.94005 0.67105 0.3185 0.0
C236 C 0.94643 0.67925 0.29638 0.0
C237 C 0.95675 0.78337 0.32232 0.0
C238 C 0.95302 0.73854 0.28776 0.0
C239 C 0.00825 0.9085 0.32711 0.0
C240 C 0.97504 0.89028 0.36976 0.0
N241 N 0.95924 0.78876 0.30076 0.0
N242 N 0.95739 0.83621 0.3567 0.0
H243 H 0.17841 0.99035 0.72404 0.0
H244 H 0.31868 0.02282 0.60646 0.0
H245 H 0.15263 0.1059 0.67492 0.0
H246 H 0.41235 0.98989 0.6611 0.0
H247 H 0.2375 0.02774 0.6299 0.0
H248 H 0.24581 0.96631 0.69963 0.0
C249 C 0.18652 0.01026 0.70808 0.0
C250 C 0.16024 0.05058 0.70154 0.0
C251 C 0.2754 0.01868 0.6367 0.0
C252 C 0.23633 0.02239 0.67351 0.0
C253 C 0.32149 0.01533 0.62332 0.0
C254 C 0.37292 0.00653 0.63184 0.0
C255 C 0.27997 0.01213 0.65871 0.0
C256 C 0.3739 -0.00275 0.65386 0.0
C257 C 0.22505 -0.00339 0.6942 0.0
C258 C 0.17237 0.07506 0.68068 0.0
N259 N 0.32831 0.00052 0.66655 0.0
N260 N 0.20937 0.06045 0.6674 0.0
H261 H 0.26934 0.26639 0.0565 0.0
H262 H 0.41074 0.37589 0.93868 0.0
H263 H 0.14445 0.21373 3e-05 0.0
H264 H 0.52562 0.48206 0.99482 0.0
H265 H 0.31942 0.29611 0.96131 0.0
H266 H 0.36951 0.32777 0.0343 0.0
C267 C 0.26298 0.2673 0.03946 0.0
C268 C 0.19836 0.23553 0.03014 0.0
C269 C 0.36503 0.33637 0.96867 0.0
C270 C 0.31244 0.30451 0.00471 0.0
C271 C 0.41747 0.38169 0.95576 0.0
C272 C 0.47567 0.43647 0.96483 0.0
C273 C 0.37094 0.3454 0.99084 0.0
C274 C 0.48137 0.44108 0.98711 0.0
C275 C 0.32008 0.30232 0.02682 0.0
C276 C 0.19315 0.23821 0.00796 0.0
N277 N 0.42941 0.39658 -0.00065 0.0
N278 N 0.24929 0.27205 0.99604 0.0
H279 H 0.92357 0.17993 0.35589 0.0
H280 H 0.1187 0.54725 0.30351 0.0
H281 H 0.11804 0.33598 0.37946 0.0
H282 H 0.94511 0.37179 0.27608 0.0
H283 H 0.1204 0.47539 0.33223 0.0
H284 H 0.92977 0.25485 0.3278 0.0
C285 C 0.96762 0.2302 0.35521 0.0
C286 C 0.02042 0.25155 0.37006 0.0
C287 C 0.08233 0.45288 0.3198 0.0
C288 C 0.02812 0.33829 0.33762 0.0
C289 C 0.0815 0.49374 0.3034 0.0
C290 C 0.03142 0.46565 0.28743 0.0
C291 C 0.03257 0.38381 0.32018 0.0
C292 C 0.98433 0.39605 0.2881 0.0
C293 C 0.9713 0.27304 0.33906 0.0
C294 C 0.0762 0.31746 0.36832 0.0
N295 N 0.9859 0.35792 0.30419 0.0
N296 N 0.07864 0.35865 0.35237 0.0
loop_
_geom_bond_atom_site_label_1
_geom_bond_atom_site_label_2
_geom_bond_distance
_geom_bond_site_symmetry_2
_ccdc_geom_bond_type
C0 O1 1.306 1_455 S
C0 O3 1.160 . S
O1 C0 1.306 1_655 S
O1 Cd2 2.228 . S
Cd2 O1 2.228 . S
Cd2 O6 2.273 . S
Cd2 O10 2.277 1_655 S
O3 C0 1.160 . S
O3 Cd4 2.203 . S
Cd4 O3 2.203 . S
Cd4 O6 2.411 1_455 S
Cd4 O7 2.333 . S
Cd4 O8 2.352 . S
Cd4 O12 2.277 . S
Cd4 O13 2.356 . S
C5 O10 1.209 . S
C5 O12 1.226 . S
O6 Cd2 2.273 . S
O6 Cd4 2.411 1_655 S
O6 C9 1.320 . S
O7 Cd4 2.333 . S
O7 C9 1.214 1_455 S
O8 Cd4 2.352 . S
O8 C11 1.258 . S
C9 O6 1.320 . S
C9 O7 1.214 1_655 S
O10 Cd2 2.277 1_455 S
O10 C5 1.209 . S
C11 O8 1.258 . S
C11 O13 1.282 . S
O12 Cd4 2.277 . S
O12 C5 1.226 . S
O13 Cd4 2.356 . S
O13 C11 1.282 . S
C14 O15 1.306 . S
C14 O17 1.160 . S
O15 C14 1.306 . S
O15 Cd16 2.228 . S
Cd16 O15 2.228 . S
Cd16 O20 2.273 . S
Cd16 O24 2.277 . S
O17 C14 1.160 . S
O17 Cd18 2.203 . S
Cd18 O17 2.203 . S
Cd18 O20 2.411 . S
Cd18 O21 2.333 1_455 S
Cd18 O22 2.352 1_455 S
Cd18 O26 2.277 1_445 S
Cd18 O27 2.356 1_455 S
C19 O24 1.201 1_565 S
C19 O26 1.224 1_455 S
O20 Cd16 2.273 . S
O20 Cd18 2.411 . S
O20 C23 1.320 . S
O21 Cd18 2.333 1_655 S
O21 C23 1.214 1_655 S
O22 Cd18 2.352 1_655 S
O22 C25 1.258 . S
C23 O20 1.320 . S
C23 O21 1.214 1_455 S
O24 Cd16 2.277 . S
O24 C19 1.201 1_545 S
C25 O22 1.258 . S
C25 O27 1.282 . S
O26 Cd18 2.277 1_665 S
O26 C19 1.224 1_655 S
O27 Cd18 2.356 1_655 S
O27 C25 1.282 . S
C28 O29 1.306 . S
C28 O31 1.160 . S
O29 C28 1.306 . S
O29 Cd30 2.228 . S
Cd30 O29 2.228 . S
Cd30 O34 2.273 1_655 S
Cd30 O38 2.277 . S
O31 C28 1.160 . S
O31 Cd32 2.203 1_655 S
Cd32 O31 2.203 1_455 S
Cd32 O34 2.411 . S
Cd32 O35 2.333 . S
Cd32 O36 2.352 . S
Cd32 O40 2.277 1_445 S
Cd32 O41 2.356 . S
C33 O38 1.209 . S
C33 O40 1.226 1_545 S
O34 Cd30 2.273 1_455 S
O34 Cd32 2.411 . S
O34 C37 1.320 . S
O35 Cd32 2.333 . S
O35 C37 1.214 . S
O36 Cd32 2.352 . S
O36 C39 1.258 . S
C37 O34 1.320 . S
C37 O35 1.214 . S
O38 Cd30 2.277 . S
O38 C33 1.209 . S
C39 O36 1.258 . S
C39 O41 1.282 . S
O40 Cd32 2.277 1_665 S
O40 C33 1.226 1_565 S
O41 Cd32 2.356 . S
O41 C39 1.282 . S
Mg42 O49 2.141 . S
Mg42 O50 2.048 . S
Mg42 O51 2.048 . S
Mg42 O54 2.141 . S
C43 O44 1.313 1_455 S
C43 O50 1.195 . S
O44 C43 1.313 1_655 S
C45 O46 1.245 1_455 S
C45 O54 1.289 . S
O46 C45 1.245 1_655 S
C47 O48 1.245 1_455 S
C47 O49 1.289 . S
O48 C47 1.245 1_655 S
O49 Mg42 2.141 . S
O49 C47 1.289 . S
O50 Mg42 2.048 . S
O50 C43 1.195 . S
O51 Mg42 2.048 . S
O51 C52 1.195 . S
C52 O51 1.195 . S
C52 O53 1.313 1_455 S
O53 C52 1.313 1_655 S
O54 Mg42 2.141 . S
O54 C45 1.289 . S
Mg55 O62 2.141 . S
Mg55 O63 2.048 . S
Mg55 O64 2.048 . S
Mg55 O67 2.141 . S
C56 O57 1.313 . S
C56 O63 1.195 . S
O57 C56 1.313 . S
C58 O59 1.245 . S
C58 O67 1.289 . S
O59 C58 1.245 . S
C60 O61 1.245 . S
C60 O62 1.289 . S
O61 C60 1.245 . S
O62 Mg55 2.141 . S
O62 C60 1.289 . S
O63 Mg55 2.048 . S
O63 C56 1.195 . S
O64 Mg55 2.048 . S
O64 C65 1.195 . S
C65 O64 1.195 . S
C65 O66 1.313 . S
O66 C65 1.313 . S
O67 Mg55 2.141 . S
O67 C58 1.289 . S
Mg68 O75 2.141 . S
Mg68 O76 2.048 . S
Mg68 O77 2.048 . S
Mg68 O80 2.141 . S
C69 O70 1.313 . S
C69 O76 1.195 . S
O70 C69 1.313 . S
C71 O72 1.245 . S
C71 O80 1.289 . S
O72 C71 1.245 . S
C73 O74 1.245 . S
C73 O75 1.289 . S
O74 C73 1.245 . S
O75 Mg68 2.141 . S
O75 C73 1.289 . S
O76 Mg68 2.048 . S
O76 C69 1.195 . S
O77 Mg68 2.048 . S
O77 C78 1.195 . S
C78 O77 1.195 . S
C78 O79 1.313 . S
O79 C78 1.313 . S
O80 Mg68 2.141 . S
O80 C71 1.289 . S
H81 C87 0.930 . S
H82 C91 0.930 . S
H83 C96 0.929 . S
H84 C94 0.929 . S
H85 C89 0.929 . S
H86 C95 0.929 . S
C87 H81 0.930 . S
C87 C88 1.367 . S
C87 C95 1.378 . S
C88 C87 1.367 . S
C88 C96 1.433 . S
C89 H85 0.929 . S
C89 C91 1.378 . S
C89 C93 1.350 . S
C90 C93 1.463 . S
C90 C95 1.350 . S
C90 N98 1.427 . S
C91 H82 0.930 . S
C91 C89 1.378 . S
C91 C92 1.367 . S
C92 C91 1.367 . S
C92 C94 1.433 . S
C93 C89 1.350 . S
C93 C90 1.463 . S
C93 N97 1.427 . S
C94 H84 0.929 . S
C94 C92 1.433 . S
C94 N97 1.384 . S
C95 H86 0.929 . S
C95 C87 1.378 . S
C95 C90 1.350 . S
C96 H83 0.929 . S
C96 C88 1.433 . S
C96 N98 1.384 . S
N97 C93 1.427 . S
N97 C94 1.384 . S
N98 C90 1.427 . S
N98 C96 1.384 . S
H99 C105 0.930 1_565 S
H100 C109 0.930 . S
H101 C114 0.929 . S
H102 C112 0.930 . S
H103 C107 0.929 . S
H104 C113 0.929 1_565 S
C105 H99 0.930 1_545 S
C105 C106 1.367 . S
C105 C113 1.378 . S
C106 C105 1.367 . S
C106 C114 1.433 . S
C107 H103 0.929 . S
C107 C109 1.378 . S
C107 C111 1.350 . S
C108 C111 1.463 . S
C108 C113 1.350 . S
C108 N116 1.427 . S
C109 H100 0.930 . S
C109 C107 1.378 . S
C109 C110 1.367 . S
C110 C109 1.367 . S
C110 C112 1.433 . S
C111 C107 1.350 . S
C111 C108 1.463 . S
C111 N115 1.427 . S
C112 H102 0.930 . S
C112 C110 1.433 . S
C112 N115 1.384 . S
C113 H104 0.929 1_545 S
C113 C105 1.378 . S
C113 C108 1.350 . S
C114 H101 0.929 . S
C114 C106 1.433 . S
C114 N116 1.384 . S
N115 C111 1.427 . S
N115 C112 1.384 . S
N116 C108 1.427 . S
N116 C114 1.384 . S
H117 C123 0.930 . S
H118 C127 0.930 . S
H119 C132 0.929 1_545 S
H120 C130 0.929 . S
H121 C125 0.929 . S
H122 C131 0.929 . S
C123 H117 0.930 . S
C123 C124 1.367 . S
C123 C131 1.378 . S
C124 C123 1.367 . S
C124 C132 1.433 . S
C125 H121 0.929 . S
C125 C127 1.378 . S
C125 C129 1.350 . S
C126 C129 1.463 . S
C126 C131 1.350 . S
C126 N134 1.427 . S
C127 H118 0.930 . S
C127 C125 1.378 . S
C127 C128 1.367 . S
C128 C127 1.367 . S
C128 C130 1.433 . S
C129 C125 1.350 . S
C129 C126 1.463 . S
C129 N133 1.427 . S
C130 H120 0.929 . S
C130 C128 1.433 . S
C130 N133 1.384 . S
C131 H122 0.929 . S
C131 C123 1.378 . S
C131 C126 1.350 . S
C132 H119 0.929 1_565 S
C132 C124 1.433 . S
C132 N134 1.384 . S
N133 C129 1.427 . S
N133 C130 1.384 . S
N134 C126 1.427 . S
N134 C132 1.384 . S
H135 C141 0.930 1_545 S
H136 C145 0.930 1_655 S
H137 C150 0.929 1_655 S
H138 C148 0.929 . S
H139 C143 0.929 1_655 S
H140 C149 0.929 . S
C141 H135 0.930 1_565 S
C141 C142 1.367 . S
C141 C149 1.378 . S
C142 C141 1.367 . S
C142 C150 1.433 . S
C143 H139 0.929 1_455 S
C143 C145 1.378 . S
C143 C147 1.350 . S
C144 C147 1.463 . S
C144 C149 1.350 . S
C144 N152 1.427 . S
C145 H136 0.930 1_455 S
C145 C143 1.378 . S
C145 C146 1.367 . S
C146 C145 1.367 . S
C146 C148 1.433 . S
C147 C143 1.350 . S
C147 C144 1.463 . S
C147 N151 1.427 . S
C148 H138 0.929 . S
C148 C146 1.433 . S
C148 N151 1.384 . S
C149 H140 0.929 . S
C149 C141 1.378 . S
C149 C144 1.350 . S
C150 H137 0.929 1_455 S
C150 C142 1.433 . S
C150 N152 1.384 . S
N151 C147 1.427 . S
N151 C148 1.384 . S
N152 C144 1.427 . S
N152 C150 1.384 . S
H153 C159 0.930 . S
H154 C163 0.930 1_565 S
H155 C168 0.929 1_565 S
H156 C166 0.929 . S
H157 C161 0.929 1_565 S
H158 C167 0.929 . S
C159 H153 0.930 . S
C159 C160 1.367 . S
C159 C167 1.378 . S
C160 C159 1.367 . S
C160 C168 1.433 . S
C161 H157 0.929 1_545 S
C161 C163 1.378 . S
C161 C165 1.350 . S
C162 C165 1.463 . S
C162 C167 1.350 . S
C162 N170 1.427 . S
C163 H154 0.930 1_545 S
C163 C161 1.378 . S
C163 C164 1.367 . S
C164 C163 1.367 . S
C164 C166 1.433 . S
C165 C161 1.350 . S
C165 C162 1.463 . S
C165 N169 1.427 . S
C166 H156 0.929 . S
C166 C164 1.433 . S
C166 N169 1.384 . S
C167 H158 0.929 . S
C167 C159 1.378 . S
C167 C162 1.350 . S
C168 H155 0.929 1_545 S
C168 C160 1.433 . S
C168 N170 1.384 . S
N169 C165 1.427 . S
N169 C166 1.384 . S
N170 C162 1.427 . S
N170 C168 1.384 . S
H171 C177 0.930 . S
H172 C181 0.930 . S
H173 C186 0.929 . S
H174 C184 0.929 . S
H175 C179 0.929 . S
H176 C185 0.929 . S
C177 H171 0.930 . S
C177 C178 1.367 . S
C177 C185 1.378 . S
C178 C177 1.367 . S
C178 C186 1.433 . S
C179 H175 0.929 . S
C179 C181 1.378 . S
C179 C183 1.350 . S
C180 C183 1.463 . S
C180 C185 1.350 . S
C180 N188 1.427 . S
C181 H172 0.930 . S
C181 C179 1.378 . S
C181 C182 1.367 . S
C182 C181 1.367 . S
C182 C184 1.433 . S
C183 C179 1.350 . S
C183 C180 1.463 . S
C183 N187 1.427 . S
C184 H174 0.929 . S
C184 C182 1.433 . S
C184 N187 1.384 . S
C185 H176 0.929 . S
C185 C177 1.378 . S
C185 C180 1.350 . S
C186 H173 0.929 . S
C186 C178 1.433 . S
C186 N188 1.384 . S
N187 C183 1.427 . S
N187 C184 1.384 . S
N188 C180 1.427 . S
N188 C186 1.384 . S
H189 C195 0.930 . S
H190 C199 0.930 . S
H191 C204 0.929 . S
H192 C202 0.929 . S
H193 C197 0.929 . S
H194 C203 0.929 . S
C195 H189 0.930 . S
C195 C196 1.367 . S
C195 C203 1.378 . S
C196 C195 1.367 . S
C196 C204 1.433 . S
C197 H193 0.929 . S
C197 C199 1.378 . S
C197 C201 1.350 . S
C198 C201 1.463 . S
C198 C203 1.350 . S
C198 N206 1.427 . S
C199 H190 0.930 . S
C199 C197 1.378 . S
C199 C200 1.367 . S
C200 C199 1.367 . S
C200 C202 1.433 . S
C201 C197 1.350 . S
C201 C198 1.463 . S
C201 N205 1.427 . S
C202 H192 0.929 . S
C202 C200 1.433 . S
C202 N205 1.384 . S
C203 H194 0.929 . S
C203 C195 1.378 . S
C203 C198 1.350 . S
C204 H191 0.929 . S
C204 C196 1.433 . S
C204 N206 1.384 . S
N205 C201 1.427 . S
N205 C202 1.384 . S
N206 C198 1.427 . S
N206 C204 1.384 . S
H207 C213 0.930 . S
H208 C217 0.930 . S
H209 C222 0.929 . S
H210 C220 0.929 . S
H211 C215 0.973 . S
H212 C221 0.929 1_556 S
C213 H207 0.930 . S
C213 C214 1.367 . S
C213 C221 1.378 . S
C214 C213 1.367 . S
C214 C222 1.433 . S
C215 H211 0.973 . S
C215 C217 1.345 1_554 S
C215 C219 1.339 1_554 S
C216 C219 1.463 1_554 S
C216 C221 1.350 . S
C216 N224 1.427 . S
C217 H208 0.930 . S
C217 C215 1.345 1_556 S
C217 C218 1.367 . S
C218 C217 1.367 . S
C218 C220 1.433 . S
C219 C215 1.339 1_556 S
C219 C216 1.463 1_556 S
C219 N223 1.427 . S
C220 H210 0.929 . S
C220 C218 1.433 . S
C220 N223 1.384 . S
C221 H212 0.929 1_554 S
C221 C213 1.378 . S
C221 C216 1.350 . S
C222 H209 0.929 . S
C222 C214 1.433 . S
C222 N224 1.384 . S
N223 C219 1.427 . S
N223 C220 1.384 . S
N224 C216 1.427 . S
N224 C222 1.384 . S
H225 C231 0.930 1_545 S
H226 C235 0.930 . S
H227 C240 0.929 . S
H228 C238 0.929 . S
H229 C233 0.929 . S
H230 C239 0.929 . S
C231 H225 0.930 1_565 S
C231 C232 1.367 . S
C231 C239 1.378 . S
C232 C231 1.367 . S
C232 C240 1.433 1_455 S
C233 H229 0.929 . S
C233 C235 1.378 . S
C233 C237 1.350 1_655 S
C234 C237 1.463 . S
C234 C239 1.350 . S
C234 N242 1.427 1_455 S
C235 H226 0.930 . S
C235 C233 1.378 . S
C235 C236 1.367 1_655 S
C236 C235 1.367 1_455 S
C236 C238 1.433 . S
C237 C233 1.350 1_455 S
C237 C234 1.463 . S
C237 N241 1.427 . S
C238 H228 0.929 . S
C238 C236 1.433 . S
C238 N241 1.384 . S
C239 H230 0.929 . S
C239 C231 1.378 . S
C239 C234 1.350 . S
C240 H227 0.929 . S
C240 C232 1.433 1_655 S
C240 N242 1.384 . S
N241 C237 1.427 . S
N241 C238 1.384 . S
N242 C234 1.427 1_655 S
N242 C240 1.384 . S
H243 C249 0.930 . S
H244 C253 0.930 . S
H245 C258 0.929 . S
H246 C256 0.929 . S
H247 C251 0.929 . S
H248 C257 0.929 . S
C249 H243 0.930 . S
C249 C250 1.367 . S
C249 C257 1.378 . S
C250 C249 1.367 . S
C250 C258 1.433 . S
C251 H247 0.929 . S
C251 C253 1.378 . S
C251 C255 1.350 . S
C252 C255 1.463 . S
C252 C257 1.350 . S
C252 N260 1.427 . S
C253 H244 0.930 . S
C253 C251 1.378 . S
C253 C254 1.367 . S
C254 C253 1.367 . S
C254 C256 1.433 . S
C255 C251 1.350 . S
C255 C252 1.463 . S
C255 N259 1.427 . S
C256 H246 0.929 . S
C256 C254 1.433 . S
C256 N259 1.384 . S
C257 H248 0.929 . S
C257 C249 1.378 . S
C257 C252 1.350 . S
C258 H245 0.929 . S
C258 C250 1.433 . S
C258 N260 1.384 . S
N259 C255 1.427 . S
N259 C256 1.384 . S
N260 C252 1.427 . S
N260 C258 1.384 . S
H261 C267 0.930 . S
H262 C271 0.930 . S
H263 C276 0.929 . S
H264 C274 0.929 . S
H265 C269 0.929 . S
H266 C275 0.929 . S
C267 H261 0.930 . S
C267 C268 1.367 . S
C267 C275 1.378 . S
C268 C267 1.367 . S
C268 C276 1.433 . S
C269 H265 0.929 . S
C269 C271 1.378 . S
C269 C273 1.350 . S
C270 C273 1.463 1_554 S
C270 C275 1.350 . S
C270 N278 1.427 . S
C271 H262 0.930 . S
C271 C269 1.378 . S
C271 C272 1.367 . S
C272 C271 1.367 . S
C272 C274 1.433 . S
C273 C269 1.350 . S
C273 C270 1.463 1_556 S
C273 N277 1.427 1_556 S
C274 H264 0.929 . S
C274 C272 1.433 . S
C274 N277 1.384 1_556 S
C275 H266 0.929 . S
C275 C267 1.378 . S
C275 C270 1.350 . S
C276 H263 0.929 . S
C276 C268 1.433 . S
C276 N278 1.384 . S
N277 C273 1.427 1_554 S
N277 C274 1.384 1_554 S
N278 C270 1.427 . S
N278 C276 1.384 . S
H279 C285 0.930 . S
H280 C289 0.930 . S
H281 C294 0.929 . S
H282 C292 0.929 . S
H283 C287 0.929 . S
H284 C293 0.929 . S
C285 H279 0.930 . S
C285 C286 1.367 1_655 S
C285 C293 1.378 . S
C286 C285 1.367 1_455 S
C286 C294 1.433 . S
C287 H283 0.929 . S
C287 C289 1.378 . S
C287 C291 1.350 . S
C288 C291 1.463 . S
C288 C293 1.350 1_455 S
C288 N296 1.427 . S
C289 H280 0.930 . S
C289 C287 1.378 . S
C289 C290 1.367 . S
C290 C289 1.367 . S
C290 C292 1.433 1_455 S
C291 C287 1.350 . S
C291 C288 1.463 . S
C291 N295 1.427 1_455 S
C292 H282 0.929 . S
C292 C290 1.433 1_655 S
C292 N295 1.384 . S
C293 H284 0.929 . S
C293 C285 1.378 . S
C293 C288 1.350 1_655 S
C294 H281 0.929 . S
C294 C286 1.433 . S
C294 N296 1.384 . S
N295 C291 1.427 1_655 S
N295 C292 1.384 . S
N296 C288 1.427 . S
N296 C294 1.384 . S
C92 C47 1.394 . S
C88 C0 1.404 . S
C106 C25 1.484 . S
C110 C65 1.479 . S
C124 C33 1.506 1_565 S
C128 C78 1.497 . S
C142 C11 1.372 1_565 S
C146 C45 1.359 . S
C164 C56 1.481 . S
C160 C14 1.487 . S
C178 C37 1.494 . S
C182 C69 1.494 . S
C200 C58 1.406 . S
C196 C28 1.417 . S
C214 C9 1.427 1_565 S
C218 C71 1.422 . S
C236 C52 1.509 . S
C232 C19 1.526 . S
C254 C60 1.406 . S
C250 C39 1.416 . S
C272 C73 1.424 . S
C268 C5 1.439 . S
C286 C23 1.534 . S
C290 C43 1.540 . S
