# Generated by pormake.
# Topology myd, (4,6)-cn, num edge types: 1
# Building blocks:
#     Node 0, Type 0, BuildingBlock: NAWXER_clean_sbu_0, # of connection points: 4
#     Node 1, Type 0, BuildingBlock: NAWXER_clean_sbu_0, # of connection points: 4
#     Node 2, Type 0, BuildingBlock: NAWXER_clean_sbu_0, # of connection points: 4
#     Node 3, Type 0, BuildingBlock: NAWXER_clean_sbu_0, # of connection points: 4
#     Node 4, Type 0, BuildingBlock: NAWXER_clean_sbu_0, # of connection points: 4
#     Node 5, Type 0, BuildingBlock: NAWXER_clean_sbu_0, # of connection points: 4
#     Node 6, Type 0, BuildingBlock: NAWXER_clean_sbu_0, # of connection points: 4
#     Node 7, Type 0, BuildingBlock: NAWXER_clean_sbu_0, # of connection points: 4
#     Node 8, Type 0, BuildingBlock: NAWXER_clean_sbu_0, # of connection points: 4
#     Node 9, Type 0, BuildingBlock: NAWXER_clean_sbu_0, # of connection points: 4
#     Node 10, Type 0, BuildingBlock: NAWXER_clean_sbu_0, # of connection points: 4
#     Node 11, Type 0, BuildingBlock: NAWXER_clean_sbu_0, # of connection points: 4
#     Node 12, Type 1, BuildingBlock: CUWYAW_clean_sbu_0, # of connection points: 6
#     Node 13, Type 1, BuildingBlock: CUWYAW_clean_sbu_0, # of connection points: 6
#     Node 14, Type 1, BuildingBlock: CUWYAW_clean_sbu_0, # of connection points: 6
#     Node 15, Type 1, BuildingBlock: CUWYAW_clean_sbu_0, # of connection points: 6
#     Node 16, Type 1, BuildingBlock: CUWYAW_clean_sbu_0, # of connection points: 6
#     Node 17, Type 1, BuildingBlock: CUWYAW_clean_sbu_0, # of connection points: 6
#     Node 18, Type 1, BuildingBlock: CUWYAW_clean_sbu_0, # of connection points: 6
#     Node 19, Type 1, BuildingBlock: CUWYAW_clean_sbu_0, # of connection points: 6
#     Edge 20, Type (0, 1), None
#     Edge 21, Type (0, 1), None
#     Edge 22, Type (0, 1), None
#     Edge 23, Type (0, 1), None
#     Edge 24, Type (0, 1), None
#     Edge 25, Type (0, 1), None
#     Edge 26, Type (0, 1), None
#     Edge 27, Type (0, 1), None
#     Edge 28, Type (0, 1), None
#     Edge 29, Type (0, 1), None
#     Edge 30, Type (0, 1), None
#     Edge 31, Type (0, 1), None
#     Edge 32, Type (0, 1), None
#     Edge 33, Type (0, 1), None
#     Edge 34, Type (0, 1), None
#     Edge 35, Type (0, 1), None
#     Edge 36, Type (0, 1), None
#     Edge 37, Type (0, 1), None
#     Edge 38, Type (0, 1), None
#     Edge 39, Type (0, 1), None
#     Edge 40, Type (0, 1), None
#     Edge 41, Type (0, 1), None
#     Edge 42, Type (0, 1), None
#     Edge 43, Type (0, 1), None
#     Edge 44, Type (0, 1), None
#     Edge 45, Type (0, 1), None
#     Edge 46, Type (0, 1), None
#     Edge 47, Type (0, 1), None
#     Edge 48, Type (0, 1), None
#     Edge 49, Type (0, 1), None
#     Edge 50, Type (0, 1), None
#     Edge 51, Type (0, 1), None
#     Edge 52, Type (0, 1), None
#     Edge 53, Type (0, 1), None
#     Edge 54, Type (0, 1), None
#     Edge 55, Type (0, 1), None
#     Edge 56, Type (0, 1), None
#     Edge 57, Type (0, 1), None
#     Edge 58, Type (0, 1), None
#     Edge 59, Type (0, 1), None
#     Edge 60, Type (0, 1), None
#     Edge 61, Type (0, 1), None
#     Edge 62, Type (0, 1), None
#     Edge 63, Type (0, 1), None
#     Edge 64, Type (0, 1), None
#     Edge 65, Type (0, 1), None
#     Edge 66, Type (0, 1), None
#     Edge 67, Type (0, 1), None
# Relax obj value: 0.634
# Max RMSD: 0.464
# Mean RMSD: 0.211
data_MOF--net-myd--node1-NAWXER_clean_sbu_0--node2-CUWYAW_clean_sbu_0--edge1-none
_symmetry_space_group_name_H-M    P1
_symmetry_Int_Tables_number       1
_symmetry_cell_setting            triclinic
loop_
_symmetry_equiv_pos_as_xyz
'x, y, z'
_cell_length_a     25.09638
_cell_length_b     23.122449
_cell_length_c     23.285789
_cell_angle_alpha  83.845919
_cell_angle_beta   86.421072
_cell_angle_gamma 75.332333
loop_
_atom_site_label
_atom_site_type_symbol
_atom_site_fract_x
_atom_site_fract_y
_atom_site_fract_z
_atom_type_partial_charge
C0 C 0.09386 0.27209 0.2953 0.0
C1 C 0.04973 0.41284 0.46023 0.0
O2 O 0.12897 0.29813 0.31197 0.0
Zn3 Zn 0.07806 0.34004 0.37133 0.0
O4 O 0.04574 0.28179 0.31844 0.0
Zn5 Zn 0.99654 0.32813 0.38409 0.0
O6 O 0.94833 0.37684 0.31667 0.0
O7 O 0.02891 0.39599 0.29881 0.0
O8 O 1.00818 0.39247 0.44895 0.0
O9 O 0.09373 0.39493 0.42959 0.0
O10 O 0.08177 0.25149 0.41932 0.0
O11 O 0.99698 0.24225 0.42388 0.0
C12 C 0.98 0.40107 0.28176 0.0
C13 C 0.04832 0.21769 0.4311 0.0
C14 C 0.04758 0.78974 0.28644 0.0
C15 C 1.01515 0.61263 0.22801 0.0
O16 O 0.08538 0.74758 0.26406 0.0
Zn17 Zn 0.0437 0.68701 0.27024 0.0
O18 O 0.02291 0.76128 0.32667 0.0
Zn19 Zn 0.9642 0.7156 0.31057 0.0
O20 O 0.94984 0.68365 0.38559 0.0
O21 O 0.03752 0.64631 0.36053 0.0
O22 O 0.9775 0.63998 0.26233 0.0
O23 O 0.06312 0.62229 0.22323 0.0
O24 O 0.9775 0.73879 0.21523 0.0
O25 O 0.90907 0.78148 0.26862 0.0
C26 C 0.99718 0.65055 0.39825 0.0
C27 C 0.94382 0.78723 0.22749 0.0
C28 C 0.43785 0.04004 0.24109 0.0
C29 C 0.28195 0.04308 0.41455 0.0
O30 O 0.42229 0.99352 0.26425 0.0
Zn31 Zn 0.3621 1.0154 0.3351 0.0
O32 O 0.4152 0.08901 0.26363 0.0
Zn33 Zn 0.35412 0.11438 0.33248 0.0
O34 O 0.39844 0.12078 0.4066 0.0
O35 O 0.40857 1.02406 0.40822 0.0
O36 O 0.29721 0.08858 0.39108 0.0
O37 O 0.30558 0.99171 0.39651 0.0
O38 O 0.29005 0.05328 0.28368 0.0
O39 O 0.28485 0.1494 0.27886 0.0
C40 C 0.41646 0.06805 0.43285 0.0
C41 C 0.26478 0.10671 0.26532 0.0
C42 C 0.72803 0.62384 0.40467 0.0
C43 C 0.58467 0.60105 0.54212 0.0
O44 O 0.7229 0.56969 0.41316 0.0
Zn45 Zn 0.66639 0.52231 0.45794 0.0
O46 O 0.69474 0.66527 0.42977 0.0
Zn47 Zn 0.64945 0.6151 0.46744 0.0
O48 O 0.69878 0.55495 0.53137 0.0
O49 O 0.70799 0.46158 0.50973 0.0
O50 O 0.59052 0.65047 0.51636 0.0
O51 O 0.60206 0.55214 0.51871 0.0
O52 O 0.63558 0.49517 0.3979 0.0
O53 O 0.61378 0.59414 0.39635 0.0
C54 C 0.71212 0.49798 0.54548 0.0
C55 C 0.61317 0.54651 0.37364 0.0
C56 C 0.36533 0.38941 0.95661 0.0
C57 C 0.47494 0.24322 0.06855 0.0
O58 O 0.39852 0.34241 0.94024 0.0
Zn59 Zn 0.44609 0.33897 1.00733 0.0
O60 O 0.38705 0.42256 0.98473 0.0
Zn61 Zn 0.42392 0.39231 0.07249 0.0
O62 O 0.47806 0.43901 0.08554 0.0
O63 O 0.49806 0.40735 1.00004 0.0
O64 O 0.45155 0.287 0.09959 0.0
O65 O 0.492 0.25795 1.01844 0.0
O66 O 0.36777 0.34183 0.06263 0.0
O67 O 0.34716 0.42506 0.10674 0.0
C68 C 0.50585 0.44075 1.03845 0.0
C69 C 0.33146 0.38488 0.08392 0.0
C70 C 0.25196 0.8725 0.5716 0.0
C71 C 0.42608 0.74147 0.65339 0.0
O72 O 0.2881 0.84723 0.53498 0.0
Zn73 Zn 0.36607 0.78432 0.53309 0.0
O74 O 0.26044 0.86024 0.62566 0.0
Zn75 Zn 0.3318 0.79967 0.62289 0.0
O76 O 0.37816 0.85746 0.58722 0.0
O77 O 0.4135 0.84034 0.49966 0.0
O78 O 0.38396 0.76145 0.68597 0.0
O79 O 0.42114 0.74512 0.59884 0.0
O80 O 0.34396 0.7152 0.50286 0.0
O81 O 0.30663 0.73103 0.58971 0.0
C82 C 0.40873 0.86938 0.54443 0.0
C83 C 0.31211 0.7027 0.54481 0.0
C84 C 0.85803 0.88138 0.44125 0.0
C85 C 0.96752 0.74286 0.56146 0.0
O86 O 0.89073 0.83306 0.42724 0.0
Zn87 Zn 0.93942 0.83306 0.49336 0.0
O88 O 0.88096 0.91625 0.46569 0.0
Zn89 Zn 0.91783 0.89294 0.55373 0.0
O90 O 0.97211 0.94104 0.56407 0.0
O91 O 0.9966 0.89709 0.48516 0.0
O92 O 0.94558 0.78994 0.58878 0.0
O93 O 0.98198 0.75157 0.50911 0.0
O94 O 0.86147 0.84079 0.54936 0.0
O95 O 0.84176 0.92778 0.5872 0.0
C96 C 1.00386 0.93473 0.51965 0.0
C97 C 0.82571 0.88552 0.56862 0.0
C98 C 0.48216 0.90656 0.77318 0.0
C99 C 0.54421 0.72489 0.93187 0.0
O100 O 0.4502 0.88124 0.80659 0.0
Zn101 Zn 0.49649 0.83204 0.87516 0.0
O102 O 0.53114 0.89982 0.79103 0.0
Zn103 Zn 0.57798 0.84396 0.86607 0.0
O104 O 0.63097 0.79808 0.81203 0.0
O105 O 0.54805 0.78132 0.81449 0.0
O106 O 0.57828 0.75789 0.91894 0.0
O107 O 0.49359 0.74897 0.92031 0.0
O108 O 0.50802 0.89817 0.93607 0.0
O109 O 0.59427 0.90064 0.92202 0.0
C110 C 0.59762 0.76997 0.79527 0.0
C111 C 0.5483 0.91947 0.94914 0.0
C112 C 0.49506 0.16419 0.87959 0.0
C113 C 0.58659 0.22504 0.76149 0.0
O114 O 0.45947 0.18724 0.84029 0.0
Zn115 Zn 0.47458 0.24149 0.7553 0.0
O116 O 0.54351 0.16801 0.86954 0.0
Zn117 Zn 0.54049 0.20571 0.79413 0.0
O118 O 0.48636 0.31893 0.78259 0.0
O119 O 0.48593 0.3215 0.78232 0.0
O120 O 0.62413 0.17819 0.7601 0.0
O121 O 0.55776 0.24251 0.71529 0.0
O122 O 0.44595 0.21132 0.69239 0.0
O123 O 0.51405 0.14697 0.73871 0.0
C124 C 0.49287 0.3606 0.74201 0.0
C125 C 0.47898 0.15934 0.69844 0.0
C126 C 0.7565 0.60264 0.77389 0.0
C127 C 0.91027 0.56903 0.94334 0.0
O128 O 0.77723 0.64571 0.78551 0.0
Zn129 Zn 0.84818 0.61614 0.84027 0.0
O130 O 0.78221 0.54967 0.79362 0.0
Zn131 Zn 0.856 0.51612 0.84559 0.0
O132 O 0.80072 0.49516 0.90919 0.0
O133 O 0.79274 0.5922 0.89959 0.0
O134 O 0.90244 0.52471 0.91915 0.0
O135 O 0.89259 0.62138 0.91601 0.0
O136 O 0.91123 0.58678 0.7749 0.0
O137 O 0.91921 0.49094 0.77756 0.0
C138 C 0.77772 0.54759 0.92514 0.0
C139 C 0.93551 0.53703 0.75453 0.0
C140 C 0.22822 0.12255 0.891 0.0
C141 C 0.09218 0.10453 1.03783 0.0
O142 O 0.22232 0.06875 0.90086 0.0
Zn143 Zn 0.16806 1.02265 0.95146 0.0
O144 O 0.19758 0.16453 0.9176 0.0
Zn145 Zn 0.15375 0.11529 0.95942 0.0
O146 O 0.2058 0.05496 1.02189 0.0
O147 O 0.21199 0.96189 1.00109 0.0
O148 O 0.09877 0.15308 1.01078 0.0
O149 O 0.10806 0.05481 1.01561 0.0
O150 O 0.13129 0.99459 0.89681 0.0
O151 O 0.11139 0.09359 0.8928 0.0
C152 C 0.21851 0.99794 1.03602 0.0
C153 C 0.10675 0.04551 0.87349 0.0
C154 C 0.81923 0.20306 1.04039 0.0
C155 C 0.90186 0.37368 1.0488 0.0
O156 O 0.81184 0.22836 0.08734 0.0
Zn157 Zn 0.83068 0.29766 0.12561 0.0
O158 O 0.84763 0.22204 0.9986 0.0
Zn159 Zn 0.86404 0.28914 1.03449 0.0
O160 O 0.92206 0.24814 0.09774 0.0
O161 O 0.88702 0.25867 0.18627 0.0
O162 O 0.90841 0.34635 1.00289 0.0
O163 O 0.87304 0.35872 0.09175 0.0
O164 O 0.75685 0.35751 0.12923 0.0
O165 O 0.78429 0.3506 1.03797 0.0
C166 C 0.92877 0.24171 0.15212 0.0
C167 C 0.74788 0.37353 0.07559 0.0
C168 C 0.04403 1.01563 0.2575 0.0
Eu169 Eu 0.08193 0.11013 0.21447 0.0
C170 C 0.07951 0.88449 0.29646 0.0
C171 C 0.09953 0.84291 0.23311 0.0
C172 C 0.04227 0.83273 0.1926 0.0
C173 C 0.97391 0.83747 0.23038 0.0
C174 C 0.96356 0.85748 0.30343 0.0
C175 C 0.02397 0.86561 0.34258 0.0
C176 C 0.08772 0.10143 0.10002 0.0
C177 C 0.21139 0.11803 0.2314 0.0
C178 C 0.17072 0.23394 1.04202 0.0
Eu179 Eu 0.12013 0.20559 0.1387 0.0
C180 C 0.21404 0.26663 1.02809 0.0
C181 C 0.25404 0.26056 0.0855 0.0
C182 C 0.27974 0.31301 0.10994 0.0
C183 C 0.27182 0.38376 0.07458 0.0
C184 C 0.21165 0.39248 0.9823 0.0
C185 C 0.19482 0.32611 0.97779 0.0
C186 C 0.0996 0.24622 0.24018 0.0
C187 C 0.98705 0.22163 0.17029 0.0
O188 O 0.05256 0.05916 0.2871 0.0
O189 O 0.03607 0.04318 0.20479 0.0
O190 O 0.11494 0.05877 0.13542 0.0
O191 O 0.06974 0.14644 0.12561 0.0
O192 O 0.17278 0.08754 0.247 0.0
O193 O 0.20053 0.16314 0.18962 0.0
O194 O 0.18481 0.18084 0.07141 0.0
O195 O 0.12476 0.26751 0.06294 0.0
O196 O 0.10001 0.28114 0.19207 0.0
O197 O 0.11503 0.18952 0.23432 0.0
O198 O 0.02568 0.23202 0.13108 0.0
O199 O 1.00111 0.18274 0.21599 0.0
H200 H 0.07736 0.83333 0.19846 0.0
H201 H 0.99816 0.84396 0.19512 0.0
H202 H 0.98906 0.86188 0.33231 0.0
H203 H 0.03124 0.86555 0.3916 0.0
H204 H 0.26017 0.21923 0.11357 0.0
H205 H 0.30448 0.29964 0.14798 0.0
H206 H 0.20007 0.42744 0.94654 0.0
H207 H 0.16701 0.32388 0.94489 0.0
C208 C 0.81726 0.59454 0.18383 0.0
Eu209 Eu 0.90558 0.52207 0.14542 0.0
C210 C 0.80208 0.617 0.24083 0.0
C211 C 0.83466 0.59167 0.28854 0.0
C212 C 0.81385 0.60221 0.34454 0.0
C213 C 0.76053 0.63827 0.35315 0.0
C214 C 0.73155 0.67041 0.30521 0.0
C215 C 0.75203 0.65922 0.24917 0.0
C216 C 0.96151 0.43132 0.22091 0.0
C217 C 0.99728 0.57846 0.18844 0.0
C218 C 0.11428 0.4561 0.07739 0.0
Eu219 Eu 1.00833 0.49187 0.09284 0.0
C220 C 0.17463 0.43371 0.06907 0.0
C221 C 0.21221 0.4775 1.03362 0.0
C222 C 0.27038 0.45773 0.99235 0.0
C223 C 0.30642 0.38829 0.97604 0.0
C224 C 0.28435 0.32407 1.00678 0.0
C225 C 0.19431 0.35976 0.0702 0.0
C226 C 0.94434 0.5565 0.99924 0.0
C227 C 0.92439 0.42359 0.05763 0.0
O228 O 0.85727 0.61321 0.15517 0.0
O229 O 0.82193 0.5369 0.18206 0.0
O230 O 0.9112 0.43736 0.20554 0.0
O231 O 0.98342 0.46993 0.18976 0.0
O232 O 0.95101 0.56402 0.2012 0.0
O233 O 0.02368 0.56517 0.14005 0.0
O234 O 0.08225 0.41913 0.09026 0.0
O235 O 0.08826 0.51263 0.06842 0.0
O236 O 0.9967 0.53213 0.99807 0.0
O237 O 0.92707 0.54517 1.05147 0.0
O238 O 0.97659 0.41427 0.07011 0.0
O239 O 0.88785 0.46955 0.07683 0.0
H240 H 0.87388 0.55956 0.28294 0.0
H241 H 0.83673 0.577 0.38098 0.0
H242 H 0.68999 0.69794 0.31086 0.0
H243 H 0.72675 0.6797 0.21277 0.0
H244 H 0.19474 0.52536 1.03343 0.0
H245 H 0.28703 0.49487 0.97427 0.0
H246 H 0.30977 0.27932 0.99971 0.0
H247 H 0.1689 0.33558 0.09793 0.0
C248 C 0.09633 0.09302 0.62378 0.0
Eu249 Eu 0.12447 0.03797 0.53142 0.0
C250 C 0.09482 0.0757 0.6858 0.0
C251 C 0.04315 0.08008 0.71491 0.0
C252 C 0.03717 0.06908 0.77452 0.0
C253 C 0.09269 0.05066 0.80724 0.0
C254 C 0.14541 0.04388 0.77362 0.0
C255 C 0.14468 0.05683 0.7147 0.0
C256 C 0.05283 0.9638 0.51463 0.0
C257 C 0.20535 0.92153 0.54969 0.0
C258 C 0.15604 0.96634 0.34834 0.0
Eu259 Eu 0.13851 1.01601 0.44357 0.0
C260 C 0.11439 0.96146 0.31389 0.0
C261 C 0.12439 0.94737 0.23869 0.0
C262 C 0.06577 0.93976 0.20036 0.0
C263 C 1.01038 0.91807 0.24367 0.0
C264 C 0.99012 0.96162 0.30431 0.0
C265 C 0.04577 0.96782 0.34796 0.0
C266 C 0.22707 0.05675 0.44632 0.0
C267 C 0.07173 0.15108 0.45132 0.0
O268 O 0.14509 0.08509 0.5984 0.0
O269 O 0.06098 0.07768 0.59357 0.0
O270 O 0.088 0.95548 0.55494 0.0
O271 O 0.05723 1.01127 0.48363 0.0
O272 O 0.1832 0.96486 0.58098 0.0
O273 O 0.19183 0.92933 0.49461 0.0
O274 O 0.154 0.93627 0.39853 0.0
O275 O 0.15664 1.02168 0.35154 0.0
O276 O 0.18574 0.08486 0.41564 0.0
O277 O 0.2115 1.02225 0.48638 0.0
O278 O 0.06899 0.10504 0.42365 0.0
O279 O 0.10667 0.13551 0.49221 0.0
H280 H 1.00578 0.09397 0.69079 0.0
H281 H 0.06069 0.05877 0.80056 0.0
H282 H 0.18473 1.03196 0.79443 0.0
H283 H 0.18408 0.05347 0.69169 0.0
H284 H 0.16323 0.94776 0.21591 0.0
H285 H 0.07033 0.93511 0.15425 0.0
H286 H 0.94821 0.97081 0.32234 0.0
H287 H 0.03672 0.98128 0.391 0.0
C288 C 0.15266 0.56248 0.59847 0.0
Eu289 Eu 0.05539 0.54466 0.57929 0.0
C290 C 0.19341 0.59646 0.57267 0.0
C291 C 0.25026 0.56821 0.57149 0.0
C292 C 0.2899 0.60147 0.55619 0.0
C293 C 0.27353 0.66377 0.54128 0.0
C294 C 0.21667 0.6913 0.53928 0.0
C295 C 0.17714 0.65821 0.55452 0.0
C296 C 0.04921 0.45548 0.50838 0.0
C297 C 1.00071 0.61263 0.45353 0.0
C298 C 0.87647 0.50564 0.57463 0.0
Eu299 Eu 0.94351 0.57136 0.56095 0.0
C300 C 0.83723 0.48653 0.61524 0.0
C301 C 0.79365 0.5297 0.63778 0.0
C302 C 0.74089 0.5218 0.6349 0.0
C303 C 0.73523 0.47626 0.60222 0.0
C304 C 0.77716 0.42341 0.60398 0.0
C305 C 0.83033 0.42922 0.60918 0.0
C306 C 0.95744 0.68169 0.57922 0.0
C307 C 0.96224 0.54159 0.69252 0.0
O308 O 0.1058 0.593 0.61936 0.0
O309 O 0.14629 0.51769 0.57252 0.0
O310 O 0.09296 0.45877 0.53331 0.0
O311 O 1.00987 0.49732 0.52661 0.0
O312 O 0.04257 0.60313 0.48948 0.0
O313 O 0.9553 0.59669 0.46981 0.0
O314 O 0.92784 0.48633 0.59021 0.0
O315 O 0.86262 0.56048 0.547 0.0
O316 O 0.91018 0.67101 0.56876 0.0
O317 O 0.99558 0.6328 0.57904 0.0
O318 O 0.92953 0.57701 0.65556 0.0
O319 O 1.01421 0.51656 0.67277 0.0
H320 H 0.26418 0.52081 0.58549 0.0
H321 H 0.33323 0.57923 0.55991 0.0
H322 H 0.20273 0.73952 0.52954 0.0
H323 H 0.13391 0.68168 0.55488 0.0
H324 H 0.79876 0.57337 0.64547 0.0
H325 H 0.70667 0.56035 0.63945 0.0
H326 H 0.77187 0.38435 0.58537 0.0
H327 H 0.86461 0.39399 0.5953 0.0
C328 C 0.30725 0.0842 0.66918 0.0
Eu329 Eu 0.40222 1.02357 0.63367 0.0
C330 C 0.29352 0.10835 0.72544 0.0
C331 C 0.32863 0.08547 0.77173 0.0
C332 C 0.3111 0.09935 0.82769 0.0
C333 C 0.25841 0.13602 0.83766 0.0
C334 C 0.22717 0.16621 0.79041 0.0
C335 C 0.24452 0.15189 0.73431 0.0
C336 C 0.46329 0.93903 0.71287 0.0
C337 C 0.47123 0.11115 0.66597 0.0
C338 C 0.61686 0.96683 0.58578 0.0
Eu339 Eu 0.50842 0.99967 0.58832 0.0
C340 C 0.67012 0.93735 0.558 0.0
C341 C 0.70851 0.97751 0.51825 0.0
C342 C 0.76499 0.95362 0.47574 0.0
C343 C 0.79858 0.88252 0.46228 0.0
C344 C 0.77475 0.82094 0.4971 0.0
C345 C 0.68674 0.86267 0.56193 0.0
C346 C 0.44837 0.05523 0.48985 0.0
C347 C 0.42988 0.92229 0.5496 0.0
O348 O 0.34112 0.10881 0.63612 0.0
O349 O 0.32011 1.02539 0.67058 0.0
O350 O 0.4159 0.93785 0.69417 0.0
O351 O 0.47959 0.98315 0.68414 0.0
O352 O 0.42913 0.08951 0.6806 0.0
O353 O 0.50674 0.08762 0.62587 0.0
O354 O 0.58479 0.93259 0.60762 0.0
O355 O 0.58875 1.01877 0.56279 0.0
O356 O 0.50115 1.03253 0.49133 0.0
O357 O 0.42846 0.04493 0.54108 0.0
O358 O 0.4809 0.91712 0.56561 0.0
O359 O 0.39123 0.96915 0.5634 0.0
H360 H 0.36745 0.05285 0.76548 0.0
H361 H 0.33575 0.07586 0.86363 0.0
H362 H 0.18614 0.19448 0.79731 0.0
H363 H 0.21778 0.17114 0.69874 0.0
H364 H 0.69428 1.02573 0.51837 0.0
H365 H 0.78275 0.98905 0.45528 0.0
H366 H 0.79859 0.77519 0.49147 0.0
H367 H 0.66096 0.84056 0.59154 0.0
C368 C 0.5307 0.50906 0.76434 0.0
Eu369 Eu 0.57307 0.60199 0.72013 0.0
C370 C 0.5872 0.38969 0.80906 0.0
C371 C 0.64556 0.35043 0.78453 0.0
C372 C 0.64586 0.29427 0.7702 0.0
C373 C 0.60343 0.26975 0.79265 0.0
C374 C 0.57865 0.28744 0.84634 0.0
C375 C 0.56829 0.3472 0.85685 0.0
C376 C 0.58033 0.59637 0.60463 0.0
C377 C 0.70269 0.61342 0.73922 0.0
C378 C 0.66077 0.73272 0.54155 0.0
Eu379 Eu 0.61682 0.69999 0.64093 0.0
C380 C 0.70277 0.76698 0.52485 0.0
C381 C 0.74445 0.76262 0.58025 0.0
C382 C 0.77283 0.81499 0.60014 0.0
C383 C 0.76606 0.88381 0.56157 0.0
C384 C 0.70294 0.89057 0.47241 0.0
C385 C 0.68352 0.82464 0.47245 0.0
C386 C 0.6088 0.73928 0.74295 0.0
C387 C 0.48303 0.72008 0.67364 0.0
O388 O 0.52845 0.55942 0.78981 0.0
O389 O 0.53111 0.5313 0.70946 0.0
O390 O 0.60451 0.55143 0.63965 0.0
O391 O 0.56494 0.64077 0.63154 0.0
O392 O 0.66255 0.5851 0.75641 0.0
O393 O 0.69592 0.65292 0.69227 0.0
O394 O 0.67751 0.67886 0.56929 0.0
O395 O 0.61579 0.76469 0.56596 0.0
O396 O 0.62288 0.7686 0.69584 0.0
O397 O 0.59586 0.68981 0.73494 0.0
O398 O 0.52264 0.73322 0.63709 0.0
O399 O 0.49412 0.67689 0.71653 0.0
H400 H 0.68099 0.36648 0.76796 0.0
H401 H 0.67566 0.27295 0.73843 0.0
H402 H 0.55775 0.26061 0.87528 0.0
H403 H 0.57269 0.37942 0.82998 0.0
H404 H 0.75021 0.72262 0.61022 0.0
H405 H 0.79878 0.80261 0.6373 0.0
H406 H 0.69161 0.9239 0.43531 0.0
H407 H 0.65468 0.82157 0.44095 0.0
C408 C 0.60735 0.60694 0.13344 0.0
Eu409 Eu 0.62358 0.54853 1.04283 0.0
C410 C 0.60841 0.58964 0.19493 0.0
C411 C 0.56217 0.61356 0.22956 0.0
C412 C 0.56134 0.59575 0.28836 0.0
C413 C 0.60637 0.55317 0.31222 0.0
C414 C 0.65256 0.52895 0.27746 0.0
C415 C 0.65373 0.54721 0.21899 0.0
C416 C 0.55136 0.47426 1.03367 0.0
C417 C 0.70118 0.42499 0.05563 0.0
C418 C 0.64883 0.4826 0.85494 0.0
Eu419 Eu 0.63444 0.52445 0.95368 0.0
C420 C 0.60651 0.47852 0.8208 0.0
C421 C 0.61989 0.45983 0.74681 0.0
C422 C 0.57144 0.42649 0.71427 0.0
C423 C 0.50937 0.41739 0.75383 0.0
C424 C 0.49312 0.44337 0.82418 0.0
C425 C 0.54235 0.47125 0.85945 0.0
C426 C 0.72449 0.56294 0.95868 0.0
C427 C 0.56639 0.65907 0.95693 0.0
O428 O 0.65466 0.5935 0.10511 0.0
O429 O 0.56747 0.59501 0.10731 0.0
O430 O 0.58468 0.47041 0.07492 0.0
O431 O 0.55543 0.51922 0.99859 0.0
O432 O 0.68255 0.46932 0.08736 0.0
O433 O 0.68531 0.43406 1.00124 0.0
O434 O 0.65 0.44849 0.9033 0.0
O435 O 0.64842 0.53738 0.86175 0.0
O436 O 0.68281 0.59358 0.92995 0.0
O437 O 0.70854 0.52738 0.99657 0.0
O438 O 0.56391 0.61149 0.93177 0.0
O439 O 0.60081 0.64549 0.99872 0.0
H440 H 0.52709 0.64642 0.21115 0.0
H441 H 0.5266 0.61652 0.31548 0.0
H442 H 0.68904 0.49866 0.29608 0.0
H443 H 0.69017 0.52857 0.19303 0.0
H444 H 0.65829 0.46282 0.72426 0.0
H445 H 0.58264 0.40718 0.67358 0.0
H446 H 0.45763 0.43435 0.84888 0.0
H447 H 0.53484 0.48064 0.90403 0.0
C448 C 0.64074 0.08792 0.05385 0.0
Eu449 Eu 0.54641 0.05925 0.059 0.0
C450 C 0.68939 0.11407 1.04859 0.0
C451 C 0.74382 0.07929 0.05607 0.0
C452 C 0.78845 0.10663 1.04812 0.0
C453 C 0.77904 0.1686 1.03129 0.0
C454 C 0.72501 0.20228 1.02184 0.0
C455 C 0.68094 0.17565 1.03072 0.0
C456 C 0.54155 0.96459 0.99577 0.0
C457 C 0.48529 0.13323 0.93689 0.0
C458 C 0.37432 1.0142 0.05796 0.0
Eu459 Eu 0.44321 0.07796 1.0449 0.0
C460 C 0.3436 0.98906 0.10464 0.0
C461 C 0.29982 1.02833 0.1316 0.0
C462 C 0.24752 1.02003 0.1267 0.0
C463 C 0.24295 0.97545 0.09201 0.0
C464 C 0.28615 0.92376 0.0917 0.0
C465 C 0.33875 0.93125 0.09715 0.0
C466 C 0.45705 0.18493 0.07349 0.0
C467 C 0.46062 0.0455 0.17746 0.0
O468 O 0.59707 0.11756 1.02666 0.0
O469 O 0.63363 0.04145 0.08822 0.0
O470 O 0.5788 0.9629 1.03274 0.0
O471 O 0.51014 1.01791 0.9918 0.0
O472 O 0.52777 0.11732 0.97174 0.0
O473 O 0.43892 0.12007 0.95411 0.0
O474 O 0.42766 0.99085 0.0587 0.0
O475 O 0.35871 0.07251 1.04133 0.0
O476 O 0.41992 0.17906 1.03895 0.0
O477 O 0.48361 0.13299 0.09574 0.0
O478 O 0.42383 0.07262 0.14026 0.0
O479 O 0.5137 1.03267 0.15697 0.0
H480 H 0.75173 1.0315 0.06865 0.0
H481 H 0.82974 0.08008 0.05727 0.0
H482 H 0.7164 0.25047 1.01102 0.0
H483 H 0.63977 0.20403 1.02448 0.0
H484 H 0.30369 0.07164 0.142 0.0
H485 H 0.21323 0.05815 0.13267 0.0
H486 H 0.28201 0.88523 0.0713 0.0
H487 H 0.3735 0.89816 0.08073 0.0
loop_
_geom_bond_atom_site_label_1
_geom_bond_atom_site_label_2
_geom_bond_distance
_geom_bond_site_symmetry_2
_ccdc_geom_bond_type
C0 O2 1.247 . S
C0 O4 1.258 1_455 S
C1 O8 1.247 . S
C1 O9 1.258 1_655 S
O2 C0 1.247 . S
O2 Zn3 2.028 . S
Zn3 O2 2.028 . S
Zn3 O7 2.035 . S
Zn3 O9 2.035 . S
Zn3 O10 2.028 . S
O4 C0 1.258 1_655 S
O4 Zn5 2.035 . S
Zn5 O4 2.035 . S
Zn5 O6 2.028 . S
Zn5 O8 2.028 . S
Zn5 O11 2.035 . S
O6 Zn5 2.028 . S
O6 C12 1.247 . S
O7 Zn3 2.035 . S
O7 C12 1.258 1_455 S
O8 C1 1.247 . S
O8 Zn5 2.028 . S
O9 C1 1.258 1_455 S
O9 Zn3 2.035 . S
O10 Zn3 2.028 . S
O10 C13 1.247 . S
O11 Zn5 2.035 . S
O11 C13 1.258 1_655 S
C12 O6 1.247 . S
C12 O7 1.258 1_655 S
C13 O10 1.247 . S
C13 O11 1.258 1_455 S
C14 O16 1.247 . S
C14 O18 1.258 1_455 S
C15 O22 1.247 . S
C15 O23 1.258 1_655 S
O16 C14 1.247 . S
O16 Zn17 2.028 . S
Zn17 O16 2.028 . S
Zn17 O21 2.035 . S
Zn17 O23 2.035 . S
Zn17 O24 2.028 . S
O18 C14 1.258 1_655 S
O18 Zn19 2.035 . S
Zn19 O18 2.035 . S
Zn19 O20 2.028 . S
Zn19 O22 2.028 . S
Zn19 O25 2.035 . S
O20 Zn19 2.028 . S
O20 C26 1.247 . S
O21 Zn17 2.035 . S
O21 C26 1.258 1_455 S
O22 C15 1.247 . S
O22 Zn19 2.028 . S
O23 C15 1.258 1_455 S
O23 Zn17 2.035 . S
O24 Zn17 2.028 . S
O24 C27 1.247 . S
O25 Zn19 2.035 . S
O25 C27 1.258 1_655 S
C26 O20 1.247 . S
C26 O21 1.258 1_655 S
C27 O24 1.247 . S
C27 O25 1.258 1_455 S
C28 O30 1.247 1_545 S
C28 O32 1.258 . S
C29 O36 1.247 1_565 S
C29 O37 1.258 . S
O30 C28 1.247 1_565 S
O30 Zn31 2.028 . S
Zn31 O30 2.028 . S
Zn31 O35 2.035 . S
Zn31 O37 2.035 . S
Zn31 O38 2.028 . S
O32 C28 1.258 . S
O32 Zn33 2.035 . S
Zn33 O32 2.035 . S
Zn33 O34 2.028 . S
Zn33 O36 2.028 . S
Zn33 O39 2.035 . S
O34 Zn33 2.028 . S
O34 C40 1.247 1_545 S
O35 Zn31 2.035 . S
O35 C40 1.258 . S
O36 C29 1.247 1_545 S
O36 Zn33 2.028 . S
O37 C29 1.258 . S
O37 Zn31 2.035 . S
O38 Zn31 2.028 . S
O38 C41 1.247 1_565 S
O39 Zn33 2.035 . S
O39 C41 1.258 . S
C40 O34 1.247 1_565 S
C40 O35 1.258 . S
C41 O38 1.247 1_545 S
C41 O39 1.258 . S
C42 O44 1.247 . S
C42 O46 1.258 . S
C43 O50 1.247 . S
C43 O51 1.258 . S
O44 C42 1.247 . S
O44 Zn45 2.028 . S
Zn45 O44 2.028 . S
Zn45 O49 2.035 . S
Zn45 O51 2.035 . S
Zn45 O52 2.028 . S
O46 C42 1.258 . S
O46 Zn47 2.035 . S
Zn47 O46 2.035 . S
Zn47 O48 2.028 . S
Zn47 O50 2.028 . S
Zn47 O53 2.035 . S
O48 Zn47 2.028 . S
O48 C54 1.247 . S
O49 Zn45 2.035 . S
O49 C54 1.258 . S
O50 C43 1.247 . S
O50 Zn47 2.028 . S
O51 C43 1.258 . S
O51 Zn45 2.035 . S
O52 Zn45 2.028 . S
O52 C55 1.247 . S
O53 Zn47 2.035 . S
O53 C55 1.258 . S
C54 O48 1.247 . S
C54 O49 1.258 . S
C55 O52 1.247 . S
C55 O53 1.258 . S
C56 O58 1.247 1_554 S
C56 O60 1.258 . S
C57 O64 1.247 1_556 S
C57 O65 1.258 . S
O58 C56 1.247 1_556 S
O58 Zn59 2.028 . S
Zn59 O58 2.028 . S
Zn59 O63 2.035 . S
Zn59 O65 2.035 . S
Zn59 O66 2.028 . S
O60 C56 1.258 . S
O60 Zn61 2.035 . S
Zn61 O60 2.035 . S
Zn61 O62 2.028 . S
Zn61 O64 2.028 . S
Zn61 O67 2.035 . S
O62 Zn61 2.028 . S
O62 C68 1.247 1_554 S
O63 Zn59 2.035 . S
O63 C68 1.258 . S
O64 C57 1.247 1_554 S
O64 Zn61 2.028 . S
O65 C57 1.258 . S
O65 Zn59 2.035 . S
O66 Zn59 2.028 . S
O66 C69 1.247 1_556 S
O67 Zn61 2.035 . S
O67 C69 1.258 . S
C68 O62 1.247 1_556 S
C68 O63 1.258 . S
C69 O66 1.247 1_554 S
C69 O67 1.258 . S
C70 O72 1.247 . S
C70 O74 1.258 . S
C71 O78 1.247 . S
C71 O79 1.258 . S
O72 C70 1.247 . S
O72 Zn73 2.028 . S
Zn73 O72 2.028 . S
Zn73 O77 2.035 . S
Zn73 O79 2.035 . S
Zn73 O80 2.028 . S
O74 C70 1.258 . S
O74 Zn75 2.035 . S
Zn75 O74 2.035 . S
Zn75 O76 2.028 . S
Zn75 O78 2.028 . S
Zn75 O81 2.035 . S
O76 Zn75 2.028 . S
O76 C82 1.247 . S
O77 Zn73 2.035 . S
O77 C82 1.258 . S
O78 C71 1.247 . S
O78 Zn75 2.028 . S
O79 C71 1.258 . S
O79 Zn73 2.035 . S
O80 Zn73 2.028 . S
O80 C83 1.247 . S
O81 Zn75 2.035 . S
O81 C83 1.258 . S
C82 O76 1.247 . S
C82 O77 1.258 . S
C83 O80 1.247 . S
C83 O81 1.258 . S
C84 O86 1.247 . S
C84 O88 1.258 . S
C85 O92 1.247 . S
C85 O93 1.258 . S
O86 C84 1.247 . S
O86 Zn87 2.028 . S
Zn87 O86 2.028 . S
Zn87 O91 2.035 . S
Zn87 O93 2.035 . S
Zn87 O94 2.028 . S
O88 C84 1.258 . S
O88 Zn89 2.035 . S
Zn89 O88 2.035 . S
Zn89 O90 2.028 . S
Zn89 O92 2.028 . S
Zn89 O95 2.035 . S
O90 Zn89 2.028 . S
O90 C96 1.247 . S
O91 Zn87 2.035 . S
O91 C96 1.258 . S
O92 C85 1.247 . S
O92 Zn89 2.028 . S
O93 C85 1.258 . S
O93 Zn87 2.035 . S
O94 Zn87 2.028 . S
O94 C97 1.247 . S
O95 Zn89 2.035 . S
O95 C97 1.258 . S
C96 O90 1.247 . S
C96 O91 1.258 . S
C97 O94 1.247 . S
C97 O95 1.258 . S
C98 O100 1.247 . S
C98 O102 1.258 . S
C99 O106 1.247 . S
C99 O107 1.258 . S
O100 C98 1.247 . S
O100 Zn101 2.028 . S
Zn101 O100 2.028 . S
Zn101 O105 2.035 . S
Zn101 O107 2.035 . S
Zn101 O108 2.028 . S
O102 C98 1.258 . S
O102 Zn103 2.035 . S
Zn103 O102 2.035 . S
Zn103 O104 2.028 . S
Zn103 O106 2.028 . S
Zn103 O109 2.035 . S
O104 Zn103 2.028 . S
O104 C110 1.247 . S
O105 Zn101 2.035 . S
O105 C110 1.258 . S
O106 C99 1.247 . S
O106 Zn103 2.028 . S
O107 C99 1.258 . S
O107 Zn101 2.035 . S
O108 Zn101 2.028 . S
O108 C111 1.247 . S
O109 Zn103 2.035 . S
O109 C111 1.258 . S
C110 O104 1.247 . S
C110 O105 1.258 . S
C111 O108 1.247 . S
C111 O109 1.258 . S
C112 O114 1.247 . S
C112 O116 1.258 . S
C113 O120 1.247 . S
C113 O121 1.258 . S
O114 C112 1.247 . S
O114 Zn115 2.028 . S
Zn115 O114 2.028 . S
Zn115 O119 2.035 . S
Zn115 O121 2.035 . S
Zn115 O122 2.028 . S
O116 C112 1.258 . S
O116 Zn117 2.035 . S
Zn117 O116 2.035 . S
Zn117 O118 2.028 . S
Zn117 O120 2.028 . S
Zn117 O123 2.035 . S
O118 Zn117 2.028 . S
O118 C124 1.247 . S
O119 Zn115 2.035 . S
O119 C124 1.258 . S
O120 C113 1.247 . S
O120 Zn117 2.028 . S
O121 C113 1.258 . S
O121 Zn115 2.035 . S
O122 Zn115 2.028 . S
O122 C125 1.247 . S
O123 Zn117 2.035 . S
O123 C125 1.258 . S
C124 O118 1.247 . S
C124 O119 1.258 . S
C125 O122 1.247 . S
C125 O123 1.258 . S
C126 O128 1.247 . S
C126 O130 1.258 . S
C127 O134 1.247 . S
C127 O135 1.258 . S
O128 C126 1.247 . S
O128 Zn129 2.028 . S
Zn129 O128 2.028 . S
Zn129 O133 2.035 . S
Zn129 O135 2.035 . S
Zn129 O136 2.028 . S
O130 C126 1.258 . S
O130 Zn131 2.035 . S
Zn131 O130 2.035 . S
Zn131 O132 2.028 . S
Zn131 O134 2.028 . S
Zn131 O137 2.035 . S
O132 Zn131 2.028 . S
O132 C138 1.247 . S
O133 Zn129 2.035 . S
O133 C138 1.258 . S
O134 C127 1.247 . S
O134 Zn131 2.028 . S
O135 C127 1.258 . S
O135 Zn129 2.035 . S
O136 Zn129 2.028 . S
O136 C139 1.247 . S
O137 Zn131 2.035 . S
O137 C139 1.258 . S
C138 O132 1.247 . S
C138 O133 1.258 . S
C139 O136 1.247 . S
C139 O137 1.258 . S
C140 O142 1.247 1_545 S
C140 O144 1.258 . S
C141 O148 1.247 . S
C141 O149 1.258 . S
O142 C140 1.247 1_565 S
O142 Zn143 2.028 . S
Zn143 O142 2.028 . S
Zn143 O147 2.035 1_565 S
Zn143 O149 2.035 1_565 S
Zn143 O150 2.028 1_565 S
O144 C140 1.258 . S
O144 Zn145 2.035 . S
Zn145 O144 2.035 . S
Zn145 O146 2.028 . S
Zn145 O148 2.028 . S
Zn145 O151 2.035 . S
O146 Zn145 2.028 . S
O146 C152 1.247 . S
O147 Zn143 2.035 1_545 S
O147 C152 1.258 . S
O148 C141 1.247 . S
O148 Zn145 2.028 . S
O149 C141 1.258 . S
O149 Zn143 2.035 1_545 S
O150 Zn143 2.028 1_545 S
O150 C153 1.247 . S
O151 Zn145 2.035 . S
O151 C153 1.258 . S
C152 O146 1.247 . S
C152 O147 1.258 . S
C153 O150 1.247 . S
C153 O151 1.258 . S
C154 O156 1.247 1_556 S
C154 O158 1.258 . S
C155 O162 1.247 1_554 S
C155 O163 1.258 . S
O156 C154 1.247 1_554 S
O156 Zn157 2.028 . S
Zn157 O156 2.028 . S
Zn157 O161 2.035 . S
Zn157 O163 2.035 . S
Zn157 O164 2.028 . S
O158 C154 1.258 . S
O158 Zn159 2.035 . S
Zn159 O158 2.035 . S
Zn159 O160 2.028 . S
Zn159 O162 2.028 . S
Zn159 O165 2.035 . S
O160 Zn159 2.028 . S
O160 C166 1.247 1_556 S
O161 Zn157 2.035 . S
O161 C166 1.258 . S
O162 C155 1.247 1_556 S
O162 Zn159 2.028 . S
O163 C155 1.258 . S
O163 Zn157 2.035 . S
O164 Zn157 2.028 . S
O164 C167 1.247 1_554 S
O165 Zn159 2.035 . S
O165 C167 1.258 . S
C166 O160 1.247 1_554 S
C166 O161 1.258 . S
C167 O164 1.247 1_556 S
C167 O165 1.258 . S
C168 Eu169 2.835 1_565 S
C168 C170 1.500 . S
C168 O188 1.257 . S
C168 O189 1.260 . S
Eu169 C168 2.835 1_545 S
Eu169 O188 2.473 1_545 S
Eu169 O189 2.480 1_545 S
Eu169 O190 2.430 . S
Eu169 O191 2.670 . S
Eu169 O192 2.394 1_545 S
Eu169 O197 2.355 . S
Eu169 O199 2.374 . S
C170 C168 1.500 . S
C170 C171 1.377 . S
C170 C175 1.377 . S
C171 C170 1.377 . S
C171 C172 1.395 . S
C171 H200 0.931 . S
C172 C171 1.395 . S
C172 C173 1.383 1_455 S
C172 H201 0.931 . S
C173 C172 1.383 1_655 S
C173 C174 1.393 1_655 S
C174 C173 1.393 1_455 S
C174 C175 1.378 . S
C174 H202 0.931 1_455 S
C175 C170 1.377 . S
C175 C174 1.378 . S
C175 H203 0.931 . S
C176 O190 1.259 . S
C176 O191 1.270 . S
C177 O192 1.251 1_545 S
C177 O193 1.251 . S
C178 Eu179 2.835 . S
C178 C180 1.498 1_554 S
C178 O194 1.257 . S
C178 O195 1.260 . S
Eu179 C178 2.835 . S
Eu179 O191 2.355 . S
Eu179 O193 2.374 . S
Eu179 O194 2.473 . S
Eu179 O195 2.480 . S
Eu179 O196 2.430 . S
Eu179 O197 2.670 . S
Eu179 O198 2.394 . S
C180 C178 1.498 1_556 S
C180 C181 1.374 1_556 S
C180 C185 1.383 . S
C181 C180 1.374 1_554 S
C181 C182 1.395 1_554 S
C181 H204 0.931 . S
C182 C181 1.395 1_556 S
C182 C183 1.383 . S
C182 H205 0.931 1_556 S
C183 C182 1.383 . S
C183 C184 1.394 . S
C184 C183 1.394 . S
C184 C185 1.378 . S
C184 H206 0.931 . S
C185 C180 1.383 . S
C185 C184 1.378 . S
C185 H207 0.931 . S
C186 O196 1.259 . S
C186 O197 1.270 . S
C187 O198 1.251 . S
C187 O199 1.251 . S
O188 C168 1.257 . S
O188 Eu169 2.473 1_565 S
O189 C168 1.260 . S
O189 Eu169 2.480 1_565 S
O190 Eu169 2.430 . S
O190 C176 1.259 . S
O191 Eu169 2.670 . S
O191 C176 1.270 . S
O191 Eu179 2.355 . S
O192 Eu169 2.394 1_565 S
O192 C177 1.251 1_565 S
O193 C177 1.251 . S
O193 Eu179 2.374 . S
O194 C178 1.257 . S
O194 Eu179 2.473 . S
O195 C178 1.260 . S
O195 Eu179 2.480 . S
O196 Eu179 2.430 . S
O196 C186 1.259 . S
O197 Eu169 2.355 . S
O197 Eu179 2.670 . S
O197 C186 1.270 . S
O198 Eu179 2.394 . S
O198 C187 1.251 . S
O199 Eu169 2.374 . S
O199 C187 1.251 . S
H200 C171 0.931 . S
H201 C172 0.931 . S
H202 C174 0.931 1_655 S
H203 C175 0.931 . S
H204 C181 0.931 . S
H205 C182 0.931 1_554 S
H206 C184 0.931 . S
H207 C185 0.931 . S
C208 Eu209 2.835 . S
C208 C210 1.500 . S
C208 O228 1.257 . S
C208 O229 1.260 . S
Eu209 C208 2.835 . S
Eu209 O228 2.473 . S
Eu209 O229 2.480 . S
Eu209 O230 2.430 . S
Eu209 O231 2.670 . S
Eu209 O232 2.394 . S
Eu209 O237 2.355 . S
Eu209 O239 2.374 . S
C210 C208 1.500 . S
C210 C211 1.377 . S
C210 C215 1.377 . S
C211 C210 1.377 . S
C211 C212 1.395 . S
C211 H240 0.931 . S
C212 C211 1.395 . S
C212 C213 1.383 . S
C212 H241 0.931 . S
C213 C212 1.383 . S
C213 C214 1.394 . S
C214 C213 1.394 . S
C214 C215 1.378 . S
C214 H242 0.931 . S
C215 C210 1.377 . S
C215 C214 1.378 . S
C215 H243 0.931 . S
C216 O230 1.259 . S
C216 O231 1.270 . S
C217 O232 1.251 . S
C217 O233 1.251 . S
C218 Eu219 2.835 1_556 S
C218 C220 1.500 . S
C218 O234 1.257 1_556 S
C218 O235 1.260 . S
Eu219 C218 2.835 1_554 S
Eu219 O231 2.355 1_455 S
Eu219 O233 2.374 1_455 S
Eu219 O234 2.473 . S
Eu219 O235 2.480 1_554 S
Eu219 O236 2.430 1_454 S
Eu219 O237 2.670 1_455 S
Eu219 O238 2.394 1_455 S
C220 C218 1.500 . S
C220 C221 1.377 . S
C220 C225 1.377 . S
C221 C220 1.377 . S
C221 C222 1.395 . S
C221 H244 0.931 . S
C222 C221 1.395 . S
C222 C223 1.383 . S
C222 H245 0.931 . S
C223 C222 1.383 . S
C223 C224 1.394 . S
C224 C223 1.394 . S
C224 C225 1.378 . S
C224 H246 0.931 . S
C225 C220 1.377 . S
C225 C224 1.378 . S
C225 H247 0.931 1_556 S
C226 O236 1.259 1_554 S
C226 O237 1.270 . S
C227 O238 1.251 . S
C227 O239 1.251 . S
O228 C208 1.257 . S
O228 Eu209 2.473 . S
O229 C208 1.260 . S
O229 Eu209 2.480 . S
O230 Eu209 2.430 . S
O230 C216 1.259 . S
O231 Eu209 2.670 . S
O231 C216 1.270 . S
O231 Eu219 2.355 1_655 S
O232 Eu209 2.394 . S
O232 C217 1.251 . S
O233 C217 1.251 . S
O233 Eu219 2.374 1_655 S
O234 C218 1.257 1_554 S
O234 Eu219 2.473 . S
O235 C218 1.260 . S
O235 Eu219 2.480 1_556 S
O236 Eu219 2.430 1_656 S
O236 C226 1.259 1_556 S
O237 Eu209 2.355 . S
O237 Eu219 2.670 1_655 S
O237 C226 1.270 . S
O238 Eu219 2.394 1_655 S
O238 C227 1.251 . S
O239 Eu209 2.374 . S
O239 C227 1.251 . S
H240 C211 0.931 . S
H241 C212 0.931 . S
H242 C214 0.931 . S
H243 C215 0.931 . S
H244 C221 0.931 . S
H245 C222 0.931 . S
H246 C224 0.931 . S
H247 C225 0.931 1_554 S
C248 Eu249 2.835 . S
C248 C250 1.500 . S
C248 O268 1.257 . S
C248 O269 1.260 . S
Eu249 C248 2.835 . S
Eu249 O268 2.473 . S
Eu249 O269 2.480 . S
Eu249 O270 2.430 1_445 S
Eu249 O271 2.670 1_545 S
Eu249 O272 2.394 1_545 S
Eu249 O277 2.358 . S
Eu249 O279 2.374 . S
C250 C248 1.500 . S
C250 C251 1.377 . S
C250 C255 1.377 . S
C251 C250 1.377 . S
C251 C252 1.395 . S
C251 H280 0.931 . S
C252 C251 1.395 . S
C252 C253 1.383 . S
C252 H281 0.931 . S
C253 C252 1.383 . S
C253 C254 1.394 . S
C254 C253 1.394 . S
C254 C255 1.378 . S
C254 H282 0.931 . S
C255 C250 1.377 . S
C255 C254 1.378 . S
C255 H283 0.931 . S
C256 O270 1.259 1_455 S
C256 O271 1.270 . S
C257 O272 1.251 . S
C257 O273 1.251 . S
C258 Eu259 2.835 . S
C258 C260 1.500 . S
C258 O274 1.257 . S
C258 O275 1.260 . S
Eu259 C258 2.835 . S
Eu259 O271 2.355 . S
Eu259 O273 2.374 . S
Eu259 O274 2.473 . S
Eu259 O275 2.480 . S
Eu259 O276 2.430 . S
Eu259 O277 2.656 1_565 S
Eu259 O278 2.394 1_565 S
C260 C258 1.500 . S
C260 C261 1.377 . S
C260 C265 1.377 1_455 S
C261 C260 1.377 . S
C261 C262 1.395 . S
C261 H284 0.931 . S
C262 C261 1.395 . S
C262 C263 1.383 1_455 S
C262 H285 0.931 . S
C263 C262 1.383 1_655 S
C263 C264 1.394 . S
C264 C263 1.394 . S
C264 C265 1.378 . S
C264 H286 0.931 . S
C265 C260 1.377 1_655 S
C265 C264 1.378 . S
C265 H287 0.931 . S
C266 O276 1.259 1_545 S
C266 O277 1.274 . S
C267 O278 1.251 . S
C267 O279 1.251 . S
O268 C248 1.257 . S
O268 Eu249 2.473 . S
O269 C248 1.260 . S
O269 Eu249 2.480 . S
O270 Eu249 2.430 1_665 S
O270 C256 1.259 1_655 S
O271 Eu249 2.670 1_565 S
O271 C256 1.270 . S
O271 Eu259 2.355 . S
O272 Eu249 2.394 1_565 S
O272 C257 1.251 . S
O273 C257 1.251 . S
O273 Eu259 2.374 . S
O274 C258 1.257 . S
O274 Eu259 2.473 . S
O275 C258 1.260 . S
O275 Eu259 2.480 . S
O276 Eu259 2.430 . S
O276 C266 1.259 1_565 S
O277 Eu249 2.358 . S
O277 Eu259 2.656 1_545 S
O277 C266 1.274 . S
O278 Eu259 2.394 1_545 S
O278 C267 1.251 . S
O279 Eu249 2.374 . S
O279 C267 1.251 . S
H280 C251 0.931 . S
H281 C252 0.931 . S
H282 C254 0.931 . S
H283 C255 0.931 . S
H284 C261 0.931 . S
H285 C262 0.931 . S
H286 C264 0.931 . S
H287 C265 0.931 . S
C288 Eu289 2.835 . S
C288 C290 1.500 . S
C288 O308 1.257 . S
C288 O309 1.260 . S
Eu289 C288 2.835 . S
Eu289 O308 2.473 . S
Eu289 O309 2.480 . S
Eu289 O310 2.430 . S
Eu289 O311 2.670 . S
Eu289 O312 2.394 . S
Eu289 O317 2.355 1_455 S
Eu289 O319 2.374 1_455 S
C290 C288 1.500 . S
C290 C291 1.377 . S
C290 C295 1.377 . S
C291 C290 1.377 . S
C291 C292 1.395 . S
C291 H320 0.931 . S
C292 C291 1.395 . S
C292 C293 1.383 . S
C292 H321 0.931 . S
C293 C292 1.383 . S
C293 C294 1.394 . S
C294 C293 1.394 . S
C294 C295 1.378 . S
C294 H322 0.931 . S
C295 C290 1.377 . S
C295 C294 1.378 . S
C295 H323 0.931 . S
C296 O310 1.259 . S
C296 O311 1.270 . S
C297 O312 1.251 . S
C297 O313 1.251 . S
C298 Eu299 2.835 . S
C298 C300 1.500 . S
C298 O314 1.257 . S
C298 O315 1.260 . S
Eu299 C298 2.835 . S
Eu299 O311 2.355 1_655 S
Eu299 O313 2.374 1_655 S
Eu299 O314 2.473 . S
Eu299 O315 2.480 . S
Eu299 O316 2.430 . S
Eu299 O317 2.670 . S
Eu299 O318 2.394 . S
C300 C298 1.500 . S
C300 C301 1.377 . S
C300 C305 1.377 . S
C301 C300 1.377 . S
C301 C302 1.395 . S
C301 H324 0.931 . S
C302 C301 1.395 . S
C302 C303 1.383 . S
C302 H325 0.931 . S
C303 C302 1.383 . S
C303 C304 1.394 . S
C304 C303 1.394 . S
C304 C305 1.378 . S
C304 H326 0.931 . S
C305 C300 1.377 . S
C305 C304 1.378 . S
C305 H327 0.931 . S
C306 O316 1.259 . S
C306 O317 1.270 . S
C307 O318 1.251 . S
C307 O319 1.251 . S
O308 C288 1.257 . S
O308 Eu289 2.473 . S
O309 C288 1.260 . S
O309 Eu289 2.480 . S
O310 Eu289 2.430 . S
O310 C296 1.259 . S
O311 Eu289 2.670 . S
O311 C296 1.270 . S
O311 Eu299 2.355 1_455 S
O312 Eu289 2.394 . S
O312 C297 1.251 . S
O313 C297 1.251 . S
O313 Eu299 2.374 1_455 S
O314 C298 1.257 . S
O314 Eu299 2.473 . S
O315 C298 1.260 . S
O315 Eu299 2.480 . S
O316 Eu299 2.430 . S
O316 C306 1.259 . S
O317 Eu289 2.355 1_655 S
O317 Eu299 2.670 . S
O317 C306 1.270 . S
O318 Eu299 2.394 . S
O318 C307 1.251 . S
O319 Eu289 2.374 1_655 S
O319 C307 1.251 . S
H320 C291 0.931 . S
H321 C292 0.931 . S
H322 C294 0.931 . S
H323 C295 0.931 . S
H324 C301 0.931 . S
H325 C302 0.931 . S
H326 C304 0.931 . S
H327 C305 0.931 . S
C328 Eu329 2.835 1_545 S
C328 C330 1.500 . S
C328 O348 1.257 . S
C328 O349 1.260 . S
Eu329 C328 2.835 1_565 S
Eu329 O348 2.473 1_565 S
Eu329 O349 2.480 1_565 S
Eu329 O350 2.430 . S
Eu329 O351 2.670 . S
Eu329 O352 2.394 1_565 S
Eu329 O357 2.355 1_565 S
Eu329 O359 2.374 . S
C330 C328 1.500 . S
C330 C331 1.377 . S
C330 C335 1.377 . S
C331 C330 1.377 . S
C331 C332 1.395 . S
C331 H360 0.931 . S
C332 C331 1.395 . S
C332 C333 1.383 . S
C332 H361 0.931 . S
C333 C332 1.383 . S
C333 C334 1.394 . S
C334 C333 1.394 . S
C334 C335 1.378 . S
C334 H362 0.931 . S
C335 C330 1.377 . S
C335 C334 1.378 . S
C335 H363 0.931 . S
C336 O350 1.259 . S
C336 O351 1.270 . S
C337 O352 1.251 . S
C337 O353 1.251 . S
C338 Eu339 2.835 1_565 S
C338 C340 1.500 . S
C338 O354 1.257 . S
C338 O355 1.260 . S
Eu339 C338 2.835 1_545 S
Eu339 O351 2.355 1_545 S
Eu339 O353 2.374 . S
Eu339 O354 2.473 1_545 S
Eu339 O355 2.480 1_545 S
Eu339 O356 2.430 . S
Eu339 O357 2.670 . S
Eu339 O358 2.394 1_545 S
C340 C338 1.500 . S
C340 C341 1.377 . S
C340 C345 1.377 . S
C341 C340 1.377 . S
C341 C342 1.395 . S
C341 H364 0.931 . S
C342 C341 1.395 . S
C342 C343 1.383 . S
C342 H365 0.931 . S
C343 C342 1.383 . S
C343 C344 1.394 . S
C344 C343 1.394 . S
C344 C345 1.378 . S
C344 H366 0.931 . S
C345 C340 1.377 . S
C345 C344 1.378 . S
C345 H367 0.931 . S
C346 O356 1.259 . S
C346 O357 1.270 . S
C347 O358 1.251 . S
C347 O359 1.251 . S
O348 C328 1.257 . S
O348 Eu329 2.473 1_545 S
O349 C328 1.260 . S
O349 Eu329 2.480 1_545 S
O350 Eu329 2.430 . S
O350 C336 1.259 . S
O351 Eu329 2.670 . S
O351 C336 1.270 . S
O351 Eu339 2.355 1_565 S
O352 Eu329 2.394 1_545 S
O352 C337 1.251 . S
O353 C337 1.251 . S
O353 Eu339 2.374 . S
O354 C338 1.257 . S
O354 Eu339 2.473 1_565 S
O355 C338 1.260 . S
O355 Eu339 2.480 1_565 S
O356 Eu339 2.430 . S
O356 C346 1.259 . S
O357 Eu329 2.355 1_545 S
O357 Eu339 2.670 . S
O357 C346 1.270 . S
O358 Eu339 2.394 1_565 S
O358 C347 1.251 . S
O359 Eu329 2.374 . S
O359 C347 1.251 . S
H360 C331 0.931 . S
H361 C332 0.931 . S
H362 C334 0.931 . S
H363 C335 0.931 . S
H364 C341 0.931 . S
H365 C342 0.931 . S
H366 C344 0.931 . S
H367 C345 0.931 . S
C368 Eu369 2.835 . S
C368 C370 1.500 . S
C368 O388 1.257 . S
C368 O389 1.260 . S
Eu369 C368 2.835 . S
Eu369 O388 2.473 . S
Eu369 O389 2.480 . S
Eu369 O390 2.430 . S
Eu369 O391 2.670 . S
Eu369 O392 2.394 . S
Eu369 O397 2.355 . S
Eu369 O399 2.374 . S
C370 C368 1.500 . S
C370 C371 1.377 . S
C370 C375 1.377 . S
C371 C370 1.377 . S
C371 C372 1.395 . S
C371 H400 0.931 . S
C372 C371 1.395 . S
C372 C373 1.383 . S
C372 H401 0.931 . S
C373 C372 1.383 . S
C373 C374 1.394 . S
C374 C373 1.394 . S
C374 C375 1.378 . S
C374 H402 0.931 . S
C375 C370 1.377 . S
C375 C374 1.378 . S
C375 H403 0.931 . S
C376 O390 1.259 . S
C376 O391 1.270 . S
C377 O392 1.251 . S
C377 O393 1.251 . S
C378 Eu379 2.835 . S
C378 C380 1.500 . S
C378 O394 1.257 . S
C378 O395 1.260 . S
Eu379 C378 2.835 . S
Eu379 O391 2.355 . S
Eu379 O393 2.374 . S
Eu379 O394 2.473 . S
Eu379 O395 2.480 . S
Eu379 O396 2.430 . S
Eu379 O397 2.670 . S
Eu379 O398 2.394 . S
C380 C378 1.500 . S
C380 C381 1.377 . S
C380 C385 1.377 . S
C381 C380 1.377 . S
C381 C382 1.395 . S
C381 H404 0.931 . S
C382 C381 1.395 . S
C382 C383 1.383 . S
C382 H405 0.931 . S
C383 C382 1.383 . S
C383 C384 1.394 . S
C384 C383 1.394 . S
C384 C385 1.378 . S
C384 H406 0.931 . S
C385 C380 1.377 . S
C385 C384 1.378 . S
C385 H407 0.931 . S
C386 O396 1.259 . S
C386 O397 1.270 . S
C387 O398 1.251 . S
C387 O399 1.251 . S
O388 C368 1.257 . S
O388 Eu369 2.473 . S
O389 C368 1.260 . S
O389 Eu369 2.480 . S
O390 Eu369 2.430 . S
O390 C376 1.259 . S
O391 Eu369 2.670 . S
O391 C376 1.270 . S
O391 Eu379 2.355 . S
O392 Eu369 2.394 . S
O392 C377 1.251 . S
O393 C377 1.251 . S
O393 Eu379 2.374 . S
O394 C378 1.257 . S
O394 Eu379 2.473 . S
O395 C378 1.260 . S
O395 Eu379 2.480 . S
O396 Eu379 2.430 . S
O396 C386 1.259 . S
O397 Eu369 2.355 . S
O397 Eu379 2.670 . S
O397 C386 1.270 . S
O398 Eu379 2.394 . S
O398 C387 1.251 . S
O399 Eu369 2.374 . S
O399 C387 1.251 . S
H400 C371 0.931 . S
H401 C372 0.931 . S
H402 C374 0.931 . S
H403 C375 0.931 . S
H404 C381 0.931 . S
H405 C382 0.931 . S
H406 C384 0.931 . S
H407 C385 0.931 . S
C408 Eu409 2.835 . S
C408 C410 1.500 . S
C408 O428 1.257 . S
C408 O429 1.260 . S
Eu409 C408 2.835 . S
Eu409 O428 2.473 . S
Eu409 O429 2.480 . S
Eu409 O430 2.430 . S
Eu409 O431 2.670 1_554 S
Eu409 O432 2.394 . S
Eu409 O437 2.355 1_554 S
Eu409 O439 2.374 1_554 S
C410 C408 1.500 . S
C410 C411 1.377 . S
C410 C415 1.377 . S
C411 C410 1.377 . S
C411 C412 1.395 . S
C411 H440 0.931 . S
C412 C411 1.395 . S
C412 C413 1.383 . S
C412 H441 0.931 . S
C413 C412 1.383 . S
C413 C414 1.394 . S
C414 C413 1.394 . S
C414 C415 1.378 . S
C414 H442 0.931 . S
C415 C410 1.377 . S
C415 C414 1.378 . S
C415 H443 0.931 . S
C416 O430 1.259 . S
C416 O431 1.270 1_554 S
C417 O432 1.251 . S
C417 O433 1.251 1_554 S
C418 Eu419 2.835 . S
C418 C420 1.500 . S
C418 O434 1.257 . S
C418 O435 1.260 . S
Eu419 C418 2.835 . S
Eu419 O431 2.355 . S
Eu419 O433 2.374 . S
Eu419 O434 2.473 . S
Eu419 O435 2.480 . S
Eu419 O436 2.430 . S
Eu419 O437 2.670 . S
Eu419 O438 2.394 . S
C420 C418 1.500 . S
C420 C421 1.377 . S
C420 C425 1.377 . S
C421 C420 1.377 . S
C421 C422 1.395 . S
C421 H444 0.931 . S
C422 C421 1.395 . S
C422 C423 1.383 . S
C422 H445 0.931 . S
C423 C422 1.383 . S
C423 C424 1.394 . S
C424 C423 1.394 . S
C424 C425 1.378 . S
C424 H446 0.931 . S
C425 C420 1.377 . S
C425 C424 1.378 . S
C425 H447 0.931 . S
C426 O436 1.259 . S
C426 O437 1.270 . S
C427 O438 1.251 . S
C427 O439 1.251 . S
O428 C408 1.257 . S
O428 Eu409 2.473 . S
O429 C408 1.260 . S
O429 Eu409 2.480 . S
O430 Eu409 2.430 . S
O430 C416 1.259 . S
O431 Eu409 2.670 1_556 S
O431 C416 1.270 1_556 S
O431 Eu419 2.355 . S
O432 Eu409 2.394 . S
O432 C417 1.251 . S
O433 C417 1.251 1_556 S
O433 Eu419 2.374 . S
O434 C418 1.257 . S
O434 Eu419 2.473 . S
O435 C418 1.260 . S
O435 Eu419 2.480 . S
O436 Eu419 2.430 . S
O436 C426 1.259 . S
O437 Eu409 2.355 1_556 S
O437 Eu419 2.670 . S
O437 C426 1.270 . S
O438 Eu419 2.394 . S
O438 C427 1.251 . S
O439 Eu409 2.374 1_556 S
O439 C427 1.251 . S
H440 C411 0.931 . S
H441 C412 0.931 . S
H442 C414 0.931 . S
H443 C415 0.931 . S
H444 C421 0.931 . S
H445 C422 0.931 . S
H446 C424 0.931 . S
H447 C425 0.931 . S
C448 Eu449 2.835 1_556 S
C448 C450 1.500 . S
C448 O468 1.257 1_556 S
C448 O469 1.260 1_546 S
Eu449 C448 2.835 1_554 S
Eu449 O468 2.473 . S
Eu449 O469 2.480 1_545 S
Eu449 O470 2.430 1_544 S
Eu449 O471 2.670 1_544 S
Eu449 O472 2.394 1_554 S
Eu449 O477 2.355 . S
Eu449 O479 2.374 1_545 S
C450 C448 1.500 . S
C450 C451 1.377 . S
C450 C455 1.377 . S
C451 C450 1.377 . S
C451 C452 1.395 . S
C451 H480 0.931 1_545 S
C452 C451 1.395 . S
C452 C453 1.383 . S
C452 H481 0.931 . S
C453 C452 1.383 . S
C453 C454 1.394 . S
C454 C453 1.394 . S
C454 C455 1.378 . S
C454 H482 0.931 . S
C455 C450 1.377 . S
C455 C454 1.378 . S
C455 H483 0.931 . S
C456 O470 1.259 . S
C456 O471 1.270 . S
C457 O472 1.251 . S
C457 O473 1.251 . S
C458 Eu459 2.835 1_554 S
C458 C460 1.500 1_545 S
C458 O474 1.257 1_544 S
C458 O475 1.260 1_554 S
Eu459 C458 2.835 1_556 S
Eu459 O471 2.355 1_545 S
Eu459 O473 2.374 . S
Eu459 O474 2.473 1_545 S
Eu459 O475 2.480 . S
Eu459 O476 2.430 1_556 S
Eu459 O477 2.670 1_556 S
Eu459 O478 2.394 1_556 S
C460 C458 1.500 1_565 S
C460 C461 1.377 1_565 S
C460 C465 1.377 . S
C461 C460 1.377 1_545 S
C461 C462 1.395 . S
C461 H484 0.931 . S
C462 C461 1.395 . S
C462 C463 1.383 1_545 S
C462 H485 0.931 . S
C463 C462 1.383 1_565 S
C463 C464 1.394 . S
C464 C463 1.394 . S
C464 C465 1.378 . S
C464 H486 0.931 . S
C465 C460 1.377 . S
C465 C464 1.378 . S
C465 H487 0.931 . S
C466 O476 1.259 . S
C466 O477 1.270 . S
C467 O478 1.251 1_565 S
C467 O479 1.251 . S
O468 C448 1.257 1_554 S
O468 Eu449 2.473 . S
O469 C448 1.260 1_564 S
O469 Eu449 2.480 1_565 S
O470 Eu449 2.430 1_566 S
O470 C456 1.259 . S
O471 Eu449 2.670 1_566 S
O471 C456 1.270 . S
O471 Eu459 2.355 1_565 S
O472 Eu449 2.394 1_556 S
O472 C457 1.251 . S
O473 C457 1.251 . S
O473 Eu459 2.374 . S
O474 C458 1.257 1_566 S
O474 Eu459 2.473 1_565 S
O475 C458 1.260 1_556 S
O475 Eu459 2.480 . S
O476 Eu459 2.430 1_554 S
O476 C466 1.259 . S
O477 Eu449 2.355 . S
O477 Eu459 2.670 1_554 S
O477 C466 1.270 . S
O478 Eu459 2.394 1_554 S
O478 C467 1.251 1_545 S
O479 Eu449 2.374 1_565 S
O479 C467 1.251 . S
H480 C451 0.931 1_565 S
H481 C452 0.931 . S
H482 C454 0.931 . S
H483 C455 0.931 . S
H484 C461 0.931 . S
H485 C462 0.931 . S
H486 C464 0.931 . S
H487 C465 0.931 . S
C13 C267 3.065 . S
C296 C1 4.834 1_455 S
C173 C27 2.843 1_655 S
C15 C217 1.575 . S
C28 C467 4.295 1_545 S
C55 C413 4.065 . S
C346 C40 4.311 1_545 S
C43 C376 1.850 . S
C223 C56 4.613 1_556 S
C293 C83 3.159 . S
C96 C256 3.500 1_655 S
C71 C387 2.081 . S
C427 C99 3.391 . S
C456 C111 4.177 . S
C113 C373 3.262 . S
C337 C125 1.745 . S
C139 C307 3.797 . S
C153 C253 3.583 . S
C226 C127 4.541 1_554 S
C141 C176 1.938 1_556 S
C343 C84 3.502 . S
C453 C154 3.179 . S
C68 C416 2.408 1_556 S
C166 C187 2.088 1_655 S
C186 C0 1.894 . S
C12 C216 2.828 . S
C263 C14 5.688 1_655 S
C297 C26 3.190 1_455 S
C41 C177 2.955 . S
C42 C213 3.243 . S
C266 C29 1.845 1_545 S
C54 C303 3.223 . S
C69 C183 5.073 1_554 S
C257 C70 4.272 . S
C85 C306 3.857 . S
C82 C347 1.540 . S
C386 C110 1.655 . S
C98 C336 2.833 . S
C124 C423 4.844 . S
C112 C457 3.626 . S
C126 C377 3.315 . S
C333 C140 3.136 . S
C138 C426 1.755 . S
C463 C152 3.139 1_564 S
C383 C97 4.323 . S
C417 C167 4.357 1_554 S
C466 C57 2.958 1_554 S
C155 C227 1.415 . S
