# Generated by pormake.
# Topology nia, (6,6)-cn, num edge types: 1
# Building blocks:
#     Node 0, Type 0, BuildingBlock: BETDAH_clean_sbu_0, # of connection points: 6
#     Node 1, Type 0, BuildingBlock: BETDAH_clean_sbu_0, # of connection points: 6
#     Node 2, Type 1, BuildingBlock: MIDCAF_clean_sbu_0, # of connection points: 6
#     Node 3, Type 1, BuildingBlock: MIDCAF_clean_sbu_0, # of connection points: 6
#     Edge 4, Type (0, 1), BuildingBlock: TEMPAE_clean_linker_10, # of connection points: 2
#     Edge 5, Type (0, 1), BuildingBlock: TEMPAE_clean_linker_10, # of connection points: 2
#     Edge 6, Type (0, 1), BuildingBlock: TEMPAE_clean_linker_10, # of connection points: 2
#     Edge 7, Type (0, 1), BuildingBlock: TEMPAE_clean_linker_10, # of connection points: 2
#     Edge 8, Type (0, 1), BuildingBlock: TEMPAE_clean_linker_10, # of connection points: 2
#     Edge 9, Type (0, 1), BuildingBlock: TEMPAE_clean_linker_10, # of connection points: 2
#     Edge 10, Type (0, 1), BuildingBlock: TEMPAE_clean_linker_10, # of connection points: 2
#     Edge 11, Type (0, 1), BuildingBlock: TEMPAE_clean_linker_10, # of connection points: 2
#     Edge 12, Type (0, 1), BuildingBlock: TEMPAE_clean_linker_10, # of connection points: 2
#     Edge 13, Type (0, 1), BuildingBlock: TEMPAE_clean_linker_10, # of connection points: 2
#     Edge 14, Type (0, 1), BuildingBlock: TEMPAE_clean_linker_10, # of connection points: 2
#     Edge 15, Type (0, 1), BuildingBlock: TEMPAE_clean_linker_10, # of connection points: 2
# Relax obj value: 0.326
# Max RMSD: 0.268
# Mean RMSD: 0.250
data_MOF--net-nia--node1-BETDAH_clean_sbu_0--node2-MIDCAF_clean_sbu_0--edge1-TEMPAE_clean_linker_10
_symmetry_space_group_name_H-M    P1
_symmetry_Int_Tables_number       1
_symmetry_cell_setting            triclinic
loop_
_symmetry_equiv_pos_as_xyz
'x, y, z'
_cell_length_a     25.666166
_cell_length_b     28.488017
_cell_length_c     34.782279
_cell_angle_alpha  72.784053
_cell_angle_beta   101.87713
_cell_angle_gamma 127.8608
loop_
_atom_site_label
_atom_site_type_symbol
_atom_site_fract_x
_atom_site_fract_y
_atom_site_fract_z
_atom_type_partial_charge
Ho0 Ho 0.0817 0.05982 0.02567 0.0
Ho1 Ho 0.96991 0.94219 0.9878 0.0
C2 C 0.97357 0.0643 0.96016 0.0
C3 C 0.18847 0.16216 0.03555 0.0
C4 C 0.19816 0.20953 0.05108 0.0
C5 C 0.21521 0.2647 0.02473 0.0
C6 C 0.21101 0.3046 0.03698 0.0
C7 C 0.19005 0.28968 0.07578 0.0
C8 C 0.17687 0.23628 0.10278 0.0
C9 C 0.18072 0.19646 0.09056 0.0
C10 C 0.96612 0.98788 0.06717 0.0
C11 C 0.07842 0.93855 0.05334 0.0
C12 C 0.86682 0.84113 0.97217 0.0
C13 C 0.86005 0.79863 0.9526 0.0
C14 C 0.81663 0.73586 0.96779 0.0
C15 C 0.81487 0.69534 0.95191 0.0
C16 C 0.85666 0.71722 0.92065 0.0
C17 C 0.89914 0.78008 0.90493 0.0
C18 C 0.90102 0.82053 0.92089 0.0
C19 C 0.08835 0.01642 0.94877 0.0
O20 O 0.03125 0.09578 0.97941 0.0
O21 O 0.93901 0.00492 0.9624 0.0
O22 O 0.16902 0.11066 0.06165 0.0
O23 O 0.15598 0.15442 1.00079 0.0
O24 O 0.02007 0.03771 0.07599 0.0
O25 O 0.97869 0.98023 0.03713 0.0
O26 O 0.01819 0.90599 0.0368 0.0
O27 O 0.11395 0.99847 0.04841 0.0
O28 O 0.88547 0.89429 0.949 0.0
O29 O 0.89787 0.84501 0.00741 0.0
O30 O 0.03634 0.96714 0.93835 0.0
O31 O 0.07125 0.02052 0.97809 0.0
H32 H 0.22875 0.27554 0.99414 0.0
H33 H 0.22221 0.34604 0.01585 0.0
H34 H 0.1629 0.22491 0.13334 0.0
H35 H 0.1675 0.15442 0.11172 0.0
H36 H 0.78511 0.71832 0.99243 0.0
H37 H 0.78103 0.64688 0.96415 0.0
H38 H 0.93209 0.798 0.88105 0.0
H39 H 0.9355 0.86894 0.90895 0.0
Ho40 Ho 1.00282 0.02995 0.53149 0.0
Ho41 Ho 0.07466 0.98511 0.50184 0.0
C42 C 0.9426 0.96289 0.45765 0.0
C43 C 0.96122 0.08942 0.53855 0.0
C44 C 0.92162 0.08653 0.56543 0.0
C45 C 0.8817 0.10599 0.54847 0.0
C46 C 0.84648 0.10763 0.57304 0.0
C47 C 0.85084 0.09009 0.61515 0.0
C48 C 0.8893 0.06873 0.63213 0.0
C49 C 0.92424 0.06663 0.6074 0.0
C50 C 0.9615 0.91368 0.57403 0.0
C51 C 0.13676 0.05319 0.5752 0.0
C52 C 0.11384 0.9248 0.49262 0.0
C53 C 0.16196 0.93479 0.46871 0.0
C54 C 0.18313 0.89745 0.4815 0.0
C55 C 0.22441 0.90226 0.45766 0.0
C56 C 0.24521 0.94457 0.42049 0.0
C57 C 0.22624 0.98396 0.40863 0.0
C58 C 0.18497 0.97919 0.43264 0.0
C59 C 0.11824 0.10257 0.46066 0.0
O60 O 0.95413 0.00682 0.47186 0.0
O61 O 0.97536 0.93895 0.47104 0.0
O62 O 0.01917 0.10228 0.55247 0.0
O63 O 0.92907 0.04696 0.51776 0.0
O64 O 0.94374 0.9442 0.58121 0.0
O65 O 1.00003 0.94821 0.54501 0.0
O66 O 0.12655 0.0105 0.56019 0.0
O67 O 0.10129 0.07468 0.56383 0.0
O68 O 0.06323 0.92219 0.47259 0.0
O69 O 0.1383 0.95614 0.5206 0.0
O70 O 0.13974 0.07386 0.45551 0.0
O71 O 0.07599 0.06623 0.48758 0.0
H72 H 0.87908 0.12143 0.51614 0.0
H73 H 0.81814 0.12523 0.55913 0.0
H74 H 0.89325 0.05475 0.6645 0.0
H75 H 0.95429 0.0508 0.62106 0.0
H76 H 0.16593 0.8631 0.50933 0.0
H77 H 0.2371 0.87052 0.46742 0.0
H78 H 0.24185 0.01725 0.38031 0.0
H79 H 0.1695 0.00885 0.42252 0.0
Zn80 Zn 0.39794 0.72219 0.18159 0.0
Zn81 Zn 0.3728 0.66367 0.32389 0.0
Zn82 Zn 0.39143 0.69049 0.25361 0.0
C83 C 0.51184 0.74079 0.31068 0.0
C84 C 0.31508 0.55023 0.32173 0.0
O85 O 0.33607 0.73515 0.22411 0.0
O86 O 0.36404 0.76988 0.16073 0.0
C87 C 0.52464 0.76608 0.19565 0.0
O88 O 0.49473 0.73853 0.27347 0.0
O89 O 0.46802 0.71268 0.33638 0.0
O90 O 0.32752 0.57817 0.34813 0.0
O91 O 0.3322 0.58183 0.28478 0.0
O92 O 0.48637 0.76044 0.16534 0.0
O93 O 0.5006 0.74469 0.23141 0.0
O94 O 0.32839 0.60145 0.24201 0.0
O95 O 0.32913 0.63786 0.17632 0.0
C96 C 0.30686 0.59335 0.20617 0.0
O97 O 0.35716 0.74025 0.26714 0.0
O98 O 0.33184 0.69888 0.33117 0.0
C99 C 0.33134 0.76186 0.18748 0.0
C100 C 0.33696 0.73698 0.2996 0.0
Zn101 Zn 0.66679 0.2404 0.88854 0.0
Zn102 Zn 0.67805 0.37329 0.67601 0.0
Zn103 Zn 0.67479 0.3271 0.77984 0.0
C104 C 0.74792 0.47185 0.71781 0.0
C105 C 0.55672 0.28198 0.73355 0.0
O106 O 0.72736 0.28025 0.79831 0.0
O107 O 0.68462 0.20575 0.85434 0.0
C108 C 0.75037 0.35437 0.86114 0.0
O109 O 0.72941 0.4316 0.75188 0.0
O110 O 0.73358 0.45621 0.68458 0.0
O111 O 0.60459 0.31799 0.71092 0.0
O112 O 0.5696 0.27555 0.7712 0.0
O113 O 0.74735 0.32559 0.89708 0.0
O114 O 0.71426 0.32284 0.83525 0.0
O115 O 0.57489 0.27327 0.8124 0.0
O116 O 0.57813 0.22689 0.87687 0.0
C117 C 0.5478 0.24062 0.84739 0.0
O118 O 0.70156 0.28756 0.74826 0.0
O119 O 0.71747 0.33046 0.68237 0.0
C120 C 0.72213 0.2341 0.82454 0.0
C121 C 0.71767 0.29338 0.71342 0.0
C122 C 0.0716 0.84498 0.09422 0.0
C123 C 0.10943 0.90797 0.07766 0.0
C124 C 0.10165 0.81672 0.11694 0.0
C125 C 0.17138 0.85192 0.12272 0.0
C126 C 0.20951 0.91561 0.10658 0.0
C127 C 0.17825 0.9427 0.08462 0.0
C128 C 0.05887 0.74893 0.13405 0.0
C129 C 0.28389 0.95511 0.11134 0.0
C130 C 0.26204 0.79331 0.19875 0.0
C131 C 0.285 0.77961 0.17359 0.0
C132 C 0.22337 0.81522 0.18316 0.0
C133 C 0.20555 0.82207 0.14145 0.0
C134 C 0.22514 0.80459 0.11646 0.0
C135 C 0.26462 0.78423 0.13264 0.0
C136 C 0.20379 0.83321 0.21106 0.0
C137 C 0.20638 0.8094 0.07208 0.0
H138 H 0.01843 0.8177 0.08951 0.0
H139 H 0.20831 0.99133 0.072 0.0
H140 H 0.06917 0.72612 0.11908 0.0
H141 H 0.07064 0.73903 0.16665 0.0
H142 H 0.0054 0.72879 0.12995 0.0
H143 H 0.30626 0.00428 0.09903 0.0
H144 H 0.29901 0.9486 0.14361 0.0
H145 H 0.30439 0.94144 0.09546 0.0
H146 H 0.27565 0.78867 0.23021 0.0
H147 H 0.28008 0.77224 0.1127 0.0
H148 H 0.1504 0.81309 0.20706 0.0
H149 H 0.23121 0.88346 0.20354 0.0
H150 H 0.21468 0.81869 0.24314 0.0
H151 H 0.15225 0.78551 0.06757 0.0
H152 H 0.22124 0.78976 0.05734 0.0
H153 H 0.23044 0.85798 0.0567 0.0
C154 C 0.21005 0.1299 0.61779 0.0
C155 C 0.19207 0.07956 0.6047 0.0
C156 C 0.26587 0.15861 0.64299 0.0
C157 C 0.30419 0.13613 0.65553 0.0
C158 C 0.28523 0.08416 0.64359 0.0
C159 C 0.22925 0.05639 0.6183 0.0
C160 C 0.28589 0.21498 0.65444 0.0
C161 C 0.32574 0.05963 0.65598 0.0
C162 C 0.4848 0.25453 0.67304 0.0
C163 C 0.49061 0.24481 0.71522 0.0
C164 C 0.42475 0.2185 0.65349 0.0
C165 C 0.36848 0.17179 0.67665 0.0
C166 C 0.37357 0.16126 0.71927 0.0
C167 C 0.43504 0.1981 0.73824 0.0
C168 C 0.42182 0.23088 0.60796 0.0
C169 C 0.31421 0.1114 0.74466 0.0
H170 H 0.1818 0.14823 0.60736 0.0
H171 H 0.21567 0.01739 0.60844 0.0
H172 H 0.29444 0.21048 0.68751 0.0
H173 H 0.33302 0.2552 0.64017 0.0
H174 H 0.24811 0.22386 0.64482 0.0
H175 H 0.30208 0.0167 0.64609 0.0
H176 H 0.37524 0.09387 0.64275 0.0
H177 H 0.33339 0.05108 0.68919 0.0
H178 H 0.52767 0.29028 0.6549 0.0
H179 H 0.43965 0.19006 0.7708 0.0
H180 H 0.3878 0.24383 0.59565 0.0
H181 H 0.40226 0.18915 0.59788 0.0
H182 H 0.47097 0.268 0.59472 0.0
H183 H 0.27763 0.12165 0.73885 0.0
H184 H 0.32748 0.10632 0.77736 0.0
H185 H 0.28986 0.06729 0.73632 0.0
C186 C 0.13145 0.30599 0.11295 0.0
C187 C 0.18453 0.33045 0.08941 0.0
C188 C 0.13304 0.34168 0.13398 0.0
C189 C 0.18857 0.40296 0.13067 0.0
C190 C 0.23879 0.4295 0.1035 0.0
C191 C 0.2363 0.39258 0.08326 0.0
C192 C 0.0784 0.31237 0.16229 0.0
C193 C 0.29812 0.49551 0.09844 0.0
C194 C 0.2113 0.52499 0.16723 0.0
C195 C 0.25954 0.53305 0.19764 0.0
C196 C 0.18138 0.47787 0.14724 0.0
C197 C 0.19959 0.4378 0.15897 0.0
C198 C 0.24127 0.44082 0.19342 0.0
C199 C 0.27244 0.48986 0.21181 0.0
C200 C 0.1379 0.47658 0.11037 0.0
C201 C 0.25954 0.39703 0.20766 0.0
H202 H 0.09051 0.25803 0.11674 0.0
H203 H 0.27718 0.41142 0.06496 0.0
H204 H 0.09496 0.3012 0.1935 0.0
H205 H 0.06622 0.34377 0.1618 0.0
H206 H 0.03292 0.26958 0.15474 0.0
H207 H 0.32755 0.51071 0.07227 0.0
H208 H 0.28259 0.52547 0.09436 0.0
H209 H 0.33057 0.50168 0.12595 0.0
H210 H 0.20196 0.55913 0.15638 0.0
H211 H 0.31076 0.49714 0.23486 0.0
H212 H 0.0978 0.42926 0.10708 0.0
H213 H 0.16822 0.50092 0.08319 0.0
H214 H 0.11573 0.49962 0.11128 0.0
H215 H 0.21567 0.34977 0.2068 0.0
H216 H 0.28122 0.39812 0.23881 0.0
H217 H 0.29646 0.40961 0.18738 0.0
C218 C 0.75709 0.08531 0.63175 0.0
C219 C 0.82095 0.10063 0.64077 0.0
C220 C 0.73362 0.10654 0.65007 0.0
C221 C 0.77542 0.14442 0.67765 0.0
C222 C 0.83767 0.15569 0.68933 0.0
C223 C 0.85968 0.13347 0.6708 0.0
C224 C 0.66652 0.09283 0.63725 0.0
C225 C 0.88379 0.19633 0.71833 0.0
C226 C 0.77061 0.27569 0.67294 0.0
C227 C 0.73522 0.25558 0.70713 0.0
C228 C 0.78249 0.23923 0.66281 0.0
C229 C 0.76003 0.18151 0.68807 0.0
C230 C 0.72463 0.16074 0.72284 0.0
C231 C 0.71177 0.19783 0.73168 0.0
C232 C 0.81853 0.26245 0.62465 0.0
C233 C 0.70068 0.0997 0.75069 0.0
H234 H 0.72671 0.05918 0.60891 0.0
H235 H 0.90925 0.14579 0.67768 0.0
H236 H 0.63955 0.08106 0.66368 0.0
H237 H 0.67264 0.13393 0.61669 0.0
H238 H 0.63598 0.05476 0.62124 0.0
H239 H 0.92436 0.19156 0.72993 0.0
H240 H 0.90607 0.24457 0.70271 0.0
H241 H 0.85652 0.18602 0.74412 0.0
H242 H 0.78831 0.31999 0.65343 0.0
H243 H 0.68182 0.1809 0.75699 0.0
H244 H 0.78728 0.23024 0.60435 0.0
H245 H 0.86449 0.26541 0.63192 0.0
H246 H 0.83173 0.3081 0.60805 0.0
H247 H 0.67921 0.06411 0.73343 0.0
H248 H 0.6631 0.08494 0.77138 0.0
H249 H 0.74321 0.10298 0.76906 0.0
C250 C 0.84279 0.90132 0.07622 0.0
C251 C 0.90284 0.94992 0.08956 0.0
C252 C 0.78337 0.86905 0.09687 0.0
C253 C 0.78341 0.88521 0.13198 0.0
C254 C 0.84443 0.93326 0.14594 0.0
C255 C 0.90268 0.96473 0.12472 0.0
C256 C 0.72 0.81864 0.0804 0.0
C257 C 0.84805 0.95267 0.18294 0.0
C258 C 0.62371 0.85415 0.15586 0.0
C259 C 0.59626 0.80099 0.18676 0.0
C260 C 0.68415 0.88189 0.13853 0.0
C261 C 0.71943 0.8562 0.1519 0.0
C262 C 0.69347 0.80375 0.18426 0.0
C263 C 0.63234 0.77674 0.20121 0.0
C264 C 0.70916 0.93792 0.10478 0.0
C265 C 0.72899 0.77467 0.19991 0.0
H266 H 0.8419 0.88935 0.04916 0.0
H267 H 0.94853 0.00196 0.1356 0.0
H268 H 0.69456 0.77677 0.10455 0.0
H269 H 0.68632 0.83225 0.06943 0.0
H270 H 0.72849 0.80783 0.05516 0.0
H271 H 0.89934 0.98934 0.19088 0.0
H272 H 0.81728 0.96929 0.17793 0.0
H273 H 0.82791 0.91312 0.20897 0.0
H274 H 0.59615 0.87305 0.144 0.0
H275 H 0.61129 0.73504 0.2243 0.0
H276 H 0.7118 0.92825 0.07687 0.0
H277 H 0.75984 0.97578 0.1124 0.0
H278 H 0.67708 0.95339 0.09847 0.0
H279 H 0.72958 0.75662 0.17589 0.0
H280 H 0.70526 0.73677 0.22666 0.0
H281 H 0.78112 0.80911 0.20808 0.0
C282 C 0.93132 0.83708 0.64008 0.0
C283 C 0.94179 0.85202 0.59873 0.0
C284 C 0.90528 0.77773 0.6639 0.0
C285 C 0.88618 0.7302 0.64609 0.0
C286 C 0.89739 0.74519 0.60427 0.0
C287 C 0.92588 0.80582 0.58134 0.0
C288 C 0.89677 0.76558 0.7082 0.0
C289 C 0.87652 0.69652 0.58322 0.0
C290 C 0.85307 0.57815 0.71081 0.0
C291 C 0.78393 0.53902 0.71324 0.0
C292 C 0.88705 0.6404 0.69038 0.0
C293 C 0.85139 0.66475 0.67074 0.0
C294 C 0.78173 0.62589 0.67443 0.0
C295 C 0.74928 0.56418 0.69539 0.0
C296 C 0.96109 0.67931 0.68805 0.0
C297 C 0.7407 0.64842 0.65402 0.0
H298 H 0.94315 0.87215 0.65395 0.0
H299 H 0.93254 0.81629 0.54936 0.0
H300 H 0.84343 0.73437 0.71469 0.0
H301 H 0.91967 0.74278 0.72603 0.0
H302 H 0.91918 0.80798 0.71842 0.0
H303 H 0.89196 0.71558 0.55144 0.0
H304 H 0.89773 0.67156 0.59933 0.0
H305 H 0.82197 0.66287 0.58358 0.0
H306 H 0.88039 0.55901 0.72256 0.0
H307 H 0.69575 0.53408 0.69519 0.0
H308 H 0.98388 0.72272 0.69695 0.0
H309 H 0.97463 0.69101 0.65656 0.0
H310 H 0.98233 0.65585 0.70769 0.0
H311 H 0.75824 0.68972 0.66389 0.0
H312 H 0.68744 0.61349 0.66051 0.0
H313 H 0.74631 0.66149 0.62094 0.0
C314 C 0.3264 0.93025 0.40722 0.0
C315 C 0.27896 0.94137 0.39249 0.0
C316 C 0.34518 0.91049 0.38396 0.0
C317 C 0.31576 0.90177 0.34509 0.0
C318 C 0.27441 0.92039 0.32831 0.0
C319 C 0.25622 0.93976 0.35229 0.0
C320 C 0.39079 0.89259 0.40279 0.0
C321 C 0.2434 0.91349 0.2867 0.0
C322 C 0.36982 0.84259 0.28893 0.0
C323 C 0.3243 0.77956 0.30274 0.0
C324 C 0.36606 0.88372 0.30061 0.0
C325 C 0.31588 0.86085 0.32671 0.0
C326 C 0.26751 0.79713 0.33846 0.0
C327 C 0.27247 0.75741 0.32638 0.0
C328 C 0.41822 0.95124 0.28724 0.0
C329 C 0.2128 0.77056 0.36606 0.0
H330 H 0.34553 0.93306 0.43794 0.0
H331 H 0.21974 0.94853 0.34053 0.0
H332 H 0.36125 0.84221 0.41258 0.0
H333 H 0.42645 0.9074 0.3807 0.0
H334 H 0.41866 0.91244 0.42948 0.0
H335 H 0.22582 0.94244 0.27469 0.0
H336 H 0.27894 0.92559 0.26559 0.0
H337 H 0.20035 0.86527 0.28794 0.0
H338 H 0.41042 0.85965 0.27103 0.0
H339 H 0.23743 0.70861 0.33709 0.0
H340 H 0.45438 0.96824 0.31247 0.0
H341 H 0.39613 0.97646 0.27892 0.0
H342 H 0.44526 0.96177 0.2612 0.0
H343 H 0.23421 0.78137 0.39606 0.0
H344 H 0.1769 0.72027 0.3702 0.0
H345 H 0.18571 0.79096 0.35388 0.0
C346 C 0.21255 0.09473 0.95166 0.0
C347 C 0.15476 0.05708 0.93025 0.0
C348 C 0.27568 0.12884 0.93542 0.0
C349 C 0.2816 0.12663 0.89631 0.0
C350 C 0.22296 0.09072 0.87396 0.0
C351 C 0.16072 0.05592 0.89134 0.0
C352 C 0.33624 0.16526 0.96088 0.0
C353 C 0.22595 0.08718 0.83211 0.0
C354 C 0.44986 0.24394 0.84446 0.0
C355 C 0.47703 0.21138 0.8543 0.0
C356 C 0.38632 0.21718 0.85753 0.0
C357 C 0.34857 0.1562 0.88061 0.0
C358 C 0.37518 0.12279 0.88916 0.0
C359 C 0.43861 0.15071 0.87626 0.0
C360 C 0.36038 0.25476 0.8477 0.0
C361 C 0.33724 0.05762 0.91292 0.0
H362 H 0.2086 0.09568 0.98181 0.0
H363 H 0.11642 0.02722 0.87443 0.0
H364 H 0.36402 0.14532 0.96852 0.0
H365 H 0.36952 0.21283 0.94381 0.0
H366 H 0.32368 0.16598 0.98933 0.0
H367 H 0.17665 0.06467 0.81651 0.0
H368 H 0.26011 0.13343 0.8136 0.0
H369 H 0.24535 0.06088 0.83393 0.0
H370 H 0.47932 0.29102 0.82811 0.0
H371 H 0.45897 0.12501 0.88409 0.0
H372 H 0.35548 0.26221 0.87592 0.0
H373 H 0.31048 0.23003 0.8331 0.0
H374 H 0.3933 0.29983 0.82752 0.0
H375 H 0.32768 0.05543 0.94332 0.0
H376 H 0.36407 0.03737 0.91638 0.0
H377 H 0.2886 0.02924 0.89781 0.0
C378 C 0.20123 0.20379 0.41725 0.0
C379 C 0.14245 0.16662 0.43855 0.0
C380 C 0.22615 0.26389 0.39544 0.0
C381 C 0.19125 0.28839 0.39375 0.0
C382 C 0.13101 0.25062 0.41465 0.0
C383 C 0.10773 0.19071 0.43699 0.0
C384 C 0.2911 0.30183 0.3749 0.0
C385 C 0.09138 0.27382 0.41374 0.0
C386 C 0.29635 0.46257 0.37794 0.0
C387 C 0.28467 0.48275 0.33702 0.0
C388 C 0.2652 0.40039 0.39647 0.0
C389 C 0.22158 0.35515 0.37378 0.0
C390 C 0.20978 0.37466 0.33226 0.0
C391 C 0.24022 0.43778 0.31471 0.0
C392 C 0.27911 0.3832 0.44078 0.0
C393 C 0.16481 0.32879 0.30633 0.0
H394 H 0.22873 0.18605 0.41809 0.0
H395 H 0.06201 0.16253 0.45288 0.0
H396 H 0.28524 0.31987 0.34262 0.0
H397 H 0.32815 0.34157 0.38876 0.0
H398 H 0.31075 0.27555 0.37715 0.0
H399 H 0.04399 0.23828 0.42935 0.0
H400 H 0.12049 0.31326 0.42836 0.0
H401 H 0.08065 0.2901 0.38211 0.0
H402 H 0.3299 0.49594 0.39618 0.0
H403 H 0.22723 0.45146 0.28414 0.0
H404 H 0.30236 0.35954 0.44509 0.0
H405 H 0.23222 0.3511 0.45714 0.0
H406 H 0.31224 0.42342 0.45472 0.0
H407 H 0.18636 0.30587 0.30401 0.0
H408 H 0.15722 0.35018 0.27546 0.0
H409 H 0.11615 0.29302 0.32036 0.0
C410 C 0.92312 0.11927 0.95261 0.0
C411 C 0.94571 0.09681 0.93487 0.0
C412 C 0.8922 0.14622 0.92917 0.0
C413 C 0.88536 0.15263 0.88667 0.0
C414 C 0.91086 0.13226 0.86859 0.0
C415 C 0.93961 0.10369 0.89291 0.0
C416 C 0.86436 0.1655 0.95014 0.0
C417 C 0.90687 0.13986 0.82354 0.0
C418 C 0.73832 0.15338 0.83829 0.0
C419 C 0.76605 0.21583 0.82627 0.0
C420 C 0.77699 0.13247 0.85596 0.0
C421 C 0.8459 0.17493 0.86193 0.0
C422 C 0.87516 0.23813 0.84686 0.0
C423 C 0.83488 0.25787 0.82929 0.0
C424 C 0.74295 0.06478 0.87129 0.0
C425 C 0.94842 0.28515 0.85187 0.0
H426 H 0.92753 0.11374 0.98506 0.0
H427 H 0.95748 0.08673 0.87909 0.0
H428 H 0.88392 0.21382 0.93702 0.0
H429 H 0.80987 0.1377 0.94554 0.0
H430 H 0.87621 0.16004 0.98303 0.0
H431 H 0.9333 0.12603 0.81376 0.0
H432 H 0.85448 0.1121 0.81303 0.0
H433 H 0.9284 0.18817 0.80858 0.0
H434 H 0.68505 0.1206 0.83672 0.0
H435 H 0.85667 0.30615 0.82119 0.0
H436 H 0.74714 0.05416 0.90467 0.0
H437 H 0.76708 0.05008 0.86 0.0
H438 H 0.68979 0.03763 0.86205 0.0
H439 H 0.96108 0.28801 0.88397 0.0
H440 H 0.9649 0.33104 0.83351 0.0
H441 H 0.97629 0.27188 0.84326 0.0
C442 C 0.85835 0.96651 0.40869 0.0
C443 C 0.88958 0.93829 0.42662 0.0
C444 C 0.80336 0.93996 0.38249 0.0
C445 C 0.77896 0.88374 0.37432 0.0
C446 C 0.8128 0.85709 0.39028 0.0
C447 C 0.86788 0.88479 0.4162 0.0
C448 C 0.76829 0.96956 0.36623 0.0
C449 C 0.78757 0.79664 0.38277 0.0
C450 C 0.59406 0.77316 0.36699 0.0
C451 C 0.58141 0.77639 0.32537 0.0
C452 C 0.65798 0.8081 0.38291 0.0
C453 C 0.71145 0.84696 0.35668 0.0
C454 C 0.69978 0.85005 0.31466 0.0
C455 C 0.63449 0.81482 0.29937 0.0
C456 C 0.66795 0.80367 0.42794 0.0
C457 C 0.756 0.89082 0.28598 0.0
H458 H 0.87534 0.00831 0.41617 0.0
H459 H 0.89193 0.86281 0.42973 0.0
H460 H 0.75491 0.96946 0.33382 0.0
H461 H 0.72179 0.94318 0.38242 0.0
H462 H 0.79889 0.01725 0.37006 0.0
H463 H 0.82436 0.7865 0.39233 0.0
H464 H 0.74209 0.75967 0.39988 0.0
H465 H 0.77444 0.79593 0.35041 0.0
H466 H 0.55363 0.7436 0.38758 0.0
H467 H 0.62512 0.81805 0.26728 0.0
H468 H 0.69269 0.84902 0.43446 0.0
H469 H 0.70035 0.78891 0.44049 0.0
H470 H 0.62072 0.77103 0.44403 0.0
H471 H 0.78362 0.93892 0.28805 0.0
H472 H 0.73862 0.88729 0.25425 0.0
H473 H 0.79117 0.87876 0.29445 0.0
C474 C 0.85643 0.62691 0.9317 0.0
C475 C 0.85621 0.67434 0.90488 0.0
C476 C 0.84916 0.58205 0.91759 0.0
C477 C 0.84178 0.58516 0.87563 0.0
C478 C 0.84594 0.63508 0.84826 0.0
C479 C 0.85312 0.67935 0.86327 0.0
C480 C 0.84474 0.5292 0.94777 0.0
C481 C 0.83917 0.63979 0.80336 0.0
C482 C 0.84218 0.4641 0.85303 0.0
C483 C 0.77455 0.41733 0.85369 0.0
C484 C 0.86525 0.52212 0.85586 0.0
C485 C 0.81929 0.53139 0.86139 0.0
C486 C 0.75062 0.48483 0.85942 0.0
C487 C 0.72909 0.42839 0.85488 0.0
C488 C 0.93859 0.57165 0.85619 0.0
C489 C 0.70002 0.49222 0.86638 0.0
H490 H 0.86052 0.62402 0.96385 0.0
H491 H 0.8533 0.71632 0.84254 0.0
H492 H 0.79403 0.48678 0.94665 0.0
H493 H 0.87912 0.52219 0.94025 0.0
H494 H 0.85646 0.5362 0.97905 0.0
H495 H 0.84696 0.68315 0.7863 0.0
H496 H 0.87524 0.63647 0.79376 0.0
H497 H 0.78919 0.60146 0.79528 0.0
H498 H 0.87682 0.45458 0.8522 0.0
H499 H 0.67676 0.39119 0.85578 0.0
H500 H 0.95724 0.57524 0.88769 0.0
H501 H 0.9497 0.61646 0.83947 0.0
H502 H 0.9658 0.56188 0.84273 0.0
H503 H 0.70441 0.4952 0.89813 0.0
H504 H 0.64872 0.45343 0.86044 0.0
H505 H 0.70883 0.53494 0.8469 0.0
loop_
_geom_bond_atom_site_label_1
_geom_bond_atom_site_label_2
_geom_bond_distance
_geom_bond_site_symmetry_2
_ccdc_geom_bond_type
Ho0 C3 2.811 . S
Ho0 O20 2.322 . S
Ho0 O22 2.378 . S
Ho0 O23 2.524 . S
Ho0 O24 2.381 1_445 S
Ho0 O25 2.669 1_445 S
Ho0 O27 2.346 1_545 S
Ho0 O31 2.305 1_554 S
Ho1 C12 2.811 . S
Ho1 O21 2.346 1_565 S
Ho1 O25 2.305 1_556 S
Ho1 O26 2.322 1_656 S
Ho1 O28 2.378 . S
Ho1 O29 2.524 . S
Ho1 O30 2.381 1_665 S
Ho1 O31 2.669 1_665 S
C2 O20 1.259 1_656 S
C2 O21 1.268 . S
C3 Ho0 2.811 . S
C3 C4 1.488 . S
C3 O22 1.215 . S
C3 O23 1.289 . S
C4 C3 1.488 . S
C4 C5 1.348 . S
C4 C9 1.413 . S
C5 C4 1.348 . S
C5 C6 1.442 . S
C5 H32 0.930 . S
C6 C5 1.442 . S
C6 C7 1.381 . S
C6 H33 0.931 . S
C7 C6 1.381 . S
C7 C8 1.321 . S
C8 C7 1.321 . S
C8 C9 1.403 . S
C8 H34 0.934 . S
C9 C4 1.413 . S
C9 C8 1.403 . S
C9 H35 0.930 . S
C10 O24 1.275 . S
C10 O25 1.256 . S
C11 O26 1.259 . S
C11 O27 1.268 . S
C12 Ho1 2.811 . S
C12 C13 1.488 . S
C12 O28 1.215 . S
C12 O29 1.289 . S
C13 C12 1.488 . S
C13 C14 1.348 . S
C13 C18 1.413 . S
C14 C13 1.348 . S
C14 C15 1.442 . S
C14 H36 0.930 1_556 S
C15 C14 1.442 . S
C15 C16 1.381 . S
C15 H37 0.931 . S
C16 C15 1.381 . S
C16 C17 1.321 . S
C17 C16 1.321 . S
C17 C18 1.403 . S
C17 H38 0.934 . S
C18 C13 1.413 . S
C18 C17 1.403 . S
C18 H39 0.930 . S
C19 O30 1.275 . S
C19 O31 1.256 . S
O20 Ho0 2.322 . S
O20 C2 1.259 1_454 S
O21 Ho1 2.346 1_545 S
O21 C2 1.268 . S
O22 Ho0 2.378 . S
O22 C3 1.215 . S
O23 Ho0 2.524 . S
O23 C3 1.289 . S
O24 Ho0 2.381 1_665 S
O24 C10 1.275 . S
O25 Ho0 2.669 1_665 S
O25 Ho1 2.305 1_554 S
O25 C10 1.256 . S
O26 Ho1 2.322 1_454 S
O26 C11 1.259 . S
O27 Ho0 2.346 1_565 S
O27 C11 1.268 . S
O28 Ho1 2.378 . S
O28 C12 1.215 . S
O29 Ho1 2.524 . S
O29 C12 1.289 . S
O30 Ho1 2.381 1_445 S
O30 C19 1.275 . S
O31 Ho0 2.305 1_556 S
O31 Ho1 2.669 1_445 S
O31 C19 1.256 . S
H32 C5 0.930 . S
H33 C6 0.931 . S
H34 C8 0.934 . S
H35 C9 0.930 . S
H36 C14 0.930 1_554 S
H37 C15 0.931 . S
H38 C17 0.934 . S
H39 C18 0.930 . S
Ho40 C43 2.811 1_455 S
Ho40 O60 2.322 1_445 S
Ho40 O62 2.378 1_455 S
Ho40 O63 2.524 1_455 S
Ho40 O64 2.381 1_445 S
Ho40 O65 2.669 1_545 S
Ho40 O67 2.346 . S
Ho40 O71 2.305 . S
Ho41 C52 2.811 . S
Ho41 O61 2.346 1_455 S
Ho41 O65 2.305 . S
Ho41 O66 2.322 1_565 S
Ho41 O68 2.378 1_565 S
Ho41 O69 2.524 . S
Ho41 O70 2.381 1_565 S
Ho41 O71 2.669 1_565 S
C42 O60 1.259 . S
C42 O61 1.268 . S
C43 Ho40 2.811 1_655 S
C43 C44 1.488 . S
C43 O62 1.215 . S
C43 O63 1.289 . S
C44 C43 1.488 . S
C44 C45 1.348 . S
C44 C49 1.413 . S
C45 C44 1.348 . S
C45 C46 1.442 . S
C45 H72 0.930 . S
C46 C45 1.442 . S
C46 C47 1.381 . S
C46 H73 0.931 . S
C47 C46 1.381 . S
C47 C48 1.321 . S
C48 C47 1.321 . S
C48 C49 1.403 . S
C48 H74 0.934 . S
C49 C44 1.413 . S
C49 C48 1.403 . S
C49 H75 0.930 1_545 S
C50 O64 1.275 . S
C50 O65 1.256 1_655 S
C51 O66 1.259 . S
C51 O67 1.268 . S
C52 Ho41 2.811 . S
C52 C53 1.488 . S
C52 O68 1.215 1_565 S
C52 O69 1.289 . S
C53 C52 1.488 . S
C53 C54 1.348 . S
C53 C58 1.413 1_565 S
C54 C53 1.348 . S
C54 C55 1.442 . S
C54 H76 0.930 . S
C55 C54 1.442 . S
C55 C56 1.381 . S
C55 H77 0.931 . S
C56 C55 1.381 . S
C56 C57 1.321 . S
C57 C56 1.321 . S
C57 C58 1.403 1_565 S
C57 H78 0.934 1_565 S
C58 C53 1.413 1_545 S
C58 C57 1.403 1_545 S
C58 H79 0.930 . S
C59 O70 1.275 . S
C59 O71 1.256 . S
O60 Ho40 2.322 1_665 S
O60 C42 1.259 . S
O61 Ho41 2.346 1_655 S
O61 C42 1.268 . S
O62 Ho40 2.378 1_655 S
O62 C43 1.215 . S
O63 Ho40 2.524 1_655 S
O63 C43 1.289 . S
O64 Ho40 2.381 1_665 S
O64 C50 1.275 . S
O65 Ho40 2.669 1_565 S
O65 Ho41 2.305 . S
O65 C50 1.256 1_455 S
O66 Ho41 2.322 1_545 S
O66 C51 1.259 . S
O67 Ho40 2.346 . S
O67 C51 1.268 . S
O68 Ho41 2.378 1_545 S
O68 C52 1.215 1_545 S
O69 Ho41 2.524 . S
O69 C52 1.289 . S
O70 Ho41 2.381 1_545 S
O70 C59 1.275 . S
O71 Ho40 2.305 . S
O71 Ho41 2.669 1_545 S
O71 C59 1.256 . S
H72 C45 0.930 . S
H73 C46 0.931 . S
H74 C48 0.934 . S
H75 C49 0.930 1_565 S
H76 C54 0.930 . S
H77 C55 0.931 . S
H78 C57 0.934 1_545 S
H79 C58 0.930 . S
Zn80 O86 1.920 . S
Zn80 O92 1.898 . S
Zn80 O95 1.905 . S
Zn81 O89 1.905 . S
Zn81 O90 1.898 . S
Zn81 O98 1.920 . S
Zn82 O85 2.080 . S
Zn82 O88 2.114 . S
Zn82 O91 2.120 . S
Zn82 O93 2.120 . S
Zn82 O94 2.114 . S
Zn82 O97 2.080 . S
C83 O88 1.166 . S
C83 O89 1.182 . S
C84 O90 1.167 . S
C84 O91 1.299 . S
O85 Zn82 2.080 . S
O85 C99 1.305 . S
O86 Zn80 1.920 . S
O86 C99 1.234 . S
C87 O92 1.167 . S
C87 O93 1.299 . S
O88 Zn82 2.114 . S
O88 C83 1.166 . S
O89 Zn81 1.905 . S
O89 C83 1.182 . S
O90 Zn81 1.898 . S
O90 C84 1.167 . S
O91 Zn82 2.120 . S
O91 C84 1.299 . S
O92 Zn80 1.898 . S
O92 C87 1.167 . S
O93 Zn82 2.120 . S
O93 C87 1.299 . S
O94 Zn82 2.114 . S
O94 C96 1.166 . S
O95 Zn80 1.905 . S
O95 C96 1.182 . S
C96 O94 1.166 . S
C96 O95 1.182 . S
O97 Zn82 2.080 . S
O97 C100 1.305 . S
O98 Zn81 1.920 . S
O98 C100 1.234 . S
C99 O85 1.305 . S
C99 O86 1.234 . S
C100 O97 1.305 . S
C100 O98 1.234 . S
Zn101 O107 1.920 . S
Zn101 O113 1.898 . S
Zn101 O116 1.905 . S
Zn102 O110 1.905 . S
Zn102 O111 1.898 . S
Zn102 O119 1.920 . S
Zn103 O106 2.080 . S
Zn103 O109 2.114 . S
Zn103 O112 2.120 . S
Zn103 O114 2.120 . S
Zn103 O115 2.114 . S
Zn103 O118 2.080 . S
C104 O109 1.166 . S
C104 O110 1.182 . S
C105 O111 1.167 . S
C105 O112 1.299 . S
O106 Zn103 2.080 . S
O106 C120 1.305 . S
O107 Zn101 1.920 . S
O107 C120 1.234 . S
C108 O113 1.167 . S
C108 O114 1.299 . S
O109 Zn103 2.114 . S
O109 C104 1.166 . S
O110 Zn102 1.905 . S
O110 C104 1.182 . S
O111 Zn102 1.898 . S
O111 C105 1.167 . S
O112 Zn103 2.120 . S
O112 C105 1.299 . S
O113 Zn101 1.898 . S
O113 C108 1.167 . S
O114 Zn103 2.120 . S
O114 C108 1.299 . S
O115 Zn103 2.114 . S
O115 C117 1.166 . S
O116 Zn101 1.905 . S
O116 C117 1.182 . S
C117 O115 1.166 . S
C117 O116 1.182 . S
O118 Zn103 2.080 . S
O118 C121 1.305 . S
O119 Zn102 1.920 . S
O119 C121 1.234 . S
C120 O106 1.305 . S
C120 O107 1.234 . S
C121 O118 1.305 . S
C121 O119 1.234 . S
C122 C123 1.391 . S
C122 C124 1.394 . S
C122 H138 0.931 . S
C123 C122 1.391 . S
C123 C127 1.376 . S
C124 C122 1.394 . S
C124 C125 1.369 . S
C124 C128 1.531 . S
C125 C124 1.369 . S
C125 C126 1.410 . S
C125 C133 1.503 . S
C126 C125 1.410 . S
C126 C127 1.392 . S
C126 C129 1.511 . S
C127 C123 1.376 . S
C127 C126 1.392 . S
C127 H139 0.929 . S
C128 C124 1.531 . S
C128 H140 0.960 . S
C128 H141 0.962 . S
C128 H142 0.960 . S
C129 C126 1.511 . S
C129 H143 0.961 . S
C129 H144 0.961 . S
C129 H145 0.961 . S
C130 C131 1.370 . S
C130 C132 1.363 . S
C130 H146 0.931 . S
C131 C130 1.370 . S
C131 C135 1.408 . S
C132 C130 1.363 . S
C132 C133 1.370 . S
C132 C136 1.524 . S
C133 C125 1.503 . S
C133 C132 1.370 . S
C133 C134 1.403 . S
C134 C133 1.403 . S
C134 C135 1.404 . S
C134 C137 1.539 . S
C135 C131 1.408 . S
C135 C134 1.404 . S
C135 H147 0.930 . S
C136 C132 1.524 . S
C136 H148 0.956 . S
C136 H149 0.961 . S
C136 H150 0.961 . S
C137 C134 1.539 . S
C137 H151 0.958 . S
C137 H152 0.961 . S
C137 H153 0.960 . S
H138 C122 0.931 . S
H139 C127 0.929 . S
H140 C128 0.960 . S
H141 C128 0.962 . S
H142 C128 0.960 . S
H143 C129 0.961 . S
H144 C129 0.961 . S
H145 C129 0.961 . S
H146 C130 0.931 . S
H147 C135 0.930 . S
H148 C136 0.956 . S
H149 C136 0.961 . S
H150 C136 0.961 . S
H151 C137 0.958 . S
H152 C137 0.961 . S
H153 C137 0.960 . S
C154 C155 1.391 . S
C154 C156 1.394 . S
C154 H170 0.931 . S
C155 C154 1.391 . S
C155 C159 1.376 . S
C156 C154 1.394 . S
C156 C157 1.369 . S
C156 C160 1.531 . S
C157 C156 1.369 . S
C157 C158 1.410 . S
C157 C165 1.503 . S
C158 C157 1.410 . S
C158 C159 1.392 . S
C158 C161 1.511 . S
C159 C155 1.376 . S
C159 C158 1.392 . S
C159 H171 0.922 1_545 S
C160 C156 1.531 . S
C160 H172 0.960 . S
C160 H173 0.962 . S
C160 H174 0.960 . S
C161 C158 1.511 . S
C161 H175 0.961 . S
C161 H176 0.961 . S
C161 H177 0.961 1_545 S
C162 C163 1.370 . S
C162 C164 1.363 . S
C162 H178 0.931 . S
C163 C162 1.370 . S
C163 C167 1.408 . S
C164 C162 1.363 . S
C164 C165 1.370 . S
C164 C168 1.524 . S
C165 C157 1.503 . S
C165 C164 1.370 . S
C165 C166 1.403 . S
C166 C165 1.403 . S
C166 C167 1.404 . S
C166 C169 1.539 . S
C167 C163 1.408 . S
C167 C166 1.404 . S
C167 H179 0.930 . S
C168 C164 1.524 . S
C168 H180 0.956 . S
C168 H181 0.961 . S
C168 H182 0.961 . S
C169 C166 1.539 . S
C169 H183 0.958 . S
C169 H184 0.961 . S
C169 H185 0.960 . S
H170 C154 0.931 . S
H171 C159 0.922 1_565 S
H172 C160 0.960 . S
H173 C160 0.962 . S
H174 C160 0.960 . S
H175 C161 0.961 . S
H176 C161 0.961 . S
H177 C161 0.961 1_565 S
H178 C162 0.931 . S
H179 C167 0.930 . S
H180 C168 0.956 . S
H181 C168 0.961 . S
H182 C168 0.961 . S
H183 C169 0.958 . S
H184 C169 0.961 . S
H185 C169 0.960 . S
C186 C187 1.391 . S
C186 C188 1.394 . S
C186 H202 0.931 . S
C187 C186 1.391 . S
C187 C191 1.376 . S
C188 C186 1.394 . S
C188 C189 1.369 . S
C188 C192 1.531 . S
C189 C188 1.369 . S
C189 C190 1.410 . S
C189 C197 1.503 . S
C190 C189 1.410 . S
C190 C191 1.392 . S
C190 C193 1.511 . S
C191 C187 1.376 . S
C191 C190 1.392 . S
C191 H203 0.929 . S
C192 C188 1.531 . S
C192 H204 0.960 . S
C192 H205 0.962 . S
C192 H206 0.960 . S
C193 C190 1.511 . S
C193 H207 0.961 . S
C193 H208 0.961 . S
C193 H209 0.961 . S
C194 C195 1.370 . S
C194 C196 1.363 . S
C194 H210 0.931 . S
C195 C194 1.370 . S
C195 C199 1.408 . S
C196 C194 1.363 . S
C196 C197 1.370 . S
C196 C200 1.524 . S
C197 C189 1.503 . S
C197 C196 1.370 . S
C197 C198 1.403 . S
C198 C197 1.403 . S
C198 C199 1.404 . S
C198 C201 1.539 . S
C199 C195 1.408 . S
C199 C198 1.404 . S
C199 H211 0.930 . S
C200 C196 1.524 . S
C200 H212 0.956 . S
C200 H213 0.961 . S
C200 H214 0.961 . S
C201 C198 1.539 . S
C201 H215 0.958 . S
C201 H216 0.961 . S
C201 H217 0.960 . S
H202 C186 0.931 . S
H203 C191 0.929 . S
H204 C192 0.960 . S
H205 C192 0.962 . S
H206 C192 0.960 . S
H207 C193 0.961 . S
H208 C193 0.961 . S
H209 C193 0.961 . S
H210 C194 0.931 . S
H211 C199 0.930 . S
H212 C200 0.956 . S
H213 C200 0.961 . S
H214 C200 0.961 . S
H215 C201 0.958 . S
H216 C201 0.961 . S
H217 C201 0.960 . S
C218 C219 1.391 . S
C218 C220 1.394 . S
C218 H234 0.931 . S
C219 C218 1.391 . S
C219 C223 1.376 . S
C220 C218 1.394 . S
C220 C221 1.369 . S
C220 C224 1.531 . S
C221 C220 1.369 . S
C221 C222 1.410 . S
C221 C229 1.503 . S
C222 C221 1.410 . S
C222 C223 1.392 . S
C222 C225 1.511 . S
C223 C219 1.376 . S
C223 C222 1.392 . S
C223 H235 0.929 . S
C224 C220 1.531 . S
C224 H236 0.960 . S
C224 H237 0.962 . S
C224 H238 0.960 . S
C225 C222 1.511 . S
C225 H239 0.961 . S
C225 H240 0.961 . S
C225 H241 0.961 . S
C226 C227 1.370 . S
C226 C228 1.363 . S
C226 H242 0.931 . S
C227 C226 1.370 . S
C227 C231 1.408 . S
C228 C226 1.363 . S
C228 C229 1.370 . S
C228 C232 1.524 . S
C229 C221 1.503 . S
C229 C228 1.370 . S
C229 C230 1.403 . S
C230 C229 1.403 . S
C230 C231 1.404 . S
C230 C233 1.539 . S
C231 C227 1.408 . S
C231 C230 1.404 . S
C231 H243 0.930 . S
C232 C228 1.524 . S
C232 H244 0.956 . S
C232 H245 0.961 . S
C232 H246 0.961 . S
C233 C230 1.539 . S
C233 H247 0.958 . S
C233 H248 0.961 . S
C233 H249 0.960 . S
H234 C218 0.931 . S
H235 C223 0.929 . S
H236 C224 0.960 . S
H237 C224 0.962 . S
H238 C224 0.960 . S
H239 C225 0.961 . S
H240 C225 0.961 . S
H241 C225 0.961 . S
H242 C226 0.931 . S
H243 C231 0.930 . S
H244 C232 0.956 . S
H245 C232 0.961 . S
H246 C232 0.961 . S
H247 C233 0.958 . S
H248 C233 0.961 . S
H249 C233 0.960 . S
C250 C251 1.391 . S
C250 C252 1.394 . S
C250 H266 0.931 . S
C251 C250 1.391 . S
C251 C255 1.376 . S
C252 C250 1.394 . S
C252 C253 1.369 . S
C252 C256 1.531 . S
C253 C252 1.369 . S
C253 C254 1.410 . S
C253 C261 1.503 . S
C254 C253 1.410 . S
C254 C255 1.392 . S
C254 C257 1.511 . S
C255 C251 1.376 . S
C255 C254 1.392 . S
C255 H267 0.929 . S
C256 C252 1.531 . S
C256 H268 0.960 . S
C256 H269 0.962 . S
C256 H270 0.960 . S
C257 C254 1.511 . S
C257 H271 0.961 . S
C257 H272 0.961 . S
C257 H273 0.961 . S
C258 C259 1.370 . S
C258 C260 1.363 . S
C258 H274 0.931 . S
C259 C258 1.370 . S
C259 C263 1.408 . S
C260 C258 1.363 . S
C260 C261 1.370 . S
C260 C264 1.524 . S
C261 C253 1.503 . S
C261 C260 1.370 . S
C261 C262 1.403 . S
C262 C261 1.403 . S
C262 C263 1.404 . S
C262 C265 1.539 . S
C263 C259 1.408 . S
C263 C262 1.404 . S
C263 H275 0.930 . S
C264 C260 1.524 . S
C264 H276 0.956 . S
C264 H277 0.961 . S
C264 H278 0.961 . S
C265 C262 1.539 . S
C265 H279 0.958 . S
C265 H280 0.961 . S
C265 H281 0.960 . S
H266 C250 0.931 . S
H267 C255 0.929 . S
H268 C256 0.960 . S
H269 C256 0.962 . S
H270 C256 0.960 . S
H271 C257 0.961 . S
H272 C257 0.961 . S
H273 C257 0.961 . S
H274 C258 0.931 . S
H275 C263 0.930 . S
H276 C264 0.956 . S
H277 C264 0.961 . S
H278 C264 0.961 . S
H279 C265 0.958 . S
H280 C265 0.961 . S
H281 C265 0.960 . S
C282 C283 1.391 . S
C282 C284 1.394 . S
C282 H298 0.931 . S
C283 C282 1.391 . S
C283 C287 1.376 . S
C284 C282 1.394 . S
C284 C285 1.369 . S
C284 C288 1.531 . S
C285 C284 1.369 . S
C285 C286 1.410 . S
C285 C293 1.503 . S
C286 C285 1.410 . S
C286 C287 1.392 . S
C286 C289 1.511 . S
C287 C283 1.376 . S
C287 C286 1.392 . S
C287 H299 0.929 . S
C288 C284 1.531 . S
C288 H300 0.960 . S
C288 H301 0.962 . S
C288 H302 0.960 . S
C289 C286 1.511 . S
C289 H303 0.961 . S
C289 H304 0.961 . S
C289 H305 0.961 . S
C290 C291 1.370 . S
C290 C292 1.363 . S
C290 H306 0.931 . S
C291 C290 1.370 . S
C291 C295 1.408 . S
C292 C290 1.363 . S
C292 C293 1.370 . S
C292 C296 1.524 . S
C293 C285 1.503 . S
C293 C292 1.370 . S
C293 C294 1.403 . S
C294 C293 1.403 . S
C294 C295 1.404 . S
C294 C297 1.539 . S
C295 C291 1.408 . S
C295 C294 1.404 . S
C295 H307 0.930 . S
C296 C292 1.524 . S
C296 H308 0.956 . S
C296 H309 0.961 . S
C296 H310 0.961 . S
C297 C294 1.539 . S
C297 H311 0.958 . S
C297 H312 0.961 . S
C297 H313 0.960 . S
H298 C282 0.931 . S
H299 C287 0.929 . S
H300 C288 0.960 . S
H301 C288 0.962 . S
H302 C288 0.960 . S
H303 C289 0.961 . S
H304 C289 0.961 . S
H305 C289 0.961 . S
H306 C290 0.931 . S
H307 C295 0.930 . S
H308 C296 0.956 . S
H309 C296 0.961 . S
H310 C296 0.961 . S
H311 C297 0.958 . S
H312 C297 0.961 . S
H313 C297 0.960 . S
C314 C315 1.391 . S
C314 C316 1.394 . S
C314 H330 0.931 . S
C315 C314 1.391 . S
C315 C319 1.376 . S
C316 C314 1.394 . S
C316 C317 1.369 . S
C316 C320 1.531 . S
C317 C316 1.369 . S
C317 C318 1.410 . S
C317 C325 1.503 . S
C318 C317 1.410 . S
C318 C319 1.392 . S
C318 C321 1.511 . S
C319 C315 1.376 . S
C319 C318 1.392 . S
C319 H331 0.929 . S
C320 C316 1.531 . S
C320 H332 0.960 . S
C320 H333 0.962 . S
C320 H334 0.960 . S
C321 C318 1.511 . S
C321 H335 0.961 . S
C321 H336 0.961 . S
C321 H337 0.961 . S
C322 C323 1.370 . S
C322 C324 1.363 . S
C322 H338 0.931 . S
C323 C322 1.370 . S
C323 C327 1.408 . S
C324 C322 1.363 . S
C324 C325 1.370 . S
C324 C328 1.524 . S
C325 C317 1.503 . S
C325 C324 1.370 . S
C325 C326 1.403 . S
C326 C325 1.403 . S
C326 C327 1.404 . S
C326 C329 1.539 . S
C327 C323 1.408 . S
C327 C326 1.404 . S
C327 H339 0.930 . S
C328 C324 1.524 . S
C328 H340 0.956 . S
C328 H341 0.961 . S
C328 H342 0.961 . S
C329 C326 1.539 . S
C329 H343 0.958 . S
C329 H344 0.961 . S
C329 H345 0.960 . S
H330 C314 0.931 . S
H331 C319 0.929 . S
H332 C320 0.960 . S
H333 C320 0.962 . S
H334 C320 0.960 . S
H335 C321 0.961 . S
H336 C321 0.961 . S
H337 C321 0.961 . S
H338 C322 0.931 . S
H339 C327 0.930 . S
H340 C328 0.956 . S
H341 C328 0.961 . S
H342 C328 0.961 . S
H343 C329 0.958 . S
H344 C329 0.961 . S
H345 C329 0.960 . S
C346 C347 1.391 . S
C346 C348 1.394 . S
C346 H362 0.931 . S
C347 C346 1.391 . S
C347 C351 1.376 . S
C348 C346 1.394 . S
C348 C349 1.369 . S
C348 C352 1.531 . S
C349 C348 1.369 . S
C349 C350 1.410 . S
C349 C357 1.503 . S
C350 C349 1.410 . S
C350 C351 1.392 . S
C350 C353 1.511 . S
C351 C347 1.376 . S
C351 C350 1.392 . S
C351 H363 0.929 . S
C352 C348 1.531 . S
C352 H364 0.960 . S
C352 H365 0.962 . S
C352 H366 0.960 . S
C353 C350 1.511 . S
C353 H367 0.961 . S
C353 H368 0.961 . S
C353 H369 0.961 . S
C354 C355 1.370 . S
C354 C356 1.363 . S
C354 H370 0.931 . S
C355 C354 1.370 . S
C355 C359 1.408 . S
C356 C354 1.363 . S
C356 C357 1.370 . S
C356 C360 1.524 . S
C357 C349 1.503 . S
C357 C356 1.370 . S
C357 C358 1.403 . S
C358 C357 1.403 . S
C358 C359 1.404 . S
C358 C361 1.539 . S
C359 C355 1.408 . S
C359 C358 1.404 . S
C359 H371 0.930 . S
C360 C356 1.524 . S
C360 H372 0.956 . S
C360 H373 0.961 . S
C360 H374 0.961 . S
C361 C358 1.539 . S
C361 H375 0.958 . S
C361 H376 0.961 . S
C361 H377 0.960 . S
H362 C346 0.931 . S
H363 C351 0.929 . S
H364 C352 0.960 . S
H365 C352 0.962 . S
H366 C352 0.960 . S
H367 C353 0.961 . S
H368 C353 0.961 . S
H369 C353 0.961 . S
H370 C354 0.931 . S
H371 C359 0.930 . S
H372 C360 0.956 . S
H373 C360 0.961 . S
H374 C360 0.961 . S
H375 C361 0.958 . S
H376 C361 0.961 . S
H377 C361 0.960 . S
C378 C379 1.391 . S
C378 C380 1.394 . S
C378 H394 0.931 . S
C379 C378 1.391 . S
C379 C383 1.376 . S
C380 C378 1.394 . S
C380 C381 1.369 . S
C380 C384 1.531 . S
C381 C380 1.369 . S
C381 C382 1.410 . S
C381 C389 1.503 . S
C382 C381 1.410 . S
C382 C383 1.392 . S
C382 C385 1.511 . S
C383 C379 1.376 . S
C383 C382 1.392 . S
C383 H395 0.929 . S
C384 C380 1.531 . S
C384 H396 0.960 . S
C384 H397 0.962 . S
C384 H398 0.960 . S
C385 C382 1.511 . S
C385 H399 0.961 . S
C385 H400 0.961 . S
C385 H401 0.961 . S
C386 C387 1.370 . S
C386 C388 1.363 . S
C386 H402 0.931 . S
C387 C386 1.370 . S
C387 C391 1.408 . S
C388 C386 1.363 . S
C388 C389 1.370 . S
C388 C392 1.524 . S
C389 C381 1.503 . S
C389 C388 1.370 . S
C389 C390 1.403 . S
C390 C389 1.403 . S
C390 C391 1.404 . S
C390 C393 1.539 . S
C391 C387 1.408 . S
C391 C390 1.404 . S
C391 H403 0.930 . S
C392 C388 1.524 . S
C392 H404 0.956 . S
C392 H405 0.961 . S
C392 H406 0.961 . S
C393 C390 1.539 . S
C393 H407 0.958 . S
C393 H408 0.961 . S
C393 H409 0.960 . S
H394 C378 0.931 . S
H395 C383 0.929 . S
H396 C384 0.960 . S
H397 C384 0.962 . S
H398 C384 0.960 . S
H399 C385 0.961 . S
H400 C385 0.961 . S
H401 C385 0.961 . S
H402 C386 0.931 . S
H403 C391 0.930 . S
H404 C392 0.956 . S
H405 C392 0.961 . S
H406 C392 0.961 . S
H407 C393 0.958 . S
H408 C393 0.961 . S
H409 C393 0.960 . S
C410 C411 1.391 . S
C410 C412 1.394 . S
C410 H426 0.931 . S
C411 C410 1.391 . S
C411 C415 1.376 . S
C412 C410 1.394 . S
C412 C413 1.369 . S
C412 C416 1.531 . S
C413 C412 1.369 . S
C413 C414 1.410 . S
C413 C421 1.503 . S
C414 C413 1.410 . S
C414 C415 1.392 . S
C414 C417 1.511 . S
C415 C411 1.376 . S
C415 C414 1.392 . S
C415 H427 0.929 . S
C416 C412 1.531 . S
C416 H428 0.960 . S
C416 H429 0.962 . S
C416 H430 0.960 . S
C417 C414 1.511 . S
C417 H431 0.961 . S
C417 H432 0.961 . S
C417 H433 0.961 . S
C418 C419 1.370 . S
C418 C420 1.363 . S
C418 H434 0.931 . S
C419 C418 1.370 . S
C419 C423 1.408 . S
C420 C418 1.363 . S
C420 C421 1.370 . S
C420 C424 1.524 . S
C421 C413 1.503 . S
C421 C420 1.370 . S
C421 C422 1.403 . S
C422 C421 1.403 . S
C422 C423 1.404 . S
C422 C425 1.539 . S
C423 C419 1.408 . S
C423 C422 1.404 . S
C423 H435 0.930 . S
C424 C420 1.524 . S
C424 H436 0.956 . S
C424 H437 0.961 . S
C424 H438 0.961 . S
C425 C422 1.539 . S
C425 H439 0.958 . S
C425 H440 0.961 . S
C425 H441 0.960 . S
H426 C410 0.931 . S
H427 C415 0.929 . S
H428 C416 0.960 . S
H429 C416 0.962 . S
H430 C416 0.960 . S
H431 C417 0.961 . S
H432 C417 0.961 . S
H433 C417 0.961 . S
H434 C418 0.931 . S
H435 C423 0.930 . S
H436 C424 0.956 . S
H437 C424 0.961 . S
H438 C424 0.961 . S
H439 C425 0.958 . S
H440 C425 0.961 . S
H441 C425 0.960 . S
C442 C443 1.391 . S
C442 C444 1.394 . S
C442 H458 0.931 1_565 S
C443 C442 1.391 . S
C443 C447 1.376 . S
C444 C442 1.394 . S
C444 C445 1.369 . S
C444 C448 1.531 . S
C445 C444 1.369 . S
C445 C446 1.410 . S
C445 C453 1.503 . S
C446 C445 1.410 . S
C446 C447 1.392 . S
C446 C449 1.511 . S
C447 C443 1.376 . S
C447 C446 1.392 . S
C447 H459 0.929 . S
C448 C444 1.531 . S
C448 H460 0.960 . S
C448 H461 0.962 . S
C448 H462 0.960 1_565 S
C449 C446 1.511 . S
C449 H463 0.961 . S
C449 H464 0.961 . S
C449 H465 0.961 . S
C450 C451 1.370 . S
C450 C452 1.363 . S
C450 H466 0.931 . S
C451 C450 1.370 . S
C451 C455 1.408 . S
C452 C450 1.363 . S
C452 C453 1.370 . S
C452 C456 1.524 . S
C453 C445 1.503 . S
C453 C452 1.370 . S
C453 C454 1.403 . S
C454 C453 1.403 . S
C454 C455 1.404 . S
C454 C457 1.539 . S
C455 C451 1.408 . S
C455 C454 1.404 . S
C455 H467 0.930 . S
C456 C452 1.524 . S
C456 H468 0.956 . S
C456 H469 0.961 . S
C456 H470 0.961 . S
C457 C454 1.539 . S
C457 H471 0.958 . S
C457 H472 0.961 . S
C457 H473 0.960 . S
H458 C442 0.931 1_545 S
H459 C447 0.929 . S
H460 C448 0.960 . S
H461 C448 0.962 . S
H462 C448 0.960 1_545 S
H463 C449 0.961 . S
H464 C449 0.961 . S
H465 C449 0.961 . S
H466 C450 0.931 . S
H467 C455 0.930 . S
H468 C456 0.956 . S
H469 C456 0.961 . S
H470 C456 0.961 . S
H471 C457 0.958 . S
H472 C457 0.961 . S
H473 C457 0.960 . S
C474 C475 1.391 . S
C474 C476 1.394 . S
C474 H490 0.931 . S
C475 C474 1.391 . S
C475 C479 1.376 . S
C476 C474 1.394 . S
C476 C477 1.369 . S
C476 C480 1.531 . S
C477 C476 1.369 . S
C477 C478 1.410 . S
C477 C485 1.503 . S
C478 C477 1.410 . S
C478 C479 1.392 . S
C478 C481 1.511 . S
C479 C475 1.376 . S
C479 C478 1.392 . S
C479 H491 0.929 . S
C480 C476 1.531 . S
C480 H492 0.960 . S
C480 H493 0.962 . S
C480 H494 0.960 . S
C481 C478 1.511 . S
C481 H495 0.961 . S
C481 H496 0.961 . S
C481 H497 0.961 . S
C482 C483 1.370 . S
C482 C484 1.363 . S
C482 H498 0.931 . S
C483 C482 1.370 . S
C483 C487 1.408 . S
C484 C482 1.363 . S
C484 C485 1.370 . S
C484 C488 1.524 . S
C485 C477 1.503 . S
C485 C484 1.370 . S
C485 C486 1.403 . S
C486 C485 1.403 . S
C486 C487 1.404 . S
C486 C489 1.539 . S
C487 C483 1.408 . S
C487 C486 1.404 . S
C487 H499 0.930 . S
C488 C484 1.524 . S
C488 H500 0.956 . S
C488 H501 0.961 . S
C488 H502 0.961 . S
C489 C486 1.539 . S
C489 H503 0.958 . S
C489 H504 0.961 . S
C489 H505 0.960 . S
H490 C474 0.931 . S
H491 C479 0.929 . S
H492 C480 0.960 . S
H493 C480 0.962 . S
H494 C480 0.960 . S
H495 C481 0.961 . S
H496 C481 0.961 . S
H497 C481 0.961 . S
H498 C482 0.931 . S
H499 C487 0.930 . S
H500 C488 0.956 . S
H501 C488 0.961 . S
H502 C488 0.961 . S
H503 C489 0.958 . S
H504 C489 0.961 . S
H505 C489 0.960 . S
C123 C11 1.897 . S
C131 C99 1.836 . S
C155 C51 1.212 . S
C163 C105 1.160 . S
C187 C7 0.851 . S
C195 C96 0.885 . S
C219 C47 1.385 . S
C227 C121 1.286 . S
C251 C10 2.121 . S
C259 C87 1.993 . S
C291 C104 2.281 . S
C283 C50 2.335 . S
C315 C56 1.248 . S
C323 C100 1.157 . S
C355 C117 1.751 . S
C347 C19 1.800 . S
C387 C84 2.112 . S
C379 C59 2.184 . S
C419 C120 2.049 . S
C411 C2 2.120 . S
C451 C83 1.404 . S
C443 C42 1.453 . S
C483 C108 0.818 . S
C475 C16 0.904 . S
