# Generated by pormake.
# Topology gar, (4,6)-cn, num edge types: 1
# Building blocks:
#     Node 0, Type 0, BuildingBlock: CEKHIL_clean_sbu_0, # of connection points: 4
#     Node 1, Type 0, BuildingBlock: CEKHIL_clean_sbu_0, # of connection points: 4
#     Node 2, Type 0, BuildingBlock: CEKHIL_clean_sbu_0, # of connection points: 4
#     Node 3, Type 0, BuildingBlock: CEKHIL_clean_sbu_0, # of connection points: 4
#     Node 4, Type 0, BuildingBlock: CEKHIL_clean_sbu_0, # of connection points: 4
#     Node 5, Type 0, BuildingBlock: CEKHIL_clean_sbu_0, # of connection points: 4
#     Node 6, Type 0, BuildingBlock: CEKHIL_clean_sbu_0, # of connection points: 4
#     Node 7, Type 0, BuildingBlock: CEKHIL_clean_sbu_0, # of connection points: 4
#     Node 8, Type 0, BuildingBlock: CEKHIL_clean_sbu_0, # of connection points: 4
#     Node 9, Type 0, BuildingBlock: CEKHIL_clean_sbu_0, # of connection points: 4
#     Node 10, Type 0, BuildingBlock: CEKHIL_clean_sbu_0, # of connection points: 4
#     Node 11, Type 0, BuildingBlock: CEKHIL_clean_sbu_0, # of connection points: 4
#     Node 12, Type 0, BuildingBlock: CEKHIL_clean_sbu_0, # of connection points: 4
#     Node 13, Type 0, BuildingBlock: CEKHIL_clean_sbu_0, # of connection points: 4
#     Node 14, Type 0, BuildingBlock: CEKHIL_clean_sbu_0, # of connection points: 4
#     Node 15, Type 0, BuildingBlock: CEKHIL_clean_sbu_0, # of connection points: 4
#     Node 16, Type 0, BuildingBlock: CEKHIL_clean_sbu_0, # of connection points: 4
#     Node 17, Type 0, BuildingBlock: CEKHIL_clean_sbu_0, # of connection points: 4
#     Node 18, Type 0, BuildingBlock: CEKHIL_clean_sbu_0, # of connection points: 4
#     Node 19, Type 0, BuildingBlock: CEKHIL_clean_sbu_0, # of connection points: 4
#     Node 20, Type 0, BuildingBlock: CEKHIL_clean_sbu_0, # of connection points: 4
#     Node 21, Type 0, BuildingBlock: CEKHIL_clean_sbu_0, # of connection points: 4
#     Node 22, Type 0, BuildingBlock: CEKHIL_clean_sbu_0, # of connection points: 4
#     Node 23, Type 0, BuildingBlock: CEKHIL_clean_sbu_0, # of connection points: 4
#     Node 24, Type 1, BuildingBlock: PAMTOO_clean_sbu_0, # of connection points: 6
#     Node 25, Type 1, BuildingBlock: PAMTOO_clean_sbu_0, # of connection points: 6
#     Node 26, Type 1, BuildingBlock: PAMTOO_clean_sbu_0, # of connection points: 6
#     Node 27, Type 1, BuildingBlock: PAMTOO_clean_sbu_0, # of connection points: 6
#     Node 28, Type 1, BuildingBlock: PAMTOO_clean_sbu_0, # of connection points: 6
#     Node 29, Type 1, BuildingBlock: PAMTOO_clean_sbu_0, # of connection points: 6
#     Node 30, Type 1, BuildingBlock: PAMTOO_clean_sbu_0, # of connection points: 6
#     Node 31, Type 1, BuildingBlock: PAMTOO_clean_sbu_0, # of connection points: 6
#     Node 32, Type 1, BuildingBlock: PAMTOO_clean_sbu_0, # of connection points: 6
#     Node 33, Type 1, BuildingBlock: PAMTOO_clean_sbu_0, # of connection points: 6
#     Node 34, Type 1, BuildingBlock: PAMTOO_clean_sbu_0, # of connection points: 6
#     Node 35, Type 1, BuildingBlock: PAMTOO_clean_sbu_0, # of connection points: 6
#     Node 36, Type 1, BuildingBlock: PAMTOO_clean_sbu_0, # of connection points: 6
#     Node 37, Type 1, BuildingBlock: PAMTOO_clean_sbu_0, # of connection points: 6
#     Node 38, Type 1, BuildingBlock: PAMTOO_clean_sbu_0, # of connection points: 6
#     Node 39, Type 1, BuildingBlock: PAMTOO_clean_sbu_0, # of connection points: 6
#     Edge 40, Type (0, 1), BuildingBlock: AJUNOK_clean_linker_0, # of connection points: 2
#     Edge 41, Type (0, 1), BuildingBlock: AJUNOK_clean_linker_0, # of connection points: 2
#     Edge 42, Type (0, 1), BuildingBlock: AJUNOK_clean_linker_0, # of connection points: 2
#     Edge 43, Type (0, 1), BuildingBlock: AJUNOK_clean_linker_0, # of connection points: 2
#     Edge 44, Type (0, 1), BuildingBlock: AJUNOK_clean_linker_0, # of connection points: 2
#     Edge 45, Type (0, 1), BuildingBlock: AJUNOK_clean_linker_0, # of connection points: 2
#     Edge 46, Type (0, 1), BuildingBlock: AJUNOK_clean_linker_0, # of connection points: 2
#     Edge 47, Type (0, 1), BuildingBlock: AJUNOK_clean_linker_0, # of connection points: 2
#     Edge 48, Type (0, 1), BuildingBlock: AJUNOK_clean_linker_0, # of connection points: 2
#     Edge 49, Type (0, 1), BuildingBlock: AJUNOK_clean_linker_0, # of connection points: 2
#     Edge 50, Type (0, 1), BuildingBlock: AJUNOK_clean_linker_0, # of connection points: 2
#     Edge 51, Type (0, 1), BuildingBlock: AJUNOK_clean_linker_0, # of connection points: 2
#     Edge 52, Type (0, 1), BuildingBlock: AJUNOK_clean_linker_0, # of connection points: 2
#     Edge 53, Type (0, 1), BuildingBlock: AJUNOK_clean_linker_0, # of connection points: 2
#     Edge 54, Type (0, 1), BuildingBlock: AJUNOK_clean_linker_0, # of connection points: 2
#     Edge 55, Type (0, 1), BuildingBlock: AJUNOK_clean_linker_0, # of connection points: 2
#     Edge 56, Type (0, 1), BuildingBlock: AJUNOK_clean_linker_0, # of connection points: 2
#     Edge 57, Type (0, 1), BuildingBlock: AJUNOK_clean_linker_0, # of connection points: 2
#     Edge 58, Type (0, 1), BuildingBlock: AJUNOK_clean_linker_0, # of connection points: 2
#     Edge 59, Type (0, 1), BuildingBlock: AJUNOK_clean_linker_0, # of connection points: 2
#     Edge 60, Type (0, 1), BuildingBlock: AJUNOK_clean_linker_0, # of connection points: 2
#     Edge 61, Type (0, 1), BuildingBlock: AJUNOK_clean_linker_0, # of connection points: 2
#     Edge 62, Type (0, 1), BuildingBlock: AJUNOK_clean_linker_0, # of connection points: 2
#     Edge 63, Type (0, 1), BuildingBlock: AJUNOK_clean_linker_0, # of connection points: 2
#     Edge 64, Type (0, 1), BuildingBlock: AJUNOK_clean_linker_0, # of connection points: 2
#     Edge 65, Type (0, 1), BuildingBlock: AJUNOK_clean_linker_0, # of connection points: 2
#     Edge 66, Type (0, 1), BuildingBlock: AJUNOK_clean_linker_0, # of connection points: 2
#     Edge 67, Type (0, 1), BuildingBlock: AJUNOK_clean_linker_0, # of connection points: 2
#     Edge 68, Type (0, 1), BuildingBlock: AJUNOK_clean_linker_0, # of connection points: 2
#     Edge 69, Type (0, 1), BuildingBlock: AJUNOK_clean_linker_0, # of connection points: 2
#     Edge 70, Type (0, 1), BuildingBlock: AJUNOK_clean_linker_0, # of connection points: 2
#     Edge 71, Type (0, 1), BuildingBlock: AJUNOK_clean_linker_0, # of connection points: 2
#     Edge 72, Type (0, 1), BuildingBlock: AJUNOK_clean_linker_0, # of connection points: 2
#     Edge 73, Type (0, 1), BuildingBlock: AJUNOK_clean_linker_0, # of connection points: 2
#     Edge 74, Type (0, 1), BuildingBlock: AJUNOK_clean_linker_0, # of connection points: 2
#     Edge 75, Type (0, 1), BuildingBlock: AJUNOK_clean_linker_0, # of connection points: 2
#     Edge 76, Type (0, 1), BuildingBlock: AJUNOK_clean_linker_0, # of connection points: 2
#     Edge 77, Type (0, 1), BuildingBlock: AJUNOK_clean_linker_0, # of connection points: 2
#     Edge 78, Type (0, 1), BuildingBlock: AJUNOK_clean_linker_0, # of connection points: 2
#     Edge 79, Type (0, 1), BuildingBlock: AJUNOK_clean_linker_0, # of connection points: 2
#     Edge 80, Type (0, 1), BuildingBlock: AJUNOK_clean_linker_0, # of connection points: 2
#     Edge 81, Type (0, 1), BuildingBlock: AJUNOK_clean_linker_0, # of connection points: 2
#     Edge 82, Type (0, 1), BuildingBlock: AJUNOK_clean_linker_0, # of connection points: 2
#     Edge 83, Type (0, 1), BuildingBlock: AJUNOK_clean_linker_0, # of connection points: 2
#     Edge 84, Type (0, 1), BuildingBlock: AJUNOK_clean_linker_0, # of connection points: 2
#     Edge 85, Type (0, 1), BuildingBlock: AJUNOK_clean_linker_0, # of connection points: 2
#     Edge 86, Type (0, 1), BuildingBlock: AJUNOK_clean_linker_0, # of connection points: 2
#     Edge 87, Type (0, 1), BuildingBlock: AJUNOK_clean_linker_0, # of connection points: 2
#     Edge 88, Type (0, 1), BuildingBlock: AJUNOK_clean_linker_0, # of connection points: 2
#     Edge 89, Type (0, 1), BuildingBlock: AJUNOK_clean_linker_0, # of connection points: 2
#     Edge 90, Type (0, 1), BuildingBlock: AJUNOK_clean_linker_0, # of connection points: 2
#     Edge 91, Type (0, 1), BuildingBlock: AJUNOK_clean_linker_0, # of connection points: 2
#     Edge 92, Type (0, 1), BuildingBlock: AJUNOK_clean_linker_0, # of connection points: 2
#     Edge 93, Type (0, 1), BuildingBlock: AJUNOK_clean_linker_0, # of connection points: 2
#     Edge 94, Type (0, 1), BuildingBlock: AJUNOK_clean_linker_0, # of connection points: 2
#     Edge 95, Type (0, 1), BuildingBlock: AJUNOK_clean_linker_0, # of connection points: 2
#     Edge 96, Type (0, 1), BuildingBlock: AJUNOK_clean_linker_0, # of connection points: 2
#     Edge 97, Type (0, 1), BuildingBlock: AJUNOK_clean_linker_0, # of connection points: 2
#     Edge 98, Type (0, 1), BuildingBlock: AJUNOK_clean_linker_0, # of connection points: 2
#     Edge 99, Type (0, 1), BuildingBlock: AJUNOK_clean_linker_0, # of connection points: 2
#     Edge 100, Type (0, 1), BuildingBlock: AJUNOK_clean_linker_0, # of connection points: 2
#     Edge 101, Type (0, 1), BuildingBlock: AJUNOK_clean_linker_0, # of connection points: 2
#     Edge 102, Type (0, 1), BuildingBlock: AJUNOK_clean_linker_0, # of connection points: 2
#     Edge 103, Type (0, 1), BuildingBlock: AJUNOK_clean_linker_0, # of connection points: 2
#     Edge 104, Type (0, 1), BuildingBlock: AJUNOK_clean_linker_0, # of connection points: 2
#     Edge 105, Type (0, 1), BuildingBlock: AJUNOK_clean_linker_0, # of connection points: 2
#     Edge 106, Type (0, 1), BuildingBlock: AJUNOK_clean_linker_0, # of connection points: 2
#     Edge 107, Type (0, 1), BuildingBlock: AJUNOK_clean_linker_0, # of connection points: 2
#     Edge 108, Type (0, 1), BuildingBlock: AJUNOK_clean_linker_0, # of connection points: 2
#     Edge 109, Type (0, 1), BuildingBlock: AJUNOK_clean_linker_0, # of connection points: 2
#     Edge 110, Type (0, 1), BuildingBlock: AJUNOK_clean_linker_0, # of connection points: 2
#     Edge 111, Type (0, 1), BuildingBlock: AJUNOK_clean_linker_0, # of connection points: 2
#     Edge 112, Type (0, 1), BuildingBlock: AJUNOK_clean_linker_0, # of connection points: 2
#     Edge 113, Type (0, 1), BuildingBlock: AJUNOK_clean_linker_0, # of connection points: 2
#     Edge 114, Type (0, 1), BuildingBlock: AJUNOK_clean_linker_0, # of connection points: 2
#     Edge 115, Type (0, 1), BuildingBlock: AJUNOK_clean_linker_0, # of connection points: 2
#     Edge 116, Type (0, 1), BuildingBlock: AJUNOK_clean_linker_0, # of connection points: 2
#     Edge 117, Type (0, 1), BuildingBlock: AJUNOK_clean_linker_0, # of connection points: 2
#     Edge 118, Type (0, 1), BuildingBlock: AJUNOK_clean_linker_0, # of connection points: 2
#     Edge 119, Type (0, 1), BuildingBlock: AJUNOK_clean_linker_0, # of connection points: 2
#     Edge 120, Type (0, 1), BuildingBlock: AJUNOK_clean_linker_0, # of connection points: 2
#     Edge 121, Type (0, 1), BuildingBlock: AJUNOK_clean_linker_0, # of connection points: 2
#     Edge 122, Type (0, 1), BuildingBlock: AJUNOK_clean_linker_0, # of connection points: 2
#     Edge 123, Type (0, 1), BuildingBlock: AJUNOK_clean_linker_0, # of connection points: 2
#     Edge 124, Type (0, 1), BuildingBlock: AJUNOK_clean_linker_0, # of connection points: 2
#     Edge 125, Type (0, 1), BuildingBlock: AJUNOK_clean_linker_0, # of connection points: 2
#     Edge 126, Type (0, 1), BuildingBlock: AJUNOK_clean_linker_0, # of connection points: 2
#     Edge 127, Type (0, 1), BuildingBlock: AJUNOK_clean_linker_0, # of connection points: 2
#     Edge 128, Type (0, 1), BuildingBlock: AJUNOK_clean_linker_0, # of connection points: 2
#     Edge 129, Type (0, 1), BuildingBlock: AJUNOK_clean_linker_0, # of connection points: 2
#     Edge 130, Type (0, 1), BuildingBlock: AJUNOK_clean_linker_0, # of connection points: 2
#     Edge 131, Type (0, 1), BuildingBlock: AJUNOK_clean_linker_0, # of connection points: 2
#     Edge 132, Type (0, 1), BuildingBlock: AJUNOK_clean_linker_0, # of connection points: 2
#     Edge 133, Type (0, 1), BuildingBlock: AJUNOK_clean_linker_0, # of connection points: 2
#     Edge 134, Type (0, 1), BuildingBlock: AJUNOK_clean_linker_0, # of connection points: 2
#     Edge 135, Type (0, 1), BuildingBlock: AJUNOK_clean_linker_0, # of connection points: 2
# Relax obj value: 0.183
# Max RMSD: 0.280
# Mean RMSD: 0.166
data_MOF--net-gar--node1-CEKHIL_clean_sbu_0--node2-PAMTOO_clean_sbu_0--edge1-AJUNOK_clean_linker_0
_symmetry_space_group_name_H-M    P1
_symmetry_Int_Tables_number       1
_symmetry_cell_setting            triclinic
loop_
_symmetry_equiv_pos_as_xyz
'x, y, z'
_cell_length_a     45.326471
_cell_length_b     44.832852
_cell_length_c     42.08196
_cell_angle_alpha  97.753151
_cell_angle_beta   97.146163
_cell_angle_gamma 105.59462
loop_
_atom_site_label
_atom_site_type_symbol
_atom_site_fract_x
_atom_site_fract_y
_atom_site_fract_z
_atom_type_partial_charge
Co0 Co 0.10192 0.37625 0.38332 0.0
O1 O 0.14828 0.38101 0.39188 0.0
O2 O 0.12078 0.36092 0.34485 0.0
C3 C 0.10335 0.42576 0.41283 0.0
O4 O 0.05304 0.36788 0.36419 0.0
Co5 Co 0.06208 0.37941 0.43944 0.0
O6 O 1.02702 0.37743 0.40526 0.0
C7 C 0.08391 0.32371 0.423 0.0
C8 C 0.14839 0.36802 0.3624 0.0
C9 C 1.02737 0.37022 0.37501 0.0
O10 O 0.0927 0.33266 0.39672 0.0
O11 O 0.07435 0.34053 0.44404 0.0
O12 O 0.10981 0.42326 0.38337 0.0
O13 O 0.09888 0.39971 0.42331 0.0
Co14 Co 0.04823 0.78814 0.72667 0.0
O15 O 1.00302 0.78734 0.71689 0.0
O16 O 1.02273 0.78171 0.76367 0.0
C17 C 0.06424 0.83267 0.70351 0.0
O18 O 0.09599 0.79155 0.74726 0.0
Co19 Co 0.09078 0.78808 0.67322 0.0
O20 O 0.12667 0.80103 0.709 0.0
C21 C 0.04571 0.72783 0.67809 0.0
C22 C 0.99827 0.78503 0.74625 0.0
C23 C 0.12375 0.79828 0.73824 0.0
O24 O 0.03894 0.74013 0.70559 0.0
O25 O 0.06304 0.74422 0.6612 0.0
O26 O 0.05909 0.83524 0.73332 0.0
O27 O 0.05935 0.80427 0.6895 0.0
Co28 Co 0.60337 0.87821 0.88197 0.0
O29 O 0.64972 0.88332 0.89058 0.0
O30 O 0.62227 0.86183 0.84386 0.0
C31 C 0.60529 0.92837 0.91007 0.0
O32 O 0.55439 0.86938 0.86284 0.0
Co33 Co 0.56358 0.8835 0.93766 0.0
O34 O 0.52919 0.88272 0.90326 0.0
C35 C 0.58469 0.82683 0.92293 0.0
C36 C 0.64994 0.86964 0.86143 0.0
C37 C 0.52914 0.87359 0.87326 0.0
O38 O 0.59458 0.83536 0.89694 0.0
O39 O 0.57427 0.84388 0.9429 0.0
O40 O 0.61099 0.9248 0.88035 0.0
O41 O 0.60074 0.90284 0.92157 0.0
Co42 Co 0.54778 0.28935 0.22587 0.0
O43 O 0.50226 0.28815 0.21672 0.0
O44 O 0.52289 0.28294 0.26324 0.0
C45 C 0.56391 0.33507 0.20463 0.0
O46 O 0.59558 0.29224 0.24588 0.0
Co47 Co 0.5904 0.29177 0.17244 0.0
O48 O 0.62619 0.30488 0.20826 0.0
C49 C 0.54585 0.23031 0.17556 0.0
C50 C 0.49812 0.28616 0.24632 0.0
C51 C 0.62338 0.30029 0.23706 0.0
O52 O 0.53837 0.24163 0.20312 0.0
O53 O 0.56367 0.24758 0.15972 0.0
O54 O 0.55868 0.33637 0.23434 0.0
O55 O 0.55872 0.30707 0.18922 0.0
Co56 Co 0.11063 0.85201 0.14476 0.0
O57 O 0.06477 0.84258 0.13974 0.0
O58 O 0.09507 0.84064 0.18348 0.0
C59 C 0.11609 0.90137 0.12321 0.0
O60 O 0.15621 0.86047 0.16901 0.0
Co61 Co 0.14818 0.85102 0.10369 0.0
O62 O 0.18732 0.85504 0.13442 0.0
C63 C 0.11603 0.78757 0.10704 0.0
C64 C 0.06716 0.83691 0.16933 0.0
C65 C 0.18322 0.85887 0.16369 0.0
O66 O 0.10525 0.80323 0.12888 0.0
O67 O 0.13475 0.8034 0.09109 0.0
O68 O 0.11473 0.89828 0.15318 0.0
O69 O 0.11595 0.87483 0.10535 0.0
Co70 Co 0.53837 0.81671 0.48145 0.0
O71 O 0.58393 0.831 0.48861 0.0
O72 O 0.55457 0.80494 0.44259 0.0
C73 C 0.53494 0.868 0.50322 0.0
O74 O 0.49204 0.80218 0.45758 0.0
Co75 Co 0.50081 0.80656 0.52424 0.0
O76 O 0.46525 0.81292 0.4951 0.0
C77 C 0.53 0.75666 0.51815 0.0
C78 C 0.58225 0.81962 0.45815 0.0
C79 C 0.46695 0.80759 0.46516 0.0
O80 O 0.54059 0.7727 0.49606 0.0
O81 O 0.51197 0.76713 0.53464 0.0
O82 O 0.53802 0.85896 0.47375 0.0
O83 O 0.53395 0.84594 0.52115 0.0
Co84 Co 0.61144 0.35417 0.647 0.0
O85 O 0.56563 0.34582 0.64216 0.0
O86 O 0.59585 0.34364 0.6858 0.0
C87 C 0.61803 0.40343 0.6252 0.0
O88 O 0.65647 0.36167 0.67179 0.0
Co89 Co 0.64984 0.35279 0.60685 0.0
O90 O 0.68801 0.35497 0.63813 0.0
C91 C 0.61666 0.28952 0.61005 0.0
C92 C 0.56814 0.34112 0.67211 0.0
C93 C 0.68327 0.35897 0.66716 0.0
O94 O 0.60516 0.30524 0.63114 0.0
O95 O 0.63634 0.30521 0.59493 0.0
O96 O 0.61648 0.40067 0.65522 0.0
O97 O 0.61766 0.37667 0.60762 0.0
Co98 Co 0.03579 0.31623 0.98099 0.0
O99 O 0.08122 0.33066 0.98529 0.0
O100 O 0.0497 0.30377 0.94078 0.0
C101 C 1.03228 0.36721 1.00335 0.0
O102 O 0.98847 0.301 0.96046 0.0
Co103 Co 1.00086 0.3072 0.02747 0.0
O104 O 0.965 0.31484 0.99993 0.0
C105 C 1.02942 0.25667 0.01849 0.0
C106 C 0.07794 0.31843 0.95481 0.0
C107 C 0.96467 0.30817 0.96963 0.0
O108 O 0.03928 0.27265 0.99601 0.0
O109 O 1.01207 0.26724 0.03596 0.0
O110 O 0.03391 0.35838 0.97333 0.0
O111 O 1.03355 0.34547 0.02118 0.0
Co112 Co 0.43375 0.07134 0.34365 0.0
O113 O 0.43554 0.10576 0.32008 0.0
O114 O 0.3928 0.06931 0.32422 0.0
C115 C 0.46675 0.09864 0.38909 0.0
O116 O 0.42039 0.03353 0.36501 0.0
Co117 Co 0.48839 0.04676 0.36915 0.0
O118 O 0.45893 1.02037 0.39248 0.0
C119 C 0.45952 0.03016 0.29923 0.0
C120 C 0.4054 0.09416 0.31267 0.0
C121 C 0.43009 1.0168 0.38384 0.0
O122 O 0.43872 0.04411 0.30402 0.0
O123 O 0.48167 0.03028 0.32138 0.0
O124 O 0.43792 0.09916 0.38501 0.0
O125 O 0.4749 0.08381 0.36496 0.0
Co126 Co 0.31215 0.2338 0.54256 0.0
O127 O 0.35731 0.24127 0.55272 0.0
O128 O 0.32176 0.19859 0.55789 0.0
C129 C 0.31181 0.2503 0.49228 0.0
O130 O 0.26546 0.21242 0.53457 0.0
Co131 Co 0.27559 0.27897 0.53403 0.0
O132 O 0.2362 0.244 0.52602 0.0
C133 C 0.29995 0.27564 0.60137 0.0
C134 C 0.3509 0.21322 0.56029 0.0
C135 C 0.2387 0.21689 0.52887 0.0
O136 O 0.31096 0.25352 0.58945 0.0
O137 O 0.28627 0.29008 0.58294 0.0
O138 O 0.31319 0.22238 0.49595 0.0
O139 O 0.31159 0.26832 0.51918 0.0
Co140 Co 0.16801 0.09177 0.8301 0.0
O141 O 0.1608 0.04619 0.82044 0.0
O142 O 0.20345 0.08213 0.81566 0.0
C143 C 0.15087 0.09248 0.88006 0.0
O144 O 0.18841 0.13914 0.83744 0.0
Co145 Co 0.12223 0.12766 0.83709 0.0
O146 O 0.15637 0.16791 0.84594 0.0
C147 C 0.12647 0.10117 0.77046 0.0
C148 C 0.18878 0.05272 0.8134 0.0
C149 C 0.18337 0.166 0.84292 0.0
O150 O 0.14916 0.09182 0.78314 0.0
O151 O 0.11128 0.1148 0.78824 0.0
O152 O 0.17874 0.09163 0.87673 0.0
O153 O 0.13328 0.09209 0.85297 0.0
Co154 Co 0.32847 0.96658 0.03034 0.0
O155 O 0.2949 0.9642 0.05492 0.0
O156 O 0.33095 1.00785 0.0522 0.0
C157 C 0.30067 0.93533 0.98387 0.0
O158 O 0.36557 0.97981 1.00784 0.0
Co159 Co 0.34945 0.90946 1.00153 0.0
O160 O 0.37559 0.93933 0.9784 0.0
C161 C 0.37027 0.93897 0.0714 0.0
C162 C 0.30611 0.99461 0.0633 0.0
C163 C 0.38075 0.96876 0.98778 0.0
O164 O 0.35616 0.96004 0.06831 0.0
O165 O 0.36862 0.91649 0.04834 0.0
O166 O 0.30074 0.96459 0.99014 0.0
O167 O 0.3145 0.9254 1.007 0.0
Co168 Co 0.3374 0.42296 0.06816 0.0
O169 O 0.29248 0.41496 0.05876 0.0
O170 O 0.32591 0.46 0.08359 0.0
C171 C 0.34215 0.40116 0.01684 0.0
O172 O 0.3841 0.44428 0.07959 0.0
Co173 Co 0.37303 0.37544 0.06775 0.0
O174 O 0.40985 0.41044 0.06429 0.0
C175 C 0.34026 0.38411 0.12314 0.0
C176 C 0.29742 0.44446 0.07111 0.0
C177 C 0.40906 0.43853 0.07274 0.0
O178 O 0.33479 0.40822 0.11246 0.0
O179 O 0.35349 0.36641 0.10739 0.0
O180 O 0.33985 0.42947 0.02352 0.0
O181 O 0.33987 0.38571 0.0409 0.0
Co182 Co 0.80914 0.17982 0.07333 0.0
O183 O 0.84898 0.17763 0.06425 0.0
O184 O 0.81733 0.14302 0.08689 0.0
C185 C 0.79313 0.19051 0.02491 0.0
O186 O 0.76596 0.17288 0.08456 0.0
Co187 Co 0.78854 0.24072 0.07196 0.0
O188 O 0.74705 0.21278 0.07486 0.0
C189 C 0.83437 0.23688 0.12613 0.0
C190 C 0.84292 0.15122 0.07508 0.0
C191 C 0.74372 0.1856 0.08243 0.0
O192 O 0.82808 0.20684 0.11732 0.0
O193 O 0.82451 0.25454 0.10858 0.0
O194 O 0.79042 0.16146 0.02783 0.0
O195 O 0.80692 0.21156 0.05004 0.0
Co196 Co 0.21523 0.57978 0.28742 0.0
O197 O 0.21242 0.53772 0.29468 0.0
O198 O 0.2491 0.56746 0.27272 0.0
C199 C 0.20653 0.59824 0.3363 0.0
O200 O 0.22827 0.62389 0.27829 0.0
Co201 Co 0.16111 0.60984 0.28873 0.0
O202 O 0.1914 0.64853 0.28155 0.0
C203 C 0.15889 0.55988 0.23541 0.0
C204 C 0.23856 0.54162 0.28368 0.0
C205 C 0.21868 0.64818 0.27747 0.0
O206 O 0.18823 0.56375 0.24331 0.0
O207 O 0.14326 0.57185 0.25405 0.0
O208 O 0.23411 0.59628 0.3331 0.0
O209 O 0.18503 0.58672 0.31121 0.0
Co210 Co 0.83793 0.92466 0.56741 0.0
O211 O 0.79312 0.91844 0.55911 0.0
O212 O 0.82812 0.96261 0.5834 0.0
C213 C 0.8412 0.90212 0.51581 0.0
O214 O 0.8851 0.94425 0.57774 0.0
Co215 Co 0.87112 0.87451 0.5651 0.0
O216 O 0.90872 0.9085 0.5619 0.0
C217 C 0.84088 0.88553 0.62231 0.0
C218 C 0.79923 0.94806 0.57167 0.0
C219 C 0.90945 0.93698 0.57095 0.0
O220 O 0.83557 0.90984 0.61184 0.0
O221 O 0.85311 0.86731 0.60582 0.0
O222 O 0.83983 0.93079 0.52246 0.0
O223 O 0.83863 0.8869 0.53995 0.0
Co224 Co 0.98479 0.06827 0.30635 0.0
O225 O 0.99307 0.1139 0.3162 0.0
O226 O 0.94907 0.08038 0.28963 0.0
C227 C 1.00451 0.06313 0.35799 0.0
O228 O 0.96298 0.02106 0.29389 0.0
Co229 Co 1.03034 0.03056 0.30813 0.0
O230 O 0.99473 0.99471 0.31208 0.0
C231 C 1.02244 0.06089 0.25068 0.0
C232 C 0.96446 0.10915 0.30236 0.0
C233 C 0.96752 0.99574 0.30176 0.0
O234 O 1.00106 0.07068 0.26274 0.0
O235 O 0.03773 0.04536 0.26582 0.0
O236 O 0.97682 0.06593 0.35067 0.0
O237 O 1.02051 0.06494 0.33437 0.0
Co238 Co 0.31253 0.67781 0.57937 0.0
O239 O 0.35197 0.67887 0.56686 0.0
O240 O 0.32483 0.64261 0.59149 0.0
C241 C 0.2899 0.6867 0.53267 0.0
O242 O 0.27062 0.66747 0.59367 0.0
Co243 Co 0.28871 0.73706 0.58314 0.0
O244 O 0.24929 0.70662 0.58792 0.0
C245 C 0.33971 0.73532 0.6313 0.0
C246 C 0.34872 0.65243 0.57743 0.0
C247 C 0.24756 0.67892 0.5933 0.0
O248 O 0.33282 0.70521 0.62294 0.0
O249 O 0.32892 0.75255 0.614 0.0
O250 O 0.29167 0.65857 0.53477 0.0
O251 O 0.30486 0.70849 0.55694 0.0
Co252 Co 0.48168 0.56918 0.80611 0.0
O253 O 0.49034 0.61486 0.81632 0.0
O254 O 0.44572 0.58171 0.79087 0.0
C255 C 0.50271 0.5635 0.85705 0.0
O256 O 0.45972 0.52202 0.79385 0.0
Co257 Co 0.52776 0.5319 0.80544 0.0
O258 O 0.49239 0.49503 0.80797 0.0
C259 C 0.52041 0.56574 0.75086 0.0
C260 C 0.46148 0.61041 0.80351 0.0
C261 C 0.46485 0.49628 0.79956 0.0
O262 O 0.4967 0.5717 0.76179 0.0
O263 O 0.53742 0.55188 0.76623 0.0
O264 O 0.47507 0.56673 0.8509 0.0
O265 O 0.51796 0.56559 0.83286 0.0
Co266 Co 0.71982 0.0707 0.79118 0.0
O267 O 0.72265 0.02863 0.78804 0.0
O268 O 0.75659 0.06833 0.77404 0.0
C269 C 0.70849 0.07412 0.84177 0.0
O270 O 0.72629 0.11727 0.79242 0.0
Co271 Co 0.65985 0.08881 0.80324 0.0
O272 O 0.68739 0.13277 0.81104 0.0
C273 C 0.66429 0.05632 0.73862 0.0
C274 C 0.74902 0.03926 0.77837 0.0
C275 C 0.71383 0.13863 0.802 0.0
O276 O 0.6937 0.0606 0.74668 0.0
O277 O 0.64691 0.06249 0.75883 0.0
O278 O 0.73729 0.07943 0.83774 0.0
O279 O 0.68812 0.06541 0.81563 0.0
Co280 Co 0.81024 0.73597 0.04205 0.0
O281 O 0.85532 0.74337 0.05209 0.0
O282 O 0.81968 0.70047 0.0567 0.0
C283 C 0.81065 0.75389 0.9927 0.0
O284 O 0.76358 0.71447 0.03377 0.0
Co285 Co 0.77314 0.78062 0.03428 0.0
O286 O 0.73382 0.74541 0.02483 0.0
C287 C 0.79821 0.77697 0.10131 0.0
C288 C 0.84882 0.71519 0.05933 0.0
C289 C 0.73663 0.7184 0.02764 0.0
O290 O 0.80905 0.75486 0.08908 0.0
O291 O 0.78437 0.79153 0.08319 0.0
O292 O 0.81155 0.7256 0.9954 0.0
O293 O 0.80984 0.77115 0.01984 0.0
Co294 Co 0.93707 0.5698 0.8339 0.0
O295 O 0.93816 0.60517 0.81188 0.0
O296 O 0.89567 0.56862 0.81663 0.0
C297 C 0.97141 0.59559 0.87922 0.0
O298 O 0.92484 0.53128 0.85447 0.0
Co299 Co 0.99301 0.54479 0.85449 0.0
O300 O 0.96486 0.51731 0.87802 0.0
C301 C 0.95741 0.52532 0.78701 0.0
C302 C 0.90797 0.59404 0.8058 0.0
C303 C 0.93584 0.51385 0.87139 0.0
O304 O 0.93956 0.54264 0.79282 0.0
O305 O 0.98013 0.52421 0.80771 0.0
O306 O 0.9428 0.59668 0.87614 0.0
O307 O 0.97885 0.5818 0.85385 0.0
Co308 Co 0.82002 0.45814 0.53289 0.0
O309 O 0.78359 0.4593 0.55186 0.0
O310 O 0.82367 0.50051 0.5518 0.0
C311 C 0.79591 0.42658 0.48527 0.0
O312 O 0.86064 0.46782 0.51585 0.0
Co313 Co 0.83927 0.3975 0.51246 0.0
O314 O 0.8724 0.42488 0.49403 0.0
C315 C 0.85474 0.43032 0.58128 0.0
C316 C 0.79667 0.48951 0.55994 0.0
C317 C 0.87801 0.4546 0.50087 0.0
O318 O 0.84168 0.45146 0.57487 0.0
O319 O 0.85505 0.40697 0.56031 0.0
O320 O 0.79783 0.45639 0.4895 0.0
O321 O 0.80566 0.41654 0.51065 0.0
Co322 Co 0.66838 0.59232 0.32994 0.0
O323 O 0.66183 0.54673 0.32036 0.0
O324 O 0.70346 0.58306 0.31444 0.0
C325 C 0.65197 0.59311 0.38034 0.0
O326 O 0.68859 0.63971 0.33706 0.0
Co327 Co 0.62282 0.62813 0.33749 0.0
O328 O 0.65678 0.66855 0.34621 0.0
C329 C 0.62624 0.60168 0.27061 0.0
C330 C 0.68943 0.55351 0.31228 0.0
C331 C 0.68369 0.66662 0.34279 0.0
O332 O 0.64884 0.5921 0.28309 0.0
O333 O 0.6114 0.61557 0.28861 0.0
O334 O 0.67978 0.59235 0.37657 0.0
O335 O 0.63401 0.59259 0.35344 0.0
Dy336 Dy 0.11002 0.0992 0.08232 0.0
Dy337 Dy 0.04506 0.05765 0.04406 0.0
C338 C 0.1016 0.0758 1.00352 0.0
O339 O 0.09169 0.13818 0.06292 0.0
O340 O 0.04091 0.10906 0.04769 0.0
O341 O 0.15611 0.13071 0.08475 0.0
O342 O 0.14352 0.11124 0.12686 0.0
O343 O 0.04193 0.05916 0.09719 0.0
O344 O 0.07843 0.10544 0.11864 0.0
O345 O 0.0688 1.01832 0.05175 0.0
O346 O 0.1072 0.04858 0.09235 0.0
O347 O 1.00383 1.01871 0.04099 0.0
O348 O 1.00569 0.04956 1.00581 0.0
C349 C 0.06255 0.13684 0.05144 0.0
O350 O 0.12028 0.08598 0.03179 0.0
O351 O 0.07152 0.06425 1.00235 0.0
C352 C 0.19009 0.10749 0.1114 0.0
C353 C 0.23198 0.07126 0.10953 0.0
C354 C 0.2034 0.06125 0.0884 0.0
C355 C 0.18277 0.07913 0.08934 0.0
C356 C 0.21869 0.11791 0.13259 0.0
C357 C 0.23977 0.09996 0.13143 0.0
C358 C 0.16629 0.12412 0.11251 0.0
C359 C 0.05501 0.08202 0.12191 0.0
C360 C 0.09118 1.01996 0.07628 0.0
C361 C 0.95996 0.03616 0.02766 0.0
C362 C 0.9148 0.06517 0.04425 0.0
C363 C 0.9358 0.05987 0.06871 0.0
C364 C 0.95824 0.04556 0.06051 0.0
C365 C 0.93768 0.03956 1.00327 0.0
C366 C 0.91528 0.05404 1.0115 0.0
C367 C 0.98786 0.02852 0.01894 0.0
H368 H 0.19718 0.03974 0.07065 0.0
H369 H 0.16089 0.07065 0.07272 0.0
H370 H 0.22462 0.13965 0.14993 0.0
H371 H 0.26192 0.10827 0.14766 0.0
H372 H 0.93627 0.06873 0.09409 0.0
H373 H 0.97542 0.0437 0.07988 0.0
H374 H 0.9388 0.03281 0.97783 0.0
H375 H 0.89927 0.05793 0.99223 0.0
Dy376 Dy 0.34765 0.83657 0.29302 0.0
Dy377 Dy 0.29838 0.83136 0.34227 0.0
C378 C 0.34748 0.89548 0.34725 0.0
O379 O 0.36811 0.81455 0.33296 0.0
O380 O 0.34333 0.83058 0.37335 0.0
O381 O 0.39552 0.85557 0.28786 0.0
O382 O 0.36216 0.82679 0.24668 0.0
O383 O 0.30462 0.78445 0.32772 0.0
O384 O 0.31349 0.78907 0.27667 0.0
O385 O 0.27152 0.8357 0.2945 0.0
O386 O 0.31091 0.85583 0.26739 0.0
O387 O 0.2512 0.80793 0.34646 0.0
O388 O 0.28251 0.83897 0.3882 0.0
C389 C 0.36627 0.82007 0.36428 0.0
O390 O 0.36285 0.88027 0.3302 0.0
O391 O 0.31833 0.88305 0.34915 0.0
C392 C 0.39917 0.87106 0.23777 0.0
C393 C 0.41165 0.91435 0.19545 0.0
C394 C 0.38636 0.91211 0.21218 0.0
C395 C 0.38037 0.89084 0.23335 0.0
C396 C 0.42593 0.87495 0.22354 0.0
C397 C 0.4323 0.89671 0.20264 0.0
C398 C 0.39 0.84608 0.25661 0.0
C399 C 0.30283 0.7718 0.2976 0.0
C400 C 0.281 0.84854 0.26973 0.0
C401 C 0.25169 0.79034 0.39565 0.0
C402 C 0.24497 0.74 0.4297 0.0
C403 C 0.27037 0.74864 0.41351 0.0
C404 C 0.2737 0.77359 0.39675 0.0
C405 C 0.22551 0.78112 0.41048 0.0
C406 C 0.22225 0.75612 0.42768 0.0
C407 C 0.25643 0.81661 0.37794 0.0
H408 H 0.36946 0.92457 0.20683 0.0
H409 H 0.35996 0.88854 0.24482 0.0
H410 H 0.44108 0.86029 0.22746 0.0
H411 H 0.45216 0.8982 0.19037 0.0
H412 H 0.28882 0.73752 0.41554 0.0
H413 H 0.29412 0.78046 0.38551 0.0
H414 H 0.20813 0.79364 0.40941 0.0
H415 H 0.20262 0.75002 0.44029 0.0
Dy416 Dy 0.54047 0.07326 0.57806 0.0
Dy417 Dy 0.60335 0.0824 0.54546 0.0
C418 C 0.54118 0.09011 0.50644 0.0
O419 O 0.53776 0.02102 0.56217 0.0
O420 O 0.57975 0.02894 0.53563 0.0
O421 O 0.49059 0.05865 0.57513 0.0
O422 O 0.51994 0.08735 0.61921 0.0
O423 O 0.61673 0.08105 0.59761 0.0
O424 O 0.57069 0.05446 0.61049 0.0
O425 O 0.60498 0.13415 0.55955 0.0
O426 O 0.56486 0.12696 0.58872 0.0
O427 O 0.6534 0.09968 0.5505 0.0
O428 O 0.62677 0.06733 0.50722 0.0
C429 C 0.55601 1.00934 0.5448 0.0
O430 O 0.52569 0.07532 0.52663 0.0
O431 O 0.57161 0.09705 0.50964 0.0
C432 C 0.47427 0.10001 0.60064 0.0
C433 C 0.4386 0.14248 0.59306 0.0
C434 C 0.46475 0.1444 0.57774 0.0
C435 C 0.48248 0.1235 0.58165 0.0
C436 C 0.44876 0.09849 0.61667 0.0
C437 C 0.43114 0.11954 0.61299 0.0
C438 C 0.49177 0.07667 0.60264 0.0
C439 C 0.60106 0.0631 0.61543 0.0
C440 C 0.58783 0.14622 0.57804 0.0
C441 C 0.67399 0.05942 0.53027 0.0
C442 C 0.71286 0.0215 0.5457 0.0
C443 C 0.68126 1.01203 0.54854 0.0
C444 C 0.66211 0.03095 0.54121 0.0
C445 C 0.70535 0.0686 0.5268 0.0
C446 C 0.7246 0.04984 0.53442 0.0
C447 C 0.65432 0.08044 0.52473 0.0
H448 H 0.47086 0.16121 0.56168 0.0
H449 H 0.50218 0.12515 0.56912 0.0
H450 H 0.44213 0.08068 0.63156 0.0
H451 H 0.41128 0.11752 0.62532 0.0
H452 H 0.67158 0.99042 0.55725 0.0
H453 H 0.63813 0.0236 0.54467 0.0
H454 H 0.71509 0.09051 0.51864 0.0
H455 H 0.74876 0.05755 0.53157 0.0
Dy456 Dy 0.34965 0.31149 0.81418 0.0
Dy457 Dy 0.29396 0.34583 0.8097 0.0
C458 C 0.3629 0.38392 0.80298 0.0
O459 O 0.34392 0.32404 0.86691 0.0
O460 O 0.32274 0.36417 0.85932 0.0
O461 O 0.39612 0.31068 0.83289 0.0
O462 O 0.36781 0.27464 0.7932 0.0
O463 O 0.27878 0.30469 0.8345 0.0
O464 O 0.30578 0.27272 0.81381 0.0
O465 O 0.28989 0.31981 0.75845 0.0
O466 O 0.33929 0.31579 0.76175 0.0
O467 O 0.24514 0.34013 0.79377 0.0
O468 O 0.27392 0.38319 0.82472 0.0
C469 C 0.33591 0.34908 0.8788 0.0
O470 O 0.37241 0.3627 0.81664 0.0
O471 O 0.33304 0.38036 0.79363 0.0
C472 C 0.42076 0.2964 0.78838 0.0
C473 C 0.46648 0.3116 0.74772 0.0
C474 C 0.46579 0.33344 0.7748 0.0
C475 C 0.44338 0.32595 0.79487 0.0
C476 C 0.4211 0.27471 0.76096 0.0
C477 C 0.44361 0.28226 0.74081 0.0
C478 C 0.39591 0.28884 0.80884 0.0
C479 C 0.28187 0.27654 0.82698 0.0
C480 C 0.31249 0.31359 0.7443 0.0
C481 C 0.22259 0.36184 0.83538 0.0
C482 C 0.17693 0.34777 0.87616 0.0
C483 C 0.20857 0.35266 0.88827 0.0
C484 C 0.23111 0.35935 0.86805 0.0
C485 C 0.19121 0.35798 0.82358 0.0
C486 C 0.16869 0.35115 0.8437 0.0
C487 C 0.24558 0.36579 0.81278 0.0
H488 H 0.48275 0.35645 0.78056 0.0
H489 H 0.44379 0.34348 0.81545 0.0
H490 H 0.4039 0.25186 0.75506 0.0
H491 H 0.44355 0.26488 0.72023 0.0
H492 H 0.21575 0.35018 0.91306 0.0
H493 H 0.25509 0.3618 0.87775 0.0
H494 H 0.18399 0.35968 0.79853 0.0
H495 H 0.1447 0.34831 0.83374 0.0
Dy496 Dy 0.09335 0.04917 0.55767 0.0
Dy497 Dy 0.06147 0.10714 0.56282 0.0
C498 C 1.02331 0.03755 0.56967 0.0
O499 O 0.06606 0.044 0.50695 0.0
O500 O 0.06597 0.09534 0.51072 0.0
O501 O 0.08863 0.99961 0.54401 0.0
O502 O 0.13123 0.03055 0.5731 0.0
O503 O 0.11262 0.12809 0.56567 0.0
O504 O 0.12635 0.08734 0.53867 0.0
O505 O 0.06971 0.09924 0.61491 0.0
O506 O 0.10895 0.0769 0.60846 0.0
O507 O 0.06403 0.15577 0.57965 0.0
O508 O 1.02523 0.12632 0.54387 0.0
C509 C 0.06056 0.0673 0.49337 0.0
O510 O 0.05038 0.03354 0.57907 0.0
O511 O 1.02151 0.06314 0.55843 0.0
C512 C 0.11169 0.98021 0.58717 0.0
C513 C 0.10109 0.93572 0.6298 0.0
C514 C 0.08892 0.96153 0.63319 0.0
C515 C 0.09422 0.98355 0.61215 0.0
C516 C 0.12524 0.95554 0.58485 0.0
C517 C 0.12027 0.93375 0.60609 0.0
C518 C 0.11448 1.00142 0.56273 0.0
C519 C 0.1315 0.11774 0.54882 0.0
C520 C 0.09279 0.08927 0.6275 0.0
C521 C 0.04817 0.17737 0.53434 0.0
C522 C 0.06129 0.21833 0.4887 0.0
C523 C 0.08017 0.19895 0.4955 0.0
C524 C 0.07344 0.17844 0.51774 0.0
C525 C 1.02926 0.19667 0.52763 0.0
C526 C 0.03573 0.21692 0.50502 0.0
C527 C 0.04099 0.15506 0.5573 0.0
H528 H 0.0742 0.96397 0.65118 0.0
H529 H 0.08388 1.00269 0.61478 0.0
H530 H 0.13916 0.95268 0.56614 0.0
H531 H 0.1309 0.91482 0.6034 0.0
H532 H 0.09997 0.19945 0.48336 0.0
H533 H 0.08792 0.16323 0.5219 0.0
H534 H 1.00949 0.19607 0.53985 0.0
H535 H 1.02103 0.23193 0.50073 0.0
Dy536 Dy 0.33103 0.86616 0.79205 0.0
Dy537 Dy 0.32091 0.80186 0.82348 0.0
C538 C 0.31566 0.8659 0.86443 0.0
O539 O 0.38206 0.86969 0.80938 0.0
O540 O 0.37393 0.82328 0.82905 0.0
O541 O 0.34703 0.91634 0.79348 0.0
O542 O 0.31545 0.88633 0.7514 0.0
O543 O 0.32159 0.78786 0.77118 0.0
O544 O 0.34809 0.83435 0.75829 0.0
O545 O 0.26958 0.79914 0.80796 0.0
O546 O 0.27809 0.84356 0.78479 0.0
O547 O 0.30425 0.75144 0.82036 0.0
O548 O 0.33706 0.77987 0.86234 0.0
C549 C 0.39329 0.84898 0.82278 0.0
O550 O 0.32949 0.88154 0.84376 0.0
O551 O 0.3081 0.83501 0.8604 0.0
C552 C 0.30486 0.93322 0.77221 0.0
C553 C 0.26207 0.96775 0.78258 0.0
C554 C 0.27013 0.95016 0.8056 0.0
C555 C 0.29082 0.93264 0.80016 0.0
C556 C 0.29651 0.95041 0.74886 0.0
C557 C 0.27509 0.96745 0.75392 0.0
C558 C 0.3273 0.91501 0.76752 0.0
C559 C 0.33925 0.80355 0.75312 0.0
C560 C 0.2585 0.81891 0.79265 0.0
C561 C 0.34621 0.73283 0.83915 0.0
C562 C 0.38823 0.6976 0.82667 0.0
C563 C 0.37983 0.71566 0.80424 0.0
C564 C 0.35924 0.73322 0.81051 0.0
C565 C 0.35507 0.71538 0.86197 0.0
C566 C 0.37601 0.69801 0.85584 0.0
C567 C 0.32446 0.75162 0.84542 0.0
H568 H 0.2603 0.94991 0.82779 0.0
H569 H 0.2959 0.91858 0.81788 0.0
H570 H 0.30666 0.95082 0.72688 0.0
H571 H 0.26933 0.98104 0.73594 0.0
H572 H 0.38925 0.71623 0.78182 0.0
H573 H 0.35348 0.74712 0.79288 0.0
H574 H 0.34572 0.71507 0.88442 0.0
H575 H 0.38209 0.68431 0.87356 0.0
Dy576 Dy 0.56471 0.10091 0.01487 0.0
Dy577 Dy 0.55888 0.05125 0.06386 0.0
C578 C 0.58252 0.03484 0.99618 0.0
O579 O 0.5139 0.07933 1.0095 0.0
O580 O 0.52199 0.03366 0.01968 0.0
O581 O 0.55978 0.11504 0.96779 0.0
O582 O 0.5836 0.14956 1.01082 0.0
O583 O 0.54168 0.08873 0.09159 0.0
O584 O 0.55454 0.1272 0.0605 0.0
O585 O 0.60214 0.08979 0.0859 0.0
O586 O 0.61177 0.10089 0.03648 0.0
O587 O 0.57462 0.02591 0.09961 0.0
O588 O 0.52666 1.01112 0.07521 0.0
C589 C 0.50367 0.04897 1.00777 0.0
O590 O 0.57061 0.05627 0.98511 0.0
O591 O 0.586 0.03398 0.02764 0.0
C592 C 0.60737 0.15032 0.96441 0.0
C593 C 0.65416 0.13869 0.93165 0.0
C594 C 0.65898 0.14368 0.96562 0.0
C595 C 0.63571 0.14965 0.982 0.0
C596 C 0.60461 0.14988 0.93085 0.0
C597 C 0.62807 0.14427 0.91452 0.0
C598 C 0.57912 0.14299 0.97914 0.0
C599 C 0.5449 0.11796 0.08695 0.0
C600 C 0.62088 0.10362 0.06762 0.0
C601 C 0.53469 1.0055 0.12883 0.0
C602 C 0.50072 1.00423 0.18004 0.0
C603 C 0.5221 0.03236 0.17669 0.0
C604 C 0.53889 0.03303 0.15118 0.0
C605 C 0.51415 0.97712 0.13269 0.0
C606 C 0.49723 0.97645 0.15825 0.0
C607 C 0.54657 1.00744 0.09833 0.0
H608 H 0.67894 0.13942 0.97917 0.0
H609 H 0.63866 0.15027 1.00802 0.0
H610 H 0.58306 0.15041 0.91687 0.0
H611 H 0.62418 0.14061 0.88817 0.0
H612 H 0.52545 0.05398 0.19356 0.0
H613 H 0.55413 0.05527 0.14813 0.0
H614 H 0.51015 0.95585 0.11508 0.0
H615 H 0.48079 0.95458 0.16039 0.0
Dy616 Dy 0.30255 0.29015 0.28838 0.0
Dy617 Dy 0.34401 0.35566 0.32805 0.0
C618 C 0.32555 0.29835 0.3678 0.0
O619 O 0.26328 0.3106 0.30264 0.0
O620 O 0.29357 0.35831 0.33139 0.0
O621 O 0.27009 0.24414 0.28538 0.0
O622 O 0.29175 0.25572 0.24414 0.0
O623 O 0.33885 0.36279 0.27539 0.0
O624 O 0.29714 0.3211 0.25187 0.0
O625 O 0.38231 0.33166 0.31865 0.0
O626 O 0.35251 0.29251 0.2781 0.0
O627 O 0.38281 0.39719 0.33156 0.0
O628 O 0.35315 0.39454 0.36789 0.0
C629 C 0.26536 0.33806 0.32075 0.0
O630 O 0.31139 0.2802 0.33976 0.0
O631 O 0.34074 0.328 0.36894 0.0
C632 C 0.29335 0.2088 0.26053 0.0
C633 C 0.32918 0.16675 0.26404 0.0
C634 C 0.33708 0.19473 0.28669 0.0
C635 C 0.31946 0.2155 0.28488 0.0
C636 C 0.28512 0.18088 0.23766 0.0
C637 C 0.30294 0.15976 0.23952 0.0
C638 C 0.27763 0.23319 0.25824 0.0
C639 C 0.31794 0.3472 0.24982 0.0
C640 C 0.38065 0.30894 0.29408 0.0
C641 C 0.36428 0.44071 0.34602 0.0
C642 C 0.32716 0.47718 0.324 0.0
C643 C 0.34381 0.46428 0.30283 0.0
C644 C 0.36227 0.44616 0.31373 0.0
C645 C 0.35045 0.45669 0.36802 0.0
C646 C 0.33189 0.47473 0.35704 0.0
C647 C 0.37316 0.41304 0.35425 0.0
H648 H 0.35685 0.20045 0.30613 0.0
H649 H 0.32658 0.23717 0.30241 0.0
H650 H 0.26536 0.17568 0.21833 0.0
H651 H 0.2965 0.13826 0.22175 0.0
H652 H 0.3408 0.46628 0.27733 0.0
H653 H 0.37279 0.43437 0.29613 0.0
H654 H 0.35175 0.453 0.39302 0.0
H655 H 0.31987 0.48533 0.37396 0.0
Dy656 Dy 0.59179 0.55044 0.05722 0.0
Dy657 Dy 0.56112 0.6096 0.06372 0.0
C658 C 0.52145 0.54028 0.07021 0.0
O659 O 0.56592 0.54631 1.00606 0.0
O660 O 0.56112 0.5964 1.01061 0.0
O661 O 0.58654 0.50081 0.0433 0.0
O662 O 0.62932 0.53124 0.07249 0.0
O663 O 0.6121 0.6292 0.06488 0.0
O664 O 0.6247 0.58799 0.03736 0.0
O665 O 0.56919 0.6008 0.11543 0.0
O666 O 0.60773 0.57765 0.10833 0.0
O667 O 0.56714 0.6591 0.08095 0.0
O668 O 0.52552 0.63089 0.04807 0.0
C669 C 0.5583 0.56901 0.99298 0.0
O670 O 0.54793 0.53406 0.07701 0.0
O671 O 0.52039 0.56683 0.06071 0.0
C672 C 0.60902 0.48106 0.08659 0.0
C673 C 0.59986 0.43811 0.13105 0.0
C674 C 0.58449 0.46157 0.13131 0.0
C675 C 0.58914 0.48284 0.10949 0.0
C676 C 0.62498 0.45827 0.08672 0.0
C677 C 0.62051 0.43711 0.10869 0.0
C678 C 0.61223 0.50223 0.06208 0.0
C679 C 0.63007 0.61846 0.0471 0.0
C680 C 0.59188 0.59016 0.12766 0.0
C681 C 0.54993 0.68166 0.03674 0.0
C682 C 0.56626 0.7236 0.99236 0.0
C683 C 0.57547 0.73388 0.02619 0.0
C684 C 0.56743 0.71318 0.04806 0.0
C685 C 0.54057 0.67141 1.00287 0.0
C686 C 0.54847 0.69214 0.98103 0.0
C687 C 0.5434 0.65931 0.06004 0.0
H688 H 0.56794 0.46282 0.14754 0.0
H689 H 0.57665 0.50031 0.11006 0.0
H690 H 0.64055 0.45648 0.06947 0.0
H691 H 0.63295 0.41957 0.10784 0.0
H692 H 0.5885 0.75814 0.03586 0.0
H693 H 0.57508 0.72181 0.07391 0.0
H694 H 0.52734 0.64723 0.99309 0.0
H695 H 0.54089 0.68347 0.95518 0.0
Dy696 Dy 0.82943 0.36359 0.29309 0.0
Dy697 Dy 0.81955 0.29736 0.32096 0.0
C698 C 0.81122 0.35848 0.36473 0.0
O699 O 0.88 0.36806 0.31343 0.0
O700 O 0.87267 0.31875 0.32643 0.0
O701 O 0.84477 0.41415 0.2975 0.0
O702 O 0.81674 0.38543 0.25271 0.0
O703 O 0.81802 0.28615 0.26792 0.0
O704 O 0.84752 0.33296 0.25891 0.0
O705 O 0.76838 0.29695 0.30808 0.0
O706 O 0.77685 0.33963 0.28207 0.0
O707 O 0.80315 0.24659 0.31399 0.0
O708 O 0.83438 0.27276 0.35798 0.0
C709 C 0.89168 0.34627 0.32382 0.0
O710 O 0.82085 0.3757 0.3432 0.0
O711 O 0.80854 0.32826 0.36101 0.0
C712 C 0.8043 0.43136 0.27282 0.0
C713 C 0.76109 0.46618 0.27973 0.0
C714 C 0.76231 0.44276 0.29856 0.0
C715 C 0.78355 0.42544 0.295 0.0
C716 C 0.80277 0.45416 0.25347 0.0
C717 C 0.78137 0.4714 0.25687 0.0
C718 C 0.82731 0.41364 0.27017 0.0
C719 C 0.83683 0.30228 0.25119 0.0
C720 C 0.7573 0.3159 0.29133 0.0
C721 C 0.84423 0.22683 0.33313 0.0
C722 C 0.88767 0.1931 0.32182 0.0
C723 C 0.8799 0.21173 0.29968 0.0
C724 C 0.85859 0.22856 0.30538 0.0
C725 C 0.8523 0.20866 0.35555 0.0
C726 C 0.87391 0.19203 0.35001 0.0
C727 C 0.82225 0.2453 0.33934 0.0
H728 H 0.74763 0.43854 0.31688 0.0
H729 H 0.78419 0.40777 0.31007 0.0
H730 H 0.81836 0.45889 0.23602 0.0
H731 H 0.78096 0.48917 0.24188 0.0
H732 H 0.89046 0.2134 0.27802 0.0
H733 H 0.85337 0.24303 0.28809 0.0
H734 H 0.8419 0.20734 0.37734 0.0
H735 H 0.87945 0.17783 0.36747 0.0
Dy736 Dy 0.0596 0.59418 0.52182 0.0
Dy737 Dy 0.06223 0.54734 0.57332 0.0
C738 C 0.07799 0.52971 0.50068 0.0
O739 O 1.01497 0.55621 0.507 0.0
O740 O 1.01232 0.54134 0.55666 0.0
O741 O 0.04337 0.60583 0.47587 0.0
O742 O 0.07676 0.64133 0.51221 0.0
O743 O 0.05873 0.59238 0.60317 0.0
O744 O 0.03632 0.6121 0.56224 0.0
O745 O 0.11184 0.5702 0.57181 0.0
O746 O 0.10277 0.61469 0.55821 0.0
O747 O 0.07312 0.537 0.62141 0.0
O748 O 0.05155 0.49923 0.58054 0.0
C749 C 0.99975 0.54048 0.52673 0.0
O750 O 0.08258 0.55948 0.49721 0.0
O751 O 0.06599 0.52002 0.52571 0.0
C752 C 0.08652 0.63844 0.45856 0.0
C753 C 0.13524 0.63686 0.42395 0.0
C754 C 0.10552 0.61591 0.41254 0.0
C755 C 0.08128 0.61679 0.42956 0.0
C756 C 0.11562 0.66143 0.46815 0.0
C757 C 0.13993 0.66059 0.45092 0.0
C758 C 0.06435 0.63316 0.4816 0.0
C759 C 0.04447 0.61267 0.59372 0.0
C760 C 0.12163 0.6001 0.57041 0.0
C761 C 0.03421 0.49397 0.63009 0.0
C762 C 0.98901 0.48076 0.6701 0.0
C763 C 0.98055 0.48464 0.63806 0.0
C764 C 1.00304 0.49129 0.61817 0.0
C765 C 0.04222 0.4876 0.66105 0.0
C766 C 1.01979 0.48106 0.68096 0.0
C767 C 0.05878 0.50707 0.61204 0.0
H768 H 0.10145 0.59786 0.39125 0.0
H769 H 0.05911 0.59905 0.42118 0.0
H770 H 0.12024 0.67864 0.49023 0.0
H771 H 0.16272 0.67716 0.45973 0.0
H772 H 0.95707 0.48469 0.62922 0.0
H773 H 0.99637 0.4961 0.59422 0.0
H774 H 0.06616 0.48971 0.6706 0.0
H775 H 1.02725 0.47899 0.70583 0.0
Dy776 Dy 0.85053 0.81145 0.31392 0.0
Dy777 Dy 0.79531 0.84649 0.31003 0.0
C778 C 0.86436 0.884 0.30359 0.0
O779 O 0.84494 0.82398 0.36679 0.0
O780 O 0.8246 0.86468 0.35925 0.0
O781 O 0.89765 0.81141 0.33091 0.0
O782 O 0.86793 0.77373 0.29366 0.0
O783 O 0.77975 0.80523 0.33463 0.0
O784 O 0.80653 0.77299 0.31395 0.0
O785 O 0.79053 0.82055 0.25879 0.0
O786 O 0.8397 0.81589 0.26153 0.0
O787 O 0.7465 0.84142 0.29496 0.0
O788 O 0.77615 0.88446 0.32525 0.0
C789 C 0.83735 0.8493 0.3787 0.0
O790 O 0.87342 0.8627 0.3175 0.0
O791 O 0.83461 0.88057 0.29371 0.0
C792 C 0.92012 0.79384 0.28642 0.0
C793 C 0.96515 0.80467 0.24442 0.0
C794 C 0.94958 0.82713 0.25273 0.0
C795 C 0.92729 0.82174 0.27338 0.0
C796 C 0.93492 0.77101 0.27746 0.0
C797 C 0.95702 0.77626 0.25662 0.0
C798 C 0.89639 0.788 0.30813 0.0
C799 C 0.78267 0.77699 0.32711 0.0
C800 C 0.81286 0.81411 0.24437 0.0
C801 C 0.72548 0.86363 0.33755 0.0
C802 C 0.6815 0.85044 0.38023 0.0
C803 C 0.71311 0.85369 0.39079 0.0
C804 C 0.73482 0.86009 0.36967 0.0
C805 C 0.69409 0.86086 0.32712 0.0
C806 C 0.67238 0.85434 0.34816 0.0
C807 C 0.74759 0.86727 0.31406 0.0
H808 H 0.9551 0.84921 0.24382 0.0
H809 H 0.91573 0.83949 0.27928 0.0
H810 H 0.92936 0.74903 0.28656 0.0
H811 H 0.96778 0.75799 0.25005 0.0
H812 H 0.72092 0.85014 0.41499 0.0
H813 H 0.75878 0.86144 0.3782 0.0
H814 H 0.68622 0.86313 0.30242 0.0
H815 H 0.64829 0.85215 0.33921 0.0
Dy816 Dy 0.83802 0.32478 0.79812 0.0
Dy817 Dy 0.79465 0.33544 0.85075 0.0
C818 C 0.84898 0.39201 0.84417 0.0
O819 O 0.85822 0.30638 0.84088 0.0
O820 O 0.83979 0.33291 0.88053 0.0
O821 O 0.88441 0.33011 0.78766 0.0
O822 O 0.84483 0.31022 0.74914 0.0
O823 O 0.79135 0.28482 0.84335 0.0
O824 O 0.80088 0.27894 0.79137 0.0
O825 O 0.76645 0.33442 0.80156 0.0
O826 O 0.8055 0.34841 0.77252 0.0
O827 O 0.74735 0.32779 0.85891 0.0
O828 O 0.7853 0.34987 0.89878 0.0
C829 C 0.85973 0.31758 0.87194 0.0
O830 O 0.86089 0.37151 0.82951 0.0
O831 O 0.81995 0.3844 0.8482 0.0
C832 C 0.887 0.34789 0.73807 0.0
C833 C 0.89457 0.3929 0.69726 0.0
C834 C 0.8923 0.40157 0.72991 0.0
C835 C 0.88842 0.37916 0.75018 0.0
C836 C 0.89205 0.3399 0.70638 0.0
C837 C 0.89595 0.36233 0.68609 0.0
C838 C 0.87479 0.32313 0.75639 0.0
C839 C 0.78905 0.26713 0.81537 0.0
C840 C 0.77608 0.34442 0.77548 0.0
C841 C 0.74376 0.30987 0.90869 0.0
C842 C 0.74151 0.26059 0.94352 0.0
C843 C 0.73126 0.25381 0.90992 0.0
C844 C 0.73238 0.27832 0.89252 0.0
C845 C 0.75016 0.31627 0.94277 0.0
C846 C 0.74912 0.2917 0.96012 0.0
C847 C 0.7557 0.33505 0.89039 0.0
H848 H 0.89164 0.42509 0.73917 0.0
H849 H 0.88447 0.38581 0.77464 0.0
H850 H 0.89077 0.31587 0.69663 0.0
H851 H 0.89742 0.35498 0.66088 0.0
H852 H 0.72559 0.22994 0.89678 0.0
H853 H 0.72722 0.27251 0.86621 0.0
H854 H 0.75901 0.34032 0.9557 0.0
H855 H 0.75744 0.29724 0.98612 0.0
Dy856 Dy 0.80417 0.78954 0.79007 0.0
Dy857 Dy 0.84503 0.85725 0.82615 0.0
C858 C 0.82721 0.80069 0.86837 0.0
O859 O 0.76543 0.81296 0.80117 0.0
O860 O 0.79552 0.85954 0.83248 0.0
O861 O 0.76835 0.74557 0.7868 0.0
O862 O 0.79329 0.75369 0.74696 0.0
O863 O 0.82829 0.86767 0.77705 0.0
O864 O 0.81234 0.81716 0.74953 0.0
O865 O 0.88087 0.83712 0.80268 0.0
O866 O 0.85449 0.78505 0.79218 0.0
O867 O 0.88579 0.89673 0.82969 0.0
O868 O 0.85658 0.89621 0.86627 0.0
C869 C 0.76738 0.83986 0.82052 0.0
O870 O 0.80997 0.78212 0.84198 0.0
O871 O 0.84507 0.82888 0.86693 0.0
C872 C 0.78812 0.70561 0.76403 0.0
C873 C 0.82463 0.66422 0.7685 0.0
C874 C 0.82287 0.68422 0.79633 0.0
C875 C 0.8048 0.70467 0.79416 0.0
C876 C 0.78855 0.68446 0.73636 0.0
C877 C 0.80662 0.66364 0.73862 0.0
C878 C 0.77626 0.7327 0.76079 0.0
C879 C 0.82021 0.84757 0.74944 0.0
C880 C 0.8807 0.80767 0.79307 0.0
C881 C 0.87303 0.94336 0.8463 0.0
C882 C 0.84255 0.98353 0.8207 0.0
C883 C 0.86418 0.97369 0.80425 0.0
C884 C 0.8794 0.95361 0.81698 0.0
C885 C 0.85511 0.95738 0.86498 0.0
C886 C 0.83969 0.97713 0.85207 0.0
C887 C 0.87804 0.91352 0.85315 0.0
H888 H 0.83636 0.68474 0.81966 0.0
H889 H 0.80536 0.721 0.81583 0.0
H890 H 0.77632 0.68523 0.7128 0.0
H891 H 0.80772 0.64827 0.71689 0.0
H892 H 0.8671 0.97909 0.78032 0.0
H893 H 0.89369 0.94379 0.80231 0.0
H894 H 0.8503 0.95045 0.88794 0.0
H895 H 0.82342 0.98515 0.86532 0.0
Dy896 Dy 0.61258 0.60067 0.58235 0.0
Dy897 Dy 0.54719 0.5592 0.54555 0.0
C898 C 0.60387 0.57707 0.50475 0.0
O899 O 0.59314 0.6383 0.56109 0.0
O900 O 0.54201 0.61002 0.54948 0.0
O901 O 0.65819 0.63194 0.58236 0.0
O902 O 0.64571 0.61803 0.62703 0.0
O903 O 0.54055 0.5641 0.59817 0.0
O904 O 0.58243 0.60612 0.62019 0.0
O905 O 0.57161 0.52065 0.55435 0.0
O906 O 0.61129 0.55084 0.59385 0.0
O907 O 0.50704 0.51872 0.54081 0.0
O908 O 0.50874 0.55004 0.50607 0.0
C909 C 0.56375 0.63736 0.55144 0.0
O910 O 0.62271 0.58372 0.53284 0.0
O911 O 0.57368 0.569 0.50413 0.0
C912 C 0.69526 0.61692 0.61592 0.0
C913 C 0.73566 0.57934 0.61012 0.0
C914 C 0.73674 0.60326 0.59151 0.0
C915 C 0.71678 0.62197 0.59446 0.0
C916 C 0.69651 0.59516 0.63691 0.0
C917 C 0.71655 0.57652 0.63399 0.0
C918 C 0.66842 0.6297 0.61201 0.0
C919 C 0.55663 0.58548 0.62325 0.0
C920 C 0.59453 0.52226 0.57828 0.0
C921 C 0.4626 0.53484 0.52649 0.0
C922 C 0.41893 0.56603 0.54218 0.0
C923 C 0.43897 0.55989 0.56695 0.0
C924 C 0.46062 0.54442 0.55918 0.0
C925 C 0.4407 0.53837 0.50177 0.0
C926 C 0.41883 0.55374 0.50958 0.0
C927 C 0.49107 0.5282 0.51845 0.0
H928 H 0.75143 0.60602 0.57303 0.0
H929 H 0.71657 0.63874 0.57821 0.0
H930 H 0.68059 0.59097 0.6541 0.0
H931 H 0.71594 0.55877 0.6492 0.0
H932 H 0.43945 0.56903 0.59226 0.0
H933 H 0.47728 0.54211 0.57877 0.0
H934 H 0.44192 0.53127 0.47643 0.0
H935 H 0.403 0.55753 0.4901 0.0
Dy936 Dy 0.03763 0.57275 0.07139 0.0
Dy937 Dy 0.10188 0.57937 0.04278 0.0
C938 C 0.04303 0.58979 1.00097 0.0
O939 O 1.03182 0.52203 0.04498 0.0
O940 O 0.08305 0.52656 0.04373 0.0
O941 O 0.98744 0.55776 0.06234 0.0
O942 O 1.01257 0.5821 0.11026 0.0
O943 O 0.11251 0.57989 0.09565 0.0
O944 O 0.06537 0.55246 0.10523 0.0
O945 O 0.10097 0.6311 0.05396 0.0
O946 O 0.06569 0.62496 0.08896 0.0
O947 O 0.15204 0.5978 0.04925 0.0
O948 O 0.12692 0.56422 1.00628 0.0
C949 C 0.05417 0.50844 0.04085 0.0
O950 O 1.03292 0.59519 0.02818 0.0
O951 O 0.06688 0.57854 0.99983 0.0
C952 C 0.96721 0.59545 0.0895 0.0
C953 C 0.93221 0.63864 0.08281 0.0
C954 C 0.91946 0.60662 0.06887 0.0
C955 C 0.93674 0.58531 0.07218 0.0
C956 C 0.97998 0.62743 0.10366 0.0
C957 C 0.96266 0.64881 0.10036 0.0
C958 C 0.98583 0.57285 0.09059 0.0
C959 C 0.09573 0.56118 0.11207 0.0
C960 C 0.08667 0.64389 0.07555 0.0
C961 C 0.17388 0.55763 0.03122 0.0
C962 C 0.21182 0.5187 0.04597 0.0
C963 C 0.22435 0.54773 0.03627 0.0
C964 C 0.20553 0.56698 0.02891 0.0
C965 C 0.16145 0.52884 0.04125 0.0
C966 C 0.18017 0.50959 0.04851 0.0
C967 C 0.15401 0.57816 0.02433 0.0
H968 H 0.89613 0.59806 0.05503 0.0
H969 H 0.92641 0.5609 0.06078 0.0
H970 H 1.0034 0.63599 0.11715 0.0
H971 H 0.97296 0.67318 0.11187 0.0
H972 H 0.24869 0.55543 0.03411 0.0
H973 H 0.21571 0.58919 0.0215 0.0
H974 H 0.13727 0.52126 0.04373 0.0
H975 H 0.16997 0.48778 0.05662 0.0
C976 C 0.0668 0.21964 0.02246 0.0
C977 C 0.03761 0.22538 0.02516 0.0
C978 C 0.0747 0.19211 0.03125 0.0
C979 C 0.05387 0.16726 0.04263 0.0
H980 H 0.0843 0.23707 0.01415 0.0
H981 H 0.09762 0.1902 0.02867 0.0
S982 S 0.97406 0.16897 0.05413 0.0
N983 N 0.98791 0.20221 0.04096 0.0
N984 N 1.00185 0.1515 0.05538 0.0
C985 C 1.0245 0.17247 0.04482 0.0
C986 C 1.01678 0.20083 0.03681 0.0
C987 C 0.23944 0.85997 0.18671 0.0
C988 C 0.20877 0.85897 0.1917 0.0
C989 C 0.26268 0.85765 0.21182 0.0
C990 C 0.2567 0.85363 0.24349 0.0
H991 H 0.24559 0.86222 0.16292 0.0
H992 H 0.2854 0.8582 0.20597 0.0
S993 S 0.18077 0.85034 0.27043 0.0
N994 N 0.17459 0.85454 0.23203 0.0
N995 N 0.2172 0.84977 0.27813 0.0
C996 C 0.22627 0.85305 0.2489 0.0
C997 C 0.2028 0.85581 0.22352 0.0
C998 C 0.52553 0.91649 0.53928 0.0
C999 C 0.54132 0.90387 0.51611 0.0
C1000 C 0.52986 0.94984 0.54821 0.0
C1001 C 0.55061 0.97304 0.53498 0.0
H1002 H 0.509 0.90043 0.55011 0.0
H1003 H 0.51673 0.95747 0.56582 0.0
S1004 S 0.59928 0.95325 0.47467 0.0
N1005 N 0.57958 0.91855 0.48116 0.0
N1006 N 0.58783 0.97933 0.49769 0.0
C1007 C 0.5669 0.96051 0.51233 0.0
C1008 C 0.56224 0.92682 0.50305 0.0
C1009 C 0.51048 0.32331 0.67566 0.0
C1010 C 0.54185 0.33399 0.69096 0.0
C1011 C 0.4861 0.31569 0.6939 0.0
C1012 C 0.49216 0.31897 0.72814 0.0
H1013 H 0.50472 0.32045 0.64946 0.0
H1014 H 0.46233 0.30753 0.68116 0.0
S1015 S 0.57001 0.34532 0.78002 0.0
N1016 N 0.57725 0.34702 0.74275 0.0
N1017 N 0.53184 0.33272 0.77629 0.0
C1018 C 0.52334 0.32951 0.74357 0.0
C1019 C 0.54801 0.33701 0.72521 0.0
C1020 C 0.08337 0.89111 0.70069 0.0
C1021 C 0.07401 0.85932 0.68531 0.0
C1022 C 0.09204 0.9158 0.68283 0.0
C1023 C 0.09195 0.90967 0.64896 0.0
H1024 H 0.08403 0.897 0.72663 0.0
H1025 H 0.09908 0.93985 0.69568 0.0
S1026 S 0.06622 0.8308 0.59644 0.0
N1027 N 0.06335 0.82351 0.63347 0.0
N1028 N 0.07916 0.8694 0.6006 0.0
C1029 C 0.08195 0.87805 0.63334 0.0
C1030 C 0.07317 0.85309 0.6513 0.0
C1031 C 0.48349 0.88995 0.84541 0.0
C1032 C 0.49687 0.86569 0.85198 0.0
C1033 C 0.45084 0.88438 0.83488 0.0
C1034 C 0.42892 0.85429 0.83135 0.0
H1035 H 0.49835 0.91397 0.84982 0.0
H1036 H 0.44257 0.90432 0.8309 0.0
S1037 S 0.4509 0.78218 0.84576 0.0
N1038 N 0.48453 0.81 0.85382 0.0
N1039 N 0.42432 0.79956 0.83494 0.0
C1040 C 0.44209 0.82974 0.83743 0.0
C1041 C 0.47538 0.83539 0.84756 0.0
C1042 C 0.52219 0.19034 0.12482 0.0
C1043 C 0.53495 0.19615 0.15838 0.0
C1044 C 0.52422 0.16451 0.10256 0.0
C1045 C 0.53848 0.14213 0.1124 0.0
H1046 H 0.51293 0.20772 0.11497 0.0
H1047 H 0.51559 0.16283 0.077 0.0
S1048 S 0.57372 0.14399 0.19756 0.0
N1049 N 0.56151 0.1757 0.20015 0.0
N1050 N 0.56372 0.12647 0.15903 0.0
C1051 C 0.54929 0.14609 0.14622 0.0
C1052 C 0.5479 0.17304 0.16889 0.0
C1053 C 0.20892 0.37637 0.36708 0.0
C1054 C 0.178 0.36084 0.35044 0.0
C1055 C 0.23625 0.36966 0.35714 0.0
C1056 C 0.2352 0.34619 0.33014 0.0
H1057 H 0.21224 0.39429 0.38827 0.0
H1058 H 0.25865 0.38286 0.37145 0.0
S1059 S 0.16067 0.29784 0.27738 0.0
N1060 N 0.1491 0.3206 0.30439 0.0
N1061 N 0.19891 0.3075 0.28688 0.0
C1062 C 0.2044 0.33042 0.31333 0.0
C1063 C 0.17663 0.33777 0.32302 0.0
C1064 C 1.03057 0.09511 0.20646 0.0
C1065 C 1.02951 0.0664 0.2174 0.0
C1066 C 0.03944 0.10069 0.17601 0.0
C1067 C 0.04672 0.07744 0.15485 0.0
H1068 H 1.0252 0.11366 0.22184 0.0
H1069 H 0.04017 0.12313 0.16882 0.0
S1070 S 0.04705 0.99819 0.17131 0.0
N1071 N 0.03667 1.01462 0.20396 0.0
N1072 N 0.05211 0.02467 0.14724 0.0
C1073 C 0.04527 0.04863 0.16537 0.0
C1074 C 0.03702 0.04324 0.19639 0.0
C1075 C 0.25798 0.7189 0.51164 0.0
C1076 C 0.27067 0.69376 0.50563 0.0
C1077 C 0.24569 0.73122 0.48621 0.0
C1078 C 0.24634 0.71926 0.45385 0.0
H1079 H 0.25917 0.73058 0.53613 0.0
H1080 H 0.23865 0.75227 0.49222 0.0
S1081 S 0.27177 0.64981 0.42496 0.0
N1082 N 0.27866 0.65401 0.46505 0.0
N1083 N 0.25648 0.67803 0.41678 0.0
C1084 C 0.25602 0.69206 0.44733 0.0
C1085 C 0.26802 0.67908 0.47339 0.0
C1086 C 0.61712 0.03833 0.69634 0.0
C1087 C 0.64977 0.04899 0.70404 0.0
C1088 C 0.60153 0.04134 0.66677 0.0
C1089 C 0.61804 0.05492 0.64368 0.0
H1090 H 0.60333 0.02976 0.71428 0.0
H1091 H 0.57638 0.03467 0.66297 0.0
S1092 S 0.70379 0.07801 0.64818 0.0
N1093 N 0.69816 0.06775 0.68368 0.0
N1094 N 0.66883 0.07271 0.62747 0.0
C1095 C 0.6507 0.06187 0.64929 0.0
C1096 C 0.66661 0.05891 0.67961 0.0
C1097 C 0.3433 0.40553 0.95802 0.0
C1098 C 0.34344 0.38704 0.98258 0.0
C1099 C 0.34198 0.39315 0.92517 0.0
C1100 C 0.341 0.36156 0.91479 0.0
H1101 H 0.34352 0.42986 0.96401 0.0
H1102 H 0.34127 0.40862 0.90759 0.0
S1103 S 0.34235 0.30307 0.96918 0.0
N1104 N 0.3436 0.33537 0.99412 0.0
N1105 N 0.34135 0.3122 0.93237 0.0
C1106 C 0.34221 0.34292 0.93912 0.0
C1107 C 0.34333 0.35557 0.97287 0.0
C1108 C 0.04458 0.0518 0.3995 0.0
C1109 C 1.01786 0.0619 0.39234 0.0
C1110 C 0.05769 0.05183 0.43201 0.0
C1111 C 0.04492 0.06252 0.45868 0.0
H1112 H 0.0556 0.04402 0.37986 0.0
H1113 H 0.07856 0.04455 0.43631 0.0
S1114 S 0.97511 0.09107 0.45372 0.0
N1115 N 0.97902 0.08219 0.41542 0.0
N1116 N 1.0038 0.08286 0.47555 0.0
C1117 C 1.01812 0.07226 0.45176 0.0
C1118 C 1.00456 0.07177 0.41896 0.0
C1119 C 0.33825 0.73494 0.68948 0.0
C1120 C 0.35178 0.75004 0.66549 0.0
C1121 C 0.33595 0.75243 0.71872 0.0
C1122 C 0.3474 0.78555 0.72505 0.0
H1123 H 0.32616 0.70998 0.68424 0.0
H1124 H 0.32315 0.73991 0.73534 0.0
S1125 S 0.39344 0.83475 0.67391 0.0
N1126 N 0.38283 0.79872 0.65264 0.0
N1127 N 0.37913 0.83178 0.70795 0.0
C1128 C 0.36496 0.80032 0.70322 0.0
C1129 C 0.36716 0.78244 0.67339 0.0
C1130 C 0.71658 0.11413 0.89184 0.0
C1131 C 0.69895 0.08549 0.87203 0.0
C1132 C 0.70251 0.13132 0.91249 0.0
C1133 C 0.6708 0.11965 0.91408 0.0
H1134 H 0.74052 0.12433 0.8895 0.0
H1135 H 0.71593 0.15438 0.92573 0.0
S1136 S 0.61749 0.04181 0.87411 0.0
N1137 N 0.65027 0.04351 0.86021 0.0
N1138 N 0.62414 0.07517 0.89961 0.0
C1139 C 0.65429 0.08924 0.89763 0.0
C1140 C 0.66839 0.07214 0.87658 0.0
C1141 C 0.33958 0.39795 0.18397 0.0
C1142 C 0.33108 0.3757 0.15482 0.0
C1143 C 0.33465 0.38891 0.21444 0.0
C1144 C 0.32017 0.35736 0.21706 0.0
H1145 H 0.35138 0.42229 0.18347 0.0
H1146 H 0.34267 0.40676 0.23618 0.0
S1147 S 0.29185 0.29035 0.14764 0.0
N1148 N 0.30663 0.32089 0.13064 0.0
N1149 N 0.29646 0.30421 0.18689 0.0
C1150 C 0.31047 0.33525 0.18779 0.0
C1151 C 0.31617 0.34431 0.15707 0.0
C1152 C 0.30071 0.04698 0.08588 0.0
C1153 C 0.28992 1.0139 0.08185 0.0
C1154 C 0.283 0.06589 0.09778 0.0
C1155 C 0.25396 0.05235 0.10613 0.0
H1156 H 0.32215 0.05839 0.07803 0.0
H1157 H 0.29107 0.09101 0.0982 0.0
S1158 S 0.21787 0.96772 0.10634 0.0
N1159 N 0.25027 0.9689 0.09171 0.0
N1160 N 0.21716 1.00458 0.11422 0.0
C1161 C 0.24421 1.01965 0.1051 0.0
C1162 C 0.26216 1.00036 0.09292 0.0
C1163 C 0.68058 0.69742 0.03381 0.0
C1164 C 0.70859 0.69152 0.028 0.0
C1165 C 0.65541 0.67347 0.03919 0.0
C1166 C 0.65675 0.64228 0.03866 0.0
H1167 H 0.6784 0.72103 0.03553 0.0
H1168 H 0.63475 0.67969 0.04427 0.0
S1169 S 0.72348 0.6134 0.02136 0.0
N1170 N 0.73528 0.65131 0.01985 0.0
N1171 N 0.6878 0.60645 0.02956 0.0
C1172 C 0.68396 0.63561 0.03125 0.0
C1173 C 0.70985 0.66013 0.02609 0.0
C1174 C 0.73659 0.54058 0.29705 0.0
C1175 C 0.70565 0.52978 0.30229 0.0
C1176 C 0.7538 0.51982 0.28917 0.0
C1177 C 0.74098 0.48713 0.28599 0.0
H1178 H 0.74807 0.56552 0.29962 0.0
H1179 H 0.77775 0.52965 0.28642 0.0
S1180 S 0.66021 0.44611 0.29453 0.0
N1181 N 0.66236 0.48385 0.30212 0.0
N1182 N 0.69468 0.44461 0.28677 0.0
C1183 C 0.7098 0.47575 0.29029 0.0
C1184 C 0.69216 0.49707 0.29848 0.0
C1185 C 0.93497 0.46496 0.50883 0.0
C1186 C 0.90889 0.47476 0.49873 0.0
C1187 C 0.96457 0.4865 0.51693 0.0
C1188 C 0.96908 0.51823 0.51433 0.0
H1189 H 0.93225 0.44113 0.51305 0.0
H1190 H 0.98392 0.47852 0.52634 0.0
S1191 S 0.90928 0.55484 0.485 0.0
N1192 N 0.88985 0.5177 0.48396 0.0
N1193 N 0.94612 0.55799 0.49799 0.0
C1194 C 0.94379 0.52788 0.50179 0.0
C1195 C 0.91346 0.50611 0.49425 0.0
C1196 C 0.39924 0.13907 0.28599 0.0
C1197 C 0.38584 0.10947 0.29382 0.0
C1198 C 0.3806 0.15645 0.27337 0.0
C1199 C 0.34796 0.14482 0.26813 0.0
H1200 H 0.42417 0.14969 0.29128 0.0
H1201 H 0.39173 0.17998 0.26951 0.0
S1202 S 0.30152 0.06663 0.27978 0.0
N1203 N 0.33796 0.06752 0.29134 0.0
N1204 N 0.3031 0.10071 0.26828 0.0
C1205 C 0.33435 0.11423 0.27318 0.0
C1206 C 0.35328 0.09643 0.28595 0.0
C1207 C 0.36433 0.16461 0.57079 0.0
C1208 C 0.3746 0.197 0.56963 0.0
C1209 C 0.38515 0.14762 0.57867 0.0
C1210 C 0.41739 0.1621 0.586 0.0
H1211 H 0.33982 0.15188 0.56508 0.0
H1212 H 0.37582 0.12264 0.57835 0.0
S1213 S 0.45664 0.24681 0.58857 0.0
N1214 N 0.41938 0.24323 0.5776 0.0
N1215 N 0.45868 0.21132 0.59304 0.0
C1216 C 0.42816 0.19462 0.58543 0.0
C1217 C 0.40678 0.21203 0.57717 0.0
C1218 C 0.73746 0.69254 0.33191 0.0
C1219 C 0.70961 0.69552 0.34202 0.0
C1220 C 0.76106 0.71881 0.32774 0.0
C1221 C 0.75815 0.74947 0.33366 0.0
H1222 H 0.74088 0.66953 0.32629 0.0
H1223 H 0.78156 0.71489 0.31932 0.0
S1224 S 0.69066 0.77068 0.36234 0.0
N1225 N 0.68126 0.73208 0.3591 0.0
N1226 N 0.72524 0.78124 0.35155 0.0
C1227 C 0.73079 0.75292 0.34473 0.0
C1228 C 0.70671 0.72611 0.34883 0.0
C1229 C 0.92356 0.45712 0.87416 0.0
C1230 C 0.91367 0.4843 0.87528 0.0
C1231 C 0.90213 0.4273 0.8655 0.0
C1232 C 0.87005 0.42356 0.85812 0.0
H1233 H 0.94806 0.45873 0.87709 0.0
H1234 H 0.91096 0.40706 0.86316 0.0
S1235 S 0.83195 0.48709 0.86484 0.0
N1236 N 0.86952 0.50561 0.87379 0.0
N1237 N 0.82912 0.4492 0.85765 0.0
C1238 C 0.85963 0.45033 0.86277 0.0
C1239 C 0.88151 0.48082 0.87143 0.0
C1240 C 0.09443 0.93114 0.07855 0.0
C1241 C 0.11087 0.93162 0.11002 0.0
C1242 C 0.08805 0.95872 0.06791 0.0
C1243 C 0.09822 0.98953 0.08742 0.0
H1244 H 0.08559 0.9089 0.06193 0.0
H1245 H 0.07494 0.95571 0.04379 0.0
S1246 S 0.14324 1.00537 0.17157 0.0
N1247 N 0.13723 0.96721 0.16021 0.0
N1248 N 0.12674 1.01746 0.14053 0.0
C1249 C 0.11519 0.99028 0.11861 0.0
C1250 C 0.121 0.9622 0.12965 0.0
C1251 C 0.9341 0.29894 0.91123 0.0
C1252 C 0.93676 0.30899 0.94512 0.0
C1253 C 0.90917 0.30116 0.88822 0.0
C1254 C 0.88535 0.31386 0.89746 0.0
H1255 H 0.95164 0.28943 0.90219 0.0
H1256 H 0.90895 0.29321 0.8627 0.0
S1257 S 0.88072 0.34386 0.98302 0.0
N1258 N 0.91237 0.33217 0.98636 0.0
N1259 N 0.86657 0.33649 0.94377 0.0
C1260 C 0.88763 0.32382 0.93128 0.0
C1261 C 0.91285 0.32136 0.95473 0.0
C1262 C 0.62574 0.23741 0.58412 0.0
C1263 C 0.60827 0.25278 0.60293 0.0
C1264 C 0.6192 0.20389 0.57659 0.0
C1265 C 0.5945 0.18271 0.58708 0.0
H1266 H 0.64512 0.25152 0.57496 0.0
H1267 H 0.6339 0.19452 0.56215 0.0
S1268 S 0.54005 0.2093 0.63608 0.0
N1269 N 0.5641 0.24271 0.63128 0.0
N1270 N 0.55179 0.18087 0.61728 0.0
C1271 C 0.57658 0.19766 0.60577 0.0
C1272 C 0.58339 0.23196 0.61359 0.0
C1273 C 0.60604 0.8102 0.40832 0.0
C1274 C 0.60945 0.82575 0.44058 0.0
C1275 C 0.62957 0.81794 0.38943 0.0
C1276 C 0.65769 0.84168 0.4018 0.0
H1277 H 0.58469 0.79218 0.3972 0.0
H1278 H 0.62556 0.8053 0.36472 0.0
S1279 S 0.67867 0.88956 0.48489 0.0
N1280 N 0.64364 0.86583 0.48425 0.0
N1281 N 0.68768 0.88054 0.4487 0.0
C1282 C 0.6618 0.85695 0.4343 0.0
C1283 C 0.63778 0.84899 0.45363 0.0
C1284 C 0.10503 0.2881 0.45347 0.0
C1285 C 0.08202 0.2918 0.42987 0.0
C1286 C 0.09878 0.26301 0.4709 0.0
C1287 C 0.06904 0.24112 0.46593 0.0
H1288 H 0.12722 0.30608 0.46033 0.0
H1289 H 0.1167 0.2621 0.49004 0.0
S1290 S 1.00184 0.23855 0.40441 0.0
N1291 N 1.02929 0.26998 0.40053 0.0
N1292 N 1.01744 0.22301 0.43318 0.0
C1293 C 0.04653 0.24341 0.44087 0.0
C1294 C 0.05306 0.26868 0.4229 0.0
C1295 C 0.67957 0.33263 0.25883 0.0
C1296 C 0.65503 0.3052 0.25894 0.0
C1297 C 0.71147 0.33575 0.26997 0.0
C1298 C 0.72181 0.31157 0.28202 0.0
H1299 H 0.67416 0.35178 0.24849 0.0
H1300 H 0.72838 0.35747 0.26825 0.0
S1301 S 0.66789 0.23433 0.28839 0.0
N1302 N 0.64422 0.25299 0.27282 0.0
N1303 N 0.70339 0.25882 0.29407 0.0
C1304 C 0.69751 0.28421 0.28337 0.0
C1305 C 0.6647 0.28102 0.27181 0.0
C1306 C 0.58826 0.97947 0.91805 0.0
C1307 C 0.60274 0.95817 0.93052 0.0
C1308 C 0.58253 1.00462 0.93888 0.0
C1309 C 0.59106 1.00988 0.97328 0.0
H1310 H 0.58017 0.976 0.89214 0.0
H1311 H 0.57052 1.01952 0.92791 0.0
S1312 S 0.63225 0.96245 0.01803 0.0
N1313 N 0.62702 0.94561 0.97961 0.0
N1314 N 0.61695 0.99192 0.01792 0.0
C1315 C 0.60659 0.98928 0.98563 0.0
C1316 C 0.61216 0.96384 0.96461 0.0
C1317 C 0.9524 0.81038 0.74668 0.0
C1318 C 0.96808 0.78961 0.75899 0.0
C1319 C 0.92525 0.81608 0.7579 0.0
C1320 C 0.9104 0.80057 0.78156 0.0
H1321 H 0.96164 0.82313 0.72829 0.0
H1322 H 0.91546 0.83276 0.74737 0.0
S1323 S 0.94047 0.74314 0.82222 0.0
N1324 N 0.96557 0.75367 0.79753 0.0
N1325 N 0.91459 0.76266 0.81668 0.0
C1326 C 0.9254 0.77924 0.79373 0.0
C1327 C 0.95384 0.7743 0.78313 0.0
C1328 C 0.10668 0.0814 0.91317 0.0
C1329 C 0.13878 0.08877 0.91186 0.0
C1330 C 0.09495 0.07651 0.9424 0.0
C1331 C 0.11466 0.079 0.97212 0.0
H1332 H 0.09029 0.07912 0.8913 0.0
H1333 H 0.07009 0.07116 0.94169 0.0
S1334 S 0.20075 0.09778 0.98241 0.0
N1335 N 0.1901 0.09812 0.94351 0.0
N1336 N 0.16835 0.08938 0.99781 0.0
C1337 C 0.14684 0.08641 0.97113 0.0
C1338 C 0.15875 0.09115 0.94134 0.0
C1339 C 0.89802 0.42502 0.61977 0.0
C1340 C 0.86932 0.43153 0.61469 0.0
C1341 C 0.90823 0.41609 0.64873 0.0
C1342 C 0.88979 0.41303 0.67324 0.0
H1343 H 0.91154 0.42454 0.6003 0.0
H1344 H 0.92932 0.40896 0.65082 0.0
S1345 S 0.81504 0.43223 0.67334 0.0
N1346 N 0.82477 0.43872 0.6378 0.0
N1347 N 0.84339 0.42111 0.69219 0.0
C1348 C 0.86269 0.42283 0.66979 0.0
C1349 C 0.85253 0.43229 0.64038 0.0
C1350 C 0.51817 0.10732 0.42276 0.0
C1351 C 0.48628 0.10447 0.42132 0.0
C1352 C 0.53625 0.10414 0.45086 0.0
C1353 C 0.52301 0.09775 0.47852 0.0
H1354 H 0.5289 0.11027 0.40132 0.0
H1355 H 0.56029 0.10505 0.45024 0.0
S1356 S 0.44169 0.09346 0.48902 0.0
N1357 N 0.44313 0.09885 0.45115 0.0
N1358 N 0.4769 0.09298 0.50418 0.0
C1359 C 0.49169 0.09743 0.47826 0.0
C1360 C 0.47337 0.10087 0.44963 0.0
C1361 C 0.82517 0.78092 0.15922 0.0
C1362 C 0.80123 0.78597 0.13777 0.0
C1363 C 0.82876 0.79023 0.19332 0.0
C1364 C 0.80826 0.80455 0.20784 0.0
H1365 H 0.84165 0.77012 0.14961 0.0
H1366 H 0.8478 0.78592 0.20844 0.0
S1367 S 0.74074 0.82192 0.16284 0.0
N1368 N 0.75612 0.80578 0.13402 0.0
N1369 N 0.76261 0.82261 0.19751 0.0
C1370 C 0.78391 0.80923 0.18668 0.0
C1371 C 0.78049 0.80017 0.15196 0.0
C1372 C 0.09761 0.11285 0.71997 0.0
C1373 C 0.11787 0.09715 0.73389 0.0
C1374 C 0.08956 0.1102 0.68593 0.0
C1375 C 0.10139 0.09179 0.66387 0.0
H1376 H 0.08795 0.12768 0.73553 0.0
H1377 H 0.0741 0.12299 0.67688 0.0
S1378 S 0.15356 0.04381 0.68712 0.0
N1379 N 0.14832 0.06115 0.72225 0.0
N1380 N 0.13349 0.05617 0.6589 0.0
C1381 C 0.1213 0.07552 0.67743 0.0
C1382 C 0.12945 0.0782 0.7121 0.0
C1383 C 0.80167 0.4235 0.4269 0.0
C1384 C 0.79356 0.4081 0.45281 0.0
C1385 C 0.80653 0.40702 0.39827 0.0
C1386 C 0.80343 0.37448 0.39443 0.0
H1387 H 0.80599 0.44874 0.42934 0.0
H1388 H 0.81371 0.42027 0.37945 0.0
S1389 S 0.77795 0.32264 0.4537 0.0
N1390 N 0.77924 0.35812 0.47177 0.0
N1391 N 0.78835 0.32702 0.418 0.0
C1392 C 0.79332 0.35849 0.41946 0.0
C1393 C 0.78837 0.37533 0.4486 0.0
C1394 C 0.45652 0.03382 0.24088 0.0
C1395 C 0.46096 1.01686 0.26586 0.0
C1396 C 0.46742 0.02786 0.21175 0.0
C1397 C 0.48263 1.00454 0.20671 0.0
H1398 H 0.44714 0.05358 0.24488 0.0
H1399 H 0.46562 0.04283 0.19386 0.0
S1400 S 0.494 0.94955 0.26213 0.0
N1401 N 0.47688 0.97266 0.28189 0.0
N1402 N 0.49752 0.96149 0.22697 0.0
C1403 C 0.48403 0.98515 0.23001 0.0
C1404 C 0.47311 0.99133 0.25973 0.0
C1405 C 0.81053 0.74601 0.9316 0.0
C1406 C 0.81498 0.76667 0.96143 0.0
C1407 C 0.81497 0.75713 0.90208 0.0
C1408 C 0.82486 0.78958 0.90074 0.0
H1409 H 0.80319 0.72083 0.93092 0.0
H1410 H 0.81062 0.73997 0.88001 0.0
S1411 S 0.84019 0.85398 0.97174 0.0
N1412 N 0.82988 0.82159 0.98737 0.0
N1413 N 0.83884 0.84229 0.93251 0.0
C1414 C 0.82979 0.81054 0.93045 0.0
C1415 C 0.82468 0.7992 0.96046 0.0
C1416 C 0.88174 0.13412 0.04621 0.0
C1417 C 0.86209 0.12966 0.06962 0.0
C1418 C 0.89794 0.11262 0.03769 0.0
C1419 C 0.89563 0.08611 0.05265 0.0
H1420 H 0.88415 0.15401 0.03369 0.0
H1421 H 0.91276 0.11703 0.01949 0.0
S1422 S 0.84797 0.06379 0.11589 0.0
N1423 N 0.84136 0.0967 0.10784 0.0
N1424 N 0.87258 0.05653 0.09219 0.0
C1425 C 0.8765 0.0815 0.07646 0.0
C1426 C 0.85954 0.10321 0.08484 0.0
C1427 C 0.4669 0.46042 0.07585 0.0
C1428 C 0.43747 0.46547 0.07417 0.0
C1429 C 0.4937 0.48489 0.07535 0.0
C1430 C 0.49241 0.51562 0.07266 0.0
H1431 H 0.46934 0.43725 0.0774 0.0
H1432 H 0.51557 0.47931 0.07639 0.0
S1433 S 0.42109 0.54163 0.06778 0.0
N1434 N 0.40875 0.50398 0.07019 0.0
N1435 N 0.45899 0.54969 0.06884 0.0
C1436 C 0.46319 0.52114 0.07127 0.0
C1437 C 0.43585 0.49623 0.07217 0.0
C1438 C 0.454 0.65915 0.83457 0.0
C1439 C 0.44561 0.63549 0.80665 0.0
C1440 C 0.43564 0.67948 0.84078 0.0
C1441 C 0.40859 0.6773 0.81898 0.0
H1442 H 0.47402 0.66101 0.85253 0.0
H1443 H 0.44243 0.69676 0.86299 0.0
S1444 S 0.37768 0.62082 0.74137 0.0
N1445 N 0.40912 0.61208 0.75641 0.0
N1446 N 0.37515 0.65046 0.76776 0.0
C1447 C 0.40075 0.65463 0.79037 0.0
C1448 C 0.4191 0.6337 0.78431 0.0
C1449 C 0.19177 0.6707 0.59728 0.0
C1450 C 0.21663 0.65786 0.59486 0.0
C1451 C 0.16116 0.65147 0.59121 0.0
C1452 C 0.15417 0.61861 0.5826 0.0
H1453 H 0.19576 0.69595 0.60224 0.0
H1454 H 0.14276 0.66263 0.59196 0.0
S1455 S 0.21076 0.57267 0.57771 0.0
N1456 N 0.23233 0.60973 0.58696 0.0
N1457 N 0.17442 0.57364 0.57555 0.0
C1458 C 0.17874 0.60515 0.58284 0.0
C1459 C 0.2101 0.62477 0.58899 0.0
C1460 C 0.80399 0.03812 0.78292 0.0
C1461 C 0.77224 0.02171 0.78002 0.0
C1462 C 0.82715 0.02505 0.79453 0.0
C1463 C 0.81907 0.99528 0.80341 0.0
H1464 H 0.81106 0.0621 0.7786 0.0
H1465 H 0.85128 0.03898 0.79841 0.0
S1466 S 0.74006 0.94003 0.79377 0.0
N1467 N 0.73442 0.97205 0.78199 0.0
N1468 N 0.77806 0.94767 0.8038 0.0
C1469 C 0.78773 0.97743 0.79756 0.0
C1470 C 0.76422 0.99059 0.78573 0.0
C1471 C 0.74666 0.95214 0.5483 0.0
C1472 C 0.77563 0.96574 0.56884 0.0
C1473 C 0.72607 0.97 0.54159 0.0
C1474 C 0.73374 1.00221 0.55495 0.0
H1475 H 0.74028 0.92781 0.53636 0.0
H1476 H 0.70447 0.95881 0.52492 0.0
S1477 S 0.80462 0.04819 0.61356 0.0
N1478 N 0.80934 1.01291 0.60494 0.0
N1479 N 0.77082 0.04612 0.59216 0.0
C1480 C 0.76188 1.01568 0.57669 0.0
C1481 C 0.78272 0.99756 0.58369 0.0
C1482 C 0.44338 0.43909 0.80302 0.0
C1483 C 0.43788 0.4675 0.79732 0.0
C1484 C 0.41895 0.41242 0.80395 0.0
C1485 C 0.38759 0.41256 0.79926 0.0
H1486 H 0.4669 0.43743 0.80742 0.0
H1487 H 0.42498 0.3915 0.80883 0.0
S1488 S 0.35992 0.48035 0.78182 0.0
N1489 N 0.3981 0.49369 0.78557 0.0
N1490 N 0.35235 0.44346 0.78737 0.0
C1491 C 0.38151 0.44045 0.79252 0.0
C1492 C 0.40652 0.46783 0.79158 0.0
C1493 C 0.23821 0.69928 0.2584 0.0
C1494 C 0.24241 0.67808 0.279 0.0
C1495 C 0.25988 0.72909 0.26243 0.0
C1496 C 0.28565 0.73851 0.28771 0.0
H1497 H 0.21779 0.69309 0.23972 0.0
H1498 H 0.25533 0.74557 0.24722 0.0
S1499 S 0.3067 0.69148 0.34796 0.0
N1500 N 0.27454 0.66809 0.32479 0.0
N1501 N 0.31447 0.72441 0.333 0.0
C1502 C 0.29041 0.71716 0.30777 0.0
C1503 C 0.26891 0.6868 0.30327 0.0
C1504 C 0.56575 0.7179 0.51862 0.0
C1505 C 0.5383 0.72558 0.52545 0.0
C1506 C 0.5739 0.69047 0.52728 0.0
C1507 C 0.55496 0.66766 0.5427 0.0
H1508 H 0.58169 0.73365 0.50691 0.0
H1509 H 0.59542 0.68695 0.52133 0.0
S1510 S 0.4807 0.67533 0.56705 0.0
N1511 N 0.49261 0.70666 0.55012 0.0
N1512 N 0.50693 0.65612 0.56443 0.0
C1513 C 0.52736 0.67485 0.54926 0.0
C1514 C 0.51946 0.70311 0.54131 0.0
C1515 C 0.73811 0.35742 0.69163 0.0
C1516 C 0.7076 0.35788 0.69573 0.0
C1517 C 0.76007 0.3539 0.71727 0.0
C1518 C 0.75288 0.35012 0.74861 0.0
H1519 H 0.74512 0.35946 0.66815 0.0
H1520 H 0.7828 0.35349 0.71214 0.0
S1521 S 0.67676 0.35043 0.77321 0.0
N1522 N 0.67217 0.355 0.73482 0.0
N1523 N 0.7125 0.34809 0.78195 0.0
C1524 C 0.72261 0.351 0.75314 0.0
C1525 C 0.70042 0.35493 0.7272 0.0
C1526 C 1.0158 0.41846 1.00331 0.0
C1527 C 0.03647 0.40253 0.01636 0.0
C1528 C 1.02074 0.45178 1.01205 0.0
C1529 C 0.04747 0.47196 0.03347 0.0
H1530 H 0.99543 0.40495 0.98577 0.0
H1531 H 1.00385 0.46197 1.00088 0.0
S1532 S 0.10967 0.4433 0.0744 0.0
N1533 N 0.08498 0.41075 0.05255 0.0
N1534 N 0.09491 0.47223 0.06762 0.0
C1535 C 0.06838 0.45631 0.04657 0.0
C1536 C 0.06282 0.42227 0.03844 0.0
C1537 C 1.01135 0.83167 0.1773 0.0
C1538 C 0.04034 0.8268 0.18698 0.0
C1539 C 0.98708 0.82433 0.19571 0.0
C1540 C 0.99065 0.81141 0.2243 0.0
H1541 H 1.00758 0.8419 0.15581 0.0
H1542 H 0.96534 0.82883 0.18747 0.0
S1543 S 0.06172 0.79338 0.2598 0.0
N1544 N 0.0707 0.80736 0.22684 0.0
N1545 N 1.02573 0.7942 0.26115 0.0
C1546 C 1.01936 0.80598 0.23382 0.0
C1547 C 0.04396 0.81349 0.21528 0.0
C1548 C 0.57891 0.35697 0.15538 0.0
C1549 C 0.57491 0.3627 0.18815 0.0
C1550 C 0.58741 0.38141 0.1377 0.0
C1551 C 0.59247 0.41305 0.15174 0.0
H1552 H 0.5749 0.33316 0.14279 0.0
H1553 H 0.58922 0.37523 0.11237 0.0
S1554 S 0.5871 0.44151 0.23739 0.0
N1555 N 0.57788 0.40285 0.23439 0.0
N1556 N 0.59435 0.44898 0.20129 0.0
C1557 C 0.58924 0.41938 0.18475 0.0
C1558 C 0.58045 0.39426 0.20289 0.0
C1559 C 0.97291 0.33326 0.35093 0.0
C1560 C 0.99524 0.36294 0.35366 0.0
C1561 C 0.94031 0.32808 0.34068 0.0
C1562 C 0.92741 0.35233 0.33284 0.0
H1563 H 0.98053 0.31397 0.35841 0.0
H1564 H 0.92493 0.30475 0.33983 0.0
S1565 S 0.97513 0.43501 0.3366 0.0
N1566 N 1.00115 0.41719 0.34799 0.0
N1567 N 0.94112 0.40775 0.3286 0.0
C1568 C 0.9496 0.38204 0.33492 0.0
C1569 C 0.98281 0.38725 0.34543 0.0
C1570 C 1.01933 0.68414 0.63089 0.0
C1571 C 0.03567 0.69315 0.66328 0.0
C1572 C 1.02103 0.65755 0.60941 0.0
C1573 C 0.03929 0.63814 0.61883 0.0
H1574 H 1.00706 0.69942 0.62107 0.0
H1575 H 1.009 0.65317 0.58459 0.0
S1576 S 0.08546 0.64971 0.70152 0.0
N1577 N 0.06984 0.67909 0.7038 0.0
N1578 N 0.07257 0.62916 0.66436 0.0
C1579 C 0.05424 0.64566 0.65181 0.0
C1580 C 0.05257 0.67295 0.67363 0.0
C1581 C 0.67883 0.8379 0.82436 0.0
C1582 C 0.67989 0.86284 0.84989 0.0
C1583 C 0.70627 0.83071 0.8151 0.0
C1584 C 0.73732 0.84823 0.83002 0.0
H1585 H 0.65633 0.82311 0.81162 0.0
H1586 H 0.70293 0.81094 0.7958 0.0
S1587 S 0.7545 0.91732 0.89703 0.0
N1588 N 0.71614 0.90551 0.88923 0.0
N1589 N 0.76615 0.89312 0.87172 0.0
C1590 C 0.7386 0.87366 0.85505 0.0
C1591 C 0.71072 0.88055 0.86487 0.0
C1592 C 0.50674 0.56685 0.69032 0.0
C1593 C 0.52893 0.57464 0.71908 0.0
C1594 C 0.5156 0.57112 0.65963 0.0
C1595 C 0.54694 0.58422 0.65635 0.0
H1596 H 0.4825 0.55605 0.69126 0.0
H1597 H 0.49772 0.56365 0.63822 0.0
S1598 S 0.61386 0.61035 0.72451 0.0
N1599 N 0.58358 0.59703 0.74218 0.0
N1600 N 0.59992 0.60598 0.68547 0.0
C1601 C 0.56907 0.5933 0.68523 0.0
C1602 C 0.56017 0.58825 0.7162 0.0
C1603 C 0.74659 0.19569 0.99107 0.0
C1604 C 0.77886 0.20015 0.9966 0.0
C1605 C 0.73384 0.21434 0.97238 0.0
C1606 C 0.75328 0.23786 0.95926 0.0
H1607 H 0.73156 0.17954 1.00327 0.0
H1608 H 0.70911 0.21153 0.96963 0.0
S1609 S 0.83862 0.2563 0.96437 0.0
N1610 N 0.82933 0.22767 0.98551 0.0
N1611 N 0.80559 0.26289 0.95073 0.0
C1612 C 0.78521 0.2411 0.96312 0.0
C1613 C 0.79798 0.22209 0.9817 0.0
C1614 C 0.11053 0.53978 0.19482 0.0
C1615 C 0.14324 0.548 0.20137 0.0
C1616 C 0.0949 0.54193 0.16485 0.0
C1617 C 0.11148 0.55205 0.14037 0.0
H1618 H 0.09709 0.53469 0.21403 0.0
H1619 H 0.06999 0.53801 0.16189 0.0
S1620 S 0.19609 0.56524 0.14132 0.0
N1621 N 0.19086 0.55891 0.17826 0.0
N1622 N 0.16133 0.56215 0.12144 0.0
C1623 C 0.14362 0.55542 0.1448 0.0
C1624 C 0.15957 0.55336 0.17543 0.0
C1625 C 0.84492 0.90641 0.45738 0.0
C1626 C 0.8432 0.88778 0.48189 0.0
C1627 C 0.84437 0.89384 0.42477 0.0
C1628 C 0.84227 0.8619 0.41462 0.0
H1629 H 0.84601 0.931 0.4632 0.0
H1630 H 0.84503 0.90943 0.40715 0.0
S1631 S 0.83873 0.80289 0.46908 0.0
N1632 N 0.84055 0.83557 0.49373 0.0
N1633 N 0.8396 0.81204 0.43238 0.0
C1634 C 0.84169 0.8431 0.43896 0.0
C1635 C 0.84209 0.85595 0.47246 0.0
C1636 C 0.50473 0.57422 0.91769 0.0
C1637 C 0.51697 0.56251 0.8911 0.0
C1638 C 0.51803 0.57542 0.95008 0.0
C1639 C 0.54382 0.56423 0.95783 0.0
H1640 H 0.48507 0.58341 0.91354 0.0
H1641 H 0.50798 0.58545 0.9694 0.0
S1642 S 0.58425 0.52991 0.89766 0.0
N1643 N 0.55645 0.53887 0.87499 0.0
N1644 N 0.58071 0.54021 0.93591 0.0
C1645 C 0.55585 0.55155 0.93162 0.0
C1646 C 0.54269 0.55099 0.89837 0.0
C1647 C 0.83366 0.23539 0.18442 0.0
C1648 C 0.84624 0.25131 0.16047 0.0
C1649 C 0.83245 0.25207 0.21457 0.0
C1650 C 0.84399 0.28518 0.22187 0.0
H1651 H 0.82171 0.21041 0.17873 0.0
H1652 H 0.82054 0.23894 0.23136 0.0
S1653 S 0.88712 0.33642 0.17042 0.0
N1654 N 0.87613 0.30082 0.14814 0.0
N1655 N 0.87426 0.33231 0.20507 0.0
C1656 C 0.86034 0.30078 0.19972 0.0
C1657 C 0.86147 0.28374 0.16897 0.0
C1658 C 0.18635 0.59343 0.3873 0.0
C1659 C 0.19912 0.61296 0.36614 0.0
C1660 C 0.16777 0.60279 0.40844 0.0
C1661 C 0.16129 0.63177 0.40867 0.0
H1662 H 0.18842 0.56976 0.38547 0.0
H1663 H 0.15651 0.58632 0.42294 0.0
S1664 S 0.19313 0.693 0.3612 0.0
N1665 N 0.20758 0.66398 0.3496 0.0
N1666 N 0.17188 0.68136 0.3889 0.0
C1667 C 0.17627 0.65266 0.38985 0.0
C1668 C 0.19534 0.64318 0.36848 0.0
C1669 C 0.82978 0.84612 0.66002 0.0
C1670 C 0.83297 0.87717 0.65462 0.0
C1671 C 0.82471 0.83706 0.69011 0.0
C1672 C 0.82288 0.8585 0.71707 0.0
H1673 H 0.83149 0.82834 0.64075 0.0
H1674 H 0.8231 0.81291 0.69234 0.0
S1675 S 0.82749 0.94243 0.71607 0.0
N1676 N 0.83209 0.92923 0.67894 0.0
N1677 N 0.82319 0.91238 0.73568 0.0
C1678 C 0.82527 0.88958 0.71205 0.0
C1679 C 0.83003 0.8988 0.68093 0.0
C1680 C 0.79765 0.5433 0.58555 0.0
C1681 C 0.78142 0.51106 0.57641 0.0
C1682 C 0.78312 0.5651 0.59794 0.0
C1683 C 0.75187 0.55551 0.60188 0.0
H1684 H 0.82159 0.55202 0.58227 0.0
H1685 H 0.7962 0.58979 0.6037 0.0
S1686 S 0.69928 0.47379 0.58324 0.0
N1687 N 0.73264 0.47047 0.57367 0.0
N1688 N 0.70524 0.51161 0.5967 0.0
C1689 C 0.73565 0.52323 0.59414 0.0
C1690 C 0.75045 0.50097 0.58147 0.0
C1691 C 0.18406 0.1974 0.53955 0.0
C1692 C 0.21051 0.19058 0.52996 0.0
C1693 C 0.15895 0.17369 0.54537 0.0
C1694 C 0.15863 0.14179 0.54129 0.0
H1695 H 0.18317 0.22149 0.54391 0.0
H1696 H 0.13974 0.18073 0.55361 0.0
S1697 S 0.22132 0.11088 0.51433 0.0
N1698 N 0.23435 0.14919 0.51536 0.0
N1699 N 0.18682 0.10463 0.5255 0.0
C1700 C 0.18444 0.13441 0.53054 0.0
C1701 C 0.21037 0.15872 0.5251 0.0
C1702 C 0.23491 0.03358 0.82392 0.0
C1703 C 0.20513 0.02883 0.80614 0.0
C1704 C 0.25282 1.01338 0.81631 0.0
C1705 C 0.24202 0.98817 0.79 0.0
H1706 H 0.24454 0.05324 0.84387 0.0
H1707 H 0.27561 1.01789 0.83072 0.0
S1708 S 0.16592 0.96589 0.73534 0.0
N1709 N 0.16547 0.99694 0.7612 0.0
N1710 N 0.19971 0.95946 0.74605 0.0
C1711 C 0.21231 0.98313 0.7719 0.0
C1712 C 0.19368 1.00332 0.78021 0.0
C1713 C 0.43435 0.97881 0.9753 0.0
C1714 C 0.40953 0.99062 0.98174 0.0
C1715 C 0.46479 0.99862 0.98117 0.0
C1716 C 0.47144 0.03097 0.99317 0.0
H1717 H 0.43081 0.95373 0.96871 0.0
H1718 H 0.48345 0.98811 0.97839 0.0
S1719 S 0.41396 0.07474 1.00556 0.0
N1720 N 0.39292 0.03759 0.99443 0.0
N1721 N 0.45041 0.07487 1.00538 0.0
C1722 C 0.44657 0.04373 0.99549 0.0
C1723 C 0.41548 0.0235 0.98973 0.0
C1724 C 0.89863 0.64354 0.79244 0.0
C1725 C 0.88797 0.61072 0.78993 0.0
C1726 C 0.87815 0.66057 0.78346 0.0
C1727 C 0.84656 0.64531 0.77127 0.0
H1728 H 0.92241 0.65636 0.80327 0.0
H1729 H 0.88672 0.686 0.7874 0.0
S1730 S 0.80819 0.55952 0.7553 0.0
N1731 N 0.84455 0.56327 0.77094 0.0
N1732 N 0.80623 0.5956 0.75392 0.0
C1733 C 0.83615 0.61242 0.76621 0.0
C1734 C 0.85687 0.59503 0.77564 0.0
C1735 C 0.86257 0.67049 0.08038 0.0
C1736 C 0.87239 0.69891 0.06859 0.0
C1737 C 0.88238 0.65187 0.08573 0.0
C1738 C 0.91302 0.66073 0.07963 0.0
H1739 H 0.839 0.662 0.08489 0.0
H1740 H 0.8734 0.63001 0.09431 0.0
S1741 S 0.95107 0.73369 0.05028 0.0
N1742 N 0.91549 0.73577 0.05242 0.0
N1743 N 0.95285 0.70055 0.06237 0.0
C1744 C 0.92372 0.6897 0.0691 0.0
C1745 C 0.9034 0.70881 0.06361 0.0
C1746 C 0.23716 0.19206 0.83219 0.0
C1747 C 0.20924 0.19493 0.84219 0.0
C1748 C 0.26064 0.21838 0.82791 0.0
C1749 C 0.25751 0.24896 0.8336 0.0
H1750 H 0.24071 0.1691 0.82671 0.0
H1751 H 0.28121 0.21456 0.81956 0.0
S1752 S 0.18976 0.26987 0.86198 0.0
N1753 N 0.1806 0.23131 0.85898 0.0
N1754 N 0.22433 0.28055 0.85121 0.0
C1755 C 0.23008 0.25231 0.84459 0.0
C1756 C 0.20614 0.22546 0.84881 0.0
C1757 C 0.41712 0.96089 0.39034 0.0
C1758 C 0.4071 0.98759 0.3875 0.0
C1759 C 0.3966 0.93076 0.37967 0.0
C1760 C 0.36535 0.92636 0.36641 0.0
H1761 H 0.44152 0.96305 0.39738 0.0
H1762 H 0.40583 0.91082 0.37961 0.0
S1763 S 0.32566 0.98819 0.3629 0.0
N1764 N 0.3624 1.00758 0.37748 0.0
N1765 N 0.32385 0.95051 0.35739 0.0
C1766 C 0.35399 0.9525 0.36802 0.0
C1767 C 0.37492 0.98332 0.37876 0.0
C1768 C 0.62171 0.46388 0.63161 0.0
C1769 C 0.61307 0.43349 0.61155 0.0
C1770 C 0.61651 0.49161 0.62068 0.0
C1771 C 0.60123 0.49158 0.58887 0.0
H1772 H 0.63292 0.46647 0.6565 0.0
H1773 H 0.62413 0.51347 0.63797 0.0
S1774 S 0.57325 0.41889 0.52541 0.0
N1775 N 0.58849 0.40637 0.55692 0.0
N1776 N 0.57775 0.45675 0.53732 0.0
C1777 C 0.59235 0.46132 0.56851 0.0
C1778 C 0.59843 0.43319 0.57941 0.0
C1779 C 0.44295 0.8073 0.40594 0.0
C1780 C 0.44009 0.80832 0.43921 0.0
C1781 C 0.41913 0.81042 0.38211 0.0
C1782 C 0.39088 0.81492 0.38994 0.0
H1783 H 0.46414 0.80465 0.39818 0.0
H1784 H 0.42327 0.80992 0.35728 0.0
S1785 S 0.37 0.8172 0.47284 0.0
N1786 N 0.40516 0.81271 0.4779 0.0
N1787 N 0.36131 0.81852 0.43389 0.0
C1788 C 0.38742 0.81525 0.42295 0.0
C1789 C 0.41159 0.81199 0.44717 0.0
C1790 C 0.12134 0.73503 0.07672 0.0
C1791 C 0.10772 0.75077 0.09995 0.0
C1792 C 0.11476 0.70144 0.06939 0.0
C1793 C 0.09393 0.68054 0.08462 0.0
H1794 H 0.13759 0.74889 0.06375 0.0
H1795 H 0.12624 0.69178 0.05125 0.0
S1796 S 0.05135 0.70821 0.14757 0.0
N1797 N 0.07181 0.74133 0.1382 0.0
N1798 N 0.0597 0.67951 0.1249 0.0
C1799 C 0.08011 0.69591 0.108 0.0
C1800 C 0.08684 0.73024 0.11546 0.0
C1801 C 0.13226 0.34757 0.94793 0.0
C1802 C 0.10426 0.32345 0.93593 0.0
C1803 C 0.15586 0.35492 0.92885 0.0
C1804 C 0.15246 0.33852 0.89692 0.0
H1805 H 0.1356 0.36158 0.97187 0.0
H1806 H 0.17655 0.37423 0.93882 0.0
S1807 S 0.08558 0.27058 0.85559 0.0
N1808 N 0.0759 0.2814 0.89097 0.0
N1809 N 0.12009 0.29496 0.85557 0.0
C1810 C 0.12519 0.31348 0.88524 0.0
C1811 C 0.10121 0.30603 0.90458 0.0
C1812 C 0.55459 0.77293 0.92734 0.0
C1813 C 0.58372 0.79558 0.93128 0.0
C1814 C 0.54965 0.74853 0.94568 0.0
C1815 C 0.57354 0.74616 0.96919 0.0
H1816 H 0.53482 0.77551 0.91178 0.0
H1817 H 0.52637 0.73278 0.94303 0.0
S1818 S 0.65509 0.79735 0.98594 0.0
N1819 N 0.63742 0.81245 0.95824 0.0
N1820 N 0.62843 0.76657 0.9925 0.0
C1821 C 0.60334 0.76738 0.97167 0.0
C1822 C 0.60834 0.79208 0.9528 0.0
C1823 C 0.16734 0.7799 0.76926 0.0
C1824 C 0.1553 0.80451 0.76074 0.0
C1825 C 0.19989 0.78463 0.78069 0.0
C1826 C 0.22285 0.81408 0.78344 0.0
H1827 H 0.15172 0.75627 0.76545 0.0
H1828 H 0.20724 0.76451 0.78596 0.0
S1829 S 0.20412 0.88666 0.76502 0.0
N1830 N 0.16994 0.85978 0.75699 0.0
N1831 N 0.22951 0.86858 0.77753 0.0
C1832 C 0.21081 0.83889 0.77572 0.0
C1833 C 0.17786 0.83414 0.76462 0.0
C1834 C 0.09279 0.45196 0.46553 0.0
C1835 C 0.09848 0.45435 0.43354 0.0
C1836 C 0.08686 0.47637 0.48631 0.0
C1837 C 0.08627 0.50533 0.47692 0.0
H1838 H 0.09269 0.43064 0.47498 0.0
H1839 H 0.08257 0.47217 0.5103 0.0
S1840 S 0.10018 0.52508 0.39587 0.0
N1841 N 0.10349 0.48903 0.39359 0.0
N1842 N 0.09258 0.53499 0.43262 0.0
C1843 C 0.09245 0.5086 0.44511 0.0
C1844 C 0.09843 0.48329 0.42359 0.0
C1845 C 0.43872 0.28364 0.23922 0.0
C1846 C 0.46805 0.29032 0.25981 0.0
C1847 C 0.41128 0.28879 0.25042 0.0
C1848 C 0.41081 0.30219 0.28305 0.0
H1849 H 0.43676 0.2741 0.21375 0.0
H1850 H 0.39015 0.28278 0.23277 0.0
S1851 S 0.48087 0.32499 0.3479 0.0
N1852 N 0.49374 0.3112 0.31561 0.0
N1853 N 0.44392 0.32198 0.33579 0.0
C1854 C 0.44004 0.30923 0.30388 0.0
C1855 C 0.46779 0.30311 0.29266 0.0
C1856 C 0.60833 0.5831 0.41429 0.0
C1857 C 0.64029 0.58957 0.41243 0.0
C1858 C 0.5969 0.5785 0.44373 0.0
C1859 C 0.61673 0.58028 0.47317 0.0
H1860 H 0.59181 0.58133 0.39269 0.0
H1861 H 0.57213 0.5738 0.44336 0.0
S1862 S 0.70259 0.59692 0.48212 0.0
N1863 N 0.69165 0.59755 0.44335 0.0
N1864 N 0.67045 0.58928 0.49803 0.0
C1865 C 0.64878 0.58684 0.47166 0.0
C1866 C 0.66041 0.59135 0.44164 0.0
C1867 C 0.40269 0.91521 0.10632 0.0
C1868 C 0.38806 0.93896 0.10341 0.0
C1869 C 0.41394 0.90983 0.13666 0.0
C1870 C 0.41127 0.92813 0.1654 0.0
H1871 H 0.40362 0.89904 0.08514 0.0
H1872 H 0.42197 0.88922 0.13735 0.0
S1873 S 0.38409 0.99935 0.1711 0.0
N1874 N 0.3779 0.98537 0.13171 0.0
N1875 N 0.3998 0.97543 0.1891 0.0
C1876 C 0.40083 0.9547 0.16284 0.0
C1877 C 0.389 0.96007 0.13176 0.0
C1878 C 1.02066 0.5951 0.91249 0.0
C1879 C 0.99114 0.60003 0.91131 0.0
C1880 C 0.03773 0.5928 0.94168 0.0
C1881 C 1.02616 0.59572 0.97101 0.0
H1882 H 1.03025 0.59165 0.89042 0.0
H1883 H 0.05977 0.58784 0.941 0.0
S1884 S 0.95175 0.61305 0.98188 0.0
N1885 N 0.95232 0.61073 0.94249 0.0
N1886 N 0.98439 0.60695 0.99756 0.0
C1887 C 0.99753 0.60282 0.97056 0.0
C1888 C 0.98006 0.60493 0.94069 0.0
C1889 C 0.32617 0.28006 0.65978 0.0
C1890 C 0.30242 0.28479 0.6378 0.0
C1891 C 0.32922 0.28954 0.69381 0.0
C1892 C 0.30834 0.30374 0.70778 0.0
H1893 H 0.34295 0.26939 0.65063 0.0
H1894 H 0.34816 0.28548 0.70933 0.0
S1895 S 0.24102 0.32017 0.66129 0.0
N1896 N 0.257 0.30409 0.63299 0.0
N1897 N 0.26249 0.32122 0.69635 0.0
C1898 C 0.28414 0.30805 0.68611 0.0
C1899 C 0.28128 0.29881 0.65145 0.0
C1900 C 0.59793 0.61426 0.22031 0.0
C1901 C 0.61738 0.59767 0.23403 0.0
C1902 C 0.58972 0.6117 0.18628 0.0
C1903 C 0.60055 0.59245 0.16402 0.0
H1904 H 0.58909 0.62978 0.23601 0.0
H1905 H 0.57496 0.62524 0.1774 0.0
S1906 S 0.65 0.54177 0.18669 0.0
N1907 N 0.64583 0.55983 0.22198 0.0
N1908 N 0.63059 0.55494 0.15865 0.0
C1909 C 0.61956 0.57523 0.17738 0.0
C1910 C 0.6279 0.57785 0.21204 0.0
C1911 C 0.28931 0.88545 0.94497 0.0
C1912 C 0.29733 0.9185 0.95048 0.0
C1913 C 0.29449 0.86856 0.91672 0.0
C1914 C 0.3085 0.88416 0.89318 0.0
H1915 H 0.28035 0.8726 0.96344 0.0
H1916 H 0.28851 0.84318 0.91401 0.0
S1917 S 0.33255 0.9709 0.8958 0.0
N1918 N 0.31817 0.96626 0.92953 0.0
N1919 N 0.32909 0.93507 0.877 0.0
C1920 C 0.31546 0.91735 0.89792 0.0
C1921 C 0.30948 0.93438 0.92637 0.0
C1922 C 0.95014 0.52209 0.72711 0.0
C1923 C 0.95373 0.50744 0.75416 0.0
C1924 C 0.95761 0.51047 0.69755 0.0
C1925 C 0.96869 0.48388 0.69442 0.0
H1926 H 0.94493 0.54442 0.72973 0.0
H1927 H 0.95818 0.52451 0.67849 0.0
S1928 S 0.9723 0.43191 0.75517 0.0
N1929 N 0.96183 0.46125 0.77396 0.0
N1930 N 0.97536 0.43912 0.71806 0.0
C1931 C 0.96743 0.46638 0.71969 0.0
C1932 C 0.96014 0.47833 0.74979 0.0
C1933 C 0.32302 0.29447 0.45888 0.0
C1934 C 0.31477 0.26199 0.46018 0.0
C1935 C 0.32718 0.30587 0.42937 0.0
C1936 C 0.32284 0.28545 0.39932 0.0
H1937 H 0.32666 0.3114 0.48098 0.0
H1938 H 0.33338 0.33106 0.43012 0.0
S1939 S 0.30107 0.19818 0.38882 0.0
N1940 N 0.30266 0.20955 0.42816 0.0
N1941 N 0.30976 0.23073 0.37327 0.0
C1942 C 0.31443 0.25291 0.40026 0.0
C1943 C 0.31062 0.24131 0.43038 0.0
C1944 C 0.36718 0.60583 0.58497 0.0
C1945 C 0.36858 0.63213 0.56973 0.0
C1946 C 0.38319 0.58428 0.57566 0.0
C1947 C 0.40081 0.58803 0.55048 0.0
H1948 H 0.35337 0.60166 0.60405 0.0
H1949 H 0.38154 0.56435 0.58803 0.0
S1950 S 0.41241 0.65306 0.50303 0.0
N1951 N 0.38939 0.66087 0.5284 0.0
N1952 N 0.4195 0.62038 0.51103 0.0
C1953 C 0.40263 0.61433 0.5352 0.0
C1954 C 0.38659 0.63643 0.54487 0.0
C1955 C 0.93816 0.99359 0.57017 0.0
C1956 C 0.93894 0.96271 0.57275 0.0
C1957 C 0.96534 1.0177 0.56937 0.0
C1958 C 0.99461 1.01214 0.57162 0.0
H1959 H 0.91621 0.99908 0.56791 0.0
H1960 H 0.96333 0.04083 0.56684 0.0
S1961 S 1.00964 0.9356 0.57986 0.0
N1962 N 0.97178 0.92827 0.57835 0.0
N1963 N 1.0225 0.97307 0.577 0.0
C1964 C 0.99573 0.98144 0.57483 0.0
C1965 C 0.96808 0.95693 0.57534 0.0
C1966 C 0.95456 0.15661 0.33305 0.0
C1967 C 0.9482 0.13388 0.30458 0.0
C1968 C 0.9352 0.17604 0.33831 0.0
C1969 C 0.90922 0.17395 0.315 0.0
H1970 H 0.9736 0.15825 0.35215 0.0
H1971 H 0.94025 0.19247 0.36102 0.0
S1972 S 0.8838 0.1198 0.23549 0.0
N1973 N 0.91485 0.11143 0.25225 0.0
N1974 N 0.87906 0.14827 0.26182 0.0
C1975 C 0.9035 0.15231 0.28586 0.0
C1976 C 0.92283 0.13222 0.28075 0.0
C1977 C 0.70738 0.13437 0.08844 0.0
C1978 C 0.71246 0.16647 0.08615 0.0
C1979 C 0.67731 0.11413 0.08579 0.0
C1980 C 0.65146 0.12546 0.08134 0.0
H1981 H 0.72655 0.12421 0.09021 0.0
H1982 H 0.67417 0.08919 0.08489 0.0
S1983 S 0.65155 0.20762 0.07845 0.0
N1984 N 0.68861 0.2089 0.08273 0.0
N1985 N 0.63226 0.17061 0.07796 0.0
C1986 C 0.65611 0.15768 0.08167 0.0
C1987 C 0.6866 0.17831 0.0841 0.0
C1988 C 0.28895 0.52982 0.28186 0.0
C1989 C 0.25857 0.52104 0.28905 0.0
C1990 C 0.3109 0.51511 0.2927 0.0
C1991 C 0.30325 0.49118 0.31114 0.0
H1992 H 0.29637 0.54916 0.269 0.0
H1993 H 0.33431 0.52328 0.28762 0.0
S1994 S 0.22579 0.4557 0.33188 0.0
N1995 N 0.2211 0.48424 0.31254 0.0
N1996 N 0.26248 0.45642 0.33263 0.0
C1997 C 0.27252 0.48069 0.31668 0.0
C1998 C 0.2501 0.49561 0.30561 0.0
C1999 C 0.28082 0.49336 0.0814 0.0
C2000 C 0.27323 0.46126 0.06743 0.0
C2001 C 0.26068 0.51148 0.07473 0.0
C2002 C 0.23193 0.49834 0.05391 0.0
H2003 H 0.30297 0.50496 0.09703 0.0
H2004 H 0.26783 0.53614 0.08577 0.0
S2005 S 0.20024 0.41529 1.01173 0.0
N2006 N 0.23427 0.41692 0.03239 0.0
N2007 N 0.19646 0.45102 0.01986 0.0
C2008 C 0.2235 0.46606 0.04056 0.0
C2009 C 0.24409 0.44754 0.04731 0.0
C2010 C 0.9455 0.93939 0.30752 0.0
C2011 C 0.94033 0.96718 0.29929 0.0
C2012 C 0.9208 0.91292 0.30812 0.0
C2013 C 0.88946 0.91257 0.3005 0.0
H2014 H 0.96889 0.9381 0.31416 0.0
H2015 H 0.92667 0.89256 0.31515 0.0
S2016 S 0.86275 0.97868 0.27583 0.0
N2017 N 0.90104 0.99234 0.28216 0.0
N2018 N 0.85469 0.94237 0.28327 0.0
C2019 C 0.88375 0.93985 0.29133 0.0
C2020 C 0.90911 0.96707 0.29077 0.0
C2021 C 0.73334 0.18693 0.77854 0.0
C2022 C 0.73258 0.17133 0.80534 0.0
C2023 C 0.75268 0.21778 0.78145 0.0
C2024 C 0.7717 0.23365 0.81123 0.0
H2025 H 0.71887 0.17527 0.75536 0.0
H2026 H 0.75214 0.22953 0.7606 0.0
S2027 S 0.78069 0.20081 0.88694 0.0
N2028 N 0.75402 0.17253 0.86124 0.0
N2029 N 0.79041 0.23034 0.86703 0.0
C2030 C 0.77173 0.2177 0.83776 0.0
C2031 C 0.75213 0.1865 0.83471 0.0
loop_
_geom_bond_atom_site_label_1
_geom_bond_atom_site_label_2
_geom_bond_distance
_geom_bond_site_symmetry_2
_ccdc_geom_bond_type
Co0 O1 2.216 . S
Co0 O2 2.091 . S
Co0 O4 2.004 . S
Co0 O10 2.021 . S
Co0 O12 2.137 . S
Co0 O13 2.244 . S
O1 Co0 2.216 . S
O1 C8 1.247 . S
O2 Co0 2.091 . S
O2 C8 1.261 . S
C3 O12 1.247 . S
C3 O13 1.272 . S
O4 Co0 2.004 . S
O4 C9 1.259 1_455 S
Co5 O6 2.061 1_455 S
Co5 O11 2.052 . S
Co5 O13 2.135 . S
O6 Co5 2.061 1_655 S
O6 C9 1.235 . S
C7 O10 1.238 . S
C7 O11 1.241 . S
C8 O1 1.247 . S
C8 O2 1.261 . S
C9 O4 1.259 1_655 S
C9 O6 1.235 . S
O10 Co0 2.021 . S
O10 C7 1.238 . S
O11 Co5 2.052 . S
O11 C7 1.241 . S
O12 Co0 2.137 . S
O12 C3 1.247 . S
O13 Co0 2.244 . S
O13 C3 1.272 . S
O13 Co5 2.135 . S
Co14 O15 2.216 1_455 S
Co14 O16 2.091 . S
Co14 O18 2.004 . S
Co14 O24 2.021 . S
Co14 O26 2.137 . S
Co14 O27 2.244 . S
O15 Co14 2.216 1_655 S
O15 C22 1.247 . S
O16 Co14 2.091 . S
O16 C22 1.261 1_455 S
C17 O26 1.247 . S
C17 O27 1.272 . S
O18 Co14 2.004 . S
O18 C23 1.259 . S
Co19 O20 2.061 . S
Co19 O25 2.052 . S
Co19 O27 2.135 . S
O20 Co19 2.061 . S
O20 C23 1.235 . S
C21 O24 1.238 . S
C21 O25 1.241 . S
C22 O15 1.247 . S
C22 O16 1.261 1_655 S
C23 O18 1.259 . S
C23 O20 1.235 . S
O24 Co14 2.021 . S
O24 C21 1.238 . S
O25 Co19 2.052 . S
O25 C21 1.241 . S
O26 Co14 2.137 . S
O26 C17 1.247 . S
O27 Co14 2.244 . S
O27 C17 1.272 . S
O27 Co19 2.135 . S
Co28 O29 2.216 . S
Co28 O30 2.091 . S
Co28 O32 2.004 . S
Co28 O38 2.021 . S
Co28 O40 2.137 . S
Co28 O41 2.244 . S
O29 Co28 2.216 . S
O29 C36 1.247 . S
O30 Co28 2.091 . S
O30 C36 1.261 . S
C31 O40 1.247 . S
C31 O41 1.272 . S
O32 Co28 2.004 . S
O32 C37 1.259 . S
Co33 O34 2.061 . S
Co33 O39 2.052 . S
Co33 O41 2.135 . S
O34 Co33 2.061 . S
O34 C37 1.235 . S
C35 O38 1.238 . S
C35 O39 1.241 . S
C36 O29 1.247 . S
C36 O30 1.261 . S
C37 O32 1.259 . S
C37 O34 1.235 . S
O38 Co28 2.021 . S
O38 C35 1.238 . S
O39 Co33 2.052 . S
O39 C35 1.241 . S
O40 Co28 2.137 . S
O40 C31 1.247 . S
O41 Co28 2.244 . S
O41 C31 1.272 . S
O41 Co33 2.135 . S
Co42 O43 2.216 . S
Co42 O44 2.091 . S
Co42 O46 2.004 . S
Co42 O52 2.021 . S
Co42 O54 2.137 . S
Co42 O55 2.244 . S
O43 Co42 2.216 . S
O43 C50 1.247 . S
O44 Co42 2.091 . S
O44 C50 1.261 . S
C45 O54 1.247 . S
C45 O55 1.272 . S
O46 Co42 2.004 . S
O46 C51 1.259 . S
Co47 O48 2.061 . S
Co47 O53 2.052 . S
Co47 O55 2.135 . S
O48 Co47 2.061 . S
O48 C51 1.235 . S
C49 O52 1.238 . S
C49 O53 1.241 . S
C50 O43 1.247 . S
C50 O44 1.261 . S
C51 O46 1.259 . S
C51 O48 1.235 . S
O52 Co42 2.021 . S
O52 C49 1.238 . S
O53 Co47 2.052 . S
O53 C49 1.241 . S
O54 Co42 2.137 . S
O54 C45 1.247 . S
O55 Co42 2.244 . S
O55 C45 1.272 . S
O55 Co47 2.135 . S
Co56 O57 2.216 . S
Co56 O58 2.091 . S
Co56 O60 2.004 . S
Co56 O66 2.021 . S
Co56 O68 2.137 . S
Co56 O69 2.244 . S
O57 Co56 2.216 . S
O57 C64 1.247 . S
O58 Co56 2.091 . S
O58 C64 1.261 . S
C59 O68 1.247 . S
C59 O69 1.272 . S
O60 Co56 2.004 . S
O60 C65 1.259 . S
Co61 O62 2.061 . S
Co61 O67 2.052 . S
Co61 O69 2.135 . S
O62 Co61 2.061 . S
O62 C65 1.235 . S
C63 O66 1.238 . S
C63 O67 1.241 . S
C64 O57 1.247 . S
C64 O58 1.261 . S
C65 O60 1.259 . S
C65 O62 1.235 . S
O66 Co56 2.021 . S
O66 C63 1.238 . S
O67 Co61 2.052 . S
O67 C63 1.241 . S
O68 Co56 2.137 . S
O68 C59 1.247 . S
O69 Co56 2.244 . S
O69 C59 1.272 . S
O69 Co61 2.135 . S
Co70 O71 2.216 . S
Co70 O72 2.091 . S
Co70 O74 2.004 . S
Co70 O80 2.021 . S
Co70 O82 2.137 . S
Co70 O83 2.244 . S
O71 Co70 2.216 . S
O71 C78 1.247 . S
O72 Co70 2.091 . S
O72 C78 1.261 . S
C73 O82 1.247 . S
C73 O83 1.272 . S
O74 Co70 2.004 . S
O74 C79 1.259 . S
Co75 O76 2.061 . S
Co75 O81 2.052 . S
Co75 O83 2.135 . S
O76 Co75 2.061 . S
O76 C79 1.235 . S
C77 O80 1.238 . S
C77 O81 1.241 . S
C78 O71 1.247 . S
C78 O72 1.261 . S
C79 O74 1.259 . S
C79 O76 1.235 . S
O80 Co70 2.021 . S
O80 C77 1.238 . S
O81 Co75 2.052 . S
O81 C77 1.241 . S
O82 Co70 2.137 . S
O82 C73 1.247 . S
O83 Co70 2.244 . S
O83 C73 1.272 . S
O83 Co75 2.135 . S
Co84 O85 2.216 . S
Co84 O86 2.091 . S
Co84 O88 2.004 . S
Co84 O94 2.021 . S
Co84 O96 2.137 . S
Co84 O97 2.244 . S
O85 Co84 2.216 . S
O85 C92 1.247 . S
O86 Co84 2.091 . S
O86 C92 1.261 . S
C87 O96 1.247 . S
C87 O97 1.272 . S
O88 Co84 2.004 . S
O88 C93 1.259 . S
Co89 O90 2.061 . S
Co89 O95 2.052 . S
Co89 O97 2.135 . S
O90 Co89 2.061 . S
O90 C93 1.235 . S
C91 O94 1.238 . S
C91 O95 1.241 . S
C92 O85 1.247 . S
C92 O86 1.261 . S
C93 O88 1.259 . S
C93 O90 1.235 . S
O94 Co84 2.021 . S
O94 C91 1.238 . S
O95 Co89 2.052 . S
O95 C91 1.241 . S
O96 Co84 2.137 . S
O96 C87 1.247 . S
O97 Co84 2.244 . S
O97 C87 1.272 . S
O97 Co89 2.135 . S
Co98 O99 2.216 . S
Co98 O100 2.091 . S
Co98 O102 2.004 1_455 S
Co98 O108 2.022 1_455 S
Co98 O110 2.137 . S
Co98 O111 2.244 1_556 S
O99 Co98 2.216 . S
O99 C106 1.247 . S
O100 Co98 2.091 . S
O100 C106 1.261 . S
C101 O110 1.247 1_554 S
C101 O111 1.272 . S
O102 Co98 2.004 1_655 S
O102 C107 1.259 . S
Co103 O104 2.061 1_554 S
Co103 O109 2.052 . S
Co103 O111 2.135 1_655 S
O104 Co103 2.061 1_556 S
O104 C107 1.235 . S
C105 O108 1.243 1_554 S
C105 O109 1.241 . S
C106 O99 1.247 . S
C106 O100 1.261 . S
C107 O102 1.259 . S
C107 O104 1.235 . S
O108 Co98 2.022 1_655 S
O108 C105 1.243 1_556 S
O109 Co103 2.052 . S
O109 C105 1.241 . S
O110 Co98 2.137 . S
O110 C101 1.247 1_556 S
O111 Co98 2.244 1_554 S
O111 C101 1.272 . S
O111 Co103 2.135 1_455 S
Co112 O113 2.216 . S
Co112 O114 2.091 . S
Co112 O116 2.004 1_545 S
Co112 O122 2.021 . S
Co112 O124 2.137 . S
Co112 O125 2.244 . S
O113 Co112 2.216 . S
O113 C120 1.247 . S
O114 Co112 2.091 . S
O114 C120 1.261 . S
C115 O124 1.247 . S
C115 O125 1.272 . S
O116 Co112 2.004 1_565 S
O116 C121 1.259 . S
Co117 O118 2.061 . S
Co117 O123 2.052 . S
Co117 O125 2.135 1_565 S
O118 Co117 2.061 . S
O118 C121 1.235 . S
C119 O122 1.229 1_565 S
C119 O123 1.241 . S
C120 O113 1.247 . S
C120 O114 1.261 . S
C121 O116 1.259 . S
C121 O118 1.235 . S
O122 Co112 2.021 . S
O122 C119 1.229 1_545 S
O123 Co117 2.052 . S
O123 C119 1.241 . S
O124 Co112 2.137 . S
O124 C115 1.247 . S
O125 Co112 2.244 . S
O125 C115 1.272 . S
O125 Co117 2.135 1_545 S
Co126 O127 2.216 . S
Co126 O128 2.091 . S
Co126 O130 2.004 . S
Co126 O136 2.021 . S
Co126 O138 2.137 . S
Co126 O139 2.244 . S
O127 Co126 2.216 . S
O127 C134 1.247 . S
O128 Co126 2.091 . S
O128 C134 1.261 . S
C129 O138 1.247 . S
C129 O139 1.272 . S
O130 Co126 2.004 . S
O130 C135 1.259 . S
Co131 O132 2.061 . S
Co131 O137 2.052 . S
Co131 O139 2.135 . S
O132 Co131 2.061 . S
O132 C135 1.235 . S
C133 O136 1.238 . S
C133 O137 1.241 . S
C134 O127 1.247 . S
C134 O128 1.261 . S
C135 O130 1.259 . S
C135 O132 1.235 . S
O136 Co126 2.021 . S
O136 C133 1.238 . S
O137 Co131 2.052 . S
O137 C133 1.241 . S
O138 Co126 2.137 . S
O138 C129 1.247 . S
O139 Co126 2.244 . S
O139 C129 1.272 . S
O139 Co131 2.135 . S
Co140 O141 2.216 . S
Co140 O142 2.091 . S
Co140 O144 2.004 . S
Co140 O150 2.021 . S
Co140 O152 2.137 . S
Co140 O153 2.244 . S
O141 Co140 2.216 . S
O141 C148 1.247 . S
O142 Co140 2.091 . S
O142 C148 1.261 . S
C143 O152 1.247 . S
C143 O153 1.272 . S
O144 Co140 2.004 . S
O144 C149 1.259 . S
Co145 O146 2.061 . S
Co145 O151 2.052 . S
Co145 O153 2.135 . S
O146 Co145 2.061 . S
O146 C149 1.235 . S
C147 O150 1.238 . S
C147 O151 1.241 . S
C148 O141 1.247 . S
C148 O142 1.261 . S
C149 O144 1.259 . S
C149 O146 1.235 . S
O150 Co140 2.021 . S
O150 C147 1.238 . S
O151 Co145 2.052 . S
O151 C147 1.241 . S
O152 Co140 2.137 . S
O152 C143 1.247 . S
O153 Co140 2.244 . S
O153 C143 1.272 . S
O153 Co145 2.135 . S
Co154 O155 2.216 . S
Co154 O156 2.091 1_556 S
Co154 O158 2.008 1_556 S
Co154 O164 2.021 1_556 S
Co154 O166 2.137 . S
Co154 O167 2.244 . S
O155 Co154 2.216 . S
O155 C162 1.247 . S
O156 Co154 2.091 1_554 S
O156 C162 1.261 1_554 S
C157 O166 1.247 . S
C157 O167 1.272 . S
O158 Co154 2.008 1_554 S
O158 C163 1.263 . S
Co159 O160 2.061 1_556 S
Co159 O165 2.052 1_556 S
Co159 O167 2.135 . S
O160 Co159 2.061 1_554 S
O160 C163 1.235 . S
C161 O164 1.238 . S
C161 O165 1.241 . S
C162 O155 1.247 . S
C162 O156 1.261 1_556 S
C163 O158 1.263 . S
C163 O160 1.235 . S
O164 Co154 2.021 1_554 S
O164 C161 1.238 . S
O165 Co159 2.052 1_554 S
O165 C161 1.241 . S
O166 Co154 2.137 . S
O166 C157 1.247 . S
O167 Co154 2.244 . S
O167 C157 1.272 . S
O167 Co159 2.135 . S
Co168 O169 2.216 . S
Co168 O170 2.091 . S
Co168 O172 2.004 . S
Co168 O178 2.021 . S
Co168 O180 2.137 1_554 S
Co168 O181 2.244 . S
O169 Co168 2.216 . S
O169 C176 1.247 . S
O170 Co168 2.091 . S
O170 C176 1.261 . S
C171 O180 1.247 . S
C171 O181 1.272 1_556 S
O172 Co168 2.004 . S
O172 C177 1.259 . S
Co173 O174 2.061 . S
Co173 O179 2.052 . S
Co173 O181 2.135 . S
O174 Co173 2.061 . S
O174 C177 1.235 . S
C175 O178 1.238 . S
C175 O179 1.241 . S
C176 O169 1.247 . S
C176 O170 1.261 . S
C177 O172 1.259 . S
C177 O174 1.235 . S
O178 Co168 2.021 . S
O178 C175 1.238 . S
O179 Co173 2.052 . S
O179 C175 1.241 . S
O180 Co168 2.137 1_556 S
O180 C171 1.247 . S
O181 Co168 2.244 . S
O181 C171 1.272 1_554 S
O181 Co173 2.135 . S
Co182 O183 2.216 . S
Co182 O184 2.091 . S
Co182 O186 2.004 . S
Co182 O192 2.021 . S
Co182 O194 2.137 . S
Co182 O195 2.244 . S
O183 Co182 2.216 . S
O183 C190 1.247 . S
O184 Co182 2.091 . S
O184 C190 1.261 . S
C185 O194 1.247 . S
C185 O195 1.272 . S
O186 Co182 2.004 . S
O186 C191 1.259 . S
Co187 O188 2.061 . S
Co187 O193 2.052 . S
Co187 O195 2.135 . S
O188 Co187 2.061 . S
O188 C191 1.235 . S
C189 O192 1.238 . S
C189 O193 1.241 . S
C190 O183 1.247 . S
C190 O184 1.261 . S
C191 O186 1.259 . S
C191 O188 1.235 . S
O192 Co182 2.021 . S
O192 C189 1.238 . S
O193 Co187 2.052 . S
O193 C189 1.241 . S
O194 Co182 2.137 . S
O194 C185 1.247 . S
O195 Co182 2.244 . S
O195 C185 1.272 . S
O195 Co187 2.135 . S
Co196 O197 2.216 . S
Co196 O198 2.091 . S
Co196 O200 2.004 . S
Co196 O206 2.021 . S
Co196 O208 2.137 . S
Co196 O209 2.244 . S
O197 Co196 2.216 . S
O197 C204 1.247 . S
O198 Co196 2.091 . S
O198 C204 1.261 . S
C199 O208 1.247 . S
C199 O209 1.272 . S
O200 Co196 2.004 . S
O200 C205 1.259 . S
Co201 O202 2.061 . S
Co201 O207 2.052 . S
Co201 O209 2.135 . S
O202 Co201 2.061 . S
O202 C205 1.235 . S
C203 O206 1.238 . S
C203 O207 1.241 . S
C204 O197 1.247 . S
C204 O198 1.261 . S
C205 O200 1.259 . S
C205 O202 1.235 . S
O206 Co196 2.021 . S
O206 C203 1.238 . S
O207 Co201 2.052 . S
O207 C203 1.241 . S
O208 Co196 2.137 . S
O208 C199 1.247 . S
O209 Co196 2.244 . S
O209 C199 1.272 . S
O209 Co201 2.135 . S
Co210 O211 2.216 . S
Co210 O212 2.091 . S
Co210 O214 2.004 . S
Co210 O220 2.021 . S
Co210 O222 2.137 . S
Co210 O223 2.244 . S
O211 Co210 2.216 . S
O211 C218 1.247 . S
O212 Co210 2.091 . S
O212 C218 1.261 . S
C213 O222 1.247 . S
C213 O223 1.272 . S
O214 Co210 2.004 . S
O214 C219 1.259 . S
Co215 O216 2.061 . S
Co215 O221 2.052 . S
Co215 O223 2.135 . S
O216 Co215 2.061 . S
O216 C219 1.235 . S
C217 O220 1.238 . S
C217 O221 1.241 . S
C218 O211 1.247 . S
C218 O212 1.261 . S
C219 O214 1.259 . S
C219 O216 1.235 . S
O220 Co210 2.021 . S
O220 C217 1.238 . S
O221 Co215 2.052 . S
O221 C217 1.241 . S
O222 Co210 2.137 . S
O222 C213 1.247 . S
O223 Co210 2.244 . S
O223 C213 1.272 . S
O223 Co215 2.135 . S
Co224 O225 2.216 . S
Co224 O226 2.091 . S
Co224 O228 2.004 1_545 S
Co224 O234 2.021 . S
Co224 O236 2.137 . S
Co224 O237 2.244 . S
O225 Co224 2.216 . S
O225 C232 1.247 . S
O226 Co224 2.091 . S
O226 C232 1.261 . S
C227 O236 1.247 . S
C227 O237 1.272 . S
O228 Co224 2.004 1_565 S
O228 C233 1.259 . S
Co229 O230 2.061 . S
Co229 O235 2.052 1_565 S
Co229 O237 2.135 1_565 S
O230 Co229 2.061 . S
O230 C233 1.235 . S
C231 O234 1.238 . S
C231 O235 1.241 . S
C232 O225 1.247 . S
C232 O226 1.261 . S
C233 O228 1.259 . S
C233 O230 1.235 . S
O234 Co224 2.021 . S
O234 C231 1.238 . S
O235 Co229 2.052 1_545 S
O235 C231 1.241 . S
O236 Co224 2.137 . S
O236 C227 1.247 . S
O237 Co224 2.244 . S
O237 C227 1.272 . S
O237 Co229 2.135 1_545 S
Co238 O239 2.216 . S
Co238 O240 2.091 . S
Co238 O242 2.004 . S
Co238 O248 2.021 . S
Co238 O250 2.137 . S
Co238 O251 2.244 . S
O239 Co238 2.216 . S
O239 C246 1.247 . S
O240 Co238 2.091 . S
O240 C246 1.261 . S
C241 O250 1.247 . S
C241 O251 1.272 . S
O242 Co238 2.004 . S
O242 C247 1.259 . S
Co243 O244 2.061 . S
Co243 O249 2.052 . S
Co243 O251 2.135 . S
O244 Co243 2.061 . S
O244 C247 1.235 . S
C245 O248 1.238 . S
C245 O249 1.241 . S
C246 O239 1.247 . S
C246 O240 1.261 . S
C247 O242 1.259 . S
C247 O244 1.235 . S
O248 Co238 2.021 . S
O248 C245 1.238 . S
O249 Co243 2.052 . S
O249 C245 1.241 . S
O250 Co238 2.137 . S
O250 C241 1.247 . S
O251 Co238 2.244 . S
O251 C241 1.272 . S
O251 Co243 2.135 . S
Co252 O253 2.216 . S
Co252 O254 2.091 . S
Co252 O256 2.004 . S
Co252 O262 2.021 . S
Co252 O264 2.137 . S
Co252 O265 2.244 . S
O253 Co252 2.216 . S
O253 C260 1.247 . S
O254 Co252 2.091 . S
O254 C260 1.261 . S
C255 O264 1.247 . S
C255 O265 1.272 . S
O256 Co252 2.004 . S
O256 C261 1.259 . S
Co257 O258 2.061 . S
Co257 O263 2.052 . S
Co257 O265 2.135 . S
O258 Co257 2.061 . S
O258 C261 1.235 . S
C259 O262 1.238 . S
C259 O263 1.241 . S
C260 O253 1.247 . S
C260 O254 1.261 . S
C261 O256 1.259 . S
C261 O258 1.235 . S
O262 Co252 2.021 . S
O262 C259 1.238 . S
O263 Co257 2.052 . S
O263 C259 1.241 . S
O264 Co252 2.137 . S
O264 C255 1.247 . S
O265 Co252 2.244 . S
O265 C255 1.272 . S
O265 Co257 2.135 . S
Co266 O267 2.216 . S
Co266 O268 2.091 . S
Co266 O270 2.004 . S
Co266 O276 2.021 . S
Co266 O278 2.137 . S
Co266 O279 2.244 . S
O267 Co266 2.216 . S
O267 C274 1.247 . S
O268 Co266 2.091 . S
O268 C274 1.261 . S
C269 O278 1.247 . S
C269 O279 1.272 . S
O270 Co266 2.004 . S
O270 C275 1.259 . S
Co271 O272 2.061 . S
Co271 O277 2.052 . S
Co271 O279 2.135 . S
O272 Co271 2.061 . S
O272 C275 1.235 . S
C273 O276 1.238 . S
C273 O277 1.241 . S
C274 O267 1.247 . S
C274 O268 1.261 . S
C275 O270 1.259 . S
C275 O272 1.235 . S
O276 Co266 2.021 . S
O276 C273 1.238 . S
O277 Co271 2.052 . S
O277 C273 1.241 . S
O278 Co266 2.137 . S
O278 C269 1.247 . S
O279 Co266 2.244 . S
O279 C269 1.272 . S
O279 Co271 2.135 . S
Co280 O281 2.216 . S
Co280 O282 2.091 . S
Co280 O284 2.004 . S
Co280 O290 2.021 . S
Co280 O292 2.137 1_554 S
Co280 O293 2.244 . S
O281 Co280 2.216 . S
O281 C288 1.247 . S
O282 Co280 2.091 . S
O282 C288 1.261 . S
C283 O292 1.247 . S
C283 O293 1.272 1_556 S
O284 Co280 2.004 . S
O284 C289 1.259 . S
Co285 O286 2.061 . S
Co285 O291 2.052 . S
Co285 O293 2.135 . S
O286 Co285 2.061 . S
O286 C289 1.235 . S
C287 O290 1.238 . S
C287 O291 1.241 . S
C288 O281 1.247 . S
C288 O282 1.261 . S
C289 O284 1.259 . S
C289 O286 1.235 . S
O290 Co280 2.021 . S
O290 C287 1.238 . S
O291 Co285 2.052 . S
O291 C287 1.241 . S
O292 Co280 2.137 1_556 S
O292 C283 1.247 . S
O293 Co280 2.244 . S
O293 C283 1.272 1_554 S
O293 Co285 2.135 . S
Co294 O295 2.216 . S
Co294 O296 2.091 . S
Co294 O298 2.004 . S
Co294 O304 2.021 . S
Co294 O306 2.137 . S
Co294 O307 2.244 . S
O295 Co294 2.216 . S
O295 C302 1.247 . S
O296 Co294 2.091 . S
O296 C302 1.261 . S
C297 O306 1.247 . S
C297 O307 1.272 . S
O298 Co294 2.004 . S
O298 C303 1.259 . S
Co299 O300 2.061 . S
Co299 O305 2.052 . S
Co299 O307 2.135 . S
O300 Co299 2.061 . S
O300 C303 1.235 . S
C301 O304 1.238 . S
C301 O305 1.241 . S
C302 O295 1.247 . S
C302 O296 1.261 . S
C303 O298 1.259 . S
C303 O300 1.235 . S
O304 Co294 2.021 . S
O304 C301 1.238 . S
O305 Co299 2.052 . S
O305 C301 1.241 . S
O306 Co294 2.137 . S
O306 C297 1.247 . S
O307 Co294 2.244 . S
O307 C297 1.272 . S
O307 Co299 2.135 . S
Co308 O309 2.216 . S
Co308 O310 2.091 . S
Co308 O312 2.004 . S
Co308 O318 2.021 . S
Co308 O320 2.137 . S
Co308 O321 2.244 . S
O309 Co308 2.216 . S
O309 C316 1.247 . S
O310 Co308 2.091 . S
O310 C316 1.261 . S
C311 O320 1.247 . S
C311 O321 1.272 . S
O312 Co308 2.004 . S
O312 C317 1.259 . S
Co313 O314 2.061 . S
Co313 O319 2.052 . S
Co313 O321 2.135 . S
O314 Co313 2.061 . S
O314 C317 1.235 . S
C315 O318 1.238 . S
C315 O319 1.241 . S
C316 O309 1.247 . S
C316 O310 1.261 . S
C317 O312 1.259 . S
C317 O314 1.235 . S
O318 Co308 2.021 . S
O318 C315 1.238 . S
O319 Co313 2.052 . S
O319 C315 1.241 . S
O320 Co308 2.137 . S
O320 C311 1.247 . S
O321 Co308 2.244 . S
O321 C311 1.272 . S
O321 Co313 2.135 . S
Co322 O323 2.216 . S
Co322 O324 2.091 . S
Co322 O326 2.004 . S
Co322 O332 2.021 . S
Co322 O334 2.137 . S
Co322 O335 2.244 . S
O323 Co322 2.216 . S
O323 C330 1.247 . S
O324 Co322 2.091 . S
O324 C330 1.261 . S
C325 O334 1.247 . S
C325 O335 1.272 . S
O326 Co322 2.004 . S
O326 C331 1.259 . S
Co327 O328 2.061 . S
Co327 O333 2.052 . S
Co327 O335 2.135 . S
O328 Co327 2.061 . S
O328 C331 1.235 . S
C329 O332 1.238 . S
C329 O333 1.241 . S
C330 O323 1.247 . S
C330 O324 1.261 . S
C331 O326 1.259 . S
C331 O328 1.235 . S
O332 Co322 2.021 . S
O332 C329 1.238 . S
O333 Co327 2.052 . S
O333 C329 1.241 . S
O334 Co322 2.137 . S
O334 C325 1.247 . S
O335 Co322 2.244 . S
O335 C325 1.272 . S
O335 Co327 2.135 . S
Dy336 O339 2.307 . S
Dy336 O341 2.395 . S
Dy336 O342 2.379 . S
Dy336 O344 2.339 . S
Dy336 O346 2.298 . S
Dy336 O350 2.275 . S
Dy336 C358 2.738 . S
Dy337 O340 2.298 1_655 S
Dy337 O343 2.275 1_655 S
Dy337 O345 2.307 1_655 S
Dy337 O347 2.395 . S
Dy337 O348 2.379 . S
Dy337 O351 2.339 1_654 S
Dy337 C367 2.738 . S
C338 O350 1.254 1_556 S
C338 O351 1.257 . S
O339 Dy336 2.307 . S
O339 C349 1.266 . S
O340 Dy337 2.298 1_455 S
O340 C349 1.236 . S
O341 Dy336 2.395 . S
O341 C358 1.255 . S
O342 Dy336 2.379 . S
O342 C358 1.249 . S
O343 Dy337 2.275 1_455 S
O343 C359 1.254 . S
O344 Dy336 2.339 . S
O344 C359 1.257 . S
O345 Dy337 2.307 1_455 S
O345 C360 1.280 . S
O346 Dy336 2.298 . S
O346 C360 1.249 . S
O347 Dy337 2.395 . S
O347 C367 1.255 . S
O348 Dy337 2.379 . S
O348 C367 1.249 . S
C349 O339 1.266 . S
C349 O340 1.236 . S
O350 Dy336 2.275 . S
O350 C338 1.254 1_554 S
O351 Dy337 2.339 1_456 S
O351 C338 1.257 . S
C352 C355 1.344 . S
C352 C356 1.328 . S
C352 C358 1.516 . S
C353 C354 1.304 . S
C353 C357 1.323 . S
C354 C353 1.304 . S
C354 C355 1.371 . S
C354 H368 0.930 . S
C355 C352 1.344 . S
C355 C354 1.371 . S
C355 H369 0.931 . S
C356 C352 1.328 . S
C356 C357 1.433 . S
C356 H370 0.931 . S
C357 C353 1.323 . S
C357 C356 1.433 . S
C357 H371 0.933 . S
C358 Dy336 2.738 . S
C358 O341 1.255 . S
C358 O342 1.249 . S
C358 C352 1.516 . S
C359 O343 1.254 . S
C359 O344 1.257 . S
C360 O345 1.280 . S
C360 O346 1.249 . S
C361 C364 1.344 . S
C361 C365 1.328 1_554 S
C361 C367 1.516 . S
C362 C363 1.304 . S
C362 C366 1.323 1_554 S
C363 C362 1.304 . S
C363 C364 1.371 . S
C363 H372 0.930 . S
C364 C361 1.344 . S
C364 C363 1.371 . S
C364 H373 0.931 . S
C365 C361 1.328 1_556 S
C365 C366 1.433 . S
C365 H374 0.931 . S
C366 C362 1.323 1_556 S
C366 C365 1.433 . S
C366 H375 0.933 . S
C367 Dy337 2.738 . S
C367 O347 1.255 . S
C367 O348 1.249 . S
C367 C361 1.516 . S
H368 C354 0.930 . S
H369 C355 0.931 . S
H370 C356 0.931 . S
H371 C357 0.933 . S
H372 C363 0.930 . S
H373 C364 0.931 . S
H374 C365 0.931 . S
H375 C366 0.933 . S
Dy376 O379 2.307 . S
Dy376 O381 2.395 . S
Dy376 O382 2.379 . S
Dy376 O384 2.339 . S
Dy376 O386 2.298 . S
Dy376 O390 2.275 . S
Dy376 C398 2.738 . S
Dy377 O380 2.298 . S
Dy377 O383 2.275 . S
Dy377 O385 2.307 . S
Dy377 O387 2.395 . S
Dy377 O388 2.379 . S
Dy377 O391 2.339 . S
Dy377 C407 2.738 . S
C378 O390 1.254 . S
C378 O391 1.257 . S
O379 Dy376 2.307 . S
O379 C389 1.266 . S
O380 Dy377 2.298 . S
O380 C389 1.236 . S
O381 Dy376 2.395 . S
O381 C398 1.255 . S
O382 Dy376 2.379 . S
O382 C398 1.249 . S
O383 Dy377 2.275 . S
O383 C399 1.254 . S
O384 Dy376 2.339 . S
O384 C399 1.257 . S
O385 Dy377 2.307 . S
O385 C400 1.266 . S
O386 Dy376 2.298 . S
O386 C400 1.236 . S
O387 Dy377 2.395 . S
O387 C407 1.255 . S
O388 Dy377 2.379 . S
O388 C407 1.249 . S
C389 O379 1.266 . S
C389 O380 1.236 . S
O390 Dy376 2.275 . S
O390 C378 1.254 . S
O391 Dy377 2.339 . S
O391 C378 1.257 . S
C392 C395 1.344 . S
C392 C396 1.328 . S
C392 C398 1.516 . S
C393 C394 1.304 . S
C393 C397 1.323 . S
C394 C393 1.304 . S
C394 C395 1.371 . S
C394 H408 0.930 . S
C395 C392 1.344 . S
C395 C394 1.371 . S
C395 H409 0.931 . S
C396 C392 1.328 . S
C396 C397 1.433 . S
C396 H410 0.931 . S
C397 C393 1.323 . S
C397 C396 1.433 . S
C397 H411 0.933 . S
C398 Dy376 2.738 . S
C398 O381 1.255 . S
C398 O382 1.249 . S
C398 C392 1.516 . S
C399 O383 1.254 . S
C399 O384 1.257 . S
C400 O385 1.266 . S
C400 O386 1.236 . S
C401 C404 1.344 . S
C401 C405 1.328 . S
C401 C407 1.516 . S
C402 C403 1.304 . S
C402 C406 1.323 . S
C403 C402 1.304 . S
C403 C404 1.371 . S
C403 H412 0.930 . S
C404 C401 1.344 . S
C404 C403 1.371 . S
C404 H413 0.931 . S
C405 C401 1.328 . S
C405 C406 1.433 . S
C405 H414 0.931 . S
C406 C402 1.323 . S
C406 C405 1.433 . S
C406 H415 0.933 . S
C407 Dy377 2.738 . S
C407 O387 1.255 . S
C407 O388 1.249 . S
C407 C401 1.516 . S
H408 C394 0.930 . S
H409 C395 0.931 . S
H410 C396 0.931 . S
H411 C397 0.933 . S
H412 C403 0.930 . S
H413 C404 0.931 . S
H414 C405 0.931 . S
H415 C406 0.933 . S
Dy416 O419 2.307 . S
Dy416 O421 2.395 . S
Dy416 O422 2.379 . S
Dy416 O424 2.339 . S
Dy416 O426 2.298 . S
Dy416 O430 2.275 . S
Dy416 C438 2.738 . S
Dy417 O420 2.298 . S
Dy417 O423 2.275 . S
Dy417 O425 2.307 . S
Dy417 O427 2.395 . S
Dy417 O428 2.379 . S
Dy417 O431 2.339 . S
Dy417 C447 2.738 . S
C418 O430 1.254 . S
C418 O431 1.257 . S
O419 Dy416 2.307 . S
O419 C429 1.266 1_545 S
O420 Dy417 2.298 . S
O420 C429 1.236 1_545 S
O421 Dy416 2.395 . S
O421 C438 1.255 . S
O422 Dy416 2.379 . S
O422 C438 1.249 . S
O423 Dy417 2.275 . S
O423 C439 1.254 . S
O424 Dy416 2.339 . S
O424 C439 1.257 . S
O425 Dy417 2.307 . S
O425 C440 1.266 . S
O426 Dy416 2.298 . S
O426 C440 1.236 . S
O427 Dy417 2.395 . S
O427 C447 1.255 . S
O428 Dy417 2.379 . S
O428 C447 1.249 . S
C429 O419 1.266 1_565 S
C429 O420 1.236 1_565 S
O430 Dy416 2.275 . S
O430 C418 1.254 . S
O431 Dy417 2.339 . S
O431 C418 1.257 . S
C432 C435 1.344 . S
C432 C436 1.328 . S
C432 C438 1.516 . S
C433 C434 1.304 . S
C433 C437 1.323 . S
C434 C433 1.304 . S
C434 C435 1.371 . S
C434 H448 0.930 . S
C435 C432 1.344 . S
C435 C434 1.371 . S
C435 H449 0.931 . S
C436 C432 1.328 . S
C436 C437 1.433 . S
C436 H450 0.931 . S
C437 C433 1.323 . S
C437 C436 1.433 . S
C437 H451 0.933 . S
C438 Dy416 2.738 . S
C438 O421 1.255 . S
C438 O422 1.249 . S
C438 C432 1.516 . S
C439 O423 1.254 . S
C439 O424 1.257 . S
C440 O425 1.266 . S
C440 O426 1.236 . S
C441 C444 1.344 1_545 S
C441 C445 1.328 . S
C441 C447 1.516 . S
C442 C443 1.304 . S
C442 C446 1.323 . S
C443 C442 1.304 . S
C443 C444 1.371 . S
C443 H452 0.930 . S
C444 C441 1.344 1_565 S
C444 C443 1.371 . S
C444 H453 0.932 . S
C445 C441 1.328 . S
C445 C446 1.433 1_545 S
C445 H454 0.931 . S
C446 C442 1.323 . S
C446 C445 1.433 1_565 S
C446 H455 0.933 . S
C447 Dy417 2.738 . S
C447 O427 1.255 . S
C447 O428 1.249 . S
C447 C441 1.516 . S
H448 C434 0.930 . S
H449 C435 0.931 . S
H450 C436 0.931 . S
H451 C437 0.933 . S
H452 C443 0.930 . S
H453 C444 0.932 . S
H454 C445 0.931 . S
H455 C446 0.933 . S
Dy456 O459 2.307 . S
Dy456 O461 2.395 . S
Dy456 O462 2.379 . S
Dy456 O464 2.339 . S
Dy456 O466 2.298 . S
Dy456 O470 2.275 . S
Dy456 C478 2.738 . S
Dy457 O460 2.298 . S
Dy457 O463 2.275 . S
Dy457 O465 2.307 . S
Dy457 O467 2.395 . S
Dy457 O468 2.379 . S
Dy457 O471 2.339 . S
Dy457 C487 2.738 . S
C458 O470 1.254 . S
C458 O471 1.257 . S
O459 Dy456 2.307 . S
O459 C469 1.266 . S
O460 Dy457 2.298 . S
O460 C469 1.236 . S
O461 Dy456 2.395 . S
O461 C478 1.255 . S
O462 Dy456 2.379 . S
O462 C478 1.249 . S
O463 Dy457 2.275 . S
O463 C479 1.254 . S
O464 Dy456 2.339 . S
O464 C479 1.257 . S
O465 Dy457 2.307 . S
O465 C480 1.266 . S
O466 Dy456 2.298 . S
O466 C480 1.236 . S
O467 Dy457 2.395 . S
O467 C487 1.255 . S
O468 Dy457 2.379 . S
O468 C487 1.249 . S
C469 O459 1.266 . S
C469 O460 1.236 . S
O470 Dy456 2.275 . S
O470 C458 1.254 . S
O471 Dy457 2.339 . S
O471 C458 1.257 . S
C472 C475 1.344 . S
C472 C476 1.328 . S
C472 C478 1.516 . S
C473 C474 1.304 . S
C473 C477 1.323 . S
C474 C473 1.304 . S
C474 C475 1.371 . S
C474 H488 0.930 . S
C475 C472 1.344 . S
C475 C474 1.371 . S
C475 H489 0.931 . S
C476 C472 1.328 . S
C476 C477 1.433 . S
C476 H490 0.931 . S
C477 C473 1.323 . S
C477 C476 1.433 . S
C477 H491 0.933 . S
C478 Dy456 2.738 . S
C478 O461 1.255 . S
C478 O462 1.249 . S
C478 C472 1.516 . S
C479 O463 1.254 . S
C479 O464 1.257 . S
C480 O465 1.266 . S
C480 O466 1.236 . S
C481 C484 1.344 . S
C481 C485 1.328 . S
C481 C487 1.516 . S
C482 C483 1.304 . S
C482 C486 1.323 . S
C483 C482 1.304 . S
C483 C484 1.371 . S
C483 H492 0.930 . S
C484 C481 1.344 . S
C484 C483 1.371 . S
C484 H493 0.931 . S
C485 C481 1.328 . S
C485 C486 1.433 . S
C485 H494 0.931 . S
C486 C482 1.323 . S
C486 C485 1.433 . S
C486 H495 0.933 . S
C487 Dy457 2.738 . S
C487 O467 1.255 . S
C487 O468 1.249 . S
C487 C481 1.516 . S
H488 C474 0.930 . S
H489 C475 0.931 . S
H490 C476 0.931 . S
H491 C477 0.933 . S
H492 C483 0.930 . S
H493 C484 0.931 . S
H494 C485 0.931 . S
H495 C486 0.933 . S
Dy496 O499 2.307 . S
Dy496 O501 2.395 1_545 S
Dy496 O502 2.379 1_545 S
Dy496 O504 2.339 . S
Dy496 O506 2.298 . S
Dy496 O510 2.275 . S
Dy496 C518 2.738 1_545 S
Dy497 O500 2.298 . S
Dy497 O503 2.275 . S
Dy497 O505 2.307 . S
Dy497 O507 2.395 . S
Dy497 O508 2.374 1_455 S
Dy497 O511 2.339 1_455 S
Dy497 C527 2.738 . S
C498 O510 1.254 1_655 S
C498 O511 1.257 . S
O499 Dy496 2.307 . S
O499 C509 1.266 . S
O500 Dy497 2.298 . S
O500 C509 1.236 . S
O501 Dy496 2.395 1_565 S
O501 C518 1.255 . S
O502 Dy496 2.379 1_565 S
O502 C518 1.249 . S
O503 Dy497 2.275 . S
O503 C519 1.254 . S
O504 Dy496 2.339 . S
O504 C519 1.257 . S
O505 Dy497 2.307 . S
O505 C520 1.266 . S
O506 Dy496 2.298 . S
O506 C520 1.236 . S
O507 Dy497 2.395 . S
O507 C527 1.255 . S
O508 Dy497 2.374 1_655 S
O508 C527 1.245 1_655 S
C509 O499 1.266 . S
C509 O500 1.236 . S
O510 Dy496 2.275 . S
O510 C498 1.254 1_455 S
O511 Dy497 2.339 1_655 S
O511 C498 1.257 . S
C512 C515 1.344 . S
C512 C516 1.328 . S
C512 C518 1.516 . S
C513 C514 1.304 . S
C513 C517 1.323 . S
C514 C513 1.304 . S
C514 C515 1.371 . S
C514 H528 0.930 . S
C515 C512 1.344 . S
C515 C514 1.371 . S
C515 H529 0.931 . S
C516 C512 1.328 . S
C516 C517 1.433 . S
C516 H530 0.931 . S
C517 C513 1.323 . S
C517 C516 1.433 . S
C517 H531 0.933 . S
C518 Dy496 2.738 1_565 S
C518 O501 1.255 . S
C518 O502 1.249 . S
C518 C512 1.516 . S
C519 O503 1.254 . S
C519 O504 1.257 . S
C520 O505 1.266 . S
C520 O506 1.236 . S
C521 C524 1.344 . S
C521 C525 1.328 1_455 S
C521 C527 1.516 . S
C522 C523 1.304 . S
C522 C526 1.323 1_455 S
C523 C522 1.304 . S
C523 C524 1.371 . S
C523 H532 0.930 . S
C524 C521 1.344 . S
C524 C523 1.371 . S
C524 H533 0.931 . S
C525 C521 1.328 1_655 S
C525 C526 1.433 . S
C525 H534 0.931 . S
C526 C522 1.323 1_655 S
C526 C525 1.433 . S
C526 H535 0.933 . S
C527 Dy497 2.738 . S
C527 O507 1.255 . S
C527 O508 1.245 1_455 S
C527 C521 1.516 . S
H528 C514 0.930 . S
H529 C515 0.931 . S
H530 C516 0.931 . S
H531 C517 0.933 . S
H532 C523 0.930 . S
H533 C524 0.931 . S
H534 C525 0.931 . S
H535 C526 0.933 . S
Dy536 O539 2.307 . S
Dy536 O541 2.395 . S
Dy536 O542 2.379 . S
Dy536 O544 2.339 . S
Dy536 O546 2.298 . S
Dy536 O550 2.275 . S
Dy536 C558 2.738 . S
Dy537 O540 2.298 . S
Dy537 O543 2.275 . S
Dy537 O545 2.307 . S
Dy537 O547 2.395 . S
Dy537 O548 2.379 . S
Dy537 O551 2.339 . S
Dy537 C567 2.738 . S
C538 O550 1.254 . S
C538 O551 1.257 . S
O539 Dy536 2.307 . S
O539 C549 1.266 . S
O540 Dy537 2.298 . S
O540 C549 1.236 . S
O541 Dy536 2.395 . S
O541 C558 1.255 . S
O542 Dy536 2.379 . S
O542 C558 1.249 . S
O543 Dy537 2.275 . S
O543 C559 1.254 . S
O544 Dy536 2.339 . S
O544 C559 1.257 . S
O545 Dy537 2.307 . S
O545 C560 1.266 . S
O546 Dy536 2.298 . S
O546 C560 1.236 . S
O547 Dy537 2.395 . S
O547 C567 1.255 . S
O548 Dy537 2.379 . S
O548 C567 1.249 . S
C549 O539 1.266 . S
C549 O540 1.236 . S
O550 Dy536 2.275 . S
O550 C538 1.254 . S
O551 Dy537 2.339 . S
O551 C538 1.257 . S
C552 C555 1.344 . S
C552 C556 1.328 . S
C552 C558 1.516 . S
C553 C554 1.304 . S
C553 C557 1.323 . S
C554 C553 1.304 . S
C554 C555 1.371 . S
C554 H568 0.930 . S
C555 C552 1.344 . S
C555 C554 1.371 . S
C555 H569 0.931 . S
C556 C552 1.328 . S
C556 C557 1.433 . S
C556 H570 0.931 . S
C557 C553 1.323 . S
C557 C556 1.433 . S
C557 H571 0.933 . S
C558 Dy536 2.738 . S
C558 O541 1.255 . S
C558 O542 1.249 . S
C558 C552 1.516 . S
C559 O543 1.254 . S
C559 O544 1.257 . S
C560 O545 1.266 . S
C560 O546 1.236 . S
C561 C564 1.344 . S
C561 C565 1.328 . S
C561 C567 1.516 . S
C562 C563 1.304 . S
C562 C566 1.323 . S
C563 C562 1.304 . S
C563 C564 1.371 . S
C563 H572 0.930 . S
C564 C561 1.344 . S
C564 C563 1.371 . S
C564 H573 0.931 . S
C565 C561 1.328 . S
C565 C566 1.433 . S
C565 H574 0.931 . S
C566 C562 1.323 . S
C566 C565 1.433 . S
C566 H575 0.933 . S
C567 Dy537 2.738 . S
C567 O547 1.255 . S
C567 O548 1.249 . S
C567 C561 1.516 . S
H568 C554 0.930 . S
H569 C555 0.931 . S
H570 C556 0.931 . S
H571 C557 0.933 . S
H572 C563 0.930 . S
H573 C564 0.931 . S
H574 C565 0.931 . S
H575 C566 0.933 . S
Dy576 O579 2.307 . S
Dy576 O581 2.395 1_554 S
Dy576 O582 2.379 1_554 S
Dy576 O584 2.339 . S
Dy576 O586 2.298 . S
Dy576 O590 2.275 . S
Dy576 C598 2.738 1_554 S
Dy577 O580 2.298 . S
Dy577 O583 2.275 . S
Dy577 O585 2.307 . S
Dy577 O587 2.395 . S
Dy577 O588 2.379 . S
Dy577 O591 2.313 1_545 S
Dy577 C607 2.738 . S
C578 O590 1.254 . S
C578 O591 1.244 1_545 S
O579 Dy576 2.307 . S
O579 C589 1.266 . S
O580 Dy577 2.298 . S
O580 C589 1.236 . S
O581 Dy576 2.395 1_556 S
O581 C598 1.255 . S
O582 Dy576 2.379 1_556 S
O582 C598 1.249 . S
O583 Dy577 2.275 . S
O583 C599 1.254 . S
O584 Dy576 2.339 . S
O584 C599 1.257 . S
O585 Dy577 2.307 . S
O585 C600 1.266 . S
O586 Dy576 2.298 . S
O586 C600 1.236 . S
O587 Dy577 2.395 . S
O587 C607 1.255 . S
O588 Dy577 2.379 . S
O588 C607 1.249 . S
C589 O579 1.266 . S
C589 O580 1.236 . S
O590 Dy576 2.275 . S
O590 C578 1.254 . S
O591 Dy577 2.313 1_565 S
O591 C578 1.244 1_565 S
C592 C595 1.344 . S
C592 C596 1.328 . S
C592 C598 1.516 . S
C593 C594 1.304 . S
C593 C597 1.323 . S
C594 C593 1.304 . S
C594 C595 1.371 . S
C594 H608 0.930 . S
C595 C592 1.344 . S
C595 C594 1.371 . S
C595 H609 0.931 . S
C596 C592 1.328 . S
C596 C597 1.433 . S
C596 H610 0.931 . S
C597 C593 1.323 . S
C597 C596 1.433 . S
C597 H611 0.933 . S
C598 Dy576 2.738 1_556 S
C598 O581 1.255 . S
C598 O582 1.249 . S
C598 C592 1.516 . S
C599 O583 1.254 . S
C599 O584 1.257 . S
C600 O585 1.266 . S
C600 O586 1.236 . S
C601 C604 1.344 . S
C601 C605 1.328 1_545 S
C601 C607 1.516 . S
C602 C603 1.304 1_565 S
C602 C606 1.323 . S
C603 C602 1.304 1_545 S
C603 C604 1.371 . S
C603 H612 0.930 . S
C604 C601 1.344 . S
C604 C603 1.371 . S
C604 H613 0.931 . S
C605 C601 1.328 1_565 S
C605 C606 1.433 . S
C605 H614 0.931 . S
C606 C602 1.323 . S
C606 C605 1.433 . S
C606 H615 0.933 . S
C607 Dy577 2.738 . S
C607 O587 1.255 . S
C607 O588 1.249 . S
C607 C601 1.516 . S
H608 C594 0.930 . S
H609 C595 0.931 . S
H610 C596 0.931 . S
H611 C597 0.933 . S
H612 C603 0.930 . S
H613 C604 0.931 . S
H614 C605 0.931 . S
H615 C606 0.933 . S
Dy616 O619 2.307 . S
Dy616 O621 2.395 . S
Dy616 O622 2.379 . S
Dy616 O624 2.339 . S
Dy616 O626 2.298 . S
Dy616 O630 2.275 . S
Dy616 C638 2.738 . S
Dy617 O620 2.298 . S
Dy617 O623 2.275 . S
Dy617 O625 2.307 . S
Dy617 O627 2.395 . S
Dy617 O628 2.379 . S
Dy617 O631 2.339 . S
Dy617 C647 2.738 . S
C618 O630 1.254 . S
C618 O631 1.257 . S
O619 Dy616 2.307 . S
O619 C629 1.266 . S
O620 Dy617 2.298 . S
O620 C629 1.236 . S
O621 Dy616 2.395 . S
O621 C638 1.255 . S
O622 Dy616 2.379 . S
O622 C638 1.249 . S
O623 Dy617 2.275 . S
O623 C639 1.254 . S
O624 Dy616 2.339 . S
O624 C639 1.257 . S
O625 Dy617 2.307 . S
O625 C640 1.266 . S
O626 Dy616 2.298 . S
O626 C640 1.236 . S
O627 Dy617 2.395 . S
O627 C647 1.255 . S
O628 Dy617 2.379 . S
O628 C647 1.249 . S
C629 O619 1.266 . S
C629 O620 1.236 . S
O630 Dy616 2.275 . S
O630 C618 1.254 . S
O631 Dy617 2.339 . S
O631 C618 1.257 . S
C632 C635 1.344 . S
C632 C636 1.328 . S
C632 C638 1.516 . S
C633 C634 1.304 . S
C633 C637 1.323 . S
C634 C633 1.304 . S
C634 C635 1.371 . S
C634 H648 0.930 . S
C635 C632 1.344 . S
C635 C634 1.371 . S
C635 H649 0.931 . S
C636 C632 1.328 . S
C636 C637 1.433 . S
C636 H650 0.931 . S
C637 C633 1.323 . S
C637 C636 1.433 . S
C637 H651 0.933 . S
C638 Dy616 2.738 . S
C638 O621 1.255 . S
C638 O622 1.249 . S
C638 C632 1.516 . S
C639 O623 1.254 . S
C639 O624 1.257 . S
C640 O625 1.266 . S
C640 O626 1.236 . S
C641 C644 1.344 . S
C641 C645 1.328 . S
C641 C647 1.516 . S
C642 C643 1.304 . S
C642 C646 1.323 . S
C643 C642 1.304 . S
C643 C644 1.371 . S
C643 H652 0.930 . S
C644 C641 1.344 . S
C644 C643 1.371 . S
C644 H653 0.931 . S
C645 C641 1.328 . S
C645 C646 1.433 . S
C645 H654 0.931 . S
C646 C642 1.323 . S
C646 C645 1.433 . S
C646 H655 0.933 . S
C647 Dy617 2.738 . S
C647 O627 1.255 . S
C647 O628 1.249 . S
C647 C641 1.516 . S
H648 C634 0.930 . S
H649 C635 0.931 . S
H650 C636 0.931 . S
H651 C637 0.933 . S
H652 C643 0.930 . S
H653 C644 0.931 . S
H654 C645 0.931 . S
H655 C646 0.933 . S
Dy656 O659 2.307 1_554 S
Dy656 O661 2.395 . S
Dy656 O662 2.379 . S
Dy656 O664 2.339 . S
Dy656 O666 2.298 . S
Dy656 O670 2.275 . S
Dy656 C678 2.738 . S
Dy657 O660 2.299 1_554 S
Dy657 O663 2.275 . S
Dy657 O665 2.307 . S
Dy657 O667 2.395 . S
Dy657 O668 2.379 . S
Dy657 O671 2.339 . S
Dy657 C687 2.738 . S
C658 O670 1.254 . S
C658 O671 1.257 . S
O659 Dy656 2.307 1_556 S
O659 C669 1.266 . S
O660 Dy657 2.299 1_556 S
O660 C669 1.235 . S
O661 Dy656 2.395 . S
O661 C678 1.255 . S
O662 Dy656 2.379 . S
O662 C678 1.249 . S
O663 Dy657 2.275 . S
O663 C679 1.254 . S
O664 Dy656 2.339 . S
O664 C679 1.257 . S
O665 Dy657 2.307 . S
O665 C680 1.266 . S
O666 Dy656 2.298 . S
O666 C680 1.236 . S
O667 Dy657 2.395 . S
O667 C687 1.255 . S
O668 Dy657 2.379 . S
O668 C687 1.249 . S
C669 O659 1.266 . S
C669 O660 1.235 . S
O670 Dy656 2.275 . S
O670 C658 1.254 . S
O671 Dy657 2.339 . S
O671 C658 1.257 . S
C672 C675 1.344 . S
C672 C676 1.328 . S
C672 C678 1.516 . S
C673 C674 1.304 . S
C673 C677 1.323 . S
C674 C673 1.304 . S
C674 C675 1.371 . S
C674 H688 0.930 . S
C675 C672 1.344 . S
C675 C674 1.371 . S
C675 H689 0.931 . S
C676 C672 1.328 . S
C676 C677 1.433 . S
C676 H690 0.931 . S
C677 C673 1.323 . S
C677 C676 1.433 . S
C677 H691 0.933 . S
C678 Dy656 2.738 . S
C678 O661 1.255 . S
C678 O662 1.249 . S
C678 C672 1.516 . S
C679 O663 1.254 . S
C679 O664 1.257 . S
C680 O665 1.266 . S
C680 O666 1.236 . S
C681 C684 1.354 . S
C681 C685 1.328 . S
C681 C687 1.507 1_556 S
C682 C683 1.304 . S
C682 C686 1.323 . S
C683 C682 1.304 . S
C683 C684 1.371 . S
C683 H692 0.930 . S
C684 C681 1.354 . S
C684 C683 1.371 . S
C684 H693 0.931 . S
C685 C681 1.328 . S
C685 C686 1.440 . S
C685 H694 0.922 1_556 S
C686 C682 1.323 . S
C686 C685 1.440 . S
C686 H695 0.933 . S
C687 Dy657 2.738 . S
C687 O667 1.255 . S
C687 O668 1.249 . S
C687 C681 1.507 1_554 S
H688 C674 0.930 . S
H689 C675 0.931 . S
H690 C676 0.931 . S
H691 C677 0.933 . S
H692 C683 0.930 . S
H693 C684 0.931 . S
H694 C685 0.922 1_554 S
H695 C686 0.933 . S
Dy696 O699 2.307 . S
Dy696 O701 2.395 . S
Dy696 O702 2.379 . S
Dy696 O704 2.339 . S
Dy696 O706 2.298 . S
Dy696 O710 2.275 . S
Dy696 C718 2.738 . S
Dy697 O700 2.298 . S
Dy697 O703 2.275 . S
Dy697 O705 2.307 . S
Dy697 O707 2.395 . S
Dy697 O708 2.379 . S
Dy697 O711 2.339 . S
Dy697 C727 2.738 . S
C698 O710 1.254 . S
C698 O711 1.257 . S
O699 Dy696 2.307 . S
O699 C709 1.266 . S
O700 Dy697 2.298 . S
O700 C709 1.236 . S
O701 Dy696 2.395 . S
O701 C718 1.255 . S
O702 Dy696 2.379 . S
O702 C718 1.249 . S
O703 Dy697 2.275 . S
O703 C719 1.254 . S
O704 Dy696 2.339 . S
O704 C719 1.257 . S
O705 Dy697 2.307 . S
O705 C720 1.266 . S
O706 Dy696 2.298 . S
O706 C720 1.236 . S
O707 Dy697 2.395 . S
O707 C727 1.255 . S
O708 Dy697 2.379 . S
O708 C727 1.249 . S
C709 O699 1.266 . S
C709 O700 1.236 . S
O710 Dy696 2.275 . S
O710 C698 1.254 . S
O711 Dy697 2.339 . S
O711 C698 1.257 . S
C712 C715 1.344 . S
C712 C716 1.328 . S
C712 C718 1.516 . S
C713 C714 1.304 . S
C713 C717 1.323 . S
C714 C713 1.304 . S
C714 C715 1.371 . S
C714 H728 0.930 . S
C715 C712 1.344 . S
C715 C714 1.371 . S
C715 H729 0.931 . S
C716 C712 1.328 . S
C716 C717 1.433 . S
C716 H730 0.931 . S
C717 C713 1.323 . S
C717 C716 1.433 . S
C717 H731 0.933 . S
C718 Dy696 2.738 . S
C718 O701 1.255 . S
C718 O702 1.249 . S
C718 C712 1.516 . S
C719 O703 1.254 . S
C719 O704 1.257 . S
C720 O705 1.266 . S
C720 O706 1.236 . S
C721 C724 1.344 . S
C721 C725 1.328 . S
C721 C727 1.516 . S
C722 C723 1.304 . S
C722 C726 1.323 . S
C723 C722 1.304 . S
C723 C724 1.371 . S
C723 H732 0.930 . S
C724 C721 1.344 . S
C724 C723 1.371 . S
C724 H733 0.931 . S
C725 C721 1.328 . S
C725 C726 1.433 . S
C725 H734 0.931 . S
C726 C722 1.323 . S
C726 C725 1.433 . S
C726 H735 0.933 . S
C727 Dy697 2.738 . S
C727 O707 1.255 . S
C727 O708 1.249 . S
C727 C721 1.516 . S
H728 C714 0.930 . S
H729 C715 0.931 . S
H730 C716 0.931 . S
H731 C717 0.933 . S
H732 C723 0.930 . S
H733 C724 0.931 . S
H734 C725 0.931 . S
H735 C726 0.933 . S
Dy736 O739 2.307 1_455 S
Dy736 O741 2.395 . S
Dy736 O742 2.379 . S
Dy736 O744 2.339 . S
Dy736 O746 2.298 . S
Dy736 O750 2.275 . S
Dy736 C758 2.738 . S
Dy737 O740 2.298 1_455 S
Dy737 O743 2.275 . S
Dy737 O745 2.307 . S
Dy737 O747 2.395 . S
Dy737 O748 2.379 . S
Dy737 O751 2.339 . S
Dy737 C767 2.738 . S
C738 O750 1.254 . S
C738 O751 1.257 . S
O739 Dy736 2.307 1_655 S
O739 C749 1.266 . S
O740 Dy737 2.298 1_655 S
O740 C749 1.236 . S
O741 Dy736 2.395 . S
O741 C758 1.255 . S
O742 Dy736 2.379 . S
O742 C758 1.249 . S
O743 Dy737 2.275 . S
O743 C759 1.254 . S
O744 Dy736 2.339 . S
O744 C759 1.257 . S
O745 Dy737 2.307 . S
O745 C760 1.266 . S
O746 Dy736 2.298 . S
O746 C760 1.236 . S
O747 Dy737 2.395 . S
O747 C767 1.255 . S
O748 Dy737 2.379 . S
O748 C767 1.249 . S
C749 O739 1.266 . S
C749 O740 1.236 . S
O750 Dy736 2.275 . S
O750 C738 1.254 . S
O751 Dy737 2.339 . S
O751 C738 1.257 . S
C752 C755 1.344 . S
C752 C756 1.328 . S
C752 C758 1.516 . S
C753 C754 1.304 . S
C753 C757 1.323 . S
C754 C753 1.304 . S
C754 C755 1.371 . S
C754 H768 0.930 . S
C755 C752 1.344 . S
C755 C754 1.371 . S
C755 H769 0.931 . S
C756 C752 1.328 . S
C756 C757 1.433 . S
C756 H770 0.931 . S
C757 C753 1.323 . S
C757 C756 1.433 . S
C757 H771 0.933 . S
C758 Dy736 2.738 . S
C758 O741 1.255 . S
C758 O742 1.249 . S
C758 C752 1.516 . S
C759 O743 1.254 . S
C759 O744 1.257 . S
C760 O745 1.266 . S
C760 O746 1.236 . S
C761 C764 1.344 . S
C761 C765 1.328 . S
C761 C767 1.516 1_655 S
C762 C763 1.304 . S
C762 C766 1.323 . S
C763 C762 1.304 . S
C763 C764 1.371 . S
C763 H772 0.930 . S
C764 C761 1.344 . S
C764 C763 1.371 . S
C764 H773 0.931 . S
C765 C761 1.328 . S
C765 C766 1.433 . S
C765 H774 0.931 . S
C766 C762 1.323 . S
C766 C765 1.433 . S
C766 H775 0.933 . S
C767 Dy737 2.738 . S
C767 O747 1.255 . S
C767 O748 1.249 . S
C767 C761 1.516 1_455 S
H768 C754 0.930 . S
H769 C755 0.931 . S
H770 C756 0.931 . S
H771 C757 0.933 . S
H772 C763 0.930 . S
H773 C764 0.931 . S
H774 C765 0.931 . S
H775 C766 0.933 . S
Dy776 O779 2.307 . S
Dy776 O781 2.395 . S
Dy776 O782 2.379 . S
Dy776 O784 2.339 . S
Dy776 O786 2.298 . S
Dy776 O790 2.275 . S
Dy776 C798 2.738 . S
Dy777 O780 2.298 . S
Dy777 O783 2.275 . S
Dy777 O785 2.307 . S
Dy777 O787 2.395 . S
Dy777 O788 2.379 . S
Dy777 O791 2.339 . S
Dy777 C807 2.738 . S
C778 O790 1.254 . S
C778 O791 1.257 . S
O779 Dy776 2.307 . S
O779 C789 1.266 . S
O780 Dy777 2.298 . S
O780 C789 1.236 . S
O781 Dy776 2.395 . S
O781 C798 1.255 . S
O782 Dy776 2.379 . S
O782 C798 1.249 . S
O783 Dy777 2.275 . S
O783 C799 1.254 . S
O784 Dy776 2.339 . S
O784 C799 1.257 . S
O785 Dy777 2.307 . S
O785 C800 1.266 . S
O786 Dy776 2.298 . S
O786 C800 1.236 . S
O787 Dy777 2.395 . S
O787 C807 1.255 . S
O788 Dy777 2.379 . S
O788 C807 1.249 . S
C789 O779 1.266 . S
C789 O780 1.236 . S
O790 Dy776 2.275 . S
O790 C778 1.254 . S
O791 Dy777 2.339 . S
O791 C778 1.257 . S
C792 C795 1.344 . S
C792 C796 1.328 . S
C792 C798 1.516 . S
C793 C794 1.304 . S
C793 C797 1.323 . S
C794 C793 1.304 . S
C794 C795 1.371 . S
C794 H808 0.930 . S
C795 C792 1.344 . S
C795 C794 1.371 . S
C795 H809 0.931 . S
C796 C792 1.328 . S
C796 C797 1.433 . S
C796 H810 0.931 . S
C797 C793 1.323 . S
C797 C796 1.433 . S
C797 H811 0.933 . S
C798 Dy776 2.738 . S
C798 O781 1.255 . S
C798 O782 1.249 . S
C798 C792 1.516 . S
C799 O783 1.254 . S
C799 O784 1.257 . S
C800 O785 1.266 . S
C800 O786 1.236 . S
C801 C804 1.344 . S
C801 C805 1.328 . S
C801 C807 1.516 . S
C802 C803 1.304 . S
C802 C806 1.323 . S
C803 C802 1.304 . S
C803 C804 1.371 . S
C803 H812 0.930 . S
C804 C801 1.344 . S
C804 C803 1.371 . S
C804 H813 0.931 . S
C805 C801 1.328 . S
C805 C806 1.433 . S
C805 H814 0.931 . S
C806 C802 1.323 . S
C806 C805 1.433 . S
C806 H815 0.933 . S
C807 Dy777 2.738 . S
C807 O787 1.255 . S
C807 O788 1.249 . S
C807 C801 1.516 . S
H808 C794 0.930 . S
H809 C795 0.931 . S
H810 C796 0.931 . S
H811 C797 0.933 . S
H812 C803 0.930 . S
H813 C804 0.931 . S
H814 C805 0.931 . S
H815 C806 0.933 . S
Dy816 O819 2.307 . S
Dy816 O821 2.395 . S
Dy816 O822 2.379 . S
Dy816 O824 2.339 . S
Dy816 O826 2.298 . S
Dy816 O830 2.275 . S
Dy816 C838 2.738 . S
Dy817 O820 2.298 . S
Dy817 O823 2.275 . S
Dy817 O825 2.307 . S
Dy817 O827 2.395 . S
Dy817 O828 2.379 . S
Dy817 O831 2.339 . S
Dy817 C847 2.738 . S
C818 O830 1.254 . S
C818 O831 1.257 . S
O819 Dy816 2.307 . S
O819 C829 1.266 . S
O820 Dy817 2.298 . S
O820 C829 1.236 . S
O821 Dy816 2.395 . S
O821 C838 1.255 . S
O822 Dy816 2.379 . S
O822 C838 1.249 . S
O823 Dy817 2.275 . S
O823 C839 1.254 . S
O824 Dy816 2.339 . S
O824 C839 1.257 . S
O825 Dy817 2.307 . S
O825 C840 1.266 . S
O826 Dy816 2.298 . S
O826 C840 1.236 . S
O827 Dy817 2.395 . S
O827 C847 1.255 . S
O828 Dy817 2.379 . S
O828 C847 1.249 . S
C829 O819 1.266 . S
C829 O820 1.236 . S
O830 Dy816 2.275 . S
O830 C818 1.254 . S
O831 Dy817 2.339 . S
O831 C818 1.257 . S
C832 C835 1.344 . S
C832 C836 1.328 . S
C832 C838 1.516 . S
C833 C834 1.304 . S
C833 C837 1.323 . S
C834 C833 1.304 . S
C834 C835 1.371 . S
C834 H848 0.930 . S
C835 C832 1.344 . S
C835 C834 1.371 . S
C835 H849 0.931 . S
C836 C832 1.328 . S
C836 C837 1.433 . S
C836 H850 0.931 . S
C837 C833 1.323 . S
C837 C836 1.433 . S
C837 H851 0.933 . S
C838 Dy816 2.738 . S
C838 O821 1.255 . S
C838 O822 1.249 . S
C838 C832 1.516 . S
C839 O823 1.254 . S
C839 O824 1.257 . S
C840 O825 1.266 . S
C840 O826 1.236 . S
C841 C844 1.344 . S
C841 C845 1.328 . S
C841 C847 1.516 . S
C842 C843 1.304 . S
C842 C846 1.323 . S
C843 C842 1.304 . S
C843 C844 1.371 . S
C843 H852 0.930 . S
C844 C841 1.344 . S
C844 C843 1.371 . S
C844 H853 0.931 . S
C845 C841 1.328 . S
C845 C846 1.433 . S
C845 H854 0.931 . S
C846 C842 1.323 . S
C846 C845 1.433 . S
C846 H855 0.925 1_556 S
C847 Dy817 2.738 . S
C847 O827 1.255 . S
C847 O828 1.249 . S
C847 C841 1.516 . S
H848 C834 0.930 . S
H849 C835 0.931 . S
H850 C836 0.931 . S
H851 C837 0.933 . S
H852 C843 0.930 . S
H853 C844 0.931 . S
H854 C845 0.931 . S
H855 C846 0.925 1_554 S
Dy856 O859 2.307 . S
Dy856 O861 2.395 . S
Dy856 O862 2.379 . S
Dy856 O864 2.339 . S
Dy856 O866 2.298 . S
Dy856 O870 2.275 . S
Dy856 C878 2.738 . S
Dy857 O860 2.298 . S
Dy857 O863 2.275 . S
Dy857 O865 2.307 . S
Dy857 O867 2.395 . S
Dy857 O868 2.379 . S
Dy857 O871 2.339 . S
Dy857 C887 2.738 . S
C858 O870 1.254 . S
C858 O871 1.257 . S
O859 Dy856 2.307 . S
O859 C869 1.266 . S
O860 Dy857 2.298 . S
O860 C869 1.236 . S
O861 Dy856 2.395 . S
O861 C878 1.255 . S
O862 Dy856 2.379 . S
O862 C878 1.249 . S
O863 Dy857 2.275 . S
O863 C879 1.254 . S
O864 Dy856 2.339 . S
O864 C879 1.257 . S
O865 Dy857 2.307 . S
O865 C880 1.266 . S
O866 Dy856 2.298 . S
O866 C880 1.236 . S
O867 Dy857 2.395 . S
O867 C887 1.255 . S
O868 Dy857 2.379 . S
O868 C887 1.249 . S
C869 O859 1.266 . S
C869 O860 1.236 . S
O870 Dy856 2.275 . S
O870 C858 1.254 . S
O871 Dy857 2.339 . S
O871 C858 1.257 . S
C872 C875 1.344 . S
C872 C876 1.328 . S
C872 C878 1.516 . S
C873 C874 1.304 . S
C873 C877 1.323 . S
C874 C873 1.304 . S
C874 C875 1.371 . S
C874 H888 0.930 . S
C875 C872 1.344 . S
C875 C874 1.371 . S
C875 H889 0.931 . S
C876 C872 1.328 . S
C876 C877 1.433 . S
C876 H890 0.931 . S
C877 C873 1.323 . S
C877 C876 1.433 . S
C877 H891 0.933 . S
C878 Dy856 2.738 . S
C878 O861 1.255 . S
C878 O862 1.249 . S
C878 C872 1.516 . S
C879 O863 1.254 . S
C879 O864 1.257 . S
C880 O865 1.266 . S
C880 O866 1.236 . S
C881 C884 1.344 . S
C881 C885 1.328 . S
C881 C887 1.516 . S
C882 C883 1.304 . S
C882 C886 1.323 . S
C883 C882 1.304 . S
C883 C884 1.371 . S
C883 H892 0.930 . S
C884 C881 1.344 . S
C884 C883 1.371 . S
C884 H893 0.931 . S
C885 C881 1.328 . S
C885 C886 1.433 . S
C885 H894 0.931 . S
C886 C882 1.323 . S
C886 C885 1.433 . S
C886 H895 0.933 . S
C887 Dy857 2.738 . S
C887 O867 1.255 . S
C887 O868 1.249 . S
C887 C881 1.516 . S
H888 C874 0.930 . S
H889 C875 0.931 . S
H890 C876 0.931 . S
H891 C877 0.933 . S
H892 C883 0.930 . S
H893 C884 0.931 . S
H894 C885 0.931 . S
H895 C886 0.933 . S
Dy896 O899 2.307 . S
Dy896 O901 2.395 . S
Dy896 O902 2.379 . S
Dy896 O904 2.339 . S
Dy896 O906 2.298 . S
Dy896 O910 2.275 . S
Dy896 C918 2.738 . S
Dy897 O900 2.298 . S
Dy897 O903 2.275 . S
Dy897 O905 2.307 . S
Dy897 O907 2.395 . S
Dy897 O908 2.379 . S
Dy897 O911 2.339 . S
Dy897 C927 2.738 . S
C898 O910 1.254 . S
C898 O911 1.257 . S
O899 Dy896 2.307 . S
O899 C909 1.266 . S
O900 Dy897 2.298 . S
O900 C909 1.236 . S
O901 Dy896 2.395 . S
O901 C918 1.255 . S
O902 Dy896 2.379 . S
O902 C918 1.249 . S
O903 Dy897 2.275 . S
O903 C919 1.254 . S
O904 Dy896 2.339 . S
O904 C919 1.257 . S
O905 Dy897 2.307 . S
O905 C920 1.266 . S
O906 Dy896 2.298 . S
O906 C920 1.236 . S
O907 Dy897 2.395 . S
O907 C927 1.255 . S
O908 Dy897 2.379 . S
O908 C927 1.249 . S
C909 O899 1.266 . S
C909 O900 1.236 . S
O910 Dy896 2.275 . S
O910 C898 1.254 . S
O911 Dy897 2.339 . S
O911 C898 1.257 . S
C912 C915 1.344 . S
C912 C916 1.328 . S
C912 C918 1.516 . S
C913 C914 1.304 . S
C913 C917 1.323 . S
C914 C913 1.304 . S
C914 C915 1.371 . S
C914 H928 0.930 . S
C915 C912 1.344 . S
C915 C914 1.371 . S
C915 H929 0.931 . S
C916 C912 1.328 . S
C916 C917 1.433 . S
C916 H930 0.931 . S
C917 C913 1.323 . S
C917 C916 1.433 . S
C917 H931 0.933 . S
C918 Dy896 2.738 . S
C918 O901 1.255 . S
C918 O902 1.249 . S
C918 C912 1.516 . S
C919 O903 1.254 . S
C919 O904 1.257 . S
C920 O905 1.266 . S
C920 O906 1.236 . S
C921 C924 1.344 . S
C921 C925 1.328 . S
C921 C927 1.516 . S
C922 C923 1.304 . S
C922 C926 1.323 . S
C923 C922 1.304 . S
C923 C924 1.371 . S
C923 H932 0.930 . S
C924 C921 1.344 . S
C924 C923 1.371 . S
C924 H933 0.931 . S
C925 C921 1.328 . S
C925 C926 1.433 . S
C925 H934 0.931 . S
C926 C922 1.323 . S
C926 C925 1.433 . S
C926 H935 0.933 . S
C927 Dy897 2.738 . S
C927 O907 1.255 . S
C927 O908 1.249 . S
C927 C921 1.516 . S
H928 C914 0.930 . S
H929 C915 0.931 . S
H930 C916 0.931 . S
H931 C917 0.933 . S
H932 C923 0.930 . S
H933 C924 0.931 . S
H934 C925 0.931 . S
H935 C926 0.933 . S
Dy936 O939 2.307 . S
Dy936 O941 2.395 1_455 S
Dy936 O942 2.379 1_455 S
Dy936 O944 2.339 . S
Dy936 O946 2.298 . S
Dy936 O950 2.275 . S
Dy936 C958 2.738 1_455 S
Dy937 O940 2.298 . S
Dy937 O943 2.275 . S
Dy937 O945 2.307 . S
Dy937 O947 2.395 . S
Dy937 O948 2.379 1_554 S
Dy937 O951 2.339 1_554 S
Dy937 C967 2.738 . S
C938 O950 1.254 1_556 S
C938 O951 1.257 . S
O939 Dy936 2.307 . S
O939 C949 1.266 . S
O940 Dy937 2.298 . S
O940 C949 1.236 . S
O941 Dy936 2.395 1_655 S
O941 C958 1.255 . S
O942 Dy936 2.379 1_655 S
O942 C958 1.249 . S
O943 Dy937 2.275 . S
O943 C959 1.254 . S
O944 Dy936 2.339 . S
O944 C959 1.257 . S
O945 Dy937 2.307 . S
O945 C960 1.266 . S
O946 Dy936 2.298 . S
O946 C960 1.236 . S
O947 Dy937 2.395 . S
O947 C967 1.255 . S
O948 Dy937 2.379 1_556 S
O948 C967 1.249 1_556 S
C949 O939 1.266 . S
C949 O940 1.236 . S
O950 Dy936 2.275 . S
O950 C938 1.254 1_554 S
O951 Dy937 2.339 1_556 S
O951 C938 1.257 . S
C952 C955 1.344 . S
C952 C956 1.328 . S
C952 C958 1.516 . S
C953 C954 1.304 . S
C953 C957 1.323 . S
C954 C953 1.304 . S
C954 C955 1.371 . S
C954 H968 0.930 . S
C955 C952 1.344 . S
C955 C954 1.371 . S
C955 H969 0.931 . S
C956 C952 1.328 . S
C956 C957 1.433 . S
C956 H970 0.931 . S
C957 C953 1.323 . S
C957 C956 1.433 . S
C957 H971 0.933 . S
C958 Dy936 2.738 1_655 S
C958 O941 1.255 . S
C958 O942 1.249 . S
C958 C952 1.516 . S
C959 O943 1.254 . S
C959 O944 1.257 . S
C960 O945 1.266 . S
C960 O946 1.236 . S
C961 C964 1.344 . S
C961 C965 1.328 1_554 S
C961 C967 1.516 . S
C962 C963 1.304 . S
C962 C966 1.323 1_554 S
C963 C962 1.304 . S
C963 C964 1.371 . S
C963 H972 0.930 . S
C964 C961 1.344 . S
C964 C963 1.371 . S
C964 H973 0.931 . S
C965 C961 1.328 1_556 S
C965 C966 1.433 . S
C965 H974 0.931 . S
C966 C962 1.323 1_556 S
C966 C965 1.433 . S
C966 H975 0.933 . S
C967 Dy937 2.738 . S
C967 O947 1.255 . S
C967 O948 1.249 1_554 S
C967 C961 1.516 . S
H968 C954 0.930 . S
H969 C955 0.931 . S
H970 C956 0.931 . S
H971 C957 0.933 . S
H972 C963 0.930 . S
H973 C964 0.931 . S
H974 C965 0.931 . S
H975 C966 0.933 . S
C976 C977 1.369 . S
C976 C978 1.419 . S
C976 H980 0.930 1_554 S
C977 C976 1.369 . S
C977 C986 1.429 . S
C978 C976 1.419 . S
C978 C979 1.363 . S
C978 H981 0.929 . S
C979 C978 1.363 . S
C979 C985 1.428 . S
H980 C976 0.930 1_556 S
H981 C978 0.929 . S
S982 N983 1.613 . S
S982 N984 1.610 1_655 S
N983 S982 1.613 . S
N983 C986 1.350 1_655 S
N984 S982 1.610 1_455 S
N984 C985 1.351 . S
C985 C979 1.428 . S
C985 N984 1.351 . S
C985 C986 1.434 . S
C986 C977 1.429 . S
C986 N983 1.350 1_455 S
C986 C985 1.434 . S
C987 C988 1.369 . S
C987 C989 1.419 . S
C987 H991 0.930 . S
C988 C987 1.369 . S
C988 C997 1.429 . S
C989 C987 1.419 . S
C989 C990 1.363 . S
C989 H992 0.929 . S
C990 C989 1.363 . S
C990 C996 1.428 . S
H991 C987 0.930 . S
H992 C989 0.929 . S
S993 N994 1.613 . S
S993 N995 1.610 . S
N994 S993 1.613 . S
N994 C997 1.350 . S
N995 S993 1.610 . S
N995 C996 1.351 . S
C996 C990 1.428 . S
C996 N995 1.351 . S
C996 C997 1.434 . S
C997 C988 1.429 . S
C997 N994 1.350 . S
C997 C996 1.434 . S
C998 C999 1.369 . S
C998 C1000 1.419 . S
C998 H1002 0.930 . S
C999 C998 1.369 . S
C999 C1008 1.429 . S
C1000 C998 1.419 . S
C1000 C1001 1.363 . S
C1000 H1003 0.929 . S
C1001 C1000 1.363 . S
C1001 C1007 1.428 . S
H1002 C998 0.930 . S
H1003 C1000 0.929 . S
S1004 N1005 1.613 . S
S1004 N1006 1.610 . S
N1005 S1004 1.613 . S
N1005 C1008 1.350 . S
N1006 S1004 1.610 . S
N1006 C1007 1.351 . S
C1007 C1001 1.428 . S
C1007 N1006 1.351 . S
C1007 C1008 1.434 . S
C1008 C999 1.429 . S
C1008 N1005 1.350 . S
C1008 C1007 1.434 . S
C1009 C1010 1.369 . S
C1009 C1011 1.419 . S
C1009 H1013 0.930 . S
C1010 C1009 1.369 . S
C1010 C1019 1.429 . S
C1011 C1009 1.419 . S
C1011 C1012 1.363 . S
C1011 H1014 0.929 . S
C1012 C1011 1.363 . S
C1012 C1018 1.428 . S
H1013 C1009 0.930 . S
H1014 C1011 0.929 . S
S1015 N1016 1.613 . S
S1015 N1017 1.610 . S
N1016 S1015 1.613 . S
N1016 C1019 1.350 . S
N1017 S1015 1.610 . S
N1017 C1018 1.351 . S
C1018 C1012 1.428 . S
C1018 N1017 1.351 . S
C1018 C1019 1.434 . S
C1019 C1010 1.429 . S
C1019 N1016 1.350 . S
C1019 C1018 1.434 . S
C1020 C1021 1.369 . S
C1020 C1022 1.419 . S
C1020 H1024 0.930 . S
C1021 C1020 1.369 . S
C1021 C1030 1.429 . S
C1022 C1020 1.419 . S
C1022 C1023 1.363 . S
C1022 H1025 0.929 . S
C1023 C1022 1.363 . S
C1023 C1029 1.428 . S
H1024 C1020 0.930 . S
H1025 C1022 0.929 . S
S1026 N1027 1.613 . S
S1026 N1028 1.610 . S
N1027 S1026 1.613 . S
N1027 C1030 1.350 . S
N1028 S1026 1.610 . S
N1028 C1029 1.351 . S
C1029 C1023 1.428 . S
C1029 N1028 1.351 . S
C1029 C1030 1.434 . S
C1030 C1021 1.429 . S
C1030 N1027 1.350 . S
C1030 C1029 1.434 . S
C1031 C1032 1.369 . S
C1031 C1033 1.419 . S
C1031 H1035 0.930 . S
C1032 C1031 1.369 . S
C1032 C1041 1.429 . S
C1033 C1031 1.419 . S
C1033 C1034 1.363 . S
C1033 H1036 0.929 . S
C1034 C1033 1.363 . S
C1034 C1040 1.428 . S
H1035 C1031 0.930 . S
H1036 C1033 0.929 . S
S1037 N1038 1.613 . S
S1037 N1039 1.610 . S
N1038 S1037 1.613 . S
N1038 C1041 1.350 . S
N1039 S1037 1.610 . S
N1039 C1040 1.351 . S
C1040 C1034 1.428 . S
C1040 N1039 1.351 . S
C1040 C1041 1.434 . S
C1041 C1032 1.429 . S
C1041 N1038 1.350 . S
C1041 C1040 1.434 . S
C1042 C1043 1.369 . S
C1042 C1044 1.419 . S
C1042 H1046 0.930 . S
C1043 C1042 1.369 . S
C1043 C1052 1.429 . S
C1044 C1042 1.419 . S
C1044 C1045 1.363 . S
C1044 H1047 0.929 . S
C1045 C1044 1.363 . S
C1045 C1051 1.428 . S
H1046 C1042 0.930 . S
H1047 C1044 0.929 . S
S1048 N1049 1.613 . S
S1048 N1050 1.610 . S
N1049 S1048 1.613 . S
N1049 C1052 1.350 . S
N1050 S1048 1.610 . S
N1050 C1051 1.351 . S
C1051 C1045 1.428 . S
C1051 N1050 1.351 . S
C1051 C1052 1.434 . S
C1052 C1043 1.429 . S
C1052 N1049 1.350 . S
C1052 C1051 1.434 . S
C1053 C1054 1.369 . S
C1053 C1055 1.419 . S
C1053 H1057 0.930 . S
C1054 C1053 1.369 . S
C1054 C1063 1.429 . S
C1055 C1053 1.419 . S
C1055 C1056 1.363 . S
C1055 H1058 0.929 . S
C1056 C1055 1.363 . S
C1056 C1062 1.428 . S
H1057 C1053 0.930 . S
H1058 C1055 0.929 . S
S1059 N1060 1.613 . S
S1059 N1061 1.610 . S
N1060 S1059 1.613 . S
N1060 C1063 1.350 . S
N1061 S1059 1.610 . S
N1061 C1062 1.351 . S
C1062 C1056 1.428 . S
C1062 N1061 1.351 . S
C1062 C1063 1.434 . S
C1063 C1054 1.429 . S
C1063 N1060 1.350 . S
C1063 C1062 1.434 . S
C1064 C1065 1.369 1_455 S
C1064 C1066 1.419 . S
C1064 H1068 0.930 1_455 S
C1065 C1064 1.369 1_655 S
C1065 C1074 1.429 . S
C1066 C1064 1.419 . S
C1066 C1067 1.363 . S
C1066 H1069 0.929 . S
C1067 C1066 1.363 . S
C1067 C1073 1.428 . S
H1068 C1064 0.930 1_655 S
H1069 C1066 0.929 . S
S1070 N1071 1.607 1_455 S
S1070 N1072 1.612 1_565 S
N1071 S1070 1.607 1_655 S
N1071 C1074 1.350 1_565 S
N1072 S1070 1.612 1_545 S
N1072 C1073 1.351 . S
C1073 C1067 1.428 . S
C1073 N1072 1.351 . S
C1073 C1074 1.434 1_455 S
C1074 C1065 1.429 . S
C1074 N1071 1.350 1_545 S
C1074 C1073 1.434 1_655 S
C1075 C1076 1.369 . S
C1075 C1077 1.419 . S
C1075 H1079 0.930 . S
C1076 C1075 1.369 . S
C1076 C1085 1.429 . S
C1077 C1075 1.419 . S
C1077 C1078 1.363 . S
C1077 H1080 0.929 . S
C1078 C1077 1.363 . S
C1078 C1084 1.428 . S
H1079 C1075 0.930 . S
H1080 C1077 0.929 . S
S1081 N1082 1.613 . S
S1081 N1083 1.610 . S
N1082 S1081 1.613 . S
N1082 C1085 1.350 . S
N1083 S1081 1.610 . S
N1083 C1084 1.351 . S
C1084 C1078 1.428 . S
C1084 N1083 1.351 . S
C1084 C1085 1.434 . S
C1085 C1076 1.429 . S
C1085 N1082 1.350 . S
C1085 C1084 1.434 . S
C1086 C1087 1.369 . S
C1086 C1088 1.419 . S
C1086 H1090 0.930 . S
C1087 C1086 1.369 . S
C1087 C1096 1.429 . S
C1088 C1086 1.419 . S
C1088 C1089 1.363 . S
C1088 H1091 0.929 . S
C1089 C1088 1.363 . S
C1089 C1095 1.428 . S
H1090 C1086 0.930 . S
H1091 C1088 0.929 . S
S1092 N1093 1.613 . S
S1092 N1094 1.610 . S
N1093 S1092 1.613 . S
N1093 C1096 1.350 . S
N1094 S1092 1.610 . S
N1094 C1095 1.351 . S
C1095 C1089 1.428 . S
C1095 N1094 1.351 . S
C1095 C1096 1.434 . S
C1096 C1087 1.429 . S
C1096 N1093 1.350 . S
C1096 C1095 1.434 . S
C1097 C1098 1.369 . S
C1097 C1099 1.419 . S
C1097 H1101 0.930 . S
C1098 C1097 1.369 . S
C1098 C1107 1.429 . S
C1099 C1097 1.419 . S
C1099 C1100 1.363 . S
C1099 H1102 0.929 . S
C1100 C1099 1.363 . S
C1100 C1106 1.428 . S
H1101 C1097 0.930 . S
H1102 C1099 0.929 . S
S1103 N1104 1.613 . S
S1103 N1105 1.610 . S
N1104 S1103 1.613 . S
N1104 C1107 1.350 . S
N1105 S1103 1.610 . S
N1105 C1106 1.351 . S
C1106 C1100 1.428 . S
C1106 N1105 1.351 . S
C1106 C1107 1.434 . S
C1107 C1098 1.429 . S
C1107 N1104 1.350 . S
C1107 C1106 1.434 . S
C1108 C1109 1.369 1_455 S
C1108 C1110 1.419 . S
C1108 H1112 0.930 . S
C1109 C1108 1.369 1_655 S
C1109 C1118 1.429 . S
C1110 C1108 1.419 . S
C1110 C1111 1.363 . S
C1110 H1113 0.929 . S
C1111 C1110 1.363 . S
C1111 C1117 1.428 1_455 S
H1112 C1108 0.930 . S
H1113 C1110 0.929 . S
S1114 N1115 1.613 . S
S1114 N1116 1.610 . S
N1115 S1114 1.613 . S
N1115 C1118 1.350 . S
N1116 S1114 1.610 . S
N1116 C1117 1.351 . S
C1117 C1111 1.428 1_655 S
C1117 N1116 1.351 . S
C1117 C1118 1.434 . S
C1118 C1109 1.429 . S
C1118 N1115 1.350 . S
C1118 C1117 1.434 . S
C1119 C1120 1.369 . S
C1119 C1121 1.419 . S
C1119 H1123 0.930 . S
C1120 C1119 1.369 . S
C1120 C1129 1.429 . S
C1121 C1119 1.419 . S
C1121 C1122 1.363 . S
C1121 H1124 0.929 . S
C1122 C1121 1.363 . S
C1122 C1128 1.428 . S
H1123 C1119 0.930 . S
H1124 C1121 0.929 . S
S1125 N1126 1.613 . S
S1125 N1127 1.610 . S
N1126 S1125 1.613 . S
N1126 C1129 1.350 . S
N1127 S1125 1.610 . S
N1127 C1128 1.351 . S
C1128 C1122 1.428 . S
C1128 N1127 1.351 . S
C1128 C1129 1.434 . S
C1129 C1120 1.429 . S
C1129 N1126 1.350 . S
C1129 C1128 1.434 . S
C1130 C1131 1.369 . S
C1130 C1132 1.419 . S
C1130 H1134 0.930 . S
C1131 C1130 1.369 . S
C1131 C1140 1.429 . S
C1132 C1130 1.419 . S
C1132 C1133 1.363 . S
C1132 H1135 0.929 . S
C1133 C1132 1.363 . S
C1133 C1139 1.428 . S
H1134 C1130 0.930 . S
H1135 C1132 0.929 . S
S1136 N1137 1.613 . S
S1136 N1138 1.610 . S
N1137 S1136 1.613 . S
N1137 C1140 1.350 . S
N1138 S1136 1.610 . S
N1138 C1139 1.351 . S
C1139 C1133 1.428 . S
C1139 N1138 1.351 . S
C1139 C1140 1.434 . S
C1140 C1131 1.429 . S
C1140 N1137 1.350 . S
C1140 C1139 1.434 . S
C1141 C1142 1.369 . S
C1141 C1143 1.419 . S
C1141 H1145 0.930 . S
C1142 C1141 1.369 . S
C1142 C1151 1.429 . S
C1143 C1141 1.419 . S
C1143 C1144 1.363 . S
C1143 H1146 0.929 . S
C1144 C1143 1.363 . S
C1144 C1150 1.428 . S
H1145 C1141 0.930 . S
H1146 C1143 0.929 . S
S1147 N1148 1.613 . S
S1147 N1149 1.610 . S
N1148 S1147 1.613 . S
N1148 C1151 1.350 . S
N1149 S1147 1.610 . S
N1149 C1150 1.351 . S
C1150 C1144 1.428 . S
C1150 N1149 1.351 . S
C1150 C1151 1.434 . S
C1151 C1142 1.429 . S
C1151 N1148 1.350 . S
C1151 C1150 1.434 . S
C1152 C1153 1.369 1_545 S
C1152 C1154 1.419 . S
C1152 H1156 0.930 1_554 S
C1153 C1152 1.369 1_565 S
C1153 C1162 1.429 . S
C1154 C1152 1.419 . S
C1154 C1155 1.363 . S
C1154 H1157 0.929 . S
C1155 C1154 1.363 . S
C1155 C1161 1.428 1_545 S
H1156 C1152 0.930 1_556 S
H1157 C1154 0.929 . S
S1158 N1159 1.613 . S
S1158 N1160 1.610 . S
N1159 S1158 1.613 . S
N1159 C1162 1.350 . S
N1160 S1158 1.610 . S
N1160 C1161 1.351 . S
C1161 C1155 1.428 1_565 S
C1161 N1160 1.351 . S
C1161 C1162 1.434 . S
C1162 C1153 1.429 . S
C1162 N1159 1.350 . S
C1162 C1161 1.434 . S
C1163 C1164 1.369 . S
C1163 C1165 1.419 . S
C1163 H1167 0.930 . S
C1164 C1163 1.369 . S
C1164 C1173 1.429 . S
C1165 C1163 1.419 . S
C1165 C1166 1.363 . S
C1165 H1168 0.929 . S
C1166 C1165 1.363 . S
C1166 C1172 1.428 . S
H1167 C1163 0.930 . S
H1168 C1165 0.929 . S
S1169 N1170 1.613 . S
S1169 N1171 1.610 . S
N1170 S1169 1.613 . S
N1170 C1173 1.350 1_556 S
N1171 S1169 1.610 . S
N1171 C1172 1.351 1_556 S
C1172 C1166 1.428 . S
C1172 N1171 1.351 1_554 S
C1172 C1173 1.434 . S
C1173 C1164 1.429 . S
C1173 N1170 1.350 1_554 S
C1173 C1172 1.434 . S
C1174 C1175 1.369 . S
C1174 C1176 1.419 . S
C1174 H1178 0.930 . S
C1175 C1174 1.369 . S
C1175 C1184 1.429 . S
C1176 C1174 1.419 . S
C1176 C1177 1.363 . S
C1176 H1179 0.929 . S
C1177 C1176 1.363 . S
C1177 C1183 1.428 . S
H1178 C1174 0.930 . S
H1179 C1176 0.929 . S
S1180 N1181 1.613 . S
S1180 N1182 1.610 . S
N1181 S1180 1.613 . S
N1181 C1184 1.350 . S
N1182 S1180 1.610 . S
N1182 C1183 1.351 . S
C1183 C1177 1.428 . S
C1183 N1182 1.351 . S
C1183 C1184 1.434 . S
C1184 C1175 1.429 . S
C1184 N1181 1.350 . S
C1184 C1183 1.434 . S
C1185 C1186 1.369 . S
C1185 C1187 1.419 . S
C1185 H1189 0.930 . S
C1186 C1185 1.369 . S
C1186 C1195 1.429 . S
C1187 C1185 1.419 . S
C1187 C1188 1.363 . S
C1187 H1190 0.929 . S
C1188 C1187 1.363 . S
C1188 C1194 1.428 . S
H1189 C1185 0.930 . S
H1190 C1187 0.929 . S
S1191 N1192 1.613 . S
S1191 N1193 1.610 . S
N1192 S1191 1.613 . S
N1192 C1195 1.350 . S
N1193 S1191 1.610 . S
N1193 C1194 1.351 . S
C1194 C1188 1.428 . S
C1194 N1193 1.351 . S
C1194 C1195 1.434 . S
C1195 C1186 1.429 . S
C1195 N1192 1.350 . S
C1195 C1194 1.434 . S
C1196 C1197 1.369 . S
C1196 C1198 1.419 . S
C1196 H1200 0.930 . S
C1197 C1196 1.369 . S
C1197 C1206 1.429 . S
C1198 C1196 1.419 . S
C1198 C1199 1.363 . S
C1198 H1201 0.929 . S
C1199 C1198 1.363 . S
C1199 C1205 1.428 . S
H1200 C1196 0.930 . S
H1201 C1198 0.929 . S
S1202 N1203 1.613 . S
S1202 N1204 1.610 . S
N1203 S1202 1.613 . S
N1203 C1206 1.350 . S
N1204 S1202 1.610 . S
N1204 C1205 1.351 . S
C1205 C1199 1.428 . S
C1205 N1204 1.351 . S
C1205 C1206 1.434 . S
C1206 C1197 1.429 . S
C1206 N1203 1.350 . S
C1206 C1205 1.434 . S
C1207 C1208 1.369 . S
C1207 C1209 1.419 . S
C1207 H1211 0.930 . S
C1208 C1207 1.369 . S
C1208 C1217 1.429 . S
C1209 C1207 1.419 . S
C1209 C1210 1.363 . S
C1209 H1212 0.929 . S
C1210 C1209 1.363 . S
C1210 C1216 1.428 . S
H1211 C1207 0.930 . S
H1212 C1209 0.929 . S
S1213 N1214 1.613 . S
S1213 N1215 1.610 . S
N1214 S1213 1.613 . S
N1214 C1217 1.350 . S
N1215 S1213 1.610 . S
N1215 C1216 1.351 . S
C1216 C1210 1.428 . S
C1216 N1215 1.351 . S
C1216 C1217 1.434 . S
C1217 C1208 1.429 . S
C1217 N1214 1.350 . S
C1217 C1216 1.434 . S
C1218 C1219 1.369 . S
C1218 C1220 1.419 . S
C1218 H1222 0.930 . S
C1219 C1218 1.369 . S
C1219 C1228 1.429 . S
C1220 C1218 1.419 . S
C1220 C1221 1.363 . S
C1220 H1223 0.929 . S
C1221 C1220 1.363 . S
C1221 C1227 1.428 . S
H1222 C1218 0.930 . S
H1223 C1220 0.929 . S
S1224 N1225 1.613 . S
S1224 N1226 1.610 . S
N1225 S1224 1.613 . S
N1225 C1228 1.350 . S
N1226 S1224 1.610 . S
N1226 C1227 1.351 . S
C1227 C1221 1.428 . S
C1227 N1226 1.351 . S
C1227 C1228 1.434 . S
C1228 C1219 1.429 . S
C1228 N1225 1.350 . S
C1228 C1227 1.434 . S
C1229 C1230 1.369 . S
C1229 C1231 1.419 . S
C1229 H1233 0.930 . S
C1230 C1229 1.369 . S
C1230 C1239 1.429 . S
C1231 C1229 1.419 . S
C1231 C1232 1.363 . S
C1231 H1234 0.929 . S
C1232 C1231 1.363 . S
C1232 C1238 1.428 . S
H1233 C1229 0.930 . S
H1234 C1231 0.929 . S
S1235 N1236 1.613 . S
S1235 N1237 1.610 . S
N1236 S1235 1.613 . S
N1236 C1239 1.350 . S
N1237 S1235 1.610 . S
N1237 C1238 1.351 . S
C1238 C1232 1.428 . S
C1238 N1237 1.351 . S
C1238 C1239 1.434 . S
C1239 C1230 1.429 . S
C1239 N1236 1.350 . S
C1239 C1238 1.434 . S
C1240 C1241 1.369 . S
C1240 C1242 1.419 . S
C1240 H1244 0.930 . S
C1241 C1240 1.369 . S
C1241 C1250 1.429 . S
C1242 C1240 1.419 . S
C1242 C1243 1.363 . S
C1242 H1245 0.929 . S
C1243 C1242 1.363 . S
C1243 C1249 1.428 . S
H1244 C1240 0.930 . S
H1245 C1242 0.929 . S
S1246 N1247 1.613 . S
S1246 N1248 1.610 . S
N1247 S1246 1.613 . S
N1247 C1250 1.350 . S
N1248 S1246 1.610 . S
N1248 C1249 1.351 . S
C1249 C1243 1.428 . S
C1249 N1248 1.351 . S
C1249 C1250 1.434 . S
C1250 C1241 1.429 . S
C1250 N1247 1.350 . S
C1250 C1249 1.434 . S
C1251 C1252 1.369 . S
C1251 C1253 1.419 . S
C1251 H1255 0.930 . S
C1252 C1251 1.369 . S
C1252 C1261 1.429 . S
C1253 C1251 1.419 . S
C1253 C1254 1.363 . S
C1253 H1256 0.929 . S
C1254 C1253 1.363 . S
C1254 C1260 1.428 . S
H1255 C1251 0.930 . S
H1256 C1253 0.929 . S
S1257 N1258 1.613 . S
S1257 N1259 1.610 . S
N1258 S1257 1.613 . S
N1258 C1261 1.350 . S
N1259 S1257 1.610 . S
N1259 C1260 1.351 . S
C1260 C1254 1.428 . S
C1260 N1259 1.351 . S
C1260 C1261 1.434 . S
C1261 C1252 1.429 . S
C1261 N1258 1.350 . S
C1261 C1260 1.434 . S
C1262 C1263 1.369 . S
C1262 C1264 1.419 . S
C1262 H1266 0.930 . S
C1263 C1262 1.369 . S
C1263 C1272 1.429 . S
C1264 C1262 1.419 . S
C1264 C1265 1.363 . S
C1264 H1267 0.929 . S
C1265 C1264 1.363 . S
C1265 C1271 1.428 . S
H1266 C1262 0.930 . S
H1267 C1264 0.929 . S
S1268 N1269 1.613 . S
S1268 N1270 1.610 . S
N1269 S1268 1.613 . S
N1269 C1272 1.350 . S
N1270 S1268 1.610 . S
N1270 C1271 1.351 . S
C1271 C1265 1.428 . S
C1271 N1270 1.351 . S
C1271 C1272 1.434 . S
C1272 C1263 1.429 . S
C1272 N1269 1.350 . S
C1272 C1271 1.434 . S
C1273 C1274 1.369 . S
C1273 C1275 1.419 . S
C1273 H1277 0.930 . S
C1274 C1273 1.369 . S
C1274 C1283 1.429 . S
C1275 C1273 1.419 . S
C1275 C1276 1.363 . S
C1275 H1278 0.929 . S
C1276 C1275 1.363 . S
C1276 C1282 1.428 . S
H1277 C1273 0.930 . S
H1278 C1275 0.929 . S
S1279 N1280 1.613 . S
S1279 N1281 1.610 . S
N1280 S1279 1.613 . S
N1280 C1283 1.350 . S
N1281 S1279 1.610 . S
N1281 C1282 1.351 . S
C1282 C1276 1.428 . S
C1282 N1281 1.351 . S
C1282 C1283 1.434 . S
C1283 C1274 1.429 . S
C1283 N1280 1.350 . S
C1283 C1282 1.434 . S
C1284 C1285 1.369 . S
C1284 C1286 1.419 . S
C1284 H1288 0.930 . S
C1285 C1284 1.369 . S
C1285 C1294 1.429 . S
C1286 C1284 1.419 . S
C1286 C1287 1.363 . S
C1286 H1289 0.929 . S
C1287 C1286 1.363 . S
C1287 C1293 1.428 1_455 S
H1288 C1284 0.930 . S
H1289 C1286 0.929 . S
S1290 N1291 1.613 . S
S1290 N1292 1.610 . S
N1291 S1290 1.613 . S
N1291 C1294 1.350 1_655 S
N1292 S1290 1.610 . S
N1292 C1293 1.351 . S
C1293 C1287 1.428 1_655 S
C1293 N1292 1.351 . S
C1293 C1294 1.434 1_655 S
C1294 C1285 1.429 . S
C1294 N1291 1.350 1_455 S
C1294 C1293 1.434 1_455 S
C1295 C1296 1.369 . S
C1295 C1297 1.419 . S
C1295 H1299 0.930 . S
C1296 C1295 1.369 . S
C1296 C1305 1.429 . S
C1297 C1295 1.419 . S
C1297 C1298 1.363 . S
C1297 H1300 0.929 . S
C1298 C1297 1.363 . S
C1298 C1304 1.428 . S
H1299 C1295 0.930 . S
H1300 C1297 0.929 . S
S1301 N1302 1.613 . S
S1301 N1303 1.610 . S
N1302 S1301 1.613 . S
N1302 C1305 1.350 . S
N1303 S1301 1.610 . S
N1303 C1304 1.351 . S
C1304 C1298 1.428 . S
C1304 N1303 1.351 . S
C1304 C1305 1.434 . S
C1305 C1296 1.429 . S
C1305 N1302 1.350 . S
C1305 C1304 1.434 . S
C1306 C1307 1.369 . S
C1306 C1308 1.419 . S
C1306 H1310 0.930 . S
C1307 C1306 1.369 . S
C1307 C1316 1.429 . S
C1308 C1306 1.419 . S
C1308 C1309 1.363 . S
C1308 H1311 0.929 . S
C1309 C1308 1.363 . S
C1309 C1315 1.428 . S
H1310 C1306 0.930 . S
H1311 C1308 0.929 . S
S1312 N1313 1.613 1_554 S
S1312 N1314 1.610 . S
N1313 S1312 1.613 1_556 S
N1313 C1316 1.350 . S
N1314 S1312 1.610 . S
N1314 C1315 1.351 1_554 S
C1315 C1309 1.428 . S
C1315 N1314 1.351 1_556 S
C1315 C1316 1.434 . S
C1316 C1307 1.429 . S
C1316 N1313 1.350 . S
C1316 C1315 1.434 . S
C1317 C1318 1.369 . S
C1317 C1319 1.419 . S
C1317 H1321 0.930 . S
C1318 C1317 1.369 . S
C1318 C1327 1.429 . S
C1319 C1317 1.419 . S
C1319 C1320 1.363 . S
C1319 H1322 0.929 . S
C1320 C1319 1.363 . S
C1320 C1326 1.428 . S
H1321 C1317 0.930 . S
H1322 C1319 0.929 . S
S1323 N1324 1.613 . S
S1323 N1325 1.610 . S
N1324 S1323 1.613 . S
N1324 C1327 1.350 . S
N1325 S1323 1.610 . S
N1325 C1326 1.351 . S
C1326 C1320 1.428 . S
C1326 N1325 1.351 . S
C1326 C1327 1.434 . S
C1327 C1318 1.429 . S
C1327 N1324 1.350 . S
C1327 C1326 1.434 . S
C1328 C1329 1.369 . S
C1328 C1330 1.419 . S
C1328 H1332 0.930 . S
C1329 C1328 1.369 . S
C1329 C1338 1.429 . S
C1330 C1328 1.419 . S
C1330 C1331 1.363 . S
C1330 H1333 0.929 . S
C1331 C1330 1.363 . S
C1331 C1337 1.428 . S
H1332 C1328 0.930 . S
H1333 C1330 0.929 . S
S1334 N1335 1.613 . S
S1334 N1336 1.610 . S
N1335 S1334 1.613 . S
N1335 C1338 1.350 . S
N1336 S1334 1.610 . S
N1336 C1337 1.351 . S
C1337 C1331 1.428 . S
C1337 N1336 1.351 . S
C1337 C1338 1.434 . S
C1338 C1329 1.429 . S
C1338 N1335 1.350 . S
C1338 C1337 1.434 . S
C1339 C1340 1.369 . S
C1339 C1341 1.419 . S
C1339 H1343 0.930 . S
C1340 C1339 1.369 . S
C1340 C1349 1.429 . S
C1341 C1339 1.419 . S
C1341 C1342 1.363 . S
C1341 H1344 0.929 . S
C1342 C1341 1.363 . S
C1342 C1348 1.428 . S
H1343 C1339 0.930 . S
H1344 C1341 0.929 . S
S1345 N1346 1.613 . S
S1345 N1347 1.610 . S
N1346 S1345 1.613 . S
N1346 C1349 1.350 . S
N1347 S1345 1.610 . S
N1347 C1348 1.351 . S
C1348 C1342 1.428 . S
C1348 N1347 1.351 . S
C1348 C1349 1.434 . S
C1349 C1340 1.429 . S
C1349 N1346 1.350 . S
C1349 C1348 1.434 . S
C1350 C1351 1.369 . S
C1350 C1352 1.419 . S
C1350 H1354 0.930 . S
C1351 C1350 1.369 . S
C1351 C1360 1.455 . S
C1352 C1350 1.419 . S
C1352 C1353 1.363 . S
C1352 H1355 0.929 . S
C1353 C1352 1.363 . S
C1353 C1359 1.428 . S
H1354 C1350 0.930 . S
H1355 C1352 0.929 . S
S1356 N1357 1.613 . S
S1356 N1358 1.610 . S
N1357 S1356 1.613 . S
N1357 C1360 1.323 1_565 S
N1358 S1356 1.610 . S
N1358 C1359 1.351 1_565 S
C1359 C1353 1.428 . S
C1359 N1358 1.351 1_545 S
C1359 C1360 1.435 . S
C1360 C1351 1.455 . S
C1360 N1357 1.323 1_545 S
C1360 C1359 1.435 . S
C1361 C1362 1.369 . S
C1361 C1363 1.419 . S
C1361 H1365 0.930 . S
C1362 C1361 1.369 . S
C1362 C1371 1.429 . S
C1363 C1361 1.419 . S
C1363 C1364 1.363 . S
C1363 H1366 0.929 . S
C1364 C1363 1.363 . S
C1364 C1370 1.428 . S
H1365 C1361 0.930 . S
H1366 C1363 0.929 . S
S1367 N1368 1.613 . S
S1367 N1369 1.610 . S
N1368 S1367 1.613 . S
N1368 C1371 1.350 . S
N1369 S1367 1.610 . S
N1369 C1370 1.351 . S
C1370 C1364 1.428 . S
C1370 N1369 1.351 . S
C1370 C1371 1.434 . S
C1371 C1362 1.429 . S
C1371 N1368 1.350 . S
C1371 C1370 1.434 . S
C1372 C1373 1.369 . S
C1372 C1374 1.419 . S
C1372 H1376 0.930 . S
C1373 C1372 1.369 . S
C1373 C1382 1.429 . S
C1374 C1372 1.419 . S
C1374 C1375 1.363 . S
C1374 H1377 0.929 . S
C1375 C1374 1.363 . S
C1375 C1381 1.428 . S
H1376 C1372 0.930 . S
H1377 C1374 0.929 . S
S1378 N1379 1.613 . S
S1378 N1380 1.610 . S
N1379 S1378 1.613 . S
N1379 C1382 1.350 . S
N1380 S1378 1.610 . S
N1380 C1381 1.351 . S
C1381 C1375 1.428 . S
C1381 N1380 1.351 . S
C1381 C1382 1.434 . S
C1382 C1373 1.429 . S
C1382 N1379 1.350 . S
C1382 C1381 1.434 . S
C1383 C1384 1.369 . S
C1383 C1385 1.419 . S
C1383 H1387 0.930 . S
C1384 C1383 1.369 . S
C1384 C1393 1.429 . S
C1385 C1383 1.419 . S
C1385 C1386 1.363 . S
C1385 H1388 0.929 . S
C1386 C1385 1.363 . S
C1386 C1392 1.428 . S
H1387 C1383 0.930 . S
H1388 C1385 0.929 . S
S1389 N1390 1.613 . S
S1389 N1391 1.610 . S
N1390 S1389 1.613 . S
N1390 C1393 1.350 . S
N1391 S1389 1.610 . S
N1391 C1392 1.351 . S
C1392 C1386 1.428 . S
C1392 N1391 1.351 . S
C1392 C1393 1.434 . S
C1393 C1384 1.429 . S
C1393 N1390 1.350 . S
C1393 C1392 1.434 . S
C1394 C1395 1.357 1_545 S
C1394 C1396 1.419 . S
C1394 H1398 0.930 . S
C1395 C1394 1.357 1_565 S
C1395 C1404 1.448 . S
C1396 C1394 1.419 . S
C1396 C1397 1.363 1_545 S
C1396 H1399 0.929 . S
C1397 C1396 1.363 1_565 S
C1397 C1403 1.428 . S
H1398 C1394 0.930 . S
H1399 C1396 0.929 . S
S1400 N1401 1.613 . S
S1400 N1402 1.610 . S
N1401 S1400 1.613 . S
N1401 C1404 1.350 . S
N1402 S1400 1.610 . S
N1402 C1403 1.351 . S
C1403 C1397 1.428 . S
C1403 N1402 1.351 . S
C1403 C1404 1.434 . S
C1404 C1395 1.448 . S
C1404 N1401 1.350 . S
C1404 C1403 1.434 . S
C1405 C1406 1.369 . S
C1405 C1407 1.419 . S
C1405 H1409 0.930 . S
C1406 C1405 1.369 . S
C1406 C1415 1.429 . S
C1407 C1405 1.419 . S
C1407 C1408 1.363 . S
C1407 H1410 0.929 . S
C1408 C1407 1.363 . S
C1408 C1414 1.428 . S
H1409 C1405 0.930 . S
H1410 C1407 0.929 . S
S1411 N1412 1.613 . S
S1411 N1413 1.610 . S
N1412 S1411 1.613 . S
N1412 C1415 1.350 . S
N1413 S1411 1.610 . S
N1413 C1414 1.351 . S
C1414 C1408 1.428 . S
C1414 N1413 1.351 . S
C1414 C1415 1.434 . S
C1415 C1406 1.429 . S
C1415 N1412 1.350 . S
C1415 C1414 1.434 . S
C1416 C1417 1.369 . S
C1416 C1418 1.419 . S
C1416 H1420 0.930 . S
C1417 C1416 1.369 . S
C1417 C1426 1.429 . S
C1418 C1416 1.419 . S
C1418 C1419 1.363 . S
C1418 H1421 0.929 . S
C1419 C1418 1.363 . S
C1419 C1425 1.428 . S
H1420 C1416 0.930 . S
H1421 C1418 0.929 . S
S1422 N1423 1.613 . S
S1422 N1424 1.610 . S
N1423 S1422 1.613 . S
N1423 C1426 1.350 . S
N1424 S1422 1.610 . S
N1424 C1425 1.351 . S
C1425 C1419 1.428 . S
C1425 N1424 1.351 . S
C1425 C1426 1.434 . S
C1426 C1417 1.429 . S
C1426 N1423 1.350 . S
C1426 C1425 1.434 . S
C1427 C1428 1.369 . S
C1427 C1429 1.419 . S
C1427 H1431 0.930 . S
C1428 C1427 1.369 . S
C1428 C1437 1.429 . S
C1429 C1427 1.419 . S
C1429 C1430 1.363 . S
C1429 H1432 0.929 . S
C1430 C1429 1.363 . S
C1430 C1436 1.428 . S
H1431 C1427 0.930 . S
H1432 C1429 0.929 . S
S1433 N1434 1.613 . S
S1433 N1435 1.610 . S
N1434 S1433 1.613 . S
N1434 C1437 1.350 . S
N1435 S1433 1.610 . S
N1435 C1436 1.351 . S
C1436 C1430 1.428 . S
C1436 N1435 1.351 . S
C1436 C1437 1.434 . S
C1437 C1428 1.429 . S
C1437 N1434 1.350 . S
C1437 C1436 1.434 . S
C1438 C1439 1.369 . S
C1438 C1440 1.419 . S
C1438 H1442 0.930 . S
C1439 C1438 1.369 . S
C1439 C1448 1.429 . S
C1440 C1438 1.419 . S
C1440 C1441 1.363 . S
C1440 H1443 0.929 . S
C1441 C1440 1.363 . S
C1441 C1447 1.428 . S
H1442 C1438 0.930 . S
H1443 C1440 0.929 . S
S1444 N1445 1.613 . S
S1444 N1446 1.610 . S
N1445 S1444 1.613 . S
N1445 C1448 1.350 . S
N1446 S1444 1.610 . S
N1446 C1447 1.351 . S
C1447 C1441 1.428 . S
C1447 N1446 1.351 . S
C1447 C1448 1.434 . S
C1448 C1439 1.429 . S
C1448 N1445 1.350 . S
C1448 C1447 1.434 . S
C1449 C1450 1.369 . S
C1449 C1451 1.419 . S
C1449 H1453 0.930 . S
C1450 C1449 1.369 . S
C1450 C1459 1.429 . S
C1451 C1449 1.419 . S
C1451 C1452 1.363 . S
C1451 H1454 0.929 . S
C1452 C1451 1.363 . S
C1452 C1458 1.428 . S
H1453 C1449 0.930 . S
H1454 C1451 0.929 . S
S1455 N1456 1.613 . S
S1455 N1457 1.610 . S
N1456 S1455 1.613 . S
N1456 C1459 1.350 . S
N1457 S1455 1.610 . S
N1457 C1458 1.351 . S
C1458 C1452 1.428 . S
C1458 N1457 1.351 . S
C1458 C1459 1.434 . S
C1459 C1450 1.429 . S
C1459 N1456 1.350 . S
C1459 C1458 1.434 . S
C1460 C1461 1.369 . S
C1460 C1462 1.419 . S
C1460 H1464 0.930 . S
C1461 C1460 1.369 . S
C1461 C1470 1.429 . S
C1462 C1460 1.419 . S
C1462 C1463 1.363 . S
C1462 H1465 0.929 . S
C1463 C1462 1.363 . S
C1463 C1469 1.428 1_545 S
H1464 C1460 0.930 . S
H1465 C1462 0.929 . S
S1466 N1467 1.613 . S
S1466 N1468 1.610 . S
N1467 S1466 1.613 . S
N1467 C1470 1.350 1_565 S
N1468 S1466 1.610 . S
N1468 C1469 1.351 . S
C1469 C1463 1.428 1_565 S
C1469 N1468 1.351 . S
C1469 C1470 1.434 1_565 S
C1470 C1461 1.429 . S
C1470 N1467 1.350 1_545 S
C1470 C1469 1.434 1_545 S
C1471 C1472 1.369 . S
C1471 C1473 1.419 . S
C1471 H1475 0.930 . S
C1472 C1471 1.369 . S
C1472 C1481 1.429 . S
C1473 C1471 1.419 . S
C1473 C1474 1.363 . S
C1473 H1476 0.929 . S
C1474 C1473 1.363 . S
C1474 C1480 1.428 . S
H1475 C1471 0.930 . S
H1476 C1473 0.929 . S
S1477 N1478 1.613 . S
S1477 N1479 1.610 . S
N1478 S1477 1.613 . S
N1478 C1481 1.350 . S
N1479 S1477 1.610 . S
N1479 C1480 1.351 . S
C1480 C1474 1.428 . S
C1480 N1479 1.351 . S
C1480 C1481 1.434 . S
C1481 C1472 1.429 . S
C1481 N1478 1.350 . S
C1481 C1480 1.434 . S
C1482 C1483 1.369 . S
C1482 C1484 1.419 . S
C1482 H1486 0.930 . S
C1483 C1482 1.369 . S
C1483 C1492 1.429 . S
C1484 C1482 1.419 . S
C1484 C1485 1.363 . S
C1484 H1487 0.929 . S
C1485 C1484 1.363 . S
C1485 C1491 1.428 . S
H1486 C1482 0.930 . S
H1487 C1484 0.929 . S
S1488 N1489 1.613 . S
S1488 N1490 1.610 . S
N1489 S1488 1.613 . S
N1489 C1492 1.350 . S
N1490 S1488 1.610 . S
N1490 C1491 1.351 . S
C1491 C1485 1.428 . S
C1491 N1490 1.351 . S
C1491 C1492 1.434 . S
C1492 C1483 1.429 . S
C1492 N1489 1.350 . S
C1492 C1491 1.434 . S
C1493 C1494 1.369 . S
C1493 C1495 1.419 . S
C1493 H1497 0.930 . S
C1494 C1493 1.369 . S
C1494 C1503 1.429 . S
C1495 C1493 1.419 . S
C1495 C1496 1.363 . S
C1495 H1498 0.929 . S
C1496 C1495 1.363 . S
C1496 C1502 1.428 . S
H1497 C1493 0.930 . S
H1498 C1495 0.929 . S
S1499 N1500 1.613 . S
S1499 N1501 1.610 . S
N1500 S1499 1.613 . S
N1500 C1503 1.350 . S
N1501 S1499 1.610 . S
N1501 C1502 1.351 . S
C1502 C1496 1.428 . S
C1502 N1501 1.351 . S
C1502 C1503 1.434 . S
C1503 C1494 1.429 . S
C1503 N1500 1.350 . S
C1503 C1502 1.434 . S
C1504 C1505 1.369 . S
C1504 C1506 1.419 . S
C1504 H1508 0.930 . S
C1505 C1504 1.369 . S
C1505 C1514 1.429 . S
C1506 C1504 1.419 . S
C1506 C1507 1.363 . S
C1506 H1509 0.929 . S
C1507 C1506 1.363 . S
C1507 C1513 1.428 . S
H1508 C1504 0.930 . S
H1509 C1506 0.929 . S
S1510 N1511 1.613 . S
S1510 N1512 1.610 . S
N1511 S1510 1.613 . S
N1511 C1514 1.350 . S
N1512 S1510 1.610 . S
N1512 C1513 1.351 . S
C1513 C1507 1.428 . S
C1513 N1512 1.351 . S
C1513 C1514 1.434 . S
C1514 C1505 1.429 . S
C1514 N1511 1.350 . S
C1514 C1513 1.434 . S
C1515 C1516 1.369 . S
C1515 C1517 1.419 . S
C1515 H1519 0.930 . S
C1516 C1515 1.369 . S
C1516 C1525 1.429 . S
C1517 C1515 1.419 . S
C1517 C1518 1.363 . S
C1517 H1520 0.929 . S
C1518 C1517 1.363 . S
C1518 C1524 1.428 . S
H1519 C1515 0.930 . S
H1520 C1517 0.929 . S
S1521 N1522 1.613 . S
S1521 N1523 1.610 . S
N1522 S1521 1.613 . S
N1522 C1525 1.350 . S
N1523 S1521 1.610 . S
N1523 C1524 1.351 . S
C1524 C1518 1.428 . S
C1524 N1523 1.351 . S
C1524 C1525 1.434 . S
C1525 C1516 1.429 . S
C1525 N1522 1.350 . S
C1525 C1524 1.434 . S
C1526 C1527 1.369 1_655 S
C1526 C1528 1.428 1_655 S
C1526 H1530 0.930 . S
C1527 C1526 1.369 1_455 S
C1527 C1536 1.429 . S
C1528 C1526 1.428 1_455 S
C1528 C1529 1.387 . S
C1528 H1531 0.896 1_455 S
C1529 C1528 1.387 . S
C1529 C1535 1.428 . S
H1530 C1526 0.930 . S
H1531 C1528 0.896 1_655 S
S1532 N1533 1.613 . S
S1532 N1534 1.610 . S
N1533 S1532 1.613 . S
N1533 C1536 1.350 . S
N1534 S1532 1.610 . S
N1534 C1535 1.351 . S
C1535 C1529 1.428 . S
C1535 N1534 1.351 . S
C1535 C1536 1.434 . S
C1536 C1527 1.429 . S
C1536 N1533 1.350 . S
C1536 C1535 1.434 . S
C1537 C1538 1.369 . S
C1537 C1539 1.419 . S
C1537 H1541 0.930 . S
C1538 C1537 1.369 . S
C1538 C1547 1.429 1_655 S
C1539 C1537 1.419 . S
C1539 C1540 1.363 . S
C1539 H1542 0.929 . S
C1540 C1539 1.363 . S
C1540 C1546 1.428 . S
H1541 C1537 0.930 . S
H1542 C1539 0.929 . S
S1543 N1544 1.613 . S
S1543 N1545 1.610 1_455 S
N1544 S1543 1.613 . S
N1544 C1547 1.350 . S
N1545 S1543 1.610 1_655 S
N1545 C1546 1.351 . S
C1546 C1540 1.428 . S
C1546 N1545 1.351 . S
C1546 C1547 1.434 1_655 S
C1547 C1538 1.429 1_455 S
C1547 N1544 1.350 . S
C1547 C1546 1.434 1_455 S
C1548 C1549 1.369 . S
C1548 C1550 1.419 . S
C1548 H1552 0.930 . S
C1549 C1548 1.369 . S
C1549 C1558 1.429 . S
C1550 C1548 1.419 . S
C1550 C1551 1.363 . S
C1550 H1553 0.929 . S
C1551 C1550 1.363 . S
C1551 C1557 1.428 . S
H1552 C1548 0.930 . S
H1553 C1550 0.929 . S
S1554 N1555 1.613 . S
S1554 N1556 1.610 . S
N1555 S1554 1.613 . S
N1555 C1558 1.350 . S
N1556 S1554 1.610 . S
N1556 C1557 1.351 . S
C1557 C1551 1.428 . S
C1557 N1556 1.351 . S
C1557 C1558 1.434 . S
C1558 C1549 1.429 . S
C1558 N1555 1.350 . S
C1558 C1557 1.434 . S
C1559 C1560 1.369 . S
C1559 C1561 1.419 . S
C1559 H1563 0.930 . S
C1560 C1559 1.369 . S
C1560 C1569 1.429 . S
C1561 C1559 1.419 . S
C1561 C1562 1.363 . S
C1561 H1564 0.929 . S
C1562 C1561 1.363 . S
C1562 C1568 1.428 . S
H1563 C1559 0.930 . S
H1564 C1561 0.929 . S
S1565 N1566 1.613 . S
S1565 N1567 1.610 . S
N1566 S1565 1.613 . S
N1566 C1569 1.350 . S
N1567 S1565 1.610 . S
N1567 C1568 1.351 . S
C1568 C1562 1.428 . S
C1568 N1567 1.351 . S
C1568 C1569 1.434 . S
C1569 C1560 1.429 . S
C1569 N1566 1.350 . S
C1569 C1568 1.434 . S
C1570 C1571 1.369 1_655 S
C1570 C1572 1.404 1_655 S
C1570 H1574 0.930 . S
C1571 C1570 1.369 1_455 S
C1571 C1580 1.429 . S
C1572 C1570 1.404 1_455 S
C1572 C1573 1.399 . S
C1572 H1575 0.907 1_455 S
C1573 C1572 1.399 . S
C1573 C1579 1.428 . S
H1574 C1570 0.930 . S
H1575 C1572 0.907 1_655 S
S1576 N1577 1.613 . S
S1576 N1578 1.610 . S
N1577 S1576 1.613 . S
N1577 C1580 1.350 . S
N1578 S1576 1.610 . S
N1578 C1579 1.351 . S
C1579 C1573 1.428 . S
C1579 N1578 1.351 . S
C1579 C1580 1.434 . S
C1580 C1571 1.429 . S
C1580 N1577 1.350 . S
C1580 C1579 1.434 . S
C1581 C1582 1.369 . S
C1581 C1583 1.419 . S
C1581 H1585 0.930 . S
C1582 C1581 1.369 . S
C1582 C1591 1.429 . S
C1583 C1581 1.419 . S
C1583 C1584 1.363 . S
C1583 H1586 0.929 . S
C1584 C1583 1.363 . S
C1584 C1590 1.428 . S
H1585 C1581 0.930 . S
H1586 C1583 0.929 . S
S1587 N1588 1.613 . S
S1587 N1589 1.610 . S
N1588 S1587 1.613 . S
N1588 C1591 1.350 . S
N1589 S1587 1.610 . S
N1589 C1590 1.351 . S
C1590 C1584 1.428 . S
C1590 N1589 1.351 . S
C1590 C1591 1.434 . S
C1591 C1582 1.429 . S
C1591 N1588 1.350 . S
C1591 C1590 1.434 . S
C1592 C1593 1.369 . S
C1592 C1594 1.419 . S
C1592 H1596 0.930 . S
C1593 C1592 1.369 . S
C1593 C1602 1.429 . S
C1594 C1592 1.419 . S
C1594 C1595 1.363 . S
C1594 H1597 0.929 . S
C1595 C1594 1.363 . S
C1595 C1601 1.428 . S
H1596 C1592 0.930 . S
H1597 C1594 0.929 . S
S1598 N1599 1.613 . S
S1598 N1600 1.610 . S
N1599 S1598 1.613 . S
N1599 C1602 1.350 . S
N1600 S1598 1.610 . S
N1600 C1601 1.351 . S
C1601 C1595 1.428 . S
C1601 N1600 1.351 . S
C1601 C1602 1.434 . S
C1602 C1593 1.429 . S
C1602 N1599 1.350 . S
C1602 C1601 1.434 . S
C1603 C1604 1.369 1_556 S
C1603 C1605 1.419 . S
C1603 H1607 0.930 . S
C1604 C1603 1.369 1_554 S
C1604 C1613 1.429 . S
C1605 C1603 1.419 . S
C1605 C1606 1.363 1_556 S
C1605 H1608 0.929 . S
C1606 C1605 1.363 1_554 S
C1606 C1612 1.428 . S
H1607 C1603 0.930 . S
H1608 C1605 0.929 . S
S1609 N1610 1.613 . S
S1609 N1611 1.610 . S
N1610 S1609 1.613 . S
N1610 C1613 1.350 . S
N1611 S1609 1.610 . S
N1611 C1612 1.351 . S
C1612 C1606 1.428 . S
C1612 N1611 1.351 . S
C1612 C1613 1.434 . S
C1613 C1604 1.429 . S
C1613 N1610 1.350 . S
C1613 C1612 1.434 . S
C1614 C1615 1.369 . S
C1614 C1616 1.419 . S
C1614 H1618 0.930 . S
C1615 C1614 1.369 . S
C1615 C1624 1.429 . S
C1616 C1614 1.419 . S
C1616 C1617 1.363 . S
C1616 H1619 0.929 . S
C1617 C1616 1.363 . S
C1617 C1623 1.428 . S
H1618 C1614 0.930 . S
H1619 C1616 0.929 . S
S1620 N1621 1.613 . S
S1620 N1622 1.610 . S
N1621 S1620 1.613 . S
N1621 C1624 1.350 . S
N1622 S1620 1.610 . S
N1622 C1623 1.351 . S
C1623 C1617 1.428 . S
C1623 N1622 1.351 . S
C1623 C1624 1.434 . S
C1624 C1615 1.429 . S
C1624 N1621 1.350 . S
C1624 C1623 1.434 . S
C1625 C1626 1.369 . S
C1625 C1627 1.419 . S
C1625 H1629 0.930 . S
C1626 C1625 1.369 . S
C1626 C1635 1.429 . S
C1627 C1625 1.419 . S
C1627 C1628 1.363 . S
C1627 H1630 0.929 . S
C1628 C1627 1.363 . S
C1628 C1634 1.428 . S
H1629 C1625 0.930 . S
H1630 C1627 0.929 . S
S1631 N1632 1.613 . S
S1631 N1633 1.610 . S
N1632 S1631 1.613 . S
N1632 C1635 1.350 . S
N1633 S1631 1.610 . S
N1633 C1634 1.351 . S
C1634 C1628 1.428 . S
C1634 N1633 1.351 . S
C1634 C1635 1.434 . S
C1635 C1626 1.429 . S
C1635 N1632 1.350 . S
C1635 C1634 1.434 . S
C1636 C1637 1.369 . S
C1636 C1638 1.419 . S
C1636 H1640 0.930 . S
C1637 C1636 1.369 . S
C1637 C1646 1.429 . S
C1638 C1636 1.419 . S
C1638 C1639 1.363 . S
C1638 H1641 0.929 . S
C1639 C1638 1.363 . S
C1639 C1645 1.428 . S
H1640 C1636 0.930 . S
H1641 C1638 0.929 . S
S1642 N1643 1.613 . S
S1642 N1644 1.610 . S
N1643 S1642 1.613 . S
N1643 C1646 1.350 . S
N1644 S1642 1.610 . S
N1644 C1645 1.351 . S
C1645 C1639 1.428 . S
C1645 N1644 1.351 . S
C1645 C1646 1.434 . S
C1646 C1637 1.429 . S
C1646 N1643 1.350 . S
C1646 C1645 1.434 . S
C1647 C1648 1.369 . S
C1647 C1649 1.419 . S
C1647 H1651 0.930 . S
C1648 C1647 1.369 . S
C1648 C1657 1.429 . S
C1649 C1647 1.419 . S
C1649 C1650 1.363 . S
C1649 H1652 0.929 . S
C1650 C1649 1.363 . S
C1650 C1656 1.428 . S
H1651 C1647 0.930 . S
H1652 C1649 0.929 . S
S1653 N1654 1.613 . S
S1653 N1655 1.610 . S
N1654 S1653 1.613 . S
N1654 C1657 1.350 . S
N1655 S1653 1.610 . S
N1655 C1656 1.351 . S
C1656 C1650 1.428 . S
C1656 N1655 1.351 . S
C1656 C1657 1.434 . S
C1657 C1648 1.429 . S
C1657 N1654 1.350 . S
C1657 C1656 1.434 . S
C1658 C1659 1.369 . S
C1658 C1660 1.419 . S
C1658 H1662 0.930 . S
C1659 C1658 1.369 . S
C1659 C1668 1.429 . S
C1660 C1658 1.419 . S
C1660 C1661 1.363 . S
C1660 H1663 0.929 . S
C1661 C1660 1.363 . S
C1661 C1667 1.428 . S
H1662 C1658 0.930 . S
H1663 C1660 0.929 . S
S1664 N1665 1.613 . S
S1664 N1666 1.610 . S
N1665 S1664 1.613 . S
N1665 C1668 1.350 . S
N1666 S1664 1.610 . S
N1666 C1667 1.351 . S
C1667 C1661 1.428 . S
C1667 N1666 1.351 . S
C1667 C1668 1.434 . S
C1668 C1659 1.429 . S
C1668 N1665 1.350 . S
C1668 C1667 1.434 . S
C1669 C1670 1.369 . S
C1669 C1671 1.419 . S
C1669 H1673 0.930 . S
C1670 C1669 1.369 . S
C1670 C1679 1.429 . S
C1671 C1669 1.419 . S
C1671 C1672 1.363 . S
C1671 H1674 0.929 . S
C1672 C1671 1.363 . S
C1672 C1678 1.428 . S
H1673 C1669 0.930 . S
H1674 C1671 0.929 . S
S1675 N1676 1.613 . S
S1675 N1677 1.610 . S
N1676 S1675 1.613 . S
N1676 C1679 1.350 . S
N1677 S1675 1.610 . S
N1677 C1678 1.351 . S
C1678 C1672 1.428 . S
C1678 N1677 1.351 . S
C1678 C1679 1.434 . S
C1679 C1670 1.429 . S
C1679 N1676 1.350 . S
C1679 C1678 1.434 . S
C1680 C1681 1.369 . S
C1680 C1682 1.419 . S
C1680 H1684 0.930 . S
C1681 C1680 1.369 . S
C1681 C1690 1.429 . S
C1682 C1680 1.419 . S
C1682 C1683 1.363 . S
C1682 H1685 0.929 . S
C1683 C1682 1.363 . S
C1683 C1689 1.428 . S
H1684 C1680 0.930 . S
H1685 C1682 0.929 . S
S1686 N1687 1.613 . S
S1686 N1688 1.610 . S
N1687 S1686 1.613 . S
N1687 C1690 1.350 . S
N1688 S1686 1.610 . S
N1688 C1689 1.351 . S
C1689 C1683 1.428 . S
C1689 N1688 1.351 . S
C1689 C1690 1.434 . S
C1690 C1681 1.429 . S
C1690 N1687 1.350 . S
C1690 C1689 1.434 . S
C1691 C1692 1.369 . S
C1691 C1693 1.419 . S
C1691 H1695 0.930 . S
C1692 C1691 1.369 . S
C1692 C1701 1.429 . S
C1693 C1691 1.419 . S
C1693 C1694 1.363 . S
C1693 H1696 0.929 . S
C1694 C1693 1.363 . S
C1694 C1700 1.428 . S
H1695 C1691 0.930 . S
H1696 C1693 0.929 . S
S1697 N1698 1.613 . S
S1697 N1699 1.610 . S
N1698 S1697 1.613 . S
N1698 C1701 1.350 . S
N1699 S1697 1.610 . S
N1699 C1700 1.351 . S
C1700 C1694 1.428 . S
C1700 N1699 1.351 . S
C1700 C1701 1.434 . S
C1701 C1692 1.429 . S
C1701 N1698 1.350 . S
C1701 C1700 1.434 . S
C1702 C1703 1.369 . S
C1702 C1704 1.419 1_545 S
C1702 H1706 0.930 . S
C1703 C1702 1.369 . S
C1703 C1712 1.429 1_545 S
C1704 C1702 1.419 1_565 S
C1704 C1705 1.363 . S
C1704 H1707 0.929 . S
C1705 C1704 1.363 . S
C1705 C1711 1.428 . S
H1706 C1702 0.930 . S
H1707 C1704 0.929 . S
S1708 N1709 1.613 . S
S1708 N1710 1.610 . S
N1709 S1708 1.613 . S
N1709 C1712 1.350 . S
N1710 S1708 1.610 . S
N1710 C1711 1.351 . S
C1711 C1705 1.428 . S
C1711 N1710 1.351 . S
C1711 C1712 1.434 . S
C1712 C1703 1.429 1_565 S
C1712 N1709 1.350 . S
C1712 C1711 1.434 . S
C1713 C1714 1.369 . S
C1713 C1715 1.427 . S
C1713 H1717 0.930 . S
C1714 C1713 1.369 . S
C1714 C1723 1.429 1_565 S
C1715 C1713 1.427 . S
C1715 C1716 1.344 1_565 S
C1715 H1718 0.940 . S
C1716 C1715 1.344 1_545 S
C1716 C1722 1.428 . S
H1717 C1713 0.930 . S
H1718 C1715 0.940 . S
S1719 N1720 1.613 . S
S1719 N1721 1.610 . S
N1720 S1719 1.613 . S
N1720 C1723 1.350 . S
N1721 S1719 1.610 . S
N1721 C1722 1.351 . S
C1722 C1716 1.428 . S
C1722 N1721 1.351 . S
C1722 C1723 1.434 . S
C1723 C1714 1.429 1_545 S
C1723 N1720 1.350 . S
C1723 C1722 1.434 . S
C1724 C1725 1.369 . S
C1724 C1726 1.419 . S
C1724 H1728 0.930 . S
C1725 C1724 1.369 . S
C1725 C1734 1.429 . S
C1726 C1724 1.419 . S
C1726 C1727 1.363 . S
C1726 H1729 0.929 . S
C1727 C1726 1.363 . S
C1727 C1733 1.428 . S
H1728 C1724 0.930 . S
H1729 C1726 0.929 . S
S1730 N1731 1.613 . S
S1730 N1732 1.610 . S
N1731 S1730 1.613 . S
N1731 C1734 1.350 . S
N1732 S1730 1.610 . S
N1732 C1733 1.351 . S
C1733 C1727 1.428 . S
C1733 N1732 1.351 . S
C1733 C1734 1.434 . S
C1734 C1725 1.429 . S
C1734 N1731 1.350 . S
C1734 C1733 1.434 . S
C1735 C1736 1.369 . S
C1735 C1737 1.419 . S
C1735 H1739 0.930 . S
C1736 C1735 1.369 . S
C1736 C1745 1.429 . S
C1737 C1735 1.419 . S
C1737 C1738 1.363 . S
C1737 H1740 0.929 . S
C1738 C1737 1.363 . S
C1738 C1744 1.428 . S
H1739 C1735 0.930 . S
H1740 C1737 0.929 . S
S1741 N1742 1.613 . S
S1741 N1743 1.610 . S
N1742 S1741 1.613 . S
N1742 C1745 1.350 . S
N1743 S1741 1.610 . S
N1743 C1744 1.351 . S
C1744 C1738 1.428 . S
C1744 N1743 1.351 . S
C1744 C1745 1.434 . S
C1745 C1736 1.429 . S
C1745 N1742 1.350 . S
C1745 C1744 1.434 . S
C1746 C1747 1.369 . S
C1746 C1748 1.419 . S
C1746 H1750 0.930 . S
C1747 C1746 1.369 . S
C1747 C1756 1.429 . S
C1748 C1746 1.419 . S
C1748 C1749 1.363 . S
C1748 H1751 0.929 . S
C1749 C1748 1.363 . S
C1749 C1755 1.428 . S
H1750 C1746 0.930 . S
H1751 C1748 0.929 . S
S1752 N1753 1.613 . S
S1752 N1754 1.610 . S
N1753 S1752 1.613 . S
N1753 C1756 1.350 . S
N1754 S1752 1.610 . S
N1754 C1755 1.351 . S
C1755 C1749 1.428 . S
C1755 N1754 1.351 . S
C1755 C1756 1.434 . S
C1756 C1747 1.429 . S
C1756 N1753 1.350 . S
C1756 C1755 1.434 . S
C1757 C1758 1.369 . S
C1757 C1759 1.419 . S
C1757 H1761 0.930 . S
C1758 C1757 1.369 . S
C1758 C1767 1.429 . S
C1759 C1757 1.419 . S
C1759 C1760 1.363 . S
C1759 H1762 0.929 . S
C1760 C1759 1.363 . S
C1760 C1766 1.428 . S
H1761 C1757 0.930 . S
H1762 C1759 0.929 . S
S1763 N1764 1.613 . S
S1763 N1765 1.610 . S
N1764 S1763 1.613 . S
N1764 C1767 1.350 . S
N1765 S1763 1.610 . S
N1765 C1766 1.351 . S
C1766 C1760 1.428 . S
C1766 N1765 1.351 . S
C1766 C1767 1.434 . S
C1767 C1758 1.429 . S
C1767 N1764 1.350 . S
C1767 C1766 1.434 . S
C1768 C1769 1.369 . S
C1768 C1770 1.419 . S
C1768 H1772 0.930 . S
C1769 C1768 1.369 . S
C1769 C1778 1.429 . S
C1770 C1768 1.419 . S
C1770 C1771 1.363 . S
C1770 H1773 0.929 . S
C1771 C1770 1.363 . S
C1771 C1777 1.428 . S
H1772 C1768 0.930 . S
H1773 C1770 0.929 . S
S1774 N1775 1.613 . S
S1774 N1776 1.610 . S
N1775 S1774 1.613 . S
N1775 C1778 1.350 . S
N1776 S1774 1.610 . S
N1776 C1777 1.351 . S
C1777 C1771 1.428 . S
C1777 N1776 1.351 . S
C1777 C1778 1.434 . S
C1778 C1769 1.429 . S
C1778 N1775 1.350 . S
C1778 C1777 1.434 . S
C1779 C1780 1.369 . S
C1779 C1781 1.419 . S
C1779 H1783 0.930 . S
C1780 C1779 1.369 . S
C1780 C1789 1.429 . S
C1781 C1779 1.419 . S
C1781 C1782 1.363 . S
C1781 H1784 0.929 . S
C1782 C1781 1.363 . S
C1782 C1788 1.428 . S
H1783 C1779 0.930 . S
H1784 C1781 0.929 . S
S1785 N1786 1.613 . S
S1785 N1787 1.610 . S
N1786 S1785 1.613 . S
N1786 C1789 1.350 . S
N1787 S1785 1.610 . S
N1787 C1788 1.351 . S
C1788 C1782 1.428 . S
C1788 N1787 1.351 . S
C1788 C1789 1.434 . S
C1789 C1780 1.429 . S
C1789 N1786 1.350 . S
C1789 C1788 1.434 . S
C1790 C1791 1.369 . S
C1790 C1792 1.419 . S
C1790 H1794 0.930 . S
C1791 C1790 1.369 . S
C1791 C1800 1.429 . S
C1792 C1790 1.419 . S
C1792 C1793 1.363 . S
C1792 H1795 0.929 . S
C1793 C1792 1.363 . S
C1793 C1799 1.428 . S
H1794 C1790 0.930 . S
H1795 C1792 0.929 . S
S1796 N1797 1.613 . S
S1796 N1798 1.610 . S
N1797 S1796 1.613 . S
N1797 C1800 1.350 . S
N1798 S1796 1.610 . S
N1798 C1799 1.351 . S
C1799 C1793 1.428 . S
C1799 N1798 1.351 . S
C1799 C1800 1.434 . S
C1800 C1791 1.429 . S
C1800 N1797 1.350 . S
C1800 C1799 1.434 . S
C1801 C1802 1.369 . S
C1801 C1803 1.419 . S
C1801 H1805 0.930 . S
C1802 C1801 1.369 . S
C1802 C1811 1.429 . S
C1803 C1801 1.419 . S
C1803 C1804 1.363 . S
C1803 H1806 0.929 . S
C1804 C1803 1.363 . S
C1804 C1810 1.428 . S
H1805 C1801 0.930 . S
H1806 C1803 0.929 . S
S1807 N1808 1.613 . S
S1807 N1809 1.610 . S
N1808 S1807 1.613 . S
N1808 C1811 1.350 . S
N1809 S1807 1.610 . S
N1809 C1810 1.351 . S
C1810 C1804 1.428 . S
C1810 N1809 1.351 . S
C1810 C1811 1.434 . S
C1811 C1802 1.429 . S
C1811 N1808 1.350 . S
C1811 C1810 1.434 . S
C1812 C1813 1.369 . S
C1812 C1814 1.419 . S
C1812 H1816 0.930 . S
C1813 C1812 1.369 . S
C1813 C1822 1.429 . S
C1814 C1812 1.419 . S
C1814 C1815 1.363 . S
C1814 H1817 0.929 . S
C1815 C1814 1.363 . S
C1815 C1821 1.428 . S
H1816 C1812 0.930 . S
H1817 C1814 0.929 . S
S1818 N1819 1.613 . S
S1818 N1820 1.610 . S
N1819 S1818 1.613 . S
N1819 C1822 1.350 . S
N1820 S1818 1.610 . S
N1820 C1821 1.351 . S
C1821 C1815 1.428 . S
C1821 N1820 1.351 . S
C1821 C1822 1.434 . S
C1822 C1813 1.429 . S
C1822 N1819 1.350 . S
C1822 C1821 1.434 . S
C1823 C1824 1.369 . S
C1823 C1825 1.419 . S
C1823 H1827 0.930 . S
C1824 C1823 1.369 . S
C1824 C1833 1.429 . S
C1825 C1823 1.419 . S
C1825 C1826 1.363 . S
C1825 H1828 0.929 . S
C1826 C1825 1.363 . S
C1826 C1832 1.428 . S
H1827 C1823 0.930 . S
H1828 C1825 0.929 . S
S1829 N1830 1.613 . S
S1829 N1831 1.610 . S
N1830 S1829 1.613 . S
N1830 C1833 1.350 . S
N1831 S1829 1.610 . S
N1831 C1832 1.351 . S
C1832 C1826 1.428 . S
C1832 N1831 1.351 . S
C1832 C1833 1.434 . S
C1833 C1824 1.429 . S
C1833 N1830 1.350 . S
C1833 C1832 1.434 . S
C1834 C1835 1.369 . S
C1834 C1836 1.419 . S
C1834 H1838 0.930 . S
C1835 C1834 1.369 . S
C1835 C1844 1.429 . S
C1836 C1834 1.419 . S
C1836 C1837 1.363 . S
C1836 H1839 0.929 . S
C1837 C1836 1.363 . S
C1837 C1843 1.428 . S
H1838 C1834 0.930 . S
H1839 C1836 0.929 . S
S1840 N1841 1.613 . S
S1840 N1842 1.610 . S
N1841 S1840 1.613 . S
N1841 C1844 1.350 . S
N1842 S1840 1.610 . S
N1842 C1843 1.351 . S
C1843 C1837 1.428 . S
C1843 N1842 1.351 . S
C1843 C1844 1.434 . S
C1844 C1835 1.429 . S
C1844 N1841 1.350 . S
C1844 C1843 1.434 . S
C1845 C1846 1.369 . S
C1845 C1847 1.419 . S
C1845 H1849 0.930 . S
C1846 C1845 1.369 . S
C1846 C1855 1.429 . S
C1847 C1845 1.419 . S
C1847 C1848 1.363 . S
C1847 H1850 0.929 . S
C1848 C1847 1.363 . S
C1848 C1854 1.428 . S
H1849 C1845 0.930 . S
H1850 C1847 0.929 . S
S1851 N1852 1.613 . S
S1851 N1853 1.610 . S
N1852 S1851 1.613 . S
N1852 C1855 1.350 . S
N1853 S1851 1.610 . S
N1853 C1854 1.351 . S
C1854 C1848 1.428 . S
C1854 N1853 1.351 . S
C1854 C1855 1.434 . S
C1855 C1846 1.429 . S
C1855 N1852 1.350 . S
C1855 C1854 1.434 . S
C1856 C1857 1.369 . S
C1856 C1858 1.419 . S
C1856 H1860 0.930 . S
C1857 C1856 1.369 . S
C1857 C1866 1.429 . S
C1858 C1856 1.419 . S
C1858 C1859 1.363 . S
C1858 H1861 0.929 . S
C1859 C1858 1.363 . S
C1859 C1865 1.428 . S
H1860 C1856 0.930 . S
H1861 C1858 0.929 . S
S1862 N1863 1.613 . S
S1862 N1864 1.610 . S
N1863 S1862 1.613 . S
N1863 C1866 1.350 . S
N1864 S1862 1.610 . S
N1864 C1865 1.351 . S
C1865 C1859 1.428 . S
C1865 N1864 1.351 . S
C1865 C1866 1.434 . S
C1866 C1857 1.429 . S
C1866 N1863 1.350 . S
C1866 C1865 1.434 . S
C1867 C1868 1.369 . S
C1867 C1869 1.419 . S
C1867 H1871 0.930 . S
C1868 C1867 1.369 . S
C1868 C1877 1.429 . S
C1869 C1867 1.419 . S
C1869 C1870 1.363 . S
C1869 H1872 0.929 . S
C1870 C1869 1.363 . S
C1870 C1876 1.428 . S
H1871 C1867 0.930 . S
H1872 C1869 0.929 . S
S1873 N1874 1.613 . S
S1873 N1875 1.610 . S
N1874 S1873 1.613 . S
N1874 C1877 1.350 . S
N1875 S1873 1.610 . S
N1875 C1876 1.351 . S
C1876 C1870 1.428 . S
C1876 N1875 1.351 . S
C1876 C1877 1.434 . S
C1877 C1868 1.429 . S
C1877 N1874 1.350 . S
C1877 C1876 1.434 . S
C1878 C1879 1.369 . S
C1878 C1880 1.419 . S
C1878 H1882 0.930 . S
C1879 C1878 1.369 . S
C1879 C1888 1.429 . S
C1880 C1878 1.419 . S
C1880 C1881 1.363 . S
C1880 H1883 0.929 . S
C1881 C1880 1.363 . S
C1881 C1887 1.428 . S
H1882 C1878 0.930 . S
H1883 C1880 0.929 . S
S1884 N1885 1.613 . S
S1884 N1886 1.610 . S
N1885 S1884 1.613 . S
N1885 C1888 1.350 . S
N1886 S1884 1.610 . S
N1886 C1887 1.351 . S
C1887 C1881 1.428 . S
C1887 N1886 1.351 . S
C1887 C1888 1.434 . S
C1888 C1879 1.429 . S
C1888 N1885 1.350 . S
C1888 C1887 1.434 . S
C1889 C1890 1.369 . S
C1889 C1891 1.419 . S
C1889 H1893 0.930 . S
C1890 C1889 1.369 . S
C1890 C1899 1.429 . S
C1891 C1889 1.419 . S
C1891 C1892 1.363 . S
C1891 H1894 0.929 . S
C1892 C1891 1.363 . S
C1892 C1898 1.428 . S
H1893 C1889 0.930 . S
H1894 C1891 0.929 . S
S1895 N1896 1.613 . S
S1895 N1897 1.610 . S
N1896 S1895 1.613 . S
N1896 C1899 1.350 . S
N1897 S1895 1.610 . S
N1897 C1898 1.351 . S
C1898 C1892 1.428 . S
C1898 N1897 1.351 . S
C1898 C1899 1.434 . S
C1899 C1890 1.429 . S
C1899 N1896 1.350 . S
C1899 C1898 1.434 . S
C1900 C1901 1.369 . S
C1900 C1902 1.419 . S
C1900 H1904 0.930 . S
C1901 C1900 1.369 . S
C1901 C1910 1.429 . S
C1902 C1900 1.419 . S
C1902 C1903 1.363 . S
C1902 H1905 0.929 . S
C1903 C1902 1.363 . S
C1903 C1909 1.428 . S
H1904 C1900 0.930 . S
H1905 C1902 0.929 . S
S1906 N1907 1.613 . S
S1906 N1908 1.610 . S
N1907 S1906 1.613 . S
N1907 C1910 1.350 . S
N1908 S1906 1.610 . S
N1908 C1909 1.351 . S
C1909 C1903 1.428 . S
C1909 N1908 1.351 . S
C1909 C1910 1.434 . S
C1910 C1901 1.429 . S
C1910 N1907 1.350 . S
C1910 C1909 1.434 . S
C1911 C1912 1.369 . S
C1911 C1913 1.419 . S
C1911 H1915 0.930 . S
C1912 C1911 1.369 . S
C1912 C1921 1.429 . S
C1913 C1911 1.419 . S
C1913 C1914 1.363 . S
C1913 H1916 0.929 . S
C1914 C1913 1.363 . S
C1914 C1920 1.428 . S
H1915 C1911 0.930 . S
H1916 C1913 0.929 . S
S1917 N1918 1.613 . S
S1917 N1919 1.610 . S
N1918 S1917 1.613 . S
N1918 C1921 1.350 . S
N1919 S1917 1.610 . S
N1919 C1920 1.351 . S
C1920 C1914 1.428 . S
C1920 N1919 1.351 . S
C1920 C1921 1.434 . S
C1921 C1912 1.429 . S
C1921 N1918 1.350 . S
C1921 C1920 1.434 . S
C1922 C1923 1.369 . S
C1922 C1924 1.419 . S
C1922 H1926 0.930 . S
C1923 C1922 1.369 . S
C1923 C1932 1.429 . S
C1924 C1922 1.419 . S
C1924 C1925 1.363 . S
C1924 H1927 0.929 . S
C1925 C1924 1.363 . S
C1925 C1931 1.428 . S
H1926 C1922 0.930 . S
H1927 C1924 0.929 . S
S1928 N1929 1.613 . S
S1928 N1930 1.610 . S
N1929 S1928 1.613 . S
N1929 C1932 1.350 . S
N1930 S1928 1.610 . S
N1930 C1931 1.351 . S
C1931 C1925 1.428 . S
C1931 N1930 1.351 . S
C1931 C1932 1.434 . S
C1932 C1923 1.429 . S
C1932 N1929 1.350 . S
C1932 C1931 1.434 . S
C1933 C1934 1.369 . S
C1933 C1935 1.419 . S
C1933 H1937 0.930 . S
C1934 C1933 1.369 . S
C1934 C1943 1.429 . S
C1935 C1933 1.419 . S
C1935 C1936 1.363 . S
C1935 H1938 0.929 . S
C1936 C1935 1.363 . S
C1936 C1942 1.428 . S
H1937 C1933 0.930 . S
H1938 C1935 0.929 . S
S1939 N1940 1.613 . S
S1939 N1941 1.610 . S
N1940 S1939 1.613 . S
N1940 C1943 1.350 . S
N1941 S1939 1.610 . S
N1941 C1942 1.351 . S
C1942 C1936 1.428 . S
C1942 N1941 1.351 . S
C1942 C1943 1.434 . S
C1943 C1934 1.429 . S
C1943 N1940 1.350 . S
C1943 C1942 1.434 . S
C1944 C1945 1.369 . S
C1944 C1946 1.419 . S
C1944 H1948 0.930 . S
C1945 C1944 1.369 . S
C1945 C1954 1.429 . S
C1946 C1944 1.419 . S
C1946 C1947 1.363 . S
C1946 H1949 0.929 . S
C1947 C1946 1.363 . S
C1947 C1953 1.428 . S
H1948 C1944 0.930 . S
H1949 C1946 0.929 . S
S1950 N1951 1.613 . S
S1950 N1952 1.610 . S
N1951 S1950 1.613 . S
N1951 C1954 1.350 . S
N1952 S1950 1.610 . S
N1952 C1953 1.351 . S
C1953 C1947 1.428 . S
C1953 N1952 1.351 . S
C1953 C1954 1.434 . S
C1954 C1945 1.429 . S
C1954 N1951 1.350 . S
C1954 C1953 1.434 . S
C1955 C1956 1.369 . S
C1955 C1957 1.419 . S
C1955 H1959 0.930 . S
C1956 C1955 1.369 . S
C1956 C1965 1.429 . S
C1957 C1955 1.419 . S
C1957 C1958 1.355 1_565 S
C1957 H1960 0.929 . S
C1958 C1957 1.355 1_545 S
C1958 C1964 1.414 1_545 S
H1959 C1955 0.930 . S
H1960 C1957 0.929 . S
S1961 N1962 1.613 . S
S1961 N1963 1.610 1_565 S
N1962 S1961 1.613 . S
N1962 C1965 1.350 . S
N1963 S1961 1.610 1_545 S
N1963 C1964 1.351 1_545 S
C1964 C1958 1.414 1_565 S
C1964 N1963 1.351 1_565 S
C1964 C1965 1.434 . S
C1965 C1956 1.429 . S
C1965 N1962 1.350 . S
C1965 C1964 1.434 . S
C1966 C1967 1.369 . S
C1966 C1968 1.419 . S
C1966 H1970 0.930 . S
C1967 C1966 1.369 . S
C1967 C1976 1.429 . S
C1968 C1966 1.419 . S
C1968 C1969 1.363 . S
C1968 H1971 0.929 . S
C1969 C1968 1.363 . S
C1969 C1975 1.428 . S
H1970 C1966 0.930 . S
H1971 C1968 0.929 . S
S1972 N1973 1.613 . S
S1972 N1974 1.610 . S
N1973 S1972 1.613 . S
N1973 C1976 1.350 . S
N1974 S1972 1.610 . S
N1974 C1975 1.351 . S
C1975 C1969 1.428 . S
C1975 N1974 1.351 . S
C1975 C1976 1.434 . S
C1976 C1967 1.429 . S
C1976 N1973 1.350 . S
C1976 C1975 1.434 . S
C1977 C1978 1.369 . S
C1977 C1979 1.419 . S
C1977 H1981 0.930 . S
C1978 C1977 1.369 . S
C1978 C1987 1.429 . S
C1979 C1977 1.419 . S
C1979 C1980 1.363 . S
C1979 H1982 0.929 . S
C1980 C1979 1.363 . S
C1980 C1986 1.428 . S
H1981 C1977 0.930 . S
H1982 C1979 0.929 . S
S1983 N1984 1.613 . S
S1983 N1985 1.610 . S
N1984 S1983 1.613 . S
N1984 C1987 1.350 . S
N1985 S1983 1.610 . S
N1985 C1986 1.351 . S
C1986 C1980 1.428 . S
C1986 N1985 1.351 . S
C1986 C1987 1.434 . S
C1987 C1978 1.429 . S
C1987 N1984 1.350 . S
C1987 C1986 1.434 . S
C1988 C1989 1.369 . S
C1988 C1990 1.419 . S
C1988 H1992 0.930 . S
C1989 C1988 1.369 . S
C1989 C1998 1.429 . S
C1990 C1988 1.419 . S
C1990 C1991 1.363 . S
C1990 H1993 0.929 . S
C1991 C1990 1.363 . S
C1991 C1997 1.428 . S
H1992 C1988 0.930 . S
H1993 C1990 0.929 . S
S1994 N1995 1.613 . S
S1994 N1996 1.610 . S
N1995 S1994 1.613 . S
N1995 C1998 1.350 . S
N1996 S1994 1.610 . S
N1996 C1997 1.351 . S
C1997 C1991 1.428 . S
C1997 N1996 1.351 . S
C1997 C1998 1.434 . S
C1998 C1989 1.429 . S
C1998 N1995 1.350 . S
C1998 C1997 1.434 . S
C1999 C2000 1.369 . S
C1999 C2001 1.419 . S
C1999 H2003 0.930 . S
C2000 C1999 1.369 . S
C2000 C2009 1.429 . S
C2001 C1999 1.419 . S
C2001 C2002 1.363 . S
C2001 H2004 0.929 . S
C2002 C2001 1.363 . S
C2002 C2008 1.428 1_554 S
H2003 C1999 0.930 . S
H2004 C2001 0.929 . S
S2005 N2006 1.613 . S
S2005 N2007 1.610 . S
N2006 S2005 1.613 . S
N2006 C2009 1.350 1_556 S
N2007 S2005 1.610 . S
N2007 C2008 1.351 . S
C2008 C2002 1.428 1_556 S
C2008 N2007 1.351 . S
C2008 C2009 1.434 1_556 S
C2009 C2000 1.429 . S
C2009 N2006 1.350 1_554 S
C2009 C2008 1.434 1_554 S
C2010 C2011 1.369 . S
C2010 C2012 1.419 . S
C2010 H2014 0.930 . S
C2011 C2010 1.369 . S
C2011 C2020 1.429 . S
C2012 C2010 1.419 . S
C2012 C2013 1.363 . S
C2012 H2015 0.929 . S
C2013 C2012 1.363 . S
C2013 C2019 1.428 . S
H2014 C2010 0.930 . S
H2015 C2012 0.929 . S
S2016 N2017 1.613 . S
S2016 N2018 1.610 . S
N2017 S2016 1.613 . S
N2017 C2020 1.350 . S
N2018 S2016 1.610 . S
N2018 C2019 1.351 . S
C2019 C2013 1.428 . S
C2019 N2018 1.351 . S
C2019 C2020 1.434 . S
C2020 C2011 1.429 . S
C2020 N2017 1.350 . S
C2020 C2019 1.434 . S
C2021 C2022 1.369 . S
C2021 C2023 1.419 . S
C2021 H2025 0.930 . S
C2022 C2021 1.369 . S
C2022 C2031 1.429 . S
C2023 C2021 1.419 . S
C2023 C2024 1.363 . S
C2023 H2026 0.929 . S
C2024 C2023 1.363 . S
C2024 C2030 1.428 . S
H2025 C2021 0.930 . S
H2026 C2023 0.929 . S
S2027 N2028 1.613 . S
S2027 N2029 1.610 . S
N2028 S2027 1.613 . S
N2028 C2031 1.350 . S
N2029 S2027 1.610 . S
N2029 C2030 1.351 . S
C2030 C2024 1.428 . S
C2030 N2029 1.351 . S
C2030 C2031 1.434 . S
C2031 C2022 1.429 . S
C2031 N2028 1.350 . S
C2031 C2030 1.434 . S
C977 C105 2.479 1_455 S
C979 C349 2.426 . S
C988 C65 2.166 . S
C990 C400 2.157 . S
C999 C73 1.807 . S
C1001 C429 1.814 . S
C1012 C473 1.467 . S
C1010 C92 1.538 . S
C1021 C17 1.463 . S
C1023 C513 1.382 . S
C1034 C549 1.778 . S
C1032 C37 1.767 . S
C1045 C599 2.037 . S
C1043 C49 1.848 . S
C1054 C8 2.486 . S
C1056 C629 2.446 . S
C1067 C359 2.073 . S
C1065 C231 2.099 . S
C1076 C241 0.920 . S
C1078 C402 0.868 . S
C1089 C439 1.412 . S
C1087 C273 1.326 . S
C1100 C469 1.516 . S
C1098 C171 1.523 . S
C1109 C227 1.551 . S
C1111 C509 1.538 . S
C1122 C559 1.046 . S
C1120 C245 0.986 . S
C1133 C593 0.998 . S
C1131 C269 1.051 . S
C1144 C639 2.049 . S
C1142 C175 2.075 . S
C1155 C353 1.463 . S
C1153 C162 1.575 1_554 S
C1164 C289 1.802 . S
C1166 C679 1.813 . S
C1177 C713 1.554 . S
C1175 C330 1.647 . S
C1188 C749 0.894 . S
C1186 C317 0.910 . S
C1197 C120 1.667 . S
C1199 C633 1.563 . S
C1208 C134 1.705 . S
C1210 C433 1.602 . S
C1219 C331 1.708 . S
C1221 C799 1.723 . S
C1232 C818 0.422 . S
C1230 C303 0.332 . S
C1243 C360 2.409 1_565 S
C1241 C59 2.422 . S
C1254 C829 2.190 . S
C1252 C107 2.189 . S
C1263 C91 1.860 . S
C1265 C440 1.867 . S
C1274 C78 1.530 . S
C1276 C802 1.474 . S
C1287 C522 1.394 . S
C1285 C7 1.373 . S
C1296 C51 1.797 . S
C1298 C720 1.818 . S
C1309 C578 2.063 1_566 S
C1307 C31 2.027 . S
C1320 C880 2.466 . S
C1318 C22 2.472 . S
C1331 C338 2.097 . S
C1329 C143 2.118 . S
C1342 C833 0.868 . S
C1340 C315 0.857 . S
C1351 C115 1.414 . S
C1353 C418 1.422 . S
C1362 C287 1.533 . S
C1364 C800 1.556 . S
C1373 C147 1.565 . S
C1375 C520 1.585 . S
C1386 C698 1.054 . S
C1384 C311 1.046 . S
C1395 C119 1.001 . S
C1397 C602 1.005 . S
C1406 C283 2.094 . S
C1408 C858 2.070 . S
C1417 C190 1.514 . S
C1419 C362 1.446 . S
C1428 C177 1.814 . S
C1430 C658 1.831 . S
C1439 C260 1.598 . S
C1441 C562 1.538 . S
C1450 C247 0.918 . S
C1452 C760 0.911 . S
C1463 C882 1.549 1_545 S
C1461 C274 1.618 . S
C1472 C218 1.647 . S
C1474 C442 1.596 . S
C1485 C458 1.742 . S
C1483 C261 1.720 . S
C1496 C399 0.427 . S
C1494 C205 0.365 . S
C1505 C77 2.479 . S
C1507 C909 2.425 . S
C1518 C840 2.157 . S
C1516 C93 2.166 . S
C1527 C101 1.811 . S
C1529 C949 1.817 . S
C1538 C64 1.539 1_655 S
C1540 C793 1.470 . S
C1549 C45 1.468 . S
C1551 C673 1.375 . S
C1562 C709 1.775 . S
C1560 C9 1.762 . S
C1573 C759 2.037 . S
C1571 C21 1.845 . S
C1584 C869 2.448 . S
C1582 C36 2.488 . S
C1595 C919 2.077 . S
C1593 C259 2.100 . S
C1604 C185 0.907 . S
C1606 C842 0.885 1_554 S
C1617 C959 1.413 . S
C1615 C203 1.322 . S
C1628 C789 1.515 . S
C1626 C213 1.521 . S
C1639 C669 1.540 . S
C1637 C255 1.552 . S
C1648 C189 0.980 . S
C1650 C719 1.045 . S
C1661 C753 1.002 . S
C1659 C199 1.050 . S
C1670 C217 2.078 . S
C1672 C879 2.050 . S
C1683 C913 1.457 . S
C1681 C316 1.583 . S
C1692 C135 1.800 . S
C1694 C519 1.812 . S
C1705 C553 1.558 . S
C1703 C148 1.645 . S
C1716 C589 0.894 . S
C1714 C163 0.910 . S
C1727 C873 1.565 . S
C1725 C302 1.666 . S
C1736 C288 1.704 . S
C1738 C953 1.607 . S
C1749 C479 1.723 . S
C1747 C149 1.707 . S
C1760 C378 0.418 . S
C1758 C121 0.332 . S
C1769 C87 2.426 . S
C1771 C920 2.441 . S
C1782 C389 2.191 . S
C1780 C79 2.189 . S
C1791 C63 1.856 . S
C1793 C960 1.865 . S
C1802 C106 1.525 . S
C1804 C482 1.477 . S
C1813 C35 1.382 . S
C1815 C682 1.388 . S
C1826 C560 1.815 . S
C1824 C23 1.791 . S
C1835 C3 2.032 . S
C1837 C738 2.063 . S
C1846 C50 2.467 . S
C1848 C640 2.467 . S
C1859 C898 2.100 . S
C1857 C325 2.115 . S
C1868 C161 0.871 . S
C1870 C393 0.850 . S
C1881 C938 1.421 1_655 S
C1879 C297 1.413 . S
C1890 C133 1.532 . S
C1892 C480 1.558 . S
C1901 C329 1.565 . S
C1903 C680 1.585 . S
C1914 C538 1.053 . S
C1912 C157 1.057 . S
C1923 C301 1.000 . S
C1925 C762 1.005 . S
C1936 C618 2.073 . S
C1934 C129 2.091 . S
C1947 C922 1.452 . S
C1945 C246 1.505 . S
C1958 C498 1.854 . S
C1956 C219 1.817 . S
C1967 C232 1.596 . S
C1969 C722 1.538 . S
C1980 C600 0.902 . S
C1978 C191 0.919 . S
C1989 C204 1.611 . S
C1991 C642 1.555 . S
C2000 C176 1.646 . S
C2002 C962 1.598 . S
C2013 C778 1.742 . S
C2011 C233 1.720 . S
C2024 C839 0.427 . S
C2022 C275 0.365 . S
