# Generated by pormake.
# Topology iac, (4,6)-cn, num edge types: 1
# Building blocks:
#     Node 0, Type 0, BuildingBlock: QUQFOY_clean_sbu_1, # of connection points: 4
#     Node 1, Type 0, BuildingBlock: QUQFOY_clean_sbu_1, # of connection points: 4
#     Node 2, Type 0, BuildingBlock: QUQFOY_clean_sbu_1, # of connection points: 4
#     Node 3, Type 0, BuildingBlock: QUQFOY_clean_sbu_1, # of connection points: 4
#     Node 4, Type 0, BuildingBlock: QUQFOY_clean_sbu_1, # of connection points: 4
#     Node 5, Type 0, BuildingBlock: QUQFOY_clean_sbu_1, # of connection points: 4
#     Node 6, Type 0, BuildingBlock: QUQFOY_clean_sbu_1, # of connection points: 4
#     Node 7, Type 0, BuildingBlock: QUQFOY_clean_sbu_1, # of connection points: 4
#     Node 8, Type 0, BuildingBlock: QUQFOY_clean_sbu_1, # of connection points: 4
#     Node 9, Type 0, BuildingBlock: QUQFOY_clean_sbu_1, # of connection points: 4
#     Node 10, Type 0, BuildingBlock: QUQFOY_clean_sbu_1, # of connection points: 4
#     Node 11, Type 0, BuildingBlock: QUQFOY_clean_sbu_1, # of connection points: 4
#     Node 12, Type 0, BuildingBlock: QUQFOY_clean_sbu_1, # of connection points: 4
#     Node 13, Type 0, BuildingBlock: QUQFOY_clean_sbu_1, # of connection points: 4
#     Node 14, Type 0, BuildingBlock: QUQFOY_clean_sbu_1, # of connection points: 4
#     Node 15, Type 0, BuildingBlock: QUQFOY_clean_sbu_1, # of connection points: 4
#     Node 16, Type 0, BuildingBlock: QUQFOY_clean_sbu_1, # of connection points: 4
#     Node 17, Type 0, BuildingBlock: QUQFOY_clean_sbu_1, # of connection points: 4
#     Node 18, Type 0, BuildingBlock: QUQFOY_clean_sbu_1, # of connection points: 4
#     Node 19, Type 0, BuildingBlock: QUQFOY_clean_sbu_1, # of connection points: 4
#     Node 20, Type 0, BuildingBlock: QUQFOY_clean_sbu_1, # of connection points: 4
#     Node 21, Type 0, BuildingBlock: QUQFOY_clean_sbu_1, # of connection points: 4
#     Node 22, Type 0, BuildingBlock: QUQFOY_clean_sbu_1, # of connection points: 4
#     Node 23, Type 0, BuildingBlock: QUQFOY_clean_sbu_1, # of connection points: 4
#     Node 24, Type 1, BuildingBlock: JUFBIX_clean_sbu_0, # of connection points: 6
#     Node 25, Type 1, BuildingBlock: JUFBIX_clean_sbu_0, # of connection points: 6
#     Node 26, Type 1, BuildingBlock: JUFBIX_clean_sbu_0, # of connection points: 6
#     Node 27, Type 1, BuildingBlock: JUFBIX_clean_sbu_0, # of connection points: 6
#     Node 28, Type 1, BuildingBlock: JUFBIX_clean_sbu_0, # of connection points: 6
#     Node 29, Type 1, BuildingBlock: JUFBIX_clean_sbu_0, # of connection points: 6
#     Node 30, Type 1, BuildingBlock: JUFBIX_clean_sbu_0, # of connection points: 6
#     Node 31, Type 1, BuildingBlock: JUFBIX_clean_sbu_0, # of connection points: 6
#     Node 32, Type 1, BuildingBlock: JUFBIX_clean_sbu_0, # of connection points: 6
#     Node 33, Type 1, BuildingBlock: JUFBIX_clean_sbu_0, # of connection points: 6
#     Node 34, Type 1, BuildingBlock: JUFBIX_clean_sbu_0, # of connection points: 6
#     Node 35, Type 1, BuildingBlock: JUFBIX_clean_sbu_0, # of connection points: 6
#     Node 36, Type 1, BuildingBlock: JUFBIX_clean_sbu_0, # of connection points: 6
#     Node 37, Type 1, BuildingBlock: JUFBIX_clean_sbu_0, # of connection points: 6
#     Node 38, Type 1, BuildingBlock: JUFBIX_clean_sbu_0, # of connection points: 6
#     Node 39, Type 1, BuildingBlock: JUFBIX_clean_sbu_0, # of connection points: 6
#     Edge 40, Type (0, 1), None
#     Edge 41, Type (0, 1), None
#     Edge 42, Type (0, 1), None
#     Edge 43, Type (0, 1), None
#     Edge 44, Type (0, 1), None
#     Edge 45, Type (0, 1), None
#     Edge 46, Type (0, 1), None
#     Edge 47, Type (0, 1), None
#     Edge 48, Type (0, 1), None
#     Edge 49, Type (0, 1), None
#     Edge 50, Type (0, 1), None
#     Edge 51, Type (0, 1), None
#     Edge 52, Type (0, 1), None
#     Edge 53, Type (0, 1), None
#     Edge 54, Type (0, 1), None
#     Edge 55, Type (0, 1), None
#     Edge 56, Type (0, 1), None
#     Edge 57, Type (0, 1), None
#     Edge 58, Type (0, 1), None
#     Edge 59, Type (0, 1), None
#     Edge 60, Type (0, 1), None
#     Edge 61, Type (0, 1), None
#     Edge 62, Type (0, 1), None
#     Edge 63, Type (0, 1), None
#     Edge 64, Type (0, 1), None
#     Edge 65, Type (0, 1), None
#     Edge 66, Type (0, 1), None
#     Edge 67, Type (0, 1), None
#     Edge 68, Type (0, 1), None
#     Edge 69, Type (0, 1), None
#     Edge 70, Type (0, 1), None
#     Edge 71, Type (0, 1), None
#     Edge 72, Type (0, 1), None
#     Edge 73, Type (0, 1), None
#     Edge 74, Type (0, 1), None
#     Edge 75, Type (0, 1), None
#     Edge 76, Type (0, 1), None
#     Edge 77, Type (0, 1), None
#     Edge 78, Type (0, 1), None
#     Edge 79, Type (0, 1), None
#     Edge 80, Type (0, 1), None
#     Edge 81, Type (0, 1), None
#     Edge 82, Type (0, 1), None
#     Edge 83, Type (0, 1), None
#     Edge 84, Type (0, 1), None
#     Edge 85, Type (0, 1), None
#     Edge 86, Type (0, 1), None
#     Edge 87, Type (0, 1), None
#     Edge 88, Type (0, 1), None
#     Edge 89, Type (0, 1), None
#     Edge 90, Type (0, 1), None
#     Edge 91, Type (0, 1), None
#     Edge 92, Type (0, 1), None
#     Edge 93, Type (0, 1), None
#     Edge 94, Type (0, 1), None
#     Edge 95, Type (0, 1), None
#     Edge 96, Type (0, 1), None
#     Edge 97, Type (0, 1), None
#     Edge 98, Type (0, 1), None
#     Edge 99, Type (0, 1), None
#     Edge 100, Type (0, 1), None
#     Edge 101, Type (0, 1), None
#     Edge 102, Type (0, 1), None
#     Edge 103, Type (0, 1), None
#     Edge 104, Type (0, 1), None
#     Edge 105, Type (0, 1), None
#     Edge 106, Type (0, 1), None
#     Edge 107, Type (0, 1), None
#     Edge 108, Type (0, 1), None
#     Edge 109, Type (0, 1), None
#     Edge 110, Type (0, 1), None
#     Edge 111, Type (0, 1), None
#     Edge 112, Type (0, 1), None
#     Edge 113, Type (0, 1), None
#     Edge 114, Type (0, 1), None
#     Edge 115, Type (0, 1), None
#     Edge 116, Type (0, 1), None
#     Edge 117, Type (0, 1), None
#     Edge 118, Type (0, 1), None
#     Edge 119, Type (0, 1), None
#     Edge 120, Type (0, 1), None
#     Edge 121, Type (0, 1), None
#     Edge 122, Type (0, 1), None
#     Edge 123, Type (0, 1), None
#     Edge 124, Type (0, 1), None
#     Edge 125, Type (0, 1), None
#     Edge 126, Type (0, 1), None
#     Edge 127, Type (0, 1), None
#     Edge 128, Type (0, 1), None
#     Edge 129, Type (0, 1), None
#     Edge 130, Type (0, 1), None
#     Edge 131, Type (0, 1), None
#     Edge 132, Type (0, 1), None
#     Edge 133, Type (0, 1), None
#     Edge 134, Type (0, 1), None
#     Edge 135, Type (0, 1), None
# Relax obj value: 0.329
# Max RMSD: 0.281
# Mean RMSD: 0.178
data_MOF--net-iac--node1-QUQFOY_clean_sbu_1--node2-JUFBIX_clean_sbu_0--edge1-none
_symmetry_space_group_name_H-M    P1
_symmetry_Int_Tables_number       1
_symmetry_cell_setting            triclinic
loop_
_symmetry_equiv_pos_as_xyz
'x, y, z'
_cell_length_a     25.536898
_cell_length_b     26.128393
_cell_length_c     26.375731
_cell_angle_alpha  88.944478
_cell_angle_beta   88.285335
_cell_angle_gamma 90.896309
loop_
_atom_site_label
_atom_site_type_symbol
_atom_site_fract_x
_atom_site_fract_y
_atom_site_fract_z
_atom_type_partial_charge
O0 O 0.0646 0.20978 0.20243 0.0
Cd1 Cd 0.06368 0.26974 0.25418 0.0
Cd2 Cd 0.1151 0.33033 0.1712 0.0
O3 O 0.08886 0.25614 0.13434 0.0
O4 O 0.99854 0.25467 0.29749 0.0
O5 O 1.00548 0.32201 0.24577 0.0
C6 C 0.97695 0.2939 0.27691 0.0
C7 C 0.10965 0.41913 0.13469 0.0
C8 C 0.07172 0.21284 0.15445 0.0
C9 C 0.17181 0.31079 0.27861 0.0
O10 O 0.17053 0.32869 0.23282 0.0
O11 O 0.13231 0.28497 0.29669 0.0
O12 O 0.1471 0.38856 0.12275 0.0
O13 O 0.07321 0.39915 0.16422 0.0
O14 O 0.18475 0.79345 0.43336 0.0
Cd15 Cd 0.11814 0.79524 0.48489 0.0
Cd16 Cd 0.10226 0.86873 0.40554 0.0
O17 O 0.14948 0.82428 0.36417 0.0
O18 O 0.13156 0.7558 0.54929 0.0
O19 O 0.07791 0.72868 0.49059 0.0
C20 C 0.0986 0.72183 0.53424 0.0
C21 C 1.02364 0.89107 0.37615 0.0
C22 C 0.18595 0.80068 0.38515 0.0
C23 C 0.091 0.90478 0.49879 0.0
O24 O 0.12563 0.91168 0.46395 0.0
O25 O 0.07538 0.85934 0.50916 0.0
O26 O 0.06514 0.91672 0.36146 0.0
O27 O 0.0279 0.85167 0.40619 0.0
O28 O 0.55235 0.72739 0.69966 0.0
Cd29 Cd 0.54923 0.7859 0.75172 0.0
Cd30 Cd 0.60225 0.84736 0.66377 0.0
O31 O 0.5763 0.77153 0.62976 0.0
O32 O 0.48624 0.76484 0.79651 0.0
O33 O 0.48704 0.83373 0.74671 0.0
C34 C 0.4612 0.80272 0.77732 0.0
C35 C 0.59938 0.93667 0.62742 0.0
C36 C 0.55977 0.72884 0.65175 0.0
C37 C 0.6585 0.82881 0.77109 0.0
O38 O 0.65646 0.84546 0.72505 0.0
O39 O 0.61928 0.80389 0.79115 0.0
O40 O 0.63607 0.90527 0.61535 0.0
O41 O 0.56207 0.91703 0.65618 0.0
O42 O 0.68171 0.28988 0.92674 0.0
Cd43 Cd 0.61485 0.29151 0.97635 0.0
Cd44 Cd 0.60546 0.37233 0.90273 0.0
O45 O 0.65237 0.32973 0.85904 0.0
O46 O 0.63036 0.25194 0.039 0.0
O47 O 0.57639 0.22435 0.98044 0.0
C48 C 0.59852 0.2173 1.02335 0.0
C49 C 0.52439 0.39371 0.87985 0.0
C50 C 0.68522 0.3008 0.87936 0.0
C51 C 0.59026 0.39882 0.99813 0.0
O52 O 0.62803 0.40668 0.96662 0.0
O53 O 0.57185 0.35369 1.00343 0.0
O54 O 0.56385 0.42258 0.86541 0.0
O55 O 0.53232 0.35148 0.90471 0.0
O56 O 0.13791 1.00497 0.33073 0.0
Cd57 Cd 0.20915 1.01061 0.36777 0.0
Cd58 Cd 0.18256 0.11308 0.33477 0.0
O59 O 0.13434 0.07969 0.2894 0.0
O60 O 0.25774 0.99164 0.3123 0.0
O61 O 0.23953 0.94491 0.38279 0.0
C62 C 0.26465 0.95137 0.33982 0.0
C63 C 0.14708 0.12989 0.41275 0.0
C64 C 0.11881 0.03351 0.2963 0.0
C65 C 0.2723 0.09457 0.37511 0.0
O66 O 0.25811 0.09141 0.32982 0.0
O67 O 0.24873 0.06576 0.40763 0.0
O68 O 0.16294 0.16799 0.38417 0.0
O69 O 0.15094 0.08425 0.3966 0.0
O70 O 0.28652 0.94217 0.68057 0.0
Cd71 Cd 0.28076 0.98244 0.60938 0.0
Cd72 Cd 0.35158 0.89649 0.59799 0.0
O73 O 0.3038 0.86562 0.65112 0.0
O74 O 0.26139 0.05656 0.61683 0.0
O75 O 0.21101 0.9955 0.58491 0.0
C76 C 0.21968 0.04346 0.59354 0.0
C77 C 0.37015 0.85394 0.5263 0.0
C78 C 0.28935 0.89362 0.68708 0.0
C79 C 0.37789 0.99169 0.56591 0.0
O80 O 0.38839 0.96528 0.6049 0.0
O81 O 0.33288 0.98754 0.54851 0.0
O82 O 0.39983 0.84763 0.56472 0.0
O83 O 0.32942 0.88264 0.53051 0.0
O84 O 0.47253 0.12419 0.71552 0.0
Cd85 Cd 0.43454 0.13818 0.78664 0.0
Cd86 Cd 0.50454 0.06384 0.8032 0.0
O87 O 0.54693 0.09906 0.74679 0.0
O88 O 0.37143 0.17749 0.77094 0.0
O89 O 0.43744 0.20976 0.81362 0.0
C90 C 0.3911 0.21459 0.796 0.0
C91 C 0.53506 0.04345 0.88078 0.0
C92 C 0.52121 0.11488 0.70961 0.0
C93 C 0.40307 0.03716 0.82331 0.0
O94 O 0.43688 1.02532 0.78961 0.0
O95 O 0.40144 0.08317 0.83707 0.0
O96 O 0.5467 1.01516 0.84251 0.0
O97 O 0.50991 0.08549 0.87339 0.0
O98 O 0.32862 0.20299 0.19068 0.0
Cd99 Cd 0.3293 0.15062 0.13128 0.0
Cd100 Cd 0.28307 0.24062 0.07106 0.0
O101 O 0.30833 0.27351 0.14778 0.0
O102 O 0.38639 0.10194 0.1509 0.0
O103 O 0.39372 0.15328 0.08355 0.0
C104 C 0.41469 0.11998 0.11319 0.0
C105 C 0.29208 0.28049 0.98292 0.0
C106 C 0.32323 0.25142 0.18985 0.0
C107 C 0.22174 0.13052 0.0868 0.0
O108 O 0.22587 0.17732 0.07064 0.0
O109 O 0.25865 0.11143 0.11254 0.0
O110 O 0.25472 0.2917 1.01472 0.0
O111 O 0.32674 0.25036 1.00138 0.0
O112 O 0.79853 0.43513 0.1757 0.0
Cd113 Cd 0.78651 0.4778 0.10771 0.0
Cd114 Cd 0.85286 0.39214 0.08806 0.0
O115 O 0.80431 0.35999 0.13994 0.0
O116 O 0.76082 0.54845 0.12241 0.0
O117 O 0.71498 0.48753 0.08483 0.0
C118 C 0.71964 0.53459 0.09874 0.0
C119 C 0.87271 0.34898 1.0169 0.0
C120 C 0.79842 0.38627 0.1791 0.0
C121 C 0.88654 0.49009 0.06746 0.0
O122 O 0.89503 0.45662 0.10136 0.0
O123 O 0.84123 0.49322 0.05048 0.0
O124 O 0.89986 0.34098 0.05676 0.0
O125 O 0.83458 0.38113 1.01875 0.0
O126 O 0.98569 0.61608 0.22126 0.0
Cd127 Cd 0.93735 0.63313 0.28625 0.0
Cd128 Cd 1.00733 0.56214 0.31185 0.0
O129 O 0.05708 0.59329 0.25996 0.0
O130 O 0.87637 0.67332 0.2628 0.0
O131 O 0.93682 0.70574 0.31191 0.0
C132 C 0.89314 0.71097 0.28904 0.0
C133 C 0.03198 0.54361 0.39132 0.0
C134 C 0.03462 0.60592 0.21989 0.0
C135 C 0.90578 0.53102 0.32105 0.0
O136 O 0.94389 0.52063 0.29147 0.0
O137 O 0.89987 0.57716 0.33359 0.0
O138 O 0.04561 0.51416 0.35462 0.0
O139 O 1.00684 0.58517 0.38165 0.0
O140 O 0.82056 0.7241 0.67774 0.0
Cd141 Cd 0.82271 0.66538 0.62496 0.0
Cd142 Cd 0.77544 0.75195 0.55872 0.0
O143 O 0.79704 0.79149 0.63175 0.0
O144 O 0.87756 0.61861 0.6544 0.0
O145 O 0.88979 0.65948 0.58106 0.0
C146 C 0.90841 0.63063 0.61629 0.0
C147 C 0.78828 0.78522 0.46928 0.0
C148 C 0.81258 0.77206 0.67452 0.0
C149 C 0.71329 0.64433 0.5828 0.0
O150 O 0.71764 0.68976 0.56319 0.0
O151 O 0.75065 0.62644 0.60895 0.0
O152 O 0.74958 0.79867 0.49847 0.0
O153 O 0.82186 0.7561 0.49088 0.0
O154 O 0.70028 0.52577 0.76422 0.0
Cd155 Cd 0.76059 0.51927 0.81348 0.0
Cd156 Cd 0.68932 0.57454 0.85233 0.0
O157 O 0.64643 0.5148 0.82865 0.0
O158 O 0.8111 0.4795 0.77813 0.0
O159 O 0.76102 0.45457 0.8469 0.0
C160 C 0.79477 0.44501 0.81086 0.0
C161 C 0.66107 0.61214 0.92312 0.0
C162 C 0.65483 0.51363 0.78149 0.0
C163 C 0.78198 0.61548 0.83499 0.0
O164 O 0.74167 0.61541 0.80827 0.0
O165 O 0.79693 0.57367 0.85292 0.0
O166 O 0.6396 0.62315 0.88074 0.0
O167 O 0.69887 0.57986 0.92465 0.0
O168 O 0.16215 0.8167 0.92907 0.0
Cd169 Cd 0.11072 0.8127 0.9935 0.0
Cd170 Cd 0.04871 0.87465 0.90043 0.0
O171 O 0.12116 0.85386 0.86455 0.0
O172 O 0.14322 0.759 0.04407 0.0
O173 O 0.0693 0.74342 1.00788 0.0
C174 C 0.1055 0.72666 0.03687 0.0
C175 C 0.96476 0.85841 0.85757 0.0
C176 C 0.16164 0.8326 0.88283 0.0
C177 C 0.07989 0.93167 1.00367 0.0
O178 O 0.0601 0.93121 0.95912 0.0
O179 O 0.09674 0.88964 1.02404 0.0
O180 O 0.9941 0.89804 0.84659 0.0
O181 O 0.98183 0.82862 0.89293 0.0
O182 O 0.07269 0.34392 0.61692 0.0
Cd183 Cd 0.02997 0.31495 0.67974 0.0
Cd184 Cd 0.08444 0.38415 0.71338 0.0
O185 O 0.14006 0.36123 0.66311 0.0
O186 O 0.95651 0.29157 0.67823 0.0
O187 O 0.98646 0.35097 0.73066 0.0
C188 C 0.9496 0.32027 0.71739 0.0
C189 C 0.05099 0.46247 0.69173 0.0
C190 C 0.12238 0.34416 0.62221 0.0
C191 C 0.08669 0.28338 0.762 0.0
O192 O 0.07703 0.33004 0.77285 0.0
O193 O 0.07281 0.26662 0.7196 0.0
O194 O 0.08693 0.45883 0.72525 0.0
O195 O 0.03009 0.42119 0.67474 0.0
O196 O 0.58956 0.23405 0.45999 0.0
Cd197 Cd 0.58742 0.2924 0.40278 0.0
Cd198 Cd 0.54171 0.35262 0.48587 0.0
O199 O 0.56335 0.27919 0.52593 0.0
O200 O 0.64102 0.27194 0.34897 0.0
O201 O 0.65152 0.34128 0.3936 0.0
C202 C 0.66984 0.311 0.35945 0.0
C203 C 0.56331 0.4396 0.52124 0.0
C204 C 0.5805 0.23654 0.50782 0.0
C205 C 0.47438 0.32797 0.3858 0.0
O206 O 0.47744 0.34736 0.43054 0.0
O207 O 0.51416 0.30478 0.36722 0.0
O208 O 0.52703 0.40936 0.54026 0.0
O209 O 0.58851 0.42148 0.48251 0.0
O210 O 0.57568 0.8373 0.12478 0.0
Cd211 Cd 0.52647 0.82142 0.18846 0.0
Cd212 Cd 0.59119 0.8828 0.21676 0.0
O213 O 0.64503 0.85263 0.16968 0.0
O214 O 0.44984 0.81473 0.18618 0.0
O215 O 0.49093 0.8663 0.23931 0.0
C216 C 0.44841 0.84469 0.22489 0.0
C217 C 0.56158 0.96033 0.18618 0.0
C218 C 0.6254 0.83476 0.13003 0.0
C219 C 0.58118 0.78267 0.26733 0.0
O220 O 0.57644 0.83033 0.27731 0.0
O221 O 0.55918 0.76579 0.22851 0.0
O222 O 0.59529 0.95858 0.22194 0.0
O223 O 0.54049 0.91834 0.17152 0.0
O224 O 1.01148 0.16165 0.6984 0.0
Cd225 Cd 0.9388 0.13668 0.72362 0.0
Cd226 Cd 0.99249 0.09106 0.78116 0.0
O227 O 0.03931 0.08562 0.71938 0.0
O228 O 0.88131 0.18335 0.71593 0.0
O229 O 0.90803 0.15418 0.7906 0.0
C230 C 0.87401 0.17819 0.76439 0.0
C231 C 0.02585 0.11978 0.85384 0.0
C232 C 0.04477 0.12647 0.69335 0.0
C233 C 0.89758 0.04484 0.74219 0.0
O234 O 0.92274 0.05255 0.78217 0.0
O235 O 0.90997 0.06935 0.70174 0.0
O236 O 0.02821 0.07204 0.84192 0.0
O237 O 1.00547 0.15221 0.8229 0.0
O238 O 0.83381 0.2869 0.57288 0.0
Cd239 Cd 0.88479 0.22445 0.57373 0.0
Cd240 Cd 0.81613 0.19932 0.51487 0.0
O241 O 0.76516 0.23912 0.55618 0.0
O242 O 0.96129 0.2329 0.58111 0.0
O243 O 0.92518 0.18762 0.51996 0.0
C244 C 0.96629 0.20148 0.54386 0.0
C245 C 0.83428 0.23586 0.43808 0.0
C246 C 0.78437 0.27742 0.57823 0.0
C247 C 0.82845 0.13597 0.60061 0.0
O248 O 0.83497 0.13252 0.5526 0.0
O249 O 0.8527 0.17168 0.62202 0.0
O250 O 0.80048 0.1984 0.44316 0.0
O251 O 0.86166 0.24932 0.47609 0.0
O252 O 0.61049 0.07514 0.32271 0.0
Cd253 Cd 0.67612 1.02948 0.30897 0.0
Cd254 Cd 0.70397 0.08988 0.3704 0.0
O255 O 0.65977 0.1421 0.33807 0.0
O256 O 0.67429 0.95491 0.2983 0.0
O257 O 0.72245 0.99258 0.35667 0.0
C258 C 0.71052 0.95235 0.33165 0.0
C259 C 0.66895 0.06852 0.44732 0.0
C260 C 0.61866 0.12374 0.31935 0.0
C261 C 0.76357 0.08802 0.27776 0.0
O262 O 0.77102 0.08088 0.32511 0.0
O263 O 0.72361 0.06731 0.25887 0.0
O264 O 0.7077 0.10118 0.44251 0.0
O265 O 0.65478 0.04236 0.40893 0.0
O266 O 0.80491 0.94717 0.17497 0.0
Cd267 Cd 0.80452 1.00619 0.11951 0.0
Cd268 Cd 0.84055 0.92596 0.05227 0.0
O269 O 0.82067 0.88164 0.12502 0.0
O270 O 0.75198 0.05848 0.14428 0.0
O271 O 0.74019 1.01386 0.07556 0.0
C272 C 0.7226 0.04728 0.10706 0.0
C273 C 0.81527 0.89833 0.9643 0.0
C274 C 0.81023 0.89901 0.16996 0.0
C275 C 0.91624 1.02194 0.07765 0.0
O276 O 0.90929 0.9779 0.05702 0.0
O277 O 0.87834 0.04181 0.10273 0.0
O278 O 0.84988 0.87563 0.99108 0.0
O279 O 0.79302 0.93616 0.98675 0.0
O280 O 0.34183 0.78749 0.08381 0.0
Cd281 Cd 0.39079 0.72336 0.07795 0.0
Cd282 Cd 0.32124 0.70286 1.02295 0.0
O283 O 0.27238 0.74003 0.06905 0.0
O284 O 0.46798 0.72743 0.08309 0.0
O285 O 0.42797 0.6881 1.02039 0.0
C286 C 0.47038 0.69787 0.04413 0.0
C287 C 0.32961 0.74399 0.94672 0.0
C288 C 0.29218 0.77914 0.0891 0.0
C289 C 0.33768 0.63144 0.10232 0.0
O290 O 0.33929 0.63213 0.05383 0.0
O291 O 0.35924 0.6683 0.12444 0.0
O292 O 0.29655 0.7062 0.95391 0.0
O293 O 0.36251 0.75477 0.98137 0.0
O294 O 0.11071 0.5755 0.8342 0.0
Cd295 Cd 0.17673 0.53083 0.81781 0.0
Cd296 Cd 0.20518 0.59394 0.87934 0.0
O297 O 0.15668 0.64482 0.84979 0.0
O298 O 0.17373 0.45532 0.81134 0.0
O299 O 0.22587 0.49564 0.86439 0.0
C300 C 0.21099 0.45387 0.84367 0.0
C301 C 0.17701 0.56258 0.95651 0.0
C302 C 0.11625 0.62445 0.83141 0.0
C303 C 0.25893 0.59329 0.78364 0.0
O304 O 0.26899 0.58427 0.8301 0.0
O305 O 0.22094 0.56906 0.76498 0.0
O306 O 0.21371 0.59746 0.95257 0.0
O307 O 0.15931 0.54216 0.91633 0.0
O308 O 0.29931 0.44843 0.68736 0.0
Cd309 Cd 0.29758 0.50796 0.63194 0.0
Cd310 Cd 0.34051 0.42369 0.56405 0.0
O311 O 0.32118 0.38281 0.63921 0.0
O312 O 0.24489 0.56038 0.65745 0.0
O313 O 0.2322 0.51525 0.58929 0.0
C314 C 0.21492 0.54882 0.62078 0.0
C315 C 0.31937 0.38707 0.47777 0.0
C316 C 0.30773 0.40053 0.68343 0.0
C317 C 0.40883 0.52752 0.58631 0.0
O318 O 0.40431 0.48276 0.56624 0.0
O319 O 0.37057 0.5449 0.61291 0.0
O320 O 0.35553 0.36965 0.50635 0.0
O321 O 0.29368 0.4245 0.4973 0.0
O322 O 0.50204 0.65438 0.19742 0.0
Cd323 Cd 0.43058 0.63501 0.23039 0.0
Cd324 Cd 0.48794 0.58999 0.28509 0.0
O325 O 0.53195 0.58022 0.2222 0.0
O326 O 0.37917 0.68751 0.21852 0.0
O327 O 0.4051 0.66374 0.29519 0.0
C328 C 0.375 0.69055 0.26712 0.0
C329 C 0.5237 0.62279 0.3545 0.0
C330 C 0.53576 0.61948 0.19376 0.0
C331 C 0.39321 0.53801 0.25705 0.0
O332 O 0.42179 0.54705 0.29431 0.0
O333 O 0.39688 0.56625 0.21755 0.0
O334 O 0.52846 0.57496 0.34383 0.0
O335 O 0.50105 0.65318 0.3232 0.0
Co336 Co 0.06646 0.09458 0.04344 0.0
C337 C 0.06383 0.16305 0.12444 0.0
Co338 Co 0.07612 0.0508 0.11344 0.0
C339 C 0.05043 0.102 0.93818 0.0
C340 C 0.05847 0.17691 0.96834 0.0
N341 N 0.06022 0.12655 0.98117 0.0
N342 N 0.04169 0.1344 0.89963 0.0
C343 C 0.04634 0.18186 0.91791 0.0
H344 H 0.04566 0.06101 0.93545 0.0
H345 H 0.06379 0.20819 0.99402 0.0
C346 C 0.08241 0.98269 0.03222 0.0
N347 N 0.07974 1.01785 0.17588 0.0
C348 C 0.07389 0.04089 0.22062 0.0
C349 C 0.09482 0.96987 0.18794 0.0
N350 N 0.09099 1.01221 0.25921 0.0
C351 C 0.10121 0.96609 0.23956 0.0
C352 C 0.97086 0.04625 0.07941 0.0
O353 O 0.07735 1.02599 1.00949 0.0
O354 O 0.08718 0.98416 0.08001 0.0
O355 O 1.00102 0.03374 0.11501 0.0
O356 O 0.9897 0.07696 0.04484 0.0
O357 O 0.06628 0.11927 0.14681 0.0
H358 H 0.10572 0.94097 0.16099 0.0
H359 H 0.06434 0.08067 0.22494 0.0
O360 O 0.05714 0.16219 0.07685 0.0
O361 O 0.14152 0.11241 0.04246 0.0
O362 O 0.1523 0.06835 0.11264 0.0
C363 C 0.17092 0.1004 0.07907 0.0
H364 H 0.04046 0.21714 0.89678 0.0
H365 H 0.12072 0.93518 0.25895 0.0
Co366 Co 0.3406 0.81704 0.33964 0.0
C367 C 0.3443 0.7308 0.28857 0.0
Co368 Co 0.29565 0.82306 0.26985 0.0
C369 C 0.35254 0.83811 0.4405 0.0
C370 C 0.41917 0.7959 0.4154 0.0
N371 N 0.37415 0.81643 0.39955 0.0
N372 N 0.38179 0.83271 0.48129 0.0
C373 C 0.42404 0.80595 0.46643 0.0
H374 H 0.31542 0.85764 0.44046 0.0
H375 H 0.44631 0.77508 0.39158 0.0
C376 C 0.29366 0.90977 0.31994 0.0
N377 N 0.26145 0.82324 0.20815 0.0
C378 C 0.28641 0.83008 0.1625 0.0
C379 C 0.2175 0.79649 0.19805 0.0
N380 N 0.26408 0.80273 0.12622 0.0
C381 C 0.21882 0.78412 0.14757 0.0
C382 C 0.23423 0.79518 0.35422 0.0
O383 O 0.32117 0.8845 0.35013 0.0
O384 O 0.27951 0.89081 0.27871 0.0
O385 O 0.23304 0.8046 0.30676 0.0
O386 O 0.27796 0.79469 0.37554 0.0
O387 O 0.31304 0.75438 0.26022 0.0
H388 H 0.19065 0.77977 0.2264 0.0
H389 H 0.32495 0.84721 0.15699 0.0
O390 O 0.35957 0.75055 0.32897 0.0
O391 O 0.40335 0.83952 0.30433 0.0
O392 O 0.35797 0.84149 0.23563 0.0
C393 C 0.40117 0.84626 0.25666 0.0
H394 H 0.4561 0.7953 0.49022 0.0
H395 H 0.19351 0.75576 0.13098 0.0
Co396 Co 0.55501 0.08094 0.55768 0.0
C397 C 0.58232 0.18601 0.5392 0.0
Co398 Co 0.62868 0.09851 0.59374 0.0
C399 C 0.46018 0.0333 0.56438 0.0
C400 C 0.4625 0.07456 0.49361 0.0
N401 N 0.49095 0.06385 0.5347 0.0
N402 N 0.41437 1.02323 0.54394 0.0
C403 C 0.41438 0.04943 0.49944 0.0
H404 H 0.4706 1.01929 0.60156 0.0
H405 H 0.4757 0.09883 0.46195 0.0
C406 C 0.59919 0.99253 0.60848 0.0
N407 N 0.69447 0.11201 0.61967 0.0
C408 C 0.74109 0.10358 0.59589 0.0
C409 C 0.70712 0.13197 0.66461 0.0
N410 N 0.78184 0.12048 0.62224 0.0
C411 C 0.76075 0.13716 0.66632 0.0
C412 C 0.54681 0.11291 0.6593 0.0
O413 O 0.56099 1.00929 0.58381 0.0
O414 O 0.6356 1.02501 0.61756 0.0
O415 O 0.59626 0.11407 0.65591 0.0
O416 O 0.52109 0.10101 0.62076 0.0
O417 O 0.62091 0.17316 0.56728 0.0
H418 H 0.6794 0.1446 0.69333 0.0
H419 H 0.74568 0.08949 0.55779 0.0
O420 O 0.54873 0.15086 0.53037 0.0
O421 O 0.58859 0.06153 0.49529 0.0
O422 O 0.66038 0.0832 0.53277 0.0
C423 C 0.63812 0.06724 0.49429 0.0
H424 H 0.3827 0.04969 0.47303 0.0
H425 H 0.78187 0.15654 0.69541 0.0
Co426 Co 0.33398 0.35674 0.83997 0.0
C427 C 0.3077 0.36876 0.73356 0.0
Co428 Co 0.26716 0.30962 0.82053 0.0
C429 C 0.4333 0.3755 0.87484 0.0
C430 C 0.40663 0.44132 0.83408 0.0
N431 N 0.39129 0.39494 0.85284 0.0
N432 N 0.47525 0.4064 0.86826 0.0
C433 C 0.45889 0.44849 0.84361 0.0
H434 H 0.43424 0.33724 0.89133 0.0
H435 H 0.38255 0.46644 0.81191 0.0
C436 C 0.29474 0.30055 0.92752 0.0
N437 N 0.20862 0.26982 0.80773 0.0
C438 C 0.15874 0.28427 0.81561 0.0
C439 C 0.20544 0.22878 0.77761 0.0
N440 N 0.12564 0.25908 0.78594 0.0
C441 C 0.15416 0.22151 0.76479 0.0
C442 C 0.35879 0.2587 0.80767 0.0
O443 O 0.3316 0.33073 0.91152 0.0
O444 O 0.26109 0.28712 0.8948 0.0
O445 O 0.30964 0.25376 0.80645 0.0
O446 O 0.37857 0.30095 0.82088 0.0
O447 O 0.27343 0.33374 0.746 0.0
H448 H 0.23855 0.20959 0.7605 0.0
H449 H 0.14771 0.31823 0.83587 0.0
O450 O 0.33695 0.38378 0.76897 0.0
O451 O 0.29065 0.41221 0.85819 0.0
O452 O 0.2247 0.36638 0.8329 0.0
C453 C 0.2424 0.40815 0.8488 0.0
H454 H 0.48307 0.48085 0.83163 0.0
H455 H 0.14124 0.19679 0.73491 0.0
Co456 Co 0.0769 0.09344 0.54839 0.0
C457 C 0.0719 0.12385 0.64547 0.0
Co458 Co 0.12321 0.16447 0.5612 0.0
C459 C 0.07853 0.99503 0.50844 0.0
C460 C 1.01766 0.9973 0.56573 0.0
N461 N 0.05057 1.02778 0.53717 0.0
N462 N 0.0664 0.94573 0.51918 0.0
C463 C 0.02714 0.94659 0.55444 0.0
H464 H 0.11133 1.00686 0.48376 0.0
H465 H 0.99212 1.01052 0.59605 0.0
C466 C 0.12689 0.13534 0.46357 0.0
N467 N 0.15457 0.22825 0.57166 0.0
C468 C 0.12971 0.2733 0.56797 0.0
C469 C 0.19775 0.23892 0.59802 0.0
N470 N 0.15155 0.30972 0.59621 0.0
C471 C 0.1963 0.28921 0.61276 0.0
C472 C 0.18059 0.08034 0.57799 0.0
O473 O 0.09729 0.09969 0.48115 0.0
O474 O 0.14495 0.169 0.49246 0.0
O475 O 0.18659 0.12879 0.57851 0.0
O476 O 0.13817 0.06146 0.56375 0.0
O477 O 0.10072 0.16098 0.62946 0.0
H478 H 0.22484 0.21076 0.61158 0.0
H479 H 0.09166 0.27774 0.55183 0.0
O480 O 0.05725 0.08911 0.61591 0.0
O481 O 1.01351 0.12533 0.53405 0.0
O482 O 0.05812 0.19637 0.5463 0.0
C483 C 1.01516 0.17382 0.53703 0.0
H484 H 1.00873 0.91318 0.57269 0.0
H485 H 0.22137 0.30606 0.6406 0.0
Co486 Co 0.31872 0.85839 0.83766 0.0
C487 C 0.21238 0.83254 0.8531 0.0
Co488 Co 0.29772 0.78636 0.80126 0.0
C489 C 0.37201 0.95119 0.83291 0.0
C490 C 0.317 0.95437 0.89533 0.0
N491 N 0.33801 0.92197 0.86127 0.0
N492 N 0.37303 1.00007 0.84682 0.0
C493 C 0.33883 1.00288 0.88656 0.0
H494 H 0.39264 0.93814 0.79927 0.0
H495 H 0.2856 0.94438 0.92232 0.0
C496 C 0.40484 0.81008 0.79022 0.0
N497 N 0.28136 0.72481 0.77194 0.0
C498 C 0.29458 0.67797 0.78907 0.0
C499 C 0.25123 0.71607 0.73181 0.0
N500 N 0.27119 0.64029 0.76356 0.0
C501 C 0.24515 0.66415 0.72636 0.0
C502 C 0.28842 0.86896 0.73721 0.0
O503 O 0.3902 0.8497 0.81306 0.0
O504 O 0.37051 0.77618 0.78063 0.0
O505 O 0.28595 0.82061 0.7399 0.0
O506 O 0.30105 0.89348 0.77592 0.0
O507 O 0.22447 0.79554 0.82408 0.0
H508 H 0.23166 0.74527 0.71021 0.0
H509 H 0.31677 0.67135 0.82282 0.0
O510 O 0.24786 0.86525 0.86355 0.0
O511 O 0.33603 0.82297 0.89936 0.0
O512 O 0.3092 0.75309 0.86218 0.0
C513 C 0.32717 0.77472 0.90043 0.0
H514 H 0.32917 0.03743 0.90663 0.0
H515 H 0.21811 0.64605 0.70127 0.0
Co516 Co 0.56396 0.06714 0.07113 0.0
C517 C 0.66857 0.06781 0.10374 0.0
Co518 Co 0.5758 0.11153 0.13941 0.0
C519 C 0.53684 0.05524 0.9703 0.0
C520 C 0.58095 0.99078 0.99475 0.0
N521 N 0.55762 0.03357 1.01145 0.0
N522 N 0.54779 1.02905 0.9282 0.0
C523 C 0.57472 0.98775 0.94306 0.0
H524 H 0.5166 0.09137 0.97074 0.0
H525 H 0.60372 0.96537 1.01792 0.0
C526 C 0.47114 0.10818 0.10874 0.0
N527 N 0.58197 0.14679 0.19862 0.0
C528 C 0.56938 0.12772 0.2452 0.0
C529 C 0.6126 0.18812 0.20636 0.0
N530 N 0.59693 0.15067 0.28114 0.0
C531 C 0.62126 0.19112 0.25728 0.0
C532 C 0.58765 0.17115 0.05402 0.0
O533 O 0.48999 0.08301 0.07184 0.0
O534 O 0.5017 0.12338 0.14272 0.0
O535 O 0.58701 0.17309 0.10186 0.0
O536 O 0.57932 0.1288 0.03304 0.0
O537 O 0.65044 0.09826 0.13694 0.0
H538 H 0.63368 0.20991 0.17684 0.0
H539 H 0.54785 0.09214 0.25197 0.0
O540 O 0.63774 0.05074 0.07079 0.0
O541 O 0.54916 1.00573 0.10911 0.0
O542 O 0.56646 0.04955 0.17655 0.0
C543 C 0.55523 1.00742 0.15669 0.0
H544 H 0.59052 0.95887 0.91823 0.0
H545 H 0.65196 0.21444 0.27291 0.0
Co546 Co 0.31734 0.28513 0.35204 0.0
C547 C 0.42149 0.32427 0.35928 0.0
Co548 Co 0.32509 0.35882 0.31503 0.0
C549 C 0.29859 0.18007 0.3582 0.0
C550 C 0.31739 0.20666 0.43153 0.0
N551 N 0.31182 0.22221 0.38277 0.0
N552 N 0.29419 0.13899 0.38917 0.0
C553 C 0.3057 0.15496 0.43576 0.0
H554 H 0.28771 0.18005 0.3189 0.0
H555 H 0.32765 0.23135 0.46228 0.0
C556 C 0.22165 0.31832 0.30861 0.0
N557 N 0.32999 0.42068 0.28337 0.0
C558 C 0.36083 0.46009 0.29529 0.0
C559 C 0.30876 0.43405 0.23874 0.0
N560 N 0.36116 0.49681 0.25897 0.0
C561 C 0.32825 0.48122 0.22341 0.0
C562 C 0.33049 0.27895 0.24126 0.0
O563 O 0.24057 0.283 0.33661 0.0
O564 O 0.25071 0.35754 0.29946 0.0
O565 O 0.33572 0.32725 0.24561 0.0
O566 O 0.32891 0.25331 0.28317 0.0
O567 O 0.40272 0.36036 0.33177 0.0
H568 H 0.28294 0.40994 0.21744 0.0
H569 H 0.38517 0.46031 0.3282 0.0
O570 O 0.39196 0.28521 0.3677 0.0
O571 O 0.30634 0.31663 0.41926 0.0
O572 O 0.31331 0.39219 0.38374 0.0
C573 C 0.30977 0.36492 0.42478 0.0
H574 H 0.3038 0.13166 0.47017 0.0
H575 H 0.32063 0.50139 0.18817 0.0
Co576 Co 0.57613 0.58547 0.05125 0.0
C577 C 0.56534 0.61654 0.14725 0.0
Co578 Co 0.62356 0.65473 0.06588 0.0
C579 C 0.57872 0.48841 1.01044 0.0
C580 C 0.51393 0.49011 0.06354 0.0
N581 N 0.5494 0.52071 0.03825 0.0
N582 N 0.56495 0.4392 1.01859 0.0
C583 C 0.52317 0.43961 0.05105 0.0
H584 H 0.61325 0.50033 0.98817 0.0
H585 H 0.48644 0.50295 0.09242 0.0
C586 C 0.63421 0.62348 0.96962 0.0
N587 N 0.65489 0.71845 0.0773 0.0
C588 C 0.62895 0.76307 0.07679 0.0
C589 C 0.69989 0.72933 0.10076 0.0
N590 N 0.6527 0.79944 0.10348 0.0
C591 C 0.69875 0.77927 0.11678 0.0
C592 C 0.67866 0.5706 0.08606 0.0
O593 O 0.59869 0.59208 0.98426 0.0
O594 O 0.65319 0.6552 1.00001 0.0
O595 O 0.6835 0.61883 0.08997 0.0
O596 O 0.63757 0.55213 0.06809 0.0
O597 O 0.59392 0.65407 0.13177 0.0
H598 H 0.72875 0.70152 0.11117 0.0
H599 H 0.58935 0.7672 0.06438 0.0
O600 O 0.5541 0.58029 0.1181 0.0
O601 O 0.51327 0.61875 0.03563 0.0
O602 O 0.56168 0.68798 0.04327 0.0
C603 C 0.51743 0.66732 0.03557 0.0
H604 H 0.5028 0.406 0.06671 0.0
H605 H 0.72583 0.79631 0.14269 0.0
Co606 Co 0.829 0.34832 0.32882 0.0
C607 C 0.72406 0.31665 0.33703 0.0
Co608 Co 0.81481 0.27611 0.28959 0.0
C609 C 0.8793 0.4433 0.32903 0.0
C610 C 0.81724 0.44423 0.38506 0.0
N611 N 0.84395 0.41258 0.35406 0.0
N612 N 0.87565 0.49245 0.342 0.0
C613 C 0.83696 0.49376 0.3778 0.0
H614 H 0.90438 0.431 0.29798 0.0
H615 H 0.78336 0.43297 0.40847 0.0
C616 C 0.92007 0.30251 0.28518 0.0
N617 N 0.80167 0.21456 0.25901 0.0
C618 C 0.81014 0.16756 0.27871 0.0
C619 C 0.77276 0.2065 0.21793 0.0
N620 N 0.78382 0.13089 0.25442 0.0
C621 C 0.76197 0.15514 0.21482 0.0
C622 C 0.80364 0.35923 0.22735 0.0
O623 O 0.90308 0.34178 0.30765 0.0
O624 O 0.88744 0.26818 0.27309 0.0
O625 O 0.80507 0.31085 0.22806 0.0
O626 O 0.81323 0.38319 0.26718 0.0
O627 O 0.74143 0.28214 0.3077 0.0
H628 H 0.75535 0.23618 0.19517 0.0
H629 H 0.82912 0.16082 0.31429 0.0
O630 O 0.75558 0.35177 0.35098 0.0
O631 O 0.84373 0.31369 0.3907 0.0
O632 O 0.82375 0.24286 0.35133 0.0
C633 C 0.83699 0.26525 0.39104 0.0
H634 H 0.82284 0.52794 0.39597 0.0
H635 H 0.73275 0.13897 0.19074 0.0
Co636 Co 0.05755 0.57261 0.58133 0.0
C637 C 0.16097 0.56977 0.61739 0.0
Co638 Co 0.06819 0.61543 0.65081 0.0
C639 C 0.03318 0.55981 0.47994 0.0
C640 C 0.07463 0.49487 0.50771 0.0
N641 N 0.05268 0.53919 0.52208 0.0
N642 N 0.04347 0.53117 0.43941 0.0
C643 C 0.06896 0.48978 0.45628 0.0
H644 H 1.0143 0.59664 0.47858 0.0
H645 H 0.09566 0.46945 0.53242 0.0
C646 C 0.96445 0.61591 0.61565 0.0
N647 N 0.07356 0.64907 0.71209 0.0
C648 C 0.06517 0.6268 0.75822 0.0
C649 C 0.10016 0.69278 0.72119 0.0
N650 N 0.09152 0.6507 0.79445 0.0
C651 C 0.11061 0.69429 0.77204 0.0
C652 C 0.08549 0.67606 0.5655 0.0
O653 O 0.98446 0.59107 0.57908 0.0
O654 O 0.99373 0.62932 0.65154 0.0
O655 O 0.08284 0.67794 0.61358 0.0
O656 O 0.07647 0.63392 0.54425 0.0
O657 O 0.14262 0.60019 0.65053 0.0
H658 H 0.11719 0.71834 0.69229 0.0
H659 H 0.04741 0.58931 0.76433 0.0
O660 O 0.13061 0.55382 0.58356 0.0
O661 O 0.03905 0.51135 0.61734 0.0
O662 O 0.05578 0.55231 0.68632 0.0
C663 C 0.0439 0.5111 0.66495 0.0
H664 H 0.0838 0.4592 0.43301 0.0
H665 H 0.13817 0.72058 0.78869 0.0
Co666 Co 0.8352 0.85598 0.32644 0.0
C667 C 0.81008 0.86646 0.2194 0.0
Co668 Co 0.76886 0.80859 0.30574 0.0
C669 C 0.93268 0.87539 0.36589 0.0
C670 C 0.91236 0.93746 0.31647 0.0
N671 N 0.89332 0.89396 0.33905 0.0
N672 N 0.97631 0.90403 0.35937 0.0
C673 C 0.96412 0.94369 0.32885 0.0
H674 H 0.93081 0.83882 0.38595 0.0
H675 H 0.89136 0.96091 0.28992 0.0
C676 C 0.79386 0.80239 0.41347 0.0
N677 N 0.70995 0.7696 0.29402 0.0
C678 C 0.66122 0.78183 0.30981 0.0
C679 C 0.70342 0.73149 0.26101 0.0
N680 N 0.62437 0.75814 0.28316 0.0
C681 C 0.65059 0.72361 0.25491 0.0
C682 C 0.86024 0.75605 0.29658 0.0
O683 O 0.83115 0.83221 0.39813 0.0
O684 O 0.76167 0.78772 0.38003 0.0
O685 O 0.81113 0.75147 0.29289 0.0
O686 O 0.87952 0.79868 0.30977 0.0
O687 O 0.77565 0.83149 0.23129 0.0
H688 H 0.73459 0.71489 0.23838 0.0
H689 H 0.65272 0.81331 0.33468 0.0
O690 O 0.83911 0.88125 0.25507 0.0
O691 O 0.79194 0.91225 0.34309 0.0
O692 O 0.72664 0.86591 0.31701 0.0
C693 C 0.74364 0.90755 0.3339 0.0
H694 H 0.99115 0.97331 0.31463 0.0
H695 H 0.6339 0.70104 0.22517 0.0
Co696 Co 0.83959 0.29988 0.83383 0.0
C697 C 0.83589 0.20964 0.7894 0.0
Co698 Co 0.79589 0.30199 0.76355 0.0
C699 C 0.85474 0.32887 0.93207 0.0
C700 C 0.91643 0.27817 0.91157 0.0
N701 N 0.87369 0.30134 0.89356 0.0
N702 N 0.88336 0.32449 0.97335 0.0
C703 C 0.92248 0.29243 0.96143 0.0
H704 H 0.81952 0.35133 0.93018 0.0
H705 H 0.94103 0.25244 0.89018 0.0
C706 C 0.80818 0.39377 0.80317 0.0
N707 N 0.76036 0.3025 0.70341 0.0
C708 C 0.78178 0.31739 0.65805 0.0
C709 C 0.71667 0.27595 0.69242 0.0
N710 N 0.75761 0.29539 0.61932 0.0
C711 C 0.7144 0.27213 0.64056 0.0
C712 C 0.73254 0.29003 0.84929 0.0
O713 O 0.82803 0.36895 0.83877 0.0
O714 O 0.79135 0.3717 0.7647 0.0
O715 O 0.73219 0.29656 0.80148 0.0
O716 O 0.77582 0.28583 0.87102 0.0
O717 O 0.80266 0.23116 0.76148 0.0
H718 H 0.69218 0.25486 0.71997 0.0
H719 H 0.81936 0.33687 0.65352 0.0
O720 O 0.85196 0.23151 0.82842 0.0
O721 O 0.90329 0.31492 0.79646 0.0
O722 O 0.85934 0.30786 0.72691 0.0
C723 C 0.90201 0.31549 0.74831 0.0
H724 H 0.95296 0.28047 0.98653 0.0
H725 H 0.68828 0.24646 0.62121 0.0
Co726 Co 0.8091 0.80612 0.83502 0.0
C727 C 0.91132 0.84949 0.83465 0.0
Co728 Co 0.81085 0.87967 0.79895 0.0
C729 C 0.7833 0.70526 0.83814 0.0
C730 C 0.84092 0.71958 0.8937 0.0
N731 N 0.80855 0.74272 0.86113 0.0
N732 N 0.80001 0.65961 0.85286 0.0
C733 C 0.83573 0.66746 0.88851 0.0
H734 H 0.75604 0.71134 0.80798 0.0
H735 H 0.86898 0.73914 0.91675 0.0
C736 C 0.70915 0.83731 0.79888 0.0
N737 N 0.81249 0.94264 0.76994 0.0
C738 C 0.8472 0.97841 0.78251 0.0
C739 C 0.79676 0.95614 0.72311 0.0
N740 N 0.8575 1.01111 0.74378 0.0
C741 C 0.82514 0.99868 0.70654 0.0
C742 C 0.81769 0.80168 0.72442 0.0
O743 O 0.73153 0.80153 0.82338 0.0
O744 O 0.73607 0.87772 0.78921 0.0
O745 O 0.8176 0.8502 0.72809 0.0
O746 O 0.81981 0.77671 0.76626 0.0
O747 O 0.88878 0.88339 0.80799 0.0
H748 H 0.77105 0.93338 0.70034 0.0
H749 H 0.86947 0.97653 0.81678 0.0
O750 O 0.88434 0.80982 0.84695 0.0
O751 O 0.79958 0.83218 0.90313 0.0
O752 O 0.80379 0.90939 0.87081 0.0
C753 C 0.80271 0.87999 0.91068 0.0
H754 H 0.85714 0.63802 0.90809 0.0
H755 H 0.82483 1.01657 0.66915 0.0
Co756 Co 0.55747 0.60392 0.54609 0.0
C757 C 0.55344 0.67727 0.62488 0.0
Co758 Co 0.5664 0.56743 0.61922 0.0
C759 C 0.54667 0.60797 0.4397 0.0
C760 C 0.54354 0.68329 0.46962 0.0
N761 N 0.5497 0.63351 0.48312 0.0
N762 N 0.53735 0.63912 0.4003 0.0
C763 C 0.53532 0.68677 0.41838 0.0
H764 H 0.54733 0.5668 0.43697 0.0
H765 H 0.5434 0.71517 0.49512 0.0
C766 C 0.57311 0.49316 0.54266 0.0
N767 N 0.57349 0.53947 0.68171 0.0
C768 C 0.61793 0.52112 0.70007 0.0
C769 C 0.53938 0.54103 0.72166 0.0
N770 N 0.61402 0.51396 0.75045 0.0
C771 C 0.56439 0.52508 0.76429 0.0
C772 C 0.46202 0.55558 0.58655 0.0
O773 O 0.5702 0.53408 0.51544 0.0
O774 O 0.5759 0.49916 0.59026 0.0
O775 O 0.49161 0.54915 0.62398 0.0
O776 O 0.48071 0.58294 0.54916 0.0
O777 O 0.55684 0.63542 0.65042 0.0
H778 H 0.50089 0.55766 0.72082 0.0
H779 H 0.65412 0.51811 0.67796 0.0
O780 O 0.54656 0.67286 0.57747 0.0
O781 O 0.63165 0.62419 0.54187 0.0
O782 O 0.64297 0.58596 0.61452 0.0
C783 C 0.66165 0.61477 0.57846 0.0
H784 H 0.52692 0.72103 0.39658 0.0
H785 H 0.55006 0.5293 0.80293 0.0
Co786 Co 0.06981 0.56843 0.07019 0.0
C787 C 0.10495 0.6716 0.05806 0.0
Co788 Co 0.14451 0.5792 0.10691 0.0
C789 C 0.97206 0.52462 0.07157 0.0
C790 C 0.9775 0.57594 1.00747 0.0
N791 N 1.00493 0.55703 0.04639 0.0
N792 N 0.92563 0.52142 0.05017 0.0
C793 C 0.92775 0.55399 1.00995 0.0
H794 H 0.98113 0.50485 0.10655 0.0
H795 H 0.99242 0.60388 0.97969 0.0
C796 C 0.11001 0.47541 0.11754 0.0
N797 N 0.2115 0.58832 0.13157 0.0
C798 C 0.25628 0.58736 0.10305 0.0
C799 C 0.2267 0.60344 0.17752 0.0
N800 N 0.29768 0.60587 0.12723 0.0
C801 C 0.27969 0.61429 0.17496 0.0
C802 C 0.06301 0.59795 0.17185 0.0
O803 O 0.07212 0.49464 0.09369 0.0
O804 O 0.14779 0.50577 0.1274 0.0
O805 O 0.11261 0.59469 0.17039 0.0
O806 O 0.03769 0.58759 0.13279 0.0
O807 O 0.1419 0.65389 0.08513 0.0
H808 H 0.20062 0.61037 0.20961 0.0
H809 H 0.25824 0.57989 0.06294 0.0
O810 O 0.06829 0.64036 0.04684 0.0
O811 O 0.1003 0.55075 1.00711 0.0
O812 O 0.17409 0.56485 0.04393 0.0
C813 C 0.14976 0.55431 1.00478 0.0
H814 H 0.89628 0.56078 0.98414 0.0
H815 H 0.30134 0.63258 0.20425 0.0
loop_
_geom_bond_atom_site_label_1
_geom_bond_atom_site_label_2
_geom_bond_distance
_geom_bond_site_symmetry_2
_ccdc_geom_bond_type
O0 Cd1 2.223 . S
O0 C8 1.315 . S
Cd1 O0 2.223 . S
Cd1 O4 2.297 1_455 S
Cd1 O5 2.439 1_455 S
Cd1 O11 2.240 . S
Cd2 O3 2.240 . S
Cd2 O10 2.223 . S
Cd2 O12 2.297 . S
Cd2 O13 2.439 . S
O3 Cd2 2.240 . S
O3 C8 1.279 . S
O4 Cd1 2.297 1_655 S
O4 C6 1.247 . S
O5 Cd1 2.439 1_655 S
O5 C6 1.208 . S
C6 O4 1.247 . S
C6 O5 1.208 . S
C7 O12 1.247 . S
C7 O13 1.208 . S
C8 O0 1.315 . S
C8 O3 1.279 . S
C9 O10 1.315 . S
C9 O11 1.279 . S
O10 Cd2 2.223 . S
O10 C9 1.315 . S
O11 Cd1 2.240 . S
O11 C9 1.279 . S
O12 Cd2 2.297 . S
O12 C7 1.247 . S
O13 Cd2 2.439 . S
O13 C7 1.208 . S
O14 Cd15 2.223 . S
O14 C22 1.315 . S
Cd15 O14 2.223 . S
Cd15 O18 2.297 . S
Cd15 O19 2.439 . S
Cd15 O25 2.240 . S
Cd16 O17 2.240 . S
Cd16 O24 2.223 . S
Cd16 O26 2.297 . S
Cd16 O27 2.439 . S
O17 Cd16 2.240 . S
O17 C22 1.279 . S
O18 Cd15 2.297 . S
O18 C20 1.247 . S
O19 Cd15 2.439 . S
O19 C20 1.208 . S
C20 O18 1.247 . S
C20 O19 1.208 . S
C21 O26 1.247 1_655 S
C21 O27 1.208 1_655 S
C22 O14 1.315 . S
C22 O17 1.279 . S
C23 O24 1.315 . S
C23 O25 1.279 . S
O24 Cd16 2.223 . S
O24 C23 1.315 . S
O25 Cd15 2.240 . S
O25 C23 1.279 . S
O26 Cd16 2.297 . S
O26 C21 1.247 1_455 S
O27 Cd16 2.439 . S
O27 C21 1.208 1_455 S
O28 Cd29 2.223 . S
O28 C36 1.315 . S
Cd29 O28 2.223 . S
Cd29 O32 2.297 . S
Cd29 O33 2.439 . S
Cd29 O39 2.240 . S
Cd30 O31 2.240 . S
Cd30 O38 2.223 . S
Cd30 O40 2.297 . S
Cd30 O41 2.439 . S
O31 Cd30 2.240 . S
O31 C36 1.279 . S
O32 Cd29 2.297 . S
O32 C34 1.247 . S
O33 Cd29 2.439 . S
O33 C34 1.208 . S
C34 O32 1.247 . S
C34 O33 1.208 . S
C35 O40 1.247 . S
C35 O41 1.208 . S
C36 O28 1.315 . S
C36 O31 1.279 . S
C37 O38 1.315 . S
C37 O39 1.279 . S
O38 Cd30 2.223 . S
O38 C37 1.315 . S
O39 Cd29 2.240 . S
O39 C37 1.279 . S
O40 Cd30 2.297 . S
O40 C35 1.247 . S
O41 Cd30 2.439 . S
O41 C35 1.208 . S
O42 Cd43 2.223 . S
O42 C50 1.315 . S
Cd43 O42 2.223 . S
Cd43 O46 2.297 1_556 S
Cd43 O47 2.439 . S
Cd43 O53 2.240 . S
Cd44 O45 2.240 . S
Cd44 O52 2.223 . S
Cd44 O54 2.297 . S
Cd44 O55 2.439 . S
O45 Cd44 2.240 . S
O45 C50 1.279 . S
O46 Cd43 2.297 1_554 S
O46 C48 1.248 1_554 S
O47 Cd43 2.439 . S
O47 C48 1.208 . S
C48 O46 1.248 1_556 S
C48 O47 1.208 . S
C49 O54 1.247 . S
C49 O55 1.208 . S
C50 O42 1.315 . S
C50 O45 1.279 . S
C51 O52 1.315 . S
C51 O53 1.279 . S
O52 Cd44 2.223 . S
O52 C51 1.315 . S
O53 Cd43 2.240 . S
O53 C51 1.279 . S
O54 Cd44 2.297 . S
O54 C49 1.247 . S
O55 Cd44 2.439 . S
O55 C49 1.208 . S
O56 Cd57 2.223 1_545 S
O56 C64 1.315 . S
Cd57 O56 2.223 1_565 S
Cd57 O60 2.297 . S
Cd57 O61 2.439 . S
Cd57 O67 2.240 1_565 S
Cd58 O59 2.240 1_545 S
Cd58 O66 2.223 . S
Cd58 O68 2.297 . S
Cd58 O69 2.439 1_545 S
O59 Cd58 2.240 1_565 S
O59 C64 1.279 1_565 S
O60 Cd57 2.297 . S
O60 C62 1.247 . S
O61 Cd57 2.439 . S
O61 C62 1.208 . S
C62 O60 1.247 . S
C62 O61 1.208 . S
C63 O68 1.247 . S
C63 O69 1.208 1_545 S
C64 O56 1.315 . S
C64 O59 1.279 1_545 S
C65 O66 1.315 . S
C65 O67 1.279 . S
O66 Cd58 2.223 . S
O66 C65 1.315 . S
O67 Cd57 2.240 1_545 S
O67 C65 1.279 . S
O68 Cd58 2.297 . S
O68 C63 1.247 . S
O69 Cd58 2.439 1_565 S
O69 C63 1.208 1_565 S
O70 Cd71 2.223 . S
O70 C78 1.315 . S
Cd71 O70 2.223 . S
Cd71 O74 2.294 1_565 S
Cd71 O75 2.439 . S
Cd71 O81 2.240 . S
Cd72 O73 2.240 . S
Cd72 O80 2.223 . S
Cd72 O82 2.297 . S
Cd72 O83 2.439 . S
O73 Cd72 2.240 . S
O73 C78 1.279 . S
O74 Cd71 2.294 1_545 S
O74 C76 1.238 1_545 S
O75 Cd71 2.439 . S
O75 C76 1.208 . S
C76 O74 1.238 1_565 S
C76 O75 1.208 . S
C77 O82 1.247 . S
C77 O83 1.208 . S
C78 O70 1.315 . S
C78 O73 1.279 . S
C79 O80 1.315 . S
C79 O81 1.279 . S
O80 Cd72 2.223 . S
O80 C79 1.315 . S
O81 Cd71 2.240 . S
O81 C79 1.279 . S
O82 Cd72 2.297 . S
O82 C77 1.247 . S
O83 Cd72 2.439 . S
O83 C77 1.208 . S
O84 Cd85 2.223 . S
O84 C92 1.315 . S
Cd85 O84 2.223 . S
Cd85 O88 2.297 . S
Cd85 O89 2.439 . S
Cd85 O95 2.240 . S
Cd86 O87 2.240 . S
Cd86 O94 2.223 . S
Cd86 O96 2.297 . S
Cd86 O97 2.439 . S
O87 Cd86 2.240 . S
O87 C92 1.279 . S
O88 Cd85 2.297 . S
O88 C90 1.247 . S
O89 Cd85 2.439 . S
O89 C90 1.208 . S
C90 O88 1.247 . S
C90 O89 1.208 . S
C91 O96 1.247 . S
C91 O97 1.208 . S
C92 O84 1.315 . S
C92 O87 1.279 . S
C93 O94 1.315 . S
C93 O95 1.279 . S
O94 Cd86 2.223 . S
O94 C93 1.315 . S
O95 Cd85 2.240 . S
O95 C93 1.279 . S
O96 Cd86 2.297 . S
O96 C91 1.247 . S
O97 Cd86 2.439 . S
O97 C91 1.208 . S
O98 Cd99 2.223 . S
O98 C106 1.315 . S
Cd99 O98 2.223 . S
Cd99 O102 2.297 . S
Cd99 O103 2.439 . S
Cd99 O109 2.240 . S
Cd100 O101 2.240 . S
Cd100 O108 2.223 . S
Cd100 O110 2.297 1_554 S
Cd100 O111 2.439 1_554 S
O101 Cd100 2.240 . S
O101 C106 1.279 . S
O102 Cd99 2.297 . S
O102 C104 1.247 . S
O103 Cd99 2.439 . S
O103 C104 1.208 . S
C104 O102 1.247 . S
C104 O103 1.208 . S
C105 O110 1.247 . S
C105 O111 1.208 . S
C106 O98 1.315 . S
C106 O101 1.279 . S
C107 O108 1.315 . S
C107 O109 1.279 . S
O108 Cd100 2.223 . S
O108 C107 1.315 . S
O109 Cd99 2.240 . S
O109 C107 1.279 . S
O110 Cd100 2.297 1_556 S
O110 C105 1.247 . S
O111 Cd100 2.439 1_556 S
O111 C105 1.208 . S
O112 Cd113 2.223 . S
O112 C120 1.315 . S
Cd113 O112 2.223 . S
Cd113 O116 2.297 . S
Cd113 O117 2.439 . S
Cd113 O123 2.240 . S
Cd114 O115 2.240 . S
Cd114 O122 2.223 . S
Cd114 O124 2.297 . S
Cd114 O125 2.439 . S
O115 Cd114 2.240 . S
O115 C120 1.279 . S
O116 Cd113 2.297 . S
O116 C118 1.247 . S
O117 Cd113 2.439 . S
O117 C118 1.208 . S
C118 O116 1.247 . S
C118 O117 1.208 . S
C119 O124 1.247 1_556 S
C119 O125 1.208 1_556 S
C120 O112 1.315 . S
C120 O115 1.279 . S
C121 O122 1.315 . S
C121 O123 1.279 . S
O122 Cd114 2.223 . S
O122 C121 1.315 . S
O123 Cd113 2.240 . S
O123 C121 1.279 . S
O124 Cd114 2.297 . S
O124 C119 1.247 1_554 S
O125 Cd114 2.439 . S
O125 C119 1.208 1_554 S
O126 Cd127 2.223 . S
O126 C134 1.315 . S
Cd127 O126 2.223 . S
Cd127 O130 2.297 . S
Cd127 O131 2.439 . S
Cd127 O137 2.240 . S
Cd128 O129 2.240 . S
Cd128 O136 2.223 . S
Cd128 O138 2.297 1_655 S
Cd128 O139 2.439 . S
O129 Cd128 2.240 . S
O129 C134 1.279 . S
O130 Cd127 2.297 . S
O130 C132 1.247 . S
O131 Cd127 2.439 . S
O131 C132 1.208 . S
C132 O130 1.247 . S
C132 O131 1.208 . S
C133 O138 1.247 1_655 S
C133 O139 1.208 . S
C134 O126 1.315 . S
C134 O129 1.279 . S
C135 O136 1.315 . S
C135 O137 1.279 . S
O136 Cd128 2.223 . S
O136 C135 1.315 . S
O137 Cd127 2.240 . S
O137 C135 1.279 . S
O138 Cd128 2.297 1_455 S
O138 C133 1.247 1_455 S
O139 Cd128 2.439 . S
O139 C133 1.208 . S
O140 Cd141 2.223 . S
O140 C148 1.315 . S
Cd141 O140 2.223 . S
Cd141 O144 2.297 . S
Cd141 O145 2.439 . S
Cd141 O151 2.240 . S
Cd142 O143 2.240 . S
Cd142 O150 2.223 . S
Cd142 O152 2.297 . S
Cd142 O153 2.439 . S
O143 Cd142 2.240 . S
O143 C148 1.279 . S
O144 Cd141 2.297 . S
O144 C146 1.247 . S
O145 Cd141 2.439 . S
O145 C146 1.208 . S
C146 O144 1.247 . S
C146 O145 1.208 . S
C147 O152 1.247 . S
C147 O153 1.208 . S
C148 O140 1.315 . S
C148 O143 1.279 . S
C149 O150 1.315 . S
C149 O151 1.279 . S
O150 Cd142 2.223 . S
O150 C149 1.315 . S
O151 Cd141 2.240 . S
O151 C149 1.279 . S
O152 Cd142 2.297 . S
O152 C147 1.247 . S
O153 Cd142 2.439 . S
O153 C147 1.208 . S
O154 Cd155 2.223 . S
O154 C162 1.315 . S
Cd155 O154 2.223 . S
Cd155 O158 2.297 . S
Cd155 O159 2.439 . S
Cd155 O165 2.240 . S
Cd156 O157 2.240 . S
Cd156 O164 2.223 . S
Cd156 O166 2.297 . S
Cd156 O167 2.439 . S
O157 Cd156 2.240 . S
O157 C162 1.279 . S
O158 Cd155 2.297 . S
O158 C160 1.247 . S
O159 Cd155 2.439 . S
O159 C160 1.208 . S
C160 O158 1.247 . S
C160 O159 1.208 . S
C161 O166 1.247 . S
C161 O167 1.208 . S
C162 O154 1.315 . S
C162 O157 1.279 . S
C163 O164 1.315 . S
C163 O165 1.279 . S
O164 Cd156 2.223 . S
O164 C163 1.315 . S
O165 Cd155 2.240 . S
O165 C163 1.279 . S
O166 Cd156 2.297 . S
O166 C161 1.247 . S
O167 Cd156 2.439 . S
O167 C161 1.208 . S
O168 Cd169 2.223 . S
O168 C176 1.315 . S
Cd169 O168 2.223 . S
Cd169 O172 2.297 1_556 S
Cd169 O173 2.439 . S
Cd169 O179 2.240 . S
Cd170 O171 2.240 . S
Cd170 O178 2.223 . S
Cd170 O180 2.297 1_455 S
Cd170 O181 2.439 1_455 S
O171 Cd170 2.240 . S
O171 C176 1.279 . S
O172 Cd169 2.297 1_554 S
O172 C174 1.247 1_554 S
O173 Cd169 2.439 . S
O173 C174 1.208 . S
C174 O172 1.247 1_556 S
C174 O173 1.208 . S
C175 O180 1.247 . S
C175 O181 1.208 . S
C176 O168 1.315 . S
C176 O171 1.279 . S
C177 O178 1.315 . S
C177 O179 1.279 . S
O178 Cd170 2.223 . S
O178 C177 1.315 . S
O179 Cd169 2.240 . S
O179 C177 1.279 . S
O180 Cd170 2.297 1_655 S
O180 C175 1.247 . S
O181 Cd170 2.439 1_655 S
O181 C175 1.208 . S
O182 Cd183 2.223 1_455 S
O182 C190 1.315 . S
Cd183 O182 2.223 1_655 S
Cd183 O186 2.297 . S
Cd183 O187 2.439 . S
Cd183 O193 2.240 1_655 S
Cd184 O185 2.240 1_455 S
Cd184 O192 2.223 . S
Cd184 O194 2.297 . S
Cd184 O195 2.439 1_455 S
O185 Cd184 2.240 1_655 S
O185 C190 1.279 1_655 S
O186 Cd183 2.297 . S
O186 C188 1.247 . S
O187 Cd183 2.439 . S
O187 C188 1.208 . S
C188 O186 1.247 . S
C188 O187 1.208 . S
C189 O194 1.247 . S
C189 O195 1.208 1_455 S
C190 O182 1.315 . S
C190 O185 1.279 1_455 S
C191 O192 1.315 . S
C191 O193 1.279 . S
O192 Cd184 2.223 . S
O192 C191 1.315 . S
O193 Cd183 2.240 1_455 S
O193 C191 1.279 . S
O194 Cd184 2.297 . S
O194 C189 1.247 . S
O195 Cd184 2.439 1_655 S
O195 C189 1.208 1_655 S
O196 Cd197 2.223 . S
O196 C204 1.315 . S
Cd197 O196 2.223 . S
Cd197 O200 2.297 . S
Cd197 O201 2.439 . S
Cd197 O207 2.240 . S
Cd198 O199 2.240 . S
Cd198 O206 2.223 . S
Cd198 O208 2.297 . S
Cd198 O209 2.439 . S
O199 Cd198 2.240 . S
O199 C204 1.279 . S
O200 Cd197 2.297 . S
O200 C202 1.247 . S
O201 Cd197 2.439 . S
O201 C202 1.208 . S
C202 O200 1.247 . S
C202 O201 1.208 . S
C203 O208 1.247 . S
C203 O209 1.208 . S
C204 O196 1.315 . S
C204 O199 1.279 . S
C205 O206 1.315 . S
C205 O207 1.279 . S
O206 Cd198 2.223 . S
O206 C205 1.315 . S
O207 Cd197 2.240 . S
O207 C205 1.279 . S
O208 Cd198 2.297 . S
O208 C203 1.247 . S
O209 Cd198 2.439 . S
O209 C203 1.208 . S
O210 Cd211 2.223 . S
O210 C218 1.315 . S
Cd211 O210 2.223 . S
Cd211 O214 2.297 . S
Cd211 O215 2.439 . S
Cd211 O221 2.240 . S
Cd212 O213 2.240 . S
Cd212 O220 2.223 . S
Cd212 O222 2.297 . S
Cd212 O223 2.439 . S
O213 Cd212 2.240 . S
O213 C218 1.279 . S
O214 Cd211 2.297 . S
O214 C216 1.247 . S
O215 Cd211 2.439 . S
O215 C216 1.208 . S
C216 O214 1.247 . S
C216 O215 1.208 . S
C217 O222 1.247 . S
C217 O223 1.208 . S
C218 O210 1.315 . S
C218 O213 1.279 . S
C219 O220 1.315 . S
C219 O221 1.279 . S
O220 Cd212 2.223 . S
O220 C219 1.315 . S
O221 Cd211 2.240 . S
O221 C219 1.279 . S
O222 Cd212 2.297 . S
O222 C217 1.247 . S
O223 Cd212 2.439 . S
O223 C217 1.208 . S
O224 Cd225 2.223 . S
O224 C232 1.315 . S
Cd225 O224 2.223 . S
Cd225 O228 2.297 . S
Cd225 O229 2.439 . S
Cd225 O235 2.240 . S
Cd226 O227 2.240 . S
Cd226 O234 2.215 1_545 S
Cd226 O236 2.297 1_655 S
Cd226 O237 2.439 . S
O227 Cd226 2.240 . S
O227 C232 1.279 . S
O228 Cd225 2.297 . S
O228 C230 1.247 . S
O229 Cd225 2.439 . S
O229 C230 1.208 . S
C230 O228 1.247 . S
C230 O229 1.208 . S
C231 O236 1.247 1_655 S
C231 O237 1.208 . S
C232 O224 1.315 . S
C232 O227 1.279 . S
C233 O234 1.314 1_545 S
C233 O235 1.279 . S
O234 Cd226 2.215 1_565 S
O234 C233 1.314 1_565 S
O235 Cd225 2.240 . S
O235 C233 1.279 . S
O236 Cd226 2.297 1_455 S
O236 C231 1.247 1_455 S
O237 Cd226 2.439 . S
O237 C231 1.208 . S
O238 Cd239 2.223 . S
O238 C246 1.315 . S
Cd239 O238 2.223 . S
Cd239 O242 2.297 . S
Cd239 O243 2.439 . S
Cd239 O249 2.240 . S
Cd240 O241 2.240 . S
Cd240 O248 2.223 . S
Cd240 O250 2.297 . S
Cd240 O251 2.439 . S
O241 Cd240 2.240 . S
O241 C246 1.279 . S
O242 Cd239 2.297 . S
O242 C244 1.247 . S
O243 Cd239 2.439 . S
O243 C244 1.208 . S
C244 O242 1.247 . S
C244 O243 1.208 . S
C245 O250 1.247 . S
C245 O251 1.208 . S
C246 O238 1.315 . S
C246 O241 1.279 . S
C247 O248 1.315 . S
C247 O249 1.279 . S
O248 Cd240 2.223 . S
O248 C247 1.315 . S
O249 Cd239 2.240 . S
O249 C247 1.279 . S
O250 Cd240 2.297 . S
O250 C245 1.247 . S
O251 Cd240 2.439 . S
O251 C245 1.208 . S
O252 Cd253 2.223 1_545 S
O252 C260 1.315 . S
Cd253 O252 2.223 1_565 S
Cd253 O256 2.297 . S
Cd253 O257 2.439 . S
Cd253 O263 2.240 1_565 S
Cd254 O255 2.240 1_545 S
Cd254 O262 2.223 . S
Cd254 O264 2.297 . S
Cd254 O265 2.435 1_545 S
O255 Cd254 2.240 1_565 S
O255 C260 1.279 1_565 S
O256 Cd253 2.297 . S
O256 C258 1.247 . S
O257 Cd253 2.439 . S
O257 C258 1.208 . S
C258 O256 1.247 . S
C258 O257 1.208 . S
C259 O264 1.247 . S
C259 O265 1.203 1_545 S
C260 O252 1.315 . S
C260 O255 1.279 1_545 S
C261 O262 1.315 . S
C261 O263 1.279 . S
O262 Cd254 2.223 . S
O262 C261 1.315 . S
O263 Cd253 2.240 1_545 S
O263 C261 1.279 . S
O264 Cd254 2.297 . S
O264 C259 1.247 . S
O265 Cd254 2.435 1_565 S
O265 C259 1.203 1_565 S
O266 Cd267 2.223 . S
O266 C274 1.315 . S
Cd267 O266 2.223 . S
Cd267 O270 2.297 1_565 S
Cd267 O271 2.439 . S
Cd267 O277 2.240 . S
Cd268 O269 2.240 . S
Cd268 O276 2.223 . S
Cd268 O278 2.297 1_554 S
Cd268 O279 2.439 1_554 S
O269 Cd268 2.240 . S
O269 C274 1.279 . S
O270 Cd267 2.297 1_545 S
O270 C272 1.247 1_545 S
O271 Cd267 2.439 . S
O271 C272 1.208 . S
C272 O270 1.247 1_565 S
C272 O271 1.208 . S
C273 O278 1.247 . S
C273 O279 1.208 . S
C274 O266 1.315 . S
C274 O269 1.279 . S
C275 O276 1.315 . S
C275 O277 1.279 . S
O276 Cd268 2.223 . S
O276 C275 1.315 . S
O277 Cd267 2.240 . S
O277 C275 1.279 . S
O278 Cd268 2.297 1_556 S
O278 C273 1.247 . S
O279 Cd268 2.439 1_556 S
O279 C273 1.208 . S
O280 Cd281 2.223 . S
O280 C288 1.315 . S
Cd281 O280 2.223 . S
Cd281 O284 2.297 . S
Cd281 O285 2.439 1_554 S
Cd281 O291 2.240 1_554 S
Cd282 O283 2.240 1_556 S
Cd282 O290 2.223 1_556 S
Cd282 O292 2.297 . S
Cd282 O293 2.439 . S
O283 Cd282 2.240 1_554 S
O283 C288 1.279 . S
O284 Cd281 2.297 . S
O284 C286 1.247 . S
O285 Cd281 2.439 1_556 S
O285 C286 1.208 1_556 S
C286 O284 1.247 . S
C286 O285 1.208 1_554 S
C287 O292 1.247 . S
C287 O293 1.208 . S
C288 O280 1.315 . S
C288 O283 1.279 . S
C289 O290 1.315 . S
C289 O291 1.279 1_554 S
O290 Cd282 2.223 1_554 S
O290 C289 1.315 . S
O291 Cd281 2.240 1_556 S
O291 C289 1.279 1_556 S
O292 Cd282 2.297 . S
O292 C287 1.247 . S
O293 Cd282 2.439 . S
O293 C287 1.208 . S
O294 Cd295 2.223 . S
O294 C302 1.315 . S
Cd295 O294 2.223 . S
Cd295 O298 2.297 . S
Cd295 O299 2.439 . S
Cd295 O305 2.240 . S
Cd296 O297 2.240 . S
Cd296 O304 2.223 . S
Cd296 O306 2.297 . S
Cd296 O307 2.439 . S
O297 Cd296 2.240 . S
O297 C302 1.279 . S
O298 Cd295 2.297 . S
O298 C300 1.247 . S
O299 Cd295 2.439 . S
O299 C300 1.208 . S
C300 O298 1.247 . S
C300 O299 1.208 . S
C301 O306 1.247 . S
C301 O307 1.208 . S
C302 O294 1.315 . S
C302 O297 1.279 . S
C303 O304 1.315 . S
C303 O305 1.279 . S
O304 Cd296 2.223 . S
O304 C303 1.315 . S
O305 Cd295 2.240 . S
O305 C303 1.279 . S
O306 Cd296 2.297 . S
O306 C301 1.247 . S
O307 Cd296 2.439 . S
O307 C301 1.208 . S
O308 Cd309 2.223 . S
O308 C316 1.315 . S
Cd309 O308 2.223 . S
Cd309 O312 2.297 . S
Cd309 O313 2.439 . S
Cd309 O319 2.240 . S
Cd310 O311 2.240 . S
Cd310 O318 2.223 . S
Cd310 O320 2.297 . S
Cd310 O321 2.439 . S
O311 Cd310 2.240 . S
O311 C316 1.279 . S
O312 Cd309 2.297 . S
O312 C314 1.247 . S
O313 Cd309 2.439 . S
O313 C314 1.208 . S
C314 O312 1.247 . S
C314 O313 1.208 . S
C315 O320 1.247 . S
C315 O321 1.208 . S
C316 O308 1.315 . S
C316 O311 1.279 . S
C317 O318 1.315 . S
C317 O319 1.279 . S
O318 Cd310 2.223 . S
O318 C317 1.315 . S
O319 Cd309 2.240 . S
O319 C317 1.279 . S
O320 Cd310 2.297 . S
O320 C315 1.247 . S
O321 Cd310 2.439 . S
O321 C315 1.208 . S
O322 Cd323 2.223 . S
O322 C330 1.315 . S
Cd323 O322 2.223 . S
Cd323 O326 2.297 . S
Cd323 O327 2.439 . S
Cd323 O333 2.240 . S
Cd324 O325 2.240 . S
Cd324 O332 2.223 . S
Cd324 O334 2.297 . S
Cd324 O335 2.439 . S
O325 Cd324 2.240 . S
O325 C330 1.279 . S
O326 Cd323 2.297 . S
O326 C328 1.247 . S
O327 Cd323 2.439 . S
O327 C328 1.208 . S
C328 O326 1.247 . S
C328 O327 1.208 . S
C329 O334 1.247 . S
C329 O335 1.208 . S
C330 O322 1.315 . S
C330 O325 1.279 . S
C331 O332 1.315 . S
C331 O333 1.279 . S
O332 Cd324 2.223 . S
O332 C331 1.315 . S
O333 Cd323 2.240 . S
O333 C331 1.279 . S
O334 Cd324 2.297 . S
O334 C329 1.247 . S
O335 Cd324 2.439 . S
O335 C329 1.208 . S
Co336 N341 2.057 1_554 S
Co336 O353 2.021 1_544 S
Co336 O356 2.062 1_455 S
Co336 O360 2.117 . S
Co336 O361 2.020 . S
C337 O357 1.259 . S
C337 O360 1.258 . S
Co338 N347 2.057 1_545 S
Co338 O354 2.117 1_545 S
Co338 O355 2.033 . S
Co338 O357 2.021 . S
Co338 O362 2.062 . S
C339 N341 1.316 . S
C339 N342 1.347 . S
C339 H344 0.931 . S
C340 N341 1.375 . S
C340 C343 1.343 1_455 S
C340 H345 0.930 . S
N341 Co336 2.057 1_556 S
N341 C339 1.316 . S
N341 C340 1.375 . S
N342 C339 1.347 . S
N342 C343 1.373 1_455 S
C343 C340 1.343 1_655 S
C343 N342 1.373 1_655 S
C343 H364 0.937 . S
H344 C339 0.931 . S
H345 C340 0.930 . S
C346 O353 1.259 1_554 S
C346 O354 1.258 . S
N347 Co338 2.057 1_565 S
N347 C348 1.316 1_565 S
N347 C349 1.375 . S
C348 N347 1.316 1_545 S
C348 N350 1.347 1_545 S
C348 H359 0.931 . S
C349 N347 1.375 . S
C349 C351 1.350 . S
C349 H358 0.930 . S
N350 C348 1.347 1_565 S
N350 C351 1.373 . S
C351 C349 1.350 . S
C351 N350 1.373 . S
C351 H365 0.931 . S
C352 O355 1.247 1_655 S
C352 O356 1.255 . S
O353 Co336 2.021 1_566 S
O353 C346 1.259 1_556 S
O354 Co338 2.117 1_565 S
O354 C346 1.258 . S
O355 Co338 2.033 . S
O355 C352 1.247 1_455 S
O356 Co336 2.062 1_655 S
O356 C352 1.255 . S
O357 C337 1.259 . S
O357 Co338 2.021 . S
H358 C349 0.930 . S
H359 C348 0.931 . S
O360 Co336 2.117 . S
O360 C337 1.258 . S
O361 Co336 2.020 . S
O361 C363 1.256 . S
O362 Co338 2.062 . S
O362 C363 1.255 . S
C363 O361 1.256 . S
C363 O362 1.255 . S
H364 C343 0.937 . S
H365 C351 0.931 . S
Co366 N371 2.057 . S
Co366 O383 2.021 . S
Co366 O386 2.062 . S
Co366 O390 2.117 . S
Co366 O391 2.020 . S
C367 O387 1.259 . S
C367 O390 1.258 . S
Co368 N377 2.057 . S
Co368 O384 2.117 . S
Co368 O385 2.020 . S
Co368 O387 2.021 . S
Co368 O392 2.062 . S
C369 N371 1.316 . S
C369 N372 1.347 . S
C369 H374 0.931 . S
C370 N371 1.375 . S
C370 C373 1.350 . S
C370 H375 0.930 . S
N371 Co366 2.057 . S
N371 C369 1.316 . S
N371 C370 1.375 . S
N372 C369 1.347 . S
N372 C373 1.373 . S
C373 C370 1.350 . S
C373 N372 1.373 . S
C373 H394 0.931 . S
H374 C369 0.931 . S
H375 C370 0.930 . S
C376 O383 1.259 . S
C376 O384 1.258 . S
N377 Co368 2.057 . S
N377 C378 1.316 . S
N377 C379 1.375 . S
C378 N377 1.316 . S
C378 N380 1.347 . S
C378 H389 0.931 . S
C379 N377 1.375 . S
C379 C381 1.350 . S
C379 H388 0.930 . S
N380 C378 1.347 . S
N380 C381 1.373 . S
C381 C379 1.350 . S
C381 N380 1.373 . S
C381 H395 0.931 . S
C382 O385 1.256 . S
C382 O386 1.255 . S
O383 Co366 2.021 . S
O383 C376 1.259 . S
O384 Co368 2.117 . S
O384 C376 1.258 . S
O385 Co368 2.020 . S
O385 C382 1.256 . S
O386 Co366 2.062 . S
O386 C382 1.255 . S
O387 C367 1.259 . S
O387 Co368 2.021 . S
H388 C379 0.930 . S
H389 C378 0.931 . S
O390 Co366 2.117 . S
O390 C367 1.258 . S
O391 Co366 2.020 . S
O391 C393 1.256 . S
O392 Co368 2.062 . S
O392 C393 1.255 . S
C393 O391 1.256 . S
C393 O392 1.255 . S
H394 C373 0.931 . S
H395 C381 0.931 . S
Co396 N401 2.057 . S
Co396 O413 2.021 1_545 S
Co396 O416 2.062 . S
Co396 O420 2.117 . S
Co396 O421 2.020 . S
C397 O417 1.259 . S
C397 O420 1.258 . S
Co398 N407 2.057 . S
Co398 O414 2.117 . S
Co398 O415 2.020 . S
Co398 O417 2.021 . S
Co398 O422 2.062 . S
C399 N401 1.316 1_565 S
C399 N402 1.349 . S
C399 H404 0.931 . S
C400 N401 1.375 . S
C400 C403 1.350 . S
C400 H405 0.930 . S
N401 Co396 2.057 . S
N401 C399 1.316 1_545 S
N401 C400 1.375 . S
N402 C399 1.349 . S
N402 C403 1.360 1_565 S
C403 C400 1.350 . S
C403 N402 1.360 1_545 S
C403 H424 0.931 . S
H404 C399 0.931 . S
H405 C400 0.930 . S
C406 O413 1.259 . S
C406 O414 1.258 1_565 S
N407 Co398 2.057 . S
N407 C408 1.316 . S
N407 C409 1.375 . S
C408 N407 1.316 . S
C408 N410 1.347 . S
C408 H419 0.931 . S
C409 N407 1.375 . S
C409 C411 1.350 . S
C409 H418 0.930 . S
N410 C408 1.347 . S
N410 C411 1.373 . S
C411 C409 1.350 . S
C411 N410 1.373 . S
C411 H425 0.931 . S
C412 O415 1.256 . S
C412 O416 1.255 . S
O413 Co396 2.021 1_565 S
O413 C406 1.259 . S
O414 Co398 2.117 . S
O414 C406 1.258 1_545 S
O415 Co398 2.020 . S
O415 C412 1.256 . S
O416 Co396 2.062 . S
O416 C412 1.255 . S
O417 C397 1.259 . S
O417 Co398 2.021 . S
H418 C409 0.930 . S
H419 C408 0.931 . S
O420 Co396 2.117 . S
O420 C397 1.258 . S
O421 Co396 2.020 . S
O421 C423 1.256 . S
O422 Co398 2.062 . S
O422 C423 1.255 . S
C423 O421 1.256 . S
C423 O422 1.255 . S
H424 C403 0.931 . S
H425 C411 0.931 . S
Co426 N431 2.057 . S
Co426 O443 2.021 . S
Co426 O446 2.062 . S
Co426 O450 2.117 . S
Co426 O451 2.020 . S
C427 O447 1.259 . S
C427 O450 1.258 . S
Co428 N437 2.057 . S
Co428 O444 2.117 . S
Co428 O445 2.020 . S
Co428 O447 2.021 . S
Co428 O452 2.062 . S
C429 N431 1.316 . S
C429 N432 1.347 . S
C429 H434 0.931 . S
C430 N431 1.375 . S
C430 C433 1.350 . S
C430 H435 0.930 . S
N431 Co426 2.057 . S
N431 C429 1.316 . S
N431 C430 1.375 . S
N432 C429 1.347 . S
N432 C433 1.373 . S
C433 C430 1.350 . S
C433 N432 1.373 . S
C433 H454 0.931 . S
H434 C429 0.931 . S
H435 C430 0.930 . S
C436 O443 1.259 . S
C436 O444 1.258 . S
N437 Co428 2.057 . S
N437 C438 1.316 . S
N437 C439 1.375 . S
C438 N437 1.316 . S
C438 N440 1.347 . S
C438 H449 0.931 . S
C439 N437 1.375 . S
C439 C441 1.350 . S
C439 H448 0.930 . S
N440 C438 1.347 . S
N440 C441 1.373 . S
C441 C439 1.350 . S
C441 N440 1.373 . S
C441 H455 0.931 . S
C442 O445 1.256 . S
C442 O446 1.255 . S
O443 Co426 2.021 . S
O443 C436 1.259 . S
O444 Co428 2.117 . S
O444 C436 1.258 . S
O445 Co428 2.020 . S
O445 C442 1.256 . S
O446 Co426 2.062 . S
O446 C442 1.255 . S
O447 C427 1.259 . S
O447 Co428 2.021 . S
H448 C439 0.930 . S
H449 C438 0.931 . S
O450 Co426 2.117 . S
O450 C427 1.258 . S
O451 Co426 2.020 . S
O451 C453 1.256 . S
O452 Co428 2.062 . S
O452 C453 1.255 . S
C453 O451 1.256 . S
C453 O452 1.255 . S
H454 C433 0.931 . S
H455 C441 0.931 . S
Co456 N461 2.057 1_545 S
Co456 O473 2.021 . S
Co456 O476 2.062 1_545 S
Co456 O480 2.117 . S
Co456 O481 2.020 1_455 S
C457 O477 1.259 1_655 S
C457 O480 1.258 1_655 S
Co458 N467 2.057 . S
Co458 O474 2.117 . S
Co458 O475 2.020 . S
Co458 O477 2.021 . S
Co458 O482 2.062 1_455 S
C459 N461 1.316 . S
C459 N462 1.347 . S
C459 H464 0.931 . S
C460 N461 1.375 1_655 S
C460 C463 1.350 . S
C460 H465 0.930 . S
N461 Co456 2.057 1_565 S
N461 C459 1.316 . S
N461 C460 1.375 1_455 S
N462 C459 1.347 . S
N462 C463 1.373 1_455 S
C463 C460 1.350 . S
C463 N462 1.373 1_655 S
C463 H484 0.931 . S
H464 C459 0.931 . S
H465 C460 0.930 . S
C466 O473 1.259 . S
C466 O474 1.258 . S
N467 Co458 2.057 . S
N467 C468 1.316 . S
N467 C469 1.375 . S
C468 N467 1.316 . S
C468 N470 1.347 . S
C468 H479 0.931 . S
C469 N467 1.375 . S
C469 C471 1.350 . S
C469 H478 0.930 . S
N470 C468 1.347 . S
N470 C471 1.373 . S
C471 C469 1.350 . S
C471 N470 1.373 . S
C471 H485 0.931 . S
C472 O475 1.256 . S
C472 O476 1.255 1_545 S
O473 Co456 2.021 . S
O473 C466 1.259 . S
O474 Co458 2.117 . S
O474 C466 1.258 . S
O475 Co458 2.020 . S
O475 C472 1.256 . S
O476 Co456 2.062 1_565 S
O476 C472 1.255 1_565 S
O477 C457 1.259 1_455 S
O477 Co458 2.021 . S
H478 C469 0.930 . S
H479 C468 0.931 . S
O480 Co456 2.117 . S
O480 C457 1.258 1_455 S
O481 Co456 2.020 1_655 S
O481 C483 1.256 . S
O482 Co458 2.062 1_655 S
O482 C483 1.255 . S
C483 O481 1.256 . S
C483 O482 1.255 . S
H484 C463 0.931 . S
H485 C471 0.931 . S
Co486 N491 2.057 . S
Co486 O503 2.021 . S
Co486 O506 2.062 . S
Co486 O510 2.117 . S
Co486 O511 2.020 . S
C487 O507 1.259 . S
C487 O510 1.258 . S
Co488 N497 2.057 . S
Co488 O504 2.117 . S
Co488 O505 2.020 . S
Co488 O507 2.021 . S
Co488 O512 2.062 . S
C489 N491 1.316 . S
C489 N492 1.347 . S
C489 H494 0.931 . S
C490 N491 1.375 . S
C490 C493 1.350 . S
C490 H495 0.930 . S
N491 Co486 2.057 . S
N491 C489 1.316 . S
N491 C490 1.375 . S
N492 C489 1.347 . S
N492 C493 1.373 . S
C493 C490 1.350 . S
C493 N492 1.373 . S
C493 H514 0.931 1_565 S
H494 C489 0.931 . S
H495 C490 0.930 . S
C496 O503 1.259 . S
C496 O504 1.258 . S
N497 Co488 2.057 . S
N497 C498 1.316 . S
N497 C499 1.375 . S
C498 N497 1.316 . S
C498 N500 1.347 . S
C498 H509 0.931 . S
C499 N497 1.375 . S
C499 C501 1.350 . S
C499 H508 0.930 . S
N500 C498 1.347 . S
N500 C501 1.373 . S
C501 C499 1.350 . S
C501 N500 1.373 . S
C501 H515 0.931 . S
C502 O505 1.256 . S
C502 O506 1.255 . S
O503 Co486 2.021 . S
O503 C496 1.259 . S
O504 Co488 2.117 . S
O504 C496 1.258 . S
O505 Co488 2.020 . S
O505 C502 1.256 . S
O506 Co486 2.062 . S
O506 C502 1.255 . S
O507 C487 1.259 . S
O507 Co488 2.021 . S
H508 C499 0.930 . S
H509 C498 0.931 . S
O510 Co486 2.117 . S
O510 C487 1.258 . S
O511 Co486 2.020 . S
O511 C513 1.256 . S
O512 Co488 2.062 . S
O512 C513 1.255 . S
C513 O511 1.256 . S
C513 O512 1.255 . S
H514 C493 0.931 1_545 S
H515 C501 0.931 . S
Co516 N521 2.057 1_554 S
Co516 O533 2.021 . S
Co516 O536 2.062 1_554 S
Co516 O540 2.117 . S
Co516 O541 2.020 1_545 S
C517 O537 1.259 . S
C517 O540 1.258 . S
Co518 N527 2.057 . S
Co518 O534 2.117 . S
Co518 O535 2.020 . S
Co518 O537 2.021 . S
Co518 O542 2.062 . S
C519 N521 1.316 . S
C519 N522 1.347 . S
C519 H524 0.931 . S
C520 N521 1.375 . S
C520 C523 1.350 . S
C520 H525 0.930 1_545 S
N521 Co516 2.057 1_556 S
N521 C519 1.316 . S
N521 C520 1.375 . S
N522 C519 1.347 . S
N522 C523 1.373 . S
C523 C520 1.350 . S
C523 N522 1.373 . S
C523 H544 0.931 1_545 S
H524 C519 0.931 . S
H525 C520 0.930 1_565 S
C526 O533 1.259 . S
C526 O534 1.258 . S
N527 Co518 2.057 . S
N527 C528 1.316 . S
N527 C529 1.375 . S
C528 N527 1.316 . S
C528 N530 1.347 . S
C528 H539 0.931 . S
C529 N527 1.375 . S
C529 C531 1.350 . S
C529 H538 0.930 . S
N530 C528 1.347 . S
N530 C531 1.373 . S
C531 C529 1.350 . S
C531 N530 1.373 . S
C531 H545 0.931 . S
C532 O535 1.256 . S
C532 O536 1.255 1_554 S
O533 Co516 2.021 . S
O533 C526 1.259 . S
O534 Co518 2.117 . S
O534 C526 1.258 . S
O535 Co518 2.020 . S
O535 C532 1.256 . S
O536 Co516 2.062 1_556 S
O536 C532 1.255 1_556 S
O537 C517 1.259 . S
O537 Co518 2.021 . S
H538 C529 0.930 . S
H539 C528 0.931 . S
O540 Co516 2.117 . S
O540 C517 1.258 . S
O541 Co516 2.020 1_565 S
O541 C543 1.256 . S
O542 Co518 2.062 . S
O542 C543 1.255 1_545 S
C543 O541 1.256 . S
C543 O542 1.255 1_565 S
H544 C523 0.931 1_565 S
H545 C531 0.931 . S
Co546 N551 2.057 . S
Co546 O563 2.021 . S
Co546 O566 2.062 . S
Co546 O570 2.117 . S
Co546 O571 2.020 . S
C547 O567 1.259 . S
C547 O570 1.258 . S
Co548 N557 2.057 . S
Co548 O564 2.117 . S
Co548 O565 2.020 . S
Co548 O567 2.021 . S
Co548 O572 2.062 . S
C549 N551 1.316 . S
C549 N552 1.347 . S
C549 H554 0.931 . S
C550 N551 1.375 . S
C550 C553 1.350 . S
C550 H555 0.930 . S
N551 Co546 2.057 . S
N551 C549 1.316 . S
N551 C550 1.375 . S
N552 C549 1.347 . S
N552 C553 1.373 . S
C553 C550 1.350 . S
C553 N552 1.373 . S
C553 H574 0.931 . S
H554 C549 0.931 . S
H555 C550 0.930 . S
C556 O563 1.259 . S
C556 O564 1.258 . S
N557 Co548 2.057 . S
N557 C558 1.316 . S
N557 C559 1.375 . S
C558 N557 1.316 . S
C558 N560 1.347 . S
C558 H569 0.931 . S
C559 N557 1.375 . S
C559 C561 1.350 . S
C559 H568 0.930 . S
N560 C558 1.347 . S
N560 C561 1.373 . S
C561 C559 1.350 . S
C561 N560 1.373 . S
C561 H575 0.931 . S
C562 O565 1.256 . S
C562 O566 1.255 . S
O563 Co546 2.021 . S
O563 C556 1.259 . S
O564 Co548 2.117 . S
O564 C556 1.258 . S
O565 Co548 2.020 . S
O565 C562 1.256 . S
O566 Co546 2.062 . S
O566 C562 1.255 . S
O567 C547 1.259 . S
O567 Co548 2.021 . S
H568 C559 0.930 . S
H569 C558 0.931 . S
O570 Co546 2.117 . S
O570 C547 1.258 . S
O571 Co546 2.020 . S
O571 C573 1.256 . S
O572 Co548 2.062 . S
O572 C573 1.255 . S
C573 O571 1.256 . S
C573 O572 1.255 . S
H574 C553 0.931 . S
H575 C561 0.931 . S
Co576 N581 2.057 . S
Co576 O593 2.021 1_554 S
Co576 O596 2.062 . S
Co576 O600 2.117 . S
Co576 O601 2.020 . S
C577 O597 1.259 . S
C577 O600 1.258 . S
Co578 N587 2.057 . S
Co578 O594 2.117 . S
Co578 O595 2.020 . S
Co578 O597 2.021 . S
Co578 O602 2.062 . S
C579 N581 1.316 . S
C579 N582 1.347 . S
C579 H584 0.931 1_554 S
C580 N581 1.375 . S
C580 C583 1.350 . S
C580 H585 0.930 . S
N581 Co576 2.057 . S
N581 C579 1.316 . S
N581 C580 1.375 . S
N582 C579 1.347 . S
N582 C583 1.373 . S
C583 C580 1.350 . S
C583 N582 1.373 . S
C583 H604 0.931 . S
H584 C579 0.931 1_556 S
H585 C580 0.930 . S
C586 O593 1.259 . S
C586 O594 1.258 1_556 S
N587 Co578 2.057 . S
N587 C588 1.316 . S
N587 C589 1.375 . S
C588 N587 1.316 . S
C588 N590 1.347 . S
C588 H599 0.931 . S
C589 N587 1.375 . S
C589 C591 1.350 . S
C589 H598 0.930 . S
N590 C588 1.347 . S
N590 C591 1.373 . S
C591 C589 1.350 . S
C591 N590 1.373 . S
C591 H605 0.931 . S
C592 O595 1.256 . S
C592 O596 1.255 . S
O593 Co576 2.021 1_556 S
O593 C586 1.259 . S
O594 Co578 2.117 . S
O594 C586 1.258 1_554 S
O595 Co578 2.020 . S
O595 C592 1.256 . S
O596 Co576 2.062 . S
O596 C592 1.255 . S
O597 C577 1.259 . S
O597 Co578 2.021 . S
H598 C589 0.930 . S
H599 C588 0.931 . S
O600 Co576 2.117 . S
O600 C577 1.258 . S
O601 Co576 2.020 . S
O601 C603 1.256 . S
O602 Co578 2.062 . S
O602 C603 1.255 . S
C603 O601 1.256 . S
C603 O602 1.255 . S
H604 C583 0.931 . S
H605 C591 0.931 . S
Co606 N611 2.057 . S
Co606 O623 2.021 . S
Co606 O626 2.062 . S
Co606 O630 2.117 . S
Co606 O631 2.020 . S
C607 O627 1.259 . S
C607 O630 1.258 . S
Co608 N617 2.057 . S
Co608 O624 2.117 . S
Co608 O625 2.020 . S
Co608 O627 2.021 . S
Co608 O632 2.062 . S
C609 N611 1.316 . S
C609 N612 1.347 . S
C609 H614 0.931 . S
C610 N611 1.375 . S
C610 C613 1.350 . S
C610 H615 0.930 . S
N611 Co606 2.057 . S
N611 C609 1.316 . S
N611 C610 1.375 . S
N612 C609 1.347 . S
N612 C613 1.373 . S
C613 C610 1.350 . S
C613 N612 1.373 . S
C613 H634 0.931 . S
H614 C609 0.931 . S
H615 C610 0.930 . S
C616 O623 1.259 . S
C616 O624 1.258 . S
N617 Co608 2.057 . S
N617 C618 1.316 . S
N617 C619 1.375 . S
C618 N617 1.316 . S
C618 N620 1.347 . S
C618 H629 0.931 . S
C619 N617 1.375 . S
C619 C621 1.350 . S
C619 H628 0.930 . S
N620 C618 1.347 . S
N620 C621 1.373 . S
C621 C619 1.350 . S
C621 N620 1.373 . S
C621 H635 0.931 . S
C622 O625 1.256 . S
C622 O626 1.255 . S
O623 Co606 2.021 . S
O623 C616 1.259 . S
O624 Co608 2.117 . S
O624 C616 1.258 . S
O625 Co608 2.020 . S
O625 C622 1.256 . S
O626 Co606 2.062 . S
O626 C622 1.255 . S
O627 C607 1.259 . S
O627 Co608 2.021 . S
H628 C619 0.930 . S
H629 C618 0.931 . S
O630 Co606 2.117 . S
O630 C607 1.258 . S
O631 Co606 2.020 . S
O631 C633 1.256 . S
O632 Co608 2.062 . S
O632 C633 1.255 . S
C633 O631 1.256 . S
C633 O632 1.255 . S
H634 C613 0.931 . S
H635 C621 0.931 . S
Co636 N641 2.057 . S
Co636 O653 2.021 1_455 S
Co636 O656 2.062 . S
Co636 O660 2.117 . S
Co636 O661 2.020 . S
C637 O657 1.259 . S
C637 O660 1.258 . S
Co638 N647 2.057 . S
Co638 O654 2.117 . S
Co638 O655 2.020 . S
Co638 O657 2.021 . S
Co638 O662 2.062 . S
C639 N641 1.316 . S
C639 N642 1.347 . S
C639 H644 0.931 1_455 S
C640 N641 1.375 . S
C640 C643 1.350 . S
C640 H645 0.930 . S
N641 Co636 2.057 . S
N641 C639 1.316 . S
N641 C640 1.375 . S
N642 C639 1.347 . S
N642 C643 1.373 . S
C643 C640 1.350 . S
C643 N642 1.373 . S
C643 H664 0.931 . S
H644 C639 0.931 1_655 S
H645 C640 0.930 . S
C646 O653 1.259 . S
C646 O654 1.258 1_655 S
N647 Co638 2.057 . S
N647 C648 1.316 . S
N647 C649 1.375 . S
C648 N647 1.316 . S
C648 N650 1.347 . S
C648 H659 0.931 . S
C649 N647 1.375 . S
C649 C651 1.350 . S
C649 H658 0.930 . S
N650 C648 1.347 . S
N650 C651 1.373 . S
C651 C649 1.350 . S
C651 N650 1.373 . S
C651 H665 0.931 . S
C652 O655 1.256 . S
C652 O656 1.255 . S
O653 Co636 2.021 1_655 S
O653 C646 1.259 . S
O654 Co638 2.117 . S
O654 C646 1.258 1_455 S
O655 Co638 2.020 . S
O655 C652 1.256 . S
O656 Co636 2.062 . S
O656 C652 1.255 . S
O657 C637 1.259 . S
O657 Co638 2.021 . S
H658 C649 0.930 . S
H659 C648 0.931 . S
O660 Co636 2.117 . S
O660 C637 1.258 . S
O661 Co636 2.020 . S
O661 C663 1.256 . S
O662 Co638 2.062 . S
O662 C663 1.255 . S
C663 O661 1.256 . S
C663 O662 1.255 . S
H664 C643 0.931 . S
H665 C651 0.931 . S
Co666 N671 2.057 . S
Co666 O683 2.021 . S
Co666 O686 2.062 . S
Co666 O690 2.117 . S
Co666 O691 2.020 . S
C667 O687 1.259 . S
C667 O690 1.258 . S
Co668 N677 2.057 . S
Co668 O684 2.117 . S
Co668 O685 2.020 . S
Co668 O687 2.021 . S
Co668 O692 2.062 . S
C669 N671 1.316 . S
C669 N672 1.347 . S
C669 H674 0.931 . S
C670 N671 1.375 . S
C670 C673 1.350 . S
C670 H675 0.930 . S
N671 Co666 2.057 . S
N671 C669 1.316 . S
N671 C670 1.375 . S
N672 C669 1.347 . S
N672 C673 1.373 . S
C673 C670 1.350 . S
C673 N672 1.373 . S
C673 H694 0.931 1_655 S
H674 C669 0.931 . S
H675 C670 0.930 . S
C676 O683 1.259 . S
C676 O684 1.258 . S
N677 Co668 2.057 . S
N677 C678 1.316 . S
N677 C679 1.375 . S
C678 N677 1.316 . S
C678 N680 1.347 . S
C678 H689 0.931 . S
C679 N677 1.375 . S
C679 C681 1.350 . S
C679 H688 0.930 . S
N680 C678 1.347 . S
N680 C681 1.373 . S
C681 C679 1.350 . S
C681 N680 1.373 . S
C681 H695 0.931 . S
C682 O685 1.256 . S
C682 O686 1.255 . S
O683 Co666 2.021 . S
O683 C676 1.259 . S
O684 Co668 2.117 . S
O684 C676 1.258 . S
O685 Co668 2.020 . S
O685 C682 1.256 . S
O686 Co666 2.062 . S
O686 C682 1.255 . S
O687 C667 1.259 . S
O687 Co668 2.021 . S
H688 C679 0.930 . S
H689 C678 0.931 . S
O690 Co666 2.117 . S
O690 C667 1.258 . S
O691 Co666 2.020 . S
O691 C693 1.256 . S
O692 Co668 2.062 . S
O692 C693 1.255 . S
C693 O691 1.256 . S
C693 O692 1.255 . S
H694 C673 0.931 1_455 S
H695 C681 0.931 . S
Co696 N701 2.057 . S
Co696 O713 2.021 . S
Co696 O716 2.062 . S
Co696 O720 2.117 . S
Co696 O721 2.020 . S
C697 O717 1.259 . S
C697 O720 1.258 . S
Co698 N707 2.057 . S
Co698 O714 2.117 . S
Co698 O715 2.020 . S
Co698 O717 2.021 . S
Co698 O722 2.062 . S
C699 N701 1.316 . S
C699 N702 1.347 . S
C699 H704 0.931 . S
C700 N701 1.375 . S
C700 C703 1.350 . S
C700 H705 0.930 . S
N701 Co696 2.057 . S
N701 C699 1.316 . S
N701 C700 1.375 . S
N702 C699 1.347 . S
N702 C703 1.373 . S
C703 C700 1.350 . S
C703 N702 1.373 . S
C703 H724 0.934 . S
H704 C699 0.931 . S
H705 C700 0.930 . S
C706 O713 1.259 . S
C706 O714 1.258 . S
N707 Co698 2.057 . S
N707 C708 1.316 . S
N707 C709 1.375 . S
C708 N707 1.316 . S
C708 N710 1.347 . S
C708 H719 0.931 . S
C709 N707 1.375 . S
C709 C711 1.350 . S
C709 H718 0.930 . S
N710 C708 1.347 . S
N710 C711 1.373 . S
C711 C709 1.350 . S
C711 N710 1.373 . S
C711 H725 0.931 . S
C712 O715 1.256 . S
C712 O716 1.255 . S
O713 Co696 2.021 . S
O713 C706 1.259 . S
O714 Co698 2.117 . S
O714 C706 1.258 . S
O715 Co698 2.020 . S
O715 C712 1.256 . S
O716 Co696 2.062 . S
O716 C712 1.255 . S
O717 C697 1.259 . S
O717 Co698 2.021 . S
H718 C709 0.930 . S
H719 C708 0.931 . S
O720 Co696 2.117 . S
O720 C697 1.258 . S
O721 Co696 2.020 . S
O721 C723 1.256 . S
O722 Co698 2.062 . S
O722 C723 1.255 . S
C723 O721 1.256 . S
C723 O722 1.255 . S
H724 C703 0.934 . S
H725 C711 0.931 . S
Co726 N731 2.057 . S
Co726 O743 2.021 . S
Co726 O746 2.062 . S
Co726 O750 2.117 . S
Co726 O751 2.020 . S
C727 O747 1.259 . S
C727 O750 1.258 . S
Co728 N737 2.057 . S
Co728 O744 2.117 . S
Co728 O745 2.020 . S
Co728 O747 2.021 . S
Co728 O752 2.062 . S
C729 N731 1.316 . S
C729 N732 1.347 . S
C729 H734 0.931 . S
C730 N731 1.375 . S
C730 C733 1.350 . S
C730 H735 0.930 . S
N731 Co726 2.057 . S
N731 C729 1.316 . S
N731 C730 1.375 . S
N732 C729 1.347 . S
N732 C733 1.373 . S
C733 C730 1.350 . S
C733 N732 1.373 . S
C733 H754 0.931 . S
H734 C729 0.931 . S
H735 C730 0.930 . S
C736 O743 1.259 . S
C736 O744 1.258 . S
N737 Co728 2.057 . S
N737 C738 1.316 . S
N737 C739 1.375 . S
C738 N737 1.316 . S
C738 N740 1.347 . S
C738 H749 0.931 . S
C739 N737 1.375 . S
C739 C741 1.350 . S
C739 H748 0.930 . S
N740 C738 1.347 . S
N740 C741 1.373 . S
C741 C739 1.350 . S
C741 N740 1.373 . S
C741 H755 0.931 1_565 S
C742 O745 1.256 . S
C742 O746 1.255 . S
O743 Co726 2.021 . S
O743 C736 1.259 . S
O744 Co728 2.117 . S
O744 C736 1.258 . S
O745 Co728 2.020 . S
O745 C742 1.256 . S
O746 Co726 2.062 . S
O746 C742 1.255 . S
O747 C727 1.259 . S
O747 Co728 2.021 . S
H748 C739 0.930 . S
H749 C738 0.931 . S
O750 Co726 2.117 . S
O750 C727 1.258 . S
O751 Co726 2.020 . S
O751 C753 1.256 . S
O752 Co728 2.062 . S
O752 C753 1.255 . S
C753 O751 1.256 . S
C753 O752 1.255 . S
H754 C733 0.931 . S
H755 C741 0.931 1_545 S
Co756 N761 2.057 . S
Co756 O773 2.021 . S
Co756 O776 2.062 . S
Co756 O780 2.117 . S
Co756 O781 2.020 . S
C757 O777 1.259 . S
C757 O780 1.258 . S
Co758 N767 2.057 . S
Co758 O774 2.117 . S
Co758 O775 2.020 . S
Co758 O777 2.021 . S
Co758 O782 2.062 . S
C759 N761 1.316 . S
C759 N762 1.347 . S
C759 H764 0.931 . S
C760 N761 1.375 . S
C760 C763 1.350 . S
C760 H765 0.930 . S
N761 Co756 2.057 . S
N761 C759 1.316 . S
N761 C760 1.375 . S
N762 C759 1.347 . S
N762 C763 1.373 . S
C763 C760 1.350 . S
C763 N762 1.373 . S
C763 H784 0.931 . S
H764 C759 0.931 . S
H765 C760 0.930 . S
C766 O773 1.259 . S
C766 O774 1.258 . S
N767 Co758 2.057 . S
N767 C768 1.316 . S
N767 C769 1.375 . S
C768 N767 1.316 . S
C768 N770 1.347 . S
C768 H779 0.931 . S
C769 N767 1.375 . S
C769 C771 1.350 . S
C769 H778 0.930 . S
N770 C768 1.347 . S
N770 C771 1.373 . S
C771 C769 1.350 . S
C771 N770 1.373 . S
C771 H785 0.931 . S
C772 O775 1.256 . S
C772 O776 1.255 . S
O773 Co756 2.021 . S
O773 C766 1.259 . S
O774 Co758 2.117 . S
O774 C766 1.258 . S
O775 Co758 2.020 . S
O775 C772 1.256 . S
O776 Co756 2.062 . S
O776 C772 1.255 . S
O777 C757 1.259 . S
O777 Co758 2.021 . S
H778 C769 0.930 . S
H779 C768 0.931 . S
O780 Co756 2.117 . S
O780 C757 1.258 . S
O781 Co756 2.020 . S
O781 C783 1.256 . S
O782 Co758 2.062 . S
O782 C783 1.255 . S
C783 O781 1.256 . S
C783 O782 1.255 . S
H784 C763 0.931 . S
H785 C771 0.931 . S
Co786 N791 2.057 1_455 S
Co786 O803 2.021 . S
Co786 O806 2.062 1_455 S
Co786 O810 2.117 . S
Co786 O811 2.020 1_554 S
C787 O807 1.259 . S
C787 O810 1.258 . S
Co788 N797 2.057 . S
Co788 O804 2.117 . S
Co788 O805 2.020 . S
Co788 O807 2.021 . S
Co788 O812 2.062 . S
C789 N791 1.316 . S
C789 N792 1.347 . S
C789 H794 0.931 . S
C790 N791 1.375 . S
C790 C793 1.350 . S
C790 H795 0.930 . S
N791 Co786 2.057 1_655 S
N791 C789 1.316 . S
N791 C790 1.375 . S
N792 C789 1.347 . S
N792 C793 1.373 . S
C793 C790 1.350 . S
C793 N792 1.373 . S
C793 H814 0.931 . S
H794 C789 0.931 . S
H795 C790 0.930 . S
C796 O803 1.259 . S
C796 O804 1.258 . S
N797 Co788 2.057 . S
N797 C798 1.316 . S
N797 C799 1.375 . S
C798 N797 1.316 . S
C798 N800 1.347 . S
C798 H809 0.931 . S
C799 N797 1.375 . S
C799 C801 1.350 . S
C799 H808 0.930 . S
N800 C798 1.347 . S
N800 C801 1.373 . S
C801 C799 1.350 . S
C801 N800 1.373 . S
C801 H815 0.931 . S
C802 O805 1.256 . S
C802 O806 1.255 1_455 S
O803 Co786 2.021 . S
O803 C796 1.259 . S
O804 Co788 2.117 . S
O804 C796 1.258 . S
O805 Co788 2.020 . S
O805 C802 1.256 . S
O806 Co786 2.062 1_655 S
O806 C802 1.255 1_655 S
O807 C787 1.259 . S
O807 Co788 2.021 . S
H808 C799 0.930 . S
H809 C798 0.931 . S
O810 Co786 2.117 . S
O810 C787 1.258 . S
O811 Co786 2.020 1_556 S
O811 C813 1.256 . S
O812 Co788 2.062 . S
O812 C813 1.255 1_554 S
C813 O811 1.256 . S
C813 O812 1.255 1_556 S
H814 C793 0.931 . S
H815 C801 0.931 . S
C337 C8 2.687 . S
C22 C382 2.030 . S
C35 C406 2.035 . S
N432 C49 1.815 . S
C23 N462 3.464 . S
C496 C34 1.710 . S
C532 C48 1.428 1_554 S
C9 C556 2.757 . S
C64 N350 1.291 1_545 S
C77 N372 1.680 . S
C412 C92 1.614 . S
C436 C105 2.323 . S
C63 C466 1.178 . S
C502 C78 1.943 . S
N522 C91 1.685 . S
C562 C106 2.643 . S
C363 C107 2.634 . S
C592 C118 1.497 . S
C135 N612 2.358 . S
C646 C146 1.934 . S
C65 N552 1.396 . S
N402 C79 2.642 . S
C132 C682 1.362 . S
C706 C160 1.080 . S
C177 C346 2.790 1_556 S
C723 C188 0.603 . S
C204 C397 2.597 . S
C219 N680 2.241 . S
N470 C190 2.502 . S
C607 C202 1.967 . S
C543 C217 0.970 . S
C727 C175 2.495 . S
N342 C231 1.192 1_455 S
C246 N710 2.853 . S
C423 C259 0.929 . S
C274 C667 2.564 . S
C232 C457 1.975 . S
C245 C633 0.967 . S
N530 C260 2.359 . S
C273 C753 2.534 . S
C275 C352 2.694 1_565 S
C286 C603 1.245 . S
C303 N500 2.283 . S
C314 C637 1.842 . S
N740 C233 1.400 1_565 S
N410 C247 2.231 . S
C453 C300 0.939 . S
C367 C328 1.911 . S
C36 C757 2.655 . S
C712 C50 2.039 . S
C796 C7 2.018 . S
C21 N672 1.777 . S
C51 N582 3.372 1_556 S
C616 C6 1.709 . S
C652 C20 1.452 . S
C736 C37 2.722 . S
N770 C162 1.269 . S
C119 N702 1.589 . S
C134 C802 1.801 1_655 S
C676 C147 2.311 . S
C586 C161 1.141 . S
C120 C622 2.129 . S
N642 C133 1.615 1_455 S
C148 C742 2.562 . S
C783 C149 2.564 . S
C472 C76 1.428 1_545 S
N492 C93 2.639 1_565 S
C104 C526 1.898 . S
N732 C163 1.196 . S
C121 N792 2.363 . S
C442 C90 1.290 . S
C376 C62 1.082 . S
C203 C766 2.526 . S
C393 C216 0.695 . S
C787 C174 2.114 1_554 S
C191 N440 2.185 . S
C218 N590 2.560 . S
C176 C487 2.373 . S
C189 C663 0.880 . S
C205 C547 3.067 . S
N762 C329 1.291 . S
C288 N380 2.894 . S
C813 C301 0.698 . S
C316 C427 2.497 . S
C330 C577 2.001 . S
C513 C287 1.234 . S
C302 N650 2.320 . S
C573 C315 2.504 . S
C772 C317 2.693 . S
C483 C244 1.163 . S
C261 N620 2.515 . S
C517 C272 1.849 1_545 S
N560 C331 1.264 . S
C289 N800 2.457 . S
C693 C258 0.983 . S
C697 C230 1.878 . S
