# Generated by pormake.
# Topology gar, (4,6)-cn, num edge types: 1
# Building blocks:
#     Node 0, Type 0, BuildingBlock: TATPOV_clean_sbu_0, # of connection points: 4
#     Node 1, Type 0, BuildingBlock: TATPOV_clean_sbu_0, # of connection points: 4
#     Node 2, Type 0, BuildingBlock: TATPOV_clean_sbu_0, # of connection points: 4
#     Node 3, Type 0, BuildingBlock: TATPOV_clean_sbu_0, # of connection points: 4
#     Node 4, Type 0, BuildingBlock: TATPOV_clean_sbu_0, # of connection points: 4
#     Node 5, Type 0, BuildingBlock: TATPOV_clean_sbu_0, # of connection points: 4
#     Node 6, Type 0, BuildingBlock: TATPOV_clean_sbu_0, # of connection points: 4
#     Node 7, Type 0, BuildingBlock: TATPOV_clean_sbu_0, # of connection points: 4
#     Node 8, Type 0, BuildingBlock: TATPOV_clean_sbu_0, # of connection points: 4
#     Node 9, Type 0, BuildingBlock: TATPOV_clean_sbu_0, # of connection points: 4
#     Node 10, Type 0, BuildingBlock: TATPOV_clean_sbu_0, # of connection points: 4
#     Node 11, Type 0, BuildingBlock: TATPOV_clean_sbu_0, # of connection points: 4
#     Node 12, Type 0, BuildingBlock: TATPOV_clean_sbu_0, # of connection points: 4
#     Node 13, Type 0, BuildingBlock: TATPOV_clean_sbu_0, # of connection points: 4
#     Node 14, Type 0, BuildingBlock: TATPOV_clean_sbu_0, # of connection points: 4
#     Node 15, Type 0, BuildingBlock: TATPOV_clean_sbu_0, # of connection points: 4
#     Node 16, Type 0, BuildingBlock: TATPOV_clean_sbu_0, # of connection points: 4
#     Node 17, Type 0, BuildingBlock: TATPOV_clean_sbu_0, # of connection points: 4
#     Node 18, Type 0, BuildingBlock: TATPOV_clean_sbu_0, # of connection points: 4
#     Node 19, Type 0, BuildingBlock: TATPOV_clean_sbu_0, # of connection points: 4
#     Node 20, Type 0, BuildingBlock: TATPOV_clean_sbu_0, # of connection points: 4
#     Node 21, Type 0, BuildingBlock: TATPOV_clean_sbu_0, # of connection points: 4
#     Node 22, Type 0, BuildingBlock: TATPOV_clean_sbu_0, # of connection points: 4
#     Node 23, Type 0, BuildingBlock: TATPOV_clean_sbu_0, # of connection points: 4
#     Node 24, Type 1, BuildingBlock: CUKXOW_clean_sbu_0, # of connection points: 6
#     Node 25, Type 1, BuildingBlock: CUKXOW_clean_sbu_0, # of connection points: 6
#     Node 26, Type 1, BuildingBlock: CUKXOW_clean_sbu_0, # of connection points: 6
#     Node 27, Type 1, BuildingBlock: CUKXOW_clean_sbu_0, # of connection points: 6
#     Node 28, Type 1, BuildingBlock: CUKXOW_clean_sbu_0, # of connection points: 6
#     Node 29, Type 1, BuildingBlock: CUKXOW_clean_sbu_0, # of connection points: 6
#     Node 30, Type 1, BuildingBlock: CUKXOW_clean_sbu_0, # of connection points: 6
#     Node 31, Type 1, BuildingBlock: CUKXOW_clean_sbu_0, # of connection points: 6
#     Node 32, Type 1, BuildingBlock: CUKXOW_clean_sbu_0, # of connection points: 6
#     Node 33, Type 1, BuildingBlock: CUKXOW_clean_sbu_0, # of connection points: 6
#     Node 34, Type 1, BuildingBlock: CUKXOW_clean_sbu_0, # of connection points: 6
#     Node 35, Type 1, BuildingBlock: CUKXOW_clean_sbu_0, # of connection points: 6
#     Node 36, Type 1, BuildingBlock: CUKXOW_clean_sbu_0, # of connection points: 6
#     Node 37, Type 1, BuildingBlock: CUKXOW_clean_sbu_0, # of connection points: 6
#     Node 38, Type 1, BuildingBlock: CUKXOW_clean_sbu_0, # of connection points: 6
#     Node 39, Type 1, BuildingBlock: CUKXOW_clean_sbu_0, # of connection points: 6
#     Edge 40, Type (0, 1), BuildingBlock: CIFDUS_clean_linker_0, # of connection points: 2
#     Edge 41, Type (0, 1), BuildingBlock: CIFDUS_clean_linker_0, # of connection points: 2
#     Edge 42, Type (0, 1), BuildingBlock: CIFDUS_clean_linker_0, # of connection points: 2
#     Edge 43, Type (0, 1), BuildingBlock: CIFDUS_clean_linker_0, # of connection points: 2
#     Edge 44, Type (0, 1), BuildingBlock: CIFDUS_clean_linker_0, # of connection points: 2
#     Edge 45, Type (0, 1), BuildingBlock: CIFDUS_clean_linker_0, # of connection points: 2
#     Edge 46, Type (0, 1), BuildingBlock: CIFDUS_clean_linker_0, # of connection points: 2
#     Edge 47, Type (0, 1), BuildingBlock: CIFDUS_clean_linker_0, # of connection points: 2
#     Edge 48, Type (0, 1), BuildingBlock: CIFDUS_clean_linker_0, # of connection points: 2
#     Edge 49, Type (0, 1), BuildingBlock: CIFDUS_clean_linker_0, # of connection points: 2
#     Edge 50, Type (0, 1), BuildingBlock: CIFDUS_clean_linker_0, # of connection points: 2
#     Edge 51, Type (0, 1), BuildingBlock: CIFDUS_clean_linker_0, # of connection points: 2
#     Edge 52, Type (0, 1), BuildingBlock: CIFDUS_clean_linker_0, # of connection points: 2
#     Edge 53, Type (0, 1), BuildingBlock: CIFDUS_clean_linker_0, # of connection points: 2
#     Edge 54, Type (0, 1), BuildingBlock: CIFDUS_clean_linker_0, # of connection points: 2
#     Edge 55, Type (0, 1), BuildingBlock: CIFDUS_clean_linker_0, # of connection points: 2
#     Edge 56, Type (0, 1), BuildingBlock: CIFDUS_clean_linker_0, # of connection points: 2
#     Edge 57, Type (0, 1), BuildingBlock: CIFDUS_clean_linker_0, # of connection points: 2
#     Edge 58, Type (0, 1), BuildingBlock: CIFDUS_clean_linker_0, # of connection points: 2
#     Edge 59, Type (0, 1), BuildingBlock: CIFDUS_clean_linker_0, # of connection points: 2
#     Edge 60, Type (0, 1), BuildingBlock: CIFDUS_clean_linker_0, # of connection points: 2
#     Edge 61, Type (0, 1), BuildingBlock: CIFDUS_clean_linker_0, # of connection points: 2
#     Edge 62, Type (0, 1), BuildingBlock: CIFDUS_clean_linker_0, # of connection points: 2
#     Edge 63, Type (0, 1), BuildingBlock: CIFDUS_clean_linker_0, # of connection points: 2
#     Edge 64, Type (0, 1), BuildingBlock: CIFDUS_clean_linker_0, # of connection points: 2
#     Edge 65, Type (0, 1), BuildingBlock: CIFDUS_clean_linker_0, # of connection points: 2
#     Edge 66, Type (0, 1), BuildingBlock: CIFDUS_clean_linker_0, # of connection points: 2
#     Edge 67, Type (0, 1), BuildingBlock: CIFDUS_clean_linker_0, # of connection points: 2
#     Edge 68, Type (0, 1), BuildingBlock: CIFDUS_clean_linker_0, # of connection points: 2
#     Edge 69, Type (0, 1), BuildingBlock: CIFDUS_clean_linker_0, # of connection points: 2
#     Edge 70, Type (0, 1), BuildingBlock: CIFDUS_clean_linker_0, # of connection points: 2
#     Edge 71, Type (0, 1), BuildingBlock: CIFDUS_clean_linker_0, # of connection points: 2
#     Edge 72, Type (0, 1), BuildingBlock: CIFDUS_clean_linker_0, # of connection points: 2
#     Edge 73, Type (0, 1), BuildingBlock: CIFDUS_clean_linker_0, # of connection points: 2
#     Edge 74, Type (0, 1), BuildingBlock: CIFDUS_clean_linker_0, # of connection points: 2
#     Edge 75, Type (0, 1), BuildingBlock: CIFDUS_clean_linker_0, # of connection points: 2
#     Edge 76, Type (0, 1), BuildingBlock: CIFDUS_clean_linker_0, # of connection points: 2
#     Edge 77, Type (0, 1), BuildingBlock: CIFDUS_clean_linker_0, # of connection points: 2
#     Edge 78, Type (0, 1), BuildingBlock: CIFDUS_clean_linker_0, # of connection points: 2
#     Edge 79, Type (0, 1), BuildingBlock: CIFDUS_clean_linker_0, # of connection points: 2
#     Edge 80, Type (0, 1), BuildingBlock: CIFDUS_clean_linker_0, # of connection points: 2
#     Edge 81, Type (0, 1), BuildingBlock: CIFDUS_clean_linker_0, # of connection points: 2
#     Edge 82, Type (0, 1), BuildingBlock: CIFDUS_clean_linker_0, # of connection points: 2
#     Edge 83, Type (0, 1), BuildingBlock: CIFDUS_clean_linker_0, # of connection points: 2
#     Edge 84, Type (0, 1), BuildingBlock: CIFDUS_clean_linker_0, # of connection points: 2
#     Edge 85, Type (0, 1), BuildingBlock: CIFDUS_clean_linker_0, # of connection points: 2
#     Edge 86, Type (0, 1), BuildingBlock: CIFDUS_clean_linker_0, # of connection points: 2
#     Edge 87, Type (0, 1), BuildingBlock: CIFDUS_clean_linker_0, # of connection points: 2
#     Edge 88, Type (0, 1), BuildingBlock: CIFDUS_clean_linker_0, # of connection points: 2
#     Edge 89, Type (0, 1), BuildingBlock: CIFDUS_clean_linker_0, # of connection points: 2
#     Edge 90, Type (0, 1), BuildingBlock: CIFDUS_clean_linker_0, # of connection points: 2
#     Edge 91, Type (0, 1), BuildingBlock: CIFDUS_clean_linker_0, # of connection points: 2
#     Edge 92, Type (0, 1), BuildingBlock: CIFDUS_clean_linker_0, # of connection points: 2
#     Edge 93, Type (0, 1), BuildingBlock: CIFDUS_clean_linker_0, # of connection points: 2
#     Edge 94, Type (0, 1), BuildingBlock: CIFDUS_clean_linker_0, # of connection points: 2
#     Edge 95, Type (0, 1), BuildingBlock: CIFDUS_clean_linker_0, # of connection points: 2
#     Edge 96, Type (0, 1), BuildingBlock: CIFDUS_clean_linker_0, # of connection points: 2
#     Edge 97, Type (0, 1), BuildingBlock: CIFDUS_clean_linker_0, # of connection points: 2
#     Edge 98, Type (0, 1), BuildingBlock: CIFDUS_clean_linker_0, # of connection points: 2
#     Edge 99, Type (0, 1), BuildingBlock: CIFDUS_clean_linker_0, # of connection points: 2
#     Edge 100, Type (0, 1), BuildingBlock: CIFDUS_clean_linker_0, # of connection points: 2
#     Edge 101, Type (0, 1), BuildingBlock: CIFDUS_clean_linker_0, # of connection points: 2
#     Edge 102, Type (0, 1), BuildingBlock: CIFDUS_clean_linker_0, # of connection points: 2
#     Edge 103, Type (0, 1), BuildingBlock: CIFDUS_clean_linker_0, # of connection points: 2
#     Edge 104, Type (0, 1), BuildingBlock: CIFDUS_clean_linker_0, # of connection points: 2
#     Edge 105, Type (0, 1), BuildingBlock: CIFDUS_clean_linker_0, # of connection points: 2
#     Edge 106, Type (0, 1), BuildingBlock: CIFDUS_clean_linker_0, # of connection points: 2
#     Edge 107, Type (0, 1), BuildingBlock: CIFDUS_clean_linker_0, # of connection points: 2
#     Edge 108, Type (0, 1), BuildingBlock: CIFDUS_clean_linker_0, # of connection points: 2
#     Edge 109, Type (0, 1), BuildingBlock: CIFDUS_clean_linker_0, # of connection points: 2
#     Edge 110, Type (0, 1), BuildingBlock: CIFDUS_clean_linker_0, # of connection points: 2
#     Edge 111, Type (0, 1), BuildingBlock: CIFDUS_clean_linker_0, # of connection points: 2
#     Edge 112, Type (0, 1), BuildingBlock: CIFDUS_clean_linker_0, # of connection points: 2
#     Edge 113, Type (0, 1), BuildingBlock: CIFDUS_clean_linker_0, # of connection points: 2
#     Edge 114, Type (0, 1), BuildingBlock: CIFDUS_clean_linker_0, # of connection points: 2
#     Edge 115, Type (0, 1), BuildingBlock: CIFDUS_clean_linker_0, # of connection points: 2
#     Edge 116, Type (0, 1), BuildingBlock: CIFDUS_clean_linker_0, # of connection points: 2
#     Edge 117, Type (0, 1), BuildingBlock: CIFDUS_clean_linker_0, # of connection points: 2
#     Edge 118, Type (0, 1), BuildingBlock: CIFDUS_clean_linker_0, # of connection points: 2
#     Edge 119, Type (0, 1), BuildingBlock: CIFDUS_clean_linker_0, # of connection points: 2
#     Edge 120, Type (0, 1), BuildingBlock: CIFDUS_clean_linker_0, # of connection points: 2
#     Edge 121, Type (0, 1), BuildingBlock: CIFDUS_clean_linker_0, # of connection points: 2
#     Edge 122, Type (0, 1), BuildingBlock: CIFDUS_clean_linker_0, # of connection points: 2
#     Edge 123, Type (0, 1), BuildingBlock: CIFDUS_clean_linker_0, # of connection points: 2
#     Edge 124, Type (0, 1), BuildingBlock: CIFDUS_clean_linker_0, # of connection points: 2
#     Edge 125, Type (0, 1), BuildingBlock: CIFDUS_clean_linker_0, # of connection points: 2
#     Edge 126, Type (0, 1), BuildingBlock: CIFDUS_clean_linker_0, # of connection points: 2
#     Edge 127, Type (0, 1), BuildingBlock: CIFDUS_clean_linker_0, # of connection points: 2
#     Edge 128, Type (0, 1), BuildingBlock: CIFDUS_clean_linker_0, # of connection points: 2
#     Edge 129, Type (0, 1), BuildingBlock: CIFDUS_clean_linker_0, # of connection points: 2
#     Edge 130, Type (0, 1), BuildingBlock: CIFDUS_clean_linker_0, # of connection points: 2
#     Edge 131, Type (0, 1), BuildingBlock: CIFDUS_clean_linker_0, # of connection points: 2
#     Edge 132, Type (0, 1), BuildingBlock: CIFDUS_clean_linker_0, # of connection points: 2
#     Edge 133, Type (0, 1), BuildingBlock: CIFDUS_clean_linker_0, # of connection points: 2
#     Edge 134, Type (0, 1), BuildingBlock: CIFDUS_clean_linker_0, # of connection points: 2
#     Edge 135, Type (0, 1), BuildingBlock: CIFDUS_clean_linker_0, # of connection points: 2
# Relax obj value: 0.116
# Max RMSD: 0.228
# Mean RMSD: 0.147
data_MOF--net-gar--node1-TATPOV_clean_sbu_0--node2-CUKXOW_clean_sbu_0--edge1-CIFDUS_clean_linker_0
_symmetry_space_group_name_H-M    P1
_symmetry_Int_Tables_number       1
_symmetry_cell_setting            triclinic
loop_
_symmetry_equiv_pos_as_xyz
'x, y, z'
_cell_length_a     48.215802
_cell_length_b     47.057997
_cell_length_c     47.696224
_cell_angle_alpha  94.076335
_cell_angle_beta   96.050695
_cell_angle_gamma 101.05782
loop_
_atom_site_label
_atom_site_type_symbol
_atom_site_fract_x
_atom_site_fract_y
_atom_site_fract_z
_atom_type_partial_charge
Zn0 Zn 0.9943 0.26178 0.47861 0.0
Zn1 Zn 0.03334 0.25757 0.44608 0.0
O2 O 0.04942 0.29506 0.47303 0.0
O3 O 0.02079 0.29145 0.50604 0.0
O4 O 0.06336 0.25602 0.41957 0.0
O5 O 0.9884 0.21935 0.48387 0.0
O6 O 0.02726 0.21801 0.46374 0.0
C7 C 0.04256 0.30487 0.49641 0.0
C8 C 0.97751 0.27279 0.42255 0.0
O9 O 0.99961 0.26288 0.41825 0.0
O10 O 0.9711 0.27649 0.44739 0.0
C11 C 0.06762 0.27697 0.40404 0.0
O12 O 0.05357 0.29808 0.40726 0.0
C13 C 0.00708 0.20564 0.47674 0.0
Zn14 Zn 0.99258 0.72221 0.63089 0.0
Zn15 Zn 0.99629 0.77078 0.60455 0.0
O16 O 0.96152 0.76757 0.62671 0.0
O17 O 0.95613 0.72562 0.64527 0.0
O18 O 0.99337 0.80589 0.58387 0.0
O19 O 0.02988 0.74172 0.65355 0.0
O20 O 0.0343 0.78083 0.63022 0.0
C21 C 0.9478 0.74896 0.64093 0.0
C22 C 0.99337 0.7122 0.57134 0.0
O23 O 0.99581 0.73962 0.57186 0.0
O24 O 0.99145 0.69958 0.59378 0.0
C25 C 0.96899 0.80784 0.57199 0.0
O26 O 0.94696 0.78699 0.57365 0.0
C27 C 0.04389 0.76639 0.6493 0.0
Zn28 Zn 0.49626 0.77607 0.99217 0.0
Zn29 Zn 0.53676 0.78055 0.95693 0.0
O30 O 0.54535 0.82054 0.97932 0.0
O31 O 0.51101 0.81809 0.00653 0.0
O32 O 0.56844 0.78312 0.93257 0.0
O33 O 0.51178 0.745 0.01163 0.0
O34 O 0.54054 0.74504 0.97862 0.0
C35 C 0.5329 0.83244 0.99779 0.0
C36 C 0.47481 0.76757 0.93212 0.0
O37 O 0.50096 0.77451 0.92868 0.0
O38 O 0.46743 0.76531 0.95674 0.0
C39 C 0.57142 0.80128 0.91409 0.0
O40 O 0.55316 0.81857 0.91069 0.0
C41 C 0.53037 0.73435 5e-05 0.0
Zn42 Zn 0.48935 0.23512 0.12577 0.0
Zn43 Zn 0.4962 0.28864 0.10908 0.0
O44 O 0.46248 0.28428 0.13234 0.0
O45 O 0.45501 0.23925 0.14417 0.0
O46 O 0.49558 0.32654 0.09344 0.0
O47 O 0.52871 0.24906 0.14747 0.0
O48 O 0.53417 0.29318 0.13336 0.0
C49 C 0.4485 0.26402 0.14457 0.0
C50 C 0.48917 0.23525 0.06634 0.0
O51 O 0.49457 0.26261 0.07235 0.0
O52 O 0.48489 0.21825 0.08549 0.0
C53 C 0.51645 0.33812 0.08126 0.0
O54 O 0.53892 0.32611 0.08145 0.0
C55 C 0.54364 0.27439 0.14747 0.0
Zn56 Zn 0.03825 0.78639 0.13831 0.0
Zn57 Zn 0.9935 0.77229 0.16311 0.0
O58 O 0.98919 0.8092 0.1414 0.0
O59 O 0.02546 0.81649 0.11653 0.0
O60 O 0.95682 0.76549 0.18216 0.0
O61 O 0.03221 0.74653 0.11891 0.0
O62 O 0.99205 0.73395 0.13722 0.0
C63 C 1.00267 0.82299 0.12317 0.0
C64 C 0.05331 0.78875 0.19733 0.0
O65 O 0.02685 0.7775 0.19628 0.0
O66 O 0.06346 0.79693 0.17518 0.0
C67 C 0.95139 0.78659 0.19748 0.0
O68 O 0.97008 0.81126 0.20128 0.0
C69 C 0.01017 0.72777 0.12122 0.0
Zn70 Zn 0.48069 0.77787 0.38448 0.0
Zn71 Zn 0.52456 0.79133 0.35856 0.0
O72 O 0.52797 0.83016 0.38392 0.0
O73 O 0.48904 0.81781 0.40433 0.0
O74 O 0.55973 0.79548 0.33769 0.0
O75 O 0.49325 0.74716 0.40526 0.0
O76 O 0.53024 0.75586 0.38158 0.0
C77 C 0.51094 0.83637 0.40111 0.0
C78 C 0.46344 0.7758 0.32638 0.0
O79 O 0.48998 0.78619 0.32657 0.0
O80 O 0.45383 0.76814 0.34892 0.0
C81 C 0.58419 0.80864 0.34952 0.0
O82 O 0.58645 0.82188 0.37509 0.0
C83 C 0.51674 0.74169 0.39952 0.0
Zn84 Zn 0.52444 0.27104 0.62758 0.0
Zn85 Zn 0.48203 0.26039 0.65526 0.0
O86 O 0.47718 0.29601 0.6319 0.0
O87 O 0.51263 0.30144 0.60601 0.0
O88 O 0.44603 0.25667 0.6756 0.0
O89 O 0.51585 0.23126 0.60841 0.0
O90 O 0.47746 0.22086 0.62999 0.0
C91 C 0.49027 0.30876 0.61288 0.0
C92 C 0.54421 0.27622 0.68542 0.0
O93 O 0.51769 0.26684 0.68701 0.0
O94 O 0.55265 0.28151 0.6618 0.0
C95 C 0.44306 0.27911 0.69067 0.0
O96 O 0.46396 0.30202 0.69401 0.0
C97 C 0.49367 0.21355 0.61236 0.0
Zn98 Zn 0.98351 0.28759 0.89708 0.0
Zn99 Zn 0.02183 0.30171 0.86462 0.0
O100 O 0.02494 0.34101 0.88957 0.0
O101 O 0.98858 0.32834 0.91349 0.0
O102 O 0.05443 0.30858 0.84017 0.0
O103 O 1.00318 0.2618 0.91903 0.0
O104 O 0.03322 0.26825 0.88729 0.0
C105 C 0.00908 0.34738 0.90795 0.0
C106 C 0.95921 0.27725 0.84002 0.0
O107 O 0.98409 0.29052 0.83622 0.0
O108 O 0.95386 0.27132 0.86456 0.0
C109 C 0.05876 0.2865 0.8255 0.0
O110 O 0.04099 0.26154 0.82542 0.0
C111 C 0.0248 0.2561 0.90883 0.0
Zn112 Zn 0.43357 0.05578 0.25053 0.0
Zn113 Zn 0.40269 0.08959 0.24609 0.0
O114 O 0.42735 0.09531 0.28775 0.0
O115 O 0.46404 0.07584 0.28011 0.0
O116 O 0.37811 0.12216 0.24514 0.0
O117 O 0.44273 0.05223 0.21173 0.0
O118 O 0.42361 0.0907 0.20791 0.0
C119 C 0.45163 0.08964 0.29679 0.0
C120 C 0.37765 0.02783 0.25461 0.0
O121 O 0.37276 0.05097 0.24442 0.0
O122 O 0.40297 0.02548 0.26212 0.0
C123 C 0.35322 0.11737 0.2312 0.0
O124 O 0.34377 0.09189 0.21676 0.0
C125 C 0.43738 0.07246 0.1974 0.0
Zn126 Zn 0.20388 0.15013 0.44432 0.0
Zn127 Zn 0.24447 0.12268 0.4675 0.0
O128 O 0.26518 0.14125 0.43645 0.0
O129 O 0.23164 0.16204 0.41678 0.0
O130 O 0.2734 0.10441 0.488 0.0
O131 O 0.20727 0.17575 0.48121 0.0
O132 O 0.24085 0.15329 0.49737 0.0
C133 C 0.25644 0.15659 0.41792 0.0
C134 C 0.18397 0.08897 0.44554 0.0
O135 O 0.20918 0.09013 0.45727 0.0
O136 O 0.1765 0.11174 0.43751 0.0
C137 C 0.27179 0.07756 0.49071 0.0
O138 O 0.24944 0.05852 0.47853 0.0
C139 C 0.2262 0.1727 0.50065 0.0
Zn140 Zn 0.1062 0.00851 0.77706 0.0
Zn141 Zn 0.15216 0.98832 0.78887 0.0
O142 O 0.12921 0.98038 0.82357 0.0
O143 O 0.0911 0.9988 0.81292 0.0
O144 O 0.18338 0.96481 0.79283 0.0
O145 O 0.09118 0.98203 0.74234 0.0
O146 O 0.13412 0.97243 0.74781 0.0
C147 C 0.10547 0.98593 0.82959 0.0
C148 C 0.15944 0.05192 0.78124 0.0
O149 O 0.17148 0.0316 0.7896 0.0
O150 O 0.13276 0.04704 0.77399 0.0
C151 C 0.19695 0.95871 0.8152 0.0
O152 O 0.1922 0.9695 0.84 0.0
C153 C 0.11013 0.97023 0.73291 0.0
Zn154 Zn 0.26037 0.87433 0.03009 0.0
Zn155 Zn 0.21872 0.89842 0.02539 0.0
O156 O 0.21585 0.87568 0.98458 0.0
O157 O 0.25542 0.85888 0.99004 0.0
O158 O 0.18404 0.91851 0.02413 0.0
O159 O 0.24834 0.84739 0.05764 0.0
O160 O 0.21448 0.87254 0.06055 0.0
C161 C 0.23346 0.86168 0.97443 0.0
C162 C 0.27999 0.93385 0.03897 0.0
O163 O 0.25382 0.93315 0.03055 0.0
O164 O 0.28853 0.91058 0.043 0.0
C165 C 0.18294 0.93999 0.04165 0.0
O166 O 0.2046 0.94958 0.06131 0.0
C167 C 0.22741 0.8528 0.06925 0.0
Zn168 Zn 0.29364 0.36537 0.03409 0.0
Zn169 Zn 0.25999 0.40317 0.02788 0.0
O170 O 0.25072 0.37573 0.99115 0.0
O171 O 0.28239 0.3478 0.99449 0.0
O172 O 0.23289 0.4311 0.02201 0.0
O173 O 0.27186 0.3475 0.06348 0.0
O174 O 0.24764 0.38278 0.06324 0.0
C175 C 0.26182 0.35562 0.98055 0.0
C176 C 0.32511 0.42349 0.03855 0.0
O177 O 0.30054 0.429 0.03155 0.0
O178 O 0.32758 0.39789 0.04321 0.0
C179 C 0.22254 0.43537 0.99733 0.0
O180 O 0.23063 0.42268 0.97506 0.0
C181 C 0.25327 0.35975 0.07313 0.0
Zn182 Zn 0.78958 0.22159 0.00431 0.0
Zn183 Zn 0.81831 0.18674 0.99662 0.0
O184 O 0.8168 0.20954 0.95853 0.0
O185 O 0.78585 0.2365 0.96774 0.0
O186 O 0.8488 0.16067 0.99355 0.0
O187 O 0.81118 0.24815 0.0357 0.0
O188 O 0.83025 0.20965 0.0384 0.0
C189 C 0.80147 0.22786 0.9508 0.0
C190 C 0.75715 0.16543 0.00618 0.0
O191 O 0.77907 0.15833 0.99699 0.0
O192 O 0.75728 0.1919 0.01301 0.0
C193 C 0.84177 0.13328 0.98669 0.0
O194 O 0.81462 0.12165 0.98021 0.0
C195 C 0.82629 0.23386 0.04985 0.0
Zn196 Zn 0.07433 0.51683 0.27853 0.0
Zn197 Zn 0.10489 0.48061 0.28127 0.0
O198 O 0.08686 0.47953 0.32 0.0
O199 O 0.06822 0.51865 0.31892 0.0
O200 O 0.12665 0.44709 0.2808 0.0
O201 O 0.04421 0.4962 0.24829 0.0
O202 O 0.07945 0.47424 0.24128 0.0
C203 C 0.07485 0.49819 0.3322 0.0
C204 C 0.13165 0.5417 0.27301 0.0
O205 O 0.13588 0.51785 0.28203 0.0
O206 O 0.10655 0.54559 0.26706 0.0
C207 C 0.15034 0.44887 0.29616 0.0
O208 O 0.16076 0.47267 0.31306 0.0
C209 C 0.05569 0.48069 0.23217 0.0
Zn210 Zn 0.78385 0.87102 0.56895 0.0
Zn211 Zn 0.74565 0.90383 0.5663 0.0
O212 O 0.74472 0.88796 0.52507 0.0
O213 O 0.77716 0.86071 0.52717 0.0
O214 O 0.71384 0.92585 0.56234 0.0
O215 O 0.7623 0.84408 0.5925 0.0
O216 O 0.73137 0.87286 0.59378 0.0
C217 C 0.75858 0.87124 0.51297 0.0
C218 C 0.80827 0.93105 0.58561 0.0
O219 O 0.78285 0.93426 0.57857 0.0
O220 O 0.81375 0.90577 0.58537 0.0
C221 C 0.7132 0.94624 0.54629 0.0
O222 O 0.73554 0.9558 0.53351 0.0
C223 C 0.73978 0.8499 0.60067 0.0
Zn224 Zn 0.89792 0.00879 0.23458 0.0
Zn225 Zn 0.87555 0.05008 0.23398 0.0
O226 O 0.88975 0.05163 0.2767 0.0
O227 O 0.89434 0.00606 0.27572 0.0
O228 O 0.85593 0.08449 0.23255 0.0
O229 O 0.93414 0.028 0.22207 0.0
O230 O 0.90732 0.05771 0.20671 0.0
C231 C 0.89309 0.02955 0.28965 0.0
C232 C 0.84428 0.98906 0.20972 0.0
O233 O 0.84306 0.01348 0.22252 0.0
O234 O 0.86832 0.98332 0.20638 0.0
C235 C 0.87057 0.11028 0.23524 0.0
O236 O 0.89847 0.11414 0.23766 0.0
C237 C 0.93041 0.0481 0.2068 0.0
Zn238 Zn 0.27148 0.70369 0.5102 0.0
Zn239 Zn 0.3121 0.67614 0.5085 0.0
O240 O 0.31352 0.70149 0.47287 0.0
O241 O 0.28067 0.72735 0.47903 0.0
O242 O 0.3462 0.65521 0.5077 0.0
O243 O 0.28318 0.7215 0.54933 0.0
O244 O 0.31908 0.69883 0.54987 0.0
C245 C 0.29981 0.721 0.46509 0.0
C246 C 0.24979 0.64332 0.50135 0.0
O247 O 0.27623 0.64236 0.50413 0.0
O248 O 0.24193 0.66743 0.50242 0.0
C249 C 0.34604 0.63215 0.49178 0.0
O250 O 0.3231 0.62093 0.47415 0.0
C251 C 0.30531 0.71573 0.56234 0.0
Zn252 Zn 0.39651 0.50859 0.73384 0.0
Zn253 Zn 0.37146 0.55145 0.73272 0.0
O254 O 0.39638 0.56072 0.77182 0.0
O255 O 0.4173 0.52304 0.77155 0.0
O256 O 0.35038 0.58505 0.72983 0.0
O257 O 0.417 0.51728 0.70138 0.0
O258 O 0.39632 0.55495 0.69853 0.0
C259 C 0.41378 0.54665 0.78359 0.0
C260 C 0.33849 0.48743 0.73036 0.0
O261 O 0.33854 0.51467 0.7319 0.0
O262 O 0.36146 0.47844 0.72974 0.0
C263 C 0.34466 0.59904 0.75164 0.0
O264 O 0.35239 0.59151 0.77683 0.0
C265 C 0.41361 0.5398 0.6897 0.0
Zn266 Zn 0.57714 0.02196 0.7748 0.0
Zn267 Zn 0.61547 0.99128 0.7731 0.0
O268 O 0.59465 0.98152 0.80972 0.0
O269 O 0.55805 0.0033 0.80529 0.0
O270 O 0.64347 0.96365 0.76918 0.0
O271 O 0.56048 0.01253 0.73458 0.0
O272 O 0.59318 0.98607 0.73177 0.0
C273 C 0.57209 0.98751 0.81873 0.0
C274 C 0.63399 0.05637 0.78596 0.0
O275 O 0.64123 0.03215 0.78017 0.0
O276 O 0.60798 0.05754 0.78597 0.0
C277 C 0.65572 0.95143 0.78857 0.0
O278 O 0.65036 0.9559 0.81479 0.0
C279 C 0.5725 0.99616 0.71996 0.0
Zn280 Zn 0.75398 0.70568 0.9696 0.0
Zn281 Zn 0.78731 0.66843 0.98118 0.0
O282 O 0.80889 0.6914 0.9523 0.0
O283 O 0.78433 0.7262 0.94869 0.0
O284 O 0.81117 0.63971 0.99198 0.0
O285 O 0.75583 0.71753 0.01099 0.0
O286 O 0.78841 0.69125 0.01929 0.0
C287 C 0.80552 0.71546 0.94329 0.0
C288 C 0.72454 0.64804 0.95554 0.0
O289 O 0.74788 0.64342 0.96761 0.0
O290 O 0.7221 0.67365 0.95094 0.0
C291 C 0.8064 0.61319 0.98221 0.0
O292 O 0.78482 0.60308 0.9626 0.0
C293 C 0.77372 0.709 0.02809 0.0
Zn294 Zn 0.946 0.55573 0.76289 0.0
Zn295 Zn 0.92211 0.59836 0.76181 0.0
O296 O 0.9482 0.60333 0.80204 0.0
O297 O 0.97293 0.56887 0.79724 0.0
O298 O 0.90176 0.63389 0.76124 0.0
O299 O 0.95974 0.55768 0.72608 0.0
O300 O 0.94241 0.59754 0.72337 0.0
C301 C 0.96762 0.59014 0.81185 0.0
C302 C 0.88752 0.5362 0.76201 0.0
O303 O 0.88781 0.56316 0.7601 0.0
O304 O 0.91052 0.52704 0.76456 0.0
C305 C 0.8799 0.63385 0.77431 0.0
O306 O 0.87163 0.61172 0.78885 0.0
C307 C 0.95535 0.57874 0.71251 0.0
Zn308 Zn 0.74477 0.34727 0.51666 0.0
Zn309 Zn 0.70961 0.37864 0.5096 0.0
O310 O 0.70736 0.35517 0.46902 0.0
O311 O 0.74196 0.33139 0.47709 0.0
O312 O 0.67712 0.40174 0.50591 0.0
O313 O 0.72771 0.32196 0.54366 0.0
O314 O 0.70216 0.35587 0.54632 0.0
C315 C 0.72296 0.33809 0.46001 0.0
C316 C 0.77191 0.40639 0.52611 0.0
O317 O 0.74729 0.4098 0.51601 0.0
O318 O 0.77586 0.3813 0.53091 0.0
C319 C 0.67605 0.4234 0.52323 0.0
O320 O 0.69675 0.43182 0.54409 0.0
C321 C 0.70995 0.33337 0.55565 0.0
Zn322 Zn 0.63953 0.54279 0.29048 0.0
Zn323 Zn 0.66986 0.50496 0.29879 0.0
O324 O 0.64143 0.50017 0.33025 0.0
O325 O 0.61567 0.53275 0.32011 0.0
O326 O 0.69427 0.4742 0.30479 0.0
O327 O 0.62429 0.52609 0.25156 0.0
O328 O 0.64956 0.4923 0.25795 0.0
C329 C 0.62077 0.51274 0.33487 0.0
C330 C 0.69634 0.57075 0.30055 0.0
O331 O 0.69964 0.54444 0.30082 0.0
O332 O 0.67168 0.57633 0.29753 0.0
C333 C 0.70433 0.4636 0.28363 0.0
O334 O 0.69961 0.47353 0.25889 0.0
C335 C 0.63203 0.50334 0.24247 0.0
Tb336 Tb 0.03709 0.07648 0.0171 0.0
C337 C 0.04237 0.02803 0.96816 0.0
Tb338 Tb 0.00561 0.01149 0.01871 0.0
O339 O 0.07258 0.07059 0.04801 0.0
O340 O 0.04798 0.03568 0.0229 0.0
O341 O 0.04655 0.05604 0.97761 0.0
C342 C 0.99586 0.95851 0.03647 0.0
O343 O 0.02793 0.00672 0.98115 0.0
C344 C 0.96982 0.04523 0.00073 0.0
C345 C 1.00306 0.06015 0.06695 0.0
O346 O 0.99175 0.96411 0.01015 0.0
O347 O 0.00569 0.98257 0.05242 0.0
O348 O 0.96201 0.01746 0.00288 0.0
O349 O 0.99628 0.05086 0.00737 0.0
O350 O 0.00572 0.03286 0.06107 0.0
O351 O 0.00952 0.08061 0.0497 0.0
C352 C 0.04993 0.12856 0.9979 0.0
O353 O 0.05421 0.1235 0.02431 0.0
O354 O 0.03828 0.10452 0.98269 0.0
C355 C 0.06745 0.04231 0.04327 0.0
Tb356 Tb 0.27044 0.81519 0.27542 0.0
C357 C 0.3107 0.77249 0.25713 0.0
Tb358 Tb 0.24445 0.75272 0.25678 0.0
O359 O 0.26592 0.80829 0.31962 0.0
O360 O 0.27263 0.77478 0.29211 0.0
O361 O 0.30739 0.7999 0.26078 0.0
C362 C 0.21962 0.69653 0.25292 0.0
O363 O 0.28914 0.75023 0.25745 0.0
C364 C 0.24782 0.78712 0.21552 0.0
C365 C 0.20401 0.79517 0.27447 0.0
O366 O 0.22269 0.71228 0.23185 0.0
O367 O 0.23019 0.71246 0.27629 0.0
O368 O 0.24972 0.75994 0.2127 0.0
O369 O 0.24241 0.79307 0.24024 0.0
O370 O 0.2076 0.76782 0.27179 0.0
O371 O 0.22552 0.8174 0.2738 0.0
C372 C 0.29473 0.87145 0.27771 0.0
O373 O 0.28999 0.85693 0.29939 0.0
O374 O 0.28626 0.85423 0.25473 0.0
C375 C 0.26766 0.78105 0.31698 0.0
Tb376 Tb 0.52858 0.02899 0.49978 0.0
C377 C 0.51072 0.01174 0.56105 0.0
Tb378 Tb 0.46751 0.01939 0.51042 0.0
O379 O 0.53298 0.07594 0.50166 0.0
O380 O 0.50449 0.05113 0.52514 0.0
O381 O 0.53065 0.01492 0.54346 0.0
C382 C 0.41355 0.02096 0.51597 0.0
O383 O 0.48456 0.01539 0.55326 0.0
C384 C 0.48571 0.97295 0.49352 0.0
C385 C 0.48445 0.04377 0.45262 0.0
O386 O 0.42215 0.00043 0.50191 0.0
O387 O 0.43535 0.04083 0.52675 0.0
O388 O 0.46724 0.97317 0.51137 0.0
O389 O 0.49177 0.99768 0.48462 0.0
O390 O 0.46631 0.04159 0.4718 0.0
O391 O 0.50979 0.03631 0.45737 0.0
C392 C 0.57879 0.01376 0.49627 0.0
O393 O 0.57462 0.04028 0.49675 0.0
O394 O 0.55467 0.99621 0.49673 0.0
C395 C 0.51242 0.07613 0.51727 0.0
Tb396 Tb 0.24408 0.2785 0.76688 0.0
C397 C 0.25086 0.32961 0.72833 0.0
Tb398 Tb 0.22802 0.26345 0.7055 0.0
O399 O 0.28858 0.29388 0.76148 0.0
O400 O 0.26374 0.2597 0.73409 0.0
O401 O 0.24817 0.3228 0.75456 0.0
C402 C 0.22632 0.25556 0.64967 0.0
O403 O 0.24646 0.30951 0.70661 0.0
C404 C 0.18468 0.26452 0.73413 0.0
C405 C 0.22101 0.21224 0.74301 0.0
O406 O 0.20684 0.26428 0.66279 0.0
O407 O 0.24656 0.2512 0.66795 0.0
O408 O 0.18382 0.24716 0.71155 0.0
O409 O 0.20849 0.2819 0.73842 0.0
O410 O 0.22497 0.21959 0.71726 0.0
O411 O 0.22467 0.23193 0.76516 0.0
C412 C 0.24538 0.28604 0.82272 0.0
O413 O 0.26213 0.27288 0.80951 0.0
O414 O 0.22796 0.29513 0.80454 0.0
C415 C 0.28788 0.27662 0.73886 0.0
Tb416 Tb 0.97654 0.01027 0.49258 0.0
C417 C 0.95701 0.00258 0.552 0.0
Tb418 Tb 0.02052 0.99851 0.53932 0.0
O419 O 0.95458 0.96433 0.49079 0.0
O420 O 0.99823 0.9765 0.50148 0.0
O421 O 0.95258 0.01485 0.52814 0.0
C422 C 0.04432 0.97089 0.57939 0.0
O423 O 0.981 0.99343 0.55936 0.0
C424 C 0.02222 0.05332 0.53273 0.0
C425 C 0.03975 0.0076 0.47969 0.0
O426 O 0.01872 0.96291 0.56644 0.0
O427 O 0.05666 0.9947 0.56988 0.0
O428 O 0.04391 0.04354 0.54381 0.0
O429 O 1.00035 0.03333 0.52984 0.0
O430 O 0.04383 0.99434 0.50305 0.0
O431 O 0.01598 0.01724 0.47271 0.0
C432 C 0.94838 0.03113 0.4501 0.0
O433 O 0.97105 0.04538 0.46583 0.0
O434 O 0.94161 0.00539 0.45849 0.0
C435 C 0.97767 0.95549 0.49921 0.0
Tb436 Tb 0.30967 0.79175 0.78413 0.0
C437 C 0.2632 0.79702 0.82454 0.0
Tb438 Tb 0.2474 0.78258 0.75829 0.0
O439 O 0.30991 0.83709 0.79888 0.0
O440 O 0.28343 0.81674 0.76285 0.0
O441 O 0.28838 0.79015 0.8222 0.0
C442 C 0.19321 0.78345 0.74154 0.0
O443 O 0.24509 0.79895 0.80212 0.0
C444 C 0.2683 0.73535 0.76361 0.0
C445 C 0.29357 0.78058 0.71719 0.0
O446 O 0.20207 0.76584 0.75848 0.0
O447 O 0.21492 0.8007 0.73387 0.0
O448 O 0.2487 0.73751 0.74353 0.0
O449 O 0.27341 0.75806 0.78037 0.0
O450 O 0.26804 0.78637 0.72006 0.0
O451 O 0.31229 0.77861 0.73925 0.0
C452 C 0.36005 0.7829 0.80631 0.0
O453 O 0.33571 0.76565 0.80652 0.0
O454 O 0.35622 0.80533 0.79306 0.0
C455 C 0.28936 0.83944 0.77978 0.0
Tb456 Tb 0.48045 0.03267 0.00111 0.0
C457 C 0.5241 0.996 0.02294 0.0
Tb458 Tb 0.54299 0.06122 0.01358 0.0
O459 O 0.48907 0.00297 0.96675 0.0
O460 O 0.5147 0.04417 0.97678 0.0
O461 O 0.49806 0.00079 0.02423 0.0
C462 C 0.59716 0.08859 0.01583 0.0
O463 O 0.54452 0.01535 0.01443 0.0
C464 C 0.51516 0.05598 0.05825 0.0
C465 C 0.49894 0.09832 0.98934 0.0
O466 O 0.57799 0.09719 0.02958 0.0
O467 O 0.58577 0.06455 0.00027 0.0
O468 O 0.54166 0.05434 0.0583 0.0
O469 O 0.50581 0.06193 0.03416 0.0
O470 O 0.52616 0.09684 0.99557 0.0
O471 O 0.47771 0.07612 0.99074 0.0
C472 C 0.42483 0.0179 0.00471 0.0
O473 O 0.43603 0.02302 0.98149 0.0
O474 O 0.44495 0.02048 0.02561 0.0
C475 C 0.51212 0.02036 0.96189 0.0
Tb476 Tb 0.23173 0.27747 0.27565 0.0
C477 C 0.28163 0.28012 0.32439 0.0
Tb478 Tb 0.29556 0.31075 0.27055 0.0
O479 O 0.23805 0.23947 0.24784 0.0
O480 O 0.27175 0.26813 0.26996 0.0
O481 O 0.25599 0.28617 0.31808 0.0
C482 C 0.34026 0.31127 0.24326 0.0
O483 O 0.30218 0.28822 0.30838 0.0
C484 C 0.26406 0.3458 0.29027 0.0
C485 C 0.24283 0.31175 0.22293 0.0
O486 O 0.34124 0.32548 0.26806 0.0
O487 O 0.31453 0.29761 0.2343 0.0
O488 O 0.29134 0.35417 0.2887 0.0
O489 O 0.25758 0.31918 0.28177 0.0
O490 O 0.27076 0.31684 0.23104 0.0
O491 O 0.2231 0.29761 0.2371 0.0
C492 C 0.18302 0.26348 0.29822 0.0
O493 O 0.19062 0.28641 0.28507 0.0
O494 O 0.20244 0.24782 0.29772 0.0
C495 C 0.26585 0.24665 0.25174 0.0
Tb496 Tb 0.52159 0.52479 0.97793 0.0
C497 C 0.48302 0.50137 0.02255 0.0
Tb498 Tb 0.55021 0.5215 0.03808 0.0
O499 O 0.50876 0.47702 0.9724 0.0
O500 O 0.5455 0.49767 0.99825 0.0
O501 O 0.48367 0.51528 -0.00067 0.0
C502 C 0.5632 0.50426 0.08872 0.0
O503 O 0.50652 0.49779 0.03782 0.0
C504 C 0.54453 0.57345 0.02641 0.0
C505 C 0.58921 0.54324 0.99324 0.0
O506 O 0.54479 0.52025 0.08252 0.0
O507 O 0.57529 0.49848 0.06647 0.0
O508 O 0.56337 0.5688 0.04617 0.0
O509 O 0.52777 0.54988 0.01734 0.0
O510 O 0.58815 0.53009 0.01696 0.0
O511 O 0.56596 0.54679 0.97729 0.0
C512 C 0.50421 0.5405 0.92765 0.0
O513 O 0.52295 0.52447 0.93246 0.0
O514 O 0.49475 0.54742 0.95115 0.0
C515 C 0.52994 0.47345 0.9901 0.0
Tb516 Tb 0.8122 0.28792 0.2725 0.0
C517 C 0.763 0.28491 0.31019 0.0
Tb518 Tb 0.75139 0.2761 0.24328 0.0
O519 O 0.80774 0.33139 0.2892 0.0
O520 O 0.78559 0.3121 0.25053 0.0
O521 O 0.78866 0.27909 0.30847 0.0
C522 C 0.69696 0.27487 0.22601 0.0
O523 O 0.74619 0.28856 0.28743 0.0
C524 C 0.77464 0.23048 0.24578 0.0
C525 C 0.8009 0.28165 0.20503 0.0
O526 O 0.7066 0.25572 0.24035 0.0
O527 O 0.71804 0.29485 0.22108 0.0
O528 O 0.75459 0.23268 0.22622 0.0
O529 O 0.77824 0.2516 0.26455 0.0
O530 O 0.77385 0.28346 0.20631 0.0
O531 O 0.81919 0.2813 0.22787 0.0
C532 C 0.86421 0.28362 0.29454 0.0
O533 O 0.85551 0.30779 0.29164 0.0
O534 O 0.84367 0.26202 0.28507 0.0
C535 C 0.78869 0.33366 0.26856 0.0
Tb536 Tb 0.98694 0.49768 0.52384 0.0
C537 C 0.03478 0.46372 0.53906 0.0
Tb538 Tb 0.04868 0.53055 0.52803 0.0
O539 O 0.9918 0.46907 0.48723 0.0
O540 O 0.01619 0.51126 0.49486 0.0
O541 O 0.00813 0.46549 0.54201 0.0
C542 C 0.10422 0.54867 0.52494 0.0
O543 O 0.05311 0.4852 0.53045 0.0
C544 C 0.0213 0.54041 0.57161 0.0
C545 C 1.00124 0.5641 0.51063 0.0
O546 O 0.09292 0.54216 0.54774 0.0
O547 O 0.08418 0.54533 0.50382 0.0
O548 O 0.0416 0.55953 0.56397 0.0
O549 O 0.01934 0.5168 0.55666 0.0
O550 O 0.02819 0.56267 0.5086 0.0
O551 O 0.98295 0.54265 0.51937 0.0
C552 C 0.93282 0.48074 0.5332 0.0
O553 O 0.95504 0.48154 0.55127 0.0
O554 O 0.94101 0.48896 0.50946 0.0
C555 C 0.01291 0.48743 0.47975 0.0
Tb556 Tb 0.76879 0.80195 0.30063 0.0
C557 C 0.76616 0.84334 0.25371 0.0
Tb558 Tb 0.75792 0.77554 0.241 0.0
O559 O 0.81343 0.8207 0.29813 0.0
O560 O 0.79349 0.78298 0.27281 0.0
O561 O 0.75856 0.83848 0.27909 0.0
C562 C 0.75839 0.76212 0.18612 0.0
O563 O 0.77143 0.82203 0.23666 0.0
C564 C 0.71208 0.77525 0.26657 0.0
C565 C 0.76009 0.73287 0.28768 0.0
O566 O 0.73909 0.77332 0.19718 0.0
O567 O 0.77744 0.75816 0.20596 0.0
O568 O 0.71425 0.75532 0.24713 0.0
O569 O 0.73395 0.79509 0.26889 0.0
O570 O 0.76141 0.7357 0.26036 0.0
O571 O 0.76104 0.75547 0.30633 0.0
C572 C 0.76074 0.81391 0.35405 0.0
O573 O 0.75067 0.78948 0.33899 0.0
O574 O 0.77574 0.83172 0.33928 0.0
C575 C 0.81563 0.80272 0.27695 0.0
Tb576 Tb 0.76637 0.3288 0.76299 0.0
C577 C 0.81358 0.2897 0.75881 0.0
Tb578 Tb 0.7474 0.26038 0.75587 0.0
O579 O 0.76023 0.32954 0.8079 0.0
O580 O 0.77015 0.29323 0.7873 0.0
O581 O 0.80734 0.31611 0.75957 0.0
C582 C 0.73342 0.20576 0.76833 0.0
O583 O 0.79394 0.26539 0.75853 0.0
C584 C 0.73857 0.28382 0.70747 0.0
C585 C 0.70111 0.30016 0.7572 0.0
O586 O 0.74758 0.21416 0.74762 0.0
O587 O 0.72721 0.22819 0.78203 0.0
O588 O 0.73242 0.25598 0.70968 0.0
O589 O 0.74987 0.29523 0.7315 0.0
O590 O 0.70789 0.27503 0.76378 0.0
O591 O 0.72053 0.3229 0.75231 0.0
C592 C 0.78773 0.38298 0.75205 0.0
O593 O 0.78944 0.35937 0.73717 0.0
O594 O 0.77403 0.37617 0.77346 0.0
C595 C 0.76307 0.30281 0.81017 0.0
Tb596 Tb 0.7491 0.78992 0.80257 0.0
C597 C 0.81243 0.80704 0.82696 0.0
Tb598 Tb 0.79333 0.80314 0.76231 0.0
O599 O 0.76142 0.74941 0.81316 0.0
O600 O 0.76853 0.76444 0.77418 0.0
O601 O 0.78685 0.81233 0.83037 0.0
C602 C 0.83335 0.80084 0.72856 0.0
O603 O 0.81888 0.79907 0.80169 0.0
C604 C 0.7676 0.84602 0.77608 0.0
C605 C 0.72945 0.78682 0.73689 0.0
O606 O 0.81092 0.78095 0.72924 0.0
O607 O 0.83351 0.82256 0.74705 0.0
O608 O 0.77715 0.84243 0.75188 0.0
O609 O 0.77507 0.82774 0.79173 0.0
O610 O 0.75599 0.7868 0.7322 0.0
O611 O 0.72185 0.78941 0.7627 0.0
C612 C 0.70711 0.79017 0.83496 0.0
O613 O 0.71057 0.80463 0.81304 0.0
O614 O 0.72723 0.77563 0.83861 0.0
C615 C 0.77437 0.7462 0.79108 0.0
Tb616 Tb 0.52461 0.55828 0.50623 0.0
C617 C 0.51739 0.51371 0.45268 0.0
Tb618 Tb 0.49648 0.49604 0.50889 0.0
O619 O 0.56372 0.55346 0.53223 0.0
O620 O 0.53891 0.51826 0.5071 0.0
O621 O 0.51495 0.54032 0.46177 0.0
C622 C 0.48191 0.44159 0.52308 0.0
O623 O 0.51485 0.49247 0.46951 0.0
C624 C 0.46141 0.52932 0.48934 0.0
C625 C 0.50657 0.5397 0.56335 0.0
O626 O 0.49507 0.44925 0.50164 0.0
O627 O 0.47666 0.46455 0.53632 0.0
O628 O 0.45772 0.5015 0.48256 0.0
O629 O 0.48232 0.5361 0.50824 0.0
O630 O 0.50777 0.51303 0.55335 0.0
O631 O 0.50894 0.56144 0.54712 0.0
C632 C 0.53586 0.61319 0.49253 0.0
O633 O 0.54548 0.59178 0.48118 0.0
O634 O 0.52046 0.60373 0.51185 0.0
C635 C 0.56005 0.52554 0.52577 0.0
Tb636 Tb 0.0492 0.5389 0.01425 0.0
C637 C 0.0306 0.51453 0.07247 0.0
Tb638 Tb 0.98903 0.53565 0.02854 0.0
O639 O 0.05717 0.58624 0.01728 0.0
O640 O 0.02893 0.56309 0.04204 0.0
O641 O 0.04816 0.51528 0.05265 0.0
C642 C 0.93851 0.54782 0.0364 0.0
O643 O 0.00674 0.52467 0.06905 0.0
C644 C 1.00002 0.48671 0.00776 0.0
C645 C 0.00676 0.56067 0.97072 0.0
O646 O 0.94276 0.52712 0.01898 0.0
O647 O 0.96276 0.5613 0.04991 0.0
O648 O 0.98163 0.48836 0.02557 0.0
O649 O 0.00926 0.51165 0.00048 0.0
O650 O 0.98947 0.55948 0.99071 0.0
O651 O 0.03095 0.55087 0.97383 0.0
C652 C 0.09962 0.52567 0.0069 0.0
O653 O 0.09529 0.5454 0.02538 0.0
O654 O 0.07556 0.51383 0.99191 0.0
C655 C 0.03845 0.58799 0.03473 0.0
H656 H 0.03664 0.25128 0.96431 0.0
H657 H 0.04336 0.21167 0.88167 0.0
H658 H 0.05537 0.16894 0.90293 0.0
H659 H 0.05641 0.14032 0.94427 0.0
H660 H 0.05072 0.18059 0.02696 0.0
H661 H 0.04622 0.22603 0.00656 0.0
C662 C 0.04143 0.23353 0.9511 0.0
C663 C 0.03879 0.23419 0.92155 0.0
C664 C 0.04816 0.20921 0.96345 0.0
C665 C 0.04532 0.21145 0.90449 0.0
C666 C 0.05192 0.187 0.91662 0.0
C667 C 0.0548 0.1593 0.95783 0.0
C668 C 0.05341 0.15722 0.98691 0.0
C669 C 0.05225 0.18522 0.94594 0.0
C670 C 0.05173 0.18184 0.00449 0.0
C671 C 0.049 0.20769 0.99281 0.0
H672 H 0.09464 0.83297 0.2221 0.0
H673 H 0.0588 0.74264 0.22723 0.0
H674 H 0.10206 0.73719 0.25649 0.0
H675 H 0.15331 0.75613 0.27217 0.0
H676 H 0.18823 0.8471 0.26736 0.0
H677 H 0.14202 0.85439 0.24718 0.0
C678 C 0.09592 0.81241 0.23062 0.0
C679 C 0.07374 0.78822 0.22251 0.0
C680 C 0.12094 0.80942 0.24709 0.0
C681 C 0.07554 0.76164 0.23348 0.0
C682 C 0.10045 0.75844 0.24989 0.0
C683 C 0.15066 0.77773 0.26749 0.0
C684 C 0.17456 0.8008 0.27061 0.0
C685 C 0.12384 0.78186 0.25561 0.0
C686 C 0.17048 0.82874 0.26483 0.0
C687 C 0.14399 0.83299 0.2531 0.0
H688 H 0.49659 0.84667 0.45291 0.0
H689 H 0.53479 0.89024 0.38581 0.0
H690 H 0.53272 0.9376 0.41003 0.0
H691 H 0.51443 0.96576 0.44772 0.0
H692 H 0.47531 0.92038 0.51356 0.0
H693 H 0.48335 0.87449 0.4924 0.0
C694 C 0.50483 0.86656 0.44374 0.0
C695 C 0.51544 0.86506 0.41748 0.0
C696 C 0.50305 0.89331 0.45742 0.0
C697 C 0.52652 0.89093 0.40604 0.0
C698 C 0.52509 0.91793 0.41977 0.0
C699 C 0.50805 0.94583 0.45755 0.0
C700 C 0.49391 0.9463 0.48192 0.0
C701 C 0.51253 0.9193 0.44505 0.0
C702 C 0.48589 0.92046 0.49461 0.0
C703 C 0.4905 0.89422 0.48255 0.0
H704 H 0.38991 0.2434 0.67754 0.0
H705 H 0.43557 0.31904 0.73155 0.0
H706 H 0.39191 0.32493 0.75052 0.0
H707 H 0.34071 0.30953 0.7516 0.0
H708 H 0.29379 0.23442 0.69803 0.0
H709 H 0.33768 0.22761 0.67892 0.0
C710 C 0.39031 0.261 0.69363 0.0
C711 C 0.41619 0.2807 0.70309 0.0
C712 C 0.36479 0.26457 0.70437 0.0
C713 C 0.41613 0.30355 0.72377 0.0
C714 C 0.39109 0.307 0.73466 0.0
C715 C 0.34003 0.29164 0.73572 0.0
C716 C 0.31396 0.27255 0.72624 0.0
C717 C 0.3653 0.28782 0.72502 0.0
C718 C 0.31352 0.24953 0.70561 0.0
C719 C 0.33867 0.24558 0.69477 0.0
H720 H 0.01022 0.84716 0.55371 0.0
H721 H 0.91943 0.82553 0.55599 0.0
H722 H 0.91358 0.86864 0.53208 0.0
H723 H 0.93474 0.91378 0.51225 0.0
H724 H 0.02544 0.93416 0.5093 0.0
H725 H 0.03084 0.89018 0.53152 0.0
C726 C 0.98915 0.85185 0.54895 0.0
C727 C 0.96535 0.83335 0.55678 0.0
C728 C 0.98592 0.87643 0.535 0.0
C729 C 0.93812 0.8395 0.55018 0.0
C730 C 0.93475 0.86414 0.53652 0.0
C731 C 0.95555 0.90827 0.51614 0.0
C732 C 0.97968 0.92717 0.50945 0.0
C733 C 0.95853 0.88289 0.529 0.0
C734 C 0.00659 0.91994 0.51451 0.0
C735 C 0.00972 0.89486 0.52727 0.0
H736 H 0.4759 0.79665 0.88502 0.0
H737 H 0.4241 0.72966 0.92481 0.0
H738 H 0.38526 0.7258 0.88658 0.0
H739 H 0.36457 0.74462 0.8447 0.0
H740 H 0.41383 0.8154 0.80743 0.0
H741 H 0.45541 0.81446 0.84154 0.0
C742 C 0.45623 0.78094 0.885 0.0
C743 C 0.45272 0.76346 0.9076 0.0
C744 C 0.4336 0.77967 0.86352 0.0
C745 C 0.42711 0.74342 0.90766 0.0
C746 C 0.40496 0.74121 0.88584 0.0
C747 C 0.38455 0.75956 0.84376 0.0
C748 C 0.38627 0.78008 0.82371 0.0
C749 C 0.40774 0.75969 0.86408 0.0
C750 C 0.41213 0.79943 0.82277 0.0
C751 C 0.4358 0.79896 0.84231 0.0
H752 H 0.44927 0.20026 0.02914 0.0
H753 H 0.53816 0.24063 0.04298 0.0
H754 H 0.54927 0.20253 0.01107 0.0
H755 H 0.53498 0.15115 0.99246 0.0
H756 H 0.44576 0.11052 0.9798 0.0
H757 H 0.43334 0.15578 0.99671 0.0
C758 C 0.47078 0.20147 0.02383 0.0
C759 C 0.49297 0.2226 0.03849 0.0
C760 C 0.47702 0.17908 0.00616 0.0
C761 C 0.52083 0.22434 0.03175 0.0
C762 C 0.52721 0.20234 0.01382 0.0
C763 C 0.51275 0.15247 0.9923 0.0
C764 C 0.49149 0.1271 0.9865 0.0
C765 C 0.50573 0.17844 0.00282 0.0
C766 C 0.46272 0.12946 0.98529 0.0
C767 C 0.45552 0.15535 0.99511 0.0
H768 H 0.09829 0.23601 0.38944 0.0
H769 H 0.08111 0.31939 0.36901 0.0
H770 H 0.11339 0.32132 0.33294 0.0
H771 H 0.14799 0.30048 0.30833 0.0
H772 H 0.16651 0.21785 0.32905 0.0
H773 H 0.13197 0.21426 0.36346 0.0
C774 C 0.10159 0.25457 0.37708 0.0
C775 C 0.08736 0.27758 0.38213 0.0
C776 C 0.12031 0.25561 0.35624 0.0
C777 C 0.09182 0.30141 0.36576 0.0
C778 C 0.11026 0.30254 0.34502 0.0
C779 C 0.14415 0.28149 0.32009 0.0
C780 C 0.15963 0.25941 0.31612 0.0
C781 C 0.12475 0.27988 0.34019 0.0
C782 C 0.15468 0.23505 0.33166 0.0
C783 C 0.13508 0.23308 0.35145 0.0
H784 H 0.92411 0.0786 0.16031 0.0
H785 H 0.98305 0.03564 0.20717 0.0
H786 H 0.0122 0.0378 0.16858 0.0
H787 H 0.0174 0.04542 0.11905 0.0
H788 H 0.96039 0.08985 0.07199 0.0
H789 H 0.93415 0.09376 0.11304 0.0
C790 C 0.9437 0.07041 0.16235 0.0
C791 C 0.95096 0.05637 0.18635 0.0
C792 C 0.9605 0.07155 0.13985 0.0
C793 C 0.9766 0.04608 0.18874 0.0
C794 C 0.99332 0.0472 0.16662 0.0
C795 C 0.99954 0.05642 0.11806 0.0
C796 C 0.99052 0.06705 0.09272 0.0
C797 C 0.98486 0.05878 0.14168 0.0
C798 C 0.96762 0.08157 0.0915 0.0
C799 C 0.95257 0.08366 0.11487 0.0
H800 H 0.29515 0.69748 0.41025 0.0
H801 H 0.31153 0.77873 0.4627 0.0
H802 H 0.30308 0.80475 0.42121 0.0
H803 H 0.28541 0.80376 0.37111 0.0
H804 H 0.27067 0.72349 0.31736 0.0
H805 H 0.28351 0.69765 0.35808 0.0
C806 C 0.29797 0.72099 0.41232 0.0
C807 C 0.30429 0.73626 0.43944 0.0
C808 C 0.29228 0.73583 0.38828 0.0
C809 C 0.30709 0.76663 0.44198 0.0
C810 C 0.30184 0.78147 0.41832 0.0
C811 C 0.285 0.7806 0.36827 0.0
C812 C 0.2761 0.76537 0.3414 0.0
C813 C 0.29335 0.76616 0.39156 0.0
C814 C 0.27654 0.73555 0.33797 0.0
C815 C 0.2842 0.72082 0.36123 0.0
H816 H 0.52195 0.00028 0.69238 0.0
H817 H 0.60419 0.98337 0.6776 0.0
H818 H 0.59232 0.98575 0.62655 0.0
H819 H 0.5596 0.99693 0.58653 0.0
H820 H 0.47758 0.01375 0.60343 0.0
H821 H 0.4885 0.00728 0.65298 0.0
C822 C 0.5372 0.99671 0.67799 0.0
C823 C 0.56398 0.99185 0.68884 0.0
C824 C 0.53041 0.99853 0.64894 0.0
C825 C 0.58335 0.987 0.66981 0.0
C826 C 0.57665 0.98866 0.64064 0.0
C827 C 0.54411 0.99905 0.60105 0.0
C828 C 0.51789 0.00615 0.59104 0.0
C829 C 0.55046 0.99515 0.63 0.0
C830 C 0.49798 0.00846 0.61025 0.0
C831 C 0.50416 0.00475 0.63876 0.0
H832 H 0.28128 0.31279 0.95298 0.0
H833 H 0.22 0.36841 0.94284 0.0
H834 H 0.20745 0.34944 0.89314 0.0
H835 H 0.21704 0.32017 0.85177 0.0
H836 H 0.2798 0.26634 0.86211 0.0
H837 H 0.28847 0.28135 0.91285 0.0
C838 C 0.265 0.32066 0.94002 0.0
C839 C 0.2519 0.34229 0.95146 0.0
C840 C 0.25824 0.31004 0.91154 0.0
C841 C 0.23063 0.35198 0.93444 0.0
C842 C 0.22345 0.34116 0.90604 0.0
C843 C 0.23233 0.31151 0.86527 0.0
C844 C 0.24797 0.29245 0.85345 0.0
C845 C 0.23759 0.32068 0.89425 0.0
C846 C 0.26768 0.28121 0.87092 0.0
C847 C 0.27267 0.2898 0.89984 0.0
H848 H 0.92437 0.07162 0.32896 0.0
H849 H 0.86652 0.98846 0.31924 0.0
H850 H 0.87516 0.98409 0.36988 0.0
H851 H 0.90403 0.00034 0.41513 0.0
H852 H 0.96532 0.08121 0.42517 0.0
H853 H 0.95027 0.09046 0.37647 0.0
C854 C 0.91326 0.05297 0.3382 0.0
C855 C 0.89503 0.03028 0.32062 0.0
C856 C 0.9192 0.05008 0.36727 0.0
C857 C 0.88084 0.00601 0.33252 0.0
C858 C 0.88579 0.00349 0.3614 0.0
C859 C 0.91371 0.02027 0.40683 0.0
C860 C 0.9359 0.0399 0.4234 0.0
C861 C 0.90568 0.02484 0.37873 0.0
C862 C 0.94823 0.06572 0.41259 0.0
C863 C 0.93974 0.07091 0.38474 0.0
H864 H 0.29377 0.76498 0.58583 0.0
H865 H 0.33357 0.69337 0.60656 0.0
H866 H 0.33667 0.70924 0.65729 0.0
H867 H 0.32217 0.7403 0.69575 0.0
H868 H 0.27961 0.80955 0.67286 0.0
H869 H 0.28356 0.79789 0.62306 0.0
C870 C 0.30355 0.75302 0.60139 0.0
C871 C 0.31316 0.72785 0.59241 0.0
C872 C 0.30449 0.76178 0.63023 0.0
C873 C 0.32609 0.71287 0.61287 0.0
C874 C 0.3276 0.72182 0.64189 0.0
C875 C 0.3144 0.75317 0.67983 0.0
C876 C 0.30054 0.77575 0.68794 0.0
C877 C 0.31605 0.74577 0.65086 0.0
C878 C 0.29018 0.79201 0.66713 0.0
C879 C 0.29242 0.78534 0.63864 0.0
H880 H 0.59108 0.02458 0.86448 0.0
H881 H 0.53538 0.94232 0.8365 0.0
H882 H 0.51317 0.94391 0.88052 0.0
H883 H 0.50539 0.97233 0.92394 0.0
H884 H 0.55836 0.05712 0.94838 0.0
H885 H 0.58589 0.05103 0.90913 0.0
C886 C 0.57485 0.00647 0.86862 0.0
C887 C 0.56541 0.98296 0.84776 0.0
C888 C 0.56123 0.00843 0.89313 0.0
C889 C 0.54356 0.96017 0.85268 0.0
C890 C 0.53058 0.96137 0.87764 0.0
C891 C 0.52318 0.98928 0.92081 0.0
C892 C 0.52982 0.01517 0.93912 0.0
C893 C 0.53851 0.98594 0.89754 0.0
C894 C 0.55289 0.03695 0.93477 0.0
C895 C 0.56862 0.03351 0.91223 0.0
H896 H 0.24447 0.38776 0.1221 0.0
H897 H 0.23226 0.30302 0.07655 0.0
H898 H 0.2215 0.27977 0.11933 0.0
H899 H 0.22545 0.28371 0.17122 0.0
H900 H 0.24248 0.36821 0.2177 0.0
H901 H 0.24101 0.39152 0.17339 0.0
C902 C 0.23844 0.36427 0.12147 0.0
C903 C 0.23932 0.34703 0.09652 0.0
C904 C 0.23359 0.35105 0.1465 0.0
C905 C 0.23186 0.3166 0.09577 0.0
C906 C 0.22586 0.30331 0.12021 0.0
C907 C 0.22775 0.30713 0.17142 0.0
C908 C 0.23393 0.32439 0.19724 0.0
C909 C 0.22811 0.32029 0.14596 0.0
C910 C 0.23752 0.35471 0.19773 0.0
C911 C 0.23689 0.36799 0.17248 0.0
H912 H 0.17643 0.98858 0.07326 0.0
H913 H 0.13289 0.92435 0.0059 0.0
H914 H 0.09247 0.94891 0.00218 0.0
H915 H 0.07019 0.98975 0.01669 0.0
H916 H 0.1146 0.05512 0.08254 0.0
H917 H 0.15366 0.02874 0.08854 0.0
C918 C 0.15808 0.97981 0.05782 0.0
C919 C 0.1579 0.95457 0.03983 0.0
C920 C 0.13493 0.99423 0.05561 0.0
C921 C 0.13381 0.94371 0.01997 0.0
C922 C 0.1106 0.95775 0.01785 0.0
C923 C 0.08827 0.99809 0.03258 0.0
C924 C 0.08942 0.02445 0.04919 0.0
C925 C 0.11101 0.98315 0.0354 0.0
C926 C 0.11311 0.03492 0.06955 0.0
C927 C 0.13553 0.01989 0.07287 0.0
H928 H 0.71625 0.59938 0.98302 0.0
H929 H 0.67459 0.64556 0.92178 0.0
H930 H 0.62878 0.61423 0.92577 0.0
H931 H 0.60008 0.57901 0.95182 0.0
H932 H 0.64148 0.53563 0.01592 0.0
H933 H 0.68795 0.56068 0.00564 0.0
C934 C 0.69728 0.60209 0.96996 0.0
C935 C 0.69873 0.62489 0.95231 0.0
C936 C 0.6709 0.58494 0.97335 0.0
C937 C 0.67395 0.62824 0.93565 0.0
C938 C 0.64774 0.61048 0.93807 0.0
C939 C 0.61924 0.57468 0.9633 0.0
C940 C 0.61728 0.5558 0.9849 0.0
C941 C 0.64585 0.58962 0.95774 0.0
C942 C 0.64236 0.55037 -0.00055 0.0
C943 C 0.66896 0.56463 0.99355 0.0
H944 H 0.71406 0.42678 0.24123 0.0
H945 H 0.73087 0.44697 0.33181 0.0
H946 H 0.75887 0.40874 0.33522 0.0
H947 H 0.77927 0.36993 0.31209 0.0
H948 H 0.75996 0.34864 0.22181 0.0
H949 H 0.73223 0.38691 0.21862 0.0
C950 C 0.72389 0.42291 0.26176 0.0
C951 C 0.72061 0.43994 0.28621 0.0
C952 C 0.73957 0.4007 0.26356 0.0
C953 C 0.73311 0.43424 0.31266 0.0
C954 C 0.74917 0.41243 0.3146 0.0
C955 C 0.76906 0.37384 0.29175 0.0
C956 C 0.77186 0.35676 0.26715 0.0
C957 C 0.75271 0.39562 0.29016 0.0
C958 C 0.75814 0.36159 0.24099 0.0
C959 C 0.74232 0.38347 0.23916 0.0
H960 H 0.81668 0.41583 0.56648 0.0
H961 H 0.78435 0.44841 0.49011 0.0
H962 H 0.83197 0.47659 0.4863 0.0
H963 H 0.88406 0.48577 0.5011 0.0
H964 H 0.91548 0.45301 0.57789 0.0
H965 H 0.867 0.43102 0.58516 0.0
C966 C 0.81995 0.4298 0.54947 0.0
C967 C 0.79725 0.42997 0.5285 0.0
C968 C 0.84733 0.44532 0.54716 0.0
C969 C 0.80154 0.44817 0.50661 0.0
C970 C 0.82883 0.46392 0.50422 0.0
C971 C 0.88015 0.47407 0.51954 0.0
C972 C 0.90322 0.47041 0.53862 0.0
C973 C 0.8521 0.46164 0.52373 0.0
C974 C 0.89802 0.45574 0.56273 0.0
C975 C 0.87032 0.4432 0.56693 0.0
H976 H 0.36537 0.17489 0.25415 0.0
H977 H 0.29748 0.10917 0.2089 0.0
H978 H 0.26506 0.14293 0.20975 0.0
H979 H 0.25486 0.19106 0.22463 0.0
H980 H 0.32267 0.25666 0.26989 0.0
H981 H 0.35566 0.22366 0.26732 0.0
C982 C 0.34353 0.16795 0.24441 0.0
C983 C 0.33414 0.13923 0.23159 0.0
C984 C 0.32468 0.18771 0.2448 0.0
C985 C 0.30561 0.13096 0.21899 0.0
C986 C 0.28687 0.15035 0.21944 0.0
C987 C 0.27692 0.19824 0.23363 0.0
C988 C 0.28609 0.22662 0.24722 0.0
C989 C 0.29602 0.17878 0.23241 0.0
C990 C 0.31482 0.23522 0.259 0.0
C991 C 0.33383 0.21618 0.25772 0.0
H992 H 0.28558 0.02449 0.48355 0.0
H993 H 0.31421 0.10984 0.52834 0.0
H994 H 0.35998 0.09784 0.54404 0.0
H995 H 0.394 0.06599 0.53898 0.0
H996 H 0.36669 0.98189 0.49166 0.0
H997 H 0.31811 0.99024 0.48335 0.0
C998 C 0.30162 0.04018 0.49725 0.0
C999 C 0.29682 0.06812 0.50438 0.0
C1000 C 0.3282 0.03347 0.50548 0.0
C1001 C 0.31769 0.0883 0.52221 0.0
C1002 C 0.34385 0.0815 0.53118 0.0
C1003 C 0.37725 0.0493 0.52734 0.0
C1004 C 0.38375 0.02362 0.51557 0.0
C1005 C 0.34971 0.0546 0.52198 0.0
C1006 C 0.36203 0.00199 0.50067 0.0
C1007 C 0.33433 0.00678 0.49585 0.0
H1008 H 0.71074 0.61747 0.33837 0.0
H1009 H 0.73296 0.57981 0.26108 0.0
H1010 H 0.75808 0.62775 0.25101 0.0
H1011 H 0.76566 0.68135 0.26025 0.0
H1012 H 0.74281 0.71814 0.33807 0.0
H1013 H 0.72633 0.66972 0.35199 0.0
C1014 C 0.72222 0.61966 0.31999 0.0
C1015 C 0.72027 0.59533 0.30057 0.0
C1016 C 0.73584 0.64729 0.31406 0.0
C1017 C 0.73471 0.59826 0.27656 0.0
C1018 C 0.74861 0.62575 0.27058 0.0
C1019 C 0.75755 0.67875 0.28046 0.0
C1020 C 0.75493 0.70343 0.29774 0.0
C1021 C 0.74804 0.65062 0.2885 0.0
C1022 C 0.74483 0.69964 0.32413 0.0
C1023 C 0.73533 0.67188 0.33217 0.0
H1024 H 0.87063 0.49252 0.7217 0.0
H1025 H 0.84649 0.53061 0.79782 0.0
H1026 H 0.81029 0.4865 0.80017 0.0
H1027 H 0.79092 0.43438 0.78398 0.0
H1028 H 0.81678 0.39713 0.70805 0.0
H1029 H 0.84671 0.44365 0.70194 0.0
C1030 C 0.85676 0.49141 0.73827 0.0
C1031 C 0.86091 0.5145 0.75949 0.0
C1032 C 0.83671 0.46595 0.73973 0.0
C1033 C 0.84322 0.51306 0.78109 0.0
C1034 C 0.82285 0.48774 0.78258 0.0
C1035 C 0.80275 0.4367 0.76588 0.0
C1036 C 0.80208 0.41233 0.74675 0.0
C1037 C 0.8202 0.46361 0.76259 0.0
C1038 C 0.81726 0.41553 0.72324 0.0
C1039 C 0.83438 0.44211 0.71971 0.0
H1040 H 1.00026 0.83217 0.06812 0.0
H1041 H 0.98456 0.8686 0.14898 0.0
H1042 H 0.9793 0.91399 0.12852 0.0
H1043 H 0.98492 0.9449 0.08883 0.0
H1044 H 0.99829 0.90735 0.00748 0.0
H1045 H 0.99858 0.86052 0.02679 0.0
C1046 C 0.99505 0.84987 0.08105 0.0
C1047 C 0.99299 0.84733 0.10999 0.0
C1048 C 0.99203 0.87567 0.06912 0.0
C1049 C 0.98606 0.87015 0.12662 0.0
C1050 C 0.98334 0.89613 0.11498 0.0
C1051 C 0.98749 0.92629 0.0753 0.0
C1052 C 0.992 0.92948 0.04693 0.0
C1053 C 0.98719 0.89941 0.08648 0.0
C1054 C 0.99488 0.90529 0.02939 0.0
C1055 C 0.99514 0.8786 0.04046 0.0
H1056 H 0.94423 0.31344 0.80167 0.0
H1057 H 0.91927 0.22785 0.82883 0.0
H1058 H 0.87252 0.222 0.80136 0.0
H1059 H 0.83631 0.24453 0.77692 0.0
H1060 H 0.85981 0.33179 0.75283 0.0
H1061 H 0.90935 0.33353 0.7713 0.0
C1062 C 0.92887 0.29315 0.80065 0.0
C1063 C 0.93512 0.27107 0.81714 0.0
C1064 C 0.90148 0.29047 0.78579 0.0
C1065 C 0.91488 0.24509 0.8162 0.0
C1066 C 0.88807 0.24183 0.80067 0.0
C1067 C 0.85235 0.26365 0.77497 0.0
C1068 C 0.84418 0.28811 0.76382 0.0
C1069 C 0.88069 0.26489 0.78647 0.0
C1070 C 0.86537 0.31273 0.76161 0.0
C1071 C 0.89376 0.3138 0.77225 0.0
H1072 H 0.50585 0.20301 0.55986 0.0
H1073 H 0.46851 0.15994 0.62767 0.0
H1074 H 0.46818 0.11235 0.60241 0.0
H1075 H 0.48441 0.08367 0.56354 0.0
H1076 H 0.52382 0.12877 0.4977 0.0
H1077 H 0.51742 0.17501 0.51967 0.0
C1078 C 0.49728 0.18319 0.569 0.0
C1079 C 0.48762 0.18487 0.59573 0.0
C1080 C 0.49788 0.15635 0.55481 0.0
C1081 C 0.47608 0.15912 0.6071 0.0
C1082 C 0.47614 0.13199 0.59276 0.0
C1083 C 0.49118 0.10363 0.55389 0.0
C1084 C 0.50496 0.10299 0.52928 0.0
C1085 C 0.48789 0.13039 0.56701 0.0
C1086 C 0.51354 0.12885 0.51683 0.0
C1087 C 0.50986 0.15527 0.52936 0.0
H1088 H 0.59033 0.76982 0.30643 0.0
H1089 H 0.63681 0.84356 0.36235 0.0
H1090 H 0.6804 0.83981 0.34171 0.0
H1091 H 0.70556 0.8153 0.30799 0.0
H1092 H 0.65967 0.74017 0.25369 0.0
H1093 H 0.61573 0.74466 0.27347 0.0
C1094 C 0.60993 0.78523 0.31392 0.0
C1095 C 0.6102 0.80709 0.33577 0.0
C1096 C 0.63511 0.78259 0.30234 0.0
C1097 C 0.63594 0.82658 0.34552 0.0
C1098 C 0.66092 0.82443 0.33375 0.0
C1099 C 0.68593 0.79991 0.30054 0.0
C1100 C 0.68581 0.7775 0.27934 0.0
C1101 C 0.6608 0.80245 0.31223 0.0
C1102 C 0.66029 0.75761 0.26999 0.0
C1103 C 0.63514 0.76021 0.28125 0.0
H1104 H 0.05053 0.17697 0.48728 0.0
H1105 H 0.95936 0.16705 0.48367 0.0
H1106 H 0.9558 0.11866 0.49998 0.0
H1107 H 0.97876 0.08005 0.51755 0.0
H1108 H 0.07001 0.09043 0.5231 0.0
H1109 H 0.07348 0.13777 0.50416 0.0
C1110 C 0.02991 0.16403 0.48979 0.0
C1111 C 0.00528 0.17553 0.48433 0.0
C1112 C 0.02806 0.13647 0.4999 0.0
C1113 C 0.97867 0.1587 0.48793 0.0
C1114 C 0.97659 0.13106 0.49728 0.0
C1115 C 0.99934 0.09269 0.51447 0.0
C1116 C 0.02406 0.08193 0.52167 0.0
C1117 C 1.00117 0.1199 0.50375 0.0
C1118 C 0.05068 0.09847 0.51785 0.0
C1119 C 0.05268 0.12545 0.5069 0.0
H1120 H 0.5662 0.24266 0.18534 0.0
H1121 H 0.58615 0.3215 0.14405 0.0
H1122 H 0.63553 0.32969 0.16617 0.0
H1123 H 0.67371 0.31234 0.19466 0.0
H1124 H 0.65289 0.23303 0.23498 0.0
H1125 H 0.60304 0.22714 0.21578 0.0
C1126 C 0.58127 0.26175 0.18126 0.0
C1127 C 0.57264 0.28125 0.16285 0.0
C1128 C 0.60948 0.26613 0.19373 0.0
C1129 C 0.59233 0.30609 0.1581 0.0
C1130 C 0.62057 0.31073 0.17064 0.0
C1131 C 0.65814 0.29393 0.19933 0.0
C1132 C 0.66682 0.27299 0.2159 0.0
C1133 C 0.62949 0.29058 0.18807 0.0
C1134 C 0.64661 0.24931 0.22208 0.0
C1135 C 0.61815 0.24591 0.21113 0.0
H1136 H 0.5112 0.86379 0.03668 0.0
H1137 H 0.57361 0.87209 0.97759 0.0
H1138 H 0.57998 0.92499 0.98408 0.0
H1139 H 0.56188 0.96797 0.00041 0.0
H1140 H 0.49688 0.95867 0.05666 0.0
H1141 H 0.49768 0.90707 0.05765 0.0
C1142 C 0.5266 0.87713 0.02559 0.0
C1143 C 0.54146 0.864 0.00625 0.0
C1144 C 0.52946 0.90738 0.02869 0.0
C1145 C 0.56165 0.88164 0.9924 0.0
C1146 C 0.56521 0.91191 0.99598 0.0
C1147 C 0.54847 0.95477 0.01346 0.0
C1148 C 0.52909 0.96687 0.02814 0.0
C1149 C 0.54834 0.92491 0.01316 0.0
C1150 C 0.51169 0.94962 0.04487 0.0
C1151 C 0.51211 0.92015 0.04542 0.0
H1152 H 0.93884 0.8013 0.66109 0.0
H1153 H 0.90152 0.70963 0.64969 0.0
H1154 H 0.86179 0.71832 0.67455 0.0
H1155 H 0.83923 0.75126 0.70147 0.0
H1156 H 0.87774 0.8424 0.71695 0.0
H1157 H 0.91571 0.83477 0.68842 0.0
C1158 C 0.92175 0.78338 0.66376 0.0
C1159 C 0.92286 0.75492 0.65359 0.0
C1160 C 0.89949 0.78843 0.67889 0.0
C1161 C 0.90099 0.7317 0.65746 0.0
C1162 C 0.87835 0.73664 0.67165 0.0
C1163 C 0.85583 0.76952 0.69841 0.0
C1164 C 0.85585 0.79733 0.71105 0.0
C1165 C 0.87765 0.7648 0.68277 0.0
C1166 C 0.87751 0.82079 0.70731 0.0
C1167 C 0.89909 0.81642 0.69104 0.0
H1168 H 0.12534 0.02204 0.87565 0.0
H1169 H 0.06317 0.94482 0.8448 0.0
H1170 H 0.0386 0.94946 0.88698 0.0
H1171 H 0.03151 0.97965 0.92961 0.0
H1172 H 0.09176 0.05993 0.95623 0.0
H1173 H 0.12009 0.05019 0.91893 0.0
C1174 C 0.10705 0.00565 0.87882 0.0
C1175 C 0.09645 0.98272 0.8578 0.0
C1176 C 0.09213 0.0096 0.90201 0.0
C1177 C 0.07207 0.96219 0.86129 0.0
C1178 C 0.0578 0.96515 0.88513 0.0
C1179 C 0.0509 0.99485 0.92724 0.0
C1180 C 0.0591 0.02075 0.94533 0.0
C1181 C 0.06702 0.98944 0.90513 0.0
C1182 C 0.08445 0.04018 0.94217 0.0
C1183 C 0.10091 0.03454 0.92098 0.0
H1184 H 0.72111 0.36264 0.60787 0.0
H1185 H 0.68523 0.27858 0.56343 0.0
H1186 H 0.68934 0.25566 0.60766 0.0
H1187 H 0.71004 0.25867 0.65732 0.0
H1188 H 0.74655 0.34234 0.70213 0.0
H1189 H 0.73584 0.36632 0.65961 0.0
C1190 C 0.71304 0.33952 0.60819 0.0
C1191 C 0.70245 0.32232 0.58257 0.0
C1192 C 0.71671 0.32632 0.63359 0.0
C1193 C 0.69294 0.29224 0.58302 0.0
C1194 C 0.69574 0.27909 0.60823 0.0
C1195 C 0.71547 0.28217 0.65782 0.0
C1196 C 0.73011 0.29868 0.68253 0.0
C1197 C 0.70879 0.29574 0.63336 0.0
C1198 C 0.73637 0.32911 0.68308 0.0
C1199 C 0.72988 0.34284 0.65881 0.0
H1200 H 0.42093 0.07915 0.34105 0.0
H1201 H 0.50685 0.10143 0.32058 0.0
H1202 H 0.52522 0.08947 0.36711 0.0
H1203 H 0.51655 0.06755 0.41204 0.0
H1204 H 0.43006 0.0444 0.43139 0.0
H1205 H 0.41255 0.06135 0.38729 0.0
C1206 C 0.44371 0.08245 0.34718 0.0
C1207 C 0.46245 0.09158 0.32741 0.0
C1208 C 0.45412 0.07443 0.37367 0.0
C1209 C 0.49193 0.09483 0.33551 0.0
C1210 C 0.50246 0.08758 0.36202 0.0
C1211 C 0.4939 0.06623 0.40659 0.0
C1212 C 0.47479 0.05437 0.42513 0.0
C1213 C 0.48372 0.07636 0.38096 0.0
C1214 C 0.44547 0.05329 0.41772 0.0
C1215 C 0.43529 0.06309 0.3924 0.0
H1216 H 0.74015 0.7396 0.05396 0.0
H1217 H 0.81301 0.69964 0.0704 0.0
H1218 H 0.81529 0.71346 0.1211 0.0
H1219 H 0.7954 0.73549 0.1608 0.0
H1220 H 0.72163 0.7738 0.14377 0.0
H1221 H 0.72089 0.762 0.09303 0.0
C1222 C 0.75669 0.73406 0.06856 0.0
C1223 C 0.77635 0.71861 0.05847 0.0
C1224 C 0.7576 0.74164 0.09752 0.0
C1225 C 0.79756 0.71149 0.07769 0.0
C1226 C 0.79887 0.71934 0.10665 0.0
C1227 C 0.77926 0.74125 0.14589 0.0
C1228 C 0.75854 0.75533 0.15576 0.0
C1229 C 0.77881 0.73416 0.1168 0.0
C1230 C 0.7377 0.76281 0.13648 0.0
C1231 C 0.73728 0.75612 0.10753 0.0
H1232 H 0.06261 0.93831 0.70261 0.0
H1233 H 0.1485 0.98146 0.69546 0.0
H1234 H 0.13653 0.98187 0.64441 0.0
H1235 H 0.09884 0.97952 0.60447 0.0
H1236 H 0.01322 0.93529 0.61168 0.0
H1237 H 0.02787 0.92529 0.65992 0.0
C1238 C 0.07893 0.94671 0.68961 0.0
C1239 C 0.10619 0.96021 0.70261 0.0
C1240 C 0.07175 0.94726 0.66045 0.0
C1241 C 0.12735 0.9709 0.68578 0.0
C1242 C 0.1204 0.97151 0.65666 0.0
C1243 C 0.08365 0.96702 0.61641 0.0
C1244 C 0.05492 0.95883 0.60504 0.0
C1245 C 0.09225 0.96128 0.64413 0.0
C1246 C 0.03542 0.94216 0.62028 0.0
C1247 C 0.04374 0.93651 0.64788 0.0
H1248 H 0.74636 0.29484 0.43903 0.0
H1249 H 0.69729 0.35791 0.41247 0.0
H1250 H 0.70326 0.34511 0.36287 0.0
H1251 H 0.72683 0.31919 0.32771 0.0
H1252 H 0.77857 0.25916 0.35665 0.0
H1253 H 0.76729 0.26776 0.40472 0.0
C1254 C 0.73663 0.3057 0.42246 0.0
C1255 C 0.72156 0.32753 0.42959 0.0
C1256 C 0.74096 0.29895 0.39438 0.0
C1257 C 0.70891 0.341 0.40766 0.0
C1258 C 0.71255 0.33383 0.37931 0.0
C1259 C 0.73524 0.3077 0.34452 0.0
C1260 C 0.7536 0.28856 0.33861 0.0
C1261 C 0.72918 0.31333 0.37249 0.0
C1262 C 0.7646 0.27411 0.36063 0.0
C1263 C 0.75811 0.27898 0.38813 0.0
H1264 H 0.47592 0.04378 0.17868 0.0
H1265 H 0.42354 0.10413 0.15238 0.0
H1266 H 0.44136 0.10307 0.10576 0.0
H1267 H 0.47282 0.08475 0.07261 0.0
H1268 H 0.52543 0.02578 0.10219 0.0
H1269 H 0.50599 0.02608 0.14722 0.0
C1270 C 0.46813 0.05677 0.16288 0.0
C1271 C 0.44823 0.07396 0.16919 0.0
C1272 C 0.47841 0.05602 0.13651 0.0
C1273 C 0.43889 0.09078 0.14827 0.0
C1274 C 0.449 0.09002 0.12155 0.0
C1275 C 0.47967 0.07178 0.08889 0.0
C1276 C 0.5005 0.05512 0.08407 0.0
C1277 C 0.4688 0.07263 0.11538 0.0
C1278 C 0.50951 0.03874 0.1054 0.0
C1279 C 0.49845 0.03896 0.1312 0.0
H1280 H 0.82457 0.77271 0.94561 0.0
H1281 H 0.82758 0.69193 0.89869 0.0
H1282 H 0.84104 0.71804 0.85798 0.0
H1283 H 0.83659 0.76071 0.83251 0.0
H1284 H 0.82448 0.83899 0.87801 0.0
H1285 H 0.83143 0.8178 0.92284 0.0
C1286 C 0.82937 0.76107 0.92681 0.0
C1287 C 0.82445 0.73059 0.92458 0.0
C1288 C 0.83524 0.77599 0.90318 0.0
C1289 C 0.83107 0.71546 0.9006 0.0
C1290 C 0.83845 0.73039 0.87727 0.0
C1291 C 0.83695 0.7736 0.85239 0.0
C1292 C 0.82958 0.80108 0.85222 0.0
C1293 C 0.83839 0.76028 0.87769 0.0
C1294 C 0.82994 0.81769 0.87787 0.0
C1295 C 0.83352 0.80541 0.9034 0.0
H1296 H 0.90095 0.14808 0.99578 0.0
H1297 H 0.83086 0.07428 0.97876 0.0
H1298 H 0.86388 0.04129 0.98071 0.0
H1299 H 0.91246 0.03253 0.9884 0.0
H1300 H 0.98341 0.1051 0.00459 0.0
H1301 H 0.9506 0.13905 0.00166 0.0
C1302 C 0.89292 0.1248 0.9924 0.0
C1303 C 0.86319 0.11393 0.9872 0.0
C1304 C 0.91228 0.10553 0.99339 0.0
C1305 C 0.85342 0.08357 0.98281 0.0
C1306 C 0.87236 0.0645 0.98393 0.0
C1307 C 0.92079 0.05579 0.99108 0.0
C1308 C 0.95039 0.06618 0.99675 0.0
C1309 C 0.90179 0.07514 0.98934 0.0
C1310 C 0.96076 0.09644 0.00017 0.0
C1311 C 0.94193 0.11589 0.99857 0.0
H1312 H 0.37744 0.42312 0.0645 0.0
H1313 H 0.3319 0.47261 0.0101 0.0
H1314 H 0.37709 0.50241 0.0011 0.0
H1315 H 0.42979 0.51084 0.005 0.0
H1316 H 0.47418 0.46022 0.05952 0.0
H1317 H 0.42923 0.43434 0.07187 0.0
C1318 C 0.37735 0.44072 0.05099 0.0
C1319 C 0.3514 0.44545 0.03776 0.0
C1320 C 0.40326 0.45728 0.04555 0.0
C1321 C 0.35161 0.46857 0.02061 0.0
C1322 C 0.37746 0.48541 0.01523 0.0
C1323 C 0.42958 0.49427 0.0197 0.0
C1324 C 0.45537 0.48734 0.03104 0.0
C1325 C 0.40346 0.47937 0.02693 0.0
C1326 C 0.45474 0.46605 0.05037 0.0
C1327 C 0.429 0.45115 0.0575 0.0
H1328 H 0.33631 0.63748 0.79371 0.0
H1329 H 0.31895 0.61588 0.70327 0.0
H1330 H 0.2934 0.65583 0.699 0.0
H1331 H 0.2757 0.69697 0.7211 0.0
H1332 H 0.29419 0.71889 0.81131 0.0
H1333 H 0.31962 0.67886 0.81555 0.0
C1334 C 0.32691 0.64142 0.77303 0.0
C1335 C 0.32946 0.62354 0.74887 0.0
C1336 C 0.31243 0.66455 0.77071 0.0
C1337 C 0.31732 0.62924 0.72224 0.0
C1338 C 0.30265 0.65207 0.71978 0.0
C1339 C 0.28521 0.6928 0.74166 0.0
C1340 C 0.2832 0.71081 0.76588 0.0
C1341 C 0.29998 0.66982 0.74388 0.0
C1342 C 0.29577 0.70546 0.79236 0.0
C1343 C 0.3102 0.68252 0.7948 0.0
H1344 H 0.23266 0.61212 0.54354 0.0
H1345 H 0.21539 0.61855 0.45409 0.0
H1346 H 0.16872 0.58648 0.45277 0.0
H1347 H 0.13017 0.56327 0.47868 0.0
H1348 H 0.1466 0.55957 0.56885 0.0
H1349 H 0.19613 0.58376 0.56844 0.0
C1350 C 0.21908 0.6054 0.52362 0.0
C1351 C 0.22744 0.61701 0.49884 0.0
C1352 C 0.19181 0.58813 0.52337 0.0
C1353 C 0.20946 0.60919 0.47325 0.0
C1354 C 0.18266 0.59125 0.4726 0.0
C1355 C 0.14476 0.56741 0.49813 0.0
C1356 C 0.13475 0.5601 0.52382 0.0
C1357 C 0.17314 0.58165 0.49777 0.0
C1358 C 0.15381 0.56531 0.54886 0.0
C1359 C 0.18213 0.5791 0.54864 0.0
H1360 H 0.68391 0.92048 0.82427 0.0
H1361 H 0.67395 0.94008 0.73717 0.0
H1362 H 0.70805 0.91004 0.72578 0.0
H1363 H 0.74097 0.87804 0.74047 0.0
H1364 H 0.75021 0.8579 0.82731 0.0
H1365 H 0.7164 0.88829 0.83883 0.0
C1366 C 0.68917 0.91825 0.80278 0.0
C1367 C 0.67629 0.93271 0.78167 0.0
C1368 C 0.70884 0.90084 0.79631 0.0
C1369 C 0.68343 0.92932 0.75392 0.0
C1370 C 0.70303 0.91214 0.74736 0.0
C1371 C 0.73567 0.88046 0.76194 0.0
C1372 C 0.74803 0.86563 0.78298 0.0
C1373 C 0.71595 0.89784 0.76837 0.0
C1374 C 0.7409 0.86894 0.81068 0.0
C1375 C 0.72154 0.88633 0.81729 0.0
H1376 H 0.7051 0.99482 0.52078 0.0
H1377 H 0.66033 0.91935 0.55551 0.0
H1378 H 0.61506 0.93278 0.5411 0.0
H1379 H 0.58801 0.96549 0.51875 0.0
H1380 H 0.63155 0.04331 0.48728 0.0
H1381 H 0.67754 0.02927 0.4999 0.0
C1382 C 0.68542 0.98142 0.52527 0.0
C1383 C 0.68615 0.95608 0.53918 0.0
C1384 C 0.65928 0.98951 0.51725 0.0
C1385 C 0.66048 0.93903 0.54501 0.0
C1386 C 0.63451 0.94659 0.53662 0.0
C1387 C 0.60755 0.97926 0.51438 0.0
C1388 C 0.60652 0.00514 0.50175 0.0
C1389 C 0.63366 0.97163 0.52264 0.0
C1390 C 0.63195 0.02313 0.49677 0.0
C1391 C 0.65816 0.01516 0.5041 0.0
H1392 H 0.3139 0.44647 0.6889 0.0
H1393 H 0.30754 0.4779 0.77442 0.0
H1394 H 0.2769 0.43145 0.78121 0.0
H1395 H 0.25875 0.37928 0.76483 0.0
H1396 H 0.26615 0.34896 0.67876 0.0
H1397 H 0.28924 0.39745 0.67015 0.0
C1398 C 0.30476 0.44348 0.70859 0.0
C1399 C 0.31255 0.46543 0.73101 0.0
C1400 C 0.28793 0.41661 0.71247 0.0
C1401 C 0.30122 0.46136 0.75669 0.0
C1402 C 0.28413 0.43465 0.7607 0.0
C1403 C 0.26503 0.3834 0.7441 0.0
C1404 C 0.26118 0.36023 0.72273 0.0
C1405 C 0.27842 0.41164 0.7391 0.0
C1406 C 0.26908 0.36613 0.69582 0.0
C1407 C 0.28233 0.39396 0.69076 0.0
H1408 H 0.13682 0.57506 0.22999 0.0
H1409 H 0.17834 0.56309 0.31153 0.0
H1410 H 0.21082 0.61029 0.31216 0.0
H1411 H 0.22337 0.6573 0.29155 0.0
H1412 H 0.18259 0.66762 0.20901 0.0
H1413 H 0.15376 0.61861 0.20658 0.0
C1414 C 0.15344 0.58258 0.24758 0.0
C1415 C 0.15525 0.56599 0.27075 0.0
C1416 C 0.17177 0.60953 0.24775 0.0
C1417 C 0.17683 0.57558 0.29341 0.0
C1418 C 0.19513 0.60264 0.29387 0.0
C1419 C 0.20834 0.64859 0.27297 0.0
C1420 C 0.20463 0.66602 0.25068 0.0
C1421 C 0.19215 0.6202 0.27154 0.0
C1422 C 0.18556 0.65456 0.22647 0.0
C1423 C 0.16909 0.62659 0.22508 0.0
H1424 H 0.50971 0.72973 0.45259 0.0
H1425 H 0.5495 0.70405 0.38073 0.0
H1426 H 0.56215 0.66301 0.40489 0.0
H1427 H 0.55682 0.63163 0.44455 0.0
H1428 H 0.51616 0.6583 0.51556 0.0
H1429 H 0.50922 0.70211 0.49378 0.0
C1430 C 0.52138 0.71529 0.44228 0.0
C1431 C 0.52822 0.71945 0.41477 0.0
C1432 C 0.52835 0.69197 0.45616 0.0
C1433 C 0.5439 0.70108 0.40188 0.0
C1434 C 0.55099 0.67761 0.41564 0.0
C1435 C 0.547 0.64739 0.45544 0.0
C1436 C 0.53678 0.64173 0.48148 0.0
C1437 C 0.54263 0.67241 0.44251 0.0
C1438 C 0.52406 0.66219 0.49544 0.0
C1439 C 0.51998 0.68716 0.48296 0.0
H1440 H 0.58384 0.32363 0.7046 0.0
H1441 H 0.55582 0.23383 0.71842 0.0
H1442 H 0.6021 0.23383 0.74542 0.0
H1443 H 0.65314 0.2574 0.75768 0.0
H1444 H 0.68004 0.34755 0.74286 0.0
H1445 H 0.63175 0.3494 0.72408 0.0
C1446 C 0.58752 0.30442 0.71455 0.0
C1447 C 0.56648 0.27885 0.70977 0.0
C1448 C 0.61431 0.30445 0.72932 0.0
C1449 C 0.57153 0.25393 0.72231 0.0
C1450 C 0.59819 0.25383 0.73734 0.0
C1451 C 0.64834 0.27763 0.75092 0.0
C1452 C 0.67057 0.3021 0.75122 0.0
C1453 C 0.6202 0.27863 0.73987 0.0
C1454 C 0.6637 0.32817 0.74257 0.0
C1455 C 0.63596 0.32933 0.73176 0.0
H1456 H 0.99487 0.35847 0.95969 0.0
H1457 H 0.03531 0.4009 0.89309 0.0
H1458 H 0.03829 0.44856 0.9194 0.0
H1459 H 0.02519 0.47794 0.95977 0.0
H1460 H 0.98396 0.43353 0.02501 0.0
H1461 H 0.9855 0.38671 0.00072 0.0
C1462 C 0.00444 0.37812 0.95085 0.0
C1463 C 0.01437 0.37624 0.92425 0.0
C1464 C 0.00577 0.40504 0.96583 0.0
C1465 C 0.02736 0.40183 0.91348 0.0
C1466 C 0.02893 0.42903 0.92846 0.0
C1467 C 0.01693 0.45796 0.96875 0.0
C1468 C 0.00418 0.45908 0.99397 0.0
C1469 C 0.0176 0.4309 0.95441 0.0
C1470 C 0.99357 0.43316 0.00549 0.0
C1471 C 0.99444 0.40639 0.99162 0.0
H1472 H 0.93613 0.8269 0.2331 0.0
H1473 H 0.9051 0.74098 0.19036 0.0
H1474 H 0.86004 0.73824 0.21054 0.0
H1475 H 0.8293 0.76056 0.24077 0.0
H1476 H 0.86169 0.84639 0.28329 0.0
H1477 H 0.90616 0.8488 0.26279 0.0
C1478 C 0.91959 0.80749 0.22816 0.0
C1479 C 0.92415 0.78418 0.2102 0.0
C1480 C 0.89383 0.80606 0.23985 0.0
C1481 C 0.90232 0.75924 0.20417 0.0
C1482 C 0.87648 0.75768 0.21568 0.0
C1483 C 0.84609 0.77978 0.2454 0.0
C1484 C 0.84215 0.80328 0.26356 0.0
C1485 C 0.87194 0.781 0.23357 0.0
C1486 C 0.86416 0.82797 0.2695 0.0
C1487 C 0.88965 0.82939 0.25776 0.0
H1488 H 0.5594 0.37486 0.06253 0.0
H1489 H 0.46816 0.35659 0.06233 0.0
H1490 H 0.46395 0.39546 0.03183 0.0
H1491 H 0.48631 0.43465 0.00503 0.0
H1492 H 0.57771 0.45567 0.00897 0.0
H1493 H 0.58183 0.41528 0.03767 0.0
C1494 C 0.53861 0.37941 0.05581 0.0
C1495 C 0.51417 0.36284 0.0645 0.0
C1496 C 0.53637 0.40195 0.03859 0.0
C1497 C 0.48735 0.36915 0.05595 0.0
C1498 C 0.48488 0.39122 0.03836 0.0
C1499 C 0.50701 0.42995 0.01186 0.0
C1500 C 0.53166 0.44742 0.00461 0.0
C1501 C 0.50923 0.40761 0.02938 0.0
C1502 C 0.5585 0.442 0.01413 0.0
C1503 C 0.56086 0.41912 0.03064 0.0
H1504 H 0.96061 0.24318 0.37085 0.0
H1505 H 0.95455 0.32072 0.4217 0.0
H1506 H 0.92233 0.33358 0.38381 0.0
H1507 H 0.89232 0.32028 0.3384 0.0
H1508 H 0.89281 0.23939 0.29029 0.0
H1509 H 0.93111 0.23037 0.32447 0.0
C1510 C 0.95241 0.26301 0.37334 0.0
C1511 C 0.95967 0.28098 0.39884 0.0
C1512 C 0.93297 0.26958 0.35196 0.0
C1513 C 0.94888 0.3065 0.40221 0.0
C1514 C 0.93058 0.31388 0.38058 0.0
C1515 C 0.90133 0.30104 0.33514 0.0
C1516 C 0.8902 0.28063 0.31195 0.0
C1517 C 0.922 0.29527 0.35564 0.0
C1518 C 0.90139 0.25542 0.30806 0.0
C1519 C 0.92309 0.25021 0.32765 0.0
H1520 H 0.95201 0.67065 0.54378 0.0
H1521 H 0.03938 0.71285 0.5433 0.0
H1522 H 0.04853 0.66997 0.5165 0.0
H1523 H 0.03457 0.61694 0.50589 0.0
H1524 H 0.94742 0.57438 0.50934 0.0
H1525 H 0.93499 0.62103 0.52142 0.0
C1526 C 0.9726 0.67088 0.53644 0.0
C1527 C 0.99507 0.69441 0.54547 0.0
C1528 C 0.97789 0.64579 0.52224 0.0
C1529 C 0.0218 0.69482 0.53626 0.0
C1530 C 0.0271 0.67015 0.52136 0.0
C1531 C 0.01266 0.61794 0.50832 0.0
C1532 C 0.99223 0.59215 0.50791 0.0
C1533 C 0.00579 0.64483 0.51612 0.0
C1534 C 0.96378 0.59387 0.51043 0.0
C1535 C 0.95662 0.62056 0.5174 0.0
H1536 H 0.61407 0.7711 0.91852 0.0
H1537 H 0.58254 0.83536 0.87084 0.0
H1538 H 0.62197 0.83786 0.84223 0.0
H1539 H 0.66531 0.82141 0.83051 0.0
H1540 H 0.69667 0.75747 0.87866 0.0
H1541 H 0.6574 0.75526 0.90739 0.0
C1542 C 0.61576 0.78566 0.90186 0.0
C1543 C 0.59532 0.80295 0.89679 0.0
C1544 C 0.63848 0.78705 0.88559 0.0
C1545 C 0.59796 0.82178 0.87519 0.0
C1546 C 0.6205 0.82323 0.85881 0.0
C1547 C 0.66348 0.80704 0.84733 0.0
C1548 C 0.6837 0.78957 0.85249 0.0
C1549 C 0.64085 0.80592 0.86378 0.0
C1550 C 0.68129 0.77111 0.87434 0.0
C1551 C 0.65885 0.76982 0.89074 0.0
H1552 H 0.46132 0.52162 0.67954 0.0
H1553 H 0.40534 0.57675 0.64832 0.0
H1554 H 0.43259 0.58531 0.60787 0.0
H1555 H 0.46911 0.5723 0.57901 0.0
H1556 H 0.52196 0.51414 0.6099 0.0
H1557 H 0.49932 0.51187 0.65334 0.0
C1558 C 0.45499 0.53563 0.66399 0.0
C1559 C 0.43095 0.54807 0.66661 0.0
C1560 C 0.47032 0.53994 0.64086 0.0
C1561 C 0.42359 0.56672 0.64662 0.0
C1562 C 0.43914 0.57154 0.62352 0.0
C1563 C 0.47614 0.55982 0.59567 0.0
C1564 C 0.49724 0.54349 0.5915 0.0
C1565 C 0.46214 0.55767 0.6201 0.0
C1566 C 0.50583 0.52689 0.61281 0.0
C1567 C 0.49278 0.52546 0.63751 0.0
H1568 H 0.78001 0.27411 0.93652 0.0
H1569 H 0.81866 0.20675 0.90066 0.0
H1570 H 0.80953 0.22345 0.85333 0.0
H1571 H 0.78865 0.2567 0.82212 0.0
H1572 H 0.74945 0.32254 0.86022 0.0
H1573 H 0.76006 0.30629 0.90676 0.0
C1574 C 0.78659 0.2629 0.91847 0.0
C1575 C 0.79993 0.23902 0.92227 0.0
C1576 C 0.7807 0.27212 0.89164 0.0
C1577 C 0.80852 0.22524 0.89848 0.0
C1578 C 0.80304 0.23466 0.8714 0.0
C1579 C 0.78228 0.26727 0.84064 0.0
C1580 C 0.76812 0.29079 0.83772 0.0
C1581 C 0.78874 0.25788 0.86767 0.0
C1582 C 0.76024 0.30444 0.86188 0.0
C1583 C 0.76643 0.29523 0.88852 0.0
H1584 H 0.08611 0.47866 0.18728 0.0
H1585 H 1.00102 0.47631 0.20858 0.0
H1586 H 0.98512 0.48463 0.1601 0.0
H1587 H 0.99679 0.4991 0.11359 0.0
H1588 H 0.08219 0.50286 0.09243 0.0
H1589 H 0.09646 0.48754 0.1387 0.0
C1590 C 0.06389 0.47897 0.18105 0.0
C1591 C 0.0448 0.47687 0.20157 0.0
C1592 C 0.05506 0.4848 0.15327 0.0
C1593 C 0.01615 0.47782 0.19321 0.0
C1594 C 0.00709 0.48288 0.16553 0.0
C1595 C 0.01848 0.49636 0.11897 0.0
C1596 C 0.03845 0.50262 0.09962 0.0
C1597 C 0.02661 0.48758 0.14571 0.0
C1598 C 0.06635 0.49845 0.10689 0.0
C1599 C 0.07457 0.48966 0.13342 0.0
H1600 H 0.75313 0.81903 0.48442 0.0
H1601 H 0.75459 0.90934 0.47325 0.0
H1602 H 0.75504 0.89956 0.4221 0.0
H1603 H 0.7589 0.86564 0.38137 0.0
H1604 H 0.75349 0.7747 0.39251 0.0
H1605 H 0.75061 0.78422 0.44307 0.0
C1606 C 0.75314 0.8364 0.47062 0.0
C1607 C 0.75414 0.86481 0.48222 0.0
C1608 C 0.75297 0.83052 0.44148 0.0
C1609 C 0.75376 0.88727 0.46446 0.0
C1610 C 0.75423 0.88173 0.43537 0.0
C1611 C 0.75695 0.84802 0.39498 0.0
C1612 C 0.75694 0.81969 0.38373 0.0
C1613 C 0.75451 0.85355 0.42378 0.0
C1614 C 0.75374 0.79672 0.40106 0.0
C1615 C 0.75212 0.80214 0.42985 0.0
H1616 H 0.46744 0.54273 0.79895 0.0
H1617 H 0.39631 0.57228 0.83038 0.0
H1618 H 0.42035 0.57678 0.87906 0.0
H1619 H 0.45835 0.5645 0.91262 0.0
H1620 H 0.52759 0.53226 0.87965 0.0
H1621 H 0.50766 0.53674 0.83148 0.0
C1622 C 0.45747 0.55072 0.81646 0.0
C1623 C 0.43011 0.55672 0.81142 0.0
C1624 C 0.47092 0.55232 0.84404 0.0
C1625 C 0.41744 0.56753 0.83397 0.0
C1626 C 0.43105 0.56979 0.86173 0.0
C1627 C 0.46921 0.55897 0.89483 0.0
C1628 C 0.49404 0.54757 0.89943 0.0
C1629 C 0.45726 0.56103 0.86706 0.0
C1630 C 0.5082 0.54065 0.87645 0.0
C1631 C 0.49685 0.54323 0.84894 0.0
H1632 H 0.81961 0.28379 0.07733 0.0
H1633 H 0.84651 0.20331 0.09242 0.0
H1634 H 0.84461 0.21322 0.14337 0.0
H1635 H 0.82818 0.24141 0.18249 0.0
H1636 H 0.79488 0.31773 0.16438 0.0
H1637 H 0.80604 0.3127 0.1157 0.0
C1638 C 0.82558 0.26851 0.09169 0.0
C1639 C 0.83295 0.24264 0.08086 0.0
C1640 C 0.82269 0.27345 0.12046 0.0
C1641 C 0.84084 0.22341 0.10004 0.0
C1642 C 0.83939 0.22892 0.12917 0.0
C1643 C 0.82391 0.25715 0.1679 0.0
C1644 C 0.81083 0.28 0.17685 0.0
C1645 C 0.82925 0.25332 0.13947 0.0
C1646 C 0.8049 0.30003 0.15783 0.0
C1647 C 0.81129 0.29714 0.13005 0.0
H1648 H 0.05009 0.45301 0.36062 0.0
H1649 H 0.08867 0.54426 0.37097 0.0
H1650 H 0.07511 0.54859 0.41864 0.0
H1651 H 0.048 0.52791 0.45541 0.0
H1652 H 0.00727 0.43732 0.44531 0.0
H1653 H 0.02569 0.43119 0.39976 0.0
C1654 C 0.05598 0.47359 0.37364 0.0
C1655 C 0.07031 0.49829 0.36237 0.0
C1656 C 0.04728 0.47617 0.40092 0.0
C1657 C 0.07753 0.52499 0.37923 0.0
C1658 C 0.0697 0.52753 0.40645 0.0
C1659 C 0.04355 0.50673 0.44347 0.0
C1660 C 0.02621 0.48318 0.4536 0.0
C1661 C 0.05389 0.5035 0.41721 0.0
C1662 C 0.02043 0.45587 0.4378 0.0
C1663 C 0.03097 0.45235 0.41176 0.0
H1664 H 0.71027 0.86261 0.64449 0.0
H1665 H 0.73524 0.79184 0.59747 0.0
H1666 H 0.72387 0.76033 0.63462 0.0
H1667 H 0.7206 0.758 0.68506 0.0
H1668 H 0.69791 0.82872 0.73371 0.0
H1669 H 0.6934 0.85465 0.69137 0.0
C1670 C 0.71216 0.84 0.64201 0.0
C1671 C 0.72447 0.82979 0.61885 0.0
C1672 C 0.70629 0.82206 0.66396 0.0
C1673 C 0.72656 0.80037 0.6156 0.0
C1674 C 0.72003 0.78229 0.6368 0.0
C1675 C 0.71304 0.77831 0.68597 0.0
C1676 C 0.71055 0.79197 0.71238 0.0
C1677 C 0.71183 0.79354 0.66185 0.0
C1678 C 0.70039 0.81804 0.71352 0.0
C1679 C 0.69832 0.83313 0.68937 0.0
H1680 H 0.66991 0.47252 0.55419 0.0
H1681 H 0.62699 0.40913 0.48588 0.0
H1682 H 0.58692 0.43416 0.48159 0.0
H1683 H 0.56412 0.47449 0.49687 0.0
H1684 H 0.60792 0.53879 0.56392 0.0
H1685 H 0.64729 0.51281 0.56929 0.0
C1686 C 0.65181 0.46408 0.53835 0.0
C1687 C 0.65163 0.43883 0.52039 0.0
C1688 C 0.62883 0.47873 0.53588 0.0
C1689 C 0.62788 0.42845 0.49998 0.0
C1690 C 0.60487 0.44276 0.49754 0.0
C1691 C 0.58221 0.48274 0.51277 0.0
C1692 C 0.58302 0.5086 0.53003 0.0
C1693 C 0.60509 0.46794 0.51535 0.0
C1694 C 0.60672 0.51899 0.5504 0.0
C1695 C 0.62929 0.50415 0.55342 0.0
H1696 H 0.13172 0.07608 0.41539 0.0
H1697 H 0.18629 0.04314 0.47731 0.0
H1698 H 0.14528 0.00932 0.48957 0.0
H1699 H 0.09354 0.99779 0.49022 0.0
H1700 H 0.03911 0.03342 0.43025 0.0
H1701 H 0.08044 0.05708 0.40945 0.0
C1702 C 0.13474 0.06094 0.43103 0.0
C1703 C 0.16179 0.0627 0.44603 0.0
C1704 C 0.111 0.04238 0.4387 0.0
C1705 C 0.16558 0.04249 0.4657 0.0
C1706 C 0.14209 0.02331 0.47292 0.0
C1707 C 0.09061 0.01008 0.47212 0.0
C1708 C 0.06337 0.01458 0.4624 0.0
C1709 C 0.11457 0.02439 0.46077 0.0
C1710 C 0.05992 0.03011 0.43858 0.0
C1711 C 0.08356 0.04374 0.42668 0.0
H1712 H 0.20435 0.92571 0.76834 0.0
H1713 H 0.23385 0.94516 0.85754 0.0
H1714 H 0.26564 0.91065 0.85427 0.0
H1715 H 0.28483 0.87453 0.82609 0.0
H1716 H 0.2537 0.85367 0.7375 0.0
H1717 H 0.22283 0.8892 0.74046 0.0
C1718 C 0.21785 0.92259 0.78707 0.0
C1719 C 0.2168 0.93824 0.81313 0.0
C1720 C 0.23583 0.90245 0.78511 0.0
C1721 C 0.23425 0.93355 0.8372 0.0
C1722 C 0.25247 0.91381 0.83535 0.0
C1723 C 0.27147 0.87802 0.8074 0.0
C1724 C 0.27162 0.86171 0.78154 0.0
C1725 C 0.25345 0.89814 0.80942 0.0
C1726 C 0.25387 0.86599 0.75761 0.0
C1727 C 0.23627 0.8863 0.75931 0.0
H1728 H 0.29481 0.96159 0.994 0.0
H1729 H 0.31585 0.96201 0.08403 0.0
H1730 H 0.36275 0.99213 0.0816 0.0
H1731 H 0.40035 0.01015 0.05267 0.0
H1732 H 0.38083 0.00605 0.96197 0.0
H1733 H 0.33081 0.98553 0.96562 0.0
C1734 C 0.30926 0.96949 0.01317 0.0
C1735 C 0.30194 0.96017 0.03922 0.0
C1736 C 0.33676 0.98525 0.01127 0.0
C1737 C 0.32101 0.96953 0.06389 0.0
C1738 C 0.34794 0.9863 0.0624 0.0
C1739 C 0.38503 0.00514 0.03376 0.0
C1740 C 0.39421 0.00904 0.00706 0.0
C1741 C 0.35652 0.99296 0.03603 0.0
C1742 C 0.37421 0.00286 0.98273 0.0
C1743 C 0.34564 0.99118 0.98482 0.0
H1744 H 0.83158 0.63664 0.79799 0.0
H1745 H 0.89012 0.68481 0.74774 0.0
H1746 H 0.86204 0.72324 0.74661 0.0
H1747 H 0.82127 0.74406 0.76187 0.0
H1748 H 0.76394 0.69451 0.81227 0.0
H1749 H 0.7911 0.65603 0.81144 0.0
C1750 C 0.83835 0.65547 0.7867 0.0
C1751 C 0.86317 0.65767 0.77308 0.0
C1752 C 0.82212 0.67738 0.78612 0.0
C1753 C 0.87125 0.6824 0.75853 0.0
C1754 C 0.85512 0.70443 0.75785 0.0
C1755 C 0.81427 0.72451 0.77188 0.0
C1756 C 0.79006 0.72209 0.78658 0.0
C1757 C 0.83045 0.70224 0.77166 0.0
C1758 C 0.78219 0.69698 0.80055 0.0
C1759 C 0.79782 0.6749 0.8002 0.0
H1760 H 0.84706 0.62522 0.02742 0.0
H1761 H 0.80947 0.559 0.95952 0.0
H1762 H 0.84517 0.53047 0.97334 0.0
H1763 H 0.89005 0.52721 0.00128 0.0
H1764 H 0.92857 0.5945 0.06779 0.0
H1765 H 0.88906 0.61954 0.05834 0.0
C1766 C 0.84652 0.60444 0.01575 0.0
C1767 C 0.82598 0.59447 0.99216 0.0
C1768 C 0.86721 0.58836 0.02362 0.0
C1769 C 0.82524 0.56727 0.97759 0.0
C1770 C 0.84564 0.55096 0.98547 0.0
C1771 C 0.88943 0.54701 0.0141 0.0
C1772 C 0.91215 0.55919 0.03503 0.0
C1773 C 0.86713 0.56167 0.00798 0.0
C1774 C 0.91124 0.58481 0.05154 0.0
C1775 C 0.8888 0.59921 0.046 0.0
H1776 H 0.15272 0.08355 0.73756 0.0
H1777 H 0.20331 0.08539 0.81791 0.0
H1778 H 0.22707 0.13583 0.81368 0.0
H1779 H 0.23171 0.18021 0.7874 0.0
H1780 H 0.18301 0.1754 0.70532 0.0
H1781 H 0.16023 0.12538 0.70988 0.0
C1782 C 0.16909 0.09498 0.75408 0.0
C1783 C 0.17612 0.08106 0.77812 0.0
C1784 C 0.18287 0.12347 0.75118 0.0
C1785 C 0.19763 0.09578 0.79919 0.0
C1786 C 0.21106 0.12461 0.79681 0.0
C1787 C 0.21621 0.16805 0.77055 0.0
C1788 C 0.20896 0.18147 0.7461 0.0
C1789 C 0.2036 0.13882 0.773 0.0
C1790 C 0.18907 0.16549 0.72425 0.0
C1791 C 0.17594 0.13691 0.72687 0.0
H1792 H 0.37185 0.99626 0.29887 0.0
H1793 H 0.33343 0.00271 0.21445 0.0
H1794 H 0.30302 0.9544 0.21434 0.0
H1795 H 0.2915 0.90826 0.23671 0.0
H1796 H 0.32888 0.90346 0.32204 0.0
H1797 H 0.35569 0.9533 0.32349 0.0
C1798 C 0.35631 0.98729 0.28072 0.0
C1799 C 0.35482 0.0027 0.25666 0.0
C1800 C 0.33916 0.95971 0.28087 0.0
C1801 C 0.33466 0.99117 0.23326 0.0
C1802 C 0.31757 0.96348 0.23311 0.0
C1803 C 0.30537 0.91833 0.25564 0.0
C1804 C 0.30872 0.90225 0.27908 0.0
C1805 C 0.32031 0.94719 0.25649 0.0
C1806 C 0.32623 0.91547 0.30371 0.0
C1807 C 0.34153 0.94391 0.30455 0.0
H1808 H 0.49497 0.31933 0.55904 0.0
H1809 H 0.46314 0.35046 0.63405 0.0
H1810 H 0.45459 0.39377 0.61129 0.0
H1811 H 0.46193 0.42519 0.57198 0.0
H1812 H 0.49478 0.39329 0.49778 0.0
H1813 H 0.49693 0.34756 0.51818 0.0
C1814 C 0.48581 0.33543 0.57029 0.0
C1815 C 0.4801 0.33209 0.59828 0.0
C1816 C 0.48133 0.36012 0.55724 0.0
C1817 C 0.46774 0.35271 0.61248 0.0
C1818 C 0.46305 0.37749 0.59953 0.0
C1819 C 0.46904 0.40796 0.56013 0.0
C1820 C 0.47849 0.4126 0.53357 0.0
C1821 C 0.47061 0.38182 0.57222 0.0
C1822 C 0.48758 0.39021 0.51832 0.0
C1823 C 0.48889 0.36413 0.53001 0.0
H1824 H 0.42131 0.73222 0.3021 0.0
H1825 H 0.45746 0.82261 0.29781 0.0
H1826 H 0.4132 0.82918 0.27113 0.0
H1827 H 0.36142 0.81112 0.25798 0.0
H1828 H 0.32612 0.7201 0.2621 0.0
H1829 H 0.37288 0.71179 0.27917 0.0
C1830 C 0.41985 0.75302 0.29423 0.0
C1831 C 0.44243 0.77691 0.30189 0.0
C1832 C 0.39424 0.75668 0.27935 0.0
C1833 C 0.44039 0.80385 0.29184 0.0
C1834 C 0.41492 0.80768 0.27694 0.0
C1835 C 0.36406 0.78931 0.26186 0.0
C1836 C 0.34 0.76649 0.25948 0.0
C1837 C 0.39121 0.78457 0.27191 0.0
C1838 C 0.34403 0.73827 0.26413 0.0
C1839 C 0.37084 0.73343 0.27405 0.0
H1840 H 0.03034 0.71623 0.07235 0.0
H1841 H 0.98335 0.67434 0.13524 0.0
H1842 H 0.98648 0.62648 0.11294 0.0
H1843 H 0.00749 0.5972 0.07838 0.0
H1844 H 0.0544 0.64069 0.01611 0.0
H1845 H 0.04682 0.68742 0.03569 0.0
C1846 C 0.02048 0.69662 0.08105 0.0
C1847 C 0.00696 0.69878 0.1056 0.0
C1848 C 0.0228 0.66953 0.06848 0.0
C1849 C 0.99387 0.67321 0.11634 0.0
C1850 C 0.9959 0.6459 0.10374 0.0
C1851 C 0.01555 0.61687 0.06884 0.0
C1852 C 0.03161 0.61555 0.04592 0.0
C1853 C 0.01104 0.64385 0.08024 0.0
C1854 C 0.04222 0.64119 0.03392 0.0
C1855 C 0.03783 0.66791 0.04504 0.0
H1856 H 0.07008 0.2446 0.789 0.0
H1857 H 0.10507 0.33154 0.82765 0.0
H1858 H 0.14783 0.33233 0.80384 0.0
H1859 H 0.17543 0.30794 0.77166 0.0
H1860 H 0.13873 0.2215 0.73263 0.0
H1861 H 0.09676 0.22083 0.75711 0.0
C1862 C 0.08698 0.26381 0.79223 0.0
C1863 C 0.08425 0.28797 0.81012 0.0
C1864 C 0.11138 0.26414 0.77844 0.0
C1865 C 0.10646 0.31266 0.8139 0.0
C1866 C 0.131 0.31308 0.80036 0.0
C1867 C 0.15825 0.28898 0.76869 0.0
C1868 C 0.16016 0.26479 0.75034 0.0
C1869 C 0.13376 0.28889 0.78259 0.0
C1870 C 0.13771 0.24043 0.74652 0.0
C1871 C 0.11368 0.24001 0.76051 0.0
H1872 H 0.53332 0.68655 0.96724 0.0
H1873 H 0.54236 0.72209 0.05425 0.0
H1874 H 0.54949 0.67535 0.07025 0.0
H1875 H 0.55028 0.62356 0.05921 0.0
H1876 H 0.53614 0.58719 0.9723 0.0
H1877 H 0.53357 0.63483 0.95627 0.0
C1878 C 0.53733 0.68407 0.98966 0.0
C1879 C 0.53775 0.70753 0.00962 0.0
C1880 C 0.53996 0.6569 0.9986 0.0
C1881 C 0.5422 0.70416 0.03864 0.0
C1882 C 0.54613 0.6775 0.04773 0.0
C1883 C 0.54665 0.62624 0.0368 0.0
C1884 C 0.54288 0.60204 0.01687 0.0
C1885 C 0.54456 0.65359 0.02789 0.0
C1886 C 0.53823 0.60545 0.98792 0.0
C1887 C 0.5371 0.63274 0.97879 0.0
H1888 H 0.06341 0.74764 0.69816 0.0
H1889 H 0.08724 0.80967 0.63816 0.0
H1890 H 0.13557 0.82277 0.66337 0.0
H1891 H 0.1721 0.81275 0.69981 0.0
H1892 H 0.14741 0.74946 0.75841 0.0
H1893 H 0.09819 0.7408 0.73646 0.0
C1894 C 0.07908 0.76419 0.69064 0.0
C1895 C 0.07193 0.77732 0.66608 0.0
C1896 C 0.10668 0.77126 0.70493 0.0
C1897 C 0.09231 0.79913 0.65696 0.0
C1898 C 0.11995 0.80653 0.67129 0.0
C1899 C 0.1558 0.7974 0.70793 0.0
C1900 C 0.16326 0.7815 0.73042 0.0
C1901 C 0.12754 0.79218 0.69489 0.0
C1902 C 0.1421 0.76174 0.74094 0.0
C1903 C 0.114 0.75675 0.72839 0.0
H1904 H 0.0313 0.33179 0.54476 0.0
H1905 H 0.08104 0.34616 0.47508 0.0
H1906 H 0.08784 0.3987 0.48631 0.0
H1907 H 0.07061 0.43962 0.5091 0.0
H1908 H 0.01611 0.42395 0.57484 0.0
H1909 H 0.02024 0.37296 0.57208 0.0
C1910 C 0.04429 0.34635 0.53244 0.0
C1911 C 0.05501 0.33502 0.50866 0.0
C1912 C 0.04672 0.37641 0.53799 0.0
C1913 C 0.07226 0.35424 0.49332 0.0
C1914 C 0.0759 0.38434 0.49955 0.0
C1915 C 0.0604 0.4252 0.5234 0.0
C1916 C 0.04284 0.43532 0.54194 0.0
C1917 C 0.06184 0.39559 0.52078 0.0
C1918 C 0.02948 0.41646 0.5602 0.0
C1919 C 0.0318 0.38733 0.55859 0.0
H1920 H 0.44762 0.31236 0.17841 0.0
H1921 H 0.39858 0.22736 0.14692 0.0
H1922 H 0.36084 0.23493 0.17526 0.0
H1923 H 0.34218 0.26528 0.20875 0.0
H1924 H 0.39168 0.34883 0.24385 0.0
H1925 H 0.42947 0.34225 0.21451 0.0
C1926 C 0.42848 0.29574 0.17764 0.0
C1927 C 0.42544 0.26954 0.16046 0.0
C1928 C 0.40737 0.29987 0.19472 0.0
C1929 C 0.40107 0.24772 0.15995 0.0
C1930 C 0.37962 0.252 0.17614 0.0
C1931 C 0.36127 0.28208 0.20999 0.0
C1932 C 0.36429 0.3076 0.22803 0.0
C1933 C 0.38264 0.2779 0.1936 0.0
C1934 C 0.38916 0.32902 0.22999 0.0
C1935 C 0.41055 0.32529 0.21316 0.0
H1936 H 0.57092 0.52891 0.34003 0.0
H1937 H 0.62797 0.47891 0.37935 0.0
H1938 H 0.59792 0.47116 0.41784 0.0
H1939 H 0.55815 0.48323 0.44238 0.0
H1940 H 0.50462 0.53704 0.40388 0.0
H1941 H 0.53056 0.53842 0.3625 0.0
C1942 C 0.57693 0.51618 0.35691 0.0
C1943 C 0.60199 0.5049 0.35704 0.0
C1944 C 0.56008 0.51248 0.37898 0.0
C1945 C 0.60893 0.488 0.37884 0.0
C1946 C 0.59178 0.48364 0.40083 0.0
C1947 C 0.55177 0.4946 0.42455 0.0
C1948 C 0.52937 0.50984 0.42589 0.0
C1949 C 0.56764 0.49635 0.4014 0.0
C1950 C 0.52166 0.52508 0.4031 0.0
C1951 C 0.53658 0.52599 0.3796 0.0
H1952 H 0.22653 0.87401 0.12385 0.0
H1953 H 0.21482 0.7948 0.06895 0.0
H1954 H 0.21976 0.76702 0.1098 0.0
H1955 H 0.23384 0.76621 0.16048 0.0
H1956 H 0.24356 0.84438 0.21646 0.0
H1957 H 0.2336 0.87173 0.17605 0.0
C1958 C 0.22387 0.85053 0.12101 0.0
C1959 C 0.22002 0.83636 0.09349 0.0
C1960 C 0.22757 0.83471 0.14473 0.0
C1961 C 0.21739 0.80603 0.08999 0.0
C1962 C 0.22066 0.79021 0.11331 0.0
C1963 C 0.23374 0.78923 0.16386 0.0
C1964 C 0.24059 0.80352 0.1913 0.0
C1965 C 0.22696 0.8045 0.14067 0.0
C1966 C 0.23945 0.83313 0.19542 0.0
C1967 C 0.23338 0.8487 0.17233 0.0
H1968 H 0.94301 0.5969 0.8601 0.0
H1969 H 0.02326 0.59286 0.82963 0.0
H1970 H 0.04362 0.58524 0.87693 0.0
H1971 H 0.03655 0.57268 0.92538 0.0
H1972 H 0.95558 0.57541 0.95536 0.0
H1973 H 0.93784 0.59038 0.9103 0.0
C1974 C 0.96527 0.59554 0.86413 0.0
C1975 C 0.98166 0.59571 0.84144 0.0
C1976 C 0.97657 0.58999 0.89128 0.0
C1977 C 0.01028 0.59309 0.84684 0.0
C1978 C 0.02185 0.58834 0.87383 0.0
C1979 C 0.01514 0.57683 0.92218 0.0
C1980 C 0.99744 0.5724 0.94379 0.0
C1981 C 0.00485 0.58551 0.89597 0.0
C1982 C 0.96979 0.57829 0.9392 0.0
C1983 C 0.95951 0.58695 0.91332 0.0
H1984 H 0.19154 0.20537 0.52302 0.0
H1985 H 0.27407 0.18241 0.53791 0.0
H1986 H 0.28276 0.20967 0.58425 0.0
H1987 H 0.26519 0.23554 0.62224 0.0
H1988 H 0.18192 0.2567 0.60949 0.0
H1989 H 0.17539 0.23513 0.56034 0.0
C1990 C 0.21151 0.20668 0.53632 0.0
C1991 C 0.2319 0.19156 0.52734 0.0
C1992 C 0.21622 0.22198 0.56327 0.0
C1993 C 0.2578 0.19346 0.54463 0.0
C1994 C 0.26287 0.20911 0.57108 0.0
C1995 C 0.24579 0.2358 0.60854 0.0
C1996 C 0.22394 0.24726 0.61926 0.0
C1997 C 0.24195 0.22275 0.58086 0.0
C1998 C 0.19896 0.24777 0.60148 0.0
C1999 C 0.19518 0.23534 0.57351 0.0
H2000 H 0.57865 0.49697 0.21851 0.0
H2001 H 0.66139 0.48362 0.20153 0.0
H2002 H 0.64558 0.4779 0.15038 0.0
H2003 H 0.61072 0.48621 0.11102 0.0
H2004 H 0.52941 0.50283 0.12999 0.0
H2005 H 0.54189 0.49743 0.1798 0.0
C2006 C 0.59293 0.49199 0.20356 0.0
C2007 C 0.62111 0.49112 0.2134 0.0
C2008 C 0.58403 0.48983 0.17457 0.0
C2009 C 0.63952 0.48435 0.19418 0.0
C2010 C 0.63058 0.48144 0.16501 0.0
C2011 C 0.59564 0.48798 0.12608 0.0
C2012 C 0.5695 0.49552 0.1172 0.0
C2013 C 0.6033 0.48561 0.15497 0.0
C2014 C 0.54989 0.49759 0.13661 0.0
C2015 C 0.55697 0.49447 0.16505 0.0
H2016 H 0.25538 0.81717 0.95465 0.0
H2017 H 0.20471 0.87838 0.92685 0.0
H2018 H 0.20753 0.86212 0.87718 0.0
H2019 H 0.22864 0.83337 0.84194 0.0
H2020 H 0.28147 0.77475 0.87207 0.0
H2021 H 0.27363 0.78723 0.92056 0.0
C2022 C 0.24463 0.82684 0.93777 0.0
C2023 C 0.23004 0.84914 0.94448 0.0
C2024 C 0.247 0.81797 0.90964 0.0
C2025 C 0.21596 0.86109 0.9223 0.0
C2026 C 0.2178 0.85194 0.89392 0.0
C2027 C 0.23804 0.82307 0.85914 0.0
C2028 C 0.25575 0.80321 0.8534 0.0
C2029 C 0.23388 0.83084 0.88734 0.0
C2030 C 0.26801 0.79025 0.8759 0.0
C2031 C 0.26349 0.79732 0.90366 0.0
H2032 H 0.9525 0.53204 0.67655 0.0
H2033 H 0.97872 0.62535 0.68375 0.0
H2034 H 1.00085 0.62201 0.63958 0.0
H2035 H 0.01625 0.59139 0.60109 0.0
H2036 H 0.99066 0.49799 0.5973 0.0
H2037 H 0.96486 0.5025 0.63797 0.0
C2038 C 0.96282 0.55179 0.66837 0.0
C2039 C 0.96419 0.5789 0.68356 0.0
C2040 C 0.97587 0.54955 0.64366 0.0
C2041 C 0.97724 0.60424 0.67241 0.0
C2042 C 0.99015 0.60224 0.64733 0.0
C2043 C 0.0049 0.57212 0.60919 0.0
C2044 C 0.00523 0.54431 0.59601 0.0
C2045 C 0.99023 0.57488 0.63314 0.0
C2046 C 0.99037 0.51957 0.60665 0.0
C2047 C 0.97574 0.52212 0.63006 0.0
H2048 H 0.24841 0.1562 0.36212 0.0
H2049 H 0.30623 0.19457 0.43577 0.0
H2050 H 0.32347 0.23716 0.41095 0.0
H2051 H 0.31296 0.26792 0.3721 0.0
H2052 H 0.24985 0.22931 0.30208 0.0
H2053 H 0.24403 0.18276 0.32105 0.0
C2054 C 0.26579 0.17331 0.37213 0.0
C2055 C 0.27592 0.17268 0.40049 0.0
C2056 C 0.27395 0.19828 0.35853 0.0
C2057 C 0.29833 0.19474 0.41367 0.0
C2058 C 0.30771 0.21935 0.3997 0.0
C2059 C 0.29834 0.24911 0.36102 0.0
C2060 C 0.28142 0.25211 0.33606 0.0
C2061 C 0.29418 0.2222 0.3728 0.0
C2062 C 0.2628 0.22765 0.3215 0.0
C2063 C 0.25946 0.20088 0.3323 0.0
H2064 H 0.35124 0.58201 0.46194 0.0
H2065 H 0.39723 0.64895 0.52569 0.0
H2066 H 0.43738 0.62399 0.52957 0.0
H2067 H 0.45899 0.58213 0.51598 0.0
H2068 H 0.41242 0.51494 0.45288 0.0
H2069 H 0.37319 0.54105 0.44753 0.0
C2070 C 0.37005 0.59128 0.47664 0.0
C2071 C 0.37099 0.61742 0.49355 0.0
C2072 C 0.39307 0.57669 0.47889 0.0
C2073 C 0.39572 0.62892 0.51242 0.0
C2074 C 0.41876 0.61462 0.51466 0.0
C2075 C 0.44035 0.57334 0.50088 0.0
C2076 C 0.43867 0.54653 0.48483 0.0
C2077 C 0.41763 0.58837 0.49815 0.0
C2078 C 0.41429 0.53544 0.46549 0.0
C2079 C 0.3918 0.55037 0.46247 0.0
H2080 H 0.86094 0.93531 0.61348 0.0
H2081 H 0.81046 0.98177 0.56063 0.0
H2082 H 0.85376 0.01256 0.54889 0.0
H2083 H 0.9052 0.01851 0.54556 0.0
H2084 H 0.95516 0.97044 0.59742 0.0
H2085 H 0.91296 0.94844 0.61782 0.0
C2086 C 0.85943 0.95285 0.60017 0.0
C2087 C 0.8326 0.95588 0.58749 0.0
C2088 C 0.88437 0.96978 0.59278 0.0
C2089 C 0.83087 0.97892 0.57061 0.0
C2090 C 0.85567 0.99629 0.56357 0.0
C2091 C 0.90702 0.00378 0.56183 0.0
C2092 C 0.93323 0.99559 0.56933 0.0
C2093 C 0.88247 0.99073 0.57322 0.0
C2094 C 0.93524 0.97687 0.59085 0.0
C2095 C 0.91105 0.96414 0.60252 0.0
H2096 H 0.81521 0.11081 0.24225 0.0
H2097 H 0.89467 0.16713 0.2319 0.0
H2098 H 0.87225 0.20937 0.23508 0.0
H2099 H 0.82968 0.23017 0.23936 0.0
H2100 H 0.75063 0.17459 0.25102 0.0
H2101 H 0.77303 0.13202 0.24829 0.0
C2102 C 0.82761 0.13231 0.24063 0.0
C2103 C 0.85657 0.13573 0.23673 0.0
C2104 C 0.81466 0.15661 0.2428 0.0
C2105 C 0.87236 0.16382 0.23489 0.0
C2106 C 0.85956 0.18803 0.23672 0.0
C2107 C 0.81771 0.20892 0.24235 0.0
C2108 C 0.78894 0.20553 0.24653 0.0
C2109 C 0.83076 0.1847 0.24072 0.0
C2110 C 0.77303 0.17763 0.24843 0.0
C2111 C 0.7858 0.15335 0.24676 0.0
H2112 H 0.71665 0.17219 0.0389 0.0
H2113 H 0.73777 0.11119 0.97683 0.0
H2114 H 0.68986 0.08082 0.97488 0.0
H2115 H 0.6405 0.07416 0.98837 0.0
H2116 H 0.62097 0.1373 0.04953 0.0
H2117 H 0.66971 0.16451 0.05403 0.0
C2118 C 0.71094 0.15212 0.02504 0.0
C2119 C 0.7306 0.14411 0.00779 0.0
C2120 C 0.68348 0.13539 0.02362 0.0
C2121 C 0.723 0.1178 0.99035 0.0
C2122 C 0.69555 0.10061 0.98907 0.0
C2123 C 0.64708 0.09382 0.00271 0.0
C2124 C 0.62714 0.1039 0.01842 0.0
C2125 C 0.67536 0.10959 0.00515 0.0
C2126 C 0.63585 0.12924 0.03707 0.0
C2127 C 0.66374 0.14479 0.03973 0.0
H2128 H 0.2039 0.44942 0.32114 0.0
H2129 H 0.13382 0.3947 0.26688 0.0
H2130 H 0.16177 0.35667 0.26238 0.0
H2131 H 0.20749 0.34022 0.27147 0.0
H2132 H 0.27785 0.39629 0.32389 0.0
H2133 H 0.24848 0.4324 0.33159 0.0
C2134 C 0.19458 0.42913 0.30846 0.0
C2135 C 0.16674 0.42509 0.2943 0.0
C2136 C 0.21091 0.40752 0.30564 0.0
C2137 C 0.15519 0.39856 0.27793 0.0
C2138 C 0.17118 0.37675 0.27535 0.0
C2139 C 0.21609 0.35999 0.28515 0.0
C2140 C 0.24467 0.36537 0.2975 0.0
C2141 C 0.19921 0.38109 0.28886 0.0
C2142 C 0.25585 0.39157 0.31437 0.0
C2143 C 0.23909 0.41228 0.31867 0.0
H2144 H 0.21239 0.47865 0.03338 0.0
H2145 H 0.18121 0.42944 0.95271 0.0
H2146 H 0.14099 0.45406 0.94766 0.0
H2147 H 0.11304 0.48758 0.96755 0.0
H2148 H 0.14553 0.5386 0.047 0.0
H2149 H 0.18694 0.51562 0.05101 0.0
C2150 C 0.19686 0.47349 0.01465 0.0
C2151 C 0.1996 0.45209 0.99361 0.0
C2152 C 0.17402 0.48809 0.01164 0.0
C2153 C 0.17957 0.44586 0.96923 0.0
C2154 C 0.15651 0.45987 0.96634 0.0
C2155 C 0.12942 0.4939 0.98551 0.0
C2156 C 0.12623 0.51458 0.00701 0.0
C2157 C 0.1533 0.48075 0.98757 0.0
C2158 C 0.14759 0.52273 0.03014 0.0
C2159 C 0.17119 0.5095 0.03253 0.0
H2160 H 0.80537 0.97691 0.24608 0.0
H2161 H 0.83063 0.94479 0.1678 0.0
H2162 H 0.80389 0.89609 0.17259 0.0
H2163 H 0.78232 0.86139 0.20388 0.0
H2164 H 0.76077 0.89297 0.28436 0.0
H2165 H 0.77691 0.94301 0.27387 0.0
C2166 C 0.80393 0.95952 0.22946 0.0
C2167 C 0.81994 0.96432 0.20665 0.0
C2168 C 0.78995 0.93124 0.23326 0.0
C2169 C 0.81836 0.94153 0.18549 0.0
C2170 C 0.80341 0.91362 0.18844 0.0
C2171 C 0.78064 0.87919 0.21893 0.0
C2172 C 0.77095 0.87338 0.24515 0.0
C2173 C 0.79058 0.90793 0.21306 0.0
C2174 C 0.76854 0.89676 0.26419 0.0
C2175 C 0.77778 0.92544 0.25821 0.0
H2176 H 0.68177 0.07184 0.7604 0.0
H2177 H 0.63286 0.10259 0.82248 0.0
H2178 H 0.66229 0.15129 0.82531 0.0
H2179 H 0.69762 0.18633 0.80569 0.0
H2180 H 0.74425 0.15699 0.74083 0.0
H2181 H 0.72037 0.1066 0.74364 0.0
C2182 C 0.6781 0.0891 0.775 0.0
C2183 C 0.65521 0.08381 0.79113 0.0
C2184 C 0.69444 0.11738 0.77571 0.0
C2185 C 0.65032 0.10632 0.80975 0.0
C2186 C 0.66706 0.13416 0.81131 0.0
C2187 C 0.70288 0.16883 0.79252 0.0
C2188 C 0.72239 0.17525 0.77292 0.0
C2189 C 0.68851 0.14015 0.79369 0.0
C2190 C 0.72911 0.15248 0.75597 0.0
C2191 C 0.71542 0.1237 0.75753 0.0
loop_
_geom_bond_atom_site_label_1
_geom_bond_atom_site_label_2
_geom_bond_distance
_geom_bond_site_symmetry_2
_ccdc_geom_bond_type
Zn0 O3 2.031 . S
Zn0 O5 2.049 . S
Zn0 O10 2.067 . S
Zn1 O2 1.962 . S
Zn1 O4 1.986 . S
Zn1 O6 1.996 . S
Zn1 O9 1.943 1_455 S
O2 Zn1 1.962 . S
O2 C7 1.254 . S
O3 Zn0 2.031 . S
O3 C7 1.269 1_655 S
O4 Zn1 1.986 . S
O4 C11 1.262 . S
O5 Zn0 2.049 . S
O5 C13 1.260 1_655 S
O6 Zn1 1.996 . S
O6 C13 1.257 . S
C7 O2 1.254 . S
C7 O3 1.269 1_455 S
C8 O9 1.249 . S
C8 O10 1.270 . S
O9 Zn1 1.943 1_655 S
O9 C8 1.249 . S
O10 Zn0 2.067 . S
O10 C8 1.270 . S
C11 O4 1.262 . S
C11 O12 1.232 . S
O12 C11 1.232 . S
C13 O5 1.260 1_455 S
C13 O6 1.257 . S
Zn14 O17 2.031 1_455 S
Zn14 O19 2.049 . S
Zn14 O24 2.067 . S
Zn15 O16 1.960 . S
Zn15 O18 1.986 1_655 S
Zn15 O20 1.997 1_655 S
Zn15 O23 1.943 . S
O16 Zn15 1.960 . S
O16 C21 1.254 . S
O17 Zn14 2.031 1_655 S
O17 C21 1.269 . S
O18 Zn15 1.986 1_455 S
O18 C25 1.262 . S
O19 Zn14 2.049 . S
O19 C27 1.260 . S
O20 Zn15 1.997 1_455 S
O20 C27 1.257 . S
C21 O16 1.254 . S
C21 O17 1.269 . S
C22 O23 1.249 . S
C22 O24 1.270 1_655 S
O23 Zn15 1.943 . S
O23 C22 1.249 . S
O24 Zn14 2.067 . S
O24 C22 1.270 1_455 S
C25 O18 1.262 . S
C25 O26 1.232 1_455 S
O26 C25 1.232 1_655 S
C27 O19 1.260 . S
C27 O20 1.257 . S
Zn28 O31 2.031 . S
Zn28 O33 2.049 . S
Zn28 O38 2.067 . S
Zn29 O30 1.962 . S
Zn29 O32 1.986 . S
Zn29 O34 1.996 . S
Zn29 O37 1.943 . S
O30 Zn29 1.962 . S
O30 C35 1.254 . S
O31 Zn28 2.031 . S
O31 C35 1.269 . S
O32 Zn29 1.986 . S
O32 C39 1.262 . S
O33 Zn28 2.049 . S
O33 C41 1.260 . S
O34 Zn29 1.996 . S
O34 C41 1.257 . S
C35 O30 1.254 . S
C35 O31 1.269 . S
C36 O37 1.249 . S
C36 O38 1.270 . S
O37 Zn29 1.943 . S
O37 C36 1.249 . S
O38 Zn28 2.067 . S
O38 C36 1.270 . S
C39 O32 1.262 . S
C39 O40 1.232 . S
O40 C39 1.232 . S
C41 O33 1.260 . S
C41 O34 1.257 . S
Zn42 O45 2.031 . S
Zn42 O47 2.049 . S
Zn42 O52 2.067 . S
Zn43 O44 1.962 . S
Zn43 O46 1.986 . S
Zn43 O48 1.996 . S
Zn43 O51 1.943 . S
O44 Zn43 1.962 . S
O44 C49 1.254 . S
O45 Zn42 2.031 . S
O45 C49 1.269 . S
O46 Zn43 1.986 . S
O46 C53 1.262 . S
O47 Zn42 2.049 . S
O47 C55 1.260 . S
O48 Zn43 1.996 . S
O48 C55 1.257 . S
C49 O44 1.254 . S
C49 O45 1.269 . S
C50 O51 1.249 . S
C50 O52 1.270 . S
O51 Zn43 1.943 . S
O51 C50 1.249 . S
O52 Zn42 2.067 . S
O52 C50 1.270 . S
C53 O46 1.262 . S
C53 O54 1.232 . S
O54 C53 1.232 . S
C55 O47 1.260 . S
C55 O48 1.257 . S
Zn56 O59 2.031 . S
Zn56 O61 2.049 . S
Zn56 O66 2.067 . S
Zn57 O58 1.962 . S
Zn57 O60 1.986 . S
Zn57 O62 1.990 1_655 S
Zn57 O65 1.943 1_655 S
O58 Zn57 1.962 . S
O58 C63 1.254 1_655 S
O59 Zn56 2.031 . S
O59 C63 1.269 . S
O60 Zn57 1.986 . S
O60 C67 1.262 . S
O61 Zn56 2.049 . S
O61 C69 1.260 . S
O62 Zn57 1.990 1_455 S
O62 C69 1.268 . S
C63 O58 1.254 1_455 S
C63 O59 1.269 . S
C64 O65 1.249 . S
C64 O66 1.270 . S
O65 Zn57 1.943 1_455 S
O65 C64 1.249 . S
O66 Zn56 2.067 . S
O66 C64 1.270 . S
C67 O60 1.262 . S
C67 O68 1.232 . S
O68 C67 1.232 . S
C69 O61 1.260 . S
C69 O62 1.268 . S
Zn70 O73 2.031 . S
Zn70 O75 2.049 . S
Zn70 O80 2.067 . S
Zn71 O72 1.962 . S
Zn71 O74 1.986 . S
Zn71 O76 1.996 . S
Zn71 O79 1.943 . S
O72 Zn71 1.962 . S
O72 C77 1.254 . S
O73 Zn70 2.031 . S
O73 C77 1.269 . S
O74 Zn71 1.986 . S
O74 C81 1.262 . S
O75 Zn70 2.049 . S
O75 C83 1.260 . S
O76 Zn71 1.996 . S
O76 C83 1.257 . S
C77 O72 1.254 . S
C77 O73 1.269 . S
C78 O79 1.249 . S
C78 O80 1.270 . S
O79 Zn71 1.943 . S
O79 C78 1.249 . S
O80 Zn70 2.067 . S
O80 C78 1.270 . S
C81 O74 1.262 . S
C81 O82 1.232 . S
O82 C81 1.232 . S
C83 O75 1.260 . S
C83 O76 1.257 . S
Zn84 O87 2.031 . S
Zn84 O89 2.049 . S
Zn84 O94 2.067 . S
Zn85 O86 1.962 . S
Zn85 O88 1.986 . S
Zn85 O90 1.996 . S
Zn85 O93 1.943 . S
O86 Zn85 1.962 . S
O86 C91 1.254 . S
O87 Zn84 2.031 . S
O87 C91 1.269 . S
O88 Zn85 1.986 . S
O88 C95 1.262 . S
O89 Zn84 2.049 . S
O89 C97 1.260 . S
O90 Zn85 1.996 . S
O90 C97 1.257 . S
C91 O86 1.254 . S
C91 O87 1.269 . S
C92 O93 1.249 . S
C92 O94 1.270 . S
O93 Zn85 1.943 . S
O93 C92 1.249 . S
O94 Zn84 2.067 . S
O94 C92 1.270 . S
C95 O88 1.262 . S
C95 O96 1.232 . S
O96 C95 1.232 . S
C97 O89 1.260 . S
C97 O90 1.257 . S
Zn98 O101 2.031 . S
Zn98 O103 2.049 . S
Zn98 O108 2.067 . S
Zn99 O100 1.962 . S
Zn99 O102 1.986 . S
Zn99 O104 1.996 . S
Zn99 O107 1.943 1_455 S
O100 Zn99 1.962 . S
O100 C105 1.254 . S
O101 Zn98 2.031 . S
O101 C105 1.269 1_655 S
O102 Zn99 1.986 . S
O102 C109 1.262 . S
O103 Zn98 2.049 . S
O103 C111 1.260 . S
O104 Zn99 1.996 . S
O104 C111 1.257 1_455 S
C105 O100 1.254 . S
C105 O101 1.269 1_455 S
C106 O107 1.249 . S
C106 O108 1.270 . S
O107 Zn99 1.943 1_655 S
O107 C106 1.249 . S
O108 Zn98 2.067 . S
O108 C106 1.270 . S
C109 O102 1.262 . S
C109 O110 1.232 . S
O110 C109 1.232 . S
C111 O103 1.260 . S
C111 O104 1.257 1_655 S
Zn112 O115 2.031 . S
Zn112 O117 2.049 . S
Zn112 O122 2.067 1_545 S
Zn113 O114 1.962 . S
Zn113 O116 1.986 . S
Zn113 O118 1.996 . S
Zn113 O121 1.943 . S
O114 Zn113 1.962 . S
O114 C119 1.254 . S
O115 Zn112 2.031 . S
O115 C119 1.269 . S
O116 Zn113 1.986 . S
O116 C123 1.262 . S
O117 Zn112 2.049 . S
O117 C125 1.260 . S
O118 Zn113 1.996 . S
O118 C125 1.257 . S
C119 O114 1.254 . S
C119 O115 1.269 . S
C120 O121 1.248 1_565 S
C120 O122 1.271 . S
O121 Zn113 1.943 . S
O121 C120 1.248 1_545 S
O122 Zn112 2.067 1_565 S
O122 C120 1.271 . S
C123 O116 1.262 . S
C123 O124 1.232 . S
O124 C123 1.232 . S
C125 O117 1.260 . S
C125 O118 1.257 . S
Zn126 O129 2.031 . S
Zn126 O131 2.049 . S
Zn126 O136 2.067 . S
Zn127 O128 1.962 . S
Zn127 O130 1.986 . S
Zn127 O132 1.996 . S
Zn127 O135 1.943 . S
O128 Zn127 1.962 . S
O128 C133 1.254 . S
O129 Zn126 2.031 . S
O129 C133 1.269 . S
O130 Zn127 1.986 . S
O130 C137 1.262 . S
O131 Zn126 2.049 . S
O131 C139 1.260 . S
O132 Zn127 1.996 . S
O132 C139 1.257 . S
C133 O128 1.254 . S
C133 O129 1.269 . S
C134 O135 1.249 . S
C134 O136 1.270 . S
O135 Zn127 1.943 . S
O135 C134 1.249 . S
O136 Zn126 2.067 . S
O136 C134 1.270 . S
C137 O130 1.262 . S
C137 O138 1.232 . S
O138 C137 1.232 . S
C139 O131 1.260 . S
C139 O132 1.257 . S
Zn140 O143 2.031 . S
Zn140 O145 2.049 . S
Zn140 O150 2.067 . S
Zn141 O142 1.962 . S
Zn141 O144 1.986 . S
Zn141 O146 1.996 . S
Zn141 O149 1.943 1_565 S
O142 Zn141 1.962 . S
O142 C147 1.254 1_565 S
O143 Zn140 2.031 . S
O143 C147 1.269 . S
O144 Zn141 1.986 . S
O144 C151 1.262 . S
O145 Zn140 2.049 . S
O145 C153 1.260 . S
O146 Zn141 1.996 . S
O146 C153 1.257 1_565 S
C147 O142 1.254 1_545 S
C147 O143 1.269 . S
C148 O149 1.249 . S
C148 O150 1.270 . S
O149 Zn141 1.943 1_545 S
O149 C148 1.249 . S
O150 Zn140 2.067 . S
O150 C148 1.270 . S
C151 O144 1.262 . S
C151 O152 1.232 . S
O152 C151 1.232 . S
C153 O145 1.260 . S
C153 O146 1.257 1_545 S
Zn154 O157 2.031 1_554 S
Zn154 O159 2.049 . S
Zn154 O164 2.067 . S
Zn155 O156 1.962 1_554 S
Zn155 O158 1.986 . S
Zn155 O160 1.996 . S
Zn155 O163 1.943 . S
O156 Zn155 1.962 1_556 S
O156 C161 1.254 . S
O157 Zn154 2.031 1_556 S
O157 C161 1.269 . S
O158 Zn155 1.986 . S
O158 C165 1.262 . S
O159 Zn154 2.049 . S
O159 C167 1.260 . S
O160 Zn155 1.996 . S
O160 C167 1.257 . S
C161 O156 1.254 . S
C161 O157 1.269 . S
C162 O163 1.249 . S
C162 O164 1.270 . S
O163 Zn155 1.943 . S
O163 C162 1.249 . S
O164 Zn154 2.067 . S
O164 C162 1.270 . S
C165 O158 1.262 . S
C165 O166 1.232 . S
O166 C165 1.232 . S
C167 O159 1.260 . S
C167 O160 1.257 . S
Zn168 O171 2.031 1_554 S
Zn168 O173 2.049 . S
Zn168 O178 2.067 . S
Zn169 O170 1.962 1_554 S
Zn169 O172 1.986 . S
Zn169 O174 1.996 . S
Zn169 O177 1.943 . S
O170 Zn169 1.962 1_556 S
O170 C175 1.254 . S
O171 Zn168 2.031 1_556 S
O171 C175 1.269 . S
O172 Zn169 1.986 . S
O172 C179 1.262 . S
O173 Zn168 2.049 . S
O173 C181 1.260 . S
O174 Zn169 1.996 . S
O174 C181 1.257 . S
C175 O170 1.254 . S
C175 O171 1.269 . S
C176 O177 1.249 . S
C176 O178 1.270 . S
O177 Zn169 1.943 . S
O177 C176 1.249 . S
O178 Zn168 2.067 . S
O178 C176 1.270 . S
C179 O172 1.262 . S
C179 O180 1.232 . S
O180 C179 1.232 . S
C181 O173 1.260 . S
C181 O174 1.257 . S
Zn182 O185 2.031 1_554 S
Zn182 O187 2.049 . S
Zn182 O192 2.067 . S
Zn183 O184 1.962 1_554 S
Zn183 O186 1.986 . S
Zn183 O188 1.996 . S
Zn183 O191 1.943 . S
O184 Zn183 1.962 1_556 S
O184 C189 1.254 . S
O185 Zn182 2.031 1_556 S
O185 C189 1.269 . S
O186 Zn183 1.986 . S
O186 C193 1.262 . S
O187 Zn182 2.049 . S
O187 C195 1.260 . S
O188 Zn183 1.996 . S
O188 C195 1.257 . S
C189 O184 1.254 . S
C189 O185 1.269 . S
C190 O191 1.249 . S
C190 O192 1.270 . S
O191 Zn183 1.943 . S
O191 C190 1.249 . S
O192 Zn182 2.067 . S
O192 C190 1.270 . S
C193 O186 1.262 . S
C193 O194 1.232 1_554 S
O194 C193 1.232 1_556 S
C195 O187 1.260 . S
C195 O188 1.257 . S
Zn196 O199 2.031 . S
Zn196 O201 2.049 . S
Zn196 O206 2.067 . S
Zn197 O198 1.962 . S
Zn197 O200 1.986 . S
Zn197 O202 1.996 . S
Zn197 O205 1.943 . S
O198 Zn197 1.962 . S
O198 C203 1.254 . S
O199 Zn196 2.031 . S
O199 C203 1.269 . S
O200 Zn197 1.986 . S
O200 C207 1.262 . S
O201 Zn196 2.049 . S
O201 C209 1.260 . S
O202 Zn197 1.996 . S
O202 C209 1.257 . S
C203 O198 1.254 . S
C203 O199 1.269 . S
C204 O205 1.249 . S
C204 O206 1.270 . S
O205 Zn197 1.943 . S
O205 C204 1.249 . S
O206 Zn196 2.067 . S
O206 C204 1.270 . S
C207 O200 1.262 . S
C207 O208 1.232 . S
O208 C207 1.232 . S
C209 O201 1.260 . S
C209 O202 1.257 . S
Zn210 O213 2.031 . S
Zn210 O215 2.049 . S
Zn210 O220 2.067 . S
Zn211 O212 1.962 . S
Zn211 O214 1.986 . S
Zn211 O216 1.996 . S
Zn211 O219 1.943 . S
O212 Zn211 1.962 . S
O212 C217 1.254 . S
O213 Zn210 2.031 . S
O213 C217 1.269 . S
O214 Zn211 1.986 . S
O214 C221 1.262 . S
O215 Zn210 2.049 . S
O215 C223 1.260 . S
O216 Zn211 1.996 . S
O216 C223 1.257 . S
C217 O212 1.254 . S
C217 O213 1.269 . S
C218 O219 1.249 . S
C218 O220 1.270 . S
O219 Zn211 1.943 . S
O219 C218 1.249 . S
O220 Zn210 2.067 . S
O220 C218 1.270 . S
C221 O214 1.262 . S
C221 O222 1.232 . S
O222 C221 1.232 . S
C223 O215 1.260 . S
C223 O216 1.257 . S
Zn224 O227 2.031 . S
Zn224 O229 2.049 . S
Zn224 O234 2.067 . S
Zn225 O226 1.962 . S
Zn225 O228 1.986 . S
Zn225 O230 1.996 . S
Zn225 O233 1.943 . S
O226 Zn225 1.962 . S
O226 C231 1.254 . S
O227 Zn224 2.031 . S
O227 C231 1.269 . S
O228 Zn225 1.986 . S
O228 C235 1.262 . S
O229 Zn224 2.049 . S
O229 C237 1.260 . S
O230 Zn225 1.996 . S
O230 C237 1.257 . S
C231 O226 1.254 . S
C231 O227 1.269 . S
C232 O233 1.249 . S
C232 O234 1.270 . S
O233 Zn225 1.943 . S
O233 C232 1.249 . S
O234 Zn224 2.067 . S
O234 C232 1.270 . S
C235 O228 1.262 . S
C235 O236 1.232 . S
O236 C235 1.232 . S
C237 O229 1.260 . S
C237 O230 1.257 . S
Zn238 O241 2.031 . S
Zn238 O243 2.049 . S
Zn238 O248 2.067 . S
Zn239 O240 1.962 . S
Zn239 O242 1.986 . S
Zn239 O244 1.996 . S
Zn239 O247 1.943 . S
O240 Zn239 1.962 . S
O240 C245 1.254 . S
O241 Zn238 2.031 . S
O241 C245 1.269 . S
O242 Zn239 1.986 . S
O242 C249 1.262 . S
O243 Zn238 2.049 . S
O243 C251 1.260 . S
O244 Zn239 1.996 . S
O244 C251 1.257 . S
C245 O240 1.254 . S
C245 O241 1.269 . S
C246 O247 1.249 . S
C246 O248 1.270 . S
O247 Zn239 1.943 . S
O247 C246 1.249 . S
O248 Zn238 2.067 . S
O248 C246 1.270 . S
C249 O242 1.262 . S
C249 O250 1.232 . S
O250 C249 1.232 . S
C251 O243 1.260 . S
C251 O244 1.257 . S
Zn252 O255 2.031 . S
Zn252 O257 2.049 . S
Zn252 O262 2.067 . S
Zn253 O254 1.962 . S
Zn253 O256 1.986 . S
Zn253 O258 1.996 . S
Zn253 O261 1.943 . S
O254 Zn253 1.962 . S
O254 C259 1.254 . S
O255 Zn252 2.031 . S
O255 C259 1.269 . S
O256 Zn253 1.986 . S
O256 C263 1.262 . S
O257 Zn252 2.049 . S
O257 C265 1.260 . S
O258 Zn253 1.996 . S
O258 C265 1.257 . S
C259 O254 1.254 . S
C259 O255 1.269 . S
C260 O261 1.249 . S
C260 O262 1.270 . S
O261 Zn253 1.943 . S
O261 C260 1.249 . S
O262 Zn252 2.067 . S
O262 C260 1.270 . S
C263 O256 1.262 . S
C263 O264 1.232 . S
O264 C263 1.232 . S
C265 O257 1.260 . S
C265 O258 1.257 . S
Zn266 O269 2.031 . S
Zn266 O271 2.049 . S
Zn266 O276 2.067 . S
Zn267 O268 1.962 . S
Zn267 O270 1.986 . S
Zn267 O272 1.988 1_565 S
Zn267 O275 1.943 1_565 S
O268 Zn267 1.962 . S
O268 C273 1.254 1_565 S
O269 Zn266 2.031 . S
O269 C273 1.269 . S
O270 Zn267 1.986 . S
O270 C277 1.262 . S
O271 Zn266 2.049 . S
O271 C279 1.260 . S
O272 Zn267 1.988 1_545 S
O272 C279 1.271 . S
C273 O268 1.254 1_545 S
C273 O269 1.269 . S
C274 O275 1.249 . S
C274 O276 1.270 . S
O275 Zn267 1.943 1_545 S
O275 C274 1.249 . S
O276 Zn266 2.067 . S
O276 C274 1.270 . S
C277 O270 1.262 . S
C277 O278 1.232 . S
O278 C277 1.232 . S
C279 O271 1.260 . S
C279 O272 1.271 . S
Zn280 O283 2.031 1_554 S
Zn280 O285 2.049 . S
Zn280 O290 2.067 . S
Zn281 O282 1.983 . S
Zn281 O284 1.976 1_556 S
Zn281 O286 1.980 1_556 S
Zn281 O289 1.941 . S
O282 Zn281 1.983 . S
O282 C287 1.254 . S
O283 Zn280 2.031 1_556 S
O283 C287 1.269 . S
O284 Zn281 1.976 1_554 S
O284 C291 1.253 1_554 S
O285 Zn280 2.049 . S
O285 C293 1.260 . S
O286 Zn281 1.980 1_554 S
O286 C293 1.257 . S
C287 O282 1.254 . S
C287 O283 1.269 . S
C288 O289 1.249 . S
C288 O290 1.270 1_556 S
O289 Zn281 1.941 . S
O289 C288 1.249 . S
O290 Zn280 2.067 . S
O290 C288 1.270 1_554 S
C291 O284 1.253 1_556 S
C291 O292 1.243 . S
O292 C291 1.243 . S
C293 O285 1.260 . S
C293 O286 1.257 . S
Zn294 O297 2.031 . S
Zn294 O299 2.049 . S
Zn294 O304 2.067 . S
Zn295 O296 1.962 . S
Zn295 O298 1.986 . S
Zn295 O300 1.996 . S
Zn295 O303 1.943 . S
O296 Zn295 1.962 . S
O296 C301 1.254 . S
O297 Zn294 2.031 . S
O297 C301 1.269 . S
O298 Zn295 1.986 . S
O298 C305 1.262 . S
O299 Zn294 2.049 . S
O299 C307 1.260 . S
O300 Zn295 1.996 . S
O300 C307 1.257 . S
C301 O296 1.254 . S
C301 O297 1.269 . S
C302 O303 1.249 . S
C302 O304 1.270 . S
O303 Zn295 1.943 . S
O303 C302 1.249 . S
O304 Zn294 2.067 . S
O304 C302 1.270 . S
C305 O298 1.262 . S
C305 O306 1.232 . S
O306 C305 1.232 . S
C307 O299 1.260 . S
C307 O300 1.257 . S
Zn308 O311 2.031 . S
Zn308 O313 2.049 . S
Zn308 O318 2.067 . S
Zn309 O310 1.962 . S
Zn309 O312 1.986 . S
Zn309 O314 1.996 . S
Zn309 O317 1.943 . S
O310 Zn309 1.962 . S
O310 C315 1.254 . S
O311 Zn308 2.031 . S
O311 C315 1.269 . S
O312 Zn309 1.986 . S
O312 C319 1.262 . S
O313 Zn308 2.049 . S
O313 C321 1.260 . S
O314 Zn309 1.996 . S
O314 C321 1.257 . S
C315 O310 1.254 . S
C315 O311 1.269 . S
C316 O317 1.249 . S
C316 O318 1.270 . S
O317 Zn309 1.943 . S
O317 C316 1.249 . S
O318 Zn308 2.067 . S
O318 C316 1.270 . S
C319 O312 1.262 . S
C319 O320 1.232 . S
O320 C319 1.232 . S
C321 O313 1.260 . S
C321 O314 1.257 . S
Zn322 O325 2.031 . S
Zn322 O327 2.049 . S
Zn322 O332 2.067 . S
Zn323 O324 1.962 . S
Zn323 O326 1.986 . S
Zn323 O328 1.996 . S
Zn323 O331 1.943 . S
O324 Zn323 1.962 . S
O324 C329 1.254 . S
O325 Zn322 2.031 . S
O325 C329 1.269 . S
O326 Zn323 1.986 . S
O326 C333 1.262 . S
O327 Zn322 2.049 . S
O327 C335 1.260 . S
O328 Zn323 1.996 . S
O328 C335 1.257 . S
C329 O324 1.254 . S
C329 O325 1.269 . S
C330 O331 1.249 . S
C330 O332 1.270 . S
O331 Zn323 1.943 . S
O331 C330 1.249 . S
O332 Zn322 2.067 . S
O332 C330 1.270 . S
C333 O326 1.262 . S
C333 O334 1.232 . S
O334 C333 1.232 . S
C335 O327 1.260 . S
C335 O328 1.257 . S
Tb336 O339 2.453 . S
Tb336 O340 2.596 . S
Tb336 O341 2.374 1_554 S
Tb336 O349 2.343 1_455 S
Tb336 O351 2.353 . S
Tb336 O353 2.427 . S
Tb336 O354 2.513 1_554 S
C337 O341 1.251 . S
C337 O343 1.263 . S
Tb338 O340 2.343 1_665 S
Tb338 O343 2.353 1_664 S
Tb338 O346 2.427 1_655 S
Tb338 O347 2.513 1_655 S
Tb338 O348 2.453 1_564 S
Tb338 O349 2.596 1_565 S
Tb338 O350 2.374 1_565 S
O339 Tb336 2.453 . S
O339 C355 1.245 . S
O340 Tb336 2.596 . S
O340 Tb338 2.343 1_445 S
O340 C355 1.259 . S
O341 Tb336 2.374 1_556 S
O341 C337 1.251 . S
C342 O346 1.275 . S
C342 O347 1.246 . S
O343 C337 1.263 . S
O343 Tb338 2.353 1_446 S
C344 O348 1.245 1_554 S
C344 O349 1.259 . S
C345 O350 1.250 1_455 S
C345 O351 1.267 . S
O346 Tb338 2.427 1_455 S
O346 C342 1.275 . S
O347 Tb338 2.513 1_455 S
O347 C342 1.246 . S
O348 Tb338 2.453 1_546 S
O348 C344 1.245 1_556 S
O349 Tb336 2.343 1_655 S
O349 Tb338 2.596 1_545 S
O349 C344 1.259 . S
O350 Tb338 2.374 1_545 S
O350 C345 1.250 1_655 S
O351 Tb336 2.353 . S
O351 C345 1.267 . S
C352 O353 1.314 . S
C352 O354 1.220 1_554 S
O353 Tb336 2.427 . S
O353 C352 1.314 . S
O354 Tb336 2.513 1_556 S
O354 C352 1.220 1_556 S
C355 O339 1.245 . S
C355 O340 1.259 . S
Tb356 O359 2.453 . S
Tb356 O360 2.596 . S
Tb356 O361 2.374 . S
Tb356 O369 2.343 . S
Tb356 O371 2.353 . S
Tb356 O373 2.427 . S
Tb356 O374 2.513 . S
C357 O361 1.251 . S
C357 O363 1.263 . S
Tb358 O360 2.343 . S
Tb358 O363 2.353 . S
Tb358 O366 2.427 . S
Tb358 O367 2.513 . S
Tb358 O368 2.453 . S
Tb358 O369 2.596 . S
Tb358 O370 2.374 . S
O359 Tb356 2.453 . S
O359 C375 1.245 . S
O360 Tb356 2.596 . S
O360 Tb358 2.343 . S
O360 C375 1.259 . S
O361 Tb356 2.374 . S
O361 C357 1.251 . S
C362 O366 1.275 . S
C362 O367 1.246 . S
O363 C357 1.263 . S
O363 Tb358 2.353 . S
C364 O368 1.245 . S
C364 O369 1.259 . S
C365 O370 1.250 . S
C365 O371 1.263 . S
O366 Tb358 2.427 . S
O366 C362 1.275 . S
O367 Tb358 2.513 . S
O367 C362 1.246 . S
O368 Tb358 2.453 . S
O368 C364 1.245 . S
O369 Tb356 2.343 . S
O369 Tb358 2.596 . S
O369 C364 1.259 . S
O370 Tb358 2.374 . S
O370 C365 1.250 . S
O371 Tb356 2.353 . S
O371 C365 1.263 . S
C372 O373 1.275 . S
C372 O374 1.246 . S
O373 Tb356 2.427 . S
O373 C372 1.275 . S
O374 Tb356 2.513 . S
O374 C372 1.246 . S
C375 O359 1.245 . S
C375 O360 1.259 . S
Tb376 O379 2.453 . S
Tb376 O380 2.596 . S
Tb376 O381 2.374 . S
Tb376 O389 2.343 1_545 S
Tb376 O391 2.353 . S
Tb376 O393 2.427 . S
Tb376 O394 2.513 1_545 S
C377 O381 1.251 . S
C377 O383 1.263 . S
Tb378 O380 2.343 . S
Tb378 O383 2.353 . S
Tb378 O386 2.427 . S
Tb378 O387 2.513 . S
Tb378 O388 2.453 1_545 S
Tb378 O389 2.596 1_545 S
Tb378 O390 2.374 . S
O379 Tb376 2.453 . S
O379 C395 1.245 . S
O380 Tb376 2.596 . S
O380 Tb378 2.343 . S
O380 C395 1.259 . S
O381 Tb376 2.374 . S
O381 C377 1.251 . S
C382 O386 1.275 . S
C382 O387 1.246 . S
O383 C377 1.263 . S
O383 Tb378 2.353 . S
C384 O388 1.245 . S
C384 O389 1.259 . S
C385 O390 1.250 . S
C385 O391 1.263 . S
O386 Tb378 2.427 . S
O386 C382 1.275 . S
O387 Tb378 2.513 . S
O387 C382 1.246 . S
O388 Tb378 2.453 1_565 S
O388 C384 1.245 . S
O389 Tb376 2.343 1_565 S
O389 Tb378 2.596 1_565 S
O389 C384 1.259 . S
O390 Tb378 2.374 . S
O390 C385 1.250 . S
O391 Tb376 2.353 . S
O391 C385 1.263 . S
C392 O393 1.275 1_565 S
C392 O394 1.246 . S
O393 Tb376 2.427 . S
O393 C392 1.275 1_545 S
O394 Tb376 2.513 1_565 S
O394 C392 1.246 . S
C395 O379 1.245 . S
C395 O380 1.259 . S
Tb396 O399 2.453 . S
Tb396 O400 2.596 . S
Tb396 O401 2.374 . S
Tb396 O409 2.343 . S
Tb396 O411 2.353 . S
Tb396 O413 2.427 . S
Tb396 O414 2.513 . S
C397 O401 1.251 . S
C397 O403 1.263 . S
Tb398 O400 2.343 . S
Tb398 O403 2.353 . S
Tb398 O406 2.427 . S
Tb398 O407 2.513 . S
Tb398 O408 2.453 . S
Tb398 O409 2.596 . S
Tb398 O410 2.374 . S
O399 Tb396 2.453 . S
O399 C415 1.245 . S
O400 Tb396 2.596 . S
O400 Tb398 2.343 . S
O400 C415 1.259 . S
O401 Tb396 2.374 . S
O401 C397 1.251 . S
C402 O406 1.275 . S
C402 O407 1.246 . S
O403 C397 1.263 . S
O403 Tb398 2.353 . S
C404 O408 1.245 . S
C404 O409 1.259 . S
C405 O410 1.250 . S
C405 O411 1.263 . S
O406 Tb398 2.427 . S
O406 C402 1.275 . S
O407 Tb398 2.513 . S
O407 C402 1.246 . S
O408 Tb398 2.453 . S
O408 C404 1.245 . S
O409 Tb396 2.343 . S
O409 Tb398 2.596 . S
O409 C404 1.259 . S
O410 Tb398 2.374 . S
O410 C405 1.250 . S
O411 Tb396 2.353 . S
O411 C405 1.263 . S
C412 O413 1.275 . S
C412 O414 1.246 . S
O413 Tb396 2.427 . S
O413 C412 1.275 . S
O414 Tb396 2.513 . S
O414 C412 1.246 . S
C415 O399 1.245 . S
C415 O400 1.259 . S
Tb416 O419 2.453 1_545 S
Tb416 O420 2.596 . S
Tb416 O421 2.374 1_455 S
Tb416 O429 2.343 . S
Tb416 O431 2.353 . S
Tb416 O433 2.427 . S
Tb416 O434 2.513 1_455 S
C417 O421 1.251 . S
C417 O423 1.263 . S
Tb418 O420 2.343 . S
Tb418 O423 2.353 1_455 S
Tb418 O426 2.427 . S
Tb418 O427 2.513 . S
Tb418 O428 2.453 . S
Tb418 O429 2.596 . S
Tb418 O430 2.374 . S
O419 Tb416 2.453 1_565 S
O419 C435 1.245 . S
O420 Tb416 2.596 . S
O420 Tb418 2.343 . S
O420 C435 1.259 1_545 S
O421 Tb416 2.374 1_655 S
O421 C417 1.251 . S
C422 O426 1.275 . S
C422 O427 1.246 . S
O423 C417 1.263 . S
O423 Tb418 2.353 1_655 S
C424 O428 1.245 . S
C424 O429 1.259 . S
C425 O430 1.250 . S
C425 O431 1.263 . S
O426 Tb418 2.427 . S
O426 C422 1.275 . S
O427 Tb418 2.513 . S
O427 C422 1.246 . S
O428 Tb418 2.453 . S
O428 C424 1.245 . S
O429 Tb416 2.343 . S
O429 Tb418 2.596 . S
O429 C424 1.259 . S
O430 Tb418 2.374 . S
O430 C425 1.250 . S
O431 Tb416 2.353 . S
O431 C425 1.263 . S
C432 O433 1.275 1_655 S
C432 O434 1.246 . S
O433 Tb416 2.427 . S
O433 C432 1.275 1_455 S
O434 Tb416 2.513 1_655 S
O434 C432 1.246 . S
C435 O419 1.245 . S
C435 O420 1.259 1_565 S
Tb436 O439 2.453 . S
Tb436 O440 2.596 . S
Tb436 O441 2.374 . S
Tb436 O449 2.343 . S
Tb436 O451 2.353 . S
Tb436 O453 2.427 . S
Tb436 O454 2.513 . S
C437 O441 1.251 . S
C437 O443 1.263 . S
Tb438 O440 2.343 . S
Tb438 O443 2.353 . S
Tb438 O446 2.427 . S
Tb438 O447 2.513 . S
Tb438 O448 2.453 . S
Tb438 O449 2.596 . S
Tb438 O450 2.374 . S
O439 Tb436 2.453 . S
O439 C455 1.245 . S
O440 Tb436 2.596 . S
O440 Tb438 2.343 . S
O440 C455 1.259 . S
O441 Tb436 2.374 . S
O441 C437 1.251 . S
C442 O446 1.275 . S
C442 O447 1.246 . S
O443 C437 1.263 . S
O443 Tb438 2.353 . S
C444 O448 1.245 . S
C444 O449 1.259 . S
C445 O450 1.250 . S
C445 O451 1.263 . S
O446 Tb438 2.427 . S
O446 C442 1.275 . S
O447 Tb438 2.513 . S
O447 C442 1.246 . S
O448 Tb438 2.453 . S
O448 C444 1.245 . S
O449 Tb436 2.343 . S
O449 Tb438 2.596 . S
O449 C444 1.259 . S
O450 Tb438 2.374 . S
O450 C445 1.250 . S
O451 Tb436 2.353 . S
O451 C445 1.263 . S
C452 O453 1.275 . S
C452 O454 1.246 . S
O453 Tb436 2.427 . S
O453 C452 1.275 . S
O454 Tb436 2.513 . S
O454 C452 1.246 . S
C455 O439 1.245 . S
C455 O440 1.259 . S
Tb456 O459 2.453 . S
Tb456 O460 2.596 . S
Tb456 O461 2.374 1_545 S
Tb456 O469 2.343 1_556 S
Tb456 O471 2.353 1_556 S
Tb456 O473 2.427 1_556 S
Tb456 O474 2.513 1_546 S
C457 O461 1.251 . S
C457 O463 1.263 1_556 S
Tb458 O460 2.343 1_554 S
Tb458 O463 2.353 1_545 S
Tb458 O466 2.427 . S
Tb458 O467 2.513 . S
Tb458 O468 2.453 . S
Tb458 O469 2.596 . S
Tb458 O470 2.374 . S
O459 Tb456 2.453 . S
O459 C475 1.245 . S
O460 Tb456 2.596 . S
O460 Tb458 2.343 1_556 S
O460 C475 1.259 . S
O461 Tb456 2.374 1_565 S
O461 C457 1.251 . S
C462 O466 1.275 . S
C462 O467 1.246 . S
O463 C457 1.263 1_554 S
O463 Tb458 2.353 1_565 S
C464 O468 1.245 . S
C464 O469 1.259 . S
C465 O470 1.250 . S
C465 O471 1.263 . S
O466 Tb458 2.427 . S
O466 C462 1.275 . S
O467 Tb458 2.513 . S
O467 C462 1.246 . S
O468 Tb458 2.453 . S
O468 C464 1.245 . S
O469 Tb456 2.343 1_554 S
O469 Tb458 2.596 . S
O469 C464 1.259 . S
O470 Tb458 2.374 . S
O470 C465 1.250 . S
O471 Tb456 2.353 1_554 S
O471 C465 1.263 . S
C472 O473 1.275 . S
C472 O474 1.246 1_545 S
O473 Tb456 2.427 1_554 S
O473 C472 1.275 . S
O474 Tb456 2.513 1_564 S
O474 C472 1.246 1_565 S
C475 O459 1.245 . S
C475 O460 1.259 . S
Tb476 O479 2.453 . S
Tb476 O480 2.596 . S
Tb476 O481 2.374 . S
Tb476 O489 2.343 . S
Tb476 O491 2.353 . S
Tb476 O493 2.427 . S
Tb476 O494 2.513 . S
C477 O481 1.251 . S
C477 O483 1.263 . S
Tb478 O480 2.343 . S
Tb478 O483 2.353 . S
Tb478 O486 2.427 . S
Tb478 O487 2.513 . S
Tb478 O488 2.453 . S
Tb478 O489 2.596 . S
Tb478 O490 2.374 . S
O479 Tb476 2.453 . S
O479 C495 1.245 . S
O480 Tb476 2.596 . S
O480 Tb478 2.343 . S
O480 C495 1.259 . S
O481 Tb476 2.374 . S
O481 C477 1.251 . S
C482 O486 1.275 . S
C482 O487 1.246 . S
O483 C477 1.263 . S
O483 Tb478 2.353 . S
C484 O488 1.245 . S
C484 O489 1.259 . S
C485 O490 1.250 . S
C485 O491 1.263 . S
O486 Tb478 2.427 . S
O486 C482 1.275 . S
O487 Tb478 2.513 . S
O487 C482 1.246 . S
O488 Tb478 2.453 . S
O488 C484 1.245 . S
O489 Tb476 2.343 . S
O489 Tb478 2.596 . S
O489 C484 1.259 . S
O490 Tb478 2.374 . S
O490 C485 1.250 . S
O491 Tb476 2.353 . S
O491 C485 1.263 . S
C492 O493 1.275 . S
C492 O494 1.246 . S
O493 Tb476 2.427 . S
O493 C492 1.275 . S
O494 Tb476 2.513 . S
O494 C492 1.246 . S
C495 O479 1.245 . S
C495 O480 1.259 . S
Tb496 O499 2.456 . S
Tb496 O500 2.596 1_556 S
Tb496 O501 2.374 . S
Tb496 O509 2.343 . S
Tb496 O511 2.353 . S
Tb496 O513 2.427 . S
Tb496 O514 2.513 . S
C497 O501 1.251 1_554 S
C497 O503 1.263 . S
Tb498 O500 2.343 . S
Tb498 O503 2.353 . S
Tb498 O506 2.427 . S
Tb498 O507 2.513 . S
Tb498 O508 2.453 . S
Tb498 O509 2.596 1_554 S
Tb498 O510 2.374 . S
O499 Tb496 2.456 . S
O499 C515 1.239 1_556 S
O500 Tb496 2.596 1_554 S
O500 Tb498 2.343 . S
O500 C515 1.259 . S
O501 Tb496 2.374 . S
O501 C497 1.251 1_556 S
C502 O506 1.275 . S
C502 O507 1.246 . S
O503 C497 1.263 . S
O503 Tb498 2.353 . S
C504 O508 1.245 1_556 S
C504 O509 1.259 . S
C505 O510 1.250 . S
C505 O511 1.263 1_554 S
O506 Tb498 2.427 . S
O506 C502 1.275 . S
O507 Tb498 2.513 . S
O507 C502 1.246 . S
O508 Tb498 2.453 . S
O508 C504 1.245 1_554 S
O509 Tb496 2.343 . S
O509 Tb498 2.596 1_556 S
O509 C504 1.259 . S
O510 Tb498 2.374 . S
O510 C505 1.250 . S
O511 Tb496 2.353 . S
O511 C505 1.263 1_556 S
C512 O513 1.275 . S
C512 O514 1.246 . S
O513 Tb496 2.427 . S
O513 C512 1.275 . S
O514 Tb496 2.513 . S
O514 C512 1.246 . S
C515 O499 1.239 1_554 S
C515 O500 1.259 . S
Tb516 O519 2.453 . S
Tb516 O520 2.596 . S
Tb516 O521 2.374 . S
Tb516 O529 2.343 . S
Tb516 O531 2.353 . S
Tb516 O533 2.427 . S
Tb516 O534 2.513 . S
C517 O521 1.251 . S
C517 O523 1.263 . S
Tb518 O520 2.343 . S
Tb518 O523 2.353 . S
Tb518 O526 2.427 . S
Tb518 O527 2.513 . S
Tb518 O528 2.453 . S
Tb518 O529 2.596 . S
Tb518 O530 2.374 . S
O519 Tb516 2.453 . S
O519 C535 1.245 . S
O520 Tb516 2.596 . S
O520 Tb518 2.343 . S
O520 C535 1.259 . S
O521 Tb516 2.374 . S
O521 C517 1.251 . S
C522 O526 1.275 . S
C522 O527 1.246 . S
O523 C517 1.263 . S
O523 Tb518 2.353 . S
C524 O528 1.245 . S
C524 O529 1.259 . S
C525 O530 1.250 . S
C525 O531 1.263 . S
O526 Tb518 2.427 . S
O526 C522 1.275 . S
O527 Tb518 2.513 . S
O527 C522 1.246 . S
O528 Tb518 2.453 . S
O528 C524 1.245 . S
O529 Tb516 2.343 . S
O529 Tb518 2.596 . S
O529 C524 1.259 . S
O530 Tb518 2.374 . S
O530 C525 1.250 . S
O531 Tb516 2.353 . S
O531 C525 1.263 . S
C532 O533 1.275 . S
C532 O534 1.246 . S
O533 Tb516 2.427 . S
O533 C532 1.275 . S
O534 Tb516 2.513 . S
O534 C532 1.246 . S
C535 O519 1.245 . S
C535 O520 1.259 . S
Tb536 O539 2.453 . S
Tb536 O540 2.596 1_655 S
Tb536 O541 2.374 . S
Tb536 O549 2.343 . S
Tb536 O551 2.353 . S
Tb536 O553 2.427 . S
Tb536 O554 2.513 . S
C537 O541 1.251 1_455 S
C537 O543 1.263 . S
Tb538 O540 2.343 . S
Tb538 O543 2.353 . S
Tb538 O546 2.427 . S
Tb538 O547 2.513 . S
Tb538 O548 2.453 . S
Tb538 O549 2.596 1_455 S
Tb538 O550 2.374 . S
O539 Tb536 2.453 . S
O539 C555 1.245 1_655 S
O540 Tb536 2.596 1_455 S
O540 Tb538 2.343 . S
O540 C555 1.259 . S
O541 Tb536 2.374 . S
O541 C537 1.251 1_655 S
C542 O546 1.275 . S
C542 O547 1.246 . S
O543 C537 1.263 . S
O543 Tb538 2.353 . S
C544 O548 1.245 1_655 S
C544 O549 1.259 . S
C545 O550 1.250 1_655 S
C545 O551 1.263 . S
O546 Tb538 2.427 . S
O546 C542 1.275 . S
O547 Tb538 2.513 . S
O547 C542 1.246 . S
O548 Tb538 2.453 . S
O548 C544 1.245 1_455 S
O549 Tb536 2.343 . S
O549 Tb538 2.596 1_655 S
O549 C544 1.259 . S
O550 Tb538 2.374 . S
O550 C545 1.250 1_455 S
O551 Tb536 2.353 . S
O551 C545 1.263 . S
C552 O553 1.275 . S
C552 O554 1.246 . S
O553 Tb536 2.427 . S
O553 C552 1.275 . S
O554 Tb536 2.513 . S
O554 C552 1.246 . S
C555 O539 1.245 1_455 S
C555 O540 1.259 . S
Tb556 O559 2.453 . S
Tb556 O560 2.596 . S
Tb556 O561 2.374 . S
Tb556 O569 2.343 . S
Tb556 O571 2.353 . S
Tb556 O573 2.427 . S
Tb556 O574 2.513 . S
C557 O561 1.251 . S
C557 O563 1.263 . S
Tb558 O560 2.343 . S
Tb558 O563 2.353 . S
Tb558 O566 2.427 . S
Tb558 O567 2.513 . S
Tb558 O568 2.453 . S
Tb558 O569 2.596 . S
Tb558 O570 2.374 . S
O559 Tb556 2.453 . S
O559 C575 1.245 . S
O560 Tb556 2.596 . S
O560 Tb558 2.343 . S
O560 C575 1.259 . S
O561 Tb556 2.374 . S
O561 C557 1.251 . S
C562 O566 1.275 . S
C562 O567 1.246 . S
O563 C557 1.263 . S
O563 Tb558 2.353 . S
C564 O568 1.245 . S
C564 O569 1.259 . S
C565 O570 1.250 . S
C565 O571 1.263 . S
O566 Tb558 2.427 . S
O566 C562 1.275 . S
O567 Tb558 2.513 . S
O567 C562 1.246 . S
O568 Tb558 2.453 . S
O568 C564 1.245 . S
O569 Tb556 2.343 . S
O569 Tb558 2.596 . S
O569 C564 1.259 . S
O570 Tb558 2.374 . S
O570 C565 1.250 . S
O571 Tb556 2.353 . S
O571 C565 1.263 . S
C572 O573 1.275 . S
C572 O574 1.246 . S
O573 Tb556 2.427 . S
O573 C572 1.275 . S
O574 Tb556 2.513 . S
O574 C572 1.246 . S
C575 O559 1.245 . S
C575 O560 1.259 . S
Tb576 O579 2.453 . S
Tb576 O580 2.596 . S
Tb576 O581 2.374 . S
Tb576 O589 2.343 . S
Tb576 O591 2.353 . S
Tb576 O593 2.427 . S
Tb576 O594 2.513 . S
C577 O581 1.251 . S
C577 O583 1.263 . S
Tb578 O580 2.343 . S
Tb578 O583 2.353 . S
Tb578 O586 2.427 . S
Tb578 O587 2.513 . S
Tb578 O588 2.453 . S
Tb578 O589 2.596 . S
Tb578 O590 2.374 . S
O579 Tb576 2.453 . S
O579 C595 1.245 . S
O580 Tb576 2.596 . S
O580 Tb578 2.343 . S
O580 C595 1.259 . S
O581 Tb576 2.374 . S
O581 C577 1.251 . S
C582 O586 1.275 . S
C582 O587 1.246 . S
O583 C577 1.263 . S
O583 Tb578 2.353 . S
C584 O588 1.245 . S
C584 O589 1.259 . S
C585 O590 1.250 . S
C585 O591 1.263 . S
O586 Tb578 2.427 . S
O586 C582 1.275 . S
O587 Tb578 2.513 . S
O587 C582 1.246 . S
O588 Tb578 2.453 . S
O588 C584 1.245 . S
O589 Tb576 2.343 . S
O589 Tb578 2.596 . S
O589 C584 1.259 . S
O590 Tb578 2.374 . S
O590 C585 1.250 . S
O591 Tb576 2.353 . S
O591 C585 1.263 . S
C592 O593 1.275 . S
C592 O594 1.246 . S
O593 Tb576 2.427 . S
O593 C592 1.275 . S
O594 Tb576 2.513 . S
O594 C592 1.246 . S
C595 O579 1.245 . S
C595 O580 1.259 . S
Tb596 O599 2.453 . S
Tb596 O600 2.596 . S
Tb596 O601 2.374 . S
Tb596 O609 2.343 . S
Tb596 O611 2.353 . S
Tb596 O613 2.427 . S
Tb596 O614 2.513 . S
C597 O601 1.251 . S
C597 O603 1.263 . S
Tb598 O600 2.343 . S
Tb598 O603 2.353 . S
Tb598 O606 2.427 . S
Tb598 O607 2.513 . S
Tb598 O608 2.453 . S
Tb598 O609 2.596 . S
Tb598 O610 2.374 . S
O599 Tb596 2.453 . S
O599 C615 1.245 . S
O600 Tb596 2.596 . S
O600 Tb598 2.343 . S
O600 C615 1.259 . S
O601 Tb596 2.374 . S
O601 C597 1.251 . S
C602 O606 1.275 . S
C602 O607 1.246 . S
O603 C597 1.263 . S
O603 Tb598 2.353 . S
C604 O608 1.245 . S
C604 O609 1.259 . S
C605 O610 1.250 . S
C605 O611 1.263 . S
O606 Tb598 2.427 . S
O606 C602 1.275 . S
O607 Tb598 2.513 . S
O607 C602 1.246 . S
O608 Tb598 2.453 . S
O608 C604 1.245 . S
O609 Tb596 2.343 . S
O609 Tb598 2.596 . S
O609 C604 1.259 . S
O610 Tb598 2.374 . S
O610 C605 1.250 . S
O611 Tb596 2.353 . S
O611 C605 1.263 . S
C612 O613 1.275 . S
C612 O614 1.246 . S
O613 Tb596 2.427 . S
O613 C612 1.275 . S
O614 Tb596 2.513 . S
O614 C612 1.246 . S
C615 O599 1.245 . S
C615 O600 1.259 . S
Tb616 O619 2.453 . S
Tb616 O620 2.596 . S
Tb616 O621 2.374 . S
Tb616 O629 2.343 . S
Tb616 O631 2.353 . S
Tb616 O633 2.427 . S
Tb616 O634 2.513 . S
C617 O621 1.251 . S
C617 O623 1.263 . S
Tb618 O620 2.343 . S
Tb618 O623 2.353 . S
Tb618 O626 2.427 . S
Tb618 O627 2.513 . S
Tb618 O628 2.453 . S
Tb618 O629 2.596 . S
Tb618 O630 2.374 . S
O619 Tb616 2.453 . S
O619 C635 1.245 . S
O620 Tb616 2.596 . S
O620 Tb618 2.343 . S
O620 C635 1.259 . S
O621 Tb616 2.374 . S
O621 C617 1.251 . S
C622 O626 1.275 . S
C622 O627 1.246 . S
O623 C617 1.263 . S
O623 Tb618 2.353 . S
C624 O628 1.245 . S
C624 O629 1.259 . S
C625 O630 1.250 . S
C625 O631 1.263 . S
O626 Tb618 2.427 . S
O626 C622 1.275 . S
O627 Tb618 2.513 . S
O627 C622 1.246 . S
O628 Tb618 2.453 . S
O628 C624 1.245 . S
O629 Tb616 2.343 . S
O629 Tb618 2.596 . S
O629 C624 1.259 . S
O630 Tb618 2.374 . S
O630 C625 1.250 . S
O631 Tb616 2.353 . S
O631 C625 1.263 . S
C632 O633 1.275 . S
C632 O634 1.246 . S
O633 Tb616 2.427 . S
O633 C632 1.275 . S
O634 Tb616 2.513 . S
O634 C632 1.246 . S
C635 O619 1.245 . S
C635 O620 1.259 . S
Tb636 O639 2.453 . S
Tb636 O640 2.581 1_455 S
Tb636 O641 2.374 . S
Tb636 O649 2.343 . S
Tb636 O651 2.353 1_554 S
Tb636 O653 2.427 1_554 S
Tb636 O654 2.513 . S
C637 O641 1.251 . S
C637 O643 1.263 1_455 S
Tb638 O640 2.352 . S
Tb638 O643 2.353 . S
Tb638 O646 2.427 . S
Tb638 O647 2.513 . S
Tb638 O648 2.453 . S
Tb638 O649 2.596 1_655 S
Tb638 O650 2.374 1_554 S
O639 Tb636 2.453 . S
O639 C655 1.245 . S
O640 Tb636 2.581 1_655 S
O640 Tb638 2.352 . S
O640 C655 1.254 1_655 S
O641 Tb636 2.374 . S
O641 C637 1.251 . S
C642 O646 1.275 . S
C642 O647 1.246 . S
O643 C637 1.263 1_655 S
O643 Tb638 2.353 . S
C644 O648 1.245 1_556 S
C644 O649 1.259 1_656 S
C645 O650 1.250 . S
C645 O651 1.263 1_655 S
O646 Tb638 2.427 . S
O646 C642 1.275 . S
O647 Tb638 2.513 . S
O647 C642 1.246 . S
O648 Tb638 2.453 . S
O648 C644 1.245 1_554 S
O649 Tb636 2.343 . S
O649 Tb638 2.596 1_455 S
O649 C644 1.259 1_454 S
O650 Tb638 2.374 1_556 S
O650 C645 1.250 . S
O651 Tb636 2.353 1_556 S
O651 C645 1.263 1_455 S
C652 O653 1.275 . S
C652 O654 1.246 1_556 S
O653 Tb636 2.427 1_556 S
O653 C652 1.275 . S
O654 Tb636 2.513 . S
O654 C652 1.246 1_554 S
C655 O639 1.245 . S
C655 O640 1.254 1_455 S
H656 C662 0.930 . S
H657 C665 0.930 . S
H658 C666 0.930 . S
H659 C667 0.930 . S
H660 C670 0.930 1_554 S
H661 C671 0.930 . S
C662 H656 0.930 . S
C662 C663 1.355 . S
C662 C664 1.415 . S
C663 C662 1.355 . S
C663 C665 1.419 1_455 S
C664 C662 1.415 . S
C664 C669 1.425 1_455 S
C664 C671 1.409 . S
C665 H657 0.930 . S
C665 C663 1.419 1_655 S
C665 C666 1.362 . S
C666 H658 0.930 . S
C666 C665 1.362 . S
C666 C669 1.409 . S
C667 H659 0.930 . S
C667 C668 1.355 1_655 S
C667 C669 1.415 . S
C668 C667 1.355 1_455 S
C668 C670 1.419 . S
C669 C664 1.425 1_655 S
C669 C666 1.409 . S
C669 C667 1.415 . S
C670 H660 0.930 1_556 S
C670 C668 1.419 . S
C670 C671 1.362 . S
C671 H661 0.930 . S
C671 C664 1.409 . S
C671 C670 1.362 . S
H672 C678 0.930 . S
H673 C681 0.930 . S
H674 C682 0.930 . S
H675 C683 0.930 . S
H676 C686 0.930 . S
H677 C687 0.930 . S
C678 H672 0.930 . S
C678 C679 1.355 . S
C678 C680 1.415 . S
C679 C678 1.355 . S
C679 C681 1.419 . S
C680 C678 1.415 . S
C680 C685 1.425 . S
C680 C687 1.409 . S
C681 H673 0.930 . S
C681 C679 1.419 . S
C681 C682 1.362 . S
C682 H674 0.930 . S
C682 C681 1.362 . S
C682 C685 1.409 . S
C683 H675 0.930 . S
C683 C684 1.355 . S
C683 C685 1.415 . S
C684 C683 1.355 . S
C684 C686 1.419 . S
C685 C680 1.425 . S
C685 C682 1.409 . S
C685 C683 1.415 . S
C686 H676 0.930 . S
C686 C684 1.419 . S
C686 C687 1.362 . S
C687 H677 0.930 . S
C687 C680 1.409 . S
C687 C686 1.362 . S
H688 C694 0.930 . S
H689 C697 0.930 . S
H690 C698 0.930 . S
H691 C699 0.930 . S
H692 C702 0.930 . S
H693 C703 0.930 . S
C694 H688 0.930 . S
C694 C695 1.355 . S
C694 C696 1.415 . S
C695 C694 1.355 . S
C695 C697 1.419 . S
C696 C694 1.415 . S
C696 C701 1.425 . S
C696 C703 1.409 . S
C697 H689 0.930 . S
C697 C695 1.419 . S
C697 C698 1.362 . S
C698 H690 0.930 . S
C698 C697 1.362 . S
C698 C701 1.409 . S
C699 H691 0.930 . S
C699 C700 1.355 . S
C699 C701 1.415 . S
C700 C699 1.355 . S
C700 C702 1.419 . S
C701 C696 1.425 . S
C701 C698 1.409 . S
C701 C699 1.415 . S
C702 H692 0.930 . S
C702 C700 1.419 . S
C702 C703 1.362 . S
C703 H693 0.930 . S
C703 C696 1.409 . S
C703 C702 1.362 . S
H704 C710 0.930 . S
H705 C713 0.930 . S
H706 C714 0.930 . S
H707 C715 0.930 . S
H708 C718 0.930 . S
H709 C719 0.930 . S
C710 H704 0.930 . S
C710 C711 1.355 . S
C710 C712 1.415 . S
C711 C710 1.355 . S
C711 C713 1.419 . S
C712 C710 1.415 . S
C712 C717 1.425 . S
C712 C719 1.409 . S
C713 H705 0.930 . S
C713 C711 1.419 . S
C713 C714 1.362 . S
C714 H706 0.930 . S
C714 C713 1.362 . S
C714 C717 1.409 . S
C715 H707 0.930 . S
C715 C716 1.355 . S
C715 C717 1.415 . S
C716 C715 1.355 . S
C716 C718 1.419 . S
C717 C712 1.425 . S
C717 C714 1.409 . S
C717 C715 1.415 . S
C718 H708 0.930 . S
C718 C716 1.419 . S
C718 C719 1.362 . S
C719 H709 0.930 . S
C719 C712 1.409 . S
C719 C718 1.362 . S
H720 C726 0.930 . S
H721 C729 0.930 . S
H722 C730 0.930 . S
H723 C731 0.930 . S
H724 C734 0.930 . S
H725 C735 0.930 . S
C726 H720 0.930 . S
C726 C727 1.355 . S
C726 C728 1.415 . S
C727 C726 1.355 . S
C727 C729 1.419 1_455 S
C728 C726 1.415 . S
C728 C733 1.425 1_455 S
C728 C735 1.409 . S
C729 H721 0.930 . S
C729 C727 1.419 1_655 S
C729 C730 1.362 . S
C730 H722 0.930 . S
C730 C729 1.362 . S
C730 C733 1.409 . S
C731 H723 0.930 . S
C731 C732 1.355 1_655 S
C731 C733 1.415 . S
C732 C731 1.355 1_455 S
C732 C734 1.419 . S
C733 C728 1.425 1_655 S
C733 C730 1.409 . S
C733 C731 1.415 . S
C734 H724 0.930 . S
C734 C732 1.419 . S
C734 C735 1.362 . S
C735 H725 0.930 . S
C735 C728 1.409 . S
C735 C734 1.362 . S
H736 C742 0.930 . S
H737 C745 0.930 . S
H738 C746 0.930 . S
H739 C747 0.930 . S
H740 C750 0.930 . S
H741 C751 0.930 . S
C742 H736 0.930 . S
C742 C743 1.355 . S
C742 C744 1.415 . S
C743 C742 1.355 . S
C743 C745 1.419 . S
C744 C742 1.415 . S
C744 C749 1.425 . S
C744 C751 1.409 . S
C745 H737 0.930 . S
C745 C743 1.419 . S
C745 C746 1.362 . S
C746 H738 0.930 . S
C746 C745 1.362 . S
C746 C749 1.409 . S
C747 H739 0.930 . S
C747 C748 1.355 . S
C747 C749 1.415 . S
C748 C747 1.355 . S
C748 C750 1.419 . S
C749 C744 1.425 . S
C749 C746 1.409 . S
C749 C747 1.415 . S
C750 H740 0.930 . S
C750 C748 1.419 . S
C750 C751 1.362 . S
C751 H741 0.930 . S
C751 C744 1.409 . S
C751 C750 1.362 . S
H752 C758 0.930 . S
H753 C761 0.930 . S
H754 C762 0.930 . S
H755 C763 0.930 . S
H756 C766 0.930 . S
H757 C767 0.930 . S
C758 H752 0.930 . S
C758 C759 1.355 . S
C758 C760 1.415 . S
C759 C758 1.355 . S
C759 C761 1.419 . S
C760 C758 1.415 . S
C760 C765 1.425 . S
C760 C767 1.409 . S
C761 H753 0.930 . S
C761 C759 1.419 . S
C761 C762 1.362 . S
C762 H754 0.930 . S
C762 C761 1.362 . S
C762 C765 1.409 . S
C763 H755 0.930 . S
C763 C764 1.355 . S
C763 C765 1.415 . S
C764 C763 1.355 . S
C764 C766 1.419 . S
C765 C760 1.425 . S
C765 C762 1.409 . S
C765 C763 1.415 . S
C766 H756 0.930 . S
C766 C764 1.419 . S
C766 C767 1.362 . S
C767 H757 0.930 . S
C767 C760 1.409 . S
C767 C766 1.362 . S
H768 C774 0.930 . S
H769 C777 0.930 . S
H770 C778 0.930 . S
H771 C779 0.930 . S
H772 C782 0.930 . S
H773 C783 0.930 . S
C774 H768 0.930 . S
C774 C775 1.355 . S
C774 C776 1.415 . S
C775 C774 1.355 . S
C775 C777 1.419 . S
C776 C774 1.415 . S
C776 C781 1.425 . S
C776 C783 1.409 . S
C777 H769 0.930 . S
C777 C775 1.419 . S
C777 C778 1.362 . S
C778 H770 0.930 . S
C778 C777 1.362 . S
C778 C781 1.409 . S
C779 H771 0.930 . S
C779 C780 1.355 . S
C779 C781 1.415 . S
C780 C779 1.355 . S
C780 C782 1.419 . S
C781 C776 1.425 . S
C781 C778 1.409 . S
C781 C779 1.415 . S
C782 H772 0.930 . S
C782 C780 1.419 . S
C782 C783 1.362 . S
C783 H773 0.930 . S
C783 C776 1.409 . S
C783 C782 1.362 . S
H784 C790 0.930 . S
H785 C793 0.930 . S
H786 C794 0.930 . S
H787 C795 0.930 1_455 S
H788 C798 0.930 . S
H789 C799 0.930 . S
C790 H784 0.930 . S
C790 C791 1.355 . S
C790 C792 1.415 . S
C791 C790 1.355 . S
C791 C793 1.419 . S
C792 C790 1.415 . S
C792 C797 1.425 . S
C792 C799 1.409 . S
C793 H785 0.930 . S
C793 C791 1.419 . S
C793 C794 1.362 . S
C794 H786 0.930 . S
C794 C793 1.362 . S
C794 C797 1.409 . S
C795 H787 0.930 1_655 S
C795 C796 1.355 . S
C795 C797 1.415 . S
C796 C795 1.355 . S
C796 C798 1.419 . S
C797 C792 1.425 . S
C797 C794 1.409 . S
C797 C795 1.415 . S
C798 H788 0.930 . S
C798 C796 1.419 . S
C798 C799 1.362 . S
C799 H789 0.930 . S
C799 C792 1.409 . S
C799 C798 1.362 . S
H800 C806 0.930 . S
H801 C809 0.930 . S
H802 C810 0.930 . S
H803 C811 0.930 . S
H804 C814 0.930 . S
H805 C815 0.930 . S
C806 H800 0.930 . S
C806 C807 1.355 . S
C806 C808 1.415 . S
C807 C806 1.355 . S
C807 C809 1.419 . S
C808 C806 1.415 . S
C808 C813 1.425 . S
C808 C815 1.409 . S
C809 H801 0.930 . S
C809 C807 1.419 . S
C809 C810 1.362 . S
C810 H802 0.930 . S
C810 C809 1.362 . S
C810 C813 1.409 . S
C811 H803 0.930 . S
C811 C812 1.355 . S
C811 C813 1.415 . S
C812 C811 1.355 . S
C812 C814 1.419 . S
C813 C808 1.425 . S
C813 C810 1.409 . S
C813 C811 1.415 . S
C814 H804 0.930 . S
C814 C812 1.419 . S
C814 C815 1.362 . S
C815 H805 0.930 . S
C815 C808 1.409 . S
C815 C814 1.362 . S
H816 C822 0.930 . S
H817 C825 0.930 . S
H818 C826 0.930 . S
H819 C827 0.930 . S
H820 C830 0.930 . S
H821 C831 0.939 . S
C822 H816 0.930 . S
C822 C823 1.355 1_565 S
C822 C824 1.415 1_565 S
C823 C822 1.355 1_545 S
C823 C825 1.419 . S
C824 C822 1.415 1_545 S
C824 C829 1.425 . S
C824 C831 1.410 1_545 S
C825 H817 0.930 . S
C825 C823 1.419 . S
C825 C826 1.362 . S
C826 H818 0.930 . S
C826 C825 1.362 . S
C826 C829 1.409 . S
C827 H819 0.930 . S
C827 C828 1.355 . S
C827 C829 1.415 . S
C828 C827 1.355 . S
C828 C830 1.419 . S
C829 C824 1.425 . S
C829 C826 1.409 . S
C829 C827 1.415 . S
C830 H820 0.930 . S
C830 C828 1.419 . S
C830 C831 1.353 1_545 S
C831 H821 0.939 . S
C831 C824 1.410 1_565 S
C831 C830 1.353 1_565 S
H832 C838 0.930 . S
H833 C841 0.930 . S
H834 C842 0.930 . S
H835 C843 0.930 . S
H836 C846 0.930 . S
H837 C847 0.930 . S
C838 H832 0.930 . S
C838 C839 1.355 . S
C838 C840 1.415 . S
C839 C838 1.355 . S
C839 C841 1.419 . S
C840 C838 1.415 . S
C840 C845 1.425 . S
C840 C847 1.409 . S
C841 H833 0.930 . S
C841 C839 1.419 . S
C841 C842 1.362 . S
C842 H834 0.930 . S
C842 C841 1.362 . S
C842 C845 1.409 . S
C843 H835 0.930 . S
C843 C844 1.355 . S
C843 C845 1.415 . S
C844 C843 1.355 . S
C844 C846 1.419 . S
C845 C840 1.425 . S
C845 C842 1.409 . S
C845 C843 1.415 . S
C846 H836 0.930 . S
C846 C844 1.419 . S
C846 C847 1.362 . S
C847 H837 0.930 . S
C847 C840 1.409 . S
C847 C846 1.362 . S
H848 C854 0.930 . S
H849 C857 0.930 . S
H850 C858 0.898 1_565 S
H851 C859 0.930 . S
H852 C862 0.930 1_455 S
H853 C863 0.930 . S
C854 H848 0.930 . S
C854 C855 1.355 . S
C854 C856 1.415 . S
C855 C854 1.355 . S
C855 C857 1.419 . S
C856 C854 1.415 . S
C856 C861 1.425 . S
C856 C863 1.409 . S
C857 H849 0.930 . S
C857 C855 1.419 . S
C857 C858 1.362 . S
C858 H850 0.898 1_545 S
C858 C857 1.362 . S
C858 C861 1.409 . S
C859 H851 0.930 . S
C859 C860 1.355 . S
C859 C861 1.415 . S
C860 C859 1.355 . S
C860 C862 1.419 . S
C861 C856 1.425 . S
C861 C858 1.409 . S
C861 C859 1.415 . S
C862 H852 0.930 1_655 S
C862 C860 1.419 . S
C862 C863 1.362 . S
C863 H853 0.930 . S
C863 C856 1.409 . S
C863 C862 1.362 . S
H864 C870 0.930 . S
H865 C873 0.930 . S
H866 C874 0.930 . S
H867 C875 0.930 . S
H868 C878 0.930 . S
H869 C879 0.930 . S
C870 H864 0.930 . S
C870 C871 1.355 . S
C870 C872 1.415 . S
C871 C870 1.355 . S
C871 C873 1.419 . S
C872 C870 1.415 . S
C872 C877 1.425 . S
C872 C879 1.409 . S
C873 H865 0.930 . S
C873 C871 1.419 . S
C873 C874 1.362 . S
C874 H866 0.930 . S
C874 C873 1.362 . S
C874 C877 1.409 . S
C875 H867 0.930 . S
C875 C876 1.355 . S
C875 C877 1.415 . S
C876 C875 1.355 . S
C876 C878 1.419 . S
C877 C872 1.425 . S
C877 C874 1.409 . S
C877 C875 1.415 . S
C878 H868 0.930 . S
C878 C876 1.419 . S
C878 C879 1.362 . S
C879 H869 0.930 . S
C879 C872 1.409 . S
C879 C878 1.362 . S
H880 C886 0.930 . S
H881 C889 0.930 . S
H882 C890 0.936 . S
H883 C891 0.930 . S
H884 C894 0.930 . S
H885 C895 0.930 . S
C886 H880 0.930 . S
C886 C887 1.355 . S
C886 C888 1.415 . S
C887 C886 1.355 . S
C887 C889 1.419 1_545 S
C888 C886 1.415 . S
C888 C893 1.425 . S
C888 C895 1.409 . S
C889 H881 0.930 . S
C889 C887 1.419 1_565 S
C889 C890 1.365 . S
C890 H882 0.936 . S
C890 C889 1.365 . S
C890 C893 1.401 1_565 S
C891 H883 0.930 . S
C891 C892 1.355 . S
C891 C893 1.415 . S
C892 C891 1.355 . S
C892 C894 1.419 . S
C893 C888 1.425 . S
C893 C890 1.401 1_545 S
C893 C891 1.415 . S
C894 H884 0.930 . S
C894 C892 1.419 . S
C894 C895 1.362 . S
C895 H885 0.930 . S
C895 C888 1.409 . S
C895 C894 1.362 . S
H896 C902 0.930 . S
H897 C905 0.930 . S
H898 C906 0.930 . S
H899 C907 0.930 . S
H900 C910 0.930 . S
H901 C911 0.930 . S
C902 H896 0.930 . S
C902 C903 1.355 . S
C902 C904 1.415 . S
C903 C902 1.355 . S
C903 C905 1.419 . S
C904 C902 1.415 . S
C904 C909 1.425 . S
C904 C911 1.409 . S
C905 H897 0.930 . S
C905 C903 1.419 . S
C905 C906 1.362 . S
C906 H898 0.930 . S
C906 C905 1.362 . S
C906 C909 1.409 . S
C907 H899 0.930 . S
C907 C908 1.355 . S
C907 C909 1.415 . S
C908 C907 1.355 . S
C908 C910 1.419 . S
C909 C904 1.425 . S
C909 C906 1.409 . S
C909 C907 1.415 . S
C910 H900 0.930 . S
C910 C908 1.419 . S
C910 C911 1.362 . S
C911 H901 0.930 . S
C911 C904 1.409 . S
C911 C910 1.362 . S
H912 C918 0.930 . S
H913 C921 0.930 . S
H914 C922 0.930 . S
H915 C923 0.930 . S
H916 C926 0.930 . S
H917 C927 0.930 . S
C918 H912 0.930 . S
C918 C919 1.355 . S
C918 C920 1.415 . S
C919 C918 1.355 . S
C919 C921 1.419 . S
C920 C918 1.415 . S
C920 C925 1.425 . S
C920 C927 1.409 1_565 S
C921 H913 0.930 . S
C921 C919 1.419 . S
C921 C922 1.362 . S
C922 H914 0.930 . S
C922 C921 1.362 . S
C922 C925 1.409 . S
C923 H915 0.930 . S
C923 C924 1.355 1_565 S
C923 C925 1.415 . S
C924 C923 1.355 1_545 S
C924 C926 1.419 . S
C925 C920 1.425 . S
C925 C922 1.409 . S
C925 C923 1.415 . S
C926 H916 0.930 . S
C926 C924 1.419 . S
C926 C927 1.362 . S
C927 H917 0.930 . S
C927 C920 1.409 1_545 S
C927 C926 1.362 . S
H928 C934 0.930 . S
H929 C937 0.930 . S
H930 C938 0.930 . S
H931 C939 0.930 . S
H932 C942 0.930 . S
H933 C943 0.930 . S
C934 H928 0.930 . S
C934 C935 1.355 1_554 S
C934 C936 1.415 . S
C935 C934 1.355 1_556 S
C935 C937 1.419 . S
C936 C934 1.415 . S
C936 C941 1.425 1_554 S
C936 C943 1.409 . S
C937 H929 0.930 . S
C937 C935 1.419 . S
C937 C938 1.362 . S
C938 H930 0.930 . S
C938 C937 1.362 . S
C938 C941 1.409 . S
C939 H931 0.930 . S
C939 C940 1.353 1_556 S
C939 C941 1.415 . S
C940 C939 1.353 1_554 S
C940 C942 1.421 . S
C941 C936 1.425 1_556 S
C941 C938 1.409 . S
C941 C939 1.415 . S
C942 H932 0.930 . S
C942 C940 1.421 . S
C942 C943 1.362 . S
C943 H933 0.930 . S
C943 C936 1.409 . S
C943 C942 1.362 . S
H944 C950 0.930 . S
H945 C953 0.930 . S
H946 C954 0.930 . S
H947 C955 0.930 . S
H948 C958 0.930 . S
H949 C959 0.930 . S
C950 H944 0.930 . S
C950 C951 1.355 . S
C950 C952 1.415 . S
C951 C950 1.355 . S
C951 C953 1.419 . S
C952 C950 1.415 . S
C952 C957 1.425 . S
C952 C959 1.409 . S
C953 H945 0.930 . S
C953 C951 1.419 . S
C953 C954 1.362 . S
C954 H946 0.930 . S
C954 C953 1.362 . S
C954 C957 1.409 . S
C955 H947 0.930 . S
C955 C956 1.355 . S
C955 C957 1.415 . S
C956 C955 1.355 . S
C956 C958 1.419 . S
C957 C952 1.425 . S
C957 C954 1.409 . S
C957 C955 1.415 . S
C958 H948 0.930 . S
C958 C956 1.419 . S
C958 C959 1.362 . S
C959 H949 0.930 . S
C959 C952 1.409 . S
C959 C958 1.362 . S
H960 C966 0.930 . S
H961 C969 0.930 . S
H962 C970 0.930 . S
H963 C971 0.930 . S
H964 C974 0.930 . S
H965 C975 0.930 . S
C966 H960 0.930 . S
C966 C967 1.355 . S
C966 C968 1.415 . S
C967 C966 1.355 . S
C967 C969 1.419 . S
C968 C966 1.415 . S
C968 C973 1.425 . S
C968 C975 1.409 . S
C969 H961 0.930 . S
C969 C967 1.419 . S
C969 C970 1.362 . S
C970 H962 0.930 . S
C970 C969 1.362 . S
C970 C973 1.409 . S
C971 H963 0.930 . S
C971 C972 1.355 . S
C971 C973 1.415 . S
C972 C971 1.355 . S
C972 C974 1.419 . S
C973 C968 1.425 . S
C973 C970 1.409 . S
C973 C971 1.415 . S
C974 H964 0.930 . S
C974 C972 1.419 . S
C974 C975 1.362 . S
C975 H965 0.930 . S
C975 C968 1.409 . S
C975 C974 1.362 . S
H976 C982 0.930 . S
H977 C985 0.930 . S
H978 C986 0.930 . S
H979 C987 0.930 . S
H980 C990 0.930 . S
H981 C991 0.930 . S
C982 H976 0.930 . S
C982 C983 1.355 . S
C982 C984 1.415 . S
C983 C982 1.355 . S
C983 C985 1.419 . S
C984 C982 1.415 . S
C984 C989 1.425 . S
C984 C991 1.409 . S
C985 H977 0.930 . S
C985 C983 1.419 . S
C985 C986 1.362 . S
C986 H978 0.930 . S
C986 C985 1.362 . S
C986 C989 1.409 . S
C987 H979 0.930 . S
C987 C988 1.355 . S
C987 C989 1.415 . S
C988 C987 1.355 . S
C988 C990 1.419 . S
C989 C984 1.425 . S
C989 C986 1.409 . S
C989 C987 1.415 . S
C990 H980 0.930 . S
C990 C988 1.419 . S
C990 C991 1.362 . S
C991 H981 0.930 . S
C991 C984 1.409 . S
C991 C990 1.362 . S
H992 C998 0.930 . S
H993 C1001 0.930 . S
H994 C1002 0.930 . S
H995 C1003 0.930 . S
H996 C1006 0.930 . S
H997 C1007 0.930 . S
C998 H992 0.930 . S
C998 C999 1.355 . S
C998 C1000 1.415 . S
C999 C998 1.355 . S
C999 C1001 1.419 . S
C1000 C998 1.415 . S
C1000 C1005 1.425 . S
C1000 C1007 1.409 . S
C1001 H993 0.930 . S
C1001 C999 1.419 . S
C1001 C1002 1.362 . S
C1002 H994 0.930 . S
C1002 C1001 1.362 . S
C1002 C1005 1.409 . S
C1003 H995 0.930 . S
C1003 C1004 1.355 . S
C1003 C1005 1.415 . S
C1004 C1003 1.355 . S
C1004 C1006 1.419 . S
C1005 C1000 1.425 . S
C1005 C1002 1.409 . S
C1005 C1003 1.415 . S
C1006 H996 0.930 . S
C1006 C1004 1.419 . S
C1006 C1007 1.362 . S
C1007 H997 0.930 . S
C1007 C1000 1.409 . S
C1007 C1006 1.362 . S
H1008 C1014 0.930 . S
H1009 C1017 0.930 . S
H1010 C1018 0.930 . S
H1011 C1019 0.930 . S
H1012 C1022 0.930 . S
H1013 C1023 0.930 . S
C1014 H1008 0.930 . S
C1014 C1015 1.355 . S
C1014 C1016 1.415 . S
C1015 C1014 1.355 . S
C1015 C1017 1.419 . S
C1016 C1014 1.415 . S
C1016 C1021 1.425 . S
C1016 C1023 1.409 . S
C1017 H1009 0.930 . S
C1017 C1015 1.419 . S
C1017 C1018 1.362 . S
C1018 H1010 0.930 . S
C1018 C1017 1.362 . S
C1018 C1021 1.409 . S
C1019 H1011 0.930 . S
C1019 C1020 1.355 . S
C1019 C1021 1.415 . S
C1020 C1019 1.355 . S
C1020 C1022 1.419 . S
C1021 C1016 1.425 . S
C1021 C1018 1.409 . S
C1021 C1019 1.415 . S
C1022 H1012 0.930 . S
C1022 C1020 1.419 . S
C1022 C1023 1.362 . S
C1023 H1013 0.930 . S
C1023 C1016 1.409 . S
C1023 C1022 1.362 . S
H1024 C1030 0.930 . S
H1025 C1033 0.930 . S
H1026 C1034 0.930 . S
H1027 C1035 0.930 . S
H1028 C1038 0.930 . S
H1029 C1039 0.930 . S
C1030 H1024 0.930 . S
C1030 C1031 1.355 . S
C1030 C1032 1.415 . S
C1031 C1030 1.355 . S
C1031 C1033 1.419 . S
C1032 C1030 1.415 . S
C1032 C1037 1.425 . S
C1032 C1039 1.409 . S
C1033 H1025 0.930 . S
C1033 C1031 1.419 . S
C1033 C1034 1.362 . S
C1034 H1026 0.930 . S
C1034 C1033 1.362 . S
C1034 C1037 1.409 . S
C1035 H1027 0.930 . S
C1035 C1036 1.355 . S
C1035 C1037 1.415 . S
C1036 C1035 1.355 . S
C1036 C1038 1.419 . S
C1037 C1032 1.425 . S
C1037 C1034 1.409 . S
C1037 C1035 1.415 . S
C1038 H1028 0.930 . S
C1038 C1036 1.419 . S
C1038 C1039 1.362 . S
C1039 H1029 0.930 . S
C1039 C1032 1.409 . S
C1039 C1038 1.362 . S
H1040 C1046 0.930 . S
H1041 C1049 0.930 . S
H1042 C1050 0.930 . S
H1043 C1051 0.930 . S
H1044 C1054 0.930 . S
H1045 C1055 0.930 . S
C1046 H1040 0.930 . S
C1046 C1047 1.355 . S
C1046 C1048 1.415 . S
C1047 C1046 1.355 . S
C1047 C1049 1.419 1_455 S
C1048 C1046 1.415 . S
C1048 C1053 1.425 . S
C1048 C1055 1.409 . S
C1049 H1041 0.930 . S
C1049 C1047 1.419 1_655 S
C1049 C1050 1.362 . S
C1050 H1042 0.930 . S
C1050 C1049 1.362 . S
C1050 C1053 1.409 1_655 S
C1051 H1043 0.930 . S
C1051 C1052 1.355 1_655 S
C1051 C1053 1.415 1_655 S
C1052 C1051 1.355 1_455 S
C1052 C1054 1.419 . S
C1053 C1048 1.425 . S
C1053 C1050 1.409 1_455 S
C1053 C1051 1.415 1_455 S
C1054 H1044 0.930 . S
C1054 C1052 1.419 . S
C1054 C1055 1.362 . S
C1055 H1045 0.930 . S
C1055 C1048 1.409 . S
C1055 C1054 1.362 . S
H1056 C1062 0.930 . S
H1057 C1065 0.930 . S
H1058 C1066 0.930 . S
H1059 C1067 0.930 . S
H1060 C1070 0.930 . S
H1061 C1071 0.930 . S
C1062 H1056 0.930 . S
C1062 C1063 1.355 . S
C1062 C1064 1.415 . S
C1063 C1062 1.355 . S
C1063 C1065 1.419 . S
C1064 C1062 1.415 . S
C1064 C1069 1.425 . S
C1064 C1071 1.409 . S
C1065 H1057 0.930 . S
C1065 C1063 1.419 . S
C1065 C1066 1.362 . S
C1066 H1058 0.930 . S
C1066 C1065 1.362 . S
C1066 C1069 1.409 . S
C1067 H1059 0.930 . S
C1067 C1068 1.355 . S
C1067 C1069 1.415 . S
C1068 C1067 1.355 . S
C1068 C1070 1.419 . S
C1069 C1064 1.425 . S
C1069 C1066 1.409 . S
C1069 C1067 1.415 . S
C1070 H1060 0.930 . S
C1070 C1068 1.419 . S
C1070 C1071 1.362 . S
C1071 H1061 0.930 . S
C1071 C1064 1.409 . S
C1071 C1070 1.362 . S
H1072 C1078 0.930 . S
H1073 C1081 0.930 . S
H1074 C1082 0.930 . S
H1075 C1083 0.930 . S
H1076 C1086 0.930 . S
H1077 C1087 0.930 . S
C1078 H1072 0.930 . S
C1078 C1079 1.355 . S
C1078 C1080 1.415 . S
C1079 C1078 1.355 . S
C1079 C1081 1.419 . S
C1080 C1078 1.415 . S
C1080 C1085 1.425 . S
C1080 C1087 1.409 . S
C1081 H1073 0.930 . S
C1081 C1079 1.419 . S
C1081 C1082 1.362 . S
C1082 H1074 0.930 . S
C1082 C1081 1.362 . S
C1082 C1085 1.409 . S
C1083 H1075 0.930 . S
C1083 C1084 1.355 . S
C1083 C1085 1.415 . S
C1084 C1083 1.355 . S
C1084 C1086 1.419 . S
C1085 C1080 1.425 . S
C1085 C1082 1.409 . S
C1085 C1083 1.415 . S
C1086 H1076 0.930 . S
C1086 C1084 1.419 . S
C1086 C1087 1.362 . S
C1087 H1077 0.930 . S
C1087 C1080 1.409 . S
C1087 C1086 1.362 . S
H1088 C1094 0.930 . S
H1089 C1097 0.930 . S
H1090 C1098 0.930 . S
H1091 C1099 0.930 . S
H1092 C1102 0.930 . S
H1093 C1103 0.930 . S
C1094 H1088 0.930 . S
C1094 C1095 1.355 . S
C1094 C1096 1.415 . S
C1095 C1094 1.355 . S
C1095 C1097 1.419 . S
C1096 C1094 1.415 . S
C1096 C1101 1.425 . S
C1096 C1103 1.409 . S
C1097 H1089 0.930 . S
C1097 C1095 1.419 . S
C1097 C1098 1.362 . S
C1098 H1090 0.930 . S
C1098 C1097 1.362 . S
C1098 C1101 1.409 . S
C1099 H1091 0.930 . S
C1099 C1100 1.355 . S
C1099 C1101 1.415 . S
C1100 C1099 1.355 . S
C1100 C1102 1.419 . S
C1101 C1096 1.425 . S
C1101 C1098 1.409 . S
C1101 C1099 1.415 . S
C1102 H1092 0.930 . S
C1102 C1100 1.419 . S
C1102 C1103 1.362 . S
C1103 H1093 0.930 . S
C1103 C1096 1.409 . S
C1103 C1102 1.362 . S
H1104 C1110 0.930 . S
H1105 C1113 0.930 . S
H1106 C1114 0.930 . S
H1107 C1115 0.930 . S
H1108 C1118 0.930 . S
H1109 C1119 0.930 . S
C1110 H1104 0.930 . S
C1110 C1111 1.355 . S
C1110 C1112 1.415 . S
C1111 C1110 1.355 . S
C1111 C1113 1.419 1_455 S
C1112 C1110 1.415 . S
C1112 C1117 1.425 1_455 S
C1112 C1119 1.409 . S
C1113 H1105 0.930 . S
C1113 C1111 1.419 1_655 S
C1113 C1114 1.362 . S
C1114 H1106 0.930 . S
C1114 C1113 1.362 . S
C1114 C1117 1.409 . S
C1115 H1107 0.930 . S
C1115 C1116 1.355 1_655 S
C1115 C1117 1.415 . S
C1116 C1115 1.355 1_455 S
C1116 C1118 1.419 . S
C1117 C1112 1.425 1_655 S
C1117 C1114 1.409 . S
C1117 C1115 1.415 . S
C1118 H1108 0.930 . S
C1118 C1116 1.419 . S
C1118 C1119 1.362 . S
C1119 H1109 0.930 . S
C1119 C1112 1.409 . S
C1119 C1118 1.362 . S
H1120 C1126 0.930 . S
H1121 C1129 0.930 . S
H1122 C1130 0.930 . S
H1123 C1131 0.930 . S
H1124 C1134 0.930 . S
H1125 C1135 0.930 . S
C1126 H1120 0.930 . S
C1126 C1127 1.355 . S
C1126 C1128 1.415 . S
C1127 C1126 1.355 . S
C1127 C1129 1.419 . S
C1128 C1126 1.415 . S
C1128 C1133 1.425 . S
C1128 C1135 1.409 . S
C1129 H1121 0.930 . S
C1129 C1127 1.419 . S
C1129 C1130 1.362 . S
C1130 H1122 0.930 . S
C1130 C1129 1.362 . S
C1130 C1133 1.409 . S
C1131 H1123 0.930 . S
C1131 C1132 1.355 . S
C1131 C1133 1.415 . S
C1132 C1131 1.355 . S
C1132 C1134 1.419 . S
C1133 C1128 1.425 . S
C1133 C1130 1.409 . S
C1133 C1131 1.415 . S
C1134 H1124 0.930 . S
C1134 C1132 1.419 . S
C1134 C1135 1.362 . S
C1135 H1125 0.930 . S
C1135 C1128 1.409 . S
C1135 C1134 1.362 . S
H1136 C1142 0.930 . S
H1137 C1145 0.930 . S
H1138 C1146 0.930 . S
H1139 C1147 0.930 . S
H1140 C1150 0.930 1_554 S
H1141 C1151 0.930 . S
C1142 H1136 0.930 . S
C1142 C1143 1.355 . S
C1142 C1144 1.415 . S
C1143 C1142 1.355 . S
C1143 C1145 1.419 . S
C1144 C1142 1.415 . S
C1144 C1149 1.425 . S
C1144 C1151 1.409 . S
C1145 H1137 0.930 . S
C1145 C1143 1.419 . S
C1145 C1146 1.362 . S
C1146 H1138 0.930 . S
C1146 C1145 1.362 . S
C1146 C1149 1.409 . S
C1147 H1139 0.930 . S
C1147 C1148 1.355 . S
C1147 C1149 1.415 . S
C1148 C1147 1.355 . S
C1148 C1150 1.419 . S
C1149 C1144 1.425 . S
C1149 C1146 1.409 . S
C1149 C1147 1.415 . S
C1150 H1140 0.930 1_556 S
C1150 C1148 1.419 . S
C1150 C1151 1.362 . S
C1151 H1141 0.930 . S
C1151 C1144 1.409 . S
C1151 C1150 1.362 . S
H1152 C1158 0.930 . S
H1153 C1161 0.930 . S
H1154 C1162 0.930 . S
H1155 C1163 0.930 . S
H1156 C1166 0.930 . S
H1157 C1167 0.930 . S
C1158 H1152 0.930 . S
C1158 C1159 1.355 . S
C1158 C1160 1.415 . S
C1159 C1158 1.355 . S
C1159 C1161 1.419 . S
C1160 C1158 1.415 . S
C1160 C1165 1.425 . S
C1160 C1167 1.409 . S
C1161 H1153 0.930 . S
C1161 C1159 1.419 . S
C1161 C1162 1.362 . S
C1162 H1154 0.930 . S
C1162 C1161 1.362 . S
C1162 C1165 1.409 . S
C1163 H1155 0.930 . S
C1163 C1164 1.355 . S
C1163 C1165 1.415 . S
C1164 C1163 1.355 . S
C1164 C1166 1.419 . S
C1165 C1160 1.425 . S
C1165 C1162 1.409 . S
C1165 C1163 1.415 . S
C1166 H1156 0.930 . S
C1166 C1164 1.419 . S
C1166 C1167 1.362 . S
C1167 H1157 0.930 . S
C1167 C1160 1.409 . S
C1167 C1166 1.362 . S
H1168 C1174 0.930 . S
H1169 C1177 0.930 . S
H1170 C1178 0.930 . S
H1171 C1179 0.930 . S
H1172 C1182 0.930 . S
H1173 C1183 0.930 . S
C1174 H1168 0.930 . S
C1174 C1175 1.355 . S
C1174 C1176 1.415 . S
C1175 C1174 1.355 . S
C1175 C1177 1.419 1_545 S
C1176 C1174 1.415 . S
C1176 C1181 1.425 . S
C1176 C1183 1.409 . S
C1177 H1169 0.930 . S
C1177 C1175 1.419 1_565 S
C1177 C1178 1.362 . S
C1178 H1170 0.930 . S
C1178 C1177 1.362 . S
C1178 C1181 1.409 1_565 S
C1179 H1171 0.930 . S
C1179 C1180 1.355 . S
C1179 C1181 1.415 . S
C1180 C1179 1.355 . S
C1180 C1182 1.419 . S
C1181 C1176 1.425 . S
C1181 C1178 1.409 1_545 S
C1181 C1179 1.415 . S
C1182 H1172 0.930 . S
C1182 C1180 1.419 . S
C1182 C1183 1.362 . S
C1183 H1173 0.930 . S
C1183 C1176 1.409 . S
C1183 C1182 1.362 . S
H1184 C1190 0.930 . S
H1185 C1193 0.930 . S
H1186 C1194 0.930 . S
H1187 C1195 0.930 . S
H1188 C1198 0.930 . S
H1189 C1199 0.930 . S
C1190 H1184 0.930 . S
C1190 C1191 1.355 . S
C1190 C1192 1.415 . S
C1191 C1190 1.355 . S
C1191 C1193 1.419 . S
C1192 C1190 1.415 . S
C1192 C1197 1.425 . S
C1192 C1199 1.409 . S
C1193 H1185 0.930 . S
C1193 C1191 1.419 . S
C1193 C1194 1.362 . S
C1194 H1186 0.930 . S
C1194 C1193 1.362 . S
C1194 C1197 1.409 . S
C1195 H1187 0.930 . S
C1195 C1196 1.355 . S
C1195 C1197 1.415 . S
C1196 C1195 1.355 . S
C1196 C1198 1.419 . S
C1197 C1192 1.425 . S
C1197 C1194 1.409 . S
C1197 C1195 1.415 . S
C1198 H1188 0.930 . S
C1198 C1196 1.419 . S
C1198 C1199 1.362 . S
C1199 H1189 0.930 . S
C1199 C1192 1.409 . S
C1199 C1198 1.362 . S
H1200 C1206 0.930 . S
H1201 C1209 0.930 . S
H1202 C1210 0.930 1_565 S
H1203 C1211 0.930 1_565 S
H1204 C1214 0.930 . S
H1205 C1215 0.930 . S
C1206 H1200 0.930 . S
C1206 C1207 1.355 . S
C1206 C1208 1.415 . S
C1207 C1206 1.355 . S
C1207 C1209 1.419 . S
C1208 C1206 1.415 . S
C1208 C1213 1.425 . S
C1208 C1215 1.409 . S
C1209 H1201 0.930 . S
C1209 C1207 1.419 . S
C1209 C1210 1.362 . S
C1210 H1202 0.930 1_545 S
C1210 C1209 1.362 . S
C1210 C1213 1.409 . S
C1211 H1203 0.930 1_545 S
C1211 C1212 1.355 . S
C1211 C1213 1.415 . S
C1212 C1211 1.355 . S
C1212 C1214 1.419 . S
C1213 C1208 1.425 . S
C1213 C1210 1.409 . S
C1213 C1211 1.415 . S
C1214 H1204 0.930 . S
C1214 C1212 1.419 . S
C1214 C1215 1.362 . S
C1215 H1205 0.930 . S
C1215 C1208 1.409 . S
C1215 C1214 1.362 . S
H1216 C1222 0.930 . S
H1217 C1225 0.930 . S
H1218 C1226 0.930 . S
H1219 C1227 0.930 . S
H1220 C1230 0.930 . S
H1221 C1231 0.930 . S
C1222 H1216 0.930 . S
C1222 C1223 1.355 . S
C1222 C1224 1.415 . S
C1223 C1222 1.355 . S
C1223 C1225 1.419 . S
C1224 C1222 1.415 . S
C1224 C1229 1.425 . S
C1224 C1231 1.409 . S
C1225 H1217 0.930 . S
C1225 C1223 1.419 . S
C1225 C1226 1.362 . S
C1226 H1218 0.930 . S
C1226 C1225 1.362 . S
C1226 C1229 1.409 . S
C1227 H1219 0.930 . S
C1227 C1228 1.355 . S
C1227 C1229 1.415 . S
C1228 C1227 1.355 . S
C1228 C1230 1.419 . S
C1229 C1224 1.425 . S
C1229 C1226 1.409 . S
C1229 C1227 1.415 . S
C1230 H1220 0.930 . S
C1230 C1228 1.419 . S
C1230 C1231 1.362 . S
C1231 H1221 0.930 . S
C1231 C1224 1.409 . S
C1231 C1230 1.362 . S
H1232 C1238 0.930 . S
H1233 C1241 0.930 . S
H1234 C1242 0.930 . S
H1235 C1243 0.930 . S
H1236 C1246 0.930 . S
H1237 C1247 0.930 . S
C1238 H1232 0.930 . S
C1238 C1239 1.355 . S
C1238 C1240 1.415 . S
C1239 C1238 1.355 . S
C1239 C1241 1.419 1_565 S
C1240 C1238 1.415 . S
C1240 C1245 1.425 1_565 S
C1240 C1247 1.409 . S
C1241 H1233 0.930 . S
C1241 C1239 1.419 1_545 S
C1241 C1242 1.362 . S
C1242 H1234 0.930 . S
C1242 C1241 1.362 . S
C1242 C1245 1.409 . S
C1243 H1235 0.930 . S
C1243 C1244 1.355 . S
C1243 C1245 1.415 . S
C1244 C1243 1.355 . S
C1244 C1246 1.419 1_545 S
C1245 C1240 1.425 1_545 S
C1245 C1242 1.409 . S
C1245 C1243 1.415 . S
C1246 H1236 0.930 . S
C1246 C1244 1.419 1_565 S
C1246 C1247 1.362 . S
C1247 H1237 0.930 . S
C1247 C1240 1.409 . S
C1247 C1246 1.362 . S
H1248 C1254 0.930 . S
H1249 C1257 0.930 . S
H1250 C1258 0.930 . S
H1251 C1259 0.930 . S
H1252 C1262 0.930 . S
H1253 C1263 0.930 . S
C1254 H1248 0.930 . S
C1254 C1255 1.355 . S
C1254 C1256 1.415 . S
C1255 C1254 1.355 . S
C1255 C1257 1.419 . S
C1256 C1254 1.415 . S
C1256 C1261 1.425 . S
C1256 C1263 1.409 . S
C1257 H1249 0.930 . S
C1257 C1255 1.419 . S
C1257 C1258 1.362 . S
C1258 H1250 0.930 . S
C1258 C1257 1.362 . S
C1258 C1261 1.409 . S
C1259 H1251 0.930 . S
C1259 C1260 1.355 . S
C1259 C1261 1.415 . S
C1260 C1259 1.355 . S
C1260 C1262 1.419 . S
C1261 C1256 1.425 . S
C1261 C1258 1.409 . S
C1261 C1259 1.415 . S
C1262 H1252 0.930 . S
C1262 C1260 1.419 . S
C1262 C1263 1.362 . S
C1263 H1253 0.930 . S
C1263 C1256 1.409 . S
C1263 C1262 1.362 . S
H1264 C1270 0.930 . S
H1265 C1273 0.930 . S
H1266 C1274 0.930 . S
H1267 C1275 0.930 . S
H1268 C1278 0.930 . S
H1269 C1279 0.930 . S
C1270 H1264 0.930 . S
C1270 C1271 1.355 . S
C1270 C1272 1.415 . S
C1271 C1270 1.355 . S
C1271 C1273 1.419 . S
C1272 C1270 1.415 . S
C1272 C1277 1.425 . S
C1272 C1279 1.409 . S
C1273 H1265 0.930 . S
C1273 C1271 1.419 . S
C1273 C1274 1.362 . S
C1274 H1266 0.930 . S
C1274 C1273 1.362 . S
C1274 C1277 1.409 . S
C1275 H1267 0.930 . S
C1275 C1276 1.355 . S
C1275 C1277 1.415 . S
C1276 C1275 1.355 . S
C1276 C1278 1.419 . S
C1277 C1272 1.425 . S
C1277 C1274 1.409 . S
C1277 C1275 1.415 . S
C1278 H1268 0.930 . S
C1278 C1276 1.419 . S
C1278 C1279 1.362 . S
C1279 H1269 0.930 . S
C1279 C1272 1.409 . S
C1279 C1278 1.362 . S
H1280 C1286 0.930 . S
H1281 C1289 0.930 . S
H1282 C1290 0.930 . S
H1283 C1291 0.930 . S
H1284 C1294 0.930 . S
H1285 C1295 0.930 . S
C1286 H1280 0.930 . S
C1286 C1287 1.355 . S
C1286 C1288 1.415 . S
C1287 C1286 1.355 . S
C1287 C1289 1.419 . S
C1288 C1286 1.415 . S
C1288 C1293 1.425 . S
C1288 C1295 1.409 . S
C1289 H1281 0.930 . S
C1289 C1287 1.419 . S
C1289 C1290 1.362 . S
C1290 H1282 0.930 . S
C1290 C1289 1.362 . S
C1290 C1293 1.409 . S
C1291 H1283 0.930 . S
C1291 C1292 1.355 . S
C1291 C1293 1.415 . S
C1292 C1291 1.355 . S
C1292 C1294 1.419 . S
C1293 C1288 1.425 . S
C1293 C1290 1.409 . S
C1293 C1291 1.415 . S
C1294 H1284 0.930 . S
C1294 C1292 1.419 . S
C1294 C1295 1.362 . S
C1295 H1285 0.930 . S
C1295 C1288 1.409 . S
C1295 C1294 1.362 . S
H1296 C1302 0.930 . S
H1297 C1305 0.930 . S
H1298 C1306 0.930 . S
H1299 C1307 0.930 . S
H1300 C1310 0.930 . S
H1301 C1311 0.930 . S
C1302 H1296 0.930 . S
C1302 C1303 1.355 . S
C1302 C1304 1.415 . S
C1303 C1302 1.355 . S
C1303 C1305 1.419 1_554 S
C1304 C1302 1.415 . S
C1304 C1309 1.415 1_554 S
C1304 C1311 1.409 . S
C1305 H1297 0.930 . S
C1305 C1303 1.419 1_556 S
C1305 C1306 1.362 . S
C1306 H1298 0.930 . S
C1306 C1305 1.362 . S
C1306 C1309 1.416 . S
C1307 H1299 0.930 . S
C1307 C1308 1.355 1_556 S
C1307 C1309 1.419 . S
C1308 C1307 1.355 1_554 S
C1308 C1310 1.419 . S
C1309 C1304 1.415 1_556 S
C1309 C1306 1.416 . S
C1309 C1307 1.419 . S
C1310 H1300 0.930 . S
C1310 C1308 1.419 . S
C1310 C1311 1.362 . S
C1311 H1301 0.930 . S
C1311 C1304 1.409 . S
C1311 C1310 1.362 . S
H1312 C1318 0.930 . S
H1313 C1321 0.930 . S
H1314 C1322 0.930 . S
H1315 C1323 0.930 . S
H1316 C1326 0.930 . S
H1317 C1327 0.930 . S
C1318 H1312 0.930 . S
C1318 C1319 1.355 . S
C1318 C1320 1.415 . S
C1319 C1318 1.355 . S
C1319 C1321 1.419 . S
C1320 C1318 1.415 . S
C1320 C1325 1.425 . S
C1320 C1327 1.409 . S
C1321 H1313 0.930 . S
C1321 C1319 1.419 . S
C1321 C1322 1.362 . S
C1322 H1314 0.930 . S
C1322 C1321 1.362 . S
C1322 C1325 1.409 . S
C1323 H1315 0.930 . S
C1323 C1324 1.355 . S
C1323 C1325 1.415 . S
C1324 C1323 1.355 . S
C1324 C1326 1.419 . S
C1325 C1320 1.425 . S
C1325 C1322 1.409 . S
C1325 C1323 1.415 . S
C1326 H1316 0.930 . S
C1326 C1324 1.419 . S
C1326 C1327 1.362 . S
C1327 H1317 0.930 . S
C1327 C1320 1.409 . S
C1327 C1326 1.362 . S
H1328 C1334 0.930 . S
H1329 C1337 0.930 . S
H1330 C1338 0.930 . S
H1331 C1339 0.930 . S
H1332 C1342 0.930 . S
H1333 C1343 0.930 . S
C1334 H1328 0.930 . S
C1334 C1335 1.355 . S
C1334 C1336 1.415 . S
C1335 C1334 1.355 . S
C1335 C1337 1.419 . S
C1336 C1334 1.415 . S
C1336 C1341 1.425 . S
C1336 C1343 1.409 . S
C1337 H1329 0.930 . S
C1337 C1335 1.419 . S
C1337 C1338 1.362 . S
C1338 H1330 0.930 . S
C1338 C1337 1.362 . S
C1338 C1341 1.409 . S
C1339 H1331 0.930 . S
C1339 C1340 1.355 . S
C1339 C1341 1.415 . S
C1340 C1339 1.355 . S
C1340 C1342 1.419 . S
C1341 C1336 1.425 . S
C1341 C1338 1.409 . S
C1341 C1339 1.415 . S
C1342 H1332 0.930 . S
C1342 C1340 1.419 . S
C1342 C1343 1.362 . S
C1343 H1333 0.930 . S
C1343 C1336 1.409 . S
C1343 C1342 1.362 . S
H1344 C1350 0.930 . S
H1345 C1353 0.930 . S
H1346 C1354 0.930 . S
H1347 C1355 0.930 . S
H1348 C1358 0.930 . S
H1349 C1359 0.930 . S
C1350 H1344 0.930 . S
C1350 C1351 1.355 . S
C1350 C1352 1.415 . S
C1351 C1350 1.355 . S
C1351 C1353 1.419 . S
C1352 C1350 1.415 . S
C1352 C1357 1.425 . S
C1352 C1359 1.409 . S
C1353 H1345 0.930 . S
C1353 C1351 1.419 . S
C1353 C1354 1.362 . S
C1354 H1346 0.930 . S
C1354 C1353 1.362 . S
C1354 C1357 1.409 . S
C1355 H1347 0.930 . S
C1355 C1356 1.355 . S
C1355 C1357 1.415 . S
C1356 C1355 1.355 . S
C1356 C1358 1.419 . S
C1357 C1352 1.425 . S
C1357 C1354 1.409 . S
C1357 C1355 1.415 . S
C1358 H1348 0.930 . S
C1358 C1356 1.419 . S
C1358 C1359 1.362 . S
C1359 H1349 0.930 . S
C1359 C1352 1.409 . S
C1359 C1358 1.362 . S
H1360 C1366 0.930 . S
H1361 C1369 0.930 . S
H1362 C1370 0.930 . S
H1363 C1371 0.930 . S
H1364 C1374 0.930 . S
H1365 C1375 0.930 . S
C1366 H1360 0.930 . S
C1366 C1367 1.355 . S
C1366 C1368 1.415 . S
C1367 C1366 1.355 . S
C1367 C1369 1.419 . S
C1368 C1366 1.415 . S
C1368 C1373 1.425 . S
C1368 C1375 1.409 . S
C1369 H1361 0.930 . S
C1369 C1367 1.419 . S
C1369 C1370 1.362 . S
C1370 H1362 0.930 . S
C1370 C1369 1.362 . S
C1370 C1373 1.409 . S
C1371 H1363 0.930 . S
C1371 C1372 1.355 . S
C1371 C1373 1.415 . S
C1372 C1371 1.355 . S
C1372 C1374 1.419 . S
C1373 C1368 1.425 . S
C1373 C1370 1.409 . S
C1373 C1371 1.415 . S
C1374 H1364 0.930 . S
C1374 C1372 1.419 . S
C1374 C1375 1.362 . S
C1375 H1365 0.930 . S
C1375 C1368 1.409 . S
C1375 C1374 1.362 . S
H1376 C1382 0.930 . S
H1377 C1385 0.930 . S
H1378 C1386 0.930 . S
H1379 C1387 0.930 . S
H1380 C1390 0.930 . S
H1381 C1391 0.930 1_545 S
C1382 H1376 0.930 . S
C1382 C1383 1.355 . S
C1382 C1384 1.415 . S
C1383 C1382 1.355 . S
C1383 C1385 1.419 . S
C1384 C1382 1.415 . S
C1384 C1389 1.425 . S
C1384 C1391 1.409 . S
C1385 H1377 0.930 . S
C1385 C1383 1.419 . S
C1385 C1386 1.362 . S
C1386 H1378 0.930 . S
C1386 C1385 1.362 . S
C1386 C1389 1.409 . S
C1387 H1379 0.930 . S
C1387 C1388 1.355 . S
C1387 C1389 1.415 . S
C1388 C1387 1.355 . S
C1388 C1390 1.419 1_565 S
C1389 C1384 1.425 . S
C1389 C1386 1.409 . S
C1389 C1387 1.415 . S
C1390 H1380 0.930 . S
C1390 C1388 1.419 1_545 S
C1390 C1391 1.362 1_545 S
C1391 H1381 0.930 1_565 S
C1391 C1384 1.409 . S
C1391 C1390 1.362 1_565 S
H1392 C1398 0.930 . S
H1393 C1401 0.930 . S
H1394 C1402 0.930 . S
H1395 C1403 0.930 . S
H1396 C1406 0.930 . S
H1397 C1407 0.930 . S
C1398 H1392 0.930 . S
C1398 C1399 1.355 . S
C1398 C1400 1.415 . S
C1399 C1398 1.355 . S
C1399 C1401 1.419 . S
C1400 C1398 1.415 . S
C1400 C1405 1.425 . S
C1400 C1407 1.409 . S
C1401 H1393 0.930 . S
C1401 C1399 1.419 . S
C1401 C1402 1.362 . S
C1402 H1394 0.930 . S
C1402 C1401 1.362 . S
C1402 C1405 1.409 . S
C1403 H1395 0.930 . S
C1403 C1404 1.355 . S
C1403 C1405 1.415 . S
C1404 C1403 1.355 . S
C1404 C1406 1.419 . S
C1405 C1400 1.425 . S
C1405 C1402 1.409 . S
C1405 C1403 1.415 . S
C1406 H1396 0.930 . S
C1406 C1404 1.419 . S
C1406 C1407 1.362 . S
C1407 H1397 0.930 . S
C1407 C1400 1.409 . S
C1407 C1406 1.362 . S
H1408 C1414 0.930 . S
H1409 C1417 0.930 . S
H1410 C1418 0.930 . S
H1411 C1419 0.930 . S
H1412 C1422 0.930 . S
H1413 C1423 0.930 . S
C1414 H1408 0.930 . S
C1414 C1415 1.355 . S
C1414 C1416 1.415 . S
C1415 C1414 1.355 . S
C1415 C1417 1.419 . S
C1416 C1414 1.415 . S
C1416 C1421 1.425 . S
C1416 C1423 1.409 . S
C1417 H1409 0.930 . S
C1417 C1415 1.419 . S
C1417 C1418 1.362 . S
C1418 H1410 0.930 . S
C1418 C1417 1.362 . S
C1418 C1421 1.409 . S
C1419 H1411 0.930 . S
C1419 C1420 1.355 . S
C1419 C1421 1.415 . S
C1420 C1419 1.355 . S
C1420 C1422 1.419 . S
C1421 C1416 1.425 . S
C1421 C1418 1.409 . S
C1421 C1419 1.415 . S
C1422 H1412 0.930 . S
C1422 C1420 1.419 . S
C1422 C1423 1.362 . S
C1423 H1413 0.930 . S
C1423 C1416 1.409 . S
C1423 C1422 1.362 . S
H1424 C1430 0.930 . S
H1425 C1433 0.930 . S
H1426 C1434 0.930 . S
H1427 C1435 0.930 . S
H1428 C1438 0.930 . S
H1429 C1439 0.930 . S
C1430 H1424 0.930 . S
C1430 C1431 1.355 . S
C1430 C1432 1.415 . S
C1431 C1430 1.355 . S
C1431 C1433 1.419 . S
C1432 C1430 1.415 . S
C1432 C1437 1.425 . S
C1432 C1439 1.409 . S
C1433 H1425 0.930 . S
C1433 C1431 1.419 . S
C1433 C1434 1.362 . S
C1434 H1426 0.930 . S
C1434 C1433 1.362 . S
C1434 C1437 1.409 . S
C1435 H1427 0.930 . S
C1435 C1436 1.355 . S
C1435 C1437 1.415 . S
C1436 C1435 1.355 . S
C1436 C1438 1.419 . S
C1437 C1432 1.425 . S
C1437 C1434 1.409 . S
C1437 C1435 1.415 . S
C1438 H1428 0.930 . S
C1438 C1436 1.419 . S
C1438 C1439 1.362 . S
C1439 H1429 0.930 . S
C1439 C1432 1.409 . S
C1439 C1438 1.362 . S
H1440 C1446 0.930 . S
H1441 C1449 0.930 . S
H1442 C1450 0.930 . S
H1443 C1451 0.930 . S
H1444 C1454 0.930 . S
H1445 C1455 0.930 . S
C1446 H1440 0.930 . S
C1446 C1447 1.355 . S
C1446 C1448 1.415 . S
C1447 C1446 1.355 . S
C1447 C1449 1.419 . S
C1448 C1446 1.415 . S
C1448 C1453 1.425 . S
C1448 C1455 1.409 . S
C1449 H1441 0.930 . S
C1449 C1447 1.419 . S
C1449 C1450 1.362 . S
C1450 H1442 0.930 . S
C1450 C1449 1.362 . S
C1450 C1453 1.409 . S
C1451 H1443 0.930 . S
C1451 C1452 1.355 . S
C1451 C1453 1.415 . S
C1452 C1451 1.355 . S
C1452 C1454 1.419 . S
C1453 C1448 1.425 . S
C1453 C1450 1.409 . S
C1453 C1451 1.415 . S
C1454 H1444 0.930 . S
C1454 C1452 1.419 . S
C1454 C1455 1.362 . S
C1455 H1445 0.930 . S
C1455 C1448 1.409 . S
C1455 C1454 1.362 . S
H1456 C1462 0.930 . S
H1457 C1465 0.930 . S
H1458 C1466 0.930 . S
H1459 C1467 0.930 . S
H1460 C1470 0.930 . S
H1461 C1471 0.930 . S
C1462 H1456 0.930 . S
C1462 C1463 1.355 1_655 S
C1462 C1464 1.415 . S
C1463 C1462 1.355 1_455 S
C1463 C1465 1.419 . S
C1464 C1462 1.415 . S
C1464 C1469 1.425 1_655 S
C1464 C1471 1.409 . S
C1465 H1457 0.930 . S
C1465 C1463 1.419 . S
C1465 C1466 1.362 . S
C1466 H1458 0.930 . S
C1466 C1465 1.362 . S
C1466 C1469 1.409 . S
C1467 H1459 0.930 . S
C1467 C1468 1.355 1_455 S
C1467 C1469 1.415 . S
C1468 C1467 1.355 1_655 S
C1468 C1470 1.419 . S
C1469 C1464 1.425 1_455 S
C1469 C1466 1.409 . S
C1469 C1467 1.415 . S
C1470 H1460 0.930 . S
C1470 C1468 1.419 . S
C1470 C1471 1.362 . S
C1471 H1461 0.930 . S
C1471 C1464 1.409 . S
C1471 C1470 1.362 . S
H1472 C1478 0.930 . S
H1473 C1481 0.930 . S
H1474 C1482 0.930 . S
H1475 C1483 0.930 . S
H1476 C1486 0.930 . S
H1477 C1487 0.930 . S
C1478 H1472 0.930 . S
C1478 C1479 1.355 . S
C1478 C1480 1.415 . S
C1479 C1478 1.355 . S
C1479 C1481 1.419 . S
C1480 C1478 1.415 . S
C1480 C1485 1.425 . S
C1480 C1487 1.409 . S
C1481 H1473 0.930 . S
C1481 C1479 1.419 . S
C1481 C1482 1.362 . S
C1482 H1474 0.930 . S
C1482 C1481 1.362 . S
C1482 C1485 1.409 . S
C1483 H1475 0.930 . S
C1483 C1484 1.355 . S
C1483 C1485 1.415 . S
C1484 C1483 1.355 . S
C1484 C1486 1.419 . S
C1485 C1480 1.425 . S
C1485 C1482 1.409 . S
C1485 C1483 1.415 . S
C1486 H1476 0.930 . S
C1486 C1484 1.419 . S
C1486 C1487 1.362 . S
C1487 H1477 0.930 . S
C1487 C1480 1.409 . S
C1487 C1486 1.362 . S
H1488 C1494 0.930 . S
H1489 C1497 0.930 . S
H1490 C1498 0.930 . S
H1491 C1499 0.930 . S
H1492 C1502 0.930 . S
H1493 C1503 0.930 . S
C1494 H1488 0.930 . S
C1494 C1495 1.355 . S
C1494 C1496 1.415 . S
C1495 C1494 1.355 . S
C1495 C1497 1.419 . S
C1496 C1494 1.415 . S
C1496 C1501 1.425 . S
C1496 C1503 1.409 . S
C1497 H1489 0.930 . S
C1497 C1495 1.419 . S
C1497 C1498 1.362 . S
C1498 H1490 0.930 . S
C1498 C1497 1.362 . S
C1498 C1501 1.409 . S
C1499 H1491 0.930 . S
C1499 C1500 1.355 . S
C1499 C1501 1.415 . S
C1500 C1499 1.355 . S
C1500 C1502 1.419 . S
C1501 C1496 1.425 . S
C1501 C1498 1.409 . S
C1501 C1499 1.415 . S
C1502 H1492 0.930 . S
C1502 C1500 1.419 . S
C1502 C1503 1.362 . S
C1503 H1493 0.930 . S
C1503 C1496 1.409 . S
C1503 C1502 1.362 . S
H1504 C1510 0.930 . S
H1505 C1513 0.930 . S
H1506 C1514 0.930 . S
H1507 C1515 0.930 . S
H1508 C1518 0.930 . S
H1509 C1519 0.930 . S
C1510 H1504 0.930 . S
C1510 C1511 1.355 . S
C1510 C1512 1.415 . S
C1511 C1510 1.355 . S
C1511 C1513 1.419 . S
C1512 C1510 1.415 . S
C1512 C1517 1.425 . S
C1512 C1519 1.409 . S
C1513 H1505 0.930 . S
C1513 C1511 1.419 . S
C1513 C1514 1.362 . S
C1514 H1506 0.930 . S
C1514 C1513 1.362 . S
C1514 C1517 1.409 . S
C1515 H1507 0.930 . S
C1515 C1516 1.355 . S
C1515 C1517 1.415 . S
C1516 C1515 1.355 . S
C1516 C1518 1.419 . S
C1517 C1512 1.425 . S
C1517 C1514 1.409 . S
C1517 C1515 1.415 . S
C1518 H1508 0.930 . S
C1518 C1516 1.419 . S
C1518 C1519 1.362 . S
C1519 H1509 0.930 . S
C1519 C1512 1.409 . S
C1519 C1518 1.362 . S
H1520 C1526 0.930 . S
H1521 C1529 0.930 . S
H1522 C1530 0.930 . S
H1523 C1531 0.930 . S
H1524 C1534 0.930 . S
H1525 C1535 0.930 . S
C1526 H1520 0.930 . S
C1526 C1527 1.355 . S
C1526 C1528 1.415 . S
C1527 C1526 1.355 . S
C1527 C1529 1.419 1_655 S
C1528 C1526 1.415 . S
C1528 C1533 1.425 1_655 S
C1528 C1535 1.409 . S
C1529 H1521 0.930 . S
C1529 C1527 1.419 1_455 S
C1529 C1530 1.362 . S
C1530 H1522 0.930 . S
C1530 C1529 1.362 . S
C1530 C1533 1.409 . S
C1531 H1523 0.930 . S
C1531 C1532 1.355 1_455 S
C1531 C1533 1.415 . S
C1532 C1531 1.355 1_655 S
C1532 C1534 1.419 . S
C1533 C1528 1.425 1_455 S
C1533 C1530 1.409 . S
C1533 C1531 1.415 . S
C1534 H1524 0.930 . S
C1534 C1532 1.419 . S
C1534 C1535 1.362 . S
C1535 H1525 0.930 . S
C1535 C1528 1.409 . S
C1535 C1534 1.362 . S
H1536 C1542 0.930 . S
H1537 C1545 0.930 . S
H1538 C1546 0.930 . S
H1539 C1547 0.930 . S
H1540 C1550 0.930 . S
H1541 C1551 0.930 . S
C1542 H1536 0.930 . S
C1542 C1543 1.355 . S
C1542 C1544 1.415 . S
C1543 C1542 1.355 . S
C1543 C1545 1.419 . S
C1544 C1542 1.415 . S
C1544 C1549 1.425 . S
C1544 C1551 1.409 . S
C1545 H1537 0.930 . S
C1545 C1543 1.419 . S
C1545 C1546 1.362 . S
C1546 H1538 0.930 . S
C1546 C1545 1.362 . S
C1546 C1549 1.409 . S
C1547 H1539 0.930 . S
C1547 C1548 1.355 . S
C1547 C1549 1.415 . S
C1548 C1547 1.355 . S
C1548 C1550 1.419 . S
C1549 C1544 1.425 . S
C1549 C1546 1.409 . S
C1549 C1547 1.415 . S
C1550 H1540 0.930 . S
C1550 C1548 1.419 . S
C1550 C1551 1.362 . S
C1551 H1541 0.930 . S
C1551 C1544 1.409 . S
C1551 C1550 1.362 . S
H1552 C1558 0.930 . S
H1553 C1561 0.930 . S
H1554 C1562 0.930 . S
H1555 C1563 0.930 . S
H1556 C1566 0.930 . S
H1557 C1567 0.930 . S
C1558 H1552 0.930 . S
C1558 C1559 1.355 . S
C1558 C1560 1.415 . S
C1559 C1558 1.355 . S
C1559 C1561 1.419 . S
C1560 C1558 1.415 . S
C1560 C1565 1.425 . S
C1560 C1567 1.409 . S
C1561 H1553 0.930 . S
C1561 C1559 1.419 . S
C1561 C1562 1.362 . S
C1562 H1554 0.930 . S
C1562 C1561 1.362 . S
C1562 C1565 1.409 . S
C1563 H1555 0.930 . S
C1563 C1564 1.355 . S
C1563 C1565 1.415 . S
C1564 C1563 1.355 . S
C1564 C1566 1.419 . S
C1565 C1560 1.425 . S
C1565 C1562 1.409 . S
C1565 C1563 1.415 . S
C1566 H1556 0.930 . S
C1566 C1564 1.419 . S
C1566 C1567 1.362 . S
C1567 H1557 0.930 . S
C1567 C1560 1.409 . S
C1567 C1566 1.362 . S
H1568 C1574 0.930 . S
H1569 C1577 0.930 . S
H1570 C1578 0.930 . S
H1571 C1579 0.930 . S
H1572 C1582 0.930 . S
H1573 C1583 0.930 . S
C1574 H1568 0.930 . S
C1574 C1575 1.355 . S
C1574 C1576 1.415 . S
C1575 C1574 1.355 . S
C1575 C1577 1.419 . S
C1576 C1574 1.415 . S
C1576 C1581 1.425 . S
C1576 C1583 1.409 . S
C1577 H1569 0.930 . S
C1577 C1575 1.419 . S
C1577 C1578 1.362 . S
C1578 H1570 0.930 . S
C1578 C1577 1.362 . S
C1578 C1581 1.409 . S
C1579 H1571 0.930 . S
C1579 C1580 1.355 . S
C1579 C1581 1.415 . S
C1580 C1579 1.355 . S
C1580 C1582 1.419 . S
C1581 C1576 1.425 . S
C1581 C1578 1.409 . S
C1581 C1579 1.415 . S
C1582 H1572 0.930 . S
C1582 C1580 1.419 . S
C1582 C1583 1.362 . S
C1583 H1573 0.930 . S
C1583 C1576 1.409 . S
C1583 C1582 1.362 . S
H1584 C1590 0.930 . S
H1585 C1593 0.930 . S
H1586 C1594 0.930 . S
H1587 C1595 0.930 . S
H1588 C1598 0.930 . S
H1589 C1599 0.930 . S
C1590 H1584 0.930 . S
C1590 C1591 1.355 . S
C1590 C1592 1.415 . S
C1591 C1590 1.355 . S
C1591 C1593 1.419 . S
C1592 C1590 1.415 . S
C1592 C1597 1.425 . S
C1592 C1599 1.409 . S
C1593 H1585 0.930 . S
C1593 C1591 1.419 . S
C1593 C1594 1.362 . S
C1594 H1586 0.930 . S
C1594 C1593 1.362 . S
C1594 C1597 1.409 . S
C1595 H1587 0.930 . S
C1595 C1596 1.355 . S
C1595 C1597 1.415 . S
C1596 C1595 1.355 . S
C1596 C1598 1.419 . S
C1597 C1592 1.425 . S
C1597 C1594 1.409 . S
C1597 C1595 1.415 . S
C1598 H1588 0.930 . S
C1598 C1596 1.419 . S
C1598 C1599 1.362 . S
C1599 H1589 0.930 . S
C1599 C1592 1.409 . S
C1599 C1598 1.362 . S
H1600 C1606 0.930 . S
H1601 C1609 0.930 . S
H1602 C1610 0.930 . S
H1603 C1611 0.930 . S
H1604 C1614 0.930 . S
H1605 C1615 0.930 . S
C1606 H1600 0.930 . S
C1606 C1607 1.355 . S
C1606 C1608 1.415 . S
C1607 C1606 1.355 . S
C1607 C1609 1.419 . S
C1608 C1606 1.415 . S
C1608 C1613 1.425 . S
C1608 C1615 1.409 . S
C1609 H1601 0.930 . S
C1609 C1607 1.419 . S
C1609 C1610 1.362 . S
C1610 H1602 0.930 . S
C1610 C1609 1.362 . S
C1610 C1613 1.409 . S
C1611 H1603 0.930 . S
C1611 C1612 1.355 . S
C1611 C1613 1.415 . S
C1612 C1611 1.355 . S
C1612 C1614 1.419 . S
C1613 C1608 1.425 . S
C1613 C1610 1.409 . S
C1613 C1611 1.415 . S
C1614 H1604 0.930 . S
C1614 C1612 1.419 . S
C1614 C1615 1.362 . S
C1615 H1605 0.930 . S
C1615 C1608 1.409 . S
C1615 C1614 1.362 . S
H1616 C1622 0.930 . S
H1617 C1625 0.930 . S
H1618 C1626 0.930 . S
H1619 C1627 0.930 . S
H1620 C1630 0.930 . S
H1621 C1631 0.930 . S
C1622 H1616 0.930 . S
C1622 C1623 1.355 . S
C1622 C1624 1.415 . S
C1623 C1622 1.355 . S
C1623 C1625 1.419 . S
C1624 C1622 1.415 . S
C1624 C1629 1.425 . S
C1624 C1631 1.409 . S
C1625 H1617 0.930 . S
C1625 C1623 1.419 . S
C1625 C1626 1.362 . S
C1626 H1618 0.930 . S
C1626 C1625 1.362 . S
C1626 C1629 1.409 . S
C1627 H1619 0.930 . S
C1627 C1628 1.355 . S
C1627 C1629 1.415 . S
C1628 C1627 1.355 . S
C1628 C1630 1.419 . S
C1629 C1624 1.425 . S
C1629 C1626 1.409 . S
C1629 C1627 1.415 . S
C1630 H1620 0.930 . S
C1630 C1628 1.419 . S
C1630 C1631 1.362 . S
C1631 H1621 0.930 . S
C1631 C1624 1.409 . S
C1631 C1630 1.362 . S
H1632 C1638 0.930 . S
H1633 C1641 0.930 . S
H1634 C1642 0.930 . S
H1635 C1643 0.930 . S
H1636 C1646 0.930 . S
H1637 C1647 0.930 . S
C1638 H1632 0.930 . S
C1638 C1639 1.355 . S
C1638 C1640 1.415 . S
C1639 C1638 1.355 . S
C1639 C1641 1.419 . S
C1640 C1638 1.415 . S
C1640 C1645 1.425 . S
C1640 C1647 1.409 . S
C1641 H1633 0.930 . S
C1641 C1639 1.419 . S
C1641 C1642 1.362 . S
C1642 H1634 0.930 . S
C1642 C1641 1.362 . S
C1642 C1645 1.409 . S
C1643 H1635 0.930 . S
C1643 C1644 1.355 . S
C1643 C1645 1.415 . S
C1644 C1643 1.355 . S
C1644 C1646 1.419 . S
C1645 C1640 1.425 . S
C1645 C1642 1.409 . S
C1645 C1643 1.415 . S
C1646 H1636 0.930 . S
C1646 C1644 1.419 . S
C1646 C1647 1.362 . S
C1647 H1637 0.930 . S
C1647 C1640 1.409 . S
C1647 C1646 1.362 . S
H1648 C1654 0.930 . S
H1649 C1657 0.930 . S
H1650 C1658 0.930 . S
H1651 C1659 0.930 . S
H1652 C1662 0.930 . S
H1653 C1663 0.930 . S
C1654 H1648 0.930 . S
C1654 C1655 1.355 . S
C1654 C1656 1.415 . S
C1655 C1654 1.355 . S
C1655 C1657 1.419 . S
C1656 C1654 1.415 . S
C1656 C1661 1.425 . S
C1656 C1663 1.409 . S
C1657 H1649 0.930 . S
C1657 C1655 1.419 . S
C1657 C1658 1.362 . S
C1658 H1650 0.930 . S
C1658 C1657 1.362 . S
C1658 C1661 1.409 . S
C1659 H1651 0.930 . S
C1659 C1660 1.355 . S
C1659 C1661 1.415 . S
C1660 C1659 1.355 . S
C1660 C1662 1.419 . S
C1661 C1656 1.425 . S
C1661 C1658 1.409 . S
C1661 C1659 1.415 . S
C1662 H1652 0.930 . S
C1662 C1660 1.419 . S
C1662 C1663 1.362 . S
C1663 H1653 0.930 . S
C1663 C1656 1.409 . S
C1663 C1662 1.362 . S
H1664 C1670 0.930 . S
H1665 C1673 0.930 . S
H1666 C1674 0.930 . S
H1667 C1675 0.930 . S
H1668 C1678 0.930 . S
H1669 C1679 0.930 . S
C1670 H1664 0.930 . S
C1670 C1671 1.355 . S
C1670 C1672 1.415 . S
C1671 C1670 1.355 . S
C1671 C1673 1.419 . S
C1672 C1670 1.415 . S
C1672 C1677 1.425 . S
C1672 C1679 1.409 . S
C1673 H1665 0.930 . S
C1673 C1671 1.419 . S
C1673 C1674 1.362 . S
C1674 H1666 0.930 . S
C1674 C1673 1.362 . S
C1674 C1677 1.409 . S
C1675 H1667 0.930 . S
C1675 C1676 1.355 . S
C1675 C1677 1.415 . S
C1676 C1675 1.355 . S
C1676 C1678 1.419 . S
C1677 C1672 1.425 . S
C1677 C1674 1.409 . S
C1677 C1675 1.415 . S
C1678 H1668 0.930 . S
C1678 C1676 1.419 . S
C1678 C1679 1.362 . S
C1679 H1669 0.930 . S
C1679 C1672 1.409 . S
C1679 C1678 1.362 . S
H1680 C1686 0.930 . S
H1681 C1689 0.930 . S
H1682 C1690 0.930 . S
H1683 C1691 0.930 . S
H1684 C1694 0.930 . S
H1685 C1695 0.930 . S
C1686 H1680 0.930 . S
C1686 C1687 1.355 . S
C1686 C1688 1.415 . S
C1687 C1686 1.355 . S
C1687 C1689 1.419 . S
C1688 C1686 1.415 . S
C1688 C1693 1.425 . S
C1688 C1695 1.409 . S
C1689 H1681 0.930 . S
C1689 C1687 1.419 . S
C1689 C1690 1.362 . S
C1690 H1682 0.930 . S
C1690 C1689 1.362 . S
C1690 C1693 1.409 . S
C1691 H1683 0.930 . S
C1691 C1692 1.355 . S
C1691 C1693 1.415 . S
C1692 C1691 1.355 . S
C1692 C1694 1.419 . S
C1693 C1688 1.425 . S
C1693 C1690 1.409 . S
C1693 C1691 1.415 . S
C1694 H1684 0.930 . S
C1694 C1692 1.419 . S
C1694 C1695 1.362 . S
C1695 H1685 0.930 . S
C1695 C1688 1.409 . S
C1695 C1694 1.362 . S
H1696 C1702 0.930 . S
H1697 C1705 0.930 . S
H1698 C1706 0.930 . S
H1699 C1707 0.930 . S
H1700 C1710 0.930 . S
H1701 C1711 0.930 . S
C1702 H1696 0.930 . S
C1702 C1703 1.355 . S
C1702 C1704 1.415 . S
C1703 C1702 1.355 . S
C1703 C1705 1.419 . S
C1704 C1702 1.415 . S
C1704 C1709 1.425 . S
C1704 C1711 1.409 . S
C1705 H1697 0.930 . S
C1705 C1703 1.419 . S
C1705 C1706 1.362 . S
C1706 H1698 0.930 . S
C1706 C1705 1.362 . S
C1706 C1709 1.409 . S
C1707 H1699 0.930 . S
C1707 C1708 1.355 . S
C1707 C1709 1.415 . S
C1708 C1707 1.355 . S
C1708 C1710 1.419 . S
C1709 C1704 1.425 . S
C1709 C1706 1.409 . S
C1709 C1707 1.415 . S
C1710 H1700 0.930 . S
C1710 C1708 1.419 . S
C1710 C1711 1.362 . S
C1711 H1701 0.930 . S
C1711 C1704 1.409 . S
C1711 C1710 1.362 . S
H1712 C1718 0.930 . S
H1713 C1721 0.930 . S
H1714 C1722 0.930 . S
H1715 C1723 0.930 . S
H1716 C1726 0.930 . S
H1717 C1727 0.930 . S
C1718 H1712 0.930 . S
C1718 C1719 1.355 . S
C1718 C1720 1.415 . S
C1719 C1718 1.355 . S
C1719 C1721 1.419 . S
C1720 C1718 1.415 . S
C1720 C1725 1.425 . S
C1720 C1727 1.409 . S
C1721 H1713 0.930 . S
C1721 C1719 1.419 . S
C1721 C1722 1.362 . S
C1722 H1714 0.930 . S
C1722 C1721 1.362 . S
C1722 C1725 1.409 . S
C1723 H1715 0.930 . S
C1723 C1724 1.355 . S
C1723 C1725 1.415 . S
C1724 C1723 1.355 . S
C1724 C1726 1.419 . S
C1725 C1720 1.425 . S
C1725 C1722 1.409 . S
C1725 C1723 1.415 . S
C1726 H1716 0.930 . S
C1726 C1724 1.419 . S
C1726 C1727 1.362 . S
C1727 H1717 0.930 . S
C1727 C1720 1.409 . S
C1727 C1726 1.362 . S
H1728 C1734 0.930 . S
H1729 C1737 0.930 . S
H1730 C1738 0.930 . S
H1731 C1739 0.930 . S
H1732 C1742 0.930 . S
H1733 C1743 0.930 . S
C1734 H1728 0.930 . S
C1734 C1735 1.355 . S
C1734 C1736 1.415 . S
C1735 C1734 1.355 . S
C1735 C1737 1.419 . S
C1736 C1734 1.415 . S
C1736 C1741 1.425 . S
C1736 C1743 1.409 1_565 S
C1737 H1729 0.930 . S
C1737 C1735 1.419 . S
C1737 C1738 1.362 . S
C1738 H1730 0.930 . S
C1738 C1737 1.362 . S
C1738 C1741 1.409 . S
C1739 H1731 0.930 . S
C1739 C1740 1.355 1_565 S
C1739 C1741 1.415 . S
C1740 C1739 1.355 1_545 S
C1740 C1742 1.419 . S
C1741 C1736 1.425 . S
C1741 C1738 1.409 . S
C1741 C1739 1.415 . S
C1742 H1732 0.930 . S
C1742 C1740 1.419 . S
C1742 C1743 1.362 . S
C1743 H1733 0.930 . S
C1743 C1736 1.409 1_545 S
C1743 C1742 1.362 . S
H1744 C1750 0.930 . S
H1745 C1753 0.930 . S
H1746 C1754 0.930 . S
H1747 C1755 0.930 . S
H1748 C1758 0.930 . S
H1749 C1759 0.930 . S
C1750 H1744 0.930 . S
C1750 C1751 1.355 . S
C1750 C1752 1.415 . S
C1751 C1750 1.355 . S
C1751 C1753 1.419 . S
C1752 C1750 1.415 . S
C1752 C1757 1.425 . S
C1752 C1759 1.409 . S
C1753 H1745 0.930 . S
C1753 C1751 1.419 . S
C1753 C1754 1.362 . S
C1754 H1746 0.930 . S
C1754 C1753 1.362 . S
C1754 C1757 1.409 . S
C1755 H1747 0.930 . S
C1755 C1756 1.355 . S
C1755 C1757 1.415 . S
C1756 C1755 1.355 . S
C1756 C1758 1.419 . S
C1757 C1752 1.425 . S
C1757 C1754 1.409 . S
C1757 C1755 1.415 . S
C1758 H1748 0.930 . S
C1758 C1756 1.419 . S
C1758 C1759 1.362 . S
C1759 H1749 0.930 . S
C1759 C1752 1.409 . S
C1759 C1758 1.362 . S
H1760 C1766 0.930 . S
H1761 C1769 0.929 1_556 S
H1762 C1770 0.930 . S
H1763 C1771 0.930 . S
H1764 C1774 0.930 . S
H1765 C1775 0.930 . S
C1766 H1760 0.930 . S
C1766 C1767 1.355 . S
C1766 C1768 1.415 . S
C1767 C1766 1.355 . S
C1767 C1769 1.419 . S
C1768 C1766 1.415 . S
C1768 C1773 1.425 . S
C1768 C1775 1.409 . S
C1769 H1761 0.929 1_554 S
C1769 C1767 1.419 . S
C1769 C1770 1.363 . S
C1770 H1762 0.930 . S
C1770 C1769 1.363 . S
C1770 C1773 1.409 . S
C1771 H1763 0.930 . S
C1771 C1772 1.355 . S
C1771 C1773 1.415 . S
C1772 C1771 1.355 . S
C1772 C1774 1.419 . S
C1773 C1768 1.425 . S
C1773 C1770 1.409 . S
C1773 C1771 1.415 . S
C1774 H1764 0.930 . S
C1774 C1772 1.419 . S
C1774 C1775 1.362 . S
C1775 H1765 0.930 . S
C1775 C1768 1.409 . S
C1775 C1774 1.362 . S
H1776 C1782 0.930 . S
H1777 C1785 0.930 . S
H1778 C1786 0.930 . S
H1779 C1787 0.930 . S
H1780 C1790 0.930 . S
H1781 C1791 0.930 . S
C1782 H1776 0.930 . S
C1782 C1783 1.355 . S
C1782 C1784 1.415 . S
C1783 C1782 1.355 . S
C1783 C1785 1.419 . S
C1784 C1782 1.415 . S
C1784 C1789 1.425 . S
C1784 C1791 1.409 . S
C1785 H1777 0.930 . S
C1785 C1783 1.419 . S
C1785 C1786 1.362 . S
C1786 H1778 0.930 . S
C1786 C1785 1.362 . S
C1786 C1789 1.409 . S
C1787 H1779 0.930 . S
C1787 C1788 1.355 . S
C1787 C1789 1.415 . S
C1788 C1787 1.355 . S
C1788 C1790 1.419 . S
C1789 C1784 1.425 . S
C1789 C1786 1.409 . S
C1789 C1787 1.415 . S
C1790 H1780 0.930 . S
C1790 C1788 1.419 . S
C1790 C1791 1.362 . S
C1791 H1781 0.930 . S
C1791 C1784 1.409 . S
C1791 C1790 1.362 . S
H1792 C1798 0.930 . S
H1793 C1801 0.930 . S
H1794 C1802 0.930 . S
H1795 C1803 0.930 . S
H1796 C1806 0.930 . S
H1797 C1807 0.930 . S
C1798 H1792 0.930 . S
C1798 C1799 1.355 . S
C1798 C1800 1.415 . S
C1799 C1798 1.355 . S
C1799 C1801 1.419 . S
C1800 C1798 1.415 . S
C1800 C1805 1.425 . S
C1800 C1807 1.409 . S
C1801 H1793 0.930 . S
C1801 C1799 1.419 . S
C1801 C1802 1.362 . S
C1802 H1794 0.930 . S
C1802 C1801 1.362 . S
C1802 C1805 1.409 . S
C1803 H1795 0.930 . S
C1803 C1804 1.355 . S
C1803 C1805 1.415 . S
C1804 C1803 1.355 . S
C1804 C1806 1.419 . S
C1805 C1800 1.425 . S
C1805 C1802 1.409 . S
C1805 C1803 1.415 . S
C1806 H1796 0.930 . S
C1806 C1804 1.419 . S
C1806 C1807 1.362 . S
C1807 H1797 0.930 . S
C1807 C1800 1.409 . S
C1807 C1806 1.362 . S
H1808 C1814 0.930 . S
H1809 C1817 0.930 . S
H1810 C1818 0.930 . S
H1811 C1819 0.930 . S
H1812 C1822 0.930 . S
H1813 C1823 0.930 . S
C1814 H1808 0.930 . S
C1814 C1815 1.355 . S
C1814 C1816 1.415 . S
C1815 C1814 1.355 . S
C1815 C1817 1.419 . S
C1816 C1814 1.415 . S
C1816 C1821 1.425 . S
C1816 C1823 1.409 . S
C1817 H1809 0.930 . S
C1817 C1815 1.419 . S
C1817 C1818 1.362 . S
C1818 H1810 0.930 . S
C1818 C1817 1.362 . S
C1818 C1821 1.409 . S
C1819 H1811 0.930 . S
C1819 C1820 1.355 . S
C1819 C1821 1.415 . S
C1820 C1819 1.355 . S
C1820 C1822 1.419 . S
C1821 C1816 1.425 . S
C1821 C1818 1.409 . S
C1821 C1819 1.415 . S
C1822 H1812 0.930 . S
C1822 C1820 1.419 . S
C1822 C1823 1.362 . S
C1823 H1813 0.930 . S
C1823 C1816 1.409 . S
C1823 C1822 1.362 . S
H1824 C1830 0.930 . S
H1825 C1833 0.930 . S
H1826 C1834 0.930 . S
H1827 C1835 0.930 . S
H1828 C1838 0.930 . S
H1829 C1839 0.930 . S
C1830 H1824 0.930 . S
C1830 C1831 1.355 . S
C1830 C1832 1.415 . S
C1831 C1830 1.355 . S
C1831 C1833 1.419 . S
C1832 C1830 1.415 . S
C1832 C1837 1.425 . S
C1832 C1839 1.409 . S
C1833 H1825 0.930 . S
C1833 C1831 1.419 . S
C1833 C1834 1.362 . S
C1834 H1826 0.930 . S
C1834 C1833 1.362 . S
C1834 C1837 1.409 . S
C1835 H1827 0.930 . S
C1835 C1836 1.355 . S
C1835 C1837 1.415 . S
C1836 C1835 1.355 . S
C1836 C1838 1.419 . S
C1837 C1832 1.425 . S
C1837 C1834 1.409 . S
C1837 C1835 1.415 . S
C1838 H1828 0.930 . S
C1838 C1836 1.419 . S
C1838 C1839 1.362 . S
C1839 H1829 0.930 . S
C1839 C1832 1.409 . S
C1839 C1838 1.362 . S
H1840 C1846 0.930 . S
H1841 C1849 0.930 . S
H1842 C1850 0.930 . S
H1843 C1851 0.930 . S
H1844 C1854 0.930 . S
H1845 C1855 0.930 . S
C1846 H1840 0.930 . S
C1846 C1847 1.355 1_655 S
C1846 C1848 1.415 . S
C1847 C1846 1.355 1_455 S
C1847 C1849 1.419 . S
C1848 C1846 1.415 . S
C1848 C1853 1.425 1_655 S
C1848 C1855 1.409 . S
C1849 H1841 0.930 . S
C1849 C1847 1.419 . S
C1849 C1850 1.362 . S
C1850 H1842 0.930 . S
C1850 C1849 1.362 . S
C1850 C1853 1.409 . S
C1851 H1843 0.930 . S
C1851 C1852 1.355 . S
C1851 C1853 1.415 . S
C1852 C1851 1.355 . S
C1852 C1854 1.419 1_455 S
C1853 C1848 1.425 1_455 S
C1853 C1850 1.409 . S
C1853 C1851 1.415 . S
C1854 H1844 0.930 . S
C1854 C1852 1.419 1_655 S
C1854 C1855 1.362 . S
C1855 H1845 0.930 . S
C1855 C1848 1.409 . S
C1855 C1854 1.362 . S
H1856 C1862 0.930 . S
H1857 C1865 0.930 . S
H1858 C1866 0.930 . S
H1859 C1867 0.930 . S
H1860 C1870 0.930 . S
H1861 C1871 0.930 . S
C1862 H1856 0.930 . S
C1862 C1863 1.355 . S
C1862 C1864 1.415 . S
C1863 C1862 1.355 . S
C1863 C1865 1.419 . S
C1864 C1862 1.415 . S
C1864 C1869 1.425 . S
C1864 C1871 1.409 . S
C1865 H1857 0.930 . S
C1865 C1863 1.419 . S
C1865 C1866 1.362 . S
C1866 H1858 0.930 . S
C1866 C1865 1.362 . S
C1866 C1869 1.409 . S
C1867 H1859 0.930 . S
C1867 C1868 1.355 . S
C1867 C1869 1.415 . S
C1868 C1867 1.355 . S
C1868 C1870 1.419 . S
C1869 C1864 1.425 . S
C1869 C1866 1.409 . S
C1869 C1867 1.415 . S
C1870 H1860 0.930 . S
C1870 C1868 1.419 . S
C1870 C1871 1.362 . S
C1871 H1861 0.930 . S
C1871 C1864 1.409 . S
C1871 C1870 1.362 . S
H1872 C1878 0.930 . S
H1873 C1881 0.930 . S
H1874 C1882 0.930 1_554 S
H1875 C1883 0.930 1_554 S
H1876 C1886 0.930 . S
H1877 C1887 0.930 . S
C1878 H1872 0.930 . S
C1878 C1879 1.355 . S
C1878 C1880 1.415 . S
C1879 C1878 1.355 . S
C1879 C1881 1.419 . S
C1880 C1878 1.415 . S
C1880 C1885 1.425 . S
C1880 C1887 1.409 . S
C1881 H1873 0.930 . S
C1881 C1879 1.419 . S
C1881 C1882 1.362 . S
C1882 H1874 0.930 1_556 S
C1882 C1881 1.362 . S
C1882 C1885 1.409 . S
C1883 H1875 0.930 1_556 S
C1883 C1884 1.355 . S
C1883 C1885 1.415 . S
C1884 C1883 1.355 . S
C1884 C1886 1.419 . S
C1885 C1880 1.425 . S
C1885 C1882 1.409 . S
C1885 C1883 1.415 . S
C1886 H1876 0.930 . S
C1886 C1884 1.419 . S
C1886 C1887 1.362 . S
C1887 H1877 0.930 . S
C1887 C1880 1.409 . S
C1887 C1886 1.362 . S
H1888 C1894 0.930 . S
H1889 C1897 0.930 . S
H1890 C1898 0.930 . S
H1891 C1899 0.930 . S
H1892 C1902 0.930 . S
H1893 C1903 0.930 . S
C1894 H1888 0.930 . S
C1894 C1895 1.355 . S
C1894 C1896 1.415 . S
C1895 C1894 1.355 . S
C1895 C1897 1.419 . S
C1896 C1894 1.415 . S
C1896 C1901 1.425 . S
C1896 C1903 1.409 . S
C1897 H1889 0.930 . S
C1897 C1895 1.419 . S
C1897 C1898 1.362 . S
C1898 H1890 0.930 . S
C1898 C1897 1.362 . S
C1898 C1901 1.409 . S
C1899 H1891 0.930 . S
C1899 C1900 1.355 . S
C1899 C1901 1.415 . S
C1900 C1899 1.355 . S
C1900 C1902 1.419 . S
C1901 C1896 1.425 . S
C1901 C1898 1.409 . S
C1901 C1899 1.415 . S
C1902 H1892 0.930 . S
C1902 C1900 1.419 . S
C1902 C1903 1.362 . S
C1903 H1893 0.930 . S
C1903 C1896 1.409 . S
C1903 C1902 1.362 . S
H1904 C1910 0.930 1_655 S
H1905 C1913 0.930 . S
H1906 C1914 0.930 . S
H1907 C1915 0.930 . S
H1908 C1918 0.930 . S
H1909 C1919 0.930 . S
C1910 H1904 0.930 1_455 S
C1910 C1911 1.355 . S
C1910 C1912 1.415 . S
C1911 C1910 1.355 . S
C1911 C1913 1.419 . S
C1912 C1910 1.415 . S
C1912 C1917 1.425 . S
C1912 C1919 1.409 1_455 S
C1913 H1905 0.930 . S
C1913 C1911 1.419 . S
C1913 C1914 1.362 . S
C1914 H1906 0.930 . S
C1914 C1913 1.362 . S
C1914 C1917 1.409 . S
C1915 H1907 0.930 . S
C1915 C1916 1.355 . S
C1915 C1917 1.415 . S
C1916 C1915 1.355 . S
C1916 C1918 1.419 1_455 S
C1917 C1912 1.425 . S
C1917 C1914 1.409 . S
C1917 C1915 1.415 . S
C1918 H1908 0.930 . S
C1918 C1916 1.419 1_655 S
C1918 C1919 1.362 . S
C1919 H1909 0.930 . S
C1919 C1912 1.409 1_655 S
C1919 C1918 1.362 . S
H1920 C1926 0.930 . S
H1921 C1929 0.930 . S
H1922 C1930 0.930 . S
H1923 C1931 0.930 . S
H1924 C1934 0.930 . S
H1925 C1935 0.930 . S
C1926 H1920 0.930 . S
C1926 C1927 1.355 . S
C1926 C1928 1.415 . S
C1927 C1926 1.355 . S
C1927 C1929 1.419 . S
C1928 C1926 1.415 . S
C1928 C1933 1.425 . S
C1928 C1935 1.409 . S
C1929 H1921 0.930 . S
C1929 C1927 1.419 . S
C1929 C1930 1.362 . S
C1930 H1922 0.930 . S
C1930 C1929 1.362 . S
C1930 C1933 1.409 . S
C1931 H1923 0.930 . S
C1931 C1932 1.355 . S
C1931 C1933 1.415 . S
C1932 C1931 1.355 . S
C1932 C1934 1.419 . S
C1933 C1928 1.425 . S
C1933 C1930 1.409 . S
C1933 C1931 1.415 . S
C1934 H1924 0.930 . S
C1934 C1932 1.419 . S
C1934 C1935 1.362 . S
C1935 H1925 0.930 . S
C1935 C1928 1.409 . S
C1935 C1934 1.362 . S
H1936 C1942 0.930 . S
H1937 C1945 0.930 . S
H1938 C1946 0.930 . S
H1939 C1947 0.930 . S
H1940 C1950 0.930 . S
H1941 C1951 0.930 . S
C1942 H1936 0.930 . S
C1942 C1943 1.355 . S
C1942 C1944 1.415 . S
C1943 C1942 1.355 . S
C1943 C1945 1.419 . S
C1944 C1942 1.415 . S
C1944 C1949 1.425 . S
C1944 C1951 1.409 . S
C1945 H1937 0.930 . S
C1945 C1943 1.419 . S
C1945 C1946 1.362 . S
C1946 H1938 0.930 . S
C1946 C1945 1.362 . S
C1946 C1949 1.409 . S
C1947 H1939 0.930 . S
C1947 C1948 1.355 . S
C1947 C1949 1.415 . S
C1948 C1947 1.355 . S
C1948 C1950 1.419 . S
C1949 C1944 1.425 . S
C1949 C1946 1.409 . S
C1949 C1947 1.415 . S
C1950 H1940 0.930 . S
C1950 C1948 1.419 . S
C1950 C1951 1.362 . S
C1951 H1941 0.930 . S
C1951 C1944 1.409 . S
C1951 C1950 1.362 . S
H1952 C1958 0.930 . S
H1953 C1961 0.930 . S
H1954 C1962 0.930 . S
H1955 C1963 0.930 . S
H1956 C1966 0.930 . S
H1957 C1967 0.930 . S
C1958 H1952 0.930 . S
C1958 C1959 1.355 . S
C1958 C1960 1.415 . S
C1959 C1958 1.355 . S
C1959 C1961 1.419 . S
C1960 C1958 1.415 . S
C1960 C1965 1.425 . S
C1960 C1967 1.409 . S
C1961 H1953 0.930 . S
C1961 C1959 1.419 . S
C1961 C1962 1.362 . S
C1962 H1954 0.930 . S
C1962 C1961 1.362 . S
C1962 C1965 1.409 . S
C1963 H1955 0.930 . S
C1963 C1964 1.355 . S
C1963 C1965 1.415 . S
C1964 C1963 1.355 . S
C1964 C1966 1.419 . S
C1965 C1960 1.425 . S
C1965 C1962 1.409 . S
C1965 C1963 1.415 . S
C1966 H1956 0.930 . S
C1966 C1964 1.419 . S
C1966 C1967 1.362 . S
C1967 H1957 0.930 . S
C1967 C1960 1.409 . S
C1967 C1966 1.362 . S
H1968 C1974 0.930 . S
H1969 C1977 0.930 . S
H1970 C1978 0.930 1_455 S
H1971 C1979 0.930 1_455 S
H1972 C1982 0.930 . S
H1973 C1983 0.930 . S
C1974 H1968 0.930 . S
C1974 C1975 1.355 . S
C1974 C1976 1.415 . S
C1975 C1974 1.355 . S
C1975 C1977 1.419 . S
C1976 C1974 1.415 . S
C1976 C1981 1.425 . S
C1976 C1983 1.409 . S
C1977 H1969 0.930 . S
C1977 C1975 1.419 . S
C1977 C1978 1.362 . S
C1978 H1970 0.930 1_655 S
C1978 C1977 1.362 . S
C1978 C1981 1.409 . S
C1979 H1971 0.930 1_655 S
C1979 C1980 1.355 . S
C1979 C1981 1.415 . S
C1980 C1979 1.355 . S
C1980 C1982 1.419 . S
C1981 C1976 1.425 . S
C1981 C1978 1.409 . S
C1981 C1979 1.415 . S
C1982 H1972 0.930 . S
C1982 C1980 1.419 . S
C1982 C1983 1.362 . S
C1983 H1973 0.930 . S
C1983 C1976 1.409 . S
C1983 C1982 1.362 . S
H1984 C1990 0.930 . S
H1985 C1993 0.930 . S
H1986 C1994 0.930 . S
H1987 C1995 0.930 . S
H1988 C1998 0.930 . S
H1989 C1999 0.930 . S
C1990 H1984 0.930 . S
C1990 C1991 1.355 . S
C1990 C1992 1.415 . S
C1991 C1990 1.355 . S
C1991 C1993 1.419 . S
C1992 C1990 1.415 . S
C1992 C1997 1.425 . S
C1992 C1999 1.409 . S
C1993 H1985 0.930 . S
C1993 C1991 1.419 . S
C1993 C1994 1.362 . S
C1994 H1986 0.930 . S
C1994 C1993 1.362 . S
C1994 C1997 1.409 . S
C1995 H1987 0.930 . S
C1995 C1996 1.355 . S
C1995 C1997 1.415 . S
C1996 C1995 1.355 . S
C1996 C1998 1.419 . S
C1997 C1992 1.425 . S
C1997 C1994 1.409 . S
C1997 C1995 1.415 . S
C1998 H1988 0.930 . S
C1998 C1996 1.419 . S
C1998 C1999 1.362 . S
C1999 H1989 0.930 . S
C1999 C1992 1.409 . S
C1999 C1998 1.362 . S
H2000 C2006 0.930 . S
H2001 C2009 0.930 . S
H2002 C2010 0.930 . S
H2003 C2011 0.930 . S
H2004 C2014 0.930 . S
H2005 C2015 0.930 . S
C2006 H2000 0.930 . S
C2006 C2007 1.355 . S
C2006 C2008 1.415 . S
C2007 C2006 1.355 . S
C2007 C2009 1.419 . S
C2008 C2006 1.415 . S
C2008 C2013 1.425 . S
C2008 C2015 1.409 . S
C2009 H2001 0.930 . S
C2009 C2007 1.419 . S
C2009 C2010 1.362 . S
C2010 H2002 0.930 . S
C2010 C2009 1.362 . S
C2010 C2013 1.409 . S
C2011 H2003 0.930 . S
C2011 C2012 1.355 . S
C2011 C2013 1.415 . S
C2012 C2011 1.355 . S
C2012 C2014 1.419 . S
C2013 C2008 1.425 . S
C2013 C2010 1.409 . S
C2013 C2011 1.415 . S
C2014 H2004 0.930 . S
C2014 C2012 1.419 . S
C2014 C2015 1.362 . S
C2015 H2005 0.930 . S
C2015 C2008 1.409 . S
C2015 C2014 1.362 . S
H2016 C2022 0.930 . S
H2017 C2025 0.930 . S
H2018 C2026 0.930 . S
H2019 C2027 0.930 . S
H2020 C2030 0.930 . S
H2021 C2031 0.930 . S
C2022 H2016 0.930 . S
C2022 C2023 1.355 . S
C2022 C2024 1.415 . S
C2023 C2022 1.355 . S
C2023 C2025 1.419 . S
C2024 C2022 1.415 . S
C2024 C2029 1.425 . S
C2024 C2031 1.409 . S
C2025 H2017 0.930 . S
C2025 C2023 1.419 . S
C2025 C2026 1.362 . S
C2026 H2018 0.930 . S
C2026 C2025 1.362 . S
C2026 C2029 1.409 . S
C2027 H2019 0.930 . S
C2027 C2028 1.355 . S
C2027 C2029 1.415 . S
C2028 C2027 1.355 . S
C2028 C2030 1.419 . S
C2029 C2024 1.425 . S
C2029 C2026 1.409 . S
C2029 C2027 1.415 . S
C2030 H2020 0.930 . S
C2030 C2028 1.419 . S
C2030 C2031 1.362 . S
C2031 H2021 0.930 . S
C2031 C2024 1.409 . S
C2031 C2030 1.362 . S
H2032 C2038 0.930 . S
H2033 C2041 0.930 . S
H2034 C2042 0.930 . S
H2035 C2043 0.930 . S
H2036 C2046 0.930 . S
H2037 C2047 0.930 . S
C2038 H2032 0.930 . S
C2038 C2039 1.355 . S
C2038 C2040 1.415 . S
C2039 C2038 1.355 . S
C2039 C2041 1.419 . S
C2040 C2038 1.415 . S
C2040 C2045 1.425 . S
C2040 C2047 1.409 . S
C2041 H2033 0.930 . S
C2041 C2039 1.419 . S
C2041 C2042 1.362 . S
C2042 H2034 0.930 . S
C2042 C2041 1.362 . S
C2042 C2045 1.409 . S
C2043 H2035 0.930 . S
C2043 C2044 1.355 . S
C2043 C2045 1.415 . S
C2044 C2043 1.355 . S
C2044 C2046 1.419 . S
C2045 C2040 1.425 . S
C2045 C2042 1.409 . S
C2045 C2043 1.415 . S
C2046 H2036 0.930 . S
C2046 C2044 1.419 . S
C2046 C2047 1.362 . S
C2047 H2037 0.930 . S
C2047 C2040 1.409 . S
C2047 C2046 1.362 . S
H2048 C2054 0.930 . S
H2049 C2057 0.930 . S
H2050 C2058 0.930 . S
H2051 C2059 0.930 . S
H2052 C2062 0.930 . S
H2053 C2063 0.930 . S
C2054 H2048 0.930 . S
C2054 C2055 1.355 . S
C2054 C2056 1.415 . S
C2055 C2054 1.355 . S
C2055 C2057 1.419 . S
C2056 C2054 1.415 . S
C2056 C2061 1.425 . S
C2056 C2063 1.409 . S
C2057 H2049 0.930 . S
C2057 C2055 1.419 . S
C2057 C2058 1.362 . S
C2058 H2050 0.930 . S
C2058 C2057 1.362 . S
C2058 C2061 1.409 . S
C2059 H2051 0.930 . S
C2059 C2060 1.355 . S
C2059 C2061 1.415 . S
C2060 C2059 1.355 . S
C2060 C2062 1.419 . S
C2061 C2056 1.425 . S
C2061 C2058 1.409 . S
C2061 C2059 1.415 . S
C2062 H2052 0.930 . S
C2062 C2060 1.419 . S
C2062 C2063 1.362 . S
C2063 H2053 0.930 . S
C2063 C2056 1.409 . S
C2063 C2062 1.362 . S
H2064 C2070 0.930 . S
H2065 C2073 0.930 . S
H2066 C2074 0.930 . S
H2067 C2075 0.930 . S
H2068 C2078 0.930 . S
H2069 C2079 0.930 . S
C2070 H2064 0.930 . S
C2070 C2071 1.355 . S
C2070 C2072 1.415 . S
C2071 C2070 1.355 . S
C2071 C2073 1.419 . S
C2072 C2070 1.415 . S
C2072 C2077 1.425 . S
C2072 C2079 1.409 . S
C2073 H2065 0.930 . S
C2073 C2071 1.419 . S
C2073 C2074 1.362 . S
C2074 H2066 0.930 . S
C2074 C2073 1.362 . S
C2074 C2077 1.409 . S
C2075 H2067 0.930 . S
C2075 C2076 1.355 . S
C2075 C2077 1.415 . S
C2076 C2075 1.355 . S
C2076 C2078 1.419 . S
C2077 C2072 1.425 . S
C2077 C2074 1.409 . S
C2077 C2075 1.415 . S
C2078 H2068 0.930 . S
C2078 C2076 1.419 . S
C2078 C2079 1.362 . S
C2079 H2069 0.930 . S
C2079 C2072 1.409 . S
C2079 C2078 1.362 . S
H2080 C2086 0.930 . S
H2081 C2089 0.930 . S
H2082 C2090 0.930 1_545 S
H2083 C2091 0.930 1_545 S
H2084 C2094 0.930 . S
H2085 C2095 0.930 . S
C2086 H2080 0.930 . S
C2086 C2087 1.355 . S
C2086 C2088 1.415 . S
C2087 C2086 1.355 . S
C2087 C2089 1.419 . S
C2088 C2086 1.415 . S
C2088 C2093 1.425 . S
C2088 C2095 1.409 . S
C2089 H2081 0.930 . S
C2089 C2087 1.419 . S
C2089 C2090 1.362 . S
C2090 H2082 0.930 1_565 S
C2090 C2089 1.362 . S
C2090 C2093 1.409 . S
C2091 H2083 0.930 1_565 S
C2091 C2092 1.355 . S
C2091 C2093 1.415 . S
C2092 C2091 1.355 . S
C2092 C2094 1.419 . S
C2093 C2088 1.425 . S
C2093 C2090 1.409 . S
C2093 C2091 1.415 . S
C2094 H2084 0.930 . S
C2094 C2092 1.419 . S
C2094 C2095 1.362 . S
C2095 H2085 0.930 . S
C2095 C2088 1.409 . S
C2095 C2094 1.362 . S
H2096 C2102 0.930 . S
H2097 C2105 0.930 . S
H2098 C2106 0.930 . S
H2099 C2107 0.930 . S
H2100 C2110 0.930 . S
H2101 C2111 0.930 . S
C2102 H2096 0.930 . S
C2102 C2103 1.355 . S
C2102 C2104 1.415 . S
C2103 C2102 1.355 . S
C2103 C2105 1.419 . S
C2104 C2102 1.415 . S
C2104 C2109 1.425 . S
C2104 C2111 1.409 . S
C2105 H2097 0.930 . S
C2105 C2103 1.419 . S
C2105 C2106 1.362 . S
C2106 H2098 0.930 . S
C2106 C2105 1.362 . S
C2106 C2109 1.409 . S
C2107 H2099 0.930 . S
C2107 C2108 1.355 . S
C2107 C2109 1.415 . S
C2108 C2107 1.355 . S
C2108 C2110 1.419 . S
C2109 C2104 1.425 . S
C2109 C2106 1.409 . S
C2109 C2107 1.415 . S
C2110 H2100 0.930 . S
C2110 C2108 1.419 . S
C2110 C2111 1.362 . S
C2111 H2101 0.930 . S
C2111 C2104 1.409 . S
C2111 C2110 1.362 . S
H2112 C2118 0.930 . S
H2113 C2121 0.930 . S
H2114 C2122 0.930 . S
H2115 C2123 0.930 . S
H2116 C2126 0.930 . S
H2117 C2127 0.930 . S
C2118 H2112 0.930 . S
C2118 C2119 1.355 1_554 S
C2118 C2120 1.415 . S
C2119 C2118 1.355 1_556 S
C2119 C2121 1.419 . S
C2120 C2118 1.415 . S
C2120 C2125 1.425 1_554 S
C2120 C2127 1.409 . S
C2121 H2113 0.930 . S
C2121 C2119 1.419 . S
C2121 C2122 1.362 . S
C2122 H2114 0.930 . S
C2122 C2121 1.362 . S
C2122 C2125 1.409 . S
C2123 H2115 0.930 . S
C2123 C2124 1.355 1_556 S
C2123 C2125 1.415 . S
C2124 C2123 1.355 1_554 S
C2124 C2126 1.419 . S
C2125 C2120 1.425 1_556 S
C2125 C2122 1.409 . S
C2125 C2123 1.415 . S
C2126 H2116 0.930 . S
C2126 C2124 1.419 . S
C2126 C2127 1.362 . S
C2127 H2117 0.930 . S
C2127 C2120 1.409 . S
C2127 C2126 1.362 . S
H2128 C2134 0.930 . S
H2129 C2137 0.930 . S
H2130 C2138 0.930 . S
H2131 C2139 0.930 . S
H2132 C2142 0.930 . S
H2133 C2143 0.930 . S
C2134 H2128 0.930 . S
C2134 C2135 1.355 . S
C2134 C2136 1.415 . S
C2135 C2134 1.355 . S
C2135 C2137 1.419 . S
C2136 C2134 1.415 . S
C2136 C2141 1.425 . S
C2136 C2143 1.409 . S
C2137 H2129 0.930 . S
C2137 C2135 1.419 . S
C2137 C2138 1.362 . S
C2138 H2130 0.930 . S
C2138 C2137 1.362 . S
C2138 C2141 1.409 . S
C2139 H2131 0.930 . S
C2139 C2140 1.355 . S
C2139 C2141 1.415 . S
C2140 C2139 1.355 . S
C2140 C2142 1.419 . S
C2141 C2136 1.425 . S
C2141 C2138 1.409 . S
C2141 C2139 1.415 . S
C2142 H2132 0.930 . S
C2142 C2140 1.419 . S
C2142 C2143 1.362 . S
C2143 H2133 0.930 . S
C2143 C2136 1.409 . S
C2143 C2142 1.362 . S
H2144 C2150 0.930 . S
H2145 C2153 0.930 . S
H2146 C2154 0.930 . S
H2147 C2155 0.930 . S
H2148 C2158 0.930 . S
H2149 C2159 0.930 . S
C2150 H2144 0.930 . S
C2150 C2151 1.355 . S
C2150 C2152 1.415 . S
C2151 C2150 1.355 . S
C2151 C2153 1.419 1_554 S
C2152 C2150 1.415 . S
C2152 C2157 1.425 1_554 S
C2152 C2159 1.409 . S
C2153 H2145 0.930 . S
C2153 C2151 1.419 1_556 S
C2153 C2154 1.362 . S
C2154 H2146 0.930 . S
C2154 C2153 1.362 . S
C2154 C2157 1.409 . S
C2155 H2147 0.930 . S
C2155 C2156 1.355 . S
C2155 C2157 1.415 . S
C2156 C2155 1.355 . S
C2156 C2158 1.419 1_556 S
C2157 C2152 1.425 1_556 S
C2157 C2154 1.409 . S
C2157 C2155 1.415 . S
C2158 H2148 0.930 . S
C2158 C2156 1.419 1_554 S
C2158 C2159 1.362 . S
C2159 H2149 0.930 . S
C2159 C2152 1.409 . S
C2159 C2158 1.362 . S
H2160 C2166 0.930 . S
H2161 C2169 0.930 . S
H2162 C2170 0.930 . S
H2163 C2171 0.930 . S
H2164 C2174 0.930 . S
H2165 C2175 0.930 . S
C2166 H2160 0.930 . S
C2166 C2167 1.355 . S
C2166 C2168 1.415 . S
C2167 C2166 1.355 . S
C2167 C2169 1.419 . S
C2168 C2166 1.415 . S
C2168 C2173 1.425 . S
C2168 C2175 1.409 . S
C2169 H2161 0.930 . S
C2169 C2167 1.419 . S
C2169 C2170 1.362 . S
C2170 H2162 0.930 . S
C2170 C2169 1.362 . S
C2170 C2173 1.409 . S
C2171 H2163 0.930 . S
C2171 C2172 1.355 . S
C2171 C2173 1.415 . S
C2172 C2171 1.355 . S
C2172 C2174 1.419 . S
C2173 C2168 1.425 . S
C2173 C2170 1.409 . S
C2173 C2171 1.415 . S
C2174 H2164 0.930 . S
C2174 C2172 1.419 . S
C2174 C2175 1.362 . S
C2175 H2165 0.930 . S
C2175 C2168 1.409 . S
C2175 C2174 1.362 . S
H2176 C2182 0.930 . S
H2177 C2185 0.930 . S
H2178 C2186 0.930 . S
H2179 C2187 0.930 . S
H2180 C2190 0.930 . S
H2181 C2191 0.930 . S
C2182 H2176 0.930 . S
C2182 C2183 1.355 . S
C2182 C2184 1.415 . S
C2183 C2182 1.355 . S
C2183 C2185 1.419 . S
C2184 C2182 1.415 . S
C2184 C2189 1.425 . S
C2184 C2191 1.409 . S
C2185 H2177 0.930 . S
C2185 C2183 1.419 . S
C2185 C2186 1.362 . S
C2186 H2178 0.930 . S
C2186 C2185 1.362 . S
C2186 C2189 1.409 . S
C2187 H2179 0.930 . S
C2187 C2188 1.355 . S
C2187 C2189 1.415 . S
C2188 C2187 1.355 . S
C2188 C2190 1.419 . S
C2189 C2184 1.425 . S
C2189 C2186 1.409 . S
C2189 C2187 1.415 . S
C2190 H2180 0.930 . S
C2190 C2188 1.419 . S
C2190 C2191 1.362 . S
C2191 H2181 0.930 . S
C2191 C2184 1.409 . S
C2191 C2190 1.362 . S
C663 C111 1.155 1_455 S
C668 C352 1.173 1_556 S
C679 C64 1.321 . S
C684 C365 1.378 . S
C695 C77 1.296 . S
C700 C384 1.256 . S
C716 C415 1.709 . S
C711 C95 1.721 . S
C727 C25 1.510 . S
C732 C435 1.495 . S
C748 C452 0.885 . S
C743 C36 0.951 . S
C764 C465 1.505 . S
C759 C50 1.413 . S
C775 C11 0.974 . S
C780 C492 0.945 . S
C796 C345 1.212 1_655 S
C791 C237 1.062 . S
C807 C245 1.434 . S
C812 C375 1.450 . S
C828 C377 1.614 . S
C823 C279 1.538 . S
C844 C412 0.811 . S
C839 C175 0.873 . S
C855 C231 1.031 . S
C860 C432 1.086 . S
C876 C445 1.680 . S
C871 C251 1.524 . S
C892 C475 1.347 . S
C887 C273 1.354 . S
C908 C485 1.200 . S
C903 C181 1.093 . S
C924 C355 1.469 . S
C919 C165 1.521 . S
C935 C288 1.713 . S
C940 C505 1.751 . S
C956 C535 1.550 . S
C951 C333 1.554 . S
C972 C552 1.236 . S
C967 C316 1.186 . S
C983 C123 1.769 . S
C988 C495 1.771 . S
C999 C137 1.164 . S
C1004 C382 1.073 . S
C1015 C330 1.736 . S
C1020 C565 1.826 . S
C1036 C592 1.062 . S
C1031 C302 1.036 . S
C1052 C342 1.318 . S
C1047 C63 1.316 . S
C1068 C577 1.376 . S
C1063 C106 1.321 . S
C1079 C97 1.283 . S
C1084 C395 1.331 . S
C1095 C81 1.798 . S
C1100 C564 1.734 . S
C1116 C424 1.582 . S
C1111 C13 1.571 . S
C1127 C55 0.960 . S
C1132 C522 0.931 . S
C1148 C457 1.410 . S
C1143 C35 1.431 . S
C1164 C602 1.058 . S
C1159 C21 1.094 . S
C1180 C337 1.277 . S
C1175 C147 1.294 . S
C1196 C584 1.448 . S
C1191 C321 1.329 . S
C1207 C119 1.663 . S
C1212 C385 1.619 . S
C1223 C293 0.957 . S
C1228 C562 0.919 . S
C1239 C153 1.105 1_565 S
C1244 C422 1.225 . S
C1260 C517 1.718 . S
C1255 C315 1.730 . S
C1271 C125 1.288 . S
C1276 C464 1.254 . S
C1287 C287 1.285 . S
C1292 C597 1.271 . S
C1303 C193 1.590 . S
C1308 C344 1.584 . S
C1319 C176 1.768 . S
C1324 C497 1.787 . S
C1335 C263 1.541 . S
C1340 C444 1.552 . S
C1351 C246 1.258 . S
C1356 C542 1.302 . S
C1372 C604 1.877 . S
C1367 C277 1.897 . S
C1383 C221 1.165 . S
C1388 C392 1.120 . S
C1404 C397 1.880 . S
C1399 C260 1.856 . S
C1420 C362 1.053 . S
C1415 C204 1.125 . S
C1431 C83 1.145 . S
C1436 C632 1.189 . S
C1452 C585 1.407 . S
C1447 C92 1.332 . S
C1463 C105 1.304 . S
C1468 C644 1.249 . S
C1479 C67 1.725 . S
C1484 C575 1.679 . S
C1495 C53 1.528 . S
C1500 C515 1.523 . S
C1516 C532 0.953 . S
C1511 C8 0.902 . S
C1532 C545 1.516 . S
C1527 C22 1.420 . S
C1548 C612 0.900 . S
C1543 C39 0.967 . S
C1564 C625 1.169 . S
C1559 C265 1.189 . S
C1575 C189 1.440 . S
C1580 C595 1.399 . S
C1596 C637 1.562 . S
C1591 C209 1.467 . S
C1612 C572 0.874 . S
C1607 C217 0.810 . S
C1628 C512 1.055 . S
C1623 C259 1.085 . S
C1639 C195 1.510 . S
C1644 C525 1.685 . S
C1660 C555 1.304 . S
C1655 C203 1.322 . S
C1671 C223 1.092 . S
C1676 C605 1.183 . S
C1692 C635 1.475 . S
C1687 C319 1.524 . S
C1703 C134 1.704 . S
C1708 C425 1.784 . S
C1724 C455 1.530 . S
C1719 C151 1.560 . S
C1740 C472 1.230 . S
C1735 C162 1.178 . S
C1756 C615 1.734 . S
C1751 C305 1.772 . S
C1767 C291 1.173 1_554 S
C1772 C642 1.157 . S
C1788 C405 1.845 . S
C1783 C148 1.786 . S
C1804 C372 1.009 . S
C1799 C120 1.020 . S
C1815 C91 1.315 . S
C1820 C622 1.260 . S
C1836 C357 1.395 . S
C1831 C78 1.336 . S
C1847 C69 1.269 . S
C1852 C655 1.346 . S
C1863 C109 1.805 . S
C1868 C404 1.734 . S
C1879 C41 1.540 . S
C1884 C504 1.628 . S
C1900 C442 0.946 . S
C1895 C27 0.936 . S
C1911 C7 1.432 . S
C1916 C537 1.410 . S
C1927 C49 1.134 . S
C1932 C482 1.089 . S
C1948 C617 1.290 . S
C1943 C329 1.289 . S
C1959 C167 1.328 . S
C1964 C364 1.449 . S
C1980 C645 1.655 . S
C1975 C301 1.693 . S
C1991 C139 0.923 . S
C1996 C402 0.968 . S
C2007 C335 1.172 . S
C2012 C502 1.206 . S
C2028 C437 1.715 . S
C2023 C161 1.732 . S
C2039 C307 1.303 . S
C2044 C544 1.304 . S
C2060 C477 1.215 . S
C2055 C133 1.285 . S
C2076 C624 1.547 . S
C2071 C249 1.596 . S
C2092 C417 1.786 1_565 S
C2087 C218 1.767 . S
C2103 C235 1.541 . S
C2108 C524 1.507 . S
C2124 C462 1.283 . S
C2119 C190 1.293 1_556 S
C2135 C207 1.888 . S
C2140 C484 1.837 . S
C2151 C179 1.138 . S
C2156 C652 1.091 . S
C2172 C557 1.857 . S
C2167 C232 1.805 1_565 S
C2188 C582 1.107 . S
C2183 C274 1.076 . S
