# Generated by pormake.
# Topology pth, (4,4)-cn, num edge types: 1
# Building blocks:
#     Node 0, Type 0, BuildingBlock: AZAVOO_clean_sbu_0, # of connection points: 4
#     Node 1, Type 0, BuildingBlock: AZAVOO_clean_sbu_0, # of connection points: 4
#     Node 2, Type 0, BuildingBlock: AZAVOO_clean_sbu_0, # of connection points: 4
#     Node 3, Type 1, BuildingBlock: KOZSID_clean_sbu_0, # of connection points: 4
#     Node 4, Type 1, BuildingBlock: KOZSID_clean_sbu_0, # of connection points: 4
#     Node 5, Type 1, BuildingBlock: KOZSID_clean_sbu_0, # of connection points: 4
#     Edge 6, Type (0, 1), BuildingBlock: XIVTED_clean_linker_0, # of connection points: 2
#     Edge 7, Type (0, 1), BuildingBlock: XIVTED_clean_linker_0, # of connection points: 2
#     Edge 8, Type (0, 1), BuildingBlock: XIVTED_clean_linker_0, # of connection points: 2
#     Edge 9, Type (0, 1), BuildingBlock: XIVTED_clean_linker_0, # of connection points: 2
#     Edge 10, Type (0, 1), BuildingBlock: XIVTED_clean_linker_0, # of connection points: 2
#     Edge 11, Type (0, 1), BuildingBlock: XIVTED_clean_linker_0, # of connection points: 2
#     Edge 12, Type (0, 1), BuildingBlock: XIVTED_clean_linker_0, # of connection points: 2
#     Edge 13, Type (0, 1), BuildingBlock: XIVTED_clean_linker_0, # of connection points: 2
#     Edge 14, Type (0, 1), BuildingBlock: XIVTED_clean_linker_0, # of connection points: 2
#     Edge 15, Type (0, 1), BuildingBlock: XIVTED_clean_linker_0, # of connection points: 2
#     Edge 16, Type (0, 1), BuildingBlock: XIVTED_clean_linker_0, # of connection points: 2
#     Edge 17, Type (0, 1), BuildingBlock: XIVTED_clean_linker_0, # of connection points: 2
# Relax obj value: 0.066
# Max RMSD: 0.216
# Mean RMSD: 0.106
data_MOF--net-pth--node1-AZAVOO_clean_sbu_0--node2-KOZSID_clean_sbu_0--edge1-XIVTED_clean_linker_0
_symmetry_space_group_name_H-M    P1
_symmetry_Int_Tables_number       1
_symmetry_cell_setting            triclinic
loop_
_symmetry_equiv_pos_as_xyz
'x, y, z'
_cell_length_a     26.484461
_cell_length_b     27.072199
_cell_length_c     59.705459
_cell_angle_alpha  88.244297
_cell_angle_beta   89.999695
_cell_angle_gamma 122.13121
loop_
_atom_site_label
_atom_site_type_symbol
_atom_site_fract_x
_atom_site_fract_y
_atom_site_fract_z
_atom_type_partial_charge
Mg0 Mg 0.12901 0.09034 0.04344 0.0
O1 O 0.06328 0.03237 0.017 0.0
O2 O 0.05349 0.08853 0.99147 0.0
Mg3 Mg 0.11509 0.18352 0.00112 0.0
C4 C 0.04055 0.03847 -0.0009 0.0
C5 C 0.09074 0.96378 0.0587 0.0
O6 O 0.10561 0.96422 0.03767 0.0
O7 O 0.06106 0.1074 0.05861 0.0
O8 O 0.05969 0.1688 0.03307 0.0
O9 O 0.20612 0.10127 0.02333 0.0
O10 O 0.17049 0.15866 0.01978 0.0
C11 C 0.04335 0.14093 0.05199 0.0
C12 C 0.20723 0.14468 0.01307 0.0
O13 O 0.09663 0.00978 0.06642 0.0
Mg14 Mg 0.97112 0.04305 0.36563 0.0
O15 O 0.05157 0.06555 0.38728 0.0
O16 O 0.06802 0.13696 0.40973 0.0
Mg17 Mg 0.99626 0.15808 0.40362 0.0
C18 C 0.08148 0.10145 0.40245 0.0
C19 C 0.00156 0.95271 0.35132 0.0
O20 O 0.99256 0.94123 0.37301 0.0
O21 O 0.02614 0.12762 0.3445 0.0
O22 O 0.03405 0.19358 0.36829 0.0
O23 O 0.90706 0.97726 0.39165 0.0
O24 O 0.93803 0.07082 0.39045 0.0
C25 C 0.04309 0.18003 0.34904 0.0
C26 C 0.90733 0.02048 0.40048 0.0
O27 O 0.9959 0.99298 0.34269 0.0
Mg28 Mg 0.05615 0.0319 0.68679 0.0
O29 O 0.11082 0.09513 0.71399 0.0
O30 O 0.05031 0.09608 0.7397 0.0
Mg31 Mg 0.95464 0.03035 0.72916 0.0
C32 C 0.10251 0.11369 0.73211 0.0
C33 C 0.1878 0.07922 0.67367 0.0
O34 O 0.18524 0.05994 0.69436 0.0
O35 O 0.03058 0.09432 0.67191 0.0
O36 O 0.96431 0.08521 0.69753 0.0
O37 O 0.05226 0.95772 0.70644 0.0
O38 O 0.9867 0.98403 0.70985 0.0
C39 C 0.992 0.10544 0.67872 0.0
C40 C 0.00566 0.95124 0.71647 0.0
O41 O 0.14084 0.0729 0.66507 0.0
C42 C 0.06519 0.63553 0.16047 0.0
C43 C 0.11469 0.6759 0.14756 0.0
C44 C 0.16245 0.67612 0.15617 0.0
C45 C 0.13955 0.63601 0.17371 0.0
N46 N 0.07999 0.60998 0.17683 0.0
Co47 Co 0.02859 0.54746 0.19987 0.0
N48 N 0.09964 0.55068 0.21331 0.0
C49 C 0.15761 0.58917 0.20781 0.0
C50 C 0.1965 0.58081 0.21996 0.0
C51 C 0.1613 0.53388 0.23397 0.0
C52 C 0.10267 0.51631 0.22952 0.0
N53 N 0.97689 0.48205 0.22192 0.0
C54 C 0.99126 0.45196 0.23635 0.0
C55 C 0.94119 0.40661 0.24751 0.0
C56 C 0.89331 0.40736 0.23952 0.0
C57 C 0.91677 0.45286 0.22399 0.0
N58 N 0.95803 0.54689 0.18728 0.0
C59 C 0.90086 0.51393 0.19482 0.0
C60 C 0.86277 0.52553 0.18371 0.0
C61 C 0.89784 0.5691 0.16835 0.0
C62 C 0.95543 0.58141 0.17096 0.0
N63 N 0.01856 0.48793 0.17875 0.0
C64 C 0.003 0.39594 0.15289 0.0
C65 C 0.95415 0.39872 0.15953 0.0
C66 C 0.96282 0.44462 0.17245 0.0
C67 C 0.05997 0.44109 0.15859 0.0
C68 C 0.06677 0.48678 0.1712 0.0
N69 N 0.0382 0.60675 0.22122 0.0
C70 C 0.99798 0.63479 0.25115 0.0
C71 C 0.04899 0.69077 0.25089 0.0
C72 C 0.09485 0.70415 0.23562 0.0
C73 C 0.08883 0.66161 0.22117 0.0
C74 C 0.9934 0.59404 0.23626 0.0
H75 H 0.12567 0.67428 0.21009 0.0
H76 H 0.95273 0.55275 0.23719 0.0
H77 H 0.92358 0.44338 0.17749 0.0
H78 H 0.11137 0.52027 0.17492 0.0
C79 C 0.1735 0.62638 0.18896 0.0
C80 C 0.0061 0.62616 0.15755 0.0
C81 C 0.05139 0.46442 0.23991 0.0
C82 C 0.88393 0.47024 0.21146 0.0
H83 H 0.11652 0.70367 0.13374 0.0
H84 H 0.20864 0.70371 0.15078 0.0
H85 H 0.24454 0.60408 0.21803 0.0
H86 H 0.17706 0.51365 0.24552 0.0
H87 H 0.93947 0.37593 0.26002 0.0
H88 H 0.84691 0.378 0.24434 0.0
H89 H 0.81513 0.50451 0.18636 0.0
H90 H 0.88283 0.58948 0.1565 0.0
H91 H 0.90923 0.36469 0.15535 0.0
H92 H 0.09917 0.44122 0.1533 0.0
H93 H 0.96089 0.62271 0.26248 0.0
H94 H 0.13541 0.74703 0.23495 0.0
C95 C 0.49323 0.08872 0.57483 0.0
C96 C 0.4481 0.04597 0.58889 0.0
C97 C 0.42637 0.99371 0.57897 0.0
C98 C 0.45911 0.007 0.55951 0.0
N99 N 0.50089 0.06433 0.55672 0.0
Co100 Co 0.55632 0.10139 0.53061 0.0
N101 N 0.54178 0.02521 0.52141 0.0
C102 C 0.49514 0.97215 0.52764 0.0
C103 C 0.4991 0.92758 0.51934 0.0
C104 C 0.55151 0.9544 0.50714 0.0
C105 C 0.5763 0.01409 0.50852 0.0
N106 N 0.61145 0.13768 0.50447 0.0
C107 C 0.63987 0.11707 0.4929 0.0
C108 C 0.67532 0.15624 0.47579 0.0
C109 C 0.66888 0.20324 0.47695 0.0
C110 C 0.62983 0.19 0.49459 0.0
N111 N 0.57085 0.17783 0.53959 0.0
C112 C 0.59493 0.22671 0.52638 0.0
C113 C 0.59823 0.2727 0.53689 0.0
C114 C 0.57379 0.25116 0.55785 0.0
C115 C 0.55657 0.19289 0.55894 0.0
N116 N 0.62255 0.11319 0.54897 0.0
C117 C 0.71771 0.13132 0.57541 0.0
C118 C 0.72406 0.17523 0.56051 0.0
C119 C 0.6759 0.16545 0.54759 0.0
C120 C 0.66286 0.07792 0.57667 0.0
C121 C 0.61601 0.06963 0.56322 0.0
N122 N 0.49035 0.09044 0.51215 0.0
C123 C 0.40835 0.10378 0.50707 0.0
C124 C 0.40437 0.08925 0.48459 0.0
C125 C 0.4422 0.07209 0.47646 0.0
C126 C 0.48496 0.07297 0.49054 0.0
C127 C 0.45131 0.10399 0.5205 0.0
H128 H 0.51485 0.06127 0.48378 0.0
H129 H 0.45383 0.11686 0.5375 0.0
H130 H 0.68186 0.20037 0.53651 0.0
H131 H 0.57446 0.028 0.56435 0.0
C132 C 0.45695 0.96627 0.54506 0.0
C133 C 0.51994 0.15183 0.57735 0.0
C134 C 0.63147 0.05953 0.49714 0.0
C135 C 0.61973 0.22943 0.50527 0.0
H136 H 0.43081 0.05176 0.60432 0.0
H137 H 0.39138 0.95107 0.58535 0.0
H138 H 0.46956 0.88123 0.52293 0.0
H139 H 0.56952 0.93224 0.49864 0.0
H140 H 0.70309 0.15146 0.46387 0.0
H141 H 0.69238 0.24346 0.46691 0.0
H142 H 0.61683 0.3168 0.53023 0.0
H143 H 0.56762 0.27506 0.57064 0.0
H144 H 0.76556 0.21727 0.55917 0.0
H145 H 0.65637 0.04258 0.58781 0.0
H146 H 0.37895 0.11583 0.51423 0.0
H147 H 0.44032 0.06022 0.45918 0.0
C148 C 0.71501 0.58869 0.82968 0.0
C149 C 0.75835 0.57907 0.82178 0.0
C150 C 0.75107 0.53183 0.8336 0.0
C151 C 0.70422 0.5155 0.84804 0.0
N152 N 0.6807 0.54915 0.84613 0.0
Co153 Co 0.61298 0.54127 0.86438 0.0
N154 N 0.60697 0.47576 0.88333 0.0
C155 C 0.64256 0.45409 0.88206 0.0
C156 C 0.62705 0.40834 0.89682 0.0
C157 C 0.57835 0.39989 0.90819 0.0
C158 C 0.56709 0.44147 0.89973 0.0
N159 N 0.54352 0.53165 0.88201 0.0
C160 C 0.50863 0.4911 0.89812 0.0
C161 C 0.46338 0.49856 0.90539 0.0
C162 C 0.46899 0.54459 0.8931 0.0
C163 C 0.51721 0.56267 0.87912 0.0
N164 N 0.62077 0.60853 0.84605 0.0
C165 C 0.58772 0.63283 0.84823 0.0
C166 C 0.60499 0.6799 0.83391 0.0
C167 C 0.65264 0.68685 0.82215 0.0
C168 C 0.66181 0.6435 0.83005 0.0
N169 N 0.55546 0.4847 0.84295 0.0
C170 C 0.46261 0.39843 0.81751 0.0
C171 C 0.46713 0.45124 0.82102 0.0
C172 C 0.51356 0.49341 0.8335 0.0
C173 C 0.50754 0.39076 0.8257 0.0
C174 C 0.55347 0.43436 0.83832 0.0
N175 N 0.67004 0.59818 0.88583 0.0
C176 C 0.70186 0.68367 0.90735 0.0
C177 C 0.75632 0.68927 0.91165 0.0
C178 C 0.76569 0.64641 0.90401 0.0
C179 C 0.72206 0.60134 0.89118 0.0
C180 C 0.65974 0.63818 0.89468 0.0
H181 H 0.73183 0.57036 0.88535 0.0
H182 H 0.61977 0.63735 0.89189 0.0
H183 H 0.51349 0.5321 0.83566 0.0
H184 H 0.58603 0.42591 0.84458 0.0
C185 C 0.68584 0.47314 0.86519 0.0
C186 C 0.7106 0.63795 0.82205 0.0
C187 C 0.51603 0.44437 0.90682 0.0
C188 C 0.53983 0.60951 0.86352 0.0
H189 H 0.79303 0.60451 0.80931 0.0
H190 H 0.77833 0.51315 0.83245 0.0
H191 H 0.6472 0.38259 0.89847 0.0
H192 H 0.55305 0.36559 0.92074 0.0
H193 H 0.42956 0.47313 0.91818 0.0
H194 H 0.44113 0.56261 0.89417 0.0
H195 H 0.58541 0.70615 0.83228 0.0
H196 H 0.67803 0.7203 0.80929 0.0
H197 H 0.43438 0.45987 0.81436 0.0
H198 H 0.50615 0.35064 0.82309 0.0
H199 H 0.69192 0.71489 0.91352 0.0
H200 H 0.80716 0.64877 0.90722 0.0
H201 H 0.97981 0.19238 0.04315 0.0
H202 H 0.05091 0.32989 0.16149 0.0
H203 H 0.03938 0.12873 0.09776 0.0
H204 H 0.93592 0.34872 0.11564 0.0
H205 H 0.04214 0.25174 0.13903 0.0
H206 H 0.95492 0.24301 0.06993 0.0
C207 C 0.9863 0.18787 0.06083 0.0
C208 C 0.01277 0.15717 0.06817 0.0
C209 C 0.01815 0.27238 0.13401 0.0
C210 C 0.98575 0.21614 0.09881 0.0
C211 C 0.02364 0.31731 0.1467 0.0
C212 C 0.99474 0.34616 0.14019 0.0
C213 C 0.98443 0.25695 0.11442 0.0
C214 C 0.95907 0.32761 0.12114 0.0
C215 C 0.97219 0.21691 0.07612 0.0
C216 C 0.0196 0.15234 0.0913 0.0
N217 N 0.95566 0.28474 0.1087 0.0
N218 N 0.00753 0.18271 0.10575 0.0
H219 H 0.7935 0.93125 0.4099 0.0
H220 H 0.74728 0.10182 0.50706 0.0
H221 H 0.93626 0.09304 0.43532 0.0
H222 H 0.60896 0.98745 0.4624 0.0
H223 H 0.81669 0.08216 0.48786 0.0
H224 H 0.7248 0.93236 0.43722 0.0
C225 C 0.81064 0.96611 0.42166 0.0
C226 C 0.87016 0.0127 0.42018 0.0
C227 C 0.77087 0.06069 0.48253 0.0
C228 C 0.7924 0.01454 0.45112 0.0
C229 C 0.73154 0.07195 0.49341 0.0
C230 C 0.67246 0.04535 0.48645 0.0
C231 C 0.75066 0.02253 0.46463 0.0
C232 C 0.65396 0.00763 0.46852 0.0
C233 C 0.77144 0.96706 0.43704 0.0
C234 C 0.89029 0.05707 0.43563 0.0
N235 N 0.69293 0.99721 0.45823 0.0
N236 N 0.85135 0.05722 0.45037 0.0
H237 H 0.96698 0.96607 0.75639 0.0
H238 H 0.73549 0.62928 0.77848 0.0
H239 H 0.97079 0.83677 0.71735 0.0
H240 H 0.79196 0.75086 0.83166 0.0
H241 H 0.81585 0.7058 0.75427 0.0
H242 H 0.89872 0.88912 0.78337 0.0
C243 C 0.95378 0.92143 0.75367 0.0
C244 C 0.9739 0.90736 0.73465 0.0
C245 C 0.81088 0.71559 0.77128 0.0
C246 C 0.89528 0.81932 0.76504 0.0
C247 C 0.76502 0.67222 0.78497 0.0
C248 C 0.75773 0.68415 0.80699 0.0
C249 C 0.84864 0.77149 0.77958 0.0
C250 C 0.79646 0.74033 0.81472 0.0
C251 C 0.91507 0.87765 0.76906 0.0
C252 C 0.95628 0.84914 0.73194 0.0
N253 N 0.84014 0.7822 0.80096 0.0
N254 N 0.91699 0.80689 0.7468 0.0
H255 H 0.06016 0.94872 0.10339 0.0
H256 H 0.99608 0.62447 0.11214 0.0
H257 H 0.06812 0.85703 0.04692 0.0
H258 H 0.00573 0.72203 0.16932 0.0
H259 H 0.00632 0.70338 0.0873 0.0
H260 H 0.02589 0.86107 0.12717 0.0
C261 C 0.05452 0.91012 0.09596 0.0
C262 C 0.06774 0.91047 0.07317 0.0
C263 C 0.00525 0.70724 0.10527 0.0
C264 C 0.02828 0.80989 0.1003 0.0
C265 C 0.99894 0.66209 0.11935 0.0
C266 C 6e-05 0.6673 0.14262 0.0
C267 C 0.01306 0.75786 0.11463 0.0
C268 C 0.00451 0.71678 0.15138 0.0
C269 C 0.03485 0.86004 0.10955 0.0
C270 C 0.0591 0.85899 0.06444 0.0
N271 N 0.01145 0.76055 0.13736 0.0
N272 N 0.04025 0.81092 0.07804 0.0
H273 H 0.1174 0.02452 0.39556 0.0
H274 H 0.38409 0.17783 0.48225 0.0
H275 H 0.16275 0.17821 0.43177 0.0
H276 H 0.32916 0.01285 0.45328 0.0
H277 H 0.30936 0.1831 0.46045 0.0
H278 H 0.20031 0.02372 0.41333 0.0
C279 C 0.14487 0.05825 0.40714 0.0
C280 C 0.13277 0.10133 0.41227 0.0
C281 C 0.31355 0.14572 0.45877 0.0
C282 C 0.22769 0.10063 0.43257 0.0
C283 C 0.35611 0.14258 0.47129 0.0
C284 C 0.36215 0.09432 0.46986 0.0
C285 C 0.27642 0.10024 0.44465 0.0
C286 C 0.32584 0.05074 0.45491 0.0
C287 C 0.19214 0.05768 0.41728 0.0
C288 C 0.16998 0.14391 0.42738 0.0
N289 N 0.28407 0.05447 0.44299 0.0
N290 N 0.21556 0.14236 0.437 0.0
H291 H 0.10514 0.16658 0.77096 0.0
H292 H 0.45954 0.32998 0.78379 0.0
H293 H 0.22025 0.15466 0.7231 0.0
H294 H 0.34608 0.36109 0.82499 0.0
H295 H 0.37147 0.25842 0.76327 0.0
H296 H 0.19252 0.2323 0.79262 0.0
C297 C 0.14872 0.17781 0.76496 0.0
C298 C 0.15519 0.15505 0.74512 0.0
C299 C 0.36593 0.28086 0.77685 0.0
C300 C 0.25557 0.23009 0.76998 0.0
C301 C 0.41606 0.32131 0.78862 0.0
C302 C 0.41005 0.35181 0.80592 0.0
C303 C 0.30954 0.27062 0.78261 0.0
C304 C 0.35277 0.3392 0.81149 0.0
C305 C 0.19865 0.21532 0.77737 0.0
C306 C 0.21296 0.17116 0.73825 0.0
N307 N 0.30483 0.29973 0.79985 0.0
N308 N 0.26086 0.20761 0.75067 0.0
H309 H 0.01715 0.13118 0.63358 0.0
H310 H 0.83552 0.18052 0.56347 0.0
H311 H 0.91487 0.14062 0.68775 0.0
H312 H 0.71365 0.10588 0.62017 0.0
H313 H 0.91628 0.19317 0.58755 0.0
H314 H 0.95968 0.15092 0.6069 0.0
C315 C 0.98395 0.13922 0.63993 0.0
C316 C 0.97017 0.13313 0.66297 0.0
C317 C 0.87185 0.17368 0.59469 0.0
C318 C 0.90403 0.15571 0.63248 0.0
C319 C 0.82587 0.16693 0.58101 0.0
C320 C 0.76767 0.14126 0.5898 0.0
C321 C 0.85937 0.15487 0.61733 0.0
C322 C 0.75758 0.12469 0.61262 0.0
C323 C 0.95104 0.15058 0.62463 0.0
C324 C 0.92649 0.1439 0.67015 0.0
N325 N 0.80293 0.13176 0.62557 0.0
N326 N 0.89419 0.15338 0.65495 0.0
H327 H 0.00584 0.92449 0.00855 0.0
H328 H 0.79232 0.80264 0.90312 0.0
H329 H 0.98209 0.03271 0.96047 0.0
H330 H 0.82598 0.69362 0.9467 0.0
H331 H 0.86264 0.8873 0.92412 0.0
H332 H 0.94025 0.83931 0.98661 0.0
C333 C 0.98684 0.93045 0.99342 0.0
C334 C -0.00043 0.98605 0.98639 0.0
C335 C 0.855 0.84502 0.92911 0.0
C336 C 0.92454 0.88855 0.96119 0.0
C337 C 0.81471 0.79662 0.91715 0.0
C338 C 0.80292 0.741 0.92335 0.0
C339 C 0.88375 0.83796 0.94754 0.0
C340 C 0.83394 0.73582 0.94139 0.0
C341 C 0.94952 0.88173 0.98087 0.0
C342 C 0.97361 0.99087 0.96661 0.0
N343 N 0.87267 0.78371 0.953 0.0
N344 N 0.93736 0.94282 0.95476 0.0
H345 H 0.00683 0.85773 0.36406 0.0
H346 H 0.08432 0.80438 0.2409 0.0
H347 H 0.03022 0.96857 0.30637 0.0
H348 H 0.02173 0.67665 0.29566 0.0
H349 H 0.0802 0.87259 0.26584 0.0
H350 H 0.02696 0.79819 0.34028 0.0
C351 C 0.01643 0.86974 0.3464 0.0
C352 C 0.01629 0.91795 0.33717 0.0
C353 C 0.06777 0.82976 0.27241 0.0
C354 C 0.0396 0.84992 0.30982 0.0
C355 C 0.07053 0.79105 0.25825 0.0
C356 C 0.05288 0.7347 0.26621 0.0
C357 C 0.04773 0.81207 0.29472 0.0
C358 C 0.03492 0.71942 0.28878 0.0
C359 C 0.02788 0.83564 0.33282 0.0
C360 C 0.02938 0.93151 0.31418 0.0
N361 N 0.03263 0.75779 0.30221 0.0
N362 N 0.04034 0.89756 0.30127 0.0
H363 H 0.20978 0.12498 0.63061 0.0
H364 H 0.5277 0.1595 0.623 0.0
H365 H 0.29483 0.09627 0.68681 0.0
H366 H 0.43682 0.17742 0.56651 0.0
H367 H 0.45334 0.15759 0.64821 0.0
H368 H 0.30146 0.16327 0.60842 0.0
C369 C 0.24782 0.12701 0.63833 0.0
C370 C 0.24423 0.10639 0.66048 0.0
C371 C 0.45049 0.16344 0.63033 0.0
C372 C 0.34947 0.15029 0.63517 0.0
C373 C 0.49326 0.16517 0.61604 0.0
C374 C 0.48796 0.16849 0.59279 0.0
C375 C 0.4022 0.16467 0.62117 0.0
C376 C 0.44227 0.17491 0.5844 0.0
C377 C 0.30027 0.14908 0.62567 0.0
C378 C 0.29527 0.11089 0.6697 0.0
N379 N 0.40058 0.17189 0.59856 0.0
N380 N 0.34554 0.13174 0.65693 0.0
H381 H 0.18725 0.18581 0.97404 0.0
H382 H 0.5276 0.42118 0.95069 0.0
H383 H 0.32512 0.18266 0.01118 0.0
H384 H 0.40064 0.36277 0.89745 0.0
H385 H 0.45202 0.34101 0.97515 0.0
H386 H 0.26281 0.25632 0.94701 0.0
C387 C 0.23344 0.1997 0.97636 0.0
C388 C 0.25032 0.17899 0.99486 0.0
C389 C 0.44085 0.34561 0.95808 0.0
C390 C 0.33669 0.26006 0.96443 0.0
C391 C 0.48365 0.39134 0.94425 0.0
C392 C 0.47001 0.3979 0.92212 0.0
C393 C 0.38371 0.30726 0.94983 0.0
C394 C 0.41252 0.35879 0.91447 0.0
C395 C 0.2764 0.23967 0.96093 0.0
C396 C 0.31052 0.19758 0.99702 0.0
N397 N 0.37116 0.31519 0.92838 0.0
N398 N 0.35187 0.23799 0.98217 0.0
H399 H 0.1078 0.29808 0.35309 0.0
H400 H 0.02792 0.35665 0.23013 0.0
H401 H 0.02703 0.16543 0.30375 0.0
H402 H 0.09568 0.4823 0.28201 0.0
H403 H 0.04137 0.28997 0.25462 0.0
H404 H 0.12141 0.37089 0.32468 0.0
C405 C 0.09397 0.28445 0.33614 0.0
C406 C 0.06527 0.22542 0.33087 0.0
C407 C 0.05377 0.33229 0.26059 0.0
C408 C 0.07952 0.30845 0.29834 0.0
C409 C 0.04585 0.37 0.2467 0.0
C410 C 0.06051 0.42441 0.25429 0.0
C411 C 0.07635 0.34937 0.28219 0.0
C412 C 0.08379 0.4404 0.27573 0.0
C413 C 0.10147 0.32604 0.31993 0.0
C414 C 0.04901 0.21041 0.30857 0.0
N415 N 0.09078 0.40291 0.28899 0.0
N416 N 0.05536 0.25154 0.29318 0.0
loop_
_geom_bond_atom_site_label_1
_geom_bond_atom_site_label_2
_geom_bond_distance
_geom_bond_site_symmetry_2
_ccdc_geom_bond_type
Mg0 O1 2.028 . S
Mg0 O7 1.986 . S
Mg0 O9 2.114 . S
Mg0 O10 2.251 . S
Mg0 O13 2.010 . S
O1 Mg0 2.028 . S
O1 C4 1.250 . S
O2 Mg3 2.028 . S
O2 C4 1.248 . S
Mg3 O2 2.028 . S
Mg3 O8 2.032 . S
Mg3 O10 2.079 . S
C4 O1 1.250 . S
C4 O2 1.248 . S
C5 O6 1.264 1_565 S
C5 O13 1.249 1_565 S
O6 C5 1.264 1_545 S
O7 Mg0 1.986 . S
O7 C11 1.246 . S
O8 Mg3 2.032 . S
O8 C11 1.259 . S
O9 Mg0 2.114 . S
O9 C12 1.252 . S
O10 Mg0 2.251 . S
O10 Mg3 2.079 . S
O10 C12 1.273 . S
C11 O7 1.246 . S
C11 O8 1.259 . S
C12 O9 1.252 . S
C12 O10 1.273 . S
O13 Mg0 2.010 . S
O13 C5 1.249 1_545 S
Mg14 O15 2.028 1_655 S
Mg14 O21 1.986 1_655 S
Mg14 O23 2.114 . S
Mg14 O24 2.251 . S
Mg14 O27 2.010 1_545 S
O15 Mg14 2.028 1_455 S
O15 C18 1.250 . S
O16 Mg17 2.028 . S
O16 C18 1.248 . S
Mg17 O16 2.028 . S
Mg17 O22 2.032 . S
Mg17 O24 2.079 1_455 S
C18 O15 1.250 . S
C18 O16 1.248 . S
C19 O20 1.264 . S
C19 O27 1.249 . S
O20 C19 1.264 . S
O21 Mg14 1.986 1_455 S
O21 C25 1.246 . S
O22 Mg17 2.032 . S
O22 C25 1.259 . S
O23 Mg14 2.114 . S
O23 C26 1.252 . S
O24 Mg14 2.251 . S
O24 Mg17 2.079 1_655 S
O24 C26 1.273 . S
C25 O21 1.246 . S
C25 O22 1.259 . S
C26 O23 1.252 . S
C26 O24 1.273 . S
O27 Mg14 2.010 1_565 S
O27 C19 1.249 . S
Mg28 O29 2.028 . S
Mg28 O35 1.986 . S
Mg28 O37 2.114 1_545 S
Mg28 O38 2.251 1_445 S
Mg28 O41 2.010 . S
O29 Mg28 2.028 . S
O29 C32 1.250 . S
O30 Mg31 2.028 1_455 S
O30 C32 1.248 . S
Mg31 O30 2.028 1_655 S
Mg31 O36 2.032 . S
Mg31 O38 2.079 1_545 S
C32 O29 1.250 . S
C32 O30 1.248 . S
C33 O34 1.264 . S
C33 O41 1.249 1_565 S
O34 C33 1.264 . S
O35 Mg28 1.986 . S
O35 C39 1.246 1_455 S
O36 Mg31 2.032 . S
O36 C39 1.259 . S
O37 Mg28 2.114 1_565 S
O37 C40 1.272 . S
O38 Mg28 2.251 1_665 S
O38 Mg31 2.079 1_565 S
O38 C40 1.257 1_655 S
C39 O35 1.246 1_655 S
C39 O36 1.259 . S
C40 O37 1.272 . S
C40 O38 1.257 1_455 S
O41 Mg28 2.010 . S
O41 C33 1.249 1_545 S
C42 C43 1.443 . S
C42 N46 1.376 . S
C42 C80 1.389 . S
C43 C42 1.443 . S
C43 C44 1.340 . S
C43 H83 0.951 . S
C44 C43 1.340 . S
C44 C45 1.439 . S
C44 H84 0.950 . S
C45 C44 1.439 . S
C45 N46 1.374 . S
C45 C79 1.395 . S
N46 C42 1.376 . S
N46 C45 1.374 . S
N46 Co47 2.008 . S
Co47 N46 2.008 . S
Co47 N48 1.995 . S
Co47 N53 2.008 1_455 S
Co47 N58 1.995 1_455 S
Co47 N63 2.282 . S
Co47 N69 2.282 . S
N48 Co47 1.995 . S
N48 C49 1.376 . S
N48 C52 1.383 . S
C49 N48 1.376 . S
C49 C50 1.446 . S
C49 C79 1.391 . S
C50 C49 1.446 . S
C50 C51 1.339 . S
C50 H85 0.949 . S
C51 C50 1.339 . S
C51 C52 1.439 . S
C51 H86 0.950 . S
C52 N48 1.383 . S
C52 C51 1.439 . S
C52 C81 1.392 . S
N53 Co47 2.008 1_655 S
N53 C54 1.376 . S
N53 C57 1.374 . S
C54 N53 1.376 . S
C54 C55 1.443 . S
C54 C81 1.389 1_655 S
C55 C54 1.443 . S
C55 C56 1.340 . S
C55 H87 0.951 . S
C56 C55 1.340 . S
C56 C57 1.439 . S
C56 H88 0.950 . S
C57 N53 1.374 . S
C57 C56 1.439 . S
C57 C82 1.395 . S
N58 Co47 1.995 1_655 S
N58 C59 1.376 . S
N58 C62 1.383 . S
C59 N58 1.376 . S
C59 C60 1.446 . S
C59 C82 1.391 . S
C60 C59 1.446 . S
C60 C61 1.339 . S
C60 H89 0.949 . S
C61 C60 1.339 . S
C61 C62 1.439 . S
C61 H90 0.950 . S
C62 N58 1.383 . S
C62 C61 1.439 . S
C62 C80 1.392 1_655 S
N63 Co47 2.282 . S
N63 C66 1.332 . S
N63 C68 1.332 . S
C64 C65 1.386 . S
C64 C67 1.388 . S
C65 C64 1.386 . S
C65 C66 1.382 . S
C65 H91 0.950 1_455 S
C66 N63 1.332 . S
C66 C65 1.382 . S
C66 H77 0.952 1_455 S
C67 C64 1.388 . S
C67 C68 1.382 . S
C67 H92 0.950 . S
C68 N63 1.332 . S
C68 C67 1.382 . S
C68 H78 0.948 . S
N69 Co47 2.282 . S
N69 C73 1.332 . S
N69 C74 1.332 1_455 S
C70 C71 1.388 1_655 S
C70 C74 1.382 . S
C70 H93 0.950 . S
C71 C70 1.388 1_455 S
C71 C72 1.386 . S
C72 C71 1.386 . S
C72 C73 1.382 . S
C72 H94 0.950 . S
C73 N69 1.332 . S
C73 C72 1.382 . S
C73 H75 0.952 . S
C74 N69 1.332 1_655 S
C74 C70 1.382 . S
C74 H76 0.948 . S
H75 C73 0.952 . S
H76 C74 0.948 . S
H77 C66 0.952 1_655 S
H78 C68 0.948 . S
C79 C45 1.395 . S
C79 C49 1.391 . S
C80 C42 1.389 . S
C80 C62 1.392 1_455 S
C81 C52 1.392 . S
C81 C54 1.389 1_455 S
C82 C57 1.395 . S
C82 C59 1.391 . S
H83 C43 0.951 . S
H84 C44 0.950 . S
H85 C50 0.949 . S
H86 C51 0.950 . S
H87 C55 0.951 . S
H88 C56 0.950 . S
H89 C60 0.949 . S
H90 C61 0.950 . S
H91 C65 0.950 1_655 S
H92 C67 0.950 . S
H93 C70 0.950 . S
H94 C72 0.950 . S
C95 C96 1.443 1_545 S
C95 N99 1.376 . S
C95 C133 1.389 . S
C96 C95 1.443 1_565 S
C96 C97 1.340 . S
C96 H136 0.951 . S
C97 C96 1.340 . S
C97 C98 1.439 . S
C97 H137 0.950 . S
C98 C97 1.439 . S
C98 N99 1.374 1_565 S
C98 C132 1.395 . S
N99 C95 1.376 . S
N99 C98 1.374 1_545 S
N99 Co100 2.008 . S
Co100 N99 2.008 . S
Co100 N101 1.995 . S
Co100 N106 2.008 . S
Co100 N111 1.995 . S
Co100 N116 2.282 . S
Co100 N122 2.282 . S
N101 Co100 1.995 . S
N101 C102 1.376 1_545 S
N101 C105 1.383 . S
C102 N101 1.376 1_565 S
C102 C103 1.446 . S
C102 C132 1.391 . S
C103 C102 1.446 . S
C103 C104 1.339 1_565 S
C103 H138 0.949 . S
C104 C103 1.339 1_545 S
C104 C105 1.439 . S
C104 H139 0.950 1_545 S
C105 N101 1.383 . S
C105 C104 1.439 . S
C105 C134 1.392 . S
N106 Co100 2.008 . S
N106 C107 1.376 . S
N106 C110 1.374 . S
C107 N106 1.376 . S
C107 C108 1.443 . S
C107 C134 1.389 . S
C108 C107 1.443 . S
C108 C109 1.340 . S
C108 H140 0.951 . S
C109 C108 1.340 . S
C109 C110 1.439 . S
C109 H141 0.950 . S
C110 N106 1.374 . S
C110 C109 1.439 . S
C110 C135 1.395 . S
N111 Co100 1.995 . S
N111 C112 1.376 . S
N111 C115 1.383 . S
C112 N111 1.376 . S
C112 C113 1.446 . S
C112 C135 1.391 . S
C113 C112 1.446 . S
C113 C114 1.339 . S
C113 H142 0.949 . S
C114 C113 1.339 . S
C114 C115 1.439 . S
C114 H143 0.950 . S
C115 N111 1.383 . S
C115 C114 1.439 . S
C115 C133 1.392 . S
N116 Co100 2.282 . S
N116 C119 1.332 . S
N116 C121 1.332 . S
C117 C118 1.386 . S
C117 C120 1.388 . S
C118 C117 1.386 . S
C118 C119 1.382 . S
C118 H144 0.950 . S
C119 N116 1.332 . S
C119 C118 1.382 . S
C119 H130 0.952 . S
C120 C117 1.388 . S
C120 C121 1.382 . S
C120 H145 0.950 . S
C121 N116 1.332 . S
C121 C120 1.382 . S
C121 H131 0.948 . S
N122 Co100 2.282 . S
N122 C126 1.332 . S
N122 C127 1.332 . S
C123 C124 1.388 . S
C123 C127 1.382 . S
C123 H146 0.950 . S
C124 C123 1.388 . S
C124 C125 1.386 . S
C125 C124 1.386 . S
C125 C126 1.382 . S
C125 H147 0.950 . S
C126 N122 1.332 . S
C126 C125 1.382 . S
C126 H128 0.952 . S
C127 N122 1.332 . S
C127 C123 1.382 . S
C127 H129 0.948 . S
H128 C126 0.952 . S
H129 C127 0.948 . S
H130 C119 0.952 . S
H131 C121 0.948 . S
C132 C98 1.395 . S
C132 C102 1.391 . S
C133 C95 1.389 . S
C133 C115 1.392 . S
C134 C105 1.392 . S
C134 C107 1.389 . S
C135 C110 1.395 . S
C135 C112 1.391 . S
H136 C96 0.951 . S
H137 C97 0.950 . S
H138 C103 0.949 . S
H139 C104 0.950 1_565 S
H140 C108 0.951 . S
H141 C109 0.950 . S
H142 C113 0.949 . S
H143 C114 0.950 . S
H144 C118 0.950 . S
H145 C120 0.950 . S
H146 C123 0.950 . S
H147 C125 0.950 . S
C148 C149 1.443 . S
C148 N152 1.376 . S
C148 C186 1.389 . S
C149 C148 1.443 . S
C149 C150 1.340 . S
C149 H189 0.951 . S
C150 C149 1.340 . S
C150 C151 1.439 . S
C150 H190 0.950 . S
C151 C150 1.439 . S
C151 N152 1.374 . S
C151 C185 1.395 . S
N152 C148 1.376 . S
N152 C151 1.374 . S
N152 Co153 2.008 . S
Co153 N152 2.008 . S
Co153 N154 1.995 . S
Co153 N159 2.008 . S
Co153 N164 1.995 . S
Co153 N169 2.282 . S
Co153 N175 2.282 . S
N154 Co153 1.995 . S
N154 C155 1.376 . S
N154 C158 1.383 . S
C155 N154 1.376 . S
C155 C156 1.446 . S
C155 C185 1.391 . S
C156 C155 1.446 . S
C156 C157 1.339 . S
C156 H191 0.949 . S
C157 C156 1.339 . S
C157 C158 1.439 . S
C157 H192 0.950 . S
C158 N154 1.383 . S
C158 C157 1.439 . S
C158 C187 1.392 . S
N159 Co153 2.008 . S
N159 C160 1.376 . S
N159 C163 1.374 . S
C160 N159 1.376 . S
C160 C161 1.443 . S
C160 C187 1.389 . S
C161 C160 1.443 . S
C161 C162 1.340 . S
C161 H193 0.951 . S
C162 C161 1.340 . S
C162 C163 1.439 . S
C162 H194 0.950 . S
C163 N159 1.374 . S
C163 C162 1.439 . S
C163 C188 1.395 . S
N164 Co153 1.995 . S
N164 C165 1.376 . S
N164 C168 1.383 . S
C165 N164 1.376 . S
C165 C166 1.446 . S
C165 C188 1.391 . S
C166 C165 1.446 . S
C166 C167 1.339 . S
C166 H195 0.949 . S
C167 C166 1.339 . S
C167 C168 1.439 . S
C167 H196 0.950 . S
C168 N164 1.383 . S
C168 C167 1.439 . S
C168 C186 1.392 . S
N169 Co153 2.282 . S
N169 C172 1.332 . S
N169 C174 1.332 . S
C170 C171 1.386 . S
C170 C173 1.388 . S
C171 C170 1.386 . S
C171 C172 1.382 . S
C171 H197 0.950 . S
C172 N169 1.332 . S
C172 C171 1.382 . S
C172 H183 0.952 . S
C173 C170 1.388 . S
C173 C174 1.382 . S
C173 H198 0.950 . S
C174 N169 1.332 . S
C174 C173 1.382 . S
C174 H184 0.948 . S
N175 Co153 2.282 . S
N175 C179 1.332 . S
N175 C180 1.332 . S
C176 C177 1.388 . S
C176 C180 1.382 . S
C176 H199 0.950 . S
C177 C176 1.388 . S
C177 C178 1.386 . S
C178 C177 1.386 . S
C178 C179 1.382 . S
C178 H200 0.950 . S
C179 N175 1.332 . S
C179 C178 1.382 . S
C179 H181 0.952 . S
C180 N175 1.332 . S
C180 C176 1.382 . S
C180 H182 0.948 . S
H181 C179 0.952 . S
H182 C180 0.948 . S
H183 C172 0.952 . S
H184 C174 0.948 . S
C185 C151 1.395 . S
C185 C155 1.391 . S
C186 C148 1.389 . S
C186 C168 1.392 . S
C187 C158 1.392 . S
C187 C160 1.389 . S
C188 C163 1.395 . S
C188 C165 1.391 . S
H189 C149 0.951 . S
H190 C150 0.950 . S
H191 C156 0.949 . S
H192 C157 0.950 . S
H193 C161 0.951 . S
H194 C162 0.950 . S
H195 C166 0.949 . S
H196 C167 0.950 . S
H197 C171 0.950 . S
H198 C173 0.950 . S
H199 C176 0.950 . S
H200 C178 0.950 . S
H201 C207 0.930 1_655 S
H202 C211 0.930 . S
H203 C216 0.929 . S
H204 C214 0.929 1_655 S
H205 C209 0.929 . S
H206 C215 0.929 1_655 S
C207 H201 0.930 1_455 S
C207 C208 1.367 . S
C207 C215 1.378 . S
C208 C207 1.367 . S
C208 C216 1.433 . S
C209 H205 0.929 . S
C209 C211 1.378 . S
C209 C213 1.350 . S
C210 C213 1.463 . S
C210 C215 1.350 . S
C210 N218 1.427 . S
C211 H202 0.930 . S
C211 C209 1.378 . S
C211 C212 1.367 . S
C212 C211 1.367 . S
C212 C214 1.433 . S
C213 C209 1.350 . S
C213 C210 1.463 . S
C213 N217 1.427 . S
C214 H204 0.929 1_455 S
C214 C212 1.433 . S
C214 N217 1.384 . S
C215 H206 0.929 1_455 S
C215 C207 1.378 . S
C215 C210 1.350 . S
C216 H203 0.929 . S
C216 C208 1.433 . S
C216 N218 1.384 . S
N217 C213 1.427 . S
N217 C214 1.384 . S
N218 C210 1.427 . S
N218 C216 1.384 . S
H219 C225 0.930 1_565 S
H220 C229 0.930 . S
H221 C234 0.929 . S
H222 C232 0.929 . S
H223 C227 0.929 . S
H224 C233 0.929 . S
C225 H219 0.930 1_545 S
C225 C226 1.367 . S
C225 C233 1.378 . S
C226 C225 1.367 . S
C226 C234 1.433 . S
C227 H223 0.929 . S
C227 C229 1.378 . S
C227 C231 1.350 . S
C228 C231 1.463 . S
C228 C233 1.350 . S
C228 N236 1.427 . S
C229 H220 0.930 . S
C229 C227 1.378 . S
C229 C230 1.367 . S
C230 C229 1.367 . S
C230 C232 1.433 . S
C231 C227 1.350 . S
C231 C228 1.463 . S
C231 N235 1.427 . S
C232 H222 0.929 . S
C232 C230 1.433 . S
C232 N235 1.384 . S
C233 H224 0.929 . S
C233 C225 1.378 . S
C233 C228 1.350 . S
C234 H221 0.929 . S
C234 C226 1.433 . S
C234 N236 1.384 . S
N235 C231 1.427 . S
N235 C232 1.384 . S
N236 C228 1.427 . S
N236 C234 1.384 . S
H237 C243 0.930 . S
H238 C247 0.930 . S
H239 C252 0.929 . S
H240 C250 0.929 . S
H241 C245 0.929 . S
H242 C251 0.929 . S
C243 H237 0.930 . S
C243 C244 1.367 . S
C243 C251 1.378 . S
C244 C243 1.367 . S
C244 C252 1.433 . S
C245 H241 0.929 . S
C245 C247 1.378 . S
C245 C249 1.350 . S
C246 C249 1.463 . S
C246 C251 1.350 . S
C246 N254 1.427 . S
C247 H238 0.930 . S
C247 C245 1.378 . S
C247 C248 1.367 . S
C248 C247 1.367 . S
C248 C250 1.433 . S
C249 C245 1.350 . S
C249 C246 1.463 . S
C249 N253 1.427 . S
C250 H240 0.929 . S
C250 C248 1.433 . S
C250 N253 1.384 . S
C251 H242 0.929 . S
C251 C243 1.378 . S
C251 C246 1.350 . S
C252 H239 0.929 . S
C252 C244 1.433 . S
C252 N254 1.384 . S
N253 C249 1.427 . S
N253 C250 1.384 . S
N254 C246 1.427 . S
N254 C252 1.384 . S
H255 C261 0.930 . S
H256 C265 0.930 . S
H257 C270 0.929 . S
H258 C268 0.929 . S
H259 C263 0.929 . S
H260 C269 0.929 . S
C261 H255 0.930 . S
C261 C262 1.367 . S
C261 C269 1.378 . S
C262 C261 1.367 . S
C262 C270 1.433 . S
C263 H259 0.929 . S
C263 C265 1.378 . S
C263 C267 1.350 . S
C264 C267 1.463 . S
C264 C269 1.350 . S
C264 N272 1.427 . S
C265 H256 0.930 . S
C265 C263 1.378 . S
C265 C266 1.367 . S
C266 C265 1.367 . S
C266 C268 1.433 . S
C267 C263 1.350 . S
C267 C264 1.463 . S
C267 N271 1.427 . S
C268 H258 0.929 . S
C268 C266 1.433 . S
C268 N271 1.384 . S
C269 H260 0.929 . S
C269 C261 1.378 . S
C269 C264 1.350 . S
C270 H257 0.929 . S
C270 C262 1.433 . S
C270 N272 1.384 . S
N271 C267 1.427 . S
N271 C268 1.384 . S
N272 C264 1.427 . S
N272 C270 1.384 . S
H273 C279 0.930 . S
H274 C283 0.930 . S
H275 C288 0.929 . S
H276 C286 0.929 . S
H277 C281 0.929 . S
H278 C287 0.929 . S
C279 H273 0.930 . S
C279 C280 1.367 . S
C279 C287 1.378 . S
C280 C279 1.367 . S
C280 C288 1.433 . S
C281 H277 0.929 . S
C281 C283 1.378 . S
C281 C285 1.350 . S
C282 C285 1.463 . S
C282 C287 1.350 . S
C282 N290 1.427 . S
C283 H274 0.930 . S
C283 C281 1.378 . S
C283 C284 1.367 . S
C284 C283 1.367 . S
C284 C286 1.433 . S
C285 C281 1.350 . S
C285 C282 1.463 . S
C285 N289 1.427 . S
C286 H276 0.929 . S
C286 C284 1.433 . S
C286 N289 1.384 . S
C287 H278 0.929 . S
C287 C279 1.378 . S
C287 C282 1.350 . S
C288 H275 0.929 . S
C288 C280 1.433 . S
C288 N290 1.384 . S
N289 C285 1.427 . S
N289 C286 1.384 . S
N290 C282 1.427 . S
N290 C288 1.384 . S
H291 C297 0.930 . S
H292 C301 0.930 . S
H293 C306 0.929 . S
H294 C304 0.929 . S
H295 C299 0.929 . S
H296 C305 0.929 . S
C297 H291 0.930 . S
C297 C298 1.367 . S
C297 C305 1.378 . S
C298 C297 1.367 . S
C298 C306 1.433 . S
C299 H295 0.929 . S
C299 C301 1.378 . S
C299 C303 1.350 . S
C300 C303 1.463 . S
C300 C305 1.350 . S
C300 N308 1.427 . S
C301 H292 0.930 . S
C301 C299 1.378 . S
C301 C302 1.367 . S
C302 C301 1.367 . S
C302 C304 1.433 . S
C303 C299 1.350 . S
C303 C300 1.463 . S
C303 N307 1.427 . S
C304 H294 0.929 . S
C304 C302 1.433 . S
C304 N307 1.384 . S
C305 H296 0.929 . S
C305 C297 1.378 . S
C305 C300 1.350 . S
C306 H293 0.929 . S
C306 C298 1.433 . S
C306 N308 1.384 . S
N307 C303 1.427 . S
N307 C304 1.384 . S
N308 C300 1.427 . S
N308 C306 1.384 . S
H309 C315 0.930 1_565 S
H310 C319 0.930 . S
H311 C324 0.929 1_455 S
H312 C322 0.929 . S
H313 C317 0.929 . S
H314 C323 0.929 1_565 S
C315 H309 0.930 1_545 S
C315 C316 1.367 . S
C315 C323 1.378 . S
C316 C315 1.367 . S
C316 C324 1.433 . S
C317 H313 0.929 . S
C317 C319 1.378 . S
C317 C321 1.350 . S
C318 C321 1.463 . S
C318 C323 1.350 . S
C318 N326 1.427 . S
C319 H310 0.930 . S
C319 C317 1.378 . S
C319 C320 1.367 . S
C320 C319 1.367 . S
C320 C322 1.433 . S
C321 C317 1.350 . S
C321 C318 1.463 . S
C321 N325 1.427 . S
C322 H312 0.929 . S
C322 C320 1.433 . S
C322 N325 1.384 . S
C323 H314 0.929 1_545 S
C323 C315 1.378 . S
C323 C318 1.350 . S
C324 H311 0.929 1_655 S
C324 C316 1.433 . S
C324 N326 1.384 . S
N325 C321 1.427 . S
N325 C322 1.384 . S
N326 C318 1.427 . S
N326 C324 1.384 . S
H327 C333 0.930 . S
H328 C337 0.930 . S
H329 C342 0.929 1_545 S
H330 C340 0.929 . S
H331 C335 0.929 . S
H332 C341 0.929 . S
C333 H327 0.930 . S
C333 C334 1.367 . S
C333 C341 1.378 1_554 S
C334 C333 1.367 . S
C334 C342 1.433 1_554 S
C335 H331 0.929 . S
C335 C337 1.378 . S
C335 C339 1.350 . S
C336 C339 1.463 . S
C336 C341 1.350 . S
C336 N344 1.427 . S
C337 H328 0.930 . S
C337 C335 1.378 . S
C337 C338 1.367 . S
C338 C337 1.367 . S
C338 C340 1.433 . S
C339 C335 1.350 . S
C339 C336 1.463 . S
C339 N343 1.427 . S
C340 H330 0.929 . S
C340 C338 1.433 . S
C340 N343 1.384 . S
C341 H332 0.929 . S
C341 C333 1.378 1_556 S
C341 C336 1.350 . S
C342 H329 0.929 1_565 S
C342 C334 1.433 1_556 S
C342 N344 1.384 . S
N343 C339 1.427 . S
N343 C340 1.384 . S
N344 C336 1.427 . S
N344 C342 1.384 . S
H345 C351 0.930 . S
H346 C355 0.930 . S
H347 C360 0.929 . S
H348 C358 0.929 . S
H349 C353 0.929 . S
H350 C359 0.929 . S
C351 H345 0.930 . S
C351 C352 1.367 . S
C351 C359 1.378 . S
C352 C351 1.367 . S
C352 C360 1.433 1_655 S
C353 H349 0.929 . S
C353 C355 1.378 . S
C353 C357 1.350 . S
C354 C357 1.463 . S
C354 C359 1.350 1_455 S
C354 N362 1.427 . S
C355 H346 0.930 . S
C355 C353 1.378 . S
C355 C356 1.367 . S
C356 C355 1.367 . S
C356 C358 1.433 1_455 S
C357 C353 1.350 . S
C357 C354 1.463 . S
C357 N361 1.427 1_455 S
C358 H348 0.929 . S
C358 C356 1.433 1_655 S
C358 N361 1.384 . S
C359 H350 0.929 . S
C359 C351 1.378 . S
C359 C354 1.350 1_655 S
C360 H347 0.929 . S
C360 C352 1.433 1_455 S
C360 N362 1.384 . S
N361 C357 1.427 1_655 S
N361 C358 1.384 . S
N362 C354 1.427 . S
N362 C360 1.384 . S
H363 C369 0.930 . S
H364 C373 0.930 . S
H365 C378 0.929 . S
H366 C376 0.929 . S
H367 C371 0.929 1_565 S
H368 C377 0.929 . S
C369 H363 0.930 . S
C369 C370 1.367 . S
C369 C377 1.378 . S
C370 C369 1.367 . S
C370 C378 1.433 1_545 S
C371 H367 0.929 1_545 S
C371 C373 1.378 . S
C371 C375 1.350 . S
C372 C375 1.463 . S
C372 C377 1.350 . S
C372 N380 1.427 1_545 S
C373 H364 0.930 . S
C373 C371 1.378 . S
C373 C374 1.367 . S
C374 C373 1.367 . S
C374 C376 1.433 . S
C375 C371 1.350 . S
C375 C372 1.463 . S
C375 N379 1.427 . S
C376 H366 0.929 . S
C376 C374 1.433 . S
C376 N379 1.384 . S
C377 H368 0.929 . S
C377 C369 1.378 . S
C377 C372 1.350 . S
C378 H365 0.929 . S
C378 C370 1.433 1_565 S
C378 N380 1.384 . S
N379 C375 1.427 . S
N379 C376 1.384 . S
N380 C372 1.427 1_565 S
N380 C378 1.384 . S
H381 C387 0.930 . S
H382 C391 0.930 . S
H383 C396 0.906 1_554 S
H384 C394 0.929 . S
H385 C389 0.929 . S
H386 C395 0.929 . S
C387 H381 0.930 . S
C387 C388 1.367 . S
C387 C395 1.378 . S
C388 C387 1.367 . S
C388 C396 1.441 . S
C389 H385 0.929 . S
C389 C391 1.378 . S
C389 C393 1.350 . S
C390 C393 1.463 . S
C390 C395 1.350 . S
C390 N398 1.427 . S
C391 H382 0.930 . S
C391 C389 1.378 . S
C391 C392 1.367 . S
C392 C391 1.367 . S
C392 C394 1.433 . S
C393 C389 1.350 . S
C393 C390 1.463 . S
C393 N397 1.427 . S
C394 H384 0.929 . S
C394 C392 1.433 . S
C394 N397 1.384 . S
C395 H386 0.929 . S
C395 C387 1.378 . S
C395 C390 1.350 . S
C396 H383 0.906 1_556 S
C396 C388 1.441 . S
C396 N398 1.401 . S
N397 C393 1.427 . S
N397 C394 1.384 . S
N398 C390 1.427 . S
N398 C396 1.401 . S
H399 C405 0.930 . S
H400 C409 0.930 . S
H401 C414 0.929 1_655 S
H402 C412 0.929 . S
H403 C407 0.929 1_655 S
H404 C413 0.929 . S
C405 H399 0.930 . S
C405 C406 1.367 . S
C405 C413 1.378 . S
C406 C405 1.367 . S
C406 C414 1.433 . S
C407 H403 0.929 1_455 S
C407 C409 1.378 1_455 S
C407 C411 1.350 . S
C408 C411 1.463 . S
C408 C413 1.350 . S
C408 N416 1.427 . S
C409 H400 0.930 . S
C409 C407 1.378 1_655 S
C409 C410 1.367 1_655 S
C410 C409 1.367 1_455 S
C410 C412 1.433 . S
C411 C407 1.350 . S
C411 C408 1.463 . S
C411 N415 1.427 . S
C412 H402 0.929 . S
C412 C410 1.433 . S
C412 N415 1.384 . S
C413 H404 0.929 . S
C413 C405 1.378 . S
C413 C408 1.350 . S
C414 H401 0.929 1_455 S
C414 C406 1.433 . S
C414 N416 1.384 . S
N415 C411 1.427 . S
N415 C412 1.384 . S
N416 C408 1.427 . S
N416 C414 1.384 . S
C212 C64 1.401 . S
C208 C11 1.381 . S
C226 C26 1.547 . S
C230 C134 1.563 . S
C244 C40 1.412 1_655 S
C248 C186 1.428 . S
C262 C5 1.257 . S
C266 C80 1.410 . S
C284 C124 1.538 . S
C280 C18 1.522 . S
C298 C32 1.396 . S
C302 C170 1.418 . S
C320 C117 1.301 . S
C316 C39 1.286 . S
C334 C4 1.414 1_665 S
C338 C177 1.427 . S
C356 C71 1.400 . S
C352 C19 1.234 . S
C374 C133 1.333 . S
C370 C33 1.208 1_545 S
C392 C187 1.446 . S
C388 C12 1.431 1_556 S
C406 C25 1.386 . S
C410 C81 1.413 . S
