# Generated by pormake.
# Topology ocu, (6,8)-cn, num edge types: 1
# Building blocks:
#     Node 0, Type 0, BuildingBlock: NUHQIS_clean_sbu_0, # of connection points: 6
#     Node 1, Type 0, BuildingBlock: NUHQIS_clean_sbu_0, # of connection points: 6
#     Node 2, Type 0, BuildingBlock: NUHQIS_clean_sbu_0, # of connection points: 6
#     Node 3, Type 0, BuildingBlock: NUHQIS_clean_sbu_0, # of connection points: 6
#     Node 4, Type 0, BuildingBlock: NUHQIS_clean_sbu_0, # of connection points: 6
#     Node 5, Type 0, BuildingBlock: NUHQIS_clean_sbu_0, # of connection points: 6
#     Node 6, Type 0, BuildingBlock: NUHQIS_clean_sbu_0, # of connection points: 6
#     Node 7, Type 0, BuildingBlock: NUHQIS_clean_sbu_0, # of connection points: 6
#     Node 8, Type 1, BuildingBlock: GIZVER_clean_sbu_0, # of connection points: 8
#     Node 9, Type 1, BuildingBlock: GIZVER_clean_sbu_0, # of connection points: 8
#     Node 10, Type 1, BuildingBlock: GIZVER_clean_sbu_0, # of connection points: 8
#     Node 11, Type 1, BuildingBlock: GIZVER_clean_sbu_0, # of connection points: 8
#     Node 12, Type 1, BuildingBlock: GIZVER_clean_sbu_0, # of connection points: 8
#     Node 13, Type 1, BuildingBlock: GIZVER_clean_sbu_0, # of connection points: 8
#     Edge 14, Type (0, 1), BuildingBlock: OJICUG_clean_linker_0, # of connection points: 2
#     Edge 15, Type (0, 1), BuildingBlock: OJICUG_clean_linker_0, # of connection points: 2
#     Edge 16, Type (0, 1), BuildingBlock: OJICUG_clean_linker_0, # of connection points: 2
#     Edge 17, Type (0, 1), BuildingBlock: OJICUG_clean_linker_0, # of connection points: 2
#     Edge 18, Type (0, 1), BuildingBlock: OJICUG_clean_linker_0, # of connection points: 2
#     Edge 19, Type (0, 1), BuildingBlock: OJICUG_clean_linker_0, # of connection points: 2
#     Edge 20, Type (0, 1), BuildingBlock: OJICUG_clean_linker_0, # of connection points: 2
#     Edge 21, Type (0, 1), BuildingBlock: OJICUG_clean_linker_0, # of connection points: 2
#     Edge 22, Type (0, 1), BuildingBlock: OJICUG_clean_linker_0, # of connection points: 2
#     Edge 23, Type (0, 1), BuildingBlock: OJICUG_clean_linker_0, # of connection points: 2
#     Edge 24, Type (0, 1), BuildingBlock: OJICUG_clean_linker_0, # of connection points: 2
#     Edge 25, Type (0, 1), BuildingBlock: OJICUG_clean_linker_0, # of connection points: 2
#     Edge 26, Type (0, 1), BuildingBlock: OJICUG_clean_linker_0, # of connection points: 2
#     Edge 27, Type (0, 1), BuildingBlock: OJICUG_clean_linker_0, # of connection points: 2
#     Edge 28, Type (0, 1), BuildingBlock: OJICUG_clean_linker_0, # of connection points: 2
#     Edge 29, Type (0, 1), BuildingBlock: OJICUG_clean_linker_0, # of connection points: 2
#     Edge 30, Type (0, 1), BuildingBlock: OJICUG_clean_linker_0, # of connection points: 2
#     Edge 31, Type (0, 1), BuildingBlock: OJICUG_clean_linker_0, # of connection points: 2
#     Edge 32, Type (0, 1), BuildingBlock: OJICUG_clean_linker_0, # of connection points: 2
#     Edge 33, Type (0, 1), BuildingBlock: OJICUG_clean_linker_0, # of connection points: 2
#     Edge 34, Type (0, 1), BuildingBlock: OJICUG_clean_linker_0, # of connection points: 2
#     Edge 35, Type (0, 1), BuildingBlock: OJICUG_clean_linker_0, # of connection points: 2
#     Edge 36, Type (0, 1), BuildingBlock: OJICUG_clean_linker_0, # of connection points: 2
#     Edge 37, Type (0, 1), BuildingBlock: OJICUG_clean_linker_0, # of connection points: 2
#     Edge 38, Type (0, 1), BuildingBlock: OJICUG_clean_linker_0, # of connection points: 2
#     Edge 39, Type (0, 1), BuildingBlock: OJICUG_clean_linker_0, # of connection points: 2
#     Edge 40, Type (0, 1), BuildingBlock: OJICUG_clean_linker_0, # of connection points: 2
#     Edge 41, Type (0, 1), BuildingBlock: OJICUG_clean_linker_0, # of connection points: 2
#     Edge 42, Type (0, 1), BuildingBlock: OJICUG_clean_linker_0, # of connection points: 2
#     Edge 43, Type (0, 1), BuildingBlock: OJICUG_clean_linker_0, # of connection points: 2
#     Edge 44, Type (0, 1), BuildingBlock: OJICUG_clean_linker_0, # of connection points: 2
#     Edge 45, Type (0, 1), BuildingBlock: OJICUG_clean_linker_0, # of connection points: 2
#     Edge 46, Type (0, 1), BuildingBlock: OJICUG_clean_linker_0, # of connection points: 2
#     Edge 47, Type (0, 1), BuildingBlock: OJICUG_clean_linker_0, # of connection points: 2
#     Edge 48, Type (0, 1), BuildingBlock: OJICUG_clean_linker_0, # of connection points: 2
#     Edge 49, Type (0, 1), BuildingBlock: OJICUG_clean_linker_0, # of connection points: 2
#     Edge 50, Type (0, 1), BuildingBlock: OJICUG_clean_linker_0, # of connection points: 2
#     Edge 51, Type (0, 1), BuildingBlock: OJICUG_clean_linker_0, # of connection points: 2
#     Edge 52, Type (0, 1), BuildingBlock: OJICUG_clean_linker_0, # of connection points: 2
#     Edge 53, Type (0, 1), BuildingBlock: OJICUG_clean_linker_0, # of connection points: 2
#     Edge 54, Type (0, 1), BuildingBlock: OJICUG_clean_linker_0, # of connection points: 2
#     Edge 55, Type (0, 1), BuildingBlock: OJICUG_clean_linker_0, # of connection points: 2
#     Edge 56, Type (0, 1), BuildingBlock: OJICUG_clean_linker_0, # of connection points: 2
#     Edge 57, Type (0, 1), BuildingBlock: OJICUG_clean_linker_0, # of connection points: 2
#     Edge 58, Type (0, 1), BuildingBlock: OJICUG_clean_linker_0, # of connection points: 2
#     Edge 59, Type (0, 1), BuildingBlock: OJICUG_clean_linker_0, # of connection points: 2
#     Edge 60, Type (0, 1), BuildingBlock: OJICUG_clean_linker_0, # of connection points: 2
#     Edge 61, Type (0, 1), BuildingBlock: OJICUG_clean_linker_0, # of connection points: 2
# Relax obj value: 0.292
# Max RMSD: 0.302
# Mean RMSD: 0.190
data_MOF--net-ocu--node1-NUHQIS_clean_sbu_0--node2-GIZVER_clean_sbu_0--edge1-OJICUG_clean_linker_0
_symmetry_space_group_name_H-M    P1
_symmetry_Int_Tables_number       1
_symmetry_cell_setting            triclinic
loop_
_symmetry_equiv_pos_as_xyz
'x, y, z'
_cell_length_a     32.960503
_cell_length_b     35.094108
_cell_length_c     26.263689
_cell_angle_alpha  96.98853
_cell_angle_beta   84.388542
_cell_angle_gamma 116.66213
loop_
_atom_site_label
_atom_site_type_symbol
_atom_site_fract_x
_atom_site_fract_y
_atom_site_fract_z
_atom_type_partial_charge
Tb0 Tb 0.29708 0.28267 0.25846 0.0
Eu1 Eu 0.3596 0.32408 0.34945 0.0
C2 C 0.38181 0.25359 0.2631 0.0
C3 C 0.27409 0.23006 0.35605 0.0
C4 C 0.2518 0.25725 0.12929 0.0
C5 C 0.21139 0.25588 0.05681 0.0
C6 C 0.21488 0.23588 0.09789 0.0
C7 C 0.28893 0.29413 0.11362 0.0
C8 C 0.28478 0.31468 0.0738 0.0
C9 C 0.2428 0.2988 0.05038 0.0
C10 C 0.24819 0.24616 0.18187 0.0
O11 O 0.26912 0.33086 0.29779 0.0
O12 O 0.3066 0.35258 0.37188 0.0
O13 O 0.38073 0.37672 0.2967 0.0
O14 O 0.35314 0.33643 0.22281 0.0
C15 C 0.27578 0.35425 0.34409 0.0
O16 O 0.36961 0.34432 0.43055 0.0
O17 O 0.42755 0.36509 0.37588 0.0
O18 O 0.39657 0.28416 0.30232 0.0
O19 O 0.34257 0.24723 0.24419 0.0
O20 O 0.259 0.23973 0.31753 0.0
O21 O 0.31426 0.25639 0.37356 0.0
C22 C 0.3792 0.37322 0.24676 0.0
O23 O 0.27993 0.23738 0.19424 0.0
O24 O 0.24111 0.2723 0.21699 0.0
C25 C 0.44029 0.35945 0.46129 0.0
C26 C 0.47723 0.32778 0.5265 0.0
C27 C 0.44167 0.33804 0.54493 0.0
C28 C 0.42337 0.35406 0.51241 0.0
C29 C 0.48019 0.35534 0.44558 0.0
C30 C 0.49875 0.3397 0.4783 0.0
C31 C 0.41372 0.36546 0.42421 0.0
H32 H 0.18093 0.23993 0.03535 0.0
H33 H 0.1869 0.20594 0.10789 0.0
H34 H 0.319 0.30971 0.13571 0.0
H35 H 0.31223 0.34581 0.06771 0.0
H36 H 0.42492 0.32921 0.58223 0.0
H37 H 0.39353 0.35854 0.52578 0.0
H38 H 0.49486 0.36071 0.40683 0.0
H39 H 0.52631 0.332 0.46348 0.0
Tb40 Tb 0.86614 0.29571 0.31065 0.0
Eu41 Eu 0.80277 0.34288 0.30449 0.0
C42 C 0.79127 0.26022 0.23022 0.0
C43 C 0.89888 0.37301 0.24703 0.0
C44 C 0.9589 0.2681 0.33868 0.0
C45 C 1.025 0.25566 0.34193 0.0
C46 C 0.99591 0.26299 0.31382 0.0
C47 C 0.95401 0.27074 0.3924 0.0
C48 C 0.98304 0.26323 0.4206 0.0
C49 C 1.01685 0.25293 0.39509 0.0
C50 C 0.92458 0.26764 0.30728 0.0
O51 O 0.891 0.35063 0.36689 0.0
O52 O 0.82626 0.35915 0.38393 0.0
O53 O 0.75761 0.27994 0.33907 0.0
O54 O 0.81411 0.27107 0.37305 0.0
C55 C 0.86642 0.36615 0.39629 0.0
O56 O 0.77078 0.36941 0.2597 0.0
O57 O 0.76206 0.37357 0.34271 0.0
O58 O 0.79061 0.29745 0.23405 0.0
O59 O 0.8133 0.25094 0.26174 0.0
O60 O 0.88517 0.33156 0.24311 0.0
O61 O 0.87504 0.38853 0.278 0.0
C62 C 0.77079 0.26255 0.3719 0.0
O63 O 0.88202 0.24585 0.32197 0.0
O64 O 0.93273 0.30441 0.29224 0.0
C65 C 0.69978 0.36464 0.2964 0.0
C66 C 0.6136 0.36032 0.28694 0.0
C67 C 0.63053 0.36595 0.33579 0.0
C68 C 0.67363 0.36872 0.34041 0.0
C69 C 0.67981 0.35229 0.2486 0.0
C70 C 0.63684 0.34968 0.24402 0.0
C71 C 0.74889 0.37834 0.29979 0.0
H72 H 1.05052 0.24741 0.3214 0.0
H73 H 1.00044 0.26169 0.27231 0.0
H74 H 0.92607 0.27568 0.41212 0.0
H75 H 0.97628 0.26122 0.46166 0.0
H76 H 0.61289 0.37321 0.36973 0.0
H77 H 0.68781 0.37742 0.37797 0.0
H78 H 0.69867 0.34801 0.21402 0.0
H79 H 0.62469 0.34459 0.20581 0.0
Tb80 Tb 0.78442 0.77722 0.33565 0.0
Eu81 Eu 0.86812 0.8204 0.26165 0.0
C82 C 0.78188 0.73248 0.22829 0.0
C83 C 0.86751 0.75099 0.3459 0.0
C84 C 0.68507 0.77139 0.41437 0.0
C85 C 0.65252 0.8163 0.39172 0.0
C86 C 0.66815 0.78554 0.37742 0.0
C87 C 0.68154 0.78494 0.46643 0.0
C88 C 0.66625 0.81605 0.48071 0.0
C89 C 0.65385 0.83348 0.44304 0.0
C90 C 0.71652 0.7526 0.39847 0.0
O91 O 0.83975 0.82416 0.3818 0.0
O92 O 0.8743 0.87203 0.32353 0.0
O93 O 0.82386 0.85007 0.23466 0.0
O94 O 0.76251 0.81761 0.28923 0.0
C95 C 0.86886 0.86262 0.37087 0.0
O96 O 0.9366 0.87007 0.24539 0.0
O97 O 0.90171 0.81993 0.18651 0.0
O98 O 0.81272 0.76932 0.21415 0.0
O99 O 0.77479 0.72569 0.27681 0.0
O100 O 0.82371 0.74215 0.35634 0.0
O101 O 0.89032 0.78017 0.31176 0.0
C102 C 0.78171 0.84312 0.25017 0.0
O103 O 0.71544 0.7359 0.35121 0.0
O104 O 0.75793 0.77744 0.41129 0.0
C105 C 0.97918 0.84316 0.188 0.0
C106 C 1.03086 0.79837 0.16281 0.0
C107 C 1.02429 0.81109 0.21433 0.0
C108 C 0.9982 0.83323 0.22701 0.0
C109 C 0.99021 0.83464 0.13635 0.0
C110 C 1.01573 0.81195 0.12375 0.0
C111 C 0.93994 0.85201 0.1998 0.0
H112 H 0.64328 0.82928 0.36185 0.0
H113 H 0.67072 0.77584 0.33694 0.0
H114 H 0.69462 0.77449 0.49544 0.0
H115 H 0.66693 0.82842 0.52062 0.0
H116 H 1.03556 0.80037 0.24472 0.0
H117 H 0.98965 0.83909 0.26715 0.0
H118 H 0.97546 0.84183 0.10589 0.0
H119 H 1.02078 0.80227 0.08379 0.0
Tb120 Tb 0.35585 0.79914 0.34192 0.0
Eu121 Eu 0.29914 0.84493 0.30228 0.0
C122 C 0.36497 0.88948 0.39799 0.0
C123 C 0.25872 0.77268 0.38082 0.0
C124 C 0.43462 0.75467 0.32279 0.0
C125 C 0.4387 0.7052 0.25172 0.0
C126 C 0.41849 0.71303 0.29844 0.0
C127 C 0.47414 0.78736 0.30209 0.0
C128 C 0.49379 0.77973 0.25499 0.0
C129 C 0.47521 0.73893 0.22823 0.0
C130 C 0.40514 0.76585 0.36145 0.0
O131 O 0.30717 0.74911 0.29016 0.0
O132 O 0.2987 0.79373 0.24053 0.0
O133 O 0.37214 0.88524 0.28352 0.0
O134 O 0.38955 0.82889 0.27233 0.0
C135 C 0.29349 0.75544 0.24804 0.0
O136 O 0.27906 0.86103 0.23415 0.0
O137 O 0.256 0.87748 0.31019 0.0
O138 O 0.32997 0.88693 0.37476 0.0
O139 O 0.38098 0.86095 0.38719 0.0
O140 O 0.30012 0.79055 0.3967 0.0
O141 O 0.24972 0.78604 0.34077 0.0
C142 C 0.39961 0.86866 0.26597 0.0
O143 O 0.41646 0.80659 0.37041 0.0
O144 O 0.36153 0.74391 0.35578 0.0
C145 C 0.20255 0.84686 0.24861 0.0
C146 C 0.12065 0.81094 0.30359 0.0
C147 C 0.13299 0.84929 0.28114 0.0
C148 C 0.17479 0.86781 0.25417 0.0
C149 C 0.18345 0.80322 0.25695 0.0
C150 C 0.14256 0.78537 0.28576 0.0
C151 C 0.25004 0.87225 0.26082 0.0
H152 H 0.4248 0.67288 0.23338 0.0
H153 H 0.38849 0.68706 0.31381 0.0
H154 H 0.48799 0.81979 0.32017 0.0
H155 H 0.52206 0.80649 0.23851 0.0
H156 H 0.1156 0.869 0.29327 0.0
H157 H 0.18858 0.90114 0.24674 0.0
H158 H 0.2041 0.78605 0.2513 0.0
H159 H 0.1329 0.75524 0.3017 0.0
Tb160 Tb 0.39194 0.76665 0.76765 0.0
Eu161 Eu 0.32071 0.80112 0.81739 0.0
C162 C 0.29627 0.73098 0.7152 0.0
C163 C 0.39658 0.85166 0.73575 0.0
C164 C 0.497 0.75398 0.74178 0.0
C165 C 0.55042 0.72597 0.75134 0.0
C166 C 0.51615 0.72612 0.72429 0.0
C167 C 0.51739 0.78643 0.78093 0.0
C168 C 0.55154 0.78618 0.8082 0.0
C169 C 0.56495 0.75318 0.79666 0.0
C170 C 0.45009 0.74164 0.72985 0.0
O171 O 0.42275 0.80035 0.84201 0.0
O172 O 0.38513 0.84205 0.86307 0.0
O173 O 0.31996 0.75462 0.86962 0.0
O174 O 0.33461 0.71387 0.80384 0.0
C175 C 0.41921 0.83305 0.86991 0.0
O176 O 0.29936 0.8521 0.83601 0.0
O177 O 0.25386 0.78754 0.85399 0.0
O178 O 0.28112 0.74647 0.75709 0.0
O179 O 0.34021 0.74138 0.70843 0.0
O180 O 0.42001 0.83352 0.75067 0.0
O181 O 0.35278 0.83566 0.7466 0.0
C182 C 0.31659 0.71734 0.84999 0.0
O183 O 0.4205 0.72416 0.76694 0.0
O184 O 0.44229 0.76987 0.71006 0.0
C185 C 0.22233 0.8265 0.81925 0.0
C186 C 0.16499 0.83644 0.75426 0.0
C187 C 0.1765 0.86122 0.80174 0.0
C188 C 0.20508 0.85636 0.83389 0.0
C189 C 0.20886 0.80017 0.77328 0.0
C190 C 0.18041 0.80498 0.7412 0.0
C191 C 0.25768 0.82551 0.84865 0.0
H192 H 0.56035 0.7004 0.74101 0.0
H193 H 0.50097 0.70112 0.69381 0.0
H194 H 0.50332 0.80864 0.7944 0.0
H195 H 0.56291 0.8081 0.84232 0.0
H196 H 0.1657 0.88616 0.81263 0.0
H197 H 0.21526 0.87715 0.86904 0.0
H198 H 0.2218 0.77699 0.76109 0.0
H199 H 0.17194 0.7852 0.70516 0.0
Tb200 Tb 0.33851 0.31218 0.768 0.0
Eu201 Eu 0.30581 0.25018 0.86367 0.0
C202 C 0.39798 0.33939 0.86363 0.0
C203 C 0.37765 0.24506 0.77476 0.0
C204 C 0.31379 0.3642 0.67302 0.0
C205 C 0.24249 0.36972 0.68666 0.0
C206 C 0.27501 0.35981 0.7041 0.0
C207 C 0.31865 0.37701 0.62337 0.0
C208 C 0.28583 0.38669 0.60567 0.0
C209 C 0.2478 0.38386 0.63755 0.0
C210 C 0.34778 0.35377 0.69235 0.0
O211 O 0.26789 0.26582 0.76166 0.0
O212 O 0.2694 0.2098 0.79465 0.0
O213 O 0.25812 0.28113 0.86731 0.0
O214 O 0.30887 0.34107 0.82938 0.0
C215 C 0.25487 0.22463 0.76089 0.0
O216 O 0.28455 0.18856 0.8943 0.0
O217 O 0.29155 0.24376 0.94599 0.0
O218 O 0.36262 0.31265 0.88948 0.0
O219 O 0.39889 0.34017 0.81345 0.0
O220 O 0.36384 0.26422 0.74513 0.0
O221 O 0.36762 0.24504 0.82451 0.0
C222 C 0.27221 0.3214 0.85865 0.0
O223 O 0.3621 0.37169 0.73775 0.0
O224 O 0.33759 0.31318 0.68821 0.0
C225 C 0.31885 0.19808 0.97171 0.0
C226 C 0.38074 0.17814 1.01584 0.0
C227 C 0.33355 0.15429 0.02506 0.0
C228 C 0.30279 0.16425 1.00314 0.0
C229 C 0.36585 0.22322 0.96461 0.0
C230 C 0.39654 0.21357 0.98678 0.0
C231 C 0.28749 0.20482 0.94193 0.0
H232 H 0.21338 0.36683 0.71187 0.0
H233 H 0.27011 0.34911 0.74219 0.0
H234 H 0.34803 0.38004 0.59862 0.0
H235 H 0.29102 0.39788 0.56781 0.0
H236 H 0.32046 0.1269 0.04749 0.0
H237 H 0.26662 0.14446 1.00891 0.0
H238 H 0.37881 0.24902 0.93972 0.0
H239 H 0.43258 0.2321 0.97828 0.0
Tb240 Tb 0.87453 0.29334 0.79909 0.0
Eu241 Eu 0.80924 0.33467 0.8298 0.0
C242 C 0.8953 0.35895 0.88994 0.0
C243 C 0.79102 0.24541 0.87736 0.0
C244 C 0.97395 0.28901 0.73691 0.0
C245 C 1.04636 0.2977 0.69799 0.0
C246 C 1.0166 0.29074 0.74098 0.0
C247 C 0.9636 0.30019 0.69201 0.0
C248 C 0.99324 0.30693 0.64887 0.0
C249 C 1.03293 0.30182 0.65042 0.0
C250 C 0.94038 0.27605 0.77946 0.0
O251 O 0.83007 0.26576 0.73517 0.0
O252 O 0.7718 0.27998 0.77139 0.0
O253 O 0.84584 0.37128 0.76028 0.0
O254 O 0.90451 0.35302 0.75659 0.0
C255 C 0.78765 0.25946 0.73631 0.0
O256 O 0.74167 0.33247 0.83533 0.0
O257 O 0.79696 0.38514 0.87475 0.0
O258 O 0.87687 0.37669 0.86516 0.0
O259 O 0.8826 0.31821 0.87899 0.0
O260 O 0.81885 0.24046 0.84004 0.0
O261 O 0.78974 0.28279 0.88576 0.0
C262 C 0.88674 0.37707 0.74195 0.0
O263 O 0.9418 0.30783 0.81156 0.0
O264 O 0.89899 0.24947 0.76712 0.0
C265 C 0.72823 0.35056 0.9217 0.0
C266 C 0.68181 0.32882 1.01716 0.0
C267 C 0.65975 0.33224 0.97565 0.0
C268 C 0.68289 0.34319 0.92838 0.0
C269 C 0.74913 0.34346 0.96146 0.0
C270 C 0.72614 0.33287 1.00896 0.0
C271 C 0.75306 0.36299 0.87244 0.0
H272 H 0.07696 0.29394 0.70058 0.0
H273 H 1.02561 0.28388 0.77621 0.0
H274 H 0.93127 0.30068 0.68917 0.0
H275 H 0.98246 0.31053 0.61281 0.0
H276 H 0.62579 0.33007 0.98074 0.0
H277 H 0.6659 0.34732 0.89768 0.0
H278 H 0.78384 0.34757 0.95647 0.0
H279 H 0.74395 0.3307 0.04022 0.0
Tb280 Tb 0.80444 0.78154 0.76296 0.0
Eu281 Eu 0.8799 0.80879 0.85029 0.0
C282 C 0.88008 0.7457 0.74224 0.0
C283 C 0.78696 0.71989 0.85176 0.0
C284 C 0.72614 0.79325 0.68127 0.0
C285 C 0.73954 0.85891 0.64586 0.0
C286 C 0.75589 0.83152 0.65994 0.0
C287 C 0.67945 0.78233 0.6867 0.0
C288 C 0.66303 0.80999 0.67279 0.0
C289 C 0.69316 0.84904 0.65326 0.0
C290 C 0.74382 0.76609 0.70073 0.0
O291 O 0.78395 0.82015 0.82468 0.0
O292 O 0.84102 0.84753 0.88171 0.0
O293 O 0.90775 0.86577 0.80441 0.0
O294 O 0.86023 0.84107 0.73702 0.0
C295 C 0.80243 0.84441 0.86688 0.0
O296 O 0.89856 0.8157 0.92954 0.0
O297 O 0.95091 0.83289 0.8686 0.0
O298 O 0.89755 0.76565 0.78691 0.0
O299 O 0.84366 0.74703 0.72707 0.0
O300 O 0.78026 0.72394 0.80442 0.0
O301 O 0.82019 0.75006 0.87786 0.0
C302 C 0.89705 0.87008 0.75942 0.0
O303 O 0.78565 0.77385 0.6869 0.0
O304 O 0.73532 0.76026 0.74936 0.0
C305 C 0.96322 0.80438 0.93954 0.0
C306 C 1.00262 0.75595 0.97354 0.0
C307 C 0.95886 0.75004 0.99195 0.0
C308 C 0.93931 0.77398 0.97511 0.0
C309 C 1.00817 0.81243 0.92404 0.0
C310 C 1.02768 0.78837 0.94079 0.0
C311 C 0.94143 0.82687 0.91719 0.0
H312 H 0.76347 0.88838 0.62998 0.0
H313 H 0.79206 0.84094 0.65516 0.0
H314 H 0.65586 0.75297 0.70302 0.0
H315 H 0.62716 0.80161 0.67913 0.0
H316 H 0.93911 0.72582 1.01804 0.0
H317 H 0.90496 0.76762 0.98874 0.0
H318 H 1.02767 0.83623 0.89737 0.0
H319 H 1.0614 0.79355 0.92582 0.0
Co320 Co 0.08005 0.93028 0.52684 0.0
Co321 Co 0.11485 0.97816 0.60857 0.0
Co322 Co 0.0934 1.0317 0.54212 0.0
O323 O 0.11976 0.99093 0.54219 0.0
H324 H 0.15025 1.00088 0.5271 0.0
O325 O 0.06477 0.07005 0.53988 0.0
Co326 Co 0.09775 0.13106 0.5498 0.0
Co327 Co 0.06993 0.07461 0.46846 0.0
H328 H 1.03339 0.05835 0.55276 0.0
O329 O 0.15259 0.95923 0.62834 0.0
O330 O 0.08094 0.91909 0.60031 0.0
O331 O 0.08282 1.00042 0.65964 0.0
O332 O 1.04353 1.00248 0.59762 0.0
O333 O 0.13378 0.07148 0.59581 0.0
O334 O 0.12434 0.18737 0.55835 0.0
O335 O 1.04968 0.1421 0.55479 0.0
O336 O 0.15262 0.12676 0.55074 0.0
O337 O 0.14492 0.06395 0.48911 0.0
O338 O 0.10629 0.05414 0.42215 0.0
O339 O 0.1001 0.13315 0.47346 0.0
O340 O 1.03194 0.08831 0.44005 0.0
C341 C 0.08784 0.87914 0.49489 0.0
C342 C 1.02082 0.95645 0.50051 0.0
C343 C 1.04558 0.99576 0.64405 0.0
C344 C 0.11675 0.92274 0.62235 0.0
C345 C 0.08239 0.18103 0.55932 0.0
C346 C 0.15761 0.11118 0.58988 0.0
C347 C 0.14436 0.06981 0.44205 0.0
C348 C 1.06418 0.12669 0.44956 0.0
O349 O 1.04797 0.87577 0.51038 0.0
O350 O 0.12434 0.91403 0.50773 0.0
O351 O 1.05184 0.99263 0.48879 0.0
O352 O 1.02667 0.9385 0.53681 0.0
Co353 Co 0.65437 0.95326 0.03825 0.0
Co354 Co 0.65887 0.97948 0.13247 0.0
Co355 Co 0.60619 0.03513 0.07954 0.0
O356 O 0.65737 1.01049 0.07568 0.0
H357 H 0.68728 0.03346 0.06976 0.0
O358 O 0.55229 0.05734 0.09038 0.0
Co359 Co 0.54194 0.11118 0.13593 0.0
Co360 Co 0.56062 0.09309 0.03887 0.0
H361 H 0.523 0.03278 0.08699 0.0
O362 O 0.70899 0.97666 0.16248 0.0
O363 O 0.66149 0.92594 0.10736 0.0
O364 O 0.60397 0.96621 0.17287 0.0
O365 O 0.56881 0.99665 0.13435 0.0
O366 O 0.63896 0.08348 0.13157 0.0
O367 O 0.53468 0.16183 0.17601 0.0
O368 O 0.47592 0.10743 0.1476 0.0
O369 O 0.6072 0.13046 0.13727 0.0
O370 O 0.64871 0.07714 0.02296 0.0
O371 O 0.61861 0.11955 1.00531 0.0
O372 O 0.54625 0.13525 0.07162 0.0
O373 O 0.51053 0.0854 1.00722 0.0
C374 C 0.69957 0.92854 0.99615 0.0
C375 C 0.56281 0.94557 1.01842 0.0
C376 C 0.57002 0.97323 0.16751 0.0
C377 C 0.69375 0.93742 0.14208 0.0
C378 C 0.49103 0.14595 0.17241 0.0
C379 C 0.64124 0.12151 0.13743 0.0
C380 C 0.65139 0.10982 1.001 0.0
C381 C 0.51374 0.11792 0.03914 0.0
O382 O 0.65563 0.90655 0.99947 0.0
O383 O 0.71668 0.96678 1.02145 0.0
O384 O 0.57093 0.98573 0.02569 0.0
O385 O 0.58619 0.93078 0.04013 0.0
Co386 Co 0.14403 0.45036 0.99939 0.0
Co387 Co 0.15604 0.47316 0.09827 0.0
Co388 Co 0.12448 0.53555 0.05038 0.0
O389 O 0.16181 0.50362 0.04282 0.0
H390 H 0.1936 0.5226 0.0368 0.0
O391 O 0.08707 0.56679 0.05568 0.0
Co392 Co 0.11187 0.62545 0.0798 0.0
Co393 Co 0.08851 0.58251 0.99014 0.0
H394 H 1.05613 0.5502 0.06822 0.0
O395 O 0.20245 0.4585 0.1094 0.0
O396 O 0.1429 0.42217 0.05951 0.0
O397 O 0.10386 0.46247 0.14386 0.0
O398 O 0.07701 0.49852 0.10402 0.0
O399 O 0.16498 0.57745 0.10583 0.0
O400 O 0.13103 0.67908 0.10372 0.0
O401 O 1.05909 0.6268 0.09974 0.0
O402 O 0.17053 0.63061 0.0647 0.0
O403 O 0.17102 0.57232 0.99736 0.0
O404 O 0.132 0.5783 0.93745 0.0
O405 O 0.10668 0.63995 1.00989 0.0
O406 O 1.04203 0.59173 0.9727 0.0
C407 C 0.17823 0.4195 0.95552 0.0
C408 C 1.06289 0.45624 0.99543 0.0
C409 C 0.07254 0.47294 0.13778 0.0
C410 C 0.17941 0.42564 0.07821 0.0
C411 C 0.08767 0.66648 0.11211 0.0
C412 C 0.18432 0.61767 0.09956 0.0
C413 C 0.16925 0.58303 0.95303 0.0
C414 C 0.06796 0.63071 0.99031 0.0
O415 O 0.134 0.40224 0.95882 0.0
O416 O 0.20112 0.45713 0.97966 0.0
O417 O 0.08399 0.49676 0.99497 0.0
O418 O 0.08136 0.4359 1.01287 0.0
Co419 Co 0.58424 0.45649 0.07955 0.0
Co420 Co 0.58899 0.51935 0.14741 0.0
Co421 Co 0.58014 0.54609 0.04852 0.0
O422 O 0.61052 0.51697 0.07724 0.0
H423 H 0.64327 0.53135 0.0732 0.0
O424 O 0.54959 0.57705 0.0242 0.0
Co425 Co 0.57688 0.63821 0.039 0.0
Co426 Co 0.56577 0.58647 0.9565 0.0
H427 H 0.51699 0.56317 0.03043 0.0
O428 O 0.61131 0.50758 0.20096 0.0
O429 O 0.55593 0.46061 0.14978 0.0
O430 O 0.54532 0.54208 0.16805 0.0
O431 O 0.52163 0.51363 0.09204 0.0
O432 O 0.60698 0.59217 0.10451 0.0
O433 O 0.5951 0.69332 0.05387 0.0
O434 O 0.52549 0.6421 0.03317 0.0
O435 O 0.63452 0.64274 0.05204 0.0
O436 O 0.6378 0.57709 1.00171 0.0
O437 O 0.60729 0.56451 0.92651 0.0
O438 O 0.59605 0.64629 0.96588 0.0
O439 O 0.53756 0.60556 0.91522 0.0
C440 C 0.60533 0.41543 0.10211 0.0
C441 C 0.53124 0.46029 1.00229 0.0
C442 C 0.51269 0.51821 0.14022 0.0
C443 C 0.57735 0.47013 0.1922 0.0
C444 C 0.55151 0.68051 0.0531 0.0
C445 C 0.63734 0.62842 0.09299 0.0
C446 C 0.64232 0.57896 0.95255 0.0
C447 C 0.56976 0.64256 0.93008 0.0
O448 O 0.56554 0.40129 0.08335 0.0
O449 O 0.63154 0.45652 0.10772 0.0
O450 O 0.55453 0.49929 0.99304 0.0
O451 O 0.53157 0.44806 0.04608 0.0
Co452 Co 0.14273 0.51378 0.5369 0.0
Co453 Co 0.13432 0.51384 0.44557 0.0
Co454 Co 0.06874 0.56484 0.5199 0.0
O455 O 0.09168 0.51512 0.50266 0.0
H456 H 0.06603 0.48731 0.50353 0.0
O457 O 1.04436 0.61474 0.52883 0.0
Co458 Co 0.98625 0.61642 0.49509 0.0
Co459 Co 1.00041 0.60712 0.58388 0.0
H460 H 0.06949 0.64299 0.53279 0.0
O461 O 0.13818 0.46352 0.40367 0.0
O462 O 0.18087 0.49932 0.46921 0.0
O463 O 0.15817 0.57169 0.42274 0.0
O464 O 0.11049 0.59844 0.46304 0.0
O465 O 1.01746 0.53538 0.47354 0.0
O466 O 0.93546 0.61873 0.46212 0.0
O467 O 0.99818 0.67603 0.47655 0.0
O468 O 0.96113 0.55491 0.49971 0.0
O469 O 1.02627 0.5274 0.57902 0.0
O470 O 0.97618 0.55138 0.61367 0.0
O471 O 0.95745 0.62665 0.56749 0.0
O472 O 1.00831 0.6538 0.62981 0.0
C473 C 0.15381 0.46941 0.56898 0.0
C474 C 0.16298 0.60249 0.56796 0.0
C475 C 0.14414 0.60079 0.43194 0.0
C476 C 0.17191 0.46843 0.42993 0.0
C477 C 0.95761 0.65953 0.45701 0.0
C478 C 0.97604 0.52636 0.48834 0.0
C479 C 0.99119 0.52325 0.60972 0.0
C480 C 0.97285 0.65224 0.61009 0.0
O481 O 0.18241 0.50965 0.57329 0.0
O482 O 0.11687 0.45661 0.54392 0.0
O483 O 0.12153 0.59816 0.5691 0.0
O484 O 0.17526 0.57656 0.53896 0.0
Co485 Co 0.63344 1.02717 0.58232 0.0
Co486 Co 0.62544 0.04233 0.49451 0.0
Co487 Co 0.56669 0.07565 0.57656 0.0
O488 O 0.58713 0.03204 0.5503 0.0
H489 H 0.56156 1.00434 0.54421 0.0
O490 O 0.54411 0.1176 0.60548 0.0
Co491 Co 0.50041 0.12739 0.57468 0.0
Co492 Co 0.50199 0.10371 0.65927 0.0
H493 H 0.56962 0.14436 0.61555 0.0
O494 O 0.61425 0.99788 0.44768 0.0
O495 O 0.66241 1.02155 0.51345 0.0
O496 O 0.65426 0.09873 0.47709 0.0
O497 O 0.6101 0.12255 0.52816 0.0
O498 O 0.52013 0.0496 0.52346 0.0
O499 O 0.46471 0.14381 0.54693 0.0
O500 O 0.52919 0.18349 0.58892 0.0
O501 O 0.46466 0.06694 0.55397 0.0
O502 O 0.52493 1.02883 0.62343 0.0
O503 O 0.4744 0.04516 0.67219 0.0
O504 O 0.46189 0.12214 0.64089 0.0
O505 O 0.50453 0.14509 0.71074 0.0
C506 C 0.64274 0.97821 0.60557 0.0
C507 C 0.65628 0.11232 0.6183 0.0
C508 C 0.64294 0.12815 0.49373 0.0
C509 C 0.64168 0.99295 0.47589 0.0
C510 C 0.49529 0.18089 0.56501 0.0
C511 C 0.47823 0.04146 0.52735 0.0
C512 C 0.49007 1.01878 0.65511 0.0
C513 C 0.47315 0.14561 0.68478 0.0
O514 O 0.67334 1.01773 0.6121 0.0
O515 O 0.60553 0.96941 0.58306 0.0
O516 O 0.61416 0.10166 0.62885 0.0
O517 O 0.66871 0.08797 0.58774 0.0
C518 C 0.25104 0.17724 0.4257 0.0
C519 C 0.24426 0.18776 0.37804 0.0
H520 H 0.22581 0.13185 0.48327 0.0
C521 C 0.20745 0.15677 0.3501 0.0
H522 H 0.27907 0.19989 0.44834 0.0
C523 C 0.17757 0.11769 0.3695 0.0
C524 C 0.18263 0.10771 0.41815 0.0
H525 H 0.20108 0.16282 0.31292 0.0
H526 H 0.14918 0.09584 0.3468 0.0
C527 C 0.22054 0.13788 0.44559 0.0
C528 C 0.07795 0.23342 0.41478 0.0
C529 C 1.0323 0.2264 0.41913 0.0
H530 H 0.12449 0.20691 0.42223 0.0
C531 C 0.99871 0.18824 0.43699 0.0
H532 H 0.10421 0.26248 0.40019 0.0
C533 C 1.00983 0.15645 0.44722 0.0
C534 C 1.05497 0.1625 0.44126 0.0
H535 H 0.96317 0.18164 0.43975 0.0
H536 H 0.98276 0.12677 0.45943 0.0
C537 C 0.08941 0.20172 0.42675 0.0
C538 C 0.93858 0.92976 0.39537 0.0
C539 C 0.9037 0.8901 0.40817 0.0
H540 H 1.0027 0.98186 0.41453 0.0
C541 C 0.90589 0.87423 0.45407 0.0
H542 H 0.93804 0.94292 0.36035 0.0
C543 C 0.94329 0.89627 0.48483 0.0
C544 C 0.97921 0.93489 0.47069 0.0
H545 H 0.87969 0.84374 0.46516 0.0
H546 H 0.94459 0.88243 0.51897 0.0
C547 C 0.9758 0.95198 0.42637 0.0
C548 C 0.13553 0.82201 0.3956 0.0
C549 C 0.10379 0.8104 0.3574 0.0
H550 H 0.15604 0.85452 0.47012 0.0
C551 C 1.06298 0.81301 0.36974 0.0
H552 H 0.1679 0.82112 0.3864 0.0
C553 C 1.05553 0.83049 0.4181 0.0
C554 C 0.08997 0.84768 0.45379 0.0
H555 H 1.03904 0.80552 0.34037 0.0
H556 H 1.02497 0.83504 0.42502 0.0
C557 C 0.1291 0.84147 0.44329 0.0
C558 C 0.10741 0.85926 0.7303 0.0
C559 C 0.14287 0.84767 0.71568 0.0
H560 H 0.06953 0.89108 0.71006 0.0
C561 C 0.16163 0.85255 0.66502 0.0
H562 H 0.09204 0.85553 0.76889 0.0
C563 C 0.14862 0.87265 0.63158 0.0
C564 C 0.11609 0.88752 0.64778 0.0
H565 H 0.18928 0.84437 0.6526 0.0
H566 H 0.16677 0.87986 0.59461 0.0
C567 C 0.09399 0.87893 0.69644 0.0
C568 C 0.22462 0.21222 0.67378 0.0
C569 C 0.22817 0.19559 0.71828 0.0
H570 H 0.20121 0.19875 0.59764 0.0
C571 C 0.20943 0.15102 0.71972 0.0
H572 H 0.2394 0.24646 0.67113 0.0
C573 C 0.18721 0.1236 0.67764 0.0
C574 C 0.18371 0.14021 0.63304 0.0
H575 H 0.21201 0.13727 0.75331 0.0
H576 H 0.17269 0.08938 0.68018 0.0
C577 C 0.20299 0.18484 0.63145 0.0
C578 C 1.01609 0.24485 0.58097 0.0
C579 C 1.04882 0.2832 0.60434 0.0
H580 H 1.00058 0.18073 0.55208 0.0
C581 C 0.09478 0.29181 0.59838 0.0
H582 H 0.98033 0.23742 0.58427 0.0
C583 C 0.10655 0.2592 0.57888 0.0
C584 C 0.07228 0.21798 0.56554 0.0
H585 H 0.12052 0.32128 0.61581 0.0
H586 H 0.14172 0.26513 0.57952 0.0
C587 C 1.02753 0.2119 0.56318 0.0
C588 C 0.92653 0.91119 0.67963 0.0
C589 C 0.93065 0.90751 0.73155 0.0
H590 H 0.95905 0.94266 0.6113 0.0
C591 C 0.97024 0.93786 0.75562 0.0
H592 H 0.89665 0.8886 0.65966 0.0
C593 C 1.00592 0.96866 0.72795 0.0
C594 C 1.00327 0.97056 0.67526 0.0
H595 H 0.97485 0.93666 0.79556 0.0
H596 H 1.03672 0.98972 0.7474 0.0
C597 C 0.96235 0.94245 0.65187 0.0
C598 C 0.39145 0.18754 0.20427 0.0
C599 C 0.40939 0.2255 0.23968 0.0
H600 H 0.39867 0.13442 0.15739 0.0
C601 C 0.45501 0.2355 0.25146 0.0
H602 H 0.35729 0.17665 0.19204 0.0
C603 C 0.47976 0.21072 0.23029 0.0
C604 C 0.4617 0.17243 0.19557 0.0
H605 H 0.4726 0.26353 0.27743 0.0
H606 H 0.51417 0.22208 0.24195 0.0
C607 C 0.416 0.16227 0.18372 0.0
C608 C 0.95447 0.44249 0.2073 0.0
C609 C 0.94273 0.40051 0.21923 0.0
H610 H 1.00405 0.49835 0.17107 0.0
C611 C 0.97405 0.38371 0.20411 0.0
H612 H 0.93122 0.45652 0.21811 0.0
C613 C 1.01569 0.40775 0.17886 0.0
C614 C 1.02766 0.44944 0.16625 0.0
H615 H 0.96669 0.35167 0.21217 0.0
H616 H 1.03839 0.39304 0.16828 0.0
C617 C 0.99618 0.46645 0.18029 0.0
C618 C 0.77877 0.89232 0.18101 0.0
C619 C 0.75658 0.86483 0.22154 0.0
H620 H 0.77889 0.93425 0.12599 0.0
C621 C 0.71072 0.85931 0.23201 0.0
H622 H 0.81361 0.89897 0.16971 0.0
C623 C 0.68974 0.87973 0.20504 0.0
C624 C 0.71226 0.9073 0.16448 0.0
H625 H 0.69056 0.83931 0.26208 0.0
H626 H 0.65552 0.87462 0.21743 0.0
C627 C 0.75801 0.91283 0.15452 0.0
C628 C 0.2503 0.67578 0.22061 0.0
C629 C 0.26968 0.71888 0.20903 0.0
H630 H 0.20807 0.60966 0.19553 0.0
C631 C 0.2636 0.72726 0.16012 0.0
H632 H 0.25412 0.66808 0.258 0.0
C633 C 0.23783 0.69405 0.12452 0.0
C634 C 0.21656 0.65108 0.13652 0.0
H635 H 0.27815 0.75981 0.14942 0.0
H636 H 0.23359 0.70244 0.0877 0.0
C637 C 0.2239 0.64222 0.18478 0.0
C638 C 0.48781 0.84896 0.92414 0.0
C639 C 0.45499 0.86083 0.90958 0.0
H640 H 0.54577 0.86456 0.96908 0.0
C641 C 0.45778 0.90049 0.93275 0.0
H642 H 0.48767 0.81907 0.9077 0.0
C643 C 0.49185 0.92712 0.96776 0.0
C644 C 0.52468 0.91534 0.9824 0.0
H645 H 0.43389 0.91157 0.92314 0.0
H646 H 0.49241 0.95735 0.9834 0.0
C647 C 0.52147 0.87531 0.95991 0.0
C648 C 0.27077 0.39116 0.89091 0.0
C649 C 0.24775 0.34619 0.88321 0.0
H650 H 0.26722 0.44948 0.92018 0.0
C651 C 0.20149 0.3257 0.8986 0.0
H652 H 0.30653 0.408 0.87978 0.0
C653 C 0.17868 0.34967 0.92054 0.0
C654 C 0.20189 0.39461 0.92889 0.0
H655 H 0.18277 0.29117 0.8932 0.0
H656 H 0.14305 0.33283 0.93217 0.0
C657 C 0.24827 0.41502 0.91402 0.0
C658 C 0.73827 0.21872 0.95661 0.0
C659 C 0.7602 0.20929 0.91141 0.0
H660 H 0.68974 0.196 1.01977 0.0
C661 C 0.74974 0.16535 0.89911 0.0
H662 H 0.74479 0.25153 0.96849 0.0
C663 C 0.71721 0.13247 0.92948 0.0
C664 C 0.69422 0.14234 0.9737 0.0
H665 H 0.76533 0.15607 0.86476 0.0
H666 H 0.70847 0.09932 0.91679 0.0
C667 C 0.70647 0.18638 0.98669 0.0
C668 C 0.06514 0.73803 0.99345 0.0
C669 C 1.01948 0.72486 0.98295 0.0
H670 H 0.11657 0.71846 1.00448 0.0
C671 C 0.99011 0.68096 0.97707 0.0
H672 H 0.08843 0.77174 0.9985 0.0
C673 C 1.0061 0.65082 0.98009 0.0
C674 C 1.05189 0.6637 0.98929 0.0
H675 H 0.95494 0.66973 0.96819 0.0
H676 H 0.98242 0.61724 0.97462 0.0
C677 C 0.0812 0.70763 0.99685 0.0
C678 C 0.25664 0.37368 0.03594 0.0
C679 C 0.22619 0.32991 0.03818 0.0
H680 H 0.26602 0.43852 0.05098 0.0
C681 C 0.17919 0.3188 0.04366 0.0
H682 H 0.29261 0.38422 0.02751 0.0
C683 C 0.16412 0.35022 0.05494 0.0
C684 C 0.19546 0.39327 0.06144 0.0
H685 H 0.15353 0.28607 0.04402 0.0
H686 H 0.12802 0.34064 0.06176 0.0
C687 C 0.2416 0.40508 0.04946 0.0
C688 C 0.28241 0.67808 0.92879 0.0
C689 C 0.28409 0.67865 0.87523 0.0
H690 H 0.24593 0.64608 0.99514 0.0
C691 C 0.25067 0.64425 0.84677 0.0
H692 H 0.30758 0.70431 0.95167 0.0
C693 C 0.21447 0.61154 0.87176 0.0
C694 C 0.21184 0.61175 0.92558 0.0
H695 H 0.25079 0.64413 0.80547 0.0
H696 H 0.18756 0.58697 0.84919 0.0
C697 C 0.24718 0.64458 0.95361 0.0
C698 C 0.40322 0.11935 1.0167 0.0
C699 C 0.413 0.1625 0.02932 0.0
H700 H 0.42749 0.07181 1.00968 0.0
C701 C 0.45555 0.1908 0.04892 0.0
H702 H 0.37107 0.09688 1.00088 0.0
C703 C 0.48817 0.1763 0.05408 0.0
C704 C 0.47892 0.13353 0.03881 0.0
H705 H 0.4639 0.22424 0.05912 0.0
H706 H 0.52103 0.19879 0.06819 0.0
C707 C 0.43584 0.10512 1.0211 0.0
C708 C 0.95661 0.42953 0.9244 0.0
C709 C 0.93515 0.38455 0.92186 0.0
H710 H 1.01378 0.48758 0.94955 0.0
C711 C 0.95453 0.36376 0.94659 0.0
H712 H 0.94263 0.44654 0.90569 0.0
C713 C 0.99523 0.38713 0.9715 0.0
C714 C 1.0178 0.43202 0.97234 0.0
H715 H 0.93888 0.32916 0.9456 0.0
H716 H 1.00951 0.3698 0.9891 0.0
C717 C 0.99752 0.45302 0.94937 0.0
C718 C 0.73107 0.8555 0.89344 0.0
C719 C 0.77752 0.86769 0.89959 0.0
H720 H 0.67121 0.86392 0.91805 0.0
C721 C 0.79874 0.90144 0.93809 0.0
H722 H 0.71277 0.82981 0.86494 0.0
C723 C 0.77462 0.92202 0.9686 0.0
C724 C 0.72788 0.90909 0.96281 0.0
H725 H 0.83429 0.91218 0.94466 0.0
H726 H 0.79246 0.94753 0.99749 0.0
C727 C 0.7069 0.87529 0.92447 0.0
C728 C 1.01492 0.72448 0.1295 0.0
C729 C 1.04566 0.76476 0.15063 0.0
H730 H 1.00381 0.66086 0.10212 0.0
C731 C 0.08895 0.77173 0.16255 0.0
H732 H 0.98104 0.71864 0.12077 0.0
C733 C 0.10202 0.73891 0.15188 0.0
C734 C 0.0716 0.69869 0.12982 0.0
H735 H 0.11277 0.80268 0.17903 0.0
H736 H 0.13618 0.74525 0.16004 0.0
C737 C 1.02766 0.69143 0.11959 0.0
C738 C 0.4779 0.88265 0.23429 0.0
C739 C 0.44317 0.89566 0.24098 0.0
H740 H 0.54592 0.89768 0.20699 0.0
C741 C 0.45108 0.9355 0.22572 0.0
H742 H 0.47264 0.85221 0.24594 0.0
C743 C 0.49299 0.96158 0.20309 0.0
C744 C 0.52768 0.94842 0.19626 0.0
H745 H 0.4248 0.94633 0.23068 0.0
H746 H 0.4981 0.99179 0.19056 0.0
C747 C 0.51998 0.90896 0.21255 0.0
C748 C 0.72998 0.2334 0.16866 0.0
C749 C 0.75992 0.22581 0.19575 0.0
H750 H 0.66853 0.20584 0.12882 0.0
C751 C 0.7546 0.18384 0.19609 0.0
H752 H 0.7337 0.2655 0.16685 0.0
C753 C 0.7171 0.14963 0.1744 0.0
C754 C 0.6845 0.1571 0.15239 0.0
H755 H 0.77764 0.17713 0.216 0.0
H756 H 0.71227 0.11739 0.1778 0.0
C757 C 0.69242 0.19924 0.14729 0.0
C758 C 0.75376 0.6787 0.93091 0.0
C759 C 0.75462 0.68059 0.87733 0.0
H760 H 0.71841 0.6449 0.99697 0.0
C761 C 0.72219 0.64542 0.84884 0.0
H762 H 0.77825 0.70504 0.9543 0.0
C763 C 0.68843 0.61072 0.87324 0.0
C764 C 0.68544 0.61004 0.92715 0.0
H765 H 0.72184 0.64523 0.80761 0.0
H766 H 0.663 0.58529 0.8498 0.0
C767 C 0.71957 0.64394 0.95551 0.0
C768 C 0.55397 0.73174 0.88537 0.0
C769 C 0.57941 0.73764 0.83815 0.0
H770 H 0.53037 0.69573 0.95129 0.0
C771 C 0.60857 0.71798 0.82698 0.0
H772 H 0.53071 0.74592 0.89504 0.0
C773 C 0.60806 0.68903 0.85946 0.0
C774 C 0.57857 0.67973 0.90329 0.0
H775 H 0.62864 0.7221 0.79108 0.0
H776 H 0.62814 0.67165 0.84844 0.0
C777 C 0.55323 0.70261 0.91745 0.0
C778 C 0.44219 0.35753 0.94128 0.0
C779 C 0.43657 0.36966 0.89441 0.0
H780 H 0.47599 0.37619 1.01151 0.0
C781 C 0.46441 0.41155 0.88136 0.0
H782 H 0.4215 0.32542 0.95237 0.0
C783 C 0.49584 0.44128 0.91602 0.0
C784 C 0.49993 0.42931 0.96392 0.0
H785 H 0.46051 0.42178 0.84563 0.0
H786 H 0.51617 0.47374 0.90578 0.0
C787 C 0.47342 0.38683 0.97546 0.0
C788 C 0.68951 0.37334 0.09777 0.0
C789 C 0.66365 0.33424 0.06977 0.0
H790 H 0.69007 0.43242 0.13008 0.0
C791 C 0.61628 0.31502 0.07876 0.0
H792 H 0.72631 0.38792 0.0944 0.0
C793 C 0.5953 0.34076 0.09871 0.0
C794 C 0.62225 0.38469 0.11116 0.0
H795 H 0.59558 0.2837 0.06011 0.0
H796 H 0.55882 0.32795 0.09644 0.0
C797 C 0.66874 0.39926 0.11763 0.0
C798 C 0.59444 0.42133 0.30113 0.0
C799 C 0.5834 0.37973 0.27817 0.0
H800 H 0.60134 0.48327 0.2908 0.0
C801 C 0.55555 0.36468 0.23581 0.0
H802 H 0.61486 0.43401 0.33453 0.0
C803 C 0.54729 0.39337 0.21086 0.0
C804 C 0.56795 0.43719 0.22749 0.0
H805 H 0.54504 0.33227 0.21837 0.0
H806 H 0.52949 0.38208 0.17555 0.0
C807 C 0.58724 0.45 0.27557 0.0
C808 C 0.74917 0.71452 0.14168 0.0
C809 C 0.74889 0.7023 0.19084 0.0
H810 H 0.71399 0.70113 0.07254 0.0
C811 C 0.71332 0.66377 0.20587 0.0
H812 H 0.77596 0.74404 0.12883 0.0
C813 C 0.67773 0.63906 0.17344 0.0
C814 C 0.67681 0.65258 0.12547 0.0
H815 H 0.71203 0.65343 0.24347 0.0
H816 H 0.65021 0.61014 0.18671 0.0
C817 C 0.71342 0.69005 0.10949 0.0
C818 C 0.54079 0.75242 0.16409 0.0
C819 C 0.4939 0.73127 0.17634 0.0
H820 H 0.59582 0.75462 0.11284 0.0
C821 C 0.46537 0.70089 0.13953 0.0
H822 H 0.56393 0.77628 0.19103 0.0
C823 C 0.48389 0.68784 0.0947 0.0
C824 C 0.53121 0.70532 0.08578 0.0
H825 H 0.42885 0.68543 0.1466 0.0
H826 H 0.46137 0.66155 0.06948 0.0
C827 C 0.55917 0.73999 0.11886 0.0
C828 C 0.41353 0.40896 0.16378 0.0
C829 C 0.40876 0.41154 0.21788 0.0
H830 H 0.44898 0.44059 0.09649 0.0
C831 C 0.43439 0.4513 0.24496 0.0
H832 H 0.39433 0.37908 0.14143 0.0
C833 C 0.46542 0.4866 0.21926 0.0
C834 C 0.4722 0.48357 0.16542 0.0
H835 H 0.43157 0.455 0.28651 0.0
H836 H 0.48567 0.51591 0.24203 0.0
C837 C 0.44479 0.44449 0.1379 0.0
C838 C 0.88525 0.69773 0.66008 0.0
C839 C 0.9029 0.72131 0.70739 0.0
H840 H 0.89201 0.65802 0.5927 0.0
C841 C 0.94374 0.72201 0.72057 0.0
H842 H 0.85411 0.69609 0.64763 0.0
C843 C 0.96564 0.7004 0.68876 0.0
C844 C 0.94811 0.67644 0.6417 0.0
H845 H 0.95927 0.73957 0.75588 0.0
H846 H 0.9968 0.70245 0.70172 0.0
C847 C 0.90724 0.67573 0.62808 0.0
C848 C 0.46576 0.90828 0.69244 0.0
C849 C 0.4202 0.89294 0.7115 0.0
H850 H 0.52355 0.95971 0.65883 0.0
C851 C 0.39776 0.91859 0.70963 0.0
H852 H 0.48406 0.88932 0.69319 0.0
C853 C 0.42052 0.95896 0.69087 0.0
C854 C 0.46625 0.97478 0.67261 0.0
H855 H 0.36279 0.90801 0.72395 0.0
H856 H 0.40213 0.97795 0.69091 0.0
C857 C 0.4884 0.94859 0.67269 0.0
C858 C 0.19952 0.38908 0.57221 0.0
C859 C 0.21629 0.39962 0.62186 0.0
H860 H 0.16361 0.40149 0.5172 0.0
C861 C 0.20555 0.42827 0.65592 0.0
H862 H 0.20699 0.36684 0.54531 0.0
C863 C 0.18149 0.4483 0.63964 0.0
C864 C 0.1666 0.43933 0.58945 0.0
H865 H 0.21829 0.43736 0.69421 0.0
H866 H 0.17663 0.47261 0.66548 0.0
C867 C 0.17423 0.40838 0.55636 0.0
C868 C 0.76934 0.1985 0.66687 0.0
C869 C 0.75535 0.22501 0.701 0.0
H870 H 0.74929 0.14227 0.61393 0.0
C871 C 0.709 0.21562 0.70477 0.0
H872 H 0.80473 0.20469 0.66291 0.0
C873 C 0.67723 0.17973 0.67701 0.0
C874 C 0.69086 0.15215 0.64457 0.0
H875 H 0.69683 0.23526 0.73047 0.0
H876 H 0.64175 0.17313 0.68195 0.0
C877 C 0.73748 0.16254 0.63891 0.0
C878 C 0.93175 0.40945 0.45025 0.0
C879 C 0.88807 0.40008 0.43678 0.0
H880 H 0.99395 0.45746 0.47861 0.0
C881 C 0.8695 0.42882 0.45377 0.0
H882 H 0.94629 0.38725 0.43908 0.0
C883 C 0.89713 0.46946 0.47582 0.0
C884 C 0.94318 0.4812 0.48131 0.0
H885 H 0.83528 0.42187 0.44511 0.0
H886 H 0.88354 0.49264 0.48377 0.0
C887 C 0.95911 0.44982 0.47263 0.0
C888 C 0.68085 0.90805 0.48437 0.0
C889 C 0.6485 0.87312 0.45536 0.0
H890 H 0.70484 0.97399 0.51266 0.0
C891 C 0.61419 0.87796 0.43348 0.0
H892 H 0.70816 0.90532 0.50096 0.0
C893 C 0.61267 0.91721 0.43963 0.0
C894 C 0.64537 0.9524 0.46793 0.0
H895 H 0.58881 0.85149 0.41111 0.0
H896 H 0.58554 0.91978 0.42242 0.0
C897 C 0.67934 0.94745 0.49053 0.0
C898 C 0.24711 0.70369 0.41007 0.0
C899 C 0.22818 0.72918 0.39514 0.0
H900 H 0.23537 0.64243 0.43079 0.0
C901 C 0.18118 0.71105 0.38886 0.0
H902 H 0.28328 0.71647 0.41462 0.0
C903 C 0.15351 0.66845 0.399 0.0
C904 C 0.17281 0.64306 0.41342 0.0
H905 H 0.16588 0.72989 0.37678 0.0
H906 H 0.11709 0.65541 0.39593 0.0
C907 C 0.21984 0.66096 0.41834 0.0
C908 C 0.443 0.25335 0.54787 0.0
C909 C 0.48138 0.29323 0.54785 0.0
H910 H 0.41775 0.18615 0.55141 0.0
C911 C 0.52404 0.29659 0.55703 0.0
H912 H 0.4099 0.24996 0.53964 0.0
C913 C 0.52843 0.25998 0.5644 0.0
C914 C 0.49042 0.21973 0.561 0.0
H915 H 0.55403 0.32706 0.55617 0.0
H916 H 0.56181 0.2629 0.57029 0.0
C917 C 0.44759 0.21678 0.55368 0.0
C918 C 0.70359 0.92431 0.65951 0.0
C919 C 0.67749 0.88098 0.64349 0.0
H920 H 0.71285 0.98846 0.66067 0.0
C921 C 0.63754 0.86916 0.61769 0.0
H922 H 0.7339 0.93437 0.68061 0.0
C923 C 0.62511 0.90047 0.60638 0.0
C924 C 0.65239 0.94399 0.6209 0.0
H925 H 0.61675 0.83597 0.60489 0.0
H926 H 0.59503 0.89075 0.58502 0.0
C927 C 0.69128 0.95534 0.64833 0.0
C928 C 0.75075 0.21928 0.44863 0.0
C929 C 0.73641 0.2327 0.4084 0.0
H930 H 0.73192 0.17711 0.50856 0.0
C931 C 0.68912 0.21622 0.40291 0.0
H932 H 0.78661 0.23135 0.45473 0.0
C933 C 0.65746 0.1851 0.43453 0.0
C934 C 0.67227 0.17024 0.47292 0.0
H935 H 0.6766 0.22579 0.37256 0.0
H936 H 0.62172 0.17067 0.42669 0.0
C937 C 0.71926 0.18859 0.48022 0.0
C938 C 0.8665 0.68939 0.3993 0.0
C939 C 0.89135 0.72788 0.374 0.0
H940 H 0.86517 0.63916 0.44192 0.0
C941 C 0.93949 0.74373 0.37796 0.0
H942 H 0.82978 0.67449 0.399 0.0
C943 C 0.96054 0.72332 0.40472 0.0
C944 C 0.9356 0.68452 0.4294 0.0
H945 H 0.96144 0.77288 0.36047 0.0
H946 H 0.99716 0.73782 0.40524 0.0
C947 C 0.88751 0.66853 0.42488 0.0
C948 C 0.3777 0.96067 0.44863 0.0
C949 C 0.39052 0.92728 0.43493 0.0
H950 H 0.39476 1.02288 0.48917 0.0
C951 C 0.43049 0.9312 0.45486 0.0
H952 H 0.34718 0.95889 0.43418 0.0
C953 C 0.45766 0.96767 0.48554 0.0
C954 C 0.44586 1.00164 0.49813 0.0
H955 H 0.44178 0.90644 0.44577 0.0
H956 H 0.48851 0.96938 0.49899 0.0
C957 C 0.40492 0.99735 0.48025 0.0
C958 C 0.25952 0.41165 0.41358 0.0
C959 C 0.24932 0.38374 0.36637 0.0
H960 H 0.24754 0.45791 0.46971 0.0
C961 C 0.21317 0.38571 0.34212 0.0
H962 H 0.28623 0.41311 0.43582 0.0
C963 C 0.19 0.4121 0.36258 0.0
C964 C 0.20021 0.44023 0.40949 0.0
H965 H 0.20203 0.36625 0.30633 0.0
H966 H 0.16307 0.41023 0.34039 0.0
C967 C 0.23655 0.43848 0.43387 0.0
C968 C 0.43215 0.21357 0.7802 0.0
C969 C 0.4032 0.22089 0.75104 0.0
H970 H 0.47727 0.18502 0.78218 0.0
C971 C 0.39727 0.20314 0.69965 0.0
H972 H 0.43739 0.22659 0.81989 0.0
C973 C 0.41918 0.1781 0.67833 0.0
C974 C 0.44874 0.17133 0.70723 0.0
H975 H 0.37472 0.20763 0.67625 0.0
H976 H 0.41284 0.16395 0.63924 0.0
C977 C 0.45502 0.18962 0.75844 0.0
C978 C 0.89799 0.44304 0.69811 0.0
C979 C 0.91408 0.41325 0.70641 0.0
H980 H 0.90827 0.4991 0.66313 0.0
C981 C 0.95658 0.41972 0.68118 0.0
H982 H 0.86587 0.44013 0.71617 0.0
C983 C 0.98149 0.45431 0.64948 0.0
C984 C 0.9654 0.48447 0.64207 0.0
H985 H 0.97079 0.39798 0.68592 0.0
H986 H 1.01371 0.45766 0.63131 0.0
C987 C 0.92288 0.47755 0.66723 0.0
C988 C 0.27589 0.67695 0.6348 0.0
C989 C 0.26262 0.69975 0.67577 0.0
H990 H 0.25634 0.62949 0.5699 0.0
C991 C 0.21613 0.69099 0.67942 0.0
H992 H 0.31093 0.6821 0.63006 0.0
C993 C 0.18453 0.66082 0.64417 0.0
C994 C 0.19762 0.6374 0.60379 0.0
H995 H 0.20379 0.70727 0.71003 0.0
H996 H 0.14935 0.65522 0.64938 0.0
C997 C 0.24419 0.6464 0.59992 0.0
loop_
_geom_bond_atom_site_label_1
_geom_bond_atom_site_label_2
_geom_bond_distance
_geom_bond_site_symmetry_2
_ccdc_geom_bond_type
Tb0 C10 2.825 . S
Tb0 O11 2.347 . S
Tb0 O14 2.366 . S
Tb0 O19 2.418 . S
Tb0 O20 2.384 . S
Tb0 O23 2.479 . S
Tb0 O24 2.471 . S
Eu1 O12 2.418 . S
Eu1 O13 2.384 . S
Eu1 O16 2.479 . S
Eu1 O17 2.471 . S
Eu1 O18 2.347 . S
Eu1 O21 2.366 . S
Eu1 C31 2.825 . S
C2 O18 1.259 . S
C2 O19 1.265 . S
C3 O20 1.255 . S
C3 O21 1.265 . S
C4 C6 1.380 . S
C4 C7 1.374 . S
C4 C10 1.507 . S
C5 C6 1.384 . S
C5 C9 1.387 . S
C5 H32 0.932 . S
C6 C4 1.380 . S
C6 C5 1.384 . S
C6 H33 0.931 . S
C7 C4 1.374 . S
C7 C8 1.390 . S
C7 H34 0.930 . S
C8 C7 1.390 . S
C8 C9 1.391 . S
C8 H35 0.930 . S
C9 C5 1.387 . S
C9 C8 1.391 . S
C10 Tb0 2.825 . S
C10 C4 1.507 . S
C10 O23 1.238 . S
C10 O24 1.247 . S
O11 Tb0 2.347 . S
O11 C15 1.259 . S
O12 Eu1 2.418 . S
O12 C15 1.265 . S
O13 Eu1 2.384 . S
O13 C22 1.255 . S
O14 Tb0 2.366 . S
O14 C22 1.265 . S
C15 O11 1.259 . S
C15 O12 1.265 . S
O16 Eu1 2.479 . S
O16 C31 1.238 . S
O17 Eu1 2.471 . S
O17 C31 1.247 . S
O18 Eu1 2.347 . S
O18 C2 1.259 . S
O19 Tb0 2.418 . S
O19 C2 1.265 . S
O20 Tb0 2.384 . S
O20 C3 1.255 . S
O21 Eu1 2.366 . S
O21 C3 1.265 . S
C22 O13 1.255 . S
C22 O14 1.265 . S
O23 Tb0 2.479 . S
O23 C10 1.238 . S
O24 Tb0 2.471 . S
O24 C10 1.247 . S
C25 C28 1.380 . S
C25 C29 1.374 . S
C25 C31 1.507 . S
C26 C27 1.387 . S
C26 C30 1.391 . S
C27 C26 1.387 . S
C27 C28 1.384 . S
C27 H36 0.930 . S
C28 C25 1.380 . S
C28 C27 1.384 . S
C28 H37 0.931 . S
C29 C25 1.374 . S
C29 C30 1.390 . S
C29 H38 0.930 . S
C30 C26 1.391 . S
C30 C29 1.390 . S
C30 H39 0.930 . S
C31 Eu1 2.825 . S
C31 O16 1.238 . S
C31 O17 1.247 . S
C31 C25 1.507 . S
H32 C5 0.932 . S
H33 C6 0.931 . S
H34 C7 0.930 . S
H35 C8 0.930 . S
H36 C27 0.930 . S
H37 C28 0.931 . S
H38 C29 0.930 . S
H39 C30 0.930 . S
Tb40 C50 2.825 . S
Tb40 O51 2.347 . S
Tb40 O54 2.366 . S
Tb40 O59 2.418 . S
Tb40 O60 2.384 . S
Tb40 O63 2.479 . S
Tb40 O64 2.471 . S
Eu41 O52 2.418 . S
Eu41 O53 2.384 . S
Eu41 O56 2.479 . S
Eu41 O57 2.471 . S
Eu41 O58 2.347 . S
Eu41 O61 2.366 . S
Eu41 C71 2.825 . S
C42 O58 1.259 . S
C42 O59 1.265 . S
C43 O60 1.255 . S
C43 O61 1.265 . S
C44 C46 1.380 . S
C44 C47 1.374 . S
C44 C50 1.507 . S
C45 C46 1.384 . S
C45 C49 1.387 . S
C45 H72 0.930 . S
C46 C44 1.380 . S
C46 C45 1.384 . S
C46 H73 0.931 . S
C47 C44 1.374 . S
C47 C48 1.390 . S
C47 H74 0.930 . S
C48 C47 1.390 . S
C48 C49 1.391 . S
C48 H75 0.930 . S
C49 C45 1.387 . S
C49 C48 1.391 . S
C50 Tb40 2.825 . S
C50 C44 1.507 . S
C50 O63 1.238 . S
C50 O64 1.247 . S
O51 Tb40 2.347 . S
O51 C55 1.259 . S
O52 Eu41 2.418 . S
O52 C55 1.265 . S
O53 Eu41 2.384 . S
O53 C62 1.255 . S
O54 Tb40 2.366 . S
O54 C62 1.265 . S
C55 O51 1.259 . S
C55 O52 1.265 . S
O56 Eu41 2.479 . S
O56 C71 1.238 . S
O57 Eu41 2.471 . S
O57 C71 1.247 . S
O58 Eu41 2.347 . S
O58 C42 1.259 . S
O59 Tb40 2.418 . S
O59 C42 1.265 . S
O60 Tb40 2.384 . S
O60 C43 1.255 . S
O61 Eu41 2.366 . S
O61 C43 1.265 . S
C62 O53 1.255 . S
C62 O54 1.265 . S
O63 Tb40 2.479 . S
O63 C50 1.238 . S
O64 Tb40 2.471 . S
O64 C50 1.247 . S
C65 C68 1.380 . S
C65 C69 1.374 . S
C65 C71 1.507 . S
C66 C67 1.387 . S
C66 C70 1.391 . S
C67 C66 1.387 . S
C67 C68 1.384 . S
C67 H76 0.930 . S
C68 C65 1.380 . S
C68 C67 1.384 . S
C68 H77 0.931 . S
C69 C65 1.374 . S
C69 C70 1.390 . S
C69 H78 0.930 . S
C70 C66 1.391 . S
C70 C69 1.390 . S
C70 H79 0.930 . S
C71 Eu41 2.825 . S
C71 O56 1.238 . S
C71 O57 1.247 . S
C71 C65 1.507 . S
H72 C45 0.930 . S
H73 C46 0.931 . S
H74 C47 0.930 . S
H75 C48 0.930 . S
H76 C67 0.930 . S
H77 C68 0.931 . S
H78 C69 0.930 . S
H79 C70 0.930 . S
Tb80 C90 2.825 . S
Tb80 O91 2.347 . S
Tb80 O94 2.366 . S
Tb80 O99 2.418 . S
Tb80 O100 2.384 . S
Tb80 O103 2.479 . S
Tb80 O104 2.471 . S
Eu81 O92 2.418 . S
Eu81 O93 2.384 . S
Eu81 O96 2.479 . S
Eu81 O97 2.471 . S
Eu81 O98 2.347 . S
Eu81 O101 2.366 . S
Eu81 C111 2.825 . S
C82 O98 1.259 . S
C82 O99 1.265 . S
C83 O100 1.255 . S
C83 O101 1.265 . S
C84 C86 1.380 . S
C84 C87 1.374 . S
C84 C90 1.507 . S
C85 C86 1.384 . S
C85 C89 1.387 . S
C85 H112 0.930 . S
C86 C84 1.380 . S
C86 C85 1.384 . S
C86 H113 0.931 . S
C87 C84 1.374 . S
C87 C88 1.390 . S
C87 H114 0.930 . S
C88 C87 1.390 . S
C88 C89 1.391 . S
C88 H115 0.930 . S
C89 C85 1.387 . S
C89 C88 1.391 . S
C90 Tb80 2.825 . S
C90 C84 1.507 . S
C90 O103 1.238 . S
C90 O104 1.247 . S
O91 Tb80 2.347 . S
O91 C95 1.259 . S
O92 Eu81 2.418 . S
O92 C95 1.265 . S
O93 Eu81 2.384 . S
O93 C102 1.255 . S
O94 Tb80 2.366 . S
O94 C102 1.265 . S
C95 O91 1.259 . S
C95 O92 1.265 . S
O96 Eu81 2.479 . S
O96 C111 1.238 . S
O97 Eu81 2.471 . S
O97 C111 1.247 . S
O98 Eu81 2.347 . S
O98 C82 1.259 . S
O99 Tb80 2.418 . S
O99 C82 1.265 . S
O100 Tb80 2.384 . S
O100 C83 1.255 . S
O101 Eu81 2.366 . S
O101 C83 1.265 . S
C102 O93 1.255 . S
C102 O94 1.265 . S
O103 Tb80 2.479 . S
O103 C90 1.238 . S
O104 Tb80 2.471 . S
O104 C90 1.247 . S
C105 C108 1.380 . S
C105 C109 1.374 . S
C105 C111 1.507 . S
C106 C107 1.387 . S
C106 C110 1.391 . S
C107 C106 1.387 . S
C107 C108 1.384 . S
C107 H116 0.930 . S
C108 C105 1.380 . S
C108 C107 1.384 . S
C108 H117 0.931 . S
C109 C105 1.374 . S
C109 C110 1.390 . S
C109 H118 0.930 . S
C110 C106 1.391 . S
C110 C109 1.390 . S
C110 H119 0.930 . S
C111 Eu81 2.825 . S
C111 O96 1.238 . S
C111 O97 1.247 . S
C111 C105 1.507 . S
H112 C85 0.930 . S
H113 C86 0.931 . S
H114 C87 0.930 . S
H115 C88 0.930 . S
H116 C107 0.930 . S
H117 C108 0.931 . S
H118 C109 0.930 . S
H119 C110 0.930 . S
Tb120 C130 2.825 . S
Tb120 O131 2.347 . S
Tb120 O134 2.366 . S
Tb120 O139 2.418 . S
Tb120 O140 2.384 . S
Tb120 O143 2.479 . S
Tb120 O144 2.471 . S
Eu121 O132 2.418 . S
Eu121 O133 2.384 . S
Eu121 O136 2.479 . S
Eu121 O137 2.471 . S
Eu121 O138 2.347 . S
Eu121 O141 2.366 . S
Eu121 C151 2.825 . S
C122 O138 1.259 . S
C122 O139 1.265 . S
C123 O140 1.255 . S
C123 O141 1.265 . S
C124 C126 1.380 . S
C124 C127 1.374 . S
C124 C130 1.507 . S
C125 C126 1.384 . S
C125 C129 1.387 . S
C125 H152 0.930 . S
C126 C124 1.380 . S
C126 C125 1.384 . S
C126 H153 0.931 . S
C127 C124 1.374 . S
C127 C128 1.390 . S
C127 H154 0.930 . S
C128 C127 1.390 . S
C128 C129 1.391 . S
C128 H155 0.930 . S
C129 C125 1.387 . S
C129 C128 1.391 . S
C130 Tb120 2.825 . S
C130 C124 1.507 . S
C130 O143 1.238 . S
C130 O144 1.247 . S
O131 Tb120 2.347 . S
O131 C135 1.259 . S
O132 Eu121 2.418 . S
O132 C135 1.265 . S
O133 Eu121 2.384 . S
O133 C142 1.255 . S
O134 Tb120 2.366 . S
O134 C142 1.265 . S
C135 O131 1.259 . S
C135 O132 1.265 . S
O136 Eu121 2.479 . S
O136 C151 1.238 . S
O137 Eu121 2.471 . S
O137 C151 1.247 . S
O138 Eu121 2.347 . S
O138 C122 1.259 . S
O139 Tb120 2.418 . S
O139 C122 1.265 . S
O140 Tb120 2.384 . S
O140 C123 1.255 . S
O141 Eu121 2.366 . S
O141 C123 1.265 . S
C142 O133 1.255 . S
C142 O134 1.265 . S
O143 Tb120 2.479 . S
O143 C130 1.238 . S
O144 Tb120 2.471 . S
O144 C130 1.247 . S
C145 C148 1.380 . S
C145 C149 1.374 . S
C145 C151 1.507 . S
C146 C147 1.387 . S
C146 C150 1.391 . S
C147 C146 1.387 . S
C147 C148 1.384 . S
C147 H156 0.930 . S
C148 C145 1.380 . S
C148 C147 1.384 . S
C148 H157 0.931 . S
C149 C145 1.374 . S
C149 C150 1.390 . S
C149 H158 0.930 . S
C150 C146 1.391 . S
C150 C149 1.390 . S
C150 H159 0.930 . S
C151 Eu121 2.825 . S
C151 O136 1.238 . S
C151 O137 1.247 . S
C151 C145 1.507 . S
H152 C125 0.930 . S
H153 C126 0.931 . S
H154 C127 0.930 . S
H155 C128 0.930 . S
H156 C147 0.930 . S
H157 C148 0.931 . S
H158 C149 0.930 . S
H159 C150 0.930 . S
Tb160 C170 2.825 . S
Tb160 O171 2.347 . S
Tb160 O174 2.366 . S
Tb160 O179 2.418 . S
Tb160 O180 2.384 . S
Tb160 O183 2.479 . S
Tb160 O184 2.471 . S
Eu161 O172 2.418 . S
Eu161 O173 2.384 . S
Eu161 O176 2.479 . S
Eu161 O177 2.471 . S
Eu161 O178 2.347 . S
Eu161 O181 2.366 . S
Eu161 C191 2.825 . S
C162 O178 1.259 . S
C162 O179 1.265 . S
C163 O180 1.255 . S
C163 O181 1.265 . S
C164 C166 1.380 . S
C164 C167 1.374 . S
C164 C170 1.507 . S
C165 C166 1.384 . S
C165 C169 1.387 . S
C165 H192 0.930 . S
C166 C164 1.380 . S
C166 C165 1.384 . S
C166 H193 0.931 . S
C167 C164 1.374 . S
C167 C168 1.390 . S
C167 H194 0.930 . S
C168 C167 1.390 . S
C168 C169 1.391 . S
C168 H195 0.930 . S
C169 C165 1.387 . S
C169 C168 1.391 . S
C170 Tb160 2.825 . S
C170 C164 1.507 . S
C170 O183 1.238 . S
C170 O184 1.247 . S
O171 Tb160 2.347 . S
O171 C175 1.259 . S
O172 Eu161 2.418 . S
O172 C175 1.265 . S
O173 Eu161 2.384 . S
O173 C182 1.255 . S
O174 Tb160 2.366 . S
O174 C182 1.265 . S
C175 O171 1.259 . S
C175 O172 1.265 . S
O176 Eu161 2.479 . S
O176 C191 1.238 . S
O177 Eu161 2.471 . S
O177 C191 1.247 . S
O178 Eu161 2.347 . S
O178 C162 1.259 . S
O179 Tb160 2.418 . S
O179 C162 1.265 . S
O180 Tb160 2.384 . S
O180 C163 1.255 . S
O181 Eu161 2.366 . S
O181 C163 1.265 . S
C182 O173 1.255 . S
C182 O174 1.265 . S
O183 Tb160 2.479 . S
O183 C170 1.238 . S
O184 Tb160 2.471 . S
O184 C170 1.247 . S
C185 C188 1.380 . S
C185 C189 1.374 . S
C185 C191 1.507 . S
C186 C187 1.387 . S
C186 C190 1.391 . S
C187 C186 1.387 . S
C187 C188 1.384 . S
C187 H196 0.930 . S
C188 C185 1.380 . S
C188 C187 1.384 . S
C188 H197 0.931 . S
C189 C185 1.374 . S
C189 C190 1.390 . S
C189 H198 0.930 . S
C190 C186 1.391 . S
C190 C189 1.390 . S
C190 H199 0.930 . S
C191 Eu161 2.825 . S
C191 O176 1.238 . S
C191 O177 1.247 . S
C191 C185 1.507 . S
H192 C165 0.930 . S
H193 C166 0.931 . S
H194 C167 0.930 . S
H195 C168 0.930 . S
H196 C187 0.930 . S
H197 C188 0.931 . S
H198 C189 0.930 . S
H199 C190 0.930 . S
Tb200 C210 2.825 . S
Tb200 O211 2.347 . S
Tb200 O214 2.366 . S
Tb200 O219 2.418 . S
Tb200 O220 2.384 . S
Tb200 O223 2.479 . S
Tb200 O224 2.471 . S
Eu201 O212 2.418 . S
Eu201 O213 2.384 . S
Eu201 O216 2.479 . S
Eu201 O217 2.471 . S
Eu201 O218 2.347 . S
Eu201 O221 2.366 . S
Eu201 C231 2.825 . S
C202 O218 1.259 . S
C202 O219 1.265 . S
C203 O220 1.255 . S
C203 O221 1.265 . S
C204 C206 1.380 . S
C204 C207 1.374 . S
C204 C210 1.507 . S
C205 C206 1.384 . S
C205 C209 1.387 . S
C205 H232 0.930 . S
C206 C204 1.380 . S
C206 C205 1.384 . S
C206 H233 0.931 . S
C207 C204 1.374 . S
C207 C208 1.390 . S
C207 H234 0.930 . S
C208 C207 1.390 . S
C208 C209 1.391 . S
C208 H235 0.930 . S
C209 C205 1.387 . S
C209 C208 1.391 . S
C210 Tb200 2.825 . S
C210 C204 1.507 . S
C210 O223 1.238 . S
C210 O224 1.247 . S
O211 Tb200 2.347 . S
O211 C215 1.259 . S
O212 Eu201 2.418 . S
O212 C215 1.265 . S
O213 Eu201 2.384 . S
O213 C222 1.255 . S
O214 Tb200 2.366 . S
O214 C222 1.265 . S
C215 O211 1.259 . S
C215 O212 1.265 . S
O216 Eu201 2.479 . S
O216 C231 1.238 . S
O217 Eu201 2.471 . S
O217 C231 1.247 . S
O218 Eu201 2.347 . S
O218 C202 1.259 . S
O219 Tb200 2.418 . S
O219 C202 1.265 . S
O220 Tb200 2.384 . S
O220 C203 1.255 . S
O221 Eu201 2.366 . S
O221 C203 1.265 . S
C222 O213 1.255 . S
C222 O214 1.265 . S
O223 Tb200 2.479 . S
O223 C210 1.238 . S
O224 Tb200 2.471 . S
O224 C210 1.247 . S
C225 C228 1.380 . S
C225 C229 1.374 . S
C225 C231 1.507 . S
C226 C227 1.387 . S
C226 C230 1.391 . S
C227 C226 1.387 . S
C227 C228 1.384 . S
C227 H236 0.930 . S
C228 C225 1.380 . S
C228 C227 1.384 . S
C228 H237 0.931 . S
C229 C225 1.374 . S
C229 C230 1.390 . S
C229 H238 0.930 . S
C230 C226 1.391 . S
C230 C229 1.390 . S
C230 H239 0.930 . S
C231 Eu201 2.825 . S
C231 O216 1.238 . S
C231 O217 1.247 . S
C231 C225 1.507 . S
H232 C205 0.930 . S
H233 C206 0.931 . S
H234 C207 0.930 . S
H235 C208 0.930 . S
H236 C227 0.930 . S
H237 C228 0.931 . S
H238 C229 0.930 . S
H239 C230 0.930 . S
Tb240 C250 2.825 . S
Tb240 O251 2.347 . S
Tb240 O254 2.366 . S
Tb240 O259 2.418 . S
Tb240 O260 2.384 . S
Tb240 O263 2.479 . S
Tb240 O264 2.471 . S
Eu241 O252 2.418 . S
Eu241 O253 2.384 . S
Eu241 O256 2.479 . S
Eu241 O257 2.471 . S
Eu241 O258 2.347 . S
Eu241 O261 2.366 . S
Eu241 C271 2.825 . S
C242 O258 1.259 . S
C242 O259 1.265 . S
C243 O260 1.255 . S
C243 O261 1.265 . S
C244 C246 1.380 . S
C244 C247 1.374 . S
C244 C250 1.507 . S
C245 C246 1.384 . S
C245 C249 1.387 . S
C245 H272 0.930 . S
C246 C244 1.380 . S
C246 C245 1.384 . S
C246 H273 0.931 . S
C247 C244 1.374 . S
C247 C248 1.390 . S
C247 H274 0.930 . S
C248 C247 1.390 . S
C248 C249 1.391 . S
C248 H275 0.930 . S
C249 C245 1.387 . S
C249 C248 1.391 . S
C250 Tb240 2.825 . S
C250 C244 1.507 . S
C250 O263 1.238 . S
C250 O264 1.247 . S
O251 Tb240 2.347 . S
O251 C255 1.259 . S
O252 Eu241 2.418 . S
O252 C255 1.265 . S
O253 Eu241 2.384 . S
O253 C262 1.255 . S
O254 Tb240 2.366 . S
O254 C262 1.265 . S
C255 O251 1.259 . S
C255 O252 1.265 . S
O256 Eu241 2.479 . S
O256 C271 1.238 . S
O257 Eu241 2.471 . S
O257 C271 1.247 . S
O258 Eu241 2.347 . S
O258 C242 1.259 . S
O259 Tb240 2.418 . S
O259 C242 1.265 . S
O260 Tb240 2.384 . S
O260 C243 1.255 . S
O261 Eu241 2.366 . S
O261 C243 1.265 . S
C262 O253 1.255 . S
C262 O254 1.265 . S
O263 Tb240 2.479 . S
O263 C250 1.238 . S
O264 Tb240 2.471 . S
O264 C250 1.247 . S
C265 C268 1.380 . S
C265 C269 1.374 . S
C265 C271 1.507 . S
C266 C267 1.387 . S
C266 C270 1.391 . S
C267 C266 1.387 . S
C267 C268 1.384 . S
C267 H276 0.930 . S
C268 C265 1.380 . S
C268 C267 1.384 . S
C268 H277 0.931 . S
C269 C265 1.374 . S
C269 C270 1.390 . S
C269 H278 0.930 . S
C270 C266 1.391 . S
C270 C269 1.390 . S
C270 H279 0.930 1_556 S
C271 Eu241 2.825 . S
C271 O256 1.238 . S
C271 O257 1.247 . S
C271 C265 1.507 . S
H272 C245 0.930 . S
H273 C246 0.931 . S
H274 C247 0.930 . S
H275 C248 0.930 . S
H276 C267 0.930 . S
H277 C268 0.931 . S
H278 C269 0.930 . S
H279 C270 0.930 1_554 S
Tb280 C290 2.825 . S
Tb280 O291 2.347 . S
Tb280 O294 2.366 . S
Tb280 O299 2.418 . S
Tb280 O300 2.384 . S
Tb280 O303 2.479 . S
Tb280 O304 2.471 . S
Eu281 O292 2.418 . S
Eu281 O293 2.384 . S
Eu281 O296 2.479 . S
Eu281 O297 2.471 . S
Eu281 O298 2.347 . S
Eu281 O301 2.366 . S
Eu281 C311 2.825 . S
C282 O298 1.259 . S
C282 O299 1.265 . S
C283 O300 1.255 . S
C283 O301 1.265 . S
C284 C286 1.380 . S
C284 C287 1.374 . S
C284 C290 1.507 . S
C285 C286 1.384 . S
C285 C289 1.387 . S
C285 H312 0.930 . S
C286 C284 1.380 . S
C286 C285 1.384 . S
C286 H313 0.931 . S
C287 C284 1.374 . S
C287 C288 1.390 . S
C287 H314 0.930 . S
C288 C287 1.390 . S
C288 C289 1.391 . S
C288 H315 0.930 . S
C289 C285 1.387 . S
C289 C288 1.391 . S
C290 Tb280 2.825 . S
C290 C284 1.507 . S
C290 O303 1.238 . S
C290 O304 1.247 . S
O291 Tb280 2.347 . S
O291 C295 1.259 . S
O292 Eu281 2.418 . S
O292 C295 1.265 . S
O293 Eu281 2.384 . S
O293 C302 1.255 . S
O294 Tb280 2.366 . S
O294 C302 1.265 . S
C295 O291 1.259 . S
C295 O292 1.265 . S
O296 Eu281 2.479 . S
O296 C311 1.238 . S
O297 Eu281 2.471 . S
O297 C311 1.247 . S
O298 Eu281 2.347 . S
O298 C282 1.259 . S
O299 Tb280 2.418 . S
O299 C282 1.265 . S
O300 Tb280 2.384 . S
O300 C283 1.255 . S
O301 Eu281 2.366 . S
O301 C283 1.265 . S
C302 O293 1.255 . S
C302 O294 1.265 . S
O303 Tb280 2.479 . S
O303 C290 1.238 . S
O304 Tb280 2.471 . S
O304 C290 1.247 . S
C305 C308 1.380 . S
C305 C309 1.374 . S
C305 C311 1.507 . S
C306 C307 1.387 1_556 S
C306 C310 1.391 . S
C307 C306 1.387 1_554 S
C307 C308 1.384 1_554 S
C307 H316 0.930 . S
C308 C305 1.380 . S
C308 C307 1.384 1_556 S
C308 H317 0.931 . S
C309 C305 1.374 . S
C309 C310 1.390 . S
C309 H318 0.930 . S
C310 C306 1.391 . S
C310 C309 1.390 . S
C310 H319 0.930 . S
C311 Eu281 2.825 . S
C311 O296 1.238 . S
C311 O297 1.247 . S
C311 C305 1.507 . S
H312 C285 0.930 . S
H313 C286 0.931 . S
H314 C287 0.930 . S
H315 C288 0.930 . S
H316 C307 0.930 . S
H317 C308 0.931 . S
H318 C309 0.930 . S
H319 C310 0.930 . S
Co320 O323 2.042 . S
Co320 O330 2.264 . S
Co320 O349 2.286 . S
Co320 O350 2.069 . S
Co320 O352 2.015 1_455 S
Co321 O323 2.122 . S
Co321 O329 2.073 . S
Co321 O330 2.327 . S
Co321 O331 1.976 1_455 S
Co322 O323 2.087 1_545 S
Co322 O325 2.087 1_455 S
Co322 O332 2.111 1_445 S
Co322 O333 2.143 . S
Co322 O337 2.111 . S
Co322 O351 2.143 1_445 S
O323 Co320 2.042 . S
O323 Co321 2.122 . S
O323 Co322 2.087 1_565 S
O323 H324 0.980 1_565 S
H324 O323 0.980 1_545 S
O325 Co322 2.087 1_655 S
O325 Co326 2.042 . S
O325 Co327 2.122 . S
O325 H328 0.980 . S
Co326 O325 2.042 . S
Co326 O334 2.286 . S
Co326 O335 2.069 . S
Co326 O336 2.015 1_655 S
Co326 O339 2.264 . S
Co327 O325 2.122 . S
Co327 O338 1.976 1_655 S
Co327 O339 2.327 . S
Co327 O340 2.073 . S
H328 O325 0.980 . S
O329 Co321 2.073 . S
O329 C344 1.245 . S
O330 Co320 2.264 . S
O330 Co321 2.327 . S
O330 C344 1.257 . S
O331 Co321 1.976 1_655 S
O331 C343 1.251 . S
O332 Co322 2.111 1_665 S
O332 C343 1.274 . S
O333 Co322 2.143 . S
O333 C346 1.246 . S
O334 Co326 2.286 . S
O334 C345 1.259 . S
O335 Co326 2.069 . S
O335 C345 1.289 . S
O336 Co326 2.015 1_455 S
O336 C346 1.257 . S
O337 Co322 2.111 . S
O337 C347 1.274 . S
O338 Co327 1.976 1_455 S
O338 C347 1.251 . S
O339 Co326 2.264 . S
O339 Co327 2.327 . S
O339 C348 1.257 . S
O340 Co327 2.073 . S
O340 C348 1.245 . S
C341 O349 1.259 . S
C341 O350 1.289 . S
C342 O351 1.246 . S
C342 O352 1.257 . S
C343 O331 1.251 . S
C343 O332 1.274 . S
C344 O329 1.245 . S
C344 O330 1.257 . S
C345 O334 1.259 . S
C345 O335 1.289 . S
C346 O333 1.246 . S
C346 O336 1.257 . S
C347 O337 1.274 . S
C347 O338 1.251 . S
C348 O339 1.257 . S
C348 O340 1.245 . S
O349 Co320 2.286 . S
O349 C341 1.259 . S
O350 Co320 2.069 . S
O350 C341 1.289 . S
O351 Co322 2.143 1_665 S
O351 C342 1.246 . S
O352 Co320 2.015 1_655 S
O352 C342 1.257 . S
Co353 O356 2.042 . S
Co353 O363 2.264 . S
Co353 O382 2.286 1_554 S
Co353 O383 2.069 . S
Co353 O385 2.015 . S
Co354 O356 2.122 . S
Co354 O362 2.073 . S
Co354 O363 2.327 . S
Co354 O364 1.976 . S
Co355 O356 2.087 1_545 S
Co355 O358 2.087 . S
Co355 O365 2.111 1_545 S
Co355 O366 2.143 . S
Co355 O370 2.111 . S
Co355 O384 2.143 1_545 S
O356 Co353 2.042 . S
O356 Co354 2.122 . S
O356 Co355 2.087 1_565 S
O356 H357 0.980 . S
H357 O356 0.980 . S
O358 Co355 2.087 . S
O358 Co359 2.042 . S
O358 Co360 2.122 1_554 S
O358 H361 0.980 . S
Co359 O358 2.042 . S
Co359 O367 2.286 . S
Co359 O368 2.069 . S
Co359 O369 2.015 . S
Co359 O372 2.264 . S
Co360 O358 2.122 1_556 S
Co360 O371 1.976 . S
Co360 O372 2.327 1_556 S
Co360 O373 2.073 . S
H361 O358 0.980 . S
O362 Co354 2.073 . S
O362 C377 1.245 . S
O363 Co353 2.264 . S
O363 Co354 2.327 . S
O363 C377 1.257 . S
O364 Co354 1.976 . S
O364 C376 1.251 . S
O365 Co355 2.111 1_565 S
O365 C376 1.274 . S
O366 Co355 2.143 . S
O366 C379 1.246 . S
O367 Co359 2.286 . S
O367 C378 1.259 . S
O368 Co359 2.069 . S
O368 C378 1.289 . S
O369 Co359 2.015 . S
O369 C379 1.257 . S
O370 Co355 2.111 . S
O370 C380 1.274 1_554 S
O371 Co360 1.976 . S
O371 C380 1.250 . S
O372 Co359 2.264 . S
O372 Co360 2.327 1_554 S
O372 C381 1.257 . S
O373 Co360 2.073 . S
O373 C381 1.245 1_556 S
C374 O382 1.259 . S
C374 O383 1.289 1_556 S
C375 O384 1.246 1_556 S
C375 O385 1.257 1_556 S
C376 O364 1.251 . S
C376 O365 1.274 . S
C377 O362 1.245 . S
C377 O363 1.257 . S
C378 O367 1.259 . S
C378 O368 1.289 . S
C379 O366 1.246 . S
C379 O369 1.257 . S
C380 O370 1.274 1_556 S
C380 O371 1.250 . S
C381 O372 1.257 . S
C381 O373 1.245 1_554 S
O382 Co353 2.286 1_556 S
O382 C374 1.259 . S
O383 Co353 2.069 . S
O383 C374 1.289 1_554 S
O384 Co355 2.143 1_565 S
O384 C375 1.246 1_554 S
O385 Co353 2.015 . S
O385 C375 1.257 1_554 S
Co386 O389 2.042 1_556 S
Co386 O396 2.264 1_556 S
Co386 O415 2.286 . S
Co386 O416 2.069 . S
Co386 O418 2.015 1_455 S
Co387 O389 2.122 . S
Co387 O395 2.073 . S
Co387 O396 2.327 . S
Co387 O397 1.976 1_455 S
Co388 O389 2.087 . S
Co388 O391 2.087 1_554 S
Co388 O398 2.111 1_455 S
Co388 O399 2.143 . S
Co388 O403 2.111 1_554 S
Co388 O417 2.143 1_454 S
O389 Co386 2.042 1_554 S
O389 Co387 2.122 . S
O389 Co388 2.087 . S
O389 H390 0.980 . S
H390 O389 0.980 . S
O391 Co388 2.087 1_556 S
O391 Co392 2.042 1_556 S
O391 Co393 2.122 . S
O391 H394 0.980 1_455 S
Co392 O391 2.042 1_554 S
Co392 O400 2.286 . S
Co392 O401 2.069 1_455 S
Co392 O402 2.015 . S
Co392 O405 2.264 1_554 S
Co393 O391 2.122 . S
Co393 O404 1.976 . S
Co393 O405 2.327 . S
Co393 O406 2.073 1_455 S
H394 O391 0.980 1_655 S
O395 Co387 2.073 . S
O395 C410 1.245 . S
O396 Co386 2.264 1_554 S
O396 Co387 2.327 . S
O396 C410 1.257 . S
O397 Co387 1.976 1_655 S
O397 C409 1.251 . S
O398 Co388 2.111 1_655 S
O398 C409 1.274 . S
O399 Co388 2.143 . S
O399 C412 1.246 . S
O400 Co392 2.286 . S
O400 C411 1.259 1_455 S
O401 Co392 2.069 1_655 S
O401 C411 1.289 . S
O402 Co392 2.015 . S
O402 C412 1.257 . S
O403 Co388 2.111 1_556 S
O403 C413 1.274 . S
O404 Co393 1.976 . S
O404 C413 1.251 . S
O405 Co392 2.264 1_556 S
O405 Co393 2.327 . S
O405 C414 1.257 1_455 S
O406 Co393 2.073 1_655 S
O406 C414 1.245 . S
C407 O415 1.259 . S
C407 O416 1.289 . S
C408 O417 1.246 . S
C408 O418 1.257 . S
C409 O397 1.251 . S
C409 O398 1.274 . S
C410 O395 1.245 . S
C410 O396 1.257 . S
C411 O400 1.259 1_655 S
C411 O401 1.289 . S
C412 O399 1.246 . S
C412 O402 1.257 . S
C413 O403 1.274 . S
C413 O404 1.251 . S
C414 O405 1.257 1_655 S
C414 O406 1.245 . S
O415 Co386 2.286 . S
O415 C407 1.259 . S
O416 Co386 2.069 . S
O416 C407 1.289 . S
O417 Co388 2.143 1_656 S
O417 C408 1.246 . S
O418 Co386 2.015 1_655 S
O418 C408 1.257 . S
Co419 O422 2.042 . S
Co419 O429 2.263 . S
Co419 O448 2.286 1_554 S
Co419 O449 2.069 1_554 S
Co419 O451 2.015 1_554 S
Co420 O422 2.122 . S
Co420 O428 2.073 . S
Co420 O429 2.327 . S
Co420 O430 1.976 . S
Co421 O422 2.087 . S
Co421 O424 2.087 . S
Co421 O431 2.111 . S
Co421 O432 2.143 . S
Co421 O436 2.111 1_554 S
Co421 O450 2.143 1_554 S
O422 Co419 2.042 . S
O422 Co420 2.122 . S
O422 Co421 2.087 . S
O422 H423 0.980 . S
H423 O422 0.980 . S
O424 Co421 2.087 . S
O424 Co425 2.042 . S
O424 Co426 2.122 1_554 S
O424 H427 0.980 . S
Co425 O424 2.042 . S
Co425 O433 2.286 . S
Co425 O434 2.069 . S
Co425 O435 2.015 . S
Co425 O438 2.271 . S
Co426 O424 2.122 1_556 S
Co426 O437 1.976 . S
Co426 O438 2.323 1_556 S
Co426 O439 2.073 . S
H427 O424 0.980 . S
O428 Co420 2.073 . S
O428 C443 1.245 . S
O429 Co419 2.263 . S
O429 Co420 2.327 . S
O429 C443 1.257 . S
O430 Co420 1.976 . S
O430 C442 1.251 . S
O431 Co421 2.111 . S
O431 C442 1.274 . S
O432 Co421 2.143 . S
O432 C445 1.246 . S
O433 Co425 2.286 . S
O433 C444 1.259 . S
O434 Co425 2.069 . S
O434 C444 1.289 . S
O435 Co425 2.015 . S
O435 C445 1.257 . S
O436 Co421 2.111 1_556 S
O436 C446 1.274 . S
O437 Co426 1.976 . S
O437 C446 1.251 . S
O438 Co425 2.271 . S
O438 Co426 2.323 1_554 S
O438 C447 1.254 1_554 S
O439 Co426 2.073 . S
O439 C447 1.245 . S
C440 O448 1.259 . S
C440 O449 1.289 . S
C441 O450 1.246 . S
C441 O451 1.257 . S
C442 O430 1.251 . S
C442 O431 1.274 . S
C443 O428 1.245 . S
C443 O429 1.257 . S
C444 O433 1.259 . S
C444 O434 1.289 . S
C445 O432 1.246 . S
C445 O435 1.257 . S
C446 O436 1.274 . S
C446 O437 1.251 . S
C447 O438 1.254 1_556 S
C447 O439 1.245 . S
O448 Co419 2.286 1_556 S
O448 C440 1.259 . S
O449 Co419 2.069 1_556 S
O449 C440 1.289 . S
O450 Co421 2.143 1_556 S
O450 C441 1.246 . S
O451 Co419 2.015 1_556 S
O451 C441 1.257 . S
Co452 O455 2.042 . S
Co452 O462 2.264 . S
Co452 O481 2.286 . S
Co452 O482 2.069 . S
Co452 O484 2.015 . S
Co453 O455 2.122 . S
Co453 O461 2.073 . S
Co453 O462 2.327 . S
Co453 O463 1.976 . S
Co454 O455 2.087 . S
Co454 O457 2.087 1_455 S
Co454 O464 2.111 . S
Co454 O465 2.143 1_455 S
Co454 O469 2.111 1_455 S
Co454 O483 2.143 . S
O455 Co452 2.042 . S
O455 Co453 2.122 . S
O455 Co454 2.087 . S
O455 H456 0.980 . S
H456 O455 0.980 . S
O457 Co454 2.087 1_655 S
O457 Co458 2.042 . S
O457 Co459 2.122 . S
O457 H460 0.980 . S
Co458 O457 2.042 . S
Co458 O466 2.286 . S
Co458 O467 2.069 . S
Co458 O468 2.015 . S
Co458 O471 2.264 . S
Co459 O457 2.122 . S
Co459 O470 1.976 . S
Co459 O471 2.327 . S
Co459 O472 2.073 . S
H460 O457 0.980 . S
O461 Co453 2.073 . S
O461 C476 1.245 . S
O462 Co452 2.264 . S
O462 Co453 2.327 . S
O462 C476 1.257 . S
O463 Co453 1.976 . S
O463 C475 1.251 . S
O464 Co454 2.111 . S
O464 C475 1.274 . S
O465 Co454 2.143 1_655 S
O465 C478 1.246 . S
O466 Co458 2.286 . S
O466 C477 1.259 . S
O467 Co458 2.069 . S
O467 C477 1.289 . S
O468 Co458 2.015 . S
O468 C478 1.257 . S
O469 Co454 2.111 1_655 S
O469 C479 1.274 . S
O470 Co459 1.976 . S
O470 C479 1.251 . S
O471 Co458 2.264 . S
O471 Co459 2.327 . S
O471 C480 1.257 . S
O472 Co459 2.073 . S
O472 C480 1.245 . S
C473 O481 1.259 . S
C473 O482 1.289 . S
C474 O483 1.246 . S
C474 O484 1.257 . S
C475 O463 1.251 . S
C475 O464 1.274 . S
C476 O461 1.245 . S
C476 O462 1.257 . S
C477 O466 1.259 . S
C477 O467 1.289 . S
C478 O465 1.246 . S
C478 O468 1.257 . S
C479 O469 1.274 . S
C479 O470 1.251 . S
C480 O471 1.257 . S
C480 O472 1.245 . S
O481 Co452 2.286 . S
O481 C473 1.259 . S
O482 Co452 2.069 . S
O482 C473 1.289 . S
O483 Co454 2.143 . S
O483 C474 1.246 . S
O484 Co452 2.015 . S
O484 C474 1.257 . S
Co485 O488 2.042 . S
Co485 O495 2.264 . S
Co485 O514 2.286 . S
Co485 O515 2.069 1_545 S
Co485 O517 2.015 . S
Co486 O488 2.122 . S
Co486 O494 2.073 1_545 S
Co486 O495 2.327 . S
Co486 O496 1.976 . S
Co487 O488 2.087 . S
Co487 O490 2.087 . S
Co487 O497 2.111 . S
Co487 O498 2.143 1_545 S
Co487 O502 2.111 1_545 S
Co487 O516 2.143 . S
O488 Co485 2.042 . S
O488 Co486 2.122 . S
O488 Co487 2.087 . S
O488 H489 0.980 1_545 S
H489 O488 0.980 1_565 S
O490 Co487 2.087 . S
O490 Co491 2.042 . S
O490 Co492 2.122 . S
O490 H493 0.980 . S
Co491 O490 2.042 . S
Co491 O499 2.286 . S
Co491 O500 2.069 . S
Co491 O501 2.015 1_545 S
Co491 O504 2.264 . S
Co492 O490 2.122 . S
Co492 O503 1.976 1_545 S
Co492 O504 2.327 . S
Co492 O505 2.073 . S
H493 O490 0.980 . S
O494 Co486 2.073 1_565 S
O494 C509 1.245 . S
O495 Co485 2.264 . S
O495 Co486 2.327 . S
O495 C509 1.257 1_545 S
O496 Co486 1.976 . S
O496 C508 1.251 . S
O497 Co487 2.111 . S
O497 C508 1.274 . S
O498 Co487 2.143 1_565 S
O498 C511 1.246 . S
O499 Co491 2.286 . S
O499 C510 1.259 . S
O500 Co491 2.069 . S
O500 C510 1.289 . S
O501 Co491 2.015 1_565 S
O501 C511 1.257 . S
O502 Co487 2.111 1_565 S
O502 C512 1.274 . S
O503 Co492 1.976 1_565 S
O503 C512 1.251 . S
O504 Co491 2.264 . S
O504 Co492 2.327 . S
O504 C513 1.257 . S
O505 Co492 2.073 . S
O505 C513 1.245 . S
C506 O514 1.259 1_565 S
C506 O515 1.289 . S
C507 O516 1.246 . S
C507 O517 1.257 . S
C508 O496 1.251 . S
C508 O497 1.274 . S
C509 O494 1.245 . S
C509 O495 1.257 1_565 S
C510 O499 1.259 . S
C510 O500 1.289 . S
C511 O498 1.246 . S
C511 O501 1.257 . S
C512 O502 1.274 . S
C512 O503 1.251 . S
C513 O504 1.257 . S
C513 O505 1.245 . S
O514 Co485 2.286 . S
O514 C506 1.259 1_545 S
O515 Co485 2.069 1_565 S
O515 C506 1.289 . S
O516 Co487 2.143 . S
O516 C507 1.246 . S
O517 Co485 2.015 . S
O517 C507 1.257 . S
C518 C519 1.387 . S
C518 H522 0.950 . S
C518 C527 1.390 . S
C519 C518 1.387 . S
C519 C521 1.387 . S
H520 C527 0.950 . S
C521 C519 1.387 . S
C521 C523 1.390 . S
C521 H525 0.950 . S
H522 C518 0.950 . S
C523 C521 1.390 . S
C523 C524 1.387 . S
C523 H526 0.950 . S
C524 C523 1.387 . S
C524 C527 1.387 . S
H525 C521 0.950 . S
H526 C523 0.950 . S
C527 C518 1.390 . S
C527 H520 0.950 . S
C527 C524 1.387 . S
C528 C529 1.387 . S
C528 H532 0.950 . S
C528 C537 1.390 . S
C529 C528 1.387 . S
C529 C531 1.387 . S
H530 C537 0.950 . S
C531 C529 1.387 . S
C531 C533 1.390 . S
C531 H535 0.950 . S
H532 C528 0.950 . S
C533 C531 1.390 . S
C533 C534 1.387 . S
C533 H536 0.950 . S
C534 C533 1.387 . S
C534 C537 1.387 . S
H535 C531 0.950 . S
H536 C533 0.950 . S
C537 C528 1.390 . S
C537 H530 0.950 . S
C537 C534 1.387 . S
C538 C539 1.387 . S
C538 H542 0.950 . S
C538 C547 1.390 . S
C539 C538 1.387 . S
C539 C541 1.387 . S
H540 C547 0.950 . S
C541 C539 1.387 . S
C541 C543 1.390 . S
C541 H545 0.950 . S
H542 C538 0.950 . S
C543 C541 1.390 . S
C543 C544 1.387 . S
C543 H546 0.950 . S
C544 C543 1.387 . S
C544 C547 1.387 . S
H545 C541 0.950 . S
H546 C543 0.950 . S
C547 C538 1.390 . S
C547 H540 0.950 . S
C547 C544 1.387 . S
C548 C549 1.387 . S
C548 H552 0.950 . S
C548 C557 1.390 . S
C549 C548 1.387 . S
C549 C551 1.387 . S
H550 C557 0.950 . S
C551 C549 1.387 . S
C551 C553 1.390 . S
C551 H555 0.950 . S
H552 C548 0.950 . S
C553 C551 1.390 . S
C553 C554 1.387 . S
C553 H556 0.950 . S
C554 C553 1.387 . S
C554 C557 1.387 . S
H555 C551 0.950 . S
H556 C553 0.950 . S
C557 C548 1.390 . S
C557 H550 0.950 . S
C557 C554 1.387 . S
C558 C559 1.387 . S
C558 H562 0.950 . S
C558 C567 1.390 . S
C559 C558 1.387 . S
C559 C561 1.387 . S
H560 C567 0.950 . S
C561 C559 1.387 . S
C561 C563 1.390 . S
C561 H565 0.950 . S
H562 C558 0.950 . S
C563 C561 1.390 . S
C563 C564 1.387 . S
C563 H566 0.950 . S
C564 C563 1.387 . S
C564 C567 1.387 . S
H565 C561 0.950 . S
H566 C563 0.950 . S
C567 C558 1.390 . S
C567 H560 0.950 . S
C567 C564 1.387 . S
C568 C569 1.387 . S
C568 H572 0.950 . S
C568 C577 1.390 . S
C569 C568 1.387 . S
C569 C571 1.387 . S
H570 C577 0.950 . S
C571 C569 1.387 . S
C571 C573 1.390 . S
C571 H575 0.950 . S
H572 C568 0.950 . S
C573 C571 1.390 . S
C573 C574 1.387 . S
C573 H576 0.950 . S
C574 C573 1.387 . S
C574 C577 1.387 . S
H575 C571 0.950 . S
H576 C573 0.950 . S
C577 C568 1.390 . S
C577 H570 0.950 . S
C577 C574 1.387 . S
C578 C579 1.387 . S
C578 H582 0.950 . S
C578 C587 1.390 . S
C579 C578 1.387 . S
C579 C581 1.387 . S
H580 C587 0.950 . S
C581 C579 1.387 . S
C581 C583 1.390 . S
C581 H585 0.950 . S
H582 C578 0.950 . S
C583 C581 1.390 . S
C583 C584 1.387 . S
C583 H586 0.950 . S
C584 C583 1.387 . S
C584 C587 1.387 . S
H585 C581 0.950 . S
H586 C583 0.950 . S
C587 C578 1.390 . S
C587 H580 0.950 . S
C587 C584 1.387 . S
C588 C589 1.387 . S
C588 H592 0.950 . S
C588 C597 1.390 . S
C589 C588 1.387 . S
C589 C591 1.387 . S
H590 C597 0.950 . S
C591 C589 1.387 . S
C591 C593 1.390 . S
C591 H595 0.950 . S
H592 C588 0.950 . S
C593 C591 1.390 . S
C593 C594 1.387 . S
C593 H596 0.950 . S
C594 C593 1.387 . S
C594 C597 1.387 . S
H595 C591 0.950 . S
H596 C593 0.950 . S
C597 C588 1.390 . S
C597 H590 0.950 . S
C597 C594 1.387 . S
C598 C599 1.387 . S
C598 H602 0.950 . S
C598 C607 1.390 . S
C599 C598 1.387 . S
C599 C601 1.387 . S
H600 C607 0.950 . S
C601 C599 1.387 . S
C601 C603 1.390 . S
C601 H605 0.950 . S
H602 C598 0.950 . S
C603 C601 1.390 . S
C603 C604 1.387 . S
C603 H606 0.950 . S
C604 C603 1.387 . S
C604 C607 1.387 . S
H605 C601 0.950 . S
H606 C603 0.950 . S
C607 C598 1.390 . S
C607 H600 0.950 . S
C607 C604 1.387 . S
C608 C609 1.387 . S
C608 H612 0.950 . S
C608 C617 1.390 . S
C609 C608 1.387 . S
C609 C611 1.387 . S
H610 C617 0.950 . S
C611 C609 1.387 . S
C611 C613 1.390 . S
C611 H615 0.950 . S
H612 C608 0.950 . S
C613 C611 1.390 . S
C613 C614 1.387 . S
C613 H616 0.950 . S
C614 C613 1.387 . S
C614 C617 1.387 . S
H615 C611 0.950 . S
H616 C613 0.950 . S
C617 C608 1.390 . S
C617 H610 0.950 . S
C617 C614 1.387 . S
C618 C619 1.387 . S
C618 H622 0.950 . S
C618 C627 1.390 . S
C619 C618 1.387 . S
C619 C621 1.387 . S
H620 C627 0.950 . S
C621 C619 1.387 . S
C621 C623 1.390 . S
C621 H625 0.950 . S
H622 C618 0.950 . S
C623 C621 1.390 . S
C623 C624 1.387 . S
C623 H626 0.950 . S
C624 C623 1.387 . S
C624 C627 1.387 . S
H625 C621 0.950 . S
H626 C623 0.950 . S
C627 C618 1.390 . S
C627 H620 0.950 . S
C627 C624 1.387 . S
C628 C629 1.387 . S
C628 H632 0.950 . S
C628 C637 1.390 . S
C629 C628 1.387 . S
C629 C631 1.387 . S
H630 C637 0.950 . S
C631 C629 1.387 . S
C631 C633 1.390 . S
C631 H635 0.950 . S
H632 C628 0.950 . S
C633 C631 1.390 . S
C633 C634 1.387 . S
C633 H636 0.950 . S
C634 C633 1.387 . S
C634 C637 1.387 . S
H635 C631 0.950 . S
H636 C633 0.950 . S
C637 C628 1.390 . S
C637 H630 0.950 . S
C637 C634 1.387 . S
C638 C639 1.387 . S
C638 H642 0.950 . S
C638 C647 1.390 . S
C639 C638 1.387 . S
C639 C641 1.387 . S
H640 C647 0.950 . S
C641 C639 1.387 . S
C641 C643 1.390 . S
C641 H645 0.950 . S
H642 C638 0.950 . S
C643 C641 1.390 . S
C643 C644 1.387 . S
C643 H646 0.950 . S
C644 C643 1.387 . S
C644 C647 1.387 . S
H645 C641 0.950 . S
H646 C643 0.950 . S
C647 C638 1.390 . S
C647 H640 0.950 . S
C647 C644 1.387 . S
C648 C649 1.387 . S
C648 H652 0.950 . S
C648 C657 1.390 . S
C649 C648 1.387 . S
C649 C651 1.387 . S
H650 C657 0.950 . S
C651 C649 1.387 . S
C651 C653 1.390 . S
C651 H655 0.950 . S
H652 C648 0.950 . S
C653 C651 1.390 . S
C653 C654 1.387 . S
C653 H656 0.950 . S
C654 C653 1.387 . S
C654 C657 1.387 . S
H655 C651 0.950 . S
H656 C653 0.950 . S
C657 C648 1.390 . S
C657 H650 0.950 . S
C657 C654 1.387 . S
C658 C659 1.387 . S
C658 H662 0.950 . S
C658 C667 1.390 . S
C659 C658 1.387 . S
C659 C661 1.387 . S
H660 C667 0.950 1_554 S
C661 C659 1.387 . S
C661 C663 1.390 . S
C661 H665 0.950 . S
H662 C658 0.950 . S
C663 C661 1.390 . S
C663 C664 1.387 . S
C663 H666 0.950 . S
C664 C663 1.387 . S
C664 C667 1.387 . S
H665 C661 0.950 . S
H666 C663 0.950 . S
C667 C658 1.390 . S
C667 H660 0.950 1_556 S
C667 C664 1.387 . S
C668 C669 1.387 . S
C668 H672 0.950 . S
C668 C677 1.390 . S
C669 C668 1.387 . S
C669 C671 1.387 1_556 S
H670 C677 0.950 . S
C671 C669 1.387 1_554 S
C671 C673 1.390 . S
C671 H675 0.950 . S
H672 C668 0.950 . S
C673 C671 1.390 . S
C673 C674 1.387 1_554 S
C673 H676 0.950 . S
C674 C673 1.387 1_556 S
C674 C677 1.387 . S
H675 C671 0.950 . S
H676 C673 0.950 . S
C677 C668 1.390 . S
C677 H670 0.950 . S
C677 C674 1.387 . S
C678 C679 1.387 1_556 S
C678 H682 0.950 . S
C678 C687 1.390 1_556 S
C679 C678 1.387 1_554 S
C679 C681 1.387 . S
H680 C687 0.950 1_556 S
C681 C679 1.387 . S
C681 C683 1.390 . S
C681 H685 0.950 . S
H682 C678 0.950 . S
C683 C681 1.390 . S
C683 C684 1.387 . S
C683 H686 0.950 . S
C684 C683 1.387 . S
C684 C687 1.387 . S
H685 C681 0.950 . S
H686 C683 0.950 . S
C687 C678 1.390 1_554 S
C687 H680 0.950 1_554 S
C687 C684 1.387 . S
C688 C689 1.387 . S
C688 H692 0.950 . S
C688 C697 1.390 . S
C689 C688 1.387 . S
C689 C691 1.387 . S
H690 C697 0.950 . S
C691 C689 1.387 . S
C691 C693 1.390 . S
C691 H695 0.950 . S
H692 C688 0.950 . S
C693 C691 1.390 . S
C693 C694 1.387 . S
C693 H696 0.950 . S
C694 C693 1.387 . S
C694 C697 1.387 . S
H695 C691 0.950 . S
H696 C693 0.950 . S
C697 C688 1.390 . S
C697 H690 0.950 . S
C697 C694 1.387 . S
C698 C699 1.387 . S
C698 H702 0.950 . S
C698 C707 1.390 . S
C699 C698 1.387 . S
C699 C701 1.371 1_556 S
H700 C707 0.950 . S
C701 C699 1.371 1_554 S
C701 C703 1.399 . S
C701 H705 0.958 . S
H702 C698 0.950 . S
C703 C701 1.399 . S
C703 C704 1.387 1_554 S
C703 H706 0.950 . S
C704 C703 1.387 1_556 S
C704 C707 1.387 . S
H705 C701 0.958 . S
H706 C703 0.950 . S
C707 C698 1.390 . S
C707 H700 0.950 . S
C707 C704 1.387 . S
C708 C709 1.387 . S
C708 H712 0.950 . S
C708 C717 1.390 . S
C709 C708 1.387 . S
C709 C711 1.387 . S
H710 C717 0.950 . S
C711 C709 1.387 . S
C711 C713 1.390 . S
C711 H715 0.950 . S
H712 C708 0.950 . S
C713 C711 1.390 . S
C713 C714 1.387 . S
C713 H716 0.950 . S
C714 C713 1.387 . S
C714 C717 1.387 . S
H715 C711 0.950 . S
H716 C713 0.950 . S
C717 C708 1.390 . S
C717 H710 0.950 . S
C717 C714 1.387 . S
C718 C719 1.387 . S
C718 H722 0.950 . S
C718 C727 1.390 . S
C719 C718 1.387 . S
C719 C721 1.387 . S
H720 C727 0.950 . S
C721 C719 1.387 . S
C721 C723 1.390 . S
C721 H725 0.950 . S
H722 C718 0.950 . S
C723 C721 1.390 . S
C723 C724 1.387 . S
C723 H726 0.950 . S
C724 C723 1.387 . S
C724 C727 1.387 . S
H725 C721 0.950 . S
H726 C723 0.950 . S
C727 C718 1.390 . S
C727 H720 0.950 . S
C727 C724 1.387 . S
C728 C729 1.387 . S
C728 H732 0.950 . S
C728 C737 1.390 . S
C729 C728 1.387 . S
C729 C731 1.387 . S
H730 C737 0.950 . S
C731 C729 1.387 . S
C731 C733 1.390 . S
C731 H735 0.950 . S
H732 C728 0.950 . S
C733 C731 1.390 . S
C733 C734 1.387 . S
C733 H736 0.950 . S
C734 C733 1.387 . S
C734 C737 1.387 . S
H735 C731 0.950 . S
H736 C733 0.950 . S
C737 C728 1.390 . S
C737 H730 0.950 . S
C737 C734 1.387 . S
C738 C739 1.387 . S
C738 H742 0.950 . S
C738 C747 1.390 . S
C739 C738 1.387 . S
C739 C741 1.387 . S
H740 C747 0.950 . S
C741 C739 1.387 . S
C741 C743 1.390 . S
C741 H745 0.950 . S
H742 C738 0.950 . S
C743 C741 1.390 . S
C743 C744 1.387 . S
C743 H746 0.950 . S
C744 C743 1.387 . S
C744 C747 1.387 . S
H745 C741 0.950 . S
H746 C743 0.950 . S
C747 C738 1.390 . S
C747 H740 0.950 . S
C747 C744 1.387 . S
C748 C749 1.387 . S
C748 H752 0.950 . S
C748 C757 1.390 . S
C749 C748 1.387 . S
C749 C751 1.387 . S
H750 C757 0.950 . S
C751 C749 1.387 . S
C751 C753 1.390 . S
C751 H755 0.950 . S
H752 C748 0.950 . S
C753 C751 1.390 . S
C753 C754 1.387 . S
C753 H756 0.950 . S
C754 C753 1.387 . S
C754 C757 1.387 . S
H755 C751 0.950 . S
H756 C753 0.950 . S
C757 C748 1.390 . S
C757 H750 0.950 . S
C757 C754 1.387 . S
C758 C759 1.387 . S
C758 H762 0.950 . S
C758 C767 1.390 . S
C759 C758 1.387 . S
C759 C761 1.387 . S
H760 C767 0.950 . S
C761 C759 1.387 . S
C761 C763 1.390 . S
C761 H765 0.950 . S
H762 C758 0.950 . S
C763 C761 1.390 . S
C763 C764 1.387 . S
C763 H766 0.950 . S
C764 C763 1.387 . S
C764 C767 1.387 . S
H765 C761 0.950 . S
H766 C763 0.950 . S
C767 C758 1.390 . S
C767 H760 0.950 . S
C767 C764 1.387 . S
C768 C769 1.387 . S
C768 H772 0.950 . S
C768 C777 1.390 . S
C769 C768 1.387 . S
C769 C771 1.387 . S
H770 C777 0.950 . S
C771 C769 1.387 . S
C771 C773 1.390 . S
C771 H775 0.950 . S
H772 C768 0.950 . S
C773 C771 1.390 . S
C773 C774 1.387 . S
C773 H776 0.950 . S
C774 C773 1.387 . S
C774 C777 1.387 . S
H775 C771 0.950 . S
H776 C773 0.950 . S
C777 C768 1.390 . S
C777 H770 0.950 . S
C777 C774 1.387 . S
C778 C779 1.387 . S
C778 H782 0.950 . S
C778 C787 1.390 . S
C779 C778 1.387 . S
C779 C781 1.387 . S
H780 C787 0.950 . S
C781 C779 1.387 . S
C781 C783 1.390 . S
C781 H785 0.950 . S
H782 C778 0.950 . S
C783 C781 1.390 . S
C783 C784 1.387 . S
C783 H786 0.950 . S
C784 C783 1.387 . S
C784 C787 1.387 . S
H785 C781 0.950 . S
H786 C783 0.950 . S
C787 C778 1.390 . S
C787 H780 0.950 . S
C787 C784 1.387 . S
C788 C789 1.387 1_554 S
C788 H792 0.950 . S
C788 C797 1.390 1_554 S
C789 C788 1.387 1_556 S
C789 C791 1.387 . S
H790 C797 0.950 1_554 S
C791 C789 1.387 . S
C791 C793 1.390 . S
C791 H795 0.950 . S
H792 C788 0.950 . S
C793 C791 1.390 . S
C793 C794 1.387 . S
C793 H796 0.950 . S
C794 C793 1.387 . S
C794 C797 1.387 . S
H795 C791 0.950 . S
H796 C793 0.950 . S
C797 C788 1.390 1_556 S
C797 H790 0.950 1_556 S
C797 C794 1.387 . S
C798 C799 1.387 . S
C798 H802 0.950 . S
C798 C807 1.390 . S
C799 C798 1.387 . S
C799 C801 1.387 . S
H800 C807 0.950 . S
C801 C799 1.387 . S
C801 C803 1.390 . S
C801 H805 0.950 . S
H802 C798 0.950 . S
C803 C801 1.390 . S
C803 C804 1.387 . S
C803 H806 0.950 . S
C804 C803 1.387 . S
C804 C807 1.387 . S
H805 C801 0.950 . S
H806 C803 0.950 . S
C807 C798 1.390 . S
C807 H800 0.950 . S
C807 C804 1.387 . S
C808 C809 1.387 . S
C808 H812 0.950 . S
C808 C817 1.390 . S
C809 C808 1.387 . S
C809 C811 1.387 . S
H810 C817 0.950 . S
C811 C809 1.387 . S
C811 C813 1.390 . S
C811 H815 0.950 . S
H812 C808 0.950 . S
C813 C811 1.390 . S
C813 C814 1.387 . S
C813 H816 0.950 . S
C814 C813 1.387 . S
C814 C817 1.387 . S
H815 C811 0.950 . S
H816 C813 0.950 . S
C817 C808 1.390 . S
C817 H810 0.950 . S
C817 C814 1.387 . S
C818 C819 1.387 . S
C818 H822 0.950 . S
C818 C827 1.390 . S
C819 C818 1.387 . S
C819 C821 1.387 . S
H820 C827 0.950 . S
C821 C819 1.387 . S
C821 C823 1.390 . S
C821 H825 0.950 . S
H822 C818 0.950 . S
C823 C821 1.390 . S
C823 C824 1.387 . S
C823 H826 0.950 . S
C824 C823 1.387 . S
C824 C827 1.387 . S
H825 C821 0.950 . S
H826 C823 0.950 . S
C827 C818 1.390 . S
C827 H820 0.950 . S
C827 C824 1.387 . S
C828 C829 1.387 . S
C828 H832 0.950 . S
C828 C837 1.390 . S
C829 C828 1.387 . S
C829 C831 1.387 . S
H830 C837 0.950 . S
C831 C829 1.387 . S
C831 C833 1.390 . S
C831 H835 0.950 . S
H832 C828 0.950 . S
C833 C831 1.390 . S
C833 C834 1.387 . S
C833 H836 0.950 . S
C834 C833 1.387 . S
C834 C837 1.387 . S
H835 C831 0.950 . S
H836 C833 0.950 . S
C837 C828 1.390 . S
C837 H830 0.950 . S
C837 C834 1.387 . S
C838 C839 1.387 . S
C838 H842 0.950 . S
C838 C847 1.390 . S
C839 C838 1.387 . S
C839 C841 1.387 . S
H840 C847 0.950 . S
C841 C839 1.387 . S
C841 C843 1.390 . S
C841 H845 0.950 . S
H842 C838 0.950 . S
C843 C841 1.390 . S
C843 C844 1.387 . S
C843 H846 0.950 . S
C844 C843 1.387 . S
C844 C847 1.387 . S
H845 C841 0.950 . S
H846 C843 0.950 . S
C847 C838 1.390 . S
C847 H840 0.950 . S
C847 C844 1.387 . S
C848 C849 1.387 . S
C848 H852 0.950 . S
C848 C857 1.390 . S
C849 C848 1.387 . S
C849 C851 1.387 . S
H850 C857 0.950 . S
C851 C849 1.387 . S
C851 C853 1.390 . S
C851 H855 0.950 . S
H852 C848 0.950 . S
C853 C851 1.390 . S
C853 C854 1.387 . S
C853 H856 0.950 . S
C854 C853 1.387 . S
C854 C857 1.387 . S
H855 C851 0.950 . S
H856 C853 0.950 . S
C857 C848 1.390 . S
C857 H850 0.950 . S
C857 C854 1.387 . S
C858 C859 1.387 . S
C858 H862 0.950 . S
C858 C867 1.390 . S
C859 C858 1.387 . S
C859 C861 1.387 . S
H860 C867 0.950 . S
C861 C859 1.387 . S
C861 C863 1.390 . S
C861 H865 0.950 . S
H862 C858 0.950 . S
C863 C861 1.390 . S
C863 C864 1.387 . S
C863 H866 0.950 . S
C864 C863 1.387 . S
C864 C867 1.387 . S
H865 C861 0.950 . S
H866 C863 0.950 . S
C867 C858 1.390 . S
C867 H860 0.950 . S
C867 C864 1.387 . S
C868 C869 1.387 . S
C868 H872 0.950 . S
C868 C877 1.390 . S
C869 C868 1.387 . S
C869 C871 1.387 . S
H870 C877 0.950 . S
C871 C869 1.387 . S
C871 C873 1.390 . S
C871 H875 0.950 . S
H872 C868 0.950 . S
C873 C871 1.390 . S
C873 C874 1.387 . S
C873 H876 0.950 . S
C874 C873 1.387 . S
C874 C877 1.387 . S
H875 C871 0.950 . S
H876 C873 0.950 . S
C877 C868 1.390 . S
C877 H870 0.950 . S
C877 C874 1.387 . S
C878 C879 1.387 . S
C878 H882 0.950 . S
C878 C887 1.390 . S
C879 C878 1.387 . S
C879 C881 1.387 . S
H880 C887 0.950 . S
C881 C879 1.387 . S
C881 C883 1.390 . S
C881 H885 0.950 . S
H882 C878 0.950 . S
C883 C881 1.390 . S
C883 C884 1.387 . S
C883 H886 0.950 . S
C884 C883 1.387 . S
C884 C887 1.387 . S
H885 C881 0.950 . S
H886 C883 0.950 . S
C887 C878 1.390 . S
C887 H880 0.950 . S
C887 C884 1.387 . S
C888 C889 1.387 . S
C888 H892 0.950 . S
C888 C897 1.390 . S
C889 C888 1.387 . S
C889 C891 1.387 . S
H890 C897 0.950 . S
C891 C889 1.387 . S
C891 C893 1.390 . S
C891 H895 0.950 . S
H892 C888 0.950 . S
C893 C891 1.390 . S
C893 C894 1.387 . S
C893 H896 0.950 . S
C894 C893 1.387 . S
C894 C897 1.387 . S
H895 C891 0.950 . S
H896 C893 0.950 . S
C897 C888 1.390 . S
C897 H890 0.950 . S
C897 C894 1.387 . S
C898 C899 1.387 . S
C898 H902 0.950 . S
C898 C907 1.390 . S
C899 C898 1.387 . S
C899 C901 1.387 . S
H900 C907 0.950 . S
C901 C899 1.387 . S
C901 C903 1.390 . S
C901 H905 0.950 . S
H902 C898 0.950 . S
C903 C901 1.390 . S
C903 C904 1.387 . S
C903 H906 0.950 . S
C904 C903 1.387 . S
C904 C907 1.387 . S
H905 C901 0.950 . S
H906 C903 0.950 . S
C907 C898 1.390 . S
C907 H900 0.950 . S
C907 C904 1.387 . S
C908 C909 1.387 . S
C908 H912 0.950 . S
C908 C917 1.390 . S
C909 C908 1.387 . S
C909 C911 1.387 . S
H910 C917 0.950 . S
C911 C909 1.387 . S
C911 C913 1.390 . S
C911 H915 0.950 . S
H912 C908 0.950 . S
C913 C911 1.390 . S
C913 C914 1.387 . S
C913 H916 0.950 . S
C914 C913 1.387 . S
C914 C917 1.387 . S
H915 C911 0.950 . S
H916 C913 0.950 . S
C917 C908 1.390 . S
C917 H910 0.950 . S
C917 C914 1.387 . S
C918 C919 1.387 . S
C918 H922 0.950 . S
C918 C927 1.390 . S
C919 C918 1.387 . S
C919 C921 1.387 . S
H920 C927 0.950 . S
C921 C919 1.387 . S
C921 C923 1.390 . S
C921 H925 0.950 . S
H922 C918 0.950 . S
C923 C921 1.390 . S
C923 C924 1.387 . S
C923 H926 0.950 . S
C924 C923 1.387 . S
C924 C927 1.387 . S
H925 C921 0.950 . S
H926 C923 0.950 . S
C927 C918 1.390 . S
C927 H920 0.950 . S
C927 C924 1.387 . S
C928 C929 1.387 . S
C928 H932 0.950 . S
C928 C937 1.390 . S
C929 C928 1.387 . S
C929 C931 1.387 . S
H930 C937 0.950 . S
C931 C929 1.387 . S
C931 C933 1.390 . S
C931 H935 0.950 . S
H932 C928 0.950 . S
C933 C931 1.390 . S
C933 C934 1.387 . S
C933 H936 0.950 . S
C934 C933 1.387 . S
C934 C937 1.387 . S
H935 C931 0.950 . S
H936 C933 0.950 . S
C937 C928 1.390 . S
C937 H930 0.950 . S
C937 C934 1.387 . S
C938 C939 1.387 . S
C938 H942 0.950 . S
C938 C947 1.390 . S
C939 C938 1.387 . S
C939 C941 1.387 . S
H940 C947 0.950 . S
C941 C939 1.387 . S
C941 C943 1.390 . S
C941 H945 0.950 . S
H942 C938 0.950 . S
C943 C941 1.390 . S
C943 C944 1.387 . S
C943 H946 0.950 . S
C944 C943 1.387 . S
C944 C947 1.387 . S
H945 C941 0.950 . S
H946 C943 0.950 . S
C947 C938 1.390 . S
C947 H940 0.950 . S
C947 C944 1.387 . S
C948 C949 1.387 . S
C948 H952 0.950 . S
C948 C957 1.390 . S
C949 C948 1.387 . S
C949 C951 1.387 . S
H950 C957 0.950 . S
C951 C949 1.387 . S
C951 C953 1.390 . S
C951 H955 0.950 . S
H952 C948 0.950 . S
C953 C951 1.390 . S
C953 C954 1.387 . S
C953 H956 0.950 . S
C954 C953 1.387 . S
C954 C957 1.387 . S
H955 C951 0.950 . S
H956 C953 0.950 . S
C957 C948 1.390 . S
C957 H950 0.950 . S
C957 C954 1.387 . S
C958 C959 1.387 . S
C958 H962 0.950 . S
C958 C967 1.390 . S
C959 C958 1.387 . S
C959 C961 1.387 . S
H960 C967 0.950 . S
C961 C959 1.387 . S
C961 C963 1.390 . S
C961 H965 0.950 . S
H962 C958 0.950 . S
C963 C961 1.390 . S
C963 C964 1.387 . S
C963 H966 0.950 . S
C964 C963 1.387 . S
C964 C967 1.387 . S
H965 C961 0.950 . S
H966 C963 0.950 . S
C967 C958 1.390 . S
C967 H960 0.950 . S
C967 C964 1.387 . S
C968 C969 1.387 . S
C968 H972 0.950 . S
C968 C977 1.390 . S
C969 C968 1.387 . S
C969 C971 1.387 . S
H970 C977 0.950 . S
C971 C969 1.387 . S
C971 C973 1.390 . S
C971 H975 0.950 . S
H972 C968 0.950 . S
C973 C971 1.390 . S
C973 C974 1.387 . S
C973 H976 0.950 . S
C974 C973 1.387 . S
C974 C977 1.387 . S
H975 C971 0.950 . S
H976 C973 0.950 . S
C977 C968 1.390 . S
C977 H970 0.950 . S
C977 C974 1.387 . S
C978 C979 1.387 . S
C978 H982 0.950 . S
C978 C987 1.390 . S
C979 C978 1.387 . S
C979 C981 1.387 . S
H980 C987 0.950 . S
C981 C979 1.387 . S
C981 C983 1.390 . S
C981 H985 0.950 . S
H982 C978 0.950 . S
C983 C981 1.390 . S
C983 C984 1.387 . S
C983 H986 0.950 . S
C984 C983 1.387 . S
C984 C987 1.387 . S
H985 C981 0.950 . S
H986 C983 0.950 . S
C987 C978 1.390 . S
C987 H980 0.950 . S
C987 C984 1.387 . S
C988 C989 1.387 . S
C988 H992 0.950 . S
C988 C997 1.390 . S
C989 C988 1.387 . S
C989 C991 1.387 . S
H990 C997 0.950 . S
C991 C989 1.387 . S
C991 C993 1.390 . S
C991 H995 0.950 . S
H992 C988 0.950 . S
C993 C991 1.390 . S
C993 C994 1.387 . S
C993 H996 0.950 . S
C994 C993 1.387 . S
C994 C997 1.387 . S
H995 C991 0.950 . S
H996 C993 0.950 . S
C997 C988 1.390 . S
C997 H990 0.950 . S
C997 C994 1.387 . S
C524 C347 1.646 . S
C519 C3 1.837 . S
C534 C348 1.165 . S
C529 C49 1.150 . S
C544 C342 1.363 . S
C539 C95 1.394 . S
C549 C146 0.701 . S
C554 C341 0.688 . S
C559 C186 1.282 . S
C564 C344 1.221 . S
C574 C346 1.503 . S
C569 C215 1.562 . S
C579 C249 0.807 . S
C584 C345 0.682 . S
C589 C302 1.829 . S
C594 C343 1.649 . S
C604 C378 3.558 . S
C599 C2 3.561 . S
C609 C43 2.240 . S
C614 C409 2.101 . S
C624 C377 3.166 . S
C619 C102 3.263 . S
C634 C412 1.473 . S
C629 C135 1.587 . S
C639 C175 1.851 . S
C644 C375 1.814 . S
C654 C407 2.377 . S
C649 C222 2.382 . S
C659 C243 1.970 . S
C664 C380 1.774 . S
C669 C306 1.764 . S
C674 C414 1.972 . S
C679 C9 1.050 . S
C684 C410 1.163 . S
C689 C182 1.753 . S
C694 C413 1.613 . S
C704 C381 1.446 1_556 S
C699 C226 1.501 . S
C714 C408 1.045 . S
C709 C242 1.007 . S
C719 C295 2.903 . S
C724 C374 2.899 . S
C729 C106 0.917 . S
C734 C411 0.905 . S
C744 C376 1.463 . S
C739 C142 1.532 . S
C749 C42 1.305 . S
C754 C379 1.279 . S
C759 C283 1.844 . S
C764 C446 1.679 . S
C769 C169 1.229 . S
C774 C447 1.138 . S
C784 C441 1.339 . S
C779 C202 1.399 . S
C794 C440 0.750 . S
C789 C266 0.753 . S
C799 C66 0.905 . S
C804 C443 0.899 . S
C814 C445 1.446 . S
C809 C82 1.487 . S
C819 C129 0.684 . S
C824 C444 0.659 . S
C829 C22 1.874 . S
C834 C442 1.724 . S
C839 C282 3.103 . S
C844 C480 3.005 . S
C854 C512 1.562 . S
C849 C163 1.596 . S
C859 C209 1.364 . S
C864 C473 1.351 . S
C869 C255 1.307 . S
C874 C507 1.279 . S
C884 C478 1.113 . S
C879 C55 1.071 . S
C889 C89 1.136 . S
C894 C509 1.105 . S
C904 C475 1.792 . S
C899 C123 1.839 . S
C914 C510 1.149 . S
C909 C26 1.053 . S
C924 C506 1.912 . S
C919 C289 1.759 . S
C929 C62 2.011 . S
C934 C508 1.836 . S
C939 C83 3.116 . S
C944 C477 3.109 . S
C954 C511 1.904 . S
C949 C122 1.952 . S
C959 C15 3.724 . S
C964 C476 3.671 . S
C969 C203 2.586 . S
C974 C513 2.542 . S
C984 C479 2.281 . S
C979 C262 2.328 . S
C994 C474 1.466 . S
C989 C162 1.542 . S
