# Generated by pormake.
# Topology zzz, (3,6)-cn, num edge types: 1
# Building blocks:
#     Node 0, Type 0, BuildingBlock: OLANEW_clean_sbu_2, # of connection points: 3
#     Node 1, Type 0, BuildingBlock: OLANEW_clean_sbu_2, # of connection points: 3
#     Node 2, Type 0, BuildingBlock: OLANEW_clean_sbu_2, # of connection points: 3
#     Node 3, Type 0, BuildingBlock: OLANEW_clean_sbu_2, # of connection points: 3
#     Node 4, Type 0, BuildingBlock: OLANEW_clean_sbu_2, # of connection points: 3
#     Node 5, Type 0, BuildingBlock: OLANEW_clean_sbu_2, # of connection points: 3
#     Node 6, Type 0, BuildingBlock: OLANEW_clean_sbu_2, # of connection points: 3
#     Node 7, Type 0, BuildingBlock: OLANEW_clean_sbu_2, # of connection points: 3
#     Node 8, Type 1, BuildingBlock: BETDIP_clean_sbu_0, # of connection points: 6
#     Node 9, Type 1, BuildingBlock: BETDIP_clean_sbu_0, # of connection points: 6
#     Node 10, Type 1, BuildingBlock: BETDIP_clean_sbu_0, # of connection points: 6
#     Node 11, Type 1, BuildingBlock: BETDIP_clean_sbu_0, # of connection points: 6
#     Edge 12, Type (0, 1), BuildingBlock: EZIPEK_clean_linker_0, # of connection points: 2
#     Edge 13, Type (0, 1), BuildingBlock: EZIPEK_clean_linker_0, # of connection points: 2
#     Edge 14, Type (0, 1), BuildingBlock: EZIPEK_clean_linker_0, # of connection points: 2
#     Edge 15, Type (0, 1), BuildingBlock: EZIPEK_clean_linker_0, # of connection points: 2
#     Edge 16, Type (0, 1), BuildingBlock: EZIPEK_clean_linker_0, # of connection points: 2
#     Edge 17, Type (0, 1), BuildingBlock: EZIPEK_clean_linker_0, # of connection points: 2
#     Edge 18, Type (0, 1), BuildingBlock: EZIPEK_clean_linker_0, # of connection points: 2
#     Edge 19, Type (0, 1), BuildingBlock: EZIPEK_clean_linker_0, # of connection points: 2
#     Edge 20, Type (0, 1), BuildingBlock: EZIPEK_clean_linker_0, # of connection points: 2
#     Edge 21, Type (0, 1), BuildingBlock: EZIPEK_clean_linker_0, # of connection points: 2
#     Edge 22, Type (0, 1), BuildingBlock: EZIPEK_clean_linker_0, # of connection points: 2
#     Edge 23, Type (0, 1), BuildingBlock: EZIPEK_clean_linker_0, # of connection points: 2
#     Edge 24, Type (0, 1), BuildingBlock: EZIPEK_clean_linker_0, # of connection points: 2
#     Edge 25, Type (0, 1), BuildingBlock: EZIPEK_clean_linker_0, # of connection points: 2
#     Edge 26, Type (0, 1), BuildingBlock: EZIPEK_clean_linker_0, # of connection points: 2
#     Edge 27, Type (0, 1), BuildingBlock: EZIPEK_clean_linker_0, # of connection points: 2
#     Edge 28, Type (0, 1), BuildingBlock: EZIPEK_clean_linker_0, # of connection points: 2
#     Edge 29, Type (0, 1), BuildingBlock: EZIPEK_clean_linker_0, # of connection points: 2
#     Edge 30, Type (0, 1), BuildingBlock: EZIPEK_clean_linker_0, # of connection points: 2
#     Edge 31, Type (0, 1), BuildingBlock: EZIPEK_clean_linker_0, # of connection points: 2
#     Edge 32, Type (0, 1), BuildingBlock: EZIPEK_clean_linker_0, # of connection points: 2
#     Edge 33, Type (0, 1), BuildingBlock: EZIPEK_clean_linker_0, # of connection points: 2
#     Edge 34, Type (0, 1), BuildingBlock: EZIPEK_clean_linker_0, # of connection points: 2
#     Edge 35, Type (0, 1), BuildingBlock: EZIPEK_clean_linker_0, # of connection points: 2
# Relax obj value: 0.299
# Max RMSD: 0.187
# Mean RMSD: 0.160
data_MOF--net-zzz--node1-OLANEW_clean_sbu_2--node2-BETDIP_clean_sbu_0--edge1-EZIPEK_clean_linker_0
_symmetry_space_group_name_H-M    P1
_symmetry_Int_Tables_number       1
_symmetry_cell_setting            triclinic
loop_
_symmetry_equiv_pos_as_xyz
'x, y, z'
_cell_length_a     42.32505
_cell_length_b     42.35432
_cell_length_c     11.75612
_cell_angle_alpha  89.520612
_cell_angle_beta   89.73624
_cell_angle_gamma 90.005477
loop_
_atom_site_label
_atom_site_type_symbol
_atom_site_fract_x
_atom_site_fract_y
_atom_site_fract_z
_atom_type_partial_charge
O0 O 0.77092 0.57555 0.24029 0.0
Cd1 Cd 0.72336 0.59444 0.33564 0.0
O2 O 0.7513 0.52814 0.26785 0.0
Cd3 Cd 0.76038 0.47772 0.26472 0.0
O4 O 0.80699 0.46273 0.31638 0.0
C5 C 0.81266 0.46241 0.42225 0.0
O6 O 0.78924 0.46605 0.49473 0.0
C7 C 0.77364 0.5458 0.23257 0.0
C8 C 0.66994 0.57239 0.22615 0.0
O9 O 0.68218 0.59915 0.19976 0.0
O10 O 0.6825 0.55605 0.30621 0.0
O11 O 0.97587 0.67966 0.21905 0.0
Cd12 Cd 0.97149 0.62351 0.26838 0.0
O13 O 0.98255 0.68676 0.40178 0.0
Cd14 Cd 0.99014 0.71918 0.54093 0.0
O15 O 0.98953 0.76086 0.64667 0.0
C16 C 0.96283 0.77157 0.67733 0.0
O17 O 0.93756 0.75703 0.64037 0.0
C18 C 0.98051 0.69814 0.30182 0.0
C19 C 0.98173 0.58404 0.08384 0.0
O20 O 0.95365 0.59232 0.11199 0.0
O21 O 0.00487 0.5944 0.14272 0.0
O22 O 0.74062 0.94527 0.39245 0.0
Cd23 Cd 0.79159 0.92615 0.46026 0.0
O24 O 0.75767 0.99428 0.40005 0.0
Cd25 Cd 0.74315 0.04349 0.38697 0.0
O26 O 0.69957 0.06303 0.45519 0.0
C27 C 0.6924 0.05106 0.5513 0.0
O28 O 0.71165 0.02954 0.59245 0.0
C29 C 0.73588 0.97462 0.37819 0.0
C30 C 0.83797 0.93945 0.29822 0.0
O31 O 0.8193 0.91583 0.28838 0.0
O32 O 0.83528 0.9567 0.38681 0.0
O33 O 0.57951 0.82366 0.24773 0.0
Cd34 Cd 0.59114 0.8759 0.32166 0.0
O35 O 0.5542 0.81658 0.40889 0.0
Cd36 Cd 0.52726 0.78402 0.51287 0.0
O37 O 0.52816 0.73377 0.54358 0.0
C38 C 0.53166 0.72199 0.64209 0.0
O39 O 0.53266 0.74061 0.73083 0.0
C40 C 0.56232 0.80653 0.31163 0.0
C41 C 0.56414 0.91686 0.16582 0.0
O42 O 0.54758 0.90484 0.24672 0.0
O43 O 0.59384 0.91098 0.16289 0.0
O44 O 0.29803 0.4924 0.22062 0.0
Cd45 Cd 0.35364 0.49482 0.16656 0.0
O46 O 0.28799 0.46036 0.07917 0.0
Cd47 Cd 0.25113 0.43685 0.98365 0.0
O48 O 0.20293 0.43277 0.92323 0.0
C49 C 0.19382 0.41219 0.85275 0.0
O50 O 0.2139 0.39122 0.81367 0.0
C51 C 0.27848 0.47635 0.16356 0.0
C52 C 0.39037 0.50528 0.35803 0.0
O53 O 0.37616 0.52805 0.30725 0.0
O54 O 0.38754 0.47747 0.31733 0.0
O55 O 0.92245 0.22585 0.13126 0.0
Cd56 Cd 0.94599 0.27127 0.03436 0.0
O57 O 0.97048 0.20824 0.16492 0.0
Cd58 Cd 0.99019 0.2305 0.01351 0.0
O59 O 0.98669 0.18326 0.94057 0.0
C60 C 0.00612 0.16251 0.97561 0.0
O61 O 0.02931 0.171 0.04268 0.0
C62 C 0.94087 0.20669 0.18176 0.0
C63 C 0.9651 0.3124 0.20395 0.0
O64 O 0.98323 0.29006 0.17054 0.0
O65 O 0.93843 0.31606 0.15437 0.0
O66 O 0.21289 0.99638 0.28886 0.0
Cd67 Cd 0.15819 0.99854 0.22226 0.0
O68 O 0.22052 0.04067 0.19474 0.0
Cd69 Cd 0.25501 0.07426 0.13069 0.0
O70 O 0.30246 0.0774 0.06222 0.0
C71 C 0.30861 0.05891 0.98063 0.0
O72 O 0.28603 0.04111 0.93942 0.0
C73 C 0.23133 0.01826 0.25559 0.0
C74 C 0.11467 0.99245 0.39887 0.0
O75 O 0.12631 0.9681 0.35005 0.0
O76 O 0.12338 0.01983 0.36366 0.0
O77 O 0.55007 0.25386 0.19361 0.0
Cd78 Cd 0.53235 0.20463 0.11148 0.0
O79 O 0.49932 0.26403 0.20463 0.0
Cd80 Cd 0.464 0.29913 0.24906 0.0
O81 O 0.46465 0.34955 0.21585 0.0
C82 C 0.46073 0.35788 0.11298 0.0
O83 O 0.45343 0.33652 0.03708 0.0
C84 C 0.52774 0.27195 0.22402 0.0
C85 C 0.5133 0.17001 0.29964 0.0
O86 O 0.54126 0.16711 0.25869 0.0
O87 O 0.49365 0.18803 0.24792 0.0
Tb88 Tb 0.99433 0.95687 0.95838 0.0
Tb89 Tb 0.95877 0.97346 0.74081 0.0
C90 C 0.00718 0.93073 0.1448 0.0
C91 C 0.00138 0.89813 0.18517 0.0
C92 C 0.97443 0.88167 0.14941 0.0
C93 C 0.97089 0.84956 0.17392 0.0
C94 C 0.99413 0.83337 0.23581 0.0
C95 C 0.02059 0.84997 0.27536 0.0
C96 C 0.02433 0.88209 0.24925 0.0
C97 C 0.03046 0.96966 0.78226 0.0
C98 C 0.96887 0.90292 0.79126 0.0
C99 C 0.94357 0.99739 0.55319 0.0
C100 C 0.93806 0.02985 0.51062 0.0
C101 C 0.96357 0.05014 0.48655 0.0
C102 C 0.9582 0.08042 0.44363 0.0
C103 C 0.92733 0.09092 0.42278 0.0
C104 C 0.90172 0.07122 0.45022 0.0
C105 C 0.90706 0.04075 0.49256 0.0
C106 C 0.92345 0.96026 0.91891 0.0
C107 C 0.98608 0.02849 0.90114 0.0
O108 O 0.98216 0.94856 0.12934 0.0
O109 O 0.02735 0.93315 0.06052 0.0
O110 O 0.00418 0.95556 0.78111 0.0
O111 O 0.03895 0.97362 0.88719 0.0
O112 O 0.97653 0.91156 0.89554 0.0
O113 O 0.96475 0.92363 0.70825 0.0
O114 O 0.97271 0.99004 0.58023 0.0
O115 O 0.92297 0.98637 0.6269 0.0
O116 O 0.94909 0.97536 0.91868 0.0
O117 O 0.91527 0.95431 0.81511 0.0
O118 O 0.97144 0.01995 0.80677 0.0
O119 O 0.99585 0.00777 0.97869 0.0
H120 H 0.95658 0.89342 0.09946 0.0
H121 H 0.95033 0.83718 0.14258 0.0
H122 H 0.03878 0.83781 0.32321 0.0
H123 H 0.04557 0.89411 0.27608 0.0
H124 H 0.98774 0.04261 0.49976 0.0
H125 H 0.97823 0.09555 0.42506 0.0
H126 H 0.87773 0.07911 0.43547 0.0
H127 H 0.88697 0.0256 0.5102 0.0
Tb128 Tb 0.50923 0.05836 0.86912 0.0
Tb129 Tb 0.48986 0.0288 0.63808 0.0
C130 C 0.53444 0.06463 0.06045 0.0
C131 C 0.56312 0.05097 0.11077 0.0
C132 C 0.57628 0.02327 0.06583 0.0
C133 C 0.60358 0.01025 0.11299 0.0
C134 C 0.61833 0.02502 0.20485 0.0
C135 C 0.60537 0.05283 0.24932 0.0
C136 C 0.57777 0.06566 0.20297 0.0
C137 C 0.49345 0.09818 0.70655 0.0
C138 C 0.56168 0.04041 0.68309 0.0
C139 C 0.46317 0.01999 0.45029 0.0
C140 C 0.42964 0.0181 0.4176 0.0
C141 C 0.4203 0.02609 0.30659 0.0
C142 C 0.38826 0.02555 0.27689 0.0
C143 C 0.36526 0.01715 0.35821 0.0
C144 C 0.37463 0.00897 0.46883 0.0
C145 C 0.40656 0.00937 0.49826 0.0
C146 C 0.507 0.98855 0.79758 0.0
C147 C 0.43765 0.05013 0.82411 0.0
O148 O 0.51183 0.04441 0.03976 0.0
O149 O 0.53894 0.08449 0.97585 0.0
O150 O 0.50774 0.07243 0.69607 0.0
O151 O 0.49107 0.10456 0.81438 0.0
O152 O 0.55417 0.04449 0.79165 0.0
O153 O 0.54002 0.03615 0.6031 0.0
O154 O 0.47276 0.0477 0.48455 0.0
O155 O 0.47357 0.99708 0.51561 0.0
O156 O 0.49263 0.01432 0.81038 0.0
O157 O 0.50834 0.98271 0.68954 0.0
O158 O 0.44456 0.04064 0.71959 0.0
O159 O 0.45912 0.05671 0.90142 0.0
H160 H 0.56548 0.01179 0.99405 0.0
H161 H 0.61343 0.98892 0.077 0.0
H162 H 0.61691 0.06471 0.31865 0.0
H163 H 0.56806 0.08715 0.23821 0.0
H164 H 0.43773 0.03299 0.24332 0.0
H165 H 0.38136 0.032 0.19115 0.0
H166 H 0.35717 0.00246 0.53252 0.0
H167 H 0.41316 0.00299 0.58427 0.0
Tb168 Tb 0.49681 0.55429 0.93033 0.0
Tb169 Tb 0.53494 0.51887 0.75602 0.0
C170 C 0.47827 0.5943 0.07393 0.0
C171 C 0.48829 0.6266 0.1039 0.0
C172 C 0.50659 0.64504 0.02844 0.0
C173 C 0.51852 0.67426 0.06176 0.0
C174 C 0.51116 0.68624 0.16939 0.0
C175 C 0.49125 0.66882 0.24223 0.0
C176 C 0.48025 0.63899 0.21038 0.0
C177 C 0.46404 0.53095 0.76092 0.0
C178 C 0.5352 0.5907 0.73264 0.0
C179 C 0.55466 0.48212 0.60452 0.0
C180 C 0.54972 0.45011 0.55956 0.0
C181 C 0.51985 0.4396 0.5239 0.0
C182 C 0.51667 0.41009 0.47244 0.0
C183 C 0.54324 0.39075 0.45652 0.0
C184 C 0.57286 0.4009 0.49446 0.0
C185 C 0.57608 0.4304 0.54523 0.0
C186 C 0.56849 0.54335 0.92335 0.0
C187 C 0.49642 0.48199 0.95059 0.0
O188 O 0.49831 0.57167 0.09754 0.0
O189 O 0.46579 0.59097 0.97327 0.0
O190 O 0.4911 0.54312 0.75518 0.0
O191 O 0.4532 0.53372 0.86362 0.0
O192 O 0.52277 0.59068 0.83565 0.0
O193 O 0.53957 0.56456 0.67521 0.0
O194 O 0.53217 0.50293 0.58833 0.0
O195 O 0.56729 0.48407 0.70563 0.0
O196 O 0.54154 0.53079 0.93217 0.0
O197 O 0.57836 0.53986 0.81984 0.0
O198 O 0.50787 0.482 0.84535 0.0
O199 O 0.49345 0.50818 0.00979 0.0
H200 H 0.51222 0.63687 0.94438 0.0
H201 H 0.53339 0.68759 0.00343 0.0
H202 H 0.48473 0.67818 0.32418 0.0
H203 H 0.4656 0.62555 0.26901 0.0
H204 H 0.49911 0.45433 0.53393 0.0
H205 H 0.49363 0.40249 0.44365 0.0
H206 H 0.59355 0.38619 0.48291 0.0
H207 H 0.59932 0.4381 0.57152 0.0
Tb208 Tb 0.99116 0.43203 0.74833 0.0
Tb209 Tb 0.01656 0.46306 0.53193 0.0
C210 C 0.96421 0.42886 0.93838 0.0
C211 C 0.93758 0.44707 0.98574 0.0
C212 C 0.93326 0.47891 0.95466 0.0
C213 C 0.90738 0.49589 0.99558 0.0
C214 C 0.88516 0.48115 0.06701 0.0
C215 C 0.88933 0.44937 0.09825 0.0
C216 C 0.91548 0.43244 0.05816 0.0
C217 C 0.99943 0.39303 0.57811 0.0
C218 C 0.94348 0.46125 0.56448 0.0
C219 C 0.04658 0.47081 0.34918 0.0
C220 C 0.08012 0.47551 0.3213 0.0
C221 C 0.09027 0.47338 0.20816 0.0
C222 C 0.12248 0.47488 0.18144 0.0
C223 C 0.1448 0.47854 0.26816 0.0
C224 C 0.1346 0.48174 0.38111 0.0
C225 C 0.10241 0.48043 0.40746 0.0
C226 C 0.00535 0.50208 0.69872 0.0
C227 C 0.06387 0.42963 0.71189 0.0
O228 O 0.99028 0.44488 0.91977 0.0
O229 O 0.95726 0.41016 0.85383 0.0
O230 O 0.9905 0.42139 0.57215 0.0
O231 O 0.00073 0.38467 0.68493 0.0
O232 O 0.94874 0.45261 0.6713 0.0
O233 O 0.96668 0.46447 0.48924 0.0
O234 O 0.03945 0.443 0.39177 0.0
O235 O 0.03277 0.49385 0.40391 0.0
O236 O 0.01569 0.47421 0.70664 0.0
O237 O 0.0048 0.51023 0.59203 0.0
O238 O 0.05952 0.44838 0.6224 0.0
O239 O 0.03998 0.41874 0.77339 0.0
H240 H 0.94966 0.49055 0.89748 0.0
H241 H 0.9044 0.52035 0.97012 0.0
H242 H 0.8722 0.43766 0.15267 0.0
H243 H 0.91823 0.40785 0.08237 0.0
H244 H 0.07327 0.46998 0.14103 0.0
H245 H 0.13004 0.47253 0.09374 0.0
H246 H 0.15158 0.48481 0.4488 0.0
H247 H 0.09502 0.4827 0.49518 0.0
C248 C 0.09665 0.00449 0.59862 0.0
C249 C 0.09186 0.98874 0.49417 0.0
C250 C 0.04915 0.95812 0.58133 0.0
C251 C 0.05102 0.97665 0.68155 0.0
N252 N 0.07223 0.02375 0.77008 0.0
N253 N 0.05687 0.95779 0.37799 0.0
C254 C 0.07344 0.00176 0.68576 0.0
C255 C 0.06595 0.96791 0.4828 0.0
N256 N 0.12393 0.02087 0.6175 0.0
N257 N 0.03367 0.92983 0.58124 0.0
H258 H 0.06806 0.96504 0.30292 0.0
H259 H 0.03592 0.94537 0.36581 0.0
H260 H 0.02501 0.91908 0.65472 0.0
H261 H 0.03378 0.91485 0.51127 0.0
H262 H 0.12978 0.02993 0.69685 0.0
H263 H 0.14221 0.02256 0.55807 0.0
H264 H 0.08629 0.04397 0.76942 0.0
H265 H 0.05477 0.02424 0.83257 0.0
C266 C 0.52459 0.16115 0.50537 0.0
C267 C 0.5051 0.15517 0.41003 0.0
C268 C 0.47154 0.12113 0.52834 0.0
C269 C 0.49447 0.12222 0.61539 0.0
N270 N 0.54452 0.14146 0.68468 0.0
N271 N 0.46128 0.12712 0.327 0.0
C272 C 0.52132 0.14202 0.60413 0.0
C273 C 0.47858 0.13486 0.42061 0.0
N274 N 0.54559 0.18569 0.50283 0.0
N275 N 0.44305 0.10704 0.54901 0.0
H276 H 0.4661 0.13611 0.24595 0.0
H277 H 0.44392 0.10968 0.32795 0.0
H278 H 0.43731 0.09721 0.628 0.0
H279 H 0.4243 0.10775 0.49195 0.0
H280 H 0.5582 0.1929 0.57393 0.0
H281 H 0.54788 0.20102 0.43335 0.0
H282 H 0.56641 0.15229 0.67298 0.0
H283 H 0.5429 0.12831 0.7598 0.0
C284 C 0.42951 0.53787 0.46554 0.0
C285 C 0.40936 0.51114 0.46163 0.0
C286 C 0.42676 0.49584 0.65322 0.0
C287 C 0.44408 0.52442 0.66065 0.0
N288 N 0.4518 0.57731 0.58752 0.0
N289 N 0.38288 0.46905 0.56525 0.0
C290 C 0.44261 0.54682 0.57082 0.0
C291 C 0.40634 0.49119 0.5591 0.0
N292 N 0.43738 0.55409 0.36853 0.0
N293 N 0.43011 0.4729 0.73453 0.0
H294 H 0.36605 0.46608 0.50183 0.0
H295 H 0.37791 0.45608 0.63888 0.0
H296 H 0.4443 0.47565 0.80573 0.0
H297 H 0.42078 0.45026 0.72635 0.0
H298 H 0.4542 0.57209 0.36755 0.0
H299 H 0.43012 0.54719 0.28781 0.0
H300 H 0.44749 0.59511 0.52773 0.0
H301 H 0.45991 0.58552 0.66552 0.0
C302 C 0.00416 0.34734 0.30321 0.0
C303 C 0.97411 0.33247 0.3014 0.0
C304 C 0.96036 0.35758 0.48224 0.0
C305 C 0.99135 0.37025 0.48805 0.0
N306 N 0.04497 0.3701 0.42047 0.0
N307 N 0.92678 0.31711 0.40391 0.0
C308 C 0.01395 0.36298 0.40335 0.0
C309 C 0.95301 0.33584 0.39497 0.0
N310 N 0.02283 0.34778 0.20804 0.0
N311 N 0.9377 0.3668 0.55829 0.0
H312 H 0.92119 0.29975 0.34497 0.0
H313 H 0.91238 0.31642 0.47601 0.0
H314 H 0.94218 0.38212 0.62527 0.0
H315 H 0.91385 0.36133 0.54912 0.0
H316 H 0.04355 0.36099 0.20183 0.0
H317 H 0.01604 0.33765 0.13143 0.0
H318 H 0.06308 0.36313 0.36584 0.0
H319 H 0.05269 0.37976 0.49661 0.0
C320 C 0.86623 0.97704 0.16278 0.0
C321 C 0.86205 0.94609 0.20869 0.0
C322 C 0.89518 0.9247 0.05709 0.0
C323 C 0.9025 0.9557 0.01911 0.0
N324 N 0.8978 0.01209 0.04432 0.0
N325 N 0.88081 0.89227 0.21873 0.0
C326 C 0.88929 0.98213 0.07579 0.0
C327 C 0.879 0.92045 0.16157 0.0
N328 N 0.84671 0.00109 0.19532 0.0
N329 N 0.90292 0.89915 0.9928 0.0
H330 H 0.87094 0.88875 0.2993 0.0
H331 H 0.89533 0.87382 0.19234 0.0
H332 H 0.91464 0.9011 0.9153 0.0
H333 H 0.89526 0.87633 0.01209 0.0
H334 H 0.84664 0.02322 0.15603 0.0
H335 H 0.82826 0.99826 0.25335 0.0
H336 H 0.89189 0.03192 0.09168 0.0
H337 H 0.91233 0.01712 0.97473 0.0
C338 C 0.52612 0.95815 0.09465 0.0
C339 C 0.54885 0.93451 0.07184 0.0
C340 C 0.54551 0.94663 0.8686 0.0
C341 C 0.52036 0.96831 0.89026 0.0
N342 N 0.47934 0.98372 0.02377 0.0
N343 N 0.57112 0.89888 0.93319 0.0
C344 C 0.50838 0.97088 0.00323 0.0
C345 C 0.55583 0.92646 0.95769 0.0
N346 N 0.52198 0.96929 0.20237 0.0
N347 N 0.56083 0.94573 0.766 0.0
H348 H 0.57751 0.88236 0.99514 0.0
H349 H 0.57384 0.89063 0.85043 0.0
H350 H 0.55688 0.96136 0.69915 0.0
H351 H 0.58102 0.93213 0.75269 0.0
H352 H 0.50754 0.98859 0.22023 0.0
H353 H 0.53551 0.9616 0.27116 0.0
H354 H 0.46904 0.98389 0.10454 0.0
H355 H 0.46388 0.99024 0.95919 0.0
C356 C 0.64299 0.53389 0.0968 0.0
C357 C 0.64157 0.56119 0.16578 0.0
C358 C 0.58974 0.57453 0.08838 0.0
C359 C 0.59094 0.54727 0.01911 0.0
N360 N 0.61426 0.4965 0.98131 0.0
N361 N 0.61023 0.602 0.25229 0.0
C362 C 0.61616 0.52543 0.03136 0.0
C363 C 0.61378 0.57972 0.16967 0.0
N364 N 0.67048 0.5171 0.08849 0.0
N365 N 0.56668 0.59649 0.07232 0.0
H366 H 0.62736 0.6061 0.314 0.0
H367 H 0.58917 0.61408 0.2667 0.0
H368 H 0.54856 0.59319 0.01478 0.0
H369 H 0.56688 0.61872 0.1095 0.0
H370 H 0.67405 0.49928 0.02929 0.0
H371 H 0.69066 0.52246 0.13497 0.0
H372 H 0.63044 0.47841 0.99598 0.0
H373 H 0.59473 0.48949 0.93399 0.0
C374 C 0.97399 0.57055 0.87768 0.0
C375 C 0.98744 0.56322 0.98497 0.0
C376 C 0.01732 0.52032 0.89785 0.0
C377 C -9e-05 0.52403 0.79549 0.0
N378 N 0.95704 0.55064 0.69649 0.0
N379 N 0.01618 0.52596 0.10182 0.0
C380 C 0.97694 0.5486 0.78746 0.0
C381 C 0.00737 0.53654 0.99659 0.0
N382 N 0.9596 0.59904 0.85976 0.0
N383 N 0.04465 0.50319 0.89992 0.0
H384 H 0.00851 0.53642 0.17707 0.0
H385 H 0.02808 0.50467 0.11393 0.0
H386 H 0.05505 0.49387 0.82714 0.0
H387 H 0.05928 0.50225 0.97094 0.0
H388 H 0.95244 0.60683 0.7796 0.0
H389 H 0.95791 0.61637 0.92196 0.0
H390 H 0.9378 0.56599 0.6941 0.0
H391 H 0.9572 0.53495 0.629 0.0
C392 C 0.93594 0.17857 0.3685 0.0
C393 C 0.92848 0.1802 0.25119 0.0
C394 C 0.91365 0.12431 0.2521 0.0
C395 C 0.92253 0.1223 0.36837 0.0
N396 N 0.93408 0.14821 0.54476 0.0
N397 N 0.90319 0.15746 0.08748 0.0
C398 C 0.93099 0.1498 0.42911 0.0
C399 C 0.91463 0.15407 0.19551 0.0
N400 N 0.94867 0.20434 0.42054 0.0
N401 N 0.90652 0.09749 0.19347 0.0
H402 H 0.90474 0.17843 0.0409 0.0
H403 H 0.88977 0.14036 0.04694 0.0
H404 H 0.90515 0.07522 0.23126 0.0
H405 H 0.90421 0.0967 0.10544 0.0
H406 H 0.95827 0.20385 0.50185 0.0
H407 H 0.95061 0.22629 0.37999 0.0
H408 H 0.93782 0.16777 0.59596 0.0
H409 H 0.93023 0.12742 0.591 0.0
C410 C 0.27893 0.04225 0.34786 0.0
C411 C 0.26552 0.01738 0.28377 0.0
C412 C 0.31733 0.99138 0.2736 0.0
C413 C 0.3311 0.01756 0.32918 0.0
N414 N 0.32635 0.0702 0.4036 0.0
N415 N 0.27267 0.97099 0.16867 0.0
C416 C 0.31226 0.04369 0.36173 0.0
C417 C 0.28489 0.99257 0.24231 0.0
N418 N 0.25967 0.06384 0.3992 0.0
N419 N 0.33513 0.9651 0.25266 0.0
H420 H 0.24916 0.97122 0.14263 0.0
H421 H 0.28638 0.95451 0.12554 0.0
H422 H 0.35915 0.96369 0.2716 0.0
H423 H 0.32567 0.94392 0.22414 0.0
H424 H 0.2677 0.08049 0.45697 0.0
H425 H 0.23512 0.06336 0.39216 0.0
H426 H 0.31436 0.09132 0.41698 0.0
H427 H 0.35067 0.07199 0.41619 0.0
C428 C 0.52335 0.3046 0.40002 0.0
C429 C 0.53422 0.3016 0.28594 0.0
C430 C 0.55056 0.35718 0.28342 0.0
C431 C 0.54028 0.35996 0.39804 0.0
N432 N 0.52213 0.33574 0.57254 0.0
N433 N 0.56277 0.32286 0.1247 0.0
C434 C 0.52806 0.33349 0.45835 0.0
C435 C 0.54946 0.3272 0.22961 0.0
N436 N 0.50841 0.27974 0.45246 0.0
N437 N 0.56024 0.38354 0.22488 0.0
H438 H 0.56072 0.30193 0.07937 0.0
H439 H 0.57744 0.33928 0.08468 0.0
H440 H 0.56088 0.40595 0.2608 0.0
H441 H 0.56575 0.38384 0.13867 0.0
H442 H 0.49616 0.28154 0.52906 0.0
H443 H 0.50704 0.25729 0.41707 0.0
H444 H 0.51652 0.31656 0.6247 0.0
H445 H 0.5251 0.35659 0.61785 0.0
C446 C 0.22705 0.50557 0.1779 0.0
C447 C 0.24438 0.47713 0.19242 0.0
C448 C 0.19582 0.44912 0.24699 0.0
C449 C 0.17905 0.47808 0.24125 0.0
N450 N 0.1788 0.53461 0.21634 0.0
N451 N 0.24671 0.42298 0.2568 0.0
C452 C 0.19472 0.50656 0.21116 0.0
C453 C 0.22914 0.44916 0.23117 0.0
N454 N 0.24112 0.53123 0.1276 0.0
N455 N 0.17976 0.4215 0.26532 0.0
H456 H 0.27119 0.42215 0.24654 0.0
H457 H 0.23753 0.40298 0.29702 0.0
H458 H 0.15544 0.42061 0.28007 0.0
H459 H 0.19 0.39928 0.25743 0.0
H460 H 0.22885 0.55144 0.10297 0.0
H461 H 0.2647 0.53142 0.10157 0.0
H462 H 0.18974 0.55653 0.20828 0.0
H463 H 0.15486 0.53613 0.23707 0.0
C464 C 0.00965 0.74472 0.21888 0.0
C465 C 0.98374 0.7327 0.28288 0.0
C466 C 0.96706 0.78674 0.32741 0.0
C467 C 0.99117 0.79869 0.25469 0.0
N468 N 0.03203 0.78911 0.11525 0.0
N469 N 0.93447 0.74192 0.38094 0.0
C470 C 0.01156 0.77769 0.19596 0.0
C471 C 0.9615 0.75363 0.33251 0.0
N472 N 0.03308 0.7248 0.18354 0.0
N473 N 0.95009 0.80697 0.39406 0.0
H474 H 0.92947 0.71783 0.38575 0.0
H475 H 0.91575 0.75611 0.40715 0.0
H476 H 0.9539 0.83132 0.394 0.0
H477 H 0.93417 0.7995 0.45643 0.0
H478 H 0.0543 0.73264 0.14801 0.0
H479 H 0.03262 0.70051 0.19867 0.0
H480 H 0.0451 0.77467 0.06141 0.0
H481 H 0.03397 0.81305 0.09483 0.0
C482 C 0.67719 0.98304 0.39897 0.0
C483 C 0.70529 0.98621 0.33329 0.0
C484 C 0.67678 0.01713 0.18953 0.0
C485 C 0.64827 0.01206 0.25081 0.0
N486 N 0.61997 0.98747 0.40635 0.0
N487 N 0.73092 0.00096 0.15695 0.0
C488 C 0.64807 0.99423 0.35361 0.0
C489 C 0.70482 0.0018 0.22597 0.0
N490 N 0.67858 0.97052 0.50644 0.0
N491 N 0.67723 0.03741 0.09832 0.0
H492 H 0.75189 0.98971 0.18001 0.0
H493 H 0.73096 0.00885 0.07283 0.0
H494 H 0.65712 0.04896 0.06837 0.0
H495 H 0.69791 0.04486 0.05799 0.0
H496 H 0.65978 0.9709 0.56379 0.0
H497 H 0.69942 0.96194 0.54216 0.0
H498 H 0.61775 0.97193 0.47499 0.0
H499 H 0.5983 0.99577 0.37661 0.0
C500 C 0.52362 0.7751 0.19856 0.0
C501 C 0.55026 0.77571 0.27145 0.0
C502 C 0.5501 0.71778 0.28314 0.0
C503 C 0.52444 0.71711 0.20555 0.0
N504 N 0.48835 0.74439 0.08061 0.0
N505 N 0.59134 0.74854 0.37366 0.0
C506 C 0.51172 0.7456 0.16046 0.0
C507 C 0.56417 0.74726 0.31127 0.0
N508 N 0.50889 0.80278 0.16962 0.0
N509 N 0.56074 0.69021 0.33097 0.0
H510 H 0.60196 0.76975 0.39671 0.0
H511 H 0.60463 0.72882 0.39628 0.0
H512 H 0.55243 0.66802 0.30758 0.0
H513 H 0.57648 0.68919 0.39858 0.0
H514 H 0.48724 0.80398 0.12825 0.0
H515 H 0.51729 0.8249 0.19352 0.0
H516 H 0.48084 0.76385 0.03338 0.0
H517 H 0.47738 0.72345 0.0565 0.0
C518 C 0.8013 0.51361 0.08387 0.0
C519 C 0.80292 0.53141 0.18566 0.0
C520 C 0.85858 0.51616 0.20984 0.0
C521 C 0.85703 0.49894 0.10703 0.0
N522 N 0.8293 0.48506 0.93606 0.0
N523 N 0.83368 0.55329 0.33847 0.0
C524 C 0.82903 0.49875 0.04111 0.0
C525 C 0.83184 0.53397 0.24609 0.0
N526 N 0.77306 0.51064 0.02874 0.0
N527 N 0.88537 0.5146 0.27444 0.0
H528 H 0.81422 0.5649 0.37299 0.0
H529 H 0.85474 0.55922 0.37827 0.0
H530 H 0.90551 0.50219 0.24964 0.0
H531 H 0.88732 0.52393 0.35563 0.0
H532 H 0.76913 0.49476 0.96324 0.0
H533 H 0.75281 0.52309 0.0519 0.0
H534 H 0.811 0.48716 0.87767 0.0
H535 H 0.8489 0.47325 0.90319 0.0
C536 C 0.99196 0.10844 0.04884 0.0
C537 C 1e-05 0.12851 0.95561 0.0
C538 C 0.00134 0.08287 0.82897 0.0
C539 C 0.99087 0.06297 0.92026 0.0
N540 N 0.96953 0.05853 0.11085 0.0
N541 N 0.00662 0.13601 0.75335 0.0
C542 C 0.98453 0.07617 0.02885 0.0
C543 C 0.00265 0.11611 0.84449 0.0
N544 N 0.99071 0.12033 0.15652 0.0
N545 N 0.01199 0.07007 0.72942 0.0
H546 H 0.00965 0.16032 0.76133 0.0
H547 H 0.00443 0.12873 0.66933 0.0
H548 H 0.01307 0.04593 0.71438 0.0
H549 H 0.02305 0.08322 0.66541 0.0
H550 H 0.98976 0.10619 0.22916 0.0
H551 H 0.9924 0.14433 0.1744 0.0
H552 H 0.96293 0.06714 0.18999 0.0
H553 H 0.96067 0.03598 0.09674 0.0
C554 C 0.35651 0.02671 0.93215 0.0
C555 C 0.34118 0.05653 0.93545 0.0
C556 C 0.38972 0.08241 0.86967 0.0
C557 C 0.4041 0.05237 0.85744 0.0
N558 N 0.39944 0.99556 0.85573 0.0
N559 N 0.34083 0.1118 0.88381 0.0
C560 C 0.38688 0.02439 0.88142 0.0
C561 C 0.35713 0.08417 0.8978 0.0
N562 N 0.34296 0.00094 0.98341 0.0
N563 N 0.40719 0.10929 0.85541 0.0
H564 H 0.31667 0.11382 0.90007 0.0
H565 H 0.35046 0.13186 0.84534 0.0
H566 H 0.43076 0.10907 0.82993 0.0
H567 H 0.39894 0.13166 0.87653 0.0
H568 H 0.35474 0.97958 0.9953 0.0
H569 H 0.32112 0.00166 0.0243 0.0
H570 H 0.38651 0.97465 0.85993 0.0
H571 H 0.42193 0.99272 0.82075 0.0
C572 C 0.49882 0.39447 0.01688 0.0
C573 C 0.46984 0.38998 0.07581 0.0
C574 C 0.45754 0.44623 0.05418 0.0
C575 C 0.48768 0.45111 0.0025 0.0
N576 N 0.54008 0.43126 0.96366 0.0
N577 N 0.42378 0.41169 0.16712 0.0
C578 C 0.50919 0.42558 0.99203 0.0
C579 C 0.45 0.41598 0.10045 0.0
N580 N 0.51645 0.36906 0.98401 0.0
N581 N 0.4354 0.46972 0.05317 0.0
H582 H 0.41674 0.38963 0.19815 0.0
H583 H 0.41021 0.43022 0.19816 0.0
H584 H 0.43946 0.49204 0.01873 0.0
H585 H 0.41195 0.46632 0.07752 0.0
H586 H 0.53567 0.37087 0.92866 0.0
H587 H 0.51072 0.34583 0.00549 0.0
H588 H 0.55747 0.41389 0.96315 0.0
H589 H 0.54919 0.45395 0.95271 0.0
C590 C 0.15343 0.41795 0.69836 0.0
C591 C 0.16062 0.41263 0.81436 0.0
C592 C 0.105 0.4197 0.86514 0.0
C593 C 0.09706 0.42239 0.74751 0.0
N594 N 0.11413 0.41439 0.55198 0.0
N595 N 0.14256 0.39995 0.0038 0.0
C596 C 0.12136 0.41863 0.66392 0.0
C597 C 0.13609 0.41055 0.89621 0.0
N598 N 0.17705 0.42374 0.62121 0.0
N599 N 0.08387 0.42799 0.94787 0.0
H600 H 0.16514 0.39298 0.02896 0.0
H601 H 0.12514 0.39483 0.06406 0.0
H602 H 0.0627 0.43959 0.93179 0.0
H603 H 0.08898 0.42687 0.03416 0.0
H604 H 0.17277 0.43138 0.53817 0.0
H605 H 0.20093 0.42375 0.64249 0.0
H606 H 0.13091 0.40827 0.49089 0.0
H607 H 0.09121 0.41362 0.52131 0.0
C608 C 0.9885 0.81543 0.78597 0.0
C609 C 0.96097 0.80297 0.7349 0.0
C610 C 0.93723 0.85572 0.73001 0.0
C611 C 0.96621 0.86869 0.76852 0.0
N612 N 0.02082 0.86137 0.8221 0.0
N613 N 0.90443 0.80914 0.72062 0.0
C614 C 0.99212 0.84864 0.79506 0.0
C615 C 0.93383 0.82241 0.72422 0.0
N616 N 0.01012 0.79526 0.83275 0.0
N617 N 0.91294 0.87504 0.69778 0.0
H618 H 0.90051 0.7853 0.73755 0.0
H619 H 0.88359 0.82221 0.72092 0.0
H620 H 0.91339 0.89946 0.70624 0.0
H621 H 0.8931 0.86696 0.65473 0.0
H622 H 0.02984 0.80262 0.87784 0.0
H623 H 0.00613 0.77099 0.83873 0.0
H624 H 0.04145 0.84818 0.82953 0.0
H625 H 0.02491 0.8856 0.82665 0.0
C626 C 0.63714 0.07487 0.54999 0.0
C627 C 0.66019 0.05545 0.60294 0.0
C628 C 0.61917 0.029 0.71533 0.0
C629 C 0.5955 0.04504 0.65173 0.0
N630 N 0.58167 0.08653 0.5178 0.0
N631 N 0.67313 0.02998 0.78055 0.0
C632 C 0.60438 0.06897 0.57145 0.0
C633 C 0.65131 0.03712 0.699 0.0
N634 N 0.64675 0.10087 0.48947 0.0
N635 N 0.61121 0.00528 0.78941 0.0
H636 H 0.69575 0.03975 0.77962 0.0
H637 H 0.66746 0.01877 0.85717 0.0
H638 H 0.588 0.99871 0.80606 0.0
H639 H 0.6278 0.99038 0.82722 0.0
H640 H 0.63166 0.11716 0.45161 0.0
H641 H 0.67017 0.10853 0.48924 0.0
H642 H 0.58603 0.10171 0.44964 0.0
H643 H 0.55784 0.08572 0.53942 0.0
C644 C 0.56169 0.67535 0.71945 0.0
C645 C 0.53609 0.68752 0.65472 0.0
C646 C 0.52247 0.63392 0.59809 0.0
C647 C 0.54269 0.62183 0.68272 0.0
N648 N 0.5829 0.63047 0.82304 0.0
N649 N 0.48825 0.67723 0.5492 0.0
C650 C 0.5629 0.64243 0.74275 0.0
C651 C 0.51562 0.66656 0.59708 0.0
N652 N 0.58536 0.69485 0.7547 0.0
N653 N 0.50957 0.61437 0.51943 0.0
H654 H 0.48109 0.70075 0.55191 0.0
H655 H 0.47105 0.66197 0.5181 0.0
H656 H 0.5148 0.59035 0.51622 0.0
H657 H 0.4966 0.6228 0.45048 0.0
H658 H 0.60584 0.68666 0.79392 0.0
H659 H 0.58617 0.71883 0.73428 0.0
H660 H 0.5951 0.64447 0.88052 0.0
H661 H 0.58621 0.60623 0.83425 0.0
C662 C 0.86664 0.43828 0.4197 0.0
C663 C 0.84579 0.46158 0.46199 0.0
C664 C 0.8882 0.4827 0.58028 0.0
C665 C 0.91015 0.46231 0.52598 0.0
N666 N 0.92042 0.4223 0.38355 0.0
N667 N 0.83871 0.51056 0.56369 0.0
C668 C 0.8995 0.44082 0.44166 0.0
C669 C 0.857 0.48498 0.53765 0.0
N670 N 0.85484 0.41261 0.36425 0.0
N671 N 0.89683 0.49987 0.673 0.0
H672 H 0.81629 0.51437 0.5301 0.0
H673 H 0.8472 0.52992 0.60834 0.0
H674 H 0.9196 0.49998 0.70573 0.0
H675 H 0.88062 0.51196 0.72348 0.0
H676 H 0.86846 0.39306 0.34261 0.0
H677 H 0.83076 0.40926 0.35028 0.0
H678 H 0.9142 0.40939 0.31203 0.0
H679 H 0.94437 0.42084 0.40177 0.0
loop_
_geom_bond_atom_site_label_1
_geom_bond_atom_site_label_2
_geom_bond_distance
_geom_bond_site_symmetry_2
_ccdc_geom_bond_type
O0 Cd1 2.300 . S
O0 C7 1.275 . S
Cd1 O0 2.300 . S
Cd1 O9 2.381 . S
Cd1 O10 2.378 . S
O2 Cd3 2.385 . S
O2 C7 1.255 . S
Cd3 O2 2.385 . S
Cd3 O4 2.317 . S
O4 Cd3 2.317 . S
O4 C5 1.232 . S
C5 O4 1.232 . S
C5 O6 1.218 . S
O6 C5 1.218 . S
C7 O0 1.275 . S
C7 O2 1.255 . S
C8 O9 1.258 . S
C8 O10 1.256 . S
O9 Cd1 2.381 . S
O9 C8 1.258 . S
O10 Cd1 2.378 . S
O10 C8 1.256 . S
O11 Cd12 2.300 1_655 S
O11 C18 1.275 1_655 S
Cd12 O11 2.300 1_455 S
Cd12 O20 2.381 1_455 S
Cd12 O21 2.378 . S
O13 Cd14 2.385 . S
O13 C18 1.255 . S
Cd14 O13 2.385 . S
Cd14 O15 2.317 . S
O15 Cd14 2.317 . S
O15 C16 1.232 . S
C16 O15 1.232 . S
C16 O17 1.218 . S
O17 C16 1.218 . S
C18 O11 1.275 1_455 S
C18 O13 1.255 . S
C19 O20 1.258 1_455 S
C19 O21 1.256 . S
O20 Cd12 2.381 1_655 S
O20 C19 1.258 1_655 S
O21 Cd12 2.378 . S
O21 C19 1.256 . S
O22 Cd23 2.300 1_565 S
O22 C29 1.275 1_565 S
Cd23 O22 2.300 1_545 S
Cd23 O31 2.381 1_545 S
Cd23 O32 2.378 . S
O24 Cd25 2.385 . S
O24 C29 1.255 . S
Cd25 O24 2.385 . S
Cd25 O26 2.317 . S
O26 Cd25 2.317 . S
O26 C27 1.232 . S
C27 O26 1.232 . S
C27 O28 1.218 . S
O28 C27 1.218 . S
C29 O22 1.275 1_545 S
C29 O24 1.255 . S
C30 O31 1.258 1_545 S
C30 O32 1.256 . S
O31 Cd23 2.381 1_565 S
O31 C30 1.258 1_565 S
O32 Cd23 2.378 . S
O32 C30 1.256 . S
O33 Cd34 2.300 . S
O33 C40 1.275 . S
Cd34 O33 2.300 . S
Cd34 O42 2.381 . S
Cd34 O43 2.378 . S
O35 Cd36 2.385 . S
O35 C40 1.255 . S
Cd36 O35 2.385 . S
Cd36 O37 2.317 . S
O37 Cd36 2.317 . S
O37 C38 1.232 . S
C38 O37 1.232 . S
C38 O39 1.218 . S
O39 C38 1.218 . S
C40 O33 1.275 . S
C40 O35 1.255 . S
C41 O42 1.258 . S
C41 O43 1.256 . S
O42 Cd34 2.381 . S
O42 C41 1.258 . S
O43 Cd34 2.378 . S
O43 C41 1.256 . S
O44 Cd45 2.300 . S
O44 C51 1.275 . S
Cd45 O44 2.300 . S
Cd45 O53 2.381 . S
Cd45 O54 2.378 . S
O46 Cd47 2.385 1_554 S
O46 C51 1.255 . S
Cd47 O46 2.385 1_556 S
Cd47 O48 2.317 . S
O48 Cd47 2.317 . S
O48 C49 1.232 . S
C49 O48 1.232 . S
C49 O50 1.218 . S
O50 C49 1.218 . S
C51 O44 1.275 . S
C51 O46 1.255 . S
C52 O53 1.258 . S
C52 O54 1.256 . S
O53 Cd45 2.381 . S
O53 C52 1.258 . S
O54 Cd45 2.378 . S
O54 C52 1.256 . S
O55 Cd56 2.300 1_655 S
O55 C62 1.275 1_655 S
Cd56 O55 2.300 1_455 S
Cd56 O64 2.381 1_455 S
Cd56 O65 2.378 . S
O57 Cd58 2.385 1_554 S
O57 C62 1.255 . S
Cd58 O57 2.385 1_556 S
Cd58 O59 2.317 . S
O59 Cd58 2.317 . S
O59 C60 1.232 . S
C60 O59 1.232 . S
C60 O61 1.218 . S
O61 C60 1.218 . S
C62 O55 1.275 1_455 S
C62 O57 1.255 . S
C63 O64 1.258 1_455 S
C63 O65 1.256 . S
O64 Cd56 2.381 1_655 S
O64 C63 1.258 1_655 S
O65 Cd56 2.378 . S
O65 C63 1.256 . S
O66 Cd67 2.300 1_565 S
O66 C73 1.275 1_565 S
Cd67 O66 2.300 1_545 S
Cd67 O75 2.381 1_545 S
Cd67 O76 2.378 . S
O68 Cd69 2.385 1_554 S
O68 C73 1.255 . S
Cd69 O68 2.385 1_556 S
Cd69 O70 2.317 . S
O70 Cd69 2.317 . S
O70 C71 1.232 . S
C71 O70 1.232 . S
C71 O72 1.218 . S
O72 C71 1.218 . S
C73 O66 1.275 1_545 S
C73 O68 1.255 . S
C74 O75 1.258 1_545 S
C74 O76 1.256 . S
O75 Cd67 2.381 1_565 S
O75 C74 1.258 1_565 S
O76 Cd67 2.378 . S
O76 C74 1.256 . S
O77 Cd78 2.300 . S
O77 C84 1.275 . S
Cd78 O77 2.300 . S
Cd78 O86 2.381 . S
Cd78 O87 2.378 . S
O79 Cd80 2.385 1_554 S
O79 C84 1.255 . S
Cd80 O79 2.385 1_556 S
Cd80 O81 2.317 . S
O81 Cd80 2.317 . S
O81 C82 1.232 . S
C82 O81 1.232 . S
C82 O83 1.218 . S
O83 C82 1.218 . S
C84 O77 1.275 . S
C84 O79 1.255 . S
C85 O86 1.258 . S
C85 O87 1.256 . S
O86 Cd78 2.381 . S
O86 C85 1.258 . S
O87 Cd78 2.378 . S
O87 C85 1.256 . S
Tb88 C90 2.809 1_556 S
Tb88 O108 2.484 . S
Tb88 O109 2.440 . S
Tb88 O110 2.658 1_565 S
Tb88 O111 2.409 . S
Tb88 O112 2.378 . S
Tb88 O116 2.325 1_455 S
Tb88 O119 2.341 1_565 S
Tb89 C99 2.809 . S
Tb89 O110 2.325 1_655 S
Tb89 O113 2.341 1_545 S
Tb89 O114 2.484 . S
Tb89 O115 2.440 . S
Tb89 O116 2.658 1_545 S
Tb89 O117 2.409 . S
Tb89 O118 2.378 . S
C90 Tb88 2.809 1_554 S
C90 C91 1.514 . S
C90 O108 1.248 1_554 S
C90 O109 1.266 1_554 S
C91 C90 1.514 . S
C91 C92 1.359 . S
C91 C96 1.348 . S
C92 C91 1.359 . S
C92 C93 1.380 . S
C92 H120 0.929 1_455 S
C93 C92 1.380 . S
C93 C94 1.347 . S
C93 H121 0.931 1_455 S
C94 C93 1.347 . S
C94 C95 1.369 . S
C95 C94 1.369 . S
C95 C96 1.408 . S
C95 H122 0.930 . S
C96 C91 1.348 . S
C96 C95 1.408 . S
C96 H123 0.930 . S
C97 O110 1.281 1_565 S
C97 O111 1.254 . S
C98 O112 1.236 1_655 S
C98 O113 1.266 . S
C99 Tb89 2.809 . S
C99 C100 1.514 . S
C99 O114 1.248 . S
C99 O115 1.266 . S
C100 C99 1.514 . S
C100 C101 1.359 . S
C100 C105 1.348 . S
C101 C100 1.359 . S
C101 C102 1.380 . S
C101 H124 0.929 1_655 S
C102 C101 1.380 . S
C102 C103 1.347 . S
C102 H125 0.931 1_655 S
C103 C102 1.347 . S
C103 C104 1.369 . S
C104 C103 1.369 . S
C104 C105 1.408 . S
C104 H126 0.930 . S
C105 C100 1.348 . S
C105 C104 1.408 . S
C105 H127 0.930 . S
C106 O116 1.281 1_545 S
C106 O117 1.254 . S
C107 O118 1.236 1_455 S
C107 O119 1.266 . S
O108 Tb88 2.484 . S
O108 C90 1.248 1_556 S
O109 Tb88 2.440 . S
O109 C90 1.266 1_556 S
O110 Tb88 2.658 1_545 S
O110 Tb89 2.325 1_455 S
O110 C97 1.281 1_545 S
O111 Tb88 2.409 . S
O111 C97 1.254 . S
O112 Tb88 2.378 . S
O112 C98 1.236 1_455 S
O113 Tb89 2.341 1_565 S
O113 C98 1.266 . S
O114 Tb89 2.484 . S
O114 C99 1.248 . S
O115 Tb89 2.440 . S
O115 C99 1.266 . S
O116 Tb88 2.325 1_655 S
O116 Tb89 2.658 1_565 S
O116 C106 1.281 1_565 S
O117 Tb89 2.409 . S
O117 C106 1.254 . S
O118 Tb89 2.378 . S
O118 C107 1.236 1_655 S
O119 Tb88 2.341 1_545 S
O119 C107 1.266 . S
H120 C92 0.929 1_655 S
H121 C93 0.931 1_655 S
H122 C95 0.930 . S
H123 C96 0.930 . S
H124 C101 0.929 1_455 S
H125 C102 0.931 1_455 S
H126 C104 0.930 . S
H127 C105 0.930 . S
Tb128 C130 2.809 1_556 S
Tb128 O148 2.485 . S
Tb128 O149 2.440 . S
Tb128 O150 2.658 . S
Tb128 O151 2.409 . S
Tb128 O152 2.378 . S
Tb128 O156 2.325 1_545 S
Tb128 O159 2.341 . S
Tb129 C139 2.809 . S
Tb129 O150 2.325 1_565 S
Tb129 O153 2.341 . S
Tb129 O154 2.484 . S
Tb129 O155 2.440 . S
Tb129 O156 2.658 . S
Tb129 O157 2.409 . S
Tb129 O158 2.378 . S
C130 Tb128 2.809 1_554 S
C130 C131 1.514 . S
C130 O148 1.248 1_554 S
C130 O149 1.266 1_554 S
C131 C130 1.514 . S
C131 C132 1.359 . S
C131 C136 1.348 . S
C132 C131 1.359 . S
C132 C133 1.380 . S
C132 H160 0.929 1_545 S
C133 C132 1.380 . S
C133 C134 1.347 . S
C133 H161 0.931 1_545 S
C134 C133 1.347 . S
C134 C135 1.369 . S
C135 C134 1.369 . S
C135 C136 1.408 . S
C135 H162 0.930 . S
C136 C131 1.348 . S
C136 C135 1.408 . S
C136 H163 0.930 . S
C137 O150 1.281 . S
C137 O151 1.254 . S
C138 O152 1.236 1_565 S
C138 O153 1.266 . S
C139 Tb129 2.809 . S
C139 C140 1.514 . S
C139 O154 1.248 . S
C139 O155 1.266 . S
C140 C139 1.514 . S
C140 C141 1.359 . S
C140 C145 1.348 . S
C141 C140 1.359 . S
C141 C142 1.380 . S
C141 H164 0.929 1_565 S
C142 C141 1.380 . S
C142 C143 1.347 . S
C142 H165 0.931 1_565 S
C143 C142 1.347 . S
C143 C144 1.369 . S
C144 C143 1.369 . S
C144 C145 1.408 . S
C144 H166 0.930 . S
C145 C140 1.348 . S
C145 C144 1.408 . S
C145 H167 0.930 . S
C146 O156 1.281 . S
C146 O157 1.254 . S
C147 O158 1.236 1_545 S
C147 O159 1.266 . S
O148 Tb128 2.485 . S
O148 C130 1.248 1_556 S
O149 Tb128 2.440 . S
O149 C130 1.266 1_556 S
O150 Tb128 2.658 . S
O150 Tb129 2.325 1_545 S
O150 C137 1.281 . S
O151 Tb128 2.409 . S
O151 C137 1.254 . S
O152 Tb128 2.378 . S
O152 C138 1.236 1_545 S
O153 Tb129 2.341 . S
O153 C138 1.266 . S
O154 Tb129 2.484 . S
O154 C139 1.248 . S
O155 Tb129 2.440 . S
O155 C139 1.266 . S
O156 Tb128 2.325 1_565 S
O156 Tb129 2.658 . S
O156 C146 1.281 . S
O157 Tb129 2.409 . S
O157 C146 1.254 . S
O158 Tb129 2.378 . S
O158 C147 1.236 1_565 S
O159 Tb128 2.341 . S
O159 C147 1.266 . S
H160 C132 0.929 1_565 S
H161 C133 0.931 1_565 S
H162 C135 0.930 . S
H163 C136 0.930 . S
H164 C141 0.929 1_545 S
H165 C142 0.931 1_545 S
H166 C144 0.930 . S
H167 C145 0.930 . S
Tb168 C170 2.809 1_556 S
Tb168 O188 2.484 1_556 S
Tb168 O189 2.440 . S
Tb168 O190 2.658 . S
Tb168 O191 2.409 . S
Tb168 O192 2.378 . S
Tb168 O196 2.325 . S
Tb168 O199 2.341 . S
Tb169 C179 2.809 . S
Tb169 O190 2.325 . S
Tb169 O193 2.341 . S
Tb169 O194 2.484 . S
Tb169 O195 2.440 . S
Tb169 O196 2.658 . S
Tb169 O197 2.409 . S
Tb169 O198 2.378 . S
C170 Tb168 2.809 1_554 S
C170 C171 1.514 . S
C170 O188 1.248 . S
C170 O189 1.266 1_554 S
C171 C170 1.514 . S
C171 C172 1.359 . S
C171 C176 1.348 . S
C172 C171 1.359 . S
C172 C173 1.380 . S
C172 H200 0.929 . S
C173 C172 1.380 . S
C173 C174 1.347 . S
C173 H201 0.931 . S
C174 C173 1.347 . S
C174 C175 1.369 . S
C175 C174 1.369 . S
C175 C176 1.408 . S
C175 H202 0.930 . S
C176 C171 1.348 . S
C176 C175 1.408 . S
C176 H203 0.930 . S
C177 O190 1.281 . S
C177 O191 1.254 . S
C178 O192 1.236 . S
C178 O193 1.266 . S
C179 Tb169 2.809 . S
C179 C180 1.514 . S
C179 O194 1.248 . S
C179 O195 1.266 . S
C180 C179 1.514 . S
C180 C181 1.359 . S
C180 C185 1.348 . S
C181 C180 1.359 . S
C181 C182 1.380 . S
C181 H204 0.929 . S
C182 C181 1.380 . S
C182 C183 1.347 . S
C182 H205 0.931 . S
C183 C182 1.347 . S
C183 C184 1.369 . S
C184 C183 1.369 . S
C184 C185 1.408 . S
C184 H206 0.930 . S
C185 C180 1.348 . S
C185 C184 1.408 . S
C185 H207 0.930 . S
C186 O196 1.281 . S
C186 O197 1.254 . S
C187 O198 1.236 . S
C187 O199 1.266 . S
O188 Tb168 2.484 1_554 S
O188 C170 1.248 . S
O189 Tb168 2.440 . S
O189 C170 1.266 1_556 S
O190 Tb168 2.658 . S
O190 Tb169 2.325 . S
O190 C177 1.281 . S
O191 Tb168 2.409 . S
O191 C177 1.254 . S
O192 Tb168 2.378 . S
O192 C178 1.236 . S
O193 Tb169 2.341 . S
O193 C178 1.266 . S
O194 Tb169 2.484 . S
O194 C179 1.248 . S
O195 Tb169 2.440 . S
O195 C179 1.266 . S
O196 Tb168 2.325 . S
O196 Tb169 2.658 . S
O196 C186 1.281 . S
O197 Tb169 2.409 . S
O197 C186 1.254 . S
O198 Tb169 2.378 . S
O198 C187 1.236 . S
O199 Tb168 2.341 . S
O199 C187 1.266 . S
H200 C172 0.929 . S
H201 C173 0.931 . S
H202 C175 0.930 . S
H203 C176 0.930 . S
H204 C181 0.929 . S
H205 C182 0.931 . S
H206 C184 0.930 . S
H207 C185 0.930 . S
Tb208 C210 2.809 1_556 S
Tb208 O228 2.484 1_556 S
Tb208 O229 2.440 . S
Tb208 O230 2.658 1_655 S
Tb208 O231 2.409 . S
Tb208 O232 2.378 . S
Tb208 O236 2.325 . S
Tb208 O239 2.341 1_655 S
Tb209 C219 2.809 . S
Tb209 O230 2.325 . S
Tb209 O233 2.341 1_455 S
Tb209 O234 2.484 . S
Tb209 O235 2.440 . S
Tb209 O236 2.658 1_455 S
Tb209 O237 2.409 . S
Tb209 O238 2.378 . S
C210 Tb208 2.809 1_554 S
C210 C211 1.514 . S
C210 O228 1.248 . S
C210 O229 1.266 1_554 S
C211 C210 1.514 . S
C211 C212 1.359 . S
C211 C216 1.348 . S
C212 C211 1.359 . S
C212 C213 1.380 . S
C212 H240 0.929 . S
C213 C212 1.380 . S
C213 C214 1.347 . S
C213 H241 0.931 . S
C214 C213 1.347 . S
C214 C215 1.369 . S
C215 C214 1.369 . S
C215 C216 1.408 . S
C215 H242 0.930 . S
C216 C211 1.348 . S
C216 C215 1.408 . S
C216 H243 0.930 . S
C217 O230 1.277 1_655 S
C217 O231 1.259 . S
C218 O232 1.236 . S
C218 O233 1.266 . S
C219 Tb209 2.809 . S
C219 C220 1.514 . S
C219 O234 1.248 . S
C219 O235 1.266 . S
C220 C219 1.514 . S
C220 C221 1.359 . S
C220 C225 1.348 . S
C221 C220 1.359 . S
C221 C222 1.380 . S
C221 H244 0.929 . S
C222 C221 1.380 . S
C222 C223 1.347 . S
C222 H245 0.931 . S
C223 C222 1.347 . S
C223 C224 1.369 . S
C224 C223 1.369 . S
C224 C225 1.408 . S
C224 H246 0.930 . S
C225 C220 1.348 . S
C225 C224 1.408 . S
C225 H247 0.930 . S
C226 O236 1.274 1_455 S
C226 O237 1.263 . S
C227 O238 1.236 . S
C227 O239 1.266 . S
O228 Tb208 2.484 1_554 S
O228 C210 1.248 . S
O229 Tb208 2.440 . S
O229 C210 1.266 1_556 S
O230 Tb208 2.658 1_455 S
O230 Tb209 2.325 . S
O230 C217 1.277 1_455 S
O231 Tb208 2.409 . S
O231 C217 1.259 . S
O232 Tb208 2.378 . S
O232 C218 1.236 . S
O233 Tb209 2.341 1_655 S
O233 C218 1.266 . S
O234 Tb209 2.484 . S
O234 C219 1.248 . S
O235 Tb209 2.440 . S
O235 C219 1.266 . S
O236 Tb208 2.325 . S
O236 Tb209 2.658 1_655 S
O236 C226 1.274 1_655 S
O237 Tb209 2.409 . S
O237 C226 1.263 . S
O238 Tb209 2.378 . S
O238 C227 1.236 . S
O239 Tb208 2.341 1_455 S
O239 C227 1.266 . S
H240 C212 0.929 . S
H241 C213 0.931 . S
H242 C215 0.930 . S
H243 C216 0.930 . S
H244 C221 0.929 . S
H245 C222 0.931 . S
H246 C224 0.930 . S
H247 C225 0.930 . S
C248 C249 1.361 . S
C248 C254 1.379 . S
C248 N256 1.356 . S
C249 C248 1.361 . S
C249 C255 1.365 1_545 S
C250 C251 1.363 . S
C250 C255 1.379 . S
C250 N257 1.356 . S
C251 C250 1.363 . S
C251 C254 1.363 1_565 S
N252 C254 1.356 . S
N252 H264 0.984 . S
N252 H265 0.985 . S
N253 C255 1.356 . S
N253 H258 0.984 . S
N253 H259 0.985 . S
C254 C248 1.379 . S
C254 C251 1.363 1_545 S
C254 N252 1.356 . S
C255 C249 1.365 1_565 S
C255 C250 1.379 . S
C255 N253 1.356 . S
N256 C248 1.356 . S
N256 H262 0.984 . S
N256 H263 0.984 . S
N257 C250 1.356 . S
N257 H260 0.984 . S
N257 H261 0.985 . S
H258 N253 0.984 . S
H259 N253 0.985 . S
H260 N257 0.984 . S
H261 N257 0.985 . S
H262 N256 0.984 . S
H263 N256 0.984 . S
H264 N252 0.984 . S
H265 N252 0.985 . S
C266 C267 1.363 . S
C266 C272 1.379 . S
C266 N274 1.356 . S
C267 C266 1.363 . S
C267 C273 1.363 . S
C268 C269 1.363 . S
C268 C273 1.379 . S
C268 N275 1.356 . S
C269 C268 1.363 . S
C269 C272 1.363 . S
N270 C272 1.356 . S
N270 H282 0.984 . S
N270 H283 0.985 . S
N271 C273 1.356 . S
N271 H276 0.984 . S
N271 H277 0.985 . S
C272 C266 1.379 . S
C272 C269 1.363 . S
C272 N270 1.356 . S
C273 C267 1.363 . S
C273 C268 1.379 . S
C273 N271 1.356 . S
N274 C266 1.356 . S
N274 H280 0.984 . S
N274 H281 0.984 . S
N275 C268 1.356 . S
N275 H278 0.984 . S
N275 H279 0.985 . S
H276 N271 0.984 . S
H277 N271 0.985 . S
H278 N275 0.984 . S
H279 N275 0.985 . S
H280 N274 0.984 . S
H281 N274 0.984 . S
H282 N270 0.984 . S
H283 N270 0.985 . S
C284 C285 1.363 . S
C284 C290 1.379 . S
C284 N292 1.356 . S
C285 C284 1.363 . S
C285 C291 1.363 . S
C286 C287 1.363 . S
C286 C291 1.379 . S
C286 N293 1.356 . S
C287 C286 1.363 . S
C287 C290 1.363 . S
N288 C290 1.356 . S
N288 H300 0.984 . S
N288 H301 0.985 . S
N289 C291 1.356 . S
N289 H294 0.984 . S
N289 H295 0.985 . S
C290 C284 1.379 . S
C290 C287 1.363 . S
C290 N288 1.356 . S
C291 C285 1.363 . S
C291 C286 1.379 . S
C291 N289 1.356 . S
N292 C284 1.356 . S
N292 H298 0.984 . S
N292 H299 0.984 . S
N293 C286 1.356 . S
N293 H296 0.984 . S
N293 H297 0.985 . S
H294 N289 0.984 . S
H295 N289 0.985 . S
H296 N293 0.984 . S
H297 N293 0.985 . S
H298 N292 0.984 . S
H299 N292 0.984 . S
H300 N288 0.984 . S
H301 N288 0.985 . S
C302 C303 1.374 . S
C302 C308 1.379 . S
C302 N310 1.356 . S
C303 C302 1.374 . S
C303 C309 1.353 1_455 S
C304 C305 1.363 1_655 S
C304 C309 1.379 . S
C304 N311 1.356 . S
C305 C304 1.363 1_455 S
C305 C308 1.363 . S
N306 C308 1.356 . S
N306 H318 0.984 . S
N306 H319 0.985 . S
N307 C309 1.356 . S
N307 H312 0.984 . S
N307 H313 0.985 . S
C308 C302 1.379 . S
C308 C305 1.363 . S
C308 N306 1.356 . S
C309 C303 1.353 1_655 S
C309 C304 1.379 . S
C309 N307 1.356 . S
N310 C302 1.356 . S
N310 H316 0.984 . S
N310 H317 0.984 . S
N311 C304 1.356 . S
N311 H314 0.984 . S
N311 H315 0.985 . S
H312 N307 0.984 . S
H313 N307 0.985 . S
H314 N311 0.984 . S
H315 N311 0.985 . S
H316 N310 0.984 . S
H317 N310 0.984 . S
H318 N306 0.984 . S
H319 N306 0.985 . S
C320 C321 1.365 . S
C320 C326 1.379 . S
C320 N328 1.356 . S
C321 C320 1.365 . S
C321 C327 1.361 1_545 S
C322 C323 1.357 1_565 S
C322 C327 1.379 . S
C322 N329 1.356 . S
C323 C322 1.357 1_545 S
C323 C326 1.369 . S
N324 C326 1.356 1_556 S
N324 H336 0.984 . S
N324 H337 0.985 . S
N325 C327 1.356 . S
N325 H330 0.984 . S
N325 H331 0.985 . S
C326 C320 1.379 . S
C326 C323 1.369 . S
C326 N324 1.356 1_554 S
C327 C321 1.361 1_565 S
C327 C322 1.379 . S
C327 N325 1.356 . S
N328 C320 1.356 . S
N328 H334 0.984 . S
N328 H335 0.984 . S
N329 C322 1.356 . S
N329 H332 0.984 1_554 S
N329 H333 0.985 . S
H330 N325 0.984 . S
H331 N325 0.985 . S
H332 N329 0.984 1_556 S
H333 N329 0.985 . S
H334 N328 0.984 . S
H335 N328 0.984 . S
H336 N324 0.984 . S
H337 N324 0.985 . S
C338 C339 1.363 . S
C338 C344 1.379 . S
C338 N346 1.356 . S
C339 C338 1.363 . S
C339 C345 1.363 . S
C340 C341 1.363 . S
C340 C345 1.379 . S
C340 N347 1.356 1_554 S
C341 C340 1.363 . S
C341 C344 1.363 . S
N342 C344 1.356 . S
N342 H354 0.984 . S
N342 H355 0.985 1_554 S
N343 C345 1.356 . S
N343 H348 0.984 . S
N343 H349 0.985 . S
C344 C338 1.379 . S
C344 C341 1.363 . S
C344 N342 1.356 . S
C345 C339 1.363 . S
C345 C340 1.379 . S
C345 N343 1.356 . S
N346 C338 1.356 . S
N346 H352 0.984 . S
N346 H353 0.984 . S
N347 C340 1.356 1_556 S
N347 H350 0.984 . S
N347 H351 0.985 . S
H348 N343 0.984 . S
H349 N343 0.985 . S
H350 N347 0.984 . S
H351 N347 0.985 . S
H352 N346 0.984 . S
H353 N346 0.984 . S
H354 N342 0.984 . S
H355 N342 0.985 1_556 S
C356 C357 1.363 . S
C356 C362 1.379 . S
C356 N364 1.356 . S
C357 C356 1.363 . S
C357 C363 1.363 . S
C358 C359 1.363 . S
C358 C363 1.379 . S
C358 N365 1.356 . S
C359 C358 1.363 . S
C359 C362 1.363 . S
N360 C362 1.356 1_556 S
N360 H372 0.984 . S
N360 H373 0.985 . S
N361 C363 1.356 . S
N361 H366 0.984 . S
N361 H367 0.985 . S
C362 C356 1.379 . S
C362 C359 1.363 . S
C362 N360 1.356 1_554 S
C363 C357 1.363 . S
C363 C358 1.379 . S
C363 N361 1.356 . S
N364 C356 1.356 . S
N364 H370 0.984 . S
N364 H371 0.984 . S
N365 C358 1.356 . S
N365 H368 0.984 1_554 S
N365 H369 0.985 . S
H366 N361 0.984 . S
H367 N361 0.985 . S
H368 N365 0.984 1_556 S
H369 N365 0.985 . S
H370 N364 0.984 . S
H371 N364 0.984 . S
H372 N360 0.984 . S
H373 N360 0.985 . S
C374 C375 1.368 . S
C374 C380 1.379 . S
C374 N382 1.356 . S
C375 C374 1.368 . S
C375 C381 1.358 1_655 S
C376 C377 1.363 1_455 S
C376 C381 1.379 . S
C376 N383 1.356 . S
C377 C376 1.363 1_655 S
C377 C380 1.363 . S
N378 C380 1.356 1_556 S
N378 H390 0.984 . S
N378 H391 0.985 . S
N379 C381 1.356 . S
N379 H384 0.984 . S
N379 H385 0.985 . S
C380 C374 1.379 . S
C380 C377 1.363 . S
C380 N378 1.356 1_554 S
C381 C375 1.358 1_455 S
C381 C376 1.379 . S
C381 N379 1.356 . S
N382 C374 1.356 . S
N382 H388 0.984 . S
N382 H389 0.984 . S
N383 C376 1.356 . S
N383 H386 0.984 1_554 S
N383 H387 0.985 . S
H384 N379 0.984 . S
H385 N379 0.985 . S
H386 N383 0.984 1_556 S
H387 N383 0.985 . S
H388 N382 0.984 . S
H389 N382 0.984 . S
H390 N378 0.984 . S
H391 N378 0.985 . S
C392 C393 1.363 . S
C392 C398 1.379 . S
C392 N400 1.356 1_655 S
C393 C392 1.363 . S
C393 C399 1.363 . S
C394 C395 1.363 . S
C394 C399 1.379 . S
C394 N401 1.356 . S
C395 C394 1.363 . S
C395 C398 1.363 . S
N396 C398 1.356 . S
N396 H408 0.984 . S
N396 H409 0.985 . S
N397 C399 1.356 . S
N397 H402 0.984 1_655 S
N397 H403 0.985 1_554 S
C398 C392 1.379 . S
C398 C395 1.363 . S
C398 N396 1.356 . S
C399 C393 1.363 . S
C399 C394 1.379 . S
C399 N397 1.356 . S
N400 C392 1.356 1_455 S
N400 H406 0.984 . S
N400 H407 0.984 . S
N401 C394 1.356 . S
N401 H404 0.984 . S
N401 H405 0.985 . S
H402 N397 0.984 1_455 S
H403 N397 0.985 1_556 S
H404 N401 0.984 . S
H405 N401 0.985 . S
H406 N400 0.984 . S
H407 N400 0.984 . S
H408 N396 0.984 . S
H409 N396 0.985 . S
C410 C411 1.363 1_545 S
C410 C416 1.379 1_545 S
C410 N418 1.356 . S
C411 C410 1.363 1_565 S
C411 C417 1.363 . S
C412 C413 1.363 . S
C412 C417 1.379 . S
C412 N419 1.356 . S
C413 C412 1.363 . S
C413 C416 1.363 . S
N414 C416 1.356 . S
N414 H426 0.984 1_565 S
N414 H427 0.985 . S
N415 C417 1.356 . S
N415 H420 0.984 . S
N415 H421 0.985 . S
C416 C410 1.379 1_565 S
C416 C413 1.363 . S
C416 N414 1.356 . S
C417 C411 1.363 . S
C417 C412 1.379 . S
C417 N415 1.356 . S
N418 C410 1.356 . S
N418 H424 0.984 . S
N418 H425 0.984 . S
N419 C412 1.356 . S
N419 H422 0.984 . S
N419 H423 0.985 . S
H420 N415 0.984 . S
H421 N415 0.985 . S
H422 N419 0.984 . S
H423 N419 0.985 . S
H424 N418 0.984 . S
H425 N418 0.984 . S
H426 N414 0.984 1_545 S
H427 N414 0.985 . S
C428 C429 1.363 . S
C428 C434 1.379 . S
C428 N436 1.356 . S
C429 C428 1.363 . S
C429 C435 1.363 . S
C430 C431 1.363 . S
C430 C435 1.379 . S
C430 N437 1.356 . S
C431 C430 1.363 . S
C431 C434 1.363 . S
N432 C434 1.356 . S
N432 H444 0.984 . S
N432 H445 0.985 . S
N433 C435 1.356 . S
N433 H438 0.984 . S
N433 H439 0.985 . S
C434 C428 1.379 . S
C434 C431 1.363 . S
C434 N432 1.356 . S
C435 C429 1.363 . S
C435 C430 1.379 . S
C435 N433 1.356 . S
N436 C428 1.356 . S
N436 H442 0.984 . S
N436 H443 0.984 . S
N437 C430 1.356 . S
N437 H440 0.984 . S
N437 H441 0.985 . S
H438 N433 0.984 . S
H439 N433 0.985 . S
H440 N437 0.984 . S
H441 N437 0.985 . S
H442 N436 0.984 . S
H443 N436 0.984 . S
H444 N432 0.984 . S
H445 N432 0.985 . S
C446 C447 1.363 . S
C446 C452 1.379 . S
C446 N454 1.356 . S
C447 C446 1.363 . S
C447 C453 1.363 . S
C448 C449 1.363 . S
C448 C453 1.379 . S
C448 N455 1.356 . S
C449 C448 1.363 . S
C449 C452 1.363 . S
N450 C452 1.356 . S
N450 H462 0.984 . S
N450 H463 0.985 . S
N451 C453 1.356 . S
N451 H456 0.984 . S
N451 H457 0.985 . S
C452 C446 1.379 . S
C452 C449 1.363 . S
C452 N450 1.356 . S
C453 C447 1.363 . S
C453 C448 1.379 . S
C453 N451 1.356 . S
N454 C446 1.356 . S
N454 H460 0.984 . S
N454 H461 0.984 . S
N455 C448 1.356 . S
N455 H458 0.984 . S
N455 H459 0.985 . S
H456 N451 0.984 . S
H457 N451 0.985 . S
H458 N455 0.984 . S
H459 N455 0.985 . S
H460 N454 0.984 . S
H461 N454 0.984 . S
H462 N450 0.984 . S
H463 N450 0.985 . S
C464 C465 1.363 . S
C464 C470 1.379 . S
C464 N472 1.356 . S
C465 C464 1.363 . S
C465 C471 1.363 . S
C466 C467 1.363 . S
C466 C471 1.377 . S
C466 N473 1.356 . S
C467 C466 1.363 . S
C467 C470 1.363 . S
N468 C470 1.356 . S
N468 H480 0.984 . S
N468 H481 0.985 . S
N469 C471 1.359 1_655 S
N469 H474 0.984 . S
N469 H475 0.985 . S
C470 C464 1.379 . S
C470 C467 1.363 . S
C470 N468 1.356 . S
C471 C465 1.363 . S
C471 C466 1.377 . S
C471 N469 1.359 1_455 S
N472 C464 1.356 . S
N472 H478 0.984 . S
N472 H479 0.984 . S
N473 C466 1.356 . S
N473 H476 0.984 . S
N473 H477 0.985 . S
H474 N469 0.984 . S
H475 N469 0.985 . S
H476 N473 0.984 . S
H477 N473 0.985 . S
H478 N472 0.984 . S
H479 N472 0.984 . S
H480 N468 0.984 . S
H481 N468 0.985 . S
C482 C483 1.363 . S
C482 C488 1.379 . S
C482 N490 1.356 . S
C483 C482 1.363 . S
C483 C489 1.363 . S
C484 C485 1.363 . S
C484 C489 1.379 . S
C484 N491 1.356 . S
C485 C484 1.363 . S
C485 C488 1.363 . S
N486 C488 1.356 . S
N486 H498 0.984 . S
N486 H499 0.985 . S
N487 C489 1.356 1_565 S
N487 H492 0.984 . S
N487 H493 0.985 . S
C488 C482 1.379 . S
C488 C485 1.363 . S
C488 N486 1.356 . S
C489 C483 1.363 . S
C489 C484 1.379 . S
C489 N487 1.356 1_545 S
N490 C482 1.356 . S
N490 H496 0.984 . S
N490 H497 0.984 1_545 S
N491 C484 1.356 . S
N491 H494 0.984 . S
N491 H495 0.985 1_554 S
H492 N487 0.984 . S
H493 N487 0.985 . S
H494 N491 0.984 . S
H495 N491 0.985 1_556 S
H496 N490 0.984 . S
H497 N490 0.984 1_565 S
H498 N486 0.984 . S
H499 N486 0.985 . S
C500 C501 1.363 . S
C500 C506 1.379 . S
C500 N508 1.356 . S
C501 C500 1.363 . S
C501 C507 1.363 . S
C502 C503 1.363 . S
C502 C507 1.379 . S
C502 N509 1.356 . S
C503 C502 1.363 . S
C503 C506 1.363 . S
N504 C506 1.356 . S
N504 H516 0.984 . S
N504 H517 0.985 . S
N505 C507 1.356 . S
N505 H510 0.984 . S
N505 H511 0.985 . S
C506 C500 1.379 . S
C506 C503 1.363 . S
C506 N504 1.356 . S
C507 C501 1.363 . S
C507 C502 1.379 . S
C507 N505 1.356 . S
N508 C500 1.356 . S
N508 H514 0.984 . S
N508 H515 0.984 . S
N509 C502 1.356 . S
N509 H512 0.984 . S
N509 H513 0.985 . S
H510 N505 0.984 . S
H511 N505 0.985 . S
H512 N509 0.984 . S
H513 N509 0.985 . S
H514 N508 0.984 . S
H515 N508 0.984 . S
H516 N504 0.984 . S
H517 N504 0.985 . S
C518 C519 1.363 . S
C518 C524 1.379 . S
C518 N526 1.356 . S
C519 C518 1.363 . S
C519 C525 1.363 . S
C520 C521 1.363 . S
C520 C525 1.379 . S
C520 N527 1.356 . S
C521 C520 1.363 . S
C521 C524 1.363 . S
N522 C524 1.356 . S
N522 H534 0.984 . S
N522 H535 0.985 . S
N523 C525 1.356 . S
N523 H528 0.984 . S
N523 H529 0.985 . S
C524 C518 1.379 . S
C524 C521 1.363 . S
C524 N522 1.356 . S
C525 C519 1.363 . S
C525 C520 1.379 . S
C525 N523 1.356 . S
N526 C518 1.356 . S
N526 H532 0.984 . S
N526 H533 0.984 . S
N527 C520 1.356 . S
N527 H530 0.984 . S
N527 H531 0.985 . S
H528 N523 0.984 . S
H529 N523 0.985 . S
H530 N527 0.984 . S
H531 N527 0.985 . S
H532 N526 0.984 . S
H533 N526 0.984 . S
H534 N522 0.984 . S
H535 N522 0.985 . S
C536 C537 1.363 . S
C536 C542 1.379 . S
C536 N544 1.356 . S
C537 C536 1.363 . S
C537 C543 1.363 1_455 S
C538 C539 1.363 1_655 S
C538 C543 1.379 . S
C538 N545 1.356 . S
C539 C538 1.363 1_455 S
C539 C542 1.363 . S
N540 C542 1.356 . S
N540 H552 0.984 1_556 S
N540 H553 0.985 . S
N541 C543 1.356 . S
N541 H546 0.984 . S
N541 H547 0.985 . S
C542 C536 1.379 . S
C542 C539 1.363 . S
C542 N540 1.356 . S
C543 C537 1.363 1_655 S
C543 C538 1.379 . S
C543 N541 1.356 . S
N544 C536 1.356 . S
N544 H550 0.984 1_556 S
N544 H551 0.984 . S
N545 C538 1.356 . S
N545 H548 0.984 . S
N545 H549 0.985 . S
H546 N541 0.984 . S
H547 N541 0.985 . S
H548 N545 0.984 . S
H549 N545 0.985 . S
H550 N544 0.984 1_554 S
H551 N544 0.984 . S
H552 N540 0.984 1_554 S
H553 N540 0.985 . S
C554 C555 1.363 1_565 S
C554 C560 1.378 1_565 S
C554 N562 1.356 . S
C555 C554 1.363 1_545 S
C555 C561 1.363 . S
C556 C557 1.363 . S
C556 C561 1.379 . S
C556 N563 1.356 . S
C557 C556 1.363 . S
C557 C560 1.365 . S
N558 C560 1.355 1_565 S
N558 H570 0.984 1_556 S
N558 H571 0.984 . S
N559 C561 1.356 . S
N559 H564 0.984 . S
N559 H565 0.985 . S
C560 C554 1.378 1_545 S
C560 C557 1.365 . S
C560 N558 1.355 1_545 S
C561 C555 1.363 . S
C561 C556 1.379 . S
C561 N559 1.356 . S
N562 C554 1.356 . S
N562 H568 0.984 1_556 S
N562 H569 0.984 . S
N563 C556 1.356 . S
N563 H566 0.984 . S
N563 H567 0.985 . S
H564 N559 0.984 . S
H565 N559 0.985 . S
H566 N563 0.984 . S
H567 N563 0.985 . S
H568 N562 0.984 1_554 S
H569 N562 0.984 . S
H570 N558 0.984 1_554 S
H571 N558 0.984 . S
C572 C573 1.363 . S
C572 C578 1.379 . S
C572 N580 1.356 . S
C573 C572 1.363 . S
C573 C579 1.363 . S
C574 C575 1.363 . S
C574 C579 1.379 . S
C574 N581 1.356 . S
C575 C574 1.363 . S
C575 C578 1.363 . S
N576 C578 1.356 . S
N576 H588 0.984 . S
N576 H589 0.985 . S
N577 C579 1.356 . S
N577 H582 0.984 . S
N577 H583 0.985 . S
C578 C572 1.379 . S
C578 C575 1.363 . S
C578 N576 1.356 . S
C579 C573 1.363 . S
C579 C574 1.379 . S
C579 N577 1.356 . S
N580 C572 1.356 . S
N580 H586 0.984 . S
N580 H587 0.984 . S
N581 C574 1.356 . S
N581 H584 0.984 . S
N581 H585 0.985 1_556 S
H582 N577 0.984 . S
H583 N577 0.985 . S
H584 N581 0.984 . S
H585 N581 0.985 1_554 S
H586 N580 0.984 . S
H587 N580 0.984 . S
H588 N576 0.984 . S
H589 N576 0.985 . S
C590 C591 1.363 . S
C590 C596 1.379 . S
C590 N598 1.356 . S
C591 C590 1.363 . S
C591 C597 1.363 . S
C592 C593 1.363 . S
C592 C597 1.379 . S
C592 N599 1.356 . S
C593 C592 1.363 . S
C593 C596 1.363 . S
N594 C596 1.356 . S
N594 H606 0.984 . S
N594 H607 0.985 . S
N595 C597 1.356 . S
N595 H600 0.984 . S
N595 H601 0.985 1_556 S
C596 C590 1.379 . S
C596 C593 1.363 . S
C596 N594 1.356 . S
C597 C591 1.363 . S
C597 C592 1.379 . S
C597 N595 1.356 . S
N598 C590 1.356 . S
N598 H604 0.984 . S
N598 H605 0.984 . S
N599 C592 1.356 . S
N599 H602 0.984 . S
N599 H603 0.985 1_556 S
H600 N595 0.984 . S
H601 N595 0.985 1_554 S
H602 N599 0.984 . S
H603 N599 0.985 1_554 S
H604 N598 0.984 . S
H605 N598 0.984 . S
H606 N594 0.984 . S
H607 N594 0.985 . S
C608 C609 1.363 1_455 S
C608 C614 1.379 . S
C608 N616 1.356 . S
C609 C608 1.363 1_655 S
C609 C615 1.363 . S
C610 C611 1.363 . S
C610 C615 1.379 . S
C610 N617 1.356 . S
C611 C610 1.363 . S
C611 C614 1.363 1_655 S
N612 C614 1.356 . S
N612 H624 0.984 . S
N612 H625 0.985 . S
N613 C615 1.356 . S
N613 H618 0.984 . S
N613 H619 0.985 . S
C614 C608 1.379 . S
C614 C611 1.363 1_455 S
C614 N612 1.356 . S
C615 C609 1.363 . S
C615 C610 1.379 . S
C615 N613 1.356 . S
N616 C608 1.356 . S
N616 H622 0.984 . S
N616 H623 0.984 . S
N617 C610 1.356 . S
N617 H620 0.984 . S
N617 H621 0.985 . S
H618 N613 0.984 . S
H619 N613 0.985 . S
H620 N617 0.984 . S
H621 N617 0.985 . S
H622 N616 0.984 . S
H623 N616 0.984 . S
H624 N612 0.984 . S
H625 N612 0.985 . S
C626 C627 1.363 1_545 S
C626 C632 1.379 . S
C626 N634 1.356 . S
C627 C626 1.363 1_565 S
C627 C633 1.363 . S
C628 C629 1.363 . S
C628 C633 1.379 . S
C628 N635 1.356 . S
C629 C628 1.363 . S
C629 C632 1.363 1_565 S
N630 C632 1.356 . S
N630 H642 0.984 . S
N630 H643 0.985 . S
N631 C633 1.356 . S
N631 H636 0.984 . S
N631 H637 0.985 . S
C632 C626 1.379 . S
C632 C629 1.363 1_545 S
C632 N630 1.356 . S
C633 C627 1.363 . S
C633 C628 1.379 . S
C633 N631 1.356 . S
N634 C626 1.356 . S
N634 H640 0.984 . S
N634 H641 0.984 . S
N635 C628 1.356 . S
N635 H638 0.984 . S
N635 H639 0.985 . S
H636 N631 0.984 . S
H637 N631 0.985 . S
H638 N635 0.984 . S
H639 N635 0.985 . S
H640 N634 0.984 . S
H641 N634 0.984 . S
H642 N630 0.984 . S
H643 N630 0.985 . S
C644 C645 1.363 . S
C644 C650 1.379 . S
C644 N652 1.356 . S
C645 C644 1.363 . S
C645 C651 1.363 . S
C646 C647 1.363 . S
C646 C651 1.379 . S
C646 N653 1.356 . S
C647 C646 1.363 . S
C647 C650 1.363 . S
N648 C650 1.356 . S
N648 H660 0.984 . S
N648 H661 0.985 . S
N649 C651 1.356 . S
N649 H654 0.984 . S
N649 H655 0.985 . S
C650 C644 1.379 . S
C650 C647 1.363 . S
C650 N648 1.356 . S
C651 C645 1.363 . S
C651 C646 1.379 . S
C651 N649 1.356 . S
N652 C644 1.356 . S
N652 H658 0.984 . S
N652 H659 0.984 . S
N653 C646 1.356 . S
N653 H656 0.984 . S
N653 H657 0.985 . S
H654 N649 0.984 . S
H655 N649 0.985 . S
H656 N653 0.984 . S
H657 N653 0.985 . S
H658 N652 0.984 . S
H659 N652 0.984 . S
H660 N648 0.984 . S
H661 N648 0.985 . S
C662 C663 1.363 . S
C662 C668 1.379 . S
C662 N670 1.356 . S
C663 C662 1.363 . S
C663 C669 1.363 . S
C664 C665 1.363 . S
C664 C669 1.379 . S
C664 N671 1.356 . S
C665 C664 1.363 . S
C665 C668 1.363 . S
N666 C668 1.356 . S
N666 H678 0.984 . S
N666 H679 0.985 . S
N667 C669 1.356 . S
N667 H672 0.984 . S
N667 H673 0.985 . S
C668 C662 1.379 . S
C668 C665 1.363 . S
C668 N666 1.356 . S
C669 C663 1.363 . S
C669 C664 1.379 . S
C669 N667 1.356 . S
N670 C662 1.356 . S
N670 H676 0.984 . S
N670 H677 0.984 . S
N671 C664 1.356 . S
N671 H674 0.984 . S
N671 H675 0.985 . S
H672 N667 0.984 . S
H673 N667 0.985 . S
H674 N671 0.984 . S
H675 N671 0.985 . S
H676 N670 0.984 . S
H677 N670 0.984 . S
H678 N666 0.984 . S
H679 N666 0.985 . S
C249 C74 1.922 . S
C251 C97 2.129 . S
C269 C137 2.150 . S
C267 C85 1.930 . S
C287 C177 2.160 . S
C285 C52 1.943 . S
C305 C217 2.139 1_455 S
C303 C63 1.933 . S
C323 C106 2.132 1_554 S
C321 C30 1.924 . S
C339 C41 1.953 . S
C341 C146 2.152 1_554 S
C357 C8 1.965 . S
C359 C186 2.159 1_554 S
C375 C19 1.933 1_655 S
C377 C226 2.139 1_654 S
C395 C103 0.841 . S
C393 C62 0.867 1_655 S
C413 C143 0.843 . S
C411 C73 0.868 1_565 S
C431 C183 0.832 . S
C429 C84 0.854 . S
C447 C51 0.852 . S
C449 C223 0.825 . S
C465 C18 0.825 . S
C467 C94 0.844 . S
C485 C134 0.843 . S
C483 C29 0.824 . S
C503 C174 0.833 . S
C501 C40 0.822 . S
C519 C7 0.818 . S
C521 C214 0.832 . S
C537 C60 1.941 . S
C539 C107 2.568 . S
C555 C71 1.899 . S
C557 C147 2.532 . S
C575 C187 2.518 . S
C573 C82 1.849 . S
C593 C227 2.559 . S
C591 C49 1.888 . S
C609 C16 2.045 1_655 S
C611 C98 2.577 . S
C629 C138 2.532 . S
C627 C27 2.009 1_565 S
C647 C178 2.518 . S
C645 C38 2.041 . S
C663 C5 2.074 . S
C665 C218 2.562 . S
