# Generated by pormake.
# Topology zzz, (3,6)-cn, num edge types: 1
# Building blocks:
#     Node 0, Type 0, BuildingBlock: WUSLED_clean_sbu_0, # of connection points: 3
#     Node 1, Type 0, BuildingBlock: WUSLED_clean_sbu_0, # of connection points: 3
#     Node 2, Type 0, BuildingBlock: WUSLED_clean_sbu_0, # of connection points: 3
#     Node 3, Type 0, BuildingBlock: WUSLED_clean_sbu_0, # of connection points: 3
#     Node 4, Type 0, BuildingBlock: WUSLED_clean_sbu_0, # of connection points: 3
#     Node 5, Type 0, BuildingBlock: WUSLED_clean_sbu_0, # of connection points: 3
#     Node 6, Type 0, BuildingBlock: WUSLED_clean_sbu_0, # of connection points: 3
#     Node 7, Type 0, BuildingBlock: WUSLED_clean_sbu_0, # of connection points: 3
#     Node 8, Type 1, BuildingBlock: BETGAK_clean_sbu_0, # of connection points: 6
#     Node 9, Type 1, BuildingBlock: BETGAK_clean_sbu_0, # of connection points: 6
#     Node 10, Type 1, BuildingBlock: BETGAK_clean_sbu_0, # of connection points: 6
#     Node 11, Type 1, BuildingBlock: BETGAK_clean_sbu_0, # of connection points: 6
#     Edge 12, Type (0, 1), BuildingBlock: XIVTED_clean_linker_0, # of connection points: 2
#     Edge 13, Type (0, 1), BuildingBlock: XIVTED_clean_linker_0, # of connection points: 2
#     Edge 14, Type (0, 1), BuildingBlock: XIVTED_clean_linker_0, # of connection points: 2
#     Edge 15, Type (0, 1), BuildingBlock: XIVTED_clean_linker_0, # of connection points: 2
#     Edge 16, Type (0, 1), BuildingBlock: XIVTED_clean_linker_0, # of connection points: 2
#     Edge 17, Type (0, 1), BuildingBlock: XIVTED_clean_linker_0, # of connection points: 2
#     Edge 18, Type (0, 1), BuildingBlock: XIVTED_clean_linker_0, # of connection points: 2
#     Edge 19, Type (0, 1), BuildingBlock: XIVTED_clean_linker_0, # of connection points: 2
#     Edge 20, Type (0, 1), BuildingBlock: XIVTED_clean_linker_0, # of connection points: 2
#     Edge 21, Type (0, 1), BuildingBlock: XIVTED_clean_linker_0, # of connection points: 2
#     Edge 22, Type (0, 1), BuildingBlock: XIVTED_clean_linker_0, # of connection points: 2
#     Edge 23, Type (0, 1), BuildingBlock: XIVTED_clean_linker_0, # of connection points: 2
#     Edge 24, Type (0, 1), BuildingBlock: XIVTED_clean_linker_0, # of connection points: 2
#     Edge 25, Type (0, 1), BuildingBlock: XIVTED_clean_linker_0, # of connection points: 2
#     Edge 26, Type (0, 1), BuildingBlock: XIVTED_clean_linker_0, # of connection points: 2
#     Edge 27, Type (0, 1), BuildingBlock: XIVTED_clean_linker_0, # of connection points: 2
#     Edge 28, Type (0, 1), BuildingBlock: XIVTED_clean_linker_0, # of connection points: 2
#     Edge 29, Type (0, 1), BuildingBlock: XIVTED_clean_linker_0, # of connection points: 2
#     Edge 30, Type (0, 1), BuildingBlock: XIVTED_clean_linker_0, # of connection points: 2
#     Edge 31, Type (0, 1), BuildingBlock: XIVTED_clean_linker_0, # of connection points: 2
#     Edge 32, Type (0, 1), BuildingBlock: XIVTED_clean_linker_0, # of connection points: 2
#     Edge 33, Type (0, 1), BuildingBlock: XIVTED_clean_linker_0, # of connection points: 2
#     Edge 34, Type (0, 1), BuildingBlock: XIVTED_clean_linker_0, # of connection points: 2
#     Edge 35, Type (0, 1), BuildingBlock: XIVTED_clean_linker_0, # of connection points: 2
# Relax obj value: 0.421
# Max RMSD: 0.263
# Mean RMSD: 0.247
data_MOF--net-zzz--node1-WUSLED_clean_sbu_0--node2-BETGAK_clean_sbu_0--edge1-XIVTED_clean_linker_0
_symmetry_space_group_name_H-M    P1
_symmetry_Int_Tables_number       1
_symmetry_cell_setting            triclinic
loop_
_symmetry_equiv_pos_as_xyz
'x, y, z'
_cell_length_a     64.950948
_cell_length_b     64.917128
_cell_length_c     19.76797
_cell_angle_alpha  89.997454
_cell_angle_beta   89.852126
_cell_angle_gamma 90.005073
loop_
_atom_site_label
_atom_site_type_symbol
_atom_site_fract_x
_atom_site_fract_y
_atom_site_fract_z
_atom_type_partial_charge
C0 C 0.77794 0.51982 0.38186 0.0
C1 C 0.79393 0.51217 0.34085 0.0
C2 C 0.81823 0.51429 0.43551 0.0
C3 C 0.81384 0.50944 0.36738 0.0
C4 C 0.80197 0.52151 0.47643 0.0
C5 C 0.78215 0.52422 0.44993 0.0
U6 U 0.73105 0.51333 0.25983 0.0
O7 O 0.69773 0.5155 0.28196 0.0
O8 O 0.7125 0.53832 0.21618 0.0
C9 C 0.69506 0.53099 0.24001 0.0
C10 C 0.75718 0.52469 0.35481 0.0
C11 C 0.67818 0.52882 0.19011 0.0
C12 C 0.64209 0.53371 0.16022 0.0
C13 C 0.65806 0.53463 0.20783 0.0
C14 C 0.66607 0.52092 0.07632 0.0
C15 C 0.64591 0.52706 0.09351 0.0
C16 C 0.68199 0.52172 0.12409 0.0
C17 C 0.76047 0.47073 0.16813 0.0
C18 C 0.78412 0.45453 0.08962 0.0
C19 C 0.79255 0.45623 0.20888 0.0
C20 C 0.77391 0.46629 0.2216 0.0
C21 C 0.79817 0.45079 0.14234 0.0
C22 C 0.76544 0.46435 0.10253 0.0
C23 C 0.74212 0.48351 0.17816 0.0
O24 O 0.75641 0.53318 0.29447 0.0
O25 O 0.74259 0.51096 0.36471 0.0
O26 O 0.73163 0.48036 0.23418 0.0
O27 O 0.74472 0.5031 0.16387 0.0
H28 H 0.79112 0.50861 0.28814 0.0
H29 H 0.82581 0.50358 0.33437 0.0
H30 H 0.80464 0.52572 0.52866 0.0
H31 H 0.77014 0.53027 0.4825 0.0
H32 H 0.62685 0.53873 0.17524 0.0
H33 H 0.65474 0.5402 0.25837 0.0
H34 H 0.66956 0.51541 0.02587 0.0
H35 H 0.69735 0.51701 0.1092 0.0
H36 H 0.78796 0.451 0.03759 0.0
H37 H 0.80284 0.45335 0.25084 0.0
H38 H 0.77032 0.47118 0.2727 0.0
H39 H 0.75525 0.46779 0.06067 0.0
C40 C 1.00184 0.78343 0.39707 0.0
C41 C 0.00994 0.79959 0.35784 0.0
C42 C 1.00756 0.82326 0.45434 0.0
C43 C 0.01277 0.81928 0.38616 0.0
C44 C 0.99995 0.80681 0.49357 0.0
C45 C 0.99713 0.78721 0.46527 0.0
U46 U 0.00845 0.73753 0.27091 0.0
O47 O 1.00548 0.70404 0.28884 0.0
O48 O 0.98347 0.71993 0.22325 0.0
C49 C 0.99029 0.70211 0.24544 0.0
C50 C 0.99677 0.76297 0.36778 0.0
C51 C 0.99254 0.68574 0.19361 0.0
C52 C 0.98727 0.65008 0.15889 0.0
C53 C 0.98628 0.66554 0.20842 0.0
C54 C 1.001 0.67474 0.07886 0.0
C55 C 0.99443 0.6545 0.09314 0.0
C56 C 1.00013 0.69015 0.12856 0.0
C57 C 0.05221 0.76707 0.1857 0.0
C58 C 0.06949 0.79101 0.11076 0.0
C59 C 0.06628 0.79892 0.23017 0.0
C60 C 0.05604 0.78024 0.24051 0.0
C61 C 0.07255 0.80484 0.1647 0.0
C62 C 0.05947 0.7723 0.12131 0.0
C63 C 0.03909 0.74885 0.19282 0.0
O64 O 0.98874 0.76288 0.30681 0.0
O65 O 0.01016 0.74805 0.37718 0.0
O66 O 0.04161 0.73781 0.24795 0.0
O67 O 0.01967 0.75191 0.17733 0.0
H68 H 0.01375 0.79711 0.30508 0.0
H69 H 0.01896 0.8314 0.35445 0.0
H70 H 0.99547 0.80919 0.54578 0.0
H71 H 0.99074 0.77505 0.49647 0.0
H72 H 0.9819 0.63477 0.17168 0.0
H73 H 0.98033 0.66177 0.25815 0.0
H74 H 1.00689 0.67867 0.02923 0.0
H75 H 1.00519 0.70558 0.11591 0.0
H76 H 0.07367 0.79509 0.05944 0.0
H77 H 0.06863 0.80902 0.27305 0.0
H78 H 0.05048 0.77643 0.2907 0.0
H79 H 0.05652 0.76233 0.07843 0.0
C80 C 0.73409 0.01478 0.41346 0.0
C81 C 0.71671 0.01647 0.37136 0.0
C82 C 0.69351 0.01161 0.46806 0.0
C83 C 0.69673 0.01492 0.39828 0.0
C84 C 0.71098 0.00957 0.50971 0.0
C85 C 0.73094 0.0112 0.48279 0.0
U86 U 0.7786 1.00225 0.28974 0.0
O87 O 0.8122 0.99922 0.30515 0.0
O88 O 0.80001 0.02381 0.24058 0.0
C89 C 0.81649 0.01406 0.26202 0.0
C90 C 0.75545 0.01764 0.3871 0.0
C91 C 0.83253 0.00967 0.21023 0.0
C92 C 0.8689 1.0074 0.17999 0.0
C93 C 0.85337 0.00994 0.22875 0.0
C94 C 0.84302 1.00394 0.09304 0.0
C95 C 0.864 1.00462 0.11115 0.0
C96 C 0.82749 1.00638 0.14194 0.0
C97 C 0.73913 0.96681 0.21794 0.0
C98 C 0.70836 0.95757 0.15608 0.0
C99 C 0.70587 0.96732 0.27421 0.0
C100 C 0.72721 0.96972 0.27651 0.0
C101 C 0.69614 0.96209 0.21314 0.0
C102 C 0.72971 0.95998 0.15848 0.0
C103 C 0.76036 0.97439 0.21554 0.0
O104 O 0.76836 1.0023 0.39656 0.0
O105 O 0.75736 0.02614 0.32703 0.0
O106 O 0.7618 0.99382 0.19761 0.0
O107 O 0.77191 0.96968 0.26785 0.0
H108 H 0.71851 0.01921 0.31763 0.0
H109 H 0.68382 0.01684 0.36438 0.0
H110 H 0.7093 1.00663 0.56334 0.0
H111 H 0.74399 0.00983 0.51651 0.0
H112 H 0.88478 1.00764 0.19645 0.0
H113 H 0.85768 0.01242 0.28103 0.0
H114 H 0.83851 1.00207 0.04071 0.0
H115 H 0.81154 1.00611 0.12607 0.0
H116 H 0.70136 0.95376 0.10801 0.0
H117 H 0.6969 0.9707 0.31913 0.0
H118 H 0.73424 0.9751 0.32289 0.0
H119 H 0.73867 0.95788 0.11269 0.0
C120 C 0.51578 0.74247 0.41488 0.0
C121 C 0.49912 0.73597 0.45518 0.0
C122 C 0.51267 0.70082 0.45959 0.0
C123 C 0.49759 0.71547 0.4773 0.0
C124 C 0.52934 0.70733 0.41918 0.0
C125 C 0.53096 0.72788 0.39758 0.0
U126 U 0.51628 0.78351 0.27497 0.0
O127 O 0.53472 0.81173 0.26204 0.0
O128 O 0.50109 0.81389 0.26953 0.0
C129 C 0.51841 0.82366 0.25669 0.0
C130 C 0.51714 0.76442 0.39245 0.0
C131 C 0.51806 0.83875 0.19976 0.0
C132 C 0.5022 0.86871 0.14624 0.0
C133 C 0.50227 0.85351 0.19668 0.0
C134 C 0.53376 0.85476 0.10025 0.0
C135 C 0.51803 0.8697 0.09748 0.0
C136 C 0.53379 0.83951 0.15067 0.0
C137 C 0.51054 0.7356 0.17447 0.0
C138 C 0.49148 0.70479 0.14502 0.0
C139 C 0.51944 0.70272 0.22568 0.0
C140 C 0.52286 0.72382 0.21824 0.0
C141 C 0.50356 0.69303 0.18969 0.0
C142 C 0.49494 0.7259 0.13755 0.0
C143 C 0.51228 0.7582 0.17338 0.0
O144 O 0.53384 0.76996 0.35926 0.0
O145 O 0.50028 0.77236 0.36662 0.0
O146 O 0.49654 0.76786 0.20072 0.0
O147 O 0.5302 0.76573 0.192 0.0
H148 H 0.48723 0.74681 0.46974 0.0
H149 H 0.48443 0.71105 0.50774 0.0
H150 H 0.54141 0.69663 0.4052 0.0
H151 H 0.54418 0.73229 0.36749 0.0
H152 H 0.48962 0.87965 0.14542 0.0
H153 H 0.49 0.85344 0.23391 0.0
H154 H 0.54638 0.85509 0.06436 0.0
H155 H 0.54632 0.82851 0.15161 0.0
H156 H 0.47938 0.69764 0.11561 0.0
H157 H 0.52893 0.69408 0.26063 0.0
H158 H 0.53488 0.73098 0.24783 0.0
H159 H 0.48515 0.73474 0.10404 0.0
C160 C 0.22815 0.50655 0.97668 0.0
C161 C 0.21089 0.50989 0.0184 0.0
C162 C 0.18826 0.51186 0.9195 0.0
C163 C 0.19124 0.51262 0.99017 0.0
C164 C 0.20569 0.50895 0.87803 0.0
C165 C 0.22531 0.50634 0.90627 0.0
U166 U 0.27613 0.51398 0.09403 0.0
O167 O 0.29353 0.48913 0.14379 0.0
O168 O 0.30908 0.50937 0.07109 0.0
C169 C 0.31114 0.49476 0.11673 0.0
C170 C 0.24879 0.50139 1.00459 0.0
C171 C 0.32858 0.49661 0.16468 0.0
C172 C 0.35208 0.51692 0.23403 0.0
C173 C 0.33586 0.51581 0.18727 0.0
C174 C 0.35389 0.4797 0.23659 0.0
C175 C 0.36122 0.49885 0.25974 0.0
C176 C 0.33782 0.47862 0.18963 0.0
C177 C 0.24914 0.55979 0.17589 0.0
C178 C 0.23201 0.5867 0.23973 0.0
C179 C 0.21238 0.5649 0.16404 0.0
C180 C 0.2304 0.55467 0.14529 0.0
C181 C 0.21285 0.58052 0.21351 0.0
C182 C 0.25001 0.57629 0.22134 0.0
C183 C 0.26709 0.54638 0.16762 0.0
O184 O 0.26407 0.5139 0.9895 0.0
O185 O 0.24956 0.4946 0.06722 0.0
O186 O 0.26413 0.52734 0.1879 0.0
O187 O 0.27687 0.54762 0.10945 0.0
H188 H 0.21246 0.50999 0.07292 0.0
H189 H 0.17836 0.51518 0.02399 0.0
H190 H 0.20415 0.50794 0.82362 0.0
H191 H 0.23827 0.50355 0.87288 0.0
H192 H 0.35716 0.53192 0.25121 0.0
H193 H 0.32889 0.52994 0.1693 0.0
H194 H 0.36069 0.46548 0.25447 0.0
H195 H 0.33249 0.46364 0.17301 0.0
H196 H 0.23299 0.59891 0.27688 0.0
H197 H 0.19794 0.55954 0.14316 0.0
H198 H 0.22956 0.54197 0.10994 0.0
H199 H 0.26443 0.58047 0.24515 0.0
C200 C 0.01502 0.23371 0.99561 0.0
C201 C 1.00096 0.22965 0.94317 0.0
C202 C 0.01029 0.19309 0.94267 0.0
C203 C 0.99859 0.20963 0.91721 0.0
C204 C 0.02414 0.19716 0.99578 0.0
C205 C 0.0265 0.21714 0.02165 0.0
U206 U 1.00702 0.28286 0.1071 0.0
O207 O 0.0085 0.31593 0.0806 0.0
O208 O 0.03141 0.30254 0.14878 0.0
C209 C 0.0237 0.3195 0.12286 0.0
C210 C 0.01946 0.25528 0.0179 0.0
C211 C 0.02065 0.33658 0.17155 0.0
C212 C 0.02613 0.37244 0.20352 0.0
C213 C 0.02772 0.35646 0.15596 0.0
C214 C 0.01008 0.34895 0.28275 0.0
C215 C 0.01755 0.36883 0.26796 0.0
C216 C 0.01155 0.33304 0.23504 0.0
C217 C 0.96478 0.2537 0.20091 0.0
C218 C 0.93793 0.23643 0.26463 0.0
C219 C 0.96098 0.21666 0.19308 0.0
C220 C 0.97088 0.23477 0.17331 0.0
C221 C 0.94479 0.21722 0.24057 0.0
C222 C 0.94793 0.25454 0.24508 0.0
C223 C 0.97698 0.27229 0.18886 0.0
O224 O 1.00566 0.26954 1.00438 0.0
O225 O 0.02786 0.2576 0.07789 0.0
O226 O 0.99656 0.27062 0.20461 0.0
O227 O 0.97388 0.28161 0.13076 0.0
H228 H 0.99203 0.24202 0.9211 0.0
H229 H 0.98759 0.20716 0.87695 0.0
H230 H 0.03372 0.18502 0.01614 0.0
H231 H 0.0378 0.21966 0.06102 0.0
H232 H 0.03217 0.38748 0.1905 0.0
H233 H 0.03484 0.35954 0.10736 0.0
H234 H 1.0031 0.34566 0.33137 0.0
H235 H 1.00587 0.31786 0.24814 0.0
H236 H 0.92531 0.23742 0.3004 0.0
H237 H 0.96686 0.20215 0.17412 0.0
H238 H 0.98389 0.23392 0.13897 0.0
H239 H 0.943 0.2691 0.26647 0.0
C240 C 0.2802 0.02023 0.98088 0.0
C241 C 0.29631 0.01232 0.02057 0.0
C242 C 0.32043 0.01535 0.92542 0.0
C243 C 0.31616 0.00989 0.99316 0.0
C244 C 0.30407 0.02276 0.88559 0.0
C245 C 0.28426 0.02517 0.913 0.0
U246 U 0.2331 0.00952 0.098 0.0
O247 O 0.21564 0.03252 0.156 0.0
O248 O 0.19968 0.0136 0.08078 0.0
C249 C 0.19783 0.02699 0.13038 0.0
C250 C 0.2595 0.02481 0.00965 0.0
C251 C 0.18107 0.02328 0.18015 0.0
C252 C 0.14513 0.02759 0.21342 0.0
C253 C 0.16088 0.02944 0.16505 0.0
C254 C 0.16943 0.01305 0.29269 0.0
C255 C 0.14924 0.01967 0.27832 0.0
C256 C 0.18514 0.01477 0.24414 0.0
C257 C 0.26331 0.96353 0.15863 0.0
C258 C 0.28958 0.9458 0.22286 0.0
C259 C 0.29682 0.95716 0.10842 0.0
C260 C 0.27677 0.96473 0.10315 0.0
C261 C 0.30375 0.9485 0.16954 0.0
C262 C 0.26953 0.95329 0.21738 0.0
C263 C 0.24435 0.97572 0.16009 0.0
O264 O 0.24437 0.01239 0.99268 0.0
O265 O 0.25883 0.03032 0.07362 0.0
O266 O 0.24673 0.99419 0.18606 0.0
O267 O 0.23329 0.97566 0.10444 0.0
H268 H 0.29367 0.00835 0.07309 0.0
H269 H 0.3282 1.00382 0.02528 0.0
H270 H 0.30667 0.02739 0.83365 0.0
H271 H 0.27217 0.03142 0.8814 0.0
H272 H 0.12985 0.033 0.20062 0.0
H273 H 0.15737 0.03611 0.11619 0.0
H274 H 0.17313 1.00658 0.34167 0.0
H275 H 0.20055 0.00977 0.25708 0.0
H276 H 0.29439 0.93945 0.27095 0.0
H277 H 0.30725 0.95921 0.0661 0.0
H278 H 0.27221 0.97265 0.05732 0.0
H279 H 0.25934 0.95236 0.26077 0.0
C280 C 0.49652 0.29357 0.01386 0.0
C281 C 0.48567 0.31083 0.03803 0.0
C282 C 0.50235 0.33331 0.95493 0.0
C283 C 0.48857 0.33037 0.00925 0.0
C284 C 0.51347 0.31609 0.93136 0.0
C285 C 0.51057 0.2965 0.96028 0.0
U286 U 0.5041 0.24404 0.12478 0.0
O287 O 0.47941 0.22688 0.17657 0.0
O288 O 0.49858 0.21128 0.10091 0.0
C289 C 0.48445 0.20927 0.14832 0.0
C290 C 0.49124 0.27252 0.03942 0.0
C291 C 0.48649 0.19163 0.19567 0.0
C292 C 0.46997 0.16707 0.27175 0.0
C293 C 0.46866 0.18318 0.22481 0.0
C294 C 0.50707 0.16719 0.26066 0.0
C295 C 0.48919 0.15889 0.29068 0.0
C296 C 0.50575 0.18346 0.21395 0.0
C297 C 0.55104 0.26986 0.20204 0.0
C298 C 0.5792 0.28623 0.26168 0.0
C299 C 0.55666 0.30658 0.19051 0.0
C300 C 0.54576 0.28883 0.17312 0.0
C301 C 0.57303 0.3056 0.23699 0.0
C302 C 0.5682 0.2685 0.24452 0.0
C303 C 0.53734 0.2521 0.19495 0.0
O304 O 0.50322 0.25707 0.0216 0.0
O305 O 0.48483 0.27112 0.10241 0.0
O306 O 0.51858 0.25523 0.21772 0.0
O307 O 0.53783 0.24258 0.1363 0.0
H308 H 0.47441 0.30916 0.07818 0.0
H309 H 0.47943 0.34306 0.0283 0.0
H310 H 0.52439 0.31769 0.89023 0.0
H311 H 0.51904 0.28358 0.9396 0.0
H312 H 0.45586 0.16093 0.293 0.0
H313 H 0.45364 0.18919 0.21159 0.0
H314 H 0.52213 0.16143 0.27449 0.0
H315 H 0.51978 0.1898 0.19275 0.0
H316 H 0.59193 0.2849 0.29668 0.0
H317 H 0.55129 0.32122 0.17108 0.0
H318 H 0.53249 0.2901 0.14023 0.0
H319 H 0.57248 0.2539 0.26702 0.0
La320 La 0.01988 1.00295 0.75523 0.0
La321 La 0.99491 0.01413 0.6385 0.0
C322 C 0.03408 0.98924 0.86487 0.0
C323 C 0.04646 0.97241 0.8926 0.0
C324 C 0.04679 0.95283 0.86272 0.0
C325 C 0.05728 0.93667 0.89428 0.0
C326 C 0.06754 0.93993 0.95604 0.0
C327 C 0.06797 0.95985 0.98375 0.0
C328 C 0.05749 0.97593 0.95226 0.0
C329 C 0.04189 0.01502 0.64897 0.0
C330 C 1.00785 0.96786 0.64843 0.0
C331 C 0.97985 0.02871 0.53127 0.0
C332 C 0.96882 0.0472 0.50881 0.0
C333 C 0.9537 0.0453 0.45877 0.0
C334 C 0.94386 0.06278 0.43337 0.0
C335 C 0.94906 0.08247 0.45754 0.0
C336 C 0.96374 0.0842 0.50951 0.0
C337 C 0.97351 0.0667 0.53503 0.0
C338 C 0.97323 1.00219 0.74608 0.0
C339 C 1.00725 0.04924 0.74397 0.0
O340 O 0.04377 1.00244 0.82644 0.0
O341 O 0.01581 0.98456 0.84144 0.0
O342 O 0.04659 0.01859 0.71134 0.0
O343 O 0.02599 1.00392 0.64795 0.0
O344 O 0.01384 0.97201 0.71121 0.0
O345 O 1.00246 0.98292 0.60718 0.0
O346 O 0.96979 0.01656 0.57229 0.0
O347 O 0.99909 0.03109 0.5493 0.0
O348 O 0.96854 0.99803 0.68407 0.0
O349 O 0.98899 0.01344 0.74559 0.0
O350 O 1.00184 0.04504 0.68079 0.0
O351 O 0.0118 0.03413 0.78607 0.0
H352 H 0.03845 0.94989 0.81634 0.0
H353 H 0.05649 0.92144 0.87205 0.0
H354 H 0.07595 0.96287 0.03077 0.0
H355 H 0.05751 0.99104 0.97559 0.0
H356 H 0.94978 0.03031 0.4384 0.0
H357 H 0.93243 0.0609 0.39406 0.0
H358 H 0.96834 0.09914 0.52865 0.0
H359 H 0.98507 0.06848 0.5739 0.0
La360 La 0.51227 0.02428 0.7491 0.0
La361 La 0.50054 1.001 0.62678 0.0
C362 C 0.52666 0.03535 0.86179 0.0
C363 C 0.54222 0.02702 0.90764 0.0
C364 C 0.54324 0.03423 0.97427 0.0
C365 C 0.55668 0.02507 0.02039 0.0
C366 C 0.56932 0.00853 1.00041 0.0
C367 C 0.56827 1.00147 0.93319 0.0
C368 C 0.55475 0.01056 0.88733 0.0
C369 C 0.50052 0.04783 0.64679 0.0
C370 C 0.54699 0.00949 0.64626 0.0
C371 C 0.48692 0.98934 0.5138 0.0
C372 C 0.46821 0.98189 0.47946 0.0
C373 C 0.46686 0.96115 0.45954 0.0
C374 C 0.45059 0.95442 0.41905 0.0
C375 C 0.43557 0.96841 0.39701 0.0
C376 C 0.43658 0.98901 0.41858 0.0
C377 C 0.45274 0.9957 0.45937 0.0
C378 C 0.51293 0.97767 0.7293 0.0
C379 C 0.4652 0.01445 0.73158 0.0
O380 O 0.53319 0.04257 0.80376 0.0
O381 O 0.51052 0.02361 0.85468 0.0
O382 O 0.49744 0.05215 0.70994 0.0
O383 O 0.5112 0.03167 0.64337 0.0
O384 O 0.54228 0.01277 0.71076 0.0
O385 O 0.53229 1.00765 0.60081 0.0
O386 O 0.4956 0.97699 0.55752 0.0
O387 O 0.48724 0.00858 0.53371 0.0
O388 O 0.51623 0.97354 0.6661 0.0
O389 O 0.50195 0.99361 0.73258 0.0
O390 O 0.46972 1.00686 0.67092 0.0
O391 O 0.47973 0.02119 0.77255 0.0
H392 H 0.53335 0.04669 0.99096 0.0
H393 H 0.55691 0.03072 0.07192 0.0
H394 H 0.57802 0.98902 0.9157 0.0
H395 H 0.55389 1.00456 0.83634 0.0
H396 H 0.47875 0.95025 0.47348 0.0
H397 H 0.4502 0.93848 0.40287 0.0
H398 H 0.42499 1.00004 0.40313 0.0
H399 H 0.45337 0.01181 0.47346 0.0
La400 La 0.49014 0.51891 0.73185 0.0
La401 La 0.51685 0.50805 0.62306 0.0
C402 C 0.47188 0.53394 0.83344 0.0
C403 C 0.47703 0.53898 0.90374 0.0
C404 C 0.46167 0.53793 0.95346 0.0
C405 C 0.46507 0.54639 0.01743 0.0
C406 C 0.48377 0.55639 0.03209 0.0
C407 C 0.4998 0.55556 0.98395 0.0
C408 C 0.49647 0.54684 0.92044 0.0
C409 C 0.46994 0.50526 0.62327 0.0
C410 C 0.50484 0.5538 0.6307 0.0
C411 C 0.53398 0.49298 0.51955 0.0
C412 C 0.54592 0.47476 0.4997 0.0
C413 C 0.56156 0.47693 0.45131 0.0
C414 C 0.57214 0.45967 0.42744 0.0
C415 C 0.56715 0.43989 0.45144 0.0
C416 C 0.55198 0.4379 0.50207 0.0
C417 C 0.54148 0.4552 0.52613 0.0
C418 C 0.53712 0.52297 0.72966 0.0
C419 C 0.50608 0.47412 0.73373 0.0
O420 O 0.48111 0.54488 0.78706 0.0
O421 O 0.47126 0.51447 0.81757 0.0
O422 O 0.46495 0.50159 0.68508 0.0
O423 O 0.48521 0.51712 0.62383 0.0
O424 O 0.50014 0.54943 0.6943 0.0
O425 O 0.50866 0.53871 0.58791 0.0
O426 O 0.54302 0.50575 0.56082 0.0
O427 O 0.51461 0.49008 0.53524 0.0
O428 O 0.54184 0.52626 0.66706 0.0
O429 O 0.52201 0.51083 0.73112 0.0
O430 O 0.51074 0.47743 0.66934 0.0
O431 O 0.50139 0.48991 0.7728 0.0
H432 H 0.44667 0.53158 0.94167 0.0
H433 H 0.45259 0.54625 0.05386 0.0
H434 H 0.51439 0.56314 0.99286 0.0
H435 H 0.50867 0.54748 0.88298 0.0
H436 H 0.56529 0.49196 0.43081 0.0
H437 H 0.58393 0.46176 0.38921 0.0
H438 H 0.54755 0.42289 0.52108 0.0
H439 H 0.52952 0.45321 0.56382 0.0
La440 La 0.99794 0.50153 0.73206 0.0
La441 La 0.00982 0.52604 0.61421 0.0
C442 C 0.9836 0.48773 0.84161 0.0
C443 C 0.96644 0.47561 0.86871 0.0
C444 C 0.94691 0.47588 0.83866 0.0
C445 C 0.93047 0.46561 0.86958 0.0
C446 C 0.93339 0.45494 0.93085 0.0
C447 C 0.95325 0.45389 0.95867 0.0
C448 C 0.96961 0.46418 0.92784 0.0
C449 C 0.01038 0.47914 0.62726 0.0
C450 C 0.96338 0.51342 0.62369 0.0
C451 C 0.02497 0.54027 0.50632 0.0
C452 C 0.04334 0.55149 0.48339 0.0
C453 C 0.04122 0.56658 0.43322 0.0
C454 C 0.05853 0.57667 0.40743 0.0
C455 C 0.0783 0.57176 0.43133 0.0
C456 C 0.08027 0.55705 0.48328 0.0
C457 C 0.06293 0.54703 0.50918 0.0
C458 C 0.99746 0.54823 0.71982 0.0
C459 C 0.04432 0.51391 0.72228 0.0
O460 O 0.99681 0.47778 0.80396 0.0
O461 O 0.97933 0.50605 0.81763 0.0
O462 O 0.01357 0.47455 0.68994 0.0
O463 O 0.99938 0.4951 0.62514 0.0
O464 O 0.96729 0.50765 0.68683 0.0
O465 O 0.9786 0.51855 0.58247 0.0
O466 O 0.01231 0.5505 0.54514 0.0
O467 O 0.02762 0.52128 0.52696 0.0
O468 O 0.99392 0.55283 0.6573 0.0
O469 O 0.00855 0.53236 0.72102 0.0
O470 O 0.04048 0.51952 0.65898 0.0
O471 O 0.02903 0.50929 0.76366 0.0
H472 H 0.94424 0.48453 0.79266 0.0
H473 H 0.91531 0.46687 0.84728 0.0
H474 H 0.95601 0.44558 1.00528 0.0
H475 H 0.98467 0.46367 0.95125 0.0
H476 H 0.02617 0.57031 0.4131 0.0
H477 H 0.05645 0.5881 0.36815 0.0
H478 H 0.09528 0.55267 0.50222 0.0
H479 H 0.06491 0.53547 0.5481 0.0
H480 H 0.10838 0.00863 0.26484 0.0
H481 H 0.08021 0.03207 0.65307 0.0
H482 H 0.15237 0.02925 0.41331 0.0
H483 H 0.03799 1.00226 0.51655 0.0
H484 H 0.10589 0.03342 0.56269 0.0
H485 H 0.08169 0.00821 0.35292 0.0
C486 C 0.11245 0.01313 0.31583 0.0
C487 C 0.13276 0.01892 0.33145 0.0
C488 C 0.09102 0.0266 0.55222 0.0
C489 C 0.10216 0.0185 0.43279 0.0
C490 C 0.0763 0.02589 0.60386 0.0
C491 C 0.05693 0.01696 0.59249 0.0
C492 C 0.08642 0.01843 0.48817 0.0
C493 C 0.05274 0.00924 0.52755 0.0
C494 C 0.09719 0.0128 0.36619 0.0
C495 C 0.13706 0.02439 0.39879 0.0
N496 N 0.06736 0.01012 0.47788 0.0
N497 N 0.12194 0.0241 0.44664 0.0
H498 H 0.46725 0.15509 0.40898 0.0
H499 H 0.51642 0.04649 0.51764 0.0
H500 H 0.51401 0.12432 0.29111 0.0
H501 H 0.4789 0.08384 0.64948 0.0
H502 H 0.5135 0.07307 0.42956 0.0
H503 H 0.46917 0.12754 0.49291 0.0
C504 C 0.47785 0.14248 0.40043 0.0
C505 C 0.49045 0.1421 0.34252 0.0
C506 C 0.50587 0.07542 0.47771 0.0
C507 C 0.49281 0.11032 0.43929 0.0
C508 C 0.50746 0.06021 0.52788 0.0
C509 C 0.49795 0.06299 0.59111 0.0
C510 C 0.49452 0.09348 0.4906 0.0
C511 C 0.48655 0.08109 0.60161 0.0
C512 C 0.47902 0.12677 0.44872 0.0
C513 C 0.50412 0.12542 0.33512 0.0
N514 N 0.48516 0.09559 0.55204 0.0
N515 N 0.50488 0.1102 0.3827 0.0
H516 H 0.3945 0.52528 0.26533 0.0
H517 H 0.43574 0.48113 0.61897 0.0
H518 H 0.36632 0.47466 0.37243 0.0
H519 H 0.47033 0.52449 0.49881 0.0
H520 H 0.40989 0.47924 0.52957 0.0
H521 H 0.42179 0.52629 0.35096 0.0
C522 C 0.39398 0.51442 0.30689 0.0
C523 C 0.37803 0.49983 0.31136 0.0
C524 C 0.42316 0.48911 0.52237 0.0
C525 C 0.40935 0.50086 0.40965 0.0
C526 C 0.43795 0.49018 0.57347 0.0
C527 C 0.4552 0.50301 0.56643 0.0
C528 C 0.42544 0.50111 0.46363 0.0
C529 C 0.45727 0.51437 0.50628 0.0
C530 C 0.40967 0.51492 0.35554 0.0
C531 C 0.37838 0.48601 0.36614 0.0
N532 N 0.44249 0.51327 0.4574 0.0
N533 N 0.39367 0.48693 0.41301 0.0
H534 H 0.02616 0.36575 0.40339 0.0
H535 H 0.99893 0.48321 0.49385 0.0
H536 H 1.00777 0.40997 0.25225 0.0
H537 H 0.02683 0.44057 0.63348 0.0
H538 H 1.00112 0.45682 0.40475 0.0
H539 H 0.02514 0.39292 0.4887 0.0
C540 C 0.02177 0.38116 0.38811 0.0
C541 C 0.01695 0.38548 0.32033 0.0
C542 C 1.00684 0.45329 0.45482 0.0
C543 C 0.01591 0.41693 0.41835 0.0
C544 C 1.00561 0.46835 0.50563 0.0
C545 C 0.01265 0.46406 0.57124 0.0
C546 C 0.01504 0.43375 0.46989 0.0
C547 C 0.02117 0.44455 0.5837 0.0
C548 C 0.02134 0.39674 0.4369 0.0
C549 C 0.01175 0.4059 0.30368 0.0
N550 N 0.02201 0.43014 0.53379 0.0
N551 N 0.01127 0.42082 0.3523 0.0
H552 H 0.86468 0.98085 0.99505 0.0
H553 H 0.97644 0.0192 0.87275 0.0
H554 H 0.90156 0.02457 0.10614 0.0
H555 H 0.93601 0.98242 0.74929 0.0
H556 H 0.95045 0.01895 0.96306 0.0
H557 H 0.89158 0.97923 0.90849 0.0
C558 C 0.87835 0.99019 1.00138 0.0
C559 C 0.88065 1.00292 0.05849 0.0
C560 C 0.94727 0.01086 0.91634 0.0
C561 C 0.91187 1.00086 0.95919 0.0
C562 C 0.96215 0.01094 0.86483 0.0
C563 C 0.95836 1.00088 0.80323 0.0
C564 C 0.92845 1.00055 0.90648 0.0
C565 C 0.93956 0.99043 0.79585 0.0
C566 C 0.89381 0.98914 0.95191 0.0
C567 C 0.89905 0.01429 0.06388 0.0
N568 N 0.92533 0.99057 0.84665 0.0
N569 N 0.91385 0.013 0.01505 0.0
H570 H 0.50612 0.91039 0.10975 0.0
H571 H 0.53079 0.9396 0.72303 0.0
H572 H 0.53041 0.86724 0.96383 0.0
H573 H 0.50104 0.98115 0.86245 0.0
H574 H 0.53302 0.91378 0.813 0.0
H575 H 0.50592 0.93702 0.02234 0.0
C576 C 0.51131 0.9064 0.05935 0.0
C577 C 0.51819 0.88632 0.04457 0.0
C578 C 0.52606 0.92855 0.82415 0.0
C579 C 0.5183 0.91712 0.94383 0.0
C580 C 0.52483 0.94334 0.77275 0.0
C581 C 0.51562 0.96254 0.78508 0.0
C582 C 0.51806 0.93294 0.88873 0.0
C583 C 0.50822 0.96654 0.85063 0.0
C584 C 0.51132 0.92173 0.00945 0.0
C585 C 0.52517 0.88243 0.9783 0.0
N586 N 0.50954 0.95187 0.89984 0.0
N587 N 0.525 0.89761 0.93064 0.0
H588 H 0.60527 0.51539 0.10877 0.0
H589 H 0.57486 0.54134 0.72445 0.0
H590 H 0.64801 0.53868 0.95989 0.0
H591 H 0.53371 0.51029 0.86225 0.0
H592 H 0.60079 0.54301 0.81366 0.0
H593 H 0.57808 0.51565 0.0229 0.0
C594 C 0.60895 0.52064 0.05818 0.0
C595 C 0.62908 0.52695 0.04176 0.0
C596 C 0.58609 0.53588 0.82467 0.0
C597 C 0.5979 0.52727 0.94287 0.0
C598 C 0.57122 0.53498 0.77371 0.0
C599 C 0.55212 0.52553 0.7857 0.0
C600 C 0.58189 0.52734 0.88859 0.0
C601 C 0.54827 0.51762 0.8507 0.0
C602 C 0.59341 0.5207 0.00906 0.0
C603 C 0.63288 0.53339 0.97494 0.0
N604 N 0.56303 0.51865 0.89962 0.0
N605 N 0.61749 0.53341 0.92827 0.0
H606 H 1.00541 0.61358 0.10431 0.0
H607 H 0.9808 0.58683 0.71604 0.0
H608 H 0.98379 0.65815 0.95905 0.0
H609 H 0.00987 0.54389 0.85201 0.0
H610 H 0.97965 0.61233 0.80706 0.0
H611 H 1.00522 0.58724 0.01548 0.0
C612 C 1.00054 0.61784 0.05388 0.0
C613 C 0.99465 0.63823 0.0394 0.0
C614 C 0.98625 0.59734 0.81723 0.0
C615 C 0.99443 0.60801 0.93705 0.0
C616 C 0.98685 0.58273 0.76524 0.0
C617 C 0.99552 0.56322 0.77632 0.0
C618 C 0.9943 0.59246 0.88122 0.0
C619 C 1.00309 0.55877 0.84121 0.0
C620 C 1.00053 0.60279 1.00304 0.0
C621 C 0.98873 0.64278 0.97266 0.0
N622 N 1.00234 0.57327 0.89113 0.0
N623 N 0.98873 0.62785 0.92427 0.0
H624 H 0.93508 0.20975 0.37318 0.0
H625 H 0.94221 0.08915 0.32265 0.0
H626 H 0.93715 0.1802 0.17757 0.0
H627 H 0.93699 0.1187 0.51764 0.0
H628 H 0.93363 0.12169 0.26833 0.0
H629 H 0.9288 0.17645 0.42559 0.0
C630 C 0.93371 0.19635 0.34091 0.0
C631 C 0.937 0.19778 0.2708 0.0
C632 C 0.93404 0.12101 0.32304 0.0
C633 C 0.93038 0.1594 0.33107 0.0
C634 C 0.93883 0.10236 0.35422 0.0
C635 C 0.94066 0.10125 0.4249 0.0
C636 C 0.93127 0.13873 0.3627 0.0
C637 C 0.93627 0.11897 0.46295 0.0
C638 C 0.93029 0.17726 0.37108 0.0
C639 C 0.93525 0.17976 0.23196 0.0
N640 N 0.93207 0.13705 0.43133 0.0
N641 N 0.93239 0.16127 0.26273 0.0
H642 H 0.32317 0.91801 0.24268 0.0
H643 H 0.42292 0.98789 0.28249 0.0
H644 H 0.33529 0.9733 0.12773 0.0
H645 H 0.41123 0.93393 0.404 0.0
H646 H 0.39388 0.97878 0.2106 0.0
H647 H 0.35837 0.91932 0.28624 0.0
C648 C 0.33332 0.93018 0.22558 0.0
C649 C 0.32608 0.94578 0.18247 0.0
C650 C 0.39773 0.96878 0.25255 0.0
C651 C 0.36629 0.94738 0.23213 0.0
C652 C 0.41422 0.97407 0.29385 0.0
C653 C 0.41917 0.96186 0.34997 0.0
C654 C 0.38592 0.95126 0.26785 0.0
C655 C 0.40778 0.94382 0.36142 0.0
C656 C 0.35341 0.93091 0.25041 0.0
C657 C 0.34007 0.96091 0.16078 0.0
N658 N 0.39146 0.93921 0.32126 0.0
N659 N 0.35936 0.96151 0.18672 0.0
H660 H 0.58316 0.31297 0.36914 0.0
H661 H 0.57544 0.43334 0.31723 0.0
H662 H 0.58151 0.34238 0.17328 0.0
H663 H 0.57933 0.40388 0.51262 0.0
H664 H 0.58502 0.40096 0.26367 0.0
H665 H 0.58949 0.34627 0.42126 0.0
C666 C 0.58467 0.32633 0.33671 0.0
C667 C 0.5814 0.32487 0.26665 0.0
C668 C 0.58411 0.40162 0.31833 0.0
C669 C 0.58804 0.36327 0.32664 0.0
C670 C 0.57875 0.42019 0.3491 0.0
C671 C 0.57623 0.42127 0.4196 0.0
C672 C 0.58677 0.38393 0.3582 0.0
C673 C 0.58056 0.40362 0.45801 0.0
C674 C 0.58811 0.34543 0.36675 0.0
C675 C 0.58337 0.34284 0.22765 0.0
N676 N 0.58532 0.3856 0.42675 0.0
N677 N 0.58619 0.36135 0.2583 0.0
H678 H 0.20511 0.58899 0.34693 0.0
H679 H 0.08494 0.5791 0.29649 0.0
H680 H 0.17581 0.58861 0.15103 0.0
H681 H 0.11421 0.58446 0.49156 0.0
H682 H 0.11722 0.58887 0.24236 0.0
H683 H 0.17172 0.59409 0.3998 0.0
C684 C 0.19175 0.59051 0.31467 0.0
C685 C 0.19332 0.58799 0.24424 0.0
C686 C 0.11653 0.58822 0.29705 0.0
C687 C 0.15477 0.59318 0.30516 0.0
C688 C 0.09802 0.58274 0.32813 0.0
C689 C 0.09692 0.58063 0.39876 0.0
C690 C 0.13413 0.59142 0.33677 0.0
C691 C 0.11449 0.58537 0.43689 0.0
C692 C 0.17259 0.59324 0.34515 0.0
C693 C 0.1753 0.58989 0.20559 0.0
N694 N 0.13244 0.59027 0.40537 0.0
N695 N 0.15673 0.592 0.23663 0.0
H696 H 0.05968 0.84065 0.22513 0.0
H697 H 0.08983 0.90682 0.90941 0.0
H698 H 0.10115 0.81808 0.07075 0.0
H699 H 0.06348 0.93262 0.09127 0.0
H700 H 0.09791 0.87532 0.97206 0.0
H701 H 0.06527 0.87545 0.18465 0.0
C702 C 0.07041 0.84297 0.18385 0.0
C703 C 0.07958 0.82621 0.15042 0.0
C704 C 0.09075 0.88805 0.99858 0.0
C705 C 0.08544 0.86623 0.10204 0.0
C706 C 0.08602 0.90596 0.96272 0.0
C707 C 0.07572 0.92223 0.99494 0.0
C708 C 0.08481 0.88633 0.06675 0.0
C709 C 0.07144 0.92048 0.06434 0.0
C710 C 0.07347 0.86295 0.16029 0.0
C711 C 0.09317 0.83042 0.09666 0.0
N712 N 0.07569 0.90271 0.09761 0.0
N713 N 0.09532 0.84996 0.07313 0.0
H714 H 0.6721 0.99293 0.2642 0.0
H715 H 0.57963 0.96767 0.01376 0.0
H716 H 0.66895 0.93781 0.14242 0.0
H717 H 0.59255 0.02776 0.0973 0.0
H718 H 0.60703 0.9532 0.08376 0.0
H719 H 0.63727 1.00171 0.22942 0.0
C720 C 0.66389 0.98233 0.23166 0.0
C721 C 0.67361 0.96474 0.20526 0.0
C722 C 0.60365 0.9695 0.08732 0.0
C723 C 0.63388 0.97506 0.16388 0.0
C724 C 0.58813 0.97781 0.04703 0.0
C725 C 0.58404 0.99906 0.04858 0.0
C726 C 0.61508 0.9825 0.12967 0.0
C727 C 0.59511 0.01132 0.0943 0.0
C728 C 0.64405 0.9875 0.21124 0.0
C729 C 0.6622 0.95175 0.16274 0.0
N730 N 0.61027 1.00289 0.13245 0.0
N731 N 0.64303 0.95733 0.14248 0.0
H732 H 0.46667 0.67305 0.20183 0.0
H733 H 0.51764 0.56566 0.11098 0.0
H734 H 0.53215 0.66202 0.19459 0.0
H735 H 0.45341 0.58092 0.08478 0.0
H736 H 0.52193 0.59699 0.17812 0.0
H737 H 0.46074 0.63596 0.19492 0.0
C738 C 0.4798 0.66278 0.19941 0.0
C739 C 0.49991 0.67062 0.19679 0.0
C740 C 0.5068 0.59315 0.15899 0.0
C741 C 0.49327 0.62821 0.18906 0.0
C742 C 0.50434 0.57529 0.1205 0.0
C743 C 0.4853 0.57093 0.09002 0.0
C744 C 0.4901 0.60666 0.16706 0.0
C745 C 0.46846 0.5836 0.10633 0.0
C746 C 0.47642 0.64162 0.19596 0.0
C747 C 0.51639 0.65663 0.19594 0.0
N748 N 0.47136 0.6011 0.14247 0.0
N749 N 0.5127 0.6361 0.19071 0.0
H750 H 0.83429 0.4627 0.20232 0.0
H751 H 0.89979 0.43377 0.88288 0.0
H752 H 0.81078 0.4232 0.04441 0.0
H753 H 0.92605 0.45837 0.06625 0.0
H754 H 0.86807 0.42604 0.94507 0.0
H755 H 0.86891 0.45698 0.16024 0.0
C756 C 0.83636 0.45238 0.15984 0.0
C757 C 0.81941 0.44378 0.12609 0.0
C758 C 0.88094 0.43274 0.97197 0.0
C759 C 0.85922 0.43778 0.07596 0.0
C760 C 0.89897 0.43726 0.93639 0.0
C761 C 0.91546 0.44697 0.96922 0.0
C762 C 0.87932 0.43827 0.04051 0.0
C763 C 0.91374 0.45086 0.03886 0.0
C764 C 0.85624 0.44925 0.13539 0.0
C765 C 0.82329 0.43073 0.07074 0.0
N766 N 0.89587 0.44681 0.07188 0.0
N767 N 0.84274 0.42848 0.04647 0.0
H768 H 0.01195 0.15574 0.00876 0.0
H769 H 1.00042 0.0858 0.675 0.0
H770 H 1.00466 0.18159 0.80909 0.0
H771 H 0.01322 0.062 0.87432 0.0
H772 H 1.00021 0.12085 0.72222 0.0
H773 H 0.01077 0.12129 0.95974 0.0
C774 C 0.01017 0.15425 0.95453 0.0
C775 C 0.00854 0.17181 0.91325 0.0
C776 C 1.00304 0.10792 0.75552 0.0
C777 C 1.00693 0.13198 0.85631 0.0
C778 C 1.00314 0.08788 0.72856 0.0
C779 C 1.00686 0.07079 0.77051 0.0
C780 C 1.00662 0.11095 0.82505 0.0
C781 C 0.01033 0.07457 0.83965 0.0
C782 C 0.00939 0.13447 0.9265 0.0
C783 C 1.00579 0.16863 0.8433 0.0
N784 N 0.01011 0.09411 0.86451 0.0
N785 N 1.00513 0.14918 0.81713 0.0
H786 H 0.35706 0.0242 0.98912 0.0
H787 H 0.4295 1.00217 0.66609 0.0
H788 H 0.33311 1.00413 0.79666 0.0
H789 H 0.45114 0.02661 0.85611 0.0
H790 H 0.39431 1.00172 0.71236 0.0
H791 H 0.39175 0.02359 0.94147 0.0
C792 C 0.35904 0.01945 0.937 0.0
C793 C 0.34192 0.0142 0.89716 0.0
C794 C 0.40679 1.0072 0.74379 0.0
C795 C 0.382 0.01377 0.84141 0.0
C796 C 0.42692 1.00748 0.71734 0.0
C797 C 0.44347 0.01446 0.75699 0.0
C798 C 0.40312 0.01386 0.81057 0.0
C799 C 0.43902 0.02111 0.82324 0.0
C800 C 0.37894 0.01928 0.90952 0.0
C801 C 0.34569 0.00857 0.82935 0.0
N802 N 0.41942 0.0206 0.84772 0.0
N803 N 0.36523 0.0085 0.80375 0.0
H804 H 0.50196 0.37158 0.01548 0.0
H805 H 0.51276 0.43659 0.67051 0.0
H806 H 0.50784 0.34287 0.81948 0.0
H807 H 0.50141 0.46342 0.86677 0.0
H808 H 0.51306 0.40227 0.72327 0.0
H809 H 0.5037 0.4053 0.96133 0.0
C810 C 0.50355 0.37229 0.961 0.0
C811 C 0.50459 0.35413 0.92229 0.0
C812 C 0.51055 0.4157 0.75472 0.0
C813 C 0.50685 0.39313 0.85937 0.0
C814 C 0.51042 0.43533 0.7246 0.0
C815 C 0.50702 0.45304 0.76403 0.0
C816 C 0.50734 0.41371 0.82491 0.0
C817 C 0.50404 0.45032 0.834 0.0
C818 C 0.50466 0.39165 0.93 0.0
C819 C 0.50715 0.3563 0.8518 0.0
N820 N 0.50426 0.43116 0.86193 0.0
N821 N 0.50811 0.37537 0.82272 0.0
H822 H 0.17612 0.52984 0.79869 0.0
H823 H 0.05691 0.50077 0.84672 0.0
H824 H 0.15167 0.49676 0.97051 0.0
H825 H 0.08072 0.52701 0.66181 0.0
H826 H 0.09148 0.50086 0.89366 0.0
H827 H 0.1416 0.53043 0.74905 0.0
C828 C 0.1636 0.52264 0.8261 0.0
C829 C 0.16706 0.51322 0.88931 0.0
C830 C 0.08924 0.5066 0.84278 0.0
C831 C 0.12721 0.51411 0.83252 0.0
C832 C 0.0694 0.50659 0.81573 0.0
C833 C 0.06573 0.51391 0.74989 0.0
C834 C 0.10583 0.51405 0.8042 0.0
C835 C 0.08273 0.52118 0.71264 0.0
C836 C 0.14382 0.52309 0.79767 0.0
C837 C 0.14993 0.50452 0.92243 0.0
N838 N 0.102 0.5211 0.74031 0.0
N839 N 0.1309 0.50517 0.89374 0.0
H840 H 0.01911 0.83484 0.58365 0.0
H841 H 0.99833 0.95519 0.5204 0.0
H842 H 0.99948 0.86056 0.39314 0.0
H843 H 0.0187 0.93137 0.71277 0.0
H844 H 0.99923 0.92052 0.47403 0.0
H845 H 0.01961 0.86958 0.63206 0.0
C846 C 0.01488 0.84773 0.55184 0.0
C847 C 0.00918 0.84455 0.48389 0.0
C848 C 1.00353 0.92277 0.52639 0.0
C849 C 0.00987 0.88464 0.53945 0.0
C850 C 1.00301 0.94268 0.55319 0.0
C851 C 0.00843 0.94639 0.62097 0.0
C852 C 0.00949 0.90613 0.56728 0.0
C853 C 0.01437 0.92935 0.66036 0.0
C854 C 0.01526 0.86762 0.57962 0.0
C855 C 1.00422 0.86207 0.44533 0.0
N856 N 0.01471 0.91 0.63301 0.0
N857 N 1.00461 0.88121 0.47362 0.0
H858 H 0.67959 0.02544 0.59256 0.0
H859 H 0.56129 0.99793 0.52174 0.0
H860 H 0.65815 0.9955 0.41083 0.0
H861 H 0.58274 0.01892 0.71631 0.0
H862 H 0.59665 0.99779 0.48051 0.0
H863 H 0.64461 0.02387 0.63846 0.0
C864 C 0.66766 0.01836 0.56232 0.0
C865 C 0.6721 0.01058 0.49733 0.0
C866 C 0.59372 1.00237 0.53232 0.0
C867 C 0.63161 0.00909 0.54982 0.0
C868 C 0.57343 1.00248 0.55609 0.0
C869 C 0.56887 0.0085 0.62282 0.0
C870 C 0.60983 0.00847 0.57511 0.0
C871 C 0.58544 0.01414 0.66458 0.0
C872 C 0.64759 0.01759 0.58863 0.0
C873 C 0.65565 1.00202 0.46056 0.0
N874 N 0.60514 0.0141 0.63997 0.0
N875 N 0.63626 1.00156 0.48716 0.0
H876 H 0.52157 0.66506 0.38998 0.0
H877 H 0.49661 0.58939 0.70211 0.0
H878 H 0.50031 0.68647 0.58462 0.0
H879 H 0.51486 0.56814 0.50406 0.0
H880 H 0.49814 0.62498 0.66071 0.0
H881 H 0.51957 0.62957 0.43135 0.0
C882 C 0.51658 0.66235 0.44155 0.0
C883 C 0.51116 0.67894 0.48379 0.0
C884 C 0.5018 0.61253 0.62628 0.0
C885 C 0.5087 0.63805 0.53165 0.0
C886 C 0.50094 0.59216 0.64995 0.0
C887 C 0.50561 0.57562 0.60667 0.0
C888 C 0.50744 0.61652 0.55873 0.0
C889 C 0.51111 0.58029 0.53948 0.0
C890 C 0.51533 0.64202 0.46508 0.0
C891 C 0.50445 0.67428 0.54982 0.0
N892 N 0.51189 0.60021 0.51775 0.0
N893 N 0.50348 0.65437 0.57166 0.0
H894 H 0.83049 0.50202 0.56329 0.0
H895 H 0.95066 0.52288 0.49536 0.0
H896 H 0.85523 0.52285 0.37235 0.0
H897 H 0.92697 0.50287 0.68864 0.0
H898 H 0.91585 0.52214 0.4498 0.0
H899 H 0.8654 0.50142 0.60964 0.0
C900 C 0.8432 0.50651 0.53095 0.0
C901 C 0.83968 0.51259 0.46353 0.0
C902 C 0.91819 0.51788 0.50218 0.0
C903 C 0.88001 0.51176 0.51674 0.0
C904 C 0.93816 0.51831 0.52848 0.0
C905 C 0.94193 0.51294 0.59628 0.0
C906 C 0.90159 0.51205 0.54365 0.0
C907 C 0.92492 0.50715 0.63618 0.0
C908 C 0.8632 0.50607 0.55755 0.0
C909 C 0.857 0.51783 0.4242 0.0
N910 N 0.90554 0.50688 0.60934 0.0
N911 N 0.87628 0.51736 0.45137 0.0
loop_
_geom_bond_atom_site_label_1
_geom_bond_atom_site_label_2
_geom_bond_distance
_geom_bond_site_symmetry_2
_ccdc_geom_bond_type
C0 C1 1.264 . S
C0 C5 1.479 . S
C0 C10 1.465 . S
C1 C0 1.264 . S
C1 C3 1.339 . S
C1 H28 0.931 . S
C2 C3 1.395 . S
C2 C4 1.320 . S
C3 C1 1.339 . S
C3 C2 1.395 . S
C3 H29 0.929 . S
C4 C2 1.320 . S
C4 C5 1.405 . S
C4 H30 0.930 . S
C5 C0 1.479 . S
C5 C4 1.405 . S
C5 H31 0.931 . S
U6 O7 2.454 . S
U6 O8 2.458 . S
U6 C9 2.984 . S
U6 C10 2.847 . S
U6 C23 2.882 . S
U6 O24 2.441 . S
U6 O25 2.420 . S
U6 O26 2.455 . S
U6 O27 2.449 . S
O7 U6 2.454 . S
O7 C9 1.353 . S
O8 U6 2.458 . S
O8 C9 1.286 . S
C9 U6 2.984 . S
C9 O7 1.353 . S
C9 O8 1.286 . S
C9 C11 1.363 . S
C10 C0 1.465 . S
C10 U6 2.847 . S
C10 O24 1.249 . S
C10 O25 1.202 . S
C11 C9 1.363 . S
C11 C13 1.408 . S
C11 C16 1.342 . S
C12 C13 1.310 . S
C12 C15 1.461 . S
C12 H32 0.932 . S
C13 C11 1.408 . S
C13 C12 1.310 . S
C13 H33 0.930 . S
C14 C15 1.474 . S
C14 C16 1.285 . S
C14 H34 0.929 . S
C15 C12 1.461 . S
C15 C14 1.474 . S
C16 C11 1.342 . S
C16 C14 1.285 . S
C16 H35 0.930 . S
C17 C20 1.424 . S
C17 C22 1.245 . S
C17 C23 1.428 . S
C18 C21 1.260 . S
C18 C22 1.477 . S
C18 H36 0.932 . S
C19 C20 1.384 . S
C19 C21 1.479 . S
C19 H37 0.929 . S
C20 C17 1.424 . S
C20 C19 1.384 . S
C20 H38 0.928 . S
C21 C18 1.260 . S
C21 C19 1.479 . S
C22 C17 1.245 . S
C22 C18 1.477 . S
C22 H39 0.932 . S
C23 U6 2.882 . S
C23 C17 1.428 . S
C23 O26 1.301 . S
C23 O27 1.282 . S
O24 U6 2.441 . S
O24 C10 1.249 . S
O25 U6 2.420 . S
O25 C10 1.202 . S
O26 U6 2.455 . S
O26 C23 1.301 . S
O27 U6 2.449 . S
O27 C23 1.282 . S
H28 C1 0.931 . S
H29 C3 0.929 . S
H30 C4 0.930 . S
H31 C5 0.931 . S
H32 C12 0.932 . S
H33 C13 0.930 . S
H34 C14 0.929 . S
H35 C16 0.930 . S
H36 C18 0.932 . S
H37 C19 0.929 . S
H38 C20 0.928 . S
H39 C22 0.932 . S
C40 C41 1.264 . S
C40 C45 1.479 . S
C40 C50 1.465 . S
C41 C40 1.264 . S
C41 C43 1.339 . S
C41 H68 0.931 . S
C42 C43 1.395 . S
C42 C44 1.320 . S
C43 C41 1.339 . S
C43 C42 1.395 . S
C43 H69 0.929 . S
C44 C42 1.320 . S
C44 C45 1.405 . S
C44 H70 0.921 1_455 S
C45 C40 1.479 . S
C45 C44 1.405 . S
C45 H71 0.931 . S
U46 O47 2.454 . S
U46 O48 2.458 . S
U46 C49 2.984 . S
U46 C50 2.847 . S
U46 C63 2.882 . S
U46 O64 2.441 . S
U46 O65 2.420 . S
U46 O66 2.455 . S
U46 O67 2.449 . S
O47 U46 2.454 . S
O47 C49 1.353 . S
O48 U46 2.458 . S
O48 C49 1.286 . S
C49 U46 2.984 . S
C49 O47 1.353 . S
C49 O48 1.286 . S
C49 C51 1.363 . S
C50 C40 1.465 . S
C50 U46 2.847 . S
C50 O64 1.249 . S
C50 O65 1.202 . S
C51 C49 1.363 . S
C51 C53 1.408 . S
C51 C56 1.342 . S
C52 C53 1.310 . S
C52 C55 1.461 . S
C52 H72 0.932 . S
C53 C51 1.408 . S
C53 C52 1.310 . S
C53 H73 0.930 . S
C54 C55 1.474 1_655 S
C54 C56 1.285 1_655 S
C54 H74 0.930 . S
C55 C52 1.461 . S
C55 C54 1.474 1_455 S
C56 C51 1.342 . S
C56 C54 1.285 1_455 S
C56 H75 0.932 . S
C57 C60 1.424 . S
C57 C62 1.245 . S
C57 C63 1.428 . S
C58 C61 1.260 . S
C58 C62 1.477 . S
C58 H76 0.932 . S
C59 C60 1.384 . S
C59 C61 1.479 . S
C59 H77 0.929 . S
C60 C57 1.424 . S
C60 C59 1.384 . S
C60 H78 0.928 . S
C61 C58 1.260 . S
C61 C59 1.479 . S
C62 C57 1.245 . S
C62 C58 1.477 . S
C62 H79 0.932 . S
C63 U46 2.882 . S
C63 C57 1.428 . S
C63 O66 1.301 . S
C63 O67 1.282 . S
O64 U46 2.441 . S
O64 C50 1.249 . S
O65 U46 2.420 . S
O65 C50 1.202 . S
O66 U46 2.455 . S
O66 C63 1.301 . S
O67 U46 2.449 . S
O67 C63 1.282 . S
H68 C41 0.931 . S
H69 C43 0.929 . S
H70 C44 0.921 1_655 S
H71 C45 0.931 . S
H72 C52 0.932 . S
H73 C53 0.930 . S
H74 C54 0.930 . S
H75 C56 0.932 . S
H76 C58 0.932 . S
H77 C59 0.929 . S
H78 C60 0.928 . S
H79 C62 0.932 . S
C80 C81 1.264 . S
C80 C85 1.479 . S
C80 C90 1.465 . S
C81 C80 1.264 . S
C81 C83 1.339 . S
C81 H108 0.931 . S
C82 C83 1.395 . S
C82 C84 1.320 . S
C83 C81 1.339 . S
C83 C82 1.395 . S
C83 H109 0.929 . S
C84 C82 1.320 . S
C84 C85 1.405 . S
C84 H110 0.921 1_545 S
C85 C80 1.479 . S
C85 C84 1.405 . S
C85 H111 0.931 . S
U86 O87 2.454 . S
U86 O88 2.458 . S
U86 C89 2.984 . S
U86 C90 2.847 . S
U86 C103 2.882 . S
U86 O104 2.441 . S
U86 O105 2.420 . S
U86 O106 2.455 . S
U86 O107 2.449 . S
O87 U86 2.454 . S
O87 C89 1.353 . S
O88 U86 2.458 . S
O88 C89 1.286 . S
C89 U86 2.984 . S
C89 O87 1.353 . S
C89 O88 1.286 . S
C89 C91 1.363 . S
C90 C80 1.465 . S
C90 U86 2.847 . S
C90 O104 1.249 . S
C90 O105 1.202 . S
C91 C89 1.363 . S
C91 C93 1.408 . S
C91 C96 1.342 . S
C92 C93 1.310 . S
C92 C95 1.461 . S
C92 H112 0.932 . S
C93 C91 1.408 . S
C93 C92 1.310 . S
C93 H113 0.930 . S
C94 C95 1.474 1_565 S
C94 C96 1.285 1_565 S
C94 H114 0.930 . S
C95 C92 1.461 . S
C95 C94 1.474 1_545 S
C96 C91 1.342 . S
C96 C94 1.285 1_545 S
C96 H115 0.932 . S
C97 C100 1.424 . S
C97 C102 1.245 . S
C97 C103 1.428 . S
C98 C101 1.260 . S
C98 C102 1.477 . S
C98 H116 0.932 . S
C99 C100 1.384 . S
C99 C101 1.479 . S
C99 H117 0.929 . S
C100 C97 1.424 . S
C100 C99 1.384 . S
C100 H118 0.928 . S
C101 C98 1.260 . S
C101 C99 1.479 . S
C102 C97 1.245 . S
C102 C98 1.477 . S
C102 H119 0.932 . S
C103 U86 2.882 . S
C103 C97 1.428 . S
C103 O106 1.301 . S
C103 O107 1.282 . S
O104 U86 2.441 . S
O104 C90 1.249 . S
O105 U86 2.420 . S
O105 C90 1.202 . S
O106 U86 2.455 . S
O106 C103 1.301 . S
O107 U86 2.449 . S
O107 C103 1.282 . S
H108 C81 0.931 . S
H109 C83 0.929 . S
H110 C84 0.921 1_565 S
H111 C85 0.931 . S
H112 C92 0.932 . S
H113 C93 0.930 . S
H114 C94 0.930 . S
H115 C96 0.932 . S
H116 C98 0.932 . S
H117 C99 0.929 . S
H118 C100 0.928 . S
H119 C102 0.932 . S
C120 C121 1.264 . S
C120 C125 1.479 . S
C120 C130 1.465 . S
C121 C120 1.264 . S
C121 C123 1.339 . S
C121 H148 0.931 . S
C122 C123 1.395 . S
C122 C124 1.320 . S
C123 C121 1.339 . S
C123 C122 1.395 . S
C123 H149 0.929 . S
C124 C122 1.320 . S
C124 C125 1.405 . S
C124 H150 0.930 . S
C125 C120 1.479 . S
C125 C124 1.405 . S
C125 H151 0.931 . S
U126 O127 2.454 . S
U126 O128 2.458 . S
U126 C129 2.984 . S
U126 C130 2.847 . S
U126 C143 2.882 . S
U126 O144 2.441 . S
U126 O145 2.420 . S
U126 O146 2.455 . S
U126 O147 2.449 . S
O127 U126 2.454 . S
O127 C129 1.353 . S
O128 U126 2.458 . S
O128 C129 1.286 . S
C129 U126 2.984 . S
C129 O127 1.353 . S
C129 O128 1.286 . S
C129 C131 1.363 . S
C130 C120 1.465 . S
C130 U126 2.847 . S
C130 O144 1.249 . S
C130 O145 1.202 . S
C131 C129 1.363 . S
C131 C133 1.408 . S
C131 C136 1.342 . S
C132 C133 1.310 . S
C132 C135 1.461 . S
C132 H152 0.932 . S
C133 C131 1.408 . S
C133 C132 1.310 . S
C133 H153 0.930 . S
C134 C135 1.474 . S
C134 C136 1.285 . S
C134 H154 0.929 . S
C135 C132 1.461 . S
C135 C134 1.474 . S
C136 C131 1.342 . S
C136 C134 1.285 . S
C136 H155 0.930 . S
C137 C140 1.424 . S
C137 C142 1.245 . S
C137 C143 1.428 . S
C138 C141 1.260 . S
C138 C142 1.477 . S
C138 H156 0.932 . S
C139 C140 1.384 . S
C139 C141 1.479 . S
C139 H157 0.929 . S
C140 C137 1.424 . S
C140 C139 1.384 . S
C140 H158 0.928 . S
C141 C138 1.260 . S
C141 C139 1.479 . S
C142 C137 1.245 . S
C142 C138 1.477 . S
C142 H159 0.932 . S
C143 U126 2.882 . S
C143 C137 1.428 . S
C143 O146 1.301 . S
C143 O147 1.282 . S
O144 U126 2.441 . S
O144 C130 1.249 . S
O145 U126 2.420 . S
O145 C130 1.202 . S
O146 U126 2.455 . S
O146 C143 1.301 . S
O147 U126 2.449 . S
O147 C143 1.282 . S
H148 C121 0.931 . S
H149 C123 0.929 . S
H150 C124 0.930 . S
H151 C125 0.931 . S
H152 C132 0.932 . S
H153 C133 0.930 . S
H154 C134 0.929 . S
H155 C136 0.930 . S
H156 C138 0.932 . S
H157 C139 0.929 . S
H158 C140 0.928 . S
H159 C142 0.932 . S
C160 C161 1.264 . S
C160 C165 1.479 . S
C160 C170 1.465 . S
C161 C160 1.264 . S
C161 C163 1.339 . S
C161 H188 0.931 . S
C162 C163 1.395 . S
C162 C164 1.320 . S
C163 C161 1.339 . S
C163 C162 1.395 . S
C163 H189 0.929 . S
C164 C162 1.320 . S
C164 C165 1.405 . S
C164 H190 0.930 . S
C165 C160 1.479 . S
C165 C164 1.405 . S
C165 H191 0.931 . S
U166 O167 2.454 . S
U166 O168 2.458 . S
U166 C169 2.984 . S
U166 C170 2.847 1_554 S
U166 C183 2.882 . S
U166 O184 2.441 1_554 S
U166 O185 2.420 1_554 S
U166 O186 2.455 . S
U166 O187 2.449 . S
O167 U166 2.454 . S
O167 C169 1.353 . S
O168 U166 2.458 . S
O168 C169 1.286 . S
C169 U166 2.984 . S
C169 O167 1.353 . S
C169 O168 1.286 . S
C169 C171 1.363 . S
C170 C160 1.465 . S
C170 U166 2.847 1_556 S
C170 O184 1.249 . S
C170 O185 1.202 . S
C171 C169 1.363 . S
C171 C173 1.408 . S
C171 C176 1.342 . S
C172 C173 1.310 . S
C172 C175 1.461 . S
C172 H192 0.932 . S
C173 C171 1.408 . S
C173 C172 1.310 . S
C173 H193 0.930 1_554 S
C174 C175 1.474 . S
C174 C176 1.285 . S
C174 H194 0.929 . S
C175 C172 1.461 . S
C175 C174 1.474 . S
C176 C171 1.342 . S
C176 C174 1.285 . S
C176 H195 0.930 . S
C177 C180 1.424 . S
C177 C182 1.245 . S
C177 C183 1.428 . S
C178 C181 1.260 . S
C178 C182 1.477 . S
C178 H196 0.932 . S
C179 C180 1.384 . S
C179 C181 1.479 . S
C179 H197 0.929 . S
C180 C177 1.424 . S
C180 C179 1.384 . S
C180 H198 0.928 . S
C181 C178 1.260 . S
C181 C179 1.479 . S
C182 C177 1.245 . S
C182 C178 1.477 . S
C182 H199 0.932 . S
C183 U166 2.882 . S
C183 C177 1.428 . S
C183 O186 1.301 . S
C183 O187 1.282 . S
O184 U166 2.441 1_556 S
O184 C170 1.249 . S
O185 U166 2.420 1_556 S
O185 C170 1.202 . S
O186 U166 2.455 . S
O186 C183 1.301 . S
O187 U166 2.449 . S
O187 C183 1.282 . S
H188 C161 0.931 . S
H189 C163 0.929 . S
H190 C164 0.930 . S
H191 C165 0.931 . S
H192 C172 0.932 . S
H193 C173 0.930 1_556 S
H194 C174 0.929 . S
H195 C176 0.930 . S
H196 C178 0.932 . S
H197 C179 0.929 . S
H198 C180 0.928 . S
H199 C182 0.932 . S
C200 C201 1.264 . S
C200 C205 1.479 . S
C200 C210 1.465 . S
C201 C200 1.264 . S
C201 C203 1.339 . S
C201 H228 0.931 . S
C202 C203 1.395 . S
C202 C204 1.320 . S
C203 C201 1.339 . S
C203 C202 1.395 . S
C203 H229 0.929 . S
C204 C202 1.320 . S
C204 C205 1.405 . S
C204 H230 0.923 1_455 S
C205 C200 1.479 . S
C205 C204 1.405 . S
C205 H231 0.931 . S
U206 O207 2.454 . S
U206 O208 2.458 . S
U206 C209 2.984 . S
U206 C210 2.847 1_554 S
U206 C223 2.882 . S
U206 O224 2.441 1_554 S
U206 O225 2.420 1_554 S
U206 O226 2.455 . S
U206 O227 2.449 . S
O207 U206 2.454 . S
O207 C209 1.353 . S
O208 U206 2.458 . S
O208 C209 1.286 . S
C209 U206 2.984 . S
C209 O207 1.353 . S
C209 O208 1.286 . S
C209 C211 1.363 . S
C210 C200 1.465 . S
C210 U206 2.847 1_556 S
C210 O224 1.249 . S
C210 O225 1.202 . S
C211 C209 1.363 . S
C211 C213 1.408 . S
C211 C216 1.342 . S
C212 C213 1.310 . S
C212 C215 1.462 . S
C212 H232 0.932 . S
C213 C211 1.408 . S
C213 C212 1.310 . S
C213 H233 0.930 1_554 S
C214 C215 1.474 1_655 S
C214 C216 1.286 1_655 S
C214 H234 0.929 . S
C215 C212 1.462 . S
C215 C214 1.474 1_455 S
C216 C211 1.342 . S
C216 C214 1.286 1_455 S
C216 H235 0.934 . S
C217 C220 1.424 . S
C217 C222 1.245 . S
C217 C223 1.428 . S
C218 C221 1.260 . S
C218 C222 1.477 . S
C218 H236 0.932 . S
C219 C220 1.384 . S
C219 C221 1.479 . S
C219 H237 0.929 . S
C220 C217 1.424 . S
C220 C219 1.384 . S
C220 H238 0.928 . S
C221 C218 1.260 . S
C221 C219 1.479 . S
C222 C217 1.245 . S
C222 C218 1.477 . S
C222 H239 0.932 . S
C223 U206 2.882 . S
C223 C217 1.428 . S
C223 O226 1.301 . S
C223 O227 1.282 . S
O224 U206 2.441 1_556 S
O224 C210 1.249 . S
O225 U206 2.420 1_556 S
O225 C210 1.202 . S
O226 U206 2.455 . S
O226 C223 1.301 . S
O227 U206 2.449 . S
O227 C223 1.282 . S
H228 C201 0.931 . S
H229 C203 0.929 . S
H230 C204 0.923 1_655 S
H231 C205 0.931 . S
H232 C212 0.932 . S
H233 C213 0.930 1_556 S
H234 C214 0.929 . S
H235 C216 0.934 . S
H236 C218 0.932 . S
H237 C219 0.929 . S
H238 C220 0.928 . S
H239 C222 0.932 . S
C240 C241 1.264 . S
C240 C245 1.479 . S
C240 C250 1.465 . S
C241 C240 1.264 . S
C241 C243 1.339 . S
C241 H268 0.931 . S
C242 C243 1.395 . S
C242 C244 1.320 . S
C243 C241 1.339 . S
C243 C242 1.395 . S
C243 H269 0.929 . S
C244 C242 1.320 . S
C244 C245 1.405 . S
C244 H270 0.923 1_545 S
C245 C240 1.479 . S
C245 C244 1.405 . S
C245 H271 0.931 . S
U246 O247 2.454 . S
U246 O248 2.458 . S
U246 C249 2.984 . S
U246 C250 2.847 1_554 S
U246 C263 2.882 . S
U246 O264 2.441 1_554 S
U246 O265 2.420 1_554 S
U246 O266 2.455 . S
U246 O267 2.449 . S
O247 U246 2.454 . S
O247 C249 1.353 . S
O248 U246 2.458 . S
O248 C249 1.286 . S
C249 U246 2.984 . S
C249 O247 1.353 . S
C249 O248 1.286 . S
C249 C251 1.363 . S
C250 C240 1.465 . S
C250 U246 2.847 1_556 S
C250 O264 1.249 . S
C250 O265 1.202 . S
C251 C249 1.363 . S
C251 C253 1.408 . S
C251 C256 1.342 . S
C252 C253 1.310 . S
C252 C255 1.462 . S
C252 H272 0.932 . S
C253 C251 1.408 . S
C253 C252 1.310 . S
C253 H273 0.930 1_554 S
C254 C255 1.474 1_565 S
C254 C256 1.286 1_565 S
C254 H274 0.929 . S
C255 C252 1.462 . S
C255 C254 1.474 1_545 S
C256 C251 1.342 . S
C256 C254 1.286 1_545 S
C256 H275 0.934 . S
C257 C260 1.424 . S
C257 C262 1.245 . S
C257 C263 1.428 . S
C258 C261 1.260 . S
C258 C262 1.477 . S
C258 H276 0.932 . S
C259 C260 1.384 . S
C259 C261 1.479 . S
C259 H277 0.929 . S
C260 C257 1.424 . S
C260 C259 1.384 . S
C260 H278 0.928 . S
C261 C258 1.260 . S
C261 C259 1.479 . S
C262 C257 1.245 . S
C262 C258 1.477 . S
C262 H279 0.932 . S
C263 U246 2.882 . S
C263 C257 1.428 . S
C263 O266 1.301 . S
C263 O267 1.282 . S
O264 U246 2.441 1_556 S
O264 C250 1.249 . S
O265 U246 2.420 1_556 S
O265 C250 1.202 . S
O266 U246 2.455 . S
O266 C263 1.301 . S
O267 U246 2.449 . S
O267 C263 1.282 . S
H268 C241 0.931 . S
H269 C243 0.929 . S
H270 C244 0.923 1_565 S
H271 C245 0.931 . S
H272 C252 0.932 . S
H273 C253 0.930 1_556 S
H274 C254 0.929 . S
H275 C256 0.934 . S
H276 C258 0.932 . S
H277 C259 0.929 . S
H278 C260 0.928 . S
H279 C262 0.932 . S
C280 C281 1.264 . S
C280 C285 1.479 . S
C280 C290 1.465 . S
C281 C280 1.264 . S
C281 C283 1.339 . S
C281 H308 0.931 . S
C282 C283 1.395 . S
C282 C284 1.320 . S
C283 C281 1.339 . S
C283 C282 1.395 . S
C283 H309 0.929 . S
C284 C282 1.320 . S
C284 C285 1.405 . S
C284 H310 0.930 . S
C285 C280 1.479 . S
C285 C284 1.405 . S
C285 H311 0.931 . S
U286 O287 2.454 . S
U286 O288 2.458 . S
U286 C289 2.984 . S
U286 C290 2.847 1_554 S
U286 C303 2.882 . S
U286 O304 2.441 1_554 S
U286 O305 2.420 1_554 S
U286 O306 2.455 . S
U286 O307 2.449 . S
O287 U286 2.454 . S
O287 C289 1.353 . S
O288 U286 2.458 . S
O288 C289 1.286 . S
C289 U286 2.984 . S
C289 O287 1.353 . S
C289 O288 1.286 . S
C289 C291 1.363 . S
C290 C280 1.465 . S
C290 U286 2.847 1_556 S
C290 O304 1.249 . S
C290 O305 1.202 . S
C291 C289 1.363 . S
C291 C293 1.408 . S
C291 C296 1.342 . S
C292 C293 1.310 . S
C292 C295 1.461 . S
C292 H312 0.932 . S
C293 C291 1.408 . S
C293 C292 1.310 . S
C293 H313 0.930 1_554 S
C294 C295 1.474 . S
C294 C296 1.285 . S
C294 H314 0.929 . S
C295 C292 1.461 . S
C295 C294 1.474 . S
C296 C291 1.342 . S
C296 C294 1.285 . S
C296 H315 0.930 . S
C297 C300 1.424 . S
C297 C302 1.245 . S
C297 C303 1.428 . S
C298 C301 1.260 . S
C298 C302 1.477 . S
C298 H316 0.932 . S
C299 C300 1.384 . S
C299 C301 1.479 . S
C299 H317 0.929 . S
C300 C297 1.424 . S
C300 C299 1.384 . S
C300 H318 0.928 . S
C301 C298 1.260 . S
C301 C299 1.479 . S
C302 C297 1.245 . S
C302 C298 1.477 . S
C302 H319 0.932 . S
C303 U286 2.882 . S
C303 C297 1.428 . S
C303 O306 1.301 . S
C303 O307 1.282 . S
O304 U286 2.441 1_556 S
O304 C290 1.249 . S
O305 U286 2.420 1_556 S
O305 C290 1.202 . S
O306 U286 2.455 . S
O306 C303 1.301 . S
O307 U286 2.449 . S
O307 C303 1.282 . S
H308 C281 0.931 . S
H309 C283 0.929 . S
H310 C284 0.930 . S
H311 C285 0.931 . S
H312 C292 0.932 . S
H313 C293 0.930 1_556 S
H314 C294 0.929 . S
H315 C296 0.930 . S
H316 C298 0.932 . S
H317 C299 0.929 . S
H318 C300 0.928 . S
H319 C302 0.932 . S
La320 C322 2.928 . S
La320 O340 2.521 . S
La320 O341 2.628 . S
La320 O342 2.554 . S
La320 O343 2.757 1_565 S
La320 O344 2.470 . S
La320 O349 2.482 1_455 S
La320 O351 2.503 1_565 S
La321 C331 2.928 . S
La321 O343 2.482 1_655 S
La321 O345 2.503 1_545 S
La321 O346 2.521 . S
La321 O347 2.628 . S
La321 O348 2.554 . S
La321 O349 2.757 1_545 S
La321 O350 2.470 . S
C322 La320 2.928 . S
C322 C323 1.503 . S
C322 O340 1.261 . S
C322 O341 1.243 . S
C323 C322 1.503 . S
C323 C324 1.394 . S
C323 C328 1.373 . S
C324 C323 1.394 . S
C324 C325 1.380 . S
C324 H352 0.930 . S
C325 C324 1.380 . S
C325 C326 1.376 . S
C325 H353 0.930 . S
C326 C325 1.376 . S
C326 C327 1.370 . S
C327 C326 1.370 . S
C327 C328 1.396 . S
C327 H354 0.929 1_455 S
C328 C323 1.373 . S
C328 C327 1.396 . S
C328 H355 0.929 1_455 S
C329 O342 1.266 . S
C329 O343 1.274 1_565 S
C330 O344 1.258 1_655 S
C330 O345 1.256 . S
C331 La321 2.928 . S
C331 C332 1.503 . S
C331 O346 1.261 . S
C331 O347 1.243 . S
C332 C331 1.503 . S
C332 C333 1.394 . S
C332 C337 1.373 . S
C333 C332 1.394 . S
C333 C334 1.380 . S
C333 H356 0.930 . S
C334 C333 1.380 . S
C334 C335 1.376 . S
C334 H357 0.930 . S
C335 C334 1.376 . S
C335 C336 1.370 . S
C336 C335 1.370 . S
C336 C337 1.396 . S
C336 H358 0.929 1_655 S
C337 C332 1.373 . S
C337 C336 1.396 . S
C337 H359 0.929 1_655 S
C338 O348 1.240 . S
C338 O349 1.289 1_545 S
C339 O350 1.258 1_455 S
C339 O351 1.256 . S
O340 La320 2.521 . S
O340 C322 1.261 . S
O341 La320 2.628 . S
O341 C322 1.243 . S
O342 La320 2.554 . S
O342 C329 1.266 . S
O343 La320 2.757 1_545 S
O343 La321 2.482 1_455 S
O343 C329 1.274 1_545 S
O344 La320 2.470 . S
O344 C330 1.258 1_455 S
O345 La321 2.503 1_565 S
O345 C330 1.256 . S
O346 La321 2.521 . S
O346 C331 1.261 . S
O347 La321 2.628 . S
O347 C331 1.243 . S
O348 La321 2.554 . S
O348 C338 1.240 . S
O349 La320 2.482 1_655 S
O349 La321 2.757 1_565 S
O349 C338 1.289 1_565 S
O350 La321 2.470 . S
O350 C339 1.258 1_655 S
O351 La320 2.503 1_545 S
O351 C339 1.256 . S
H352 C324 0.930 . S
H353 C325 0.930 . S
H354 C327 0.929 1_655 S
H355 C328 0.929 1_655 S
H356 C333 0.930 . S
H357 C334 0.930 . S
H358 C336 0.929 1_455 S
H359 C337 0.929 1_455 S
La360 C362 2.928 . S
La360 O380 2.521 . S
La360 O381 2.628 . S
La360 O382 2.554 . S
La360 O383 2.757 . S
La360 O384 2.470 . S
La360 O389 2.482 1_545 S
La360 O391 2.503 . S
La361 C371 2.928 . S
La361 O383 2.482 1_565 S
La361 O385 2.503 . S
La361 O386 2.521 . S
La361 O387 2.628 . S
La361 O388 2.554 . S
La361 O389 2.757 . S
La361 O390 2.470 . S
C362 La360 2.928 . S
C362 C363 1.503 . S
C362 O380 1.261 . S
C362 O381 1.243 . S
C363 C362 1.503 . S
C363 C364 1.394 . S
C363 C368 1.373 . S
C364 C363 1.394 . S
C364 C365 1.380 . S
C364 H392 0.930 . S
C365 C364 1.380 . S
C365 C366 1.376 . S
C365 H393 0.930 . S
C366 C365 1.376 . S
C366 C367 1.370 . S
C367 C366 1.370 . S
C367 C368 1.396 . S
C367 H394 0.929 1_545 S
C368 C363 1.373 . S
C368 C367 1.396 . S
C368 H395 0.929 1_545 S
C369 O382 1.240 . S
C369 O383 1.289 . S
C370 O384 1.258 1_565 S
C370 O385 1.256 . S
C371 La361 2.928 . S
C371 C372 1.503 . S
C371 O386 1.261 . S
C371 O387 1.243 . S
C372 C371 1.503 . S
C372 C373 1.394 . S
C372 C377 1.373 . S
C373 C372 1.394 . S
C373 C374 1.380 . S
C373 H396 0.930 . S
C374 C373 1.380 . S
C374 C375 1.376 . S
C374 H397 0.930 . S
C375 C374 1.376 . S
C375 C376 1.370 . S
C376 C375 1.370 . S
C376 C377 1.396 . S
C376 H398 0.929 1_565 S
C377 C372 1.373 . S
C377 C376 1.396 . S
C377 H399 0.929 1_565 S
C378 O388 1.240 . S
C378 O389 1.289 . S
C379 O390 1.258 1_545 S
C379 O391 1.256 . S
O380 La360 2.521 . S
O380 C362 1.261 . S
O381 La360 2.628 . S
O381 C362 1.243 . S
O382 La360 2.554 . S
O382 C369 1.240 . S
O383 La360 2.757 . S
O383 La361 2.482 1_545 S
O383 C369 1.289 . S
O384 La360 2.470 . S
O384 C370 1.258 1_545 S
O385 La361 2.503 . S
O385 C370 1.256 . S
O386 La361 2.521 . S
O386 C371 1.261 . S
O387 La361 2.628 . S
O387 C371 1.243 . S
O388 La361 2.554 . S
O388 C378 1.240 . S
O389 La360 2.482 1_565 S
O389 La361 2.757 . S
O389 C378 1.289 . S
O390 La361 2.470 . S
O390 C379 1.258 1_565 S
O391 La360 2.503 . S
O391 C379 1.256 . S
H392 C364 0.930 . S
H393 C365 0.930 . S
H394 C367 0.929 1_565 S
H395 C368 0.929 1_565 S
H396 C373 0.930 . S
H397 C374 0.930 . S
H398 C376 0.929 1_545 S
H399 C377 0.929 1_545 S
La400 C402 2.928 . S
La400 O420 2.521 . S
La400 O421 2.628 . S
La400 O422 2.554 . S
La400 O423 2.757 . S
La400 O424 2.470 . S
La400 O429 2.482 . S
La400 O431 2.503 . S
La401 C411 2.928 . S
La401 O423 2.482 . S
La401 O425 2.503 . S
La401 O426 2.521 . S
La401 O427 2.628 . S
La401 O428 2.554 . S
La401 O429 2.757 . S
La401 O430 2.470 . S
C402 La400 2.928 . S
C402 C403 1.503 . S
C402 O420 1.261 . S
C402 O421 1.243 . S
C403 C402 1.503 . S
C403 C404 1.394 . S
C403 C408 1.373 . S
C404 C403 1.394 . S
C404 C405 1.380 . S
C404 H432 0.930 . S
C405 C404 1.380 . S
C405 C406 1.376 . S
C405 H433 0.930 . S
C406 C405 1.376 . S
C406 C407 1.370 . S
C407 C406 1.370 . S
C407 C408 1.396 . S
C407 H434 0.929 . S
C408 C403 1.373 . S
C408 C407 1.396 . S
C408 H435 0.929 . S
C409 O422 1.240 . S
C409 O423 1.289 . S
C410 O424 1.258 . S
C410 O425 1.256 . S
C411 La401 2.928 . S
C411 C412 1.503 . S
C411 O426 1.261 . S
C411 O427 1.243 . S
C412 C411 1.503 . S
C412 C413 1.394 . S
C412 C417 1.373 . S
C413 C412 1.394 . S
C413 C414 1.380 . S
C413 H436 0.930 . S
C414 C413 1.380 . S
C414 C415 1.376 . S
C414 H437 0.930 . S
C415 C414 1.376 . S
C415 C416 1.370 . S
C416 C415 1.370 . S
C416 C417 1.396 . S
C416 H438 0.929 . S
C417 C412 1.373 . S
C417 C416 1.396 . S
C417 H439 0.929 . S
C418 O428 1.240 . S
C418 O429 1.289 . S
C419 O430 1.258 . S
C419 O431 1.256 . S
O420 La400 2.521 . S
O420 C402 1.261 . S
O421 La400 2.628 . S
O421 C402 1.243 . S
O422 La400 2.554 . S
O422 C409 1.240 . S
O423 La400 2.757 . S
O423 La401 2.482 . S
O423 C409 1.289 . S
O424 La400 2.470 . S
O424 C410 1.258 . S
O425 La401 2.503 . S
O425 C410 1.256 . S
O426 La401 2.521 . S
O426 C411 1.261 . S
O427 La401 2.628 . S
O427 C411 1.243 . S
O428 La401 2.554 . S
O428 C418 1.240 . S
O429 La400 2.482 . S
O429 La401 2.757 . S
O429 C418 1.289 . S
O430 La401 2.470 . S
O430 C419 1.258 . S
O431 La400 2.503 . S
O431 C419 1.256 . S
H432 C404 0.930 . S
H433 C405 0.930 . S
H434 C407 0.929 . S
H435 C408 0.929 . S
H436 C413 0.930 . S
H437 C414 0.930 . S
H438 C416 0.929 . S
H439 C417 0.929 . S
La440 C442 2.928 . S
La440 O460 2.521 . S
La440 O461 2.628 . S
La440 O462 2.554 . S
La440 O463 2.757 1_655 S
La440 O464 2.470 . S
La440 O469 2.482 . S
La440 O471 2.503 1_655 S
La441 C451 2.928 . S
La441 O463 2.482 . S
La441 O465 2.503 1_455 S
La441 O466 2.521 . S
La441 O467 2.628 . S
La441 O468 2.554 . S
La441 O469 2.757 1_455 S
La441 O470 2.470 . S
C442 La440 2.928 . S
C442 C443 1.503 . S
C442 O460 1.261 . S
C442 O461 1.243 . S
C443 C442 1.503 . S
C443 C444 1.394 . S
C443 C448 1.373 . S
C444 C443 1.394 . S
C444 C445 1.380 . S
C444 H472 0.930 . S
C445 C444 1.380 . S
C445 C446 1.376 . S
C445 H473 0.930 . S
C446 C445 1.376 . S
C446 C447 1.370 . S
C447 C446 1.370 . S
C447 C448 1.396 . S
C447 H474 0.929 . S
C448 C443 1.373 . S
C448 C447 1.396 . S
C448 H475 0.929 . S
C449 O462 1.263 . S
C449 O463 1.276 1_655 S
C450 O464 1.258 . S
C450 O465 1.256 . S
C451 La441 2.928 . S
C451 C452 1.503 . S
C451 O466 1.261 . S
C451 O467 1.243 . S
C452 C451 1.503 . S
C452 C453 1.394 . S
C452 C457 1.373 . S
C453 C452 1.394 . S
C453 C454 1.380 . S
C453 H476 0.930 . S
C454 C453 1.380 . S
C454 C455 1.376 . S
C454 H477 0.930 . S
C455 C454 1.376 . S
C455 C456 1.370 . S
C456 C455 1.370 . S
C456 C457 1.396 . S
C456 H478 0.929 . S
C457 C452 1.373 . S
C457 C456 1.396 . S
C457 H479 0.929 . S
C458 O468 1.271 . S
C458 O469 1.272 1_455 S
C459 O470 1.258 . S
C459 O471 1.256 . S
O460 La440 2.521 . S
O460 C442 1.261 . S
O461 La440 2.628 . S
O461 C442 1.243 . S
O462 La440 2.554 . S
O462 C449 1.263 . S
O463 La440 2.757 1_455 S
O463 La441 2.482 . S
O463 C449 1.276 1_455 S
O464 La440 2.470 . S
O464 C450 1.258 . S
O465 La441 2.503 1_655 S
O465 C450 1.256 . S
O466 La441 2.521 . S
O466 C451 1.261 . S
O467 La441 2.628 . S
O467 C451 1.243 . S
O468 La441 2.554 . S
O468 C458 1.271 . S
O469 La440 2.482 . S
O469 La441 2.757 1_655 S
O469 C458 1.272 1_655 S
O470 La441 2.470 . S
O470 C459 1.258 . S
O471 La440 2.503 1_455 S
O471 C459 1.256 . S
H472 C444 0.930 . S
H473 C445 0.930 . S
H474 C447 0.929 . S
H475 C448 0.929 . S
H476 C453 0.930 . S
H477 C454 0.930 . S
H478 C456 0.929 . S
H479 C457 0.929 . S
H480 C486 0.930 . S
H481 C490 0.930 . S
H482 C495 0.929 . S
H483 C493 0.929 . S
H484 C488 0.929 . S
H485 C494 0.929 . S
C486 H480 0.930 . S
C486 C487 1.366 1_565 S
C486 C494 1.378 . S
C487 C486 1.366 1_545 S
C487 C495 1.434 . S
C488 H484 0.929 . S
C488 C490 1.378 . S
C488 C492 1.350 . S
C489 C492 1.463 . S
C489 C494 1.342 1_545 S
C489 N497 1.435 . S
C490 H481 0.930 . S
C490 C488 1.378 . S
C490 C491 1.367 . S
C491 C490 1.367 . S
C491 C493 1.433 1_545 S
C492 C488 1.350 . S
C492 C489 1.463 . S
C492 N496 1.427 1_545 S
C493 H483 0.929 . S
C493 C491 1.433 1_565 S
C493 N496 1.384 . S
C494 H485 0.929 . S
C494 C486 1.378 . S
C494 C489 1.342 1_565 S
C495 H482 0.929 . S
C495 C487 1.434 . S
C495 N497 1.384 . S
N496 C492 1.427 1_565 S
N496 C493 1.384 . S
N497 C489 1.435 . S
N497 C495 1.384 . S
H498 C504 0.930 . S
H499 C508 0.930 . S
H500 C513 0.929 . S
H501 C511 0.929 . S
H502 C506 0.929 . S
H503 C512 0.929 . S
C504 H498 0.930 . S
C504 C505 1.367 . S
C504 C512 1.378 . S
C505 C504 1.367 . S
C505 C513 1.433 . S
C506 H502 0.929 . S
C506 C508 1.378 . S
C506 C510 1.350 . S
C507 C510 1.463 . S
C507 C512 1.350 . S
C507 N515 1.427 . S
C508 H499 0.930 . S
C508 C506 1.378 . S
C508 C509 1.367 . S
C509 C508 1.367 . S
C509 C511 1.433 . S
C510 C506 1.350 . S
C510 C507 1.463 . S
C510 N514 1.427 . S
C511 H501 0.929 . S
C511 C509 1.433 . S
C511 N514 1.384 . S
C512 H503 0.929 . S
C512 C504 1.378 . S
C512 C507 1.350 . S
C513 H500 0.929 . S
C513 C505 1.433 . S
C513 N515 1.384 . S
N514 C510 1.427 . S
N514 C511 1.384 . S
N515 C507 1.427 . S
N515 C513 1.384 . S
H516 C522 0.930 . S
H517 C526 0.930 . S
H518 C531 0.929 . S
H519 C529 0.929 . S
H520 C524 0.929 . S
H521 C530 0.929 . S
C522 H516 0.930 . S
C522 C523 1.367 . S
C522 C530 1.378 . S
C523 C522 1.367 . S
C523 C531 1.433 . S
C524 H520 0.929 . S
C524 C526 1.378 . S
C524 C528 1.350 . S
C525 C528 1.463 . S
C525 C530 1.350 . S
C525 N533 1.427 . S
C526 H517 0.930 . S
C526 C524 1.378 . S
C526 C527 1.367 . S
C527 C526 1.367 . S
C527 C529 1.433 . S
C528 C524 1.350 . S
C528 C525 1.463 . S
C528 N532 1.427 . S
C529 H519 0.929 . S
C529 C527 1.433 . S
C529 N532 1.384 . S
C530 H521 0.929 . S
C530 C522 1.378 . S
C530 C525 1.350 . S
C531 H518 0.929 . S
C531 C523 1.433 . S
C531 N533 1.384 . S
N532 C528 1.427 . S
N532 C529 1.384 . S
N533 C525 1.427 . S
N533 C531 1.384 . S
H534 C540 0.930 . S
H535 C544 0.930 . S
H536 C549 0.929 . S
H537 C547 0.929 . S
H538 C542 0.929 . S
H539 C548 0.929 . S
C540 H534 0.930 . S
C540 C541 1.376 . S
C540 C548 1.378 . S
C541 C540 1.376 . S
C541 C549 1.425 1_455 S
C542 H538 0.929 . S
C542 C544 1.378 . S
C542 C546 1.338 1_655 S
C543 C546 1.462 . S
C543 C548 1.369 . S
C543 N551 1.409 1_455 S
C544 H535 0.930 . S
C544 C542 1.378 . S
C544 C545 1.367 1_655 S
C545 C544 1.367 1_455 S
C545 C547 1.433 . S
C546 C542 1.338 1_455 S
C546 C543 1.462 . S
C546 N550 1.441 . S
C547 H537 0.929 . S
C547 C545 1.433 . S
C547 N550 1.384 . S
C548 H539 0.929 . S
C548 C540 1.378 . S
C548 C543 1.369 . S
C549 H536 0.929 . S
C549 C541 1.425 1_655 S
C549 N551 1.384 . S
N550 C546 1.441 . S
N550 C547 1.384 . S
N551 C543 1.409 1_655 S
N551 C549 1.384 . S
H552 C558 0.930 . S
H553 C562 0.930 . S
H554 C567 0.929 . S
H555 C565 0.929 . S
H556 C560 0.942 . S
H557 C566 0.929 . S
C558 H552 0.930 . S
C558 C559 1.373 . S
C558 C566 1.378 . S
C559 C558 1.373 . S
C559 C567 1.427 1_565 S
C560 H556 0.942 . S
C560 C562 1.378 . S
C560 C564 1.342 1_545 S
C561 C564 1.462 1_554 S
C561 C566 1.368 . S
C561 N569 1.410 1_565 S
C562 H553 0.930 . S
C562 C560 1.378 . S
C562 C563 1.348 1_545 S
C563 C562 1.348 1_565 S
C563 C565 1.454 . S
C564 C560 1.342 1_565 S
C564 C561 1.462 1_556 S
C564 N568 1.435 . S
C565 H555 0.929 . S
C565 C563 1.454 . S
C565 N568 1.384 . S
C566 H557 0.929 . S
C566 C558 1.378 . S
C566 C561 1.368 . S
C567 H554 0.929 . S
C567 C559 1.427 1_545 S
C567 N569 1.384 . S
N568 C564 1.435 . S
N568 C565 1.384 . S
N569 C561 1.410 1_545 S
N569 C567 1.384 . S
H570 C576 0.930 . S
H571 C580 0.930 . S
H572 C585 0.929 . S
H573 C583 0.929 . S
H574 C578 0.929 . S
H575 C584 0.929 . S
C576 H570 0.930 . S
C576 C577 1.367 . S
C576 C584 1.378 . S
C577 C576 1.367 . S
C577 C585 1.433 . S
C578 H574 0.929 . S
C578 C580 1.378 . S
C578 C582 1.350 . S
C579 C582 1.463 1_554 S
C579 C584 1.350 . S
C579 N587 1.427 . S
C580 H571 0.930 . S
C580 C578 1.378 . S
C580 C581 1.367 . S
C581 C580 1.367 . S
C581 C583 1.433 . S
C582 C578 1.350 . S
C582 C579 1.463 1_556 S
C582 N586 1.427 . S
C583 H573 0.929 . S
C583 C581 1.433 . S
C583 N586 1.384 . S
C584 H575 0.929 . S
C584 C576 1.378 . S
C584 C579 1.350 . S
C585 H572 0.929 . S
C585 C577 1.433 . S
C585 N587 1.384 . S
N586 C582 1.427 . S
N586 C583 1.384 . S
N587 C579 1.427 . S
N587 C585 1.384 . S
H588 C594 0.930 . S
H589 C598 0.930 . S
H590 C603 0.929 . S
H591 C601 0.929 . S
H592 C596 0.929 . S
H593 C602 0.929 . S
C594 H588 0.930 . S
C594 C595 1.367 . S
C594 C602 1.378 . S
C595 C594 1.367 . S
C595 C603 1.433 . S
C596 H592 0.929 . S
C596 C598 1.378 . S
C596 C600 1.350 . S
C597 C600 1.463 1_554 S
C597 C602 1.350 . S
C597 N605 1.427 . S
C598 H589 0.930 . S
C598 C596 1.378 . S
C598 C599 1.367 . S
C599 C598 1.367 . S
C599 C601 1.433 . S
C600 C596 1.350 . S
C600 C597 1.463 1_556 S
C600 N604 1.427 . S
C601 H591 0.929 . S
C601 C599 1.433 . S
C601 N604 1.384 . S
C602 H593 0.929 . S
C602 C594 1.378 . S
C602 C597 1.350 . S
C603 H590 0.929 . S
C603 C595 1.433 . S
C603 N605 1.384 . S
N604 C600 1.427 . S
N604 C601 1.384 . S
N605 C597 1.427 . S
N605 C603 1.384 . S
H606 C612 0.930 . S
H607 C616 0.930 . S
H608 C621 0.929 . S
H609 C619 0.929 . S
H610 C614 0.929 . S
H611 C620 0.929 . S
C612 H606 0.930 . S
C612 C613 1.363 . S
C612 C620 1.378 . S
C613 C612 1.363 . S
C613 C621 1.437 1_455 S
C614 H610 0.929 . S
C614 C616 1.378 . S
C614 C618 1.350 . S
C615 C618 1.463 1_554 S
C615 C620 1.346 1_655 S
C615 N623 1.431 . S
C616 H607 0.930 . S
C616 C614 1.378 . S
C616 C617 1.367 . S
C617 C616 1.367 . S
C617 C619 1.433 1_655 S
C618 C614 1.350 . S
C618 C615 1.463 1_556 S
C618 N622 1.427 1_655 S
C619 H609 0.929 . S
C619 C617 1.433 1_455 S
C619 N622 1.384 . S
C620 H611 0.929 . S
C620 C612 1.378 . S
C620 C615 1.346 1_455 S
C621 H608 0.929 . S
C621 C613 1.437 1_655 S
C621 N623 1.384 . S
N622 C618 1.427 1_455 S
N622 C619 1.384 . S
N623 C615 1.431 . S
N623 C621 1.384 . S
H624 C630 0.930 . S
H625 C634 0.930 . S
H626 C639 0.929 . S
H627 C637 0.929 . S
H628 C632 0.929 . S
H629 C638 0.929 . S
C630 H624 0.930 . S
C630 C631 1.367 . S
C630 C638 1.378 . S
C631 C630 1.367 . S
C631 C639 1.433 1_455 S
C632 H628 0.929 . S
C632 C634 1.378 . S
C632 C636 1.350 . S
C633 C636 1.463 . S
C633 C638 1.350 1_655 S
C633 N641 1.427 . S
C634 H625 0.930 . S
C634 C632 1.378 . S
C634 C635 1.367 . S
C635 C634 1.367 . S
C635 C637 1.433 . S
C636 C632 1.350 . S
C636 C633 1.463 . S
C636 N640 1.427 . S
C637 H627 0.929 . S
C637 C635 1.433 . S
C637 N640 1.384 . S
C638 H629 0.929 . S
C638 C630 1.378 . S
C638 C633 1.350 1_455 S
C639 H626 0.929 . S
C639 C631 1.433 1_655 S
C639 N641 1.384 . S
N640 C636 1.427 . S
N640 C637 1.384 . S
N641 C633 1.427 . S
N641 C639 1.384 . S
H642 C648 0.930 . S
H643 C652 0.930 . S
H644 C657 0.929 . S
H645 C655 0.929 . S
H646 C650 0.929 1_545 S
H647 C656 0.929 . S
C648 H642 0.930 . S
C648 C649 1.367 1_565 S
C648 C656 1.378 . S
C649 C648 1.367 1_545 S
C649 C657 1.433 . S
C650 H646 0.929 1_565 S
C650 C652 1.378 . S
C650 C654 1.350 . S
C651 C654 1.463 . S
C651 C656 1.350 . S
C651 N659 1.427 1_565 S
C652 H643 0.930 . S
C652 C650 1.378 . S
C652 C653 1.367 . S
C653 C652 1.367 . S
C653 C655 1.433 . S
C654 C650 1.350 . S
C654 C651 1.463 . S
C654 N658 1.427 . S
C655 H645 0.929 . S
C655 C653 1.433 . S
C655 N658 1.384 . S
C656 H647 0.929 . S
C656 C648 1.378 . S
C656 C651 1.350 . S
C657 H644 0.929 . S
C657 C649 1.433 . S
C657 N659 1.384 . S
N658 C654 1.427 . S
N658 C655 1.384 . S
N659 C651 1.427 1_545 S
N659 C657 1.384 . S
H660 C666 0.930 . S
H661 C670 0.930 . S
H662 C675 0.929 . S
H663 C673 0.929 . S
H664 C668 0.929 . S
H665 C674 0.929 . S
C666 H660 0.930 . S
C666 C667 1.367 . S
C666 C674 1.378 . S
C667 C666 1.367 . S
C667 C675 1.433 . S
C668 H664 0.929 . S
C668 C670 1.378 . S
C668 C672 1.350 . S
C669 C672 1.463 . S
C669 C674 1.350 . S
C669 N677 1.427 . S
C670 H661 0.930 . S
C670 C668 1.378 . S
C670 C671 1.367 . S
C671 C670 1.367 . S
C671 C673 1.433 . S
C672 C668 1.350 . S
C672 C669 1.463 . S
C672 N676 1.427 . S
C673 H663 0.929 . S
C673 C671 1.433 . S
C673 N676 1.384 . S
C674 H665 0.929 . S
C674 C666 1.378 . S
C674 C669 1.350 . S
C675 H662 0.929 . S
C675 C667 1.433 . S
C675 N677 1.384 . S
N676 C672 1.427 . S
N676 C673 1.384 . S
N677 C669 1.427 . S
N677 C675 1.384 . S
H678 C684 0.930 . S
H679 C688 0.930 . S
H680 C693 0.929 . S
H681 C691 0.929 . S
H682 C686 0.929 . S
H683 C692 0.929 . S
C684 H678 0.930 . S
C684 C685 1.367 . S
C684 C692 1.378 . S
C685 C684 1.367 . S
C685 C693 1.433 . S
C686 H682 0.929 . S
C686 C688 1.378 . S
C686 C690 1.350 . S
C687 C690 1.463 . S
C687 C692 1.350 . S
C687 N695 1.427 . S
C688 H679 0.930 . S
C688 C686 1.378 . S
C688 C689 1.367 . S
C689 C688 1.367 . S
C689 C691 1.433 . S
C690 C686 1.350 . S
C690 C687 1.463 . S
C690 N694 1.427 . S
C691 H681 0.929 . S
C691 C689 1.433 . S
C691 N694 1.384 . S
C692 H683 0.929 . S
C692 C684 1.378 . S
C692 C687 1.350 . S
C693 H680 0.929 . S
C693 C685 1.433 . S
C693 N695 1.384 . S
N694 C690 1.427 . S
N694 C691 1.384 . S
N695 C687 1.427 . S
N695 C693 1.384 . S
H696 C702 0.930 . S
H697 C706 0.930 . S
H698 C711 0.929 . S
H699 C709 0.929 . S
H700 C704 0.929 1_554 S
H701 C710 0.929 . S
C702 H696 0.930 . S
C702 C703 1.367 . S
C702 C710 1.378 1_554 S
C703 C702 1.367 . S
C703 C711 1.433 1_655 S
C704 H700 0.929 1_556 S
C704 C706 1.378 . S
C704 C708 1.350 . S
C705 C708 1.463 1_554 S
C705 C710 1.350 1_454 S
C705 N713 1.427 . S
C706 H697 0.930 . S
C706 C704 1.378 . S
C706 C707 1.367 . S
C707 C706 1.367 . S
C707 C709 1.433 . S
C708 C704 1.350 . S
C708 C705 1.463 1_556 S
C708 N712 1.427 . S
C709 H699 0.929 . S
C709 C707 1.433 . S
C709 N712 1.384 . S
C710 H701 0.929 . S
C710 C702 1.378 1_556 S
C710 C705 1.350 1_656 S
C711 H698 0.929 . S
C711 C703 1.433 1_455 S
C711 N713 1.384 . S
N712 C708 1.427 . S
N712 C709 1.384 . S
N713 C705 1.427 . S
N713 C711 1.384 . S
H714 C720 0.924 1_556 S
H715 C724 0.930 1_554 S
H716 C729 0.929 . S
H717 C727 0.929 . S
H718 C722 0.929 . S
H719 C728 0.929 . S
C720 H714 0.924 1_554 S
C720 C721 1.379 1_545 S
C720 C728 1.372 1_554 S
C721 C720 1.379 1_565 S
C721 C729 1.433 . S
C722 H718 0.929 . S
C722 C724 1.378 1_554 S
C722 C726 1.350 1_554 S
C723 C726 1.463 1_554 S
C723 C728 1.350 1_554 S
C723 N731 1.447 . S
C724 H715 0.930 1_556 S
C724 C722 1.378 1_556 S
C724 C725 1.367 . S
C725 C724 1.367 . S
C725 C727 1.433 . S
C726 C722 1.350 1_556 S
C726 C723 1.463 1_556 S
C726 N730 1.427 . S
C727 H717 0.929 . S
C727 C725 1.433 . S
C727 N730 1.384 . S
C728 H719 0.929 . S
C728 C720 1.372 1_556 S
C728 C723 1.350 1_556 S
C729 H716 0.929 . S
C729 C721 1.433 . S
C729 N731 1.371 1_565 S
N730 C726 1.427 . S
N730 C727 1.384 . S
N731 C723 1.447 . S
N731 C729 1.371 1_545 S
H732 C738 0.930 . S
H733 C742 0.930 1_554 S
H734 C747 0.929 . S
H735 C745 0.929 . S
H736 C740 0.929 . S
H737 C746 0.929 . S
C738 H732 0.930 . S
C738 C739 1.367 1_556 S
C738 C746 1.378 . S
C739 C738 1.367 1_554 S
C739 C747 1.433 . S
C740 H736 0.929 . S
C740 C742 1.378 1_554 S
C740 C744 1.350 1_554 S
C741 C744 1.463 1_554 S
C741 C746 1.350 1_554 S
C741 N749 1.427 . S
C742 H733 0.930 1_556 S
C742 C740 1.378 1_556 S
C742 C743 1.367 . S
C743 C742 1.367 . S
C743 C745 1.433 . S
C744 C740 1.350 1_556 S
C744 C741 1.463 1_556 S
C744 N748 1.427 . S
C745 H735 0.929 . S
C745 C743 1.433 . S
C745 N748 1.384 . S
C746 H737 0.929 . S
C746 C738 1.378 . S
C746 C741 1.350 1_556 S
C747 H734 0.929 . S
C747 C739 1.433 . S
C747 N749 1.384 . S
N748 C744 1.427 . S
N748 C745 1.384 . S
N749 C741 1.427 . S
N749 C747 1.384 . S
H750 C756 0.930 . S
H751 C760 0.930 . S
H752 C765 0.929 . S
H753 C763 0.929 . S
H754 C758 0.929 1_554 S
H755 C764 0.929 1_556 S
C756 H750 0.930 . S
C756 C757 1.367 . S
C756 C764 1.378 . S
C757 C756 1.367 . S
C757 C765 1.433 . S
C758 H754 0.929 1_556 S
C758 C760 1.378 . S
C758 C762 1.350 . S
C759 C762 1.463 1_554 S
C759 C764 1.350 . S
C759 N767 1.427 . S
C760 H751 0.930 . S
C760 C758 1.378 . S
C760 C761 1.367 . S
C761 C760 1.367 . S
C761 C763 1.433 . S
C762 C758 1.350 . S
C762 C759 1.463 1_556 S
C762 N766 1.427 . S
C763 H753 0.929 . S
C763 C761 1.433 . S
C763 N766 1.384 . S
C764 H755 0.929 1_554 S
C764 C756 1.378 . S
C764 C759 1.350 . S
C765 H752 0.929 . S
C765 C757 1.433 . S
C765 N767 1.384 . S
N766 C762 1.427 . S
N766 C763 1.384 . S
N767 C759 1.427 . S
N767 C765 1.384 . S
H768 C774 0.930 . S
H769 C778 0.930 . S
H770 C783 0.929 . S
H771 C781 0.929 . S
H772 C776 0.929 . S
H773 C782 0.929 . S
C774 H768 0.930 . S
C774 C775 1.367 . S
C774 C782 1.378 . S
C775 C774 1.367 . S
C775 C783 1.433 1_455 S
C776 H772 0.929 . S
C776 C778 1.378 . S
C776 C780 1.350 1_655 S
C777 C780 1.463 . S
C777 C782 1.350 . S
C777 N785 1.427 1_455 S
C778 H769 0.930 . S
C778 C776 1.378 . S
C778 C779 1.367 1_655 S
C779 C778 1.367 1_455 S
C779 C781 1.433 . S
C780 C776 1.350 1_455 S
C780 C777 1.463 . S
C780 N784 1.427 . S
C781 H771 0.929 . S
C781 C779 1.433 . S
C781 N784 1.384 . S
C782 H773 0.929 . S
C782 C774 1.378 . S
C782 C777 1.350 . S
C783 H770 0.929 . S
C783 C775 1.433 1_655 S
C783 N785 1.384 . S
N784 C780 1.427 . S
N784 C781 1.384 . S
N785 C777 1.427 1_655 S
N785 C783 1.384 . S
H786 C792 0.930 . S
H787 C796 0.930 . S
H788 C801 0.929 . S
H789 C799 0.929 . S
H790 C794 0.929 . S
H791 C800 0.929 . S
C792 H786 0.930 . S
C792 C793 1.367 . S
C792 C800 1.378 . S
C793 C792 1.367 . S
C793 C801 1.433 1_545 S
C794 H790 0.929 . S
C794 C796 1.378 . S
C794 C798 1.350 1_565 S
C795 C798 1.463 . S
C795 C800 1.350 . S
C795 N803 1.427 1_545 S
C796 H787 0.930 . S
C796 C794 1.378 . S
C796 C797 1.367 1_565 S
C797 C796 1.367 1_545 S
C797 C799 1.433 . S
C798 C794 1.350 1_545 S
C798 C795 1.463 . S
C798 N802 1.427 . S
C799 H789 0.929 . S
C799 C797 1.433 . S
C799 N802 1.384 . S
C800 H791 0.929 . S
C800 C792 1.378 . S
C800 C795 1.350 . S
C801 H788 0.929 . S
C801 C793 1.433 1_565 S
C801 N803 1.384 . S
N802 C798 1.427 . S
N802 C799 1.384 . S
N803 C795 1.427 1_565 S
N803 C801 1.384 . S
H804 C810 0.930 . S
H805 C814 0.930 . S
H806 C819 0.929 . S
H807 C817 0.929 . S
H808 C812 0.929 . S
H809 C818 0.929 . S
C810 H804 0.930 . S
C810 C811 1.367 . S
C810 C818 1.378 . S
C811 C810 1.367 . S
C811 C819 1.433 . S
C812 H808 0.929 . S
C812 C814 1.378 . S
C812 C816 1.350 . S
C813 C816 1.463 . S
C813 C818 1.350 . S
C813 N821 1.427 . S
C814 H805 0.930 . S
C814 C812 1.378 . S
C814 C815 1.367 . S
C815 C814 1.367 . S
C815 C817 1.433 . S
C816 C812 1.350 . S
C816 C813 1.463 . S
C816 N820 1.427 . S
C817 H807 0.929 . S
C817 C815 1.433 . S
C817 N820 1.384 . S
C818 H809 0.929 . S
C818 C810 1.378 . S
C818 C813 1.350 . S
C819 H806 0.929 . S
C819 C811 1.433 . S
C819 N821 1.384 . S
N820 C816 1.427 . S
N820 C817 1.384 . S
N821 C813 1.427 . S
N821 C819 1.384 . S
H822 C828 0.930 . S
H823 C832 0.930 . S
H824 C837 0.929 . S
H825 C835 0.929 . S
H826 C830 0.929 . S
H827 C836 0.929 . S
C828 H822 0.930 . S
C828 C829 1.367 . S
C828 C836 1.378 . S
C829 C828 1.367 . S
C829 C837 1.433 . S
C830 H826 0.929 . S
C830 C832 1.378 . S
C830 C834 1.350 . S
C831 C834 1.463 . S
C831 C836 1.350 . S
C831 N839 1.427 . S
C832 H823 0.930 . S
C832 C830 1.378 . S
C832 C833 1.367 . S
C833 C832 1.367 . S
C833 C835 1.433 . S
C834 C830 1.350 . S
C834 C831 1.463 . S
C834 N838 1.427 . S
C835 H825 0.929 . S
C835 C833 1.433 . S
C835 N838 1.384 . S
C836 H827 0.929 . S
C836 C828 1.378 . S
C836 C831 1.350 . S
C837 H824 0.929 . S
C837 C829 1.433 . S
C837 N839 1.384 . S
N838 C834 1.427 . S
N838 C835 1.384 . S
N839 C831 1.427 . S
N839 C837 1.384 . S
H840 C846 0.930 . S
H841 C850 0.930 . S
H842 C855 0.929 . S
H843 C853 0.929 . S
H844 C848 0.929 . S
H845 C854 0.929 . S
C846 H840 0.930 . S
C846 C847 1.367 1_455 S
C846 C854 1.378 . S
C847 C846 1.367 1_655 S
C847 C855 1.433 . S
C848 H844 0.929 . S
C848 C850 1.378 . S
C848 C852 1.350 . S
C849 C852 1.463 . S
C849 C854 1.350 1_655 S
C849 N857 1.427 . S
C850 H841 0.930 . S
C850 C848 1.378 . S
C850 C851 1.367 . S
C851 C850 1.367 . S
C851 C853 1.433 1_655 S
C852 C848 1.350 . S
C852 C849 1.463 . S
C852 N856 1.427 1_655 S
C853 H843 0.929 . S
C853 C851 1.433 1_455 S
C853 N856 1.384 . S
C854 H845 0.929 . S
C854 C846 1.378 . S
C854 C849 1.350 1_455 S
C855 H842 0.929 . S
C855 C847 1.433 . S
C855 N857 1.384 . S
N856 C852 1.427 1_455 S
N856 C853 1.384 . S
N857 C849 1.427 . S
N857 C855 1.384 . S
H858 C864 0.930 . S
H859 C868 0.930 1_545 S
H860 C873 0.929 . S
H861 C871 0.929 . S
H862 C866 0.929 1_545 S
H863 C872 0.929 . S
C864 H858 0.930 . S
C864 C865 1.367 . S
C864 C872 1.378 . S
C865 C864 1.367 . S
C865 C873 1.433 1_565 S
C866 H862 0.929 1_565 S
C866 C868 1.378 . S
C866 C870 1.350 . S
C867 C870 1.463 . S
C867 C872 1.350 . S
C867 N875 1.427 1_565 S
C868 H859 0.930 1_565 S
C868 C866 1.378 . S
C868 C869 1.367 . S
C869 C868 1.367 . S
C869 C871 1.433 . S
C870 C866 1.350 . S
C870 C867 1.463 . S
C870 N874 1.427 . S
C871 H861 0.929 . S
C871 C869 1.433 . S
C871 N874 1.384 . S
C872 H863 0.929 . S
C872 C864 1.378 . S
C872 C867 1.350 . S
C873 H860 0.929 . S
C873 C865 1.433 1_545 S
C873 N875 1.384 . S
N874 C870 1.427 . S
N874 C871 1.384 . S
N875 C867 1.427 1_545 S
N875 C873 1.384 . S
H876 C882 0.930 . S
H877 C886 0.930 . S
H878 C891 0.929 . S
H879 C889 0.929 . S
H880 C884 0.929 . S
H881 C890 0.929 . S
C882 H876 0.930 . S
C882 C883 1.367 . S
C882 C890 1.378 . S
C883 C882 1.367 . S
C883 C891 1.433 . S
C884 H880 0.929 . S
C884 C886 1.378 . S
C884 C888 1.350 . S
C885 C888 1.463 . S
C885 C890 1.350 . S
C885 N893 1.427 . S
C886 H877 0.930 . S
C886 C884 1.378 . S
C886 C887 1.367 . S
C887 C886 1.367 . S
C887 C889 1.433 . S
C888 C884 1.350 . S
C888 C885 1.463 . S
C888 N892 1.427 . S
C889 H879 0.929 . S
C889 C887 1.433 . S
C889 N892 1.384 . S
C890 H881 0.929 . S
C890 C882 1.378 . S
C890 C885 1.350 . S
C891 H878 0.929 . S
C891 C883 1.433 . S
C891 N893 1.384 . S
N892 C888 1.427 . S
N892 C889 1.384 . S
N893 C885 1.427 . S
N893 C891 1.384 . S
H894 C900 0.930 . S
H895 C904 0.930 . S
H896 C909 0.929 . S
H897 C907 0.929 . S
H898 C902 0.929 . S
H899 C908 0.929 . S
C900 H894 0.930 . S
C900 C901 1.367 . S
C900 C908 1.378 . S
C901 C900 1.367 . S
C901 C909 1.433 . S
C902 H898 0.929 . S
C902 C904 1.378 . S
C902 C906 1.350 . S
C903 C906 1.463 . S
C903 C908 1.350 . S
C903 N911 1.427 . S
C904 H895 0.930 . S
C904 C902 1.378 . S
C904 C905 1.367 . S
C905 C904 1.367 . S
C905 C907 1.433 . S
C906 C902 1.350 . S
C906 C903 1.463 . S
C906 N910 1.427 . S
C907 H897 0.929 . S
C907 C905 1.433 . S
C907 N910 1.384 . S
C908 H899 0.929 . S
C908 C900 1.378 . S
C908 C903 1.350 . S
C909 H896 0.929 . S
C909 C901 1.433 . S
C909 N911 1.384 . S
N910 C906 1.427 . S
N910 C907 1.384 . S
N911 C903 1.427 . S
N911 C909 1.384 . S
C487 C255 2.264 . S
C491 C329 2.460 1_545 S
C509 C369 2.463 . S
C505 C295 2.258 . S
C527 C409 2.464 . S
C523 C175 2.264 . S
C545 C449 2.460 1_455 S
C541 C215 2.252 . S
C563 C338 2.460 1_565 S
C559 C95 2.255 1_565 S
C577 C135 2.267 . S
C581 C378 2.468 . S
C595 C15 2.262 . S
C599 C418 2.467 . S
C613 C55 2.262 . S
C617 C458 2.463 1_655 S
C635 C335 0.470 . S
C631 C221 0.432 . S
C653 C375 0.431 . S
C649 C261 0.425 . S
C671 C415 0.468 . S
C667 C301 0.432 . S
C685 C181 0.436 . S
C689 C455 0.457 . S
C703 C61 0.548 1_655 S
C707 C326 0.469 . S
C725 C366 0.444 . S
C721 C101 0.522 1_565 S
C743 C406 0.445 . S
C739 C141 0.531 . S
C757 C21 0.544 . S
C761 C446 0.475 . S
C775 C202 3.157 . S
C779 C339 3.499 . S
C793 C242 3.148 . S
C797 C379 3.500 . S
C815 C419 3.502 . S
C811 C282 3.144 . S
C833 C459 3.508 . S
C829 C162 3.145 . S
C847 C42 3.176 1_655 S
C851 C330 3.517 . S
C869 C370 3.504 . S
C865 C82 3.174 1_565 S
C887 C410 3.499 . S
C883 C122 3.167 . S
C901 C2 3.176 . S
C905 C450 3.513 . S
