# Generated by pormake.
# Topology ssa, (4,4)-cn, num edge types: 1
# Building blocks:
#     Node 0, Type 0, BuildingBlock: NAWXER_clean_sbu_0, # of connection points: 4
#     Node 1, Type 0, BuildingBlock: NAWXER_clean_sbu_0, # of connection points: 4
#     Node 2, Type 0, BuildingBlock: NAWXER_clean_sbu_0, # of connection points: 4
#     Node 3, Type 0, BuildingBlock: NAWXER_clean_sbu_0, # of connection points: 4
#     Node 4, Type 0, BuildingBlock: NAWXER_clean_sbu_0, # of connection points: 4
#     Node 5, Type 0, BuildingBlock: NAWXER_clean_sbu_0, # of connection points: 4
#     Node 6, Type 1, BuildingBlock: MUDLON_clean_sbu_0, # of connection points: 4
#     Node 7, Type 1, BuildingBlock: MUDLON_clean_sbu_0, # of connection points: 4
#     Node 8, Type 1, BuildingBlock: MUDLON_clean_sbu_0, # of connection points: 4
#     Node 9, Type 1, BuildingBlock: MUDLON_clean_sbu_0, # of connection points: 4
#     Node 10, Type 1, BuildingBlock: MUDLON_clean_sbu_0, # of connection points: 4
#     Node 11, Type 1, BuildingBlock: MUDLON_clean_sbu_0, # of connection points: 4
#     Edge 12, Type (0, 1), BuildingBlock: UVAHIK_clean_linker_0, # of connection points: 2
#     Edge 13, Type (0, 1), BuildingBlock: UVAHIK_clean_linker_0, # of connection points: 2
#     Edge 14, Type (0, 1), BuildingBlock: UVAHIK_clean_linker_0, # of connection points: 2
#     Edge 15, Type (0, 1), BuildingBlock: UVAHIK_clean_linker_0, # of connection points: 2
#     Edge 16, Type (0, 1), BuildingBlock: UVAHIK_clean_linker_0, # of connection points: 2
#     Edge 17, Type (0, 1), BuildingBlock: UVAHIK_clean_linker_0, # of connection points: 2
#     Edge 18, Type (0, 1), BuildingBlock: UVAHIK_clean_linker_0, # of connection points: 2
#     Edge 19, Type (0, 1), BuildingBlock: UVAHIK_clean_linker_0, # of connection points: 2
#     Edge 20, Type (0, 1), BuildingBlock: UVAHIK_clean_linker_0, # of connection points: 2
#     Edge 21, Type (0, 1), BuildingBlock: UVAHIK_clean_linker_0, # of connection points: 2
#     Edge 22, Type (0, 1), BuildingBlock: UVAHIK_clean_linker_0, # of connection points: 2
#     Edge 23, Type (0, 1), BuildingBlock: UVAHIK_clean_linker_0, # of connection points: 2
#     Edge 24, Type (0, 1), BuildingBlock: UVAHIK_clean_linker_0, # of connection points: 2
#     Edge 25, Type (0, 1), BuildingBlock: UVAHIK_clean_linker_0, # of connection points: 2
#     Edge 26, Type (0, 1), BuildingBlock: UVAHIK_clean_linker_0, # of connection points: 2
#     Edge 27, Type (0, 1), BuildingBlock: UVAHIK_clean_linker_0, # of connection points: 2
#     Edge 28, Type (0, 1), BuildingBlock: UVAHIK_clean_linker_0, # of connection points: 2
#     Edge 29, Type (0, 1), BuildingBlock: UVAHIK_clean_linker_0, # of connection points: 2
#     Edge 30, Type (0, 1), BuildingBlock: UVAHIK_clean_linker_0, # of connection points: 2
#     Edge 31, Type (0, 1), BuildingBlock: UVAHIK_clean_linker_0, # of connection points: 2
#     Edge 32, Type (0, 1), BuildingBlock: UVAHIK_clean_linker_0, # of connection points: 2
#     Edge 33, Type (0, 1), BuildingBlock: UVAHIK_clean_linker_0, # of connection points: 2
#     Edge 34, Type (0, 1), BuildingBlock: UVAHIK_clean_linker_0, # of connection points: 2
#     Edge 35, Type (0, 1), BuildingBlock: UVAHIK_clean_linker_0, # of connection points: 2
# Relax obj value: 0.034
# Max RMSD: 0.048
# Mean RMSD: 0.037
data_MOF--net-ssa--node1-NAWXER_clean_sbu_0--node2-MUDLON_clean_sbu_0--edge1-UVAHIK_clean_linker_0
_symmetry_space_group_name_H-M    P1
_symmetry_Int_Tables_number       1
_symmetry_cell_setting            triclinic
loop_
_symmetry_equiv_pos_as_xyz
'x, y, z'
_cell_length_a     54.955626
_cell_length_b     55.059263
_cell_length_c     51.049304
_cell_angle_alpha  90.278838
_cell_angle_beta   90.59514
_cell_angle_gamma 120.06927
loop_
_atom_site_label
_atom_site_type_symbol
_atom_site_fract_x
_atom_site_fract_y
_atom_site_fract_z
_atom_type_partial_charge
C0 C 0.05478 0.568 0.02467 0.0
C1 C 0.02202 0.48967 0.96206 0.0
O2 O 0.03103 0.54677 0.03067 0.0
Zn3 Zn 0.00218 0.50547 0.0155 0.0
O4 O 0.06707 0.56692 0.00409 0.0
Zn5 Zn 0.03908 0.52917 0.99311 0.0
O6 O 0.00397 0.5341 0.98212 0.0
O7 O 0.96871 0.50796 0.00807 0.0
O8 O 0.04467 0.51323 0.96129 0.0
O9 O 0.00506 0.48456 0.98104 0.0
O10 O 1.00189 0.48141 0.04341 0.0
O11 O 0.04269 0.50422 0.0236 0.0
C12 C 0.97854 0.52502 0.98915 0.0
C13 C 0.02726 0.48712 0.04131 0.0
C14 C 0.47699 0.01218 0.55245 0.0
C15 C 0.51543 0.96539 0.49927 0.0
O16 O 0.47348 0.98772 0.55546 0.0
Zn17 Zn 0.49619 0.98863 0.52635 0.0
O18 O 0.49241 0.02748 0.53373 0.0
Zn19 Zn 0.51691 0.02448 0.50231 0.0
O20 O 0.49821 0.02815 0.47138 0.0
O21 O 0.47191 0.9894 0.49334 0.0
O22 O 0.52317 0.99027 0.49139 0.0
O23 O 0.49964 0.95595 0.51906 0.0
O24 O 0.53777 0.01953 0.53949 0.0
O25 O 0.55471 0.05416 0.51122 0.0
C26 C 0.47498 0.00543 0.47399 0.0
C27 C 0.55778 0.04344 0.53211 0.0
C28 C 0.47113 0.44774 0.99497 0.0
C29 C 0.52843 0.53064 0.05041 0.0
O30 O 0.47221 0.47011 0.98632 0.0
Zn31 Zn 0.49184 0.51401 0.99694 0.0
O32 O 0.48424 0.44894 0.01607 0.0
Zn33 Zn 0.50013 0.48879 0.02282 0.0
O34 O 0.46357 0.49176 0.03135 0.0
O35 O 0.46021 0.51965 1.00236 0.0
O36 O 0.52344 0.50572 0.05391 0.0
O37 O 0.51827 0.53613 0.03004 0.0
O38 O 0.51555 0.53138 0.96725 0.0
O39 O 0.52863 0.50627 0.99081 0.0
C40 C 0.45084 0.50421 0.0224 0.0
C41 C 0.532 0.52172 0.9709 0.0
C42 C 0.04964 0.58144 0.49114 0.0
C43 C 0.98585 0.49318 0.53365 0.0
O44 O 0.06053 0.57751 0.51188 0.0
Zn45 Zn 0.04857 0.54612 0.5415 0.0
O46 O 0.02451 0.56354 0.48459 0.0
Zn47 Zn 0.01731 0.53716 0.5123 0.0
O48 O 0.01426 0.5575 0.54688 0.0
O49 O 0.04904 0.56494 0.57378 0.0
O50 O 0.98128 0.50302 0.51288 0.0
O51 O 0.00981 0.50676 0.54544 0.0
O52 O 0.07642 0.53495 0.53688 0.0
O53 O 0.04615 0.52269 0.50378 0.0
C54 C 0.02708 0.56641 0.56899 0.0
C55 C 0.06776 0.52346 0.51447 0.0
C56 C 0.55775 0.98135 0.03068 0.0
C57 C 0.51988 0.03313 0.98512 0.0
O58 O 0.56467 0.005 0.04166 0.0
Zn59 Zn 0.55751 0.03955 0.03606 0.0
O60 O 0.54322 0.97417 0.00957 0.0
Zn61 Zn 0.53892 0.00685 0.00718 0.0
O62 O 0.58025 0.04029 0.99844 0.0
O63 O 0.59454 0.07163 0.03063 0.0
O64 O 0.51705 0.00954 0.97852 0.0
O65 O 0.53384 0.04562 0.00598 0.0
O66 O 0.53736 0.0375 0.06768 0.0
O67 O 0.51385 0.00122 0.04095 0.0
C68 C 0.59886 0.0638 0.00856 0.0
C69 C 0.51561 0.01388 0.06265 0.0
C70 C 0.55066 0.53186 0.53676 0.0
C71 C 0.46367 0.47715 0.48503 0.0
O72 O 0.52931 0.53153 0.54706 0.0
Zn73 Zn 0.48516 0.51381 0.53856 0.0
O74 O 0.54762 0.5193 0.51496 0.0
Zn75 Zn 0.5075 0.50452 0.51028 0.0
O76 O 0.50429 0.54107 0.50257 0.0
O77 O 0.47993 0.54575 0.53435 0.0
O78 O 0.48807 0.48145 0.47964 0.0
O79 O 0.46017 0.48762 0.5062 0.0
O80 O 0.46881 0.49015 0.56845 0.0
O81 O 0.49018 0.47521 0.5419 0.0
C82 C 0.49293 0.55417 0.5129 0.0
C83 C 0.47624 0.47233 0.56279 0.0
Mg84 Mg 0.22469 0.44682 0.26697 0.0
C85 C 0.1846 0.41801 0.21969 0.0
O86 O 0.20682 0.41918 0.20907 0.0
C87 C 0.23821 0.42062 0.3133 0.0
O88 O 0.22225 0.42849 0.32535 0.0
C89 C 0.19158 0.45922 0.30362 0.0
O90 O 0.17297 0.43604 0.29158 0.0
O91 O 0.2171 0.4708 0.29657 0.0
O92 O 0.18577 0.42508 0.24363 0.0
O93 O 0.25682 0.47149 0.23859 0.0
C94 C 0.26831 0.45832 0.22915 0.0
O95 O 0.26132 0.4336 0.23871 0.0
O96 O 0.24035 0.42294 0.28851 0.0
Mg97 Mg 0.80396 0.25467 0.75242 0.0
C98 C 0.767 0.19847 0.72567 0.0
O99 O 0.75258 0.19479 0.74708 0.0
C100 C 0.86651 0.29379 0.76227 0.0
O101 O 0.86404 0.30479 0.74034 0.0
C102 C 0.77922 0.22212 0.79925 0.0
O103 O 0.79792 0.21543 0.79169 0.0
O104 O 0.77597 0.23969 0.78575 0.0
O105 O 0.79079 0.22071 0.72349 0.0
O106 O 0.80563 0.28951 0.73097 0.0
C107 C 0.79534 0.28516 0.70783 0.0
O108 O 0.77947 0.25918 0.69952 0.0
O109 O 0.84555 0.27119 0.77025 0.0
Mg110 Mg 0.54721 0.7586 0.2694 0.0
C111 C 0.55721 0.80554 0.23541 0.0
O112 O 0.57863 0.81673 0.25196 0.0
C113 C 0.50723 0.7003 0.28973 0.0
O114 O 0.52337 0.69374 0.27621 0.0
C115 C 0.5469 0.78866 0.31641 0.0
O116 O 0.52038 0.77234 0.30977 0.0
O117 O 0.56579 0.78858 0.30219 0.0
O118 O 0.53853 0.77991 0.2381 0.0
O119 O 0.57087 0.73994 0.25316 0.0
C120 C 0.57914 0.74487 0.22958 0.0
O121 O 0.57699 0.76436 0.21679 0.0
O122 O 0.5101 0.72453 0.28713 0.0
Mg123 Mg 0.78273 0.56469 0.76309 0.0
C124 C 0.77683 0.58853 0.7118 0.0
O125 O 0.79294 0.57849 0.70444 0.0
C126 C 0.80494 0.58124 0.81848 0.0
O127 O 0.77783 0.56738 0.82296 0.0
C128 C 0.72063 0.53306 0.77356 0.0
O129 O 0.72022 0.54441 0.75111 0.0
O130 O 0.74363 0.53535 0.78173 0.0
O131 O 0.77189 0.58874 0.7361 0.0
O132 O 0.80189 0.54568 0.7401 0.0
C133 C 0.82146 0.54252 0.74996 0.0
O134 O 0.82652 0.54632 0.77529 0.0
O135 O 0.81311 0.58666 0.79488 0.0
Mg136 Mg 0.24564 0.81387 0.25328 0.0
C137 C 0.19182 0.78249 0.22146 0.0
O138 O 0.18163 0.77446 0.24501 0.0
C139 C 0.2503 0.85483 0.29592 0.0
O140 O 0.23082 0.83175 0.30679 0.0
C141 C 0.23674 0.77927 0.30342 0.0
O142 O 0.26212 0.79943 0.31003 0.0
O143 O 0.22639 0.77999 0.28126 0.0
O144 O 0.21758 0.80108 0.21924 0.0
O145 O 0.28533 0.82141 0.23776 0.0
C146 C 0.30822 0.84041 0.24813 0.0
O147 O 0.3074 0.85115 0.27092 0.0
O148 O 0.25696 0.85373 0.27235 0.0
Mg149 Mg 0.42887 0.20994 0.77528 0.0
C150 C 0.42563 0.17564 0.73107 0.0
O151 O 0.45025 0.19871 0.73012 0.0
C152 C 0.3965 0.23293 0.80338 0.0
O153 O 0.39657 0.24239 0.7798 0.0
C154 C 0.46653 0.21039 0.81904 0.0
O155 O 0.45659 0.2247 0.831 0.0
O156 O 0.46058 0.20411 0.79494 0.0
O157 O 0.40895 0.17322 0.74932 0.0
O158 O 0.44581 0.24743 0.75139 0.0
C159 C 0.43285 0.24579 0.73008 0.0
O160 O 0.41069 0.22179 0.72325 0.0
O161 O 0.40531 0.21571 0.80641 0.0
C162 C 0.02261 0.45252 0.07595 0.0
C163 C 0.03954 0.47488 0.05935 0.0
C164 C 0.03471 0.44131 0.09283 0.0
C165 C 0.10158 0.44026 0.10434 0.0
H166 H 0.07247 0.41718 0.17417 0.0
C167 C 0.15819 0.4049 0.17674 0.0
C168 C 0.16104 0.41475 0.20266 0.0
C169 C 0.13918 0.40643 0.1593 0.0
C170 C 0.08103 0.42368 0.15479 0.0
H171 H 0.08255 0.50327 0.04789 0.0
H172 H 0.10354 0.48456 0.07761 0.0
H173 H 0.04856 0.4325 0.14378 0.0
H174 H 0.14506 0.43265 0.23094 0.0
H175 H 0.11283 0.43626 0.20051 0.0
H176 H 0.135 0.43326 0.11568 0.0
C177 C 0.08086 0.47491 0.07716 0.0
C178 C 0.06702 0.43212 0.13717 0.0
C179 C 0.06879 0.48586 0.06017 0.0
C180 C 0.14336 0.42475 0.21112 0.0
C181 C 0.12469 0.42672 0.19359 0.0
C182 C 0.11575 0.43219 0.122 0.0
C183 C 0.06406 0.45237 0.09366 0.0
C184 C 0.07741 0.44104 0.11183 0.0
C185 C 0.12288 0.41833 0.1672 0.0
C186 C 0.10597 0.42417 0.14766 0.0
H187 H 0.99999 0.44352 0.07575 0.0
H188 H 0.02102 0.42379 0.10502 0.0
H189 H 0.10994 0.44632 0.08484 0.0
H190 H 0.17131 0.39683 0.16966 0.0
H191 H 0.13787 0.39896 0.13939 0.0
C192 C 0.60697 0.0837 0.54023 0.0
C193 C 0.58374 0.05846 0.54848 0.0
C194 C 0.63098 0.09803 0.55633 0.0
C195 C 0.66606 0.08897 0.61569 0.0
H196 H 0.70122 0.1699 0.62148 0.0
C197 C 0.72914 0.15327 0.70635 0.0
C198 C 0.75303 0.17977 0.70275 0.0
C199 C 0.71279 0.13744 0.68489 0.0
C200 C 0.69197 0.14735 0.61977 0.0
H201 H 0.56767 0.02848 0.58014 0.0
H202 H 0.60888 0.05362 0.60825 0.0
H203 H 0.66409 0.14457 0.58884 0.0
H204 H 0.77924 0.20991 0.67368 0.0
H205 H 0.75039 0.18229 0.63612 0.0
H206 H 0.69315 0.09177 0.64751 0.0
C207 C 0.60903 0.06214 0.58914 0.0
C208 C 0.67066 0.13278 0.60101 0.0
C209 C 0.5852 0.04778 0.57304 0.0
C210 C 0.76101 0.18951 0.6771 0.0
C211 C 0.74438 0.17382 0.65561 0.0
C212 C 0.68716 0.10351 0.63459 0.0
C213 C 0.63224 0.08752 0.5811 0.0
C214 C 0.65699 0.10332 0.59909 0.0
C215 C 0.71974 0.1479 0.65934 0.0
C216 C 0.69998 0.13281 0.63718 0.0
H217 H 0.6066 0.09245 0.52137 0.0
H218 H 0.64855 0.11733 0.54933 0.0
H219 H 0.65652 0.06636 0.6144 0.0
H220 H 0.72245 0.14519 0.72586 0.0
H221 H 0.69384 0.11765 0.68845 0.0
C222 C 0.54675 0.54626 0.09642 0.0
C223 C 0.54376 0.55295 0.07048 0.0
C224 C 0.55769 0.56715 0.116 0.0
C225 C 0.59707 0.64439 0.12721 0.0
H226 H 0.5502 0.62753 0.18831 0.0
C227 C 0.5922 0.72971 0.18832 0.0
C228 C 0.58562 0.72541 0.21505 0.0
C229 C 0.59346 0.70915 0.17321 0.0
C230 C 0.56399 0.63254 0.17173 0.0
H231 H 0.55138 0.58704 0.0445 0.0
H232 H 0.57059 0.62331 0.07843 0.0
H233 H 0.5411 0.59029 0.15705 0.0
H234 H 0.57711 0.6968 0.24725 0.0
H235 H 0.57983 0.66108 0.22096 0.0
H236 H 0.61958 0.68677 0.14154 0.0
C237 C 0.5645 0.602 0.08375 0.0
C238 C 0.55871 0.61112 0.15375 0.0
C239 C 0.5533 0.58114 0.0643 0.0
C240 C 0.58209 0.70076 0.22669 0.0
C241 C 0.58341 0.68016 0.21154 0.0
C242 C 0.60248 0.66578 0.14527 0.0
C243 C 0.56622 0.59519 0.10994 0.0
C244 C 0.57467 0.61696 0.1309 0.0
C245 C 0.58828 0.68373 0.18443 0.0
C246 C 0.58549 0.66032 0.16739 0.0
H247 H 0.53954 0.52474 0.10184 0.0
H248 H 0.55896 0.56129 0.13597 0.0
H249 H 0.61002 0.64947 0.10999 0.0
H250 H 0.59511 0.74845 0.17869 0.0
H251 H 0.59699 0.71264 0.1524 0.0
C252 C 0.99032 0.57718 0.58341 0.0
C253 C 0.01324 0.5736 0.58987 0.0
C254 C 0.97279 0.57733 0.60287 0.0
C255 C 0.94852 0.54856 0.6682 0.0
H256 H 0.90894 0.59016 0.66313 0.0
C257 C 0.86605 0.54152 0.74313 0.0
C258 C 0.84215 0.5412 0.73254 0.0
C259 C 0.88809 0.54544 0.72693 0.0
C260 C 0.91968 0.57824 0.66467 0.0
H261 H 0.03697 0.56949 0.62203 0.0
H262 H 0.00648 0.57023 0.6562 0.0
H263 H 0.94791 0.60133 0.63397 0.0
H264 H 0.82189 0.54291 0.69642 0.0
H265 H 0.86023 0.54959 0.66827 0.0
H266 H 0.92008 0.52542 0.69891 0.0
C267 C 1.00183 0.57238 0.63596 0.0
C268 C 0.94207 0.5847 0.64803 0.0
C269 C 0.01949 0.5723 0.61642 0.0
C270 C 0.84005 0.54322 0.70526 0.0
C271 C 0.86213 0.54732 0.68914 0.0
C272 C 0.9262 0.54222 0.68499 0.0
C273 C 0.97774 0.57394 0.6293 0.0
C274 C 0.95643 0.56959 0.64923 0.0
C275 C 0.8867 0.54927 0.69989 0.0
C276 C 0.9112 0.55663 0.68302 0.0
H277 H 0.98496 0.57831 0.56314 0.0
H278 H 0.95435 0.57838 0.59695 0.0
H279 H 0.95884 0.53622 0.66941 0.0
H280 H 0.86832 0.53996 0.76406 0.0
H281 H 0.90676 0.54681 0.73575 0.0
C282 C 0.49765 0.00863 0.10863 0.0
C283 C 0.49356 0.99924 0.08243 0.0
C284 C 0.47825 0.9924 0.12776 0.0
C285 C 0.40546 0.93308 0.13597 0.0
H286 H 0.43418 0.92251 0.20208 0.0
C287 C 0.33302 0.84664 0.2057 0.0
C288 C 0.33362 0.85512 0.23183 0.0
C289 C 0.35432 0.86383 0.18858 0.0
C290 C 0.42587 0.9254 0.18376 0.0
H291 H 0.46532 0.96597 0.05565 0.0
H292 H 0.4319 0.93785 0.08877 0.0
H293 H 0.46683 0.95527 0.17009 0.0
H294 H 0.35833 0.88724 0.26099 0.0
H295 H 0.39555 0.91717 0.23104 0.0
H296 H 0.36461 0.90309 0.14942 0.0
C297 C 0.44986 0.95777 0.09465 0.0
C298 C 0.44453 0.94428 0.16551 0.0
C299 C 0.46917 0.97389 0.07563 0.0
C300 C 0.35714 0.88011 0.24095 0.0
C301 C 0.37852 0.89729 0.2238 0.0
C302 C 0.3869 0.91417 0.1541 0.0
C303 C 0.45435 0.96656 0.12102 0.0
C304 C 0.43454 0.94813 0.14129 0.0
C305 C 0.37676 0.88982 0.1972 0.0
C306 C 0.39689 0.90989 0.17809 0.0
H307 H 0.51627 0.02803 0.11451 0.0
H308 H 0.48212 0.99993 0.14786 0.0
H309 H 0.39698 0.93593 0.11774 0.0
H310 H 0.31536 0.82741 0.19807 0.0
H311 H 0.35274 0.85722 0.16831 0.0
C312 C 0.46774 0.45182 0.6077 0.0
C313 C 0.47038 0.44911 0.58067 0.0
C314 C 0.46501 0.43086 0.62481 0.0
C315 C 0.47596 0.36918 0.62744 0.0
H316 H 0.43187 0.35226 0.69052 0.0
C317 C 0.43501 0.26732 0.68678 0.0
C318 C 0.44124 0.27068 0.71375 0.0
C319 C 0.44103 0.29049 0.67138 0.0
C320 C 0.44446 0.35703 0.67308 0.0
H321 H 0.47089 0.4219 0.55016 0.0
H322 H 0.46457 0.38472 0.57964 0.0
H323 H 0.43568 0.38917 0.6616 0.0
H324 H 0.4587 0.30077 0.74584 0.0
H325 H 0.46845 0.34141 0.71885 0.0
H326 H 0.4834 0.3359 0.63846 0.0
C327 C 0.46586 0.40346 0.58795 0.0
C328 C 0.44677 0.37822 0.65652 0.0
C329 C 0.46919 0.42465 0.57096 0.0
C330 C 0.45389 0.29769 0.72504 0.0
C331 C 0.4593 0.32083 0.70971 0.0
C332 C 0.47316 0.34765 0.64372 0.0
C333 C 0.46432 0.40649 0.61519 0.0
C334 C 0.46238 0.38445 0.63334 0.0
C335 C 0.4528 0.31733 0.68279 0.0
C336 C 0.4573 0.34133 0.66658 0.0
H337 H 0.46887 0.47062 0.61572 0.0
H338 H 0.46425 0.43419 0.64563 0.0
H339 H 0.48882 0.37379 0.61023 0.0
H340 H 0.4253 0.24672 0.6776 0.0
H341 H 0.43574 0.28732 0.65067 0.0
C342 C 0.51288 0.91917 0.49059 0.0
C343 C 0.52409 0.94767 0.48461 0.0
C344 C 0.51956 0.90212 0.47543 0.0
C345 C 0.56961 0.90303 0.42653 0.0
H346 H 0.50592 0.83183 0.40453 0.0
C347 C 0.57161 0.83572 0.33891 0.0
C348 C 0.55344 0.8066 0.33992 0.0
C349 C 0.57202 0.85311 0.35934 0.0
C350 C 0.52415 0.85133 0.41084 0.0
H351 H 0.55203 0.98082 0.45857 0.0
H352 H 0.56355 0.95106 0.43216 0.0
H353 H 0.49905 0.86151 0.4352 0.0
H354 H 0.52333 0.77249 0.36365 0.0
H355 H 0.52513 0.80239 0.39974 0.0
H356 H 0.59467 0.89283 0.40183 0.0
C357 C 0.5497 0.94191 0.44863 0.0
C358 C 0.52013 0.86843 0.42845 0.0
C359 C 0.54291 0.95892 0.46369 0.0
C360 C 0.53743 0.79495 0.36241 0.0
C361 C 0.53822 0.81215 0.38293 0.0
C362 C 0.5737 0.88577 0.40895 0.0
C363 C 0.53773 0.9132 0.45403 0.0
C364 C 0.54273 0.89455 0.43642 0.0
C365 C 0.55448 0.84153 0.38117 0.0
C366 C 0.55096 0.8597 0.4008 0.0
H367 H 0.49843 0.90984 0.50662 0.0
H368 H 0.51025 0.88014 0.4803 0.0
H369 H 0.58751 0.92298 0.43243 0.0
H370 H 0.58388 0.84515 0.32157 0.0
H371 H 0.58476 0.87563 0.35723 0.0
C372 C 0.55222 0.53527 0.92595 0.0
C373 C 0.55321 0.52571 0.9512 0.0
C374 C 0.57 0.53547 0.90642 0.0
C375 C 0.63543 0.53387 0.89566 0.0
H376 H 0.60177 0.50184 0.82787 0.0
C377 C 0.69875 0.51556 0.81732 0.0
C378 C 0.69707 0.52439 0.79191 0.0
C379 C 0.67946 0.51289 0.83631 0.0
C380 C 0.61156 0.51105 0.84661 0.0
H381 H 0.57446 0.51003 0.97606 0.0
H382 H 0.60553 0.51062 0.94213 0.0
H383 H 0.57309 0.50576 0.862 0.0
H384 H 0.67259 0.53544 0.76607 0.0
H385 H 0.63926 0.53115 0.7992 0.0
H386 H 0.67396 0.53958 0.88032 0.0
C387 C 0.59102 0.5179 0.93738 0.0
C388 C 0.59514 0.51336 0.86612 0.0
C389 C 0.57313 0.51749 0.9568 0.0
C390 C 0.67454 0.52863 0.78545 0.0
C391 C 0.65534 0.5261 0.80448 0.0
C392 C 0.65187 0.5317 0.87614 0.0
C393 C 0.58928 0.52638 0.91185 0.0
C394 C 0.60691 0.52477 0.89086 0.0
C395 C 0.65812 0.5191 0.83036 0.0
C396 C 0.64014 0.52022 0.85137 0.0
H397 H 0.53707 0.54169 0.92099 0.0
H398 H 0.56846 0.54246 0.887 0.0
H399 H 0.64516 0.54304 0.91443 0.0
H400 H 0.71572 0.51191 0.8229 0.0
H401 H 0.68177 0.50676 0.85589 0.0
C402 C 0.09508 0.62495 0.48137 0.0
C403 C 0.06742 0.60508 0.4737 0.0
C404 C 0.11326 0.6451 0.4638 0.0
C405 C 0.11587 0.67904 0.40043 0.0
H406 H 0.19201 0.6919 0.39892 0.0
C407 C 0.19078 0.73785 0.31601 0.0
C408 C 0.21865 0.75802 0.32275 0.0
C409 C 0.1727 0.71946 0.33476 0.0
C410 C 0.17093 0.68878 0.39927 0.0
H411 H 0.03688 0.59151 0.44179 0.0
H412 H 0.06868 0.62652 0.41103 0.0
H413 H 0.15933 0.66048 0.43139 0.0
H414 H 0.24957 0.77409 0.35441 0.0
H415 H 0.21795 0.74187 0.38719 0.0
H416 H 0.12743 0.70713 0.3681 0.0
C417 C 0.07625 0.6267 0.43074 0.0
C418 C 0.15219 0.67082 0.41793 0.0
C419 C 0.05801 0.60657 0.44837 0.0
C420 C 0.22826 0.75878 0.34854 0.0
C421 C 0.21015 0.74028 0.36731 0.0
C422 C 0.13459 0.69694 0.38173 0.0
C423 C 0.10428 0.64584 0.43808 0.0
C424 C 0.1244 0.66566 0.4187 0.0
C425 C 0.18203 0.7207 0.36072 0.0
C426 C 0.1623 0.70193 0.38086 0.0
H427 H 0.10298 0.62453 0.50079 0.0
H428 H 0.13451 0.65989 0.47028 0.0
H429 H 0.09477 0.67587 0.4007 0.0
H430 H 0.18267 0.73658 0.29631 0.0
H431 H 0.15133 0.70428 0.32892 0.0
C432 C 0.50882 0.07125 0.97756 0.0
C433 C 0.51014 0.04805 0.96778 0.0
C434 C 0.50429 0.08847 0.9607 0.0
C435 C 0.48115 0.09375 0.89363 0.0
H436 H 0.5271 0.17369 0.90782 0.0
C437 C 0.48319 0.17572 0.82276 0.0
C438 C 0.47875 0.19632 0.83451 0.0
C439 C 0.48962 0.15869 0.83811 0.0
C440 C 0.51406 0.15144 0.90367 0.0
H441 H 0.50642 0.02393 0.93276 0.0
H442 H 0.4988 0.05429 0.90312 0.0
H443 H 0.53087 0.14043 0.93647 0.0
H444 H 0.47948 0.21644 0.87139 0.0
H445 H 0.49093 0.18685 0.89811 0.0
H446 H 0.46441 0.10491 0.86075 0.0
C447 C 0.50103 0.05901 0.92392 0.0
C448 C 0.51608 0.13234 0.92015 0.0
C449 C 0.50536 0.04158 0.94089 0.0
C450 C 0.48271 0.20073 0.86173 0.0
C451 C 0.48931 0.1838 0.87705 0.0
C452 C 0.47923 0.11289 0.87706 0.0
C453 C 0.50122 0.0831 0.93358 0.0
C454 C 0.49941 0.10325 0.91552 0.0
C455 C 0.49199 0.16205 0.86547 0.0
C456 C 0.49548 0.14192 0.88206 0.0
H457 H 0.51212 0.07662 0.99824 0.0
H458 H 0.50375 0.10638 0.9689 0.0
H459 H 0.46784 0.07152 0.88963 0.0
H460 H 0.48043 0.17182 0.80183 0.0
H461 H 0.49206 0.14241 0.82861 0.0
C462 C 0.44366 0.45668 0.44036 0.0
C463 C 0.4396 0.46209 0.46643 0.0
C464 C 0.42116 0.44548 0.42226 0.0
C465 C 0.34293 0.40977 0.41704 0.0
H466 H 0.35689 0.44826 0.35076 0.0
C467 C 0.25605 0.4136 0.35632 0.0
C468 C 0.25779 0.41495 0.32886 0.0
C469 C 0.27716 0.4132 0.37151 0.0
C470 C 0.35263 0.43683 0.36892 0.0
H471 H 0.40841 0.45877 0.49413 0.0
H472 H 0.36951 0.43942 0.4628 0.0
H473 H 0.39617 0.45875 0.38024 0.0
H474 H 0.28241 0.41524 0.29578 0.0
H475 H 0.31915 0.41427 0.32233 0.0
H476 H 0.29929 0.38846 0.40604 0.0
C477 C 0.38993 0.44363 0.45624 0.0
C478 C 0.37522 0.44288 0.38587 0.0
C479 C 0.41236 0.45494 0.47421 0.0
C480 C 0.28039 0.41426 0.31689 0.0
C481 C 0.3016 0.41395 0.33212 0.0
C482 C 0.32035 0.40371 0.40009 0.0
C483 C 0.39409 0.43921 0.42991 0.0
C484 C 0.37058 0.42994 0.41043 0.0
C485 C 0.30062 0.41416 0.35966 0.0
C486 C 0.32483 0.41767 0.37608 0.0
H487 H 0.46437 0.46197 0.4337 0.0
H488 H 0.42503 0.44209 0.40218 0.0
H489 H 0.33864 0.39903 0.43559 0.0
H490 H 0.23895 0.41407 0.36622 0.0
H491 H 0.27576 0.4136 0.39264 0.0
C492 C 0.99256 0.44072 0.94464 0.0
C493 C 0.01412 0.46852 0.94076 0.0
C494 C 0.98299 0.42114 0.92406 0.0
C495 C 0.97517 0.4173 0.85306 0.0
H496 H 0.95373 0.33925 0.86237 0.0
C497 C 0.9139 0.33584 0.77175 0.0
C498 C 0.89086 0.31055 0.78015 0.0
C499 C 0.93441 0.35418 0.78971 0.0
C500 C 0.95944 0.36092 0.85944 0.0
H501 H 0.04314 0.49735 0.91235 0.0
H502 H 0.02606 0.4631 0.87615 0.0
H503 H 0.97961 0.37342 0.89721 0.0
H504 H 0.87225 0.28397 0.81384 0.0
H505 H 0.90743 0.31605 0.84512 0.0
H506 H 0.95389 0.40482 0.81597 0.0
C507 C 0.01666 0.45654 0.89523 0.0
C508 C 0.97438 0.38052 0.87939 0.0
C509 C 0.02652 0.47609 0.91598 0.0
C510 C 0.88972 0.30325 0.80664 0.0
C511 C 0.91006 0.32169 0.82463 0.0
C512 C 0.96001 0.39769 0.83322 0.0
C513 C 0.99452 0.42895 0.89899 0.0
C514 C 0.98192 0.40882 0.87663 0.0
C515 C 0.93225 0.3478 0.81656 0.0
C516 C 0.95141 0.3691 0.83634 0.0
H517 H 0.98262 0.43416 0.96351 0.0
H518 H 0.96573 0.40016 0.92755 0.0
H519 H 0.98036 0.43888 0.85046 0.0
H520 H 0.91557 0.342 0.75143 0.0
H521 H 0.95153 0.37376 0.78263 0.0
C522 C 0.97142 0.5505 0.95203 0.0
C523 C 0.96098 0.53419 0.97467 0.0
C524 C 0.95502 0.55877 0.93777 0.0
C525 C 0.88106 0.54045 0.92616 0.0
H526 H 0.91584 0.61224 0.89109 0.0
C527 C 0.81505 0.57465 0.86505 0.0
C528 C 0.82496 0.58416 0.83971 0.0
C529 C 0.83231 0.57214 0.88386 0.0
C530 C 0.90584 0.59209 0.9007 0.0
H531 H 0.92511 0.51418 1.00027 0.0
H532 H 0.89657 0.52906 0.9756 0.0
H533 H 0.94418 0.6006 0.91987 0.0
H534 H 0.86151 0.60018 0.81489 0.0
H535 H 0.89169 0.59597 0.84781 0.0
H536 H 0.84277 0.53192 0.90688 0.0
C537 C 0.91735 0.53505 0.96862 0.0
C538 C 0.92208 0.58534 0.91715 0.0
C539 C 0.93376 0.52662 0.98286 0.0
C540 C 0.85318 0.59283 0.8342 0.0
C541 C 0.8705 0.59042 0.8531 0.0
C542 C 0.8648 0.54728 0.90986 0.0
C543 C 0.92772 0.55114 0.94578 0.0
C544 C 0.91001 0.55924 0.92982 0.0
C545 C 0.85998 0.57922 0.87788 0.0
C546 C 0.87705 0.57304 0.89668 0.0
H547 H 0.99223 0.55662 0.94502 0.0
H548 H 0.96359 0.57065 0.92006 0.0
H549 H 0.87106 0.52 0.93519 0.0
H550 H 0.7935 0.56794 0.87007 0.0
H551 H 0.82373 0.56394 0.90292 0.0
C552 C 0.42429 0.97548 0.46131 0.0
C553 C 0.45144 0.997 0.45497 0.0
C554 C 0.40208 0.96638 0.44326 0.0
C555 C 0.38739 0.96037 0.37304 0.0
H556 H 0.31239 0.94103 0.3946 0.0
C557 C 0.2932 0.90245 0.30197 0.0
C558 C 0.26951 0.87927 0.31269 0.0
C559 C 0.31449 0.92254 0.31829 0.0
C560 C 0.33316 0.9462 0.38825 0.0
H561 H 0.47644 0.02615 0.42476 0.0
H562 H 0.43752 0.00983 0.39291 0.0
H563 H 0.35193 0.96529 0.42527 0.0
H564 H 0.24876 0.86022 0.34903 0.0
H565 H 0.28584 0.89479 0.37733 0.0
H566 H 0.36864 0.94017 0.33651 0.0
C567 C 0.43354 1.00014 0.41198 0.0
C568 C 0.35583 0.96017 0.40581 0.0
C569 C 0.45577 0.00953 0.43024 0.0
C570 C 0.26669 0.87777 0.34006 0.0
C571 C 0.28801 0.89775 0.35636 0.0
C572 C 0.3647 0.94619 0.35553 0.0
C573 C 0.40647 0.97835 0.41828 0.0
C574 C 0.38309 0.96685 0.3986 0.0
C575 C 0.31265 0.91988 0.34571 0.0
C576 C 0.33716 0.93833 0.36309 0.0
H577 H 0.42017 0.96543 0.48022 0.0
H578 H 0.38159 0.94933 0.4486 0.0
H579 H 0.4081 0.96497 0.36698 0.0
H580 H 0.29601 0.90439 0.28097 0.0
H581 H 0.33284 0.93963 0.30938 0.0
C582 C 0.43985 0.42 0.9573 0.0
C583 C 0.45622 0.42141 0.97923 0.0
C584 C 0.42816 0.39658 0.94061 0.0
C585 C 0.4114 0.32251 0.93362 0.0
H586 H 0.42024 0.34044 0.85974 0.0
C587 C 0.40299 0.24514 0.85141 0.0
C588 C 0.39329 0.24754 0.82647 0.0
C589 C 0.4057 0.26343 0.87185 0.0
C590 C 0.41704 0.33488 0.88024 0.0
H591 H 0.47213 0.39867 1.00139 0.0
H592 H 0.45194 0.35779 0.97197 0.0
H593 H 0.4346 0.37777 0.89201 0.0
H594 H 0.37645 0.26937 0.80419 0.0
H595 H 0.38044 0.30067 0.83994 0.0
H596 H 0.39426 0.27952 0.92163 0.0
C597 C 0.44795 0.37477 0.96786 0.0
C598 C 0.42536 0.35639 0.89882 0.0
C599 C 0.45962 0.39825 0.98468 0.0
C600 C 0.38429 0.26714 0.82306 0.0
C601 C 0.38682 0.28527 0.84351 0.0
C602 C 0.403 0.30089 0.91495 0.0
C603 C 0.43261 0.37395 0.94528 0.0
C604 C 0.42275 0.35055 0.92575 0.0
C605 C 0.39861 0.28442 0.86786 0.0
C606 C 0.4058 0.30684 0.88799 0.0
H607 H 0.43652 0.4373 0.95264 0.0
H608 H 0.41596 0.39641 0.92374 0.0
H609 H 0.40888 0.31725 0.9542 0.0
H610 H 0.41012 0.23028 0.85476 0.0
H611 H 0.41492 0.26217 0.89028 0.0
C612 C 0.11272 0.52477 0.50324 0.0
C613 C 0.08359 0.51315 0.49938 0.0
C614 C 0.12823 0.51814 0.48596 0.0
C615 C 0.12129 0.4671 0.43505 0.0
H616 H 0.18343 0.53055 0.40131 0.0
C617 C 0.15434 0.45689 0.33246 0.0
C618 C 0.18306 0.46886 0.32704 0.0
C619 C 0.14564 0.46283 0.35594 0.0
C620 C 0.16648 0.51261 0.41085 0.0
H621 H 0.04762 0.48436 0.47548 0.0
H622 H 0.07447 0.47244 0.44578 0.0
H623 H 0.16203 0.5383 0.43995 0.0
H624 H 0.22528 0.49742 0.34158 0.0
H625 H 0.20991 0.508 0.38294 0.0
H626 H 0.12507 0.44146 0.40567 0.0
C627 C 0.08542 0.48674 0.46197 0.0
C628 C 0.15428 0.51702 0.43298 0.0
C629 C 0.07005 0.49367 0.47891 0.0
C630 C 0.20298 0.48793 0.34521 0.0
C631 C 0.19421 0.49392 0.36887 0.0
C632 C 0.13348 0.4627 0.41306 0.0
C633 C 0.11474 0.49939 0.46491 0.0
C634 C 0.13097 0.49437 0.44473 0.0
C635 C 0.16543 0.48086 0.37469 0.0
C636 C 0.15554 0.48548 0.40017 0.0
H637 H 0.1237 0.54 0.51878 0.0
H638 H 0.15081 0.52808 0.48871 0.0
H639 H 0.10366 0.44923 0.44399 0.0
H640 H 0.13842 0.44237 0.31877 0.0
H641 H 0.1233 0.45305 0.35951 0.0
C642 C 0.63316 0.1117 0.99246 0.0
C643 C 0.62325 0.08273 0.99263 0.0
C644 C 0.6519 0.12864 0.97322 0.0
C645 C 0.67411 0.12122 0.9065 0.0
H646 H 0.72994 0.19993 0.91561 0.0
C647 C 0.75928 0.18287 0.83103 0.0
C648 C 0.76157 0.20805 0.82215 0.0
C649 C 0.7427 0.16907 0.85249 0.0
C650 C 0.71423 0.17802 0.91284 0.0
H651 H 0.62677 0.04908 0.97437 0.0
H652 H 0.66063 0.07868 0.94192 0.0
H653 H 0.70248 0.173 0.95319 0.0
H654 H 0.74864 0.23878 0.82909 0.0
H655 H 0.71991 0.21472 0.86734 0.0
H656 H 0.68656 0.12607 0.8664 0.0
C657 C 0.65306 0.0883 0.9557 0.0
C658 C 0.69847 0.16256 0.93431 0.0
C659 C 0.63393 0.07135 0.97452 0.0
C660 C 0.74715 0.21935 0.83545 0.0
C661 C 0.73089 0.20573 0.85735 0.0
C662 C 0.69012 0.13651 0.88527 0.0
C663 C 0.66139 0.11695 0.95405 0.0
C664 C 0.67836 0.13385 0.93146 0.0
C665 C 0.72837 0.18033 0.86586 0.0
C666 C 0.71043 0.16496 0.88825 0.0
H667 H 0.62498 0.12093 0.00606 0.0
H668 H 0.65769 0.15054 0.97257 0.0
H669 H 0.65824 0.09947 0.90321 0.0
H670 H 0.77006 0.17357 0.82119 0.0
H671 H 0.7412 0.1496 0.85876 0.0
C672 C 0.51405 0.59322 0.48106 0.0
C673 C 0.49181 0.57623 0.49765 0.0
C674 C 0.51088 0.60995 0.46244 0.0
C675 C 0.45905 0.60666 0.41845 0.0
H676 H 0.51289 0.68444 0.4037 0.0
C677 C 0.48841 0.65642 0.316 0.0
C678 C 0.49274 0.68366 0.31306 0.0
C679 C 0.48111 0.64327 0.34033 0.0
C680 C 0.4974 0.66283 0.40777 0.0
H681 H 0.44921 0.56405 0.50855 0.0
H682 H 0.44335 0.59275 0.47519 0.0
H683 H 0.51602 0.66413 0.44528 0.0
H684 H 0.49068 0.71759 0.33289 0.0
H685 H 0.47861 0.6948 0.3754 0.0
H686 H 0.4417 0.60482 0.38013 0.0
C687 C 0.46335 0.59346 0.47705 0.0
C688 C 0.49928 0.65126 0.43147 0.0
C689 C 0.4668 0.57726 0.49619 0.0
C690 C 0.48753 0.69659 0.33443 0.0
C691 C 0.48075 0.68366 0.35884 0.0
C692 C 0.45753 0.61809 0.3945 0.0
C693 C 0.48517 0.60941 0.45966 0.0
C694 C 0.48044 0.62295 0.43678 0.0
C695 C 0.47842 0.6573 0.36219 0.0
C696 C 0.47703 0.64613 0.38878 0.0
H697 H 0.53346 0.59264 0.48174 0.0
H698 H 0.52792 0.62193 0.4491 0.0
H699 H 0.44449 0.58467 0.42204 0.0
H700 H 0.49221 0.64591 0.29991 0.0
H701 H 0.47954 0.62296 0.34245 0.0
C702 C 0.46713 0.0501 0.56596 0.0
C703 C 0.46374 0.0234 0.57033 0.0
C704 C 0.45542 0.06131 0.58291 0.0
C705 C 0.43145 0.05712 0.65058 0.0
H706 H 0.40429 0.10496 0.62326 0.0
C707 C 0.40373 0.12468 0.7183 0.0
C708 C 0.41883 0.15316 0.71157 0.0
C709 C 0.40186 0.10407 0.70074 0.0
C710 C 0.41162 0.09151 0.6312 0.0
H711 H 0.44498 0.98737 0.59589 0.0
H712 H 0.42441 0.00704 0.62559 0.0
H713 H 0.41512 0.07732 0.5931 0.0
H714 H 0.44226 0.18236 0.68085 0.0
H715 H 0.43846 0.14666 0.65019 0.0
H716 H 0.42867 0.07207 0.68868 0.0
C717 C 0.43633 0.01933 0.60905 0.0
C718 C 0.41798 0.07578 0.61392 0.0
C719 C 0.44804 0.00802 0.59198 0.0
C720 C 0.43052 0.16054 0.68655 0.0
C721 C 0.42822 0.14005 0.66893 0.0
C722 C 0.42494 0.0728 0.6679 0.0
C723 C 0.43995 0.04616 0.60473 0.0
C724 C 0.42893 0.05918 0.62332 0.0
C725 C 0.41452 0.11167 0.67602 0.0
C726 C 0.41589 0.0909 0.65831 0.0
H727 H 0.47911 0.0626 0.54954 0.0
H728 H 0.45915 0.08225 0.57922 0.0
H729 H 0.43996 0.04467 0.6585 0.0
H730 H 0.39472 0.11849 0.73757 0.0
H731 H 0.39111 0.08232 0.70668 0.0
C732 C 0.41049 0.47745 0.05183 0.0
C733 C 0.4262 0.50125 0.03647 0.0
C734 C 0.38919 0.47556 0.06771 0.0
C735 C 0.37024 0.51868 0.106 0.0
H736 H 0.30196 0.44743 0.11603 0.0
C737 C 0.29171 0.49303 0.19278 0.0
C738 C 0.286 0.46817 0.20558 0.0
C739 C 0.30633 0.50034 0.1691 0.0
C740 C 0.32082 0.46755 0.11333 0.0
H741 H 0.43153 0.54149 0.02507 0.0
H742 H 0.39426 0.53838 0.05352 0.0
H743 H 0.33087 0.4538 0.07792 0.0
H744 H 0.29202 0.43209 0.20399 0.0
H745 H 0.31712 0.44473 0.16306 0.0
H746 H 0.36068 0.53186 0.14225 0.0
C747 C 0.39845 0.52114 0.05297 0.0
C748 C 0.33732 0.47119 0.09153 0.0
C749 C 0.41959 0.52283 0.03664 0.0
C750 C 0.29583 0.45127 0.19464 0.0
C751 C 0.31005 0.45838 0.17104 0.0
C752 C 0.35362 0.51503 0.12789 0.0
C753 C 0.38328 0.49758 0.06886 0.0
C754 C 0.36281 0.49633 0.08826 0.0
C755 C 0.31505 0.48268 0.15778 0.0
C756 C 0.32943 0.48898 0.13228 0.0
H757 H 0.41509 0.46048 0.05205 0.0
H758 H 0.37814 0.45731 0.07999 0.0
H759 H 0.38986 0.53825 0.10399 0.0
H760 H 0.28442 0.50648 0.20076 0.0
H761 H 0.31014 0.51931 0.15929 0.0
C762 C 0.93473 0.46109 0.54257 0.0
C763 C 0.96293 0.46826 0.54636 0.0
C764 C 0.91368 0.44099 0.55841 0.0
C765 C 0.90628 0.4085 0.62351 0.0
H766 H 0.8296 0.35827 0.60016 0.0
C767 C 0.82441 0.33622 0.69707 0.0
C768 C 0.80693 0.30831 0.68871 0.0
C769 C 0.83987 0.35719 0.67893 0.0
C770 C 0.85096 0.37207 0.60701 0.0
H771 H 0.99092 0.45856 0.56826 0.0
H772 H 0.95424 0.42273 0.59497 0.0
H773 H 0.8643 0.38944 0.56886 0.0
H774 H 0.79049 0.2809 0.65455 0.0
H775 H 0.81796 0.31705 0.62316 0.0
H776 H 0.89357 0.39035 0.66123 0.0
C777 C 0.94838 0.43335 0.58059 0.0
C778 C 0.87082 0.39017 0.58907 0.0
C779 C 0.96941 0.45367 0.56506 0.0
C780 C 0.80377 0.30219 0.6617 0.0
C781 C 0.81951 0.32305 0.6436 0.0
C782 C 0.88658 0.39028 0.64131 0.0
C783 C 0.9204 0.42745 0.57815 0.0
C784 C 0.89884 0.4084 0.59705 0.0
C785 C 0.83852 0.35064 0.65204 0.0
C786 C 0.85868 0.37164 0.63332 0.0
H787 H 0.92914 0.47215 0.52843 0.0
H788 H 0.89242 0.43711 0.556 0.0
H789 H 0.92746 0.42269 0.63059 0.0
H790 H 0.82709 0.34168 0.71773 0.0
H791 H 0.85364 0.37836 0.68612 0.0
C792 C 0.58375 0.9712 0.06505 0.0
C793 C 0.56306 0.96126 0.04516 0.0
C794 C 0.58462 0.95276 0.08314 0.0
C795 C 0.55683 0.87795 0.09976 0.0
H796 H 0.56497 0.90685 0.17072 0.0
C797 C 0.5364 0.80962 0.19264 0.0
C798 C 0.55642 0.82213 0.21303 0.0
C799 C 0.53689 0.82542 0.17101 0.0
C800 C 0.56292 0.89853 0.15104 0.0
H801 H 0.52838 0.92394 0.02737 0.0
H802 H 0.52969 0.89162 0.05927 0.0
H803 H 0.56843 0.93624 0.13402 0.0
H804 H 0.59255 0.86102 0.22672 0.0
H805 H 0.59338 0.88836 0.18922 0.0
H806 H 0.5511 0.84003 0.11712 0.0
C807 C 0.54537 0.91368 0.06076 0.0
C808 C 0.56502 0.91543 0.12996 0.0
C809 C 0.54466 0.93219 0.04244 0.0
C810 C 0.57673 0.85072 0.21143 0.0
C811 C 0.57715 0.86646 0.18996 0.0
C812 C 0.55469 0.86095 0.12097 0.0
C813 C 0.56462 0.92397 0.08194 0.0
C814 C 0.56234 0.90551 0.10406 0.0
C815 C 0.55728 0.85404 0.16948 0.0
C816 C 0.55802 0.87121 0.14683 0.0
H817 H 0.59841 0.99347 0.06746 0.0
H818 H 0.60023 0.96125 0.09879 0.0
H819 H 0.55466 0.86971 0.08004 0.0
H820 H 0.52055 0.78759 0.19326 0.0
H821 H 0.52117 0.81533 0.15562 0.0
C822 C 0.58 0.55613 0.5767 0.0
C823 C 0.57792 0.54496 0.55138 0.0
C824 C 0.60466 0.56605 0.59172 0.0
C825 C 0.66739 0.55807 0.59808 0.0
H826 H 0.69172 0.61934 0.64822 0.0
C827 C 0.76386 0.59051 0.66499 0.0
C828 C 0.75982 0.59321 0.69178 0.0
C829 C 0.74473 0.58952 0.64614 0.0
C830 C 0.68514 0.60214 0.63437 0.0
H831 H 0.60073 0.53659 0.52165 0.0
H832 H 0.64401 0.55443 0.54766 0.0
H833 H 0.65287 0.60863 0.61787 0.0
H834 H 0.73337 0.59882 0.71954 0.0
H835 H 0.70001 0.59715 0.68661 0.0
H836 H 0.69939 0.55137 0.61474 0.0
C837 C 0.6263 0.55497 0.55612 0.0
C838 C 0.66282 0.59593 0.61698 0.0
C839 C 0.60153 0.54491 0.5411 0.0
C840 C 0.73717 0.59675 0.69909 0.0
C841 C 0.71803 0.59582 0.68018 0.0
C842 C 0.68976 0.56437 0.61534 0.0
C843 C 0.62803 0.56523 0.58182 0.0
C844 C 0.65336 0.57353 0.59884 0.0
C845 C 0.72111 0.5913 0.65356 0.0
C846 C 0.69871 0.58625 0.63393 0.0
H847 H 0.56225 0.55646 0.58532 0.0
H848 H 0.60495 0.57339 0.61149 0.0
H849 H 0.66046 0.54036 0.58479 0.0
H850 H 0.78117 0.58793 0.65859 0.0
H851 H 0.74804 0.58659 0.62576 0.0
C852 C 0.05311 0.59397 0.06431 0.0
C853 C 0.06774 0.59303 0.04225 0.0
C854 C 0.06548 0.61663 0.08186 0.0
C855 C 0.1229 0.69027 0.09021 0.0
H856 H 0.11319 0.67153 0.16391 0.0
C857 C 0.18834 0.76878 0.17395 0.0
C858 C 0.17525 0.76607 0.19816 0.0
C859 C 0.17397 0.74986 0.15335 0.0
C860 C 0.11575 0.67727 0.14345 0.0
H861 H 0.10672 0.6157 0.02102 0.0
H862 H 0.12851 0.65533 0.05194 0.0
H863 H 0.09116 0.63441 0.13112 0.0
H864 H 0.1361 0.74267 0.21899 0.0
H865 H 0.11089 0.7102 0.18296 0.0
H866 H 0.14778 0.73325 0.10273 0.0
C867 C 0.1073 0.63851 0.05547 0.0
C868 C 0.10314 0.65591 0.12459 0.0
C869 C 0.09487 0.61574 0.03783 0.0
C870 C 0.14692 0.74519 0.20071 0.0
C871 C 0.13253 0.72641 0.1801 0.0
C872 C 0.13552 0.71174 0.10915 0.0
C873 C 0.09287 0.639 0.07791 0.0
C874 C 0.10649 0.66209 0.09774 0.0
C875 C 0.14614 0.72791 0.15646 0.0
C876 C 0.13206 0.70549 0.13603 0.0
H877 H 0.03208 0.57701 0.06826 0.0
H878 H 0.05355 0.61656 0.09865 0.0
H879 H 0.12568 0.69577 0.06969 0.0
H880 H 0.21016 0.7846 0.1713 0.0
H881 H 0.18518 0.75161 0.1355 0.0
loop_
_geom_bond_atom_site_label_1
_geom_bond_atom_site_label_2
_geom_bond_distance
_geom_bond_site_symmetry_2
_ccdc_geom_bond_type
C0 O2 1.247 . S
C0 O4 1.258 . S
C1 O8 1.247 1_655 S
C1 O9 1.258 1_556 S
O2 C0 1.247 . S
O2 Zn3 2.028 1_455 S
Zn3 O2 2.028 1_655 S
Zn3 O7 2.035 . S
Zn3 O9 2.035 . S
Zn3 O10 2.028 1_655 S
O4 C0 1.258 . S
O4 Zn5 2.035 1_554 S
Zn5 O4 2.035 1_556 S
Zn5 O6 2.028 . S
Zn5 O8 2.028 . S
Zn5 O11 2.035 1_556 S
O6 Zn5 2.028 . S
O6 C12 1.247 1_455 S
O7 Zn3 2.035 . S
O7 C12 1.258 1_554 S
O8 C1 1.247 1_455 S
O8 Zn5 2.028 . S
O9 C1 1.258 1_554 S
O9 Zn3 2.035 . S
O10 Zn3 2.028 1_455 S
O10 C13 1.247 . S
O11 Zn5 2.035 1_554 S
O11 C13 1.258 . S
C12 O6 1.247 1_655 S
C12 O7 1.258 1_556 S
C13 O10 1.247 . S
C13 O11 1.258 . S
C14 O16 1.247 . S
C14 O18 1.258 . S
C15 O22 1.247 1_565 S
C15 O23 1.258 . S
O16 C14 1.247 . S
O16 Zn17 2.028 1_545 S
Zn17 O16 2.028 1_565 S
Zn17 O21 2.035 . S
Zn17 O23 2.035 . S
Zn17 O24 2.028 1_565 S
O18 C14 1.258 . S
O18 Zn19 2.035 . S
Zn19 O18 2.035 . S
Zn19 O20 2.028 . S
Zn19 O22 2.028 . S
Zn19 O25 2.035 . S
O20 Zn19 2.028 . S
O20 C26 1.247 1_545 S
O21 Zn17 2.035 . S
O21 C26 1.258 . S
O22 C15 1.247 1_545 S
O22 Zn19 2.028 . S
O23 C15 1.258 . S
O23 Zn17 2.035 . S
O24 Zn17 2.028 1_545 S
O24 C27 1.247 . S
O25 Zn19 2.035 . S
O25 C27 1.258 . S
C26 O20 1.247 1_565 S
C26 O21 1.258 . S
C27 O24 1.247 . S
C27 O25 1.258 . S
C28 O30 1.247 . S
C28 O32 1.258 1_556 S
C29 O36 1.247 . S
C29 O37 1.258 . S
O30 C28 1.247 . S
O30 Zn31 2.028 . S
Zn31 O30 2.028 . S
Zn31 O35 2.035 1_556 S
Zn31 O37 2.035 1_556 S
Zn31 O38 2.028 . S
O32 C28 1.258 1_554 S
O32 Zn33 2.035 . S
Zn33 O32 2.035 . S
Zn33 O34 2.028 . S
Zn33 O36 2.028 . S
Zn33 O39 2.035 . S
O34 Zn33 2.028 . S
O34 C40 1.247 . S
O35 Zn31 2.035 1_554 S
O35 C40 1.258 . S
O36 C29 1.247 . S
O36 Zn33 2.028 . S
O37 C29 1.258 . S
O37 Zn31 2.035 1_554 S
O38 Zn31 2.028 . S
O38 C41 1.247 . S
O39 Zn33 2.035 . S
O39 C41 1.258 1_554 S
C40 O34 1.247 . S
C40 O35 1.258 . S
C41 O38 1.247 . S
C41 O39 1.258 1_556 S
C42 O44 1.247 . S
C42 O46 1.258 . S
C43 O50 1.247 . S
C43 O51 1.258 1_655 S
O44 C42 1.247 . S
O44 Zn45 2.028 . S
Zn45 O44 2.028 . S
Zn45 O49 2.035 . S
Zn45 O51 2.035 . S
Zn45 O52 2.028 . S
O46 C42 1.258 . S
O46 Zn47 2.035 1_455 S
Zn47 O46 2.035 1_655 S
Zn47 O48 2.028 . S
Zn47 O50 2.028 . S
Zn47 O53 2.035 1_655 S
O48 Zn47 2.028 . S
O48 C54 1.247 . S
O49 Zn45 2.035 . S
O49 C54 1.258 1_455 S
O50 C43 1.247 . S
O50 Zn47 2.028 . S
O51 C43 1.258 1_455 S
O51 Zn45 2.035 . S
O52 Zn45 2.028 . S
O52 C55 1.247 . S
O53 Zn47 2.035 1_455 S
O53 C55 1.258 . S
C54 O48 1.247 . S
C54 O49 1.258 1_655 S
C55 O52 1.247 . S
C55 O53 1.258 . S
C56 O58 1.247 1_565 S
C56 O60 1.258 . S
C57 O64 1.247 . S
C57 O65 1.258 1_556 S
O58 C56 1.247 1_545 S
O58 Zn59 2.028 . S
Zn59 O58 2.028 . S
Zn59 O63 2.035 . S
Zn59 O65 2.035 . S
Zn59 O66 2.028 . S
O60 C56 1.258 . S
O60 Zn61 2.035 1_554 S
Zn61 O60 2.035 1_556 S
Zn61 O62 2.028 1_565 S
Zn61 O64 2.028 1_565 S
Zn61 O67 2.035 1_556 S
O62 Zn61 2.028 1_545 S
O62 C68 1.247 . S
O63 Zn59 2.035 . S
O63 C68 1.258 1_554 S
O64 C57 1.247 . S
O64 Zn61 2.028 1_545 S
O65 C57 1.258 1_554 S
O65 Zn59 2.035 . S
O66 Zn59 2.028 . S
O66 C69 1.247 1_545 S
O67 Zn61 2.035 1_554 S
O67 C69 1.258 . S
C68 O62 1.247 . S
C68 O63 1.258 1_556 S
C69 O66 1.247 1_565 S
C69 O67 1.258 . S
C70 O72 1.247 . S
C70 O74 1.258 . S
C71 O78 1.247 . S
C71 O79 1.258 . S
O72 C70 1.247 . S
O72 Zn73 2.028 . S
Zn73 O72 2.028 . S
Zn73 O77 2.035 . S
Zn73 O79 2.035 . S
Zn73 O80 2.028 . S
O74 C70 1.258 . S
O74 Zn75 2.035 . S
Zn75 O74 2.035 . S
Zn75 O76 2.028 . S
Zn75 O78 2.028 . S
Zn75 O81 2.035 . S
O76 Zn75 2.028 . S
O76 C82 1.247 . S
O77 Zn73 2.035 . S
O77 C82 1.258 . S
O78 C71 1.247 . S
O78 Zn75 2.028 . S
O79 C71 1.258 . S
O79 Zn73 2.035 . S
O80 Zn73 2.028 . S
O80 C83 1.247 . S
O81 Zn75 2.035 . S
O81 C83 1.258 . S
C82 O76 1.247 . S
C82 O77 1.258 . S
C83 O80 1.247 . S
C83 O81 1.258 . S
Mg84 O91 2.141 . S
Mg84 O92 2.048 . S
Mg84 O93 2.048 . S
Mg84 O96 2.141 . S
C85 O86 1.313 . S
C85 O92 1.195 . S
O86 C85 1.313 . S
C87 O88 1.245 . S
C87 O96 1.289 . S
O88 C87 1.245 . S
C89 O90 1.245 . S
C89 O91 1.289 . S
O90 C89 1.245 . S
O91 Mg84 2.141 . S
O91 C89 1.289 . S
O92 Mg84 2.048 . S
O92 C85 1.195 . S
O93 Mg84 2.048 . S
O93 C94 1.195 . S
C94 O93 1.195 . S
C94 O95 1.313 . S
O95 C94 1.313 . S
O96 Mg84 2.141 . S
O96 C87 1.289 . S
Mg97 O104 2.141 . S
Mg97 O105 2.048 . S
Mg97 O106 2.048 . S
Mg97 O109 2.141 . S
C98 O99 1.313 . S
C98 O105 1.195 . S
O99 C98 1.313 . S
C100 O101 1.245 . S
C100 O109 1.289 . S
O101 C100 1.245 . S
C102 O103 1.245 . S
C102 O104 1.289 . S
O103 C102 1.245 . S
O104 Mg97 2.141 . S
O104 C102 1.289 . S
O105 Mg97 2.048 . S
O105 C98 1.195 . S
O106 Mg97 2.048 . S
O106 C107 1.195 . S
C107 O106 1.195 . S
C107 O108 1.313 . S
O108 C107 1.313 . S
O109 Mg97 2.141 . S
O109 C100 1.289 . S
Mg110 O117 2.141 . S
Mg110 O118 2.048 . S
Mg110 O119 2.048 . S
Mg110 O122 2.141 . S
C111 O112 1.313 . S
C111 O118 1.195 . S
O112 C111 1.313 . S
C113 O114 1.245 . S
C113 O122 1.289 . S
O114 C113 1.245 . S
C115 O116 1.245 . S
C115 O117 1.289 . S
O116 C115 1.245 . S
O117 Mg110 2.141 . S
O117 C115 1.289 . S
O118 Mg110 2.048 . S
O118 C111 1.195 . S
O119 Mg110 2.048 . S
O119 C120 1.195 . S
C120 O119 1.195 . S
C120 O121 1.313 . S
O121 C120 1.313 . S
O122 Mg110 2.141 . S
O122 C113 1.289 . S
Mg123 O130 2.141 . S
Mg123 O131 2.048 . S
Mg123 O132 2.048 . S
Mg123 O135 2.141 . S
C124 O125 1.313 . S
C124 O131 1.195 . S
O125 C124 1.313 . S
C126 O127 1.245 . S
C126 O135 1.289 . S
O127 C126 1.245 . S
C128 O129 1.245 . S
C128 O130 1.289 . S
O129 C128 1.245 . S
O130 Mg123 2.141 . S
O130 C128 1.289 . S
O131 Mg123 2.048 . S
O131 C124 1.195 . S
O132 Mg123 2.048 . S
O132 C133 1.195 . S
C133 O132 1.195 . S
C133 O134 1.313 . S
O134 C133 1.313 . S
O135 Mg123 2.141 . S
O135 C126 1.289 . S
Mg136 O143 2.141 . S
Mg136 O144 2.048 . S
Mg136 O145 2.048 . S
Mg136 O148 2.141 . S
C137 O138 1.313 . S
C137 O144 1.195 . S
O138 C137 1.313 . S
C139 O140 1.245 . S
C139 O148 1.289 . S
O140 C139 1.245 . S
C141 O142 1.245 . S
C141 O143 1.289 . S
O142 C141 1.245 . S
O143 Mg136 2.141 . S
O143 C141 1.289 . S
O144 Mg136 2.048 . S
O144 C137 1.195 . S
O145 Mg136 2.048 . S
O145 C146 1.195 . S
C146 O145 1.195 . S
C146 O147 1.313 . S
O147 C146 1.313 . S
O148 Mg136 2.141 . S
O148 C139 1.289 . S
Mg149 O156 2.141 . S
Mg149 O157 2.048 . S
Mg149 O158 2.048 . S
Mg149 O161 2.141 . S
C150 O151 1.313 . S
C150 O157 1.195 . S
O151 C150 1.313 . S
C152 O153 1.245 . S
C152 O161 1.289 . S
O153 C152 1.245 . S
C154 O155 1.245 . S
C154 O156 1.289 . S
O155 C154 1.245 . S
O156 Mg149 2.141 . S
O156 C154 1.289 . S
O157 Mg149 2.048 . S
O157 C150 1.195 . S
O158 Mg149 2.048 . S
O158 C159 1.195 . S
C159 O158 1.195 . S
C159 O160 1.313 . S
O160 C159 1.313 . S
O161 Mg149 2.141 . S
O161 C152 1.289 . S
C162 C163 1.349 . S
C162 C164 1.327 . S
C162 H187 0.950 . S
C163 C162 1.349 . S
C163 C179 1.349 . S
C164 C162 1.327 . S
C164 C183 1.429 . S
C164 H188 0.950 . S
C165 C182 1.574 . S
C165 C184 1.368 . S
C165 H189 0.949 . S
H166 C170 0.949 . S
C167 C168 1.349 . S
C167 C169 1.327 . S
C167 H190 0.950 . S
C168 C167 1.349 . S
C168 C180 1.349 . S
C169 C167 1.327 . S
C169 C185 1.429 . S
C169 H191 0.950 . S
C170 H166 0.949 . S
C170 C178 1.574 . S
C170 C186 1.368 . S
H171 C179 0.950 . S
H172 C177 0.950 . S
H173 C178 0.949 . S
H174 C180 0.950 . S
H175 C181 0.950 . S
H176 C182 0.949 . S
C177 H172 0.950 . S
C177 C179 1.327 . S
C177 C183 1.429 . S
C178 C170 1.574 . S
C178 H173 0.949 . S
C178 C184 1.368 . S
C179 C163 1.349 . S
C179 H171 0.950 . S
C179 C177 1.327 . S
C180 C168 1.349 . S
C180 H174 0.950 . S
C180 C181 1.327 . S
C181 H175 0.950 . S
C181 C180 1.327 . S
C181 C185 1.429 . S
C182 C165 1.574 . S
C182 H176 0.949 . S
C182 C186 1.368 . S
C183 C164 1.429 . S
C183 C177 1.429 . S
C183 C184 1.523 . S
C184 C165 1.368 . S
C184 C178 1.368 . S
C184 C183 1.523 . S
C185 C169 1.429 . S
C185 C181 1.429 . S
C185 C186 1.523 . S
C186 C170 1.368 . S
C186 C182 1.368 . S
C186 C185 1.523 . S
H187 C162 0.950 . S
H188 C164 0.950 . S
H189 C165 0.949 . S
H190 C167 0.950 . S
H191 C169 0.950 . S
C192 C193 1.349 . S
C192 C194 1.327 . S
C192 H217 0.950 . S
C193 C192 1.349 . S
C193 C209 1.349 . S
C194 C192 1.327 . S
C194 C213 1.429 . S
C194 H218 0.950 . S
C195 C212 1.574 . S
C195 C214 1.368 . S
C195 H219 0.949 . S
H196 C200 0.949 . S
C197 C198 1.349 . S
C197 C199 1.327 . S
C197 H220 0.950 . S
C198 C197 1.349 . S
C198 C210 1.349 . S
C199 C197 1.327 . S
C199 C215 1.429 . S
C199 H221 0.950 . S
C200 H196 0.949 . S
C200 C208 1.574 . S
C200 C216 1.368 . S
H201 C209 0.950 . S
H202 C207 0.950 . S
H203 C208 0.949 . S
H204 C210 0.950 . S
H205 C211 0.950 . S
H206 C212 0.949 . S
C207 H202 0.950 . S
C207 C209 1.327 . S
C207 C213 1.429 . S
C208 C200 1.574 . S
C208 H203 0.949 . S
C208 C214 1.368 . S
C209 C193 1.349 . S
C209 H201 0.950 . S
C209 C207 1.327 . S
C210 C198 1.349 . S
C210 H204 0.950 . S
C210 C211 1.327 . S
C211 H205 0.950 . S
C211 C210 1.327 . S
C211 C215 1.429 . S
C212 C195 1.574 . S
C212 H206 0.949 . S
C212 C216 1.368 . S
C213 C194 1.429 . S
C213 C207 1.429 . S
C213 C214 1.523 . S
C214 C195 1.368 . S
C214 C208 1.368 . S
C214 C213 1.523 . S
C215 C199 1.429 . S
C215 C211 1.429 . S
C215 C216 1.523 . S
C216 C200 1.368 . S
C216 C212 1.368 . S
C216 C215 1.523 . S
H217 C192 0.950 . S
H218 C194 0.950 . S
H219 C195 0.949 . S
H220 C197 0.950 . S
H221 C199 0.950 . S
C222 C223 1.349 . S
C222 C224 1.327 . S
C222 H247 0.950 . S
C223 C222 1.349 . S
C223 C239 1.349 . S
C224 C222 1.327 . S
C224 C243 1.429 . S
C224 H248 0.950 . S
C225 C242 1.574 . S
C225 C244 1.368 . S
C225 H249 0.949 . S
H226 C230 0.949 . S
C227 C228 1.349 . S
C227 C229 1.327 . S
C227 H250 0.950 . S
C228 C227 1.349 . S
C228 C240 1.349 . S
C229 C227 1.327 . S
C229 C245 1.429 . S
C229 H251 0.950 . S
C230 H226 0.949 . S
C230 C238 1.574 . S
C230 C246 1.368 . S
H231 C239 0.950 . S
H232 C237 0.950 . S
H233 C238 0.949 . S
H234 C240 0.950 . S
H235 C241 0.950 . S
H236 C242 0.949 . S
C237 H232 0.950 . S
C237 C239 1.327 . S
C237 C243 1.429 . S
C238 C230 1.574 . S
C238 H233 0.949 . S
C238 C244 1.368 . S
C239 C223 1.349 . S
C239 H231 0.950 . S
C239 C237 1.327 . S
C240 C228 1.349 . S
C240 H234 0.950 . S
C240 C241 1.327 . S
C241 H235 0.950 . S
C241 C240 1.327 . S
C241 C245 1.429 . S
C242 C225 1.574 . S
C242 H236 0.949 . S
C242 C246 1.368 . S
C243 C224 1.429 . S
C243 C237 1.429 . S
C243 C244 1.523 . S
C244 C225 1.368 . S
C244 C238 1.368 . S
C244 C243 1.523 . S
C245 C229 1.429 . S
C245 C241 1.429 . S
C245 C246 1.523 . S
C246 C230 1.368 . S
C246 C242 1.368 . S
C246 C245 1.523 . S
H247 C222 0.950 . S
H248 C224 0.950 . S
H249 C225 0.949 . S
H250 C227 0.950 . S
H251 C229 0.950 . S
C252 C253 1.349 . S
C252 C254 1.327 . S
C252 H277 0.950 . S
C253 C252 1.349 . S
C253 C269 1.349 . S
C254 C252 1.327 . S
C254 C273 1.429 . S
C254 H278 0.950 . S
C255 C272 1.574 . S
C255 C274 1.368 . S
C255 H279 0.949 . S
H256 C260 0.949 . S
C257 C258 1.349 . S
C257 C259 1.327 . S
C257 H280 0.950 . S
C258 C257 1.349 . S
C258 C270 1.349 . S
C259 C257 1.327 . S
C259 C275 1.429 . S
C259 H281 0.950 . S
C260 H256 0.949 . S
C260 C268 1.574 . S
C260 C276 1.368 . S
H261 C269 0.950 . S
H262 C267 0.950 . S
H263 C268 0.949 . S
H264 C270 0.950 . S
H265 C271 0.950 . S
H266 C272 0.949 . S
C267 H262 0.950 . S
C267 C269 1.327 . S
C267 C273 1.429 . S
C268 C260 1.574 . S
C268 H263 0.949 . S
C268 C274 1.368 . S
C269 C253 1.349 . S
C269 H261 0.950 . S
C269 C267 1.327 . S
C270 C258 1.349 . S
C270 H264 0.950 . S
C270 C271 1.327 . S
C271 H265 0.950 . S
C271 C270 1.327 . S
C271 C275 1.429 . S
C272 C255 1.574 . S
C272 H266 0.949 . S
C272 C276 1.368 . S
C273 C254 1.429 . S
C273 C267 1.429 . S
C273 C274 1.523 . S
C274 C255 1.368 . S
C274 C268 1.368 . S
C274 C273 1.523 . S
C275 C259 1.429 . S
C275 C271 1.429 . S
C275 C276 1.523 . S
C276 C260 1.368 . S
C276 C272 1.368 . S
C276 C275 1.523 . S
H277 C252 0.950 . S
H278 C254 0.950 . S
H279 C255 0.949 . S
H280 C257 0.950 . S
H281 C259 0.950 . S
C282 C283 1.349 . S
C282 C284 1.327 . S
C282 H307 0.950 . S
C283 C282 1.349 . S
C283 C299 1.349 . S
C284 C282 1.327 . S
C284 C303 1.429 . S
C284 H308 0.950 . S
C285 C302 1.574 . S
C285 C304 1.368 . S
C285 H309 0.949 . S
H286 C290 0.949 . S
C287 C288 1.349 . S
C287 C289 1.327 . S
C287 H310 0.950 . S
C288 C287 1.349 . S
C288 C300 1.349 . S
C289 C287 1.327 . S
C289 C305 1.429 . S
C289 H311 0.950 . S
C290 H286 0.949 . S
C290 C298 1.574 . S
C290 C306 1.368 . S
H291 C299 0.950 . S
H292 C297 0.950 . S
H293 C298 0.949 . S
H294 C300 0.950 . S
H295 C301 0.950 . S
H296 C302 0.949 . S
C297 H292 0.950 . S
C297 C299 1.327 . S
C297 C303 1.429 . S
C298 C290 1.574 . S
C298 H293 0.949 . S
C298 C304 1.368 . S
C299 C283 1.349 . S
C299 H291 0.950 . S
C299 C297 1.327 . S
C300 C288 1.349 . S
C300 H294 0.950 . S
C300 C301 1.327 . S
C301 H295 0.950 . S
C301 C300 1.327 . S
C301 C305 1.429 . S
C302 C285 1.574 . S
C302 H296 0.949 . S
C302 C306 1.368 . S
C303 C284 1.429 . S
C303 C297 1.429 . S
C303 C304 1.523 . S
C304 C285 1.368 . S
C304 C298 1.368 . S
C304 C303 1.523 . S
C305 C289 1.429 . S
C305 C301 1.429 . S
C305 C306 1.523 . S
C306 C290 1.368 . S
C306 C302 1.368 . S
C306 C305 1.523 . S
H307 C282 0.950 . S
H308 C284 0.950 . S
H309 C285 0.949 . S
H310 C287 0.950 . S
H311 C289 0.950 . S
C312 C313 1.349 . S
C312 C314 1.327 . S
C312 H337 0.950 . S
C313 C312 1.349 . S
C313 C329 1.349 . S
C314 C312 1.327 . S
C314 C333 1.429 . S
C314 H338 0.950 . S
C315 C332 1.574 . S
C315 C334 1.368 . S
C315 H339 0.949 . S
H316 C320 0.949 . S
C317 C318 1.349 . S
C317 C319 1.327 . S
C317 H340 0.950 . S
C318 C317 1.349 . S
C318 C330 1.349 . S
C319 C317 1.327 . S
C319 C335 1.429 . S
C319 H341 0.950 . S
C320 H316 0.949 . S
C320 C328 1.574 . S
C320 C336 1.368 . S
H321 C329 0.950 . S
H322 C327 0.950 . S
H323 C328 0.949 . S
H324 C330 0.950 . S
H325 C331 0.950 . S
H326 C332 0.949 . S
C327 H322 0.950 . S
C327 C329 1.327 . S
C327 C333 1.429 . S
C328 C320 1.574 . S
C328 H323 0.949 . S
C328 C334 1.368 . S
C329 C313 1.349 . S
C329 H321 0.950 . S
C329 C327 1.327 . S
C330 C318 1.349 . S
C330 H324 0.950 . S
C330 C331 1.327 . S
C331 H325 0.950 . S
C331 C330 1.327 . S
C331 C335 1.429 . S
C332 C315 1.574 . S
C332 H326 0.949 . S
C332 C336 1.368 . S
C333 C314 1.429 . S
C333 C327 1.429 . S
C333 C334 1.523 . S
C334 C315 1.368 . S
C334 C328 1.368 . S
C334 C333 1.523 . S
C335 C319 1.429 . S
C335 C331 1.429 . S
C335 C336 1.523 . S
C336 C320 1.368 . S
C336 C332 1.368 . S
C336 C335 1.523 . S
H337 C312 0.950 . S
H338 C314 0.950 . S
H339 C315 0.949 . S
H340 C317 0.950 . S
H341 C319 0.950 . S
C342 C343 1.349 . S
C342 C344 1.327 . S
C342 H367 0.950 . S
C343 C342 1.349 . S
C343 C359 1.349 . S
C344 C342 1.327 . S
C344 C363 1.429 . S
C344 H368 0.950 . S
C345 C362 1.574 . S
C345 C364 1.368 . S
C345 H369 0.949 . S
H346 C350 0.949 . S
C347 C348 1.349 . S
C347 C349 1.327 . S
C347 H370 0.950 . S
C348 C347 1.349 . S
C348 C360 1.349 . S
C349 C347 1.327 . S
C349 C365 1.429 . S
C349 H371 0.950 . S
C350 H346 0.949 . S
C350 C358 1.574 . S
C350 C366 1.368 . S
H351 C359 0.950 1_545 S
H352 C357 0.950 . S
H353 C358 0.949 . S
H354 C360 0.950 . S
H355 C361 0.950 . S
H356 C362 0.949 . S
C357 H352 0.950 . S
C357 C359 1.327 . S
C357 C363 1.429 . S
C358 C350 1.574 . S
C358 H353 0.949 . S
C358 C364 1.368 . S
C359 C343 1.349 . S
C359 H351 0.950 1_565 S
C359 C357 1.327 . S
C360 C348 1.349 . S
C360 H354 0.950 . S
C360 C361 1.327 . S
C361 H355 0.950 . S
C361 C360 1.327 . S
C361 C365 1.429 . S
C362 C345 1.574 . S
C362 H356 0.949 . S
C362 C366 1.368 . S
C363 C344 1.429 . S
C363 C357 1.429 . S
C363 C364 1.523 . S
C364 C345 1.368 . S
C364 C358 1.368 . S
C364 C363 1.523 . S
C365 C349 1.429 . S
C365 C361 1.429 . S
C365 C366 1.523 . S
C366 C350 1.368 . S
C366 C362 1.368 . S
C366 C365 1.523 . S
H367 C342 0.950 . S
H368 C344 0.950 . S
H369 C345 0.949 . S
H370 C347 0.950 . S
H371 C349 0.950 . S
C372 C373 1.349 . S
C372 C374 1.327 . S
C372 H397 0.950 . S
C373 C372 1.349 . S
C373 C389 1.349 . S
C374 C372 1.327 . S
C374 C393 1.429 . S
C374 H398 0.950 . S
C375 C392 1.574 . S
C375 C394 1.368 . S
C375 H399 0.949 . S
H376 C380 0.949 . S
C377 C378 1.349 . S
C377 C379 1.327 . S
C377 H400 0.950 . S
C378 C377 1.349 . S
C378 C390 1.349 . S
C379 C377 1.327 . S
C379 C395 1.429 . S
C379 H401 0.950 . S
C380 H376 0.949 . S
C380 C388 1.574 . S
C380 C396 1.368 . S
H381 C389 0.950 . S
H382 C387 0.950 . S
H383 C388 0.949 . S
H384 C390 0.950 . S
H385 C391 0.950 . S
H386 C392 0.949 . S
C387 H382 0.950 . S
C387 C389 1.327 . S
C387 C393 1.429 . S
C388 C380 1.574 . S
C388 H383 0.949 . S
C388 C394 1.368 . S
C389 C373 1.349 . S
C389 H381 0.950 . S
C389 C387 1.327 . S
C390 C378 1.349 . S
C390 H384 0.950 . S
C390 C391 1.327 . S
C391 H385 0.950 . S
C391 C390 1.327 . S
C391 C395 1.429 . S
C392 C375 1.574 . S
C392 H386 0.949 . S
C392 C396 1.368 . S
C393 C374 1.429 . S
C393 C387 1.429 . S
C393 C394 1.523 . S
C394 C375 1.368 . S
C394 C388 1.368 . S
C394 C393 1.523 . S
C395 C379 1.429 . S
C395 C391 1.429 . S
C395 C396 1.523 . S
C396 C380 1.368 . S
C396 C392 1.368 . S
C396 C395 1.523 . S
H397 C372 0.950 . S
H398 C374 0.950 . S
H399 C375 0.949 . S
H400 C377 0.950 . S
H401 C379 0.950 . S
C402 C403 1.349 . S
C402 C404 1.327 . S
C402 H427 0.950 . S
C403 C402 1.349 . S
C403 C419 1.349 . S
C404 C402 1.327 . S
C404 C423 1.429 . S
C404 H428 0.950 . S
C405 C422 1.574 . S
C405 C424 1.368 . S
C405 H429 0.949 . S
H406 C410 0.949 . S
C407 C408 1.349 . S
C407 C409 1.327 . S
C407 H430 0.950 . S
C408 C407 1.349 . S
C408 C420 1.349 . S
C409 C407 1.327 . S
C409 C425 1.429 . S
C409 H431 0.950 . S
C410 H406 0.949 . S
C410 C418 1.574 . S
C410 C426 1.368 . S
H411 C419 0.950 . S
H412 C417 0.950 . S
H413 C418 0.949 . S
H414 C420 0.950 . S
H415 C421 0.950 . S
H416 C422 0.949 . S
C417 H412 0.950 . S
C417 C419 1.327 . S
C417 C423 1.429 . S
C418 C410 1.574 . S
C418 H413 0.949 . S
C418 C424 1.368 . S
C419 C403 1.349 . S
C419 H411 0.950 . S
C419 C417 1.327 . S
C420 C408 1.349 . S
C420 H414 0.950 . S
C420 C421 1.327 . S
C421 H415 0.950 . S
C421 C420 1.327 . S
C421 C425 1.429 . S
C422 C405 1.574 . S
C422 H416 0.949 . S
C422 C426 1.368 . S
C423 C404 1.429 . S
C423 C417 1.429 . S
C423 C424 1.523 . S
C424 C405 1.368 . S
C424 C418 1.368 . S
C424 C423 1.523 . S
C425 C409 1.429 . S
C425 C421 1.429 . S
C425 C426 1.523 . S
C426 C410 1.368 . S
C426 C422 1.368 . S
C426 C425 1.523 . S
H427 C402 0.950 . S
H428 C404 0.950 . S
H429 C405 0.949 . S
H430 C407 0.950 . S
H431 C409 0.950 . S
C432 C433 1.349 . S
C432 C434 1.327 . S
C432 H457 0.950 . S
C433 C432 1.349 . S
C433 C449 1.349 . S
C434 C432 1.327 . S
C434 C453 1.429 . S
C434 H458 0.950 . S
C435 C452 1.574 . S
C435 C454 1.368 . S
C435 H459 0.949 . S
H436 C440 0.949 . S
C437 C438 1.349 . S
C437 C439 1.327 . S
C437 H460 0.950 . S
C438 C437 1.349 . S
C438 C450 1.349 . S
C439 C437 1.327 . S
C439 C455 1.429 . S
C439 H461 0.950 . S
C440 H436 0.949 . S
C440 C448 1.574 . S
C440 C456 1.368 . S
H441 C449 0.950 . S
H442 C447 0.950 . S
H443 C448 0.949 . S
H444 C450 0.950 . S
H445 C451 0.950 . S
H446 C452 0.949 . S
C447 H442 0.950 . S
C447 C449 1.327 . S
C447 C453 1.429 . S
C448 C440 1.574 . S
C448 H443 0.949 . S
C448 C454 1.368 . S
C449 C433 1.349 . S
C449 H441 0.950 . S
C449 C447 1.327 . S
C450 C438 1.349 . S
C450 H444 0.950 . S
C450 C451 1.327 . S
C451 H445 0.950 . S
C451 C450 1.327 . S
C451 C455 1.429 . S
C452 C435 1.574 . S
C452 H446 0.949 . S
C452 C456 1.368 . S
C453 C434 1.429 . S
C453 C447 1.429 . S
C453 C454 1.523 . S
C454 C435 1.368 . S
C454 C448 1.368 . S
C454 C453 1.523 . S
C455 C439 1.429 . S
C455 C451 1.429 . S
C455 C456 1.523 . S
C456 C440 1.368 . S
C456 C452 1.368 . S
C456 C455 1.523 . S
H457 C432 0.950 . S
H458 C434 0.950 . S
H459 C435 0.949 . S
H460 C437 0.950 . S
H461 C439 0.950 . S
C462 C463 1.349 . S
C462 C464 1.327 . S
C462 H487 0.950 . S
C463 C462 1.349 . S
C463 C479 1.349 . S
C464 C462 1.327 . S
C464 C483 1.429 . S
C464 H488 0.950 . S
C465 C482 1.574 . S
C465 C484 1.368 . S
C465 H489 0.949 . S
H466 C470 0.949 . S
C467 C468 1.349 . S
C467 C469 1.327 . S
C467 H490 0.950 . S
C468 C467 1.349 . S
C468 C480 1.349 . S
C469 C467 1.327 . S
C469 C485 1.429 . S
C469 H491 0.950 . S
C470 H466 0.949 . S
C470 C478 1.574 . S
C470 C486 1.368 . S
H471 C479 0.950 . S
H472 C477 0.950 . S
H473 C478 0.949 . S
H474 C480 0.950 . S
H475 C481 0.950 . S
H476 C482 0.949 . S
C477 H472 0.950 . S
C477 C479 1.327 . S
C477 C483 1.429 . S
C478 C470 1.574 . S
C478 H473 0.949 . S
C478 C484 1.368 . S
C479 C463 1.349 . S
C479 H471 0.950 . S
C479 C477 1.327 . S
C480 C468 1.349 . S
C480 H474 0.950 . S
C480 C481 1.327 . S
C481 H475 0.950 . S
C481 C480 1.327 . S
C481 C485 1.429 . S
C482 C465 1.574 . S
C482 H476 0.949 . S
C482 C486 1.368 . S
C483 C464 1.429 . S
C483 C477 1.429 . S
C483 C484 1.523 . S
C484 C465 1.368 . S
C484 C478 1.368 . S
C484 C483 1.523 . S
C485 C469 1.429 . S
C485 C481 1.429 . S
C485 C486 1.523 . S
C486 C470 1.368 . S
C486 C482 1.368 . S
C486 C485 1.523 . S
H487 C462 0.950 . S
H488 C464 0.950 . S
H489 C465 0.949 . S
H490 C467 0.950 . S
H491 C469 0.950 . S
C492 C493 1.349 . S
C492 C494 1.327 . S
C492 H517 0.950 . S
C493 C492 1.349 . S
C493 C509 1.349 . S
C494 C492 1.327 . S
C494 C513 1.429 . S
C494 H518 0.950 . S
C495 C512 1.574 . S
C495 C514 1.368 . S
C495 H519 0.949 . S
H496 C500 0.949 . S
C497 C498 1.349 . S
C497 C499 1.327 . S
C497 H520 0.950 . S
C498 C497 1.349 . S
C498 C510 1.349 . S
C499 C497 1.327 . S
C499 C515 1.429 . S
C499 H521 0.950 . S
C500 H496 0.949 . S
C500 C508 1.574 . S
C500 C516 1.368 . S
H501 C509 0.963 . S
H502 C507 0.950 . S
H503 C508 0.949 . S
H504 C510 0.950 . S
H505 C511 0.950 . S
H506 C512 0.949 . S
C507 H502 0.950 . S
C507 C509 1.327 . S
C507 C513 1.429 . S
C508 C500 1.574 . S
C508 H503 0.949 . S
C508 C514 1.368 . S
C509 C493 1.349 . S
C509 H501 0.963 . S
C509 C507 1.327 . S
C510 C498 1.349 . S
C510 H504 0.950 . S
C510 C511 1.327 . S
C511 H505 0.950 . S
C511 C510 1.327 . S
C511 C515 1.429 . S
C512 C495 1.574 . S
C512 H506 0.949 . S
C512 C516 1.368 . S
C513 C494 1.429 . S
C513 C507 1.429 . S
C513 C514 1.523 . S
C514 C495 1.368 . S
C514 C508 1.368 . S
C514 C513 1.523 . S
C515 C499 1.429 . S
C515 C511 1.429 . S
C515 C516 1.523 . S
C516 C500 1.368 . S
C516 C512 1.368 . S
C516 C515 1.523 . S
H517 C492 0.950 . S
H518 C494 0.950 . S
H519 C495 0.949 . S
H520 C497 0.950 . S
H521 C499 0.950 . S
C522 C523 1.349 . S
C522 C524 1.327 . S
C522 H547 0.950 1_655 S
C523 C522 1.349 . S
C523 C539 1.349 . S
C524 C522 1.327 . S
C524 C543 1.429 . S
C524 H548 0.950 . S
C525 C542 1.574 . S
C525 C544 1.368 . S
C525 H549 0.949 . S
H526 C530 0.949 . S
C527 C528 1.349 . S
C527 C529 1.327 . S
C527 H550 0.950 . S
C528 C527 1.349 . S
C528 C540 1.349 . S
C529 C527 1.327 . S
C529 C545 1.429 . S
C529 H551 0.950 . S
C530 H526 0.949 . S
C530 C538 1.574 . S
C530 C546 1.368 . S
H531 C539 0.950 . S
H532 C537 0.950 . S
H533 C538 0.949 . S
H534 C540 0.950 . S
H535 C541 0.950 . S
H536 C542 0.949 . S
C537 H532 0.950 . S
C537 C539 1.327 . S
C537 C543 1.429 . S
C538 C530 1.574 . S
C538 H533 0.949 . S
C538 C544 1.368 . S
C539 C523 1.349 . S
C539 H531 0.950 . S
C539 C537 1.327 . S
C540 C528 1.349 . S
C540 H534 0.950 . S
C540 C541 1.327 . S
C541 H535 0.950 . S
C541 C540 1.327 . S
C541 C545 1.429 . S
C542 C525 1.574 . S
C542 H536 0.949 . S
C542 C546 1.368 . S
C543 C524 1.429 . S
C543 C537 1.429 . S
C543 C544 1.523 . S
C544 C525 1.368 . S
C544 C538 1.368 . S
C544 C543 1.523 . S
C545 C529 1.429 . S
C545 C541 1.429 . S
C545 C546 1.523 . S
C546 C530 1.368 . S
C546 C542 1.368 . S
C546 C545 1.523 . S
H547 C522 0.950 1_455 S
H548 C524 0.950 . S
H549 C525 0.949 . S
H550 C527 0.950 . S
H551 C529 0.950 . S
C552 C553 1.349 . S
C552 C554 1.327 . S
C552 H577 0.950 . S
C553 C552 1.349 . S
C553 C569 1.349 . S
C554 C552 1.327 . S
C554 C573 1.429 . S
C554 H578 0.950 . S
C555 C572 1.574 . S
C555 C574 1.368 . S
C555 H579 0.949 . S
H556 C560 0.949 . S
C557 C558 1.349 . S
C557 C559 1.327 . S
C557 H580 0.950 . S
C558 C557 1.349 . S
C558 C570 1.349 . S
C559 C557 1.327 . S
C559 C575 1.429 . S
C559 H581 0.950 . S
C560 H556 0.949 . S
C560 C568 1.574 . S
C560 C576 1.368 . S
H561 C569 0.950 1_545 S
H562 C567 0.950 . S
H563 C568 0.949 . S
H564 C570 0.950 . S
H565 C571 0.950 . S
H566 C572 0.949 . S
C567 H562 0.950 . S
C567 C569 1.327 . S
C567 C573 1.429 . S
C568 C560 1.574 . S
C568 H563 0.949 . S
C568 C574 1.368 . S
C569 C553 1.349 . S
C569 H561 0.950 1_565 S
C569 C567 1.327 . S
C570 C558 1.349 . S
C570 H564 0.950 . S
C570 C571 1.327 . S
C571 H565 0.950 . S
C571 C570 1.327 . S
C571 C575 1.429 . S
C572 C555 1.574 . S
C572 H566 0.949 . S
C572 C576 1.368 . S
C573 C554 1.429 . S
C573 C567 1.429 . S
C573 C574 1.523 . S
C574 C555 1.368 . S
C574 C568 1.368 . S
C574 C573 1.523 . S
C575 C559 1.429 . S
C575 C571 1.429 . S
C575 C576 1.523 . S
C576 C560 1.368 . S
C576 C572 1.368 . S
C576 C575 1.523 . S
H577 C552 0.950 . S
H578 C554 0.950 . S
H579 C555 0.949 . S
H580 C557 0.950 . S
H581 C559 0.950 . S
C582 C583 1.349 . S
C582 C584 1.327 . S
C582 H607 0.950 . S
C583 C582 1.349 . S
C583 C599 1.349 . S
C584 C582 1.327 . S
C584 C603 1.429 . S
C584 H608 0.950 . S
C585 C602 1.574 . S
C585 C604 1.368 . S
C585 H609 0.949 . S
H586 C590 0.949 . S
C587 C588 1.349 . S
C587 C589 1.327 . S
C587 H610 0.950 . S
C588 C587 1.349 . S
C588 C600 1.349 . S
C589 C587 1.327 . S
C589 C605 1.429 . S
C589 H611 0.950 . S
C590 H586 0.949 . S
C590 C598 1.574 . S
C590 C606 1.368 . S
H591 C599 0.950 . S
H592 C597 0.950 . S
H593 C598 0.949 . S
H594 C600 0.950 . S
H595 C601 0.950 . S
H596 C602 0.949 . S
C597 H592 0.950 . S
C597 C599 1.327 . S
C597 C603 1.429 . S
C598 C590 1.574 . S
C598 H593 0.949 . S
C598 C604 1.368 . S
C599 C583 1.349 . S
C599 H591 0.950 . S
C599 C597 1.327 . S
C600 C588 1.349 . S
C600 H594 0.950 . S
C600 C601 1.327 . S
C601 H595 0.950 . S
C601 C600 1.327 . S
C601 C605 1.429 . S
C602 C585 1.574 . S
C602 H596 0.949 . S
C602 C606 1.368 . S
C603 C584 1.429 . S
C603 C597 1.429 . S
C603 C604 1.523 . S
C604 C585 1.368 . S
C604 C598 1.368 . S
C604 C603 1.523 . S
C605 C589 1.429 . S
C605 C601 1.429 . S
C605 C606 1.523 . S
C606 C590 1.368 . S
C606 C602 1.368 . S
C606 C605 1.523 . S
H607 C582 0.950 . S
H608 C584 0.950 . S
H609 C585 0.949 . S
H610 C587 0.950 . S
H611 C589 0.950 . S
C612 C613 1.349 . S
C612 C614 1.327 . S
C612 H637 0.950 . S
C613 C612 1.349 . S
C613 C629 1.349 . S
C614 C612 1.327 . S
C614 C633 1.429 . S
C614 H638 0.950 . S
C615 C632 1.574 . S
C615 C634 1.368 . S
C615 H639 0.949 . S
H616 C620 0.949 . S
C617 C618 1.349 . S
C617 C619 1.327 . S
C617 H640 0.950 . S
C618 C617 1.349 . S
C618 C630 1.349 . S
C619 C617 1.327 . S
C619 C635 1.429 . S
C619 H641 0.950 . S
C620 H616 0.949 . S
C620 C628 1.574 . S
C620 C636 1.368 . S
H621 C629 0.950 . S
H622 C627 0.950 . S
H623 C628 0.949 . S
H624 C630 0.950 . S
H625 C631 0.950 . S
H626 C632 0.949 . S
C627 H622 0.950 . S
C627 C629 1.327 . S
C627 C633 1.429 . S
C628 C620 1.574 . S
C628 H623 0.949 . S
C628 C634 1.368 . S
C629 C613 1.349 . S
C629 H621 0.950 . S
C629 C627 1.327 . S
C630 C618 1.349 . S
C630 H624 0.950 . S
C630 C631 1.327 . S
C631 H625 0.950 . S
C631 C630 1.327 . S
C631 C635 1.429 . S
C632 C615 1.574 . S
C632 H626 0.949 . S
C632 C636 1.368 . S
C633 C614 1.429 . S
C633 C627 1.429 . S
C633 C634 1.523 . S
C634 C615 1.368 . S
C634 C628 1.368 . S
C634 C633 1.523 . S
C635 C619 1.429 . S
C635 C631 1.429 . S
C635 C636 1.523 . S
C636 C620 1.368 . S
C636 C632 1.368 . S
C636 C635 1.523 . S
H637 C612 0.950 . S
H638 C614 0.950 . S
H639 C615 0.949 . S
H640 C617 0.950 . S
H641 C619 0.950 . S
C642 C643 1.349 . S
C642 C644 1.327 . S
C642 H667 0.950 . S
C643 C642 1.349 . S
C643 C659 1.349 . S
C644 C642 1.327 . S
C644 C663 1.429 . S
C644 H668 0.950 . S
C645 C662 1.574 . S
C645 C664 1.368 . S
C645 H669 0.949 . S
H646 C650 0.949 . S
C647 C648 1.349 . S
C647 C649 1.327 . S
C647 H670 0.950 . S
C648 C647 1.349 . S
C648 C660 1.349 . S
C649 C647 1.327 . S
C649 C665 1.429 . S
C649 H671 0.950 . S
C650 H646 0.949 . S
C650 C658 1.574 . S
C650 C666 1.368 . S
H651 C659 0.950 . S
H652 C657 0.950 . S
H653 C658 0.949 . S
H654 C660 0.950 . S
H655 C661 0.950 . S
H656 C662 0.949 . S
C657 H652 0.950 . S
C657 C659 1.327 . S
C657 C663 1.429 . S
C658 C650 1.574 . S
C658 H653 0.949 . S
C658 C664 1.368 . S
C659 C643 1.349 . S
C659 H651 0.950 . S
C659 C657 1.327 . S
C660 C648 1.349 . S
C660 H654 0.950 . S
C660 C661 1.327 . S
C661 H655 0.950 . S
C661 C660 1.327 . S
C661 C665 1.429 . S
C662 C645 1.574 . S
C662 H656 0.949 . S
C662 C666 1.368 . S
C663 C644 1.429 . S
C663 C657 1.429 . S
C663 C664 1.523 . S
C664 C645 1.368 . S
C664 C658 1.368 . S
C664 C663 1.523 . S
C665 C649 1.429 . S
C665 C661 1.429 . S
C665 C666 1.523 . S
C666 C650 1.368 . S
C666 C662 1.368 . S
C666 C665 1.523 . S
H667 C642 0.950 . S
H668 C644 0.950 . S
H669 C645 0.949 . S
H670 C647 0.950 . S
H671 C649 0.950 . S
C672 C673 1.349 . S
C672 C674 1.327 . S
C672 H697 0.950 . S
C673 C672 1.349 . S
C673 C689 1.349 . S
C674 C672 1.327 . S
C674 C693 1.429 . S
C674 H698 0.950 . S
C675 C692 1.574 . S
C675 C694 1.368 . S
C675 H699 0.949 . S
H676 C680 0.949 . S
C677 C678 1.349 . S
C677 C679 1.327 . S
C677 H700 0.950 . S
C678 C677 1.349 . S
C678 C690 1.349 . S
C679 C677 1.327 . S
C679 C695 1.429 . S
C679 H701 0.950 . S
C680 H676 0.949 . S
C680 C688 1.574 . S
C680 C696 1.368 . S
H681 C689 0.950 . S
H682 C687 0.950 . S
H683 C688 0.949 . S
H684 C690 0.950 . S
H685 C691 0.950 . S
H686 C692 0.949 . S
C687 H682 0.950 . S
C687 C689 1.327 . S
C687 C693 1.429 . S
C688 C680 1.574 . S
C688 H683 0.949 . S
C688 C694 1.368 . S
C689 C673 1.349 . S
C689 H681 0.950 . S
C689 C687 1.327 . S
C690 C678 1.349 . S
C690 H684 0.950 . S
C690 C691 1.327 . S
C691 H685 0.950 . S
C691 C690 1.327 . S
C691 C695 1.429 . S
C692 C675 1.574 . S
C692 H686 0.949 . S
C692 C696 1.368 . S
C693 C674 1.429 . S
C693 C687 1.429 . S
C693 C694 1.523 . S
C694 C675 1.368 . S
C694 C688 1.368 . S
C694 C693 1.523 . S
C695 C679 1.429 . S
C695 C691 1.429 . S
C695 C696 1.523 . S
C696 C680 1.368 . S
C696 C692 1.368 . S
C696 C695 1.523 . S
H697 C672 0.950 . S
H698 C674 0.950 . S
H699 C675 0.949 . S
H700 C677 0.950 . S
H701 C679 0.950 . S
C702 C703 1.349 . S
C702 C704 1.327 . S
C702 H727 0.950 . S
C703 C702 1.349 . S
C703 C719 1.349 . S
C704 C702 1.327 . S
C704 C723 1.429 . S
C704 H728 0.950 . S
C705 C722 1.574 . S
C705 C724 1.368 . S
C705 H729 0.949 . S
H706 C710 0.949 . S
C707 C708 1.349 . S
C707 C709 1.327 . S
C707 H730 0.950 . S
C708 C707 1.349 . S
C708 C720 1.349 . S
C709 C707 1.327 . S
C709 C725 1.429 . S
C709 H731 0.950 . S
C710 H706 0.949 . S
C710 C718 1.574 . S
C710 C726 1.368 . S
H711 C719 0.950 . S
H712 C717 0.950 . S
H713 C718 0.949 . S
H714 C720 0.950 . S
H715 C721 0.950 . S
H716 C722 0.949 . S
C717 H712 0.950 . S
C717 C719 1.327 . S
C717 C723 1.429 . S
C718 C710 1.574 . S
C718 H713 0.949 . S
C718 C724 1.368 . S
C719 C703 1.349 . S
C719 H711 0.950 . S
C719 C717 1.327 . S
C720 C708 1.349 . S
C720 H714 0.950 . S
C720 C721 1.327 . S
C721 H715 0.950 . S
C721 C720 1.327 . S
C721 C725 1.429 . S
C722 C705 1.574 . S
C722 H716 0.949 . S
C722 C726 1.368 . S
C723 C704 1.429 . S
C723 C717 1.429 . S
C723 C724 1.523 . S
C724 C705 1.368 . S
C724 C718 1.368 . S
C724 C723 1.523 . S
C725 C709 1.429 . S
C725 C721 1.429 . S
C725 C726 1.523 . S
C726 C710 1.368 . S
C726 C722 1.368 . S
C726 C725 1.523 . S
H727 C702 0.950 . S
H728 C704 0.950 . S
H729 C705 0.949 . S
H730 C707 0.950 . S
H731 C709 0.950 . S
C732 C733 1.349 . S
C732 C734 1.327 . S
C732 H757 0.950 . S
C733 C732 1.349 . S
C733 C749 1.349 . S
C734 C732 1.327 . S
C734 C753 1.429 . S
C734 H758 0.950 . S
C735 C752 1.574 . S
C735 C754 1.368 . S
C735 H759 0.949 . S
H736 C740 0.949 . S
C737 C738 1.349 . S
C737 C739 1.327 . S
C737 H760 0.950 . S
C738 C737 1.349 . S
C738 C750 1.349 . S
C739 C737 1.327 . S
C739 C755 1.429 . S
C739 H761 0.950 . S
C740 H736 0.949 . S
C740 C748 1.574 . S
C740 C756 1.368 . S
H741 C749 0.950 . S
H742 C747 0.950 . S
H743 C748 0.949 . S
H744 C750 0.950 . S
H745 C751 0.950 . S
H746 C752 0.949 . S
C747 H742 0.950 . S
C747 C749 1.327 . S
C747 C753 1.429 . S
C748 C740 1.574 . S
C748 H743 0.949 . S
C748 C754 1.368 . S
C749 C733 1.349 . S
C749 H741 0.950 . S
C749 C747 1.327 . S
C750 C738 1.349 . S
C750 H744 0.950 . S
C750 C751 1.327 . S
C751 H745 0.950 . S
C751 C750 1.327 . S
C751 C755 1.429 . S
C752 C735 1.574 . S
C752 H746 0.949 . S
C752 C756 1.368 . S
C753 C734 1.429 . S
C753 C747 1.429 . S
C753 C754 1.523 . S
C754 C735 1.368 . S
C754 C748 1.368 . S
C754 C753 1.523 . S
C755 C739 1.429 . S
C755 C751 1.429 . S
C755 C756 1.523 . S
C756 C740 1.368 . S
C756 C752 1.368 . S
C756 C755 1.523 . S
H757 C732 0.950 . S
H758 C734 0.950 . S
H759 C735 0.949 . S
H760 C737 0.950 . S
H761 C739 0.950 . S
C762 C763 1.349 . S
C762 C764 1.327 . S
C762 H787 0.950 . S
C763 C762 1.349 . S
C763 C779 1.349 . S
C764 C762 1.327 . S
C764 C783 1.429 . S
C764 H788 0.950 . S
C765 C782 1.574 . S
C765 C784 1.368 . S
C765 H789 0.949 . S
H766 C770 0.949 . S
C767 C768 1.349 . S
C767 C769 1.327 . S
C767 H790 0.950 . S
C768 C767 1.349 . S
C768 C780 1.349 . S
C769 C767 1.327 . S
C769 C785 1.429 . S
C769 H791 0.950 . S
C770 H766 0.949 . S
C770 C778 1.574 . S
C770 C786 1.368 . S
H771 C779 0.950 . S
H772 C777 0.950 . S
H773 C778 0.949 . S
H774 C780 0.950 . S
H775 C781 0.950 . S
H776 C782 0.949 . S
C777 H772 0.950 . S
C777 C779 1.327 . S
C777 C783 1.429 . S
C778 C770 1.574 . S
C778 H773 0.949 . S
C778 C784 1.368 . S
C779 C763 1.349 . S
C779 H771 0.950 . S
C779 C777 1.327 . S
C780 C768 1.349 . S
C780 H774 0.950 . S
C780 C781 1.327 . S
C781 H775 0.950 . S
C781 C780 1.327 . S
C781 C785 1.429 . S
C782 C765 1.574 . S
C782 H776 0.949 . S
C782 C786 1.368 . S
C783 C764 1.429 . S
C783 C777 1.429 . S
C783 C784 1.523 . S
C784 C765 1.368 . S
C784 C778 1.368 . S
C784 C783 1.523 . S
C785 C769 1.429 . S
C785 C781 1.429 . S
C785 C786 1.523 . S
C786 C770 1.368 . S
C786 C782 1.368 . S
C786 C785 1.523 . S
H787 C762 0.950 . S
H788 C764 0.950 . S
H789 C765 0.949 . S
H790 C767 0.950 . S
H791 C769 0.950 . S
C792 C793 1.349 . S
C792 C794 1.327 . S
C792 H817 0.950 . S
C793 C792 1.349 . S
C793 C809 1.349 . S
C794 C792 1.327 . S
C794 C813 1.429 . S
C794 H818 0.950 . S
C795 C812 1.574 . S
C795 C814 1.368 . S
C795 H819 0.949 . S
H796 C800 0.949 . S
C797 C798 1.349 . S
C797 C799 1.327 . S
C797 H820 0.950 . S
C798 C797 1.349 . S
C798 C810 1.349 . S
C799 C797 1.327 . S
C799 C815 1.429 . S
C799 H821 0.950 . S
C800 H796 0.949 . S
C800 C808 1.574 . S
C800 C816 1.368 . S
H801 C809 0.950 . S
H802 C807 0.950 . S
H803 C808 0.949 . S
H804 C810 0.950 . S
H805 C811 0.950 . S
H806 C812 0.949 . S
C807 H802 0.950 . S
C807 C809 1.327 . S
C807 C813 1.429 . S
C808 C800 1.574 . S
C808 H803 0.949 . S
C808 C814 1.368 . S
C809 C793 1.349 . S
C809 H801 0.950 . S
C809 C807 1.327 . S
C810 C798 1.349 . S
C810 H804 0.950 . S
C810 C811 1.327 . S
C811 H805 0.950 . S
C811 C810 1.327 . S
C811 C815 1.429 . S
C812 C795 1.574 . S
C812 H806 0.949 . S
C812 C816 1.368 . S
C813 C794 1.429 . S
C813 C807 1.429 . S
C813 C814 1.523 . S
C814 C795 1.368 . S
C814 C808 1.368 . S
C814 C813 1.523 . S
C815 C799 1.429 . S
C815 C811 1.429 . S
C815 C816 1.523 . S
C816 C800 1.368 . S
C816 C812 1.368 . S
C816 C815 1.523 . S
H817 C792 0.950 . S
H818 C794 0.950 . S
H819 C795 0.949 . S
H820 C797 0.950 . S
H821 C799 0.950 . S
C822 C823 1.349 . S
C822 C824 1.327 . S
C822 H847 0.950 . S
C823 C822 1.349 . S
C823 C839 1.349 . S
C824 C822 1.327 . S
C824 C843 1.429 . S
C824 H848 0.950 . S
C825 C842 1.574 . S
C825 C844 1.368 . S
C825 H849 0.949 . S
H826 C830 0.949 . S
C827 C828 1.349 . S
C827 C829 1.327 . S
C827 H850 0.950 . S
C828 C827 1.349 . S
C828 C840 1.349 . S
C829 C827 1.327 . S
C829 C845 1.429 . S
C829 H851 0.950 . S
C830 H826 0.949 . S
C830 C838 1.574 . S
C830 C846 1.368 . S
H831 C839 0.950 . S
H832 C837 0.950 . S
H833 C838 0.949 . S
H834 C840 0.950 . S
H835 C841 0.950 . S
H836 C842 0.949 . S
C837 H832 0.950 . S
C837 C839 1.327 . S
C837 C843 1.429 . S
C838 C830 1.574 . S
C838 H833 0.949 . S
C838 C844 1.368 . S
C839 C823 1.349 . S
C839 H831 0.950 . S
C839 C837 1.327 . S
C840 C828 1.349 . S
C840 H834 0.950 . S
C840 C841 1.327 . S
C841 H835 0.950 . S
C841 C840 1.327 . S
C841 C845 1.429 . S
C842 C825 1.574 . S
C842 H836 0.949 . S
C842 C846 1.368 . S
C843 C824 1.429 . S
C843 C837 1.429 . S
C843 C844 1.523 . S
C844 C825 1.368 . S
C844 C838 1.368 . S
C844 C843 1.523 . S
C845 C829 1.429 . S
C845 C841 1.429 . S
C845 C846 1.523 . S
C846 C830 1.368 . S
C846 C842 1.368 . S
C846 C845 1.523 . S
H847 C822 0.950 . S
H848 C824 0.950 . S
H849 C825 0.949 . S
H850 C827 0.950 . S
H851 C829 0.950 . S
C852 C853 1.349 . S
C852 C854 1.327 . S
C852 H877 0.950 . S
C853 C852 1.349 . S
C853 C869 1.349 . S
C854 C852 1.327 . S
C854 C873 1.429 . S
C854 H878 0.950 . S
C855 C872 1.574 . S
C855 C874 1.368 . S
C855 H879 0.949 . S
H856 C860 0.949 . S
C857 C858 1.349 . S
C857 C859 1.327 . S
C857 H880 0.950 . S
C858 C857 1.349 . S
C858 C870 1.349 . S
C859 C857 1.327 . S
C859 C875 1.429 . S
C859 H881 0.950 . S
C860 H856 0.949 . S
C860 C868 1.574 . S
C860 C876 1.368 . S
H861 C869 0.950 . S
H862 C867 0.950 . S
H863 C868 0.949 . S
H864 C870 0.950 . S
H865 C871 0.950 . S
H866 C872 0.949 . S
C867 H862 0.950 . S
C867 C869 1.327 . S
C867 C873 1.429 . S
C868 C860 1.574 . S
C868 H863 0.949 . S
C868 C874 1.368 . S
C869 C853 1.349 . S
C869 H861 0.950 . S
C869 C867 1.327 . S
C870 C858 1.349 . S
C870 H864 0.950 . S
C870 C871 1.327 . S
C871 H865 0.950 . S
C871 C870 1.327 . S
C871 C875 1.429 . S
C872 C855 1.574 . S
C872 H866 0.949 . S
C872 C876 1.368 . S
C873 C854 1.429 . S
C873 C867 1.429 . S
C873 C874 1.523 . S
C874 C855 1.368 . S
C874 C868 1.368 . S
C874 C873 1.523 . S
C875 C859 1.429 . S
C875 C871 1.429 . S
C875 C876 1.523 . S
C876 C860 1.368 . S
C876 C872 1.368 . S
C876 C875 1.523 . S
H877 C852 0.950 . S
H878 C854 0.950 . S
H879 C855 0.949 . S
H880 C857 0.950 . S
H881 C859 0.950 . S
C163 C13 1.693 . S
C168 C85 1.686 . S
C193 C27 1.694 . S
C198 C98 1.686 . S
C228 C120 1.626 . S
C223 C29 1.693 . S
C258 C133 1.626 . S
C253 C54 1.694 . S
C288 C146 1.627 . S
C283 C69 1.694 . S
C318 C159 1.627 . S
C313 C83 1.693 . S
C343 C15 1.691 . S
C348 C115 1.610 . S
C373 C41 1.691 . S
C378 C128 1.610 . S
C408 C141 1.610 . S
C403 C42 1.691 . S
C438 C154 1.610 . S
C433 C57 1.690 . S
C463 C71 1.690 . S
C468 C87 1.688 . S
C498 C100 1.688 . S
C493 C1 1.691 . S
C528 C126 1.610 . S
C523 C12 1.691 . S
C553 C26 1.691 . S
C558 C139 1.610 . S
C588 C152 1.610 . S
C583 C28 1.691 . S
C613 C55 1.691 . S
C618 C89 1.688 . S
C643 C68 1.691 . S
C648 C102 1.688 . S
C673 C82 1.690 . S
C678 C113 1.610 . S
C703 C14 1.693 . S
C708 C150 1.626 . S
C738 C94 1.686 . S
C733 C40 1.693 . S
C763 C43 1.694 . S
C768 C107 1.686 . S
C793 C56 1.693 . S
C798 C111 1.626 . S
C823 C70 1.693 . S
C828 C124 1.627 . S
C853 C0 1.694 . S
C858 C137 1.627 . S
