# Generated by pormake.
# Topology zzz, (3,6)-cn, num edge types: 1
# Building blocks:
#     Node 0, Type 0, BuildingBlock: OLANEW_clean_sbu_2, # of connection points: 3
#     Node 1, Type 0, BuildingBlock: OLANEW_clean_sbu_2, # of connection points: 3
#     Node 2, Type 0, BuildingBlock: OLANEW_clean_sbu_2, # of connection points: 3
#     Node 3, Type 0, BuildingBlock: OLANEW_clean_sbu_2, # of connection points: 3
#     Node 4, Type 0, BuildingBlock: OLANEW_clean_sbu_2, # of connection points: 3
#     Node 5, Type 0, BuildingBlock: OLANEW_clean_sbu_2, # of connection points: 3
#     Node 6, Type 0, BuildingBlock: OLANEW_clean_sbu_2, # of connection points: 3
#     Node 7, Type 0, BuildingBlock: OLANEW_clean_sbu_2, # of connection points: 3
#     Node 8, Type 1, BuildingBlock: NUHQIS_clean_sbu_0, # of connection points: 6
#     Node 9, Type 1, BuildingBlock: NUHQIS_clean_sbu_0, # of connection points: 6
#     Node 10, Type 1, BuildingBlock: NUHQIS_clean_sbu_0, # of connection points: 6
#     Node 11, Type 1, BuildingBlock: NUHQIS_clean_sbu_0, # of connection points: 6
#     Edge 12, Type (0, 1), BuildingBlock: ZUJKAS_clean_linker_0, # of connection points: 2
#     Edge 13, Type (0, 1), BuildingBlock: ZUJKAS_clean_linker_0, # of connection points: 2
#     Edge 14, Type (0, 1), BuildingBlock: ZUJKAS_clean_linker_0, # of connection points: 2
#     Edge 15, Type (0, 1), BuildingBlock: ZUJKAS_clean_linker_0, # of connection points: 2
#     Edge 16, Type (0, 1), BuildingBlock: ZUJKAS_clean_linker_0, # of connection points: 2
#     Edge 17, Type (0, 1), BuildingBlock: ZUJKAS_clean_linker_0, # of connection points: 2
#     Edge 18, Type (0, 1), BuildingBlock: ZUJKAS_clean_linker_0, # of connection points: 2
#     Edge 19, Type (0, 1), BuildingBlock: ZUJKAS_clean_linker_0, # of connection points: 2
#     Edge 20, Type (0, 1), BuildingBlock: ZUJKAS_clean_linker_0, # of connection points: 2
#     Edge 21, Type (0, 1), BuildingBlock: ZUJKAS_clean_linker_0, # of connection points: 2
#     Edge 22, Type (0, 1), BuildingBlock: ZUJKAS_clean_linker_0, # of connection points: 2
#     Edge 23, Type (0, 1), BuildingBlock: ZUJKAS_clean_linker_0, # of connection points: 2
#     Edge 24, Type (0, 1), BuildingBlock: ZUJKAS_clean_linker_0, # of connection points: 2
#     Edge 25, Type (0, 1), BuildingBlock: ZUJKAS_clean_linker_0, # of connection points: 2
#     Edge 26, Type (0, 1), BuildingBlock: ZUJKAS_clean_linker_0, # of connection points: 2
#     Edge 27, Type (0, 1), BuildingBlock: ZUJKAS_clean_linker_0, # of connection points: 2
#     Edge 28, Type (0, 1), BuildingBlock: ZUJKAS_clean_linker_0, # of connection points: 2
#     Edge 29, Type (0, 1), BuildingBlock: ZUJKAS_clean_linker_0, # of connection points: 2
#     Edge 30, Type (0, 1), BuildingBlock: ZUJKAS_clean_linker_0, # of connection points: 2
#     Edge 31, Type (0, 1), BuildingBlock: ZUJKAS_clean_linker_0, # of connection points: 2
#     Edge 32, Type (0, 1), BuildingBlock: ZUJKAS_clean_linker_0, # of connection points: 2
#     Edge 33, Type (0, 1), BuildingBlock: ZUJKAS_clean_linker_0, # of connection points: 2
#     Edge 34, Type (0, 1), BuildingBlock: ZUJKAS_clean_linker_0, # of connection points: 2
#     Edge 35, Type (0, 1), BuildingBlock: ZUJKAS_clean_linker_0, # of connection points: 2
# Relax obj value: 0.197
# Max RMSD: 0.146
# Mean RMSD: 0.144
data_MOF--net-zzz--node1-OLANEW_clean_sbu_2--node2-NUHQIS_clean_sbu_0--edge1-ZUJKAS_clean_linker_0
_symmetry_space_group_name_H-M    P1
_symmetry_Int_Tables_number       1
_symmetry_cell_setting            triclinic
loop_
_symmetry_equiv_pos_as_xyz
'x, y, z'
_cell_length_a     71.335778
_cell_length_b     71.43161
_cell_length_c     20.234416
_cell_angle_alpha  90.091236
_cell_angle_beta   89.816548
_cell_angle_gamma 90.016964
loop_
_atom_site_label
_atom_site_type_symbol
_atom_site_fract_x
_atom_site_fract_y
_atom_site_fract_z
_atom_type_partial_charge
O0 O 0.74061 0.5263 0.18964 0.0
Cd1 Cd 0.71054 0.53397 0.24082 0.0
O2 O 0.74482 0.50604 0.26947 0.0
Cd3 Cd 0.76408 0.48909 0.32737 0.0
O4 O 0.79183 0.48779 0.37102 0.0
C5 C 0.80072 0.5032 0.36938 0.0
O6 O 0.79264 0.51785 0.34252 0.0
C7 C 0.75083 0.51413 0.21764 0.0
C8 C 0.68039 0.52906 0.15563 0.0
O9 O 0.68927 0.54465 0.158 0.0
O10 O 0.68586 0.51575 0.19336 0.0
O11 O 0.95794 0.74952 0.26894 0.0
Cd12 Cd 0.94986 0.7193 0.31736 0.0
O13 O 0.98268 0.75079 0.3328 0.0
Cd14 Cd 0.01016 0.76162 0.36215 0.0
O15 O 0.04157 0.76175 0.38491 0.0
C16 C 0.05079 0.77405 0.4176 0.0
O17 O 0.04196 0.76122 0.38409 0.0
C18 C 0.97264 0.758 0.28772 0.0
C19 C 0.96052 0.69035 0.23254 0.0
O20 O 0.94413 0.69764 0.22922 0.0
O21 O 0.97181 0.69665 0.27645 0.0
O22 O 0.75203 0.97718 0.19686 0.0
Cd23 Cd 0.78215 0.96508 0.23574 0.0
O24 O 0.74574 0.98661 0.29729 0.0
Cd25 Cd 0.73212 0.001 0.38022 0.0
O26 O 0.73725 0.01454 0.48082 0.0
C27 C 0.72739 0.0126 0.53335 0.0
O28 O 0.73785 0.01498 0.48113 0.0
C29 C 0.74085 0.98514 0.2371 0.0
C30 C 0.81135 0.96976 0.14475 0.0
O31 O 0.80108 0.95503 0.14406 0.0
O32 O 0.8077 0.98236 0.18808 0.0
O33 O 0.54522 0.75787 0.1917 0.0
Cd34 Cd 0.55687 0.78649 0.2432 0.0
O35 O 0.51825 0.76332 0.24014 0.0
Cd36 Cd 0.49185 0.75269 0.27942 0.0
O37 O 0.48482 0.72644 0.32728 0.0
C38 C 0.49942 0.71731 0.34299 0.0
O39 O 0.51592 0.72477 0.33102 0.0
C40 C 0.52847 0.7529 0.20386 0.0
C41 C 0.54809 0.81793 0.1688 0.0
O42 O 0.56363 0.80923 0.16026 0.0
O43 O 0.53671 0.81175 0.21281 0.0
O44 O 0.2565 0.52195 0.03884 0.0
Cd45 Cd 0.28903 0.52214 0.00056 0.0
O46 O 0.25638 0.49171 0.02167 0.0
Cd47 Cd 0.24486 0.46335 0.01689 0.0
O48 O 0.24019 0.43179 0.01013 0.0
C49 C 0.22627 0.42381 0.98183 0.0
O50 O 0.2407 0.43129 0.01119 0.0
C51 C 0.24789 0.50639 0.04105 0.0
C52 C 0.3142 0.51605 0.10384 0.0
O53 O 0.30934 0.53266 0.08726 0.0
O54 O 0.30712 0.5023 0.07164 0.0
O55 O 0.97429 0.26854 0.14121 0.0
Cd56 Cd 0.97603 0.30076 0.102 0.0
O57 O 0.00268 0.26374 0.103 0.0
Cd58 Cd 0.02485 0.24452 0.07268 0.0
O59 O 0.03184 0.2172 0.03214 0.0
C60 C 0.018 0.20905 0.00512 0.0
O61 O 0.00172 0.21765 0.00417 0.0
C62 C 0.98805 0.25758 0.13179 0.0
C63 C 0.98543 0.32564 0.20257 0.0
O64 O 0.96831 0.32115 0.19168 0.0
O65 O 0.99814 0.31829 0.16589 0.0
O66 O 0.24412 0.97482 0.04981 0.0
Cd67 Cd 0.21203 0.97529 0.00765 0.0
O68 O 0.24959 0.00228 0.00591 0.0
Cd69 Cd 0.26425 0.0288 0.98814 0.0
O70 O 0.26706 0.06041 0.97331 0.0
C71 C 0.27942 0.06925 0.93945 0.0
O72 O 0.26659 0.06081 0.97438 0.0
C73 C 0.25532 0.98835 0.03933 0.0
C74 C 0.1855 0.98194 0.1069 0.0
O75 O 0.19125 0.96532 0.0941 0.0
O76 O 0.19237 0.99546 0.07296 0.0
O77 O 0.53157 0.23337 0.07694 0.0
Cd78 Cd 0.52822 0.20317 0.0224 0.0
O79 O 0.50084 0.2339 0.08023 0.0
Cd80 Cd 0.47518 0.25023 0.09119 0.0
O81 O 0.46537 0.27776 0.06115 0.0
C82 C 0.47631 0.28521 0.01907 0.0
O83 O 0.49116 0.27577 -0.00038 0.0
C84 C 0.51648 0.24161 0.09329 0.0
C85 C 0.51781 0.17655 0.11551 0.0
O86 O 0.53506 0.17901 0.09991 0.0
O87 O 0.50543 0.1865 0.08618 0.0
Tb88 Tb 0.01723 0.98576 0.71362 0.0
Eu89 Eu 0.9925 0.00311 0.59063 0.0
C90 C 0.03653 0.9987 0.58078 0.0
C91 C 0.0125 0.02892 0.69951 0.0
C92 C 0.03057 0.95639 0.85577 0.0
C93 C 0.04092 0.9318 0.92974 0.0
C94 C 0.04504 0.94675 0.88762 0.0
C95 C 0.01188 0.95112 0.86713 0.0
C96 C 0.00774 0.93625 0.90954 0.0
C97 C 0.02224 0.9263 0.94073 0.0
C98 C 0.03511 0.97113 0.80787 0.0
O99 O 0.98943 0.99176 0.7534 0.0
O100 O 0.97181 0.98939 0.65919 0.0
O101 O 0.99868 0.97289 0.56694 0.0
O102 O 0.00124 0.96257 0.67345 0.0
C103 C 0.9732 0.98944 0.72387 0.0
O104 O 0.96876 0.01948 0.55509 0.0
O105 O 0.98787 0.00675 0.48491 0.0
O106 O 0.02259 0.01022 0.56973 0.0
O107 O 0.03544 0.98578 0.62684 0.0
O108 O 0.02439 0.01529 0.71104 0.0
O109 O 0.99731 0.02622 0.6643 0.0
C110 C 0.99927 0.95919 0.61011 0.0
O111 O 0.0364 0.96557 0.74671 0.0
O112 O 0.02553 0.9866 0.81307 0.0
C113 C 0.97545 0.03626 0.45818 0.0
C114 C 0.97771 0.07115 0.39356 0.0
C115 C 0.96277 0.05879 0.38059 0.0
C116 C 0.96166 0.04149 0.4127 0.0
C117 C 0.99045 0.04841 0.47097 0.0
C118 C 0.9916 0.06568 0.43887 0.0
C119 C 0.97394 0.01835 0.49334 0.0
H120 H 0.05236 0.92449 0.95351 0.0
H121 H 0.05954 0.9506 0.87909 0.0
H122 H 1.00052 0.95828 0.84227 0.0
H123 H 0.99324 0.93218 0.91632 0.0
H124 H 0.95171 0.06266 0.3467 0.0
H125 H 0.94994 0.03229 0.40255 0.0
H126 H 0.00123 0.04456 0.50606 0.0
H127 H 0.00341 0.07472 0.44938 0.0
Tb128 Tb 0.50262 0.01686 0.72612 0.0
Eu129 Eu 0.48769 0.98751 0.61203 0.0
C130 C 0.48919 0.03203 0.5901 0.0
C131 C 0.45959 0.00829 0.71009 0.0
C132 C 0.53403 0.03638 0.8511 0.0
C133 C 0.55346 0.04467 0.945 0.0
C134 C 0.53673 0.04653 0.90958 0.0
C135 C 0.54824 0.02444 0.82805 0.0
C136 C 0.56494 0.02262 0.86318 0.0
C137 C 0.56772 0.03264 0.92227 0.0
C138 C 0.51612 0.03741 0.81577 0.0
O139 O 0.5126 0.98927 0.75438 0.0
O140 O 0.48941 0.97168 0.70752 0.0
O141 O 0.51905 0.98374 0.61728 0.0
O142 O 0.52526 0.01335 0.65498 0.0
C143 C 0.5027 0.97381 0.75146 0.0
O144 O 0.46871 0.96521 0.58116 0.0
O145 O 0.48932 0.97603 0.51226 0.0
O146 O 0.49222 0.01545 0.56411 0.0
O147 O 0.48844 0.03454 0.65444 0.0
O148 O 0.47363 0.01045 0.75125 0.0
O149 O 0.46237 0.00327 0.64842 0.0
C150 C 0.53071 0.99774 0.62643 0.0
O151 O 0.51726 0.04122 0.75292 0.0
O152 O 0.50467 0.02355 0.82696 0.0
C153 C 0.45979 0.96743 0.46999 0.0
C154 C 0.42979 0.97095 0.38063 0.0
C155 C 0.43635 0.95316 0.39939 0.0
C156 C 0.45125 0.95143 0.44368 0.0
C157 C 0.45347 0.98522 0.45086 0.0
C158 C 0.43865 0.98697 0.40628 0.0
C159 C 0.47453 0.96549 0.52001 0.0
H160 H 0.55524 0.05267 0.99005 0.0
H161 H 0.52585 0.05573 0.92818 0.0
H162 H 0.54629 0.0163 0.78333 0.0
H163 H 0.57549 0.01301 0.84486 0.0
H164 H 0.42991 0.94057 0.37999 0.0
H165 H 0.45592 0.93761 0.45817 0.0
H166 H 0.45978 0.99775 0.47131 0.0
H167 H 0.43376 0.00084 0.39345 0.0
Tb168 Tb 0.47389 0.50898 0.73484 0.0
Eu169 Eu 0.4992 0.48922 0.61597 0.0
C170 C 0.45523 0.4945 0.60193 0.0
C171 C 0.47727 0.46549 0.72708 0.0
C172 C 0.46201 0.54218 0.86732 0.0
C173 C 0.45312 0.56986 0.92987 0.0
C174 C 0.44815 0.55361 0.89541 0.0
C175 C 0.48095 0.547 0.87506 0.0
C176 C 0.48595 0.56319 0.90971 0.0
C177 C 0.47209 0.57499 0.93674 0.0
C178 C 0.45665 0.52615 0.82575 0.0
O179 O 0.50132 0.5026 0.77619 0.0
O180 O 0.51929 0.50425 0.68255 0.0
O181 O 0.49375 0.51896 0.58585 0.0
O182 O 0.4901 0.53127 0.68965 0.0
C183 C 0.51765 0.50483 0.74704 0.0
O184 O 0.52291 0.47168 0.58692 0.0
O185 O 0.50549 0.48441 0.51186 0.0
O186 O 0.46922 0.48291 0.59186 0.0
O187 O 0.45583 0.50749 0.64811 0.0
O188 O 0.46592 0.47967 0.73767 0.0
O189 O 0.49272 0.46724 0.69209 0.0
C190 C 0.49286 0.53337 0.62597 0.0
O191 O 0.4548 0.52991 0.76318 0.0
O192 O 0.46601 0.5107 0.83487 0.0
C193 C 0.51852 0.45485 0.48813 0.0
C194 C 0.51795 0.42049 0.41936 0.0
C195 C 0.53426 0.43158 0.42035 0.0
C196 C 0.53452 0.44861 0.45443 0.0
C197 C 0.50223 0.44386 0.48771 0.0
C198 C 0.50192 0.42684 0.45348 0.0
C199 C 0.51908 0.47271 0.52404 0.0
H200 H 0.44207 0.57873 0.94918 0.0
H201 H 0.43345 0.55021 0.88927 0.0
H202 H 0.49188 0.53843 0.85326 0.0
H203 H 0.50068 0.56652 0.91482 0.0
H204 H 0.54693 0.42698 0.39556 0.0
H205 H 0.54725 0.45689 0.4547 0.0
H206 H 0.48975 0.44847 0.5137 0.0
H207 H 0.48907 0.41877 0.45314 0.0
Tb208 Tb 0.007 0.49446 0.78581 0.0
Eu209 Eu 0.02507 0.52062 0.6666 0.0
C210 C 0.02049 0.47581 0.65402 0.0
C211 C 0.05063 0.49966 0.7716 0.0
C212 C 0.97283 0.47888 0.90924 0.0
C213 C 0.94966 0.46973 0.99118 0.0
C214 C 0.96739 0.46752 0.96229 0.0
C215 C 0.96039 0.49246 0.88522 0.0
C216 C 0.94272 0.49468 0.914 0.0
C217 C 0.93714 0.48338 0.96744 0.0
C218 C 0.99142 0.47674 0.87885 0.0
O219 O 0.99788 0.52302 0.80386 0.0
O220 O 0.02247 0.53873 0.75727 0.0
O221 O 0.99393 0.5253 0.66298 0.0
O222 O 0.985 0.49781 0.71282 0.0
C223 C 0.00844 0.53798 0.79923 0.0
O224 O 0.04628 0.54032 0.632 0.0
O225 O 0.0246 0.53088 0.56508 0.0
O226 O 0.01975 0.49208 0.62402 0.0
O227 O 0.01987 0.47435 0.71879 0.0
O228 O 0.03619 0.49939 0.81211 0.0
O229 O 0.04867 0.5037 0.70882 0.0
C230 C 0.98127 0.51244 0.67584 0.0
O231 O 0.99143 0.47117 0.81751 0.0
O232 O 0.00286 0.49074 0.88777 0.0
C233 C 0.0546 0.53568 0.52047 0.0
C234 C 0.08155 0.52737 0.42243 0.0
C235 C 0.06952 0.54287 0.41554 0.0
C236 C 0.05616 0.54698 0.46423 0.0
C237 C 0.06639 0.5201 0.52735 0.0
C238 C 0.07978 0.51602 0.47893 0.0
C239 C 0.04039 0.5399 0.57099 0.0
H240 H 0.94586 0.46093 0.03264 0.0
H241 H 0.97685 0.45701 0.98146 0.0
H242 H 0.96436 0.50132 0.84405 0.0
H243 H 0.93334 0.50511 0.8938 0.0
H244 H 0.07031 0.55174 0.3723 0.0
H245 H 0.04703 0.55895 0.45788 0.0
H246 H 0.06528 0.51114 0.57036 0.0
H247 H 0.08897 0.50415 0.48642 0.0
H248 H 0.17139 0.95692 0.19626 0.0
H249 H 0.14709 0.9624 0.27984 0.0
H250 H 0.14275 0.01995 0.21819 0.0
H251 H 0.16715 0.01469 0.13464 0.0
H252 H 0.14725 0.99381 0.38554 0.0
H253 H 0.08803 0.99479 0.20661 0.0
H254 H 0.10994 0.98318 0.18839 0.0
H255 H 0.1087 0.00824 0.18728 0.0
C256 C 0.16532 0.97076 0.20052 0.0
C257 C 0.17116 0.98536 0.15864 0.0
C258 C 0.15148 0.97386 0.24837 0.0
C259 C 0.14311 0.99153 0.25473 0.0
C260 C 0.14901 0.00619 0.21363 0.0
H261 H 0.0454 0.025 0.48721 0.0
H262 H 0.07221 0.02489 0.41147 0.0
C263 C 0.16296 0.00316 0.16607 0.0
C264 C 0.12802 0.9945 0.30391 0.0
H265 H 0.08061 0.99926 0.31878 0.0
C266 C 0.13267 0.99508 0.37115 0.0
C267 C 0.1091 0.99629 0.28465 0.0
C268 C 0.10348 0.99552 0.21288 0.0
C269 C 0.11881 0.99736 0.41995 0.0
C270 C 0.09976 0.99857 0.40088 0.0
C271 C 0.09519 0.99832 0.33339 0.0
C272 C 0.08425 0.99934 0.44997 0.0
C273 C 0.12475 0.9987 0.4913 0.0
C274 C 0.08208 0.98502 0.49679 0.0
C275 C 0.06688 0.98512 0.54049 0.0
C276 C 0.05333 0.9994 0.53759 0.0
C277 C 0.05558 0.0138 0.49087 0.0
C278 C 0.07089 0.01376 0.44748 0.0
H279 H 0.13945 0.00368 0.49571 0.0
H280 H 0.1155 0.00832 0.51966 0.0
H281 H 0.12395 0.98461 0.51415 0.0
H282 H 0.0919 0.97347 0.49852 0.0
H283 H 0.0655 0.97371 0.57535 0.0
H284 H 0.53979 0.14971 0.17137 0.0
H285 H 0.53098 0.12714 0.25653 0.0
H286 H 0.47513 0.15026 0.26264 0.0
H287 H 0.48369 0.17254 0.17585 0.0
H288 H 0.51915 0.13302 0.38171 0.0
H289 H 0.46437 0.09511 0.23991 0.0
H290 H 0.48033 0.11142 0.20156 0.0
H291 H 0.46047 0.11984 0.24775 0.0
C292 C 0.5256 0.14992 0.19052 0.0
C293 C 0.5124 0.1628 0.16659 0.0
C294 C 0.5206 0.13705 0.2393 0.0
C295 C 0.50233 0.13686 0.26533 0.0
C296 C 0.48917 0.14987 0.24218 0.0
H297 H 0.48223 0.06881 0.6221 0.0
H298 H 0.48266 0.09575 0.54721 0.0
C299 C 0.49411 0.16264 0.19281 0.0
C300 C 0.49733 0.12312 0.31723 0.0
H301 H 0.46897 0.08579 0.35043 0.0
C302 C 0.50811 0.12274 0.37513 0.0
C303 C 0.48296 0.10971 0.30824 0.0
C304 C 0.47146 0.10886 0.24582 0.0
C305 C 0.50532 0.10896 0.42347 0.0
C306 C 0.49098 0.09551 0.41443 0.0
C307 C 0.47983 0.09624 0.35745 0.0
C308 C 0.48873 0.07936 0.45962 0.0
C309 C 0.51837 0.10839 0.48203 0.0
C310 C 0.49113 0.0612 0.43472 0.0
C311 C 0.49062 0.04583 0.47697 0.0
C312 C 0.48779 0.04829 0.54525 0.0
C313 C 0.48463 0.06645 0.56987 0.0
C314 C 0.48498 0.08187 0.52724 0.0
H315 H 0.53106 0.11715 0.47411 0.0
H316 H 0.51094 0.1138 0.52635 0.0
H317 H 0.52291 0.09382 0.49243 0.0
H318 H 0.49397 0.05893 0.38268 0.0
H319 H 0.49301 0.03205 0.45612 0.0
H320 H 0.32552 0.48255 0.15576 0.0
H321 H 0.34834 0.47738 0.244 0.0
H322 H 0.35633 0.53698 0.26267 0.0
H323 H 0.33357 0.54231 0.17446 0.0
H324 H 0.39012 0.51527 0.25219 0.0
H325 H 0.34149 0.48826 0.4451 0.0
H326 H 0.33995 0.47716 0.36546 0.0
H327 H 0.33346 0.50131 0.37422 0.0
C328 C 0.33205 0.49457 0.17883 0.0
C329 C 0.3277 0.51285 0.15813 0.0
C330 C 0.34502 0.49159 0.22946 0.0
C331 C 0.35384 0.50681 0.26026 0.0
C332 C 0.34958 0.52506 0.23966 0.0
H333 H 0.42292 0.51512 0.60891 0.0
H334 H 0.39796 0.51691 0.52656 0.0
C335 C 0.33656 0.52807 0.1893 0.0
C336 C 0.36804 0.50375 0.31237 0.0
H337 H 0.37393 0.48742 0.46956 0.0
C338 C 0.38661 0.50916 0.29969 0.0
C339 C 0.36334 0.49591 0.37438 0.0
C340 C 0.34346 0.49043 0.39116 0.0
C341 C 0.40067 0.50683 0.34731 0.0
C342 C 0.39603 0.49873 0.40896 0.0
C343 C 0.37743 0.49345 0.42194 0.0
C344 C 0.41027 0.49629 0.46125 0.0
C345 C 0.42032 0.51335 0.33186 0.0
C346 C 0.42516 0.4837 0.45251 0.0
C347 C 0.43943 0.48257 0.49953 0.0
C348 C 0.43907 0.49407 0.55609 0.0
C349 C 0.4237 0.50613 0.56584 0.0
C350 C 0.4094 0.50717 0.5189 0.0
H351 H 0.4208 0.52247 0.28746 0.0
H352 H 0.4263 0.52115 0.37439 0.0
H353 H 0.42937 0.50099 0.32243 0.0
H354 H 0.42593 0.47503 0.40862 0.0
H355 H 0.45101 0.4731 0.49045 0.0
H356 H 0.01974 0.34104 0.2286 0.0
H357 H 0.02729 0.36471 0.3118 0.0
H358 H 0.96983 0.36439 0.37889 0.0
H359 H 0.96207 0.34105 0.29492 0.0
H360 H 0.98254 0.39936 0.35748 0.0
H361 H 0.03376 0.36045 0.51019 0.0
H362 H 0.03976 0.36085 0.42399 0.0
H363 H 0.01879 0.34905 0.45069 0.0
C364 C 0.00875 0.34588 0.26149 0.0
C365 C 0.9903 0.33919 0.25514 0.0
C366 C 0.01312 0.35931 0.30935 0.0
C367 C 0.99919 0.3661 0.35225 0.0
C368 C 0.98082 0.35926 0.34651 0.0
H369 H 0.01275 0.4398 0.69217 0.0
H370 H 0.00851 0.41255 0.62001 0.0
C371 C 0.9764 0.34593 0.29845 0.0
C372 C 0.00341 0.38127 0.4 0.0
H373 H 0.03175 0.39344 0.52893 0.0
C374 C 0.99323 0.39801 0.39519 0.0
C375 C 0.01722 0.37941 0.44965 0.0
C376 C 0.02789 0.36141 0.45952 0.0
C377 C 0.99669 0.41308 0.43786 0.0
C378 C 0.01103 0.41152 0.48569 0.0
C379 C 0.02095 0.39466 0.49157 0.0
C380 C 0.0157 0.42731 0.53015 0.0
C381 C 0.98476 0.43045 0.43185 0.0
C382 C 0.02185 0.44438 0.50374 0.0
C383 C 0.02419 0.45995 0.5446 0.0
C384 C 0.02061 0.45868 0.61285 0.0
C385 C 0.01559 0.44124 0.63981 0.0
C386 C 0.01314 0.42567 0.59869 0.0
H387 H 0.97141 0.42755 0.40562 0.0
H388 H 0.98143 0.4364 0.48125 0.0
H389 H 0.99255 0.44118 0.40317 0.0
H390 H 0.02433 0.44581 0.45114 0.0
H391 H 0.02832 0.47311 0.52235 0.0
H392 H 0.83622 0.99885 0.13637 0.0
H393 H 0.8629 0.00196 0.06098 0.0
H394 H 0.849 0.94896 0.97134 0.0
H395 H 0.82242 0.94559 0.04713 0.0
H396 H 0.88656 0.95208 0.00237 0.0
H397 H 0.86247 0.01456 0.86414 0.0
H398 H 0.86271 0.01774 0.95217 0.0
H399 H 0.84701 0.00093 0.91601 0.0
C400 C 0.83875 0.9879 0.10034 0.0
C401 C 0.82715 0.97199 0.09767 0.0
C402 C 0.85395 0.98976 0.05702 0.0
C403 C 0.85777 0.97582 0.00989 0.0
C404 C 0.84624 0.95992 0.00711 0.0
H405 H 0.93685 0.98551 0.68219 0.0
H406 H 0.90878 0.9815 0.75061 0.0
C407 C 0.83104 0.95804 0.05044 0.0
C408 C 0.87422 0.97746 0.9652 0.0
H409 H 0.89417 0.00525 0.8471 0.0
C410 C 0.88819 0.96365 0.96816 0.0
C411 C 0.87621 0.99244 0.92005 0.0
C412 C 0.86123 0.00718 0.91226 0.0
C413 C 0.90429 0.96463 0.92821 0.0
C414 C 0.90661 0.97998 0.88487 0.0
C415 C 0.89245 0.99358 0.88082 0.0
C416 C 0.92367 0.98225 0.84356 0.0
C417 C 0.91857 0.94909 0.93224 0.0
C418 C 0.94133 0.98419 0.87316 0.0
C419 C 0.95739 0.98645 0.83428 0.0
C420 C 0.95612 0.98694 0.7649 0.0
C421 C 0.93837 0.98514 0.73541 0.0
C422 C 0.9223 0.98288 0.77442 0.0
H423 H 0.91243 0.93612 0.95354 0.0
H424 H 0.92444 0.94578 0.88269 0.0
H425 H 0.93026 0.95358 0.96463 0.0
H426 H 0.94267 0.98412 0.92646 0.0
H427 H 0.9708 0.98785 0.85875 0.0
H428 H 0.51544 0.83799 0.16961 0.0
H429 H 0.50739 0.86481 0.10015 0.0
H430 H 0.56203 0.86238 0.0087 0.0
H431 H 0.57011 0.8354 0.07704 0.0
H432 H 0.52454 0.89972 0.0885 0.0
H433 H 0.5264 0.86085 0.85088 0.0
H434 H 0.52604 0.84922 0.93 0.0
H435 H 0.54754 0.85886 0.89826 0.0
C436 C 0.52574 0.84315 0.13468 0.0
C437 C 0.54336 0.83448 0.12843 0.0
C438 C 0.52113 0.85848 0.09514 0.0
C439 C 0.53401 0.86536 0.04863 0.0
C440 C 0.55175 0.85702 0.04335 0.0
H441 H 0.53086 0.97189 0.84285 0.0
H442 H 0.5381 0.94584 0.91671 0.0
C443 C 0.55636 0.84166 0.08266 0.0
C444 C 0.52891 0.88127 0.00561 0.0
H445 H 0.52387 0.89394 0.84414 0.0
C446 C 0.52433 0.89848 0.03508 0.0
C447 C 0.52839 0.87948 0.93602 0.0
C448 C 0.53218 0.86107 0.90181 0.0
C449 C 0.51955 0.91409 -0.00339 0.0
C450 C 0.51969 0.91246 0.92694 0.0
C451 C 0.52397 0.89517 0.89758 0.0
C452 C 0.51515 0.92843 0.88334 0.0
C453 C 0.51411 0.93207 0.03089 0.0
C454 C 0.50011 0.9271 0.83912 0.0
C455 C 0.49604 0.94186 0.79643 0.0
C456 C 0.50699 0.95824 0.79702 0.0
C457 C 0.52209 0.95952 0.84135 0.0
C458 C 0.52618 0.9447 0.88392 0.0
H459 H 0.50994 0.92962 0.08312 0.0
H460 H 0.52628 0.94175 0.03078 0.0
H461 H 0.50234 0.93905 0.00493 0.0
H462 H 0.49149 0.91461 0.83774 0.0
H463 H 0.48431 0.94041 0.76297 0.0
H464 H 0.65721 0.4987 0.14606 0.0
H465 H 0.62996 0.49495 0.07424 0.0
H466 H 0.63965 0.54987 0.99264 0.0
H467 H 0.66671 0.55389 0.06518 0.0
H468 H 0.60283 0.54407 0.02633 0.0
H469 H 0.62969 0.48475 0.87636 0.0
H470 H 0.63012 0.48042 0.9637 0.0
H471 H 0.64462 0.49858 0.92926 0.0
C472 C 0.65361 0.50995 0.11259 0.0
C473 C 0.66416 0.52657 0.11114 0.0
C474 C 0.6381 0.50773 0.07132 0.0
C475 C 0.63297 0.52201 0.02738 0.0
C476 C 0.64343 0.53865 0.02599 0.0
H477 H 0.55366 0.51069 0.70477 0.0
H478 H 0.58152 0.51564 0.7726 0.0
C479 C 0.6589 0.54091 0.06742 0.0
C480 C 0.61636 0.51985 0.9843 0.0
H481 H 0.59736 0.49222 0.86414 0.0
C482 C 0.60166 0.53279 0.99062 0.0
C483 C 0.61499 0.50527 0.93719 0.0
C484 C 0.63076 0.49156 0.92561 0.0
C485 C 0.58544 0.53134 0.9519 0.0
C486 C 0.58376 0.51633 0.9066 0.0
C487 C 0.59861 0.5036 0.8994 0.0
C488 C 0.56675 0.51362 0.86589 0.0
C489 C 0.57038 0.54605 0.95918 0.0
C490 C 0.54924 0.51068 0.89591 0.0
C491 C 0.53327 0.50793 0.85733 0.0
C492 C 0.53455 0.50787 0.78793 0.0
C493 C 0.55216 0.51066 0.75805 0.0
C494 C 0.56811 0.51348 0.79671 0.0
H495 H 0.57596 0.55912 0.98155 0.0
H496 H 0.56405 0.54949 0.91064 0.0
H497 H 0.55915 0.54065 0.99206 0.0
H498 H 0.54796 0.51034 0.94924 0.0
H499 H 0.51995 0.50574 0.88199 0.0
H500 H 0.99445 0.6726 0.22582 0.0
H501 H 0.00393 0.64772 0.14945 0.0
H502 H 0.94911 0.64876 0.0603 0.0
H503 H 0.93958 0.67379 0.13577 0.0
H504 H 0.98842 0.61246 0.1341 0.0
H505 H 0.98415 0.65276 0.90055 0.0
H506 H 0.98421 0.66386 0.98079 0.0
H507 H 0.96305 0.65357 0.94911 0.0
C508 C 0.98442 0.66759 0.18979 0.0
C509 C 0.96627 0.67522 0.18671 0.0
C510 C 0.98987 0.65338 0.14621 0.0
C511 C 0.97732 0.64661 0.09856 0.0
C512 C 0.95915 0.65407 0.09574 0.0
H513 H 0.98007 0.54142 0.88944 0.0
H514 H 0.97334 0.56801 0.96151 0.0
C515 C 0.95369 0.66829 0.13923 0.0
C516 C 0.98301 0.63128 0.05335 0.0
H517 H 0.98741 0.61965 0.89026 0.0
C518 C 0.98832 0.61406 0.0808 0.0
C519 C 0.98311 0.63349 0.98387 0.0
C520 C 0.9785 0.65197 0.95172 0.0
C521 C 0.99323 0.59881 0.04056 0.0
C522 C 0.99253 0.60078 0.97105 0.0
C523 C 0.98774 0.61815 0.94358 0.0
C524 C 0.99647 0.58487 0.92611 0.0
C525 C 0.99925 0.58076 0.07281 0.0
C526 C 0.01139 0.58576 0.88087 0.0
C527 C 0.01524 0.5706 0.83913 0.0
C528 C 0.00415 0.55433 0.84174 0.0
C529 C 0.98899 0.55367 0.88633 0.0
C530 C 0.98516 0.56882 0.92791 0.0
H531 H 0.00393 0.58305 0.12453 0.0
H532 H 0.98722 0.57092 0.07393 0.0
H533 H 0.01084 0.57405 0.04467 0.0
H534 H 0.0202 0.5981 0.87847 0.0
H535 H 0.02699 0.57159 0.80527 0.0
H536 H 0.01559 0.23521 0.18196 0.0
H537 H 0.01304 0.20239 0.21497 0.0
H538 H 0.9544 0.20262 0.16376 0.0
H539 H 0.95698 0.23545 0.1295 0.0
H540 H 0.96146 0.18842 0.28835 0.0
H541 H 0.0079 0.15473 0.1025 0.0
H542 H 0.01804 0.17476 0.14259 0.0
H543 H 0.99777 0.17766 0.09114 0.0
C544 C 0.0023 0.22811 0.17583 0.0
C545 C 0.98661 0.23772 0.15146 0.0
C546 C 1.00084 0.20937 0.19497 0.0
C547 C 0.98363 0.19994 0.19041 0.0
C548 C 0.96787 0.20959 0.16693 0.0
H549 H 0.96955 0.08004 0.26483 0.0
H550 H 0.97006 0.11105 0.21331 0.0
C551 C 0.96933 0.22832 0.14765 0.0
C552 C 0.98182 0.18046 0.21473 0.0
H553 H 0.99935 0.13627 0.19607 0.0
C554 C 0.96963 0.17699 0.26785 0.0
C555 C 0.99227 0.16552 0.18722 0.0
C556 C 0.00462 0.16823 0.12731 0.0
C557 C 0.96806 0.15908 0.29572 0.0
C558 C 0.97929 0.14435 0.27063 0.0
C559 C 0.99098 0.14766 0.21591 0.0
C560 C 0.97927 0.12552 0.30141 0.0
C561 C 0.95432 0.15611 0.35159 0.0
C562 C 0.98456 0.12335 0.36768 0.0
C563 C 0.98413 0.10572 0.39739 0.0
C564 C 0.97856 0.08983 0.36123 0.0
C565 C 0.97363 0.09201 0.29437 0.0
C566 C 0.97404 0.10969 0.26471 0.0
H567 H 0.94318 0.16697 0.35187 0.0
H568 H 0.9476 0.14212 0.34823 0.0
H569 H 0.96187 0.15699 0.39936 0.0
H570 H 0.98898 0.13533 0.39658 0.0
H571 H 0.98787 0.1046 0.44906 0.0
H572 H 0.26633 0.97004 0.15007 0.0
H573 H 0.29784 0.96827 0.19694 0.0
H574 H 0.31895 0.00317 0.0399 0.0
H575 H 0.2875 0.00453 0.99143 0.0
H576 H 0.33182 0.95519 0.12513 0.0
H577 H 0.33662 0.02849 0.21854 0.0
H578 H 0.31437 0.01738 0.20193 0.0
H579 H 0.329 0.02482 0.13473 0.0
C580 C 0.27766 0.97741 0.1256 0.0
C581 C 0.27435 0.98787 0.06803 0.0
C582 C 0.29562 0.97639 0.15246 0.0
C583 C 0.3106 0.98583 0.12235 0.0
C584 C 0.30745 0.99615 0.06453 0.0
H585 H 0.42513 0.99486 0.2761 0.0
H586 H 0.39733 0.99836 0.20622 0.0
C587 C 0.28945 0.9971 0.03738 0.0
C588 C 0.32958 0.98433 0.15106 0.0
H589 H 0.36205 0.00853 0.24047 0.0
C590 C 0.33853 0.96686 0.14996 0.0
C591 C 0.33832 0.99967 0.18256 0.0
C592 C 0.32914 0.01868 0.18508 0.0
C593 C 0.3559 0.9642 0.18084 0.0
C594 C 0.36424 0.97929 0.21536 0.0
C595 C 0.35559 0.99695 0.21433 0.0
C596 C 0.38134 0.97677 0.2559 0.0
C597 C 0.36513 0.94524 0.17599 0.0
C598 C 0.38151 0.96364 0.30742 0.0
C599 C 0.39734 0.96156 0.34708 0.0
C600 C 0.41327 0.97278 0.33668 0.0
C601 C 0.41303 0.98607 0.28544 0.0
C602 C 0.3972 0.98804 0.24541 0.0
H603 H 0.36049 0.93756 0.13113 0.0
H604 H 0.38065 0.94648 0.17474 0.0
H605 H 0.36111 0.93674 0.21964 0.0
H606 H 0.36924 0.95519 0.31777 0.0
H607 H 0.39694 0.95149 0.38703 0.0
H608 H 0.54061 0.27035 0.06726 0.0
H609 H 0.54126 0.30137 0.12022 0.0
H610 H 0.49465 0.28552 0.24416 0.0
H611 H 0.49402 0.25455 0.19202 0.0
H612 H 0.50503 0.32771 0.1366 0.0
H613 H 0.5416 0.30449 0.36514 0.0
H614 H 0.54435 0.2924 0.28714 0.0
H615 H 0.523 0.29002 0.33331 0.0
C616 C 0.53053 0.27353 0.10582 0.0
C617 C 0.51707 0.26022 0.12491 0.0
C618 C 0.53087 0.29121 0.13571 0.0
C619 C 0.51798 0.29563 0.18583 0.0
C620 C 0.50465 0.28231 0.20536 0.0
H621 H 0.50176 0.38749 0.45822 0.0
H622 H 0.50139 0.35767 0.39879 0.0
C623 C 0.50422 0.26473 0.17522 0.0
C624 C 0.51846 0.31411 0.21852 0.0
H625 H 0.531 0.33573 0.36216 0.0
C626 C 0.5108 0.32957 0.18572 0.0
C627 C 0.52582 0.31629 0.28275 0.0
C628 C 0.53427 0.29999 0.31943 0.0
C629 C 0.51001 0.34723 0.21622 0.0
C630 C 0.51754 0.3495 0.28042 0.0
C631 C 0.52528 0.33398 0.31294 0.0
C632 C 0.5174 0.36779 0.31515 0.0
C633 C 0.50058 0.36311 0.18019 0.0
C634 C 0.52662 0.38336 0.28803 0.0
C635 C 0.52671 0.40048 0.32159 0.0
C636 C 0.5177 0.40233 0.38324 0.0
C637 C 0.50858 0.38665 0.41041 0.0
C638 C 0.50847 0.36955 0.37674 0.0
H639 H 0.49051 0.35779 0.14287 0.0
H640 H 0.49293 0.37246 0.21485 0.0
H641 H 0.51137 0.3715 0.15399 0.0
H642 H 0.53388 0.38223 0.2411 0.0
H643 H 0.53373 0.4123 0.29898 0.0
H644 H 0.2314 0.47818 0.11153 0.0
H645 H 0.20009 0.47795 0.16083 0.0
H646 H 0.19018 0.53353 0.08561 0.0
H647 H 0.22115 0.53342 0.03338 0.0
H648 H 0.18914 0.50162 0.25597 0.0
H649 H 0.14066 0.50848 0.04425 0.0
H650 H 0.16479 0.50141 0.03459 0.0
H651 H 0.1589 0.52578 0.04297 0.0
C652 C 0.22226 0.49001 0.10308 0.0
C653 C 0.22853 0.50561 0.06708 0.0
C654 C 0.20444 0.48996 0.132 0.0
C655 C 0.19262 0.50557 0.12587 0.0
C656 C 0.1988 0.5211 0.0894 0.0
H657 H 0.10364 0.55242 0.3555 0.0
H658 H 0.1292 0.54559 0.27828 0.0
C659 C 0.21659 0.52112 0.06023 0.0
C660 C 0.17484 0.50653 0.16396 0.0
H661 H 0.12812 0.51646 0.15134 0.0
C662 C 0.17575 0.50456 0.23291 0.0
C663 C 0.15737 0.51036 0.13383 0.0
C664 C 0.15529 0.51144 0.05977 0.0
C665 C 0.15983 0.50701 0.27272 0.0
C666 C 0.14258 0.51158 0.24285 0.0
C667 C 0.14146 0.51309 0.17389 0.0
C668 C 0.12582 0.51556 0.28346 0.0
C669 C 0.16156 0.50527 0.34677 0.0
C670 C 0.11536 0.50088 0.31086 0.0
C671 C 0.10065 0.50471 0.35464 0.0
C672 C 0.09623 0.5233 0.372 0.0
C673 C 0.10648 0.53797 0.34272 0.0
C674 C 0.12113 0.53411 0.29874 0.0
H675 H 0.17623 0.50264 0.36256 0.0
H676 H 0.15645 0.51826 0.37104 0.0
H677 H 0.15265 0.49354 0.3644 0.0
H678 H 0.11884 0.48647 0.29944 0.0
H679 H 0.09284 0.4931 0.37533 0.0
H680 H 0.97121 0.76593 0.15678 0.0
H681 H 0.98057 0.79506 0.10201 0.0
H682 H 0.99448 0.81916 0.29098 0.0
H683 H 0.98605 0.78967 0.34572 0.0
H684 H 0.96697 0.82936 0.11293 0.0
H685 H 0.04149 0.83048 0.19031 0.0
H686 H 0.02674 0.81021 0.20152 0.0
H687 H 0.02544 0.82951 0.25863 0.0
C688 C 0.97649 0.7774 0.18644 0.0
C689 C 0.97831 0.77552 0.25515 0.0
C690 C 0.9818 0.79402 0.15523 0.0
C691 C 0.98871 0.80913 0.19236 0.0
C692 C 0.98995 0.80742 0.26131 0.0
H693 H 0.99483 0.92287 0.03494 0.0
H694 H 0.98678 0.89498 0.09933 0.0
C695 C 0.98504 0.79065 0.29243 0.0
C696 C 0.99404 0.82683 0.15893 0.0
H697 H 0.02998 0.85787 0.13756 0.0
C698 C 0.98077 0.83557 0.1182 0.0
C699 C 0.0121 0.83486 0.1655 0.0
C700 C 0.02732 0.8257 0.20583 0.0
C701 C 0.98504 0.85206 0.08375 0.0
C702 C 0.00292 0.86032 0.09155 0.0
C703 C 0.01621 0.85161 0.13223 0.0
C704 C 0.00836 0.87757 0.05565 0.0
C705 C 0.97051 0.86018 0.03789 0.0
C706 C 0.02359 0.87723 0.01159 0.0
C707 C 0.02831 0.89317 0.97525 0.0
C708 C 0.01788 0.90976 0.9823 0.0
C709 C 0.00293 0.9102 0.02772 0.0
C710 C 0.9983 0.89428 0.06441 0.0
H711 H 0.95965 0.84969 0.0245 0.0
H712 H 0.96338 0.87206 0.06286 0.0
H713 H 0.97708 0.86548 0.99177 0.0
H714 H 0.03156 0.86449 0.00419 0.0
H715 H 0.0398 0.89234 0.94023 0.0
H716 H 0.73255 0.99546 0.11165 0.0
H717 H 0.70231 0.0054 0.06789 0.0
H718 H 0.6778 0.00096 0.26233 0.0
H719 H 0.70805 0.99079 0.30654 0.0
H720 H 0.66947 0.98343 0.07457 0.0
H721 H 0.65968 0.05278 0.19575 0.0
H722 H 0.6823 0.04154 0.18977 0.0
H723 H 0.66536 0.03344 0.24891 0.0
C724 C 0.72079 0.9968 0.14536 0.0
C725 C 0.72279 0.99259 0.21281 0.0
C726 C 0.70354 0.00251 0.12026 0.0
C727 C 0.68789 0.00414 0.16197 0.0
C728 C 0.68982 1.0002 0.22957 0.0
H729 H 0.57155 0.0289 0.0564 0.0
H730 H 0.60031 0.02232 0.11812 0.0
C731 C 0.70716 0.99448 0.25485 0.0
C732 C 0.66938 0.00863 0.13309 0.0
H733 H 0.6351 0.04197 0.1275 0.0
C734 C 0.66193 0.99621 0.08623 0.0
C735 C 0.65952 0.02521 0.14898 0.0
C736 C 0.66711 0.03913 0.19826 0.0
C737 C 0.645 1.00003 0.05409 0.0
C738 C 0.63543 0.01692 0.06822 0.0
C739 C 0.64257 0.02911 0.1165 0.0
C740 C 0.61827 0.02227 0.03181 0.0
C741 C 0.63744 0.98589 0.00546 0.0
C742 C 0.61898 0.02494 0.96316 0.0
C743 C 0.60263 0.02872 0.92785 0.0
C744 C 0.58526 0.03005 0.96059 0.0
C745 C 0.58472 0.02809 0.02978 0.0
C746 C 0.60111 0.02426 0.06509 0.0
H747 H 0.64349 0.97176 0.01369 0.0
H748 H 0.62193 0.9849 0.00889 0.0
H749 H 0.64117 0.99032 0.95454 0.0
H750 H 0.63217 0.02386 0.93675 0.0
H751 H 0.60359 0.03052 0.8748 0.0
H752 H 0.49314 0.74393 0.16262 0.0
H753 H 0.48169 0.7133 0.12581 0.0
H754 H 0.53695 0.69008 0.15205 0.0
H755 H 0.54837 0.72059 0.19023 0.0
H756 H 0.49496 0.69282 0.01682 0.0
H757 H 0.50238 0.65249 0.24952 0.0
H758 H 0.50139 0.67774 0.24714 0.0
H759 H 0.52279 0.6658 0.22664 0.0
C760 C 0.50274 0.7322 0.16181 0.0
C761 C 0.52155 0.73454 0.18046 0.0
C762 C 0.49622 0.71476 0.14036 0.0
C763 C 0.50839 0.69934 0.1374 0.0
C764 C 0.52723 0.70169 0.15533 0.0
H765 H 0.49959 0.59963 0.89966 0.0
H766 H 0.50774 0.62945 0.95089 0.0
C767 C 0.53378 0.71915 0.17644 0.0
C768 C 0.50168 0.68108 0.11173 0.0
H769 H 0.49712 0.63482 0.15124 0.0
C770 C 0.49532 0.68015 0.04629 0.0
C771 C 0.50183 0.66465 0.15069 0.0
C772 C 0.5073 0.66514 0.22262 0.0
C773 C 0.48968 0.66312 0.01798 0.0
C774 C 0.49082 0.64649 0.05574 0.0
C775 C 0.49655 0.64752 0.122 0.0
C776 C 0.48638 0.6279 0.02685 0.0
C777 C 0.48242 0.66314 0.948 0.0
C778 C 0.47212 0.61673 0.05405 0.0
C779 C 0.46761 0.59945 0.02547 0.0
C780 C 0.47735 0.59296 0.96928 0.0
C781 C 0.49191 0.60404 0.9432 0.0
C782 C 0.49643 0.62125 0.97191 0.0
H783 H 0.47722 0.67719 0.93343 0.0
H784 H 0.49398 0.65929 0.91375 0.0
H785 H 0.47089 0.65284 0.94173 0.0
H786 H 0.4643 0.62151 0.09684 0.0
H787 H 0.45652 0.59117 0.04748 0.0
H788 H 0.76877 0.48049 0.20992 0.0
H789 H 0.80097 0.47454 0.17249 0.0
H790 H 0.80799 0.53327 0.13029 0.0
H791 H 0.77583 0.53933 0.1682 0.0
H792 H 0.81654 0.48468 0.04098 0.0
H793 H 0.85343 0.5175 0.25329 0.0
H794 H 0.82933 0.50986 0.2575 0.0
H795 H 0.83515 0.53128 0.21615 0.0
C796 C 0.77728 0.49215 0.19344 0.0
C797 C 0.76998 0.51042 0.19298 0.0
C798 C 0.79558 0.48872 0.17173 0.0
C799 C 0.80689 0.50351 0.14959 0.0
C800 C 0.79954 0.52173 0.14811 0.0
H801 H 0.91898 0.5162 0.99553 0.0
H802 H 0.88739 0.52025 0.04058 0.0
C803 C 0.78117 0.52514 0.16928 0.0
C804 C 0.82622 0.49984 0.12626 0.0
H805 H 0.87219 0.50834 0.1617 0.0
C806 C 0.82874 0.48973 0.06744 0.0
C807 C 0.84202 0.50647 0.1611 0.0
C808 C 0.83999 0.51678 0.22583 0.0
C809 C 0.84673 0.4865 0.04144 0.0
C810 C 0.86258 0.49325 0.07602 0.0
C811 C 0.86002 0.50319 0.13529 0.0
C812 C 0.88189 0.4906 0.05044 0.0
C813 C 0.84858 0.47639 0.97619 0.0
C814 C 0.88939 0.47258 0.04207 0.0
C815 C 0.9074 0.47021 0.01587 0.0
C816 C 0.91828 0.48583 -0.00219 0.0
C817 C 0.91086 0.50387 0.00782 0.0
C818 C 0.89286 0.50622 0.03401 0.0
H819 H 0.83513 0.47613 0.94869 0.0
H820 H 0.85943 0.48308 0.9446 0.0
H821 H 0.8529 0.46171 0.98532 0.0
H822 H 0.88127 0.46034 0.05551 0.0
H823 H 0.91265 0.45613 0.00851 0.0
H824 H 0.9922 0.19035 0.93141 0.0
H825 H 0.99532 0.1595 0.88042 0.0
H826 H 0.05117 0.15437 0.95899 0.0
H827 H 0.04826 0.18541 0.01033 0.0
H828 H 0.02749 0.14839 0.78742 0.0
H829 H 0.01974 0.1056 0.01626 0.0
H830 H 0.00988 0.12881 0.00994 0.0
H831 H 0.03473 0.12593 0.01751 0.0
C832 C 0.00517 0.1827 0.93798 0.0
C833 C 0.02002 0.19035 0.9747 0.0
C834 C 0.00691 0.1651 0.90877 0.0
C835 C 0.02343 0.15474 0.91624 0.0
C836 C 0.03828 0.1622 0.95308 0.0
H837 H 0.04134 0.03966 0.78035 0.0
H838 H 0.04635 0.07046 0.83048 0.0
C839 C 0.03661 0.17992 0.98208 0.0
C840 C 0.02502 0.13623 0.8843 0.0
H841 H 0.02213 0.08941 0.91531 0.0
C842 C 0.02651 0.13546 0.81526 0.0
C843 C 0.02383 0.1195 0.92109 0.0
C844 C 0.0219 0.11981 0.99534 0.0
C845 C 0.02647 0.11827 0.78167 0.0
C846 C 0.02447 0.10152 0.81819 0.0
C847 C 0.02364 0.10229 0.8875 0.0
C848 C 0.02205 0.08317 0.78528 0.0
C849 C 0.02849 0.11822 0.70742 0.0
C850 C 0.00667 0.08012 0.74357 0.0
C851 C 0.00377 0.06259 0.71481 0.0
C852 C 0.01612 0.0477 0.72765 0.0
C853 C 0.03159 0.05083 0.76925 0.0
C854 C 0.03447 0.0684 0.79802 0.0
H855 H 0.03557 0.13112 0.68952 0.0
H856 H 0.03657 0.10586 0.69011 0.0
H857 H 0.01436 0.11769 0.68471 0.0
H858 H 0.99669 0.09121 0.73424 0.0
H859 H 0.99168 0.06067 0.68325 0.0
H860 H 0.29749 0.03759 0.9865 0.0
H861 H 0.32724 0.02462 0.9459 0.0
H862 H 0.32974 0.06754 0.79654 0.0
H863 H 0.30002 0.08047 0.83673 0.0
H864 H 0.33932 0.01163 0.81789 0.0
H865 H 0.37846 0.07435 0.90247 0.0
H866 H 0.35477 0.06941 0.92879 0.0
H867 H 0.35913 0.07957 0.84895 0.0
C868 C 0.30408 0.04387 0.94376 0.0
C869 C 0.29629 0.0598 0.91367 0.0
C870 C 0.32116 0.03657 0.92108 0.0
C871 C 0.33074 0.04523 0.86866 0.0
C872 C 0.32268 0.0608 0.83759 0.0
H873 H 0.42694 0.00829 0.63863 0.0
H874 H 0.39537 0.0158 0.67836 0.0
C875 C 0.3057 0.0681 0.86034 0.0
C876 C 0.34958 0.03864 0.84825 0.0
H877 H 0.39512 0.05281 0.83501 0.0
C878 C 0.35156 0.02056 0.82183 0.0
C879 C 0.36556 0.05024 0.85444 0.0
C880 C 0.36448 0.06941 0.88577 0.0
C881 C 0.36908 0.01396 0.79984 0.0
C882 C 0.38491 0.02586 0.80371 0.0
C883 C 0.38295 0.04377 0.8315 0.0
C884 C 0.40375 0.0201 0.77999 0.0
C885 C 0.37054 0.99424 0.77352 0.0
C886 C 0.41898 0.02029 0.82366 0.0
C887 C 0.43703 0.0162 0.80104 0.0
C888 C 0.44027 0.01189 0.73411 0.0
C889 C 0.42494 0.01148 0.69053 0.0
C890 C 0.40685 0.01563 0.71324 0.0
H891 H 0.35857 0.98545 0.79008 0.0
H892 H 0.37043 0.99461 0.7187 0.0
H893 H 0.3838 0.98752 0.78954 0.0
H894 H 0.41691 0.02377 0.8753 0.0
H895 H 0.44847 0.01662 0.83608 0.0
H896 H 0.49601 0.30311 0.92284 0.0
H897 H 0.49032 0.33413 0.87711 0.0
H898 H 0.44272 0.34107 0.00669 0.0
H899 H 0.44833 0.30984 0.05328 0.0
H900 H 0.45529 0.3474 0.81593 0.0
H901 H 0.47747 0.38804 0.03797 0.0
H902 H 0.48498 0.36423 0.02387 0.0
H903 H 0.46131 0.3689 0.04904 0.0
C904 C 0.48432 0.31118 0.94181 0.0
C905 C 0.47262 0.30402 0.99176 0.0
C906 C 0.48108 0.32889 0.91545 0.0
C907 C 0.46618 0.33985 0.93878 0.0
C908 C 0.45439 0.33281 0.9885 0.0
H909 H 0.45001 0.45698 0.81814 0.0
H910 H 0.44382 0.42646 0.86906 0.0
C911 C 0.45758 0.31499 0.01485 0.0
C912 C 0.46327 0.35867 0.9105 0.0
H913 H 0.4704 0.40506 0.94207 0.0
C914 C 0.45831 0.36005 0.84367 0.0
C915 C 0.46719 0.37508 0.94704 0.0
C916 C 0.47312 0.37417 0.01844 0.0
C917 C 0.45779 0.37743 0.81168 0.0
C918 C 0.46263 0.39375 0.84735 0.0
C919 C 0.46668 0.39248 0.91501 0.0
C920 C 0.46541 0.41194 0.81399 0.0
C921 C 0.45247 0.37816 0.73964 0.0
C922 C 0.47967 0.41382 0.7666 0.0
C923 C 0.4833 0.43116 0.73774 0.0
C924 C 0.47277 0.447 0.75587 0.0
C925 C 0.45833 0.44504 0.80291 0.0
C926 C 0.45477 0.42765 0.83209 0.0
H927 H 0.44387 0.36584 0.72525 0.0
H928 H 0.44452 0.39112 0.72823 0.0
H929 H 0.4654 0.37805 0.709 0.0
H930 H 0.48827 0.40193 0.75294 0.0
H931 H 0.49452 0.43215 0.70169 0.0
H932 H 0.20283 0.41467 0.88429 0.0
H933 H 0.17405 0.43067 0.85071 0.0
H934 H 0.18306 0.47255 0.00121 0.0
H935 H 0.21185 0.45653 0.03459 0.0
H936 H 0.14337 0.43625 0.92825 0.0
H937 H 0.17089 0.50461 0.83973 0.0
H938 H 0.18569 0.48435 0.85065 0.0
H939 H 0.17836 0.49786 0.92097 0.0
C940 C 0.19881 0.42749 0.9093 0.0
C941 C 0.20983 0.43471 0.9605 0.0
C942 C 0.18239 0.4366 0.89023 0.0
C943 C 0.17657 0.45301 0.92259 0.0
C944 C 0.18756 0.46026 0.97412 0.0
H945 H 0.06049 0.49149 0.89905 0.0
H946 H 0.09123 0.48178 0.9396 0.0
C947 C 0.20408 0.45117 0.99294 0.0
C948 C 0.15833 0.4616 0.90507 0.0
H949 H 0.1379 0.50121 0.84415 0.0
C950 C 0.14217 0.45048 0.91001 0.0
C951 C 0.15684 0.48012 0.88101 0.0
C952 C 0.17385 0.49243 0.87215 0.0
C953 C 0.12457 0.45724 0.89077 0.0
C954 C 0.12302 0.47581 0.86725 0.0
C955 C 0.13914 0.48704 0.86278 0.0
C956 C 0.10486 0.48339 0.84412 0.0
C957 C 0.1079 0.44425 0.89381 0.0
C958 C 0.1025 0.48812 0.77741 0.0
C959 C 0.08497 0.49375 0.75403 0.0
C960 C 0.06947 0.4948 0.79707 0.0
C961 C 0.07206 0.49067 0.86439 0.0
C962 C 0.08962 0.48508 0.8877 0.0
H963 H 0.1122 0.42937 0.8986 0.0
H964 H 0.09916 0.44789 0.93742 0.0
H965 H 0.09909 0.44569 0.84894 0.0
H966 H 0.11412 0.48694 0.74301 0.0
H967 H 0.08351 0.49692 0.70196 0.0
H968 H 0.06189 0.796 0.517 0.0
H969 H 0.04971 0.82679 0.54913 0.0
H970 H 0.00913 0.82392 0.39231 0.0
H971 H 0.02152 0.79328 0.35904 0.0
H972 H 0.04875 0.85844 0.46794 0.0
H973 H 0.97722 0.83909 0.55386 0.0
H974 H 0.99583 0.82212 0.54469 0.0
H975 H 0.98363 0.83059 0.47323 0.0
C976 C 0.05018 0.80184 0.49001 0.0
C977 C 0.0422 0.79199 0.43714 0.0
C978 C 0.04325 0.81939 0.50832 0.0
C979 C 0.02826 0.82742 0.47379 0.0
C980 C 0.02033 0.81766 0.42056 0.0
H981 H 0.00121 0.94639 0.48261 0.0
H982 H 0.00631 0.9141 0.44618 0.0
C983 C 0.02728 0.8001 0.40209 0.0
C984 C 0.02179 0.84652 0.49089 0.0
H985 H 0.98418 0.87152 0.5475 0.0
C986 C 0.03463 0.86131 0.48524 0.0
C987 C 0.00337 0.85016 0.5136 0.0
C988 C 0.98921 0.83467 0.52232 0.0
C989 C 0.02957 0.87969 0.50183 0.0
C990 C 0.01112 0.88338 0.52398 0.0
C991 C 0.99825 0.86861 0.52978 0.0
C992 C 0.00541 0.9024 0.54466 0.0
C993 C 0.0441 0.89499 0.497 0.0
C994 C 0.00252 0.90633 0.61179 0.0
C995 C 0.99963 0.92474 0.63285 0.0
C996 C 0.99948 0.93953 0.58695 0.0
C997 C 0.0013 0.93536 0.51926 0.0
C998 C 0.00427 0.91694 0.49832 0.0
H999 H 0.05848 0.8893 0.49026 0.0
H1000 H 0.04087 0.90407 0.45407 0.0
H1001 H 0.04388 0.90388 0.54209 0.0
H1002 H 0.00332 0.89526 0.64821 0.0
H1003 H 0.99818 0.92743 0.68532 0.0
H1004 H 0.70996 0.99429 0.63045 0.0
H1005 H 0.67687 0.98572 0.63777 0.0
H1006 H 0.66798 0.00738 0.44124 0.0
H1007 H 0.70137 0.01493 0.43259 0.0
H1008 H 0.65035 0.00917 0.64185 0.0
H1009 H 0.63544 0.96251 0.43035 0.0
H1010 H 0.65905 0.96805 0.45551 0.0
H1011 H 0.64613 0.9839 0.40353 0.0
C1012 C 0.70102 0.99663 0.58805 0.0
C1013 C 0.7082 0.00501 0.53085 0.0
C1014 C 0.6821 0.99181 0.59229 0.0
C1015 C 0.66983 0.99574 0.53993 0.0
C1016 C 0.67715 0.00366 0.48165 0.0
H1017 H 0.55504 0.02625 0.60356 0.0
H1018 H 0.58844 0.02424 0.57924 0.0
C1019 C 0.69626 0.00807 0.47679 0.0
C1020 C 0.64924 0.99378 0.55012 0.0
H1021 H 0.60868 0.9776 0.4807 0.0
C1022 C 0.64134 0.00201 0.60687 0.0
C1023 C 0.63736 0.98431 0.50508 0.0
C1024 C 0.64497 0.97402 0.44562 0.0
C1025 C 0.62202 0.00146 0.61908 0.0
C1026 C 0.61003 0.99307 0.57198 0.0
C1027 C 0.61787 0.98429 0.51622 0.0
C1028 C 0.58935 0.99396 0.57935 0.0
C1029 C 0.61467 0.00982 0.68271 0.0
C1030 C 0.57852 0.97758 0.58396 0.0
C1031 C 0.55923 0.97868 0.59694 0.0
C1032 C 0.55056 0.99619 0.60577 0.0
C1033 C 0.56134 0.01253 0.59813 0.0
C1034 C 0.58046 0.01142 0.58441 0.0
H1035 H 0.62564 0.0101 0.72157 0.0
H1036 H 0.61023 0.02448 0.67366 0.0
H1037 H 0.60242 0.00187 0.70179 0.0
H1038 H 0.5851 0.96396 0.57971 0.0
H1039 H 0.55127 0.96586 0.60244 0.0
H1040 H 0.46791 0.6988 0.38507 0.0
H1041 H 0.46634 0.66774 0.43614 0.0
H1042 H 0.52633 0.66224 0.41715 0.0
H1043 H 0.5281 0.69328 0.36778 0.0
H1044 H 0.4769 0.6335 0.38779 0.0
H1045 H 0.51801 0.65097 0.61142 0.0
H1046 H 0.50894 0.66865 0.55654 0.0
H1047 H 0.53023 0.65638 0.53618 0.0
C1048 C 0.48077 0.691 0.3922 0.0
C1049 C 0.49815 0.69858 0.37325 0.0
C1050 C 0.47985 0.67328 0.42122 0.0
C1051 C 0.49627 0.6629 0.43164 0.0
C1052 C 0.51356 0.67025 0.41126 0.0
H1053 H 0.50441 0.5436 0.5022 0.0
H1054 H 0.50516 0.57513 0.45561 0.0
C1055 C 0.51452 0.68798 0.38282 0.0
C1056 C 0.49538 0.64421 0.46279 0.0
H1057 H 0.51276 0.61851 0.59063 0.0
C1058 C 0.48461 0.63023 0.43241 0.0
C1059 C 0.50527 0.6401 0.5215 0.0
C1060 C 0.51611 0.65487 0.55872 0.0
C1061 C 0.48377 0.61206 0.45844 0.0
C1062 C 0.4944 0.60771 0.51534 0.0
C1063 C 0.50483 0.62182 0.5465 0.0
C1064 C 0.49467 0.58868 0.54408 0.0
C1065 C 0.47128 0.59783 0.4253 0.0
C1066 C 0.48933 0.58596 0.61016 0.0
C1067 C 0.48922 0.56802 0.6373 0.0
C1068 C 0.49438 0.55246 0.59869 0.0
C1069 C 0.50017 0.55528 0.53299 0.0
C1070 C 0.50047 0.57327 0.50612 0.0
H1071 H 0.46016 0.60467 0.39555 0.0
H1072 H 0.47984 0.58908 0.39135 0.0
H1073 H 0.46451 0.5885 0.46216 0.0
H1074 H 0.48494 0.5977 0.64044 0.0
H1075 H 0.48466 0.56632 0.68807 0.0
H1076 H 0.8231 0.47515 0.41675 0.0
H1077 H 0.85418 0.47833 0.46685 0.0
H1078 H 0.85218 0.53804 0.43721 0.0
H1079 H 0.8212 0.53506 0.38682 0.0
H1080 H 0.88832 0.4982 0.40576 0.0
H1081 H 0.86166 0.52755 0.6434 0.0
H1082 H 0.84714 0.51367 0.58913 0.0
H1083 H 0.8527 0.5374 0.56794 0.0
C1084 C 0.82927 0.48895 0.42086 0.0
C1085 C 0.81964 0.50487 0.39833 0.0
C1086 C 0.84702 0.49073 0.44925 0.0
C1087 C 0.85529 0.50843 0.45605 0.0
C1088 C 0.84588 0.52429 0.43277 0.0
H1089 H 0.97009 0.5349 0.57349 0.0
H1090 H 0.93944 0.53502 0.51892 0.0
C1091 C 0.82821 0.52254 0.40401 0.0
C1092 C 0.87369 0.51035 0.48845 0.0
H1093 H 0.89446 0.52506 0.63107 0.0
C1094 C 0.88973 0.50413 0.45488 0.0
C1095 C 0.87532 0.51801 0.55259 0.0
C1096 C 0.85833 0.52448 0.59089 0.0
C1097 C 0.90751 0.50537 0.48404 0.0
C1098 C 0.90917 0.51311 0.54812 0.0
C1099 C 0.89309 0.5193 0.58168 0.0
C1100 C 0.92736 0.51389 0.58261 0.0
C1101 C 0.92436 0.49801 0.44696 0.0
C1102 C 0.93045 0.50232 0.63734 0.0
C1103 C 0.94787 0.50219 0.66846 0.0
C1104 C 0.96248 0.51377 0.64571 0.0
C1105 C 0.95913 0.52583 0.59216 0.0
C1106 C 0.94169 0.52584 0.56071 0.0
H1107 H 0.9203 0.48975 0.40268 0.0
H1108 H 0.93315 0.50995 0.43052 0.0
H1109 H 0.93305 0.48907 0.47963 0.0
H1110 H 0.91949 0.49309 0.65509 0.0
H1111 H 0.94993 0.49285 0.70994 0.0
loop_
_geom_bond_atom_site_label_1
_geom_bond_atom_site_label_2
_geom_bond_distance
_geom_bond_site_symmetry_2
_ccdc_geom_bond_type
O0 Cd1 2.300 . S
O0 C7 1.275 . S
Cd1 O0 2.300 . S
Cd1 O9 2.381 . S
Cd1 O10 2.378 . S
O2 Cd3 2.385 . S
O2 C7 1.255 . S
Cd3 O2 2.385 . S
Cd3 O4 2.317 . S
O4 Cd3 2.317 . S
O4 C5 1.232 . S
C5 O4 1.232 . S
C5 O6 1.218 . S
O6 C5 1.218 . S
C7 O0 1.275 . S
C7 O2 1.255 . S
C8 O9 1.258 . S
C8 O10 1.256 . S
O9 Cd1 2.381 . S
O9 C8 1.258 . S
O10 Cd1 2.378 . S
O10 C8 1.256 . S
O11 Cd12 2.300 1_655 S
O11 C18 1.275 1_655 S
Cd12 O11 2.300 1_455 S
Cd12 O20 2.381 1_455 S
Cd12 O21 2.378 . S
O13 Cd14 2.385 . S
O13 C18 1.255 . S
Cd14 O13 2.385 . S
Cd14 O15 2.317 . S
O15 Cd14 2.317 . S
O15 C16 1.232 . S
C16 O15 1.232 . S
C16 O17 1.218 . S
O17 C16 1.218 . S
C18 O11 1.275 1_455 S
C18 O13 1.255 . S
C19 O20 1.258 1_455 S
C19 O21 1.256 . S
O20 Cd12 2.381 1_655 S
O20 C19 1.258 1_655 S
O21 Cd12 2.378 . S
O21 C19 1.256 . S
O22 Cd23 2.300 1_565 S
O22 C29 1.275 1_565 S
Cd23 O22 2.300 1_545 S
Cd23 O31 2.381 1_545 S
Cd23 O32 2.378 . S
O24 Cd25 2.385 . S
O24 C29 1.255 . S
Cd25 O24 2.385 . S
Cd25 O26 2.317 . S
O26 Cd25 2.317 . S
O26 C27 1.232 . S
C27 O26 1.232 . S
C27 O28 1.218 . S
O28 C27 1.218 . S
C29 O22 1.275 1_545 S
C29 O24 1.255 . S
C30 O31 1.258 1_545 S
C30 O32 1.256 . S
O31 Cd23 2.381 1_565 S
O31 C30 1.258 1_565 S
O32 Cd23 2.378 . S
O32 C30 1.256 . S
O33 Cd34 2.300 . S
O33 C40 1.275 . S
Cd34 O33 2.300 . S
Cd34 O42 2.381 . S
Cd34 O43 2.378 . S
O35 Cd36 2.385 . S
O35 C40 1.255 . S
Cd36 O35 2.385 . S
Cd36 O37 2.317 . S
O37 Cd36 2.317 . S
O37 C38 1.232 . S
C38 O37 1.232 . S
C38 O39 1.218 . S
O39 C38 1.218 . S
C40 O33 1.275 . S
C40 O35 1.255 . S
C41 O42 1.258 . S
C41 O43 1.256 . S
O42 Cd34 2.381 . S
O42 C41 1.258 . S
O43 Cd34 2.378 . S
O43 C41 1.256 . S
O44 Cd45 2.300 . S
O44 C51 1.275 . S
Cd45 O44 2.300 . S
Cd45 O53 2.381 . S
Cd45 O54 2.378 . S
O46 Cd47 2.385 . S
O46 C51 1.255 . S
Cd47 O46 2.385 . S
Cd47 O48 2.317 1_554 S
O48 Cd47 2.317 1_556 S
O48 C49 1.232 . S
C49 O48 1.232 . S
C49 O50 1.218 . S
O50 C49 1.218 . S
C51 O44 1.275 . S
C51 O46 1.255 . S
C52 O53 1.258 . S
C52 O54 1.256 . S
O53 Cd45 2.381 . S
O53 C52 1.258 . S
O54 Cd45 2.378 . S
O54 C52 1.256 . S
O55 Cd56 2.300 1_655 S
O55 C62 1.275 1_655 S
Cd56 O55 2.300 1_455 S
Cd56 O64 2.381 1_455 S
Cd56 O65 2.378 . S
O57 Cd58 2.385 . S
O57 C62 1.255 . S
Cd58 O57 2.385 . S
Cd58 O59 2.317 1_554 S
O59 Cd58 2.317 1_556 S
O59 C60 1.232 . S
C60 O59 1.232 . S
C60 O61 1.218 . S
O61 C60 1.218 . S
C62 O55 1.275 1_455 S
C62 O57 1.255 . S
C63 O64 1.258 1_455 S
C63 O65 1.256 . S
O64 Cd56 2.381 1_655 S
O64 C63 1.258 1_655 S
O65 Cd56 2.378 . S
O65 C63 1.256 . S
O66 Cd67 2.300 1_565 S
O66 C73 1.275 1_565 S
Cd67 O66 2.300 1_545 S
Cd67 O75 2.381 1_545 S
Cd67 O76 2.378 . S
O68 Cd69 2.385 . S
O68 C73 1.255 . S
Cd69 O68 2.385 . S
Cd69 O70 2.317 1_554 S
O70 Cd69 2.317 1_556 S
O70 C71 1.232 . S
C71 O70 1.232 . S
C71 O72 1.218 . S
O72 C71 1.218 . S
C73 O66 1.275 1_545 S
C73 O68 1.255 . S
C74 O75 1.258 1_545 S
C74 O76 1.256 . S
O75 Cd67 2.381 1_565 S
O75 C74 1.258 1_565 S
O76 Cd67 2.378 . S
O76 C74 1.256 . S
O77 Cd78 2.300 . S
O77 C84 1.275 . S
Cd78 O77 2.300 . S
Cd78 O86 2.381 . S
Cd78 O87 2.378 . S
O79 Cd80 2.385 . S
O79 C84 1.255 . S
Cd80 O79 2.385 . S
Cd80 O81 2.317 1_554 S
O81 Cd80 2.317 1_556 S
O81 C82 1.232 . S
C82 O81 1.232 . S
C82 O83 1.218 . S
O83 C82 1.218 . S
C84 O77 1.275 . S
C84 O79 1.255 . S
C85 O86 1.258 . S
C85 O87 1.256 . S
O86 Cd78 2.381 . S
O86 C85 1.258 . S
O87 Cd78 2.378 . S
O87 C85 1.256 . S
Tb88 C98 2.825 . S
Tb88 O99 2.347 1_455 S
Tb88 O102 2.366 . S
Tb88 O107 2.418 . S
Tb88 O108 2.384 1_565 S
Tb88 O111 2.479 . S
Tb88 O112 2.471 . S
Eu89 O100 2.418 . S
Eu89 O101 2.384 1_545 S
Eu89 O104 2.479 . S
Eu89 O105 2.471 . S
Eu89 O106 2.347 1_655 S
Eu89 O109 2.366 . S
Eu89 C119 2.825 . S
C90 O106 1.259 1_565 S
C90 O107 1.265 . S
C91 O108 1.255 . S
C91 O109 1.265 1_455 S
C92 C94 1.380 . S
C92 C95 1.374 . S
C92 C98 1.507 . S
C93 C94 1.384 . S
C93 C97 1.387 . S
C93 H120 0.930 . S
C94 C92 1.380 . S
C94 C93 1.384 . S
C94 H121 0.931 . S
C95 C92 1.374 . S
C95 C96 1.390 . S
C95 H122 0.930 1_455 S
C96 C95 1.390 . S
C96 C97 1.391 . S
C96 H123 0.930 1_455 S
C97 C93 1.387 . S
C97 C96 1.391 . S
C98 Tb88 2.825 . S
C98 C92 1.507 . S
C98 O111 1.238 . S
C98 O112 1.247 . S
O99 Tb88 2.347 1_655 S
O99 C103 1.259 1_565 S
O100 Eu89 2.418 . S
O100 C103 1.265 . S
O101 Eu89 2.384 1_565 S
O101 C110 1.255 . S
O102 Tb88 2.366 . S
O102 C110 1.265 1_455 S
C103 O99 1.259 1_545 S
C103 O100 1.265 . S
O104 Eu89 2.479 . S
O104 C119 1.238 . S
O105 Eu89 2.471 . S
O105 C119 1.247 . S
O106 Eu89 2.347 1_455 S
O106 C90 1.259 1_545 S
O107 Tb88 2.418 . S
O107 C90 1.265 . S
O108 Tb88 2.384 1_545 S
O108 C91 1.255 . S
O109 Eu89 2.366 . S
O109 C91 1.265 1_655 S
C110 O101 1.255 . S
C110 O102 1.265 1_655 S
O111 Tb88 2.479 . S
O111 C98 1.238 . S
O112 Tb88 2.471 . S
O112 C98 1.247 . S
C113 C116 1.380 . S
C113 C117 1.374 . S
C113 C119 1.507 . S
C114 C115 1.387 . S
C114 C118 1.391 . S
C115 C114 1.387 . S
C115 C116 1.384 . S
C115 H124 0.930 . S
C116 C113 1.380 . S
C116 C115 1.384 . S
C116 H125 0.931 . S
C117 C113 1.374 . S
C117 C118 1.390 . S
C117 H126 0.930 1_655 S
C118 C114 1.391 . S
C118 C117 1.390 . S
C118 H127 0.930 1_655 S
C119 Eu89 2.825 . S
C119 O104 1.238 . S
C119 O105 1.247 . S
C119 C113 1.507 . S
H120 C93 0.930 . S
H121 C94 0.931 . S
H122 C95 0.930 1_655 S
H123 C96 0.930 1_655 S
H124 C115 0.930 . S
H125 C116 0.931 . S
H126 C117 0.930 1_455 S
H127 C118 0.930 1_455 S
Tb128 C138 2.825 . S
Tb128 O139 2.347 1_545 S
Tb128 O142 2.366 . S
Tb128 O147 2.418 . S
Tb128 O148 2.384 . S
Tb128 O151 2.479 . S
Tb128 O152 2.471 . S
Eu129 O140 2.418 . S
Eu129 O141 2.384 . S
Eu129 O144 2.479 . S
Eu129 O145 2.471 . S
Eu129 O146 2.347 1_565 S
Eu129 O149 2.366 . S
Eu129 C159 2.825 . S
C130 O146 1.259 . S
C130 O147 1.265 . S
C131 O148 1.255 . S
C131 O149 1.265 1_545 S
C132 C134 1.380 . S
C132 C135 1.374 . S
C132 C138 1.507 . S
C133 C134 1.384 . S
C133 C137 1.387 . S
C133 H160 0.930 . S
C134 C132 1.380 . S
C134 C133 1.384 . S
C134 H161 0.931 . S
C135 C132 1.374 . S
C135 C136 1.390 . S
C135 H162 0.930 1_545 S
C136 C135 1.390 . S
C136 C137 1.391 . S
C136 H163 0.930 1_545 S
C137 C133 1.387 . S
C137 C136 1.391 . S
C138 Tb128 2.825 . S
C138 C132 1.507 . S
C138 O151 1.238 . S
C138 O152 1.247 . S
O139 Tb128 2.347 1_565 S
O139 C143 1.259 . S
O140 Eu129 2.418 . S
O140 C143 1.265 . S
O141 Eu129 2.384 . S
O141 C150 1.255 . S
O142 Tb128 2.366 . S
O142 C150 1.265 1_545 S
C143 O139 1.259 . S
C143 O140 1.265 . S
O144 Eu129 2.479 . S
O144 C159 1.238 . S
O145 Eu129 2.471 . S
O145 C159 1.247 . S
O146 Eu129 2.347 1_545 S
O146 C130 1.259 . S
O147 Tb128 2.418 . S
O147 C130 1.265 . S
O148 Tb128 2.384 . S
O148 C131 1.255 . S
O149 Eu129 2.366 . S
O149 C131 1.265 1_565 S
C150 O141 1.255 . S
C150 O142 1.265 1_565 S
O151 Tb128 2.479 . S
O151 C138 1.238 . S
O152 Tb128 2.471 . S
O152 C138 1.247 . S
C153 C156 1.380 . S
C153 C157 1.374 . S
C153 C159 1.507 . S
C154 C155 1.387 . S
C154 C158 1.391 . S
C155 C154 1.387 . S
C155 C156 1.384 . S
C155 H164 0.930 . S
C156 C153 1.380 . S
C156 C155 1.384 . S
C156 H165 0.931 . S
C157 C153 1.374 . S
C157 C158 1.390 . S
C157 H166 0.930 1_565 S
C158 C154 1.391 . S
C158 C157 1.390 . S
C158 H167 0.930 1_565 S
C159 Eu129 2.825 . S
C159 O144 1.238 . S
C159 O145 1.247 . S
C159 C153 1.507 . S
H160 C133 0.930 . S
H161 C134 0.931 . S
H162 C135 0.930 1_565 S
H163 C136 0.930 1_565 S
H164 C155 0.930 . S
H165 C156 0.931 . S
H166 C157 0.930 1_545 S
H167 C158 0.930 1_545 S
Tb168 C178 2.825 . S
Tb168 O179 2.347 . S
Tb168 O182 2.366 . S
Tb168 O187 2.418 . S
Tb168 O188 2.384 . S
Tb168 O191 2.479 . S
Tb168 O192 2.471 . S
Eu169 O180 2.418 . S
Eu169 O181 2.384 . S
Eu169 O184 2.479 . S
Eu169 O185 2.471 . S
Eu169 O186 2.347 . S
Eu169 O189 2.366 . S
Eu169 C199 2.825 . S
C170 O186 1.259 . S
C170 O187 1.265 . S
C171 O188 1.255 . S
C171 O189 1.265 . S
C172 C174 1.380 . S
C172 C175 1.374 . S
C172 C178 1.507 . S
C173 C174 1.384 . S
C173 C177 1.387 . S
C173 H200 0.930 . S
C174 C172 1.380 . S
C174 C173 1.384 . S
C174 H201 0.931 . S
C175 C172 1.374 . S
C175 C176 1.390 . S
C175 H202 0.930 . S
C176 C175 1.390 . S
C176 C177 1.391 . S
C176 H203 0.930 . S
C177 C173 1.387 . S
C177 C176 1.391 . S
C178 Tb168 2.825 . S
C178 C172 1.507 . S
C178 O191 1.238 . S
C178 O192 1.247 . S
O179 Tb168 2.347 . S
O179 C183 1.259 . S
O180 Eu169 2.418 . S
O180 C183 1.265 . S
O181 Eu169 2.384 . S
O181 C190 1.255 . S
O182 Tb168 2.366 . S
O182 C190 1.265 . S
C183 O179 1.259 . S
C183 O180 1.265 . S
O184 Eu169 2.479 . S
O184 C199 1.238 . S
O185 Eu169 2.471 . S
O185 C199 1.247 . S
O186 Eu169 2.347 . S
O186 C170 1.259 . S
O187 Tb168 2.418 . S
O187 C170 1.265 . S
O188 Tb168 2.384 . S
O188 C171 1.255 . S
O189 Eu169 2.366 . S
O189 C171 1.265 . S
C190 O181 1.255 . S
C190 O182 1.265 . S
O191 Tb168 2.479 . S
O191 C178 1.238 . S
O192 Tb168 2.471 . S
O192 C178 1.247 . S
C193 C196 1.380 . S
C193 C197 1.374 . S
C193 C199 1.507 . S
C194 C195 1.387 . S
C194 C198 1.391 . S
C195 C194 1.387 . S
C195 C196 1.384 . S
C195 H204 0.930 . S
C196 C193 1.380 . S
C196 C195 1.384 . S
C196 H205 0.931 . S
C197 C193 1.374 . S
C197 C198 1.390 . S
C197 H206 0.930 . S
C198 C194 1.391 . S
C198 C197 1.390 . S
C198 H207 0.930 . S
C199 Eu169 2.825 . S
C199 O184 1.238 . S
C199 O185 1.247 . S
C199 C193 1.507 . S
H200 C173 0.930 . S
H201 C174 0.931 . S
H202 C175 0.930 . S
H203 C176 0.930 . S
H204 C195 0.930 . S
H205 C196 0.931 . S
H206 C197 0.930 . S
H207 C198 0.930 . S
Tb208 C218 2.825 . S
Tb208 O219 2.347 . S
Tb208 O222 2.366 . S
Tb208 O227 2.418 . S
Tb208 O228 2.384 1_655 S
Tb208 O231 2.479 . S
Tb208 O232 2.471 . S
Eu209 O220 2.418 . S
Eu209 O221 2.384 1_455 S
Eu209 O224 2.479 . S
Eu209 O225 2.471 . S
Eu209 O226 2.347 . S
Eu209 O229 2.366 . S
Eu209 C239 2.825 . S
C210 O226 1.259 1_655 S
C210 O227 1.265 . S
C211 O228 1.255 . S
C211 O229 1.265 . S
C212 C214 1.380 . S
C212 C215 1.374 . S
C212 C218 1.507 . S
C213 C214 1.384 . S
C213 C217 1.387 . S
C213 H240 0.930 . S
C214 C212 1.380 . S
C214 C213 1.384 . S
C214 H241 0.931 . S
C215 C212 1.374 . S
C215 C216 1.390 . S
C215 H242 0.930 . S
C216 C215 1.390 . S
C216 C217 1.391 . S
C216 H243 0.930 . S
C217 C213 1.387 . S
C217 C216 1.391 . S
C218 Tb208 2.825 . S
C218 C212 1.507 . S
C218 O231 1.238 . S
C218 O232 1.247 . S
O219 Tb208 2.347 . S
O219 C223 1.259 1_655 S
O220 Eu209 2.418 . S
O220 C223 1.265 . S
O221 Eu209 2.384 1_655 S
O221 C230 1.255 . S
O222 Tb208 2.366 . S
O222 C230 1.265 . S
C223 O219 1.259 1_455 S
C223 O220 1.265 . S
O224 Eu209 2.479 . S
O224 C239 1.238 . S
O225 Eu209 2.471 . S
O225 C239 1.247 . S
O226 Eu209 2.347 . S
O226 C210 1.259 1_455 S
O227 Tb208 2.418 . S
O227 C210 1.265 . S
O228 Tb208 2.384 1_455 S
O228 C211 1.255 . S
O229 Eu209 2.366 . S
O229 C211 1.265 . S
C230 O221 1.255 . S
C230 O222 1.265 . S
O231 Tb208 2.479 . S
O231 C218 1.238 . S
O232 Tb208 2.471 . S
O232 C218 1.247 . S
C233 C236 1.380 . S
C233 C237 1.374 . S
C233 C239 1.507 . S
C234 C235 1.387 . S
C234 C238 1.391 . S
C235 C234 1.387 . S
C235 C236 1.384 . S
C235 H244 0.930 . S
C236 C233 1.380 . S
C236 C235 1.384 . S
C236 H245 0.931 . S
C237 C233 1.374 . S
C237 C238 1.390 . S
C237 H246 0.930 . S
C238 C234 1.391 . S
C238 C237 1.390 . S
C238 H247 0.930 . S
C239 Eu209 2.825 . S
C239 O224 1.238 . S
C239 O225 1.247 . S
C239 C233 1.507 . S
H240 C213 0.930 . S
H241 C214 0.931 . S
H242 C215 0.930 . S
H243 C216 0.930 . S
H244 C235 0.930 . S
H245 C236 0.931 . S
H246 C237 0.930 . S
H247 C238 0.930 . S
H248 C256 0.929 . S
H249 C258 0.930 . S
H250 C260 0.930 . S
H251 C263 0.929 . S
H252 C266 0.930 . S
H253 C268 0.960 . S
H254 C268 0.960 . S
H255 C268 0.960 . S
C256 H248 0.929 . S
C256 C257 1.332 1_565 S
C256 C258 1.384 . S
C257 C256 1.332 1_545 S
C257 C263 1.435 . S
C258 H249 0.930 . S
C258 C256 1.384 . S
C258 C259 1.368 . S
C259 C258 1.368 . S
C259 C260 1.404 1_565 S
C259 C264 1.490 . S
C260 H250 0.930 . S
C260 C259 1.404 1_545 S
C260 C263 1.386 . S
H261 C277 0.930 . S
H262 C278 0.931 . S
C263 H251 0.929 . S
C263 C257 1.435 . S
C263 C260 1.386 . S
C264 C259 1.490 . S
C264 C266 1.402 . S
C264 C267 1.396 1_565 S
H265 C271 0.930 . S
C266 H252 0.930 . S
C266 C264 1.402 . S
C266 C269 1.403 . S
C267 C264 1.396 1_545 S
C267 C268 1.524 . S
C267 C271 1.400 . S
C268 H253 0.960 . S
C268 H254 0.960 . S
C268 H255 0.960 . S
C268 C267 1.524 . S
C269 C266 1.403 . S
C269 C270 1.392 . S
C269 C273 1.495 . S
C270 C269 1.392 . S
C270 C271 1.385 1_565 S
C270 C272 1.479 . S
C271 H265 0.930 . S
C271 C267 1.400 . S
C271 C270 1.385 1_545 S
C272 C270 1.479 . S
C272 C274 1.422 . S
C272 C278 1.341 1_565 S
C273 C269 1.495 . S
C273 H279 0.959 . S
C273 H280 0.961 . S
C273 H281 0.960 . S
C274 C272 1.422 . S
C274 C275 1.394 . S
C274 H282 0.930 . S
C275 C274 1.394 . S
C275 C276 1.362 1_565 S
C275 H283 0.929 . S
C276 C275 1.362 1_545 S
C276 C277 1.398 . S
C277 H261 0.930 . S
C277 C276 1.398 . S
C277 C278 1.379 . S
C278 H262 0.931 . S
C278 C272 1.341 1_545 S
C278 C277 1.379 . S
H279 C273 0.959 . S
H280 C273 0.961 . S
H281 C273 0.960 . S
H282 C274 0.930 . S
H283 C275 0.929 . S
H284 C292 0.929 . S
H285 C294 0.930 . S
H286 C296 0.930 . S
H287 C299 0.929 . S
H288 C302 0.930 . S
H289 C304 0.960 . S
H290 C304 0.960 . S
H291 C304 0.960 . S
C292 H284 0.929 . S
C292 C293 1.377 . S
C292 C294 1.384 . S
C293 C292 1.377 . S
C293 C299 1.390 . S
C294 H285 0.930 . S
C294 C292 1.384 . S
C294 C295 1.372 . S
C295 C294 1.372 . S
C295 C296 1.400 . S
C295 C300 1.490 . S
C296 H286 0.930 . S
C296 C295 1.400 . S
C296 C299 1.386 . S
H297 C313 0.930 . S
H298 C314 0.931 . S
C299 H287 0.929 . S
C299 C293 1.390 . S
C299 C296 1.386 . S
C300 C295 1.490 . S
C300 C302 1.395 . S
C300 C303 1.403 . S
H301 C307 0.930 . S
C302 H288 0.930 . S
C302 C300 1.395 . S
C302 C305 1.403 . S
C303 C300 1.403 . S
C303 C304 1.524 . S
C303 C307 1.400 . S
C304 H289 0.960 . S
C304 H290 0.960 . S
C304 H291 0.960 . S
C304 C303 1.524 . S
C305 C302 1.403 . S
C305 C306 1.392 . S
C305 C309 1.495 . S
C306 C305 1.392 . S
C306 C307 1.385 . S
C306 C308 1.478 . S
C307 H301 0.930 . S
C307 C303 1.400 . S
C307 C306 1.385 . S
C308 C306 1.478 . S
C308 C310 1.381 . S
C308 C314 1.383 . S
C309 C305 1.495 . S
C309 H315 0.959 . S
C309 H316 0.961 . S
C309 H317 0.960 . S
C310 C308 1.381 . S
C310 C311 1.394 . S
C310 H318 0.930 . S
C311 C310 1.394 . S
C311 C312 1.383 . S
C311 H319 0.929 . S
C312 C311 1.383 . S
C312 C313 1.377 . S
C313 H297 0.930 . S
C313 C312 1.377 . S
C313 C314 1.379 . S
C314 H298 0.931 . S
C314 C308 1.383 . S
C314 C313 1.379 . S
H315 C309 0.959 . S
H316 C309 0.961 . S
H317 C309 0.960 . S
H318 C310 0.930 . S
H319 C311 0.929 . S
H320 C328 0.929 . S
H321 C330 0.930 . S
H322 C332 0.930 . S
H323 C335 0.929 . S
H324 C338 0.930 . S
H325 C340 0.960 . S
H326 C340 0.960 . S
H327 C340 0.960 . S
C328 H320 0.929 . S
C328 C329 1.377 . S
C328 C330 1.384 . S
C329 C328 1.377 . S
C329 C335 1.390 . S
C330 H321 0.930 . S
C330 C328 1.384 . S
C330 C331 1.372 . S
C331 C330 1.372 . S
C331 C332 1.400 . S
C331 C336 1.490 . S
C332 H322 0.930 . S
C332 C331 1.400 . S
C332 C335 1.386 . S
H333 C349 0.930 . S
H334 C350 0.931 . S
C335 H323 0.929 . S
C335 C329 1.390 . S
C335 C332 1.386 . S
C336 C331 1.490 . S
C336 C338 1.395 . S
C336 C339 1.403 . S
H337 C343 0.930 . S
C338 H324 0.930 . S
C338 C336 1.395 . S
C338 C341 1.403 . S
C339 C336 1.403 . S
C339 C340 1.524 . S
C339 C343 1.400 . S
C340 H325 0.960 . S
C340 H326 0.960 . S
C340 H327 0.960 . S
C340 C339 1.524 . S
C341 C338 1.403 . S
C341 C342 1.392 . S
C341 C345 1.495 . S
C342 C341 1.392 . S
C342 C343 1.385 . S
C342 C344 1.478 . S
C343 H337 0.930 . S
C343 C339 1.400 . S
C343 C342 1.385 . S
C344 C342 1.478 . S
C344 C346 1.381 . S
C344 C350 1.383 . S
C345 C341 1.495 . S
C345 H351 0.959 . S
C345 H352 0.961 . S
C345 H353 0.960 . S
C346 C344 1.381 . S
C346 C347 1.394 . S
C346 H354 0.930 . S
C347 C346 1.394 . S
C347 C348 1.383 . S
C347 H355 0.929 . S
C348 C347 1.383 . S
C348 C349 1.377 . S
C349 H333 0.930 . S
C349 C348 1.377 . S
C349 C350 1.379 . S
C350 H334 0.931 . S
C350 C344 1.383 . S
C350 C349 1.379 . S
H351 C345 0.959 . S
H352 C345 0.961 . S
H353 C345 0.960 . S
H354 C346 0.930 . S
H355 C347 0.929 . S
H356 C364 0.929 . S
H357 C366 0.930 . S
H358 C368 0.930 . S
H359 C371 0.929 . S
H360 C374 0.930 . S
H361 C376 0.960 . S
H362 C376 0.960 . S
H363 C376 0.960 . S
C364 H356 0.929 . S
C364 C365 1.377 . S
C364 C366 1.384 . S
C365 C364 1.377 . S
C365 C371 1.390 1_455 S
C366 H357 0.930 . S
C366 C364 1.384 . S
C366 C367 1.372 . S
C367 C366 1.372 . S
C367 C368 1.400 1_455 S
C367 C372 1.490 . S
C368 H358 0.930 . S
C368 C367 1.400 1_655 S
C368 C371 1.386 . S
H369 C385 0.930 . S
H370 C386 0.931 . S
C371 H359 0.929 . S
C371 C365 1.390 1_655 S
C371 C368 1.386 . S
C372 C367 1.490 . S
C372 C374 1.395 1_455 S
C372 C375 1.403 . S
H373 C379 0.930 . S
C374 H360 0.930 . S
C374 C372 1.395 1_655 S
C374 C377 1.403 . S
C375 C372 1.403 . S
C375 C376 1.524 . S
C375 C379 1.400 . S
C376 H361 0.960 . S
C376 H362 0.960 . S
C376 H363 0.960 . S
C376 C375 1.524 . S
C377 C374 1.403 . S
C377 C378 1.398 . S
C377 C381 1.495 . S
C378 C377 1.398 . S
C378 C379 1.379 1_655 S
C378 C380 1.477 . S
C379 H373 0.930 . S
C379 C375 1.400 . S
C379 C378 1.379 1_455 S
C380 C378 1.477 . S
C380 C382 1.353 1_655 S
C380 C386 1.411 . S
C381 C377 1.495 . S
C381 H387 0.959 . S
C381 H388 0.961 . S
C381 H389 0.960 . S
C382 C380 1.353 1_455 S
C382 C383 1.394 . S
C382 H390 0.930 . S
C383 C382 1.394 . S
C383 C384 1.384 . S
C383 H391 0.929 . S
C384 C383 1.384 . S
C384 C385 1.376 1_455 S
C385 H369 0.930 . S
C385 C384 1.376 1_655 S
C385 C386 1.379 . S
C386 H370 0.931 . S
C386 C380 1.411 . S
C386 C385 1.379 . S
H387 C381 0.959 . S
H388 C381 0.961 . S
H389 C381 0.960 . S
H390 C382 0.930 . S
H391 C383 0.929 . S
H392 C400 0.930 . S
H393 C402 0.930 . S
H394 C404 0.932 . S
H395 C407 0.929 . S
H396 C410 0.930 . S
H397 C412 0.960 . S
H398 C412 0.960 1_554 S
H399 C412 0.960 . S
C400 H392 0.930 . S
C400 C401 1.376 1_545 S
C400 C402 1.384 . S
C401 C400 1.376 1_565 S
C401 C407 1.391 . S
C402 H393 0.930 . S
C402 C400 1.384 . S
C402 C403 1.371 1_545 S
C403 C402 1.371 1_565 S
C403 C404 1.399 . S
C403 C408 1.491 . S
C404 H394 0.932 . S
C404 C403 1.399 . S
C404 C407 1.387 . S
H405 C421 0.930 . S
H406 C422 0.931 . S
C407 H395 0.929 . S
C407 C401 1.391 . S
C407 C404 1.387 . S
C408 C403 1.491 . S
C408 C410 1.395 . S
C408 C411 1.403 1_564 S
H409 C415 0.930 . S
C410 H396 0.930 . S
C410 C408 1.395 . S
C410 C413 1.403 1_554 S
C411 C408 1.403 1_546 S
C411 C412 1.524 . S
C411 C415 1.400 . S
C412 H397 0.960 . S
C412 H398 0.960 1_556 S
C412 H399 0.960 . S
C412 C411 1.524 . S
C413 C410 1.403 1_556 S
C413 C414 1.392 . S
C413 C417 1.495 1_556 S
C414 C413 1.392 . S
C414 C415 1.385 1_565 S
C414 C416 1.478 . S
C415 H409 0.930 . S
C415 C411 1.400 . S
C415 C414 1.385 1_545 S
C416 C414 1.478 . S
C416 C418 1.392 . S
C416 C422 1.383 . S
C417 C413 1.495 1_554 S
C417 H423 0.972 . S
C417 H424 0.947 1_554 S
C417 H425 0.962 . S
C418 C416 1.392 . S
C418 C419 1.392 1_565 S
C418 H426 0.926 1_565 S
C419 C418 1.392 1_545 S
C419 C420 1.383 1_545 S
C419 H427 0.930 . S
C420 C419 1.383 1_565 S
C420 C421 1.377 . S
C421 H405 0.930 . S
C421 C420 1.377 . S
C421 C422 1.379 . S
C422 H406 0.931 . S
C422 C416 1.383 . S
C422 C421 1.379 . S
H423 C417 0.972 . S
H424 C417 0.947 1_556 S
H425 C417 0.962 . S
H426 C418 0.926 1_545 S
H427 C419 0.930 . S
H428 C436 0.929 . S
H429 C438 0.930 . S
H430 C440 0.930 . S
H431 C443 0.929 . S
H432 C446 0.930 . S
H433 C448 0.960 . S
H434 C448 0.960 . S
H435 C448 0.960 . S
C436 H428 0.929 . S
C436 C437 1.377 . S
C436 C438 1.384 . S
C437 C436 1.377 . S
C437 C443 1.390 . S
C438 H429 0.930 . S
C438 C436 1.384 . S
C438 C439 1.372 . S
C439 C438 1.372 . S
C439 C440 1.400 . S
C439 C444 1.490 . S
C440 H430 0.930 . S
C440 C439 1.400 . S
C440 C443 1.386 . S
H441 C457 0.930 . S
H442 C458 0.931 . S
C443 H431 0.929 . S
C443 C437 1.390 . S
C443 C440 1.386 . S
C444 C439 1.490 . S
C444 C446 1.395 . S
C444 C447 1.403 1_554 S
H445 C451 0.930 . S
C446 H432 0.930 . S
C446 C444 1.395 . S
C446 C449 1.403 . S
C447 C444 1.403 1_556 S
C447 C448 1.524 . S
C447 C451 1.400 . S
C448 H433 0.960 . S
C448 H434 0.960 . S
C448 H435 0.960 . S
C448 C447 1.524 . S
C449 C446 1.403 . S
C449 C450 1.392 1_554 S
C449 C453 1.495 . S
C450 C449 1.392 1_556 S
C450 C451 1.385 . S
C450 C452 1.478 . S
C451 H445 0.930 . S
C451 C447 1.400 . S
C451 C450 1.385 . S
C452 C450 1.478 . S
C452 C454 1.381 . S
C452 C458 1.383 . S
C453 C449 1.495 . S
C453 H459 0.959 . S
C453 H460 0.961 . S
C453 H461 0.960 . S
C454 C452 1.381 . S
C454 C455 1.394 . S
C454 H462 0.930 . S
C455 C454 1.394 . S
C455 C456 1.383 . S
C455 H463 0.929 . S
C456 C455 1.383 . S
C456 C457 1.377 . S
C457 H441 0.930 . S
C457 C456 1.377 . S
C457 C458 1.379 . S
C458 H442 0.931 . S
C458 C452 1.383 . S
C458 C457 1.379 . S
H459 C453 0.959 . S
H460 C453 0.961 . S
H461 C453 0.960 . S
H462 C454 0.930 . S
H463 C455 0.929 . S
H464 C472 0.929 . S
H465 C474 0.930 . S
H466 C476 0.930 . S
H467 C479 0.929 . S
H468 C482 0.930 . S
H469 C484 0.960 . S
H470 C484 0.960 1_554 S
H471 C484 0.960 . S
C472 H464 0.929 . S
C472 C473 1.377 . S
C472 C474 1.384 . S
C473 C472 1.377 . S
C473 C479 1.390 . S
C474 H465 0.930 . S
C474 C472 1.384 . S
C474 C475 1.372 . S
C475 C474 1.372 . S
C475 C476 1.400 . S
C475 C480 1.490 . S
C476 H466 0.930 . S
C476 C475 1.400 . S
C476 C479 1.386 . S
H477 C493 0.930 . S
H478 C494 0.931 . S
C479 H467 0.929 . S
C479 C473 1.390 . S
C479 C476 1.386 . S
C480 C475 1.490 . S
C480 C482 1.395 . S
C480 C483 1.403 1_554 S
H481 C487 0.930 . S
C482 H468 0.930 . S
C482 C480 1.395 . S
C482 C485 1.397 1_554 S
C483 C480 1.403 1_556 S
C483 C484 1.524 . S
C483 C487 1.400 . S
C484 H469 0.960 . S
C484 H470 0.960 1_556 S
C484 H471 0.960 . S
C484 C483 1.524 . S
C485 C482 1.397 1_556 S
C485 C486 1.399 . S
C485 C489 1.495 1_556 S
C486 C485 1.399 . S
C486 C487 1.385 . S
C486 C488 1.478 . S
C487 H481 0.930 . S
C487 C483 1.400 . S
C487 C486 1.385 . S
C488 C486 1.478 . S
C488 C490 1.381 . S
C488 C494 1.383 . S
C489 C485 1.495 1_554 S
C489 H495 0.959 . S
C489 H496 0.961 1_554 S
C489 H497 0.960 . S
C490 C488 1.381 . S
C490 C491 1.394 . S
C490 H498 0.930 . S
C491 C490 1.394 . S
C491 C492 1.383 . S
C491 H499 0.929 . S
C492 C491 1.383 . S
C492 C493 1.377 . S
C493 H477 0.930 . S
C493 C492 1.377 . S
C493 C494 1.379 . S
C494 H478 0.931 . S
C494 C488 1.383 . S
C494 C493 1.379 . S
H495 C489 0.959 . S
H496 C489 0.961 1_556 S
H497 C489 0.960 . S
H498 C490 0.930 . S
H499 C491 0.929 . S
H500 C508 0.929 . S
H501 C510 0.930 . S
H502 C512 0.930 . S
H503 C515 0.929 . S
H504 C518 0.930 . S
H505 C520 0.960 1_556 S
H506 C520 0.960 . S
H507 C520 0.960 . S
C508 H500 0.929 . S
C508 C509 1.351 1_455 S
C508 C510 1.384 . S
C509 C508 1.351 1_655 S
C509 C515 1.417 . S
C510 H501 0.930 . S
C510 C508 1.384 . S
C510 C511 1.370 1_455 S
C511 C510 1.370 1_655 S
C511 C512 1.402 . S
C511 C516 1.489 1_655 S
C512 H502 0.930 . S
C512 C511 1.402 . S
C512 C515 1.386 . S
H513 C529 0.930 . S
H514 C530 0.931 . S
C515 H503 0.929 . S
C515 C509 1.417 . S
C515 C512 1.386 . S
C516 C511 1.489 1_455 S
C516 C518 1.421 . S
C516 C519 1.378 1_455 S
H517 C523 0.930 . S
C518 H504 0.930 . S
C518 C516 1.421 . S
C518 C521 1.403 1_554 S
C519 C516 1.378 1_655 S
C519 C520 1.524 . S
C519 C523 1.400 1_554 S
C520 H505 0.960 1_554 S
C520 H506 0.960 . S
C520 H507 0.960 . S
C520 C519 1.524 . S
C521 C518 1.403 1_556 S
C521 C522 1.392 . S
C521 C525 1.495 . S
C522 C521 1.392 . S
C522 C523 1.385 1_455 S
C522 C524 1.478 . S
C523 H517 0.930 . S
C523 C519 1.400 1_556 S
C523 C522 1.385 1_655 S
C524 C522 1.478 . S
C524 C526 1.381 . S
C524 C530 1.383 1_455 S
C525 C521 1.495 . S
C525 H531 0.959 . S
C525 H532 0.961 . S
C525 H533 0.960 . S
C526 C524 1.381 . S
C526 C527 1.394 . S
C526 H534 0.930 . S
C527 C526 1.394 . S
C527 C528 1.406 . S
C527 H535 0.929 . S
C528 C527 1.406 . S
C528 C529 1.358 1_455 S
C529 H513 0.930 . S
C529 C528 1.358 1_655 S
C529 C530 1.379 . S
C530 H514 0.931 . S
C530 C524 1.383 1_655 S
C530 C529 1.379 . S
H531 C525 0.959 . S
H532 C525 0.961 . S
H533 C525 0.960 . S
H534 C526 0.930 . S
H535 C527 0.929 . S
H536 C544 0.929 . S
H537 C546 0.930 . S
H538 C548 0.930 . S
H539 C551 0.929 . S
H540 C554 0.930 . S
H541 C556 0.960 . S
H542 C556 0.960 . S
H543 C556 0.960 . S
C544 H536 0.929 . S
C544 C545 1.377 . S
C544 C546 1.384 . S
C545 C544 1.377 . S
C545 C551 1.390 1_455 S
C546 H537 0.930 . S
C546 C544 1.384 . S
C546 C547 1.372 1_455 S
C547 C546 1.372 1_655 S
C547 C548 1.400 . S
C547 C552 1.490 . S
C548 H538 0.930 . S
C548 C547 1.400 . S
C548 C551 1.386 . S
H549 C565 0.930 . S
H550 C566 0.931 . S
C551 H539 0.929 . S
C551 C545 1.390 1_655 S
C551 C548 1.386 . S
C552 C547 1.490 . S
C552 C554 1.395 . S
C552 C555 1.404 . S
H553 C559 0.937 . S
C554 H540 0.930 . S
C554 C552 1.395 . S
C554 C557 1.403 . S
C555 C552 1.404 . S
C555 C556 1.522 1_655 S
C555 C559 1.401 . S
C556 H541 0.960 . S
C556 H542 0.960 . S
C556 H543 0.960 . S
C556 C555 1.522 1_455 S
C557 C554 1.403 . S
C557 C558 1.392 . S
C557 C561 1.495 . S
C558 C557 1.392 . S
C558 C559 1.385 . S
C558 C560 1.478 . S
C559 H553 0.937 . S
C559 C555 1.401 . S
C559 C558 1.385 . S
C560 C558 1.478 . S
C560 C562 1.381 . S
C560 C566 1.383 . S
C561 C557 1.495 . S
C561 H567 0.959 . S
C561 H568 0.961 . S
C561 H569 0.960 . S
C562 C560 1.381 . S
C562 C563 1.394 . S
C562 H570 0.894 1_655 S
C563 C562 1.394 . S
C563 C564 1.383 . S
C563 H571 0.929 . S
C564 C563 1.383 . S
C564 C565 1.377 . S
C565 H549 0.930 . S
C565 C564 1.377 . S
C565 C566 1.379 . S
C566 H550 0.931 . S
C566 C560 1.383 . S
C566 C565 1.379 . S
H567 C561 0.959 . S
H568 C561 0.961 . S
H569 C561 0.960 . S
H570 C562 0.894 1_455 S
H571 C563 0.929 . S
H572 C580 0.929 . S
H573 C582 0.930 . S
H574 C584 0.930 . S
H575 C587 0.929 . S
H576 C590 0.930 . S
H577 C592 0.960 . S
H578 C592 0.960 . S
H579 C592 0.960 . S
C580 H572 0.929 . S
C580 C581 1.377 1_565 S
C580 C582 1.384 . S
C581 C580 1.377 1_545 S
C581 C587 1.390 . S
C582 H573 0.930 . S
C582 C580 1.384 . S
C582 C583 1.372 . S
C583 C582 1.372 . S
C583 C584 1.400 1_565 S
C583 C588 1.490 . S
C584 H574 0.930 . S
C584 C583 1.400 1_545 S
C584 C587 1.386 . S
H585 C601 0.930 . S
H586 C602 0.931 . S
C587 H575 0.929 . S
C587 C581 1.390 . S
C587 C584 1.386 . S
C588 C583 1.490 . S
C588 C590 1.395 . S
C588 C591 1.403 1_565 S
H589 C595 0.930 . S
C590 H576 0.930 . S
C590 C588 1.395 . S
C590 C593 1.403 . S
C591 C588 1.403 1_545 S
C591 C592 1.524 . S
C591 C595 1.400 . S
C592 H577 0.960 . S
C592 H578 0.960 . S
C592 H579 0.960 . S
C592 C591 1.524 . S
C593 C590 1.403 . S
C593 C594 1.392 . S
C593 C597 1.495 . S
C594 C593 1.392 . S
C594 C595 1.385 1_565 S
C594 C596 1.478 . S
C595 H589 0.930 . S
C595 C591 1.400 . S
C595 C594 1.385 1_545 S
C596 C594 1.478 . S
C596 C598 1.381 . S
C596 C602 1.383 . S
C597 C593 1.495 . S
C597 H603 0.959 . S
C597 H604 0.961 . S
C597 H605 0.960 . S
C598 C596 1.381 . S
C598 C599 1.394 . S
C598 H606 0.930 . S
C599 C598 1.394 . S
C599 C600 1.383 . S
C599 H607 0.929 . S
C600 C599 1.383 . S
C600 C601 1.377 . S
C601 H585 0.930 . S
C601 C600 1.377 . S
C601 C602 1.379 . S
C602 H586 0.931 . S
C602 C596 1.383 . S
C602 C601 1.379 . S
H603 C597 0.959 . S
H604 C597 0.961 . S
H605 C597 0.960 . S
H606 C598 0.930 . S
H607 C599 0.929 . S
H608 C616 0.929 . S
H609 C618 0.930 . S
H610 C620 0.930 . S
H611 C623 0.929 . S
H612 C626 0.930 . S
H613 C628 0.960 . S
H614 C628 0.960 . S
H615 C628 0.960 . S
C616 H608 0.929 . S
C616 C617 1.377 . S
C616 C618 1.384 . S
C617 C616 1.377 . S
C617 C623 1.390 . S
C618 H609 0.930 . S
C618 C616 1.384 . S
C618 C619 1.372 . S
C619 C618 1.372 . S
C619 C620 1.400 . S
C619 C624 1.490 . S
C620 H610 0.930 . S
C620 C619 1.400 . S
C620 C623 1.386 . S
H621 C637 0.930 . S
H622 C638 0.931 . S
C623 H611 0.929 . S
C623 C617 1.390 . S
C623 C620 1.386 . S
C624 C619 1.490 . S
C624 C626 1.395 . S
C624 C627 1.403 . S
H625 C631 0.930 . S
C626 H612 0.930 . S
C626 C624 1.395 . S
C626 C629 1.403 . S
C627 C624 1.403 . S
C627 C628 1.524 . S
C627 C631 1.400 . S
C628 H613 0.960 . S
C628 H614 0.960 . S
C628 H615 0.960 . S
C628 C627 1.524 . S
C629 C626 1.403 . S
C629 C630 1.392 . S
C629 C633 1.495 . S
C630 C629 1.392 . S
C630 C631 1.385 . S
C630 C632 1.478 . S
C631 H625 0.930 . S
C631 C627 1.400 . S
C631 C630 1.385 . S
C632 C630 1.478 . S
C632 C634 1.381 . S
C632 C638 1.383 . S
C633 C629 1.495 . S
C633 H639 0.959 . S
C633 H640 0.961 . S
C633 H641 0.960 . S
C634 C632 1.381 . S
C634 C635 1.394 . S
C634 H642 0.930 . S
C635 C634 1.394 . S
C635 C636 1.383 . S
C635 H643 0.929 . S
C636 C635 1.383 . S
C636 C637 1.377 . S
C637 H621 0.930 . S
C637 C636 1.377 . S
C637 C638 1.379 . S
C638 H622 0.931 . S
C638 C632 1.383 . S
C638 C637 1.379 . S
H639 C633 0.959 . S
H640 C633 0.961 . S
H641 C633 0.960 . S
H642 C634 0.930 . S
H643 C635 0.929 . S
H644 C652 0.929 . S
H645 C654 0.930 . S
H646 C656 0.930 . S
H647 C659 0.929 . S
H648 C662 0.930 . S
H649 C664 0.960 . S
H650 C664 0.960 . S
H651 C664 0.960 . S
C652 H644 0.929 . S
C652 C653 1.377 . S
C652 C654 1.384 . S
C653 C652 1.377 . S
C653 C659 1.390 . S
C654 H645 0.930 . S
C654 C652 1.384 . S
C654 C655 1.372 . S
C655 C654 1.372 . S
C655 C656 1.400 . S
C655 C660 1.490 . S
C656 H646 0.930 . S
C656 C655 1.400 . S
C656 C659 1.386 . S
H657 C673 0.930 . S
H658 C674 0.931 . S
C659 H647 0.929 . S
C659 C653 1.390 . S
C659 C656 1.386 . S
C660 C655 1.490 . S
C660 C662 1.395 . S
C660 C663 1.403 . S
H661 C667 0.930 . S
C662 H648 0.930 . S
C662 C660 1.395 . S
C662 C665 1.403 . S
C663 C660 1.403 . S
C663 C664 1.524 . S
C663 C667 1.400 . S
C664 H649 0.960 . S
C664 H650 0.960 . S
C664 H651 0.960 . S
C664 C663 1.524 . S
C665 C662 1.403 . S
C665 C666 1.392 . S
C665 C669 1.495 . S
C666 C665 1.392 . S
C666 C667 1.385 . S
C666 C668 1.478 . S
C667 H661 0.930 . S
C667 C663 1.400 . S
C667 C666 1.385 . S
C668 C666 1.478 . S
C668 C670 1.381 . S
C668 C674 1.383 . S
C669 C665 1.495 . S
C669 H675 0.959 . S
C669 H676 0.961 . S
C669 H677 0.960 . S
C670 C668 1.381 . S
C670 C671 1.394 . S
C670 H678 0.930 . S
C671 C670 1.394 . S
C671 C672 1.383 . S
C671 H679 0.929 . S
C672 C671 1.383 . S
C672 C673 1.377 . S
C673 H657 0.930 . S
C673 C672 1.377 . S
C673 C674 1.379 . S
C674 H658 0.931 . S
C674 C668 1.383 . S
C674 C673 1.379 . S
H675 C669 0.959 . S
H676 C669 0.961 . S
H677 C669 0.960 . S
H678 C670 0.930 . S
H679 C671 0.929 . S
H680 C688 0.929 . S
H681 C690 0.930 . S
H682 C692 0.930 . S
H683 C695 0.929 . S
H684 C698 0.930 1_655 S
H685 C700 0.960 . S
H686 C700 0.960 . S
H687 C700 0.960 . S
C688 H680 0.929 . S
C688 C689 1.377 1_455 S
C688 C690 1.384 . S
C689 C688 1.377 1_655 S
C689 C695 1.390 . S
C690 H681 0.930 . S
C690 C688 1.384 . S
C690 C691 1.372 . S
C691 C690 1.372 . S
C691 C692 1.400 1_455 S
C691 C696 1.490 . S
C692 H682 0.930 . S
C692 C691 1.400 1_655 S
C692 C695 1.386 . S
H693 C709 0.930 1_655 S
H694 C710 0.931 1_654 S
C695 H683 0.929 . S
C695 C689 1.390 . S
C695 C692 1.386 . S
C696 C691 1.490 . S
C696 C698 1.395 . S
C696 C699 1.403 . S
H697 C703 0.930 . S
C698 H684 0.930 1_455 S
C698 C696 1.395 . S
C698 C701 1.403 1_554 S
C699 C696 1.403 . S
C699 C700 1.524 . S
C699 C703 1.400 . S
C700 H685 0.960 . S
C700 H686 0.960 . S
C700 H687 0.960 . S
C700 C699 1.524 . S
C701 C698 1.403 1_556 S
C701 C702 1.392 1_556 S
C701 C705 1.495 1_455 S
C702 C701 1.392 1_554 S
C702 C703 1.385 . S
C702 C704 1.478 1_554 S
C703 H697 0.930 . S
C703 C699 1.400 . S
C703 C702 1.385 . S
C704 C702 1.478 1_556 S
C704 C706 1.381 . S
C704 C710 1.383 . S
C705 C701 1.495 1_655 S
C705 H711 0.959 . S
C705 H712 0.961 . S
C705 H713 0.960 1_655 S
C706 C704 1.381 . S
C706 C707 1.394 . S
C706 H714 0.930 . S
C707 C706 1.394 . S
C707 C708 1.383 . S
C707 H715 0.929 . S
C708 C707 1.383 . S
C708 C709 1.377 . S
C709 H693 0.930 1_455 S
C709 C708 1.377 . S
C709 C710 1.379 . S
C710 H694 0.931 1_456 S
C710 C704 1.383 . S
C710 C709 1.379 . S
H711 C705 0.959 . S
H712 C705 0.961 . S
H713 C705 0.960 1_455 S
H714 C706 0.930 . S
H715 C707 0.929 . S
H716 C724 0.929 . S
H717 C726 0.930 . S
H718 C728 0.930 . S
H719 C731 0.929 . S
H720 C734 0.930 . S
H721 C736 0.960 . S
H722 C736 0.960 . S
H723 C736 0.960 . S
C724 H716 0.929 . S
C724 C725 1.377 . S
C724 C726 1.384 . S
C725 C724 1.377 . S
C725 C731 1.390 1_565 S
C726 H717 0.930 . S
C726 C724 1.384 . S
C726 C727 1.372 1_565 S
C727 C726 1.372 1_545 S
C727 C728 1.400 . S
C727 C732 1.490 . S
C728 H718 0.930 . S
C728 C727 1.400 . S
C728 C731 1.386 . S
H729 C745 0.922 1_554 S
H730 C746 0.931 . S
C731 H719 0.929 . S
C731 C725 1.390 1_545 S
C731 C728 1.386 . S
C732 C727 1.490 . S
C732 C734 1.395 1_545 S
C732 C735 1.403 . S
H733 C739 0.930 . S
C734 H720 0.930 . S
C734 C732 1.395 1_565 S
C734 C737 1.403 . S
C735 C732 1.403 . S
C735 C736 1.524 . S
C735 C739 1.400 . S
C736 H721 0.960 . S
C736 H722 0.960 . S
C736 H723 0.960 . S
C736 C735 1.524 . S
C737 C734 1.403 . S
C737 C738 1.392 1_565 S
C737 C741 1.495 . S
C738 C737 1.392 1_545 S
C738 C739 1.385 . S
C738 C740 1.478 1_554 S
C739 H733 0.930 . S
C739 C735 1.400 . S
C739 C738 1.385 . S
C740 C738 1.478 1_556 S
C740 C742 1.381 . S
C740 C746 1.383 1_556 S
C741 C737 1.495 . S
C741 H747 0.959 . S
C741 H748 0.961 . S
C741 H749 0.960 1_554 S
C742 C740 1.381 . S
C742 C743 1.394 . S
C742 H750 0.930 1_545 S
C743 C742 1.394 . S
C743 C744 1.383 . S
C743 H751 0.929 . S
C744 C743 1.383 . S
C744 C745 1.377 . S
C745 H729 0.922 1_556 S
C745 C744 1.377 . S
C745 C746 1.379 1_556 S
C746 H730 0.931 . S
C746 C740 1.383 1_554 S
C746 C745 1.379 1_554 S
H747 C741 0.959 . S
H748 C741 0.961 . S
H749 C741 0.960 1_556 S
H750 C742 0.930 1_565 S
H751 C743 0.929 . S
H752 C760 0.929 . S
H753 C762 0.930 . S
H754 C764 0.930 . S
H755 C767 0.929 . S
H756 C770 0.930 . S
H757 C772 0.960 . S
H758 C772 0.960 . S
H759 C772 0.960 . S
C760 H752 0.929 . S
C760 C761 1.377 . S
C760 C762 1.384 . S
C761 C760 1.377 . S
C761 C767 1.390 . S
C762 H753 0.930 . S
C762 C760 1.384 . S
C762 C763 1.372 . S
C763 C762 1.372 . S
C763 C764 1.400 . S
C763 C768 1.490 . S
C764 H754 0.930 . S
C764 C763 1.400 . S
C764 C767 1.386 . S
H765 C781 0.930 . S
H766 C782 0.931 . S
C767 H755 0.929 . S
C767 C761 1.390 . S
C767 C764 1.386 . S
C768 C763 1.490 . S
C768 C770 1.395 . S
C768 C771 1.403 . S
H769 C775 0.930 . S
C770 H756 0.930 . S
C770 C768 1.395 . S
C770 C773 1.403 . S
C771 C768 1.403 . S
C771 C772 1.524 . S
C771 C775 1.400 . S
C772 H757 0.960 . S
C772 H758 0.960 . S
C772 H759 0.960 . S
C772 C771 1.524 . S
C773 C770 1.403 . S
C773 C774 1.392 . S
C773 C777 1.495 1_554 S
C774 C773 1.392 . S
C774 C775 1.385 . S
C774 C776 1.478 1_554 S
C775 H769 0.930 . S
C775 C771 1.400 . S
C775 C774 1.385 . S
C776 C774 1.478 1_556 S
C776 C778 1.381 . S
C776 C782 1.383 . S
C777 C773 1.495 1_556 S
C777 H783 0.959 . S
C777 H784 0.961 . S
C777 H785 0.960 . S
C778 C776 1.381 . S
C778 C779 1.394 . S
C778 H786 0.930 1_556 S
C779 C778 1.394 . S
C779 C780 1.383 . S
C779 H787 0.929 . S
C780 C779 1.383 . S
C780 C781 1.377 . S
C781 H765 0.930 . S
C781 C780 1.377 . S
C781 C782 1.379 . S
C782 H766 0.931 . S
C782 C776 1.383 . S
C782 C781 1.379 . S
H783 C777 0.959 . S
H784 C777 0.961 . S
H785 C777 0.960 . S
H786 C778 0.930 1_554 S
H787 C779 0.929 . S
H788 C796 0.929 . S
H789 C798 0.930 . S
H790 C800 0.930 . S
H791 C803 0.929 . S
H792 C806 0.930 . S
H793 C808 0.960 . S
H794 C808 0.960 . S
H795 C808 0.960 . S
C796 H788 0.929 . S
C796 C797 1.377 . S
C796 C798 1.384 . S
C797 C796 1.377 . S
C797 C803 1.390 . S
C798 H789 0.930 . S
C798 C796 1.384 . S
C798 C799 1.372 . S
C799 C798 1.372 . S
C799 C800 1.400 . S
C799 C804 1.490 . S
C800 H790 0.930 . S
C800 C799 1.400 . S
C800 C803 1.386 . S
H801 C817 0.930 . S
H802 C818 0.931 . S
C803 H791 0.929 . S
C803 C797 1.390 . S
C803 C800 1.386 . S
C804 C799 1.490 . S
C804 C806 1.395 . S
C804 C807 1.403 . S
H805 C811 0.930 . S
C806 H792 0.930 . S
C806 C804 1.395 . S
C806 C809 1.403 1_554 S
C807 C804 1.403 . S
C807 C808 1.524 . S
C807 C811 1.400 . S
C808 H793 0.960 . S
C808 H794 0.960 . S
C808 H795 0.960 . S
C808 C807 1.524 . S
C809 C806 1.403 1_556 S
C809 C810 1.392 1_556 S
C809 C813 1.495 . S
C810 C809 1.392 1_554 S
C810 C811 1.385 . S
C810 C812 1.478 1_554 S
C811 H805 0.930 . S
C811 C807 1.400 . S
C811 C810 1.385 . S
C812 C810 1.478 1_556 S
C812 C814 1.381 . S
C812 C818 1.383 . S
C813 C809 1.495 . S
C813 H819 0.959 . S
C813 H820 0.961 . S
C813 H821 0.960 . S
C814 C812 1.381 . S
C814 C815 1.394 . S
C814 H822 0.930 . S
C815 C814 1.394 . S
C815 C816 1.383 . S
C815 H823 0.929 . S
C816 C815 1.383 . S
C816 C817 1.377 . S
C817 H801 0.930 . S
C817 C816 1.377 . S
C817 C818 1.379 . S
C818 H802 0.931 . S
C818 C812 1.383 . S
C818 C817 1.379 . S
H819 C813 0.959 . S
H820 C813 0.961 . S
H821 C813 0.960 . S
H822 C814 0.930 . S
H823 C815 0.929 . S
H824 C832 0.929 . S
H825 C834 0.930 . S
H826 C836 0.930 . S
H827 C839 0.929 . S
H828 C842 0.930 . S
H829 C844 0.960 . S
H830 C844 0.960 . S
H831 C844 0.960 . S
C832 H824 0.929 . S
C832 C833 1.377 1_655 S
C832 C834 1.384 . S
C833 C832 1.377 1_455 S
C833 C839 1.390 . S
C834 H825 0.930 . S
C834 C832 1.384 . S
C834 C835 1.372 1_655 S
C835 C834 1.372 1_455 S
C835 C836 1.400 . S
C835 C840 1.490 . S
C836 H826 0.930 . S
C836 C835 1.400 . S
C836 C839 1.386 . S
H837 C853 0.930 . S
H838 C854 0.931 . S
C839 H827 0.929 . S
C839 C833 1.390 . S
C839 C836 1.386 . S
C840 C835 1.490 . S
C840 C842 1.395 . S
C840 C843 1.403 1_455 S
H841 C847 0.930 . S
C842 H828 0.930 . S
C842 C840 1.395 . S
C842 C845 1.403 . S
C843 C840 1.403 1_655 S
C843 C844 1.524 . S
C843 C847 1.400 . S
C844 H829 0.960 . S
C844 H830 0.960 . S
C844 H831 0.960 . S
C844 C843 1.524 . S
C845 C842 1.403 . S
C845 C846 1.392 . S
C845 C849 1.495 . S
C846 C845 1.392 . S
C846 C847 1.385 1_455 S
C846 C848 1.478 . S
C847 H841 0.930 . S
C847 C843 1.400 . S
C847 C846 1.385 1_655 S
C848 C846 1.478 . S
C848 C850 1.359 1_455 S
C848 C854 1.383 . S
C849 C845 1.495 . S
C849 H855 0.959 . S
C849 H856 0.961 . S
C849 H857 0.960 . S
C850 C848 1.359 1_655 S
C850 C851 1.396 . S
C850 H858 0.954 . S
C851 C850 1.396 . S
C851 C852 1.383 1_655 S
C851 H859 0.929 . S
C852 C851 1.383 1_455 S
C852 C853 1.377 . S
C853 H837 0.930 . S
C853 C852 1.377 . S
C853 C854 1.379 . S
C854 H838 0.931 . S
C854 C848 1.383 . S
C854 C853 1.379 . S
H855 C849 0.959 . S
H856 C849 0.961 . S
H857 C849 0.960 . S
H858 C850 0.954 . S
H859 C851 0.929 . S
H860 C868 0.929 . S
H861 C870 0.930 . S
H862 C872 0.930 . S
H863 C875 0.929 . S
H864 C878 0.930 . S
H865 C880 0.960 . S
H866 C880 0.960 . S
H867 C880 0.960 1_565 S
C868 H860 0.929 . S
C868 C869 1.377 . S
C868 C870 1.384 . S
C869 C868 1.377 . S
C869 C875 1.390 1_545 S
C870 H861 0.930 . S
C870 C868 1.384 . S
C870 C871 1.372 . S
C871 C870 1.372 . S
C871 C872 1.400 1_545 S
C871 C876 1.490 . S
C872 H862 0.930 . S
C872 C871 1.400 1_565 S
C872 C875 1.386 . S
H873 C889 0.930 . S
H874 C890 0.931 . S
C875 H863 0.929 . S
C875 C869 1.390 1_565 S
C875 C872 1.386 . S
C876 C871 1.490 . S
C876 C878 1.395 . S
C876 C879 1.403 . S
H877 C883 0.930 . S
C878 H864 0.930 . S
C878 C876 1.395 . S
C878 C881 1.403 . S
C879 C876 1.403 . S
C879 C880 1.524 . S
C879 C883 1.400 . S
C880 H865 0.960 . S
C880 H866 0.960 . S
C880 H867 0.960 1_545 S
C880 C879 1.524 . S
C881 C878 1.403 . S
C881 C882 1.392 . S
C881 C885 1.495 . S
C882 C881 1.392 . S
C882 C883 1.385 . S
C882 C884 1.478 . S
C883 H877 0.930 . S
C883 C879 1.400 . S
C883 C882 1.385 . S
C884 C882 1.478 . S
C884 C886 1.381 . S
C884 C890 1.383 1_545 S
C885 C881 1.495 . S
C885 H891 0.959 . S
C885 H892 0.961 1_545 S
C885 H893 0.960 . S
C886 C884 1.381 . S
C886 C887 1.394 . S
C886 H894 0.930 . S
C887 C886 1.394 . S
C887 C888 1.383 . S
C887 H895 0.929 . S
C888 C887 1.383 . S
C888 C889 1.377 1_545 S
C889 H873 0.930 . S
C889 C888 1.377 1_565 S
C889 C890 1.379 . S
C890 H874 0.931 . S
C890 C884 1.383 1_565 S
C890 C889 1.379 . S
H891 C885 0.959 . S
H892 C885 0.961 1_565 S
H893 C885 0.960 . S
H894 C886 0.930 . S
H895 C887 0.929 . S
H896 C904 0.929 . S
H897 C906 0.930 . S
H898 C908 0.930 . S
H899 C911 0.929 . S
H900 C914 0.930 . S
H901 C916 0.960 . S
H902 C916 0.960 . S
H903 C916 0.960 . S
C904 H896 0.929 . S
C904 C905 1.377 . S
C904 C906 1.384 . S
C905 C904 1.377 . S
C905 C911 1.390 . S
C906 H897 0.930 . S
C906 C904 1.384 . S
C906 C907 1.372 . S
C907 C906 1.372 . S
C907 C908 1.400 . S
C907 C912 1.490 . S
C908 H898 0.930 . S
C908 C907 1.400 . S
C908 C911 1.386 . S
H909 C925 0.930 . S
H910 C926 0.931 . S
C911 H899 0.929 . S
C911 C905 1.390 . S
C911 C908 1.386 . S
C912 C907 1.490 . S
C912 C914 1.395 . S
C912 C915 1.403 . S
H913 C919 0.930 . S
C914 H900 0.930 . S
C914 C912 1.395 . S
C914 C917 1.403 . S
C915 C912 1.403 . S
C915 C916 1.524 . S
C915 C919 1.400 . S
C916 H901 0.960 . S
C916 H902 0.960 . S
C916 H903 0.960 . S
C916 C915 1.524 . S
C917 C914 1.403 . S
C917 C918 1.392 . S
C917 C921 1.495 . S
C918 C917 1.392 . S
C918 C919 1.385 . S
C918 C920 1.478 . S
C919 H913 0.930 . S
C919 C915 1.400 . S
C919 C918 1.385 . S
C920 C918 1.478 . S
C920 C922 1.381 . S
C920 C926 1.383 . S
C921 C917 1.495 . S
C921 H927 0.959 . S
C921 H928 0.961 . S
C921 H929 0.960 . S
C922 C920 1.381 . S
C922 C923 1.394 . S
C922 H930 0.930 . S
C923 C922 1.394 . S
C923 C924 1.383 . S
C923 H931 0.929 . S
C924 C923 1.383 . S
C924 C925 1.377 . S
C925 H909 0.930 . S
C925 C924 1.377 . S
C925 C926 1.379 . S
C926 H910 0.931 . S
C926 C920 1.383 . S
C926 C925 1.379 . S
H927 C921 0.959 . S
H928 C921 0.961 . S
H929 C921 0.960 . S
H930 C922 0.930 . S
H931 C923 0.929 . S
H932 C940 0.929 . S
H933 C942 0.930 . S
H934 C944 0.930 . S
H935 C947 0.929 . S
H936 C950 0.930 . S
H937 C952 0.960 . S
H938 C952 0.960 . S
H939 C952 0.960 . S
C940 H932 0.929 . S
C940 C941 1.377 . S
C940 C942 1.384 . S
C941 C940 1.377 . S
C941 C947 1.390 . S
C942 H933 0.930 . S
C942 C940 1.384 . S
C942 C943 1.372 . S
C943 C942 1.372 . S
C943 C944 1.400 . S
C943 C948 1.490 . S
C944 H934 0.930 . S
C944 C943 1.400 . S
C944 C947 1.386 . S
H945 C961 0.930 . S
H946 C962 0.931 . S
C947 H935 0.929 . S
C947 C941 1.390 . S
C947 C944 1.386 . S
C948 C943 1.490 . S
C948 C950 1.395 . S
C948 C951 1.403 . S
H949 C955 0.930 . S
C950 H936 0.930 . S
C950 C948 1.395 . S
C950 C953 1.403 . S
C951 C948 1.403 . S
C951 C952 1.524 . S
C951 C955 1.400 . S
C952 H937 0.960 . S
C952 H938 0.960 . S
C952 H939 0.960 . S
C952 C951 1.524 . S
C953 C950 1.403 . S
C953 C954 1.392 . S
C953 C957 1.495 . S
C954 C953 1.392 . S
C954 C955 1.385 . S
C954 C956 1.478 . S
C955 H949 0.930 . S
C955 C951 1.400 . S
C955 C954 1.385 . S
C956 C954 1.478 . S
C956 C958 1.381 . S
C956 C962 1.383 . S
C957 C953 1.495 . S
C957 H963 0.959 . S
C957 H964 0.961 . S
C957 H965 0.960 . S
C958 C956 1.381 . S
C958 C959 1.394 . S
C958 H966 0.930 . S
C959 C958 1.394 . S
C959 C960 1.383 . S
C959 H967 0.929 . S
C960 C959 1.383 . S
C960 C961 1.377 . S
C961 H945 0.930 . S
C961 C960 1.377 . S
C961 C962 1.379 . S
C962 H946 0.931 . S
C962 C956 1.383 . S
C962 C961 1.379 . S
H963 C957 0.959 . S
H964 C957 0.961 . S
H965 C957 0.960 . S
H966 C958 0.930 . S
H967 C959 0.929 . S
H968 C976 0.929 . S
H969 C978 0.930 . S
H970 C980 0.930 . S
H971 C983 0.929 . S
H972 C986 0.930 1_455 S
H973 C988 0.960 . S
H974 C988 0.960 . S
H975 C988 0.960 . S
C976 H968 0.929 . S
C976 C977 1.377 . S
C976 C978 1.384 . S
C977 C976 1.377 . S
C977 C983 1.390 1_655 S
C978 H969 0.930 . S
C978 C976 1.384 . S
C978 C979 1.372 . S
C979 C978 1.372 . S
C979 C980 1.400 1_655 S
C979 C984 1.490 . S
C980 H970 0.930 . S
C980 C979 1.400 1_455 S
C980 C983 1.386 . S
H981 C997 0.930 . S
H982 C998 0.931 . S
C983 H971 0.929 . S
C983 C977 1.390 1_455 S
C983 C980 1.386 . S
C984 C979 1.490 . S
C984 C986 1.395 . S
C984 C987 1.403 . S
H985 C991 0.930 . S
C986 H972 0.930 1_655 S
C986 C984 1.395 . S
C986 C989 1.403 . S
C987 C984 1.403 . S
C987 C988 1.524 . S
C987 C991 1.400 . S
C988 H973 0.960 . S
C988 H974 0.960 . S
C988 H975 0.960 . S
C988 C987 1.524 . S
C989 C986 1.403 . S
C989 C990 1.392 . S
C989 C993 1.495 1_655 S
C990 C989 1.392 . S
C990 C991 1.385 . S
C990 C992 1.478 . S
C991 H985 0.930 . S
C991 C987 1.400 . S
C991 C990 1.385 . S
C992 C990 1.478 . S
C992 C994 1.381 . S
C992 C998 1.383 1_655 S
C993 C989 1.495 1_455 S
C993 H999 0.959 . S
C993 H1000 0.961 . S
C993 H1001 0.960 1_455 S
C994 C992 1.381 . S
C994 C995 1.394 . S
C994 H1002 0.930 . S
C995 C994 1.394 . S
C995 C996 1.383 . S
C995 H1003 0.929 . S
C996 C995 1.383 . S
C996 C997 1.377 1_655 S
C997 H981 0.930 . S
C997 C996 1.377 1_455 S
C997 C998 1.379 . S
C998 H982 0.931 . S
C998 C992 1.383 1_455 S
C998 C997 1.379 . S
H999 C993 0.959 . S
H1000 C993 0.961 . S
H1001 C993 0.960 1_655 S
H1002 C994 0.930 . S
H1003 C995 0.929 . S
H1004 C1012 0.929 . S
H1005 C1014 0.930 . S
H1006 C1016 0.930 . S
H1007 C1019 0.929 . S
H1008 C1022 0.930 . S
H1009 C1024 0.960 . S
H1010 C1024 0.960 . S
H1011 C1024 0.960 1_545 S
C1012 H1004 0.929 . S
C1012 C1013 1.377 . S
C1012 C1014 1.384 . S
C1013 C1012 1.377 . S
C1013 C1019 1.390 1_565 S
C1014 H1005 0.930 . S
C1014 C1012 1.384 . S
C1014 C1015 1.372 . S
C1015 C1014 1.372 . S
C1015 C1016 1.400 1_565 S
C1015 C1020 1.490 . S
C1016 H1006 0.930 . S
C1016 C1015 1.400 1_545 S
C1016 C1019 1.386 . S
H1017 C1033 0.930 . S
H1018 C1034 0.931 . S
C1019 H1007 0.929 . S
C1019 C1013 1.390 1_545 S
C1019 C1016 1.386 . S
C1020 C1015 1.490 . S
C1020 C1022 1.395 . S
C1020 C1023 1.403 . S
H1021 C1027 0.930 . S
C1022 H1008 0.930 . S
C1022 C1020 1.395 . S
C1022 C1025 1.403 . S
C1023 C1020 1.403 . S
C1023 C1024 1.524 . S
C1023 C1027 1.400 . S
C1024 H1009 0.960 . S
C1024 H1010 0.960 . S
C1024 H1011 0.960 1_565 S
C1024 C1023 1.524 . S
C1025 C1022 1.403 . S
C1025 C1026 1.392 . S
C1025 C1029 1.495 . S
C1026 C1025 1.392 . S
C1026 C1027 1.385 . S
C1026 C1028 1.478 . S
C1027 H1021 0.930 . S
C1027 C1023 1.400 . S
C1027 C1026 1.385 . S
C1028 C1026 1.478 . S
C1028 C1030 1.381 . S
C1028 C1034 1.383 1_565 S
C1029 C1025 1.495 . S
C1029 H1035 0.959 . S
C1029 H1036 0.961 1_565 S
C1029 H1037 0.960 . S
C1030 C1028 1.381 . S
C1030 C1031 1.394 . S
C1030 H1038 0.930 . S
C1031 C1030 1.394 . S
C1031 C1032 1.383 . S
C1031 H1039 0.929 . S
C1032 C1031 1.383 . S
C1032 C1033 1.377 1_565 S
C1033 H1017 0.930 . S
C1033 C1032 1.377 1_545 S
C1033 C1034 1.379 . S
C1034 H1018 0.931 . S
C1034 C1028 1.383 1_545 S
C1034 C1033 1.379 . S
H1035 C1029 0.959 . S
H1036 C1029 0.961 1_545 S
H1037 C1029 0.960 . S
H1038 C1030 0.930 . S
H1039 C1031 0.929 . S
H1040 C1048 0.929 . S
H1041 C1050 0.930 . S
H1042 C1052 0.930 . S
H1043 C1055 0.929 . S
H1044 C1058 0.930 . S
H1045 C1060 0.960 . S
H1046 C1060 0.960 . S
H1047 C1060 0.960 . S
C1048 H1040 0.929 . S
C1048 C1049 1.377 . S
C1048 C1050 1.384 . S
C1049 C1048 1.377 . S
C1049 C1055 1.390 . S
C1050 H1041 0.930 . S
C1050 C1048 1.384 . S
C1050 C1051 1.372 . S
C1051 C1050 1.372 . S
C1051 C1052 1.400 . S
C1051 C1056 1.490 . S
C1052 H1042 0.930 . S
C1052 C1051 1.400 . S
C1052 C1055 1.386 . S
H1053 C1069 0.930 . S
H1054 C1070 0.931 . S
C1055 H1043 0.929 . S
C1055 C1049 1.390 . S
C1055 C1052 1.386 . S
C1056 C1051 1.490 . S
C1056 C1058 1.395 . S
C1056 C1059 1.403 . S
H1057 C1063 0.930 . S
C1058 H1044 0.930 . S
C1058 C1056 1.395 . S
C1058 C1061 1.403 . S
C1059 C1056 1.403 . S
C1059 C1060 1.524 . S
C1059 C1063 1.400 . S
C1060 H1045 0.960 . S
C1060 H1046 0.960 . S
C1060 H1047 0.960 . S
C1060 C1059 1.524 . S
C1061 C1058 1.403 . S
C1061 C1062 1.392 . S
C1061 C1065 1.495 . S
C1062 C1061 1.392 . S
C1062 C1063 1.385 . S
C1062 C1064 1.478 . S
C1063 H1057 0.930 . S
C1063 C1059 1.400 . S
C1063 C1062 1.385 . S
C1064 C1062 1.478 . S
C1064 C1066 1.381 . S
C1064 C1070 1.383 . S
C1065 C1061 1.495 . S
C1065 H1071 0.959 . S
C1065 H1072 0.961 . S
C1065 H1073 0.960 . S
C1066 C1064 1.381 . S
C1066 C1067 1.394 . S
C1066 H1074 0.930 . S
C1067 C1066 1.394 . S
C1067 C1068 1.383 . S
C1067 H1075 0.929 . S
C1068 C1067 1.383 . S
C1068 C1069 1.377 . S
C1069 H1053 0.930 . S
C1069 C1068 1.377 . S
C1069 C1070 1.379 . S
C1070 H1054 0.931 . S
C1070 C1064 1.383 . S
C1070 C1069 1.379 . S
H1071 C1065 0.959 . S
H1072 C1065 0.961 . S
H1073 C1065 0.960 . S
H1074 C1066 0.930 . S
H1075 C1067 0.929 . S
H1076 C1084 0.929 . S
H1077 C1086 0.930 . S
H1078 C1088 0.930 . S
H1079 C1091 0.929 . S
H1080 C1094 0.930 . S
H1081 C1096 0.960 . S
H1082 C1096 0.960 . S
H1083 C1096 0.960 . S
C1084 H1076 0.929 . S
C1084 C1085 1.377 . S
C1084 C1086 1.384 . S
C1085 C1084 1.377 . S
C1085 C1091 1.390 . S
C1086 H1077 0.930 . S
C1086 C1084 1.384 . S
C1086 C1087 1.372 . S
C1087 C1086 1.372 . S
C1087 C1088 1.400 . S
C1087 C1092 1.490 . S
C1088 H1078 0.930 . S
C1088 C1087 1.400 . S
C1088 C1091 1.386 . S
H1089 C1105 0.930 . S
H1090 C1106 0.931 . S
C1091 H1079 0.929 . S
C1091 C1085 1.390 . S
C1091 C1088 1.386 . S
C1092 C1087 1.490 . S
C1092 C1094 1.395 . S
C1092 C1095 1.403 . S
H1093 C1099 0.930 . S
C1094 H1080 0.930 . S
C1094 C1092 1.395 . S
C1094 C1097 1.403 . S
C1095 C1092 1.403 . S
C1095 C1096 1.524 . S
C1095 C1099 1.400 . S
C1096 H1081 0.960 . S
C1096 H1082 0.960 . S
C1096 H1083 0.960 . S
C1096 C1095 1.524 . S
C1097 C1094 1.403 . S
C1097 C1098 1.392 . S
C1097 C1101 1.495 . S
C1098 C1097 1.392 . S
C1098 C1099 1.385 . S
C1098 C1100 1.478 . S
C1099 H1093 0.930 . S
C1099 C1095 1.400 . S
C1099 C1098 1.385 . S
C1100 C1098 1.478 . S
C1100 C1102 1.381 . S
C1100 C1106 1.383 . S
C1101 C1097 1.495 . S
C1101 H1107 0.959 . S
C1101 H1108 0.961 . S
C1101 H1109 0.960 . S
C1102 C1100 1.381 . S
C1102 C1103 1.394 . S
C1102 H1110 0.930 . S
C1103 C1102 1.394 . S
C1103 C1104 1.383 . S
C1103 H1111 0.929 . S
C1104 C1103 1.383 . S
C1104 C1105 1.377 . S
C1105 H1089 0.930 . S
C1105 C1104 1.377 . S
C1105 C1106 1.379 . S
C1106 H1090 0.931 . S
C1106 C1100 1.383 . S
C1106 C1105 1.379 . S
H1107 C1101 0.959 . S
H1108 C1101 0.961 . S
H1109 C1101 0.960 . S
H1110 C1102 0.930 . S
H1111 C1103 0.929 . S
C257 C74 1.704 . S
C276 C90 1.746 1_545 S
C312 C130 1.745 . S
C293 C85 1.698 . S
C348 C170 1.758 . S
C329 C52 1.690 . S
C384 C210 1.752 1_455 S
C365 C63 1.692 . S
C420 C103 1.763 1_565 S
C401 C30 1.693 1_565 S
C437 C41 1.689 . S
C456 C143 1.755 . S
C473 C8 1.694 . S
C492 C183 1.763 . S
C509 C19 1.686 1_655 S
C528 C223 1.749 . S
C564 C114 0.475 . S
C545 C62 0.437 . S
C600 C154 0.466 . S
C581 C73 0.436 . S
C636 C194 0.416 . S
C617 C84 0.448 . S
C653 C51 0.449 . S
C672 C234 0.441 . S
C689 C18 0.476 1_655 S
C708 C97 0.451 . S
C744 C137 0.410 . S
C725 C29 0.480 1_565 S
C780 C177 0.476 . S
C761 C40 0.492 . S
C797 C7 0.483 . S
C816 C217 0.470 . S
C833 C60 1.593 . S
C852 C91 2.049 . S
C869 C71 1.578 . S
C888 C131 2.049 . S
C924 C171 2.042 . S
C905 C82 1.585 . S
C960 C211 2.045 . S
C941 C49 1.590 . S
C977 C16 1.624 1_655 S
C996 C110 2.043 . S
C1032 C150 2.043 . S
C1013 C27 1.623 1_565 S
C1068 C190 2.047 . S
C1049 C38 1.615 . S
C1085 C5 1.614 . S
C1104 C230 2.050 . S
