# Generated by pormake.
# Topology gar, (4,6)-cn, num edge types: 1
# Building blocks:
#     Node 0, Type 0, BuildingBlock: NAHDIM_clean_sbu_0, # of connection points: 4
#     Node 1, Type 0, BuildingBlock: NAHDIM_clean_sbu_0, # of connection points: 4
#     Node 2, Type 0, BuildingBlock: NAHDIM_clean_sbu_0, # of connection points: 4
#     Node 3, Type 0, BuildingBlock: NAHDIM_clean_sbu_0, # of connection points: 4
#     Node 4, Type 0, BuildingBlock: NAHDIM_clean_sbu_0, # of connection points: 4
#     Node 5, Type 0, BuildingBlock: NAHDIM_clean_sbu_0, # of connection points: 4
#     Node 6, Type 0, BuildingBlock: NAHDIM_clean_sbu_0, # of connection points: 4
#     Node 7, Type 0, BuildingBlock: NAHDIM_clean_sbu_0, # of connection points: 4
#     Node 8, Type 0, BuildingBlock: NAHDIM_clean_sbu_0, # of connection points: 4
#     Node 9, Type 0, BuildingBlock: NAHDIM_clean_sbu_0, # of connection points: 4
#     Node 10, Type 0, BuildingBlock: NAHDIM_clean_sbu_0, # of connection points: 4
#     Node 11, Type 0, BuildingBlock: NAHDIM_clean_sbu_0, # of connection points: 4
#     Node 12, Type 0, BuildingBlock: NAHDIM_clean_sbu_0, # of connection points: 4
#     Node 13, Type 0, BuildingBlock: NAHDIM_clean_sbu_0, # of connection points: 4
#     Node 14, Type 0, BuildingBlock: NAHDIM_clean_sbu_0, # of connection points: 4
#     Node 15, Type 0, BuildingBlock: NAHDIM_clean_sbu_0, # of connection points: 4
#     Node 16, Type 0, BuildingBlock: NAHDIM_clean_sbu_0, # of connection points: 4
#     Node 17, Type 0, BuildingBlock: NAHDIM_clean_sbu_0, # of connection points: 4
#     Node 18, Type 0, BuildingBlock: NAHDIM_clean_sbu_0, # of connection points: 4
#     Node 19, Type 0, BuildingBlock: NAHDIM_clean_sbu_0, # of connection points: 4
#     Node 20, Type 0, BuildingBlock: NAHDIM_clean_sbu_0, # of connection points: 4
#     Node 21, Type 0, BuildingBlock: NAHDIM_clean_sbu_0, # of connection points: 4
#     Node 22, Type 0, BuildingBlock: NAHDIM_clean_sbu_0, # of connection points: 4
#     Node 23, Type 0, BuildingBlock: NAHDIM_clean_sbu_0, # of connection points: 4
#     Node 24, Type 1, BuildingBlock: MIFKUJ_clean_sbu_0, # of connection points: 6
#     Node 25, Type 1, BuildingBlock: MIFKUJ_clean_sbu_0, # of connection points: 6
#     Node 26, Type 1, BuildingBlock: MIFKUJ_clean_sbu_0, # of connection points: 6
#     Node 27, Type 1, BuildingBlock: MIFKUJ_clean_sbu_0, # of connection points: 6
#     Node 28, Type 1, BuildingBlock: MIFKUJ_clean_sbu_0, # of connection points: 6
#     Node 29, Type 1, BuildingBlock: MIFKUJ_clean_sbu_0, # of connection points: 6
#     Node 30, Type 1, BuildingBlock: MIFKUJ_clean_sbu_0, # of connection points: 6
#     Node 31, Type 1, BuildingBlock: MIFKUJ_clean_sbu_0, # of connection points: 6
#     Node 32, Type 1, BuildingBlock: MIFKUJ_clean_sbu_0, # of connection points: 6
#     Node 33, Type 1, BuildingBlock: MIFKUJ_clean_sbu_0, # of connection points: 6
#     Node 34, Type 1, BuildingBlock: MIFKUJ_clean_sbu_0, # of connection points: 6
#     Node 35, Type 1, BuildingBlock: MIFKUJ_clean_sbu_0, # of connection points: 6
#     Node 36, Type 1, BuildingBlock: MIFKUJ_clean_sbu_0, # of connection points: 6
#     Node 37, Type 1, BuildingBlock: MIFKUJ_clean_sbu_0, # of connection points: 6
#     Node 38, Type 1, BuildingBlock: MIFKUJ_clean_sbu_0, # of connection points: 6
#     Node 39, Type 1, BuildingBlock: MIFKUJ_clean_sbu_0, # of connection points: 6
#     Edge 40, Type (0, 1), BuildingBlock: KIFKEQ_clean_linker_1, # of connection points: 2
#     Edge 41, Type (0, 1), BuildingBlock: KIFKEQ_clean_linker_1, # of connection points: 2
#     Edge 42, Type (0, 1), BuildingBlock: KIFKEQ_clean_linker_1, # of connection points: 2
#     Edge 43, Type (0, 1), BuildingBlock: KIFKEQ_clean_linker_1, # of connection points: 2
#     Edge 44, Type (0, 1), BuildingBlock: KIFKEQ_clean_linker_1, # of connection points: 2
#     Edge 45, Type (0, 1), BuildingBlock: KIFKEQ_clean_linker_1, # of connection points: 2
#     Edge 46, Type (0, 1), BuildingBlock: KIFKEQ_clean_linker_1, # of connection points: 2
#     Edge 47, Type (0, 1), BuildingBlock: KIFKEQ_clean_linker_1, # of connection points: 2
#     Edge 48, Type (0, 1), BuildingBlock: KIFKEQ_clean_linker_1, # of connection points: 2
#     Edge 49, Type (0, 1), BuildingBlock: KIFKEQ_clean_linker_1, # of connection points: 2
#     Edge 50, Type (0, 1), BuildingBlock: KIFKEQ_clean_linker_1, # of connection points: 2
#     Edge 51, Type (0, 1), BuildingBlock: KIFKEQ_clean_linker_1, # of connection points: 2
#     Edge 52, Type (0, 1), BuildingBlock: KIFKEQ_clean_linker_1, # of connection points: 2
#     Edge 53, Type (0, 1), BuildingBlock: KIFKEQ_clean_linker_1, # of connection points: 2
#     Edge 54, Type (0, 1), BuildingBlock: KIFKEQ_clean_linker_1, # of connection points: 2
#     Edge 55, Type (0, 1), BuildingBlock: KIFKEQ_clean_linker_1, # of connection points: 2
#     Edge 56, Type (0, 1), BuildingBlock: KIFKEQ_clean_linker_1, # of connection points: 2
#     Edge 57, Type (0, 1), BuildingBlock: KIFKEQ_clean_linker_1, # of connection points: 2
#     Edge 58, Type (0, 1), BuildingBlock: KIFKEQ_clean_linker_1, # of connection points: 2
#     Edge 59, Type (0, 1), BuildingBlock: KIFKEQ_clean_linker_1, # of connection points: 2
#     Edge 60, Type (0, 1), BuildingBlock: KIFKEQ_clean_linker_1, # of connection points: 2
#     Edge 61, Type (0, 1), BuildingBlock: KIFKEQ_clean_linker_1, # of connection points: 2
#     Edge 62, Type (0, 1), BuildingBlock: KIFKEQ_clean_linker_1, # of connection points: 2
#     Edge 63, Type (0, 1), BuildingBlock: KIFKEQ_clean_linker_1, # of connection points: 2
#     Edge 64, Type (0, 1), BuildingBlock: KIFKEQ_clean_linker_1, # of connection points: 2
#     Edge 65, Type (0, 1), BuildingBlock: KIFKEQ_clean_linker_1, # of connection points: 2
#     Edge 66, Type (0, 1), BuildingBlock: KIFKEQ_clean_linker_1, # of connection points: 2
#     Edge 67, Type (0, 1), BuildingBlock: KIFKEQ_clean_linker_1, # of connection points: 2
#     Edge 68, Type (0, 1), BuildingBlock: KIFKEQ_clean_linker_1, # of connection points: 2
#     Edge 69, Type (0, 1), BuildingBlock: KIFKEQ_clean_linker_1, # of connection points: 2
#     Edge 70, Type (0, 1), BuildingBlock: KIFKEQ_clean_linker_1, # of connection points: 2
#     Edge 71, Type (0, 1), BuildingBlock: KIFKEQ_clean_linker_1, # of connection points: 2
#     Edge 72, Type (0, 1), BuildingBlock: KIFKEQ_clean_linker_1, # of connection points: 2
#     Edge 73, Type (0, 1), BuildingBlock: KIFKEQ_clean_linker_1, # of connection points: 2
#     Edge 74, Type (0, 1), BuildingBlock: KIFKEQ_clean_linker_1, # of connection points: 2
#     Edge 75, Type (0, 1), BuildingBlock: KIFKEQ_clean_linker_1, # of connection points: 2
#     Edge 76, Type (0, 1), BuildingBlock: KIFKEQ_clean_linker_1, # of connection points: 2
#     Edge 77, Type (0, 1), BuildingBlock: KIFKEQ_clean_linker_1, # of connection points: 2
#     Edge 78, Type (0, 1), BuildingBlock: KIFKEQ_clean_linker_1, # of connection points: 2
#     Edge 79, Type (0, 1), BuildingBlock: KIFKEQ_clean_linker_1, # of connection points: 2
#     Edge 80, Type (0, 1), BuildingBlock: KIFKEQ_clean_linker_1, # of connection points: 2
#     Edge 81, Type (0, 1), BuildingBlock: KIFKEQ_clean_linker_1, # of connection points: 2
#     Edge 82, Type (0, 1), BuildingBlock: KIFKEQ_clean_linker_1, # of connection points: 2
#     Edge 83, Type (0, 1), BuildingBlock: KIFKEQ_clean_linker_1, # of connection points: 2
#     Edge 84, Type (0, 1), BuildingBlock: KIFKEQ_clean_linker_1, # of connection points: 2
#     Edge 85, Type (0, 1), BuildingBlock: KIFKEQ_clean_linker_1, # of connection points: 2
#     Edge 86, Type (0, 1), BuildingBlock: KIFKEQ_clean_linker_1, # of connection points: 2
#     Edge 87, Type (0, 1), BuildingBlock: KIFKEQ_clean_linker_1, # of connection points: 2
#     Edge 88, Type (0, 1), BuildingBlock: KIFKEQ_clean_linker_1, # of connection points: 2
#     Edge 89, Type (0, 1), BuildingBlock: KIFKEQ_clean_linker_1, # of connection points: 2
#     Edge 90, Type (0, 1), BuildingBlock: KIFKEQ_clean_linker_1, # of connection points: 2
#     Edge 91, Type (0, 1), BuildingBlock: KIFKEQ_clean_linker_1, # of connection points: 2
#     Edge 92, Type (0, 1), BuildingBlock: KIFKEQ_clean_linker_1, # of connection points: 2
#     Edge 93, Type (0, 1), BuildingBlock: KIFKEQ_clean_linker_1, # of connection points: 2
#     Edge 94, Type (0, 1), BuildingBlock: KIFKEQ_clean_linker_1, # of connection points: 2
#     Edge 95, Type (0, 1), BuildingBlock: KIFKEQ_clean_linker_1, # of connection points: 2
#     Edge 96, Type (0, 1), BuildingBlock: KIFKEQ_clean_linker_1, # of connection points: 2
#     Edge 97, Type (0, 1), BuildingBlock: KIFKEQ_clean_linker_1, # of connection points: 2
#     Edge 98, Type (0, 1), BuildingBlock: KIFKEQ_clean_linker_1, # of connection points: 2
#     Edge 99, Type (0, 1), BuildingBlock: KIFKEQ_clean_linker_1, # of connection points: 2
#     Edge 100, Type (0, 1), BuildingBlock: KIFKEQ_clean_linker_1, # of connection points: 2
#     Edge 101, Type (0, 1), BuildingBlock: KIFKEQ_clean_linker_1, # of connection points: 2
#     Edge 102, Type (0, 1), BuildingBlock: KIFKEQ_clean_linker_1, # of connection points: 2
#     Edge 103, Type (0, 1), BuildingBlock: KIFKEQ_clean_linker_1, # of connection points: 2
#     Edge 104, Type (0, 1), BuildingBlock: KIFKEQ_clean_linker_1, # of connection points: 2
#     Edge 105, Type (0, 1), BuildingBlock: KIFKEQ_clean_linker_1, # of connection points: 2
#     Edge 106, Type (0, 1), BuildingBlock: KIFKEQ_clean_linker_1, # of connection points: 2
#     Edge 107, Type (0, 1), BuildingBlock: KIFKEQ_clean_linker_1, # of connection points: 2
#     Edge 108, Type (0, 1), BuildingBlock: KIFKEQ_clean_linker_1, # of connection points: 2
#     Edge 109, Type (0, 1), BuildingBlock: KIFKEQ_clean_linker_1, # of connection points: 2
#     Edge 110, Type (0, 1), BuildingBlock: KIFKEQ_clean_linker_1, # of connection points: 2
#     Edge 111, Type (0, 1), BuildingBlock: KIFKEQ_clean_linker_1, # of connection points: 2
#     Edge 112, Type (0, 1), BuildingBlock: KIFKEQ_clean_linker_1, # of connection points: 2
#     Edge 113, Type (0, 1), BuildingBlock: KIFKEQ_clean_linker_1, # of connection points: 2
#     Edge 114, Type (0, 1), BuildingBlock: KIFKEQ_clean_linker_1, # of connection points: 2
#     Edge 115, Type (0, 1), BuildingBlock: KIFKEQ_clean_linker_1, # of connection points: 2
#     Edge 116, Type (0, 1), BuildingBlock: KIFKEQ_clean_linker_1, # of connection points: 2
#     Edge 117, Type (0, 1), BuildingBlock: KIFKEQ_clean_linker_1, # of connection points: 2
#     Edge 118, Type (0, 1), BuildingBlock: KIFKEQ_clean_linker_1, # of connection points: 2
#     Edge 119, Type (0, 1), BuildingBlock: KIFKEQ_clean_linker_1, # of connection points: 2
#     Edge 120, Type (0, 1), BuildingBlock: KIFKEQ_clean_linker_1, # of connection points: 2
#     Edge 121, Type (0, 1), BuildingBlock: KIFKEQ_clean_linker_1, # of connection points: 2
#     Edge 122, Type (0, 1), BuildingBlock: KIFKEQ_clean_linker_1, # of connection points: 2
#     Edge 123, Type (0, 1), BuildingBlock: KIFKEQ_clean_linker_1, # of connection points: 2
#     Edge 124, Type (0, 1), BuildingBlock: KIFKEQ_clean_linker_1, # of connection points: 2
#     Edge 125, Type (0, 1), BuildingBlock: KIFKEQ_clean_linker_1, # of connection points: 2
#     Edge 126, Type (0, 1), BuildingBlock: KIFKEQ_clean_linker_1, # of connection points: 2
#     Edge 127, Type (0, 1), BuildingBlock: KIFKEQ_clean_linker_1, # of connection points: 2
#     Edge 128, Type (0, 1), BuildingBlock: KIFKEQ_clean_linker_1, # of connection points: 2
#     Edge 129, Type (0, 1), BuildingBlock: KIFKEQ_clean_linker_1, # of connection points: 2
#     Edge 130, Type (0, 1), BuildingBlock: KIFKEQ_clean_linker_1, # of connection points: 2
#     Edge 131, Type (0, 1), BuildingBlock: KIFKEQ_clean_linker_1, # of connection points: 2
#     Edge 132, Type (0, 1), BuildingBlock: KIFKEQ_clean_linker_1, # of connection points: 2
#     Edge 133, Type (0, 1), BuildingBlock: KIFKEQ_clean_linker_1, # of connection points: 2
#     Edge 134, Type (0, 1), BuildingBlock: KIFKEQ_clean_linker_1, # of connection points: 2
#     Edge 135, Type (0, 1), BuildingBlock: KIFKEQ_clean_linker_1, # of connection points: 2
# Relax obj value: 0.112
# Max RMSD: 0.281
# Mean RMSD: 0.159
data_MOF--net-gar--node1-NAHDIM_clean_sbu_0--node2-MIFKUJ_clean_sbu_0--edge1-KIFKEQ_clean_linker_1
_symmetry_space_group_name_H-M    P1
_symmetry_Int_Tables_number       1
_symmetry_cell_setting            triclinic
loop_
_symmetry_equiv_pos_as_xyz
'x, y, z'
_cell_length_a     58.180896
_cell_length_b     57.000174
_cell_length_c     53.795189
_cell_angle_alpha  94.673329
_cell_angle_beta   95.00211
_cell_angle_gamma 99.515076
loop_
_atom_site_label
_atom_site_type_symbol
_atom_site_fract_x
_atom_site_fract_y
_atom_site_fract_z
_atom_type_partial_charge
C0 C 0.07215 0.27405 0.38419 0.0
O1 O 0.07445 0.27721 0.40881 0.0
O2 O 0.02138 0.24348 0.41217 0.0
Zn3 Zn 0.02462 0.27302 0.39328 0.0
O4 O 0.02954 0.30301 0.4173 0.0
C5 C 0.98164 0.25296 0.36227 0.0
O6 O 0.98826 0.23271 0.36711 0.0
O7 O 0.05189 0.27233 0.37256 0.0
C8 C 0.01207 0.30702 0.42862 0.0
O9 O 0.99247 0.29143 0.42451 0.0
C10 C 0.02291 0.24301 0.43586 0.0
O11 O 0.02686 0.26318 0.45045 0.0
O12 O 0.99478 0.27252 0.37087 0.0
C13 C 0.96594 0.77316 0.66819 0.0
O14 O 0.97411 0.7917 0.65658 0.0
O15 O 0.99506 0.71955 0.62375 0.0
Zn16 Zn 0.00105 0.75199 0.64337 0.0
O17 O 0.00239 0.77767 0.61931 0.0
C18 C 0.04941 0.75165 0.65116 0.0
O19 O 0.04573 0.74873 0.62656 0.0
O20 O 0.97506 0.7544 0.66576 0.0
C21 C 0.01786 0.79652 0.62201 0.0
O22 O 0.03391 0.79989 0.6413 0.0
C23 C 0.9909 0.71571 0.60003 0.0
O24 O 0.98889 0.73372 0.58671 0.0
O25 O 0.03232 0.7542 0.66374 0.0
C26 C 0.57316 0.77985 0.8903 0.0
O27 O 0.57552 0.79141 0.91277 0.0
O28 O 0.52377 0.74177 0.92305 0.0
Zn29 Zn 0.52561 0.76976 0.90199 0.0
O30 O 0.53013 0.80047 0.92491 0.0
C31 C 0.47665 0.7544 0.88515 0.0
O32 O 0.4782 0.74138 0.90407 0.0
O33 O 0.5529 0.76926 0.88102 0.0
C34 C 0.51579 0.80248 0.94117 0.0
O35 O 0.49888 0.78445 0.94274 0.0
C36 C 0.53653 0.74255 0.94363 0.0
O37 O 0.55166 0.76206 0.9515 0.0
O38 O 0.49503 0.76773 0.87991 0.0
C39 C 0.45992 0.24991 0.15093 0.0
O40 O 0.45907 0.24522 0.12651 0.0
O41 O 0.50448 0.22257 0.12315 0.0
Zn42 Zn 0.50761 0.25449 0.14364 0.0
O43 O 0.50759 0.28123 0.12131 0.0
C44 C 0.54807 0.24217 0.17089 0.0
O45 O 0.53756 0.22053 0.16209 0.0
O46 O 0.47983 0.25443 0.16374 0.0
C47 C 0.52207 0.28648 0.10539 0.0
O48 O 0.53868 0.27373 0.10248 0.0
C49 C 0.49808 0.21719 0.09988 0.0
O50 O 0.49192 0.23358 0.08613 0.0
O51 O 0.53821 0.25989 0.16621 0.0
C52 C 0.98553 0.75501 0.18767 0.0
O53 O 0.98855 0.73452 0.17654 0.0
O54 O 0.01705 0.74542 0.1354 0.0
Zn55 Zn 0.02154 0.77653 0.15751 0.0
O56 O 0.01644 0.80408 0.13761 0.0
C57 C 0.06016 0.76449 0.1862 0.0
O58 O 0.04623 0.74363 0.18248 0.0
O59 O 0.99763 0.77433 0.18244 0.0
C60 C 0.0223 0.80751 0.1158 0.0
O61 O 0.03348 0.79238 0.10422 0.0
C62 C 0.03325 0.73849 0.12382 0.0
O63 O 0.05364 0.75264 0.1249 0.0
O64 O 0.0535 0.7824 0.17701 0.0
C65 C 0.55276 0.7616 0.37837 0.0
O66 O 0.55503 0.76815 0.40257 0.0
O67 O 0.5034 0.72343 0.40768 0.0
Zn68 Zn 0.5051 0.75224 0.38804 0.0
O69 O 0.50931 0.78324 0.41013 0.0
C70 C 0.45588 0.74168 0.37294 0.0
O71 O 0.45567 0.73432 0.39544 0.0
O72 O 0.53242 0.75373 0.36732 0.0
C73 C 0.49629 0.78851 0.42679 0.0
O74 O 0.47888 0.77236 0.43175 0.0
C75 C 0.51468 0.72239 0.42879 0.0
O76 O 0.52862 0.74157 0.43989 0.0
O77 O 0.47538 0.74963 0.36511 0.0
C78 C 0.4871 0.25924 0.69573 0.0
O79 O 0.49563 0.23939 0.69245 0.0
O80 O 0.51387 0.24259 0.64153 0.0
Zn81 Zn 0.51909 0.27589 0.65956 0.0
O82 O 0.51438 0.30087 0.63575 0.0
C83 C 0.56845 0.27564 0.66828 0.0
O84 O 0.56456 0.26545 0.64518 0.0
O85 O 0.49485 0.27694 0.68406 0.0
C86 C 0.52902 0.31046 0.62174 0.0
O87 O 0.54965 0.30399 0.62172 0.0
C88 C 0.51804 0.23723 0.61915 0.0
O89 O 0.52546 0.25432 0.60532 0.0
O90 O 0.55154 0.28243 0.67868 0.0
C91 C 0.03659 0.24961 0.84764 0.0
O92 O 0.01968 0.23121 0.84126 0.0
O93 O 0.01062 0.22672 0.90424 0.0
Zn94 Zn 0.00823 0.25689 0.8877 0.0
O95 O 0.00953 0.28508 0.91345 0.0
C96 C 0.96315 0.23443 0.8594 0.0
O97 O 0.96775 0.21428 0.86715 0.0
O98 O 0.03542 0.26357 0.86699 0.0
C99 C 0.99072 0.29192 0.91906 0.0
O100 O 0.97047 0.27963 0.90901 0.0
C101 C 0.00308 0.2223 0.92515 0.0
O102 O 0.99274 0.23797 0.93712 0.0
O103 O 0.97793 0.25356 0.86533 0.0
C104 C 0.35532 0.05268 0.24802 0.0
O105 O 0.35896 0.03814 0.22909 0.0
O106 O 0.41051 0.0307 0.24636 0.0
Zn107 Zn 0.38881 0.02916 0.27354 0.0
O108 O 0.40809 0.03582 0.30726 0.0
C109 C 0.37879 0.97814 0.26351 0.0
O110 O 0.40043 0.98175 0.25755 0.0
O111 O 0.36661 0.05246 0.26931 0.0
C112 C 0.42684 0.02721 0.31064 0.0
O113 O 0.43331 0.01427 0.29204 0.0
C114 C 0.42925 0.04598 0.24765 0.0
O115 O 0.43421 0.06252 0.26673 0.0
O116 O 0.36978 0.99596 0.27097 0.0
C117 C 0.30813 0.12085 0.5015 0.0
O118 O 0.31179 0.14298 0.49558 0.0
O119 O 0.26397 0.15317 0.53173 0.0
Zn120 Zn 0.26112 0.13016 0.50056 0.0
O121 O 0.26377 0.14954 0.47064 0.0
C122 C 0.22147 0.10082 0.51712 0.0
O123 O 0.23397 0.10722 0.53888 0.0
O124 O 0.28741 0.11102 0.5044 0.0
C125 C 0.2712 0.14207 0.45044 0.0
O126 O 0.27696 0.12071 0.44849 0.0
C127 C 0.2468 0.16223 0.53886 0.0
O128 O 0.22641 0.15706 0.52527 0.0
O129 O 0.22966 0.10796 0.49736 0.0
C130 C 0.15103 0.9682 0.77933 0.0
O131 O 0.12834 0.96464 0.77275 0.0
O132 O 0.12221 0.01079 0.7561 0.0
Zn133 Zn 0.14079 0.01427 0.79014 0.0
O134 O 0.11966 0.00829 0.81792 0.0
C135 C 0.15323 0.06479 0.78777 0.0
O136 O 0.13166 0.06148 0.777 0.0
O137 O 0.16124 0.98896 0.78845 0.0
C138 C 0.10705 0.02282 0.82615 0.0
O139 O 0.10761 0.04342 0.81673 0.0
C140 C 0.10154 0.01458 0.75047 0.0
O141 O 0.0894 0.02181 0.76814 0.0
O142 O 0.16129 0.04703 0.79562 0.0
C143 C 0.2112 0.90147 0.03337 0.0
O144 O 0.20738 0.87841 0.03565 0.0
O145 O 0.25277 0.86633 0.04938 0.0
Zn146 Zn 0.25526 0.88989 0.02333 0.0
O147 O 0.24887 0.87097 0.98935 0.0
C148 C 0.29812 0.91795 0.04801 0.0
O149 O 0.28727 0.91438 0.06815 0.0
O150 O 0.23112 0.91117 0.02778 0.0
C151 C 0.26484 0.8606 0.98117 0.0
O152 O 0.28535 0.8636 0.99438 0.0
C153 C 0.26838 0.85387 0.05482 0.0
O154 O 0.28792 0.857 0.04407 0.0
O155 O 0.28764 0.90946 0.02668 0.0
C156 C 0.22481 0.40651 0.02318 0.0
O157 O 0.22386 0.38569 0.01037 0.0
O158 O 0.2687 0.37554 0.06697 0.0
Zn159 Zn 0.27063 0.3975 0.03905 0.0
O160 O 0.27088 0.37947 0.00521 0.0
C161 C 0.31963 0.41113 0.04523 0.0
O162 O 0.31723 0.3877 0.04354 0.0
O163 O 0.24334 0.41555 0.03737 0.0
C164 C 0.26888 0.35706 -0.00036 0.0
O165 O 0.26603 0.34251 0.01727 0.0
C166 C 0.25054 0.36072 0.07019 0.0
O167 O 0.23156 0.35896 0.05455 0.0
O168 O 0.30131 0.4206 0.04474 0.0
C169 C 0.81189 0.11206 0.00875 0.0
O170 O 0.81768 0.13383 0.0023 0.0
O171 O 0.7803 0.14925 0.05849 0.0
Zn172 Zn 0.77189 0.13084 0.02447 0.0
O173 O 0.77383 0.15409 0.99823 0.0
C174 C 0.73108 0.09258 0.02423 0.0
O175 O 0.74633 0.07813 0.02703 0.0
O176 O 0.79297 0.10662 0.01873 0.0
C177 C 0.75889 0.16802 0.99702 0.0
O178 O 0.74264 0.16648 0.0126 0.0
C179 C 0.79123 0.17071 0.06171 0.0
O180 O 0.79888 0.1811 0.04237 0.0
O181 O 0.73829 0.11466 0.02274 0.0
C182 C 0.17761 0.46996 0.29593 0.0
O183 O 0.16862 0.47635 0.31647 0.0
O184 O 0.13436 0.50191 0.23965 0.0
Zn185 Zn 0.15048 0.50288 0.27435 0.0
O186 O 0.1255 0.49632 0.29752 0.0
C187 C 0.17944 0.54739 0.26799 0.0
O188 O 0.17935 0.53696 0.24528 0.0
O189 O 0.1722 0.47889 0.27577 0.0
C190 C 0.11395 0.51275 0.30306 0.0
O191 O 0.11914 0.5335 0.29404 0.0
C192 C 0.1154 0.48759 0.23219 0.0
O193 O 0.10662 0.47204 0.24708 0.0
O194 O 0.16867 0.53592 0.28402 0.0
C195 C 0.71698 0.9055 0.53795 0.0
O196 O 0.71358 0.88204 0.53443 0.0
O197 O 0.75986 0.87591 0.5733 0.0
Zn198 Zn 0.76395 0.89743 0.54499 0.0
O199 O 0.7611 0.87736 0.51173 0.0
C200 C 0.81375 0.91502 0.56054 0.0
O201 O 0.81255 0.89494 0.5711 0.0
O202 O 0.73779 0.91683 0.54326 0.0
C203 C 0.77826 0.87058 0.5018 0.0
O204 O 0.79939 0.87623 0.51374 0.0
C205 C 0.76759 0.85627 0.57332 0.0
O206 O 0.77907 0.84971 0.55473 0.0
O207 O 0.79527 0.91998 0.54927 0.0
C208 C 0.87035 0.06407 0.24732 0.0
O209 O 0.89234 0.06968 0.24287 0.0
O210 O 0.90362 0.02216 0.2205 0.0
Zn211 Zn 0.88299 0.01753 0.24895 0.0
O212 O 0.90299 0.0215 0.28209 0.0
C213 C 0.86648 0.96655 0.233 0.0
O214 O 0.88555 0.96807 0.22142 0.0
O215 O 0.86219 0.04252 0.25029 0.0
C216 C 0.90963 0.00414 0.29247 0.0
O217 O 0.90381 0.98242 0.28107 0.0
C218 C 0.9229 0.01436 0.22053 0.0
O219 O 0.92949 0.0027 0.2392 0.0
O220 O 0.86204 0.98512 0.24505 0.0
C221 C 0.30482 0.60305 0.50029 0.0
O222 O 0.29932 0.61299 0.4799 0.0
O223 O 0.27652 0.64863 0.55642 0.0
Zn224 Zn 0.27222 0.63035 0.52218 0.0
O225 O 0.27603 0.65402 0.49653 0.0
C226 C 0.22829 0.60287 0.53313 0.0
O227 O 0.23834 0.606 0.55628 0.0
O228 O 0.29553 0.60801 0.52016 0.0
C229 C 0.26207 0.66896 0.49559 0.0
O230 O 0.24565 0.66799 0.51097 0.0
C231 C 0.28845 0.66961 0.5609 0.0
O232 O 0.29915 0.67964 0.54294 0.0
O233 O 0.23957 0.61144 0.51578 0.0
C234 C 0.35021 0.54578 0.74468 0.0
O235 O 0.34337 0.52854 0.72652 0.0
O236 O 0.4062 0.52047 0.72695 0.0
Zn237 Zn 0.38805 0.5193 0.75746 0.0
O238 O 0.40956 0.52434 0.78942 0.0
C239 C 0.3575 0.47372 0.73833 0.0
O240 O 0.36048 0.48051 0.7159 0.0
O241 O 0.36852 0.54539 0.75926 0.0
C242 C 0.4249 0.51176 0.79544 0.0
O243 O 0.42841 0.49432 0.77948 0.0
C244 C 0.42763 0.53017 0.72778 0.0
O245 O 0.4388 0.54024 0.74926 0.0
O246 O 0.36736 0.48727 0.75756 0.0
C247 C 0.67588 0.96346 0.76033 0.0
O248 O 0.67448 0.97239 0.7386 0.0
O249 O 0.61965 0.98015 0.73577 0.0
Zn250 Zn 0.6386 0.98976 0.76949 0.0
O251 O 0.61672 0.98815 0.79658 0.0
C252 C 0.64867 0.03834 0.75655 0.0
O253 O 0.62887 0.03173 0.74212 0.0
O254 O 0.66195 0.96811 0.77624 0.0
C255 C 0.61037 0.00647 0.80713 0.0
O256 O 0.61909 0.02779 0.8012 0.0
C257 C 0.5974 0.97775 0.73355 0.0
O258 O 0.58649 0.98013 0.75373 0.0
O259 O 0.65633 0.02334 0.76992 0.0
C260 C 0.80351 0.60036 0.02343 0.0
O261 O 0.79434 0.605 0.04437 0.0
O262 O 0.77724 0.64992 0.03803 0.0
Zn263 Zn 0.77208 0.63053 0.0041 0.0
O264 O 0.77633 0.65154 0.9755 0.0
C265 C 0.72296 0.61853 0.00946 0.0
O266 O 0.72703 0.64041 0.02053 0.0
O267 O 0.79636 0.60898 0.00367 0.0
C268 C 0.7618 0.66436 0.96767 0.0
O269 O 0.74235 0.66444 0.97833 0.0
C270 C 0.77418 0.67129 0.04314 0.0
O271 O 0.76751 0.68356 0.02503 0.0
O272 O 0.7397 0.61012 0.00034 0.0
C273 C 0.84983 0.5423 0.77285 0.0
O274 O 0.84261 0.5258 0.78746 0.0
O275 O 0.91235 0.51676 0.74559 0.0
Zn276 Zn 0.88953 0.51775 0.77146 0.0
O277 O 0.90817 0.52587 0.80527 0.0
C278 C 0.86458 0.47166 0.7506 0.0
O279 O 0.87132 0.4797 0.72973 0.0
O280 O 0.86938 0.54239 0.76398 0.0
C281 C 0.9249 0.51454 0.80989 0.0
O282 O 0.92877 0.49821 0.79281 0.0
C283 C 0.93106 0.53214 0.74733 0.0
O284 O 0.935 0.54929 0.76583 0.0
O285 O 0.86986 0.48513 0.77099 0.0
C286 C 0.71104 0.39661 0.53198 0.0
O287 O 0.7064 0.37319 0.53125 0.0
O288 O 0.75606 0.36314 0.55135 0.0
Zn289 Zn 0.75696 0.38682 0.52545 0.0
O290 O 0.75215 0.36776 0.49144 0.0
C291 C 0.79877 0.41788 0.54994 0.0
O292 O 0.78859 0.41403 0.57045 0.0
O293 O 0.73178 0.40672 0.52964 0.0
C294 C 0.77018 0.36147 0.48296 0.0
O295 O 0.7907 0.36866 0.49587 0.0
C296 C 0.77324 0.3525 0.55623 0.0
O297 O 0.79241 0.35805 0.54522 0.0
O298 O 0.7883 0.40843 0.52892 0.0
C299 C 0.66004 0.46882 0.28326 0.0
O300 O 0.63911 0.46312 0.27085 0.0
O301 O 0.62539 0.50729 0.26061 0.0
Zn302 Zn 0.64356 0.51286 0.29493 0.0
O303 O 0.62162 0.50822 0.32217 0.0
C304 C 0.65626 0.56313 0.28857 0.0
O305 O 0.63558 0.5592 0.2756 0.0
O306 O 0.66575 0.48912 0.29589 0.0
C307 C 0.61195 0.52522 0.33068 0.0
O308 O 0.61653 0.54607 0.32178 0.0
C309 C 0.60495 0.51156 0.25469 0.0
O310 O 0.59343 0.52061 0.27197 0.0
O311 O 0.66335 0.54607 0.29909 0.0
Zn312 Zn 0.03536 0.00816 0.03395 0.0
Zn313 Zn 0.9871 0.01804 0.00753 0.0
C314 C 0.01998 0.9686 0.05776 0.0
O315 O 0.03185 0.98433 0.07543 0.0
C316 C 0.9969 0.05782 0.98179 0.0
O317 O 0.98697 0.04069 0.96447 0.0
O318 O 0.06865 0.00293 0.04326 0.0
O319 O 0.03646 0.01792 0.99905 0.0
O320 O 0.00207 0.99841 0.98244 0.0
C321 C 0.07261 0.98601 0.02809 0.0
O322 O 0.05618 0.97662 0.01005 0.0
O323 O 0.01717 0.97475 0.03562 0.0
C324 C 0.93641 0.01091 0.00931 0.0
O325 O 0.94105 0.00167 0.03038 0.0
O326 O 0.95288 0.01673 0.99575 0.0
O327 O 0.98816 0.01119 0.04396 0.0
O328 O 0.02334 0.02989 0.05955 0.0
O329 O 1.00028 0.05268 0.00426 0.0
C330 C 0.02346 0.00646 0.98034 0.0
C331 C 0.00202 0.02218 0.06239 0.0
Zn332 Zn 0.26027 0.77162 0.3048 0.0
Zn333 Zn 0.26482 0.76471 0.25114 0.0
C334 C 0.23442 0.72479 0.30513 0.0
O335 O 0.22169 0.73707 0.31836 0.0
C336 C 0.29238 0.80822 0.24471 0.0
O337 O 0.30223 0.79264 0.23193 0.0
O338 O 0.25843 0.7748 0.34221 0.0
O339 O 0.29371 0.78206 0.298 0.0
O340 O 0.29082 0.75148 0.26967 0.0
C341 C 0.27661 0.77443 0.35701 0.0
O342 O 0.29698 0.7762 0.34798 0.0
O343 O 0.25241 0.73584 0.29661 0.0
C344 C 0.24708 0.75732 0.19899 0.0
O345 O 0.22697 0.75798 0.20815 0.0
O346 O 0.26522 0.75726 0.21395 0.0
O347 O 0.23139 0.7556 0.25884 0.0
O348 O 0.23462 0.78622 0.28723 0.0
O349 O 0.2746 0.80067 0.25585 0.0
C350 C 0.30308 0.76609 0.28685 0.0
C351 C 0.22224 0.77145 0.27036 0.0
Zn352 Zn 0.48843 0.02036 0.53377 0.0
Zn353 Zn 0.53559 0.0051 0.51759 0.0
C354 C 0.5069 0.06228 0.56512 0.0
O355 O 0.49684 0.04855 0.58098 0.0
C356 C 0.51929 0.96314 0.48714 0.0
O357 O 0.53096 0.97703 0.47248 0.0
O358 O 0.45516 0.02628 0.5367 0.0
O359 O 0.48851 0.00998 0.49731 0.0
O360 O 0.52465 0.02529 0.4912 0.0
C361 C 0.45158 0.04408 0.52493 0.0
O362 O 0.46828 0.05455 0.51259 0.0
O363 O 0.50747 0.05351 0.54273 0.0
C364 C 0.5737 0.98426 0.5305 0.0
O365 O 0.55736 0.97543 0.54421 0.0
O366 O 0.56915 0.99965 0.51572 0.0
O367 O 0.53452 0.01683 0.55358 0.0
O368 O 0.4992 0.99877 0.55882 0.0
O369 O 0.51709 0.9717 0.50921 0.0
C370 C 0.50292 0.02027 0.48352 0.0
C371 C 0.52079 0.00472 0.56674 0.0
Zn372 Zn 0.28733 0.25931 0.7641 0.0
Zn373 Zn 0.23839 0.27273 0.76969 0.0
C374 C 0.27461 0.23007 0.71816 0.0
O375 O 0.28026 0.2142 0.73292 0.0
C376 C 0.24716 0.29983 0.81565 0.0
O377 O 0.23713 0.31334 0.80093 0.0
O378 O 0.32073 0.25341 0.76532 0.0
O379 O 0.28855 0.2947 0.77316 0.0
O380 O 0.25576 0.29833 0.75118 0.0
C381 C 0.33844 0.26898 0.77411 0.0
O382 O 0.33519 0.2893 0.7854 0.0
O383 O 0.27587 0.25161 0.72725 0.0
C384 C 0.1928 0.25893 0.78116 0.0
O385 O 0.20404 0.24288 0.79036 0.0
O386 O 0.20402 0.27529 0.7699 0.0
O387 O 0.23833 0.23859 0.75736 0.0
O388 O 0.26836 0.23506 0.78342 0.0
O389 O 0.25084 0.27974 0.80628 0.0
C390 C 0.27649 0.30724 0.76062 0.0
C391 C 0.24846 0.22613 0.77187 0.0
Zn392 Zn 0.01604 0.98754 0.52087 0.0
Zn393 Zn 0.00754 0.03802 0.51747 0.0
C394 C 0.04414 0.99535 0.56663 0.0
O395 O 0.05753 0.98576 0.55171 0.0
C396 C 0.97961 0.0318 0.47244 0.0
O397 O 0.96814 0.0434 0.48791 0.0
O398 O 0.01826 0.9525 0.52052 0.0
O399 O 0.98211 0.98911 0.51132 0.0
O400 O 0.98178 0.02149 0.53635 0.0
C401 C 0.00342 0.94098 0.53307 0.0
O402 O 0.98789 0.95213 0.54302 0.0
O403 O 0.02422 0.99887 0.55759 0.0
C404 C 0.02164 0.08285 0.50282 0.0
O405 O 0.03493 0.06932 0.4921 0.0
O406 O 0.00718 0.07352 0.51721 0.0
O407 O 0.0412 0.03589 0.52842 0.0
O408 O 0.0414 0.00464 0.50179 0.0
O409 O 0.99875 0.02593 0.48089 0.0
C410 C 0.9714 0.00118 0.52593 0.0
C411 C 0.05213 0.0239 0.51408 0.0
Zn412 Zn 0.2557 0.78859 0.75888 0.0
Zn413 Zn 0.27144 0.73987 0.77691 0.0
C414 C 0.21542 0.76755 0.72698 0.0
O415 O 0.22904 0.77747 0.71111 0.0
C416 C 0.31233 0.75231 0.80857 0.0
O417 O 0.29679 0.74253 0.82268 0.0
O418 O 0.24884 0.82202 0.75525 0.0
O419 O 0.26655 0.78966 0.79543 0.0
O420 O 0.25311 0.75287 0.80357 0.0
C421 C 0.23242 0.82538 0.76863 0.0
O422 O 0.2239 0.80821 0.78188 0.0
O423 O 0.22333 0.76847 0.74991 0.0
C424 C 0.28328 0.69663 0.76089 0.0
O425 O 0.29183 0.71135 0.74509 0.0
O426 O 0.2723 0.70456 0.77833 0.0
O427 O 0.25997 0.74209 0.74092 0.0
O428 O 0.27721 0.77797 0.73422 0.0
O429 O 0.30561 0.75474 0.78591 0.0
C430 C 0.25792 0.77519 0.81031 0.0
C431 C 0.27109 0.75586 0.72696 0.0
Zn432 Zn 0.51095 0.00928 0.00116 0.0
Zn433 Zn 0.51564 0.00739 0.05537 0.0
C434 C 0.55649 0.03437 -0.0002 0.0
O435 O 0.54393 0.04581 0.98508 0.0
C436 C 0.4711 0.9821 0.06138 0.0
O437 O 0.48484 0.97097 0.07509 0.0
O438 O 0.50846 0.00719 0.96344 0.0
O439 O 0.49838 0.97643 0.01031 0.0
O440 O 0.52792 0.97903 0.0392 0.0
C441 C 0.51775 0.99034 0.9539 0.0
O442 O 0.52496 0.97519 0.96865 0.0
O443 O 0.5461 0.01692 0.01018 0.0
C444 C 0.52735 0.02897 0.10664 0.0
O445 O 0.5344 0.04842 0.09595 0.0
O446 O 0.52146 0.00916 0.0931 0.0
O447 O 0.52561 0.04078 0.04561 0.0
O448 O 0.49731 0.03739 0.01514 0.0
O449 O 0.48032 0.99929 0.04984 0.0
C450 C 0.51306 0.96643 0.02256 0.0
C451 C 0.51103 0.05026 0.03254 0.0
Zn452 Zn 0.26569 0.22978 0.24435 0.0
Zn453 Zn 0.25799 0.27724 0.27853 0.0
C454 C 0.30395 0.24592 0.21867 0.0
O455 O 0.2868 0.23965 0.20058 0.0
C456 C 0.21996 0.26229 0.3044 0.0
O457 O 0.2376 0.26826 0.32197 0.0
O458 O 0.26452 0.19631 0.22842 0.0
O459 O 0.26065 0.22552 0.28044 0.0
O460 O 0.27805 0.25987 0.30085 0.0
C461 C 0.25455 0.17808 0.23791 0.0
O462 O 0.24059 0.18104 0.25539 0.0
O463 O 0.29941 0.24438 0.24125 0.0
C464 C 0.24476 0.32044 0.27718 0.0
O465 O 0.23278 0.30648 0.25816 0.0
O466 O 0.25901 0.3118 0.29168 0.0
O467 O 0.26577 0.28037 0.24289 0.0
O468 O 0.24474 0.24741 0.22355 0.0
O469 O 0.22397 0.26321 0.28157 0.0
C470 C 0.27149 0.23737 0.30026 0.0
C471 C 0.25322 0.26943 0.22359 0.0
Zn472 Zn 0.5255 0.48724 0.02284 0.0
Zn473 Zn 0.51742 0.53878 0.02278 0.0
C474 C 0.5511 0.49221 0.06983 0.0
O475 O 0.56534 0.48395 0.055 0.0
C476 C 0.49631 0.54014 0.9744 0.0
O477 O 0.48561 0.55435 0.98796 0.0
O478 O 0.52789 0.45208 0.01993 0.0
O479 O 0.49215 0.48982 0.01105 0.0
O480 O 0.49015 0.52041 0.03795 0.0
C481 C 0.51059 0.43805 0.0265 0.0
O482 O 0.49203 0.44679 0.03231 0.0
O483 O 0.5314 0.49592 0.06028 0.0
C484 C 0.53463 0.58731 0.01857 0.0
O485 O 0.55182 0.57701 0.01129 0.0
O486 O 0.51715 0.57451 0.02638 0.0
O487 O 0.55012 0.53532 0.03549 0.0
O488 O 0.55212 0.50621 0.00695 0.0
O489 O 0.51161 0.52983 0.98524 0.0
C490 C 0.48034 0.50095 0.02529 0.0
C491 C 0.56197 0.52505 0.02061 0.0
Zn492 Zn 0.76276 0.29422 0.26085 0.0
Zn493 Zn 0.77004 0.24305 0.27331 0.0
C494 C 0.71861 0.27994 0.23332 0.0
O495 O 0.73119 0.28958 0.21644 0.0
C496 C 0.81273 0.24939 0.301 0.0
O497 O 0.7978 0.23754 0.31442 0.0
O498 O 0.76086 0.32904 0.25756 0.0
O499 O 0.77578 0.29155 0.29615 0.0
O500 O 0.75458 0.25707 0.30201 0.0
C501 C 0.76284 0.34395 0.2769 0.0
O502 O 0.76978 0.33749 0.2988 0.0
O503 O 0.72845 0.27895 0.25518 0.0
C504 C 0.7819 0.20072 0.25586 0.0
O505 O 0.78993 0.21646 0.24082 0.0
O506 O 0.77034 0.20738 0.27342 0.0
O507 O 0.75721 0.24685 0.23814 0.0
O508 O 0.77976 0.28062 0.23332 0.0
O509 O 0.80485 0.2562 0.28045 0.0
C510 C 0.765 0.27796 0.31055 0.0
C511 C 0.7699 0.25966 0.2246 0.0
Zn512 Zn 0.01007 0.51283 0.49336 0.0
Zn513 Zn 0.01415 0.51026 0.54794 0.0
C514 C 0.05592 0.53786 0.494 0.0
O515 O 0.04393 0.54946 0.47888 0.0
C516 C 0.9702 0.48535 0.55591 0.0
O517 O 0.9845 0.47426 0.56894 0.0
O518 O 0.00859 0.51071 0.45567 0.0
O519 O 0.99644 0.48025 0.50213 0.0
O520 O 0.02562 0.48163 0.53114 0.0
C521 C 0.01868 0.49412 0.44694 0.0
O522 O 0.02608 0.47964 0.4624 0.0
O523 O 0.04506 0.52018 0.50367 0.0
C524 C 0.01846 0.53098 0.59804 0.0
O525 O 0.01416 0.54912 0.58595 0.0
O526 O 0.02143 0.51199 0.58553 0.0
O527 O 0.02402 0.54372 0.53806 0.0
O528 O 0.9962 0.54072 0.50712 0.0
O529 O 0.97882 0.50239 0.54382 0.0
C530 C 0.01064 0.4696 0.51424 0.0
C531 C 0.00943 0.5533 0.52509 0.0
Zn532 Zn 0.7908 0.75907 0.27162 0.0
Zn533 Zn 0.74271 0.77213 0.27697 0.0
C534 C 0.78241 0.72924 0.22636 0.0
O535 O 0.78931 0.71475 0.24213 0.0
C536 C 0.7525 0.80092 0.32142 0.0
O537 O 0.74161 0.81315 0.30597 0.0
O538 O 0.82481 0.75546 0.2738 0.0
O539 O 0.79109 0.79442 0.27979 0.0
O540 O 0.75858 0.79722 0.25691 0.0
C541 C 0.83625 0.76927 0.26005 0.0
O542 O 0.82531 0.78387 0.24776 0.0
O543 O 0.78059 0.7503 0.23468 0.0
C544 C 0.70052 0.75944 0.29504 0.0
O545 O 0.71436 0.74577 0.3047 0.0
O546 O 0.70849 0.77387 0.27971 0.0
O547 O 0.74246 0.73792 0.2646 0.0
O548 O 0.77235 0.73426 0.29077 0.0
O549 O 0.75678 0.78071 0.31309 0.0
C550 C 0.77943 0.80624 0.26584 0.0
C551 C 0.75277 0.72518 0.27859 0.0
Zn552 Zn 0.75534 0.25482 0.79779 0.0
Zn553 Zn 0.76911 0.25299 0.74635 0.0
C554 C 0.7233 0.21156 0.78977 0.0
O555 O 0.71042 0.22615 0.79942 0.0
C556 C 0.80037 0.2964 0.75038 0.0
O557 O 0.81273 0.28131 0.74066 0.0
O558 O 0.74913 0.25694 0.83407 0.0
O559 O 0.79049 0.26236 0.79743 0.0
O560 O 0.79038 0.23514 0.76617 0.0
C561 C 0.76486 0.26572 0.85179 0.0
O562 O 0.78501 0.2772 0.84638 0.0
O563 O 0.74447 0.21973 0.78675 0.0
C564 C 0.75938 0.24395 0.69203 0.0
O565 O 0.73823 0.23456 0.69675 0.0
O566 O 0.77534 0.25025 0.71013 0.0
O567 O 0.73421 0.24549 0.74684 0.0
O568 O 0.73401 0.27292 0.77782 0.0
O569 O 0.77999 0.28834 0.75608 0.0
C570 C 0.80072 0.24726 0.78606 0.0
C571 C 0.72398 0.26084 0.75773 0.0
Zn572 Zn 0.76945 0.7348 0.75629 0.0
Zn573 Zn 0.76077 0.78461 0.78452 0.0
C574 C 0.80877 0.75053 0.73248 0.0
O575 O 0.79319 0.74019 0.71403 0.0
C576 C 0.72365 0.77479 0.81269 0.0
O577 O 0.74177 0.78363 0.82901 0.0
O578 O 0.77114 0.70003 0.74659 0.0
O579 O 0.76025 0.73422 0.79151 0.0
O580 O 0.78083 0.76857 0.80818 0.0
C581 C 0.78521 0.69304 0.76272 0.0
O582 O 0.79632 0.70853 0.78103 0.0
O583 O 0.80289 0.75143 0.75474 0.0
C584 C 0.77244 0.83638 0.78464 0.0
O585 O 0.78526 0.8316 0.76657 0.0
O586 O 0.76306 0.81943 0.79639 0.0
O587 O 0.76642 0.7845 0.74791 0.0
O588 O 0.74903 0.74873 0.73092 0.0
O589 O 0.72685 0.77208 0.78957 0.0
C590 C 0.77236 0.74685 0.81015 0.0
C591 C 0.75646 0.7707 0.7289 0.0
Zn592 Zn 0.53953 0.50865 0.53796 0.0
Zn593 Zn 0.4918 0.51801 0.51343 0.0
C594 C 0.52319 0.46703 0.55833 0.0
O595 O 0.53408 0.48161 0.57749 0.0
C596 C 0.50089 0.55846 0.48887 0.0
O597 O 0.49037 0.54159 0.47156 0.0
O598 O 0.57278 0.50288 0.54606 0.0
O599 O 0.53983 0.52169 0.50438 0.0
O600 O 0.50694 0.49946 0.48735 0.0
C601 C 0.57707 0.48791 0.52889 0.0
O602 O 0.56112 0.48081 0.50976 0.0
O603 O 0.52166 0.47469 0.53677 0.0
C604 C 0.44878 0.52973 0.5194 0.0
O605 O 0.46259 0.54048 0.53909 0.0
O606 O 0.45724 0.51677 0.50337 0.0
O607 O 0.49282 0.50924 0.54922 0.0
O608 O 0.52757 0.5283 0.56553 0.0
O609 O 0.50471 0.55306 0.51119 0.0
C610 C 0.52743 0.51044 0.48516 0.0
C611 C 0.50622 0.52028 0.56795 0.0
Zn612 Zn 0.99652 0.52121 0.03383 0.0
Zn613 Zn 0.04226 0.50502 0.01397 0.0
C614 C 0.01092 0.56353 0.06432 0.0
O615 O 1.00014 0.54904 0.07907 0.0
C616 C 0.01872 0.46243 0.98638 0.0
O617 O 0.02697 0.4746 0.96841 0.0
O618 O 0.96277 0.52375 0.03868 0.0
O619 O 0.99484 0.51126 0.99689 0.0
O620 O 0.03051 0.52482 0.9878 0.0
C621 C 0.95592 0.53895 0.02492 0.0
O622 O 0.97079 0.54996 0.01086 0.0
O623 O 0.01334 0.55527 0.0422 0.0
C624 C 0.07948 0.4813 0.02212 0.0
O625 O 0.06408 0.47223 0.03675 0.0
O626 O 0.07465 0.49778 0.00896 0.0
O627 O 0.0449 0.51858 0.04979 0.0
O628 O 0.0104 0.50122 0.05867 0.0
O629 O 0.02193 0.47224 0.00879 0.0
C630 C 0.0085 0.52041 0.98172 0.0
C631 C 0.03229 0.50768 0.0648 0.0
H632 H 0.98575 0.20518 0.96719 0.0
H633 H 0.02583 0.18756 0.90648 0.0
H634 H 0.98756 0.16627 0.98241 0.0
H635 H 0.02809 0.149 0.92202 0.0
H636 H 0.99648 0.07228 0.93497 0.0
H637 H 0.00047 0.11272 0.92302 0.0
H638 H 0.01298 0.14047 0.00108 0.0
H639 H 0.00847 0.09954 0.01319 0.0
C640 C 0.99517 0.19314 0.95725 0.0
C641 C 0.00541 0.19938 0.93544 0.0
C642 C 0.99636 0.1709 0.9661 0.0
C643 C 0.00785 0.15445 0.95335 0.0
C644 C 0.01877 0.16108 0.93205 0.0
C645 C 0.01752 0.18324 0.92318 0.0
C646 C 1.00028 0.08696 0.94966 0.0
C647 C 0.00202 0.08268 0.97505 0.0
C648 C 0.00275 0.11021 0.94277 0.0
C649 C 0.00704 0.12988 0.96108 0.0
C650 C 0.00944 0.12568 0.98653 0.0
C651 C 0.00704 0.10228 0.99346 0.0
H652 H 0.0863 0.80411 0.21338 0.0
H653 H 0.08646 0.72978 0.19068 0.0
H654 H 0.12429 0.80694 0.23771 0.0
H655 H 0.12487 0.73278 0.2133 0.0
H656 H 0.1855 0.73559 0.26907 0.0
H657 H 0.1453 0.73503 0.25186 0.0
H658 H 0.16411 0.8086 0.23585 0.0
H659 H 0.20389 0.80937 0.25507 0.0
C660 C 0.09463 0.78846 0.21342 0.0
C661 C 0.08344 0.7667 0.20031 0.0
C662 C 0.11646 0.79007 0.22725 0.0
C663 C 0.12778 0.77005 0.22778 0.0
C664 C 0.11656 0.74843 0.21416 0.0
C665 C 0.09457 0.74671 0.2009 0.0
C666 C 0.18074 0.75174 0.26237 0.0
C667 C 0.19753 0.77253 0.26339 0.0
C668 C 0.15781 0.7514 0.25215 0.0
C669 C 0.15138 0.7716 0.2418 0.0
C670 C 0.16818 0.79274 0.24377 0.0
C671 C 0.191 0.79325 0.25473 0.0
H672 H 0.53092 0.82547 0.42086 0.0
H673 H 0.46875 0.80803 0.4589 0.0
H674 H 0.53434 0.86722 0.43648 0.0
H675 H 0.47213 0.8502 0.47439 0.0
H676 H 0.50439 0.92669 0.51558 0.0
H677 H 0.49802 0.8837 0.50253 0.0
H678 H 0.51143 0.89874 0.42722 0.0
H679 H 0.51799 0.94134 0.44016 0.0
C680 C 0.51802 0.83051 0.43265 0.0
C681 C 0.49943 0.81342 0.43843 0.0
C682 C 0.5199 0.85449 0.44148 0.0
C683 C 0.50326 0.86204 0.4563 0.0
C684 C 0.48519 0.84488 0.46299 0.0
C685 C 0.48326 0.82077 0.45408 0.0
C686 C 0.50561 0.92076 0.49616 0.0
C687 C 0.51196 0.93739 0.47896 0.0
C688 C 0.50197 0.89618 0.48871 0.0
C689 C 0.50468 0.88789 0.46398 0.0
C690 C 0.50979 0.90458 0.44656 0.0
C691 C 0.5134 0.92902 0.45396 0.0
H692 H 0.4659 0.29766 0.70653 0.0
H693 H 0.46388 0.22373 0.72027 0.0
H694 H 0.43175 0.29899 0.72932 0.0
H695 H 0.42983 0.22521 0.7435 0.0
H696 H 0.35099 0.23043 0.74836 0.0
H697 H 0.38867 0.22779 0.7329 0.0
H698 H 0.41742 0.29769 0.77051 0.0
H699 H 0.37958 0.30055 0.78566 0.0
C700 C 0.45835 0.28176 0.71468 0.0
C701 C 0.46754 0.26054 0.71141 0.0
C702 C 0.43885 0.28258 0.72793 0.0
C703 C 0.42802 0.2622 0.73823 0.0
C704 C 0.4376 0.24115 0.73556 0.0
C705 C 0.45718 0.24034 0.72234 0.0
C706 C 0.36543 0.2451 0.75368 0.0
C707 C 0.36218 0.26581 0.76805 0.0
C708 C 0.38709 0.24352 0.74489 0.0
C709 C 0.406 0.26263 0.75025 0.0
C710 C 0.40308 0.28283 0.76569 0.0
C711 C 0.38142 0.28439 0.77452 0.0
H712 H 0.04975 0.83721 0.62041 0.0
H713 H 0.98391 0.79794 0.58388 0.0
H714 H 0.04662 0.8695 0.59391 0.0
H715 H 0.98092 0.83023 0.55727 0.0
H716 H 0.96955 0.90891 0.54929 0.0
H717 H 0.97388 0.87164 0.56674 0.0
H718 H 0.04585 0.88081 0.54979 0.0
H719 H 0.04152 0.9184 0.53229 0.0
C720 C 0.03475 0.83533 0.60654 0.0
C721 C 0.01695 0.81512 0.60446 0.0
C722 C 0.03307 0.85375 0.5912 0.0
C723 C 0.01349 0.85242 0.57355 0.0
C724 C 0.9961 0.83184 0.57086 0.0
C725 C 0.99785 0.81334 0.58608 0.0
C726 C 0.98619 0.90278 0.54887 0.0
C727 C 0.00524 0.91663 0.53958 0.0
C728 C 0.98863 0.88134 0.55874 0.0
C729 C 0.01025 0.87336 0.55977 0.0
C730 C 0.02904 0.88666 0.54943 0.0
C731 C 0.02651 0.90804 0.53925 0.0
H732 H 0.4349 0.72767 0.89217 0.0
H733 H 0.46572 0.78192 0.8475 0.0
H734 H 0.39626 0.72977 0.87247 0.0
H735 H 0.4266 0.78418 0.82783 0.0
H736 H 0.35127 0.75834 0.7825 0.0
H737 H 0.3921 0.76009 0.79969 0.0
H738 H 0.37028 0.75952 0.87438 0.0
H739 H 0.32987 0.75747 0.85737 0.0
C740 C 0.43347 0.74004 0.87809 0.0
C741 C 0.45343 0.75476 0.87158 0.0
C742 C 0.41125 0.74135 0.8669 0.0
C743 C 0.40832 0.75743 0.84889 0.0
C744 C 0.42831 0.77163 0.84166 0.0
C745 C 0.45068 0.77036 0.85296 0.0
C746 C 0.35533 0.75903 0.80261 0.0
C747 C 0.33734 0.75743 0.81856 0.0
C748 C 0.37867 0.76001 0.81244 0.0
C749 C 0.38431 0.75942 0.83834 0.0
C750 C 0.36643 0.75935 0.85429 0.0
C751 C 0.34327 0.75831 0.84453 0.0
H752 H 0.51085 0.18007 0.12338 0.0
H753 H 0.48671 0.19896 0.05059 0.0
H754 H 0.51364 0.1405 0.1049 0.0
H755 H 0.48982 0.15906 0.03196 0.0
H756 H 0.47611 0.07468 0.01728 0.0
H757 H 0.4723 0.11556 0.03209 0.0
H758 H 0.53912 0.124 0.07663 0.0
H759 H 0.54285 0.08348 0.06211 0.0
C760 C 0.50612 0.17581 0.1034 0.0
C761 C 0.49869 0.19278 0.08845 0.0
C762 C 0.50787 0.15312 0.09278 0.0
C763 C 0.50224 0.14675 0.06691 0.0
C764 C 0.49423 0.16345 0.05196 0.0
C765 C 0.49254 0.18631 0.06263 0.0
C766 C 0.49008 0.08541 0.03 0.0
C767 C 0.50959 0.07571 0.03884 0.0
C768 C 0.48791 0.1088 0.03844 0.0
C769 C 0.50522 0.12283 0.05587 0.0
C770 C 0.52521 0.11344 0.06369 0.0
C771 C 0.52737 0.09021 0.05529 0.0
H772 H 0.07306 0.26061 0.33407 0.0
H773 H 0.1179 0.28127 0.40337 0.0
H774 H 0.10712 0.2542 0.31242 0.0
H775 H 0.15176 0.27559 0.38178 0.0
H776 H 0.20606 0.24339 0.34621 0.0
H777 H 0.16898 0.2441 0.36367 0.0
H778 H 0.14296 0.27469 0.29819 0.0
H779 H 0.18005 0.27311 0.2803 0.0
C780 C 0.09018 0.26395 0.34463 0.0
C781 C 0.09274 0.27131 0.37049 0.0
C782 C 0.1097 0.26033 0.33221 0.0
C783 C 0.13218 0.26404 0.34539 0.0
C784 C 0.13468 0.27191 0.37112 0.0
C785 C 0.11524 0.27539 0.38351 0.0
C786 C 0.19222 0.24979 0.33531 0.0
C787 C 0.19595 0.25833 0.312 0.0
C788 C 0.17104 0.25044 0.34542 0.0
C789 C 0.15317 0.26005 0.33266 0.0
C790 C 0.15633 0.26717 0.30853 0.0
C791 C 0.17754 0.26622 0.29823 0.0
H792 H 0.95541 0.98789 0.20661 0.0
H793 H 0.92274 0.04735 0.18628 0.0
H794 H 0.97748 0.99101 0.16999 0.0
H795 H 0.94538 0.05076 0.14994 0.0
H796 H 0.01028 0.05817 0.10083 0.0
H797 H 0.99305 0.05794 0.14114 0.0
H798 H 0.95889 0.98493 0.12073 0.0
H799 H 0.97527 0.98539 0.08048 0.0
C800 C 0.95318 0.00183 0.19453 0.0
C801 C 0.93722 0.01728 0.19921 0.0
C802 C 0.96582 0.0036 0.17363 0.0
C803 C 0.96317 0.02119 0.15733 0.0
C804 C 0.94786 0.0372 0.16242 0.0
C805 C 0.93481 0.03511 0.18306 0.0
C806 C 0.99927 0.04208 0.10518 0.0
C807 C 0.99399 0.02185 0.08763 0.0
C808 C 0.98937 0.04198 0.12806 0.0
C809 C 0.9747 0.02141 0.13389 0.0
C810 C 0.97022 0.00095 0.11668 0.0
C811 C 0.97952 0.00127 0.09367 0.0
H812 H 0.29478 0.67656 0.46238 0.0
H813 H 0.23512 0.70343 0.48885 0.0
H814 H 0.29842 0.70645 0.43252 0.0
H815 H 0.23904 0.73368 0.45914 0.0
H816 H 0.31167 0.77174 0.39317 0.0
H817 H 0.30852 0.74941 0.42981 0.0
H818 H 0.23322 0.73439 0.41351 0.0
H819 H 0.23629 0.75708 0.37713 0.0
C820 C 0.28254 0.68896 0.46196 0.0
C821 C 0.26459 0.68753 0.47789 0.0
C822 C 0.28477 0.70627 0.44501 0.0
C823 C 0.2691 0.72255 0.44358 0.0
C824 C 0.25129 0.7213 0.4597 0.0
C825 C 0.24908 0.70399 0.47673 0.0
C826 C 0.29439 0.76416 0.39773 0.0
C827 C 0.27426 0.7659 0.38204 0.0
C828 C 0.29261 0.75121 0.41862 0.0
C829 C 0.27066 0.73973 0.42424 0.0
C830 C 0.25039 0.74307 0.40971 0.0
C831 C 0.25216 0.75608 0.38882 0.0
H832 H 0.61372 0.97042 0.68793 0.0
H833 H 0.55139 0.98106 0.72243 0.0
H834 H 0.5936 0.97302 0.64685 0.0
H835 H 0.53154 0.98441 0.68144 0.0
H836 H 0.49819 0.97706 0.60001 0.0
H837 H 0.51546 0.96581 0.63957 0.0
H838 H 0.58241 0.00654 0.62753 0.0
H839 H 0.56554 0.01726 0.58831 0.0
C840 C 0.59566 0.97309 0.68673 0.0
C841 C 0.58427 0.97588 0.70846 0.0
C842 C 0.58416 0.9747 0.66321 0.0
C843 C 0.5611 0.97936 0.66093 0.0
C844 C 0.54925 0.98071 0.68252 0.0
C845 C 0.5607 0.97892 0.70605 0.0
C846 C 0.51658 0.98354 0.60588 0.0
C847 C 0.53045 0.99807 0.59102 0.0
C848 C 0.52647 0.97712 0.6285 0.0
C849 C 0.55038 0.98506 0.63656 0.0
C850 C 0.56409 0.99962 0.62165 0.0
C851 C 0.55429 0.006 0.59921 0.0
H852 H 0.28126 0.38236 0.96066 0.0
H853 H 0.25649 0.31063 0.97867 0.0
H854 H 0.27879 0.3679 0.91662 0.0
H855 H 0.25336 0.29618 0.93422 0.0
H856 H 0.26668 0.27625 0.85253 0.0
H857 H 0.27449 0.28945 0.89743 0.0
H858 H 0.24725 0.35398 0.88449 0.0
H859 H 0.24007 0.34122 0.84005 0.0
C860 C 0.27527 0.36346 0.95522 0.0
C861 C 0.26881 0.34768 0.97315 0.0
C862 C 0.27377 0.35518 0.92991 0.0
C863 C 0.26556 0.33093 0.92182 0.0
C864 C 0.25989 0.31494 0.93984 0.0
C865 C 0.26156 0.32324 0.96529 0.0
C866 C 0.26256 0.29333 0.85933 0.0
C867 C 0.25281 0.3077 0.84271 0.0
C868 C 0.26689 0.30082 0.88504 0.0
C869 C 0.26161 0.32283 0.89455 0.0
C870 C 0.25198 0.33715 0.87781 0.0
C871 C 0.2477 0.32973 0.85226 0.0
H872 H 0.9218 0.04629 0.32223 0.0
H873 H 0.9269 0.97135 0.32 0.0
H874 H 0.94055 0.05267 0.36507 0.0
H875 H 0.94555 0.97781 0.36309 0.0
H876 H 0.99682 0.00606 0.43498 0.0
H877 H 0.98188 0.99937 0.39044 0.0
H878 H 0.92723 0.03991 0.40522 0.0
H879 H 0.94201 0.04665 0.44925 0.0
C880 C 0.92704 0.0312 0.3308 0.0
C881 C 0.92263 0.00826 0.31777 0.0
C882 C 0.93771 0.03485 0.35538 0.0
C883 C 0.9443 0.01568 0.36749 0.0
C884 C 0.94075 0.99292 0.35418 0.0
C885 C 0.92995 0.98922 0.32957 0.0
C886 C 0.98161 0.01349 0.42865 0.0
C887 C 0.97064 0.02692 0.44562 0.0
C888 C 0.97304 0.00961 0.40322 0.0
C889 C 0.95353 0.01932 0.39435 0.0
C890 C 0.94253 0.03256 0.41141 0.0
C891 C 0.95094 0.03626 0.43671 0.0
H892 H 0.27648 0.65203 0.60442 0.0
H893 H 0.30081 0.71791 0.57295 0.0
H894 H 0.27383 0.67445 0.64416 0.0
H895 H 0.29727 0.74055 0.61259 0.0
H896 H 0.30551 0.77056 0.69688 0.0
H897 H 0.3118 0.75029 0.65661 0.0
H898 H 0.24829 0.69944 0.65927 0.0
H899 H 0.2426 0.719 0.69937 0.0
C900 C 0.28124 0.67133 0.606 0.0
C901 C 0.28864 0.68321 0.58551 0.0
C902 C 0.27958 0.68423 0.62874 0.0
C903 C 0.2849 0.70936 0.63143 0.0
C904 C 0.29312 0.72122 0.61119 0.0
C905 C 0.29506 0.70825 0.58846 0.0
C906 C 0.29286 0.7552 0.6886 0.0
C907 C 0.27376 0.74616 0.70133 0.0
C908 C 0.29643 0.74357 0.6656 0.0
C909 C 0.28081 0.7229 0.65498 0.0
C910 C 0.2611 0.71479 0.66726 0.0
C911 C 0.25773 0.72614 0.69019 0.0
H912 H 0.58159 0.96565 0.81555 0.0
H913 H 0.59971 0.04105 0.84016 0.0
H914 H 0.55392 0.9607 0.84695 0.0
H915 H 0.57273 0.03598 0.87224 0.0
H916 H 0.51447 0.02425 0.92092 0.0
H917 H 0.53295 0.02743 0.88197 0.0
H918 H 0.55684 0.96042 0.89101 0.0
H919 H 0.53776 0.95685 0.92908 0.0
C920 C 0.5797 0.98116 0.82773 0.0
C921 C 0.59303 0.00369 0.82561 0.0
C922 C 0.56385 0.97832 0.84575 0.0
C923 C 0.56118 0.9979 0.86226 0.0
C924 C 0.57405 0.02057 0.85962 0.0
C925 C 0.58971 0.02345 0.84139 0.0
C926 C 0.52317 0.00994 0.91419 0.0
C927 C 0.52487 0.99043 0.92821 0.0
C928 C 0.53397 0.01187 0.89203 0.0
C929 C 0.54668 0.99435 0.88352 0.0
C930 C 0.54706 0.97416 0.89679 0.0
C931 C 0.53621 0.97218 0.9188 0.0
H932 H 0.28633 0.36115 0.10678 0.0
H933 H 0.21513 0.3268 0.08225 0.0
H934 H 0.28625 0.33802 0.14288 0.0
H935 H 0.215 0.30383 0.11869 0.0
H936 H 0.2338 0.25088 0.17597 0.0
H937 H 0.23294 0.27195 0.13803 0.0
H938 H 0.26714 0.33734 0.18156 0.0
H939 H 0.26823 0.31651 0.21908 0.0
C940 C 0.27065 0.34865 0.10906 0.0
C941 C 0.25069 0.34597 0.09168 0.0
C942 C 0.27056 0.33546 0.12984 0.0
C943 C 0.25054 0.31921 0.13379 0.0
C944 C 0.23074 0.31608 0.11611 0.0
C945 C 0.23079 0.32936 0.09531 0.0
C946 C 0.24103 0.26977 0.1774 0.0
C947 C 0.25125 0.28193 0.20055 0.0
C948 C 0.24049 0.28184 0.1557 0.0
C949 C 0.25023 0.30626 0.15673 0.0
C950 C 0.25995 0.31843 0.17998 0.0
C951 C 0.26044 0.30646 0.20156 0.0
H952 H 0.16603 0.88473 0.04096 0.0
H953 H 0.21319 0.94993 0.0323 0.0
H954 H 0.13374 0.90683 0.04248 0.0
H955 H 0.18054 0.9721 0.03387 0.0
H956 H 0.11343 0.00242 0.0594 0.0
H957 H 0.14843 0.98331 0.06342 0.0
H958 H 0.11496 0.92691 0.00708 0.0
H959 H 0.08062 0.94564 0.0029 0.0
C960 C 0.16959 0.90381 0.0396 0.0
C961 C 0.19215 0.9155 0.03618 0.0
C962 C 0.15106 0.91646 0.04048 0.0
C963 C 0.15465 0.94112 0.03812 0.0
C964 C 0.17736 0.95311 0.03585 0.0
C965 C 0.19597 0.94038 0.03477 0.0
C966 C 0.11367 0.98598 0.0479 0.0
C967 C 0.09422 0.97554 0.03091 0.0
C968 C 0.13365 0.97512 0.05014 0.0
C969 C 0.13423 0.95352 0.03573 0.0
C970 C 0.11486 0.94334 0.01869 0.0
C971 C 0.0952 0.95422 0.01623 0.0
H972 H 0.7095 0.57043 0.99507 0.0
H973 H 0.68314 0.63321 0.02245 0.0
H974 H 0.67108 0.54598 0.99735 0.0
H975 H 0.64494 0.60907 0.02414 0.0
H976 H 0.58953 0.55838 0.05405 0.0
H977 H 0.62862 0.57948 0.05023 0.0
H978 H 0.62951 0.53812 0.97946 0.0
H979 H 0.59017 0.5164 0.98359 0.0
C980 C 0.69547 0.57904 0.00132 0.0
C981 C 0.69944 0.60372 0.00885 0.0
C982 C 0.67346 0.56506 0.00254 0.0
C983 C 0.65505 0.57552 0.01129 0.0
C984 C 0.65889 0.60033 0.01792 0.0
C985 C 0.6808 0.61422 0.0168 0.0
C986 C 0.59806 0.55361 0.03772 0.0
C987 C 0.58665 0.53589 0.01898 0.0
C988 C 0.62045 0.56584 0.03545 0.0
C989 C 0.63202 0.56083 0.0143 0.0
C990 C 0.62106 0.54239 0.99599 0.0
C991 C 0.59855 0.52998 0.99833 0.0
H992 H 0.70546 0.47564 0.30468 0.0
H993 H 0.65318 0.42448 0.25765 0.0
H994 H 0.73348 0.44832 0.30109 0.0
H995 H 0.68095 0.3971 0.2545 0.0
H996 H 0.73962 0.3592 0.23638 0.0
H997 H 0.71689 0.39153 0.23671 0.0
H998 H 0.73937 0.4103 0.31553 0.0
H999 H 0.76247 0.37842 0.3151 0.0
C1000 C 0.69992 0.45855 0.29364 0.0
C1001 C 0.67705 0.45221 0.28152 0.0
C1002 C 0.71597 0.4429 0.29161 0.0
C1003 C 0.70951 0.42057 0.2774 0.0
C1004 C 0.68667 0.41433 0.2652 0.0
C1005 C 0.67064 0.42995 0.26723 0.0
C1006 C 0.74013 0.37055 0.25365 0.0
C1007 C 0.75268 0.36606 0.27577 0.0
C1008 C 0.72691 0.38894 0.25389 0.0
C1009 C 0.726 0.40325 0.27624 0.0
C1010 C 0.73974 0.3997 0.29797 0.0
C1011 C 0.75294 0.38133 0.29773 0.0
H1012 H 0.82837 0.43587 0.59194 0.0
H1013 H 0.82392 0.43015 0.51098 0.0
H1014 H 0.86935 0.45496 0.59398 0.0
H1015 H 0.8649 0.44898 0.51308 0.0
H1016 H 0.93523 0.50016 0.52683 0.0
H1017 H 0.89294 0.48679 0.52615 0.0
H1018 H 0.90535 0.44034 0.5836 0.0
H1019 H 0.94732 0.45374 0.58448 0.0
C1020 C 0.83605 0.43887 0.57459 0.0
C1021 C 0.82294 0.43133 0.55131 0.0
C1022 C 0.85955 0.4497 0.57577 0.0
C1023 C 0.87037 0.45332 0.55369 0.0
C1024 C 0.857 0.44662 0.53042 0.0
C1025 C 0.83355 0.43569 0.52923 0.0
C1026 C 0.92888 0.4872 0.53939 0.0
C1027 C 0.94461 0.47793 0.55562 0.0
C1028 C 0.90471 0.4795 0.53894 0.0
C1029 C 0.89585 0.46258 0.55488 0.0
C1030 C 0.91161 0.45365 0.57135 0.0
C1031 C 0.93569 0.46119 0.57168 0.0
H1032 H 0.3391 0.08011 0.28433 0.0
H1033 H 0.33225 0.06162 0.20418 0.0
H1034 H 0.311 0.10704 0.27888 0.0
H1035 H 0.304 0.08861 0.19879 0.0
H1036 H 0.28368 0.16579 0.20365 0.0
H1037 H 0.30563 0.13289 0.20438 0.0
H1038 H 0.26872 0.10648 0.26546 0.0
H1039 H 0.24682 0.13943 0.2649 0.0
C1040 C 0.33153 0.08171 0.26556 0.0
C1041 C 0.33799 0.06879 0.24469 0.0
C1042 C 0.31525 0.09698 0.26246 0.0
C1043 C 0.30518 0.09982 0.23841 0.0
C1044 C 0.31153 0.08682 0.21753 0.0
C1045 C 0.32768 0.07136 0.22065 0.0
C1046 C 0.27983 0.15265 0.21685 0.0
C1047 C 0.26368 0.15541 0.23441 0.0
C1048 C 0.29239 0.13377 0.21723 0.0
C1049 C 0.28916 0.11735 0.23526 0.0
C1050 C 0.27186 0.11913 0.25165 0.0
C1051 C 0.25917 0.1379 0.25115 0.0
H1052 H 0.31056 0.08137 0.527 0.0
H1053 H 0.3507 0.13108 0.48406 0.0
H1054 H 0.34464 0.06202 0.53508 0.0
H1055 H 0.38418 0.11125 0.49096 0.0
H1056 H 0.44806 0.09059 0.52694 0.0
H1057 H 0.41285 0.10813 0.52286 0.0
H1058 H 0.37045 0.03772 0.51825 0.0
H1059 H 0.40623 0.02028 0.52377 0.0
C1060 C 0.32658 0.08797 0.51905 0.0
C1061 C 0.32805 0.10792 0.50514 0.0
C1062 C 0.3461 0.07682 0.52359 0.0
C1063 C 0.36738 0.08525 0.51405 0.0
C1064 C 0.3684 0.10468 0.49935 0.0
C1065 C 0.3491 0.11599 0.49518 0.0
C1066 C 0.43119 0.07888 0.52534 0.0
C1067 C 0.4298 0.05409 0.52545 0.0
C1068 C 0.41095 0.08889 0.52273 0.0
C1069 C 0.38869 0.07434 0.51951 0.0
C1070 C 0.38727 0.04951 0.52071 0.0
C1071 C 0.4077 0.03948 0.52384 0.0
H1072 H 0.64337 0.60436 0.27507 0.0
H1073 H 0.70313 0.57568 0.30491 0.0
H1074 H 0.66813 0.64289 0.2741 0.0
H1075 H 0.72825 0.61437 0.30324 0.0
H1076 H 0.75994 0.69629 0.31612 0.0
H1077 H 0.73728 0.65673 0.3204 0.0
H1078 H 0.6979 0.65858 0.24887 0.0
H1079 H 0.71984 0.69789 0.24501 0.0
C1080 C 0.66184 0.60627 0.28141 0.0
C1081 C 0.67132 0.58689 0.28982 0.0
C1082 C 0.67609 0.62836 0.28071 0.0
C1083 C 0.70028 0.63161 0.28814 0.0
C1084 C 0.70968 0.61247 0.29743 0.0
C1085 C 0.69531 0.5903 0.2983 0.0
C1086 C 0.74657 0.68804 0.30128 0.0
C1087 C 0.74142 0.70029 0.28042 0.0
C1088 C 0.73362 0.66542 0.3037 0.0
C1089 C 0.71545 0.65471 0.28521 0.0
C1090 C 0.71125 0.66659 0.26383 0.0
C1091 C 0.72396 0.6891 0.26154 0.0
H1092 H 0.84578 0.45005 0.78968 0.0
H1093 H 0.85689 0.43649 0.71177 0.0
H1094 H 0.82929 0.40781 0.79051 0.0
H1095 H 0.84041 0.39444 0.71269 0.0
H1096 H 0.84048 0.31856 0.73392 0.0
H1097 H 0.85438 0.36122 0.73429 0.0
H1098 H 0.7947 0.37602 0.77133 0.0
H1099 H 0.7806 0.33301 0.77101 0.0
C1100 C 0.84453 0.43813 0.77269 0.0
C1101 C 0.85281 0.44659 0.7507 0.0
C1102 C 0.835 0.41398 0.77317 0.0
C1103 C 0.83379 0.39784 0.75174 0.0
C1104 C 0.84145 0.40644 0.72959 0.0
C1105 C 0.85077 0.43056 0.72904 0.0
C1106 C 0.83032 0.33083 0.74229 0.0
C1107 C 0.80936 0.32238 0.75235 0.0
C1108 C 0.83823 0.35529 0.74232 0.0
C1109 C 0.82548 0.37192 0.75258 0.0
C1110 C 0.80487 0.36357 0.76333 0.0
C1111 C 0.7968 0.33899 0.76309 0.0
H1112 H 0.99303 0.83748 0.13066 0.0
H1113 H 0.03964 0.8259 0.07434 0.0
H1114 H 0.98662 0.87437 0.11362 0.0
H1115 H 0.03382 0.86333 0.05774 0.0
H1116 H 0.01161 0.92762 0.0253 0.0
H1117 H 0.00758 0.88647 0.03674 0.0
H1118 H 0.01046 0.91277 0.11483 0.0
H1119 H 0.01385 0.95335 0.10338 0.0
C1120 C 0.00188 0.84279 0.11459 0.0
C1121 C 0.01712 0.82893 0.10408 0.0
C1122 C 0.99823 0.86397 0.10483 0.0
C1123 C 0.0099 0.87199 0.08448 0.0
C1124 C 0.02435 0.85759 0.07326 0.0
C1125 C 0.02786 0.83623 0.08292 0.0
C1126 C 0.01074 0.92444 0.0448 0.0
C1127 C 0.01321 0.94366 0.06348 0.0
C1128 C 0.0087 0.90093 0.05139 0.0
C1129 C 0.0089 0.8963 0.07673 0.0
C1130 C 0.00999 0.91555 0.09513 0.0
C1131 C 0.01211 0.93889 0.08858 0.0
H1132 H 0.94707 0.27399 0.84467 0.0
H1133 H 0.92701 0.19739 0.84357 0.0
H1134 H 0.90825 0.27646 0.8254 0.0
H1135 H 0.88794 0.19999 0.82438 0.0
H1136 H 0.82667 0.2142 0.76936 0.0
H1137 H 0.86652 0.21051 0.78524 0.0
H1138 H 0.86874 0.2708 0.84001 0.0
H1139 H 0.82924 0.27463 0.82418 0.0
C1140 C 0.93444 0.25763 0.84017 0.0
C1141 C 0.94012 0.23549 0.84582 0.0
C1142 C 0.91214 0.25909 0.82925 0.0
C1143 C 0.89498 0.23846 0.8236 0.0
C1144 C 0.90085 0.21619 0.82841 0.0
C1145 C 0.92319 0.21472 0.8395 0.0
C1146 C 0.8357 0.22667 0.78476 0.0
C1147 C 0.82478 0.24472 0.79548 0.0
C1148 C 0.85846 0.22448 0.79391 0.0
C1149 C 0.87079 0.24044 0.81377 0.0
C1150 C 0.85983 0.25845 0.82445 0.0
C1151 C 0.8371 0.26053 0.81546 0.0
H1152 H 0.53625 0.21921 0.57791 0.0
H1153 H 0.49728 0.1979 0.63954 0.0
H1154 H 0.53669 0.17733 0.56459 0.0
H1155 H 0.49693 0.15617 0.62577 0.0
H1156 H 0.51784 0.08502 0.61205 0.0
H1157 H 0.52218 0.12768 0.62442 0.0
H1158 H 0.51281 0.14081 0.54644 0.0
H1159 H 0.50944 0.09813 0.53413 0.0
C1160 C 0.52752 0.20557 0.58842 0.0
C1161 C 0.51681 0.21186 0.60984 0.0
C1162 C 0.52774 0.18155 0.58076 0.0
C1163 C 0.51709 0.16332 0.59425 0.0
C1164 C 0.50587 0.1697 0.6153 0.0
C1165 C 0.50585 0.19366 0.62307 0.0
C1166 C 0.51713 0.0971 0.59756 0.0
C1167 C 0.51323 0.08827 0.57216 0.0
C1168 C 0.51936 0.12153 0.60463 0.0
C1169 C 0.51736 0.1377 0.58646 0.0
C1170 C 0.51458 0.12894 0.56095 0.0
C1171 C 0.51266 0.10446 0.55387 0.0
H1172 H 0.55461 0.7565 0.32742 0.0
H1173 H 0.59834 0.76936 0.39805 0.0
H1174 H 0.58965 0.75677 0.30506 0.0
H1175 H 0.63301 0.7694 0.37574 0.0
H1176 H 0.682 0.73295 0.33037 0.0
H1177 H 0.6457 0.73463 0.34886 0.0
H1178 H 0.62953 0.78692 0.29945 0.0
H1179 H 0.66648 0.78556 0.28078 0.0
C1180 C 0.57165 0.75947 0.33814 0.0
C1181 C 0.57371 0.76272 0.36452 0.0
C1182 C 0.59164 0.75977 0.32534 0.0
C1183 C 0.61392 0.76296 0.33873 0.0
C1184 C 0.61597 0.76669 0.36501 0.0
C1185 C 0.59612 0.76671 0.37776 0.0
C1186 C 0.67076 0.74477 0.32322 0.0
C1187 C 0.67726 0.75931 0.30421 0.0
C1188 C 0.64999 0.74575 0.33393 0.0
C1189 C 0.63502 0.76109 0.32576 0.0
C1190 C 0.64087 0.77496 0.30604 0.0
C1191 C 0.66196 0.7742 0.29543 0.0
H1192 H 0.02111 0.19887 0.41128 0.0
H1193 H 0.02084 0.2347 0.48521 0.0
H1194 H 0.02031 0.16096 0.42927 0.0
H1195 H 0.02004 0.19649 0.50322 0.0
H1196 H 0.99433 0.11563 0.51761 0.0
H1197 H 0.99375 0.15506 0.5025 0.0
H1198 H 0.04969 0.14489 0.45724 0.0
H1199 H 0.05038 0.10595 0.47213 0.0
C1200 C 0.02077 0.19866 0.43136 0.0
C1201 C 0.02123 0.21986 0.44683 0.0
C1202 C 0.02041 0.17694 0.44167 0.0
C1203 C 0.02032 0.17583 0.46766 0.0
C1204 C 0.02004 0.19684 0.48311 0.0
C1205 C 0.02063 0.2187 0.4728 0.0
C1206 C 0.00663 0.12197 0.50464 0.0
C1207 C 0.02226 0.10756 0.49593 0.0
C1208 C 0.00631 0.14451 0.49603 0.0
C1209 C 0.02146 0.15285 0.47843 0.0
C1210 C 0.03752 0.13874 0.47042 0.0
C1211 C 0.03796 0.11644 0.4791 0.0
H1212 H 0.57861 0.21077 0.17072 0.0
H1213 H 0.572 0.28201 0.19986 0.0
H1214 H 0.61955 0.21795 0.18834 0.0
H1215 H 0.613 0.28889 0.21799 0.0
H1216 H 0.68349 0.27945 0.26409 0.0
H1217 H 0.64109 0.26901 0.25162 0.0
H1218 H 0.65462 0.25064 0.1755 0.0
H1219 H 0.69673 0.26164 0.18769 0.0
C1220 C 0.58576 0.22781 0.18124 0.0
C1221 C 0.57211 0.24589 0.18378 0.0
C1222 C 0.60919 0.23189 0.19127 0.0
C1223 C 0.61932 0.25393 0.20448 0.0
C1224 C 0.60547 0.27168 0.20801 0.0
C1225 C 0.58211 0.26778 0.19753 0.0
C1226 C 0.67734 0.27291 0.24479 0.0
C1227 C 0.6933 0.27136 0.22681 0.0
C1228 C 0.65317 0.26711 0.23767 0.0
C1229 C 0.64473 0.25905 0.21264 0.0
C1230 C 0.66074 0.25669 0.19493 0.0
C1231 C 0.68478 0.26304 0.20189 0.0
H1232 H 0.4846 0.8141 0.97314 0.0
H1233 H 0.54989 0.84243 0.9451 0.0
H1234 H 0.4849 0.85255 0.99669 0.0
H1235 H 0.55009 0.881 0.96872 0.0
H1236 H 0.55021 0.94278 0.02958 0.0
H1237 H 0.55217 0.90182 0.01299 0.0
H1238 H 0.47974 0.89226 0.98239 0.0
H1239 H 0.4778 0.93288 0.99877 0.0
C1240 C 0.49914 0.82844 0.97217 0.0
C1241 C 0.51711 0.82526 0.95703 0.0
C1242 C 0.49927 0.85048 0.98564 0.0
C1243 C 0.51745 0.8698 0.98445 0.0
C1244 C 0.53594 0.86637 0.97015 0.0
C1245 C 0.53573 0.84434 0.95649 0.0
C1246 C 0.53464 0.93174 0.01966 0.0
C1247 C 0.51387 0.94101 0.01541 0.0
C1248 C 0.53582 0.90841 0.01002 0.0
C1249 C 0.51611 0.89388 0.99638 0.0
C1250 C 0.49514 0.90293 0.99302 0.0
C1251 C 0.49407 0.92624 0.0023 0.0
H1252 H 0.93716 0.80646 0.66875 0.0
H1253 H 0.94727 0.74043 0.69879 0.0
H1254 H 0.90052 0.8049 0.68792 0.0
H1255 H 0.91059 0.73903 0.71807 0.0
H1256 H 0.84959 0.75273 0.76286 0.0
H1257 H 0.88964 0.76133 0.75068 0.0
H1258 H 0.86213 0.77587 0.67743 0.0
H1259 H 0.82241 0.76708 0.68942 0.0
C1260 C 0.93176 0.79179 0.67973 0.0
C1261 C 0.94503 0.77343 0.68203 0.0
C1262 C 0.91075 0.7909 0.69066 0.0
C1263 C 0.90269 0.77182 0.70441 0.0
C1264 C 0.91649 0.75406 0.70775 0.0
C1265 C 0.93739 0.75478 0.69656 0.0
C1266 C 0.85223 0.75823 0.74436 0.0
C1267 C 0.83297 0.75915 0.72702 0.0
C1268 C 0.87507 0.76297 0.73734 0.0
C1269 C 0.87896 0.7692 0.71309 0.0
C1270 C 0.8597 0.7713 0.6963 0.0
C1271 C 0.83696 0.76616 0.70312 0.0
H1272 H 0.10927 0.98767 0.85752 0.0
H1273 H 0.07125 0.04447 0.84082 0.0
H1274 H 0.08661 0.97983 0.89307 0.0
H1275 H 0.04848 0.03638 0.87622 0.0
H1276 H 0.00068 0.00184 0.93273 0.0
H1277 H 0.01886 0.00272 0.89314 0.0
H1278 H 0.0868 0.00679 0.93411 0.0
H1279 H 0.06896 0.00648 0.97332 0.0
C1280 C 0.0959 0.99828 0.86123 0.0
C1281 C 0.09222 0.01686 0.84653 0.0
C1282 C 0.08295 0.99378 0.88156 0.0
C1283 C 0.06581 0.0075 0.88734 0.0
C1284 C 0.06144 0.0254 0.87202 0.0
C1285 C 0.07463 0.03015 0.85192 0.0
C1286 C 0.01943 0.00258 0.93315 0.0
C1287 C 0.03341 0.00415 0.95609 0.0
C1288 C 0.02981 0.00319 0.91058 0.0
C1289 C 0.05421 0.00477 0.91063 0.0
C1290 C 0.06795 0.00532 0.93349 0.0
C1291 C 0.05771 0.00524 0.95595 0.0
H1292 H 0.73659 0.33722 0.58278 0.0
H1293 H 0.80578 0.32475 0.5686 0.0
H1294 H 0.73397 0.30656 0.61185 0.0
H1295 H 0.80292 0.29366 0.5973 0.0
H1296 H 0.79963 0.26876 0.67781 0.0
H1297 H 0.80308 0.29218 0.64216 0.0
H1298 H 0.73094 0.26383 0.61495 0.0
H1299 H 0.72726 0.24073 0.65104 0.0
C1300 C 0.75117 0.32781 0.58571 0.0
C1301 C 0.77146 0.33357 0.57354 0.0
C1302 C 0.74957 0.31004 0.60218 0.0
C1303 C 0.7682 0.29757 0.6068 0.0
C1304 C 0.78835 0.30307 0.5943 0.0
C1305 C 0.78997 0.32088 0.57785 0.0
C1306 C 0.78463 0.26705 0.66394 0.0
C1307 C 0.76304 0.25317 0.66751 0.0
C1308 C 0.78664 0.28047 0.64342 0.0
C1309 C 0.76715 0.28021 0.62597 0.0
C1310 C 0.74612 0.26481 0.62842 0.0
C1311 C 0.74409 0.2514 0.64898 0.0
H1312 H 0.46666 0.0098 0.32407 0.0
H1313 H 0.41831 0.05233 0.35341 0.0
H1314 H 0.48719 0.01196 0.36587 0.0
H1315 H 0.43918 0.05487 0.39513 0.0
H1316 H 0.4576 0.01963 0.46648 0.0
H1317 H 0.44156 0.02505 0.42473 0.0
H1318 H 0.51133 0.03779 0.40126 0.0
H1319 H 0.52762 0.03199 0.44351 0.0
C1320 C 0.4606 0.01989 0.33937 0.0
C1321 C 0.44062 0.03059 0.33549 0.0
C1322 C 0.47252 0.0213 0.36329 0.0
C1323 C 0.4647 0.03342 0.38383 0.0
C1324 C 0.4454 0.04508 0.37972 0.0
C1325 C 0.43347 0.04367 0.35581 0.0
C1326 C 0.46964 0.0237 0.45253 0.0
C1327 C 0.49391 0.02519 0.45827 0.0
C1328 C 0.4604 0.02707 0.42861 0.0
C1329 C 0.47516 0.03195 0.4097 0.0
C1330 C 0.49952 0.03392 0.41546 0.0
C1331 C 0.50885 0.0307 0.43961 0.0
H1332 H 0.75734 0.71033 0.06226 0.0
H1333 H 0.79507 0.65474 0.08386 0.0
H1334 H 0.75773 0.72471 0.1063 0.0
H1335 H 0.79634 0.66962 0.12768 0.0
H1336 H 0.77387 0.68372 0.20417 0.0
H1337 H 0.77129 0.67059 0.15972 0.0
H1338 H 0.78152 0.74424 0.14278 0.0
H1339 H 0.78311 0.75729 0.18738 0.0
C1340 C 0.76601 0.7014 0.0764 0.0
C1341 C 0.77605 0.68131 0.06961 0.0
C1342 C 0.7663 0.70968 0.10166 0.0
C1343 C 0.77684 0.69819 0.12064 0.0
C1344 C 0.78751 0.67855 0.11367 0.0
C1345 C 0.78698 0.67012 0.0885 0.0
C1346 C 0.77537 0.69709 0.19092 0.0
C1347 C 0.77881 0.72152 0.19923 0.0
C1348 C 0.7741 0.68959 0.16543 0.0
C1349 C 0.7766 0.70634 0.14761 0.0
C1350 C 0.77936 0.73081 0.15591 0.0
C1351 C 0.78032 0.73832 0.18148 0.0
H1352 H 0.11636 0.98958 0.7116 0.0
H1353 H 0.06493 0.03332 0.72934 0.0
H1354 H 0.1017 0.98593 0.66757 0.0
H1355 H 0.0508 0.03058 0.68491 0.0
H1356 H 0.01719 0.99994 0.60537 0.0
H1357 H 0.03025 0.00474 0.65019 0.0
H1358 H 0.10201 0.00873 0.63316 0.0
H1359 H 0.0888 0.00282 0.58865 0.0
C1360 C 0.10199 0.99857 0.70603 0.0
C1361 C 0.09186 0.01182 0.72389 0.0
C1362 C 0.09368 0.99665 0.68072 0.0
C1363 C 0.07526 0.00826 0.67255 0.0
C1364 C 0.06487 0.02124 0.69052 0.0
C1365 C 0.07301 0.02289 0.71597 0.0
C1366 C 0.03575 0.00202 0.61131 0.0
C1367 C 0.05197 0.00076 0.59359 0.0
C1368 C 0.04327 0.00485 0.63698 0.0
C1369 C 0.06718 0.00678 0.64536 0.0
C1370 C 0.0834 0.00659 0.62746 0.0
C1371 C 0.07587 0.0034 0.60191 0.0
H1372 H 0.80538 0.34365 0.46214 0.0
H1373 H 0.73107 0.34437 0.44992 0.0
H1374 H 0.80352 0.32004 0.42213 0.0
H1375 H 0.72935 0.32082 0.40939 0.0
H1376 H 0.73472 0.26278 0.34488 0.0
H1377 H 0.73508 0.28049 0.3882 0.0
H1378 H 0.79712 0.33092 0.37893 0.0
H1379 H 0.79692 0.31337 0.33635 0.0
C1380 C 0.7886 0.33874 0.45094 0.0
C1381 C 0.76842 0.34619 0.45906 0.0
C1382 C 0.78756 0.32519 0.428 0.0
C1383 C 0.76634 0.31877 0.41256 0.0
C1384 C 0.74592 0.3254 0.42101 0.0
C1385 C 0.74695 0.33904 0.44409 0.0
C1386 C 0.74855 0.27744 0.35232 0.0
C1387 C 0.76573 0.28674 0.33724 0.0
C1388 C 0.74865 0.28767 0.37696 0.0
C1389 C 0.76616 0.30704 0.38691 0.0
C1390 C 0.78357 0.31583 0.37192 0.0
C1391 C 0.78334 0.30585 0.34743 0.0
H1392 H 0.4238 0.01419 0.20601 0.0
H1393 H 0.47308 0.07234 0.24727 0.0
H1394 H 0.4517 0.00962 0.1757 0.0
H1395 H 0.50136 0.06737 0.21708 0.0
H1396 H 0.52761 0.06982 0.13709 0.0
H1397 H 0.50627 0.07368 0.17368 0.0
H1398 H 0.48873 0.99676 0.17084 0.0
H1399 H 0.50954 0.99287 0.13376 0.0
C1400 C 0.44065 0.02594 0.20868 0.0
C1401 C 0.44617 0.04371 0.22899 0.0
C1402 C 0.45678 0.02314 0.19145 0.0
C1403 C 0.47889 0.03795 0.19411 0.0
C1404 C 0.48444 0.05574 0.21444 0.0
C1405 C 0.46824 0.05859 0.23171 0.0
C1406 C 0.5197 0.0537 0.1446 0.0
C1407 C 0.51991 0.03104 0.13222 0.0
C1408 C 0.50747 0.05592 0.16565 0.0
C1409 C 0.49535 0.03553 0.17483 0.0
C1410 C 0.49737 0.01283 0.1638 0.0
C1411 C 0.50949 0.0106 0.14268 0.0
H1412 H 0.7416 0.70205 0.95418 0.0
H1413 H 0.79248 0.6589 0.93283 0.0
H1414 H 0.74759 0.72408 0.9174 0.0
H1415 H 0.79809 0.6807 0.89588 0.0
H1416 H 0.76703 0.69977 0.81736 0.0
H1417 H 0.76775 0.68179 0.85683 0.0
H1418 H 0.78177 0.7519 0.89755 0.0
H1419 H 0.78185 0.77019 0.85772 0.0
C1420 C 0.75415 0.69737 0.94173 0.0
C1421 C 0.76644 0.67863 0.94629 0.0
C1422 C 0.75769 0.71011 0.92083 0.0
C1423 C 0.77329 0.70406 0.90388 0.0
C1424 C 0.78594 0.68566 0.90869 0.0
C1425 C 0.78273 0.67323 0.92982 0.0
C1426 C 0.77067 0.71144 0.83467 0.0
C1427 C 0.77447 0.73643 0.8344 0.0
C1428 C 0.77112 0.7011 0.85727 0.0
C1429 C 0.77485 0.71546 0.88017 0.0
C1430 C 0.77885 0.74047 0.88007 0.0
C1431 C 0.77897 0.75089 0.85733 0.0
H1432 H 0.85469 0.11888 0.99075 0.0
H1433 H 0.80464 0.06516 0.01866 0.0
H1434 H 0.88164 0.0907 0.98731 0.0
H1435 H 0.83145 0.03668 0.01461 0.0
H1436 H 0.90049 0.00919 0.03902 0.0
H1437 H 0.86809 0.03113 0.03576 0.0
H1438 H 0.889 0.05459 0.96542 0.0
H1439 H 0.92188 0.03315 0.96903 0.0
C1440 C 0.8493 0.10095 0.99586 0.0
C1441 C 0.82759 0.09435 0.00519 0.0
C1442 C 0.86469 0.08468 0.99367 0.0
C1443 C 0.85872 0.06137 0.00065 0.0
C1444 C 0.83671 0.05456 0.00934 0.0
C1445 C 0.82132 0.07088 0.0116 0.0
C1446 C 0.89793 0.01861 0.02258 0.0
C1447 C 0.91401 0.0197 0.00449 0.0
C1448 C 0.87925 0.03116 0.02066 0.0
C1449 C 0.87615 0.04498 0.00053 0.0
C1450 C 0.89121 0.04458 0.98148 0.0
C1451 C 0.90995 0.03211 0.98344 0.0
H1452 H 0.33123 0.45999 0.04603 0.0
H1453 H 0.36134 0.39552 0.04417 0.0
H1454 H 0.36979 0.48336 0.04185 0.0
H1455 H 0.39957 0.41878 0.04018 0.0
H1456 H 0.45475 0.46076 -0.0007 0.0
H1457 H 0.41596 0.44054 0.00579 0.0
H1458 H 0.41117 0.49581 0.06398 0.0
H1459 H 0.45038 0.51634 0.05749 0.0
C1460 C 0.34607 0.45084 0.04501 0.0
C1461 C 0.34315 0.42585 0.04519 0.0
C1462 C 0.36814 0.46424 0.04269 0.0
C1463 C 0.38761 0.45285 0.04035 0.0
C1464 C 0.3848 0.42801 0.04147 0.0
C1465 C 0.36287 0.41469 0.04389 0.0
C1466 C 0.4455 0.46875 0.01345 0.0
C1467 C 0.45583 0.49007 0.02807 0.0
C1468 C 0.42327 0.45705 0.01725 0.0
C1469 C 0.41067 0.46639 0.03565 0.0
C1470 C 0.4205 0.4882 0.04966 0.0
C1471 C 0.44294 0.49991 0.04596 0.0
H1472 H 0.31408 0.55579 0.71351 0.0
H1473 H 0.35636 0.58085 0.78367 0.0
H1474 H 0.29377 0.58988 0.71822 0.0
H1475 H 0.33612 0.6149 0.78825 0.0
H1476 H 0.28398 0.66571 0.79748 0.0
H1477 H 0.297 0.62684 0.79436 0.0
H1478 H 0.30667 0.63348 0.71638 0.0
H1479 H 0.29375 0.67195 0.71946 0.0
C1480 C 0.31893 0.56845 0.73001 0.0
C1481 C 0.33699 0.56572 0.74808 0.0
C1482 C 0.30731 0.58798 0.73268 0.0
C1483 C 0.31336 0.60507 0.7536 0.0
C1484 C 0.33087 0.6019 0.77208 0.0
C1485 C 0.34262 0.58249 0.76931 0.0
C1486 C 0.2885 0.6586 0.77961 0.0
C1487 C 0.28801 0.6719 0.75877 0.0
C1488 C 0.29608 0.63647 0.77786 0.0
C1489 C 0.30293 0.62716 0.75514 0.0
C1490 C 0.30132 0.64003 0.73407 0.0
C1491 C 0.29407 0.66217 0.7359 0.0
H1492 H 0.20323 0.59216 0.48717 0.0
H1493 H 0.19757 0.58609 0.56606 0.0
H1494 H 0.16207 0.57446 0.47773 0.0
H1495 H 0.15613 0.56875 0.55658 0.0
H1496 H 0.08619 0.51991 0.52644 0.0
H1497 H 0.12845 0.53362 0.5358 0.0
H1498 H 0.12526 0.58763 0.48433 0.0
H1499 H 0.08344 0.5738 0.47471 0.0
C1500 C 0.19322 0.587 0.50251 0.0
C1501 C 0.20365 0.59072 0.5274 0.0
C1502 C 0.16959 0.57695 0.4971 0.0
C1503 C 0.15577 0.57043 0.51643 0.0
C1504 C 0.16635 0.57344 0.54125 0.0
C1505 C 0.19006 0.58349 0.54669 0.0
C1506 C 0.09458 0.53464 0.51708 0.0
C1507 C 0.08148 0.54574 0.4998 0.0
C1508 C 0.11873 0.54256 0.52253 0.0
C1509 C 0.13022 0.56163 0.5107 0.0
C1510 C 0.11704 0.57264 0.49344 0.0
C1511 C 0.093 0.5648 0.48806 0.0
H1512 H 0.68934 0.94963 0.80603 0.0
H1513 H 0.70203 0.94262 0.72807 0.0
H1514 H 0.71709 0.92318 0.81559 0.0
H1515 H 0.72903 0.91539 0.73736 0.0
H1516 H 0.78581 0.87595 0.76016 0.0
H1517 H 0.76575 0.91008 0.75694 0.0
H1518 H 0.7184 0.88209 0.80928 0.0
H1519 H 0.73894 0.84871 0.81324 0.0
C1520 C 0.69803 0.94238 0.79091 0.0
C1521 C 0.69334 0.94805 0.76624 0.0
C1522 C 0.71391 0.92716 0.79638 0.0
C1523 C 0.72528 0.91699 0.77726 0.0
C1524 C 0.72096 0.92315 0.75267 0.0
C1525 C 0.70527 0.93861 0.74727 0.0
C1526 C 0.77149 0.87743 0.77146 0.0
C1527 C 0.76381 0.85943 0.78671 0.0
C1528 C 0.75982 0.89687 0.76941 0.0
C1529 C 0.74013 0.89866 0.78245 0.0
C1530 C 0.73355 0.88149 0.79904 0.0
C1531 C 0.74532 0.8622 0.80125 0.0
H1532 H 0.7175 0.95389 0.53855 0.0
H1533 H 0.67063 0.88597 0.53243 0.0
H1534 H 0.68368 0.97452 0.53602 0.0
H1535 H 0.63715 0.9065 0.52991 0.0
H1536 H 0.58614 0.95098 0.55983 0.0
H1537 H 0.62132 0.93337 0.56086 0.0
H1538 H 0.6477 0.9785 0.50536 0.0
H1539 H 0.612 0.99642 0.50419 0.0
C1540 C 0.70004 0.94337 0.53661 0.0
C1541 C 0.69677 0.91828 0.53588 0.0
C1542 C 0.68071 0.95518 0.535 0.0
C1543 C 0.6578 0.94213 0.53293 0.0
C1544 C 0.65461 0.91706 0.53181 0.0
C1545 C 0.67382 0.90529 0.53318 0.0
C1546 C 0.59937 0.95731 0.54781 0.0
C1547 C 0.59611 0.97501 0.53173 0.0
C1548 C 0.61953 0.94709 0.54837 0.0
C1549 C 0.63713 0.95433 0.53298 0.0
C1550 C 0.63438 0.9726 0.51744 0.0
C1551 C 0.61396 0.98278 0.51672 0.0
H1552 H 0.3339 0.43983 0.70168 0.0
H1553 H 0.34943 0.45419 0.78208 0.0
H1554 H 0.31273 0.4001 0.70714 0.0
H1555 H 0.32813 0.41477 0.78743 0.0
H1556 H 0.31717 0.33319 0.78425 0.0
H1557 H 0.33509 0.37372 0.77854 0.0
H1558 H 0.27721 0.37893 0.72447 0.0
H1559 H 0.2592 0.33795 0.72998 0.0
C1560 C 0.33266 0.43461 0.7205 0.0
C1561 C 0.34354 0.45012 0.74142 0.0
C1562 C 0.32041 0.41191 0.72361 0.0
C1563 C 0.31891 0.40425 0.7477 0.0
C1564 C 0.32929 0.42001 0.76861 0.0
C1565 C 0.34142 0.44266 0.76552 0.0
C1566 C 0.30818 0.34291 0.77114 0.0
C1567 C 0.28675 0.33228 0.75753 0.0
C1568 C 0.3184 0.36624 0.76801 0.0
C1569 C 0.30754 0.37957 0.75112 0.0
C1570 C 0.28607 0.36903 0.73749 0.0
C1571 C 0.27571 0.34563 0.74076 0.0
H1572 H 0.20029 0.5783 0.237 0.0
H1573 H 0.18268 0.57403 0.31312 0.0
H1574 H 0.21481 0.62102 0.24643 0.0
H1575 H 0.19765 0.61659 0.32265 0.0
H1576 H 0.19666 0.69642 0.31999 0.0
H1577 H 0.18517 0.65332 0.3115 0.0
H1578 H 0.2456 0.65055 0.27071 0.0
H1579 H 0.25691 0.69389 0.27881 0.0
C1580 C 0.19979 0.5864 0.25582 0.0
C1581 C 0.19017 0.5728 0.27425 0.0
C1582 C 0.20822 0.61087 0.26125 0.0
C1583 C 0.20721 0.62223 0.28523 0.0
C1584 C 0.19828 0.60845 0.30387 0.0
C1585 C 0.18983 0.58402 0.29844 0.0
C1586 C 0.20754 0.68665 0.30924 0.0
C1587 C 0.22769 0.69858 0.30007 0.0
C1588 C 0.20103 0.6619 0.30453 0.0
C1589 C 0.21454 0.64849 0.29055 0.0
C1590 C 0.23472 0.66041 0.28136 0.0
C1591 C 0.24124 0.68521 0.28609 0.0
H1592 H 0.48563 0.68058 0.41178 0.0
H1593 H 0.5398 0.71182 0.47087 0.0
H1594 H 0.48413 0.64194 0.42806 0.0
H1595 H 0.53853 0.67271 0.487 0.0
H1596 H 0.50916 0.60052 0.51989 0.0
H1597 H 0.51324 0.64119 0.5069 0.0
H1598 H 0.50984 0.61246 0.42958 0.0
H1599 H 0.50539 0.57225 0.44238 0.0
C1600 C 0.49725 0.67922 0.42826 0.0
C1601 C 0.51299 0.69928 0.43987 0.0
C1602 C 0.49648 0.657 0.43753 0.0
C1603 C 0.51148 0.65416 0.4586 0.0
C1604 C 0.52673 0.67434 0.47076 0.0
C1605 C 0.5275 0.6967 0.46146 0.0
C1606 C 0.50961 0.60302 0.50018 0.0
C1607 C 0.50661 0.58322 0.48212 0.0
C1608 C 0.51194 0.62627 0.49274 0.0
C1609 C 0.51137 0.63 0.46716 0.0
C1610 C 0.50968 0.61018 0.44936 0.0
C1611 C 0.50725 0.58712 0.45673 0.0
H1612 H 0.60864 0.26799 0.64935 0.0
H1613 H 0.5811 0.28683 0.71889 0.0
H1614 H 0.64612 0.26638 0.67223 0.0
H1615 H 0.6188 0.28474 0.74199 0.0
H1616 H 0.69593 0.23242 0.72031 0.0
H1617 H 0.65882 0.23833 0.69995 0.0
H1618 H 0.66154 0.30255 0.74944 0.0
H1619 H 0.69905 0.29644 0.7703 0.0
C1620 C 0.6106 0.27189 0.66955 0.0
C1621 C 0.59179 0.27724 0.68232 0.0
C1622 C 0.63209 0.27085 0.68269 0.0
C1623 C 0.6353 0.27499 0.70897 0.0
C1624 C 0.61686 0.28148 0.72174 0.0
C1625 C 0.59527 0.28261 0.70852 0.0
C1626 C 0.68874 0.24786 0.72692 0.0
C1627 C 0.70064 0.26414 0.74674 0.0
C1628 C 0.66746 0.2513 0.71514 0.0
C1629 C 0.65743 0.27115 0.72276 0.0
C1630 C 0.66886 0.28709 0.74314 0.0
C1631 C 0.69032 0.28362 0.75503 0.0
H1632 H 0.9557 0.31808 0.92252 0.0
H1633 H 0.02791 0.31807 0.94937 0.0
H1634 H 0.95869 0.35858 0.94274 0.0
H1635 H 0.03068 0.35848 0.9699 0.0
H1636 H 0.02193 0.42675 0.01677 0.0
H1637 H 0.01227 0.38359 0.00437 0.0
H1638 H 0.98477 0.39738 0.93086 0.0
H1639 H 0.99485 0.44034 0.943 0.0
C1640 C 0.97206 0.32651 0.93316 0.0
C1641 C 0.99166 0.31499 0.93416 0.0
C1642 C 0.97374 0.34969 0.94467 0.0
C1643 C 0.9949 0.36159 0.9578 0.0
C1644 C 0.0141 0.34958 0.96005 0.0
C1645 C 0.01256 0.32655 0.94817 0.0
C1646 C 0.01331 0.42049 0.99818 0.0
C1647 C 0.00914 0.43678 0.98078 0.0
C1648 C 0.00795 0.39587 0.99108 0.0
C1649 C 0.99782 0.38726 0.96669 0.0
C1650 C 0.99239 0.40358 0.94984 0.0
C1651 C 0.99822 0.42812 0.95674 0.0
H1652 H 0.95009 0.71901 0.19513 0.0
H1653 H 0.97843 0.79336 0.21792 0.0
H1654 H 0.91616 0.7225 0.21796 0.0
H1655 H 0.9449 0.79666 0.24121 0.0
H1656 H 0.86641 0.80147 0.23914 0.0
H1657 H 0.90464 0.79737 0.22655 0.0
H1658 H 0.90006 0.72971 0.25831 0.0
H1659 H 0.86118 0.73368 0.27065 0.0
C1660 C 0.94932 0.73595 0.20543 0.0
C1661 C 0.96672 0.75602 0.20433 0.0
C1662 C 0.92995 0.73791 0.21866 0.0
C1663 C 0.92769 0.75995 0.23114 0.0
C1664 C 0.94589 0.77957 0.23136 0.0
C1665 C 0.96513 0.77765 0.21805 0.0
C1666 C 0.87362 0.78583 0.24375 0.0
C1667 C 0.86071 0.76781 0.25572 0.0
C1668 C 0.89568 0.78357 0.2367 0.0
C1669 C 0.90542 0.7632 0.24141 0.0
C1670 C 0.89291 0.74552 0.25425 0.0
C1671 C 0.87076 0.74786 0.26146 0.0
H1672 H 0.54893 0.30242 0.06858 0.0
H1673 H 0.49109 0.31729 0.10894 0.0
H1674 H 0.54595 0.33694 0.04505 0.0
H1675 H 0.48853 0.35186 0.08609 0.0
H1676 H 0.47487 0.4017 0.03023 0.0
H1677 H 0.47745 0.36318 0.04567 0.0
H1678 H 0.55303 0.38032 0.05126 0.0
H1679 H 0.55035 0.41867 0.03495 0.0
C1680 C 0.53559 0.31302 0.07243 0.0
C1681 C 0.52025 0.30708 0.09065 0.0
C1682 C 0.53395 0.33285 0.05901 0.0
C1683 C 0.5169 0.34712 0.06353 0.0
C1684 C 0.50154 0.34102 0.08168 0.0
C1685 C 0.50314 0.32125 0.09499 0.0
C1686 C 0.49204 0.39706 0.03432 0.0
C1687 C 0.51241 0.41329 0.03161 0.0
C1688 C 0.49353 0.37505 0.04336 0.0
C1689 C 0.51545 0.36883 0.05024 0.0
C1690 C 0.53585 0.38447 0.04607 0.0
C1691 C 0.53434 0.40647 0.03675 0.0
H1692 H 0.94675 0.21469 0.34857 0.0
H1693 H 0.96309 0.29131 0.34701 0.0
H1694 H 0.90657 0.21506 0.33175 0.0
H1695 H 0.92269 0.29154 0.33 0.0
H1696 H 0.84973 0.27319 0.27895 0.0
H1697 H 0.89173 0.27472 0.29121 0.0
H1698 H 0.87469 0.2329 0.35255 0.0
H1699 H 0.83328 0.23151 0.34072 0.0
C1700 C 0.94188 0.23158 0.34435 0.0
C1701 C 0.95808 0.253 0.34939 0.0
C1702 C 0.91884 0.23178 0.33478 0.0
C1703 C 0.9115 0.25336 0.32982 0.0
C1704 C 0.92793 0.27466 0.33361 0.0
C1705 C 0.951 0.27451 0.34345 0.0
C1706 C 0.85503 0.26451 0.29514 0.0
C1707 C 0.83816 0.25216 0.30878 0.0
C1708 C 0.879 0.26539 0.30213 0.0
C1709 C 0.88638 0.25363 0.3226 0.0
C1710 C 0.86949 0.24175 0.33643 0.0
C1711 C 0.84573 0.24112 0.3297 0.0
H1712 H 0.98331 0.70075 0.5497 0.0
H1713 H 0.99883 0.67604 0.62216 0.0
H1714 H 0.98731 0.66182 0.5293 0.0
H1715 H 0.0027 0.63742 0.60181 0.0
H1716 H 0.03862 0.5855 0.55852 0.0
H1717 H 0.03257 0.62467 0.57514 0.0
H1718 H 0.96881 0.61723 0.5255 0.0
H1719 H 0.97479 0.57761 0.50872 0.0
C1720 C 0.98733 0.68699 0.56128 0.0
C1721 C 0.99095 0.69158 0.58755 0.0
C1722 C 0.98955 0.66471 0.54959 0.0
C1723 C 0.99563 0.64675 0.56397 0.0
C1724 C 0.99842 0.6511 0.59023 0.0
C1725 C 0.99606 0.67321 0.60189 0.0
C1726 C 0.02334 0.59218 0.55098 0.0
C1727 C 0.00699 0.57826 0.53255 0.0
C1728 C 0.01984 0.6146 0.56061 0.0
C1729 C 1.0 0.62379 0.55194 0.0
C1730 C 0.98423 0.61052 0.53255 0.0
C1731 C 0.98767 0.58788 0.52296 0.0
H1732 H 0.57574 0.75469 0.84499 0.0
H1733 H 0.61811 0.80151 0.90506 0.0
H1734 H 0.61108 0.75062 0.82447 0.0
H1735 H 0.65301 0.79777 0.88452 0.0
H1736 H 0.71343 0.76708 0.85972 0.0
H1737 H 0.67611 0.76664 0.87681 0.0
H1738 H 0.64309 0.77347 0.80328 0.0
H1739 H 0.68076 0.77346 0.78593 0.0
C1740 C 0.59252 0.76423 0.85372 0.0
C1741 C 0.59411 0.77827 0.87679 0.0
C1742 C 0.61273 0.76195 0.84193 0.0
C1743 C 0.63489 0.77358 0.85304 0.0
C1744 C 0.63629 0.78809 0.87573 0.0
C1745 C 0.61621 0.79038 0.88745 0.0
C1746 C 0.69817 0.7682 0.84708 0.0
C1747 C 0.70008 0.77061 0.82154 0.0
C1748 C 0.67679 0.76809 0.85692 0.0
C1749 C 0.65673 0.7706 0.84154 0.0
C1750 C 0.65825 0.77156 0.81564 0.0
C1751 C 0.67978 0.77153 0.80569 0.0
H1752 H 0.4084 0.51829 0.67937 0.0
H1753 H 0.47482 0.54103 0.72429 0.0
H1754 H 0.42854 0.51675 0.64171 0.0
H1755 H 0.49517 0.53858 0.6866 0.0
H1756 H 0.5216 0.55259 0.6093 0.0
H1757 H 0.50315 0.5559 0.64842 0.0
H1758 H 0.45202 0.49298 0.62142 0.0
H1759 H 0.46976 0.49034 0.58242 0.0
C1760 C 0.42734 0.52282 0.68122 0.0
C1761 C 0.43999 0.52967 0.70485 0.0
C1762 C 0.43896 0.52179 0.65961 0.0
C1763 C 0.46358 0.52725 0.66106 0.0
C1764 C 0.47622 0.53445 0.6847 0.0
C1765 C 0.46455 0.53573 0.70634 0.0
C1766 C 0.50651 0.53945 0.61191 0.0
C1767 C 0.49696 0.52142 0.59269 0.0
C1768 C 0.49594 0.54128 0.63431 0.0
C1769 C 0.4758 0.52494 0.63797 0.0
C1770 C 0.46701 0.50634 0.61905 0.0
C1771 C 0.47732 0.50472 0.59669 0.0
H1772 H 0.72681 0.19662 0.98578 0.0
H1773 H 0.79316 0.17973 0.96637 0.0
H1774 H 0.72782 0.22502 0.95408 0.0
H1775 H 0.79405 0.20797 0.93468 0.0
H1776 H 0.7987 0.27175 0.89147 0.0
H1777 H 0.79717 0.25145 0.92963 0.0
H1778 H 0.72454 0.22107 0.90734 0.0
H1779 H 0.72594 0.24145 0.86928 0.0
C1780 C 0.74167 0.19905 0.97486 0.0
C1781 C 0.75984 0.18581 0.97846 0.0
C1782 C 0.74221 0.21529 0.95671 0.0
C1783 C 0.76104 0.21878 0.94198 0.0
C1784 C 0.77947 0.20594 0.946 0.0
C1785 C 0.77884 0.18958 0.96399 0.0
C1786 C 0.78224 0.26122 0.89497 0.0
C1787 C 0.76253 0.25795 0.87716 0.0
C1788 C 0.78143 0.24945 0.91675 0.0
C1789 C 0.76086 0.23438 0.92125 0.0
C1790 C 0.74064 0.23261 0.90442 0.0
C1791 C 0.74147 0.24425 0.88256 0.0
H1792 H 0.07564 0.45865 0.20911 0.0
H1793 H 0.12644 0.52094 0.19967 0.0
H1794 H 0.05477 0.4623 0.16854 0.0
H1795 H 0.10534 0.52494 0.15973 0.0
H1796 H 0.07882 0.51127 0.07832 0.0
H1797 H 0.09817 0.50495 0.1183 0.0
H1798 H 0.03096 0.48765 0.14702 0.0
H1799 H 0.01134 0.49335 0.10631 0.0
C1800 C 0.08233 0.47313 0.19842 0.0
C1801 C 0.1028 0.4894 0.20752 0.0
C1802 C 0.07027 0.47531 0.17527 0.0
C1803 C 0.07844 0.49383 0.16083 0.0
C1804 C 0.0988 0.51018 0.17012 0.0
C1805 C 0.11087 0.50795 0.19311 0.0
C1806 C 0.06808 0.50611 0.0931 0.0
C1807 C 0.04352 0.50303 0.08921 0.0
C1808 C 0.07922 0.50258 0.11611 0.0
C1809 C 0.06615 0.49612 0.13599 0.0
C1810 C 0.04152 0.4925 0.13201 0.0
C1811 C 0.03029 0.49587 0.10877 0.0
H1812 H 0.81046 0.85174 0.47564 0.0
H1813 H 0.73774 0.86013 0.47038 0.0
H1814 H 0.80485 0.83322 0.43238 0.0
H1815 H 0.73225 0.84162 0.42738 0.0
H1816 H 0.74106 0.8411 0.34404 0.0
H1817 H 0.74752 0.85579 0.38811 0.0
H1818 H 0.78229 0.79659 0.40404 0.0
H1819 H 0.77577 0.78161 0.35942 0.0
C1820 C 0.79325 0.84945 0.46536 0.0
C1821 C 0.7746 0.85764 0.47637 0.0
C1822 C 0.79004 0.83873 0.44066 0.0
C1823 C 0.76819 0.8362 0.42648 0.0
C1824 C 0.74938 0.84366 0.43778 0.0
C1825 C 0.75252 0.85419 0.46245 0.0
C1826 C 0.75015 0.83114 0.35681 0.0
C1827 C 0.75782 0.81009 0.3482 0.0
C1828 C 0.7537 0.83952 0.38213 0.0
C1829 C 0.76515 0.82718 0.39954 0.0
C1830 C 0.77341 0.80644 0.39098 0.0
C1831 C 0.76965 0.79787 0.3655 0.0
H1832 H 0.46377 0.49415 0.81312 0.0
H1833 H 0.41474 0.5392 0.83527 0.0
H1834 H 0.48432 0.50169 0.85544 0.0
H1835 H 0.43439 0.54586 0.87737 0.0
H1836 H 0.48279 0.5724 0.94484 0.0
H1837 H 0.46872 0.56626 0.90057 0.0
H1838 H 0.48077 0.49326 0.89812 0.0
H1839 H 0.49614 0.50005 0.94249 0.0
C1840 C 0.45736 0.50559 0.82701 0.0
C1841 C 0.43774 0.51622 0.8208 0.0
C1842 C 0.46904 0.50981 0.85129 0.0
C1843 C 0.46119 0.52458 0.86982 0.0
C1844 C 0.4414 0.53494 0.86349 0.0
C1845 C 0.42997 0.53097 0.83931 0.0
C1846 C 0.48266 0.55512 0.93475 0.0
C1847 C 0.49024 0.53659 0.94706 0.0
C1848 C 0.47445 0.55152 0.9094 0.0
C1849 C 0.47304 0.52907 0.89585 0.0
C1850 C 0.48167 0.5108 0.90793 0.0
C1851 C 0.49039 0.51461 0.93333 0.0
H1852 H 0.78272 0.15373 0.10651 0.0
H1853 H 0.80206 0.21929 0.07244 0.0
H1854 H 0.77955 0.17671 0.14581 0.0
H1855 H 0.79819 0.24236 0.11169 0.0
H1856 H 0.80486 0.2745 0.19518 0.0
H1857 H 0.81301 0.25353 0.15612 0.0
H1858 H 0.75124 0.2004 0.15884 0.0
H1859 H 0.74346 0.22085 0.19766 0.0
C1860 C 0.78644 0.17306 0.10746 0.0
C1861 C 0.79236 0.18468 0.08629 0.0
C1862 C 0.78447 0.18624 0.12993 0.0
C1863 C 0.78813 0.21137 0.1317 0.0
C1864 C 0.79528 0.22304 0.11094 0.0
C1865 C 0.79744 0.2098 0.08844 0.0
C1866 C 0.79295 0.25848 0.18719 0.0
C1867 C 0.77365 0.2492 0.19956 0.0
C1868 C 0.79762 0.24647 0.1649 0.0
C1869 C 0.78303 0.22504 0.15466 0.0
C1870 C 0.76323 0.21645 0.16659 0.0
C1871 C 0.75864 0.22832 0.18875 0.0
H1872 H 0.09615 0.54648 0.33056 0.0
H1873 H 0.08989 0.47018 0.31376 0.0
H1874 H 0.06835 0.54006 0.36161 0.0
H1875 H 0.06106 0.46362 0.34382 0.0
H1876 H 0.04323 0.4629 0.42524 0.0
H1877 H 0.06238 0.46637 0.38734 0.0
H1878 H 0.02999 0.52744 0.37206 0.0
H1879 H 0.01158 0.52461 0.41108 0.0
C1880 C 0.08845 0.52833 0.33318 0.0
C1881 C 0.09546 0.50882 0.32009 0.0
C1882 C 0.07231 0.52461 0.35082 0.0
C1883 C 0.06252 0.50129 0.35544 0.0
C1884 C 0.06863 0.48182 0.34123 0.0
C1885 C 0.0851 0.48554 0.32394 0.0
C1886 C 0.03986 0.47689 0.41366 0.0
C1887 C 0.02617 0.49372 0.42139 0.0
C1888 C 0.05074 0.47877 0.39169 0.0
C1889 C 0.04798 0.49735 0.37664 0.0
C1890 C 0.03292 0.51322 0.38348 0.0
C1891 C 0.02219 0.51148 0.40571 0.0
H1892 H 0.73471 0.85572 0.60685 0.0
H1893 H 0.79348 0.823 0.5875 0.0
H1894 H 0.73063 0.83168 0.64255 0.0
H1895 H 0.78969 0.79956 0.62351 0.0
H1896 H 0.79301 0.79883 0.71271 0.0
H1897 H 0.79449 0.81699 0.6732 0.0
H1898 H 0.72323 0.78255 0.64988 0.0
H1899 H 0.72199 0.7635 0.68942 0.0
C1900 C 0.74668 0.84337 0.61017 0.0
C1901 C 0.76448 0.84132 0.59445 0.0
C1902 C 0.74421 0.82951 0.63043 0.0
C1903 C 0.7598 0.81376 0.63561 0.0
C1904 C 0.77743 0.81154 0.6198 0.0
C1905 C 0.77958 0.82497 0.59924 0.0
C1906 C 0.77773 0.7949 0.69903 0.0
C1907 C 0.75736 0.7798 0.70404 0.0
C1908 C 0.77863 0.80523 0.67644 0.0
C1909 C 0.75897 0.80119 0.65863 0.0
C1910 C 0.73859 0.78592 0.66343 0.0
C1911 C 0.73791 0.77497 0.68588 0.0
H1912 H 0.66408 0.38021 0.52951 0.0
H1913 H 0.7153 0.44534 0.54034 0.0
H1914 H 0.63271 0.40364 0.531 0.0
H1915 H 0.68366 0.46879 0.54192 0.0
H1916 H 0.61494 0.49707 0.56524 0.0
H1917 H 0.64841 0.47572 0.56835 0.0
H1918 H 0.61987 0.43185 0.49992 0.0
H1919 H 0.58701 0.45289 0.4966 0.0
C1920 C 0.66868 0.39951 0.53242 0.0
C1921 C 0.69218 0.41091 0.53453 0.0
C1922 C 0.6507 0.41291 0.53324 0.0
C1923 C 0.6558 0.43801 0.53643 0.0
C1924 C 0.67929 0.44946 0.53956 0.0
C1925 C 0.69734 0.43603 0.53846 0.0
C1926 C 0.61597 0.48298 0.55083 0.0
C1927 C 0.59825 0.47663 0.53077 0.0
C1928 C 0.63508 0.47081 0.5526 0.0
C1929 C 0.63648 0.45195 0.53453 0.0
C1930 C 0.61901 0.44603 0.51433 0.0
C1931 C 0.60023 0.45825 0.5124 0.0
H1932 H 0.19701 0.06844 0.47976 0.0
H1933 H 0.1913 0.10404 0.55225 0.0
H1934 H 0.15698 0.04681 0.47884 0.0
H1935 H 0.15098 0.08426 0.55071 0.0
H1936 H 0.08456 0.03501 0.55414 0.0
H1937 H 0.12606 0.05046 0.55463 0.0
H1938 H 0.11779 0.04799 0.47359 0.0
H1939 H 0.07656 0.03028 0.47342 0.0
C1940 C 0.18705 0.07174 0.49539 0.0
C1941 C 0.19726 0.08769 0.51617 0.0
C1942 C 0.164 0.05951 0.49484 0.0
C1943 C 0.15044 0.06349 0.51478 0.0
C1944 C 0.16081 0.07989 0.53532 0.0
C1945 C 0.18398 0.09151 0.53616 0.0
C1946 C 0.09183 0.0374 0.53646 0.0
C1947 C 0.07753 0.03145 0.51375 0.0
C1948 C 0.11561 0.04663 0.53667 0.0
C1949 C 0.12554 0.05113 0.51417 0.0
C1950 C 0.11111 0.0446 0.49134 0.0
C1951 C 0.08741 0.03455 0.49115 0.0
H1952 H 0.13324 0.92174 0.76322 0.0
H1953 H 0.19856 0.96942 0.78765 0.0
H1954 H 0.15419 0.88834 0.75886 0.0
H1955 H 0.21959 0.93563 0.78331 0.0
H1956 H 0.24757 0.86769 0.74855 0.0
H1957 H 0.22893 0.90348 0.74982 0.0
H1958 H 0.17529 0.86804 0.7912 0.0
H1959 H 0.19352 0.83282 0.79002 0.0
C1960 C 0.15209 0.92514 0.76761 0.0
C1961 C 0.16419 0.94822 0.77605 0.0
C1962 C 0.16409 0.90597 0.76512 0.0
C1963 C 0.18849 0.90938 0.7709 0.0
C1964 C 0.20079 0.93255 0.7786 0.0
C1965 C 0.18872 0.95181 0.78127 0.0
C1966 C 0.23181 0.86765 0.75789 0.0
C1967 C 0.222 0.84739 0.76909 0.0
C1968 C 0.22123 0.8881 0.75871 0.0
C1969 C 0.20056 0.88841 0.77042 0.0
C1970 C 0.19099 0.86821 0.78172 0.0
C1971 C 0.20158 0.84803 0.78112 0.0
H1972 H 0.32721 0.93382 0.09086 0.0
H1973 H 0.32492 0.92966 0.01006 0.0
H1974 H 0.36865 0.95145 0.09436 0.0
H1975 H 0.36642 0.94708 0.01363 0.0
H1976 H 0.43738 0.99758 0.03111 0.0
H1977 H 0.39493 0.98434 0.02829 0.0
H1978 H 0.40457 0.93619 0.0848 0.0
H1979 H 0.44672 0.94946 0.08779 0.0
C1980 C 0.33548 0.93681 0.07385 0.0
C1981 C 0.3228 0.9302 0.05018 0.0
C1982 C 0.35925 0.9468 0.07586 0.0
C1983 C 0.37081 0.95051 0.05426 0.0
C1984 C 0.35795 0.94462 0.03061 0.0
C1985 C 0.33421 0.93451 0.02858 0.0
C1986 C 0.43039 0.98424 0.04297 0.0
C1987 C 0.4454 0.97454 0.05963 0.0
C1988 C 0.40613 0.97661 0.04129 0.0
C1989 C 0.39644 0.9593 0.0564 0.0
C1990 C 0.41147 0.9498 0.07318 0.0
C1991 C 0.43566 0.95729 0.07474 0.0
H1992 H 0.85668 0.57554 0.73907 0.0
H1993 H 0.81186 0.5523 0.79555 0.0
H1994 H 0.83634 0.60932 0.73392 0.0
H1995 H 0.79164 0.58613 0.79037 0.0
H1996 H 0.79592 0.66932 0.80228 0.0
H1997 H 0.80747 0.63022 0.80197 0.0
H1998 H 0.7962 0.62146 0.72109 0.0
H1999 H 0.78421 0.66093 0.72143 0.0
C2000 C 0.84232 0.57747 0.75016 0.0
C2001 C 0.83608 0.56141 0.76796 0.0
C2002 C 0.83054 0.59669 0.74703 0.0
C2003 C 0.81247 0.60037 0.7618 0.0
C2004 C 0.80561 0.58378 0.77885 0.0
C2005 C 0.8172 0.56442 0.7818 0.0
C2006 C 0.79556 0.65893 0.78441 0.0
C2007 C 0.7893 0.66815 0.76186 0.0
C2008 C 0.80202 0.63646 0.78426 0.0
C2009 C 0.80273 0.62281 0.76151 0.0
C2010 C 0.79583 0.63169 0.73888 0.0
C2011 C 0.78888 0.65413 0.73906 0.0
H2012 H 0.8236 0.58401 0.9829 0.0
H2013 H 0.82829 0.58658 0.06371 0.0
H2014 H 0.85845 0.56553 0.98291 0.0
H2015 H 0.86362 0.56872 0.06377 0.0
H2016 H 0.92044 0.52256 0.05336 0.0
H2017 H 0.88147 0.53383 0.05246 0.0
H2018 H 0.89918 0.58033 0.99488 0.0
H2019 H 0.93736 0.56882 0.99535 0.0
C2020 C 0.83201 0.58054 0.00067 0.0
C2021 C 0.82332 0.58704 0.02332 0.0
C2022 C 0.85206 0.57003 0.0007 0.0
C2023 C 0.86406 0.56596 0.02338 0.0
C2024 C 0.85475 0.57145 0.04596 0.0
C2025 C 0.83456 0.58184 0.04593 0.0
C2026 C 0.91585 0.53504 0.04042 0.0
C2027 C 0.93202 0.5448 0.02447 0.0
C2028 C 0.8936 0.54157 0.03996 0.0
C2029 C 0.88712 0.55788 0.02347 0.0
C2030 C 0.90332 0.56737 0.00745 0.0
C2031 C 0.92539 0.5609 0.00791 0.0
H2032 H 0.20102 0.07659 0.79852 0.0
H2033 H 0.13913 0.10689 0.77976 0.0
H2034 H 0.22554 0.11543 0.79586 0.0
H2035 H 0.16341 0.14552 0.77777 0.0
H2036 H 0.21128 0.20006 0.74252 0.0
H2037 H 0.18956 0.16121 0.74842 0.0
H2038 H 0.23656 0.15763 0.81424 0.0
H2039 H 0.25888 0.1968 0.80796 0.0
C2040 C 0.19265 0.09159 0.7942 0.0
C2041 C 0.16816 0.08861 0.789 0.0
C2042 C 0.20668 0.11384 0.79276 0.0
C2043 C 0.19645 0.13345 0.78617 0.0
C2044 C 0.1719 0.13063 0.78224 0.0
C2045 C 0.15795 0.10848 0.78351 0.0
C2046 C 0.21711 0.19104 0.75824 0.0
C2047 C 0.23668 0.20163 0.77493 0.0
C2048 C 0.20453 0.16878 0.76172 0.0
C2049 C 0.21104 0.15652 0.78209 0.0
C2050 C 0.23111 0.16666 0.79837 0.0
C2051 C 0.24386 0.18906 0.7948 0.0
H2052 H 0.39461 0.93645 0.25302 0.0
H2053 H 0.33223 0.96433 0.26915 0.0
H2054 H 0.37249 0.89606 0.24874 0.0
H2055 H 0.30982 0.9237 0.26415 0.0
H2056 H 0.28475 0.84438 0.27828 0.0
H2057 H 0.30492 0.88599 0.28321 0.0
H2058 H 0.34304 0.87126 0.21992 0.0
H2059 H 0.32353 0.82987 0.21552 0.0
C2060 C 0.37612 0.93397 0.25552 0.0
C2061 C 0.36517 0.95362 0.26131 0.0
C2062 C 0.36338 0.91079 0.25292 0.0
C2063 C 0.3393 0.90664 0.25583 0.0
C2064 C 0.32837 0.92627 0.26196 0.0
C2065 C 0.34118 0.94954 0.2647 0.0
C2066 C 0.29734 0.85015 0.26537 0.0
C2067 C 0.30277 0.83383 0.24671 0.0
C2068 C 0.30883 0.87398 0.26812 0.0
C2069 C 0.32584 0.88187 0.25217 0.0
C2070 C 0.3305 0.86566 0.23294 0.0
C2071 C 0.31921 0.84193 0.23033 0.0
H2072 H 0.48976 0.33109 0.62122 0.0
H2073 H 0.55554 0.33414 0.58891 0.0
H2074 H 0.48256 0.36619 0.60074 0.0
H2075 H 0.54833 0.36934 0.56861 0.0
H2076 H 0.52552 0.42787 0.52629 0.0
H2077 H 0.5225 0.38653 0.53716 0.0
H2078 H 0.50291 0.40832 0.61003 0.0
H2079 H 0.50603 0.44929 0.59922 0.0
C2080 C 0.50255 0.33903 0.60949 0.0
C2081 C 0.52341 0.33002 0.60701 0.0
C2082 C 0.49839 0.35914 0.59777 0.0
C2083 C 0.51492 0.37059 0.58318 0.0
C2084 C 0.53515 0.36078 0.57953 0.0
C2085 C 0.53938 0.34073 0.59137 0.0
C2086 C 0.51983 0.42356 0.54427 0.0
C2087 C 0.51605 0.44165 0.56198 0.0
C2088 C 0.51833 0.40001 0.55058 0.0
C2089 C 0.51262 0.39423 0.5745 0.0
C2090 C 0.50714 0.41212 0.59139 0.0
C2091 C 0.50901 0.4356 0.58525 0.0
H2092 H 0.44864 0.74612 0.32265 0.0
H2093 H 0.41303 0.74068 0.38974 0.0
H2094 H 0.41213 0.75154 0.29904 0.0
H2095 H 0.37697 0.74663 0.36625 0.0
H2096 H 0.33317 0.79456 0.32297 0.0
H2097 H 0.37039 0.787 0.34212 0.0
H2098 H 0.36551 0.72434 0.28998 0.0
H2099 H 0.32754 0.73127 0.27113 0.0
C2100 C 0.43303 0.74592 0.33228 0.0
C2101 C 0.43368 0.74305 0.35805 0.0
C2102 C 0.41222 0.74894 0.31877 0.0
C2103 C 0.39197 0.74962 0.33097 0.0
C2104 C 0.39248 0.74627 0.35655 0.0
C2105 C 0.41308 0.74278 0.36992 0.0
C2106 C 0.33992 0.77913 0.3155 0.0
C2107 C 0.32711 0.76319 0.29589 0.0
C2108 C 0.36125 0.77489 0.32646 0.0
C2109 C 0.37051 0.75498 0.31764 0.0
C2110 C 0.35856 0.73978 0.29707 0.0
C2111 C 0.3369 0.74377 0.28635 0.0
H2112 H 0.99523 0.70328 0.1235 0.0
H2113 H 0.06406 0.71731 0.0977 0.0
H2114 H 0.99134 0.66137 0.10798 0.0
H2115 H 0.06008 0.6751 0.08221 0.0
H2116 H 0.02974 0.59982 0.03752 0.0
H2117 H 0.03562 0.64288 0.05014 0.0
H2118 H 0.01162 0.6285 0.12198 0.0
H2119 H 0.00575 0.58583 0.10958 0.0
C2120 C 0.00946 0.69749 0.11432 0.0
C2121 C 0.03003 0.71362 0.11202 0.0
C2122 C 0.00728 0.67343 0.10557 0.0
C2123 C 0.02555 0.66493 0.0942 0.0
C2124 C 0.04573 0.68119 0.09089 0.0
C2125 C 0.048 0.70532 0.09982 0.0
C2126 C 0.02599 0.60589 0.0561 0.0
C2127 C 0.0171 0.5894 0.07247 0.0
C2128 C 0.02936 0.6305 0.0633 0.0
C2129 C 0.02372 0.639 0.08688 0.0
C2130 C 0.01566 0.62247 0.1035 0.0
C2131 C 0.01245 0.59799 0.09641 0.0
H2132 H 0.04655 0.22039 0.80868 0.0
H2133 H 0.07404 0.28642 0.85482 0.0
H2134 H 0.08256 0.2239 0.78818 0.0
H2135 H 0.11014 0.28978 0.83437 0.0
H2136 H 0.16758 0.29569 0.78104 0.0
H2137 H 0.12786 0.29489 0.79346 0.0
H2138 H 0.1229 0.22 0.80412 0.0
H2139 H 0.16219 0.22078 0.79179 0.0
C2140 C 0.06015 0.23579 0.81428 0.0
C2141 C 0.05752 0.25298 0.8336 0.0
C2142 C 0.0808 0.23775 0.80256 0.0
C2143 C 0.09923 0.25703 0.80977 0.0
C2144 C 0.09618 0.27483 0.82825 0.0
C2145 C 0.07556 0.27279 0.8401 0.0
C2146 C 0.15779 0.27901 0.78564 0.0
C2147 C 0.168 0.25833 0.78557 0.0
C2148 C 0.13516 0.27859 0.79289 0.0
C2149 C 0.12228 0.25739 0.79979 0.0
C2150 C 0.13223 0.23654 0.79866 0.0
C2151 C 0.15483 0.23704 0.79176 0.0
H2152 H 0.56456 0.73632 0.98524 0.0
H2153 H 0.5045 0.70108 0.93508 0.0
H2154 H 0.563 0.70075 0.00785 0.0
H2155 H 0.5031 0.6655 0.9576 0.0
H2156 H 0.49673 0.61011 0.01357 0.0
H2157 H 0.49601 0.64951 0.99872 0.0
H2158 H 0.57107 0.66007 0.99697 0.0
H2159 H 0.57181 0.62098 0.01184 0.0
C2160 C 0.55093 0.72107 0.97913 0.0
C2161 C 0.53479 0.72147 0.95821 0.0
C2162 C 0.55008 0.70068 0.99206 0.0
C2163 C 0.53295 0.68031 0.98449 0.0
C2164 C 0.51634 0.681 0.96408 0.0
C2165 C 0.51729 0.70132 0.95103 0.0
C2166 C 0.51311 0.6211 0.01054 0.0
C2167 C 0.53431 0.61243 0.01377 0.0
C2168 C 0.51267 0.64354 0.00183 0.0
C2169 C 0.53347 0.65782 0.99651 0.0
C2170 C 0.55478 0.64962 0.00108 0.0
C2171 C 0.55518 0.62715 0.00949 0.0
H2172 H 0.09059 0.75994 0.63059 0.0
H2173 H 0.06184 0.74424 0.6999 0.0
H2174 H 0.12974 0.76057 0.65039 0.0
H2175 H 0.10116 0.74358 0.71965 0.0
H2176 H 0.17803 0.77321 0.75268 0.0
H2177 H 0.13709 0.76755 0.73529 0.0
H2178 H 0.15571 0.737 0.6651 0.0
H2179 H 0.19668 0.74416 0.68216 0.0
C2180 C 0.09265 0.75633 0.65004 0.0
C2181 C 0.07314 0.75205 0.66368 0.0
C2182 C 0.11514 0.75643 0.66141 0.0
C2183 C 0.11877 0.75177 0.68663 0.0
C2184 C 0.09916 0.74745 0.70029 0.0
C2185 C 0.0766 0.74776 0.68897 0.0
C2186 C 0.17317 0.76482 0.73372 0.0
C2187 C 0.19041 0.75924 0.71865 0.0
C2188 C 0.1497 0.76156 0.7237 0.0
C2189 C 0.14302 0.75227 0.69854 0.0
C2190 C 0.16021 0.74498 0.68424 0.0
C2191 C 0.18367 0.74877 0.69407 0.0
H2192 H 0.97807 0.31966 0.4561 0.0
H2193 H 0.04868 0.34465 0.43907 0.0
H2194 H 0.97843 0.35739 0.4809 0.0
H2195 H 0.04885 0.3827 0.46369 0.0
H2196 H 0.04587 0.44381 0.52382 0.0
H2197 H 0.04721 0.40294 0.50649 0.0
H2198 H 0.97753 0.39776 0.46905 0.0
H2199 H 0.97611 0.43809 0.48639 0.0
C2200 C 0.99374 0.33314 0.45776 0.0
C2201 C 0.01325 0.32924 0.44534 0.0
C2202 C 0.99391 0.3548 0.47195 0.0
C2203 C 0.01358 0.37311 0.47407 0.0
C2204 C 0.0335 0.36887 0.46256 0.0
C2205 C 0.03333 0.34714 0.44832 0.0
C2206 C 0.03074 0.43374 0.51222 0.0
C2207 C 0.01092 0.44417 0.50641 0.0
C2208 C 0.03157 0.41045 0.50215 0.0
C2209 C 0.01248 0.39714 0.4864 0.0
C2210 C 0.99242 0.40738 0.48137 0.0
C2211 C 0.99167 0.43059 0.4912 0.0
H2212 H 0.45479 0.26506 0.19972 0.0
H2213 H 0.41533 0.23626 0.12896 0.0
H2214 H 0.41813 0.26757 0.21817 0.0
H2215 H 0.37905 0.23811 0.14738 0.0
H2216 H 0.31797 0.26359 0.17619 0.0
H2217 H 0.35667 0.26695 0.16164 0.0
H2218 H 0.38344 0.24329 0.23104 0.0
H2219 H 0.34461 0.24076 0.24597 0.0
C2220 C 0.43832 0.25913 0.18817 0.0
C2221 C 0.43798 0.25061 0.16282 0.0
C2222 C 0.41733 0.26052 0.19875 0.0
C2223 C 0.39562 0.25336 0.18419 0.0
C2224 C 0.39541 0.2444 0.15901 0.0
C2225 C 0.41628 0.24314 0.14846 0.0
C2226 C 0.3322 0.25948 0.18852 0.0
C2227 C 0.32824 0.25167 0.21209 0.0
C2228 C 0.35437 0.26121 0.18011 0.0
C2229 C 0.37307 0.25482 0.1949 0.0
C2230 C 0.36945 0.24837 0.21916 0.0
C2231 C 0.34722 0.24691 0.22773 0.0
H2232 H 0.5905 0.55869 0.35389 0.0
H2233 H 0.59771 0.48437 0.35306 0.0
H2234 H 0.56681 0.55441 0.3889 0.0
H2235 H 0.57399 0.4802 0.38838 0.0
H2236 H 0.51526 0.47963 0.44211 0.0
H2237 H 0.53308 0.4823 0.40236 0.0
H2238 H 0.57786 0.54817 0.43334 0.0
H2239 H 0.56033 0.54553 0.47254 0.0
C2240 C 0.58692 0.54138 0.36105 0.0
C2241 C 0.59626 0.52194 0.35086 0.0
C2242 C 0.57334 0.53896 0.38113 0.0
C2243 C 0.56868 0.51702 0.39147 0.0
C2244 C 0.57717 0.49728 0.38067 0.0
C2245 C 0.5909 0.49973 0.36059 0.0
C2246 C 0.52875 0.49474 0.44022 0.0
C2247 C 0.5365 0.51228 0.46043 0.0
C2248 C 0.53901 0.4962 0.4176 0.0
C2249 C 0.55682 0.51548 0.41476 0.0
C2250 C 0.56402 0.53325 0.43482 0.0
C2251 C 0.55408 0.53162 0.45737 0.0
H2252 H 0.23318 0.84733 0.08521 0.0
H2253 H 0.29446 0.81944 0.06509 0.0
H2254 H 0.22739 0.81869 0.11611 0.0
H2255 H 0.28821 0.79014 0.09551 0.0
H2256 H 0.28779 0.77054 0.17802 0.0
H2257 H 0.29208 0.79034 0.14003 0.0
H2258 H 0.21681 0.77761 0.12299 0.0
H2259 H 0.21248 0.75851 0.16163 0.0
C2260 C 0.24526 0.83487 0.08718 0.0
C2261 C 0.26442 0.83582 0.0729 0.0
C2262 C 0.2418 0.81824 0.10472 0.0
C2263 C 0.25729 0.80201 0.10826 0.0
C2264 C 0.27612 0.80256 0.09348 0.0
C2265 C 0.27969 0.81935 0.07604 0.0
C2266 C 0.27215 0.77142 0.16589 0.0
C2267 C 0.24977 0.76336 0.17309 0.0
C2268 C 0.27462 0.78275 0.144 0.0
C2269 C 0.25477 0.78603 0.1287 0.0
C2270 C 0.23245 0.77596 0.13473 0.0
C2271 C 0.22997 0.76481 0.15675 0.0
H2272 H 0.96344 0.49536 0.82408 0.0
H2273 H 0.9196 0.5443 0.85074 0.0
H2274 H 0.98582 0.50056 0.86521 0.0
H2275 H 0.94221 0.54967 0.89181 0.0
H2276 H 0.96273 0.51997 0.9666 0.0
H2277 H 0.94478 0.52211 0.92471 0.0
H2278 H 0.01277 0.52977 0.89683 0.0
H2279 H 0.03103 0.52758 0.93928 0.0
C2280 C 0.95872 0.50742 0.83863 0.0
C2281 C 0.93954 0.51917 0.83425 0.0
C2282 C 0.97171 0.51056 0.86212 0.0
C2283 C 0.9657 0.52543 0.88174 0.0
C2284 C 0.94707 0.53788 0.87709 0.0
C2285 C 0.93415 0.53483 0.85357 0.0
C2286 C 0.974 0.52237 0.95168 0.0
C2287 C 0.99834 0.52354 0.95628 0.0
C2288 C 0.96366 0.52378 0.92765 0.0
C2289 C 0.97736 0.52619 0.9075 0.0
C2290 C 0.00179 0.52781 0.91205 0.0
C2291 C 0.01224 0.52666 0.93631 0.0
H2292 H 0.28656 0.18806 0.56473 0.0
H2293 H 0.21232 0.16703 0.56913 0.0
H2294 H 0.29098 0.20757 0.60759 0.0
H2295 H 0.21696 0.186 0.61223 0.0
H2296 H 0.25235 0.18654 0.69698 0.0
H2297 H 0.24348 0.17314 0.65229 0.0
H2298 H 0.27302 0.24337 0.63398 0.0
H2299 H 0.28131 0.2571 0.67887 0.0
C2300 C 0.27118 0.18784 0.57476 0.0
C2301 C 0.24911 0.17602 0.56366 0.0
C2302 C 0.2737 0.19909 0.59917 0.0
C2303 C 0.2543 0.19822 0.61304 0.0
C2304 C 0.23214 0.18689 0.60179 0.0
C2305 C 0.22951 0.17613 0.57718 0.0
C2306 C 0.25667 0.19919 0.68342 0.0
C2307 C 0.26756 0.22281 0.69129 0.0
C2308 C 0.25149 0.19157 0.65792 0.0
C2309 C 0.2576 0.20727 0.63986 0.0
C2310 C 0.26816 0.23101 0.64767 0.0
C2311 C 0.27281 0.23883 0.67324 0.0
H2312 H 0.61878 0.48413 0.217 0.0
H2313 H 0.56902 0.53054 0.23237 0.0
H2314 H 0.60451 0.47956 0.17279 0.0
H2315 H 0.55527 0.52677 0.18776 0.0
H2316 H 0.52293 0.49669 0.10763 0.0
H2317 H 0.53463 0.50071 0.15278 0.0
H2318 H 0.6068 0.50246 0.13826 0.0
H2319 H 0.59499 0.4975 0.0935 0.0
C2320 C 0.60482 0.49344 0.21089 0.0
C2321 C 0.59513 0.50782 0.22813 0.0
C2322 C 0.59673 0.49097 0.18548 0.0
C2323 C 0.57898 0.50311 0.17658 0.0
C2324 C 0.56885 0.51703 0.19395 0.0
C2325 C 0.57678 0.51927 0.21951 0.0
C2326 C 0.54128 0.49804 0.11419 0.0
C2327 C 0.55802 0.49653 0.09708 0.0
C2328 C 0.54801 0.50042 0.14004 0.0
C2329 C 0.57163 0.50158 0.14921 0.0
C2330 C 0.58838 0.50092 0.13194 0.0
C2331 C 0.58163 0.49826 0.10623 0.0
H2332 H 0.29096 0.82829 0.96426 0.0
H2333 H 0.22904 0.85806 0.94399 0.0
H2334 H 0.28538 0.80448 0.9237 0.0
H2335 H 0.22366 0.83431 0.90325 0.0
H2336 H 0.25234 0.82031 0.82492 0.0
H2337 H 0.25031 0.83805 0.86708 0.0
H2338 H 0.25549 0.77052 0.89613 0.0
H2339 H 0.25694 0.75231 0.85339 0.0
C2340 C 0.27607 0.82963 0.95122 0.0
C2341 C 0.26057 0.84524 0.95718 0.0
C2342 C 0.27276 0.8158 0.92813 0.0
C2343 C 0.25408 0.81756 0.91045 0.0
C2344 C 0.23822 0.83269 0.91662 0.0
C2345 C 0.24132 0.84627 0.93987 0.0
C2346 C 0.25263 0.80905 0.84017 0.0
C2347 C 0.25478 0.78489 0.83584 0.0
C2348 C 0.25135 0.81923 0.86431 0.0
C2349 C 0.25267 0.80563 0.88478 0.0
C2350 C 0.25442 0.78133 0.88056 0.0
C2351 C 0.25518 0.77094 0.85618 0.0
H2352 H 0.92811 0.49894 0.70713 0.0
H2353 H 0.97284 0.56183 0.74568 0.0
H2354 H 0.95503 0.49781 0.67511 0.0
H2355 H 1.00008 0.5604 0.71378 0.0
H2356 H 0.0153 0.5692 0.63041 0.0
H2357 H 0.9982 0.56832 0.66999 0.0
H2358 H 0.99405 0.49167 0.66555 0.0
H2359 H 0.01079 0.49249 0.62549 0.0
C2360 C 0.94384 0.51237 0.70894 0.0
C2361 C 0.94819 0.53065 0.72877 0.0
C2362 C 0.95943 0.51156 0.69072 0.0
C2363 C 0.97973 0.529 0.69193 0.0
C2364 C 0.98448 0.54683 0.71223 0.0
C2365 C 0.96887 0.54764 0.73048 0.0
C2366 C 0.01129 0.55221 0.63816 0.0
C2367 C 0.01403 0.53088 0.62464 0.0
C2368 C 0.00158 0.55172 0.66095 0.0
C2369 C 0.99441 0.52987 0.6707 0.0
C2370 C 0.99902 0.50873 0.65824 0.0
C2371 C 0.00881 0.50923 0.63542 0.0
H2372 H 0.2578 0.1857 0.4467 0.0
H2373 H 0.29008 0.1331 0.40666 0.0
H2374 H 0.26025 0.20985 0.41125 0.0
H2375 H 0.29307 0.15747 0.37161 0.0
H2376 H 0.26489 0.18936 0.30274 0.0
H2377 H 0.26641 0.16772 0.33953 0.0
H2378 H 0.28652 0.23441 0.38657 0.0
H2379 H 0.28436 0.25638 0.34933 0.0
C2380 C 0.2656 0.17938 0.43043 0.0
C2381 C 0.27351 0.15732 0.42941 0.0
C2382 C 0.26718 0.19333 0.41019 0.0
C2383 C 0.27674 0.18556 0.38849 0.0
C2384 C 0.28522 0.16381 0.38782 0.0
C2385 C 0.28357 0.14985 0.40798 0.0
C2386 C 0.26969 0.19953 0.32086 0.0
C2387 C 0.27437 0.22467 0.32304 0.0
C2388 C 0.27078 0.18704 0.34203 0.0
C2389 C 0.27666 0.19928 0.36606 0.0
C2390 C 0.28173 0.22445 0.36833 0.0
C2391 C 0.28068 0.23703 0.347 0.0
H2392 H 0.31455 0.57395 0.53613 0.0
H2393 H 0.33525 0.59637 0.46535 0.0
H2394 H 0.34616 0.55087 0.53899 0.0
H2395 H 0.36743 0.57386 0.46861 0.0
H2396 H 0.42475 0.5492 0.55414 0.0
H2397 H 0.38762 0.56277 0.54771 0.0
H2398 H 0.38058 0.53523 0.46964 0.0
H2399 H 0.41852 0.52197 0.47607 0.0
C2400 C 0.3258 0.57387 0.52112 0.0
C2401 C 0.32263 0.58729 0.5007 0.0
C2402 C 0.34395 0.56067 0.52277 0.0
C2403 C 0.35954 0.56077 0.5042 0.0
C2404 C 0.35564 0.57322 0.48314 0.0
C2405 C 0.3373 0.58629 0.48137 0.0
C2406 C 0.41522 0.54575 0.53562 0.0
C2407 C 0.42466 0.53469 0.51555 0.0
C2408 C 0.39375 0.55337 0.53198 0.0
C2409 C 0.38107 0.55011 0.50815 0.0
C2410 C 0.39005 0.53819 0.48818 0.0
C2411 C 0.41165 0.53045 0.49188 0.0
H2412 H 0.82271 0.96011 0.54518 0.0
H2413 H 0.85701 0.90393 0.572 0.0
H2414 H 0.86087 0.98291 0.53844 0.0
H2415 H 0.89486 0.92657 0.56496 0.0
H2416 H 0.94803 0.95607 0.51139 0.0
H2417 H 0.91022 0.93723 0.5224 0.0
H2418 H 0.90229 0.003 0.56376 0.0
H2419 H 0.9408 0.02208 0.55318 0.0
C2420 C 0.83837 0.95275 0.5499 0.0
C2421 C 0.83681 0.93012 0.55896 0.0
C2422 C 0.86017 0.96586 0.54613 0.0
C2423 C 0.88072 0.95638 0.551 0.0
C2424 C 0.87923 0.93417 0.56086 0.0
C2425 C 0.85754 0.92126 0.56497 0.0
C2426 C 0.93836 0.96665 0.52287 0.0
C2427 C 0.94761 0.99059 0.5316 0.0
C2428 C 0.91671 0.95576 0.52924 0.0
C2429 C 0.90349 0.96858 0.54414 0.0
C2430 C 0.91222 0.99273 0.55228 0.0
C2431 C 0.93423 0.0036 0.54625 0.0
H2432 H 0.82667 0.06063 0.26379 0.0
H2433 H 0.88017 0.10961 0.23443 0.0
H2434 H 0.80203 0.09158 0.26583 0.0
H2435 H 0.85562 0.14025 0.23642 0.0
H2436 H 0.79772 0.1797 0.21544 0.0
H2437 H 0.81711 0.14509 0.21352 0.0
H2438 H 0.80301 0.13365 0.28947 0.0
H2439 H 0.78342 0.16871 0.29151 0.0
C2440 C 0.83315 0.07795 0.25775 0.0
C2441 C 0.85534 0.08264 0.24882 0.0
C2442 C 0.81909 0.09565 0.25905 0.0
C2443 C 0.82683 0.11821 0.25109 0.0
C2444 C 0.84905 0.12289 0.24235 0.0
C2445 C 0.86317 0.10537 0.24132 0.0
C2446 C 0.79842 0.16966 0.23167 0.0
C2447 C 0.78932 0.17712 0.25377 0.0
C2448 C 0.80963 0.14989 0.23057 0.0
C2449 C 0.81197 0.13699 0.25149 0.0
C2450 C 0.80146 0.14335 0.27308 0.0
C2451 C 0.79022 0.16333 0.27423 0.0
H2452 H 0.69571 0.11848 0.02213 0.0
H2453 H 0.70875 0.04599 0.02215 0.0
H2454 H 0.6538 0.10379 0.0176 0.0
H2455 H 0.66652 0.0312 0.01701 0.0
H2456 H 0.58803 0.01666 0.03095 0.0
H2457 H 0.63046 0.03026 0.03815 0.0
H2458 H 0.62517 0.08241 0.98491 0.0
H2459 H 0.58308 0.06929 0.97815 0.0
C2460 C 0.68964 0.09938 0.02111 0.0
C2461 C 0.70559 0.08339 0.02232 0.0
C2462 C 0.66557 0.09095 0.01839 0.0
C2463 C 0.65681 0.06631 0.01667 0.0
C2464 C 0.67273 0.0503 0.01844 0.0
C2465 C 0.6969 0.05876 0.02125 0.0
C2466 C 0.59599 0.03104 0.02083 0.0
C2467 C 0.58218 0.04199 0.0041 0.0
C2468 C 0.62027 0.03874 0.02485 0.0
C2469 C 0.63116 0.05754 0.01224 0.0
C2470 C 0.61731 0.06821 0.9953 0.0
C2471 C 0.59314 0.06057 0.99132 0.0
H2472 H 0.18431 0.43943 0.33159 0.0
H2473 H 0.2053 0.45891 0.25991 0.0
H2474 H 0.20552 0.40592 0.32864 0.0
H2475 H 0.2271 0.42601 0.25735 0.0
H2476 H 0.22543 0.34537 0.24294 0.0
H2477 H 0.21362 0.3839 0.24943 0.0
H2478 H 0.24277 0.3909 0.32692 0.0
H2479 H 0.25432 0.35144 0.32041 0.0
C2480 C 0.19382 0.43684 0.31544 0.0
C2481 C 0.19275 0.45151 0.29574 0.0
C2482 C 0.20614 0.41774 0.31385 0.0
C2483 C 0.21776 0.41309 0.2926 0.0
C2484 C 0.21791 0.42878 0.27372 0.0
C2485 C 0.20543 0.44766 0.27519 0.0
C2486 C 0.22957 0.35515 0.26136 0.0
C2487 C 0.24062 0.34527 0.28125 0.0
C2488 C 0.22299 0.37744 0.26502 0.0
C2489 C 0.22727 0.39057 0.28869 0.0
C2490 C 0.23908 0.38111 0.3085 0.0
C2491 C 0.24583 0.35866 0.30476 0.0
H2492 H 0.22244 0.45278 0.04012 0.0
H2493 H 0.18065 0.38797 0.00205 0.0
H2494 H 0.18776 0.47216 0.03801 0.0
H2495 H 0.14625 0.40725 0.00021 0.0
H2496 H 0.08768 0.4388 0.03657 0.0
H2497 H 0.12338 0.42201 0.03543 0.0
H2498 H 0.15695 0.4845 0.00398 0.0
H2499 H 0.12074 0.50147 0.00482 0.0
C2500 C 0.20593 0.44271 0.03126 0.0
C2501 C 0.20426 0.41878 0.02141 0.0
C2502 C 0.18617 0.45386 0.02989 0.0
C2503 C 0.16436 0.44116 0.01901 0.0
C2504 C 0.16282 0.4174 0.00884 0.0
C2505 C 0.18255 0.40639 0.00989 0.0
C2506 C 0.10261 0.44904 0.02936 0.0
C2507 C 0.10139 0.47148 0.02076 0.0
C2508 C 0.12302 0.43933 0.02861 0.0
C2509 C 0.14287 0.45192 0.01955 0.0
C2510 C 0.14186 0.47449 0.01112 0.0
C2511 C 0.12117 0.4841 0.01148 0.0
H2512 H 0.82327 0.95749 0.25019 0.0
H2513 H 0.8762 0.92241 0.21903 0.0
H2514 H 0.80068 0.91856 0.25622 0.0
H2515 H 0.85366 0.88364 0.22522 0.0
H2516 H 0.82525 0.82681 0.27659 0.0
H2517 H 0.84462 0.8652 0.26585 0.0
H2518 H 0.77889 0.87868 0.23134 0.0
H2519 H 0.75925 0.83973 0.24178 0.0
C2520 C 0.82996 0.94149 0.24439 0.0
C2521 C 0.85163 0.94304 0.23432 0.0
C2522 C 0.81696 0.91924 0.24772 0.0
C2523 C 0.82553 0.89816 0.24135 0.0
C2524 C 0.84678 0.89966 0.23051 0.0
C2525 C 0.85963 0.92186 0.22689 0.0
C2526 C 0.81482 0.83783 0.26664 0.0
C2527 C 0.79068 0.83011 0.25991 0.0
C2528 C 0.826 0.85979 0.26038 0.0
C2529 C 0.81329 0.87478 0.24756 0.0
C2530 C 0.78907 0.8674 0.24122 0.0
C2531 C 0.77787 0.84514 0.24716 0.0
H2532 H 0.63425 0.07592 0.73509 0.0
H2533 H 0.69093 0.05746 0.78282 0.0
H2534 H 0.65323 0.11773 0.74081 0.0
H2535 H 0.70979 0.09936 0.78863 0.0
H2536 H 0.74607 0.17487 0.77595 0.0
H2537 H 0.72892 0.13264 0.76551 0.0
H2538 H 0.66048 0.14885 0.77708 0.0
H2539 H 0.67745 0.19085 0.78734 0.0
C2540 C 0.65082 0.08074 0.74666 0.0
C2541 C 0.66099 0.06339 0.75865 0.0
C2542 C 0.66163 0.1047 0.75001 0.0
C2543 C 0.68292 0.11181 0.76527 0.0
C2544 C 0.69349 0.09437 0.7766 0.0
C2545 C 0.6826 0.07041 0.77339 0.0
C2546 C 0.72735 0.1694 0.77612 0.0
C2547 C 0.71312 0.18616 0.78257 0.0
C2548 C 0.71757 0.14524 0.77025 0.0
C2549 C 0.69337 0.13748 0.77046 0.0
C2550 C 0.67914 0.15434 0.77647 0.0
C2551 C 0.68891 0.17838 0.78253 0.0
loop_
_geom_bond_atom_site_label_1
_geom_bond_atom_site_label_2
_geom_bond_distance
_geom_bond_site_symmetry_2
_ccdc_geom_bond_type
C0 O1 1.160 . S
C0 O7 1.185 . S
O1 C0 1.160 . S
O2 Zn3 1.899 . S
O2 C10 1.284 . S
Zn3 O2 1.899 . S
Zn3 O4 2.032 . S
Zn3 O7 2.086 . S
Zn3 O12 1.977 1_455 S
O4 Zn3 2.032 . S
O4 C8 1.278 . S
C5 O6 1.203 . S
C5 O12 1.267 . S
O6 C5 1.203 . S
O7 C0 1.185 . S
O7 Zn3 2.086 . S
C8 O4 1.278 . S
C8 O9 1.260 . S
O9 C8 1.260 . S
C10 O2 1.284 . S
C10 O11 1.273 . S
O11 C10 1.273 . S
O12 Zn3 1.977 1_655 S
O12 C5 1.267 . S
C13 O14 1.160 . S
C13 O20 1.185 . S
O14 C13 1.160 . S
O15 Zn16 1.898 . S
O15 C23 1.293 . S
Zn16 O15 1.898 . S
Zn16 O17 2.032 1_455 S
Zn16 O20 2.086 1_455 S
Zn16 O25 1.977 . S
O17 Zn16 2.032 1_655 S
O17 C21 1.278 1_655 S
C18 O19 1.203 . S
C18 O25 1.267 . S
O19 C18 1.203 . S
O20 C13 1.185 . S
O20 Zn16 2.086 1_655 S
C21 O17 1.278 1_455 S
C21 O22 1.211 . S
O22 C21 1.211 . S
C23 O15 1.293 . S
C23 O24 1.273 . S
O24 C23 1.273 . S
O25 Zn16 1.977 . S
O25 C18 1.267 . S
C26 O27 1.160 . S
C26 O33 1.185 . S
O27 C26 1.160 . S
O28 Zn29 1.899 . S
O28 C36 1.284 . S
Zn29 O28 1.899 . S
Zn29 O30 2.032 . S
Zn29 O33 2.086 . S
Zn29 O38 1.977 . S
O30 Zn29 2.032 . S
O30 C34 1.278 . S
C31 O32 1.203 . S
C31 O38 1.267 . S
O32 C31 1.203 . S
O33 C26 1.185 . S
O33 Zn29 2.086 . S
C34 O30 1.278 . S
C34 O35 1.211 . S
O35 C34 1.211 . S
C36 O28 1.284 . S
C36 O37 1.273 . S
O37 C36 1.273 . S
O38 Zn29 1.977 . S
O38 C31 1.267 . S
C39 O40 1.160 . S
C39 O46 1.185 . S
O40 C39 1.160 . S
O41 Zn42 1.899 . S
O41 C49 1.284 . S
Zn42 O41 1.899 . S
Zn42 O43 2.032 . S
Zn42 O46 2.086 . S
Zn42 O51 1.977 . S
O43 Zn42 2.032 . S
O43 C47 1.278 . S
C44 O45 1.203 . S
C44 O51 1.267 . S
O45 C44 1.203 . S
O46 C39 1.185 . S
O46 Zn42 2.086 . S
C47 O43 1.278 . S
C47 O48 1.211 . S
O48 C47 1.211 . S
C49 O41 1.284 . S
C49 O50 1.273 . S
O50 C49 1.273 . S
O51 Zn42 1.977 . S
O51 C44 1.267 . S
C52 O53 1.160 . S
C52 O59 1.185 1_655 S
O53 C52 1.160 . S
O54 Zn55 1.899 . S
O54 C62 1.284 . S
Zn55 O54 1.899 . S
Zn55 O56 2.032 . S
Zn55 O59 2.086 . S
Zn55 O64 1.977 . S
O56 Zn55 2.032 . S
O56 C60 1.278 . S
C57 O58 1.203 . S
C57 O64 1.267 . S
O58 C57 1.203 . S
O59 C52 1.185 1_455 S
O59 Zn55 2.086 . S
C60 O56 1.278 . S
C60 O61 1.211 . S
O61 C60 1.211 . S
C62 O54 1.284 . S
C62 O63 1.273 . S
O63 C62 1.273 . S
O64 Zn55 1.977 . S
O64 C57 1.267 . S
C65 O66 1.160 . S
C65 O72 1.185 . S
O66 C65 1.160 . S
O67 Zn68 1.899 . S
O67 C75 1.284 . S
Zn68 O67 1.899 . S
Zn68 O69 2.032 . S
Zn68 O72 2.086 . S
Zn68 O77 1.977 . S
O69 Zn68 2.032 . S
O69 C73 1.278 . S
C70 O71 1.203 . S
C70 O77 1.267 . S
O71 C70 1.203 . S
O72 C65 1.185 . S
O72 Zn68 2.086 . S
C73 O69 1.278 . S
C73 O74 1.211 . S
O74 C73 1.211 . S
C75 O67 1.284 . S
C75 O76 1.273 . S
O76 C75 1.273 . S
O77 Zn68 1.977 . S
O77 C70 1.267 . S
C78 O79 1.160 . S
C78 O85 1.185 . S
O79 C78 1.160 . S
O80 Zn81 1.899 . S
O80 C88 1.284 . S
Zn81 O80 1.899 . S
Zn81 O82 2.032 . S
Zn81 O85 2.086 . S
Zn81 O90 1.977 . S
O82 Zn81 2.032 . S
O82 C86 1.278 . S
C83 O84 1.203 . S
C83 O90 1.267 . S
O84 C83 1.203 . S
O85 C78 1.185 . S
O85 Zn81 2.086 . S
C86 O82 1.278 . S
C86 O87 1.211 . S
O87 C86 1.211 . S
C88 O80 1.284 . S
C88 O89 1.273 . S
O89 C88 1.273 . S
O90 Zn81 1.977 . S
O90 C83 1.267 . S
C91 O92 1.160 . S
C91 O98 1.185 . S
O92 C91 1.160 . S
O93 Zn94 1.898 . S
O93 C101 1.279 1_455 S
Zn94 O93 1.898 . S
Zn94 O95 2.032 . S
Zn94 O98 2.086 . S
Zn94 O103 1.977 1_455 S
O95 Zn94 2.032 . S
O95 C99 1.304 . S
C96 O97 1.203 . S
C96 O103 1.267 . S
O97 C96 1.203 . S
O98 C91 1.185 . S
O98 Zn94 2.086 . S
C99 O95 1.304 . S
C99 O100 1.177 1_455 S
O100 C99 1.177 1_655 S
C101 O93 1.279 1_655 S
C101 O102 1.273 . S
O102 C101 1.273 . S
O103 Zn94 1.977 1_655 S
O103 C96 1.267 . S
C104 O105 1.160 . S
C104 O111 1.185 . S
O105 C104 1.160 . S
O106 Zn107 1.899 . S
O106 C114 1.284 . S
Zn107 O106 1.899 . S
Zn107 O108 2.032 . S
Zn107 O111 2.086 . S
Zn107 O116 1.977 1_545 S
O108 Zn107 2.032 . S
O108 C112 1.278 . S
C109 O110 1.203 . S
C109 O116 1.267 . S
O110 C109 1.203 . S
O111 C104 1.185 . S
O111 Zn107 2.086 . S
C112 O108 1.278 . S
C112 O113 1.211 . S
O113 C112 1.211 . S
C114 O106 1.284 . S
C114 O115 1.273 . S
O115 C114 1.273 . S
O116 Zn107 1.977 1_565 S
O116 C109 1.267 . S
C117 O118 1.160 . S
C117 O124 1.185 . S
O118 C117 1.160 . S
O119 Zn120 1.899 . S
O119 C127 1.284 . S
Zn120 O119 1.899 . S
Zn120 O121 2.032 . S
Zn120 O124 2.086 . S
Zn120 O129 1.977 . S
O121 Zn120 2.032 . S
O121 C125 1.278 . S
C122 O123 1.203 . S
C122 O129 1.267 . S
O123 C122 1.203 . S
O124 C117 1.185 . S
O124 Zn120 2.086 . S
C125 O121 1.278 . S
C125 O126 1.211 . S
O126 C125 1.211 . S
C127 O119 1.284 . S
C127 O128 1.273 . S
O128 C127 1.273 . S
O129 Zn120 1.977 . S
O129 C122 1.267 . S
C130 O131 1.160 . S
C130 O137 1.185 . S
O131 C130 1.160 . S
O132 Zn133 1.899 . S
O132 C140 1.284 . S
Zn133 O132 1.899 . S
Zn133 O134 2.022 1_545 S
Zn133 O137 2.086 1_545 S
Zn133 O142 1.977 . S
O134 Zn133 2.022 1_565 S
O134 C138 1.250 1_565 S
C135 O136 1.203 . S
C135 O142 1.267 . S
O136 C135 1.203 . S
O137 C130 1.185 . S
O137 Zn133 2.086 1_565 S
C138 O134 1.250 1_545 S
C138 O139 1.211 . S
O139 C138 1.211 . S
C140 O132 1.284 . S
C140 O141 1.273 . S
O141 C140 1.273 . S
O142 Zn133 1.977 . S
O142 C135 1.267 . S
C143 O144 1.160 . S
C143 O150 1.185 . S
O144 C143 1.160 . S
O145 Zn146 1.899 . S
O145 C153 1.284 . S
Zn146 O145 1.899 . S
Zn146 O147 2.032 1_554 S
Zn146 O150 2.086 . S
Zn146 O155 1.977 . S
O147 Zn146 2.032 1_556 S
O147 C151 1.278 . S
C148 O149 1.203 . S
C148 O155 1.267 . S
O149 C148 1.203 . S
O150 C143 1.185 . S
O150 Zn146 2.086 . S
C151 O147 1.278 . S
C151 O152 1.211 . S
O152 C151 1.211 . S
C153 O145 1.284 . S
C153 O154 1.273 . S
O154 C153 1.273 . S
O155 Zn146 1.977 . S
O155 C148 1.267 . S
C156 O157 1.160 . S
C156 O163 1.185 . S
O157 C156 1.160 . S
O158 Zn159 1.899 . S
O158 C166 1.284 . S
Zn159 O158 1.899 . S
Zn159 O160 2.032 . S
Zn159 O163 2.086 . S
Zn159 O168 1.977 . S
O160 Zn159 2.032 . S
O160 C164 1.278 . S
C161 O162 1.203 . S
C161 O168 1.267 . S
O162 C161 1.203 . S
O163 C156 1.185 . S
O163 Zn159 2.086 . S
C164 O160 1.278 . S
C164 O165 1.211 . S
O165 C164 1.211 . S
C166 O158 1.284 . S
C166 O167 1.273 . S
O167 C166 1.273 . S
O168 Zn159 1.977 . S
O168 C161 1.267 . S
C169 O170 1.160 . S
C169 O176 1.185 . S
O170 C169 1.160 . S
O171 Zn172 1.899 . S
O171 C179 1.284 . S
Zn172 O171 1.899 . S
Zn172 O173 2.032 . S
Zn172 O176 2.086 . S
Zn172 O181 1.977 . S
O173 Zn172 2.032 . S
O173 C177 1.278 1_554 S
C174 O175 1.203 . S
C174 O181 1.267 . S
O175 C174 1.203 . S
O176 C169 1.185 . S
O176 Zn172 2.086 . S
C177 O173 1.278 1_556 S
C177 O178 1.211 . S
O178 C177 1.211 . S
C179 O171 1.284 . S
C179 O180 1.273 . S
O180 C179 1.273 . S
O181 Zn172 1.977 . S
O181 C174 1.267 . S
C182 O183 1.160 . S
C182 O189 1.185 . S
O183 C182 1.160 . S
O184 Zn185 1.899 . S
O184 C192 1.284 . S
Zn185 O184 1.899 . S
Zn185 O186 2.032 . S
Zn185 O189 2.086 . S
Zn185 O194 1.977 . S
O186 Zn185 2.032 . S
O186 C190 1.278 . S
C187 O188 1.203 . S
C187 O194 1.267 . S
O188 C187 1.203 . S
O189 C182 1.185 . S
O189 Zn185 2.086 . S
C190 O186 1.278 . S
C190 O191 1.211 . S
O191 C190 1.211 . S
C192 O184 1.284 . S
C192 O193 1.273 . S
O193 C192 1.273 . S
O194 Zn185 1.977 . S
O194 C187 1.267 . S
C195 O196 1.160 . S
C195 O202 1.185 . S
O196 C195 1.160 . S
O197 Zn198 1.899 . S
O197 C205 1.284 . S
Zn198 O197 1.899 . S
Zn198 O199 2.032 . S
Zn198 O202 2.086 . S
Zn198 O207 1.977 . S
O199 Zn198 2.032 . S
O199 C203 1.278 . S
C200 O201 1.203 . S
C200 O207 1.267 . S
O201 C200 1.203 . S
O202 C195 1.185 . S
O202 Zn198 2.086 . S
C203 O199 1.278 . S
C203 O204 1.211 . S
O204 C203 1.211 . S
C205 O197 1.284 . S
C205 O206 1.273 . S
O206 C205 1.273 . S
O207 Zn198 1.977 . S
O207 C200 1.267 . S
C208 O209 1.160 . S
C208 O215 1.185 . S
O209 C208 1.160 . S
O210 Zn211 1.899 . S
O210 C218 1.284 . S
Zn211 O210 1.899 . S
Zn211 O212 2.032 . S
Zn211 O215 2.086 . S
Zn211 O220 1.977 1_545 S
O212 Zn211 2.032 . S
O212 C216 1.278 . S
C213 O214 1.203 . S
C213 O220 1.267 . S
O214 C213 1.203 . S
O215 C208 1.185 . S
O215 Zn211 2.086 . S
C216 O212 1.278 . S
C216 O217 1.211 1_545 S
O217 C216 1.211 1_565 S
C218 O210 1.284 . S
C218 O219 1.273 . S
O219 C218 1.273 . S
O220 Zn211 1.977 1_565 S
O220 C213 1.267 . S
C221 O222 1.160 . S
C221 O228 1.185 . S
O222 C221 1.160 . S
O223 Zn224 1.899 . S
O223 C231 1.284 . S
Zn224 O223 1.899 . S
Zn224 O225 2.032 . S
Zn224 O228 2.086 . S
Zn224 O233 1.977 . S
O225 Zn224 2.032 . S
O225 C229 1.278 . S
C226 O227 1.203 . S
C226 O233 1.267 . S
O227 C226 1.203 . S
O228 C221 1.185 . S
O228 Zn224 2.086 . S
C229 O225 1.278 . S
C229 O230 1.211 . S
O230 C229 1.211 . S
C231 O223 1.284 . S
C231 O232 1.273 . S
O232 C231 1.273 . S
O233 Zn224 1.977 . S
O233 C226 1.267 . S
C234 O235 1.160 . S
C234 O241 1.185 . S
O235 C234 1.160 . S
O236 Zn237 1.899 . S
O236 C244 1.284 . S
Zn237 O236 1.899 . S
Zn237 O238 2.032 . S
Zn237 O241 2.086 . S
Zn237 O246 1.977 . S
O238 Zn237 2.032 . S
O238 C242 1.278 . S
C239 O240 1.203 . S
C239 O246 1.267 . S
O240 C239 1.203 . S
O241 C234 1.185 . S
O241 Zn237 2.086 . S
C242 O238 1.278 . S
C242 O243 1.211 . S
O243 C242 1.211 . S
C244 O236 1.284 . S
C244 O245 1.273 . S
O245 C244 1.273 . S
O246 Zn237 1.977 . S
O246 C239 1.267 . S
C247 O248 1.160 . S
C247 O254 1.185 . S
O248 C247 1.160 . S
O249 Zn250 1.899 . S
O249 C257 1.284 . S
Zn250 O249 1.899 . S
Zn250 O251 2.032 . S
Zn250 O254 2.086 . S
Zn250 O259 1.977 1_565 S
O251 Zn250 2.032 . S
O251 C255 1.278 1_565 S
C252 O253 1.203 . S
C252 O259 1.267 . S
O253 C252 1.203 . S
O254 C247 1.185 . S
O254 Zn250 2.086 . S
C255 O251 1.278 1_545 S
C255 O256 1.211 . S
O256 C255 1.211 . S
C257 O249 1.284 . S
C257 O258 1.273 1_565 S
O258 C257 1.273 1_545 S
O259 Zn250 1.977 1_545 S
O259 C252 1.267 . S
C260 O261 1.160 . S
C260 O267 1.185 1_554 S
O261 C260 1.160 . S
O262 Zn263 1.899 . S
O262 C270 1.284 . S
Zn263 O262 1.899 . S
Zn263 O264 2.032 1_554 S
Zn263 O267 2.086 1_554 S
Zn263 O272 1.977 1_554 S
O264 Zn263 2.032 1_556 S
O264 C268 1.278 . S
C265 O266 1.201 1_556 S
C265 O272 1.268 . S
O266 C265 1.201 1_554 S
O267 C260 1.185 1_556 S
O267 Zn263 2.086 1_556 S
C268 O264 1.278 . S
C268 O269 1.211 . S
O269 C268 1.211 . S
C270 O262 1.284 . S
C270 O271 1.273 . S
O271 C270 1.273 . S
O272 Zn263 1.977 1_556 S
O272 C265 1.268 . S
C273 O274 1.160 . S
C273 O280 1.185 . S
O274 C273 1.160 . S
O275 Zn276 1.899 . S
O275 C283 1.284 . S
Zn276 O275 1.899 . S
Zn276 O277 2.032 . S
Zn276 O280 2.086 . S
Zn276 O285 1.977 . S
O277 Zn276 2.032 . S
O277 C281 1.278 . S
C278 O279 1.203 . S
C278 O285 1.267 . S
O279 C278 1.203 . S
O280 C273 1.185 . S
O280 Zn276 2.086 . S
C281 O277 1.278 . S
C281 O282 1.211 . S
O282 C281 1.211 . S
C283 O275 1.284 . S
C283 O284 1.273 . S
O284 C283 1.273 . S
O285 Zn276 1.977 . S
O285 C278 1.267 . S
C286 O287 1.160 . S
C286 O293 1.185 . S
O287 C286 1.160 . S
O288 Zn289 1.899 . S
O288 C296 1.284 . S
Zn289 O288 1.899 . S
Zn289 O290 2.032 . S
Zn289 O293 2.086 . S
Zn289 O298 1.977 . S
O290 Zn289 2.032 . S
O290 C294 1.278 . S
C291 O292 1.203 . S
C291 O298 1.267 . S
O292 C291 1.203 . S
O293 C286 1.185 . S
O293 Zn289 2.086 . S
C294 O290 1.278 . S
C294 O295 1.211 . S
O295 C294 1.211 . S
C296 O288 1.284 . S
C296 O297 1.273 . S
O297 C296 1.273 . S
O298 Zn289 1.977 . S
O298 C291 1.267 . S
C299 O300 1.160 . S
C299 O306 1.185 . S
O300 C299 1.160 . S
O301 Zn302 1.899 . S
O301 C309 1.284 . S
Zn302 O301 1.899 . S
Zn302 O303 2.032 . S
Zn302 O306 2.086 . S
Zn302 O311 1.977 . S
O303 Zn302 2.032 . S
O303 C307 1.278 . S
C304 O305 1.203 . S
C304 O311 1.267 . S
O305 C304 1.203 . S
O306 C299 1.185 . S
O306 Zn302 2.086 . S
C307 O303 1.278 . S
C307 O308 1.211 . S
O308 C307 1.211 . S
C309 O301 1.284 . S
C309 O310 1.273 . S
O310 C309 1.273 . S
O311 Zn302 1.977 . S
O311 C304 1.267 . S
Zn312 O318 1.969 . S
Zn312 O319 1.965 1_565 S
Zn312 O323 2.024 . S
Zn312 O328 1.969 . S
Zn313 O320 1.969 1_654 S
Zn313 O326 1.969 1_554 S
Zn313 O327 1.965 . S
Zn313 O329 2.024 1_655 S
C314 O315 1.229 . S
C314 O323 1.058 . S
O315 C314 1.229 . S
C316 O317 1.229 1_454 S
C316 O329 1.058 . S
O317 C316 1.229 1_656 S
O318 Zn312 1.969 . S
O318 C321 1.267 . S
O319 Zn312 1.965 1_545 S
O319 C330 1.260 1_554 S
O320 Zn313 1.969 1_456 S
O320 C330 1.258 . S
C321 O318 1.267 . S
C321 O322 1.228 . S
O322 C321 1.228 . S
O323 Zn312 2.024 . S
O323 C314 1.058 . S
C324 O325 1.228 . S
C324 O326 1.267 1_554 S
O325 C324 1.228 . S
O326 Zn313 1.969 1_556 S
O326 C324 1.267 1_556 S
O327 Zn313 1.965 . S
O327 C331 1.253 1_655 S
O328 Zn312 1.969 . S
O328 C331 1.271 1_565 S
O329 Zn313 2.024 1_455 S
O329 C316 1.058 . S
C330 O319 1.260 1_556 S
C330 O320 1.258 . S
C331 O327 1.253 1_455 S
C331 O328 1.271 1_545 S
Zn332 O338 1.969 . S
Zn332 O339 1.965 . S
Zn332 O343 2.024 . S
Zn332 O348 1.969 . S
Zn333 O340 1.969 . S
Zn333 O346 1.969 . S
Zn333 O347 1.965 . S
Zn333 O349 2.024 . S
C334 O335 1.229 . S
C334 O343 1.058 . S
O335 C334 1.229 . S
C336 O337 1.229 . S
C336 O349 1.058 . S
O337 C336 1.229 . S
O338 Zn332 1.969 . S
O338 C341 1.267 . S
O339 Zn332 1.965 . S
O339 C350 1.260 . S
O340 Zn333 1.969 . S
O340 C350 1.258 . S
C341 O338 1.267 . S
C341 O342 1.228 . S
O342 C341 1.228 . S
O343 Zn332 2.024 . S
O343 C334 1.058 . S
C344 O345 1.228 . S
C344 O346 1.267 . S
O345 C344 1.228 . S
O346 Zn333 1.969 . S
O346 C344 1.267 . S
O347 Zn333 1.965 . S
O347 C351 1.260 . S
O348 Zn332 1.969 . S
O348 C351 1.258 . S
O349 Zn333 2.024 . S
O349 C336 1.058 . S
C350 O339 1.260 . S
C350 O340 1.258 . S
C351 O347 1.260 . S
C351 O348 1.258 . S
Zn352 O358 1.969 . S
Zn352 O359 1.965 . S
Zn352 O363 2.024 . S
Zn352 O368 1.969 . S
Zn353 O360 1.969 1_565 S
Zn353 O366 1.969 . S
Zn353 O367 1.965 1_565 S
Zn353 O369 2.024 . S
C354 O355 1.229 . S
C354 O363 1.058 . S
O355 C354 1.229 . S
C356 O357 1.229 . S
C356 O369 1.058 . S
O357 C356 1.229 . S
O358 Zn352 1.969 . S
O358 C361 1.267 . S
O359 Zn352 1.965 . S
O359 C370 1.260 . S
O360 Zn353 1.969 1_545 S
O360 C370 1.258 . S
C361 O358 1.267 . S
C361 O362 1.228 . S
O362 C361 1.228 . S
O363 Zn352 2.024 . S
O363 C354 1.058 . S
C364 O365 1.228 . S
C364 O366 1.267 . S
O365 C364 1.228 . S
O366 Zn353 1.969 . S
O366 C364 1.267 . S
O367 Zn353 1.965 1_545 S
O367 C371 1.260 . S
O368 Zn352 1.969 . S
O368 C371 1.258 . S
O369 Zn353 2.024 . S
O369 C356 1.058 . S
C370 O359 1.260 . S
C370 O360 1.258 . S
C371 O367 1.260 . S
C371 O368 1.258 . S
Zn372 O378 1.969 . S
Zn372 O379 1.965 . S
Zn372 O383 2.024 . S
Zn372 O388 1.969 . S
Zn373 O380 1.969 . S
Zn373 O386 1.969 . S
Zn373 O387 1.965 . S
Zn373 O389 2.024 . S
C374 O375 1.229 . S
C374 O383 1.058 . S
O375 C374 1.229 . S
C376 O377 1.229 . S
C376 O389 1.058 . S
O377 C376 1.229 . S
O378 Zn372 1.969 . S
O378 C381 1.267 . S
O379 Zn372 1.965 . S
O379 C390 1.260 . S
O380 Zn373 1.969 . S
O380 C390 1.258 . S
C381 O378 1.267 . S
C381 O382 1.228 . S
O382 C381 1.228 . S
O383 Zn372 2.024 . S
O383 C374 1.058 . S
C384 O385 1.228 . S
C384 O386 1.267 . S
O385 C384 1.228 . S
O386 Zn373 1.969 . S
O386 C384 1.267 . S
O387 Zn373 1.965 . S
O387 C391 1.260 . S
O388 Zn372 1.969 . S
O388 C391 1.258 . S
O389 Zn373 2.024 . S
O389 C376 1.058 . S
C390 O379 1.260 . S
C390 O380 1.258 . S
C391 O387 1.260 . S
C391 O388 1.258 . S
Zn392 O398 1.969 . S
Zn392 O399 1.965 1_455 S
Zn392 O403 2.024 1_565 S
Zn392 O408 1.969 1_565 S
Zn393 O400 1.969 1_455 S
Zn393 O406 1.969 1_455 S
Zn393 O407 1.965 . S
Zn393 O409 2.024 . S
C394 O395 1.229 1_545 S
C394 O403 1.058 . S
O395 C394 1.229 1_565 S
C396 O397 1.229 . S
C396 O409 1.058 1_655 S
O397 C396 1.229 . S
O398 Zn392 1.969 . S
O398 C401 1.267 . S
O399 Zn392 1.965 1_655 S
O399 C410 1.240 1_565 S
O400 Zn393 1.969 1_655 S
O400 C410 1.285 . S
C401 O398 1.267 . S
C401 O402 1.228 . S
O402 C401 1.228 . S
O403 Zn392 2.024 1_545 S
O403 C394 1.058 . S
C404 O405 1.228 . S
C404 O406 1.267 1_455 S
O405 C404 1.228 . S
O406 Zn393 1.969 1_655 S
O406 C404 1.267 1_655 S
O407 Zn393 1.965 . S
O407 C411 1.260 . S
O408 Zn392 1.969 1_545 S
O408 C411 1.258 . S
O409 Zn393 2.024 . S
O409 C396 1.058 1_455 S
C410 O399 1.240 1_545 S
C410 O400 1.285 . S
C411 O407 1.260 . S
C411 O408 1.258 . S
Zn412 O418 1.969 . S
Zn412 O419 1.965 . S
Zn412 O423 2.024 . S
Zn412 O428 1.969 . S
Zn413 O420 1.969 . S
Zn413 O426 1.969 . S
Zn413 O427 1.965 . S
Zn413 O429 2.024 . S
C414 O415 1.229 . S
C414 O423 1.058 . S
O415 C414 1.229 . S
C416 O417 1.229 . S
C416 O429 1.058 . S
O417 C416 1.229 . S
O418 Zn412 1.969 . S
O418 C421 1.267 . S
O419 Zn412 1.965 . S
O419 C430 1.260 . S
O420 Zn413 1.969 . S
O420 C430 1.258 . S
C421 O418 1.267 . S
C421 O422 1.228 . S
O422 C421 1.228 . S
O423 Zn412 2.024 . S
O423 C414 1.058 . S
C424 O425 1.228 . S
C424 O426 1.267 . S
O425 C424 1.228 . S
O426 Zn413 1.969 . S
O426 C424 1.267 . S
O427 Zn413 1.965 . S
O427 C431 1.260 . S
O428 Zn412 1.969 . S
O428 C431 1.258 . S
O429 Zn413 2.024 . S
O429 C416 1.058 . S
C430 O419 1.260 . S
C430 O420 1.258 . S
C431 O427 1.260 . S
C431 O428 1.258 . S
Zn432 O438 1.969 1_554 S
Zn432 O439 1.965 1_545 S
Zn432 O443 2.024 . S
Zn432 O448 1.969 . S
Zn433 O440 1.969 . S
Zn433 O446 1.969 . S
Zn433 O447 1.965 1_565 S
Zn433 O449 2.031 . S
C434 O435 1.229 . S
C434 O443 1.058 . S
O435 C434 1.229 . S
C436 O437 1.229 . S
C436 O449 1.078 . S
O437 C436 1.229 . S
O438 Zn432 1.969 1_556 S
O438 C441 1.267 . S
O439 Zn432 1.965 1_565 S
O439 C450 1.260 . S
O440 Zn433 1.969 . S
O440 C450 1.258 . S
C441 O438 1.267 . S
C441 O442 1.228 . S
O442 C441 1.228 . S
O443 Zn432 2.024 . S
O443 C434 1.058 . S
C444 O445 1.200 1_565 S
C444 O446 1.287 . S
O445 C444 1.200 1_545 S
O446 Zn433 1.969 . S
O446 C444 1.287 . S
O447 Zn433 1.965 1_545 S
O447 C451 1.260 . S
O448 Zn432 1.969 . S
O448 C451 1.258 . S
O449 Zn433 2.031 . S
O449 C436 1.078 . S
C450 O439 1.260 . S
C450 O440 1.258 . S
C451 O447 1.260 . S
C451 O448 1.258 . S
Zn452 O458 1.969 . S
Zn452 O459 1.965 . S
Zn452 O463 2.024 . S
Zn452 O468 1.969 . S
Zn453 O460 1.969 . S
Zn453 O466 1.969 . S
Zn453 O467 1.965 . S
Zn453 O469 2.024 . S
C454 O455 1.229 . S
C454 O463 1.058 . S
O455 C454 1.229 . S
C456 O457 1.229 . S
C456 O469 1.058 . S
O457 C456 1.229 . S
O458 Zn452 1.969 . S
O458 C461 1.267 . S
O459 Zn452 1.965 . S
O459 C470 1.260 . S
O460 Zn453 1.969 . S
O460 C470 1.258 . S
C461 O458 1.267 . S
C461 O462 1.228 . S
O462 C461 1.228 . S
O463 Zn452 2.024 . S
O463 C454 1.058 . S
C464 O465 1.228 . S
C464 O466 1.267 . S
O465 C464 1.228 . S
O466 Zn453 1.969 . S
O466 C464 1.267 . S
O467 Zn453 1.965 . S
O467 C471 1.260 . S
O468 Zn452 1.969 . S
O468 C471 1.258 . S
O469 Zn453 2.024 . S
O469 C456 1.058 . S
C470 O459 1.260 . S
C470 O460 1.258 . S
C471 O467 1.260 . S
C471 O468 1.258 . S
Zn472 O478 1.969 . S
Zn472 O479 1.965 . S
Zn472 O483 2.024 . S
Zn472 O488 1.969 . S
Zn473 O480 1.969 1_556 S
Zn473 O486 1.969 1_556 S
Zn473 O487 1.965 1_556 S
Zn473 O489 2.024 . S
C474 O475 1.229 . S
C474 O483 1.058 . S
O475 C474 1.229 . S
C476 O477 1.229 . S
C476 O489 1.058 . S
O477 C476 1.229 . S
O478 Zn472 1.969 . S
O478 C481 1.267 . S
O479 Zn472 1.965 . S
O479 C490 1.260 . S
O480 Zn473 1.969 1_554 S
O480 C490 1.258 . S
C481 O478 1.267 . S
C481 O482 1.228 . S
O482 C481 1.228 . S
O483 Zn472 2.024 . S
O483 C474 1.058 . S
C484 O485 1.228 . S
C484 O486 1.267 1_556 S
O485 C484 1.228 . S
O486 Zn473 1.969 1_554 S
O486 C484 1.267 1_554 S
O487 Zn473 1.965 1_554 S
O487 C491 1.260 . S
O488 Zn472 1.969 . S
O488 C491 1.258 . S
O489 Zn473 2.024 . S
O489 C476 1.058 . S
C490 O479 1.260 . S
C490 O480 1.258 . S
C491 O487 1.260 . S
C491 O488 1.258 . S
Zn492 O498 1.969 . S
Zn492 O499 1.965 . S
Zn492 O503 2.024 . S
Zn492 O508 1.969 . S
Zn493 O500 1.969 . S
Zn493 O506 1.969 . S
Zn493 O507 1.965 . S
Zn493 O509 2.024 . S
C494 O495 1.229 . S
C494 O503 1.058 . S
O495 C494 1.229 . S
C496 O497 1.229 . S
C496 O509 1.058 . S
O497 C496 1.229 . S
O498 Zn492 1.969 . S
O498 C501 1.267 . S
O499 Zn492 1.965 . S
O499 C510 1.260 . S
O500 Zn493 1.969 . S
O500 C510 1.258 . S
C501 O498 1.267 . S
C501 O502 1.228 . S
O502 C501 1.228 . S
O503 Zn492 2.024 . S
O503 C494 1.058 . S
C504 O505 1.228 . S
C504 O506 1.267 . S
O505 C504 1.228 . S
O506 Zn493 1.969 . S
O506 C504 1.267 . S
O507 Zn493 1.965 . S
O507 C511 1.260 . S
O508 Zn492 1.969 . S
O508 C511 1.258 . S
O509 Zn493 2.024 . S
O509 C496 1.058 . S
C510 O499 1.260 . S
C510 O500 1.258 . S
C511 O507 1.260 . S
C511 O508 1.258 . S
Zn512 O518 1.969 . S
Zn512 O519 1.965 . S
Zn512 O523 2.024 . S
Zn512 O528 1.969 . S
Zn513 O520 1.969 1_655 S
Zn513 O526 1.969 . S
Zn513 O527 1.965 1_655 S
Zn513 O529 2.024 . S
C514 O515 1.229 . S
C514 O523 1.058 . S
O515 C514 1.229 . S
C516 O517 1.229 . S
C516 O529 1.058 . S
O517 C516 1.229 . S
O518 Zn512 1.969 . S
O518 C521 1.267 . S
O519 Zn512 1.965 . S
O519 C530 1.260 . S
O520 Zn513 1.969 1_455 S
O520 C530 1.258 . S
C521 O518 1.267 . S
C521 O522 1.228 . S
O522 C521 1.228 . S
O523 Zn512 2.024 . S
O523 C514 1.058 . S
C524 O525 1.228 . S
C524 O526 1.267 . S
O525 C524 1.228 . S
O526 Zn513 1.969 . S
O526 C524 1.267 . S
O527 Zn513 1.965 1_455 S
O527 C531 1.260 . S
O528 Zn512 1.969 . S
O528 C531 1.258 . S
O529 Zn513 2.024 . S
O529 C516 1.058 . S
C530 O519 1.260 . S
C530 O520 1.258 . S
C531 O527 1.260 . S
C531 O528 1.258 . S
Zn532 O538 1.969 . S
Zn532 O539 1.965 . S
Zn532 O543 2.024 . S
Zn532 O548 1.969 . S
Zn533 O540 1.969 . S
Zn533 O546 1.969 . S
Zn533 O547 1.965 . S
Zn533 O549 2.024 . S
C534 O535 1.229 . S
C534 O543 1.058 . S
O535 C534 1.229 . S
C536 O537 1.229 . S
C536 O549 1.058 . S
O537 C536 1.229 . S
O538 Zn532 1.969 . S
O538 C541 1.267 . S
O539 Zn532 1.965 . S
O539 C550 1.260 . S
O540 Zn533 1.969 . S
O540 C550 1.258 . S
C541 O538 1.267 . S
C541 O542 1.228 . S
O542 C541 1.228 . S
O543 Zn532 2.024 . S
O543 C534 1.058 . S
C544 O545 1.228 . S
C544 O546 1.267 . S
O545 C544 1.228 . S
O546 Zn533 1.969 . S
O546 C544 1.267 . S
O547 Zn533 1.965 . S
O547 C551 1.260 . S
O548 Zn532 1.969 . S
O548 C551 1.258 . S
O549 Zn533 2.024 . S
O549 C536 1.058 . S
C550 O539 1.260 . S
C550 O540 1.258 . S
C551 O547 1.260 . S
C551 O548 1.258 . S
Zn552 O558 1.969 . S
Zn552 O559 1.965 . S
Zn552 O563 2.024 . S
Zn552 O568 1.969 . S
Zn553 O560 1.969 . S
Zn553 O566 1.969 . S
Zn553 O567 1.965 . S
Zn553 O569 2.024 . S
C554 O555 1.229 . S
C554 O563 1.058 . S
O555 C554 1.229 . S
C556 O557 1.229 . S
C556 O569 1.058 . S
O557 C556 1.229 . S
O558 Zn552 1.969 . S
O558 C561 1.267 . S
O559 Zn552 1.965 . S
O559 C570 1.260 . S
O560 Zn553 1.969 . S
O560 C570 1.258 . S
C561 O558 1.267 . S
C561 O562 1.228 . S
O562 C561 1.228 . S
O563 Zn552 2.024 . S
O563 C554 1.058 . S
C564 O565 1.228 . S
C564 O566 1.267 . S
O565 C564 1.228 . S
O566 Zn553 1.969 . S
O566 C564 1.267 . S
O567 Zn553 1.965 . S
O567 C571 1.260 . S
O568 Zn552 1.969 . S
O568 C571 1.258 . S
O569 Zn553 2.024 . S
O569 C556 1.058 . S
C570 O559 1.260 . S
C570 O560 1.258 . S
C571 O567 1.260 . S
C571 O568 1.258 . S
Zn572 O578 1.969 . S
Zn572 O579 1.965 . S
Zn572 O583 2.024 . S
Zn572 O588 1.969 . S
Zn573 O580 1.969 . S
Zn573 O586 1.969 . S
Zn573 O587 1.965 . S
Zn573 O589 2.024 . S
C574 O575 1.229 . S
C574 O583 1.058 . S
O575 C574 1.229 . S
C576 O577 1.229 . S
C576 O589 1.058 . S
O577 C576 1.229 . S
O578 Zn572 1.969 . S
O578 C581 1.267 . S
O579 Zn572 1.965 . S
O579 C590 1.260 . S
O580 Zn573 1.969 . S
O580 C590 1.258 . S
C581 O578 1.267 . S
C581 O582 1.228 . S
O582 C581 1.228 . S
O583 Zn572 2.024 . S
O583 C574 1.058 . S
C584 O585 1.228 . S
C584 O586 1.267 . S
O585 C584 1.228 . S
O586 Zn573 1.969 . S
O586 C584 1.267 . S
O587 Zn573 1.965 . S
O587 C591 1.260 . S
O588 Zn572 1.969 . S
O588 C591 1.258 . S
O589 Zn573 2.024 . S
O589 C576 1.058 . S
C590 O579 1.260 . S
C590 O580 1.258 . S
C591 O587 1.260 . S
C591 O588 1.258 . S
Zn592 O598 1.969 . S
Zn592 O599 1.965 . S
Zn592 O603 2.024 . S
Zn592 O608 1.969 . S
Zn593 O600 1.969 . S
Zn593 O606 1.969 . S
Zn593 O607 1.965 . S
Zn593 O609 2.024 . S
C594 O595 1.229 . S
C594 O603 1.058 . S
O595 C594 1.229 . S
C596 O597 1.229 . S
C596 O609 1.058 . S
O597 C596 1.229 . S
O598 Zn592 1.969 . S
O598 C601 1.267 . S
O599 Zn592 1.965 . S
O599 C610 1.260 . S
O600 Zn593 1.969 . S
O600 C610 1.258 . S
C601 O598 1.267 . S
C601 O602 1.228 . S
O602 C601 1.228 . S
O603 Zn592 2.024 . S
O603 C594 1.058 . S
C604 O605 1.228 . S
C604 O606 1.267 . S
O605 C604 1.228 . S
O606 Zn593 1.969 . S
O606 C604 1.267 . S
O607 Zn593 1.965 . S
O607 C611 1.260 . S
O608 Zn592 1.969 . S
O608 C611 1.258 . S
O609 Zn593 2.024 . S
O609 C596 1.058 . S
C610 O599 1.260 . S
C610 O600 1.258 . S
C611 O607 1.260 . S
C611 O608 1.258 . S
Zn612 O618 1.969 . S
Zn612 O619 1.965 . S
Zn612 O623 2.024 1_655 S
Zn612 O628 1.969 1_655 S
Zn613 O620 1.969 1_554 S
Zn613 O626 1.969 1_554 S
Zn613 O627 1.965 . S
Zn613 O629 2.024 . S
C614 O615 1.229 . S
C614 O623 1.058 . S
O615 C614 1.229 . S
C616 O617 1.229 . S
C616 O629 1.058 1_556 S
O617 C616 1.229 . S
O618 Zn612 1.969 . S
O618 C621 1.267 . S
O619 Zn612 1.965 . S
O619 C630 1.260 1_654 S
O620 Zn613 1.969 1_556 S
O620 C630 1.258 . S
C621 O618 1.267 . S
C621 O622 1.228 . S
O622 C621 1.228 . S
O623 Zn612 2.024 1_455 S
O623 C614 1.058 . S
C624 O625 1.228 . S
C624 O626 1.267 1_554 S
O625 C624 1.228 . S
O626 Zn613 1.969 1_556 S
O626 C624 1.267 1_556 S
O627 Zn613 1.965 . S
O627 C631 1.260 . S
O628 Zn612 1.969 1_455 S
O628 C631 1.258 . S
O629 Zn613 2.024 . S
O629 C616 1.058 1_554 S
C630 O619 1.260 1_456 S
C630 O620 1.258 . S
C631 O627 1.260 . S
C631 O628 1.258 . S
H632 C640 0.950 . S
H633 C645 0.950 . S
H634 C642 0.950 . S
H635 C644 0.950 . S
H636 C646 0.950 . S
H637 C648 0.950 . S
H638 C650 0.950 . S
H639 C651 0.950 . S
C640 H632 0.950 . S
C640 C641 1.386 1_455 S
C640 C642 1.391 . S
C641 C640 1.386 1_655 S
C641 C645 1.393 . S
C642 H634 0.950 . S
C642 C640 1.391 . S
C642 C643 1.400 . S
C643 C642 1.400 . S
C643 C644 1.398 1_455 S
C643 C649 1.491 . S
C644 H635 0.950 . S
C644 C643 1.398 1_655 S
C644 C645 1.391 . S
C645 H633 0.950 . S
C645 C641 1.393 . S
C645 C644 1.391 . S
C646 H636 0.950 . S
C646 C647 1.386 1_655 S
C646 C648 1.391 . S
C647 C646 1.386 1_455 S
C647 C651 1.393 1_556 S
C648 H637 0.950 . S
C648 C646 1.391 . S
C648 C649 1.400 1_655 S
C649 C643 1.491 . S
C649 C648 1.400 1_455 S
C649 C650 1.398 . S
C650 H638 0.950 . S
C650 C649 1.398 . S
C650 C651 1.391 1_556 S
C651 H639 0.950 . S
C651 C647 1.393 1_554 S
C651 C650 1.391 1_554 S
H652 C660 0.950 . S
H653 C665 0.950 . S
H654 C662 0.950 . S
H655 C664 0.950 . S
H656 C666 0.950 . S
H657 C668 0.950 . S
H658 C670 0.950 . S
H659 C671 0.950 . S
C660 H652 0.950 . S
C660 C661 1.386 . S
C660 C662 1.391 . S
C661 C660 1.386 . S
C661 C665 1.393 . S
C662 H654 0.950 . S
C662 C660 1.391 . S
C662 C663 1.400 . S
C663 C662 1.400 . S
C663 C664 1.398 . S
C663 C669 1.491 . S
C664 H655 0.950 . S
C664 C663 1.398 . S
C664 C665 1.391 . S
C665 H653 0.950 . S
C665 C661 1.393 . S
C665 C664 1.391 . S
C666 H656 0.950 . S
C666 C667 1.386 . S
C666 C668 1.391 . S
C667 C666 1.386 . S
C667 C671 1.393 . S
C668 H657 0.950 . S
C668 C666 1.391 . S
C668 C669 1.400 . S
C669 C663 1.491 . S
C669 C668 1.400 . S
C669 C670 1.398 . S
C670 H658 0.950 . S
C670 C669 1.398 . S
C670 C671 1.391 . S
C671 H659 0.950 . S
C671 C667 1.393 . S
C671 C670 1.391 . S
H672 C680 0.950 . S
H673 C685 0.950 . S
H674 C682 0.950 . S
H675 C684 0.950 . S
H676 C686 0.950 . S
H677 C688 0.950 . S
H678 C690 0.950 . S
H679 C691 0.950 . S
C680 H672 0.950 . S
C680 C681 1.386 . S
C680 C682 1.391 . S
C681 C680 1.386 . S
C681 C685 1.393 . S
C682 H674 0.950 . S
C682 C680 1.391 . S
C682 C683 1.400 . S
C683 C682 1.400 . S
C683 C684 1.398 . S
C683 C689 1.491 . S
C684 H675 0.950 . S
C684 C683 1.398 . S
C684 C685 1.391 . S
C685 H673 0.950 . S
C685 C681 1.393 . S
C685 C684 1.391 . S
C686 H676 0.950 . S
C686 C687 1.386 . S
C686 C688 1.391 . S
C687 C686 1.386 . S
C687 C691 1.393 . S
C688 H677 0.950 . S
C688 C686 1.391 . S
C688 C689 1.400 . S
C689 C683 1.491 . S
C689 C688 1.400 . S
C689 C690 1.398 . S
C690 H678 0.950 . S
C690 C689 1.398 . S
C690 C691 1.391 . S
C691 H679 0.950 . S
C691 C687 1.393 . S
C691 C690 1.391 . S
H692 C700 0.950 . S
H693 C705 0.950 . S
H694 C702 0.950 . S
H695 C704 0.950 . S
H696 C706 0.950 . S
H697 C708 0.950 . S
H698 C710 0.950 . S
H699 C711 0.950 . S
C700 H692 0.950 . S
C700 C701 1.386 . S
C700 C702 1.391 . S
C701 C700 1.386 . S
C701 C705 1.393 . S
C702 H694 0.950 . S
C702 C700 1.391 . S
C702 C703 1.400 . S
C703 C702 1.400 . S
C703 C704 1.398 . S
C703 C709 1.491 . S
C704 H695 0.950 . S
C704 C703 1.398 . S
C704 C705 1.391 . S
C705 H693 0.950 . S
C705 C701 1.393 . S
C705 C704 1.391 . S
C706 H696 0.950 . S
C706 C707 1.386 . S
C706 C708 1.391 . S
C707 C706 1.386 . S
C707 C711 1.393 . S
C708 H697 0.950 . S
C708 C706 1.391 . S
C708 C709 1.400 . S
C709 C703 1.491 . S
C709 C708 1.400 . S
C709 C710 1.398 . S
C710 H698 0.950 . S
C710 C709 1.398 . S
C710 C711 1.391 . S
C711 H699 0.950 . S
C711 C707 1.393 . S
C711 C710 1.391 . S
H712 C720 0.950 . S
H713 C725 0.950 . S
H714 C722 0.950 . S
H715 C724 0.950 . S
H716 C726 0.950 1_655 S
H717 C728 0.950 1_655 S
H718 C730 0.950 . S
H719 C731 0.950 . S
C720 H712 0.950 . S
C720 C721 1.386 . S
C720 C722 1.391 . S
C721 C720 1.386 . S
C721 C725 1.393 1_455 S
C722 H714 0.950 . S
C722 C720 1.391 . S
C722 C723 1.400 . S
C723 C722 1.400 . S
C723 C724 1.398 1_455 S
C723 C729 1.491 . S
C724 H715 0.950 . S
C724 C723 1.398 1_655 S
C724 C725 1.391 . S
C725 H713 0.950 . S
C725 C721 1.393 1_655 S
C725 C724 1.391 . S
C726 H716 0.950 1_455 S
C726 C727 1.386 . S
C726 C728 1.391 . S
C727 C726 1.386 . S
C727 C731 1.393 . S
C728 H717 0.950 1_455 S
C728 C726 1.391 . S
C728 C729 1.400 . S
C729 C723 1.491 . S
C729 C728 1.400 . S
C729 C730 1.398 . S
C730 H718 0.950 . S
C730 C729 1.398 . S
C730 C731 1.391 . S
C731 H719 0.950 . S
C731 C727 1.393 . S
C731 C730 1.391 . S
H732 C740 0.950 . S
H733 C745 0.950 . S
H734 C742 0.950 . S
H735 C744 0.950 . S
H736 C746 0.950 . S
H737 C748 0.950 . S
H738 C750 0.950 . S
H739 C751 0.950 . S
C740 H732 0.950 . S
C740 C741 1.386 . S
C740 C742 1.391 . S
C741 C740 1.386 . S
C741 C745 1.393 . S
C742 H734 0.950 . S
C742 C740 1.391 . S
C742 C743 1.400 . S
C743 C742 1.400 . S
C743 C744 1.398 . S
C743 C749 1.491 . S
C744 H735 0.950 . S
C744 C743 1.398 . S
C744 C745 1.391 . S
C745 H733 0.950 . S
C745 C741 1.393 . S
C745 C744 1.391 . S
C746 H736 0.950 . S
C746 C747 1.386 . S
C746 C748 1.391 . S
C747 C746 1.386 . S
C747 C751 1.393 . S
C748 H737 0.950 . S
C748 C746 1.391 . S
C748 C749 1.400 . S
C749 C743 1.491 . S
C749 C748 1.400 . S
C749 C750 1.398 . S
C750 H738 0.950 . S
C750 C749 1.398 . S
C750 C751 1.391 . S
C751 H739 0.950 . S
C751 C747 1.393 . S
C751 C750 1.391 . S
H752 C760 0.950 . S
H753 C765 0.950 . S
H754 C762 0.950 . S
H755 C764 0.950 . S
H756 C766 0.950 . S
H757 C768 0.950 . S
H758 C770 0.950 . S
H759 C771 0.950 . S
C760 H752 0.950 . S
C760 C761 1.386 . S
C760 C762 1.391 . S
C761 C760 1.386 . S
C761 C765 1.393 . S
C762 H754 0.950 . S
C762 C760 1.391 . S
C762 C763 1.400 . S
C763 C762 1.400 . S
C763 C764 1.398 . S
C763 C769 1.491 . S
C764 H755 0.950 . S
C764 C763 1.398 . S
C764 C765 1.391 . S
C765 H753 0.950 . S
C765 C761 1.393 . S
C765 C764 1.391 . S
C766 H756 0.950 . S
C766 C767 1.386 . S
C766 C768 1.391 . S
C767 C766 1.386 . S
C767 C771 1.393 . S
C768 H757 0.950 . S
C768 C766 1.391 . S
C768 C769 1.400 . S
C769 C763 1.491 . S
C769 C768 1.400 . S
C769 C770 1.398 . S
C770 H758 0.950 . S
C770 C769 1.398 . S
C770 C771 1.391 . S
C771 H759 0.950 . S
C771 C767 1.393 . S
C771 C770 1.391 . S
H772 C780 0.950 . S
H773 C785 0.950 . S
H774 C782 0.950 . S
H775 C784 0.950 . S
H776 C786 0.950 . S
H777 C788 0.950 . S
H778 C790 0.950 . S
H779 C791 0.950 . S
C780 H772 0.950 . S
C780 C781 1.386 . S
C780 C782 1.391 . S
C781 C780 1.386 . S
C781 C785 1.393 . S
C782 H774 0.950 . S
C782 C780 1.391 . S
C782 C783 1.400 . S
C783 C782 1.400 . S
C783 C784 1.398 . S
C783 C789 1.491 . S
C784 H775 0.950 . S
C784 C783 1.398 . S
C784 C785 1.391 . S
C785 H773 0.950 . S
C785 C781 1.393 . S
C785 C784 1.391 . S
C786 H776 0.950 . S
C786 C787 1.386 . S
C786 C788 1.391 . S
C787 C786 1.386 . S
C787 C791 1.393 . S
C788 H777 0.950 . S
C788 C786 1.391 . S
C788 C789 1.400 . S
C789 C783 1.491 . S
C789 C788 1.400 . S
C789 C790 1.398 . S
C790 H778 0.950 . S
C790 C789 1.398 . S
C790 C791 1.391 . S
C791 H779 0.950 . S
C791 C787 1.393 . S
C791 C790 1.391 . S
H792 C800 0.950 . S
H793 C805 0.950 . S
H794 C802 0.950 . S
H795 C804 0.950 . S
H796 C806 0.950 . S
H797 C808 0.950 . S
H798 C810 0.950 . S
H799 C811 0.950 . S
C800 H792 0.950 . S
C800 C801 1.386 1_565 S
C800 C802 1.391 . S
C801 C800 1.386 1_545 S
C801 C805 1.393 . S
C802 H794 0.950 . S
C802 C800 1.391 . S
C802 C803 1.400 1_565 S
C803 C802 1.400 1_545 S
C803 C804 1.398 . S
C803 C809 1.491 . S
C804 H795 0.950 . S
C804 C803 1.398 . S
C804 C805 1.391 . S
C805 H793 0.950 . S
C805 C801 1.393 . S
C805 C804 1.391 . S
C806 H796 0.950 . S
C806 C807 1.386 . S
C806 C808 1.391 . S
C807 C806 1.386 . S
C807 C811 1.393 1_545 S
C808 H797 0.950 . S
C808 C806 1.391 . S
C808 C809 1.400 . S
C809 C803 1.491 . S
C809 C808 1.400 . S
C809 C810 1.398 1_545 S
C810 H798 0.950 . S
C810 C809 1.398 1_565 S
C810 C811 1.391 . S
C811 H799 0.950 . S
C811 C807 1.393 1_565 S
C811 C810 1.391 . S
H812 C820 0.950 . S
H813 C825 0.950 . S
H814 C822 0.950 . S
H815 C824 0.950 . S
H816 C826 0.950 . S
H817 C828 0.950 . S
H818 C830 0.950 . S
H819 C831 0.950 . S
C820 H812 0.950 . S
C820 C821 1.386 . S
C820 C822 1.391 . S
C821 C820 1.386 . S
C821 C825 1.393 . S
C822 H814 0.950 . S
C822 C820 1.391 . S
C822 C823 1.400 . S
C823 C822 1.400 . S
C823 C824 1.398 . S
C823 C829 1.491 . S
C824 H815 0.950 . S
C824 C823 1.398 . S
C824 C825 1.391 . S
C825 H813 0.950 . S
C825 C821 1.393 . S
C825 C824 1.391 . S
C826 H816 0.950 . S
C826 C827 1.386 . S
C826 C828 1.391 . S
C827 C826 1.386 . S
C827 C831 1.393 . S
C828 H817 0.950 . S
C828 C826 1.391 . S
C828 C829 1.400 . S
C829 C823 1.491 . S
C829 C828 1.400 . S
C829 C830 1.398 . S
C830 H818 0.950 . S
C830 C829 1.398 . S
C830 C831 1.391 . S
C831 H819 0.950 . S
C831 C827 1.393 . S
C831 C830 1.391 . S
H832 C840 0.945 . S
H833 C845 0.950 . S
H834 C842 0.953 . S
H835 C844 0.950 . S
H836 C846 0.950 . S
H837 C848 0.950 . S
H838 C850 0.950 . S
H839 C851 0.950 . S
C840 H832 0.945 . S
C840 C841 1.386 . S
C840 C842 1.383 1_565 S
C841 C840 1.386 . S
C841 C845 1.393 . S
C842 H834 0.953 . S
C842 C840 1.383 1_545 S
C842 C843 1.407 . S
C843 C842 1.407 . S
C843 C844 1.399 1_545 S
C843 C849 1.490 . S
C844 H835 0.950 . S
C844 C843 1.399 1_565 S
C844 C845 1.391 . S
C845 H833 0.950 . S
C845 C841 1.393 . S
C845 C844 1.391 . S
C846 H836 0.950 . S
C846 C847 1.386 . S
C846 C848 1.391 . S
C847 C846 1.386 . S
C847 C851 1.393 . S
C848 H837 0.950 . S
C848 C846 1.391 . S
C848 C849 1.400 . S
C849 C843 1.490 . S
C849 C848 1.400 . S
C849 C850 1.398 . S
C850 H838 0.950 . S
C850 C849 1.398 . S
C850 C851 1.391 . S
C851 H839 0.950 . S
C851 C847 1.393 . S
C851 C850 1.391 . S
H852 C860 0.950 . S
H853 C865 0.950 . S
H854 C862 0.950 . S
H855 C864 0.950 . S
H856 C866 0.950 . S
H857 C868 0.950 . S
H858 C870 0.950 . S
H859 C871 0.950 . S
C860 H852 0.950 . S
C860 C861 1.386 . S
C860 C862 1.391 . S
C861 C860 1.386 . S
C861 C865 1.393 . S
C862 H854 0.950 . S
C862 C860 1.391 . S
C862 C863 1.400 . S
C863 C862 1.400 . S
C863 C864 1.398 . S
C863 C869 1.491 . S
C864 H855 0.950 . S
C864 C863 1.398 . S
C864 C865 1.391 . S
C865 H853 0.950 . S
C865 C861 1.393 . S
C865 C864 1.391 . S
C866 H856 0.950 . S
C866 C867 1.386 . S
C866 C868 1.391 . S
C867 C866 1.386 . S
C867 C871 1.393 . S
C868 H857 0.950 . S
C868 C866 1.391 . S
C868 C869 1.400 . S
C869 C863 1.491 . S
C869 C868 1.400 . S
C869 C870 1.398 . S
C870 H858 0.950 . S
C870 C869 1.398 . S
C870 C871 1.391 . S
C871 H859 0.950 . S
C871 C867 1.393 . S
C871 C870 1.391 . S
H872 C880 0.950 . S
H873 C885 0.950 . S
H874 C882 0.950 . S
H875 C884 0.950 1_565 S
H876 C886 0.950 1_465 S
H877 C888 0.947 1_565 S
H878 C890 0.950 . S
H879 C891 0.950 . S
C880 H872 0.950 . S
C880 C881 1.386 . S
C880 C882 1.391 . S
C881 C880 1.386 . S
C881 C885 1.393 . S
C882 H874 0.950 . S
C882 C880 1.391 . S
C882 C883 1.400 . S
C883 C882 1.400 . S
C883 C884 1.398 . S
C883 C889 1.491 . S
C884 H875 0.950 1_545 S
C884 C883 1.398 . S
C884 C885 1.391 . S
C885 H873 0.950 . S
C885 C881 1.393 . S
C885 C884 1.391 . S
C886 H876 0.950 1_645 S
C886 C887 1.386 . S
C886 C888 1.391 . S
C887 C886 1.386 . S
C887 C891 1.393 . S
C888 H877 0.947 1_545 S
C888 C886 1.391 . S
C888 C889 1.400 . S
C889 C883 1.491 . S
C889 C888 1.400 . S
C889 C890 1.398 . S
C890 H878 0.950 . S
C890 C889 1.398 . S
C890 C891 1.391 . S
C891 H879 0.950 . S
C891 C887 1.393 . S
C891 C890 1.391 . S
H892 C900 0.950 . S
H893 C905 0.950 . S
H894 C902 0.950 . S
H895 C904 0.950 . S
H896 C906 0.950 . S
H897 C908 0.950 . S
H898 C910 0.950 . S
H899 C911 0.950 . S
C900 H892 0.950 . S
C900 C901 1.386 . S
C900 C902 1.391 . S
C901 C900 1.386 . S
C901 C905 1.393 . S
C902 H894 0.950 . S
C902 C900 1.391 . S
C902 C903 1.400 . S
C903 C902 1.400 . S
C903 C904 1.398 . S
C903 C909 1.491 . S
C904 H895 0.950 . S
C904 C903 1.398 . S
C904 C905 1.391 . S
C905 H893 0.950 . S
C905 C901 1.393 . S
C905 C904 1.391 . S
C906 H896 0.950 . S
C906 C907 1.386 . S
C906 C908 1.391 . S
C907 C906 1.386 . S
C907 C911 1.393 . S
C908 H897 0.950 . S
C908 C906 1.391 . S
C908 C909 1.400 . S
C909 C903 1.491 . S
C909 C908 1.400 . S
C909 C910 1.398 . S
C910 H898 0.950 . S
C910 C909 1.398 . S
C910 C911 1.391 . S
C911 H899 0.950 . S
C911 C907 1.393 . S
C911 C910 1.391 . S
H912 C920 0.950 . S
H913 C925 0.950 . S
H914 C922 0.950 . S
H915 C924 0.950 . S
H916 C926 0.950 . S
H917 C928 0.950 . S
H918 C930 0.950 . S
H919 C931 0.955 . S
C920 H912 0.950 . S
C920 C921 1.386 . S
C920 C922 1.391 . S
C921 C920 1.386 . S
C921 C925 1.393 1_565 S
C922 H914 0.950 . S
C922 C920 1.391 . S
C922 C923 1.400 1_565 S
C923 C922 1.400 1_545 S
C923 C924 1.398 . S
C923 C929 1.491 . S
C924 H915 0.950 . S
C924 C923 1.398 . S
C924 C925 1.391 . S
C925 H913 0.950 . S
C925 C921 1.393 1_545 S
C925 C924 1.391 . S
C926 H916 0.950 . S
C926 C927 1.386 . S
C926 C928 1.391 . S
C927 C926 1.386 . S
C927 C931 1.386 1_545 S
C928 H917 0.950 . S
C928 C926 1.391 . S
C928 C929 1.400 . S
C929 C923 1.491 . S
C929 C928 1.400 . S
C929 C930 1.398 1_545 S
C930 H918 0.950 . S
C930 C929 1.398 1_565 S
C930 C931 1.392 . S
C931 H919 0.955 . S
C931 C927 1.386 1_565 S
C931 C930 1.392 . S
H932 C940 0.950 . S
H933 C945 0.950 . S
H934 C942 0.950 . S
H935 C944 0.950 . S
H936 C946 0.950 . S
H937 C948 0.950 . S
H938 C950 0.950 . S
H939 C951 0.950 . S
C940 H932 0.950 . S
C940 C941 1.386 . S
C940 C942 1.391 . S
C941 C940 1.386 . S
C941 C945 1.393 . S
C942 H934 0.950 . S
C942 C940 1.391 . S
C942 C943 1.400 . S
C943 C942 1.400 . S
C943 C944 1.398 . S
C943 C949 1.491 . S
C944 H935 0.950 . S
C944 C943 1.398 . S
C944 C945 1.391 . S
C945 H933 0.950 . S
C945 C941 1.393 . S
C945 C944 1.391 . S
C946 H936 0.950 . S
C946 C947 1.386 . S
C946 C948 1.391 . S
C947 C946 1.386 . S
C947 C951 1.393 . S
C948 H937 0.950 . S
C948 C946 1.391 . S
C948 C949 1.400 . S
C949 C943 1.491 . S
C949 C948 1.400 . S
C949 C950 1.398 . S
C950 H938 0.950 . S
C950 C949 1.398 . S
C950 C951 1.391 . S
C951 H939 0.950 . S
C951 C947 1.393 . S
C951 C950 1.391 . S
H952 C960 0.950 1_556 S
H953 C965 0.950 . S
H954 C962 0.950 1_556 S
H955 C964 0.950 . S
H956 C966 0.950 . S
H957 C968 0.950 . S
H958 C970 0.950 1_556 S
H959 C971 0.950 . S
C960 H952 0.950 1_554 S
C960 C961 1.386 . S
C960 C962 1.391 . S
C961 C960 1.386 . S
C961 C965 1.393 . S
C962 H954 0.950 1_554 S
C962 C960 1.391 . S
C962 C963 1.400 . S
C963 C962 1.400 . S
C963 C964 1.398 . S
C963 C969 1.491 . S
C964 H955 0.950 . S
C964 C963 1.398 . S
C964 C965 1.391 . S
C965 H953 0.950 . S
C965 C961 1.393 . S
C965 C964 1.391 . S
C966 H956 0.950 . S
C966 C967 1.386 . S
C966 C968 1.391 . S
C967 C966 1.386 . S
C967 C971 1.393 . S
C968 H957 0.950 . S
C968 C966 1.391 . S
C968 C969 1.400 . S
C969 C963 1.491 . S
C969 C968 1.400 . S
C969 C970 1.398 . S
C970 H958 0.950 1_554 S
C970 C969 1.398 . S
C970 C971 1.391 . S
C971 H959 0.950 . S
C971 C967 1.393 . S
C971 C970 1.391 . S
H972 C980 0.950 . S
H973 C985 0.950 . S
H974 C982 0.950 . S
H975 C984 0.950 . S
H976 C986 0.950 . S
H977 C988 0.950 . S
H978 C990 0.950 . S
H979 C991 0.950 . S
C980 H972 0.950 . S
C980 C981 1.360 1_554 S
C980 C982 1.391 . S
C981 C980 1.360 1_556 S
C981 C985 1.410 . S
C982 H974 0.950 . S
C982 C980 1.391 . S
C982 C983 1.400 . S
C983 C982 1.400 . S
C983 C984 1.398 1_554 S
C983 C989 1.491 . S
C984 H975 0.950 . S
C984 C983 1.398 1_556 S
C984 C985 1.391 . S
C985 H973 0.950 . S
C985 C981 1.410 . S
C985 C984 1.391 . S
C986 H976 0.950 . S
C986 C987 1.386 1_556 S
C986 C988 1.391 . S
C987 C986 1.386 1_554 S
C987 C991 1.393 . S
C988 H977 0.950 . S
C988 C986 1.391 . S
C988 C989 1.400 1_556 S
C989 C983 1.491 . S
C989 C988 1.400 1_554 S
C989 C990 1.398 . S
C990 H978 0.950 . S
C990 C989 1.398 . S
C990 C991 1.391 . S
C991 H979 0.950 . S
C991 C987 1.393 . S
C991 C990 1.391 . S
H992 C1000 0.950 . S
H993 C1005 0.950 . S
H994 C1002 0.950 . S
H995 C1004 0.950 . S
H996 C1006 0.950 . S
H997 C1008 0.950 . S
H998 C1010 0.950 . S
H999 C1011 0.950 . S
C1000 H992 0.950 . S
C1000 C1001 1.386 . S
C1000 C1002 1.391 . S
C1001 C1000 1.386 . S
C1001 C1005 1.393 . S
C1002 H994 0.950 . S
C1002 C1000 1.391 . S
C1002 C1003 1.400 . S
C1003 C1002 1.400 . S
C1003 C1004 1.398 . S
C1003 C1009 1.491 . S
C1004 H995 0.950 . S
C1004 C1003 1.398 . S
C1004 C1005 1.391 . S
C1005 H993 0.950 . S
C1005 C1001 1.393 . S
C1005 C1004 1.391 . S
C1006 H996 0.950 . S
C1006 C1007 1.386 . S
C1006 C1008 1.391 . S
C1007 C1006 1.386 . S
C1007 C1011 1.393 . S
C1008 H997 0.950 . S
C1008 C1006 1.391 . S
C1008 C1009 1.400 . S
C1009 C1003 1.491 . S
C1009 C1008 1.400 . S
C1009 C1010 1.398 . S
C1010 H998 0.950 . S
C1010 C1009 1.398 . S
C1010 C1011 1.391 . S
C1011 H999 0.950 . S
C1011 C1007 1.393 . S
C1011 C1010 1.391 . S
H1012 C1020 0.950 . S
H1013 C1025 0.950 . S
H1014 C1022 0.950 . S
H1015 C1024 0.950 . S
H1016 C1026 0.950 . S
H1017 C1028 0.950 . S
H1018 C1030 0.950 . S
H1019 C1031 0.950 . S
C1020 H1012 0.950 . S
C1020 C1021 1.386 . S
C1020 C1022 1.391 . S
C1021 C1020 1.386 . S
C1021 C1025 1.393 . S
C1022 H1014 0.950 . S
C1022 C1020 1.391 . S
C1022 C1023 1.400 . S
C1023 C1022 1.400 . S
C1023 C1024 1.398 . S
C1023 C1029 1.491 . S
C1024 H1015 0.950 . S
C1024 C1023 1.398 . S
C1024 C1025 1.391 . S
C1025 H1013 0.950 . S
C1025 C1021 1.393 . S
C1025 C1024 1.391 . S
C1026 H1016 0.950 . S
C1026 C1027 1.386 . S
C1026 C1028 1.391 . S
C1027 C1026 1.386 . S
C1027 C1031 1.393 . S
C1028 H1017 0.950 . S
C1028 C1026 1.391 . S
C1028 C1029 1.400 . S
C1029 C1023 1.491 . S
C1029 C1028 1.400 . S
C1029 C1030 1.398 . S
C1030 H1018 0.950 . S
C1030 C1029 1.398 . S
C1030 C1031 1.391 . S
C1031 H1019 0.950 . S
C1031 C1027 1.393 . S
C1031 C1030 1.391 . S
H1032 C1040 0.950 . S
H1033 C1045 0.950 . S
H1034 C1042 0.950 . S
H1035 C1044 0.950 . S
H1036 C1046 0.950 . S
H1037 C1048 0.950 . S
H1038 C1050 0.950 . S
H1039 C1051 0.950 . S
C1040 H1032 0.950 . S
C1040 C1041 1.386 . S
C1040 C1042 1.391 . S
C1041 C1040 1.386 . S
C1041 C1045 1.393 . S
C1042 H1034 0.950 . S
C1042 C1040 1.391 . S
C1042 C1043 1.400 . S
C1043 C1042 1.400 . S
C1043 C1044 1.398 . S
C1043 C1049 1.491 . S
C1044 H1035 0.950 . S
C1044 C1043 1.398 . S
C1044 C1045 1.391 . S
C1045 H1033 0.950 . S
C1045 C1041 1.393 . S
C1045 C1044 1.391 . S
C1046 H1036 0.950 . S
C1046 C1047 1.386 . S
C1046 C1048 1.391 . S
C1047 C1046 1.386 . S
C1047 C1051 1.393 . S
C1048 H1037 0.950 . S
C1048 C1046 1.391 . S
C1048 C1049 1.400 . S
C1049 C1043 1.491 . S
C1049 C1048 1.400 . S
C1049 C1050 1.398 . S
C1050 H1038 0.950 . S
C1050 C1049 1.398 . S
C1050 C1051 1.391 . S
C1051 H1039 0.950 . S
C1051 C1047 1.393 . S
C1051 C1050 1.391 . S
H1052 C1060 0.950 . S
H1053 C1065 0.950 . S
H1054 C1062 0.950 . S
H1055 C1064 0.950 . S
H1056 C1066 0.950 . S
H1057 C1068 0.950 . S
H1058 C1070 0.950 . S
H1059 C1071 0.950 . S
C1060 H1052 0.950 . S
C1060 C1061 1.386 . S
C1060 C1062 1.391 . S
C1061 C1060 1.386 . S
C1061 C1065 1.393 . S
C1062 H1054 0.950 . S
C1062 C1060 1.391 . S
C1062 C1063 1.400 . S
C1063 C1062 1.400 . S
C1063 C1064 1.398 . S
C1063 C1069 1.491 . S
C1064 H1055 0.950 . S
C1064 C1063 1.398 . S
C1064 C1065 1.391 . S
C1065 H1053 0.950 . S
C1065 C1061 1.393 . S
C1065 C1064 1.391 . S
C1066 H1056 0.950 . S
C1066 C1067 1.386 . S
C1066 C1068 1.391 . S
C1067 C1066 1.386 . S
C1067 C1071 1.393 . S
C1068 H1057 0.950 . S
C1068 C1066 1.391 . S
C1068 C1069 1.400 . S
C1069 C1063 1.491 . S
C1069 C1068 1.400 . S
C1069 C1070 1.398 . S
C1070 H1058 0.950 . S
C1070 C1069 1.398 . S
C1070 C1071 1.391 . S
C1071 H1059 0.950 . S
C1071 C1067 1.393 . S
C1071 C1070 1.391 . S
H1072 C1080 0.950 . S
H1073 C1085 0.950 . S
H1074 C1082 0.950 . S
H1075 C1084 0.950 . S
H1076 C1086 0.950 . S
H1077 C1088 0.950 . S
H1078 C1090 0.950 . S
H1079 C1091 0.950 . S
C1080 H1072 0.950 . S
C1080 C1081 1.386 . S
C1080 C1082 1.391 . S
C1081 C1080 1.386 . S
C1081 C1085 1.393 . S
C1082 H1074 0.950 . S
C1082 C1080 1.391 . S
C1082 C1083 1.400 . S
C1083 C1082 1.400 . S
C1083 C1084 1.398 . S
C1083 C1089 1.491 . S
C1084 H1075 0.950 . S
C1084 C1083 1.398 . S
C1084 C1085 1.391 . S
C1085 H1073 0.950 . S
C1085 C1081 1.393 . S
C1085 C1084 1.391 . S
C1086 H1076 0.950 . S
C1086 C1087 1.386 . S
C1086 C1088 1.391 . S
C1087 C1086 1.386 . S
C1087 C1091 1.393 . S
C1088 H1077 0.950 . S
C1088 C1086 1.391 . S
C1088 C1089 1.400 . S
C1089 C1083 1.491 . S
C1089 C1088 1.400 . S
C1089 C1090 1.398 . S
C1090 H1078 0.950 . S
C1090 C1089 1.398 . S
C1090 C1091 1.391 . S
C1091 H1079 0.950 . S
C1091 C1087 1.393 . S
C1091 C1090 1.391 . S
H1092 C1100 0.950 . S
H1093 C1105 0.950 . S
H1094 C1102 0.950 . S
H1095 C1104 0.950 . S
H1096 C1106 0.950 . S
H1097 C1108 0.950 . S
H1098 C1110 0.950 . S
H1099 C1111 0.950 . S
C1100 H1092 0.950 . S
C1100 C1101 1.386 . S
C1100 C1102 1.391 . S
C1101 C1100 1.386 . S
C1101 C1105 1.393 . S
C1102 H1094 0.950 . S
C1102 C1100 1.391 . S
C1102 C1103 1.400 . S
C1103 C1102 1.400 . S
C1103 C1104 1.398 . S
C1103 C1109 1.491 . S
C1104 H1095 0.950 . S
C1104 C1103 1.398 . S
C1104 C1105 1.391 . S
C1105 H1093 0.950 . S
C1105 C1101 1.393 . S
C1105 C1104 1.391 . S
C1106 H1096 0.950 . S
C1106 C1107 1.386 . S
C1106 C1108 1.391 . S
C1107 C1106 1.386 . S
C1107 C1111 1.393 . S
C1108 H1097 0.950 . S
C1108 C1106 1.391 . S
C1108 C1109 1.400 . S
C1109 C1103 1.491 . S
C1109 C1108 1.400 . S
C1109 C1110 1.398 . S
C1110 H1098 0.950 . S
C1110 C1109 1.398 . S
C1110 C1111 1.391 . S
C1111 H1099 0.950 . S
C1111 C1107 1.393 . S
C1111 C1110 1.391 . S
H1112 C1120 0.950 1_655 S
H1113 C1125 0.950 . S
H1114 C1122 0.950 1_655 S
H1115 C1124 0.950 . S
H1116 C1126 0.950 . S
H1117 C1128 0.950 . S
H1118 C1130 0.950 . S
H1119 C1131 0.950 . S
C1120 H1112 0.950 1_455 S
C1120 C1121 1.386 . S
C1120 C1122 1.391 . S
C1121 C1120 1.386 . S
C1121 C1125 1.393 . S
C1122 H1114 0.950 1_455 S
C1122 C1120 1.391 . S
C1122 C1123 1.400 . S
C1123 C1122 1.400 . S
C1123 C1124 1.398 . S
C1123 C1129 1.491 . S
C1124 H1115 0.950 . S
C1124 C1123 1.398 . S
C1124 C1125 1.391 . S
C1125 H1113 0.950 . S
C1125 C1121 1.393 . S
C1125 C1124 1.391 . S
C1126 H1116 0.950 . S
C1126 C1127 1.386 . S
C1126 C1128 1.391 . S
C1127 C1126 1.386 . S
C1127 C1131 1.393 1_455 S
C1128 H1117 0.950 . S
C1128 C1126 1.391 . S
C1128 C1129 1.400 . S
C1129 C1123 1.491 . S
C1129 C1128 1.400 . S
C1129 C1130 1.398 1_455 S
C1130 H1118 0.950 . S
C1130 C1129 1.398 1_655 S
C1130 C1131 1.391 . S
C1131 H1119 0.950 . S
C1131 C1127 1.393 1_655 S
C1131 C1130 1.391 . S
H1132 C1140 0.950 . S
H1133 C1145 0.950 . S
H1134 C1142 0.950 . S
H1135 C1144 0.950 . S
H1136 C1146 0.950 . S
H1137 C1148 0.950 . S
H1138 C1150 0.950 . S
H1139 C1151 0.950 . S
C1140 H1132 0.950 . S
C1140 C1141 1.386 . S
C1140 C1142 1.391 . S
C1141 C1140 1.386 . S
C1141 C1145 1.393 . S
C1142 H1134 0.950 . S
C1142 C1140 1.391 . S
C1142 C1143 1.400 . S
C1143 C1142 1.400 . S
C1143 C1144 1.398 . S
C1143 C1149 1.491 . S
C1144 H1135 0.950 . S
C1144 C1143 1.398 . S
C1144 C1145 1.391 . S
C1145 H1133 0.950 . S
C1145 C1141 1.393 . S
C1145 C1144 1.391 . S
C1146 H1136 0.950 . S
C1146 C1147 1.386 . S
C1146 C1148 1.391 . S
C1147 C1146 1.386 . S
C1147 C1151 1.393 . S
C1148 H1137 0.950 . S
C1148 C1146 1.391 . S
C1148 C1149 1.400 . S
C1149 C1143 1.491 . S
C1149 C1148 1.400 . S
C1149 C1150 1.398 . S
C1150 H1138 0.950 . S
C1150 C1149 1.398 . S
C1150 C1151 1.391 . S
C1151 H1139 0.950 . S
C1151 C1147 1.393 . S
C1151 C1150 1.391 . S
H1152 C1160 0.950 . S
H1153 C1165 0.950 . S
H1154 C1162 0.950 . S
H1155 C1164 0.950 . S
H1156 C1166 0.950 . S
H1157 C1168 0.950 . S
H1158 C1170 0.950 . S
H1159 C1171 0.950 . S
C1160 H1152 0.950 . S
C1160 C1161 1.386 . S
C1160 C1162 1.391 . S
C1161 C1160 1.386 . S
C1161 C1165 1.393 . S
C1162 H1154 0.950 . S
C1162 C1160 1.391 . S
C1162 C1163 1.400 . S
C1163 C1162 1.400 . S
C1163 C1164 1.398 . S
C1163 C1169 1.491 . S
C1164 H1155 0.950 . S
C1164 C1163 1.398 . S
C1164 C1165 1.391 . S
C1165 H1153 0.950 . S
C1165 C1161 1.393 . S
C1165 C1164 1.391 . S
C1166 H1156 0.950 . S
C1166 C1167 1.386 . S
C1166 C1168 1.391 . S
C1167 C1166 1.386 . S
C1167 C1171 1.393 . S
C1168 H1157 0.950 . S
C1168 C1166 1.391 . S
C1168 C1169 1.400 . S
C1169 C1163 1.491 . S
C1169 C1168 1.400 . S
C1169 C1170 1.398 . S
C1170 H1158 0.950 . S
C1170 C1169 1.398 . S
C1170 C1171 1.391 . S
C1171 H1159 0.950 . S
C1171 C1167 1.393 . S
C1171 C1170 1.391 . S
H1172 C1180 0.950 . S
H1173 C1185 0.950 . S
H1174 C1182 0.950 . S
H1175 C1184 0.950 . S
H1176 C1186 0.950 . S
H1177 C1188 0.950 . S
H1178 C1190 0.950 . S
H1179 C1191 0.950 . S
C1180 H1172 0.950 . S
C1180 C1181 1.386 . S
C1180 C1182 1.391 . S
C1181 C1180 1.386 . S
C1181 C1185 1.393 . S
C1182 H1174 0.950 . S
C1182 C1180 1.391 . S
C1182 C1183 1.400 . S
C1183 C1182 1.400 . S
C1183 C1184 1.398 . S
C1183 C1189 1.491 . S
C1184 H1175 0.950 . S
C1184 C1183 1.398 . S
C1184 C1185 1.391 . S
C1185 H1173 0.950 . S
C1185 C1181 1.393 . S
C1185 C1184 1.391 . S
C1186 H1176 0.950 . S
C1186 C1187 1.386 . S
C1186 C1188 1.391 . S
C1187 C1186 1.386 . S
C1187 C1191 1.393 . S
C1188 H1177 0.950 . S
C1188 C1186 1.391 . S
C1188 C1189 1.400 . S
C1189 C1183 1.491 . S
C1189 C1188 1.400 . S
C1189 C1190 1.398 . S
C1190 H1178 0.950 . S
C1190 C1189 1.398 . S
C1190 C1191 1.391 . S
C1191 H1179 0.950 . S
C1191 C1187 1.393 . S
C1191 C1190 1.391 . S
H1192 C1200 0.950 . S
H1193 C1205 0.950 . S
H1194 C1202 0.950 . S
H1195 C1204 0.950 . S
H1196 C1206 0.950 . S
H1197 C1208 0.950 . S
H1198 C1210 0.950 . S
H1199 C1211 0.950 . S
C1200 H1192 0.950 . S
C1200 C1201 1.386 . S
C1200 C1202 1.391 . S
C1201 C1200 1.386 . S
C1201 C1205 1.393 1_455 S
C1202 H1194 0.950 . S
C1202 C1200 1.391 . S
C1202 C1203 1.400 . S
C1203 C1202 1.400 . S
C1203 C1204 1.398 1_455 S
C1203 C1209 1.491 . S
C1204 H1195 0.950 . S
C1204 C1203 1.398 1_655 S
C1204 C1205 1.391 . S
C1205 H1193 0.950 . S
C1205 C1201 1.393 1_655 S
C1205 C1204 1.391 . S
C1206 H1196 0.950 . S
C1206 C1207 1.386 1_655 S
C1206 C1208 1.391 . S
C1207 C1206 1.386 1_455 S
C1207 C1211 1.393 . S
C1208 H1197 0.950 . S
C1208 C1206 1.391 . S
C1208 C1209 1.400 1_655 S
C1209 C1203 1.491 . S
C1209 C1208 1.400 1_455 S
C1209 C1210 1.398 . S
C1210 H1198 0.950 . S
C1210 C1209 1.398 . S
C1210 C1211 1.391 . S
C1211 H1199 0.950 . S
C1211 C1207 1.393 . S
C1211 C1210 1.391 . S
H1212 C1220 0.950 . S
H1213 C1225 0.950 . S
H1214 C1222 0.950 . S
H1215 C1224 0.950 . S
H1216 C1226 0.950 . S
H1217 C1228 0.950 . S
H1218 C1230 0.950 . S
H1219 C1231 0.950 . S
C1220 H1212 0.950 . S
C1220 C1221 1.386 . S
C1220 C1222 1.391 . S
C1221 C1220 1.386 . S
C1221 C1225 1.393 . S
C1222 H1214 0.950 . S
C1222 C1220 1.391 . S
C1222 C1223 1.400 . S
C1223 C1222 1.400 . S
C1223 C1224 1.398 . S
C1223 C1229 1.491 . S
C1224 H1215 0.950 . S
C1224 C1223 1.398 . S
C1224 C1225 1.391 . S
C1225 H1213 0.950 . S
C1225 C1221 1.393 . S
C1225 C1224 1.391 . S
C1226 H1216 0.950 . S
C1226 C1227 1.386 . S
C1226 C1228 1.391 . S
C1227 C1226 1.386 . S
C1227 C1231 1.393 . S
C1228 H1217 0.950 . S
C1228 C1226 1.391 . S
C1228 C1229 1.400 . S
C1229 C1223 1.491 . S
C1229 C1228 1.400 . S
C1229 C1230 1.398 . S
C1230 H1218 0.950 . S
C1230 C1229 1.398 . S
C1230 C1231 1.391 . S
C1231 H1219 0.950 . S
C1231 C1227 1.393 . S
C1231 C1230 1.391 . S
H1232 C1240 0.950 . S
H1233 C1245 0.950 . S
H1234 C1242 0.950 . S
H1235 C1244 0.950 . S
H1236 C1246 0.950 . S
H1237 C1248 0.950 . S
H1238 C1250 0.950 . S
H1239 C1251 0.950 . S
C1240 H1232 0.950 . S
C1240 C1241 1.386 . S
C1240 C1242 1.391 . S
C1241 C1240 1.386 . S
C1241 C1245 1.393 . S
C1242 H1234 0.950 . S
C1242 C1240 1.391 . S
C1242 C1243 1.400 . S
C1243 C1242 1.400 . S
C1243 C1244 1.398 . S
C1243 C1249 1.491 . S
C1244 H1235 0.950 . S
C1244 C1243 1.398 . S
C1244 C1245 1.391 . S
C1245 H1233 0.950 . S
C1245 C1241 1.393 . S
C1245 C1244 1.391 . S
C1246 H1236 0.950 . S
C1246 C1247 1.386 1_556 S
C1246 C1248 1.391 . S
C1247 C1246 1.386 1_554 S
C1247 C1251 1.393 . S
C1248 H1237 0.950 . S
C1248 C1246 1.391 . S
C1248 C1249 1.400 . S
C1249 C1243 1.491 . S
C1249 C1248 1.400 . S
C1249 C1250 1.398 . S
C1250 H1238 0.950 . S
C1250 C1249 1.398 . S
C1250 C1251 1.391 1_556 S
C1251 H1239 0.950 . S
C1251 C1247 1.393 . S
C1251 C1250 1.391 1_554 S
H1252 C1260 0.950 . S
H1253 C1265 0.950 . S
H1254 C1262 0.950 . S
H1255 C1264 0.950 . S
H1256 C1266 0.950 . S
H1257 C1268 0.950 . S
H1258 C1270 0.950 . S
H1259 C1271 0.950 . S
C1260 H1252 0.950 . S
C1260 C1261 1.386 . S
C1260 C1262 1.391 . S
C1261 C1260 1.386 . S
C1261 C1265 1.393 . S
C1262 H1254 0.950 . S
C1262 C1260 1.391 . S
C1262 C1263 1.400 . S
C1263 C1262 1.400 . S
C1263 C1264 1.398 . S
C1263 C1269 1.491 . S
C1264 H1255 0.950 . S
C1264 C1263 1.398 . S
C1264 C1265 1.391 . S
C1265 H1253 0.950 . S
C1265 C1261 1.393 . S
C1265 C1264 1.391 . S
C1266 H1256 0.950 . S
C1266 C1267 1.386 . S
C1266 C1268 1.391 . S
C1267 C1266 1.386 . S
C1267 C1271 1.393 . S
C1268 H1257 0.950 . S
C1268 C1266 1.391 . S
C1268 C1269 1.400 . S
C1269 C1263 1.491 . S
C1269 C1268 1.400 . S
C1269 C1270 1.398 . S
C1270 H1258 0.950 . S
C1270 C1269 1.398 . S
C1270 C1271 1.391 . S
C1271 H1259 0.950 . S
C1271 C1267 1.393 . S
C1271 C1270 1.391 . S
H1272 C1280 0.950 . S
H1273 C1285 0.950 . S
H1274 C1282 0.950 . S
H1275 C1284 0.950 . S
H1276 C1286 0.950 . S
H1277 C1288 0.950 . S
H1278 C1290 0.950 . S
H1279 C1291 0.950 . S
C1280 H1272 0.950 . S
C1280 C1281 1.386 1_565 S
C1280 C1282 1.391 . S
C1281 C1280 1.386 1_545 S
C1281 C1285 1.393 . S
C1282 H1274 0.950 . S
C1282 C1280 1.391 . S
C1282 C1283 1.400 1_565 S
C1283 C1282 1.400 1_545 S
C1283 C1284 1.398 . S
C1283 C1289 1.491 . S
C1284 H1275 0.950 . S
C1284 C1283 1.398 . S
C1284 C1285 1.391 . S
C1285 H1273 0.950 . S
C1285 C1281 1.393 . S
C1285 C1284 1.391 . S
C1286 H1276 0.950 . S
C1286 C1287 1.386 1_545 S
C1286 C1288 1.391 . S
C1287 C1286 1.386 1_565 S
C1287 C1291 1.393 . S
C1288 H1277 0.950 . S
C1288 C1286 1.391 . S
C1288 C1289 1.400 . S
C1289 C1283 1.491 . S
C1289 C1288 1.400 . S
C1289 C1290 1.398 1_545 S
C1290 H1278 0.950 . S
C1290 C1289 1.398 1_565 S
C1290 C1291 1.391 . S
C1291 H1279 0.950 . S
C1291 C1287 1.393 . S
C1291 C1290 1.391 . S
H1292 C1300 0.950 . S
H1293 C1305 0.950 . S
H1294 C1302 0.950 . S
H1295 C1304 0.950 . S
H1296 C1306 0.950 . S
H1297 C1308 0.950 . S
H1298 C1310 0.950 . S
H1299 C1311 0.950 . S
C1300 H1292 0.950 . S
C1300 C1301 1.386 . S
C1300 C1302 1.391 . S
C1301 C1300 1.386 . S
C1301 C1305 1.393 . S
C1302 H1294 0.950 . S
C1302 C1300 1.391 . S
C1302 C1303 1.400 . S
C1303 C1302 1.400 . S
C1303 C1304 1.398 . S
C1303 C1309 1.491 . S
C1304 H1295 0.950 . S
C1304 C1303 1.398 . S
C1304 C1305 1.391 . S
C1305 H1293 0.950 . S
C1305 C1301 1.393 . S
C1305 C1304 1.391 . S
C1306 H1296 0.950 . S
C1306 C1307 1.386 . S
C1306 C1308 1.391 . S
C1307 C1306 1.386 . S
C1307 C1311 1.393 . S
C1308 H1297 0.950 . S
C1308 C1306 1.391 . S
C1308 C1309 1.400 . S
C1309 C1303 1.491 . S
C1309 C1308 1.400 . S
C1309 C1310 1.398 . S
C1310 H1298 0.950 . S
C1310 C1309 1.398 . S
C1310 C1311 1.391 . S
C1311 H1299 0.950 . S
C1311 C1307 1.393 . S
C1311 C1310 1.391 . S
H1312 C1320 0.950 . S
H1313 C1325 0.950 . S
H1314 C1322 0.950 . S
H1315 C1324 0.950 . S
H1316 C1326 0.950 . S
H1317 C1328 0.950 . S
H1318 C1330 0.950 . S
H1319 C1331 0.950 . S
C1320 H1312 0.950 . S
C1320 C1321 1.386 . S
C1320 C1322 1.391 . S
C1321 C1320 1.386 . S
C1321 C1325 1.393 . S
C1322 H1314 0.950 . S
C1322 C1320 1.391 . S
C1322 C1323 1.400 . S
C1323 C1322 1.400 . S
C1323 C1324 1.398 . S
C1323 C1329 1.491 . S
C1324 H1315 0.950 . S
C1324 C1323 1.398 . S
C1324 C1325 1.391 . S
C1325 H1313 0.950 . S
C1325 C1321 1.393 . S
C1325 C1324 1.391 . S
C1326 H1316 0.950 . S
C1326 C1327 1.386 . S
C1326 C1328 1.391 . S
C1327 C1326 1.386 . S
C1327 C1331 1.393 . S
C1328 H1317 0.950 . S
C1328 C1326 1.391 . S
C1328 C1329 1.400 . S
C1329 C1323 1.491 . S
C1329 C1328 1.400 . S
C1329 C1330 1.398 . S
C1330 H1318 0.950 . S
C1330 C1329 1.398 . S
C1330 C1331 1.391 . S
C1331 H1319 0.950 . S
C1331 C1327 1.393 . S
C1331 C1330 1.391 . S
H1332 C1340 0.950 . S
H1333 C1345 0.950 . S
H1334 C1342 0.950 . S
H1335 C1344 0.950 . S
H1336 C1346 0.950 . S
H1337 C1348 0.950 . S
H1338 C1350 0.950 . S
H1339 C1351 0.950 . S
C1340 H1332 0.950 . S
C1340 C1341 1.386 . S
C1340 C1342 1.391 . S
C1341 C1340 1.386 . S
C1341 C1345 1.393 . S
C1342 H1334 0.950 . S
C1342 C1340 1.391 . S
C1342 C1343 1.400 . S
C1343 C1342 1.400 . S
C1343 C1344 1.398 . S
C1343 C1349 1.491 . S
C1344 H1335 0.950 . S
C1344 C1343 1.398 . S
C1344 C1345 1.391 . S
C1345 H1333 0.950 . S
C1345 C1341 1.393 . S
C1345 C1344 1.391 . S
C1346 H1336 0.950 . S
C1346 C1347 1.386 . S
C1346 C1348 1.391 . S
C1347 C1346 1.386 . S
C1347 C1351 1.393 . S
C1348 H1337 0.950 . S
C1348 C1346 1.391 . S
C1348 C1349 1.400 . S
C1349 C1343 1.491 . S
C1349 C1348 1.400 . S
C1349 C1350 1.398 . S
C1350 H1338 0.950 . S
C1350 C1349 1.398 . S
C1350 C1351 1.391 . S
C1351 H1339 0.950 . S
C1351 C1347 1.393 . S
C1351 C1350 1.391 . S
H1352 C1360 0.950 . S
H1353 C1365 0.950 . S
H1354 C1362 0.950 . S
H1355 C1364 0.950 . S
H1356 C1366 0.950 . S
H1357 C1368 0.950 . S
H1358 C1370 0.950 1_565 S
H1359 C1371 0.950 1_565 S
C1360 H1352 0.950 . S
C1360 C1361 1.386 1_565 S
C1360 C1362 1.391 . S
C1361 C1360 1.386 1_545 S
C1361 C1365 1.393 . S
C1362 H1354 0.950 . S
C1362 C1360 1.391 . S
C1362 C1363 1.400 1_565 S
C1363 C1362 1.400 1_545 S
C1363 C1364 1.398 . S
C1363 C1369 1.491 . S
C1364 H1355 0.950 . S
C1364 C1363 1.398 . S
C1364 C1365 1.391 . S
C1365 H1353 0.950 . S
C1365 C1361 1.393 . S
C1365 C1364 1.391 . S
C1366 H1356 0.950 . S
C1366 C1367 1.386 . S
C1366 C1368 1.391 . S
C1367 C1366 1.386 . S
C1367 C1371 1.393 . S
C1368 H1357 0.950 . S
C1368 C1366 1.391 . S
C1368 C1369 1.400 . S
C1369 C1363 1.491 . S
C1369 C1368 1.400 . S
C1369 C1370 1.398 . S
C1370 H1358 0.950 1_545 S
C1370 C1369 1.398 . S
C1370 C1371 1.391 . S
C1371 H1359 0.950 1_545 S
C1371 C1367 1.393 . S
C1371 C1370 1.391 . S
H1372 C1380 0.950 . S
H1373 C1385 0.950 . S
H1374 C1382 0.950 . S
H1375 C1384 0.950 . S
H1376 C1386 0.950 . S
H1377 C1388 0.950 . S
H1378 C1390 0.950 . S
H1379 C1391 0.950 . S
C1380 H1372 0.950 . S
C1380 C1381 1.386 . S
C1380 C1382 1.391 . S
C1381 C1380 1.386 . S
C1381 C1385 1.393 . S
C1382 H1374 0.950 . S
C1382 C1380 1.391 . S
C1382 C1383 1.400 . S
C1383 C1382 1.400 . S
C1383 C1384 1.398 . S
C1383 C1389 1.491 . S
C1384 H1375 0.950 . S
C1384 C1383 1.398 . S
C1384 C1385 1.391 . S
C1385 H1373 0.950 . S
C1385 C1381 1.393 . S
C1385 C1384 1.391 . S
C1386 H1376 0.950 . S
C1386 C1387 1.386 . S
C1386 C1388 1.391 . S
C1387 C1386 1.386 . S
C1387 C1391 1.393 . S
C1388 H1377 0.950 . S
C1388 C1386 1.391 . S
C1388 C1389 1.400 . S
C1389 C1383 1.491 . S
C1389 C1388 1.400 . S
C1389 C1390 1.398 . S
C1390 H1378 0.950 . S
C1390 C1389 1.398 . S
C1390 C1391 1.391 . S
C1391 H1379 0.950 . S
C1391 C1387 1.393 . S
C1391 C1390 1.391 . S
H1392 C1400 0.950 . S
H1393 C1405 0.950 . S
H1394 C1402 0.950 . S
H1395 C1404 0.950 1_565 S
H1396 C1406 0.950 . S
H1397 C1408 0.950 . S
H1398 C1410 0.950 . S
H1399 C1411 0.950 . S
C1400 H1392 0.950 . S
C1400 C1401 1.386 . S
C1400 C1402 1.391 . S
C1401 C1400 1.386 . S
C1401 C1405 1.393 . S
C1402 H1394 0.950 . S
C1402 C1400 1.391 . S
C1402 C1403 1.400 . S
C1403 C1402 1.400 . S
C1403 C1404 1.398 . S
C1403 C1409 1.491 . S
C1404 H1395 0.950 1_545 S
C1404 C1403 1.398 . S
C1404 C1405 1.391 . S
C1405 H1393 0.950 . S
C1405 C1401 1.393 . S
C1405 C1404 1.391 . S
C1406 H1396 0.950 . S
C1406 C1407 1.386 . S
C1406 C1408 1.391 . S
C1407 C1406 1.386 . S
C1407 C1411 1.393 1_565 S
C1408 H1397 0.950 . S
C1408 C1406 1.391 . S
C1408 C1409 1.400 1_565 S
C1409 C1403 1.491 . S
C1409 C1408 1.400 1_545 S
C1409 C1410 1.398 . S
C1410 H1398 0.950 . S
C1410 C1409 1.398 . S
C1410 C1411 1.391 . S
C1411 H1399 0.950 . S
C1411 C1407 1.393 1_545 S
C1411 C1410 1.391 . S
H1412 C1420 0.950 . S
H1413 C1425 0.950 . S
H1414 C1422 0.950 . S
H1415 C1424 0.950 . S
H1416 C1426 0.950 . S
H1417 C1428 0.950 . S
H1418 C1430 0.950 . S
H1419 C1431 0.950 . S
C1420 H1412 0.950 . S
C1420 C1421 1.386 . S
C1420 C1422 1.391 . S
C1421 C1420 1.386 . S
C1421 C1425 1.393 . S
C1422 H1414 0.950 . S
C1422 C1420 1.391 . S
C1422 C1423 1.400 . S
C1423 C1422 1.400 . S
C1423 C1424 1.398 . S
C1423 C1429 1.491 . S
C1424 H1415 0.950 . S
C1424 C1423 1.398 . S
C1424 C1425 1.391 . S
C1425 H1413 0.950 . S
C1425 C1421 1.393 . S
C1425 C1424 1.391 . S
C1426 H1416 0.950 . S
C1426 C1427 1.386 . S
C1426 C1428 1.391 . S
C1427 C1426 1.386 . S
C1427 C1431 1.393 . S
C1428 H1417 0.950 . S
C1428 C1426 1.391 . S
C1428 C1429 1.400 . S
C1429 C1423 1.491 . S
C1429 C1428 1.400 . S
C1429 C1430 1.398 . S
C1430 H1418 0.950 . S
C1430 C1429 1.398 . S
C1430 C1431 1.391 . S
C1431 H1419 0.950 . S
C1431 C1427 1.393 . S
C1431 C1430 1.391 . S
H1432 C1440 0.950 . S
H1433 C1445 0.950 . S
H1434 C1442 0.950 . S
H1435 C1444 0.950 . S
H1436 C1446 0.950 1_556 S
H1437 C1448 0.950 . S
H1438 C1450 0.950 . S
H1439 C1451 0.950 . S
C1440 H1432 0.950 . S
C1440 C1441 1.386 . S
C1440 C1442 1.391 . S
C1441 C1440 1.386 . S
C1441 C1445 1.393 . S
C1442 H1434 0.950 . S
C1442 C1440 1.391 . S
C1442 C1443 1.400 . S
C1443 C1442 1.400 . S
C1443 C1444 1.398 . S
C1443 C1449 1.491 . S
C1444 H1435 0.950 . S
C1444 C1443 1.398 . S
C1444 C1445 1.391 . S
C1445 H1433 0.950 . S
C1445 C1441 1.393 . S
C1445 C1444 1.391 . S
C1446 H1436 0.950 1_554 S
C1446 C1447 1.386 1_554 S
C1446 C1448 1.391 . S
C1447 C1446 1.386 1_556 S
C1447 C1451 1.393 . S
C1448 H1437 0.950 . S
C1448 C1446 1.391 . S
C1448 C1449 1.400 . S
C1449 C1443 1.491 . S
C1449 C1448 1.400 . S
C1449 C1450 1.398 . S
C1450 H1438 0.950 . S
C1450 C1449 1.398 . S
C1450 C1451 1.391 1_554 S
C1451 H1439 0.950 . S
C1451 C1447 1.393 . S
C1451 C1450 1.391 1_556 S
H1452 C1460 0.950 . S
H1453 C1465 0.950 . S
H1454 C1462 0.950 . S
H1455 C1464 0.950 . S
H1456 C1466 0.950 . S
H1457 C1468 0.950 . S
H1458 C1470 0.950 . S
H1459 C1471 0.950 . S
C1460 H1452 0.950 . S
C1460 C1461 1.386 . S
C1460 C1462 1.391 . S
C1461 C1460 1.386 . S
C1461 C1465 1.393 . S
C1462 H1454 0.950 . S
C1462 C1460 1.391 . S
C1462 C1463 1.400 . S
C1463 C1462 1.400 . S
C1463 C1464 1.398 . S
C1463 C1469 1.491 . S
C1464 H1455 0.950 . S
C1464 C1463 1.398 . S
C1464 C1465 1.391 . S
C1465 H1453 0.950 . S
C1465 C1461 1.393 . S
C1465 C1464 1.391 . S
C1466 H1456 0.950 . S
C1466 C1467 1.386 . S
C1466 C1468 1.391 . S
C1467 C1466 1.386 . S
C1467 C1471 1.393 . S
C1468 H1457 0.950 . S
C1468 C1466 1.391 . S
C1468 C1469 1.400 . S
C1469 C1463 1.491 . S
C1469 C1468 1.400 . S
C1469 C1470 1.398 . S
C1470 H1458 0.950 . S
C1470 C1469 1.398 . S
C1470 C1471 1.391 . S
C1471 H1459 0.950 . S
C1471 C1467 1.393 . S
C1471 C1470 1.391 . S
H1472 C1480 0.950 . S
H1473 C1485 0.950 . S
H1474 C1482 0.950 . S
H1475 C1484 0.950 . S
H1476 C1486 0.950 . S
H1477 C1488 0.950 . S
H1478 C1490 0.950 . S
H1479 C1491 0.950 . S
C1480 H1472 0.950 . S
C1480 C1481 1.386 . S
C1480 C1482 1.391 . S
C1481 C1480 1.386 . S
C1481 C1485 1.393 . S
C1482 H1474 0.950 . S
C1482 C1480 1.391 . S
C1482 C1483 1.400 . S
C1483 C1482 1.400 . S
C1483 C1484 1.398 . S
C1483 C1489 1.491 . S
C1484 H1475 0.950 . S
C1484 C1483 1.398 . S
C1484 C1485 1.391 . S
C1485 H1473 0.950 . S
C1485 C1481 1.393 . S
C1485 C1484 1.391 . S
C1486 H1476 0.950 . S
C1486 C1487 1.386 . S
C1486 C1488 1.391 . S
C1487 C1486 1.386 . S
C1487 C1491 1.393 . S
C1488 H1477 0.950 . S
C1488 C1486 1.391 . S
C1488 C1489 1.400 . S
C1489 C1483 1.491 . S
C1489 C1488 1.400 . S
C1489 C1490 1.398 . S
C1490 H1478 0.950 . S
C1490 C1489 1.398 . S
C1490 C1491 1.391 . S
C1491 H1479 0.950 . S
C1491 C1487 1.393 . S
C1491 C1490 1.391 . S
H1492 C1500 0.950 . S
H1493 C1505 0.950 . S
H1494 C1502 0.950 . S
H1495 C1504 0.950 . S
H1496 C1506 0.950 . S
H1497 C1508 0.950 . S
H1498 C1510 0.950 . S
H1499 C1511 0.950 . S
C1500 H1492 0.950 . S
C1500 C1501 1.386 . S
C1500 C1502 1.391 . S
C1501 C1500 1.386 . S
C1501 C1505 1.393 . S
C1502 H1494 0.950 . S
C1502 C1500 1.391 . S
C1502 C1503 1.400 . S
C1503 C1502 1.400 . S
C1503 C1504 1.398 . S
C1503 C1509 1.491 . S
C1504 H1495 0.950 . S
C1504 C1503 1.398 . S
C1504 C1505 1.391 . S
C1505 H1493 0.950 . S
C1505 C1501 1.393 . S
C1505 C1504 1.391 . S
C1506 H1496 0.950 . S
C1506 C1507 1.386 . S
C1506 C1508 1.391 . S
C1507 C1506 1.386 . S
C1507 C1511 1.393 . S
C1508 H1497 0.950 . S
C1508 C1506 1.391 . S
C1508 C1509 1.400 . S
C1509 C1503 1.491 . S
C1509 C1508 1.400 . S
C1509 C1510 1.398 . S
C1510 H1498 0.950 . S
C1510 C1509 1.398 . S
C1510 C1511 1.391 . S
C1511 H1499 0.950 . S
C1511 C1507 1.393 . S
C1511 C1510 1.391 . S
H1512 C1520 0.950 . S
H1513 C1525 0.950 . S
H1514 C1522 0.950 . S
H1515 C1524 0.950 . S
H1516 C1526 0.950 . S
H1517 C1528 0.950 . S
H1518 C1530 0.950 . S
H1519 C1531 0.950 . S
C1520 H1512 0.950 . S
C1520 C1521 1.386 . S
C1520 C1522 1.391 . S
C1521 C1520 1.386 . S
C1521 C1525 1.393 . S
C1522 H1514 0.950 . S
C1522 C1520 1.391 . S
C1522 C1523 1.400 . S
C1523 C1522 1.400 . S
C1523 C1524 1.398 . S
C1523 C1529 1.491 . S
C1524 H1515 0.950 . S
C1524 C1523 1.398 . S
C1524 C1525 1.391 . S
C1525 H1513 0.950 . S
C1525 C1521 1.393 . S
C1525 C1524 1.391 . S
C1526 H1516 0.950 . S
C1526 C1527 1.386 . S
C1526 C1528 1.391 . S
C1527 C1526 1.386 . S
C1527 C1531 1.393 . S
C1528 H1517 0.950 . S
C1528 C1526 1.391 . S
C1528 C1529 1.400 . S
C1529 C1523 1.491 . S
C1529 C1528 1.400 . S
C1529 C1530 1.398 . S
C1530 H1518 0.950 . S
C1530 C1529 1.398 . S
C1530 C1531 1.391 . S
C1531 H1519 0.950 . S
C1531 C1527 1.393 . S
C1531 C1530 1.391 . S
H1532 C1540 0.950 . S
H1533 C1545 0.950 . S
H1534 C1542 0.950 . S
H1535 C1544 0.950 . S
H1536 C1546 0.950 . S
H1537 C1548 0.950 . S
H1538 C1550 0.950 . S
H1539 C1551 0.950 . S
C1540 H1532 0.950 . S
C1540 C1541 1.386 . S
C1540 C1542 1.391 . S
C1541 C1540 1.386 . S
C1541 C1545 1.393 . S
C1542 H1534 0.950 . S
C1542 C1540 1.391 . S
C1542 C1543 1.400 . S
C1543 C1542 1.400 . S
C1543 C1544 1.398 . S
C1543 C1549 1.491 . S
C1544 H1535 0.950 . S
C1544 C1543 1.398 . S
C1544 C1545 1.391 . S
C1545 H1533 0.950 . S
C1545 C1541 1.393 . S
C1545 C1544 1.391 . S
C1546 H1536 0.950 . S
C1546 C1547 1.386 . S
C1546 C1548 1.391 . S
C1547 C1546 1.386 . S
C1547 C1551 1.393 . S
C1548 H1537 0.950 . S
C1548 C1546 1.391 . S
C1548 C1549 1.400 . S
C1549 C1543 1.491 . S
C1549 C1548 1.400 . S
C1549 C1550 1.398 . S
C1550 H1538 0.950 . S
C1550 C1549 1.398 . S
C1550 C1551 1.391 . S
C1551 H1539 0.950 . S
C1551 C1547 1.393 . S
C1551 C1550 1.391 . S
H1552 C1560 0.950 . S
H1553 C1565 0.950 . S
H1554 C1562 0.950 . S
H1555 C1564 0.950 . S
H1556 C1566 0.950 . S
H1557 C1568 0.950 . S
H1558 C1570 0.950 . S
H1559 C1571 0.950 . S
C1560 H1552 0.950 . S
C1560 C1561 1.386 . S
C1560 C1562 1.391 . S
C1561 C1560 1.386 . S
C1561 C1565 1.393 . S
C1562 H1554 0.950 . S
C1562 C1560 1.391 . S
C1562 C1563 1.400 . S
C1563 C1562 1.400 . S
C1563 C1564 1.398 . S
C1563 C1569 1.491 . S
C1564 H1555 0.950 . S
C1564 C1563 1.398 . S
C1564 C1565 1.391 . S
C1565 H1553 0.950 . S
C1565 C1561 1.393 . S
C1565 C1564 1.391 . S
C1566 H1556 0.950 . S
C1566 C1567 1.386 . S
C1566 C1568 1.391 . S
C1567 C1566 1.386 . S
C1567 C1571 1.393 . S
C1568 H1557 0.950 . S
C1568 C1566 1.391 . S
C1568 C1569 1.400 . S
C1569 C1563 1.491 . S
C1569 C1568 1.400 . S
C1569 C1570 1.398 . S
C1570 H1558 0.950 . S
C1570 C1569 1.398 . S
C1570 C1571 1.391 . S
C1571 H1559 0.950 . S
C1571 C1567 1.393 . S
C1571 C1570 1.391 . S
H1572 C1580 0.950 . S
H1573 C1585 0.950 . S
H1574 C1582 0.950 . S
H1575 C1584 0.950 . S
H1576 C1586 0.950 . S
H1577 C1588 0.950 . S
H1578 C1590 0.950 . S
H1579 C1591 0.950 . S
C1580 H1572 0.950 . S
C1580 C1581 1.386 . S
C1580 C1582 1.391 . S
C1581 C1580 1.386 . S
C1581 C1585 1.393 . S
C1582 H1574 0.950 . S
C1582 C1580 1.391 . S
C1582 C1583 1.400 . S
C1583 C1582 1.400 . S
C1583 C1584 1.398 . S
C1583 C1589 1.491 . S
C1584 H1575 0.950 . S
C1584 C1583 1.398 . S
C1584 C1585 1.391 . S
C1585 H1573 0.950 . S
C1585 C1581 1.393 . S
C1585 C1584 1.391 . S
C1586 H1576 0.950 . S
C1586 C1587 1.386 . S
C1586 C1588 1.391 . S
C1587 C1586 1.386 . S
C1587 C1591 1.393 . S
C1588 H1577 0.950 . S
C1588 C1586 1.391 . S
C1588 C1589 1.400 . S
C1589 C1583 1.491 . S
C1589 C1588 1.400 . S
C1589 C1590 1.398 . S
C1590 H1578 0.950 . S
C1590 C1589 1.398 . S
C1590 C1591 1.391 . S
C1591 H1579 0.950 . S
C1591 C1587 1.393 . S
C1591 C1590 1.391 . S
H1592 C1600 0.950 . S
H1593 C1605 0.950 . S
H1594 C1602 0.950 . S
H1595 C1604 0.950 . S
H1596 C1606 0.950 . S
H1597 C1608 0.950 . S
H1598 C1610 0.950 . S
H1599 C1611 0.950 . S
C1600 H1592 0.950 . S
C1600 C1601 1.386 . S
C1600 C1602 1.391 . S
C1601 C1600 1.386 . S
C1601 C1605 1.393 . S
C1602 H1594 0.950 . S
C1602 C1600 1.391 . S
C1602 C1603 1.400 . S
C1603 C1602 1.400 . S
C1603 C1604 1.398 . S
C1603 C1609 1.491 . S
C1604 H1595 0.950 . S
C1604 C1603 1.398 . S
C1604 C1605 1.391 . S
C1605 H1593 0.950 . S
C1605 C1601 1.393 . S
C1605 C1604 1.391 . S
C1606 H1596 0.950 . S
C1606 C1607 1.386 . S
C1606 C1608 1.391 . S
C1607 C1606 1.386 . S
C1607 C1611 1.393 . S
C1608 H1597 0.950 . S
C1608 C1606 1.391 . S
C1608 C1609 1.400 . S
C1609 C1603 1.491 . S
C1609 C1608 1.400 . S
C1609 C1610 1.398 . S
C1610 H1598 0.950 . S
C1610 C1609 1.398 . S
C1610 C1611 1.391 . S
C1611 H1599 0.950 . S
C1611 C1607 1.393 . S
C1611 C1610 1.391 . S
H1612 C1620 0.950 . S
H1613 C1625 0.950 . S
H1614 C1622 0.950 . S
H1615 C1624 0.950 . S
H1616 C1626 0.950 . S
H1617 C1628 0.950 . S
H1618 C1630 0.950 . S
H1619 C1631 0.950 . S
C1620 H1612 0.950 . S
C1620 C1621 1.386 . S
C1620 C1622 1.391 . S
C1621 C1620 1.386 . S
C1621 C1625 1.393 . S
C1622 H1614 0.950 . S
C1622 C1620 1.391 . S
C1622 C1623 1.400 . S
C1623 C1622 1.400 . S
C1623 C1624 1.398 . S
C1623 C1629 1.491 . S
C1624 H1615 0.950 . S
C1624 C1623 1.398 . S
C1624 C1625 1.391 . S
C1625 H1613 0.950 . S
C1625 C1621 1.393 . S
C1625 C1624 1.391 . S
C1626 H1616 0.950 . S
C1626 C1627 1.386 . S
C1626 C1628 1.391 . S
C1627 C1626 1.386 . S
C1627 C1631 1.393 . S
C1628 H1617 0.950 . S
C1628 C1626 1.391 . S
C1628 C1629 1.400 . S
C1629 C1623 1.491 . S
C1629 C1628 1.400 . S
C1629 C1630 1.398 . S
C1630 H1618 0.950 . S
C1630 C1629 1.398 . S
C1630 C1631 1.391 . S
C1631 H1619 0.950 . S
C1631 C1627 1.393 . S
C1631 C1630 1.391 . S
H1632 C1640 0.950 . S
H1633 C1645 0.950 . S
H1634 C1642 0.950 . S
H1635 C1644 0.950 . S
H1636 C1646 0.950 1_554 S
H1637 C1648 0.950 . S
H1638 C1650 0.950 . S
H1639 C1651 0.950 . S
C1640 H1632 0.950 . S
C1640 C1641 1.386 1_655 S
C1640 C1642 1.391 . S
C1641 C1640 1.386 1_455 S
C1641 C1645 1.393 . S
C1642 H1634 0.950 . S
C1642 C1640 1.391 . S
C1642 C1643 1.400 1_655 S
C1643 C1642 1.400 1_455 S
C1643 C1644 1.398 . S
C1643 C1649 1.491 . S
C1644 H1635 0.950 . S
C1644 C1643 1.398 . S
C1644 C1645 1.391 . S
C1645 H1633 0.950 . S
C1645 C1641 1.393 . S
C1645 C1644 1.391 . S
C1646 H1636 0.950 1_556 S
C1646 C1647 1.386 . S
C1646 C1648 1.391 . S
C1647 C1646 1.386 . S
C1647 C1651 1.393 1_455 S
C1648 H1637 0.950 . S
C1648 C1646 1.391 . S
C1648 C1649 1.400 . S
C1649 C1643 1.491 . S
C1649 C1648 1.400 . S
C1649 C1650 1.398 1_455 S
C1650 H1638 0.950 . S
C1650 C1649 1.398 1_655 S
C1650 C1651 1.391 . S
C1651 H1639 0.950 . S
C1651 C1647 1.393 1_655 S
C1651 C1650 1.391 . S
H1652 C1660 0.950 . S
H1653 C1665 0.950 . S
H1654 C1662 0.950 . S
H1655 C1664 0.950 . S
H1656 C1666 0.950 . S
H1657 C1668 0.950 . S
H1658 C1670 0.950 . S
H1659 C1671 0.950 . S
C1660 H1652 0.950 . S
C1660 C1661 1.386 . S
C1660 C1662 1.391 . S
C1661 C1660 1.386 . S
C1661 C1665 1.393 . S
C1662 H1654 0.950 . S
C1662 C1660 1.391 . S
C1662 C1663 1.400 . S
C1663 C1662 1.400 . S
C1663 C1664 1.398 . S
C1663 C1669 1.491 . S
C1664 H1655 0.950 . S
C1664 C1663 1.398 . S
C1664 C1665 1.391 . S
C1665 H1653 0.950 . S
C1665 C1661 1.393 . S
C1665 C1664 1.391 . S
C1666 H1656 0.950 . S
C1666 C1667 1.386 . S
C1666 C1668 1.391 . S
C1667 C1666 1.386 . S
C1667 C1671 1.393 . S
C1668 H1657 0.950 . S
C1668 C1666 1.391 . S
C1668 C1669 1.400 . S
C1669 C1663 1.491 . S
C1669 C1668 1.400 . S
C1669 C1670 1.398 . S
C1670 H1658 0.950 . S
C1670 C1669 1.398 . S
C1670 C1671 1.391 . S
C1671 H1659 0.950 . S
C1671 C1667 1.393 . S
C1671 C1670 1.391 . S
H1672 C1680 0.950 . S
H1673 C1685 0.950 . S
H1674 C1682 0.950 . S
H1675 C1684 0.950 . S
H1676 C1686 0.950 . S
H1677 C1688 0.950 . S
H1678 C1690 0.950 . S
H1679 C1691 0.950 . S
C1680 H1672 0.950 . S
C1680 C1681 1.386 . S
C1680 C1682 1.391 . S
C1681 C1680 1.386 . S
C1681 C1685 1.393 . S
C1682 H1674 0.950 . S
C1682 C1680 1.391 . S
C1682 C1683 1.400 . S
C1683 C1682 1.400 . S
C1683 C1684 1.398 . S
C1683 C1689 1.491 . S
C1684 H1675 0.950 . S
C1684 C1683 1.398 . S
C1684 C1685 1.391 . S
C1685 H1673 0.950 . S
C1685 C1681 1.393 . S
C1685 C1684 1.391 . S
C1686 H1676 0.950 . S
C1686 C1687 1.386 . S
C1686 C1688 1.391 . S
C1687 C1686 1.386 . S
C1687 C1691 1.393 . S
C1688 H1677 0.950 . S
C1688 C1686 1.391 . S
C1688 C1689 1.400 . S
C1689 C1683 1.491 . S
C1689 C1688 1.400 . S
C1689 C1690 1.398 . S
C1690 H1678 0.950 . S
C1690 C1689 1.398 . S
C1690 C1691 1.391 . S
C1691 H1679 0.950 . S
C1691 C1687 1.393 . S
C1691 C1690 1.391 . S
H1692 C1700 0.950 . S
H1693 C1705 0.950 . S
H1694 C1702 0.950 . S
H1695 C1704 0.950 . S
H1696 C1706 0.950 . S
H1697 C1708 0.950 . S
H1698 C1710 0.950 . S
H1699 C1711 0.950 . S
C1700 H1692 0.950 . S
C1700 C1701 1.386 . S
C1700 C1702 1.391 . S
C1701 C1700 1.386 . S
C1701 C1705 1.393 . S
C1702 H1694 0.950 . S
C1702 C1700 1.391 . S
C1702 C1703 1.400 . S
C1703 C1702 1.400 . S
C1703 C1704 1.398 . S
C1703 C1709 1.491 . S
C1704 H1695 0.950 . S
C1704 C1703 1.398 . S
C1704 C1705 1.391 . S
C1705 H1693 0.950 . S
C1705 C1701 1.393 . S
C1705 C1704 1.391 . S
C1706 H1696 0.950 . S
C1706 C1707 1.386 . S
C1706 C1708 1.391 . S
C1707 C1706 1.386 . S
C1707 C1711 1.393 . S
C1708 H1697 0.950 . S
C1708 C1706 1.391 . S
C1708 C1709 1.400 . S
C1709 C1703 1.491 . S
C1709 C1708 1.400 . S
C1709 C1710 1.398 . S
C1710 H1698 0.950 . S
C1710 C1709 1.398 . S
C1710 C1711 1.391 . S
C1711 H1699 0.950 . S
C1711 C1707 1.393 . S
C1711 C1710 1.391 . S
H1712 C1720 0.950 . S
H1713 C1725 0.950 . S
H1714 C1722 0.950 . S
H1715 C1724 0.950 . S
H1716 C1726 0.950 . S
H1717 C1728 0.950 . S
H1718 C1730 0.950 . S
H1719 C1731 0.950 . S
C1720 H1712 0.950 . S
C1720 C1721 1.386 . S
C1720 C1722 1.391 . S
C1721 C1720 1.386 . S
C1721 C1725 1.393 1_455 S
C1722 H1714 0.950 . S
C1722 C1720 1.391 . S
C1722 C1723 1.400 . S
C1723 C1722 1.400 . S
C1723 C1724 1.398 1_455 S
C1723 C1729 1.491 . S
C1724 H1715 0.950 . S
C1724 C1723 1.398 1_655 S
C1724 C1725 1.391 . S
C1725 H1713 0.950 . S
C1725 C1721 1.393 1_655 S
C1725 C1724 1.391 . S
C1726 H1716 0.950 . S
C1726 C1727 1.386 1_655 S
C1726 C1728 1.391 . S
C1727 C1726 1.386 1_455 S
C1727 C1731 1.393 . S
C1728 H1717 0.950 . S
C1728 C1726 1.391 . S
C1728 C1729 1.400 1_655 S
C1729 C1723 1.491 . S
C1729 C1728 1.400 1_455 S
C1729 C1730 1.398 . S
C1730 H1718 0.950 . S
C1730 C1729 1.398 . S
C1730 C1731 1.391 . S
C1731 H1719 0.950 . S
C1731 C1727 1.393 . S
C1731 C1730 1.391 . S
H1732 C1740 0.950 . S
H1733 C1745 0.950 . S
H1734 C1742 0.950 . S
H1735 C1744 0.950 . S
H1736 C1746 0.950 . S
H1737 C1748 0.950 . S
H1738 C1750 0.950 . S
H1739 C1751 0.950 . S
C1740 H1732 0.950 . S
C1740 C1741 1.386 . S
C1740 C1742 1.391 . S
C1741 C1740 1.386 . S
C1741 C1745 1.393 . S
C1742 H1734 0.950 . S
C1742 C1740 1.391 . S
C1742 C1743 1.400 . S
C1743 C1742 1.400 . S
C1743 C1744 1.398 . S
C1743 C1749 1.491 . S
C1744 H1735 0.950 . S
C1744 C1743 1.398 . S
C1744 C1745 1.391 . S
C1745 H1733 0.950 . S
C1745 C1741 1.393 . S
C1745 C1744 1.391 . S
C1746 H1736 0.950 . S
C1746 C1747 1.386 . S
C1746 C1748 1.391 . S
C1747 C1746 1.386 . S
C1747 C1751 1.393 . S
C1748 H1737 0.950 . S
C1748 C1746 1.391 . S
C1748 C1749 1.400 . S
C1749 C1743 1.491 . S
C1749 C1748 1.400 . S
C1749 C1750 1.398 . S
C1750 H1738 0.950 . S
C1750 C1749 1.398 . S
C1750 C1751 1.391 . S
C1751 H1739 0.950 . S
C1751 C1747 1.393 . S
C1751 C1750 1.391 . S
H1752 C1760 0.950 . S
H1753 C1765 0.950 . S
H1754 C1762 0.950 . S
H1755 C1764 0.950 . S
H1756 C1766 0.950 . S
H1757 C1768 0.950 . S
H1758 C1770 0.950 . S
H1759 C1771 0.950 . S
C1760 H1752 0.950 . S
C1760 C1761 1.386 . S
C1760 C1762 1.391 . S
C1761 C1760 1.386 . S
C1761 C1765 1.393 . S
C1762 H1754 0.950 . S
C1762 C1760 1.391 . S
C1762 C1763 1.400 . S
C1763 C1762 1.400 . S
C1763 C1764 1.398 . S
C1763 C1769 1.491 . S
C1764 H1755 0.950 . S
C1764 C1763 1.398 . S
C1764 C1765 1.391 . S
C1765 H1753 0.950 . S
C1765 C1761 1.393 . S
C1765 C1764 1.391 . S
C1766 H1756 0.950 . S
C1766 C1767 1.386 . S
C1766 C1768 1.391 . S
C1767 C1766 1.386 . S
C1767 C1771 1.393 . S
C1768 H1757 0.950 . S
C1768 C1766 1.391 . S
C1768 C1769 1.400 . S
C1769 C1763 1.491 . S
C1769 C1768 1.400 . S
C1769 C1770 1.398 . S
C1770 H1758 0.950 . S
C1770 C1769 1.398 . S
C1770 C1771 1.391 . S
C1771 H1759 0.950 . S
C1771 C1767 1.393 . S
C1771 C1770 1.391 . S
H1772 C1780 0.950 . S
H1773 C1785 0.950 . S
H1774 C1782 0.950 . S
H1775 C1784 0.950 . S
H1776 C1786 0.950 . S
H1777 C1788 0.950 . S
H1778 C1790 0.950 . S
H1779 C1791 0.950 . S
C1780 H1772 0.950 . S
C1780 C1781 1.386 . S
C1780 C1782 1.391 . S
C1781 C1780 1.386 . S
C1781 C1785 1.393 . S
C1782 H1774 0.950 . S
C1782 C1780 1.391 . S
C1782 C1783 1.400 . S
C1783 C1782 1.400 . S
C1783 C1784 1.398 . S
C1783 C1789 1.491 . S
C1784 H1775 0.950 . S
C1784 C1783 1.398 . S
C1784 C1785 1.391 . S
C1785 H1773 0.950 . S
C1785 C1781 1.393 . S
C1785 C1784 1.391 . S
C1786 H1776 0.950 . S
C1786 C1787 1.386 . S
C1786 C1788 1.391 . S
C1787 C1786 1.386 . S
C1787 C1791 1.393 . S
C1788 H1777 0.950 . S
C1788 C1786 1.391 . S
C1788 C1789 1.400 . S
C1789 C1783 1.491 . S
C1789 C1788 1.400 . S
C1789 C1790 1.398 . S
C1790 H1778 0.950 . S
C1790 C1789 1.398 . S
C1790 C1791 1.391 . S
C1791 H1779 0.950 . S
C1791 C1787 1.393 . S
C1791 C1790 1.391 . S
H1792 C1800 0.950 . S
H1793 C1805 0.950 . S
H1794 C1802 0.950 . S
H1795 C1804 0.950 . S
H1796 C1806 0.950 . S
H1797 C1808 0.950 . S
H1798 C1810 0.950 . S
H1799 C1811 0.950 . S
C1800 H1792 0.950 . S
C1800 C1801 1.386 . S
C1800 C1802 1.391 . S
C1801 C1800 1.386 . S
C1801 C1805 1.393 . S
C1802 H1794 0.950 . S
C1802 C1800 1.391 . S
C1802 C1803 1.400 . S
C1803 C1802 1.400 . S
C1803 C1804 1.398 . S
C1803 C1809 1.491 . S
C1804 H1795 0.950 . S
C1804 C1803 1.398 . S
C1804 C1805 1.391 . S
C1805 H1793 0.950 . S
C1805 C1801 1.393 . S
C1805 C1804 1.391 . S
C1806 H1796 0.950 . S
C1806 C1807 1.386 . S
C1806 C1808 1.391 . S
C1807 C1806 1.386 . S
C1807 C1811 1.393 . S
C1808 H1797 0.950 . S
C1808 C1806 1.391 . S
C1808 C1809 1.400 . S
C1809 C1803 1.491 . S
C1809 C1808 1.400 . S
C1809 C1810 1.398 . S
C1810 H1798 0.950 . S
C1810 C1809 1.398 . S
C1810 C1811 1.391 . S
C1811 H1799 0.950 . S
C1811 C1807 1.393 . S
C1811 C1810 1.391 . S
H1812 C1820 0.950 . S
H1813 C1825 0.950 . S
H1814 C1822 0.950 . S
H1815 C1824 0.950 . S
H1816 C1826 0.950 . S
H1817 C1828 0.950 . S
H1818 C1830 0.950 . S
H1819 C1831 0.950 . S
C1820 H1812 0.950 . S
C1820 C1821 1.386 . S
C1820 C1822 1.391 . S
C1821 C1820 1.386 . S
C1821 C1825 1.393 . S
C1822 H1814 0.950 . S
C1822 C1820 1.391 . S
C1822 C1823 1.400 . S
C1823 C1822 1.400 . S
C1823 C1824 1.398 . S
C1823 C1829 1.491 . S
C1824 H1815 0.950 . S
C1824 C1823 1.398 . S
C1824 C1825 1.391 . S
C1825 H1813 0.950 . S
C1825 C1821 1.393 . S
C1825 C1824 1.391 . S
C1826 H1816 0.950 . S
C1826 C1827 1.386 . S
C1826 C1828 1.391 . S
C1827 C1826 1.386 . S
C1827 C1831 1.393 . S
C1828 H1817 0.950 . S
C1828 C1826 1.391 . S
C1828 C1829 1.400 . S
C1829 C1823 1.491 . S
C1829 C1828 1.400 . S
C1829 C1830 1.398 . S
C1830 H1818 0.950 . S
C1830 C1829 1.398 . S
C1830 C1831 1.391 . S
C1831 H1819 0.950 . S
C1831 C1827 1.393 . S
C1831 C1830 1.391 . S
H1832 C1840 0.950 . S
H1833 C1845 0.950 . S
H1834 C1842 0.950 . S
H1835 C1844 0.950 . S
H1836 C1846 0.950 . S
H1837 C1848 0.950 . S
H1838 C1850 0.950 . S
H1839 C1851 0.950 . S
C1840 H1832 0.950 . S
C1840 C1841 1.386 . S
C1840 C1842 1.391 . S
C1841 C1840 1.386 . S
C1841 C1845 1.393 . S
C1842 H1834 0.950 . S
C1842 C1840 1.391 . S
C1842 C1843 1.400 . S
C1843 C1842 1.400 . S
C1843 C1844 1.398 . S
C1843 C1849 1.491 . S
C1844 H1835 0.950 . S
C1844 C1843 1.398 . S
C1844 C1845 1.391 . S
C1845 H1833 0.950 . S
C1845 C1841 1.393 . S
C1845 C1844 1.391 . S
C1846 H1836 0.950 . S
C1846 C1847 1.386 . S
C1846 C1848 1.391 . S
C1847 C1846 1.386 . S
C1847 C1851 1.393 . S
C1848 H1837 0.950 . S
C1848 C1846 1.391 . S
C1848 C1849 1.400 . S
C1849 C1843 1.491 . S
C1849 C1848 1.400 . S
C1849 C1850 1.398 . S
C1850 H1838 0.950 . S
C1850 C1849 1.398 . S
C1850 C1851 1.391 . S
C1851 H1839 0.950 . S
C1851 C1847 1.393 . S
C1851 C1850 1.391 . S
H1852 C1860 0.950 . S
H1853 C1865 0.950 . S
H1854 C1862 0.950 . S
H1855 C1864 0.950 . S
H1856 C1866 0.950 . S
H1857 C1868 0.950 . S
H1858 C1870 0.950 . S
H1859 C1871 0.950 . S
C1860 H1852 0.950 . S
C1860 C1861 1.386 . S
C1860 C1862 1.391 . S
C1861 C1860 1.386 . S
C1861 C1865 1.393 . S
C1862 H1854 0.950 . S
C1862 C1860 1.391 . S
C1862 C1863 1.400 . S
C1863 C1862 1.400 . S
C1863 C1864 1.398 . S
C1863 C1869 1.491 . S
C1864 H1855 0.950 . S
C1864 C1863 1.398 . S
C1864 C1865 1.391 . S
C1865 H1853 0.950 . S
C1865 C1861 1.393 . S
C1865 C1864 1.391 . S
C1866 H1856 0.950 . S
C1866 C1867 1.386 . S
C1866 C1868 1.391 . S
C1867 C1866 1.386 . S
C1867 C1871 1.393 . S
C1868 H1857 0.950 . S
C1868 C1866 1.391 . S
C1868 C1869 1.400 . S
C1869 C1863 1.491 . S
C1869 C1868 1.400 . S
C1869 C1870 1.398 . S
C1870 H1858 0.950 . S
C1870 C1869 1.398 . S
C1870 C1871 1.391 . S
C1871 H1859 0.950 . S
C1871 C1867 1.393 . S
C1871 C1870 1.391 . S
H1872 C1880 0.950 . S
H1873 C1885 0.950 . S
H1874 C1882 0.950 . S
H1875 C1884 0.950 . S
H1876 C1886 0.950 . S
H1877 C1888 0.950 . S
H1878 C1890 0.950 . S
H1879 C1891 0.950 . S
C1880 H1872 0.950 . S
C1880 C1881 1.386 . S
C1880 C1882 1.391 . S
C1881 C1880 1.386 . S
C1881 C1885 1.393 . S
C1882 H1874 0.950 . S
C1882 C1880 1.391 . S
C1882 C1883 1.400 . S
C1883 C1882 1.400 . S
C1883 C1884 1.398 . S
C1883 C1889 1.491 . S
C1884 H1875 0.950 . S
C1884 C1883 1.398 . S
C1884 C1885 1.391 . S
C1885 H1873 0.950 . S
C1885 C1881 1.393 . S
C1885 C1884 1.391 . S
C1886 H1876 0.950 . S
C1886 C1887 1.386 . S
C1886 C1888 1.391 . S
C1887 C1886 1.386 . S
C1887 C1891 1.393 . S
C1888 H1877 0.950 . S
C1888 C1886 1.391 . S
C1888 C1889 1.400 . S
C1889 C1883 1.491 . S
C1889 C1888 1.400 . S
C1889 C1890 1.398 . S
C1890 H1878 0.950 . S
C1890 C1889 1.398 . S
C1890 C1891 1.391 . S
C1891 H1879 0.950 . S
C1891 C1887 1.393 . S
C1891 C1890 1.391 . S
H1892 C1900 0.950 . S
H1893 C1905 0.950 . S
H1894 C1902 0.950 . S
H1895 C1904 0.950 . S
H1896 C1906 0.950 . S
H1897 C1908 0.950 . S
H1898 C1910 0.950 . S
H1899 C1911 0.950 . S
C1900 H1892 0.950 . S
C1900 C1901 1.386 . S
C1900 C1902 1.391 . S
C1901 C1900 1.386 . S
C1901 C1905 1.393 . S
C1902 H1894 0.950 . S
C1902 C1900 1.391 . S
C1902 C1903 1.400 . S
C1903 C1902 1.400 . S
C1903 C1904 1.398 . S
C1903 C1909 1.491 . S
C1904 H1895 0.950 . S
C1904 C1903 1.398 . S
C1904 C1905 1.391 . S
C1905 H1893 0.950 . S
C1905 C1901 1.393 . S
C1905 C1904 1.391 . S
C1906 H1896 0.950 . S
C1906 C1907 1.386 . S
C1906 C1908 1.391 . S
C1907 C1906 1.386 . S
C1907 C1911 1.393 . S
C1908 H1897 0.950 . S
C1908 C1906 1.391 . S
C1908 C1909 1.400 . S
C1909 C1903 1.491 . S
C1909 C1908 1.400 . S
C1909 C1910 1.398 . S
C1910 H1898 0.950 . S
C1910 C1909 1.398 . S
C1910 C1911 1.391 . S
C1911 H1899 0.950 . S
C1911 C1907 1.393 . S
C1911 C1910 1.391 . S
H1912 C1920 0.950 . S
H1913 C1925 0.950 . S
H1914 C1922 0.950 . S
H1915 C1924 0.950 . S
H1916 C1926 0.950 . S
H1917 C1928 0.950 . S
H1918 C1930 0.950 . S
H1919 C1931 0.950 . S
C1920 H1912 0.950 . S
C1920 C1921 1.386 . S
C1920 C1922 1.391 . S
C1921 C1920 1.386 . S
C1921 C1925 1.393 . S
C1922 H1914 0.950 . S
C1922 C1920 1.391 . S
C1922 C1923 1.400 . S
C1923 C1922 1.400 . S
C1923 C1924 1.398 . S
C1923 C1929 1.491 . S
C1924 H1915 0.950 . S
C1924 C1923 1.398 . S
C1924 C1925 1.391 . S
C1925 H1913 0.950 . S
C1925 C1921 1.393 . S
C1925 C1924 1.391 . S
C1926 H1916 0.950 . S
C1926 C1927 1.386 . S
C1926 C1928 1.391 . S
C1927 C1926 1.386 . S
C1927 C1931 1.393 . S
C1928 H1917 0.950 . S
C1928 C1926 1.391 . S
C1928 C1929 1.400 . S
C1929 C1923 1.491 . S
C1929 C1928 1.400 . S
C1929 C1930 1.398 . S
C1930 H1918 0.950 . S
C1930 C1929 1.398 . S
C1930 C1931 1.391 . S
C1931 H1919 0.950 . S
C1931 C1927 1.393 . S
C1931 C1930 1.391 . S
H1932 C1940 0.950 . S
H1933 C1945 0.950 . S
H1934 C1942 0.950 . S
H1935 C1944 0.950 . S
H1936 C1946 0.950 . S
H1937 C1948 0.950 . S
H1938 C1950 0.950 . S
H1939 C1951 0.950 . S
C1940 H1932 0.950 . S
C1940 C1941 1.386 . S
C1940 C1942 1.391 . S
C1941 C1940 1.386 . S
C1941 C1945 1.393 . S
C1942 H1934 0.950 . S
C1942 C1940 1.391 . S
C1942 C1943 1.400 . S
C1943 C1942 1.400 . S
C1943 C1944 1.398 . S
C1943 C1949 1.491 . S
C1944 H1935 0.950 . S
C1944 C1943 1.398 . S
C1944 C1945 1.391 . S
C1945 H1933 0.950 . S
C1945 C1941 1.393 . S
C1945 C1944 1.391 . S
C1946 H1936 0.950 . S
C1946 C1947 1.386 . S
C1946 C1948 1.391 . S
C1947 C1946 1.386 . S
C1947 C1951 1.393 . S
C1948 H1937 0.950 . S
C1948 C1946 1.391 . S
C1948 C1949 1.400 . S
C1949 C1943 1.491 . S
C1949 C1948 1.400 . S
C1949 C1950 1.398 . S
C1950 H1938 0.950 . S
C1950 C1949 1.398 . S
C1950 C1951 1.391 . S
C1951 H1939 0.950 . S
C1951 C1947 1.393 . S
C1951 C1950 1.391 . S
H1952 C1960 0.950 . S
H1953 C1965 0.950 . S
H1954 C1962 0.950 . S
H1955 C1964 0.950 . S
H1956 C1966 0.950 . S
H1957 C1968 0.950 . S
H1958 C1970 0.950 . S
H1959 C1971 0.950 . S
C1960 H1952 0.950 . S
C1960 C1961 1.386 . S
C1960 C1962 1.391 . S
C1961 C1960 1.386 . S
C1961 C1965 1.393 . S
C1962 H1954 0.950 . S
C1962 C1960 1.391 . S
C1962 C1963 1.400 . S
C1963 C1962 1.400 . S
C1963 C1964 1.398 . S
C1963 C1969 1.491 . S
C1964 H1955 0.950 . S
C1964 C1963 1.398 . S
C1964 C1965 1.391 . S
C1965 H1953 0.950 . S
C1965 C1961 1.393 . S
C1965 C1964 1.391 . S
C1966 H1956 0.950 . S
C1966 C1967 1.386 . S
C1966 C1968 1.391 . S
C1967 C1966 1.386 . S
C1967 C1971 1.393 . S
C1968 H1957 0.950 . S
C1968 C1966 1.391 . S
C1968 C1969 1.400 . S
C1969 C1963 1.491 . S
C1969 C1968 1.400 . S
C1969 C1970 1.398 . S
C1970 H1958 0.950 . S
C1970 C1969 1.398 . S
C1970 C1971 1.391 . S
C1971 H1959 0.950 . S
C1971 C1967 1.393 . S
C1971 C1970 1.391 . S
H1972 C1980 0.950 . S
H1973 C1985 0.950 . S
H1974 C1982 0.950 . S
H1975 C1984 0.950 . S
H1976 C1986 0.950 1_545 S
H1977 C1988 0.950 . S
H1978 C1990 0.950 . S
H1979 C1991 0.950 . S
C1980 H1972 0.950 . S
C1980 C1981 1.386 . S
C1980 C1982 1.391 . S
C1981 C1980 1.386 . S
C1981 C1985 1.393 . S
C1982 H1974 0.950 . S
C1982 C1980 1.391 . S
C1982 C1983 1.400 . S
C1983 C1982 1.400 . S
C1983 C1984 1.398 . S
C1983 C1989 1.491 . S
C1984 H1975 0.950 . S
C1984 C1983 1.398 . S
C1984 C1985 1.391 . S
C1985 H1973 0.950 . S
C1985 C1981 1.393 . S
C1985 C1984 1.391 . S
C1986 H1976 0.950 1_565 S
C1986 C1987 1.386 . S
C1986 C1988 1.391 . S
C1987 C1986 1.386 . S
C1987 C1991 1.393 . S
C1988 H1977 0.950 . S
C1988 C1986 1.391 . S
C1988 C1989 1.400 . S
C1989 C1983 1.491 . S
C1989 C1988 1.400 . S
C1989 C1990 1.398 . S
C1990 H1978 0.950 . S
C1990 C1989 1.398 . S
C1990 C1991 1.391 . S
C1991 H1979 0.950 . S
C1991 C1987 1.393 . S
C1991 C1990 1.391 . S
H1992 C2000 0.950 . S
H1993 C2005 0.950 . S
H1994 C2002 0.950 . S
H1995 C2004 0.950 . S
H1996 C2006 0.950 . S
H1997 C2008 0.950 . S
H1998 C2010 0.950 . S
H1999 C2011 0.950 . S
C2000 H1992 0.950 . S
C2000 C2001 1.386 . S
C2000 C2002 1.391 . S
C2001 C2000 1.386 . S
C2001 C2005 1.393 . S
C2002 H1994 0.950 . S
C2002 C2000 1.391 . S
C2002 C2003 1.400 . S
C2003 C2002 1.400 . S
C2003 C2004 1.398 . S
C2003 C2009 1.491 . S
C2004 H1995 0.950 . S
C2004 C2003 1.398 . S
C2004 C2005 1.391 . S
C2005 H1993 0.950 . S
C2005 C2001 1.393 . S
C2005 C2004 1.391 . S
C2006 H1996 0.950 . S
C2006 C2007 1.386 . S
C2006 C2008 1.391 . S
C2007 C2006 1.386 . S
C2007 C2011 1.393 . S
C2008 H1997 0.950 . S
C2008 C2006 1.391 . S
C2008 C2009 1.400 . S
C2009 C2003 1.491 . S
C2009 C2008 1.400 . S
C2009 C2010 1.398 . S
C2010 H1998 0.950 . S
C2010 C2009 1.398 . S
C2010 C2011 1.391 . S
C2011 H1999 0.950 . S
C2011 C2007 1.393 . S
C2011 C2010 1.391 . S
H2012 C2020 0.950 . S
H2013 C2025 0.950 . S
H2014 C2022 0.950 . S
H2015 C2024 0.950 . S
H2016 C2026 0.950 . S
H2017 C2028 0.950 . S
H2018 C2030 0.950 . S
H2019 C2031 0.950 . S
C2020 H2012 0.950 . S
C2020 C2021 1.380 1_556 S
C2020 C2022 1.391 . S
C2021 C2020 1.380 1_554 S
C2021 C2025 1.404 . S
C2022 H2014 0.950 . S
C2022 C2020 1.391 . S
C2022 C2023 1.400 1_556 S
C2023 C2022 1.400 1_554 S
C2023 C2024 1.398 . S
C2023 C2029 1.491 . S
C2024 H2015 0.950 . S
C2024 C2023 1.398 . S
C2024 C2025 1.391 . S
C2025 H2013 0.950 . S
C2025 C2021 1.404 . S
C2025 C2024 1.391 . S
C2026 H2016 0.950 . S
C2026 C2027 1.386 . S
C2026 C2028 1.391 . S
C2027 C2026 1.386 . S
C2027 C2031 1.393 . S
C2028 H2017 0.950 . S
C2028 C2026 1.391 . S
C2028 C2029 1.400 . S
C2029 C2023 1.491 . S
C2029 C2028 1.400 . S
C2029 C2030 1.398 . S
C2030 H2018 0.950 . S
C2030 C2029 1.398 . S
C2030 C2031 1.391 . S
C2031 H2019 0.950 . S
C2031 C2027 1.393 . S
C2031 C2030 1.391 . S
H2032 C2040 0.950 . S
H2033 C2045 0.950 . S
H2034 C2042 0.950 . S
H2035 C2044 0.950 . S
H2036 C2046 0.950 . S
H2037 C2048 0.950 . S
H2038 C2050 0.950 . S
H2039 C2051 0.950 . S
C2040 H2032 0.950 . S
C2040 C2041 1.386 . S
C2040 C2042 1.391 . S
C2041 C2040 1.386 . S
C2041 C2045 1.393 . S
C2042 H2034 0.950 . S
C2042 C2040 1.391 . S
C2042 C2043 1.400 . S
C2043 C2042 1.400 . S
C2043 C2044 1.398 . S
C2043 C2049 1.491 . S
C2044 H2035 0.950 . S
C2044 C2043 1.398 . S
C2044 C2045 1.391 . S
C2045 H2033 0.950 . S
C2045 C2041 1.393 . S
C2045 C2044 1.391 . S
C2046 H2036 0.950 . S
C2046 C2047 1.386 . S
C2046 C2048 1.391 . S
C2047 C2046 1.386 . S
C2047 C2051 1.393 . S
C2048 H2037 0.950 . S
C2048 C2046 1.391 . S
C2048 C2049 1.400 . S
C2049 C2043 1.491 . S
C2049 C2048 1.400 . S
C2049 C2050 1.398 . S
C2050 H2038 0.950 . S
C2050 C2049 1.398 . S
C2050 C2051 1.391 . S
C2051 H2039 0.950 . S
C2051 C2047 1.393 . S
C2051 C2050 1.391 . S
H2052 C2060 0.950 . S
H2053 C2065 0.950 . S
H2054 C2062 0.950 . S
H2055 C2064 0.950 . S
H2056 C2066 0.950 . S
H2057 C2068 0.950 . S
H2058 C2070 0.950 . S
H2059 C2071 0.950 . S
C2060 H2052 0.950 . S
C2060 C2061 1.386 . S
C2060 C2062 1.391 . S
C2061 C2060 1.386 . S
C2061 C2065 1.393 . S
C2062 H2054 0.950 . S
C2062 C2060 1.391 . S
C2062 C2063 1.400 . S
C2063 C2062 1.400 . S
C2063 C2064 1.398 . S
C2063 C2069 1.491 . S
C2064 H2055 0.950 . S
C2064 C2063 1.398 . S
C2064 C2065 1.391 . S
C2065 H2053 0.950 . S
C2065 C2061 1.393 . S
C2065 C2064 1.391 . S
C2066 H2056 0.950 . S
C2066 C2067 1.386 . S
C2066 C2068 1.391 . S
C2067 C2066 1.386 . S
C2067 C2071 1.393 . S
C2068 H2057 0.950 . S
C2068 C2066 1.391 . S
C2068 C2069 1.400 . S
C2069 C2063 1.491 . S
C2069 C2068 1.400 . S
C2069 C2070 1.398 . S
C2070 H2058 0.950 . S
C2070 C2069 1.398 . S
C2070 C2071 1.391 . S
C2071 H2059 0.950 . S
C2071 C2067 1.393 . S
C2071 C2070 1.391 . S
H2072 C2080 0.950 . S
H2073 C2085 0.950 . S
H2074 C2082 0.950 . S
H2075 C2084 0.950 . S
H2076 C2086 0.950 . S
H2077 C2088 0.950 . S
H2078 C2090 0.950 . S
H2079 C2091 0.950 . S
C2080 H2072 0.950 . S
C2080 C2081 1.386 . S
C2080 C2082 1.391 . S
C2081 C2080 1.386 . S
C2081 C2085 1.393 . S
C2082 H2074 0.950 . S
C2082 C2080 1.391 . S
C2082 C2083 1.400 . S
C2083 C2082 1.400 . S
C2083 C2084 1.398 . S
C2083 C2089 1.491 . S
C2084 H2075 0.950 . S
C2084 C2083 1.398 . S
C2084 C2085 1.391 . S
C2085 H2073 0.950 . S
C2085 C2081 1.393 . S
C2085 C2084 1.391 . S
C2086 H2076 0.950 . S
C2086 C2087 1.386 . S
C2086 C2088 1.391 . S
C2087 C2086 1.386 . S
C2087 C2091 1.393 . S
C2088 H2077 0.950 . S
C2088 C2086 1.391 . S
C2088 C2089 1.400 . S
C2089 C2083 1.491 . S
C2089 C2088 1.400 . S
C2089 C2090 1.398 . S
C2090 H2078 0.950 . S
C2090 C2089 1.398 . S
C2090 C2091 1.391 . S
C2091 H2079 0.950 . S
C2091 C2087 1.393 . S
C2091 C2090 1.391 . S
H2092 C2100 0.950 . S
H2093 C2105 0.950 . S
H2094 C2102 0.950 . S
H2095 C2104 0.950 . S
H2096 C2106 0.950 . S
H2097 C2108 0.950 . S
H2098 C2110 0.950 . S
H2099 C2111 0.950 . S
C2100 H2092 0.950 . S
C2100 C2101 1.386 . S
C2100 C2102 1.391 . S
C2101 C2100 1.386 . S
C2101 C2105 1.393 . S
C2102 H2094 0.950 . S
C2102 C2100 1.391 . S
C2102 C2103 1.400 . S
C2103 C2102 1.400 . S
C2103 C2104 1.398 . S
C2103 C2109 1.491 . S
C2104 H2095 0.950 . S
C2104 C2103 1.398 . S
C2104 C2105 1.391 . S
C2105 H2093 0.950 . S
C2105 C2101 1.393 . S
C2105 C2104 1.391 . S
C2106 H2096 0.950 . S
C2106 C2107 1.386 . S
C2106 C2108 1.391 . S
C2107 C2106 1.386 . S
C2107 C2111 1.393 . S
C2108 H2097 0.950 . S
C2108 C2106 1.391 . S
C2108 C2109 1.400 . S
C2109 C2103 1.491 . S
C2109 C2108 1.400 . S
C2109 C2110 1.398 . S
C2110 H2098 0.950 . S
C2110 C2109 1.398 . S
C2110 C2111 1.391 . S
C2111 H2099 0.950 . S
C2111 C2107 1.393 . S
C2111 C2110 1.391 . S
H2112 C2120 0.950 . S
H2113 C2125 0.950 . S
H2114 C2122 0.950 . S
H2115 C2124 0.950 . S
H2116 C2126 0.950 . S
H2117 C2128 0.950 . S
H2118 C2130 0.950 . S
H2119 C2131 0.950 . S
C2120 H2112 0.950 . S
C2120 C2121 1.386 . S
C2120 C2122 1.391 . S
C2121 C2120 1.386 . S
C2121 C2125 1.393 . S
C2122 H2114 0.950 . S
C2122 C2120 1.391 . S
C2122 C2123 1.400 . S
C2123 C2122 1.400 . S
C2123 C2124 1.398 . S
C2123 C2129 1.491 . S
C2124 H2115 0.950 . S
C2124 C2123 1.398 . S
C2124 C2125 1.391 . S
C2125 H2113 0.950 . S
C2125 C2121 1.393 . S
C2125 C2124 1.391 . S
C2126 H2116 0.950 . S
C2126 C2127 1.386 . S
C2126 C2128 1.391 . S
C2127 C2126 1.386 . S
C2127 C2131 1.393 . S
C2128 H2117 0.950 . S
C2128 C2126 1.391 . S
C2128 C2129 1.400 . S
C2129 C2123 1.491 . S
C2129 C2128 1.400 . S
C2129 C2130 1.398 . S
C2130 H2118 0.950 . S
C2130 C2129 1.398 . S
C2130 C2131 1.391 . S
C2131 H2119 0.950 . S
C2131 C2127 1.393 . S
C2131 C2130 1.391 . S
H2132 C2140 0.950 . S
H2133 C2145 0.950 . S
H2134 C2142 0.950 . S
H2135 C2144 0.950 . S
H2136 C2146 0.950 . S
H2137 C2148 0.950 . S
H2138 C2150 0.950 . S
H2139 C2151 0.950 . S
C2140 H2132 0.950 . S
C2140 C2141 1.386 . S
C2140 C2142 1.391 . S
C2141 C2140 1.386 . S
C2141 C2145 1.393 . S
C2142 H2134 0.950 . S
C2142 C2140 1.391 . S
C2142 C2143 1.400 . S
C2143 C2142 1.400 . S
C2143 C2144 1.398 . S
C2143 C2149 1.491 . S
C2144 H2135 0.950 . S
C2144 C2143 1.398 . S
C2144 C2145 1.391 . S
C2145 H2133 0.950 . S
C2145 C2141 1.393 . S
C2145 C2144 1.391 . S
C2146 H2136 0.950 . S
C2146 C2147 1.386 . S
C2146 C2148 1.391 . S
C2147 C2146 1.386 . S
C2147 C2151 1.393 . S
C2148 H2137 0.950 . S
C2148 C2146 1.391 . S
C2148 C2149 1.400 . S
C2149 C2143 1.491 . S
C2149 C2148 1.400 . S
C2149 C2150 1.398 . S
C2150 H2138 0.950 . S
C2150 C2149 1.398 . S
C2150 C2151 1.391 . S
C2151 H2139 0.950 . S
C2151 C2147 1.393 . S
C2151 C2150 1.391 . S
H2152 C2160 0.950 . S
H2153 C2165 0.950 . S
H2154 C2162 0.950 . S
H2155 C2164 0.950 . S
H2156 C2166 0.950 . S
H2157 C2168 0.950 . S
H2158 C2170 0.950 . S
H2159 C2171 0.950 1_554 S
C2160 H2152 0.950 . S
C2160 C2161 1.386 . S
C2160 C2162 1.391 . S
C2161 C2160 1.386 . S
C2161 C2165 1.393 . S
C2162 H2154 0.950 . S
C2162 C2160 1.391 . S
C2162 C2163 1.400 . S
C2163 C2162 1.400 . S
C2163 C2164 1.398 . S
C2163 C2169 1.491 . S
C2164 H2155 0.950 . S
C2164 C2163 1.398 . S
C2164 C2165 1.391 . S
C2165 H2153 0.950 . S
C2165 C2161 1.393 . S
C2165 C2164 1.391 . S
C2166 H2156 0.950 . S
C2166 C2167 1.386 . S
C2166 C2168 1.391 . S
C2167 C2166 1.386 . S
C2167 C2171 1.393 . S
C2168 H2157 0.950 . S
C2168 C2166 1.391 . S
C2168 C2169 1.400 . S
C2169 C2163 1.491 . S
C2169 C2168 1.400 . S
C2169 C2170 1.398 . S
C2170 H2158 0.950 . S
C2170 C2169 1.398 . S
C2170 C2171 1.391 . S
C2171 H2159 0.950 1_556 S
C2171 C2167 1.393 . S
C2171 C2170 1.391 . S
H2172 C2180 0.950 . S
H2173 C2185 0.950 . S
H2174 C2182 0.950 . S
H2175 C2184 0.950 . S
H2176 C2186 0.950 . S
H2177 C2188 0.950 . S
H2178 C2190 0.950 . S
H2179 C2191 0.950 . S
C2180 H2172 0.950 . S
C2180 C2181 1.386 . S
C2180 C2182 1.391 . S
C2181 C2180 1.386 . S
C2181 C2185 1.393 . S
C2182 H2174 0.950 . S
C2182 C2180 1.391 . S
C2182 C2183 1.400 . S
C2183 C2182 1.400 . S
C2183 C2184 1.398 . S
C2183 C2189 1.491 . S
C2184 H2175 0.950 . S
C2184 C2183 1.398 . S
C2184 C2185 1.391 . S
C2185 H2173 0.950 . S
C2185 C2181 1.393 . S
C2185 C2184 1.391 . S
C2186 H2176 0.950 . S
C2186 C2187 1.386 . S
C2186 C2188 1.391 . S
C2187 C2186 1.386 . S
C2187 C2191 1.393 . S
C2188 H2177 0.950 . S
C2188 C2186 1.391 . S
C2188 C2189 1.400 . S
C2189 C2183 1.491 . S
C2189 C2188 1.400 . S
C2189 C2190 1.398 . S
C2190 H2178 0.950 . S
C2190 C2189 1.398 . S
C2190 C2191 1.391 . S
C2191 H2179 0.950 . S
C2191 C2187 1.393 . S
C2191 C2190 1.391 . S
H2192 C2200 0.950 1_655 S
H2193 C2205 0.950 . S
H2194 C2202 0.950 1_655 S
H2195 C2204 0.950 . S
H2196 C2206 0.950 . S
H2197 C2208 0.950 . S
H2198 C2210 0.950 1_655 S
H2199 C2211 0.950 1_655 S
C2200 H2192 0.950 1_455 S
C2200 C2201 1.386 . S
C2200 C2202 1.391 . S
C2201 C2200 1.386 . S
C2201 C2205 1.393 . S
C2202 H2194 0.950 1_455 S
C2202 C2200 1.391 . S
C2202 C2203 1.400 . S
C2203 C2202 1.400 . S
C2203 C2204 1.398 . S
C2203 C2209 1.491 . S
C2204 H2195 0.950 . S
C2204 C2203 1.398 . S
C2204 C2205 1.391 . S
C2205 H2193 0.950 . S
C2205 C2201 1.393 . S
C2205 C2204 1.391 . S
C2206 H2196 0.950 . S
C2206 C2207 1.386 . S
C2206 C2208 1.391 . S
C2207 C2206 1.386 . S
C2207 C2211 1.393 . S
C2208 H2197 0.950 . S
C2208 C2206 1.391 . S
C2208 C2209 1.400 . S
C2209 C2203 1.491 . S
C2209 C2208 1.400 . S
C2209 C2210 1.398 . S
C2210 H2198 0.950 1_455 S
C2210 C2209 1.398 . S
C2210 C2211 1.391 . S
C2211 H2199 0.950 1_455 S
C2211 C2207 1.393 . S
C2211 C2210 1.391 . S
H2212 C2220 0.950 . S
H2213 C2225 0.950 . S
H2214 C2222 0.950 . S
H2215 C2224 0.950 . S
H2216 C2226 0.950 . S
H2217 C2228 0.950 . S
H2218 C2230 0.950 . S
H2219 C2231 0.950 . S
C2220 H2212 0.950 . S
C2220 C2221 1.386 . S
C2220 C2222 1.391 . S
C2221 C2220 1.386 . S
C2221 C2225 1.393 . S
C2222 H2214 0.950 . S
C2222 C2220 1.391 . S
C2222 C2223 1.400 . S
C2223 C2222 1.400 . S
C2223 C2224 1.398 . S
C2223 C2229 1.491 . S
C2224 H2215 0.950 . S
C2224 C2223 1.398 . S
C2224 C2225 1.391 . S
C2225 H2213 0.950 . S
C2225 C2221 1.393 . S
C2225 C2224 1.391 . S
C2226 H2216 0.950 . S
C2226 C2227 1.386 . S
C2226 C2228 1.391 . S
C2227 C2226 1.386 . S
C2227 C2231 1.393 . S
C2228 H2217 0.950 . S
C2228 C2226 1.391 . S
C2228 C2229 1.400 . S
C2229 C2223 1.491 . S
C2229 C2228 1.400 . S
C2229 C2230 1.398 . S
C2230 H2218 0.950 . S
C2230 C2229 1.398 . S
C2230 C2231 1.391 . S
C2231 H2219 0.950 . S
C2231 C2227 1.393 . S
C2231 C2230 1.391 . S
H2232 C2240 0.950 . S
H2233 C2245 0.950 . S
H2234 C2242 0.950 . S
H2235 C2244 0.950 . S
H2236 C2246 0.950 . S
H2237 C2248 0.950 . S
H2238 C2250 0.950 . S
H2239 C2251 0.950 . S
C2240 H2232 0.950 . S
C2240 C2241 1.386 . S
C2240 C2242 1.391 . S
C2241 C2240 1.386 . S
C2241 C2245 1.393 . S
C2242 H2234 0.950 . S
C2242 C2240 1.391 . S
C2242 C2243 1.400 . S
C2243 C2242 1.400 . S
C2243 C2244 1.398 . S
C2243 C2249 1.491 . S
C2244 H2235 0.950 . S
C2244 C2243 1.398 . S
C2244 C2245 1.391 . S
C2245 H2233 0.950 . S
C2245 C2241 1.393 . S
C2245 C2244 1.391 . S
C2246 H2236 0.950 . S
C2246 C2247 1.386 . S
C2246 C2248 1.391 . S
C2247 C2246 1.386 . S
C2247 C2251 1.393 . S
C2248 H2237 0.950 . S
C2248 C2246 1.391 . S
C2248 C2249 1.400 . S
C2249 C2243 1.491 . S
C2249 C2248 1.400 . S
C2249 C2250 1.398 . S
C2250 H2238 0.950 . S
C2250 C2249 1.398 . S
C2250 C2251 1.391 . S
C2251 H2239 0.950 . S
C2251 C2247 1.393 . S
C2251 C2250 1.391 . S
H2252 C2260 0.950 . S
H2253 C2265 0.950 . S
H2254 C2262 0.950 . S
H2255 C2264 0.950 . S
H2256 C2266 0.950 . S
H2257 C2268 0.950 . S
H2258 C2270 0.950 . S
H2259 C2271 0.950 . S
C2260 H2252 0.950 . S
C2260 C2261 1.386 . S
C2260 C2262 1.391 . S
C2261 C2260 1.386 . S
C2261 C2265 1.393 . S
C2262 H2254 0.950 . S
C2262 C2260 1.391 . S
C2262 C2263 1.400 . S
C2263 C2262 1.400 . S
C2263 C2264 1.398 . S
C2263 C2269 1.491 . S
C2264 H2255 0.950 . S
C2264 C2263 1.398 . S
C2264 C2265 1.391 . S
C2265 H2253 0.950 . S
C2265 C2261 1.393 . S
C2265 C2264 1.391 . S
C2266 H2256 0.950 . S
C2266 C2267 1.386 . S
C2266 C2268 1.391 . S
C2267 C2266 1.386 . S
C2267 C2271 1.393 . S
C2268 H2257 0.950 . S
C2268 C2266 1.391 . S
C2268 C2269 1.400 . S
C2269 C2263 1.491 . S
C2269 C2268 1.400 . S
C2269 C2270 1.398 . S
C2270 H2258 0.950 . S
C2270 C2269 1.398 . S
C2270 C2271 1.391 . S
C2271 H2259 0.950 . S
C2271 C2267 1.393 . S
C2271 C2270 1.391 . S
H2272 C2280 0.950 . S
H2273 C2285 0.950 . S
H2274 C2282 0.950 . S
H2275 C2284 0.950 . S
H2276 C2286 0.950 . S
H2277 C2288 0.950 . S
H2278 C2290 0.950 1_455 S
H2279 C2291 0.950 . S
C2280 H2272 0.950 . S
C2280 C2281 1.386 . S
C2280 C2282 1.391 . S
C2281 C2280 1.386 . S
C2281 C2285 1.393 . S
C2282 H2274 0.950 . S
C2282 C2280 1.391 . S
C2282 C2283 1.400 . S
C2283 C2282 1.400 . S
C2283 C2284 1.398 . S
C2283 C2289 1.491 . S
C2284 H2275 0.950 . S
C2284 C2283 1.398 . S
C2284 C2285 1.391 . S
C2285 H2273 0.950 . S
C2285 C2281 1.393 . S
C2285 C2284 1.391 . S
C2286 H2276 0.950 . S
C2286 C2287 1.386 . S
C2286 C2288 1.391 . S
C2287 C2286 1.386 . S
C2287 C2291 1.393 1_655 S
C2288 H2277 0.950 . S
C2288 C2286 1.391 . S
C2288 C2289 1.400 . S
C2289 C2283 1.491 . S
C2289 C2288 1.400 . S
C2289 C2290 1.398 . S
C2290 H2278 0.950 1_655 S
C2290 C2289 1.398 . S
C2290 C2291 1.391 1_655 S
C2291 H2279 0.950 . S
C2291 C2287 1.393 1_455 S
C2291 C2290 1.391 1_455 S
H2292 C2300 0.950 . S
H2293 C2305 0.950 . S
H2294 C2302 0.950 . S
H2295 C2304 0.950 . S
H2296 C2306 0.950 . S
H2297 C2308 0.950 . S
H2298 C2310 0.950 . S
H2299 C2311 0.950 . S
C2300 H2292 0.950 . S
C2300 C2301 1.386 . S
C2300 C2302 1.391 . S
C2301 C2300 1.386 . S
C2301 C2305 1.393 . S
C2302 H2294 0.950 . S
C2302 C2300 1.391 . S
C2302 C2303 1.400 . S
C2303 C2302 1.400 . S
C2303 C2304 1.398 . S
C2303 C2309 1.491 . S
C2304 H2295 0.950 . S
C2304 C2303 1.398 . S
C2304 C2305 1.391 . S
C2305 H2293 0.950 . S
C2305 C2301 1.393 . S
C2305 C2304 1.391 . S
C2306 H2296 0.950 . S
C2306 C2307 1.386 . S
C2306 C2308 1.391 . S
C2307 C2306 1.386 . S
C2307 C2311 1.393 . S
C2308 H2297 0.950 . S
C2308 C2306 1.391 . S
C2308 C2309 1.400 . S
C2309 C2303 1.491 . S
C2309 C2308 1.400 . S
C2309 C2310 1.398 . S
C2310 H2298 0.950 . S
C2310 C2309 1.398 . S
C2310 C2311 1.391 . S
C2311 H2299 0.950 . S
C2311 C2307 1.393 . S
C2311 C2310 1.391 . S
H2312 C2320 0.950 . S
H2313 C2325 0.950 . S
H2314 C2322 0.950 . S
H2315 C2324 0.950 . S
H2316 C2326 0.950 . S
H2317 C2328 0.950 . S
H2318 C2330 0.950 . S
H2319 C2331 0.950 . S
C2320 H2312 0.950 . S
C2320 C2321 1.386 . S
C2320 C2322 1.391 . S
C2321 C2320 1.386 . S
C2321 C2325 1.393 . S
C2322 H2314 0.950 . S
C2322 C2320 1.391 . S
C2322 C2323 1.400 . S
C2323 C2322 1.400 . S
C2323 C2324 1.398 . S
C2323 C2329 1.491 . S
C2324 H2315 0.950 . S
C2324 C2323 1.398 . S
C2324 C2325 1.391 . S
C2325 H2313 0.950 . S
C2325 C2321 1.393 . S
C2325 C2324 1.391 . S
C2326 H2316 0.950 . S
C2326 C2327 1.386 . S
C2326 C2328 1.391 . S
C2327 C2326 1.386 . S
C2327 C2331 1.393 . S
C2328 H2317 0.950 . S
C2328 C2326 1.391 . S
C2328 C2329 1.400 . S
C2329 C2323 1.491 . S
C2329 C2328 1.400 . S
C2329 C2330 1.398 . S
C2330 H2318 0.950 . S
C2330 C2329 1.398 . S
C2330 C2331 1.391 . S
C2331 H2319 0.950 . S
C2331 C2327 1.393 . S
C2331 C2330 1.391 . S
H2332 C2340 0.950 . S
H2333 C2345 0.950 . S
H2334 C2342 0.950 . S
H2335 C2344 0.950 . S
H2336 C2346 0.950 . S
H2337 C2348 0.950 . S
H2338 C2350 0.950 . S
H2339 C2351 0.950 . S
C2340 H2332 0.950 . S
C2340 C2341 1.386 . S
C2340 C2342 1.391 . S
C2341 C2340 1.386 . S
C2341 C2345 1.393 . S
C2342 H2334 0.950 . S
C2342 C2340 1.391 . S
C2342 C2343 1.400 . S
C2343 C2342 1.400 . S
C2343 C2344 1.398 . S
C2343 C2349 1.491 . S
C2344 H2335 0.950 . S
C2344 C2343 1.398 . S
C2344 C2345 1.391 . S
C2345 H2333 0.950 . S
C2345 C2341 1.393 . S
C2345 C2344 1.391 . S
C2346 H2336 0.950 . S
C2346 C2347 1.386 . S
C2346 C2348 1.391 . S
C2347 C2346 1.386 . S
C2347 C2351 1.393 . S
C2348 H2337 0.950 . S
C2348 C2346 1.391 . S
C2348 C2349 1.400 . S
C2349 C2343 1.491 . S
C2349 C2348 1.400 . S
C2349 C2350 1.398 . S
C2350 H2338 0.950 . S
C2350 C2349 1.398 . S
C2350 C2351 1.391 . S
C2351 H2339 0.950 . S
C2351 C2347 1.393 . S
C2351 C2350 1.391 . S
H2352 C2360 0.950 . S
H2353 C2365 0.950 . S
H2354 C2362 0.950 . S
H2355 C2364 0.950 . S
H2356 C2366 0.950 1_455 S
H2357 C2368 0.950 . S
H2358 C2370 0.950 . S
H2359 C2371 0.950 . S
C2360 H2352 0.950 . S
C2360 C2361 1.386 . S
C2360 C2362 1.391 . S
C2361 C2360 1.386 . S
C2361 C2365 1.393 . S
C2362 H2354 0.950 . S
C2362 C2360 1.391 . S
C2362 C2363 1.400 . S
C2363 C2362 1.400 . S
C2363 C2364 1.398 . S
C2363 C2369 1.491 . S
C2364 H2355 0.950 . S
C2364 C2363 1.398 . S
C2364 C2365 1.391 . S
C2365 H2353 0.950 . S
C2365 C2361 1.393 . S
C2365 C2364 1.391 . S
C2366 H2356 0.950 1_655 S
C2366 C2367 1.386 . S
C2366 C2368 1.391 . S
C2367 C2366 1.386 . S
C2367 C2371 1.393 . S
C2368 H2357 0.950 . S
C2368 C2366 1.391 . S
C2368 C2369 1.400 . S
C2369 C2363 1.491 . S
C2369 C2368 1.400 . S
C2369 C2370 1.398 . S
C2370 H2358 0.950 . S
C2370 C2369 1.398 . S
C2370 C2371 1.391 . S
C2371 H2359 0.950 . S
C2371 C2367 1.393 . S
C2371 C2370 1.391 . S
H2372 C2380 0.950 . S
H2373 C2385 0.950 . S
H2374 C2382 0.950 . S
H2375 C2384 0.950 . S
H2376 C2386 0.950 . S
H2377 C2388 0.950 . S
H2378 C2390 0.950 . S
H2379 C2391 0.950 . S
C2380 H2372 0.950 . S
C2380 C2381 1.386 . S
C2380 C2382 1.391 . S
C2381 C2380 1.386 . S
C2381 C2385 1.393 . S
C2382 H2374 0.950 . S
C2382 C2380 1.391 . S
C2382 C2383 1.400 . S
C2383 C2382 1.400 . S
C2383 C2384 1.398 . S
C2383 C2389 1.491 . S
C2384 H2375 0.950 . S
C2384 C2383 1.398 . S
C2384 C2385 1.391 . S
C2385 H2373 0.950 . S
C2385 C2381 1.393 . S
C2385 C2384 1.391 . S
C2386 H2376 0.950 . S
C2386 C2387 1.386 . S
C2386 C2388 1.391 . S
C2387 C2386 1.386 . S
C2387 C2391 1.393 . S
C2388 H2377 0.950 . S
C2388 C2386 1.391 . S
C2388 C2389 1.400 . S
C2389 C2383 1.491 . S
C2389 C2388 1.400 . S
C2389 C2390 1.398 . S
C2390 H2378 0.950 . S
C2390 C2389 1.398 . S
C2390 C2391 1.391 . S
C2391 H2379 0.950 . S
C2391 C2387 1.393 . S
C2391 C2390 1.391 . S
H2392 C2400 0.950 . S
H2393 C2405 0.950 . S
H2394 C2402 0.950 . S
H2395 C2404 0.950 . S
H2396 C2406 0.950 . S
H2397 C2408 0.950 . S
H2398 C2410 0.950 . S
H2399 C2411 0.950 . S
C2400 H2392 0.950 . S
C2400 C2401 1.386 . S
C2400 C2402 1.391 . S
C2401 C2400 1.386 . S
C2401 C2405 1.393 . S
C2402 H2394 0.950 . S
C2402 C2400 1.391 . S
C2402 C2403 1.400 . S
C2403 C2402 1.400 . S
C2403 C2404 1.398 . S
C2403 C2409 1.491 . S
C2404 H2395 0.950 . S
C2404 C2403 1.398 . S
C2404 C2405 1.391 . S
C2405 H2393 0.950 . S
C2405 C2401 1.393 . S
C2405 C2404 1.391 . S
C2406 H2396 0.950 . S
C2406 C2407 1.386 . S
C2406 C2408 1.391 . S
C2407 C2406 1.386 . S
C2407 C2411 1.393 . S
C2408 H2397 0.950 . S
C2408 C2406 1.391 . S
C2408 C2409 1.400 . S
C2409 C2403 1.491 . S
C2409 C2408 1.400 . S
C2409 C2410 1.398 . S
C2410 H2398 0.950 . S
C2410 C2409 1.398 . S
C2410 C2411 1.391 . S
C2411 H2399 0.950 . S
C2411 C2407 1.393 . S
C2411 C2410 1.391 . S
H2412 C2420 0.950 . S
H2413 C2425 0.950 . S
H2414 C2422 0.950 . S
H2415 C2424 0.950 . S
H2416 C2426 0.950 . S
H2417 C2428 0.950 . S
H2418 C2430 0.950 . S
H2419 C2431 0.910 1_545 S
C2420 H2412 0.950 . S
C2420 C2421 1.386 . S
C2420 C2422 1.391 . S
C2421 C2420 1.386 . S
C2421 C2425 1.393 . S
C2422 H2414 0.950 . S
C2422 C2420 1.391 . S
C2422 C2423 1.400 . S
C2423 C2422 1.400 . S
C2423 C2424 1.398 . S
C2423 C2429 1.491 . S
C2424 H2415 0.950 . S
C2424 C2423 1.398 . S
C2424 C2425 1.391 . S
C2425 H2413 0.950 . S
C2425 C2421 1.393 . S
C2425 C2424 1.391 . S
C2426 H2416 0.950 . S
C2426 C2427 1.386 . S
C2426 C2428 1.391 . S
C2427 C2426 1.386 . S
C2427 C2431 1.418 . S
C2428 H2417 0.950 . S
C2428 C2426 1.391 . S
C2428 C2429 1.400 . S
C2429 C2423 1.491 . S
C2429 C2428 1.400 . S
C2429 C2430 1.398 . S
C2430 H2418 0.950 . S
C2430 C2429 1.398 . S
C2430 C2431 1.406 . S
C2431 H2419 0.910 1_565 S
C2431 C2427 1.418 . S
C2431 C2430 1.406 . S
H2432 C2440 0.950 . S
H2433 C2445 0.950 . S
H2434 C2442 0.950 . S
H2435 C2444 0.950 . S
H2436 C2446 0.950 . S
H2437 C2448 0.950 . S
H2438 C2450 0.950 . S
H2439 C2451 0.950 . S
C2440 H2432 0.950 . S
C2440 C2441 1.386 . S
C2440 C2442 1.391 . S
C2441 C2440 1.386 . S
C2441 C2445 1.393 . S
C2442 H2434 0.950 . S
C2442 C2440 1.391 . S
C2442 C2443 1.400 . S
C2443 C2442 1.400 . S
C2443 C2444 1.398 . S
C2443 C2449 1.491 . S
C2444 H2435 0.950 . S
C2444 C2443 1.398 . S
C2444 C2445 1.391 . S
C2445 H2433 0.950 . S
C2445 C2441 1.393 . S
C2445 C2444 1.391 . S
C2446 H2436 0.950 . S
C2446 C2447 1.386 . S
C2446 C2448 1.391 . S
C2447 C2446 1.386 . S
C2447 C2451 1.393 . S
C2448 H2437 0.950 . S
C2448 C2446 1.391 . S
C2448 C2449 1.400 . S
C2449 C2443 1.491 . S
C2449 C2448 1.400 . S
C2449 C2450 1.398 . S
C2450 H2438 0.950 . S
C2450 C2449 1.398 . S
C2450 C2451 1.391 . S
C2451 H2439 0.950 . S
C2451 C2447 1.393 . S
C2451 C2450 1.391 . S
H2452 C2460 0.950 1_556 S
H2453 C2465 0.950 . S
H2454 C2462 0.950 1_556 S
H2455 C2464 0.950 . S
H2456 C2466 0.950 . S
H2457 C2468 0.950 . S
H2458 C2470 0.950 1_556 S
H2459 C2471 0.950 1_556 S
C2460 H2452 0.950 1_554 S
C2460 C2461 1.386 . S
C2460 C2462 1.391 . S
C2461 C2460 1.386 . S
C2461 C2465 1.393 . S
C2462 H2454 0.950 1_554 S
C2462 C2460 1.391 . S
C2462 C2463 1.400 . S
C2463 C2462 1.400 . S
C2463 C2464 1.398 . S
C2463 C2469 1.491 . S
C2464 H2455 0.950 . S
C2464 C2463 1.398 . S
C2464 C2465 1.391 . S
C2465 H2453 0.950 . S
C2465 C2461 1.393 . S
C2465 C2464 1.391 . S
C2466 H2456 0.950 . S
C2466 C2467 1.386 . S
C2466 C2468 1.391 . S
C2467 C2466 1.386 . S
C2467 C2471 1.393 . S
C2468 H2457 0.950 . S
C2468 C2466 1.391 . S
C2468 C2469 1.400 . S
C2469 C2463 1.491 . S
C2469 C2468 1.400 . S
C2469 C2470 1.398 . S
C2470 H2458 0.950 1_554 S
C2470 C2469 1.398 . S
C2470 C2471 1.391 . S
C2471 H2459 0.950 1_554 S
C2471 C2467 1.393 . S
C2471 C2470 1.391 . S
H2472 C2480 0.950 . S
H2473 C2485 0.950 . S
H2474 C2482 0.950 . S
H2475 C2484 0.950 . S
H2476 C2486 0.950 . S
H2477 C2488 0.950 . S
H2478 C2490 0.950 . S
H2479 C2491 0.950 . S
C2480 H2472 0.950 . S
C2480 C2481 1.386 . S
C2480 C2482 1.391 . S
C2481 C2480 1.386 . S
C2481 C2485 1.393 . S
C2482 H2474 0.950 . S
C2482 C2480 1.391 . S
C2482 C2483 1.400 . S
C2483 C2482 1.400 . S
C2483 C2484 1.398 . S
C2483 C2489 1.491 . S
C2484 H2475 0.950 . S
C2484 C2483 1.398 . S
C2484 C2485 1.391 . S
C2485 H2473 0.950 . S
C2485 C2481 1.393 . S
C2485 C2484 1.391 . S
C2486 H2476 0.950 . S
C2486 C2487 1.386 . S
C2486 C2488 1.391 . S
C2487 C2486 1.386 . S
C2487 C2491 1.393 . S
C2488 H2477 0.950 . S
C2488 C2486 1.391 . S
C2488 C2489 1.400 . S
C2489 C2483 1.491 . S
C2489 C2488 1.400 . S
C2489 C2490 1.398 . S
C2490 H2478 0.950 . S
C2490 C2489 1.398 . S
C2490 C2491 1.391 . S
C2491 H2479 0.950 . S
C2491 C2487 1.393 . S
C2491 C2490 1.391 . S
H2492 C2500 0.950 . S
H2493 C2505 0.950 . S
H2494 C2502 0.985 . S
H2495 C2504 0.950 . S
H2496 C2506 0.950 . S
H2497 C2508 0.950 . S
H2498 C2510 0.950 1_556 S
H2499 C2511 0.950 . S
C2500 H2492 0.950 . S
C2500 C2501 1.386 . S
C2500 C2502 1.391 . S
C2501 C2500 1.386 . S
C2501 C2505 1.393 . S
C2502 H2494 0.985 . S
C2502 C2500 1.391 . S
C2502 C2503 1.400 . S
C2503 C2502 1.400 . S
C2503 C2504 1.398 . S
C2503 C2509 1.491 . S
C2504 H2495 0.950 . S
C2504 C2503 1.398 . S
C2504 C2505 1.391 . S
C2505 H2493 0.950 . S
C2505 C2501 1.393 . S
C2505 C2504 1.391 . S
C2506 H2496 0.950 . S
C2506 C2507 1.386 . S
C2506 C2508 1.391 . S
C2507 C2506 1.386 . S
C2507 C2511 1.393 1_554 S
C2508 H2497 0.950 . S
C2508 C2506 1.391 . S
C2508 C2509 1.400 . S
C2509 C2503 1.491 . S
C2509 C2508 1.400 . S
C2509 C2510 1.398 . S
C2510 H2498 0.950 1_554 S
C2510 C2509 1.398 . S
C2510 C2511 1.391 1_554 S
C2511 H2499 0.950 . S
C2511 C2507 1.393 1_556 S
C2511 C2510 1.391 1_556 S
H2512 C2520 0.950 . S
H2513 C2525 0.950 . S
H2514 C2522 0.950 . S
H2515 C2524 0.950 . S
H2516 C2526 0.950 . S
H2517 C2528 0.950 . S
H2518 C2530 0.950 . S
H2519 C2531 0.950 . S
C2520 H2512 0.950 . S
C2520 C2521 1.386 . S
C2520 C2522 1.391 . S
C2521 C2520 1.386 . S
C2521 C2525 1.393 . S
C2522 H2514 0.950 . S
C2522 C2520 1.391 . S
C2522 C2523 1.400 . S
C2523 C2522 1.400 . S
C2523 C2524 1.398 . S
C2523 C2529 1.491 . S
C2524 H2515 0.950 . S
C2524 C2523 1.398 . S
C2524 C2525 1.391 . S
C2525 H2513 0.950 . S
C2525 C2521 1.393 . S
C2525 C2524 1.391 . S
C2526 H2516 0.950 . S
C2526 C2527 1.386 . S
C2526 C2528 1.391 . S
C2527 C2526 1.386 . S
C2527 C2531 1.393 . S
C2528 H2517 0.950 . S
C2528 C2526 1.391 . S
C2528 C2529 1.400 . S
C2529 C2523 1.491 . S
C2529 C2528 1.400 . S
C2529 C2530 1.398 . S
C2530 H2518 0.950 . S
C2530 C2529 1.398 . S
C2530 C2531 1.391 . S
C2531 H2519 0.950 . S
C2531 C2527 1.393 . S
C2531 C2530 1.391 . S
H2532 C2540 0.950 . S
H2533 C2545 0.950 . S
H2534 C2542 0.950 . S
H2535 C2544 0.950 . S
H2536 C2546 0.950 . S
H2537 C2548 0.950 . S
H2538 C2550 0.950 . S
H2539 C2551 0.950 . S
C2540 H2532 0.950 . S
C2540 C2541 1.386 . S
C2540 C2542 1.391 . S
C2541 C2540 1.386 . S
C2541 C2545 1.393 . S
C2542 H2534 0.950 . S
C2542 C2540 1.391 . S
C2542 C2543 1.400 . S
C2543 C2542 1.400 . S
C2543 C2544 1.398 . S
C2543 C2549 1.491 . S
C2544 H2535 0.950 . S
C2544 C2543 1.398 . S
C2544 C2545 1.391 . S
C2545 H2533 0.950 . S
C2545 C2541 1.393 . S
C2545 C2544 1.391 . S
C2546 H2536 0.950 . S
C2546 C2547 1.386 . S
C2546 C2548 1.391 . S
C2547 C2546 1.386 . S
C2547 C2551 1.393 . S
C2548 H2537 0.950 . S
C2548 C2546 1.391 . S
C2548 C2549 1.400 . S
C2549 C2543 1.491 . S
C2549 C2548 1.400 . S
C2549 C2550 1.398 . S
C2550 H2538 0.950 . S
C2550 C2549 1.398 . S
C2550 C2551 1.391 . S
C2551 H2539 0.950 . S
C2551 C2547 1.393 . S
C2551 C2550 1.391 . S
C641 C101 1.416 . S
C647 C316 1.271 1_556 S
C661 C57 1.482 . S
C667 C351 1.481 . S
C681 C73 1.087 . S
C687 C356 1.042 . S
C707 C381 1.378 . S
C701 C78 1.376 . S
C721 C21 1.500 . S
C727 C401 1.464 . S
C747 C416 0.997 . S
C741 C31 1.075 . S
C767 C451 1.508 . S
C761 C49 1.551 . S
C781 C0 1.301 . S
C787 C456 1.211 . S
C807 C331 1.495 1_655 S
C801 C218 1.563 . S
C821 C229 0.976 . S
C827 C341 0.948 . S
C847 C371 1.405 . S
C841 C257 1.448 . S
C867 C376 1.137 . S
C861 C164 1.161 1_556 S
C881 C216 1.146 . S
C887 C396 1.105 . S
C907 C431 1.412 . S
C901 C231 1.454 . S
C927 C441 1.006 . S
C921 C255 0.994 1_565 S
C947 C471 1.477 . S
C941 C166 1.542 . S
C967 C321 1.280 . S
C961 C143 1.330 . S
C981 C265 1.711 . S
C987 C491 1.753 . S
C1007 C501 1.391 . S
C1001 C299 1.425 . S
C1027 C516 0.968 . S
C1021 C291 1.057 . S
C1041 C104 1.283 . S
C1047 C461 1.234 . S
C1061 C117 1.467 . S
C1067 C361 1.442 . S
C1081 C304 1.664 . S
C1087 C551 1.669 . S
C1107 C556 0.972 . S
C1101 C278 0.988 . S
C1127 C314 1.248 . S
C1121 C60 1.408 . S
C1147 C570 1.409 . S
C1141 C96 1.424 . S
C1161 C88 1.072 . S
C1167 C354 0.983 . S
C1181 C65 1.330 . S
C1187 C544 1.300 . S
C1207 C404 1.368 . S
C1201 C10 1.448 . S
C1221 C44 1.014 . S
C1227 C494 0.984 . S
C1247 C450 1.431 . S
C1241 C34 1.431 . S
C1267 C574 1.140 . S
C1261 C13 1.320 . S
C1287 C330 1.458 1_565 S
C1281 C138 1.491 . S
C1307 C564 0.871 . S
C1301 C296 0.918 . S
C1321 C112 1.346 . S
C1327 C370 1.336 . S
C1341 C270 1.144 . S
C1347 C534 1.039 . S
C1361 C140 1.128 . S
C1367 C394 1.055 . S
C1387 C510 1.349 . S
C1381 C294 1.335 . S
C1401 C114 0.948 . S
C1407 C444 0.917 . S
C1421 C268 1.499 . S
C1427 C590 1.428 . S
C1441 C169 1.368 . S
C1447 C324 1.252 1_556 S
C1461 C161 1.677 . S
C1467 C490 1.666 . S
C1481 C234 1.424 . S
C1487 C424 1.323 . S
C1501 C226 0.980 . S
C1507 C514 0.907 . S
C1527 C584 1.189 . S
C1521 C247 1.309 . S
C1541 C195 1.457 . S
C1547 C364 1.373 . S
C1567 C390 1.600 . S
C1561 C239 1.598 . S
C1587 C334 0.920 . S
C1581 C187 0.931 . S
C1601 C75 1.412 . S
C1607 C596 1.253 . S
C1627 C571 1.482 . S
C1621 C83 1.481 . S
C1641 C99 1.110 . S
C1647 C616 1.037 . S
C1661 C52 1.389 . S
C1667 C541 1.352 . S
C1681 C47 1.496 . S
C1687 C481 1.457 . S
C1707 C496 0.988 . S
C1701 C5 1.084 . S
C1727 C531 1.524 . S
C1721 C23 1.547 . S
C1747 C576 1.198 . S
C1741 C26 1.306 . S
C1767 C611 1.487 . S
C1761 C244 1.554 . S
C1781 C177 0.992 . S
C1787 C561 0.955 . S
C1807 C631 1.420 . S
C1801 C192 1.442 . S
C1827 C536 1.143 . S
C1821 C203 1.190 . S
C1847 C476 1.126 . S
C1841 C242 1.180 . S
C1861 C179 1.451 . S
C1867 C511 1.410 . S
C1887 C521 0.984 . S
C1881 C190 1.012 . S
C1901 C205 1.542 . S
C1907 C591 1.485 . S
C1927 C601 1.287 . S
C1921 C286 1.332 . S
C1941 C122 1.728 . S
C1947 C411 1.748 . S
C1967 C421 1.388 . S
C1961 C130 1.405 . S
C1987 C436 0.971 . S
C1981 C148 1.052 . S
C2007 C581 1.211 . S
C2001 C273 1.296 . S
C2021 C260 1.469 . S
C2027 C621 1.442 . S
C2047 C391 1.686 . S
C2041 C135 1.644 . S
C2067 C336 0.934 . S
C2061 C109 0.989 . S
C2081 C86 1.405 . S
C2087 C594 1.260 . S
C2107 C350 1.393 . S
C2101 C70 1.420 . S
C2121 C62 1.070 . S
C2127 C614 1.003 . S
C2141 C91 1.328 . S
C2147 C384 1.293 . S
C2161 C36 1.449 . S
C2167 C484 1.367 . S
C2187 C414 0.986 . S
C2181 C18 1.036 . S
C2201 C8 1.426 . S
C2207 C530 1.436 . S
C2221 C39 1.323 . S
C2227 C454 1.128 . S
C2247 C610 1.442 . S
C2241 C307 1.498 . S
C2261 C153 0.918 . S
C2267 C344 0.870 . S
C2287 C630 1.341 1_655 S
C2281 C281 1.341 . S
C2301 C127 1.143 . S
C2307 C374 1.045 . S
C2321 C309 1.133 . S
C2327 C474 1.072 . S
C2347 C430 1.342 . S
C2341 C151 1.344 . S
C2361 C283 0.955 . S
C2367 C524 0.930 . S
C2387 C470 1.437 . S
C2381 C125 1.491 . S
C2407 C604 1.246 . S
C2401 C221 1.373 . S
C2427 C410 1.657 1_565 S
C2421 C200 1.678 . S
C2441 C208 1.422 . S
C2447 C504 1.336 . S
C2467 C434 0.934 . S
C2461 C174 1.001 . S
C2481 C182 1.300 . S
C2487 C464 1.176 . S
C2501 C156 1.458 . S
C2507 C624 1.371 . S
C2527 C550 1.589 . S
C2521 C213 1.611 . S
C2547 C554 0.913 . S
C2541 C252 0.922 . S
