# Generated by pormake.
# Topology apo, (3,6)-cn, num edge types: 1
# Building blocks:
#     Node 0, Type 0, BuildingBlock: OLANEW_clean_sbu_2, # of connection points: 3
#     Node 1, Type 0, BuildingBlock: OLANEW_clean_sbu_2, # of connection points: 3
#     Node 2, Type 0, BuildingBlock: OLANEW_clean_sbu_2, # of connection points: 3
#     Node 3, Type 0, BuildingBlock: OLANEW_clean_sbu_2, # of connection points: 3
#     Node 4, Type 0, BuildingBlock: OLANEW_clean_sbu_2, # of connection points: 3
#     Node 5, Type 0, BuildingBlock: OLANEW_clean_sbu_2, # of connection points: 3
#     Node 6, Type 0, BuildingBlock: OLANEW_clean_sbu_2, # of connection points: 3
#     Node 7, Type 0, BuildingBlock: OLANEW_clean_sbu_2, # of connection points: 3
#     Node 8, Type 1, BuildingBlock: KUMBUR_clean_sbu_1, # of connection points: 6
#     Node 9, Type 1, BuildingBlock: KUMBUR_clean_sbu_1, # of connection points: 6
#     Node 10, Type 1, BuildingBlock: KUMBUR_clean_sbu_1, # of connection points: 6
#     Node 11, Type 1, BuildingBlock: KUMBUR_clean_sbu_1, # of connection points: 6
#     Edge 12, Type (0, 1), None
#     Edge 13, Type (0, 1), None
#     Edge 14, Type (0, 1), None
#     Edge 15, Type (0, 1), None
#     Edge 16, Type (0, 1), None
#     Edge 17, Type (0, 1), None
#     Edge 18, Type (0, 1), None
#     Edge 19, Type (0, 1), None
#     Edge 20, Type (0, 1), None
#     Edge 21, Type (0, 1), None
#     Edge 22, Type (0, 1), None
#     Edge 23, Type (0, 1), None
#     Edge 24, Type (0, 1), None
#     Edge 25, Type (0, 1), None
#     Edge 26, Type (0, 1), None
#     Edge 27, Type (0, 1), None
#     Edge 28, Type (0, 1), None
#     Edge 29, Type (0, 1), None
#     Edge 30, Type (0, 1), None
#     Edge 31, Type (0, 1), None
#     Edge 32, Type (0, 1), None
#     Edge 33, Type (0, 1), None
#     Edge 34, Type (0, 1), None
#     Edge 35, Type (0, 1), None
# Relax obj value: 0.035
# Max RMSD: 0.284
# Mean RMSD: 0.169
data_MOF--net-apo--node1-OLANEW_clean_sbu_2--node2-KUMBUR_clean_sbu_1--edge1-none
_symmetry_space_group_name_H-M    P1
_symmetry_Int_Tables_number       1
_symmetry_cell_setting            triclinic
loop_
_symmetry_equiv_pos_as_xyz
'x, y, z'
_cell_length_a     14.340371
_cell_length_b     20.490326
_cell_length_c     31.14407
_cell_angle_alpha  87.776307
_cell_angle_beta   89.965756
_cell_angle_gamma 90.005022
loop_
_atom_site_label
_atom_site_type_symbol
_atom_site_fract_x
_atom_site_fract_y
_atom_site_fract_z
_atom_type_partial_charge
O0 O 0.40165 0.44886 0.30278 0.0
Cd1 Cd 0.32253 0.35686 0.34266 0.0
O2 O 0.41452 0.52447 0.35207 0.0
Cd3 Cd 0.36398 0.48217 0.41425 0.0
O4 O 0.36563 0.51119 0.48214 0.0
C5 C 0.34527 0.47996 0.51712 0.0
O6 O 0.31638 0.41922 0.51599 0.0
C7 C 0.4263 0.5057 0.3139 0.0
C8 C 0.2301 0.25971 0.29589 0.0
O9 O 0.1845 0.30676 0.31189 0.0
O10 O 0.31892 0.25947 0.3004 0.0
O11 O 0.26956 0.17477 0.98431 0.0
Cd12 Cd 0.25109 0.22586 0.91074 0.0
O13 O 0.23259 0.10275 0.93831 0.0
Cd14 Cd 0.19315 0.02006 0.89988 0.0
O15 O 0.15549 0.97514 0.83962 0.0
C16 C 0.07238 0.98085 0.82592 0.0
O17 O 0.011 0.01257 0.84829 0.0
C18 C 0.24679 0.11607 0.97739 0.0
C19 C 0.36494 0.31547 0.86563 0.0
O20 O 0.28685 0.33311 0.88152 0.0
O21 O 0.39286 0.25677 0.87351 0.0
O22 O 0.75808 0.07677 0.72632 0.0
Cd23 Cd 0.6372 0.14873 0.69347 0.0
O24 O 0.80585 0.04884 0.66298 0.0
Cd25 Cd 0.87468 0.99753 0.61177 0.0
O26 O 0.86538 0.98889 0.54224 0.0
C27 C 0.90665 0.02864 0.51623 0.0
O28 O 0.96286 0.07276 0.53147 0.0
C29 C 0.80894 0.04061 0.70358 0.0
C30 C 0.58881 0.26594 0.73138 0.0
O31 O 0.57124 0.21071 0.7503 0.0
O32 O 0.63214 0.26647 0.69542 0.0
O33 O 0.78386 0.32116 0.0762 0.0
Cd34 Cd 0.85831 0.35719 0.14196 0.0
O35 O 0.78591 0.42247 0.05024 0.0
Cd36 Cd 0.80602 0.46393 0.11226 0.0
O37 O 0.7275 0.50642 0.1635 0.0
C38 C 0.66499 0.54781 0.153 0.0
O39 O 0.65263 0.5647 0.1123 0.0
C40 C 0.77087 0.36217 0.04507 0.0
C41 C 0.96242 0.25934 0.1837 0.0
O42 O 0.99609 0.29201 0.1514 0.0
O43 O 0.87977 0.27276 0.19614 0.0
O44 O 0.62802 0.60265 0.71006 0.0
Cd45 Cd 0.67268 0.69241 0.65998 0.0
O46 O 0.58024 0.53973 0.65875 0.0
Cd47 Cd 0.6201 0.60955 0.6074 0.0
O48 O 0.66272 0.65921 0.54737 0.0
C49 C 0.65575 0.62551 0.51416 0.0
O50 O 0.62351 0.56557 0.51853 0.0
C51 C 0.59256 0.54939 0.69838 0.0
C52 C 0.77521 0.78376 0.70345 0.0
O53 O 0.68606 0.78715 0.70179 0.0
O54 O 0.81631 0.73814 0.68377 0.0
O55 O 0.91445 0.95342 0.18887 0.0
Cd56 Cd 0.78995 0.89465 0.14785 0.0
O57 O 0.8877 0.04764 0.15447 0.0
Cd58 Cd 0.76179 0.01344 0.12431 0.0
O59 O 0.6906 0.99559 0.06479 0.0
C60 C 0.74735 0.99714 0.0335 0.0
O61 O 0.83611 0.00753 0.04126 0.0
C62 C 0.93652 0.01304 0.18054 0.0
C63 C 0.68554 0.78655 0.18138 0.0
O64 O 0.77328 0.78252 0.17409 0.0
O65 O 0.64638 0.84219 0.17465 0.0
O66 O 0.35709 0.97553 0.29045 0.0
Cd67 Cd 0.45694 0.91005 0.33908 0.0
O68 O 0.27829 0.9858 0.34951 0.0
Cd69 Cd 0.17602 0.00666 0.39933 0.0
O70 O 0.18239 0.96863 0.46595 0.0
C71 C 0.12065 0.93543 0.48641 0.0
O72 O 0.03976 0.92455 0.46831 0.0
C73 C 0.28669 0.99857 0.30941 0.0
C74 C 0.50197 0.79033 0.3058 0.0
O75 O 0.42184 0.79995 0.32257 0.0
O76 O 0.56121 0.83705 0.30479 0.0
O77 O 0.30896 0.60458 0.82982 0.0
Cd78 Cd 0.2062 0.67304 0.8725 0.0
O79 O 0.41007 0.58696 0.88253 0.0
Cd80 Cd 0.35057 0.65348 0.93004 0.0
O81 O 0.29583 0.70736 0.98529 0.0
C82 C 0.3391 0.71214 0.02085 0.0
O83 O 0.42165 0.68494 0.02534 0.0
C84 C 0.38227 0.57665 0.84446 0.0
C85 C 0.08915 0.75915 0.82605 0.0
O86 O 0.06957 0.69822 0.82969 0.0
O87 O 0.1642 0.77941 0.84338 0.0
Tb88 Tb 0.20623 0.11835 0.19251 0.0
C89 C 0.83345 0.02634 0.26642 0.0
N90 N 0.86702 0.08839 0.26266 0.0
C91 C 0.72356 0.1236 0.22948 0.0
C92 C 0.74393 0.01037 0.25124 0.0
C93 C 0.81067 0.1375 0.24698 0.0
C94 C 0.69007 0.05967 0.23135 0.0
C95 C 0.85341 0.91529 0.29458 0.0
C96 C 0.88825 0.9789 0.28669 0.0
C97 C 0.76497 0.89891 0.279 0.0
C98 C 0.71074 0.94614 0.25693 0.0
Tb99 Tb 0.01465 0.10305 0.28939 0.0
N100 N 0.9747 0.99594 0.3 0.0
C101 C 0.90763 0.8707 0.31884 0.0
C102 C 0.02759 0.95271 0.32386 0.0
C103 C 0.99516 0.88949 0.33349 0.0
H104 H 0.83059 0.18779 0.24903 0.0
H105 H 0.03714 0.85561 0.35273 0.0
H106 H 0.39411 0.09407 0.25409 0.0
H107 H 0.15996 0.26994 0.04928 0.0
H108 H 0.09364 0.96721 0.33662 0.0
H109 H 0.88216 0.82208 0.32703 0.0
H110 H 0.11887 0.18201 0.10252 0.0
H111 H 0.68165 0.16257 0.21534 0.0
H112 H 0.73761 0.85006 0.28414 0.0
H113 H 0.64235 0.93293 0.24531 0.0
H114 H 0.53838 0.15393 0.27044 0.0
H115 H 0.62155 0.04932 0.21862 0.0
H116 H 0.30022 0.33717 0.06005 0.0
N117 N 0.34464 0.16679 0.20911 0.0
C118 C 0.36596 0.22168 0.1852 0.0
C119 C 0.49046 0.17361 0.24644 0.0
C120 C 0.45068 0.25502 0.19131 0.0
C121 C 0.4085 0.13998 0.23731 0.0
C122 C 0.51109 0.23196 0.22373 0.0
N123 N 0.22886 0.20457 0.1453 0.0
C124 C 0.17724 0.21377 0.10867 0.0
C125 C 0.33496 0.28962 0.12134 0.0
C126 C 0.30719 0.24034 0.15152 0.0
C127 C 0.28029 0.30086 0.08453 0.0
C128 C 0.2011 0.2628 0.07821 0.0
H129 H 0.57593 0.25702 0.23 0.0
H130 H 0.54016 0.33351 0.16729 0.0
H131 H 0.44177 0.36122 0.10476 0.0
O132 O 0.21192 0.02506 0.16566 0.0
O133 O 0.23267 0.16326 0.25446 0.0
O134 O 0.09303 0.1956 0.28375 0.0
O135 O 0.30146 0.10212 0.1426 0.0
O136 O 0.08344 0.18072 0.18192 0.0
O137 O 0.99329 0.1884 0.24497 0.0
O138 O 0.04 0.09779 0.3562 0.0
O139 O 0.04056 0.03074 0.24046 0.0
O140 O 0.06386 0.08903 0.1781 0.0
O141 O 0.91205 0.13751 0.33114 0.0
O142 O 0.15686 0.07249 0.30635 0.0
O143 O 0.22775 0.04126 0.24267 0.0
C144 C 0.18184 0.20585 0.27461 0.0
C145 C 0.24208 0.03267 0.09003 0.0
C146 C 0.23311 0.06647 0.01327 0.0
C147 C 0.18863 0.00699 0.0054 0.0
C148 C 0.19804 0.97376 0.08076 0.0
C149 C 0.17154 0.9612 0.03879 0.0
C150 C 0.26024 0.0788 0.05586 0.0
C151 C 0.0164 0.20656 0.20498 0.0
C152 C 0.26891 0.04481 0.13523 0.0
C153 C 0.47512 0.30751 0.16324 0.0
C154 C 0.41859 0.32367 0.12775 0.0
C155 C 0.01871 0.04338 0.20016 0.0
C156 C 0.90374 0.07526 0.39672 0.0
C157 C 0.88305 0.02977 0.4699 0.0
C158 C 0.80824 0.99199 0.45549 0.0
C159 C 0.82616 0.03911 0.38367 0.0
C160 C 0.93155 0.07069 0.44003 0.0
C161 C 0.77993 0.99696 0.41269 0.0
C162 C 0.21828 0.03847 0.28495 0.0
C163 C 0.95639 0.11723 0.3655 0.0
H164 H 0.16512 0.99596 0.97357 0.0
H165 H 0.18353 0.93755 0.10612 0.0
H166 H 0.13658 0.91598 0.03203 0.0
H167 H 0.29507 0.12428 0.06231 0.0
H168 H 0.76983 0.95977 0.47749 0.0
H169 H 0.80054 0.04354 0.35114 0.0
H170 H 0.99036 0.09933 0.45041 0.0
H171 H 0.72104 0.96873 0.40209 0.0
Tb172 Tb 0.38314 0.42355 0.74266 0.0
C173 C 0.79843 0.42095 0.76747 0.0
N174 N 0.73729 0.37966 0.78782 0.0
C175 C 0.83497 0.2885 0.77149 0.0
C176 C 0.8778 0.39724 0.74626 0.0
C177 C 0.75847 0.31462 0.79281 0.0
C178 C 0.89366 0.32983 0.74719 0.0
C179 C 0.85476 0.5318 0.75612 0.0
C180 C 0.78752 0.4872 0.77253 0.0
C181 C 0.93023 0.50883 0.7322 0.0
C182 C 0.9418 0.4416 0.72731 0.0
Tb183 Tb 0.61204 0.42792 0.82001 0.0
N184 N 0.71564 0.50723 0.79713 0.0
C185 C 0.84664 0.59757 0.76611 0.0
C186 C 0.71276 0.57015 0.81051 0.0
C187 C 0.77615 0.61664 0.79392 0.0
H188 H 0.71596 0.28249 0.81305 0.0
H189 H 0.77089 0.66712 0.80245 0.0
H190 H 0.21436 0.5005 0.79112 0.0
H191 H 0.38393 0.18301 0.67587 0.0
H192 H 0.65812 0.58475 0.83209 0.0
H193 H 0.89644 0.6335 0.75389 0.0
H194 H 0.42864 0.29878 0.67902 0.0
H195 H 0.84951 0.23669 0.77443 0.0
H196 H 0.98222 0.54236 0.71902 0.0
H197 H 0.0028 0.42431 0.71063 0.0
H198 H 0.06733 0.47257 0.8293 0.0
H199 H 0.95387 0.30966 0.73137 0.0
H200 H 0.2582 0.13836 0.72315 0.0
N201 N 0.24458 0.40222 0.7766 0.0
C202 C 0.2137 0.33979 0.77733 0.0
C203 C 0.10849 0.43457 0.81528 0.0
C204 C 0.13077 0.32129 0.7988 0.0
C205 C 0.19171 0.45024 0.79371 0.0
C206 C 0.0786 0.3696 0.81845 0.0
N207 N 0.33804 0.31776 0.73142 0.0
C208 C 0.37678 0.27935 0.70121 0.0
C209 C 0.23201 0.23057 0.75225 0.0
C210 C 0.26342 0.29552 0.75445 0.0
C211 C 0.27905 0.18889 0.72515 0.0
C212 C 0.35019 0.21387 0.69862 0.0
H213 H 0.01397 0.3576 0.83499 0.0
H214 H 0.03855 0.24031 0.8154 0.0
H215 H 0.12768 0.16048 0.77465 0.0
O216 O 0.31028 0.42041 0.68362 0.0
O217 O 0.37087 0.40284 0.81259 0.0
O218 O 0.50778 0.35072 0.83155 0.0
O219 O 0.33474 0.51105 0.71353 0.0
O220 O 0.51135 0.37005 0.72551 0.0
O221 O 0.572 0.3358 0.79081 0.0
O222 O 0.59127 0.43988 0.88624 0.0
O223 O 0.58377 0.50589 0.77115 0.0
O224 O 0.52124 0.44722 0.71818 0.0
O225 O 0.7246 0.41228 0.86222 0.0
O226 O 0.50274 0.49723 0.83753 0.0
O227 O 0.39124 0.51103 0.7822 0.0
C228 C 0.41769 0.36001 0.83654 0.0
C229 C 0.33647 0.51457 0.63726 0.0
C230 C 0.35465 0.51287 0.55875 0.0
C231 C 0.39048 0.57681 0.55898 0.0
C232 C 0.37112 0.5789 0.636 0.0
C233 C 0.3984 0.60937 0.59725 0.0
C234 C 0.32787 0.48186 0.59826 0.0
C235 C 0.55705 0.32691 0.74989 0.0
C236 C 0.30598 0.48363 0.67902 0.0
C237 C 0.10159 0.25583 0.79874 0.0
C238 C 0.15242 0.21039 0.7756 0.0
C239 C 0.56538 0.49874 0.73049 0.0
C240 C 0.68423 0.37073 0.93049 0.0
C241 C 0.73459 0.34139 0.00335 0.0
C242 C 0.71023 0.27603 0.99678 0.0
C243 C 0.65998 0.30548 0.92419 0.0
C244 C 0.7213 0.38832 0.96981 0.0
C245 C 0.67307 0.25834 0.95733 0.0
C246 C 0.42966 0.52659 0.81929 0.0
C247 C 0.67513 0.42117 0.89618 0.0
H248 H 0.41225 0.60209 0.52947 0.0
H249 H 0.37747 0.60599 0.66505 0.0
H250 H 0.42566 0.65866 0.59687 0.0
H251 H 0.29974 0.43276 0.59866 0.0
H252 H 0.7193 0.2388 0.02208 0.0
H253 H 0.63173 0.2911 0.89372 0.0
H254 H 0.73989 0.43897 0.97406 0.0
H255 H 0.65441 0.20797 0.95245 0.0
Tb256 Tb 0.03204 0.87579 0.70892 0.0
C257 C 0.64466 0.83964 0.82127 0.0
N258 N 0.68822 0.89322 0.80403 0.0
C259 C 0.54158 0.9366 0.77929 0.0
C260 C 0.54745 0.83159 0.81735 0.0
C261 C 0.63825 0.94216 0.78386 0.0
C262 C 0.49597 0.88093 0.79596 0.0
C263 C 0.655 0.73837 0.86346 0.0
C264 C 0.69805 0.79362 0.84358 0.0
C265 C 0.55854 0.72901 0.85876 0.0
C266 C 0.50481 0.77544 0.83566 0.0
Tb267 Tb 0.84458 0.90102 0.81585 0.0
N268 N 0.79113 0.8048 0.84766 0.0
C269 C 0.7096 0.69518 0.88852 0.0
C270 C 0.84338 0.76437 0.87417 0.0
C271 C 0.80401 0.70857 0.89414 0.0
H272 H 0.67295 0.98572 0.77173 0.0
H273 H 0.84626 0.67658 0.91463 0.0
H274 H 0.14883 0.74025 0.73841 0.0
H275 H 0.14302 0.1108 0.6448 0.0
H276 H 0.91479 0.77528 0.88172 0.0
H277 H 0.67918 0.65228 0.90443 0.0
H278 H 0.02879 0.02995 0.67316 0.0
H279 H 0.50224 0.97549 0.76328 0.0
H280 H 0.52463 0.68677 0.87366 0.0
H281 H 0.43026 0.76807 0.83283 0.0
H282 H 0.31287 0.70502 0.74214 0.0
H283 H 0.42096 0.87706 0.79282 0.0
H284 H 0.31092 0.08307 0.64347 0.0
N285 N 0.18101 0.83777 0.71712 0.0
C286 C 0.24904 0.87991 0.70349 0.0
C287 C 0.29589 0.75454 0.73155 0.0
C288 C 0.34348 0.86087 0.70324 0.0
C289 C 0.20288 0.77521 0.73026 0.0
C290 C 0.36653 0.79752 0.71799 0.0
N291 N 0.13148 0.95838 0.6896 0.0
C292 C 0.10199 0.01789 0.67378 0.0
C293 C 0.29086 0.98632 0.67238 0.0
C294 C 0.22329 0.94186 0.68839 0.0
C295 C 0.26129 0.04771 0.65651 0.0
C296 C 0.16649 0.06357 0.65727 0.0
H297 H 0.43837 0.78107 0.71849 0.0
H298 H 0.48435 0.8914 0.68707 0.0
H299 H 0.43829 0.00125 0.66006 0.0
O300 O 0.98813 0.88963 0.64446 0.0
O301 O 0.10105 0.93934 0.75513 0.0
O302 O 0.9655 0.92231 0.77983 0.0
O303 O 0.06257 0.80335 0.66515 0.0
O304 O 0.91457 0.94819 0.70073 0.0
O305 O 0.85446 0.98259 0.76756 0.0
O306 O 0.87113 0.91772 0.88095 0.0
O307 O 0.78159 0.85786 0.75974 0.0
O308 O 0.91729 0.81674 0.73606 0.0
O309 O 0.80039 0.98964 0.84099 0.0
O310 O 0.97445 0.8435 0.82779 0.0
O311 O 0.01234 0.79972 0.76169 0.0
C312 C 0.04469 0.95075 0.78602 0.0
C313 C 0.10362 0.85092 0.59733 0.0
C314 C 0.14583 0.90162 0.52759 0.0
C315 C 0.23937 0.88417 0.53518 0.0
C316 C 0.19719 0.83159 0.60309 0.0
C317 C 0.26445 0.84877 0.57245 0.0
C318 C 0.07796 0.88477 0.55887 0.0
C319 C 0.86262 0.987 0.72486 0.0
C320 C 0.03456 0.83898 0.63224 0.0
C321 C 0.41141 0.90518 0.68761 0.0
C322 C 0.38518 0.96773 0.6722 0.0
C323 C 0.82816 0.82778 0.73017 0.0
C324 C 0.75217 0.97712 0.91343 0.0
C325 C 0.71526 0.98821 0.98914 0.0
C326 C 0.61987 0.98244 0.97962 0.0
C327 C 0.6566 0.97163 0.90433 0.0
C328 C 0.78086 0.9856 0.95574 0.0
C329 C 0.59092 0.97433 0.93734 0.0
C330 C 0.02605 0.80517 0.80367 0.0
C331 C 0.82377 0.9718 0.87995 0.0
H332 H 0.29301 0.89632 0.5117 0.0
H333 H 0.21918 0.80375 0.63149 0.0
H334 H 0.33638 0.83449 0.57761 0.0
H335 H 0.00593 0.89889 0.5537 0.0
H336 H 0.56773 0.98438 0.00472 0.0
H337 H 0.6325 0.96514 0.87194 0.0
H338 H 0.85477 0.98952 0.96255 0.0
H339 H 0.51738 0.96999 0.93015 0.0
Tb340 Tb 0.42728 0.65705 0.21155 0.0
C341 C 0.84915 0.5437 0.24009 0.0
N342 N 0.76675 0.52718 0.25856 0.0
C343 C 0.80028 0.41382 0.24941 0.0
C344 C 0.90878 0.49649 0.22338 0.0
C345 C 0.74267 0.463 0.26476 0.0
C346 C 0.88313 0.43077 0.22802 0.0
C347 C 0.96317 0.62782 0.22417 0.0
C348 C 0.87554 0.60789 0.24038 0.0
C349 C 0.02025 0.58219 0.20421 0.0
C350 C 0.99246 0.51654 0.20349 0.0
Tb351 Tb 0.67088 0.61117 0.276 0.0
N352 N 0.81741 0.64987 0.25943 0.0
C353 C 0.99104 0.69242 0.22938 0.0
C354 C 0.84681 0.71168 0.26737 0.0
C355 C 0.93315 0.73427 0.2517 0.0
H356 H 0.67836 0.44967 0.28091 0.0
H357 H 0.95472 0.78406 0.25622 0.0
H358 H 0.26581 0.65592 0.28738 0.0
H359 H 0.41395 0.53053 0.06103 0.0
H360 H 0.80125 0.7443 0.28383 0.0
H361 H 0.05776 0.70993 0.21729 0.0
H362 H 0.46196 0.61758 0.10794 0.0
H363 H 0.78053 0.36302 0.25385 0.0
H364 H 0.08681 0.5967 0.19038 0.0
H365 H 0.03679 0.48148 0.18838 0.0
H366 H 0.14977 0.57758 0.31827 0.0
H367 H 0.92807 0.39298 0.2163 0.0
H368 H 0.31426 0.44079 0.08916 0.0
N369 N 0.30915 0.5928 0.23854 0.0
C370 C 0.29303 0.5367 0.21829 0.0
C371 C 0.19021 0.56518 0.29039 0.0
C372 C 0.22691 0.491 0.23435 0.0
C373 C 0.25528 0.60946 0.27275 0.0
C374 C 0.17762 0.5049 0.27173 0.0
N375 N 0.39576 0.57587 0.1641 0.0
C376 C 0.42001 0.57817 0.12141 0.0
C377 C 0.3079 0.4771 0.15334 0.0
C378 C 0.33614 0.52859 0.17916 0.0
C379 C 0.33742 0.47771 0.11057 0.0
C380 C 0.39298 0.52872 0.09445 0.0
H381 H 0.1262 0.47104 0.28504 0.0
H382 H 0.15789 0.39917 0.22305 0.0
H383 H 0.22346 0.38944 0.15089 0.0
O384 O 0.39899 0.75505 0.191 0.0
O385 O 0.44134 0.61044 0.27638 0.0
O386 O 0.55915 0.53823 0.27222 0.0
O387 O 0.29224 0.6836 0.1915 0.0
O388 O 0.54468 0.62048 0.17448 0.0
O389 O 0.61222 0.55363 0.22558 0.0
O390 O 0.60391 0.61238 0.3359 0.0
O391 O 0.68247 0.69443 0.22944 0.0
O392 O 0.54453 0.72239 0.1914 0.0
O393 O 0.75005 0.58888 0.3315 0.0
O394 O 0.61158 0.70916 0.28445 0.0
O395 O 0.45394 0.69018 0.27634 0.0
C396 C 0.47266 0.5506 0.28255 0.0
C397 C 0.28474 0.76104 0.13532 0.0
C398 C 0.29366 0.7434 0.05789 0.0
C399 C 0.20645 0.7741 0.05272 0.0
C400 C 0.19786 0.79119 0.12922 0.0
C401 C 0.1595 0.7982 0.08811 0.0
C402 C 0.33371 0.73912 0.09937 0.0
C403 C 0.60696 0.57641 0.18597 0.0
C404 C 0.31429 0.7424 0.17953 0.0
C405 C 0.20777 0.43526 0.21112 0.0
C406 C 0.24595 0.42937 0.17009 0.0
C407 C 0.6343 0.73028 0.20093 0.0
C408 C 0.69741 0.63947 0.39405 0.0
C409 C 0.68343 0.65258 0.47127 0.0
C410 C 0.72024 0.71605 0.46594 0.0
C411 C 0.73346 0.70292 0.38908 0.0
C412 C 0.67258 0.61465 0.43497 0.0
C413 C 0.74512 0.74091 0.42502 0.0
C414 C 0.52369 0.72797 0.28685 0.0
C415 C 0.68005 0.59907 0.35707 0.0
H416 H 0.17366 0.77865 0.02143 0.0
H417 H 0.15823 0.80739 0.15647 0.0
H418 H 0.09181 0.82088 0.08383 0.0
H419 H 0.40104 0.7166 0.10418 0.0
H420 H 0.72955 0.74651 0.49326 0.0
H421 H 0.75171 0.7231 0.35757 0.0
H422 H 0.64373 0.56578 0.4383 0.0
H423 H 0.77297 0.7899 0.42113 0.0
loop_
_geom_bond_atom_site_label_1
_geom_bond_atom_site_label_2
_geom_bond_distance
_geom_bond_site_symmetry_2
_ccdc_geom_bond_type
O0 Cd1 2.300 . S
O0 C7 1.275 . S
Cd1 O0 2.300 . S
Cd1 O9 2.381 . S
Cd1 O10 2.378 . S
O2 Cd3 2.385 . S
O2 C7 1.255 . S
Cd3 O2 2.385 . S
Cd3 O4 2.317 . S
O4 Cd3 2.317 . S
O4 C5 1.232 . S
C5 O4 1.232 . S
C5 O6 1.218 . S
O6 C5 1.218 . S
C7 O0 1.275 . S
C7 O2 1.255 . S
C8 O9 1.258 . S
C8 O10 1.256 . S
O9 Cd1 2.381 . S
O9 C8 1.258 . S
O10 Cd1 2.378 . S
O10 C8 1.256 . S
O11 Cd12 2.300 . S
O11 C18 1.275 . S
Cd12 O11 2.300 . S
Cd12 O20 2.381 . S
Cd12 O21 2.378 . S
O13 Cd14 2.385 1_545 S
O13 C18 1.255 . S
Cd14 O13 2.385 1_565 S
Cd14 O15 2.317 1_565 S
O15 Cd14 2.317 1_545 S
O15 C16 1.232 1_545 S
C16 O15 1.232 1_565 S
C16 O17 1.218 . S
O17 C16 1.218 . S
C18 O11 1.275 . S
C18 O13 1.255 . S
C19 O20 1.258 . S
C19 O21 1.256 . S
O20 Cd12 2.381 . S
O20 C19 1.258 . S
O21 Cd12 2.378 . S
O21 C19 1.256 . S
O22 Cd23 2.300 . S
O22 C29 1.275 . S
Cd23 O22 2.300 . S
Cd23 O31 2.381 . S
Cd23 O32 2.378 . S
O24 Cd25 2.385 1_655 S
O24 C29 1.255 . S
Cd25 O24 2.385 1_455 S
Cd25 O26 2.317 1_455 S
O26 Cd25 2.317 1_655 S
O26 C27 1.232 . S
C27 O26 1.232 . S
C27 O28 1.218 . S
O28 C27 1.218 . S
C29 O22 1.275 . S
C29 O24 1.255 . S
C30 O31 1.258 . S
C30 O32 1.256 . S
O31 Cd23 2.381 . S
O31 C30 1.258 . S
O32 Cd23 2.378 . S
O32 C30 1.256 . S
O33 Cd34 2.300 . S
O33 C40 1.275 . S
Cd34 O33 2.300 . S
Cd34 O42 2.381 . S
Cd34 O43 2.378 . S
O35 Cd36 2.385 . S
O35 C40 1.255 . S
Cd36 O35 2.385 . S
Cd36 O37 2.317 . S
O37 Cd36 2.317 . S
O37 C38 1.232 . S
C38 O37 1.232 . S
C38 O39 1.218 . S
O39 C38 1.218 . S
C40 O33 1.275 . S
C40 O35 1.255 . S
C41 O42 1.258 . S
C41 O43 1.256 . S
O42 Cd34 2.381 . S
O42 C41 1.258 . S
O43 Cd34 2.378 . S
O43 C41 1.256 . S
O44 Cd45 2.300 . S
O44 C51 1.275 . S
Cd45 O44 2.300 . S
Cd45 O53 2.381 . S
Cd45 O54 2.378 . S
O46 Cd47 2.385 . S
O46 C51 1.255 . S
Cd47 O46 2.385 . S
Cd47 O48 2.317 . S
O48 Cd47 2.317 . S
O48 C49 1.232 . S
C49 O48 1.232 . S
C49 O50 1.218 . S
O50 C49 1.218 . S
C51 O44 1.275 . S
C51 O46 1.255 . S
C52 O53 1.258 . S
C52 O54 1.256 . S
O53 Cd45 2.381 . S
O53 C52 1.258 . S
O54 Cd45 2.378 . S
O54 C52 1.256 . S
O55 Cd56 2.300 . S
O55 C62 1.275 . S
Cd56 O55 2.300 . S
Cd56 O64 2.381 . S
Cd56 O65 2.378 . S
O57 Cd58 2.385 1_565 S
O57 C62 1.255 . S
Cd58 O57 2.385 1_545 S
Cd58 O59 2.317 1_545 S
O59 Cd58 2.317 1_565 S
O59 C60 1.232 . S
C60 O59 1.232 . S
C60 O61 1.218 1_565 S
O61 C60 1.218 1_545 S
C62 O55 1.275 . S
C62 O57 1.255 . S
C63 O64 1.258 . S
C63 O65 1.256 . S
O64 Cd56 2.381 . S
O64 C63 1.258 . S
O65 Cd56 2.378 . S
O65 C63 1.256 . S
O66 Cd67 2.300 . S
O66 C73 1.275 . S
Cd67 O66 2.300 . S
Cd67 O75 2.381 . S
Cd67 O76 2.378 . S
O68 Cd69 2.385 . S
O68 C73 1.255 . S
Cd69 O68 2.385 . S
Cd69 O70 2.317 . S
O70 Cd69 2.317 . S
O70 C71 1.232 . S
C71 O70 1.232 . S
C71 O72 1.218 . S
O72 C71 1.218 . S
C73 O66 1.275 . S
C73 O68 1.255 . S
C74 O75 1.258 . S
C74 O76 1.256 . S
O75 Cd67 2.381 . S
O75 C74 1.258 . S
O76 Cd67 2.378 . S
O76 C74 1.256 . S
O77 Cd78 2.300 . S
O77 C84 1.275 . S
Cd78 O77 2.300 . S
Cd78 O86 2.381 . S
Cd78 O87 2.378 . S
O79 Cd80 2.385 . S
O79 C84 1.255 . S
Cd80 O79 2.385 . S
Cd80 O81 2.317 . S
O81 Cd80 2.317 . S
O81 C82 1.232 . S
C82 O81 1.232 . S
C82 O83 1.218 . S
O83 C82 1.218 . S
C84 O77 1.275 . S
C84 O79 1.255 . S
C85 O86 1.258 . S
C85 O87 1.256 . S
O86 Cd78 2.381 . S
O86 C85 1.258 . S
O87 Cd78 2.378 . S
O87 C85 1.256 . S
Tb88 N117 2.617 . S
Tb88 N123 2.572 . S
Tb88 O132 2.465 . S
Tb88 O133 2.387 . S
Tb88 O135 2.428 . S
Tb88 O136 2.308 . S
Tb88 O140 2.349 . S
Tb88 O143 2.393 1_545 S
Tb88 C152 2.802 . S
C89 N90 1.379 . S
C89 C92 1.416 . S
C89 C96 1.424 1_545 S
N90 C89 1.379 . S
N90 C93 1.334 . S
N90 Tb99 2.617 . S
C91 C93 1.390 . S
C91 C94 1.339 . S
C91 H111 0.930 . S
C92 C89 1.416 . S
C92 C94 1.416 . S
C92 C98 1.448 1_545 S
C93 N90 1.334 . S
C93 C91 1.390 . S
C93 H104 0.930 . S
C94 C91 1.339 . S
C94 C92 1.416 . S
C94 H115 0.930 . S
C95 C96 1.413 . S
C95 C97 1.427 . S
C95 C101 1.416 . S
C96 C89 1.424 1_565 S
C96 C95 1.413 . S
C96 N100 1.361 . S
C97 C95 1.427 . S
C97 C98 1.328 . S
C97 H112 0.929 . S
C98 C92 1.448 1_565 S
C98 C97 1.328 . S
C98 H113 0.930 . S
Tb99 N90 2.617 . S
Tb99 N100 2.572 1_545 S
Tb99 O134 2.349 1_655 S
Tb99 O137 2.393 . S
Tb99 O138 2.465 . S
Tb99 O139 2.387 . S
Tb99 O141 2.428 . S
Tb99 O142 2.308 1_655 S
Tb99 C163 2.802 . S
N100 C96 1.361 . S
N100 Tb99 2.572 1_565 S
N100 C102 1.340 . S
C101 C95 1.416 . S
C101 C103 1.332 . S
C101 H109 0.931 . S
C102 N100 1.340 . S
C102 C103 1.407 . S
C102 H108 0.930 . S
C103 C101 1.332 . S
C103 C102 1.407 . S
C103 H105 0.929 . S
H104 C93 0.930 . S
H105 C103 0.929 . S
H106 C121 0.930 1_565 S
H107 C128 0.929 . S
H108 C102 0.930 . S
H109 C101 0.931 . S
H110 C124 0.930 . S
H111 C91 0.930 . S
H112 C97 0.929 . S
H113 C98 0.930 . S
H114 C119 0.930 1_565 S
H115 C94 0.930 . S
H116 C127 0.931 . S
N117 Tb88 2.617 . S
N117 C118 1.379 . S
N117 C121 1.334 . S
C118 N117 1.379 . S
C118 C120 1.416 . S
C118 C126 1.424 . S
C119 H114 0.930 1_545 S
C119 C121 1.390 . S
C119 C122 1.339 . S
C120 C118 1.416 . S
C120 C122 1.416 . S
C120 C153 1.448 . S
C121 H106 0.930 1_545 S
C121 N117 1.334 . S
C121 C119 1.390 . S
C122 C119 1.339 . S
C122 C120 1.416 . S
C122 H129 0.930 . S
N123 Tb88 2.572 . S
N123 C124 1.340 . S
N123 C126 1.361 . S
C124 H110 0.930 . S
C124 N123 1.340 . S
C124 C128 1.407 . S
C125 C126 1.413 . S
C125 C127 1.416 . S
C125 C154 1.427 . S
C126 C118 1.424 . S
C126 N123 1.361 . S
C126 C125 1.413 . S
C127 H116 0.931 . S
C127 C125 1.416 . S
C127 C128 1.332 . S
C128 H107 0.929 . S
C128 C124 1.407 . S
C128 C127 1.332 . S
H129 C122 0.930 . S
H130 C153 0.930 . S
H131 C154 0.929 . S
O132 Tb88 2.465 . S
O132 C152 1.264 . S
O133 Tb88 2.387 . S
O133 C144 1.264 . S
O134 Tb99 2.349 1_455 S
O134 C144 1.243 . S
O135 Tb88 2.428 . S
O135 C152 1.256 . S
O136 Tb88 2.308 . S
O136 C151 1.266 1_455 S
O137 Tb99 2.393 . S
O137 C151 1.248 . S
O138 Tb99 2.465 . S
O138 C163 1.264 . S
O139 Tb99 2.387 . S
O139 C155 1.264 . S
O140 Tb88 2.349 . S
O140 C155 1.243 1_455 S
O141 Tb99 2.428 . S
O141 C163 1.256 . S
O142 Tb99 2.308 1_455 S
O142 C162 1.266 1_545 S
O143 Tb88 2.393 1_565 S
O143 C162 1.248 . S
C144 O133 1.264 . S
C144 O134 1.243 . S
C145 C148 1.399 1_545 S
C145 C150 1.383 . S
C145 C152 1.496 . S
C146 C147 1.399 . S
C146 C150 1.389 1_556 S
C147 C146 1.399 . S
C147 C149 1.380 1_546 S
C147 H164 0.929 . S
C148 C145 1.399 1_565 S
C148 C149 1.392 . S
C148 H165 0.929 . S
C149 C147 1.380 1_564 S
C149 C148 1.392 . S
C149 H166 0.929 . S
C150 C145 1.383 . S
C150 C146 1.389 1_554 S
C150 H167 0.931 . S
C151 O136 1.266 1_655 S
C151 O137 1.248 . S
C152 Tb88 2.802 . S
C152 O132 1.264 . S
C152 O135 1.256 . S
C152 C145 1.496 . S
C153 C120 1.448 . S
C153 H130 0.930 . S
C153 C154 1.328 . S
C154 C125 1.427 . S
C154 H131 0.929 . S
C154 C153 1.328 . S
C155 O139 1.264 . S
C155 O140 1.243 1_655 S
C156 C159 1.399 . S
C156 C160 1.383 . S
C156 C163 1.496 . S
C157 C158 1.399 . S
C157 C160 1.389 . S
C158 C157 1.399 . S
C158 C161 1.380 . S
C158 H168 0.929 . S
C159 C156 1.399 . S
C159 C161 1.392 . S
C159 H169 0.929 . S
C160 C156 1.383 . S
C160 C157 1.389 . S
C160 H170 0.931 . S
C161 C158 1.380 . S
C161 C159 1.392 . S
C161 H171 0.929 . S
C162 O142 1.266 1_565 S
C162 O143 1.248 . S
C163 Tb99 2.802 . S
C163 O138 1.264 . S
C163 O141 1.256 . S
C163 C156 1.496 . S
H164 C147 0.929 . S
H165 C148 0.929 . S
H166 C149 0.929 . S
H167 C150 0.931 . S
H168 C158 0.929 . S
H169 C159 0.929 . S
H170 C160 0.931 . S
H171 C161 0.929 . S
Tb172 N201 2.617 . S
Tb172 N207 2.572 . S
Tb172 O216 2.465 . S
Tb172 O217 2.387 . S
Tb172 O219 2.428 . S
Tb172 O220 2.308 . S
Tb172 O224 2.349 . S
Tb172 O227 2.393 . S
Tb172 C236 2.802 . S
C173 N174 1.379 . S
C173 C176 1.416 . S
C173 C180 1.424 . S
N174 C173 1.379 . S
N174 C177 1.334 . S
N174 Tb183 2.617 . S
C175 C177 1.390 . S
C175 C178 1.339 1_655 S
C175 H195 0.930 . S
C176 C173 1.416 . S
C176 C178 1.416 1_655 S
C176 C182 1.448 1_655 S
C177 N174 1.334 . S
C177 C175 1.390 . S
C177 H188 0.930 . S
C178 C175 1.339 1_455 S
C178 C176 1.416 1_455 S
C178 H199 0.930 . S
C179 C180 1.413 . S
C179 C181 1.427 . S
C179 C185 1.416 . S
C180 C173 1.424 . S
C180 C179 1.413 . S
C180 N184 1.361 . S
C181 C179 1.427 . S
C181 C182 1.328 1_655 S
C181 H196 0.929 1_655 S
C182 C176 1.448 1_455 S
C182 C181 1.328 1_455 S
C182 H197 0.930 . S
Tb183 N174 2.617 . S
Tb183 N184 2.572 . S
Tb183 O218 2.349 . S
Tb183 O221 2.393 . S
Tb183 O222 2.465 . S
Tb183 O223 2.387 . S
Tb183 O225 2.428 . S
Tb183 O226 2.308 . S
Tb183 C247 2.802 . S
N184 C180 1.361 . S
N184 Tb183 2.572 . S
N184 C186 1.340 . S
C185 C179 1.416 . S
C185 C187 1.332 . S
C185 H193 0.931 . S
C186 N184 1.340 . S
C186 C187 1.407 . S
C186 H192 0.930 . S
C187 C185 1.332 . S
C187 C186 1.407 . S
C187 H189 0.929 . S
H188 C177 0.930 . S
H189 C187 0.929 . S
H190 C205 0.930 . S
H191 C212 0.929 . S
H192 C186 0.930 . S
H193 C185 0.931 . S
H194 C208 0.930 . S
H195 C175 0.930 . S
H196 C181 0.929 1_455 S
H197 C182 0.930 . S
H198 C203 0.930 . S
H199 C178 0.930 . S
H200 C211 0.931 . S
N201 Tb172 2.617 . S
N201 C202 1.379 . S
N201 C205 1.334 . S
C202 N201 1.379 . S
C202 C204 1.416 . S
C202 C210 1.424 . S
C203 H198 0.930 . S
C203 C205 1.390 . S
C203 C206 1.339 . S
C204 C202 1.416 . S
C204 C206 1.416 . S
C204 C237 1.448 . S
C205 H190 0.930 . S
C205 N201 1.334 . S
C205 C203 1.390 . S
C206 C203 1.339 . S
C206 C204 1.416 . S
C206 H213 0.930 1_455 S
N207 Tb172 2.572 . S
N207 C208 1.340 . S
N207 C210 1.361 . S
C208 H194 0.930 . S
C208 N207 1.340 . S
C208 C212 1.407 . S
C209 C210 1.413 . S
C209 C211 1.416 . S
C209 C238 1.427 . S
C210 C202 1.424 . S
C210 N207 1.361 . S
C210 C209 1.413 . S
C211 H200 0.931 . S
C211 C209 1.416 . S
C211 C212 1.332 . S
C212 H191 0.929 . S
C212 C208 1.407 . S
C212 C211 1.332 . S
H213 C206 0.930 1_655 S
H214 C237 0.930 1_655 S
H215 C238 0.929 . S
O216 Tb172 2.465 . S
O216 C236 1.264 . S
O217 Tb172 2.387 . S
O217 C228 1.264 . S
O218 Tb183 2.349 . S
O218 C228 1.243 . S
O219 Tb172 2.428 . S
O219 C236 1.256 . S
O220 Tb172 2.308 . S
O220 C235 1.266 . S
O221 Tb183 2.393 . S
O221 C235 1.248 . S
O222 Tb183 2.465 . S
O222 C247 1.264 . S
O223 Tb183 2.387 . S
O223 C239 1.264 . S
O224 Tb172 2.349 . S
O224 C239 1.243 . S
O225 Tb183 2.428 . S
O225 C247 1.256 . S
O226 Tb183 2.308 . S
O226 C246 1.266 . S
O227 Tb172 2.393 . S
O227 C246 1.248 . S
C228 O217 1.264 . S
C228 O218 1.243 . S
C229 C232 1.399 . S
C229 C234 1.383 . S
C229 C236 1.496 . S
C230 C231 1.399 . S
C230 C234 1.389 . S
C231 C230 1.399 . S
C231 C233 1.380 . S
C231 H248 0.929 . S
C232 C229 1.399 . S
C232 C233 1.392 . S
C232 H249 0.929 . S
C233 C231 1.380 . S
C233 C232 1.392 . S
C233 H250 0.929 . S
C234 C229 1.383 . S
C234 C230 1.389 . S
C234 H251 0.931 . S
C235 O220 1.266 . S
C235 O221 1.248 . S
C236 Tb172 2.802 . S
C236 O216 1.264 . S
C236 O219 1.256 . S
C236 C229 1.496 . S
C237 C204 1.448 . S
C237 H214 0.930 1_455 S
C237 C238 1.328 . S
C238 C209 1.427 . S
C238 H215 0.929 . S
C238 C237 1.328 . S
C239 O223 1.264 . S
C239 O224 1.243 . S
C240 C243 1.399 . S
C240 C244 1.383 . S
C240 C247 1.496 . S
C241 C242 1.399 . S
C241 C244 1.389 1_554 S
C242 C241 1.399 . S
C242 C245 1.380 1_554 S
C242 H252 0.929 . S
C243 C240 1.399 . S
C243 C245 1.392 . S
C243 H253 0.929 . S
C244 C240 1.383 . S
C244 C241 1.389 1_556 S
C244 H254 0.931 . S
C245 C242 1.380 1_556 S
C245 C243 1.392 . S
C245 H255 0.929 . S
C246 O226 1.266 . S
C246 O227 1.248 . S
C247 Tb183 2.802 . S
C247 O222 1.264 . S
C247 O225 1.256 . S
C247 C240 1.496 . S
H248 C231 0.929 . S
H249 C232 0.929 . S
H250 C233 0.929 . S
H251 C234 0.931 . S
H252 C242 0.929 . S
H253 C243 0.929 . S
H254 C244 0.931 . S
H255 C245 0.929 . S
Tb256 N285 2.617 . S
Tb256 N291 2.572 1_565 S
Tb256 O300 2.465 . S
Tb256 O301 2.387 . S
Tb256 O303 2.428 . S
Tb256 O304 2.308 1_455 S
Tb256 O308 2.349 1_455 S
Tb256 O311 2.393 . S
Tb256 C320 2.802 . S
C257 N258 1.379 . S
C257 C260 1.416 . S
C257 C264 1.424 . S
N258 C257 1.379 . S
N258 C261 1.334 . S
N258 Tb267 2.617 . S
C259 C261 1.390 . S
C259 C262 1.339 . S
C259 H279 0.930 1_565 S
C260 C257 1.416 . S
C260 C262 1.416 . S
C260 C266 1.448 . S
C261 N258 1.334 . S
C261 C259 1.390 . S
C261 H272 0.930 1_565 S
C262 C259 1.339 . S
C262 C260 1.416 . S
C262 H283 0.930 . S
C263 C264 1.413 . S
C263 C265 1.427 . S
C263 C269 1.416 . S
C264 C257 1.424 . S
C264 C263 1.413 . S
C264 N268 1.361 . S
C265 C263 1.427 . S
C265 C266 1.328 . S
C265 H280 0.929 . S
C266 C260 1.448 . S
C266 C265 1.328 . S
C266 H281 0.930 . S
Tb267 N258 2.617 . S
Tb267 N268 2.572 . S
Tb267 O302 2.349 1_655 S
Tb267 O305 2.393 1_565 S
Tb267 O306 2.465 . S
Tb267 O307 2.387 . S
Tb267 O309 2.428 . S
Tb267 O310 2.308 1_655 S
Tb267 C331 2.802 . S
N268 C264 1.361 . S
N268 Tb267 2.572 . S
N268 C270 1.340 . S
C269 C263 1.416 . S
C269 C271 1.332 . S
C269 H277 0.931 . S
C270 N268 1.340 . S
C270 C271 1.407 . S
C270 H276 0.930 . S
C271 C269 1.332 . S
C271 C270 1.407 . S
C271 H273 0.929 . S
H272 C261 0.930 1_545 S
H273 C271 0.929 . S
H274 C289 0.930 . S
H275 C296 0.929 . S
H276 C270 0.930 . S
H277 C269 0.931 . S
H278 C292 0.930 . S
H279 C259 0.930 1_545 S
H280 C265 0.929 . S
H281 C266 0.930 . S
H282 C287 0.930 . S
H283 C262 0.930 . S
H284 C295 0.931 . S
N285 Tb256 2.617 . S
N285 C286 1.379 . S
N285 C289 1.334 . S
C286 N285 1.379 . S
C286 C288 1.416 . S
C286 C294 1.424 1_565 S
C287 H282 0.930 . S
C287 C289 1.390 . S
C287 C290 1.339 . S
C288 C286 1.416 . S
C288 C290 1.416 . S
C288 C321 1.448 1_565 S
C289 H274 0.930 . S
C289 N285 1.334 . S
C289 C287 1.390 . S
C290 C287 1.339 . S
C290 C288 1.416 . S
C290 H297 0.930 . S
N291 Tb256 2.572 1_545 S
N291 C292 1.340 . S
N291 C294 1.361 . S
C292 H278 0.930 . S
C292 N291 1.340 . S
C292 C296 1.407 . S
C293 C294 1.413 . S
C293 C295 1.416 . S
C293 C322 1.427 . S
C294 C286 1.424 1_545 S
C294 N291 1.361 . S
C294 C293 1.413 . S
C295 H284 0.931 . S
C295 C293 1.416 . S
C295 C296 1.332 . S
C296 H275 0.929 . S
C296 C292 1.407 . S
C296 C295 1.332 . S
H297 C290 0.930 . S
H298 C321 0.930 . S
H299 C322 0.929 . S
O300 Tb256 2.465 . S
O300 C320 1.264 . S
O301 Tb256 2.387 . S
O301 C312 1.264 1_565 S
O302 Tb267 2.349 1_455 S
O302 C312 1.243 1_565 S
O303 Tb256 2.428 . S
O303 C320 1.256 . S
O304 Tb256 2.308 1_655 S
O304 C319 1.266 1_565 S
O305 Tb267 2.393 1_545 S
O305 C319 1.248 . S
O306 Tb267 2.465 . S
O306 C331 1.264 . S
O307 Tb267 2.387 . S
O307 C323 1.264 . S
O308 Tb256 2.349 1_655 S
O308 C323 1.243 . S
O309 Tb267 2.428 . S
O309 C331 1.256 . S
O310 Tb267 2.308 1_455 S
O310 C330 1.266 . S
O311 Tb256 2.393 . S
O311 C330 1.248 . S
C312 O301 1.264 1_545 S
C312 O302 1.243 1_545 S
C313 C316 1.399 . S
C313 C318 1.383 . S
C313 C320 1.496 . S
C314 C315 1.399 . S
C314 C318 1.389 . S
C315 C314 1.399 . S
C315 C317 1.380 . S
C315 H332 0.929 . S
C316 C313 1.399 . S
C316 C317 1.392 . S
C316 H333 0.929 . S
C317 C315 1.380 . S
C317 C316 1.392 . S
C317 H334 0.929 . S
C318 C313 1.383 . S
C318 C314 1.389 . S
C318 H335 0.931 . S
C319 O304 1.266 1_545 S
C319 O305 1.248 . S
C320 Tb256 2.802 . S
C320 O300 1.264 . S
C320 O303 1.256 . S
C320 C313 1.496 . S
C321 C288 1.448 1_545 S
C321 H298 0.930 . S
C321 C322 1.328 . S
C322 C293 1.427 . S
C322 H299 0.929 . S
C322 C321 1.328 . S
C323 O307 1.264 . S
C323 O308 1.243 . S
C324 C327 1.399 1_565 S
C324 C328 1.383 . S
C324 C331 1.496 . S
C325 C326 1.399 1_556 S
C325 C328 1.389 . S
C326 C325 1.399 1_554 S
C326 C329 1.380 1_564 S
C326 H336 0.929 . S
C327 C324 1.399 1_545 S
C327 C329 1.392 . S
C327 H337 0.929 . S
C328 C324 1.383 . S
C328 C325 1.389 . S
C328 H338 0.931 . S
C329 C326 1.380 1_546 S
C329 C327 1.392 . S
C329 H339 0.929 . S
C330 O310 1.266 . S
C330 O311 1.248 . S
C331 Tb267 2.802 . S
C331 O306 1.264 . S
C331 O309 1.256 . S
C331 C324 1.496 . S
H332 C315 0.929 . S
H333 C316 0.929 . S
H334 C317 0.929 . S
H335 C318 0.931 . S
H336 C326 0.929 . S
H337 C327 0.929 . S
H338 C328 0.931 . S
H339 C329 0.929 . S
Tb340 N369 2.617 . S
Tb340 N375 2.572 . S
Tb340 O384 2.465 . S
Tb340 O385 2.387 . S
Tb340 O387 2.428 . S
Tb340 O388 2.308 . S
Tb340 O392 2.349 . S
Tb340 O395 2.393 . S
Tb340 C404 2.802 . S
C341 N342 1.379 . S
C341 C344 1.416 . S
C341 C348 1.424 . S
N342 C341 1.379 . S
N342 C345 1.334 . S
N342 Tb351 2.617 . S
C343 C345 1.390 . S
C343 C346 1.339 . S
C343 H363 0.930 . S
C344 C341 1.416 . S
C344 C346 1.416 . S
C344 C350 1.448 . S
C345 N342 1.334 . S
C345 C343 1.390 . S
C345 H356 0.930 . S
C346 C343 1.339 . S
C346 C344 1.416 . S
C346 H367 0.930 1_655 S
C347 C348 1.413 . S
C347 C349 1.427 . S
C347 C353 1.416 . S
C348 C341 1.424 . S
C348 C347 1.413 . S
C348 N352 1.361 . S
C349 C347 1.427 . S
C349 C350 1.328 . S
C349 H364 0.929 . S
C350 C344 1.448 . S
C350 C349 1.328 . S
C350 H365 0.930 1_655 S
Tb351 N342 2.617 . S
Tb351 N352 2.572 . S
Tb351 O386 2.349 . S
Tb351 O389 2.393 . S
Tb351 O390 2.465 . S
Tb351 O391 2.387 . S
Tb351 O393 2.428 . S
Tb351 O394 2.308 . S
Tb351 C415 2.802 . S
N352 C348 1.361 . S
N352 Tb351 2.572 . S
N352 C354 1.340 . S
C353 C347 1.416 . S
C353 C355 1.332 . S
C353 H361 0.931 . S
C354 N352 1.340 . S
C354 C355 1.407 . S
C354 H360 0.930 . S
C355 C353 1.332 . S
C355 C354 1.407 . S
C355 H357 0.929 . S
H356 C345 0.930 . S
H357 C355 0.929 . S
H358 C373 0.930 . S
H359 C380 0.929 . S
H360 C354 0.930 . S
H361 C353 0.931 . S
H362 C376 0.930 . S
H363 C343 0.930 . S
H364 C349 0.929 . S
H365 C350 0.930 1_455 S
H366 C371 0.930 . S
H367 C346 0.930 1_455 S
H368 C379 0.931 . S
N369 Tb340 2.617 . S
N369 C370 1.379 . S
N369 C373 1.334 . S
C370 N369 1.379 . S
C370 C372 1.416 . S
C370 C378 1.424 . S
C371 H366 0.930 . S
C371 C373 1.390 . S
C371 C374 1.339 . S
C372 C370 1.416 . S
C372 C374 1.416 . S
C372 C405 1.448 . S
C373 H358 0.930 . S
C373 N369 1.334 . S
C373 C371 1.390 . S
C374 C371 1.339 . S
C374 C372 1.416 . S
C374 H381 0.930 1_455 S
N375 Tb340 2.572 . S
N375 C376 1.340 . S
N375 C378 1.361 . S
C376 H362 0.930 . S
C376 N375 1.340 . S
C376 C380 1.407 . S
C377 C378 1.413 . S
C377 C379 1.416 . S
C377 C406 1.427 . S
C378 C370 1.424 . S
C378 N375 1.361 . S
C378 C377 1.413 . S
C379 H368 0.931 . S
C379 C377 1.416 . S
C379 C380 1.332 . S
C380 H359 0.929 . S
C380 C376 1.407 . S
C380 C379 1.332 . S
H381 C374 0.930 1_655 S
H382 C405 0.930 1_655 S
H383 C406 0.929 . S
O384 Tb340 2.465 . S
O384 C404 1.264 . S
O385 Tb340 2.387 . S
O385 C396 1.264 . S
O386 Tb351 2.349 . S
O386 C396 1.243 . S
O387 Tb340 2.428 . S
O387 C404 1.256 . S
O388 Tb340 2.308 . S
O388 C403 1.266 . S
O389 Tb351 2.393 . S
O389 C403 1.248 . S
O390 Tb351 2.465 . S
O390 C415 1.264 . S
O391 Tb351 2.387 . S
O391 C407 1.264 . S
O392 Tb340 2.349 . S
O392 C407 1.243 . S
O393 Tb351 2.428 . S
O393 C415 1.256 . S
O394 Tb351 2.308 . S
O394 C414 1.266 . S
O395 Tb340 2.393 . S
O395 C414 1.248 . S
C396 O385 1.264 . S
C396 O386 1.243 . S
C397 C400 1.399 . S
C397 C402 1.383 . S
C397 C404 1.496 . S
C398 C399 1.399 1_554 S
C398 C402 1.389 . S
C399 C398 1.399 1_556 S
C399 C401 1.380 1_556 S
C399 H416 0.929 . S
C400 C397 1.399 . S
C400 C401 1.392 . S
C400 H417 0.929 . S
C401 C399 1.380 1_554 S
C401 C400 1.392 . S
C401 H418 0.929 . S
C402 C397 1.383 . S
C402 C398 1.389 . S
C402 H419 0.931 . S
C403 O388 1.266 . S
C403 O389 1.248 . S
C404 Tb340 2.802 . S
C404 O384 1.264 . S
C404 O387 1.256 . S
C404 C397 1.496 . S
C405 C372 1.448 . S
C405 H382 0.930 1_455 S
C405 C406 1.328 . S
C406 C377 1.427 . S
C406 H383 0.929 . S
C406 C405 1.328 . S
C407 O391 1.264 . S
C407 O392 1.243 . S
C408 C411 1.399 . S
C408 C412 1.383 . S
C408 C415 1.496 . S
C409 C410 1.399 . S
C409 C412 1.389 . S
C410 C409 1.399 . S
C410 C413 1.380 . S
C410 H420 0.929 . S
C411 C408 1.399 . S
C411 C413 1.392 . S
C411 H421 0.929 . S
C412 C408 1.383 . S
C412 C409 1.389 . S
C412 H422 0.931 . S
C413 C410 1.380 . S
C413 C411 1.392 . S
C413 H423 0.929 . S
C414 O394 1.266 . S
C414 O395 1.248 . S
C415 Tb351 2.802 . S
C415 O390 1.264 . S
C415 O393 1.256 . S
C415 C408 1.496 . S
H416 C399 0.929 . S
H417 C400 0.929 . S
H418 C401 0.929 . S
H419 C402 0.931 . S
H420 C410 0.929 . S
H421 C411 0.929 . S
H422 C412 0.931 . S
H423 C413 0.929 . S
C73 C162 1.820 . S
C246 C84 2.037 . S
C239 C51 1.796 . S
C62 C155 2.065 1_565 S
C319 C29 1.665 . S
C403 C38 2.285 . S
C7 C396 1.659 . S
C16 C312 2.134 1_565 S
C146 C18 1.864 . S
C230 C5 1.587 . S
C241 C40 1.463 . S
C157 C27 1.394 . S
C325 C60 0.961 1_556 S
C49 C409 1.025 . S
C398 C82 1.345 1_554 S
C71 C314 1.219 . S
C144 C8 1.642 . S
C228 C19 1.763 . S
C30 C235 1.607 . S
C151 C41 1.801 . S
C323 C52 1.579 . S
C63 C407 1.705 . S
C74 C414 1.375 . S
C85 C330 1.510 . S
