# Generated by pormake.
# Topology ocu, (6,8)-cn, num edge types: 1
# Building blocks:
#     Node 0, Type 0, BuildingBlock: FUNLAD_clean_sbu_0, # of connection points: 6
#     Node 1, Type 0, BuildingBlock: FUNLAD_clean_sbu_0, # of connection points: 6
#     Node 2, Type 0, BuildingBlock: FUNLAD_clean_sbu_0, # of connection points: 6
#     Node 3, Type 0, BuildingBlock: FUNLAD_clean_sbu_0, # of connection points: 6
#     Node 4, Type 0, BuildingBlock: FUNLAD_clean_sbu_0, # of connection points: 6
#     Node 5, Type 0, BuildingBlock: FUNLAD_clean_sbu_0, # of connection points: 6
#     Node 6, Type 0, BuildingBlock: FUNLAD_clean_sbu_0, # of connection points: 6
#     Node 7, Type 0, BuildingBlock: FUNLAD_clean_sbu_0, # of connection points: 6
#     Node 8, Type 1, BuildingBlock: VETTIZ_charged_sbu_0, # of connection points: 8
#     Node 9, Type 1, BuildingBlock: VETTIZ_charged_sbu_0, # of connection points: 8
#     Node 10, Type 1, BuildingBlock: VETTIZ_charged_sbu_0, # of connection points: 8
#     Node 11, Type 1, BuildingBlock: VETTIZ_charged_sbu_0, # of connection points: 8
#     Node 12, Type 1, BuildingBlock: VETTIZ_charged_sbu_0, # of connection points: 8
#     Node 13, Type 1, BuildingBlock: VETTIZ_charged_sbu_0, # of connection points: 8
#     Edge 14, Type (0, 1), BuildingBlock: UVAHIK_clean_linker_0, # of connection points: 2
#     Edge 15, Type (0, 1), BuildingBlock: UVAHIK_clean_linker_0, # of connection points: 2
#     Edge 16, Type (0, 1), BuildingBlock: UVAHIK_clean_linker_0, # of connection points: 2
#     Edge 17, Type (0, 1), BuildingBlock: UVAHIK_clean_linker_0, # of connection points: 2
#     Edge 18, Type (0, 1), BuildingBlock: UVAHIK_clean_linker_0, # of connection points: 2
#     Edge 19, Type (0, 1), BuildingBlock: UVAHIK_clean_linker_0, # of connection points: 2
#     Edge 20, Type (0, 1), BuildingBlock: UVAHIK_clean_linker_0, # of connection points: 2
#     Edge 21, Type (0, 1), BuildingBlock: UVAHIK_clean_linker_0, # of connection points: 2
#     Edge 22, Type (0, 1), BuildingBlock: UVAHIK_clean_linker_0, # of connection points: 2
#     Edge 23, Type (0, 1), BuildingBlock: UVAHIK_clean_linker_0, # of connection points: 2
#     Edge 24, Type (0, 1), BuildingBlock: UVAHIK_clean_linker_0, # of connection points: 2
#     Edge 25, Type (0, 1), BuildingBlock: UVAHIK_clean_linker_0, # of connection points: 2
#     Edge 26, Type (0, 1), BuildingBlock: UVAHIK_clean_linker_0, # of connection points: 2
#     Edge 27, Type (0, 1), BuildingBlock: UVAHIK_clean_linker_0, # of connection points: 2
#     Edge 28, Type (0, 1), BuildingBlock: UVAHIK_clean_linker_0, # of connection points: 2
#     Edge 29, Type (0, 1), BuildingBlock: UVAHIK_clean_linker_0, # of connection points: 2
#     Edge 30, Type (0, 1), BuildingBlock: UVAHIK_clean_linker_0, # of connection points: 2
#     Edge 31, Type (0, 1), BuildingBlock: UVAHIK_clean_linker_0, # of connection points: 2
#     Edge 32, Type (0, 1), BuildingBlock: UVAHIK_clean_linker_0, # of connection points: 2
#     Edge 33, Type (0, 1), BuildingBlock: UVAHIK_clean_linker_0, # of connection points: 2
#     Edge 34, Type (0, 1), BuildingBlock: UVAHIK_clean_linker_0, # of connection points: 2
#     Edge 35, Type (0, 1), BuildingBlock: UVAHIK_clean_linker_0, # of connection points: 2
#     Edge 36, Type (0, 1), BuildingBlock: UVAHIK_clean_linker_0, # of connection points: 2
#     Edge 37, Type (0, 1), BuildingBlock: UVAHIK_clean_linker_0, # of connection points: 2
#     Edge 38, Type (0, 1), BuildingBlock: UVAHIK_clean_linker_0, # of connection points: 2
#     Edge 39, Type (0, 1), BuildingBlock: UVAHIK_clean_linker_0, # of connection points: 2
#     Edge 40, Type (0, 1), BuildingBlock: UVAHIK_clean_linker_0, # of connection points: 2
#     Edge 41, Type (0, 1), BuildingBlock: UVAHIK_clean_linker_0, # of connection points: 2
#     Edge 42, Type (0, 1), BuildingBlock: UVAHIK_clean_linker_0, # of connection points: 2
#     Edge 43, Type (0, 1), BuildingBlock: UVAHIK_clean_linker_0, # of connection points: 2
#     Edge 44, Type (0, 1), BuildingBlock: UVAHIK_clean_linker_0, # of connection points: 2
#     Edge 45, Type (0, 1), BuildingBlock: UVAHIK_clean_linker_0, # of connection points: 2
#     Edge 46, Type (0, 1), BuildingBlock: UVAHIK_clean_linker_0, # of connection points: 2
#     Edge 47, Type (0, 1), BuildingBlock: UVAHIK_clean_linker_0, # of connection points: 2
#     Edge 48, Type (0, 1), BuildingBlock: UVAHIK_clean_linker_0, # of connection points: 2
#     Edge 49, Type (0, 1), BuildingBlock: UVAHIK_clean_linker_0, # of connection points: 2
#     Edge 50, Type (0, 1), BuildingBlock: UVAHIK_clean_linker_0, # of connection points: 2
#     Edge 51, Type (0, 1), BuildingBlock: UVAHIK_clean_linker_0, # of connection points: 2
#     Edge 52, Type (0, 1), BuildingBlock: UVAHIK_clean_linker_0, # of connection points: 2
#     Edge 53, Type (0, 1), BuildingBlock: UVAHIK_clean_linker_0, # of connection points: 2
#     Edge 54, Type (0, 1), BuildingBlock: UVAHIK_clean_linker_0, # of connection points: 2
#     Edge 55, Type (0, 1), BuildingBlock: UVAHIK_clean_linker_0, # of connection points: 2
#     Edge 56, Type (0, 1), BuildingBlock: UVAHIK_clean_linker_0, # of connection points: 2
#     Edge 57, Type (0, 1), BuildingBlock: UVAHIK_clean_linker_0, # of connection points: 2
#     Edge 58, Type (0, 1), BuildingBlock: UVAHIK_clean_linker_0, # of connection points: 2
#     Edge 59, Type (0, 1), BuildingBlock: UVAHIK_clean_linker_0, # of connection points: 2
#     Edge 60, Type (0, 1), BuildingBlock: UVAHIK_clean_linker_0, # of connection points: 2
#     Edge 61, Type (0, 1), BuildingBlock: UVAHIK_clean_linker_0, # of connection points: 2
# Relax obj value: 0.133
# Max RMSD: 0.255
# Mean RMSD: 0.151
data_MOF--net-ocu--node1-FUNLAD_clean_sbu_0--node2-VETTIZ_charged_sbu_0--edge1-UVAHIK_clean_linker_0
_symmetry_space_group_name_H-M    P1
_symmetry_Int_Tables_number       1
_symmetry_cell_setting            triclinic
loop_
_symmetry_equiv_pos_as_xyz
'x, y, z'
_cell_length_a     49.351544
_cell_length_b     48.930204
_cell_length_c     49.051924
_cell_angle_alpha  85.641181
_cell_angle_beta   85.773247
_cell_angle_gamma 83.364526
loop_
_atom_site_label
_atom_site_type_symbol
_atom_site_fract_x
_atom_site_fract_y
_atom_site_fract_z
_atom_type_partial_charge
C0 C 0.2153 0.26953 0.29655 0.0
N1 N 0.20392 0.20162 0.25319 0.0
C2 C 0.19113 0.19364 0.2775 0.0
C3 C 0.17168 0.17514 0.27845 0.0
C4 C 0.16573 0.16423 0.25427 0.0
C5 C 0.1793 0.17241 0.22942 0.0
C6 C 0.19827 0.1916 0.22929 0.0
Zn7 Zn 0.2325 0.22842 0.25416 0.0
C8 C 0.22259 0.27827 0.21662 0.0
N9 N 0.29164 0.28426 0.25856 0.0
C10 C 0.30071 0.29228 0.28198 0.0
C11 C 0.30128 0.29402 0.23345 0.0
C12 C 0.32056 0.31269 0.23108 0.0
C13 C 0.33011 0.32142 0.25474 0.0
C14 C 0.32024 0.31108 0.28052 0.0
Zn15 Zn 0.26306 0.25747 0.25833 0.0
O16 O 0.20785 0.24978 0.28462 0.0
C17 C 0.27348 0.20839 0.2959 0.0
O18 O 0.23842 0.27789 0.2895 0.0
H19 H 0.29391 0.28741 0.21508 0.0
H20 H 0.19625 0.20135 0.29632 0.0
H21 H 0.29274 0.28419 0.30172 0.0
O22 O 0.2525 0.20196 0.28528 0.0
O23 O 0.28262 0.23113 0.28817 0.0
H24 H 0.2087 0.19823 0.21019 0.0
O25 O 0.28769 0.23622 0.22733 0.0
O26 O 0.25754 0.20724 0.22425 0.0
O27 O 0.24302 0.28391 0.22851 0.0
O28 O 0.21314 0.25533 0.22297 0.0
C29 C 0.28059 0.21542 0.21681 0.0
H30 H 0.16191 0.16878 0.29805 0.0
H31 H 0.17527 0.1641 0.21047 0.0
H32 H 0.32791 0.32039 0.2109 0.0
H33 H 0.32736 0.31758 0.2991 0.0
C34 C 0.7071 0.28567 0.24273 0.0
N35 N 0.73804 0.20802 0.21801 0.0
C36 C 0.71154 0.20254 0.22203 0.0
C37 C 0.7011 0.1847 0.20578 0.0
C38 C 0.71771 0.17275 0.18455 0.0
C39 C 0.74484 0.17905 0.18018 0.0
C40 C 0.75478 0.19668 0.1975 0.0
Zn41 Zn 0.74933 0.23527 0.24414 0.0
C42 C 0.78421 0.27639 0.21933 0.0
N43 N 0.76323 0.29299 0.30091 0.0
C44 C 0.74406 0.30744 0.31722 0.0
C45 C 0.79007 0.29709 0.30024 0.0
C46 C 0.79847 0.31687 0.31566 0.0
C47 C 0.77915 0.33256 0.33217 0.0
C48 C 0.75168 0.32738 0.33332 0.0
Zn49 Zn 0.7534 0.26561 0.27489 0.0
O50 O 0.71512 0.26262 0.23292 0.0
C51 C 0.71864 0.22543 0.30017 0.0
O52 O 0.71992 0.29359 0.2617 0.0
H53 H 0.80504 0.28531 0.28731 0.0
H54 H 0.69812 0.21231 0.2377 0.0
H55 H 0.72284 0.30383 0.3174 0.0
O56 O 0.72529 0.21624 0.27677 0.0
O57 O 0.72736 0.24761 0.3059 0.0
H58 H 0.77568 0.20149 0.1944 0.0
O59 O 0.78679 0.237 0.28756 0.0
O60 O 0.78379 0.20795 0.25615 0.0
O61 O 0.77911 0.28358 0.24368 0.0
O62 O 0.77393 0.25554 0.21208 0.0
C63 C 0.79549 0.21462 0.27657 0.0
H64 H 0.67992 0.18079 0.20939 0.0
H65 H 0.75816 0.1703 0.16377 0.0
H66 H 0.81993 0.31992 0.31463 0.0
H67 H 0.73625 0.3391 0.34588 0.0
C68 C 0.77623 0.71354 0.29087 0.0
N69 N 0.79516 0.79455 0.26998 0.0
C70 C 0.79353 0.79557 0.29771 0.0
C71 C 0.80242 0.81753 0.30962 0.0
C72 C 0.81336 0.8386 0.29295 0.0
C73 C 0.81672 0.83626 0.26453 0.0
C74 C 0.80717 0.81391 0.25332 0.0
Zn75 Zn 0.7721 0.7672 0.25558 0.0
C76 C 0.79876 0.73064 0.21542 0.0
N77 N 0.71853 0.71222 0.23249 0.0
C78 C 0.70096 0.69753 0.24868 0.0
C79 C 0.72122 0.71027 0.20488 0.0
C80 C 0.70656 0.6926 0.19256 0.0
C81 C 0.68855 0.67701 0.20864 0.0
C82 C 0.6854 0.67978 0.23701 0.0
Zn83 Zn 0.74257 0.73833 0.247 0.0
O84 O 0.78616 0.73637 0.28576 0.0
C85 C 0.71627 0.77339 0.28826 0.0
O86 O 0.75666 0.70815 0.27743 0.0
H87 H 0.73485 0.72244 0.19223 0.0
H88 H 0.78365 0.78028 0.31066 0.0
H89 H 0.69908 0.69951 0.27057 0.0
O90 O 0.73959 0.78204 0.28363 0.0
O91 O 0.71043 0.75389 0.27483 0.0
H92 H 0.80796 0.8129 0.23132 0.0
O93 O 0.72884 0.76898 0.21633 0.0
O94 O 0.75748 0.79757 0.22545 0.0
O95 O 0.77526 0.72252 0.22027 0.0
O96 O 0.80451 0.75142 0.22716 0.0
C97 C 0.73831 0.79206 0.21159 0.0
H98 H 0.79978 0.81862 0.33166 0.0
H99 H 0.82514 0.85224 0.25114 0.0
H100 H 0.7091 0.69132 0.17054 0.0
H101 H 0.67149 0.66806 0.24993 0.0
C102 C 0.20929 0.7955 0.26409 0.0
N103 N 0.28505 0.77097 0.29478 0.0
C104 C 0.28697 0.79855 0.29314 0.0
C105 C 0.30257 0.80974 0.31088 0.0
C106 C 0.31625 0.7925 0.33076 0.0
C107 C 0.31345 0.7642 0.33277 0.0
C108 C 0.2977 0.75371 0.31422 0.0
Zn109 Zn 0.2624 0.75798 0.26638 0.0
C110 C 0.22438 0.71868 0.28861 0.0
N111 N 0.21348 0.7372 0.20513 0.0
C112 C 0.1997 0.75472 0.18672 0.0
C113 C 0.21269 0.70948 0.20563 0.0
C114 C 0.19758 0.69833 0.18733 0.0
C115 C 0.18324 0.71573 0.16791 0.0
C116 C 0.18432 0.74434 0.16776 0.0
Zn117 Zn 0.23613 0.75022 0.23371 0.0
O118 O 0.23167 0.7899 0.27553 0.0
C119 C 0.27369 0.79028 0.21183 0.0
O120 O 0.2043 0.78137 0.24471 0.0
H121 H 0.22372 0.69586 0.22042 0.0
H122 H 0.27647 0.81203 0.27787 0.0
H123 H 0.20063 0.7767 0.18672 0.0
O124 O 0.28111 0.7845 0.23604 0.0
O125 O 0.25396 0.77881 0.20407 0.0
H126 H 0.29575 0.73186 0.31517 0.0
O127 O 0.26836 0.71906 0.22331 0.0
O128 O 0.29333 0.72607 0.25679 0.0
O129 O 0.21842 0.72235 0.26373 0.0
O130 O 0.24308 0.73141 0.29661 0.0
C131 C 0.28995 0.71298 0.23614 0.0
H132 H 0.30391 0.83176 0.30909 0.0
H133 H 0.32373 0.75041 0.34802 0.0
H134 H 0.19686 0.67623 0.1887 0.0
H135 H 0.17366 0.75848 0.15305 0.0
C136 C 0.20501 0.78374 0.72944 0.0
N137 N 0.23883 0.70642 0.70392 0.0
C138 C 0.21232 0.7011 0.70489 0.0
C139 C 0.20455 0.68151 0.68885 0.0
C140 C 0.22412 0.66751 0.67128 0.0
C141 C 0.25116 0.67397 0.6697 0.0
C142 C 0.25821 0.69355 0.68657 0.0
Zn143 Zn 0.24783 0.73318 0.731 0.0
C144 C 0.28263 0.77435 0.70754 0.0
N145 N 0.26146 0.78971 0.78965 0.0
C146 C 0.24413 0.80418 0.80769 0.0
C147 C 0.2889 0.79132 0.78865 0.0
C148 C 0.30002 0.80694 0.80655 0.0
C149 C 0.28289 0.82162 0.82563 0.0
C150 C 0.25452 0.82062 0.82593 0.0
Zn151 Zn 0.25042 0.76324 0.76251 0.0
O152 O 0.21402 0.76118 0.71898 0.0
C153 C 0.21575 0.72124 0.78585 0.0
O154 O 0.21655 0.79121 0.74961 0.0
H155 H 0.30251 0.78009 0.77409 0.0
H156 H 0.19715 0.71172 0.71855 0.0
H157 H 0.22239 0.80275 0.80817 0.0
O158 O 0.22235 0.71381 0.76176 0.0
O159 O 0.22462 0.7428 0.79333 0.0
H160 H 0.27916 0.69812 0.68616 0.0
O161 O 0.28385 0.73489 0.77446 0.0
O162 O 0.28166 0.70558 0.74334 0.0
O163 O 0.27588 0.78257 0.73133 0.0
O164 O 0.27363 0.75272 0.70069 0.0
C165 C 0.29312 0.71269 0.76361 0.0
H166 H 0.18343 0.67717 0.69027 0.0
H167 H 0.26668 0.66347 0.65623 0.0
H168 H 0.32197 0.80745 0.80558 0.0
H169 H 0.24074 0.8318 0.84048 0.0
C170 C 0.2629 0.21308 0.78865 0.0
N171 N 0.28127 0.2935 0.76981 0.0
C172 C 0.2792 0.29398 0.7976 0.0
C173 C 0.29372 0.31127 0.81058 0.0
C174 C 0.31104 0.32801 0.79499 0.0
C175 C 0.31362 0.32674 0.76639 0.0
C176 C 0.29819 0.30932 0.75406 0.0
Zn177 Zn 0.25733 0.26765 0.75446 0.0
C178 C 0.28348 0.23392 0.71221 0.0
N179 N 0.20544 0.21106 0.73053 0.0
C180 C 0.1954 0.19001 0.74645 0.0
C181 C 0.20473 0.21234 0.70278 0.0
C182 C 0.19462 0.19163 0.68994 0.0
C183 C 0.18567 0.16878 0.7056 0.0
C184 C 0.18539 0.16849 0.73433 0.0
Zn185 Zn 0.22819 0.23835 0.74571 0.0
O186 O 0.27235 0.23611 0.78338 0.0
C187 C 0.20181 0.27282 0.78756 0.0
O188 O 0.24312 0.20763 0.77561 0.0
H189 H 0.21334 0.22871 0.69024 0.0
H190 H 0.26614 0.28093 0.8099 0.0
H191 H 0.19639 0.18915 0.76846 0.0
O192 O 0.22523 0.28118 0.78285 0.0
O193 O 0.19569 0.25324 0.77428 0.0
H194 H 0.29963 0.3085 0.73202 0.0
O195 O 0.21398 0.26955 0.71611 0.0
O196 O 0.24187 0.29897 0.72552 0.0
O197 O 0.26065 0.22437 0.71747 0.0
O198 O 0.28894 0.25383 0.7253 0.0
C199 C 0.22288 0.29294 0.71167 0.0
H200 H 0.29163 0.31138 0.83272 0.0
H201 H 0.32697 0.33937 0.75381 0.0
H202 H 0.19457 0.19321 0.66781 0.0
H203 H 0.17873 0.15127 0.74725 0.0
C204 C 0.7098 0.29295 0.76544 0.0
N205 N 0.78786 0.26477 0.7921 0.0
C206 C 0.78805 0.2924 0.79353 0.0
C207 C 0.80661 0.30257 0.80899 0.0
C208 C 0.82565 0.28425 0.82299 0.0
C209 C 0.82458 0.25574 0.822 0.0
C210 C 0.8054 0.24636 0.80623 0.0
Zn211 Zn 0.76251 0.25389 0.76454 0.0
C212 C 0.72438 0.21462 0.78605 0.0
N213 N 0.70994 0.23919 0.70383 0.0
C214 C 0.69889 0.25841 0.68504 0.0
C215 C 0.70519 0.21232 0.7043 0.0
C216 C 0.68826 0.20396 0.68587 0.0
C217 C 0.6765 0.2233 0.66644 0.0
C218 C 0.68212 0.25077 0.66577 0.0
Zn219 Zn 0.73463 0.24905 0.73217 0.0
O220 O 0.73165 0.28552 0.77755 0.0
C221 C 0.77354 0.28757 0.71066 0.0
O222 O 0.70544 0.2812 0.74426 0.0
H223 H 0.71455 0.19725 0.71901 0.0
H224 H 0.77432 0.30682 0.7819 0.0
H225 H 0.70302 0.27964 0.68503 0.0
O226 O 0.78012 0.28219 0.7352 0.0
O227 O 0.75395 0.27627 0.70248 0.0
H228 H 0.80507 0.22447 0.80462 0.0
O229 O 0.76346 0.21693 0.72032 0.0
O230 O 0.79252 0.22189 0.75082 0.0
O231 O 0.71615 0.22166 0.76228 0.0
O232 O 0.74488 0.22502 0.79361 0.0
C233 C 0.78612 0.20947 0.73075 0.0
H234 H 0.80624 0.32468 0.80965 0.0
H235 H 0.83895 0.24091 0.8325 0.0
H236 H 0.68449 0.18252 0.68666 0.0
H237 H 0.67326 0.26612 0.65093 0.0
C238 C 0.72081 0.78636 0.78921 0.0
N239 N 0.70855 0.71883 0.74593 0.0
C240 C 0.69752 0.71019 0.77088 0.0
C241 C 0.6776 0.69223 0.77293 0.0
C242 C 0.66896 0.68286 0.74915 0.0
C243 C 0.68036 0.69193 0.72351 0.0
C244 C 0.70037 0.71024 0.72235 0.0
Zn245 Zn 0.73808 0.74452 0.74707 0.0
C246 C 0.73015 0.79439 0.71048 0.0
N247 N 0.79876 0.79796 0.75536 0.0
C248 C 0.80399 0.80768 0.77955 0.0
C249 C 0.81225 0.80588 0.73142 0.0
C250 C 0.83184 0.82415 0.73113 0.0
C251 C 0.83721 0.83493 0.75558 0.0
C252 C 0.82306 0.82667 0.78007 0.0
Zn253 Zn 0.76939 0.77225 0.75322 0.0
O254 O 0.71319 0.76652 0.77752 0.0
C255 C 0.77692 0.72181 0.78984 0.0
O256 O 0.74457 0.79341 0.78319 0.0
H257 H 0.80743 0.7985 0.71233 0.0
H258 H 0.70437 0.71701 0.78939 0.0
H259 H 0.79301 0.80111 0.79836 0.0
O260 O 0.75641 0.71726 0.77743 0.0
O261 O 0.78745 0.74425 0.78404 0.0
H262 H 0.70949 0.71736 0.70275 0.0
O263 O 0.79389 0.75088 0.72254 0.0
O264 O 0.76293 0.72356 0.71649 0.0
O265 O 0.75057 0.79997 0.72259 0.0
O266 O 0.72036 0.77166 0.71661 0.0
C267 C 0.78632 0.73153 0.71007 0.0
H268 H 0.66921 0.68538 0.793 0.0
H269 H 0.67407 0.68482 0.70483 0.0
H270 H 0.84202 0.83062 0.71177 0.0
H271 H 0.8266 0.83492 0.79921 0.0
Fe272 Fe 0.01225 0.05732 0.50249 0.0
O273 O 0.00276 0.02 0.51273 0.0
Fe274 Fe 0.02849 0.98629 0.49896 0.0
Fe275 Fe 0.96745 0.00727 0.50474 0.0
O276 O 0.00518 0.01896 0.51318 0.0
O277 O 0.99312 0.9735 0.49101 0.0
O278 O 0.99067 0.97449 0.49072 0.0
Fe279 Fe 0.98372 0.93618 0.50189 0.0
C280 C 0.95737 0.0606 0.53575 0.0
O281 O 0.98174 0.06691 0.47545 0.0
O282 O 0.9685 0.02686 0.46605 0.0
O283 O 0.01283 0.92693 0.47078 0.0
O284 O 0.04817 0.95067 0.48129 0.0
O285 O 0.03061 0.00539 0.46032 0.0
O286 O 0.03957 0.04705 0.4699 0.0
O287 O 0.93307 0.98986 0.49376 0.0
O288 O 0.9507 0.94734 0.47868 0.0
C289 C 0.03961 0.0283 0.45325 0.0
O290 O 0.01506 0.92643 0.52784 0.0
O291 O 0.02765 0.96653 0.53759 0.0
O292 O 0.98234 0.06688 0.533 0.0
O293 O 0.94757 0.04263 0.52199 0.0
C294 C 0.97019 0.05241 0.46019 0.0
C295 C 0.93169 0.96791 0.48065 0.0
C296 C 0.95701 0.96567 0.55131 0.0
O297 O 0.96535 0.98871 0.5435 0.0
O298 O 0.95737 0.94635 0.53526 0.0
C299 C 0.03797 0.93278 0.46762 0.0
O300 O 0.06274 0.00386 0.5105 0.0
O301 O 0.0442 0.04562 0.5269 0.0
C302 C 0.02659 0.94086 0.54312 0.0
C303 C 0.06314 0.02496 0.5252 0.0
Fe304 Fe 0.50169 0.94177 0.02447 0.0
O305 O 0.50193 0.98196 0.01985 0.0
Fe306 Fe 0.46804 0.0052 0.00298 0.0
Fe307 Fe 0.53159 1.00046 0.99832 0.0
O308 O 0.49918 0.98205 0.01997 0.0
O309 O 0.49771 0.02376 0.98139 0.0
O310 O 0.50052 0.02363 0.98121 0.0
Fe311 Fe 0.49858 0.06399 0.97732 0.0
C312 C 0.55658 0.95612 0.04107 0.0
O313 O 0.53094 0.93393 0.99301 0.0
O314 O 0.53335 0.97367 0.96787 0.0
O315 O 0.46543 0.06159 0.95458 0.0
O316 O 0.43933 0.03239 0.98173 0.0
O317 O 0.46752 0.97864 0.97258 0.0
O318 O 0.47181 0.93868 0.99769 0.0
O319 O 0.55864 0.02344 0.97258 0.0
O320 O 0.52989 0.05521 0.94797 0.0
C321 C 0.46358 0.95337 0.97666 0.0
O322 O 0.47025 0.07181 0.00955 0.0
O323 O 0.46646 0.0317 0.03367 0.0
O324 O 0.53394 0.94539 0.04814 0.0
O325 O 0.56025 0.97356 0.01998 0.0
C326 C 0.53737 0.9475 0.97075 0.0
C327 C 0.55374 0.04188 0.95225 0.0
C328 C 0.5372 0.05177 0.02427 0.0
O329 O 0.53174 0.02703 0.02881 0.0
O330 O 0.52957 0.06636 0.00302 0.0
C331 C 0.44265 0.05121 0.96181 0.0
O332 O 0.44099 0.98218 0.02846 0.0
O333 O 0.46958 0.95034 0.05313 0.0
C334 C 0.46315 0.05791 0.03139 0.0
C335 C 0.44574 0.96355 0.04861 0.0
Fe336 Fe 0.99069 0.5573 0.97095 0.0
O337 O 0.99478 0.51756 0.98087 0.0
Fe338 Fe 0.03006 0.50013 0.99984 0.0
Fe339 Fe 0.96697 0.49828 0.00441 0.0
O340 O 0.99753 0.51763 0.98056 0.0
O341 O 0.00222 0.48125 0.02374 0.0
O342 O 0.9994 0.48123 0.02411 0.0
Fe343 Fe 0.00625 0.44152 0.03368 0.0
C344 C 0.95564 0.55522 0.02512 0.0
O345 O 0.96072 0.5463 0.94815 0.0
O346 O 0.93669 0.51927 0.97991 0.0
O347 O 0.03692 0.4327 0.00345 0.0
O348 O 0.0347 0.46909 0.97316 0.0
O349 O 0.05491 0.52337 0.97191 0.0
O350 O 0.02434 0.5489 0.94388 0.0
O351 O 0.97115 0.46711 0.97785 0.0
O352 O 0.97859 0.43106 0.00798 0.0
C353 C 0.04901 0.53958 0.9502 0.0
O354 O 0.03639 0.45239 0.05625 0.0
O355 O 0.06054 0.47871 0.02399 0.0
O356 O 0.95994 0.56604 1.00095 0.0
O357 O 0.96126 0.52947 0.03112 0.0
C358 C 0.93911 0.5346 0.95706 0.0
C359 C 0.97114 0.44148 0.98478 0.0
C360 C 0.94804 0.45907 0.05416 0.0
O361 O 0.94217 0.47485 0.03216 0.0
O362 O 0.9727 0.4501 0.06076 0.0
C363 C 0.0408 0.44343 0.97916 0.0
O364 O 0.02683 0.53105 0.02628 0.0
O365 O 0.01798 0.56781 0.99712 0.0
C366 C 0.05816 0.46361 0.047 0.0
C367 C 0.02632 0.55677 0.01978 0.0
Fe368 Fe 0.49807 0.50083 0.97169 0.0
O369 O 0.52112 0.48152 1.00049 0.0
Fe370 Fe 0.43912 0.52719 0.00857 0.0
Fe371 Fe 0.56121 0.47658 0.99616 0.0
O372 O 0.47897 0.52194 0.00208 0.0
O373 O 0.47925 0.52224 0.00441 0.0
O374 O 0.52136 0.48175 0.00283 0.0
Fe375 Fe 0.50228 0.50285 0.03326 0.0
C376 C 0.53964 0.45507 0.94659 0.0
O377 O 0.52388 0.53068 0.96429 0.0
O378 O 0.56365 0.50441 0.96225 0.0
O379 O 0.4792 0.52778 0.06168 0.0
O380 O 0.44694 0.55457 0.03641 0.0
O381 O 0.44239 0.55215 0.97262 0.0
O382 O 0.4717 0.52408 0.94503 0.0
O383 O 0.56803 0.50671 0.02145 0.0
O384 O 0.52822 0.5327 0.0271 0.0
C385 C 0.45371 0.54532 0.9489 0.0
O386 O 0.47638 0.4731 0.04058 0.0
O387 O 0.43664 0.49946 0.04255 0.0
O388 O 0.5211 0.47608 0.9432 0.0
O389 O 0.55339 0.44925 0.96832 0.0
C390 C 0.54831 0.52592 0.95444 0.0
C391 C 0.55391 0.52869 0.02889 0.0
C392 C 0.54662 0.45803 0.05568 0.0
O393 O 0.55787 0.45153 0.03186 0.0
O394 O 0.52877 0.47933 0.05997 0.0
C395 C 0.46068 0.54882 0.05819 0.0
O396 O 0.43234 0.49694 0.98338 0.0
O397 O 0.47216 0.47092 0.97781 0.0
C398 C 0.45195 0.47793 0.05039 0.0
C399 C 0.44647 0.47495 0.97595 0.0
Fe400 Fe 0.99832 0.47107 0.50386 0.0
O401 O 0.98287 0.50464 0.52275 0.0
Fe402 Fe 0.01492 0.49727 0.43772 0.0
Fe403 Fe 0.98382 0.50768 0.56228 0.0
O404 O 0.01604 0.49799 0.4776 0.0
O405 O 0.0162 0.50074 0.47722 0.0
O406 O 0.98298 0.5074 0.52233 0.0
Fe407 Fe 0.00087 0.53437 0.49618 0.0
C408 C 0.95886 0.45487 0.55381 0.0
O409 O 0.03227 0.46617 0.52622 0.0
O410 O 0.01333 0.4746 0.56786 0.0
O411 O 0.02276 0.55803 0.46599 0.0
O412 O 0.04243 0.52622 0.4358 0.0
O413 O 0.04151 0.46238 0.44495 0.0
O414 O 0.01803 0.43921 0.48038 0.0
O415 O 0.01438 0.53325 0.56032 0.0
O416 O 0.03484 0.5307 0.51844 0.0
C417 C 0.03738 0.44055 0.46083 0.0
O418 O 0.96688 0.53952 0.47381 0.0
O419 O 0.98519 0.53001 0.43214 0.0
O420 O 0.97657 0.44729 0.53393 0.0
O421 O 0.95611 0.47895 0.56385 0.0
C422 C 0.03313 0.46469 0.55213 0.0
C423 C 0.03535 0.5345 0.54372 0.0
C424 C 0.96187 0.56476 0.5394 0.0
O425 O 0.95754 0.54284 0.55508 0.0
O426 O 0.98121 0.56614 0.51983 0.0
C427 C 0.04011 0.55029 0.44583 0.0
O428 O 0.98445 0.47133 0.43997 0.0
O429 O 0.96435 0.47474 0.48182 0.0
C430 C 0.96566 0.54026 0.44797 0.0
C431 C 0.96363 0.47013 0.4568 0.0
Fe432 Fe 0.50223 0.96894 0.50816 0.0
O433 O 0.48392 0.00162 0.527 0.0
Fe434 Fe 0.51882 0.99708 0.4426 0.0
Fe435 Fe 0.4835 0.00537 0.56655 0.0
O436 O 0.51865 0.99732 0.48263 0.0
O437 O 0.51855 1.00009 0.48228 0.0
O438 O 0.48377 0.00434 0.52664 0.0
Fe439 Fe 0.49988 0.03268 0.50091 0.0
C440 C 0.46325 0.94988 0.55729 0.0
O441 O 0.53538 0.96623 0.53131 0.0
O442 O 0.51569 0.97515 0.57267 0.0
O443 O 0.52044 0.05821 0.47144 0.0
O444 O 0.54427 0.02762 0.44233 0.0
O445 O 0.54697 0.96322 0.44976 0.0
O446 O 0.52433 0.9383 0.48448 0.0
O447 O 0.51056 0.03465 0.56497 0.0
O448 O 0.53276 0.03228 0.52408 0.0
C449 C 0.5433 0.94065 0.46466 0.0
O450 O 0.46673 0.03453 0.47771 0.0
O451 O 0.48779 0.02863 0.43657 0.0
O452 O 0.48166 0.94345 0.5376 0.0
O453 O 0.45896 0.97382 0.56761 0.0
C454 C 0.53592 0.96564 0.5572 0.0
C455 C 0.53062 0.03994 0.54834 0.0
C456 C 0.45804 0.06089 0.54378 0.0
O457 O 0.45447 0.03838 0.55888 0.0
O458 O 0.4772 0.06324 0.52415 0.0
C459 C 0.53961 0.05165 0.45247 0.0
O460 O 0.49037 0.96919 0.4436 0.0
O461 O 0.46919 0.97012 0.48524 0.0
C462 C 0.46681 0.03679 0.45174 0.0
C463 C 0.47013 0.96464 0.46032 0.0
C464 C 0.15651 0.11568 0.25114 0.0
C465 C 0.14667 0.14302 0.2561 0.0
C466 C 0.1414 0.09419 0.26128 0.0
C467 C 0.12246 0.06193 0.31273 0.0
H468 H 0.04397 0.06634 0.32859 0.0
C469 C 0.07193 0.0505 0.41958 0.0
C470 C 0.05133 0.03299 0.42503 0.0
C471 C 0.08289 0.05534 0.3929 0.0
C472 C 0.06589 0.06433 0.32395 0.0
H473 H 0.11241 0.16992 0.27237 0.0
H474 H 0.08591 0.13267 0.28987 0.0
H475 H 0.06249 0.09063 0.28707 0.0
H476 H 0.02588 0.00683 0.40697 0.0
H477 H 0.04454 0.01631 0.35977 0.0
H478 H 0.12588 0.03766 0.35077 0.0
C479 C 0.10509 0.12752 0.27823 0.0
C480 C 0.07647 0.07825 0.30029 0.0
C481 C 0.12029 0.1489 0.26837 0.0
C482 C 0.04188 0.02033 0.40327 0.0
C483 C 0.05246 0.0257 0.37638 0.0
C484 C 0.11189 0.0483 0.33644 0.0
C485 C 0.11624 0.0999 0.27632 0.0
C486 C 0.10489 0.07837 0.29525 0.0
C487 C 0.07312 0.04318 0.37108 0.0
C488 C 0.08361 0.05058 0.34289 0.0
H489 H 0.17691 0.11076 0.24179 0.0
H490 H 0.15036 0.07309 0.25935 0.0
H491 H 0.14443 0.06175 0.30963 0.0
H492 H 0.07965 0.06042 0.43597 0.0
H493 H 0.09857 0.06922 0.3892 0.0
C494 C 0.82235 0.16795 0.28386 0.0
C495 C 0.81803 0.19611 0.2888 0.0
C496 C 0.84185 0.15016 0.29788 0.0
C497 C 0.90281 0.14915 0.33797 0.0
H498 H 0.87875 0.08257 0.37524 0.0
C499 C 0.95486 0.09528 0.43156 0.0
C500 C 0.95663 0.06641 0.436 0.0
C501 C 0.94064 0.10891 0.40999 0.0
C502 C 0.88607 0.10077 0.36458 0.0
H503 H 0.83156 0.22785 0.31147 0.0
H504 H 0.86557 0.19706 0.33553 0.0
H505 H 0.84935 0.11035 0.34331 0.0
H506 H 0.9457 0.02918 0.4203 0.0
H507 H 0.92087 0.05303 0.3825 0.0
H508 H 0.93931 0.13992 0.35941 0.0
C509 C 0.85396 0.18862 0.32091 0.0
C510 C 0.86917 0.11672 0.34628 0.0
C511 C 0.83432 0.20626 0.30722 0.0
C512 C 0.94443 0.05145 0.41774 0.0
C513 C 0.93015 0.06514 0.39608 0.0
C514 C 0.91975 0.13316 0.3561 0.0
C515 C 0.85768 0.16029 0.31677 0.0
C516 C 0.87706 0.14146 0.3333 0.0
C517 C 0.92786 0.0941 0.39209 0.0
C518 C 0.91131 0.10914 0.37022 0.0
H519 H 0.81007 0.15948 0.26987 0.0
H520 H 0.84437 0.12846 0.29414 0.0
H521 H 0.90968 0.16785 0.32793 0.0
H522 H 0.96392 0.10756 0.44516 0.0
H523 H 0.93898 0.13122 0.40791 0.0
C524 C 0.79821 0.87837 0.32106 0.0
C525 C 0.81919 0.86352 0.3056 0.0
C526 C 0.80405 0.89905 0.33707 0.0
C527 C 0.85892 0.94006 0.35442 0.0
H528 H 0.8262 0.92902 0.42823 0.0
C529 C 0.89886 0.9872 0.44589 0.0
C530 C 0.90749 0.9661 0.4654 0.0
C531 C 0.88122 0.98219 0.42615 0.0
C532 C 0.83521 0.93269 0.40764 0.0
H533 H 0.86234 0.85951 0.29325 0.0
H534 H 0.87293 0.89525 0.3219 0.0
H535 H 0.80985 0.90646 0.39118 0.0
H536 H 0.90295 0.92428 0.48127 0.0
H537 H 0.8716 0.91579 0.44767 0.0
H538 H 0.88558 0.96484 0.37156 0.0
C539 C 0.85183 0.89135 0.3213 0.0
C540 C 0.82574 0.9199 0.3863 0.0
C541 C 0.84588 0.87081 0.30499 0.0
C542 C 0.89644 0.94088 0.46647 0.0
C543 C 0.87846 0.93608 0.44723 0.0
C544 C 0.86839 0.95293 0.37584 0.0
C545 C 0.8311 0.90502 0.33828 0.0
C546 C 0.83811 0.92264 0.35959 0.0
C547 C 0.87154 0.95624 0.42619 0.0
C548 C 0.85729 0.94847 0.40284 0.0
H549 H 0.77739 0.87323 0.32156 0.0
H550 H 0.78753 0.90956 0.34939 0.0
H551 H 0.86862 0.94289 0.33402 0.0
H552 H 0.90732 0.00675 0.44463 0.0
H553 H 0.8761 0.99811 0.41021 0.0
C554 C 0.16073 0.81384 0.27579 0.0
C555 C 0.18875 0.8165 0.27564 0.0
C556 C 0.14195 0.82995 0.29238 0.0
C557 C 0.13307 0.89006 0.33528 0.0
H558 H 0.08927 0.84397 0.38407 0.0
C559 C 0.08197 0.92632 0.4382 0.0
C560 C 0.05548 0.91918 0.44556 0.0
C561 C 0.0972 0.91513 0.41567 0.0
C562 C 0.101 0.85729 0.37041 0.0
H563 H 0.21893 0.83962 0.29048 0.0
H564 H 0.18626 0.86783 0.31902 0.0
H565 H 0.11551 0.82445 0.34489 0.0
H566 H 0.02449 0.89429 0.43501 0.0
H567 H 0.05069 0.87538 0.39588 0.0
H568 H 0.11872 0.92288 0.361 0.0
C569 C 0.17869 0.85333 0.30661 0.0
C570 C 0.11595 0.84611 0.34787 0.0
C571 C 0.19742 0.83707 0.29037 0.0
C572 C 0.04485 0.90026 0.43015 0.0
C573 C 0.05995 0.88925 0.40766 0.0
C574 C 0.11793 0.90134 0.35776 0.0
C575 C 0.15094 0.84915 0.30868 0.0
C576 C 0.1324 0.86226 0.33026 0.0
C577 C 0.08623 0.89664 0.40001 0.0
C578 C 0.10196 0.88498 0.37577 0.0
H579 H 0.15356 0.79808 0.26467 0.0
H580 H 0.12059 0.82655 0.2934 0.0
H581 H 0.14553 0.903 0.32196 0.0
H582 H 0.09081 0.94088 0.44951 0.0
H583 H 0.11757 0.92092 0.41056 0.0
C584 C 0.16446 0.7891 0.70139 0.0
C585 C 0.18221 0.80129 0.71669 0.0
C586 C 0.14527 0.80533 0.68591 0.0
C587 C 0.11094 0.87653 0.67239 0.0
H588 H 0.1041 0.84952 0.60116 0.0
C589 C 0.05721 0.94074 0.58213 0.0
C590 C 0.04107 0.92664 0.56667 0.0
C591 C 0.07263 0.92662 0.60275 0.0
C592 C 0.1055 0.85723 0.62108 0.0
H593 H 0.19295 0.84011 0.72876 0.0
H594 H 0.15969 0.86875 0.70104 0.0
H595 H 0.13408 0.8231 0.63294 0.0
H596 H 0.02764 0.88667 0.56179 0.0
H597 H 0.05445 0.86219 0.59752 0.0
H598 H 0.08262 0.91114 0.65986 0.0
C599 C 0.16038 0.84653 0.70135 0.0
C600 C 0.12267 0.84202 0.63942 0.0
C601 C 0.17945 0.83016 0.71723 0.0
C602 C 0.04 0.89824 0.57302 0.0
C603 C 0.05547 0.88414 0.59347 0.0
C604 C 0.09381 0.89193 0.65385 0.0
C605 C 0.14356 0.83428 0.68489 0.0
C606 C 0.12543 0.85122 0.66546 0.0
C607 C 0.07237 0.89802 0.60823 0.0
C608 C 0.09071 0.88227 0.62809 0.0
H609 H 0.16582 0.76688 0.70085 0.0
H610 H 0.13213 0.7951 0.67424 0.0
H611 H 0.11245 0.88421 0.69228 0.0
H612 H 0.05856 0.96252 0.57777 0.0
H613 H 0.08555 0.93789 0.61365 0.0
C614 C 0.19189 0.13736 0.66697 0.0
C615 C 0.17774 0.14521 0.69162 0.0
C616 C 0.18325 0.11698 0.65233 0.0
C617 C 0.12089 0.08446 0.64386 0.0
H618 H 0.16959 0.03975 0.5949 0.0
C619 C 0.07642 0.01834 0.57261 0.0
C620 C 0.08416 0.02413 0.5449 0.0
C621 C 0.09199 0.0254 0.59301 0.0
C622 C 0.15581 0.05204 0.60857 0.0
H623 H 0.14439 0.13634 0.72106 0.0
H624 H 0.12995 0.09991 0.69607 0.0
H625 H 0.18867 0.06639 0.62763 0.0
H626 H 0.11453 0.04092 0.51644 0.0
H627 H 0.14206 0.05358 0.55233 0.0
H628 H 0.08811 0.07038 0.62472 0.0
C629 C 0.14724 0.11023 0.68758 0.0
C630 C 0.16667 0.06742 0.62724 0.0
C631 C 0.1557 0.13093 0.7021 0.0
C632 C 0.10866 0.03561 0.53773 0.0
C633 C 0.12428 0.04289 0.55826 0.0
C634 C 0.11011 0.06887 0.62553 0.0
C635 C 0.16047 0.1035 0.66212 0.0
C636 C 0.14931 0.08431 0.64473 0.0
C637 C 0.11532 0.039 0.58607 0.0
C638 C 0.12741 0.05286 0.60736 0.0
H639 H 0.20947 0.14732 0.65864 0.0
H640 H 0.19388 0.11264 0.63277 0.0
H641 H 0.10681 0.0976 0.65646 0.0
H642 H 0.05706 0.01044 0.57853 0.0
H643 H 0.08471 0.02197 0.61424 0.0
C644 C 0.79594 0.17411 0.69662 0.0
C645 C 0.80488 0.18754 0.71806 0.0
C646 C 0.81384 0.15567 0.68202 0.0
C647 C 0.88705 0.13985 0.66331 0.0
H648 H 0.85952 0.08237 0.62654 0.0
C649 C 0.94111 0.10023 0.56402 0.0
C650 C 0.93959 0.07293 0.55798 0.0
C651 C 0.92608 0.11107 0.58672 0.0
C652 C 0.86792 0.09792 0.63689 0.0
H653 H 0.83936 0.19097 0.74203 0.0
H654 H 0.87086 0.15792 0.7167 0.0
H655 H 0.83176 0.10402 0.66334 0.0
H656 H 0.92199 0.03518 0.57117 0.0
H657 H 0.89668 0.05355 0.61145 0.0
H658 H 0.92364 0.13306 0.63752 0.0
C659 C 0.84997 0.16225 0.71088 0.0
C660 C 0.85174 0.11067 0.65784 0.0
C661 C 0.83193 0.18102 0.72551 0.0
C662 C 0.92295 0.05654 0.57506 0.0
C663 C 0.90847 0.06713 0.59818 0.0
C664 C 0.90352 0.12667 0.64273 0.0
C665 C 0.84121 0.14978 0.68859 0.0
C666 C 0.86061 0.13258 0.67053 0.0
C667 C 0.90981 0.09457 0.60435 0.0
C668 C 0.89376 0.10622 0.62854 0.0
H669 H 0.7752 0.17851 0.69034 0.0
H670 H 0.80637 0.14703 0.66471 0.0
H671 H 0.8946 0.15665 0.67256 0.0
H672 H 0.9539 0.11321 0.55113 0.0
H673 H 0.92715 0.13247 0.59027 0.0
C674 C 0.88251 0.85095 0.7425 0.0
C675 C 0.85585 0.85646 0.75421 0.0
C676 C 0.89711 0.87256 0.73198 0.0
C677 C 0.87718 0.93559 0.69432 0.0
H678 H 0.95538 0.93378 0.67754 0.0
C679 C 0.92702 0.94243 0.58672 0.0
C680 C 0.94596 0.96151 0.57987 0.0
C681 C 0.91658 0.93839 0.61371 0.0
C682 C 0.93351 0.93506 0.68239 0.0
H683 H 0.8246 0.88844 0.76717 0.0
H684 H 0.85009 0.92648 0.74851 0.0
H685 H 0.93812 0.91119 0.72061 0.0
H686 H 0.96898 0.9913 0.59583 0.0
H687 H 0.95129 0.98329 0.64354 0.0
H688 H 0.87264 0.95724 0.65505 0.0
C689 C 0.85974 0.9055 0.74749 0.0
C690 C 0.92365 0.92213 0.70695 0.0
C691 C 0.84522 0.8838 0.75827 0.0
C692 C 0.95431 0.9765 0.60057 0.0
C693 C 0.94427 0.97198 0.62777 0.0
C694 C 0.88704 0.94817 0.66973 0.0
C695 C 0.88504 0.9 0.73267 0.0
C696 C 0.8954 0.92104 0.71245 0.0
C697 C 0.92524 0.95298 0.63444 0.0
C698 C 0.91524 0.94679 0.66303 0.0
H699 H 0.89099 0.82994 0.73917 0.0
H700 H 0.91647 0.86757 0.72058 0.0
H701 H 0.85533 0.93493 0.69775 0.0
H702 H 0.92014 0.93071 0.57119 0.0
H703 H 0.90214 0.92336 0.61853 0.0
C704 C 0.32303 0.21124 0.18547 0.0
C705 C 0.29965 0.19995 0.19735 0.0
C706 C 0.3418 0.19595 0.16824 0.0
C707 C 0.36765 0.12528 0.15377 0.0
H708 H 0.39242 0.15719 0.08285 0.0
C709 C 0.4294 0.06026 0.07203 0.0
C710 C 0.44829 0.07295 0.0539 0.0
C711 C 0.41285 0.07558 0.09106 0.0
C712 C 0.38618 0.14807 0.1028 0.0
H713 H 0.27753 0.16388 0.20043 0.0
H714 H 0.31056 0.1371 0.17057 0.0
H715 H 0.36017 0.18464 0.11261 0.0
H716 H 0.46596 0.1111 0.04264 0.0
H717 H 0.43795 0.13755 0.07653 0.0
H718 H 0.39395 0.08888 0.14434 0.0
C719 C 0.31428 0.15776 0.1746 0.0
C720 C 0.36757 0.1638 0.11975 0.0
C721 C 0.29531 0.17318 0.1915 0.0
C722 C 0.4513 0.10087 0.05612 0.0
C723 C 0.43508 0.11607 0.07541 0.0
C724 C 0.38657 0.10964 0.13699 0.0
C725 C 0.33774 0.16897 0.16292 0.0
C726 C 0.35797 0.15248 0.14528 0.0
C727 C 0.41513 0.10383 0.09264 0.0
C728 C 0.39595 0.12077 0.11119 0.0
H729 H 0.32692 0.23182 0.1896 0.0
H730 H 0.3598 0.205 0.15954 0.0
H731 H 0.36079 0.1162 0.17355 0.0
H732 H 0.42651 0.03879 0.07067 0.0
H733 H 0.39754 0.06549 0.10375 0.0
C734 C 0.79819 0.29575 0.17168 0.0
C735 C 0.80117 0.29343 0.20007 0.0
C736 C 0.81191 0.31487 0.15455 0.0
C737 C 0.84668 0.37858 0.15866 0.0
H738 H 0.87483 0.36471 0.08456 0.0
C739 C 0.92849 0.43925 0.09893 0.0
C740 C 0.92563 0.44677 0.07096 0.0
C741 C 0.91028 0.42293 0.11381 0.0
C742 C 0.86676 0.36903 0.10511 0.0
H743 H 0.82212 0.30818 0.23245 0.0
H744 H 0.84666 0.34024 0.20285 0.0
H745 H 0.85026 0.3302 0.11167 0.0
H746 H 0.90099 0.44343 0.03684 0.0
H747 H 0.86924 0.41456 0.06287 0.0
H748 H 0.86405 0.41692 0.1524 0.0
C749 C 0.83297 0.32836 0.19368 0.0
C750 C 0.85263 0.34923 0.12069 0.0
C751 C 0.81907 0.30966 0.21071 0.0
C752 C 0.9035 0.43836 0.05845 0.0
C753 C 0.88554 0.42153 0.07326 0.0
C754 C 0.86105 0.39813 0.14324 0.0
C755 C 0.82911 0.33187 0.16544 0.0
C756 C 0.84276 0.3535 0.1479 0.0
C757 C 0.88901 0.41324 0.10101 0.0
C758 C 0.87158 0.39349 0.1164 0.0
H759 H 0.78441 0.28367 0.16289 0.0
H760 H 0.8083 0.31695 0.13295 0.0
H761 H 0.83873 0.38316 0.17916 0.0
H762 H 0.94544 0.44522 0.1091 0.0
H763 H 0.91365 0.41681 0.13509 0.0
C764 C 0.7099 0.80428 0.17139 0.0
C765 C 0.72615 0.81257 0.19094 0.0
C766 C 0.69671 0.82374 0.15307 0.0
C767 C 0.68138 0.86872 0.1085 0.0
H768 H 0.63542 0.9286 0.1418 0.0
C769 C 0.60706 0.94547 0.04643 0.0
C770 C 0.58002 0.94667 0.05789 0.0
C771 C 0.62877 0.93348 0.06177 0.0
C772 C 0.64838 0.91216 0.13217 0.0
H773 H 0.74179 0.8477 0.20625 0.0
H774 H 0.71816 0.88186 0.17447 0.0
H775 H 0.66729 0.89827 0.16944 0.0
H776 H 0.5547 0.93784 0.09485 0.0
H777 H 0.59247 0.9174 0.12157 0.0
H778 H 0.6618 0.88202 0.07146 0.0
C779 C 0.71586 0.86024 0.17329 0.0
C780 C 0.66672 0.89492 0.14792 0.0
C781 C 0.72944 0.8407 0.19138 0.0
C782 C 0.57528 0.937 0.08535 0.0
C783 C 0.59694 0.92549 0.10076 0.0
C784 C 0.6633 0.88617 0.09265 0.0
C785 C 0.69918 0.85195 0.15412 0.0
C786 C 0.68284 0.87256 0.13644 0.0
C787 C 0.62384 0.92304 0.08897 0.0
C788 C 0.64606 0.90758 0.10453 0.0
H789 H 0.70703 0.78276 0.17049 0.0
H790 H 0.68376 0.81677 0.13872 0.0
H791 H 0.69372 0.85174 0.09909 0.0
H792 H 0.61133 0.95272 0.0253 0.0
H793 H 0.64935 0.93193 0.05224 0.0
C794 C 0.14093 0.71599 0.14215 0.0
C795 C 0.16706 0.70362 0.14849 0.0
C796 C 0.12469 0.70271 0.12629 0.0
C797 C 0.1275 0.64398 0.08124 0.0
H798 H 0.05039 0.64576 0.10406 0.0
C799 C 0.06081 0.56309 0.05281 0.0
C800 C 0.03864 0.57417 0.03758 0.0
C801 C 0.07503 0.58038 0.06646 0.0
C802 C 0.07188 0.64524 0.09749 0.0
H803 H 0.19728 0.66852 0.14161 0.0
H804 H 0.16876 0.64493 0.11534 0.0
H805 H 0.07883 0.67445 0.12577 0.0
H806 H 0.01285 0.61157 0.02597 0.0
H807 H 0.0373 0.64171 0.05073 0.0
H808 H 0.12062 0.61375 0.0539 0.0
C809 C 0.16075 0.665 0.12211 0.0
C810 C 0.08815 0.66182 0.10968 0.0
C811 C 0.17702 0.67837 0.13761 0.0
C812 C 0.02998 0.60257 0.03749 0.0
C813 C 0.04385 0.61977 0.05164 0.0
C814 C 0.11136 0.62705 0.06951 0.0
C815 C 0.1342 0.67675 0.11657 0.0
C816 C 0.11627 0.66114 0.10194 0.0
C817 C 0.06691 0.60888 0.06558 0.0
C818 C 0.08354 0.62735 0.07775 0.0
H819 H 0.13262 0.7354 0.15027 0.0
H820 H 0.10453 0.71262 0.12201 0.0
H821 H 0.14886 0.6434 0.07421 0.0
H822 H 0.06798 0.54129 0.0531 0.0
H823 H 0.09271 0.5716 0.07726 0.0
C824 C 0.2927 0.86587 0.84366 0.0
C825 C 0.2956 0.83693 0.84526 0.0
C826 C 0.30952 0.88005 0.85815 0.0
C827 C 0.37732 0.86838 0.88733 0.0
H828 H 0.355 0.93685 0.92175 0.0
C829 C 0.44508 0.91266 0.95976 0.0
C830 C 0.44626 0.94131 0.95827 0.0
C831 C 0.42682 0.90127 0.94463 0.0
C832 C 0.36161 0.91791 0.91191 0.0
H833 H 0.31694 0.80008 0.86426 0.0
H834 H 0.34552 0.8246 0.89024 0.0
H835 H 0.32131 0.9145 0.89971 0.0
H836 H 0.42934 0.98043 0.93919 0.0
H837 H 0.39741 0.96043 0.91265 0.0
H838 H 0.41746 0.87156 0.89966 0.0
C839 C 0.33094 0.83651 0.87732 0.0
C840 C 0.34229 0.90508 0.89933 0.0
C841 C 0.31435 0.82243 0.86275 0.0
C842 C 0.42909 0.95826 0.94073 0.0
C843 C 0.41059 0.94684 0.92573 0.0
C844 C 0.39653 0.88112 0.89993 0.0
C845 C 0.32948 0.86546 0.87447 0.0
C846 C 0.34985 0.87992 0.88723 0.0
C847 C 0.4091 0.91821 0.92769 0.0
C848 C 0.38888 0.90585 0.91268 0.0
H849 H 0.2786 0.87743 0.83 0.0
H850 H 0.30787 0.90234 0.85543 0.0
H851 H 0.38411 0.84945 0.87754 0.0
H852 H 0.45796 0.89898 0.97305 0.0
H853 H 0.42604 0.87917 0.94684 0.0
C854 C 0.15413 0.28419 0.80952 0.0
C855 C 0.18222 0.28718 0.80764 0.0
C856 C 0.13594 0.30031 0.82689 0.0
C857 C 0.10539 0.32821 0.87696 0.0
H858 H 0.1196 0.40438 0.87891 0.0
C859 C 0.06097 0.3971 0.96394 0.0
C860 C 0.05368 0.42542 0.95759 0.0
C861 C 0.07354 0.38009 0.94393 0.0
C862 C 0.11502 0.38331 0.87842 0.0
H863 H 0.21332 0.30844 0.82366 0.0
H864 H 0.182 0.3359 0.85369 0.0
H865 H 0.14687 0.37472 0.84729 0.0
H866 H 0.05327 0.45778 0.92478 0.0
H867 H 0.07509 0.42806 0.88986 0.0
H868 H 0.07348 0.33693 0.90821 0.0
C869 C 0.17377 0.32175 0.84138 0.0
C870 C 0.13091 0.36617 0.86048 0.0
C871 C 0.19178 0.30579 0.82421 0.0
C872 C 0.05881 0.43615 0.93052 0.0
C873 C 0.0714 0.4191 0.91048 0.0
C874 C 0.08946 0.34541 0.89501 0.0
C875 C 0.14557 0.3197 0.84256 0.0
C876 C 0.12669 0.33827 0.8599 0.0
C877 C 0.07917 0.39089 0.917 0.0
C878 C 0.09438 0.37308 0.89627 0.0
H879 H 0.14612 0.27006 0.79702 0.0
H880 H 0.1143 0.29821 0.8274 0.0
H881 H 0.10163 0.30683 0.87703 0.0
H882 H 0.05727 0.38802 0.98452 0.0
H883 H 0.07955 0.35859 0.94983 0.0
C884 C 0.68728 0.18355 0.79537 0.0
C885 C 0.71025 0.1941 0.80417 0.0
C886 C 0.67402 0.16387 0.81178 0.0
C887 C 0.66446 0.13442 0.88335 0.0
H888 H 0.63391 0.07779 0.84798 0.0
C889 C 0.60231 0.05328 0.94478 0.0
C890 C 0.57695 0.0511 0.93426 0.0
C891 C 0.62223 0.06708 0.92912 0.0
C892 C 0.64229 0.09347 0.8582 0.0
H893 H 0.7372 0.19207 0.8374 0.0
H894 H 0.71411 0.15741 0.86607 0.0
H895 H 0.66153 0.10939 0.82078 0.0
H896 H 0.55323 0.06032 0.8986 0.0
H897 H 0.58791 0.08371 0.87125 0.0
H898 H 0.64485 0.11853 0.92077 0.0
C899 C 0.70622 0.16465 0.84647 0.0
C900 C 0.65806 0.11172 0.84257 0.0
C901 C 0.71953 0.18447 0.82999 0.0
C902 C 0.57257 0.0616 0.90728 0.0
C903 C 0.59252 0.07497 0.89155 0.0
C904 C 0.64876 0.11603 0.89904 0.0
C905 C 0.68334 0.15396 0.8375 0.0
C906 C 0.66883 0.13289 0.85478 0.0
C907 C 0.61734 0.07854 0.90247 0.0
C908 C 0.63696 0.09572 0.88654 0.0
H909 H 0.67941 0.19052 0.77569 0.0
H910 H 0.65616 0.15667 0.80435 0.0
H911 H 0.67222 0.15053 0.89348 0.0
H912 H 0.60618 0.04569 0.96562 0.0
H913 H 0.64121 0.06929 0.93806 0.0
C914 C 0.77839 0.67471 0.81364 0.0
C915 C 0.78862 0.70053 0.81008 0.0
C916 C 0.78999 0.65391 0.83163 0.0
C917 C 0.83202 0.60936 0.85486 0.0
H918 H 0.85256 0.62416 0.92664 0.0
C919 C 0.9179 0.54649 0.91276 0.0
C920 C 0.9148 0.54283 0.94143 0.0
C921 C 0.89721 0.56124 0.89802 0.0
C922 C 0.84653 0.61958 0.90684 0.0
H923 H 0.81862 0.72493 0.82323 0.0
H924 H 0.83888 0.68847 0.85489 0.0
H925 H 0.82712 0.66064 0.89892 0.0
H926 H 0.88711 0.55009 0.97713 0.0
H927 H 0.85083 0.5763 0.95128 0.0
H928 H 0.85225 0.56859 0.8624 0.0
C929 C 0.82179 0.68447 0.8437 0.0
C930 C 0.83229 0.64056 0.89086 0.0
C931 C 0.81031 0.70528 0.82547 0.0
C932 C 0.88984 0.55239 0.95499 0.0
C933 C 0.86926 0.56762 0.94026 0.0
C934 C 0.84651 0.58848 0.87071 0.0
C935 C 0.81195 0.65847 0.84669 0.0
C936 C 0.82528 0.63578 0.86453 0.0
C937 C 0.8732 0.573 0.91175 0.0
C938 C 0.85429 0.59352 0.89668 0.0
H939 H 0.76162 0.67035 0.80219 0.0
H940 H 0.78182 0.63419 0.83372 0.0
H941 H 0.82701 0.60512 0.83457 0.0
H942 H 0.93703 0.53938 0.90189 0.0
H943 H 0.90091 0.56518 0.87611 0.0
C944 C 0.21966 0.32484 0.1916 0.0
C945 C 0.20989 0.29886 0.19628 0.0
C946 C 0.2073 0.345 0.17344 0.0
C947 C 0.1632 0.35611 0.1154 0.0
H948 H 0.14515 0.42945 0.1412 0.0
C949 C 0.07973 0.45238 0.09117 0.0
C950 C 0.08254 0.45494 0.06243 0.0
C951 C 0.10003 0.43717 0.1061 0.0
C952 C 0.15028 0.40914 0.13363 0.0
H953 H 0.17983 0.27352 0.18494 0.0
H954 H 0.15818 0.30891 0.15299 0.0
H955 H 0.17038 0.3936 0.16975 0.0
H956 H 0.10932 0.44504 0.02674 0.0
H957 H 0.14497 0.4181 0.05294 0.0
H958 H 0.1424 0.3715 0.0796 0.0
C959 C 0.17553 0.31352 0.16344 0.0
C960 C 0.16479 0.38864 0.1499 0.0
C961 C 0.18781 0.29332 0.18183 0.0
C962 C 0.10687 0.44366 0.04892 0.0
C963 C 0.12706 0.42799 0.06387 0.0
C964 C 0.14891 0.37671 0.09898 0.0
C965 C 0.18497 0.33968 0.15932 0.0
C966 C 0.171 0.36177 0.14117 0.0
C967 C 0.12336 0.42383 0.09254 0.0
C968 C 0.14188 0.40331 0.10815 0.0
H969 H 0.23673 0.32983 0.20225 0.0
H970 H 0.21524 0.36482 0.17045 0.0
H971 H 0.16793 0.33568 0.10803 0.0
H972 H 0.06104 0.46074 0.10201 0.0
H973 H 0.0965 0.43422 0.12813 0.0
C974 C 0.18182 0.68681 0.79337 0.0
C975 C 0.19853 0.70389 0.80457 0.0
C976 C 0.16741 0.66826 0.81012 0.0
C977 C 0.14463 0.64918 0.88304 0.0
H978 H 0.13402 0.5808 0.85219 0.0
C979 C 0.09353 0.56038 0.94583 0.0
C980 C 0.07145 0.55182 0.93334 0.0
C981 C 0.11151 0.57717 0.93097 0.0
C982 C 0.13679 0.59979 0.86111 0.0
H983 H 0.21281 0.71513 0.84243 0.0
H984 H 0.18825 0.68206 0.87185 0.0
H985 H 0.16007 0.61402 0.82551 0.0
H986 H 0.05174 0.55315 0.89517 0.0
H987 H 0.08366 0.5814 0.86904 0.0
H988 H 0.12164 0.63431 0.91895 0.0
C989 C 0.1858 0.68339 0.85003 0.0
C990 C 0.15157 0.61908 0.84571 0.0
C991 C 0.19995 0.7024 0.83317 0.0
C992 C 0.06866 0.5592 0.90533 0.0
C993 C 0.08693 0.57544 0.89037 0.0
C994 C 0.13017 0.62963 0.89863 0.0
C995 C 0.16961 0.66569 0.83869 0.0
C996 C 0.15528 0.64439 0.85614 0.0
C997 C 0.10815 0.58526 0.90315 0.0
C998 C 0.12568 0.6049 0.88767 0.0
H999 H 0.17998 0.68762 0.77144 0.0
H1000 H 0.15455 0.65586 0.80048 0.0
H1001 H 0.14671 0.66839 0.89185 0.0
H1002 H 0.09598 0.55545 0.96748 0.0
H1003 H 0.12775 0.58425 0.94135 0.0
C1004 C 0.26783 0.16611 0.8139 0.0
C1005 C 0.27513 0.19316 0.8098 0.0
C1006 C 0.28024 0.14743 0.83361 0.0
C1007 C 0.31983 0.14512 0.89532 0.0
H1008 H 0.35178 0.07297 0.87422 0.0
C1009 C 0.41753 0.09121 0.93678 0.0
C1010 C 0.41849 0.06361 0.94731 0.0
C1011 C 0.39503 0.10375 0.92333 0.0
C1012 C 0.34245 0.0928 0.88061 0.0
H1013 H 0.3009 0.22184 0.82342 0.0
H1014 H 0.32242 0.18951 0.85733 0.0
H1015 H 0.32084 0.10165 0.84401 0.0
H1016 H 0.39659 0.02742 0.9518 0.0
H1017 H 0.35711 0.04946 0.92715 0.0
H1018 H 0.34269 0.13703 0.93102 0.0
C1019 C 0.30695 0.18269 0.84567 0.0
C1020 C 0.32477 0.10922 0.86336 0.0
C1021 C 0.29475 0.20119 0.826 0.0
C1022 C 0.39635 0.04873 0.94393 0.0
C1023 C 0.37388 0.06125 0.92984 0.0
C1024 C 0.33754 0.12885 0.91238 0.0
C1025 C 0.29991 0.15559 0.84973 0.0
C1026 C 0.31417 0.13601 0.87006 0.0
C1027 C 0.37301 0.08897 0.91968 0.0
C1028 C 0.3498 0.10301 0.9047 0.0
H1029 H 0.25277 0.1593 0.80172 0.0
H1030 H 0.27438 0.12669 0.8363 0.0
H1031 H 0.31148 0.16539 0.90137 0.0
H1032 H 0.4341 0.10335 0.93923 0.0
H1033 H 0.395 0.12504 0.91542 0.0
C1034 C 0.85885 0.31857 0.82657 0.0
C1035 C 0.84657 0.2954 0.83797 0.0
C1036 C 0.87607 0.33135 0.8416 0.0
C1037 C 0.88966 0.33939 0.9132 0.0
H1038 H 0.9494 0.37775 0.87931 0.0
C1039 C 0.9567 0.39587 0.97592 0.0
C1040 C 0.96049 0.42314 0.96643 0.0
C1041 C 0.94547 0.37864 0.95955 0.0
C1042 C 0.93268 0.36723 0.88897 0.0
H1043 H 0.84412 0.26644 0.87351 0.0
H1044 H 0.87499 0.28828 0.8996 0.0
H1045 H 0.92643 0.34863 0.85218 0.0
H1046 H 0.95617 0.45332 0.93183 0.0
H1047 H 0.93654 0.4229 0.90303 0.0
H1048 H 0.89604 0.35791 0.94999 0.0
C1049 C 0.87064 0.29702 0.87924 0.0
C1050 C 0.9195 0.35055 0.87348 0.0
C1051 C 0.85321 0.2843 0.86419 0.0
C1052 C 0.95343 0.43249 0.93979 0.0
C1053 C 0.94234 0.41506 0.92327 0.0
C1054 C 0.90301 0.3558 0.92872 0.0
C1055 C 0.88174 0.32112 0.86836 0.0
C1056 C 0.89757 0.33671 0.88532 0.0
C1057 C 0.93791 0.3881 0.9332 0.0
C1058 C 0.92445 0.37011 0.91669 0.0
H1059 H 0.85464 0.3273 0.80616 0.0
H1060 H 0.884 0.34994 0.83257 0.0
H1061 H 0.87254 0.32955 0.92291 0.0
H1062 H 0.96199 0.38785 0.99626 0.0
H1063 H 0.94258 0.35785 0.96759 0.0
C1064 C 0.70662 0.82853 0.81474 0.0
C1065 C 0.70162 0.80214 0.80829 0.0
C1066 C 0.68757 0.84433 0.83121 0.0
C1067 C 0.63266 0.83969 0.88437 0.0
H1068 H 0.6085 0.91506 0.85926 0.0
C1069 C 0.549 0.90437 0.94637 0.0
C1070 C 0.5524 0.9322 0.94853 0.0
C1071 C 0.56531 0.88884 0.92741 0.0
C1072 C 0.61525 0.89418 0.86677 0.0
H1073 H 0.67309 0.77133 0.81454 0.0
H1074 H 0.64006 0.79879 0.84395 0.0
H1075 H 0.64176 0.88703 0.8308 0.0
H1076 H 0.57495 0.96588 0.93207 0.0
H1077 H 0.60416 0.93859 0.89962 0.0
H1078 H 0.60715 0.84686 0.92074 0.0
C1079 C 0.65863 0.80725 0.836 0.0
C1080 C 0.63422 0.87814 0.8504 0.0
C1081 C 0.67749 0.7916 0.81916 0.0
C1082 C 0.57178 0.94449 0.93071 0.0
C1083 C 0.58846 0.92882 0.91204 0.0
C1084 C 0.61402 0.85582 0.90093 0.0
C1085 C 0.66337 0.83388 0.84189 0.0
C1086 C 0.64309 0.85077 0.85908 0.0
C1087 C 0.58578 0.90064 0.9105 0.0
C1088 C 0.60504 0.8833 0.89237 0.0
H1089 H 0.72498 0.83725 0.80657 0.0
H1090 H 0.69179 0.86471 0.8357 0.0
H1091 H 0.63942 0.81872 0.89163 0.0
H1092 H 0.53394 0.89448 0.95964 0.0
H1093 H 0.56209 0.86745 0.9263 0.0
C1094 C 0.84126 0.72569 0.18306 0.0
C1095 C 0.81908 0.71433 0.19753 0.0
C1096 C 0.85927 0.70966 0.16545 0.0
C1097 C 0.88485 0.63779 0.15245 0.0
H1098 H 0.89535 0.6635 0.07617 0.0
C1099 C 0.92794 0.56327 0.06961 0.0
C1100 C 0.94312 0.57354 0.04651 0.0
C1101 C 0.91527 0.58113 0.08896 0.0
C1102 C 0.8932 0.65607 0.09749 0.0
H1103 H 0.79899 0.67704 0.20551 0.0
H1104 H 0.83051 0.64929 0.1756 0.0
H1105 H 0.87032 0.69409 0.10863 0.0
H1106 H 0.95794 0.61042 0.0263 0.0
H1107 H 0.93695 0.64122 0.06036 0.0
H1108 H 0.90781 0.59992 0.14169 0.0
C1109 C 0.83392 0.67051 0.17756 0.0
C1110 C 0.87876 0.6737 0.11607 0.0
C1111 C 0.81575 0.68655 0.19457 0.0
C1112 C 0.94601 0.60189 0.04364 0.0
C1113 C 0.93379 0.61963 0.06317 0.0
C1114 C 0.89963 0.6203 0.134 0.0
C1115 C 0.85576 0.68186 0.16263 0.0
C1116 C 0.87399 0.66456 0.14364 0.0
C1117 C 0.91788 0.60965 0.08597 0.0
C1118 C 0.90361 0.62895 0.10609 0.0
H1119 H 0.84431 0.74702 0.18491 0.0
H1120 H 0.87599 0.7189 0.15415 0.0
H1121 H 0.88166 0.63026 0.17366 0.0
H1122 H 0.92525 0.54155 0.07236 0.0
H1123 H 0.90289 0.57257 0.10591 0.0
C1124 C 0.279 0.81983 0.16749 0.0
C1125 C 0.28788 0.81063 0.19357 0.0
C1126 C 0.29231 0.83973 0.15109 0.0
C1127 C 0.33947 0.89347 0.15582 0.0
H1128 H 0.35466 0.88641 0.07787 0.0
C1129 C 0.42632 0.94322 0.09307 0.0
C1130 C 0.42233 0.95409 0.06613 0.0
C1131 C 0.4061 0.92979 0.10832 0.0
C1132 C 0.35019 0.88896 0.09954 0.0
H1133 H 0.31809 0.81493 0.22253 0.0
H1134 H 0.34133 0.84879 0.19403 0.0
H1135 H 0.32694 0.85428 0.10457 0.0
H1136 H 0.39356 0.96007 0.03433 0.0
H1137 H 0.35813 0.93629 0.06103 0.0
H1138 H 0.36349 0.9275 0.15098 0.0
C1139 C 0.32375 0.84129 0.18634 0.0
C1140 C 0.33428 0.87051 0.11488 0.0
C1141 C 0.3105 0.82158 0.20266 0.0
C1142 C 0.39713 0.95218 0.05515 0.0
C1143 C 0.37698 0.9383 0.07031 0.0
C1144 C 0.35547 0.91174 0.14056 0.0
C1145 C 0.31477 0.85087 0.16042 0.0
C1146 C 0.32924 0.87212 0.14337 0.0
C1147 C 0.38145 0.92652 0.09692 0.0
C1148 C 0.36153 0.90937 0.11234 0.0
H1149 H 0.26161 0.81189 0.15988 0.0
H1150 H 0.28472 0.84669 0.1313 0.0
H1151 H 0.33545 0.89588 0.17756 0.0
H1152 H 0.44553 0.94429 0.1021 0.0
H1153 H 0.41035 0.9208 0.12863 0.0
C1154 C 0.69279 0.13224 0.17866 0.0
C1155 C 0.70577 0.15474 0.16682 0.0
C1156 C 0.67727 0.11799 0.16302 0.0
C1157 C 0.65952 0.11007 0.09129 0.0
H1158 H 0.59207 0.08891 0.1282 0.0
C1159 C 0.56824 0.08673 0.03318 0.0
C1160 C 0.55594 0.06275 0.04202 0.0
C1161 C 0.58762 0.09604 0.04856 0.0
C1162 C 0.61095 0.09443 0.11769 0.0
H1163 H 0.71349 0.17953 0.12926 0.0
H1164 H 0.68579 0.15523 0.10192 0.0
H1165 H 0.62485 0.10794 0.15407 0.0
H1166 H 0.55414 0.03007 0.07436 0.0
H1167 H 0.58766 0.04682 0.10159 0.0
H1168 H 0.64485 0.09745 0.05466 0.0
C1169 C 0.68804 0.14802 0.12313 0.0
C1170 C 0.6299 0.10523 0.13253 0.0
C1171 C 0.70394 0.16201 0.13875 0.0
C1172 C 0.56312 0.04865 0.06699 0.0
C1173 C 0.5823 0.05823 0.08259 0.0
C1174 C 0.64039 0.09958 0.0764 0.0
C1175 C 0.67389 0.12624 0.13524 0.0
C1176 C 0.65443 0.11336 0.11953 0.0
C1177 C 0.595 0.08184 0.07334 0.0
C1178 C 0.61582 0.09182 0.08941 0.0
H1179 H 0.694 0.12621 0.20029 0.0
H1180 H 0.66739 0.10089 0.17295 0.0
H1181 H 0.67831 0.11558 0.08061 0.0
H1182 H 0.56336 0.09806 0.01401 0.0
H1183 H 0.59679 0.11449 0.04109 0.0
C1184 C 0.65793 0.63516 0.75921 0.0
C1185 C 0.6488 0.66285 0.75244 0.0
C1186 C 0.64032 0.61801 0.77361 0.0
C1187 C 0.58455 0.62829 0.82565 0.0
H1188 H 0.59237 0.54837 0.83177 0.0
C1189 C 0.53954 0.56527 0.91929 0.0
C1190 C 0.55717 0.54294 0.92988 0.0
C1191 C 0.54634 0.57911 0.8942 0.0
C1192 C 0.59001 0.57071 0.83029 0.0
H1193 H 0.61383 0.69382 0.75253 0.0
H1194 H 0.58255 0.66359 0.77682 0.0
H1195 H 0.60953 0.5727 0.78983 0.0
H1196 H 0.59605 0.51808 0.92257 0.0
H1197 H 0.60805 0.54258 0.87908 0.0
H1198 H 0.56589 0.62633 0.86638 0.0
C1199 C 0.60339 0.65517 0.77157 0.0
C1200 C 0.5997 0.58463 0.80625 0.0
C1201 C 0.62111 0.67237 0.75733 0.0
C1202 C 0.58203 0.53523 0.91511 0.0
C1203 C 0.58875 0.54902 0.88999 0.0
C1204 C 0.57476 0.61439 0.84958 0.0
C1205 C 0.61332 0.62841 0.78149 0.0
C1206 C 0.59787 0.61359 0.80399 0.0
C1207 C 0.57084 0.57088 0.87912 0.0
C1208 C 0.57816 0.58547 0.85248 0.0
H1209 H 0.67938 0.62765 0.75601 0.0
H1210 H 0.64876 0.59761 0.78098 0.0
H1211 H 0.58321 0.65058 0.82493 0.0
H1212 H 0.52012 0.57166 0.93 0.0
H1213 H 0.53211 0.59586 0.88631 0.0
C1214 C 0.32608 0.66941 0.76576 0.0
C1215 C 0.31642 0.69527 0.77549 0.0
C1216 C 0.34693 0.65251 0.77867 0.0
C1217 C 0.39962 0.65329 0.82946 0.0
H1218 H 0.38666 0.57705 0.84668 0.0
C1219 C 0.4331 0.58975 0.92662 0.0
C1220 C 0.44457 0.56232 0.92439 0.0
C1221 C 0.42301 0.60535 0.90381 0.0
C1222 C 0.39084 0.59816 0.84162 0.0
H1223 H 0.3217 0.72405 0.80579 0.0
H1224 H 0.35721 0.69463 0.82843 0.0
H1225 H 0.35872 0.60567 0.81413 0.0
H1226 H 0.45495 0.52985 0.89638 0.0
H1227 H 0.43661 0.55708 0.85659 0.0
H1228 H 0.43061 0.6461 0.85835 0.0
C1229 C 0.34924 0.68741 0.81061 0.0
C1230 C 0.37491 0.61455 0.8229 0.0
C1231 C 0.32858 0.70423 0.79775 0.0
C1232 C 0.44627 0.55097 0.89872 0.0
C1233 C 0.43573 0.56646 0.87599 0.0
C1234 C 0.41529 0.637 0.8484 0.0
C1235 C 0.35848 0.66121 0.80149 0.0
C1236 C 0.37852 0.64257 0.8173 0.0
C1237 C 0.42383 0.59371 0.87841 0.0
C1238 C 0.41048 0.60954 0.85523 0.0
H1239 H 0.3172 0.662 0.74856 0.0
H1240 H 0.35377 0.63253 0.77099 0.0
H1241 H 0.40339 0.6746 0.82509 0.0
H1242 H 0.43166 0.59912 0.94606 0.0
H1243 H 0.41367 0.62625 0.90627 0.0
C1244 C 0.35482 0.34387 0.80707 0.0
C1245 C 0.32615 0.34635 0.80925 0.0
C1246 C 0.36899 0.35759 0.82458 0.0
C1247 C 0.35848 0.38639 0.89251 0.0
H1248 H 0.42545 0.41906 0.8713 0.0
C1249 C 0.40476 0.4583 0.9597 0.0
C1250 C 0.43333 0.45565 0.96073 0.0
C1251 C 0.39255 0.44291 0.94216 0.0
C1252 C 0.40694 0.40968 0.87758 0.0
H1253 H 0.2897 0.36641 0.82975 0.0
H1254 H 0.31424 0.39104 0.85962 0.0
H1255 H 0.40248 0.39816 0.837 0.0
H1256 H 0.47143 0.43388 0.94488 0.0
H1257 H 0.45 0.40701 0.91432 0.0
H1258 H 0.3627 0.39828 0.93294 0.0
C1259 C 0.32592 0.37788 0.84517 0.0
C1260 C 0.39378 0.39776 0.85793 0.0
C1261 C 0.31185 0.36403 0.82791 0.0
C1262 C 0.44935 0.4364 0.94466 0.0
C1263 C 0.43713 0.42119 0.92695 0.0
C1264 C 0.37155 0.3984 0.91206 0.0
C1265 C 0.35462 0.3741 0.84438 0.0
C1266 C 0.36921 0.38626 0.86513 0.0
C1267 C 0.40866 0.42468 0.92515 0.0
C1268 C 0.39577 0.41038 0.90477 0.0
H1269 H 0.36623 0.33014 0.79295 0.0
H1270 H 0.3911 0.35421 0.82349 0.0
H1271 H 0.33998 0.37707 0.89893 0.0
H1272 H 0.39183 0.47291 0.97179 0.0
H1273 H 0.37056 0.44615 0.9411 0.0
C1274 C 0.69581 0.33121 0.79626 0.0
C1275 C 0.68889 0.31365 0.77713 0.0
C1276 C 0.67559 0.34898 0.80928 0.0
C1277 C 0.62876 0.39343 0.82375 0.0
H1278 H 0.57052 0.35685 0.86327 0.0
C1279 C 0.54788 0.4506 0.89617 0.0
C1280 C 0.54808 0.43832 0.92302 0.0
C1281 C 0.56033 0.43611 0.87424 0.0
C1282 C 0.58646 0.36738 0.85206 0.0
H1283 H 0.65553 0.30137 0.75611 0.0
H1284 H 0.62006 0.33207 0.77947 0.0
H1285 H 0.60273 0.33148 0.8313 0.0
H1286 H 0.55969 0.4008 0.94781 0.0
H1287 H 0.58081 0.37528 0.9094 0.0
H1288 H 0.61298 0.42909 0.84507 0.0
C1289 C 0.64117 0.33218 0.78412 0.0
C1290 C 0.60477 0.35296 0.83372 0.0
C1291 C 0.66147 0.31475 0.77071 0.0
C1292 C 0.55933 0.41077 0.92732 0.0
C1293 C 0.57128 0.39614 0.90535 0.0
C1294 C 0.61018 0.40799 0.84174 0.0
C1295 C 0.64804 0.3492 0.80374 0.0
C1296 C 0.6265 0.36565 0.81998 0.0
C1297 C 0.57263 0.40895 0.87876 0.0
C1298 C 0.58932 0.39486 0.85658 0.0
H1299 H 0.71678 0.33085 0.80155 0.0
H1300 H 0.68136 0.36175 0.82452 0.0
H1301 H 0.64531 0.40366 0.81331 0.0
H1302 H 0.53953 0.47189 0.89229 0.0
H1303 H 0.56108 0.44637 0.85388 0.0
C1304 C 0.66957 0.29291 0.21085 0.0
C1305 C 0.68431 0.30349 0.23034 0.0
C1306 C 0.65083 0.31019 0.19585 0.0
C1307 C 0.60848 0.3763 0.18998 0.0
H1308 H 0.62552 0.3698 0.11212 0.0
C1309 C 0.55955 0.45157 0.10443 0.0
C1310 C 0.55603 0.44032 0.07958 0.0
C1311 C 0.57227 0.43517 0.12554 0.0
C1312 C 0.62007 0.37161 0.13376 0.0
H1313 H 0.6895 0.34017 0.25075 0.0
H1314 H 0.65636 0.37059 0.22425 0.0
H1315 H 0.65241 0.34084 0.1448 0.0
H1316 H 0.56072 0.40281 0.05811 0.0
H1317 H 0.58171 0.37402 0.09511 0.0
H1318 H 0.57574 0.40694 0.17874 0.0
C1319 C 0.65955 0.34883 0.22072 0.0
C1320 C 0.63563 0.35509 0.15248 0.0
C1321 C 0.67852 0.33146 0.23579 0.0
C1322 C 0.56368 0.41211 0.07687 0.0
C1323 C 0.57588 0.39568 0.09804 0.0
C1324 C 0.59257 0.39275 0.17112 0.0
C1325 C 0.64628 0.33844 0.19999 0.0
C1326 C 0.62986 0.35702 0.18073 0.0
C1327 C 0.58131 0.40719 0.12222 0.0
C1328 C 0.59802 0.39033 0.14275 0.0
H1329 H 0.6732 0.2714 0.20639 0.0
H1330 H 0.64053 0.30161 0.18027 0.0
H1331 H 0.6037 0.37815 0.21171 0.0
H1332 H 0.55383 0.47332 0.10698 0.0
H1333 H 0.57617 0.44472 0.14385 0.0
C1334 C 0.68749 0.63942 0.17762 0.0
C1335 C 0.67324 0.65834 0.19508 0.0
C1336 C 0.67343 0.62531 0.1606 0.0
C1337 C 0.60542 0.6071 0.14654 0.0
H1338 H 0.63823 0.6044 0.07226 0.0
C1339 C 0.55103 0.56782 0.05943 0.0
C1340 C 0.56706 0.54804 0.04401 0.0
C1341 C 0.56314 0.58316 0.0771 0.0
C1342 C 0.6289 0.60488 0.09294 0.0
H1343 H 0.63323 0.67644 0.2097 0.0
H1344 H 0.60836 0.65186 0.17959 0.0
H1345 H 0.66069 0.62565 0.10644 0.0
H1346 H 0.60851 0.52993 0.03401 0.0
H1347 H 0.6296 0.55684 0.06467 0.0
H1348 H 0.57356 0.58629 0.13284 0.0
C1349 C 0.63042 0.64774 0.17924 0.0
C1350 C 0.6418 0.61692 0.11257 0.0
C1351 C 0.64457 0.66175 0.19649 0.0
C1352 C 0.59557 0.54496 0.0456 0.0
C1353 C 0.60767 0.56044 0.06312 0.0
C1354 C 0.59243 0.59511 0.12682 0.0
C1355 C 0.64481 0.63006 0.16048 0.0
C1356 C 0.63042 0.61783 0.13968 0.0
C1357 C 0.59152 0.57922 0.0795 0.0
C1358 C 0.60423 0.59362 0.0999 0.0
H1359 H 0.70964 0.63632 0.17641 0.0
H1360 H 0.68506 0.61125 0.14695 0.0
H1361 H 0.59622 0.60737 0.16727 0.0
H1362 H 0.52898 0.57072 0.05875 0.0
H1363 H 0.55025 0.59778 0.08922 0.0
C1364 C 0.33897 0.69278 0.23149 0.0
C1365 C 0.31156 0.69217 0.22574 0.0
C1366 C 0.35974 0.67526 0.21876 0.0
C1367 C 0.37381 0.61173 0.1822 0.0
H1368 H 0.42962 0.64896 0.13931 0.0
C1369 C 0.4533 0.55414 0.10863 0.0
C1370 C 0.45239 0.5659 0.08161 0.0
C1371 C 0.44121 0.56895 0.13052 0.0
C1372 C 0.41437 0.63825 0.15146 0.0
H1373 H 0.28424 0.67183 0.2034 0.0
H1374 H 0.32042 0.64088 0.18172 0.0
H1375 H 0.3976 0.67463 0.17119 0.0
H1376 H 0.43982 0.60291 0.05647 0.0
H1377 H 0.41925 0.62893 0.09471 0.0
H1378 H 0.38996 0.5756 0.16181 0.0
C1379 C 0.32587 0.655 0.19587 0.0
C1380 C 0.39618 0.65286 0.16978 0.0
C1381 C 0.30519 0.67281 0.20815 0.0
C1382 C 0.44073 0.59329 0.07707 0.0
C1383 C 0.4291 0.60824 0.09896 0.0
C1384 C 0.39225 0.59702 0.1642 0.0
C1385 C 0.35338 0.65646 0.20057 0.0
C1386 C 0.37524 0.63992 0.18471 0.0
C1387 C 0.4285 0.59594 0.1258 0.0
C1388 C 0.4122 0.61035 0.14808 0.0
H1389 H 0.34447 0.70757 0.24489 0.0
H1390 H 0.38081 0.67672 0.22276 0.0
H1391 H 0.3579 0.60128 0.19356 0.0
H1392 H 0.46201 0.53299 0.11273 0.0
H1393 H 0.44108 0.55905 0.15104 0.0
C1394 C 0.34077 0.36914 0.24382 0.0
C1395 C 0.35004 0.34165 0.25129 0.0
C1396 C 0.35857 0.38634 0.22984 0.0
C1397 C 0.41561 0.37611 0.17952 0.0
H1398 H 0.40712 0.45604 0.17281 0.0
C1399 C 0.41806 0.4686 0.08955 0.0
C1400 C 0.44305 0.46099 0.07497 0.0
C1401 C 0.41129 0.45493 0.1147 0.0
C1402 C 0.40968 0.4337 0.17446 0.0
H1403 H 0.38529 0.31107 0.25278 0.0
H1404 H 0.41683 0.34137 0.22898 0.0
H1405 H 0.38951 0.43185 0.21463 0.0
H1406 H 0.48028 0.43253 0.07522 0.0
H1407 H 0.46824 0.40855 0.119 0.0
H1408 H 0.43482 0.37791 0.13902 0.0
C1409 C 0.39579 0.34961 0.2335 0.0
C1410 C 0.39975 0.41987 0.19843 0.0
C1411 C 0.3779 0.33238 0.24742 0.0
C1412 C 0.46077 0.43884 0.08578 0.0
C1413 C 0.45394 0.42513 0.11092 0.0
C1414 C 0.42562 0.38993 0.15564 0.0
C1415 C 0.38587 0.37616 0.223 0.0
C1416 C 0.40178 0.39091 0.20085 0.0
C1417 C 0.42931 0.43329 0.12581 0.0
C1418 C 0.42193 0.41883 0.1525 0.0
H1419 H 0.3192 0.37644 0.24627 0.0
H1420 H 0.35015 0.40657 0.22196 0.0
H1421 H 0.41714 0.35381 0.1804 0.0
H1422 H 0.40396 0.48559 0.08189 0.0
H1423 H 0.39189 0.46128 0.12545 0.0
C1424 C 0.82935 0.72966 0.67958 0.0
C1425 C 0.80438 0.71925 0.68773 0.0
C1426 C 0.84631 0.71853 0.65819 0.0
C1427 C 0.84682 0.67527 0.59921 0.0
H1428 H 0.92413 0.65915 0.61052 0.0
C1429 C 0.91563 0.58722 0.55202 0.0
C1430 C 0.9434 0.58972 0.54528 0.0
C1431 C 0.89855 0.60894 0.56286 0.0
C1432 C 0.90273 0.66411 0.60667 0.0
H1433 H 0.77759 0.68907 0.67967 0.0
H1434 H 0.80745 0.66924 0.6427 0.0
H1435 H 0.89435 0.68507 0.64356 0.0
H1436 H 0.9749 0.61729 0.54292 0.0
H1437 H 0.94488 0.6556 0.56243 0.0
H1438 H 0.85511 0.65318 0.56292 0.0
C1439 C 0.8137 0.68637 0.65254 0.0
C1440 C 0.88561 0.67889 0.62568 0.0
C1441 C 0.79669 0.69754 0.67391 0.0
C1442 C 0.95349 0.61499 0.54789 0.0
C1443 C 0.9364 0.63674 0.5592 0.0
C1444 C 0.86394 0.66044 0.58023 0.0
C1445 C 0.83873 0.6967 0.64446 0.0
C1446 C 0.85733 0.68393 0.62259 0.0
C1447 C 0.90894 0.63358 0.56754 0.0
C1448 C 0.89193 0.654 0.5842 0.0
H1449 H 0.83581 0.74655 0.68964 0.0
H1450 H 0.8653 0.72715 0.65231 0.0
H1451 H 0.82523 0.67937 0.59591 0.0
H1452 H 0.90739 0.56792 0.55005 0.0
H1453 H 0.87762 0.6057 0.56929 0.0
C1454 C 0.31207 0.77979 0.66352 0.0
C1455 C 0.30068 0.79019 0.68833 0.0
C1456 C 0.32927 0.79507 0.64581 0.0
C1457 C 0.34513 0.86642 0.62883 0.0
H1458 H 0.41614 0.83433 0.60028 0.0
C1459 C 0.42902 0.934 0.59344 0.0
C1460 C 0.44549 0.92879 0.56931 0.0
C1461 C 0.41117 0.91544 0.60459 0.0
C1462 C 0.39619 0.84348 0.6077 0.0
H1463 H 0.29855 0.82478 0.7139 0.0
H1464 H 0.32809 0.85126 0.68312 0.0
H1465 H 0.38475 0.80475 0.62592 0.0
H1466 H 0.45631 0.89927 0.5384 0.0
H1467 H 0.42479 0.86651 0.55816 0.0
H1468 H 0.35642 0.90508 0.61117 0.0
C1469 C 0.3237 0.83142 0.67722 0.0
C1470 C 0.37824 0.82656 0.6224 0.0
C1471 C 0.30685 0.81613 0.69496 0.0
C1472 C 0.44398 0.90397 0.55699 0.0
C1473 C 0.42595 0.88521 0.5683 0.0
C1474 C 0.36291 0.8832 0.61414 0.0
C1475 C 0.33506 0.82118 0.6524 0.0
C1476 C 0.35284 0.83804 0.6338 0.0
C1477 C 0.40904 0.89101 0.59204 0.0
C1478 C 0.389 0.87214 0.60412 0.0
H1479 H 0.30781 0.75983 0.65786 0.0
H1480 H 0.33769 0.78667 0.6268 0.0
H1481 H 0.32546 0.87579 0.6368 0.0
H1482 H 0.42976 0.9526 0.60388 0.0
H1483 H 0.39902 0.92027 0.62326 0.0
C1484 C 0.20175 0.30322 0.66711 0.0
C1485 C 0.21038 0.31281 0.6909 0.0
C1486 C 0.1871 0.3212 0.64865 0.0
C1487 C 0.16271 0.39583 0.63223 0.0
H1488 H 0.10563 0.36392 0.59931 0.0
C1489 C 0.06395 0.45586 0.59082 0.0
C1490 C 0.05747 0.4499 0.56463 0.0
C1491 C 0.08609 0.44094 0.60336 0.0
C1492 C 0.1217 0.37303 0.6081 0.0
H1493 H 0.21125 0.34869 0.71387 0.0
H1494 H 0.18425 0.37999 0.6825 0.0
H1495 H 0.1376 0.33443 0.62684 0.0
H1496 H 0.06941 0.42406 0.53078 0.0
H1497 H 0.10759 0.39726 0.55325 0.0
H1498 H 0.14515 0.43484 0.61463 0.0
C1499 C 0.18953 0.35882 0.67741 0.0
C1500 C 0.14023 0.35613 0.62379 0.0
C1501 C 0.20492 0.34089 0.69552 0.0
C1502 C 0.07392 0.42911 0.55098 0.0
C1503 C 0.0957 0.41377 0.56379 0.0
C1504 C 0.14371 0.41285 0.61697 0.0
C1505 C 0.1799 0.34907 0.65399 0.0
C1506 C 0.16102 0.36723 0.63617 0.0
C1507 C 0.10179 0.41942 0.59018 0.0
C1508 C 0.12304 0.40155 0.60486 0.0
H1509 H 0.20606 0.28166 0.66295 0.0
H1510 H 0.18097 0.313 0.63045 0.0
H1511 H 0.17862 0.40517 0.64097 0.0
H1512 H 0.05173 0.47188 0.60176 0.0
H1513 H 0.0903 0.44552 0.6238 0.0
C1514 C 0.63488 0.20224 0.65814 0.0
C1515 C 0.65816 0.21427 0.64746 0.0
C1516 C 0.61973 0.18933 0.64114 0.0
C1517 C 0.62971 0.1504 0.58086 0.0
H1518 H 0.55129 0.14916 0.59282 0.0
C1519 C 0.56671 0.07188 0.53611 0.0
C1520 C 0.54874 0.0598 0.55588 0.0
C1521 C 0.58048 0.09379 0.54247 0.0
C1522 C 0.57319 0.14939 0.58917 0.0
H1523 H 0.68349 0.22345 0.61075 0.0
H1524 H 0.65693 0.20039 0.58066 0.0
H1525 H 0.57306 0.1854 0.61129 0.0
H1526 H 0.53242 0.06022 0.59822 0.0
H1527 H 0.55641 0.09817 0.60917 0.0
H1528 H 0.62982 0.11365 0.55958 0.0
C1529 C 0.65039 0.20111 0.60218 0.0
C1530 C 0.58561 0.17013 0.59965 0.0
C1531 C 0.66542 0.2144 0.61926 0.0
C1532 C 0.54587 0.06918 0.58242 0.0
C1533 C 0.55943 0.09108 0.58866 0.0
C1534 C 0.61722 0.12963 0.57023 0.0
C1535 C 0.62776 0.18794 0.61313 0.0
C1536 C 0.61411 0.17017 0.5966 0.0
C1537 C 0.5763 0.10403 0.5686 0.0
C1538 C 0.58902 0.12835 0.57533 0.0
H1539 H 0.62908 0.20186 0.6799 0.0
H1540 H 0.60265 0.17903 0.65028 0.0
H1541 H 0.65175 0.14983 0.57834 0.0
H1542 H 0.56933 0.06519 0.51543 0.0
H1543 H 0.59353 0.10339 0.52672 0.0
C1544 C 0.78124 0.35568 0.37583 0.0
C1545 C 0.78813 0.35433 0.34764 0.0
C1546 C 0.79309 0.37385 0.39088 0.0
C1547 C 0.83432 0.43354 0.38367 0.0
H1548 H 0.8687 0.39762 0.44753 0.0
C1549 C 0.93468 0.46221 0.41904 0.0
C1550 C 0.93821 0.46198 0.44721 0.0
C1551 C 0.91106 0.4538 0.40987 0.0
C1552 C 0.85881 0.4082 0.43009 0.0
H1553 H 0.81104 0.37214 0.31268 0.0
H1554 H 0.83184 0.4035 0.33876 0.0
H1555 H 0.83515 0.37494 0.42613 0.0
H1556 H 0.9194 0.4533 0.48791 0.0
H1557 H 0.87823 0.43824 0.47177 0.0
H1558 H 0.85909 0.46617 0.38687 0.0
C1559 C 0.81732 0.39076 0.3494 0.0
C1560 C 0.83951 0.39524 0.41786 0.0
C1561 C 0.80565 0.37257 0.33447 0.0
C1562 C 0.91734 0.45365 0.46604 0.0
C1563 C 0.89379 0.44498 0.45684 0.0
C1564 C 0.85369 0.44644 0.39583 0.0
C1565 C 0.81177 0.39112 0.37789 0.0
C1566 C 0.82778 0.40732 0.39394 0.0
C1567 C 0.89052 0.44478 0.42866 0.0
C1568 C 0.8668 0.43346 0.41861 0.0
H1569 H 0.76777 0.3418 0.38643 0.0
H1570 H 0.78825 0.37385 0.41278 0.0
H1571 H 0.82524 0.44361 0.36557 0.0
H1572 H 0.95027 0.46869 0.404 0.0
H1573 H 0.90929 0.45353 0.38801 0.0
C1574 C 0.67146 0.7758 0.31681 0.0
C1575 C 0.69691 0.78564 0.3098 0.0
C1576 C 0.65391 0.78718 0.33787 0.0
C1577 C 0.65402 0.82916 0.39809 0.0
H1578 H 0.577 0.84847 0.38709 0.0
C1579 C 0.58866 0.91821 0.44828 0.0
C1580 C 0.56116 0.91585 0.45664 0.0
C1581 C 0.60472 0.8968 0.43562 0.0
C1582 C 0.59834 0.84269 0.39077 0.0
H1583 H 0.7237 0.81535 0.31931 0.0
H1584 H 0.6932 0.83526 0.35534 0.0
H1585 H 0.60581 0.82174 0.35366 0.0
H1586 H 0.52907 0.88893 0.4593 0.0
H1587 H 0.55722 0.85132 0.4366 0.0
H1588 H 0.64682 0.85116 0.4345 0.0
C1589 C 0.68688 0.81843 0.34509 0.0
C1590 C 0.61488 0.8274 0.37157 0.0
C1591 C 0.70431 0.80714 0.32417 0.0
C1592 C 0.55032 0.8911 0.45329 0.0
C1593 C 0.56632 0.86975 0.44009 0.0
C1594 C 0.63756 0.8445 0.41714 0.0
C1595 C 0.66153 0.80853 0.35238 0.0
C1596 C 0.6431 0.82122 0.37456 0.0
C1597 C 0.59353 0.87267 0.4306 0.0
C1598 C 0.60971 0.85215 0.41328 0.0
H1599 H 0.66518 0.75919 0.30621 0.0
H1600 H 0.63456 0.77902 0.34302 0.0
H1601 H 0.67553 0.82415 0.40141 0.0
H1602 H 0.59748 0.93712 0.45057 0.0
H1603 H 0.62549 0.89985 0.42834 0.0
C1604 C 0.19363 0.68132 0.29771 0.0
C1605 C 0.2086 0.70062 0.30792 0.0
C1606 C 0.17732 0.66532 0.31539 0.0
C1607 C 0.13776 0.66404 0.3813 0.0
H1608 H 0.1406 0.58587 0.37159 0.0
C1609 C 0.06776 0.59079 0.44654 0.0
C1610 C 0.05854 0.57004 0.4324 0.0
C1611 C 0.08711 0.60744 0.43373 0.0
C1612 C 0.13924 0.60773 0.37443 0.0
H1613 H 0.21807 0.71827 0.34484 0.0
H1614 H 0.189 0.69045 0.37585 0.0
H1615 H 0.17277 0.61306 0.34498 0.0
H1616 H 0.0612 0.55172 0.39323 0.0
H1617 H 0.09378 0.58086 0.37098 0.0
H1618 H 0.1035 0.65884 0.41012 0.0
C1619 C 0.19016 0.68768 0.35408 0.0
C1620 C 0.15785 0.62328 0.35924 0.0
C1621 C 0.20694 0.70343 0.33636 0.0
C1622 C 0.06821 0.5671 0.40497 0.0
C1623 C 0.08715 0.58377 0.39221 0.0
C1624 C 0.11883 0.64848 0.39638 0.0
C1625 C 0.17518 0.66844 0.34374 0.0
C1626 C 0.15703 0.65169 0.36208 0.0
C1627 C 0.09742 0.60377 0.40649 0.0
C1628 C 0.11894 0.6202 0.39267 0.0
H1629 H 0.19439 0.67865 0.27593 0.0
H1630 H 0.16585 0.65086 0.30675 0.0
H1631 H 0.13658 0.68595 0.38386 0.0
H1632 H 0.06075 0.59353 0.46771 0.0
H1633 H 0.09453 0.62262 0.44541 0.0
C1634 C 0.30962 0.1978 0.32939 0.0
C1635 C 0.28791 0.18933 0.31632 0.0
C1636 C 0.32459 0.17951 0.34734 0.0
C1637 C 0.34564 0.14068 0.39394 0.0
H1638 H 0.37049 0.06812 0.36903 0.0
C1639 C 0.42009 0.06338 0.45451 0.0
C1640 C 0.4423 0.05071 0.43866 0.0
C1641 C 0.39771 0.07783 0.44191 0.0
C1642 C 0.36368 0.0883 0.37629 0.0
H1643 H 0.2644 0.15517 0.31243 0.0
H1644 H 0.2907 0.12308 0.34391 0.0
H1645 H 0.33753 0.09888 0.34326 0.0
H1646 H 0.45786 0.04253 0.39718 0.0
H1647 H 0.41906 0.06791 0.37531 0.0
H1648 H 0.37265 0.13062 0.42626 0.0
C1649 C 0.29618 0.1439 0.34005 0.0
C1650 C 0.34457 0.10579 0.3617 0.0
C1651 C 0.28106 0.1623 0.32214 0.0
C1652 C 0.4412 0.05213 0.41002 0.0
C1653 C 0.41881 0.06649 0.39747 0.0
C1654 C 0.36469 0.12318 0.40855 0.0
C1655 C 0.31829 0.15225 0.35263 0.0
C1656 C 0.33582 0.13243 0.37001 0.0
C1657 C 0.39697 0.07981 0.41322 0.0
C1658 C 0.37439 0.09702 0.39954 0.0
H1659 H 0.31543 0.21849 0.32542 0.0
H1660 H 0.34172 0.1865 0.35637 0.0
H1661 H 0.33903 0.16096 0.40105 0.0
H1662 H 0.42018 0.0626 0.47663 0.0
H1663 H 0.38105 0.08762 0.45463 0.0
C1664 C 0.70163 0.80603 0.67041 0.0
C1665 C 0.71674 0.81475 0.69068 0.0
C1666 C 0.6867 0.82533 0.6533 0.0
C1667 C 0.64604 0.88927 0.65516 0.0
H1668 H 0.65237 0.8941 0.57573 0.0
C1669 C 0.56844 0.96144 0.59427 0.0
C1670 C 0.56051 0.95214 0.57003 0.0
C1671 C 0.59096 0.9478 0.6072 0.0
C1672 C 0.65004 0.89281 0.59789 0.0
H1673 H 0.72862 0.85036 0.70864 0.0
H1674 H 0.70149 0.88419 0.67926 0.0
H1675 H 0.68586 0.86364 0.60123 0.0
H1676 H 0.5699 0.9216 0.54001 0.0
H1677 H 0.60809 0.89675 0.56327 0.0
H1678 H 0.60933 0.91658 0.65235 0.0
C1679 C 0.70175 0.86242 0.67639 0.0
C1680 C 0.66942 0.87558 0.6124 0.0
C1681 C 0.71725 0.84312 0.69307 0.0
C1682 C 0.57572 0.92926 0.55864 0.0
C1683 C 0.5978 0.91516 0.57194 0.0
C1684 C 0.6263 0.90597 0.64072 0.0
C1685 C 0.68617 0.85361 0.65661 0.0
C1686 C 0.6674 0.87358 0.64111 0.0
C1687 C 0.60559 0.92405 0.59658 0.0
C1688 C 0.62783 0.9078 0.61185 0.0
H1689 H 0.70097 0.78427 0.66812 0.0
H1690 H 0.67462 0.81816 0.63828 0.0
H1691 H 0.64395 0.8877 0.67735 0.0
H1692 H 0.55726 0.97933 0.60321 0.0
H1693 H 0.59669 0.95582 0.62566 0.0
C1694 C 0.68887 0.22188 0.3441 0.0
C1695 C 0.70105 0.21009 0.32025 0.0
C1696 C 0.67196 0.20708 0.3626 0.0
C1697 C 0.65849 0.13607 0.38445 0.0
H1698 H 0.58509 0.16681 0.4074 0.0
C1699 C 0.57595 0.06675 0.41831 0.0
C1700 C 0.55768 0.07266 0.44105 0.0
C1701 C 0.59384 0.08544 0.40762 0.0
C1702 C 0.60571 0.15811 0.40162 0.0
H1703 H 0.70503 0.17351 0.29722 0.0
H1704 H 0.67606 0.14781 0.32945 0.0
H1705 H 0.61623 0.19628 0.38121 0.0
H1706 H 0.54383 0.10346 0.47007 0.0
H1707 H 0.57539 0.13649 0.45104 0.0
H1708 H 0.64809 0.09789 0.40419 0.0
C1709 C 0.67956 0.16841 0.33395 0.0
C1710 C 0.6235 0.17495 0.3866 0.0
C1711 C 0.69607 0.18323 0.31539 0.0
C1712 C 0.55756 0.09822 0.45253 0.0
C1713 C 0.5756 0.11713 0.44165 0.0
C1714 C 0.64087 0.11937 0.39948 0.0
C1715 C 0.66733 0.18009 0.35777 0.0
C1716 C 0.64976 0.16381 0.37711 0.0
C1717 C 0.59418 0.11071 0.41925 0.0
C1718 C 0.61396 0.1299 0.40742 0.0
H1719 H 0.69222 0.24258 0.34837 0.0
H1720 H 0.66281 0.21657 0.38082 0.0
H1721 H 0.67881 0.12705 0.37793 0.0
H1722 H 0.57659 0.04753 0.40857 0.0
H1723 H 0.60736 0.08009 0.38995 0.0
C1724 C 0.7883 0.66467 0.30863 0.0
C1725 C 0.78862 0.69302 0.31125 0.0
C1726 C 0.80304 0.64532 0.32596 0.0
C1727 C 0.83425 0.6335 0.39153 0.0
H1728 H 0.89198 0.5879 0.35315 0.0
C1729 C 0.92707 0.5781 0.44613 0.0
C1730 C 0.94103 0.55419 0.43553 0.0
C1731 C 0.90515 0.59253 0.43276 0.0
C1732 C 0.87563 0.59984 0.3644 0.0
H1733 H 0.80317 0.7234 0.33489 0.0
H1734 H 0.82821 0.6895 0.36569 0.0
H1735 H 0.85827 0.61702 0.32727 0.0
H1736 H 0.94202 0.52542 0.40397 0.0
H1737 H 0.90286 0.54947 0.38157 0.0
H1738 H 0.85115 0.61615 0.42873 0.0
C1739 C 0.81686 0.68232 0.35006 0.0
C1740 C 0.85638 0.61666 0.34944 0.0
C1741 C 0.80268 0.70166 0.33238 0.0
C1742 C 0.93185 0.54412 0.41223 0.0
C1743 C 0.90951 0.55809 0.3993 0.0
C1744 C 0.85316 0.61619 0.4066 0.0
C1745 C 0.8177 0.65403 0.34658 0.0
C1746 C 0.83586 0.63399 0.36283 0.0
C1747 C 0.89628 0.58294 0.40889 0.0
C1748 C 0.87449 0.59951 0.39321 0.0
H1749 H 0.77773 0.65748 0.29244 0.0
H1750 H 0.80344 0.62357 0.32293 0.0
H1751 H 0.81848 0.64667 0.40227 0.0
H1752 H 0.93382 0.58629 0.46408 0.0
H1753 H 0.89588 0.61172 0.44066 0.0
C1754 C 0.35242 0.82215 0.33688 0.0
C1755 C 0.33344 0.80479 0.34875 0.0
C1756 C 0.36481 0.83854 0.35306 0.0
C1757 C 0.38273 0.85032 0.42113 0.0
H1758 H 0.37705 0.92661 0.39184 0.0
C1759 C 0.43202 0.93497 0.47011 0.0
C1760 C 0.44856 0.94974 0.4511 0.0
C1761 C 0.41384 0.91827 0.46107 0.0
C1762 C 0.37873 0.90542 0.40031 0.0
H1763 H 0.31391 0.78923 0.38686 0.0
H1764 H 0.3361 0.81807 0.41559 0.0
H1765 H 0.35486 0.89302 0.36979 0.0
H1766 H 0.45813 0.95969 0.40788 0.0
H1767 H 0.42643 0.93076 0.39215 0.0
H1768 H 0.40757 0.86267 0.45106 0.0
C1769 C 0.34111 0.81897 0.39369 0.0
C1770 C 0.36609 0.88623 0.38771 0.0
C1771 C 0.32858 0.80247 0.37736 0.0
C1772 C 0.44574 0.94847 0.42299 0.0
C1773 C 0.42744 0.93204 0.414 0.0
C1774 C 0.39553 0.86961 0.43375 0.0
C1775 C 0.35847 0.83789 0.38144 0.0
C1776 C 0.36876 0.85838 0.39743 0.0
C1777 C 0.41166 0.91643 0.43291 0.0
C1778 C 0.39435 0.89713 0.42285 0.0
H1779 H 0.35672 0.82396 0.31487 0.0
H1780 H 0.37865 0.8525 0.34325 0.0
H1781 H 0.38495 0.82894 0.42898 0.0
H1782 H 0.43384 0.93548 0.49194 0.0
H1783 H 0.40178 0.90654 0.47604 0.0
C1784 C 0.17278 0.27114 0.32775 0.0
C1785 C 0.19734 0.28202 0.31884 0.0
C1786 C 0.15573 0.28273 0.34883 0.0
C1787 C 0.15419 0.32909 0.40551 0.0
H1788 H 0.07678 0.3428 0.3939 0.0
C1789 C 0.0838 0.41854 0.44814 0.0
C1790 C 0.05619 0.41569 0.45542 0.0
C1791 C 0.10123 0.39655 0.43825 0.0
C1792 C 0.09821 0.33853 0.39786 0.0
H1793 H 0.22339 0.31341 0.32529 0.0
H1794 H 0.19335 0.33401 0.36172 0.0
H1795 H 0.10708 0.3157 0.36221 0.0
H1796 H 0.02536 0.3873 0.45973 0.0
H1797 H 0.05598 0.34853 0.44185 0.0
H1798 H 0.14539 0.35308 0.44048 0.0
C1799 C 0.1875 0.3162 0.35272 0.0
C1800 C 0.11564 0.32307 0.37962 0.0
C1801 C 0.20461 0.30457 0.33166 0.0
C1802 C 0.04662 0.38991 0.45427 0.0
C1803 C 0.06406 0.36787 0.44391 0.0
C1804 C 0.13677 0.34461 0.42371 0.0
C1805 C 0.1628 0.30549 0.36147 0.0
C1806 C 0.14394 0.31888 0.38277 0.0
C1807 C 0.09136 0.37127 0.43512 0.0
C1808 C 0.10874 0.3502 0.41958 0.0
H1809 H 0.16668 0.25361 0.31847 0.0
H1810 H 0.13702 0.27379 0.35528 0.0
H1811 H 0.17581 0.32569 0.40886 0.0
H1812 H 0.09168 0.4382 0.44904 0.0
H1813 H 0.12202 0.39997 0.43142 0.0
C1814 C 0.29571 0.20001 0.67659 0.0
C1815 C 0.30286 0.22186 0.69062 0.0
C1816 C 0.31336 0.18842 0.65603 0.0
C1817 C 0.38562 0.17888 0.63102 0.0
H1818 H 0.35479 0.15192 0.56904 0.0
C1819 C 0.4508 0.11097 0.55301 0.0
C1820 C 0.44012 0.08578 0.55136 0.0
C1821 C 0.43477 0.133 0.56503 0.0
C1822 C 0.36373 0.15952 0.58611 0.0
H1823 H 0.33428 0.24874 0.69389 0.0
H1824 H 0.36533 0.22838 0.65765 0.0
H1825 H 0.32563 0.18087 0.60019 0.0
H1826 H 0.40407 0.06431 0.55933 0.0
H1827 H 0.37594 0.10282 0.57952 0.0
H1828 H 0.42363 0.15684 0.61714 0.0
C1829 C 0.34599 0.22019 0.66281 0.0
C1830 C 0.34703 0.17596 0.60406 0.0
C1831 C 0.32821 0.23188 0.68352 0.0
C1832 C 0.41276 0.08353 0.56036 0.0
C1833 C 0.39665 0.10562 0.57181 0.0
C1834 C 0.40241 0.16255 0.61289 0.0
C1835 C 0.33869 0.19836 0.64876 0.0
C1836 C 0.35751 0.18498 0.62732 0.0
C1837 C 0.40766 0.13032 0.57498 0.0
C1838 C 0.39139 0.15192 0.59082 0.0
H1839 H 0.27641 0.19166 0.68152 0.0
H1840 H 0.30729 0.17123 0.64616 0.0
H1841 H 0.39435 0.18536 0.64877 0.0
H1842 H 0.47195 0.1131 0.54646 0.0
H1843 H 0.44372 0.15186 0.56718 0.0
C1844 C 0.79063 0.30435 0.66325 0.0
C1845 C 0.79005 0.3054 0.69187 0.0
C1846 C 0.80886 0.31891 0.64603 0.0
C1847 C 0.87343 0.35122 0.64885 0.0
H1848 H 0.85539 0.38686 0.57815 0.0
C1849 C 0.93255 0.43624 0.59507 0.0
C1850 C 0.94098 0.43465 0.56717 0.0
C1851 C 0.91503 0.41819 0.6081 0.0
C1852 C 0.8608 0.37667 0.59769 0.0
H1853 H 0.80708 0.32377 0.7247 0.0
H1854 H 0.83785 0.34971 0.69496 0.0
H1855 H 0.82197 0.36081 0.60521 0.0
H1856 H 0.93742 0.41285 0.53099 0.0
H1857 H 0.90598 0.38136 0.55389 0.0
H1858 H 0.91177 0.3679 0.64181 0.0
C1859 C 0.82511 0.33693 0.68565 0.0
C1860 C 0.84168 0.36174 0.61323 0.0
C1861 C 0.8072 0.32222 0.70277 0.0
C1862 C 0.93142 0.41444 0.55255 0.0
C1863 C 0.91332 0.39659 0.56558 0.0
C1864 C 0.8923 0.36632 0.63352 0.0
C1865 C 0.82675 0.33498 0.65708 0.0
C1866 C 0.84753 0.34929 0.63932 0.0
C1867 C 0.90507 0.39826 0.59355 0.0
C1868 C 0.88606 0.37963 0.60801 0.0
H1869 H 0.77776 0.29147 0.65422 0.0
H1870 H 0.80955 0.31681 0.62417 0.0
H1871 H 0.87913 0.34124 0.66838 0.0
H1872 H 0.9396 0.45147 0.60698 0.0
H1873 H 0.90887 0.42015 0.62959 0.0
C1874 C 0.21513 0.64942 0.62687 0.0
C1875 C 0.2157 0.64586 0.65549 0.0
C1876 C 0.2011 0.63215 0.61282 0.0
C1877 C 0.1416 0.59512 0.62724 0.0
H1878 H 0.15888 0.56598 0.55594 0.0
C1879 C 0.0654 0.53569 0.58199 0.0
C1880 C 0.06059 0.54182 0.55425 0.0
C1881 C 0.08804 0.54425 0.59286 0.0
C1882 C 0.15374 0.57418 0.57579 0.0
H1883 H 0.20456 0.62043 0.69167 0.0
H1884 H 0.18062 0.58994 0.6672 0.0
H1885 H 0.19337 0.58795 0.57746 0.0
H1886 H 0.07628 0.56063 0.51574 0.0
H1887 H 0.11545 0.57674 0.53506 0.0
H1888 H 0.10191 0.58262 0.62552 0.0
C1889 C 0.19039 0.60627 0.65561 0.0
C1890 C 0.17349 0.58664 0.58809 0.0
C1891 C 0.20417 0.62356 0.66958 0.0
C1892 C 0.0795 0.55573 0.53726 0.0
C1893 C 0.102 0.56478 0.54829 0.0
C1894 C 0.12194 0.58297 0.61496 0.0
C1895 C 0.18758 0.61119 0.62731 0.0
C1896 C 0.1676 0.59706 0.61405 0.0
C1897 C 0.10612 0.55971 0.5764 0.0
C1898 C 0.12773 0.57217 0.58917 0.0
H1899 H 0.2238 0.66666 0.61571 0.0
H1900 H 0.19918 0.63644 0.59101 0.0
H1901 H 0.13615 0.60368 0.64689 0.0
H1902 H 0.05144 0.52452 0.59544 0.0
H1903 H 0.09103 0.53924 0.6144 0.0
loop_
_geom_bond_atom_site_label_1
_geom_bond_atom_site_label_2
_geom_bond_distance
_geom_bond_site_symmetry_2
_ccdc_geom_bond_type
C0 O16 1.251 . S
C0 O18 1.254 . S
N1 C2 1.333 . S
N1 C6 1.307 . S
N1 Zn7 2.020 . S
C2 N1 1.333 . S
C2 C3 1.379 . S
C2 H20 0.952 . S
C3 C2 1.379 . S
C3 C4 1.390 . S
C3 H30 0.949 . S
C4 C3 1.390 . S
C4 C5 1.357 . S
C5 C4 1.357 . S
C5 C6 1.370 . S
C5 H31 0.950 . S
C6 N1 1.307 . S
C6 C5 1.370 . S
C6 H24 0.948 . S
Zn7 N1 2.020 . S
Zn7 O16 2.039 . S
Zn7 O22 2.034 . S
Zn7 O26 2.025 . S
Zn7 O28 2.024 . S
C8 O27 1.246 . S
C8 O28 1.249 . S
N9 C10 1.307 . S
N9 C11 1.333 . S
N9 Zn15 2.020 . S
C10 N9 1.307 . S
C10 C14 1.370 . S
C10 H21 0.948 . S
C11 N9 1.333 . S
C11 C12 1.379 . S
C11 H19 0.952 . S
C12 C11 1.379 . S
C12 C13 1.390 . S
C12 H32 0.949 . S
C13 C12 1.390 . S
C13 C14 1.357 . S
C14 C10 1.370 . S
C14 C13 1.357 . S
C14 H33 0.950 . S
Zn15 N9 2.020 . S
Zn15 O18 2.025 . S
Zn15 O23 2.024 . S
Zn15 O25 2.039 . S
Zn15 O27 2.034 . S
O16 C0 1.251 . S
O16 Zn7 2.039 . S
C17 O22 1.246 . S
C17 O23 1.249 . S
O18 C0 1.254 . S
O18 Zn15 2.025 . S
H19 C11 0.952 . S
H20 C2 0.952 . S
H21 C10 0.948 . S
O22 Zn7 2.034 . S
O22 C17 1.246 . S
O23 Zn15 2.024 . S
O23 C17 1.249 . S
H24 C6 0.948 . S
O25 Zn15 2.039 . S
O25 C29 1.251 . S
O26 Zn7 2.025 . S
O26 C29 1.254 . S
O27 C8 1.246 . S
O27 Zn15 2.034 . S
O28 Zn7 2.024 . S
O28 C8 1.249 . S
C29 O25 1.251 . S
C29 O26 1.254 . S
H30 C3 0.949 . S
H31 C5 0.950 . S
H32 C12 0.949 . S
H33 C14 0.950 . S
C34 O50 1.251 . S
C34 O52 1.254 . S
N35 C36 1.333 . S
N35 C40 1.307 . S
N35 Zn41 2.020 . S
C36 N35 1.333 . S
C36 C37 1.379 . S
C36 H54 0.952 . S
C37 C36 1.379 . S
C37 C38 1.390 . S
C37 H64 0.949 . S
C38 C37 1.390 . S
C38 C39 1.357 . S
C39 C38 1.357 . S
C39 C40 1.370 . S
C39 H65 0.950 . S
C40 N35 1.307 . S
C40 C39 1.370 . S
C40 H58 0.948 . S
Zn41 N35 2.020 . S
Zn41 O50 2.039 . S
Zn41 O56 2.034 . S
Zn41 O60 2.025 . S
Zn41 O62 2.024 . S
C42 O61 1.246 . S
C42 O62 1.249 . S
N43 C44 1.307 . S
N43 C45 1.333 . S
N43 Zn49 2.020 . S
C44 N43 1.307 . S
C44 C48 1.370 . S
C44 H55 0.948 . S
C45 N43 1.333 . S
C45 C46 1.379 . S
C45 H53 0.952 . S
C46 C45 1.379 . S
C46 C47 1.390 . S
C46 H66 0.949 . S
C47 C46 1.390 . S
C47 C48 1.357 . S
C48 C44 1.370 . S
C48 C47 1.357 . S
C48 H67 0.950 . S
Zn49 N43 2.020 . S
Zn49 O52 2.025 . S
Zn49 O57 2.024 . S
Zn49 O59 2.039 . S
Zn49 O61 2.034 . S
O50 C34 1.251 . S
O50 Zn41 2.039 . S
C51 O56 1.246 . S
C51 O57 1.249 . S
O52 C34 1.254 . S
O52 Zn49 2.025 . S
H53 C45 0.952 . S
H54 C36 0.952 . S
H55 C44 0.948 . S
O56 Zn41 2.034 . S
O56 C51 1.246 . S
O57 Zn49 2.024 . S
O57 C51 1.249 . S
H58 C40 0.948 . S
O59 Zn49 2.039 . S
O59 C63 1.251 . S
O60 Zn41 2.025 . S
O60 C63 1.254 . S
O61 C42 1.246 . S
O61 Zn49 2.034 . S
O62 Zn41 2.024 . S
O62 C42 1.249 . S
C63 O59 1.251 . S
C63 O60 1.254 . S
H64 C37 0.949 . S
H65 C39 0.950 . S
H66 C46 0.949 . S
H67 C48 0.950 . S
C68 O84 1.251 . S
C68 O86 1.254 . S
N69 C70 1.333 . S
N69 C74 1.307 . S
N69 Zn75 2.020 . S
C70 N69 1.333 . S
C70 C71 1.379 . S
C70 H88 0.952 . S
C71 C70 1.379 . S
C71 C72 1.390 . S
C71 H98 0.949 . S
C72 C71 1.390 . S
C72 C73 1.357 . S
C73 C72 1.357 . S
C73 C74 1.370 . S
C73 H99 0.950 . S
C74 N69 1.307 . S
C74 C73 1.370 . S
C74 H92 0.948 . S
Zn75 N69 2.020 . S
Zn75 O84 2.039 . S
Zn75 O90 2.034 . S
Zn75 O94 2.025 . S
Zn75 O96 2.024 . S
C76 O95 1.246 . S
C76 O96 1.249 . S
N77 C78 1.307 . S
N77 C79 1.333 . S
N77 Zn83 2.020 . S
C78 N77 1.307 . S
C78 C82 1.370 . S
C78 H89 0.948 . S
C79 N77 1.333 . S
C79 C80 1.379 . S
C79 H87 0.952 . S
C80 C79 1.379 . S
C80 C81 1.390 . S
C80 H100 0.949 . S
C81 C80 1.390 . S
C81 C82 1.357 . S
C82 C78 1.370 . S
C82 C81 1.357 . S
C82 H101 0.950 . S
Zn83 N77 2.020 . S
Zn83 O86 2.025 . S
Zn83 O91 2.024 . S
Zn83 O93 2.039 . S
Zn83 O95 2.034 . S
O84 C68 1.251 . S
O84 Zn75 2.039 . S
C85 O90 1.246 . S
C85 O91 1.249 . S
O86 C68 1.254 . S
O86 Zn83 2.025 . S
H87 C79 0.952 . S
H88 C70 0.952 . S
H89 C78 0.948 . S
O90 Zn75 2.034 . S
O90 C85 1.246 . S
O91 Zn83 2.024 . S
O91 C85 1.249 . S
H92 C74 0.948 . S
O93 Zn83 2.039 . S
O93 C97 1.251 . S
O94 Zn75 2.025 . S
O94 C97 1.254 . S
O95 C76 1.246 . S
O95 Zn83 2.034 . S
O96 Zn75 2.024 . S
O96 C76 1.249 . S
C97 O93 1.251 . S
C97 O94 1.254 . S
H98 C71 0.949 . S
H99 C73 0.950 . S
H100 C80 0.949 . S
H101 C82 0.950 . S
C102 O118 1.251 . S
C102 O120 1.254 . S
N103 C104 1.333 . S
N103 C108 1.307 . S
N103 Zn109 2.020 . S
C104 N103 1.333 . S
C104 C105 1.379 . S
C104 H122 0.952 . S
C105 C104 1.379 . S
C105 C106 1.390 . S
C105 H132 0.949 . S
C106 C105 1.390 . S
C106 C107 1.357 . S
C107 C106 1.357 . S
C107 C108 1.370 . S
C107 H133 0.950 . S
C108 N103 1.307 . S
C108 C107 1.370 . S
C108 H126 0.948 . S
Zn109 N103 2.020 . S
Zn109 O118 2.039 . S
Zn109 O124 2.034 . S
Zn109 O128 2.025 . S
Zn109 O130 2.024 . S
C110 O129 1.246 . S
C110 O130 1.249 . S
N111 C112 1.307 . S
N111 C113 1.333 . S
N111 Zn117 2.020 . S
C112 N111 1.307 . S
C112 C116 1.370 . S
C112 H123 0.948 . S
C113 N111 1.333 . S
C113 C114 1.379 . S
C113 H121 0.952 . S
C114 C113 1.379 . S
C114 C115 1.390 . S
C114 H134 0.949 . S
C115 C114 1.390 . S
C115 C116 1.357 . S
C116 C112 1.370 . S
C116 C115 1.357 . S
C116 H135 0.950 . S
Zn117 N111 2.020 . S
Zn117 O120 2.025 . S
Zn117 O125 2.024 . S
Zn117 O127 2.039 . S
Zn117 O129 2.034 . S
O118 C102 1.251 . S
O118 Zn109 2.039 . S
C119 O124 1.246 . S
C119 O125 1.249 . S
O120 C102 1.254 . S
O120 Zn117 2.025 . S
H121 C113 0.952 . S
H122 C104 0.952 . S
H123 C112 0.948 . S
O124 Zn109 2.034 . S
O124 C119 1.246 . S
O125 Zn117 2.024 . S
O125 C119 1.249 . S
H126 C108 0.948 . S
O127 Zn117 2.039 . S
O127 C131 1.251 . S
O128 Zn109 2.025 . S
O128 C131 1.254 . S
O129 C110 1.246 . S
O129 Zn117 2.034 . S
O130 Zn109 2.024 . S
O130 C110 1.249 . S
C131 O127 1.251 . S
C131 O128 1.254 . S
H132 C105 0.949 . S
H133 C107 0.950 . S
H134 C114 0.949 . S
H135 C116 0.950 . S
C136 O152 1.251 . S
C136 O154 1.254 . S
N137 C138 1.333 . S
N137 C142 1.307 . S
N137 Zn143 2.020 . S
C138 N137 1.333 . S
C138 C139 1.379 . S
C138 H156 0.952 . S
C139 C138 1.379 . S
C139 C140 1.390 . S
C139 H166 0.949 . S
C140 C139 1.390 . S
C140 C141 1.357 . S
C141 C140 1.357 . S
C141 C142 1.370 . S
C141 H167 0.950 . S
C142 N137 1.307 . S
C142 C141 1.370 . S
C142 H160 0.948 . S
Zn143 N137 2.020 . S
Zn143 O152 2.039 . S
Zn143 O158 2.034 . S
Zn143 O162 2.025 . S
Zn143 O164 2.024 . S
C144 O163 1.246 . S
C144 O164 1.249 . S
N145 C146 1.307 . S
N145 C147 1.333 . S
N145 Zn151 2.020 . S
C146 N145 1.307 . S
C146 C150 1.370 . S
C146 H157 0.948 . S
C147 N145 1.333 . S
C147 C148 1.379 . S
C147 H155 0.952 . S
C148 C147 1.379 . S
C148 C149 1.390 . S
C148 H168 0.949 . S
C149 C148 1.390 . S
C149 C150 1.357 . S
C150 C146 1.370 . S
C150 C149 1.357 . S
C150 H169 0.950 . S
Zn151 N145 2.020 . S
Zn151 O154 2.025 . S
Zn151 O159 2.024 . S
Zn151 O161 2.039 . S
Zn151 O163 2.034 . S
O152 C136 1.251 . S
O152 Zn143 2.039 . S
C153 O158 1.246 . S
C153 O159 1.249 . S
O154 C136 1.254 . S
O154 Zn151 2.025 . S
H155 C147 0.952 . S
H156 C138 0.952 . S
H157 C146 0.948 . S
O158 Zn143 2.034 . S
O158 C153 1.246 . S
O159 Zn151 2.024 . S
O159 C153 1.249 . S
H160 C142 0.948 . S
O161 Zn151 2.039 . S
O161 C165 1.251 . S
O162 Zn143 2.025 . S
O162 C165 1.254 . S
O163 C144 1.246 . S
O163 Zn151 2.034 . S
O164 Zn143 2.024 . S
O164 C144 1.249 . S
C165 O161 1.251 . S
C165 O162 1.254 . S
H166 C139 0.949 . S
H167 C141 0.950 . S
H168 C148 0.949 . S
H169 C150 0.950 . S
C170 O186 1.251 . S
C170 O188 1.254 . S
N171 C172 1.333 . S
N171 C176 1.307 . S
N171 Zn177 2.020 . S
C172 N171 1.333 . S
C172 C173 1.379 . S
C172 H190 0.952 . S
C173 C172 1.379 . S
C173 C174 1.390 . S
C173 H200 0.949 . S
C174 C173 1.390 . S
C174 C175 1.357 . S
C175 C174 1.357 . S
C175 C176 1.370 . S
C175 H201 0.950 . S
C176 N171 1.307 . S
C176 C175 1.370 . S
C176 H194 0.948 . S
Zn177 N171 2.020 . S
Zn177 O186 2.039 . S
Zn177 O192 2.034 . S
Zn177 O196 2.025 . S
Zn177 O198 2.024 . S
C178 O197 1.246 . S
C178 O198 1.249 . S
N179 C180 1.307 . S
N179 C181 1.333 . S
N179 Zn185 2.020 . S
C180 N179 1.307 . S
C180 C184 1.370 . S
C180 H191 0.948 . S
C181 N179 1.333 . S
C181 C182 1.379 . S
C181 H189 0.952 . S
C182 C181 1.379 . S
C182 C183 1.390 . S
C182 H202 0.949 . S
C183 C182 1.390 . S
C183 C184 1.357 . S
C184 C180 1.370 . S
C184 C183 1.357 . S
C184 H203 0.950 . S
Zn185 N179 2.020 . S
Zn185 O188 2.025 . S
Zn185 O193 2.024 . S
Zn185 O195 2.039 . S
Zn185 O197 2.034 . S
O186 C170 1.251 . S
O186 Zn177 2.039 . S
C187 O192 1.246 . S
C187 O193 1.249 . S
O188 C170 1.254 . S
O188 Zn185 2.025 . S
H189 C181 0.952 . S
H190 C172 0.952 . S
H191 C180 0.948 . S
O192 Zn177 2.034 . S
O192 C187 1.246 . S
O193 Zn185 2.024 . S
O193 C187 1.249 . S
H194 C176 0.948 . S
O195 Zn185 2.039 . S
O195 C199 1.251 . S
O196 Zn177 2.025 . S
O196 C199 1.254 . S
O197 C178 1.246 . S
O197 Zn185 2.034 . S
O198 Zn177 2.024 . S
O198 C178 1.249 . S
C199 O195 1.251 . S
C199 O196 1.254 . S
H200 C173 0.949 . S
H201 C175 0.950 . S
H202 C182 0.949 . S
H203 C184 0.950 . S
C204 O220 1.251 . S
C204 O222 1.254 . S
N205 C206 1.333 . S
N205 C210 1.307 . S
N205 Zn211 2.020 . S
C206 N205 1.333 . S
C206 C207 1.379 . S
C206 H224 0.952 . S
C207 C206 1.379 . S
C207 C208 1.390 . S
C207 H234 0.949 . S
C208 C207 1.390 . S
C208 C209 1.357 . S
C209 C208 1.357 . S
C209 C210 1.370 . S
C209 H235 0.950 . S
C210 N205 1.307 . S
C210 C209 1.370 . S
C210 H228 0.948 . S
Zn211 N205 2.020 . S
Zn211 O220 2.039 . S
Zn211 O226 2.034 . S
Zn211 O230 2.025 . S
Zn211 O232 2.024 . S
C212 O231 1.246 . S
C212 O232 1.249 . S
N213 C214 1.307 . S
N213 C215 1.333 . S
N213 Zn219 2.020 . S
C214 N213 1.307 . S
C214 C218 1.370 . S
C214 H225 0.948 . S
C215 N213 1.333 . S
C215 C216 1.379 . S
C215 H223 0.952 . S
C216 C215 1.379 . S
C216 C217 1.390 . S
C216 H236 0.949 . S
C217 C216 1.390 . S
C217 C218 1.357 . S
C218 C214 1.370 . S
C218 C217 1.357 . S
C218 H237 0.950 . S
Zn219 N213 2.020 . S
Zn219 O222 2.025 . S
Zn219 O227 2.024 . S
Zn219 O229 2.039 . S
Zn219 O231 2.034 . S
O220 C204 1.251 . S
O220 Zn211 2.039 . S
C221 O226 1.246 . S
C221 O227 1.249 . S
O222 C204 1.254 . S
O222 Zn219 2.025 . S
H223 C215 0.952 . S
H224 C206 0.952 . S
H225 C214 0.948 . S
O226 Zn211 2.034 . S
O226 C221 1.246 . S
O227 Zn219 2.024 . S
O227 C221 1.249 . S
H228 C210 0.948 . S
O229 Zn219 2.039 . S
O229 C233 1.251 . S
O230 Zn211 2.025 . S
O230 C233 1.254 . S
O231 C212 1.246 . S
O231 Zn219 2.034 . S
O232 Zn211 2.024 . S
O232 C212 1.249 . S
C233 O229 1.251 . S
C233 O230 1.254 . S
H234 C207 0.949 . S
H235 C209 0.950 . S
H236 C216 0.949 . S
H237 C218 0.950 . S
C238 O254 1.251 . S
C238 O256 1.254 . S
N239 C240 1.333 . S
N239 C244 1.307 . S
N239 Zn245 2.020 . S
C240 N239 1.333 . S
C240 C241 1.379 . S
C240 H258 0.952 . S
C241 C240 1.379 . S
C241 C242 1.390 . S
C241 H268 0.949 . S
C242 C241 1.390 . S
C242 C243 1.357 . S
C243 C242 1.357 . S
C243 C244 1.370 . S
C243 H269 0.950 . S
C244 N239 1.307 . S
C244 C243 1.370 . S
C244 H262 0.948 . S
Zn245 N239 2.020 . S
Zn245 O254 2.039 . S
Zn245 O260 2.034 . S
Zn245 O264 2.025 . S
Zn245 O266 2.024 . S
C246 O265 1.246 . S
C246 O266 1.249 . S
N247 C248 1.307 . S
N247 C249 1.333 . S
N247 Zn253 2.020 . S
C248 N247 1.307 . S
C248 C252 1.370 . S
C248 H259 0.948 . S
C249 N247 1.333 . S
C249 C250 1.379 . S
C249 H257 0.952 . S
C250 C249 1.379 . S
C250 C251 1.390 . S
C250 H270 0.949 . S
C251 C250 1.390 . S
C251 C252 1.357 . S
C252 C248 1.370 . S
C252 C251 1.357 . S
C252 H271 0.950 . S
Zn253 N247 2.020 . S
Zn253 O256 2.025 . S
Zn253 O261 2.024 . S
Zn253 O263 2.039 . S
Zn253 O265 2.034 . S
O254 C238 1.251 . S
O254 Zn245 2.039 . S
C255 O260 1.246 . S
C255 O261 1.249 . S
O256 C238 1.254 . S
O256 Zn253 2.025 . S
H257 C249 0.952 . S
H258 C240 0.952 . S
H259 C248 0.948 . S
O260 Zn245 2.034 . S
O260 C255 1.246 . S
O261 Zn253 2.024 . S
O261 C255 1.249 . S
H262 C244 0.948 . S
O263 Zn253 2.039 . S
O263 C267 1.251 . S
O264 Zn245 2.025 . S
O264 C267 1.254 . S
O265 C246 1.246 . S
O265 Zn253 2.034 . S
O266 Zn245 2.024 . S
O266 C246 1.249 . S
C267 O263 1.251 . S
C267 O264 1.254 . S
H268 C241 0.949 . S
H269 C243 0.950 . S
H270 C250 0.949 . S
H271 C252 0.950 . S
Fe272 O273 1.886 . S
Fe272 O276 1.715 1_655 S
Fe272 O281 2.077 . S
Fe272 O286 1.935 1_655 S
Fe272 O292 2.077 . S
Fe272 O301 1.935 1_655 S
O273 Fe272 1.886 . S
O273 Fe275 1.715 . S
Fe274 O276 1.886 1_565 S
Fe274 O277 1.715 . S
Fe274 O284 1.935 . S
Fe274 O285 2.077 1_565 S
Fe274 O291 1.935 . S
Fe274 O300 2.077 1_565 S
Fe275 O273 1.715 . S
Fe275 O278 1.886 1_545 S
Fe275 O282 1.935 . S
Fe275 O287 2.077 1_545 S
Fe275 O293 1.935 . S
Fe275 O297 2.077 1_545 S
O276 Fe272 1.715 1_455 S
O276 Fe274 1.886 1_545 S
O277 Fe274 1.715 . S
O277 Fe279 1.886 . S
O278 Fe275 1.886 1_565 S
O278 Fe279 1.715 1_655 S
Fe279 O277 1.886 . S
Fe279 O278 1.715 1_455 S
Fe279 O283 2.077 . S
Fe279 O288 1.935 1_455 S
Fe279 O290 2.077 . S
Fe279 O298 1.935 1_455 S
C280 O292 1.381 . S
C280 O293 1.421 . S
O281 Fe272 2.077 . S
O281 C294 1.381 . S
O282 Fe275 1.935 . S
O282 C294 1.421 . S
O283 Fe279 2.077 . S
O283 C299 1.381 . S
O284 Fe274 1.935 . S
O284 C299 1.421 . S
O285 Fe274 2.077 1_545 S
O285 C289 1.381 . S
O286 Fe272 1.935 1_455 S
O286 C289 1.421 . S
O287 Fe275 2.077 1_565 S
O287 C295 1.381 . S
O288 Fe279 1.935 1_655 S
O288 C295 1.421 . S
C289 O285 1.381 . S
C289 O286 1.421 . S
O290 Fe279 2.077 . S
O290 C302 1.381 . S
O291 Fe274 1.935 . S
O291 C302 1.421 . S
O292 Fe272 2.077 . S
O292 C280 1.381 . S
O293 Fe275 1.935 . S
O293 C280 1.421 . S
C294 O281 1.381 . S
C294 O282 1.421 . S
C295 O287 1.381 . S
C295 O288 1.421 . S
C296 O297 1.381 . S
C296 O298 1.421 . S
O297 Fe275 2.077 1_565 S
O297 C296 1.381 . S
O298 Fe279 1.935 1_655 S
O298 C296 1.421 . S
C299 O283 1.381 . S
C299 O284 1.421 . S
O300 Fe274 2.077 1_545 S
O300 C303 1.381 . S
O301 Fe272 1.935 1_455 S
O301 C303 1.421 . S
C302 O290 1.381 . S
C302 O291 1.421 . S
C303 O300 1.381 . S
C303 O301 1.421 . S
Fe304 O305 1.886 . S
Fe304 O308 1.715 . S
Fe304 O313 2.077 1_554 S
Fe304 O318 1.935 1_554 S
Fe304 O324 2.077 . S
Fe304 O333 1.935 . S
O305 Fe304 1.886 . S
O305 Fe307 1.715 1_554 S
Fe306 O308 1.886 1_545 S
Fe306 O309 1.715 . S
Fe306 O316 1.935 1_554 S
Fe306 O317 2.077 1_544 S
Fe306 O323 1.935 . S
Fe306 O332 2.077 1_545 S
Fe307 O305 1.715 1_556 S
Fe307 O310 1.886 1_565 S
Fe307 O314 1.935 . S
Fe307 O319 2.077 1_565 S
Fe307 O325 1.935 1_556 S
Fe307 O329 2.077 1_566 S
O308 Fe304 1.715 . S
O308 Fe306 1.886 1_565 S
O309 Fe306 1.715 . S
O309 Fe311 1.886 1_554 S
O310 Fe307 1.886 1_545 S
O310 Fe311 1.715 . S
Fe311 O309 1.886 1_556 S
Fe311 O310 1.715 . S
Fe311 O315 2.077 . S
Fe311 O320 1.935 . S
Fe311 O322 2.077 1_556 S
Fe311 O330 1.935 1_556 S
C312 O324 1.381 . S
C312 O325 1.421 . S
O313 Fe304 2.077 1_556 S
O313 C326 1.381 . S
O314 Fe307 1.935 . S
O314 C326 1.421 . S
O315 Fe311 2.077 . S
O315 C331 1.381 . S
O316 Fe306 1.935 1_556 S
O316 C331 1.421 . S
O317 Fe306 2.077 1_566 S
O317 C321 1.381 . S
O318 Fe304 1.935 1_556 S
O318 C321 1.421 . S
O319 Fe307 2.077 1_545 S
O319 C327 1.381 . S
O320 Fe311 1.935 . S
O320 C327 1.421 . S
C321 O317 1.381 . S
C321 O318 1.421 . S
O322 Fe311 2.077 1_554 S
O322 C334 1.381 . S
O323 Fe306 1.935 . S
O323 C334 1.421 . S
O324 Fe304 2.077 . S
O324 C312 1.381 . S
O325 Fe307 1.935 1_554 S
O325 C312 1.421 . S
C326 O313 1.381 . S
C326 O314 1.421 . S
C327 O319 1.381 . S
C327 O320 1.421 . S
C328 O329 1.381 . S
C328 O330 1.421 . S
O329 Fe307 2.077 1_544 S
O329 C328 1.381 . S
O330 Fe311 1.935 1_554 S
O330 C328 1.421 . S
C331 O315 1.381 . S
C331 O316 1.421 . S
O332 Fe306 2.077 1_565 S
O332 C335 1.381 . S
O333 Fe304 1.935 . S
O333 C335 1.421 . S
C334 O322 1.381 . S
C334 O323 1.421 . S
C335 O332 1.381 . S
C335 O333 1.421 . S
Fe336 O337 1.886 1_556 S
Fe336 O340 1.715 1_655 S
Fe336 O345 2.077 . S
Fe336 O350 1.935 1_655 S
Fe336 O356 2.077 1_556 S
Fe336 O365 1.935 1_656 S
O337 Fe336 1.886 1_554 S
O337 Fe339 1.715 . S
Fe338 O340 1.886 . S
Fe338 O341 1.715 1_556 S
Fe338 O348 1.935 . S
Fe338 O349 2.077 . S
Fe338 O355 1.935 1_556 S
Fe338 O364 2.077 1_556 S
Fe339 O337 1.715 . S
Fe339 O342 1.886 . S
Fe339 O346 1.935 1_554 S
Fe339 O351 2.077 1_554 S
Fe339 O357 1.935 . S
Fe339 O361 2.077 . S
O340 Fe336 1.715 1_455 S
O340 Fe338 1.886 . S
O341 Fe338 1.715 1_554 S
O341 Fe343 1.886 . S
O342 Fe339 1.886 . S
O342 Fe343 1.715 1_655 S
Fe343 O341 1.886 . S
Fe343 O342 1.715 1_455 S
Fe343 O347 2.077 1_554 S
Fe343 O352 1.935 1_454 S
Fe343 O354 2.077 . S
Fe343 O362 1.935 1_455 S
C344 O356 1.381 . S
C344 O357 1.421 . S
O345 Fe336 2.077 . S
O345 C358 1.381 . S
O346 Fe339 1.935 1_556 S
O346 C358 1.421 . S
O347 Fe343 2.077 1_556 S
O347 C363 1.381 . S
O348 Fe338 1.935 . S
O348 C363 1.421 . S
O349 Fe338 2.077 . S
O349 C353 1.381 . S
O350 Fe336 1.935 1_455 S
O350 C353 1.421 . S
O351 Fe339 2.077 1_556 S
O351 C359 1.381 . S
O352 Fe343 1.935 1_656 S
O352 C359 1.421 . S
C353 O349 1.381 . S
C353 O350 1.421 . S
O354 Fe343 2.077 . S
O354 C366 1.381 . S
O355 Fe338 1.935 1_554 S
O355 C366 1.421 . S
O356 Fe336 2.077 1_554 S
O356 C344 1.381 . S
O357 Fe339 1.935 . S
O357 C344 1.421 . S
C358 O345 1.381 . S
C358 O346 1.421 . S
C359 O351 1.381 . S
C359 O352 1.421 . S
C360 O361 1.381 . S
C360 O362 1.421 . S
O361 Fe339 2.077 . S
O361 C360 1.381 . S
O362 Fe343 1.935 1_655 S
O362 C360 1.421 . S
C363 O347 1.381 . S
C363 O348 1.421 . S
O364 Fe338 2.077 1_554 S
O364 C367 1.381 . S
O365 Fe336 1.935 1_454 S
O365 C367 1.421 . S
C366 O354 1.381 . S
C366 O355 1.421 . S
C367 O364 1.381 . S
C367 O365 1.421 . S
Fe368 O369 1.886 . S
Fe368 O372 1.715 . S
Fe368 O377 2.077 . S
Fe368 O382 1.935 . S
Fe368 O388 2.077 . S
Fe368 O397 1.935 . S
O369 Fe368 1.886 . S
O369 Fe371 1.740 . S
Fe370 O372 1.856 1_554 S
Fe370 O373 1.748 . S
Fe370 O380 1.960 . S
Fe370 O381 2.050 1_554 S
Fe370 O387 1.958 . S
Fe370 O396 2.048 1_554 S
Fe371 O369 1.740 . S
Fe371 O374 1.863 1_556 S
Fe371 O378 1.952 . S
Fe371 O383 2.055 1_556 S
Fe371 O389 1.954 . S
Fe371 O393 2.056 1_556 S
O372 Fe368 1.715 . S
O372 Fe370 1.856 1_556 S
O373 Fe370 1.748 . S
O373 Fe375 1.886 . S
O374 Fe371 1.863 1_554 S
O374 Fe375 1.715 . S
Fe375 O373 1.886 . S
Fe375 O374 1.715 . S
Fe375 O379 2.077 . S
Fe375 O384 1.935 . S
Fe375 O386 2.077 . S
Fe375 O394 1.935 . S
C376 O388 1.381 . S
C376 O389 1.421 . S
O377 Fe368 2.077 . S
O377 C390 1.381 . S
O378 Fe371 1.952 . S
O378 C390 1.421 . S
O379 Fe375 2.077 . S
O379 C395 1.381 . S
O380 Fe370 1.960 . S
O380 C395 1.421 . S
O381 Fe370 2.050 1_556 S
O381 C385 1.381 . S
O382 Fe368 1.935 . S
O382 C385 1.421 . S
O383 Fe371 2.055 1_554 S
O383 C391 1.381 . S
O384 Fe375 1.935 . S
O384 C391 1.421 . S
C385 O381 1.381 . S
C385 O382 1.421 . S
O386 Fe375 2.077 . S
O386 C398 1.381 . S
O387 Fe370 1.958 . S
O387 C398 1.421 . S
O388 Fe368 2.077 . S
O388 C376 1.381 . S
O389 Fe371 1.954 . S
O389 C376 1.421 . S
C390 O377 1.381 . S
C390 O378 1.421 . S
C391 O383 1.381 . S
C391 O384 1.421 . S
C392 O393 1.381 . S
C392 O394 1.421 . S
O393 Fe371 2.056 1_554 S
O393 C392 1.381 . S
O394 Fe375 1.935 . S
O394 C392 1.421 . S
C395 O379 1.381 . S
C395 O380 1.421 . S
O396 Fe370 2.048 1_556 S
O396 C399 1.381 . S
O397 Fe368 1.935 . S
O397 C399 1.421 . S
C398 O386 1.381 . S
C398 O387 1.421 . S
C399 O396 1.381 . S
C399 O397 1.421 . S
Fe400 O401 1.884 . S
Fe400 O404 1.715 . S
Fe400 O409 2.077 . S
Fe400 O414 1.935 . S
Fe400 O420 2.077 1_455 S
Fe400 O429 1.935 1_455 S
O401 Fe400 1.884 . S
O401 Fe403 1.718 1_455 S
Fe402 O404 1.886 . S
Fe402 O405 1.717 1_455 S
Fe402 O412 1.935 . S
Fe402 O413 2.077 . S
Fe402 O419 1.935 1_455 S
Fe402 O428 2.077 1_455 S
Fe403 O401 1.718 1_655 S
Fe403 O406 1.886 . S
Fe403 O410 1.935 1_655 S
Fe403 O415 2.077 1_655 S
Fe403 O421 1.935 . S
Fe403 O425 2.077 . S
O404 Fe400 1.715 . S
O404 Fe402 1.886 . S
O405 Fe402 1.717 1_655 S
O405 Fe407 1.884 . S
O406 Fe403 1.886 . S
O406 Fe407 1.715 . S
Fe407 O405 1.884 . S
Fe407 O406 1.715 . S
Fe407 O411 2.077 1_655 S
Fe407 O416 1.935 1_655 S
Fe407 O418 2.077 . S
Fe407 O426 1.935 . S
C408 O420 1.381 . S
C408 O421 1.421 . S
O409 Fe400 2.077 . S
O409 C422 1.381 . S
O410 Fe403 1.935 1_455 S
O410 C422 1.421 . S
O411 Fe407 2.077 1_455 S
O411 C427 1.381 . S
O412 Fe402 1.935 . S
O412 C427 1.421 . S
O413 Fe402 2.077 . S
O413 C417 1.381 . S
O414 Fe400 1.935 . S
O414 C417 1.421 . S
O415 Fe403 2.077 1_455 S
O415 C423 1.381 . S
O416 Fe407 1.935 1_455 S
O416 C423 1.421 . S
C417 O413 1.381 . S
C417 O414 1.421 . S
O418 Fe407 2.077 . S
O418 C430 1.381 . S
O419 Fe402 1.935 1_655 S
O419 C430 1.421 . S
O420 Fe400 2.077 1_655 S
O420 C408 1.381 . S
O421 Fe403 1.935 . S
O421 C408 1.421 . S
C422 O409 1.381 . S
C422 O410 1.421 . S
C423 O415 1.381 . S
C423 O416 1.421 . S
C424 O425 1.381 . S
C424 O426 1.421 . S
O425 Fe403 2.077 . S
O425 C424 1.381 . S
O426 Fe407 1.935 . S
O426 C424 1.421 . S
C427 O411 1.381 . S
C427 O412 1.421 . S
O428 Fe402 2.077 1_655 S
O428 C431 1.381 . S
O429 Fe400 1.935 1_655 S
O429 C431 1.421 . S
C430 O418 1.381 . S
C430 O419 1.421 . S
C431 O428 1.381 . S
C431 O429 1.421 . S
Fe432 O433 1.886 . S
Fe432 O436 1.715 . S
Fe432 O441 2.077 . S
Fe432 O446 1.935 . S
Fe432 O452 2.077 . S
Fe432 O461 1.935 . S
O433 Fe432 1.886 . S
O433 Fe435 1.740 . S
Fe434 O436 1.856 1_545 S
Fe434 O437 1.747 . S
Fe434 O444 1.960 . S
Fe434 O445 2.051 1_545 S
Fe434 O451 1.956 . S
Fe434 O460 2.048 1_545 S
Fe435 O433 1.740 . S
Fe435 O438 1.863 1_565 S
Fe435 O442 1.951 . S
Fe435 O447 2.055 1_565 S
Fe435 O453 1.954 . S
Fe435 O457 2.057 1_565 S
O436 Fe432 1.715 . S
O436 Fe434 1.856 1_565 S
O437 Fe434 1.747 . S
O437 Fe439 1.886 . S
O438 Fe435 1.863 1_545 S
O438 Fe439 1.715 . S
Fe439 O437 1.886 . S
Fe439 O438 1.715 . S
Fe439 O443 2.077 . S
Fe439 O448 1.935 . S
Fe439 O450 2.077 . S
Fe439 O458 1.935 . S
C440 O452 1.381 . S
C440 O453 1.421 . S
O441 Fe432 2.077 . S
O441 C454 1.381 . S
O442 Fe435 1.951 . S
O442 C454 1.421 . S
O443 Fe439 2.077 . S
O443 C459 1.381 . S
O444 Fe434 1.960 . S
O444 C459 1.421 . S
O445 Fe434 2.051 1_565 S
O445 C449 1.381 . S
O446 Fe432 1.935 . S
O446 C449 1.421 . S
O447 Fe435 2.055 1_545 S
O447 C455 1.381 . S
O448 Fe439 1.935 . S
O448 C455 1.421 . S
C449 O445 1.381 . S
C449 O446 1.421 . S
O450 Fe439 2.077 . S
O450 C462 1.381 . S
O451 Fe434 1.956 . S
O451 C462 1.421 . S
O452 Fe432 2.077 . S
O452 C440 1.381 . S
O453 Fe435 1.954 . S
O453 C440 1.421 . S
C454 O441 1.381 . S
C454 O442 1.421 . S
C455 O447 1.381 . S
C455 O448 1.421 . S
C456 O457 1.381 . S
C456 O458 1.421 . S
O457 Fe435 2.057 1_545 S
O457 C456 1.381 . S
O458 Fe439 1.935 . S
O458 C456 1.421 . S
C459 O443 1.381 . S
C459 O444 1.421 . S
O460 Fe434 2.048 1_565 S
O460 C463 1.381 . S
O461 Fe432 1.935 . S
O461 C463 1.421 . S
C462 O450 1.381 . S
C462 O451 1.421 . S
C463 O460 1.381 . S
C463 O461 1.421 . S
C464 C465 1.349 . S
C464 C466 1.327 . S
C464 H489 0.950 . S
C465 C464 1.349 . S
C465 C481 1.349 . S
C466 C464 1.327 . S
C466 C485 1.429 . S
C466 H490 0.950 . S
C467 C484 1.574 . S
C467 C486 1.368 . S
C467 H491 0.949 . S
H468 C472 0.949 . S
C469 C470 1.349 . S
C469 C471 1.327 . S
C469 H492 0.950 . S
C470 C469 1.349 . S
C470 C482 1.349 . S
C471 C469 1.327 . S
C471 C487 1.429 . S
C471 H493 0.950 . S
C472 H468 0.949 . S
C472 C480 1.574 . S
C472 C488 1.368 . S
H473 C481 0.950 . S
H474 C479 0.950 . S
H475 C480 0.949 . S
H476 C482 0.950 . S
H477 C483 0.950 . S
H478 C484 0.949 . S
C479 H474 0.950 . S
C479 C481 1.327 . S
C479 C485 1.429 . S
C480 C472 1.574 . S
C480 H475 0.949 . S
C480 C486 1.368 . S
C481 C465 1.349 . S
C481 H473 0.950 . S
C481 C479 1.327 . S
C482 C470 1.349 . S
C482 H476 0.950 . S
C482 C483 1.327 . S
C483 H477 0.950 . S
C483 C482 1.327 . S
C483 C487 1.429 . S
C484 C467 1.574 . S
C484 H478 0.949 . S
C484 C488 1.368 . S
C485 C466 1.429 . S
C485 C479 1.429 . S
C485 C486 1.523 . S
C486 C467 1.368 . S
C486 C480 1.368 . S
C486 C485 1.523 . S
C487 C471 1.429 . S
C487 C483 1.429 . S
C487 C488 1.523 . S
C488 C472 1.368 . S
C488 C484 1.368 . S
C488 C487 1.523 . S
H489 C464 0.950 . S
H490 C466 0.950 . S
H491 C467 0.949 . S
H492 C469 0.950 . S
H493 C471 0.950 . S
C494 C495 1.349 . S
C494 C496 1.327 . S
C494 H519 0.950 . S
C495 C494 1.349 . S
C495 C511 1.349 . S
C496 C494 1.327 . S
C496 C515 1.429 . S
C496 H520 0.950 . S
C497 C514 1.574 . S
C497 C516 1.368 . S
C497 H521 0.949 . S
H498 C502 0.949 . S
C499 C500 1.349 . S
C499 C501 1.327 . S
C499 H522 0.950 . S
C500 C499 1.349 . S
C500 C512 1.349 . S
C501 C499 1.327 . S
C501 C517 1.429 . S
C501 H523 0.950 . S
C502 H498 0.949 . S
C502 C510 1.574 . S
C502 C518 1.368 . S
H503 C511 0.950 . S
H504 C509 0.950 . S
H505 C510 0.949 . S
H506 C512 0.950 . S
H507 C513 0.950 . S
H508 C514 0.949 . S
C509 H504 0.950 . S
C509 C511 1.327 . S
C509 C515 1.429 . S
C510 C502 1.574 . S
C510 H505 0.949 . S
C510 C516 1.368 . S
C511 C495 1.349 . S
C511 H503 0.950 . S
C511 C509 1.327 . S
C512 C500 1.349 . S
C512 H506 0.950 . S
C512 C513 1.327 . S
C513 H507 0.950 . S
C513 C512 1.327 . S
C513 C517 1.429 . S
C514 C497 1.574 . S
C514 H508 0.949 . S
C514 C518 1.368 . S
C515 C496 1.429 . S
C515 C509 1.429 . S
C515 C516 1.523 . S
C516 C497 1.368 . S
C516 C510 1.368 . S
C516 C515 1.523 . S
C517 C501 1.429 . S
C517 C513 1.429 . S
C517 C518 1.523 . S
C518 C502 1.368 . S
C518 C514 1.368 . S
C518 C517 1.523 . S
H519 C494 0.950 . S
H520 C496 0.950 . S
H521 C497 0.949 . S
H522 C499 0.950 . S
H523 C501 0.950 . S
C524 C525 1.349 . S
C524 C526 1.327 . S
C524 H549 0.950 . S
C525 C524 1.349 . S
C525 C541 1.349 . S
C526 C524 1.327 . S
C526 C545 1.429 . S
C526 H550 0.950 . S
C527 C544 1.574 . S
C527 C546 1.368 . S
C527 H551 0.949 . S
H528 C532 0.949 . S
C529 C530 1.349 . S
C529 C531 1.327 . S
C529 H552 0.950 . S
C530 C529 1.349 . S
C530 C542 1.349 . S
C531 C529 1.327 . S
C531 C547 1.429 . S
C531 H553 0.950 . S
C532 H528 0.949 . S
C532 C540 1.574 . S
C532 C548 1.368 . S
H533 C541 0.950 . S
H534 C539 0.950 . S
H535 C540 0.949 . S
H536 C542 0.950 . S
H537 C543 0.950 . S
H538 C544 0.949 . S
C539 H534 0.950 . S
C539 C541 1.327 . S
C539 C545 1.429 . S
C540 C532 1.574 . S
C540 H535 0.949 . S
C540 C546 1.368 . S
C541 C525 1.349 . S
C541 H533 0.950 . S
C541 C539 1.327 . S
C542 C530 1.349 . S
C542 H536 0.950 . S
C542 C543 1.327 . S
C543 H537 0.950 . S
C543 C542 1.327 . S
C543 C547 1.429 . S
C544 C527 1.574 . S
C544 H538 0.949 . S
C544 C548 1.368 . S
C545 C526 1.429 . S
C545 C539 1.429 . S
C545 C546 1.523 . S
C546 C527 1.368 . S
C546 C540 1.368 . S
C546 C545 1.523 . S
C547 C531 1.429 . S
C547 C543 1.429 . S
C547 C548 1.523 . S
C548 C532 1.368 . S
C548 C544 1.368 . S
C548 C547 1.523 . S
H549 C524 0.950 . S
H550 C526 0.950 . S
H551 C527 0.949 . S
H552 C529 0.950 . S
H553 C531 0.950 . S
C554 C555 1.349 . S
C554 C556 1.327 . S
C554 H579 0.950 . S
C555 C554 1.349 . S
C555 C571 1.349 . S
C556 C554 1.327 . S
C556 C575 1.429 . S
C556 H580 0.950 . S
C557 C574 1.574 . S
C557 C576 1.368 . S
C557 H581 0.949 . S
H558 C562 0.949 . S
C559 C560 1.349 . S
C559 C561 1.327 . S
C559 H582 0.950 . S
C560 C559 1.349 . S
C560 C572 1.349 . S
C561 C559 1.327 . S
C561 C577 1.429 . S
C561 H583 0.950 . S
C562 H558 0.949 . S
C562 C570 1.574 . S
C562 C578 1.368 . S
H563 C571 0.950 . S
H564 C569 0.950 . S
H565 C570 0.949 . S
H566 C572 0.950 . S
H567 C573 0.950 . S
H568 C574 0.949 . S
C569 H564 0.950 . S
C569 C571 1.327 . S
C569 C575 1.429 . S
C570 C562 1.574 . S
C570 H565 0.949 . S
C570 C576 1.368 . S
C571 C555 1.349 . S
C571 H563 0.950 . S
C571 C569 1.327 . S
C572 C560 1.349 . S
C572 H566 0.950 . S
C572 C573 1.327 . S
C573 H567 0.950 . S
C573 C572 1.327 . S
C573 C577 1.429 . S
C574 C557 1.574 . S
C574 H568 0.949 . S
C574 C578 1.368 . S
C575 C556 1.429 . S
C575 C569 1.429 . S
C575 C576 1.523 . S
C576 C557 1.368 . S
C576 C570 1.368 . S
C576 C575 1.523 . S
C577 C561 1.429 . S
C577 C573 1.429 . S
C577 C578 1.523 . S
C578 C562 1.368 . S
C578 C574 1.368 . S
C578 C577 1.523 . S
H579 C554 0.950 . S
H580 C556 0.950 . S
H581 C557 0.949 . S
H582 C559 0.950 . S
H583 C561 0.950 . S
C584 C585 1.349 . S
C584 C586 1.327 . S
C584 H609 0.950 . S
C585 C584 1.349 . S
C585 C601 1.349 . S
C586 C584 1.327 . S
C586 C605 1.429 . S
C586 H610 0.950 . S
C587 C604 1.574 . S
C587 C606 1.368 . S
C587 H611 0.949 . S
H588 C592 0.949 . S
C589 C590 1.349 . S
C589 C591 1.327 . S
C589 H612 0.950 . S
C590 C589 1.349 . S
C590 C602 1.349 . S
C591 C589 1.327 . S
C591 C607 1.429 . S
C591 H613 0.950 . S
C592 H588 0.949 . S
C592 C600 1.574 . S
C592 C608 1.368 . S
H593 C601 0.950 . S
H594 C599 0.950 . S
H595 C600 0.949 . S
H596 C602 0.950 . S
H597 C603 0.950 . S
H598 C604 0.949 . S
C599 H594 0.950 . S
C599 C601 1.327 . S
C599 C605 1.429 . S
C600 C592 1.574 . S
C600 H595 0.949 . S
C600 C606 1.368 . S
C601 C585 1.349 . S
C601 H593 0.950 . S
C601 C599 1.327 . S
C602 C590 1.349 . S
C602 H596 0.950 . S
C602 C603 1.327 . S
C603 H597 0.950 . S
C603 C602 1.327 . S
C603 C607 1.429 . S
C604 C587 1.574 . S
C604 H598 0.949 . S
C604 C608 1.368 . S
C605 C586 1.429 . S
C605 C599 1.429 . S
C605 C606 1.523 . S
C606 C587 1.368 . S
C606 C600 1.368 . S
C606 C605 1.523 . S
C607 C591 1.429 . S
C607 C603 1.429 . S
C607 C608 1.523 . S
C608 C592 1.368 . S
C608 C604 1.368 . S
C608 C607 1.523 . S
H609 C584 0.950 . S
H610 C586 0.950 . S
H611 C587 0.949 . S
H612 C589 0.950 . S
H613 C591 0.950 . S
C614 C615 1.349 . S
C614 C616 1.327 . S
C614 H639 0.950 . S
C615 C614 1.349 . S
C615 C631 1.349 . S
C616 C614 1.327 . S
C616 C635 1.429 . S
C616 H640 0.950 . S
C617 C634 1.574 . S
C617 C636 1.368 . S
C617 H641 0.949 . S
H618 C622 0.949 . S
C619 C620 1.349 . S
C619 C621 1.327 . S
C619 H642 0.950 . S
C620 C619 1.349 . S
C620 C632 1.349 . S
C621 C619 1.327 . S
C621 C637 1.429 . S
C621 H643 0.950 . S
C622 H618 0.949 . S
C622 C630 1.574 . S
C622 C638 1.368 . S
H623 C631 0.950 . S
H624 C629 0.950 . S
H625 C630 0.949 . S
H626 C632 0.950 . S
H627 C633 0.950 . S
H628 C634 0.949 . S
C629 H624 0.950 . S
C629 C631 1.327 . S
C629 C635 1.429 . S
C630 C622 1.574 . S
C630 H625 0.949 . S
C630 C636 1.368 . S
C631 C615 1.349 . S
C631 H623 0.950 . S
C631 C629 1.327 . S
C632 C620 1.349 . S
C632 H626 0.950 . S
C632 C633 1.327 . S
C633 H627 0.950 . S
C633 C632 1.327 . S
C633 C637 1.429 . S
C634 C617 1.574 . S
C634 H628 0.949 . S
C634 C638 1.368 . S
C635 C616 1.429 . S
C635 C629 1.429 . S
C635 C636 1.523 . S
C636 C617 1.368 . S
C636 C630 1.368 . S
C636 C635 1.523 . S
C637 C621 1.429 . S
C637 C633 1.429 . S
C637 C638 1.523 . S
C638 C622 1.368 . S
C638 C634 1.368 . S
C638 C637 1.523 . S
H639 C614 0.950 . S
H640 C616 0.950 . S
H641 C617 0.949 . S
H642 C619 0.950 . S
H643 C621 0.950 . S
C644 C645 1.349 . S
C644 C646 1.327 . S
C644 H669 0.950 . S
C645 C644 1.349 . S
C645 C661 1.349 . S
C646 C644 1.327 . S
C646 C665 1.429 . S
C646 H670 0.950 . S
C647 C664 1.574 . S
C647 C666 1.368 . S
C647 H671 0.949 . S
H648 C652 0.949 . S
C649 C650 1.349 . S
C649 C651 1.327 . S
C649 H672 0.950 . S
C650 C649 1.349 . S
C650 C662 1.349 . S
C651 C649 1.327 . S
C651 C667 1.429 . S
C651 H673 0.950 . S
C652 H648 0.949 . S
C652 C660 1.574 . S
C652 C668 1.368 . S
H653 C661 0.950 . S
H654 C659 0.950 . S
H655 C660 0.949 . S
H656 C662 0.950 . S
H657 C663 0.950 . S
H658 C664 0.949 . S
C659 H654 0.950 . S
C659 C661 1.327 . S
C659 C665 1.429 . S
C660 C652 1.574 . S
C660 H655 0.949 . S
C660 C666 1.368 . S
C661 C645 1.349 . S
C661 H653 0.950 . S
C661 C659 1.327 . S
C662 C650 1.349 . S
C662 H656 0.950 . S
C662 C663 1.327 . S
C663 H657 0.950 . S
C663 C662 1.327 . S
C663 C667 1.429 . S
C664 C647 1.574 . S
C664 H658 0.949 . S
C664 C668 1.368 . S
C665 C646 1.429 . S
C665 C659 1.429 . S
C665 C666 1.523 . S
C666 C647 1.368 . S
C666 C660 1.368 . S
C666 C665 1.523 . S
C667 C651 1.429 . S
C667 C663 1.429 . S
C667 C668 1.523 . S
C668 C652 1.368 . S
C668 C664 1.368 . S
C668 C667 1.523 . S
H669 C644 0.950 . S
H670 C646 0.950 . S
H671 C647 0.949 . S
H672 C649 0.950 . S
H673 C651 0.950 . S
C674 C675 1.349 . S
C674 C676 1.327 . S
C674 H699 0.950 . S
C675 C674 1.349 . S
C675 C691 1.349 . S
C676 C674 1.327 . S
C676 C695 1.429 . S
C676 H700 0.950 . S
C677 C694 1.574 . S
C677 C696 1.368 . S
C677 H701 0.949 . S
H678 C682 0.949 . S
C679 C680 1.349 . S
C679 C681 1.327 . S
C679 H702 0.950 . S
C680 C679 1.349 . S
C680 C692 1.349 . S
C681 C679 1.327 . S
C681 C697 1.429 . S
C681 H703 0.950 . S
C682 H678 0.949 . S
C682 C690 1.574 . S
C682 C698 1.368 . S
H683 C691 0.950 . S
H684 C689 0.950 . S
H685 C690 0.949 . S
H686 C692 0.950 . S
H687 C693 0.950 . S
H688 C694 0.949 . S
C689 H684 0.950 . S
C689 C691 1.327 . S
C689 C695 1.429 . S
C690 C682 1.574 . S
C690 H685 0.949 . S
C690 C696 1.368 . S
C691 C675 1.349 . S
C691 H683 0.950 . S
C691 C689 1.327 . S
C692 C680 1.349 . S
C692 H686 0.950 . S
C692 C693 1.327 . S
C693 H687 0.950 . S
C693 C692 1.327 . S
C693 C697 1.429 . S
C694 C677 1.574 . S
C694 H688 0.949 . S
C694 C698 1.368 . S
C695 C676 1.429 . S
C695 C689 1.429 . S
C695 C696 1.523 . S
C696 C677 1.368 . S
C696 C690 1.368 . S
C696 C695 1.523 . S
C697 C681 1.429 . S
C697 C693 1.429 . S
C697 C698 1.523 . S
C698 C682 1.368 . S
C698 C694 1.368 . S
C698 C697 1.523 . S
H699 C674 0.950 . S
H700 C676 0.950 . S
H701 C677 0.949 . S
H702 C679 0.950 . S
H703 C681 0.950 . S
C704 C705 1.349 . S
C704 C706 1.327 . S
C704 H729 0.950 . S
C705 C704 1.349 . S
C705 C721 1.349 . S
C706 C704 1.327 . S
C706 C725 1.429 . S
C706 H730 0.950 . S
C707 C724 1.574 . S
C707 C726 1.368 . S
C707 H731 0.949 . S
H708 C712 0.949 . S
C709 C710 1.349 . S
C709 C711 1.327 . S
C709 H732 0.950 . S
C710 C709 1.349 . S
C710 C722 1.349 . S
C711 C709 1.327 . S
C711 C727 1.429 . S
C711 H733 0.950 . S
C712 H708 0.949 . S
C712 C720 1.574 . S
C712 C728 1.368 . S
H713 C721 0.950 . S
H714 C719 0.950 . S
H715 C720 0.949 . S
H716 C722 0.950 . S
H717 C723 0.950 . S
H718 C724 0.949 . S
C719 H714 0.950 . S
C719 C721 1.327 . S
C719 C725 1.429 . S
C720 C712 1.574 . S
C720 H715 0.949 . S
C720 C726 1.368 . S
C721 C705 1.349 . S
C721 H713 0.950 . S
C721 C719 1.327 . S
C722 C710 1.349 . S
C722 H716 0.950 . S
C722 C723 1.327 . S
C723 H717 0.950 . S
C723 C722 1.327 . S
C723 C727 1.429 . S
C724 C707 1.574 . S
C724 H718 0.949 . S
C724 C728 1.368 . S
C725 C706 1.429 . S
C725 C719 1.429 . S
C725 C726 1.523 . S
C726 C707 1.368 . S
C726 C720 1.368 . S
C726 C725 1.523 . S
C727 C711 1.429 . S
C727 C723 1.429 . S
C727 C728 1.523 . S
C728 C712 1.368 . S
C728 C724 1.368 . S
C728 C727 1.523 . S
H729 C704 0.950 . S
H730 C706 0.950 . S
H731 C707 0.949 . S
H732 C709 0.950 . S
H733 C711 0.950 . S
C734 C735 1.349 . S
C734 C736 1.327 . S
C734 H759 0.950 . S
C735 C734 1.349 . S
C735 C751 1.349 . S
C736 C734 1.327 . S
C736 C755 1.429 . S
C736 H760 0.950 . S
C737 C754 1.574 . S
C737 C756 1.368 . S
C737 H761 0.949 . S
H738 C742 0.949 . S
C739 C740 1.349 . S
C739 C741 1.327 . S
C739 H762 0.950 . S
C740 C739 1.349 . S
C740 C752 1.349 . S
C741 C739 1.327 . S
C741 C757 1.429 . S
C741 H763 0.950 . S
C742 H738 0.949 . S
C742 C750 1.574 . S
C742 C758 1.368 . S
H743 C751 0.950 . S
H744 C749 0.950 . S
H745 C750 0.949 . S
H746 C752 0.950 . S
H747 C753 0.950 . S
H748 C754 0.949 . S
C749 H744 0.950 . S
C749 C751 1.327 . S
C749 C755 1.429 . S
C750 C742 1.574 . S
C750 H745 0.949 . S
C750 C756 1.368 . S
C751 C735 1.349 . S
C751 H743 0.950 . S
C751 C749 1.327 . S
C752 C740 1.349 . S
C752 H746 0.950 . S
C752 C753 1.327 . S
C753 H747 0.950 . S
C753 C752 1.327 . S
C753 C757 1.429 . S
C754 C737 1.574 . S
C754 H748 0.949 . S
C754 C758 1.368 . S
C755 C736 1.429 . S
C755 C749 1.429 . S
C755 C756 1.523 . S
C756 C737 1.368 . S
C756 C750 1.368 . S
C756 C755 1.523 . S
C757 C741 1.429 . S
C757 C753 1.429 . S
C757 C758 1.523 . S
C758 C742 1.368 . S
C758 C754 1.368 . S
C758 C757 1.523 . S
H759 C734 0.950 . S
H760 C736 0.950 . S
H761 C737 0.949 . S
H762 C739 0.950 . S
H763 C741 0.950 . S
C764 C765 1.349 . S
C764 C766 1.327 . S
C764 H789 0.950 . S
C765 C764 1.349 . S
C765 C781 1.349 . S
C766 C764 1.327 . S
C766 C785 1.429 . S
C766 H790 0.950 . S
C767 C784 1.574 . S
C767 C786 1.368 . S
C767 H791 0.949 . S
H768 C772 0.949 . S
C769 C770 1.349 . S
C769 C771 1.327 . S
C769 H792 0.950 . S
C770 C769 1.349 . S
C770 C782 1.349 . S
C771 C769 1.327 . S
C771 C787 1.429 . S
C771 H793 0.950 . S
C772 H768 0.949 . S
C772 C780 1.574 . S
C772 C788 1.368 . S
H773 C781 0.950 . S
H774 C779 0.950 . S
H775 C780 0.949 . S
H776 C782 0.950 . S
H777 C783 0.950 . S
H778 C784 0.949 . S
C779 H774 0.950 . S
C779 C781 1.327 . S
C779 C785 1.429 . S
C780 C772 1.574 . S
C780 H775 0.949 . S
C780 C786 1.368 . S
C781 C765 1.349 . S
C781 H773 0.950 . S
C781 C779 1.327 . S
C782 C770 1.349 . S
C782 H776 0.950 . S
C782 C783 1.327 . S
C783 H777 0.950 . S
C783 C782 1.327 . S
C783 C787 1.429 . S
C784 C767 1.574 . S
C784 H778 0.949 . S
C784 C788 1.368 . S
C785 C766 1.429 . S
C785 C779 1.429 . S
C785 C786 1.523 . S
C786 C767 1.368 . S
C786 C780 1.368 . S
C786 C785 1.523 . S
C787 C771 1.429 . S
C787 C783 1.429 . S
C787 C788 1.523 . S
C788 C772 1.368 . S
C788 C784 1.368 . S
C788 C787 1.523 . S
H789 C764 0.950 . S
H790 C766 0.950 . S
H791 C767 0.949 . S
H792 C769 0.950 . S
H793 C771 0.950 . S
C794 C795 1.349 . S
C794 C796 1.327 . S
C794 H819 0.950 . S
C795 C794 1.349 . S
C795 C811 1.349 . S
C796 C794 1.327 . S
C796 C815 1.429 . S
C796 H820 0.950 . S
C797 C814 1.574 . S
C797 C816 1.368 . S
C797 H821 0.949 . S
H798 C802 0.949 . S
C799 C800 1.349 . S
C799 C801 1.327 . S
C799 H822 0.950 . S
C800 C799 1.349 . S
C800 C812 1.349 . S
C801 C799 1.327 . S
C801 C817 1.429 . S
C801 H823 0.950 . S
C802 H798 0.949 . S
C802 C810 1.574 . S
C802 C818 1.368 . S
H803 C811 0.950 . S
H804 C809 0.950 . S
H805 C810 0.949 . S
H806 C812 0.950 . S
H807 C813 0.950 . S
H808 C814 0.949 . S
C809 H804 0.950 . S
C809 C811 1.327 . S
C809 C815 1.429 . S
C810 C802 1.574 . S
C810 H805 0.949 . S
C810 C816 1.368 . S
C811 C795 1.349 . S
C811 H803 0.950 . S
C811 C809 1.327 . S
C812 C800 1.349 . S
C812 H806 0.950 . S
C812 C813 1.327 . S
C813 H807 0.950 . S
C813 C812 1.327 . S
C813 C817 1.429 . S
C814 C797 1.574 . S
C814 H808 0.949 . S
C814 C818 1.368 . S
C815 C796 1.429 . S
C815 C809 1.429 . S
C815 C816 1.523 . S
C816 C797 1.368 . S
C816 C810 1.368 . S
C816 C815 1.523 . S
C817 C801 1.429 . S
C817 C813 1.429 . S
C817 C818 1.523 . S
C818 C802 1.368 . S
C818 C814 1.368 . S
C818 C817 1.523 . S
H819 C794 0.950 . S
H820 C796 0.950 . S
H821 C797 0.949 . S
H822 C799 0.950 . S
H823 C801 0.950 . S
C824 C825 1.349 . S
C824 C826 1.327 . S
C824 H849 0.950 . S
C825 C824 1.349 . S
C825 C841 1.349 . S
C826 C824 1.327 . S
C826 C845 1.429 . S
C826 H850 0.950 . S
C827 C844 1.574 . S
C827 C846 1.368 . S
C827 H851 0.949 . S
H828 C832 0.949 . S
C829 C830 1.349 . S
C829 C831 1.327 . S
C829 H852 0.950 . S
C830 C829 1.349 . S
C830 C842 1.349 . S
C831 C829 1.327 . S
C831 C847 1.429 . S
C831 H853 0.950 . S
C832 H828 0.949 . S
C832 C840 1.574 . S
C832 C848 1.368 . S
H833 C841 0.950 . S
H834 C839 0.950 . S
H835 C840 0.949 . S
H836 C842 0.950 . S
H837 C843 0.950 . S
H838 C844 0.949 . S
C839 H834 0.950 . S
C839 C841 1.327 . S
C839 C845 1.429 . S
C840 C832 1.574 . S
C840 H835 0.949 . S
C840 C846 1.368 . S
C841 C825 1.349 . S
C841 H833 0.950 . S
C841 C839 1.327 . S
C842 C830 1.349 . S
C842 H836 0.950 . S
C842 C843 1.327 . S
C843 H837 0.950 . S
C843 C842 1.327 . S
C843 C847 1.429 . S
C844 C827 1.574 . S
C844 H838 0.949 . S
C844 C848 1.368 . S
C845 C826 1.429 . S
C845 C839 1.429 . S
C845 C846 1.523 . S
C846 C827 1.368 . S
C846 C840 1.368 . S
C846 C845 1.523 . S
C847 C831 1.429 . S
C847 C843 1.429 . S
C847 C848 1.523 . S
C848 C832 1.368 . S
C848 C844 1.368 . S
C848 C847 1.523 . S
H849 C824 0.950 . S
H850 C826 0.950 . S
H851 C827 0.949 . S
H852 C829 0.950 . S
H853 C831 0.950 . S
C854 C855 1.349 . S
C854 C856 1.327 . S
C854 H879 0.950 . S
C855 C854 1.349 . S
C855 C871 1.349 . S
C856 C854 1.327 . S
C856 C875 1.429 . S
C856 H880 0.950 . S
C857 C874 1.574 . S
C857 C876 1.368 . S
C857 H881 0.949 . S
H858 C862 0.949 . S
C859 C860 1.349 . S
C859 C861 1.327 . S
C859 H882 0.950 . S
C860 C859 1.349 . S
C860 C872 1.349 . S
C861 C859 1.327 . S
C861 C877 1.429 . S
C861 H883 0.950 . S
C862 H858 0.949 . S
C862 C870 1.574 . S
C862 C878 1.368 . S
H863 C871 0.950 . S
H864 C869 0.950 . S
H865 C870 0.949 . S
H866 C872 0.950 . S
H867 C873 0.950 . S
H868 C874 0.949 . S
C869 H864 0.950 . S
C869 C871 1.327 . S
C869 C875 1.429 . S
C870 C862 1.574 . S
C870 H865 0.949 . S
C870 C876 1.368 . S
C871 C855 1.349 . S
C871 H863 0.950 . S
C871 C869 1.327 . S
C872 C860 1.349 . S
C872 H866 0.950 . S
C872 C873 1.327 . S
C873 H867 0.950 . S
C873 C872 1.327 . S
C873 C877 1.429 . S
C874 C857 1.574 . S
C874 H868 0.949 . S
C874 C878 1.368 . S
C875 C856 1.429 . S
C875 C869 1.429 . S
C875 C876 1.523 . S
C876 C857 1.368 . S
C876 C870 1.368 . S
C876 C875 1.523 . S
C877 C861 1.429 . S
C877 C873 1.429 . S
C877 C878 1.523 . S
C878 C862 1.368 . S
C878 C874 1.368 . S
C878 C877 1.523 . S
H879 C854 0.950 . S
H880 C856 0.950 . S
H881 C857 0.949 . S
H882 C859 0.950 . S
H883 C861 0.950 . S
C884 C885 1.349 . S
C884 C886 1.327 . S
C884 H909 0.950 . S
C885 C884 1.349 . S
C885 C901 1.349 . S
C886 C884 1.327 . S
C886 C905 1.429 . S
C886 H910 0.950 . S
C887 C904 1.574 . S
C887 C906 1.368 . S
C887 H911 0.949 . S
H888 C892 0.949 . S
C889 C890 1.349 . S
C889 C891 1.327 . S
C889 H912 0.950 . S
C890 C889 1.349 . S
C890 C902 1.349 . S
C891 C889 1.327 . S
C891 C907 1.429 . S
C891 H913 0.950 . S
C892 H888 0.949 . S
C892 C900 1.574 . S
C892 C908 1.368 . S
H893 C901 0.950 . S
H894 C899 0.950 . S
H895 C900 0.949 . S
H896 C902 0.950 . S
H897 C903 0.950 . S
H898 C904 0.949 . S
C899 H894 0.950 . S
C899 C901 1.327 . S
C899 C905 1.429 . S
C900 C892 1.574 . S
C900 H895 0.949 . S
C900 C906 1.368 . S
C901 C885 1.349 . S
C901 H893 0.950 . S
C901 C899 1.327 . S
C902 C890 1.349 . S
C902 H896 0.950 . S
C902 C903 1.327 . S
C903 H897 0.950 . S
C903 C902 1.327 . S
C903 C907 1.429 . S
C904 C887 1.574 . S
C904 H898 0.949 . S
C904 C908 1.368 . S
C905 C886 1.429 . S
C905 C899 1.429 . S
C905 C906 1.523 . S
C906 C887 1.368 . S
C906 C900 1.368 . S
C906 C905 1.523 . S
C907 C891 1.429 . S
C907 C903 1.429 . S
C907 C908 1.523 . S
C908 C892 1.368 . S
C908 C904 1.368 . S
C908 C907 1.523 . S
H909 C884 0.950 . S
H910 C886 0.950 . S
H911 C887 0.949 . S
H912 C889 0.950 . S
H913 C891 0.950 . S
C914 C915 1.349 . S
C914 C916 1.327 . S
C914 H939 0.950 . S
C915 C914 1.349 . S
C915 C931 1.349 . S
C916 C914 1.327 . S
C916 C935 1.429 . S
C916 H940 0.950 . S
C917 C934 1.574 . S
C917 C936 1.368 . S
C917 H941 0.949 . S
H918 C922 0.949 . S
C919 C920 1.349 . S
C919 C921 1.327 . S
C919 H942 0.950 . S
C920 C919 1.349 . S
C920 C932 1.349 . S
C921 C919 1.327 . S
C921 C937 1.429 . S
C921 H943 0.950 . S
C922 H918 0.949 . S
C922 C930 1.574 . S
C922 C938 1.368 . S
H923 C931 0.950 . S
H924 C929 0.950 . S
H925 C930 0.949 . S
H926 C932 0.950 . S
H927 C933 0.950 . S
H928 C934 0.949 . S
C929 H924 0.950 . S
C929 C931 1.327 . S
C929 C935 1.429 . S
C930 C922 1.574 . S
C930 H925 0.949 . S
C930 C936 1.368 . S
C931 C915 1.349 . S
C931 H923 0.950 . S
C931 C929 1.327 . S
C932 C920 1.349 . S
C932 H926 0.950 . S
C932 C933 1.327 . S
C933 H927 0.950 . S
C933 C932 1.327 . S
C933 C937 1.429 . S
C934 C917 1.574 . S
C934 H928 0.949 . S
C934 C938 1.368 . S
C935 C916 1.429 . S
C935 C929 1.429 . S
C935 C936 1.523 . S
C936 C917 1.368 . S
C936 C930 1.368 . S
C936 C935 1.523 . S
C937 C921 1.429 . S
C937 C933 1.429 . S
C937 C938 1.523 . S
C938 C922 1.368 . S
C938 C934 1.368 . S
C938 C937 1.523 . S
H939 C914 0.950 . S
H940 C916 0.950 . S
H941 C917 0.949 . S
H942 C919 0.950 . S
H943 C921 0.950 . S
C944 C945 1.349 . S
C944 C946 1.327 . S
C944 H969 0.950 . S
C945 C944 1.349 . S
C945 C961 1.349 . S
C946 C944 1.327 . S
C946 C965 1.429 . S
C946 H970 0.950 . S
C947 C964 1.574 . S
C947 C966 1.368 . S
C947 H971 0.949 . S
H948 C952 0.949 . S
C949 C950 1.349 . S
C949 C951 1.327 . S
C949 H972 0.950 . S
C950 C949 1.349 . S
C950 C962 1.349 . S
C951 C949 1.327 . S
C951 C967 1.429 . S
C951 H973 0.950 . S
C952 H948 0.949 . S
C952 C960 1.574 . S
C952 C968 1.368 . S
H953 C961 0.950 . S
H954 C959 0.950 . S
H955 C960 0.949 . S
H956 C962 0.950 . S
H957 C963 0.950 . S
H958 C964 0.949 . S
C959 H954 0.950 . S
C959 C961 1.327 . S
C959 C965 1.429 . S
C960 C952 1.574 . S
C960 H955 0.949 . S
C960 C966 1.368 . S
C961 C945 1.349 . S
C961 H953 0.950 . S
C961 C959 1.327 . S
C962 C950 1.349 . S
C962 H956 0.950 . S
C962 C963 1.327 . S
C963 H957 0.950 . S
C963 C962 1.327 . S
C963 C967 1.429 . S
C964 C947 1.574 . S
C964 H958 0.949 . S
C964 C968 1.368 . S
C965 C946 1.429 . S
C965 C959 1.429 . S
C965 C966 1.523 . S
C966 C947 1.368 . S
C966 C960 1.368 . S
C966 C965 1.523 . S
C967 C951 1.429 . S
C967 C963 1.429 . S
C967 C968 1.523 . S
C968 C952 1.368 . S
C968 C964 1.368 . S
C968 C967 1.523 . S
H969 C944 0.950 . S
H970 C946 0.950 . S
H971 C947 0.949 . S
H972 C949 0.950 . S
H973 C951 0.950 . S
C974 C975 1.349 . S
C974 C976 1.327 . S
C974 H999 0.950 . S
C975 C974 1.349 . S
C975 C991 1.349 . S
C976 C974 1.327 . S
C976 C995 1.429 . S
C976 H1000 0.950 . S
C977 C994 1.574 . S
C977 C996 1.368 . S
C977 H1001 0.949 . S
H978 C982 0.949 . S
C979 C980 1.349 . S
C979 C981 1.327 . S
C979 H1002 0.950 . S
C980 C979 1.349 . S
C980 C992 1.349 . S
C981 C979 1.327 . S
C981 C997 1.429 . S
C981 H1003 0.950 . S
C982 H978 0.949 . S
C982 C990 1.574 . S
C982 C998 1.368 . S
H983 C991 0.950 . S
H984 C989 0.950 . S
H985 C990 0.949 . S
H986 C992 0.950 . S
H987 C993 0.950 . S
H988 C994 0.949 . S
C989 H984 0.950 . S
C989 C991 1.327 . S
C989 C995 1.429 . S
C990 C982 1.574 . S
C990 H985 0.949 . S
C990 C996 1.368 . S
C991 C975 1.349 . S
C991 H983 0.950 . S
C991 C989 1.327 . S
C992 C980 1.349 . S
C992 H986 0.950 . S
C992 C993 1.327 . S
C993 H987 0.950 . S
C993 C992 1.327 . S
C993 C997 1.429 . S
C994 C977 1.574 . S
C994 H988 0.949 . S
C994 C998 1.368 . S
C995 C976 1.429 . S
C995 C989 1.429 . S
C995 C996 1.523 . S
C996 C977 1.368 . S
C996 C990 1.368 . S
C996 C995 1.523 . S
C997 C981 1.429 . S
C997 C993 1.429 . S
C997 C998 1.523 . S
C998 C982 1.368 . S
C998 C994 1.368 . S
C998 C997 1.523 . S
H999 C974 0.950 . S
H1000 C976 0.950 . S
H1001 C977 0.949 . S
H1002 C979 0.950 . S
H1003 C981 0.950 . S
C1004 C1005 1.349 . S
C1004 C1006 1.327 . S
C1004 H1029 0.950 . S
C1005 C1004 1.349 . S
C1005 C1021 1.349 . S
C1006 C1004 1.327 . S
C1006 C1025 1.429 . S
C1006 H1030 0.950 . S
C1007 C1024 1.574 . S
C1007 C1026 1.368 . S
C1007 H1031 0.949 . S
H1008 C1012 0.949 . S
C1009 C1010 1.349 . S
C1009 C1011 1.327 . S
C1009 H1032 0.950 . S
C1010 C1009 1.349 . S
C1010 C1022 1.349 . S
C1011 C1009 1.327 . S
C1011 C1027 1.429 . S
C1011 H1033 0.950 . S
C1012 H1008 0.949 . S
C1012 C1020 1.574 . S
C1012 C1028 1.368 . S
H1013 C1021 0.950 . S
H1014 C1019 0.950 . S
H1015 C1020 0.949 . S
H1016 C1022 0.950 . S
H1017 C1023 0.950 . S
H1018 C1024 0.949 . S
C1019 H1014 0.950 . S
C1019 C1021 1.327 . S
C1019 C1025 1.429 . S
C1020 C1012 1.574 . S
C1020 H1015 0.949 . S
C1020 C1026 1.368 . S
C1021 C1005 1.349 . S
C1021 H1013 0.950 . S
C1021 C1019 1.327 . S
C1022 C1010 1.349 . S
C1022 H1016 0.950 . S
C1022 C1023 1.327 . S
C1023 H1017 0.950 . S
C1023 C1022 1.327 . S
C1023 C1027 1.429 . S
C1024 C1007 1.574 . S
C1024 H1018 0.949 . S
C1024 C1028 1.368 . S
C1025 C1006 1.429 . S
C1025 C1019 1.429 . S
C1025 C1026 1.523 . S
C1026 C1007 1.368 . S
C1026 C1020 1.368 . S
C1026 C1025 1.523 . S
C1027 C1011 1.429 . S
C1027 C1023 1.429 . S
C1027 C1028 1.523 . S
C1028 C1012 1.368 . S
C1028 C1024 1.368 . S
C1028 C1027 1.523 . S
H1029 C1004 0.950 . S
H1030 C1006 0.950 . S
H1031 C1007 0.949 . S
H1032 C1009 0.950 . S
H1033 C1011 0.950 . S
C1034 C1035 1.349 . S
C1034 C1036 1.327 . S
C1034 H1059 0.950 . S
C1035 C1034 1.349 . S
C1035 C1051 1.349 . S
C1036 C1034 1.327 . S
C1036 C1055 1.429 . S
C1036 H1060 0.950 . S
C1037 C1054 1.574 . S
C1037 C1056 1.368 . S
C1037 H1061 0.949 . S
H1038 C1042 0.949 . S
C1039 C1040 1.349 . S
C1039 C1041 1.327 . S
C1039 H1062 0.950 . S
C1040 C1039 1.349 . S
C1040 C1052 1.349 . S
C1041 C1039 1.327 . S
C1041 C1057 1.429 . S
C1041 H1063 0.950 . S
C1042 H1038 0.949 . S
C1042 C1050 1.574 . S
C1042 C1058 1.368 . S
H1043 C1051 0.950 . S
H1044 C1049 0.950 . S
H1045 C1050 0.949 . S
H1046 C1052 0.950 . S
H1047 C1053 0.950 . S
H1048 C1054 0.949 . S
C1049 H1044 0.950 . S
C1049 C1051 1.327 . S
C1049 C1055 1.429 . S
C1050 C1042 1.574 . S
C1050 H1045 0.949 . S
C1050 C1056 1.368 . S
C1051 C1035 1.349 . S
C1051 H1043 0.950 . S
C1051 C1049 1.327 . S
C1052 C1040 1.349 . S
C1052 H1046 0.950 . S
C1052 C1053 1.327 . S
C1053 H1047 0.950 . S
C1053 C1052 1.327 . S
C1053 C1057 1.429 . S
C1054 C1037 1.574 . S
C1054 H1048 0.949 . S
C1054 C1058 1.368 . S
C1055 C1036 1.429 . S
C1055 C1049 1.429 . S
C1055 C1056 1.523 . S
C1056 C1037 1.368 . S
C1056 C1050 1.368 . S
C1056 C1055 1.523 . S
C1057 C1041 1.429 . S
C1057 C1053 1.429 . S
C1057 C1058 1.523 . S
C1058 C1042 1.368 . S
C1058 C1054 1.368 . S
C1058 C1057 1.523 . S
H1059 C1034 0.950 . S
H1060 C1036 0.950 . S
H1061 C1037 0.949 . S
H1062 C1039 0.950 . S
H1063 C1041 0.950 . S
C1064 C1065 1.349 . S
C1064 C1066 1.327 . S
C1064 H1089 0.950 . S
C1065 C1064 1.349 . S
C1065 C1081 1.349 . S
C1066 C1064 1.327 . S
C1066 C1085 1.429 . S
C1066 H1090 0.950 . S
C1067 C1084 1.574 . S
C1067 C1086 1.368 . S
C1067 H1091 0.949 . S
H1068 C1072 0.949 . S
C1069 C1070 1.349 . S
C1069 C1071 1.327 . S
C1069 H1092 0.950 . S
C1070 C1069 1.349 . S
C1070 C1082 1.349 . S
C1071 C1069 1.327 . S
C1071 C1087 1.429 . S
C1071 H1093 0.950 . S
C1072 H1068 0.949 . S
C1072 C1080 1.574 . S
C1072 C1088 1.368 . S
H1073 C1081 0.950 . S
H1074 C1079 0.950 . S
H1075 C1080 0.949 . S
H1076 C1082 0.950 . S
H1077 C1083 0.950 . S
H1078 C1084 0.949 . S
C1079 H1074 0.950 . S
C1079 C1081 1.327 . S
C1079 C1085 1.429 . S
C1080 C1072 1.574 . S
C1080 H1075 0.949 . S
C1080 C1086 1.368 . S
C1081 C1065 1.349 . S
C1081 H1073 0.950 . S
C1081 C1079 1.327 . S
C1082 C1070 1.349 . S
C1082 H1076 0.950 . S
C1082 C1083 1.327 . S
C1083 H1077 0.950 . S
C1083 C1082 1.327 . S
C1083 C1087 1.429 . S
C1084 C1067 1.574 . S
C1084 H1078 0.949 . S
C1084 C1088 1.368 . S
C1085 C1066 1.429 . S
C1085 C1079 1.429 . S
C1085 C1086 1.523 . S
C1086 C1067 1.368 . S
C1086 C1080 1.368 . S
C1086 C1085 1.523 . S
C1087 C1071 1.429 . S
C1087 C1083 1.429 . S
C1087 C1088 1.523 . S
C1088 C1072 1.368 . S
C1088 C1084 1.368 . S
C1088 C1087 1.523 . S
H1089 C1064 0.950 . S
H1090 C1066 0.950 . S
H1091 C1067 0.949 . S
H1092 C1069 0.950 . S
H1093 C1071 0.950 . S
C1094 C1095 1.349 . S
C1094 C1096 1.327 . S
C1094 H1119 0.950 . S
C1095 C1094 1.349 . S
C1095 C1111 1.349 . S
C1096 C1094 1.327 . S
C1096 C1115 1.429 . S
C1096 H1120 0.950 . S
C1097 C1114 1.574 . S
C1097 C1116 1.368 . S
C1097 H1121 0.949 . S
H1098 C1102 0.949 . S
C1099 C1100 1.349 . S
C1099 C1101 1.327 . S
C1099 H1122 0.950 . S
C1100 C1099 1.349 . S
C1100 C1112 1.349 . S
C1101 C1099 1.327 . S
C1101 C1117 1.429 . S
C1101 H1123 0.950 . S
C1102 H1098 0.949 . S
C1102 C1110 1.574 . S
C1102 C1118 1.368 . S
H1103 C1111 0.950 . S
H1104 C1109 0.950 . S
H1105 C1110 0.949 . S
H1106 C1112 0.950 . S
H1107 C1113 0.950 . S
H1108 C1114 0.949 . S
C1109 H1104 0.950 . S
C1109 C1111 1.327 . S
C1109 C1115 1.429 . S
C1110 C1102 1.574 . S
C1110 H1105 0.949 . S
C1110 C1116 1.368 . S
C1111 C1095 1.349 . S
C1111 H1103 0.950 . S
C1111 C1109 1.327 . S
C1112 C1100 1.349 . S
C1112 H1106 0.950 . S
C1112 C1113 1.327 . S
C1113 H1107 0.950 . S
C1113 C1112 1.327 . S
C1113 C1117 1.429 . S
C1114 C1097 1.574 . S
C1114 H1108 0.949 . S
C1114 C1118 1.368 . S
C1115 C1096 1.429 . S
C1115 C1109 1.429 . S
C1115 C1116 1.523 . S
C1116 C1097 1.368 . S
C1116 C1110 1.368 . S
C1116 C1115 1.523 . S
C1117 C1101 1.429 . S
C1117 C1113 1.429 . S
C1117 C1118 1.523 . S
C1118 C1102 1.368 . S
C1118 C1114 1.368 . S
C1118 C1117 1.523 . S
H1119 C1094 0.950 . S
H1120 C1096 0.950 . S
H1121 C1097 0.949 . S
H1122 C1099 0.950 . S
H1123 C1101 0.950 . S
C1124 C1125 1.349 . S
C1124 C1126 1.327 . S
C1124 H1149 0.950 . S
C1125 C1124 1.349 . S
C1125 C1141 1.349 . S
C1126 C1124 1.327 . S
C1126 C1145 1.429 . S
C1126 H1150 0.950 . S
C1127 C1144 1.574 . S
C1127 C1146 1.368 . S
C1127 H1151 0.949 . S
H1128 C1132 0.949 . S
C1129 C1130 1.349 . S
C1129 C1131 1.327 . S
C1129 H1152 0.950 . S
C1130 C1129 1.349 . S
C1130 C1142 1.349 . S
C1131 C1129 1.327 . S
C1131 C1147 1.429 . S
C1131 H1153 0.950 . S
C1132 H1128 0.949 . S
C1132 C1140 1.574 . S
C1132 C1148 1.368 . S
H1133 C1141 0.950 . S
H1134 C1139 0.950 . S
H1135 C1140 0.949 . S
H1136 C1142 0.950 . S
H1137 C1143 0.950 . S
H1138 C1144 0.949 . S
C1139 H1134 0.950 . S
C1139 C1141 1.327 . S
C1139 C1145 1.429 . S
C1140 C1132 1.574 . S
C1140 H1135 0.949 . S
C1140 C1146 1.368 . S
C1141 C1125 1.349 . S
C1141 H1133 0.950 . S
C1141 C1139 1.327 . S
C1142 C1130 1.349 . S
C1142 H1136 0.950 . S
C1142 C1143 1.327 . S
C1143 H1137 0.950 . S
C1143 C1142 1.327 . S
C1143 C1147 1.429 . S
C1144 C1127 1.574 . S
C1144 H1138 0.949 . S
C1144 C1148 1.368 . S
C1145 C1126 1.429 . S
C1145 C1139 1.429 . S
C1145 C1146 1.523 . S
C1146 C1127 1.368 . S
C1146 C1140 1.368 . S
C1146 C1145 1.523 . S
C1147 C1131 1.429 . S
C1147 C1143 1.429 . S
C1147 C1148 1.523 . S
C1148 C1132 1.368 . S
C1148 C1144 1.368 . S
C1148 C1147 1.523 . S
H1149 C1124 0.950 . S
H1150 C1126 0.950 . S
H1151 C1127 0.949 . S
H1152 C1129 0.950 . S
H1153 C1131 0.950 . S
C1154 C1155 1.349 . S
C1154 C1156 1.327 . S
C1154 H1179 0.950 . S
C1155 C1154 1.349 . S
C1155 C1171 1.349 . S
C1156 C1154 1.327 . S
C1156 C1175 1.429 . S
C1156 H1180 0.950 . S
C1157 C1174 1.574 . S
C1157 C1176 1.368 . S
C1157 H1181 0.949 . S
H1158 C1162 0.949 . S
C1159 C1160 1.349 . S
C1159 C1161 1.327 . S
C1159 H1182 0.950 . S
C1160 C1159 1.349 . S
C1160 C1172 1.349 . S
C1161 C1159 1.327 . S
C1161 C1177 1.429 . S
C1161 H1183 0.950 . S
C1162 H1158 0.949 . S
C1162 C1170 1.574 . S
C1162 C1178 1.368 . S
H1163 C1171 0.950 . S
H1164 C1169 0.950 . S
H1165 C1170 0.949 . S
H1166 C1172 0.950 . S
H1167 C1173 0.950 . S
H1168 C1174 0.949 . S
C1169 H1164 0.950 . S
C1169 C1171 1.327 . S
C1169 C1175 1.429 . S
C1170 C1162 1.574 . S
C1170 H1165 0.949 . S
C1170 C1176 1.368 . S
C1171 C1155 1.349 . S
C1171 H1163 0.950 . S
C1171 C1169 1.327 . S
C1172 C1160 1.349 . S
C1172 H1166 0.950 . S
C1172 C1173 1.327 . S
C1173 H1167 0.950 . S
C1173 C1172 1.327 . S
C1173 C1177 1.429 . S
C1174 C1157 1.574 . S
C1174 H1168 0.949 . S
C1174 C1178 1.368 . S
C1175 C1156 1.429 . S
C1175 C1169 1.429 . S
C1175 C1176 1.523 . S
C1176 C1157 1.368 . S
C1176 C1170 1.368 . S
C1176 C1175 1.523 . S
C1177 C1161 1.429 . S
C1177 C1173 1.429 . S
C1177 C1178 1.523 . S
C1178 C1162 1.368 . S
C1178 C1174 1.368 . S
C1178 C1177 1.523 . S
H1179 C1154 0.950 . S
H1180 C1156 0.950 . S
H1181 C1157 0.949 . S
H1182 C1159 0.950 . S
H1183 C1161 0.950 . S
C1184 C1185 1.349 . S
C1184 C1186 1.327 . S
C1184 H1209 0.950 . S
C1185 C1184 1.349 . S
C1185 C1201 1.349 . S
C1186 C1184 1.327 . S
C1186 C1205 1.429 . S
C1186 H1210 0.950 . S
C1187 C1204 1.574 . S
C1187 C1206 1.368 . S
C1187 H1211 0.949 . S
H1188 C1192 0.949 . S
C1189 C1190 1.349 . S
C1189 C1191 1.327 . S
C1189 H1212 0.950 . S
C1190 C1189 1.349 . S
C1190 C1202 1.349 . S
C1191 C1189 1.327 . S
C1191 C1207 1.429 . S
C1191 H1213 0.950 . S
C1192 H1188 0.949 . S
C1192 C1200 1.574 . S
C1192 C1208 1.368 . S
H1193 C1201 0.950 . S
H1194 C1199 0.950 . S
H1195 C1200 0.949 . S
H1196 C1202 0.950 . S
H1197 C1203 0.950 . S
H1198 C1204 0.949 . S
C1199 H1194 0.950 . S
C1199 C1201 1.327 . S
C1199 C1205 1.429 . S
C1200 C1192 1.574 . S
C1200 H1195 0.949 . S
C1200 C1206 1.368 . S
C1201 C1185 1.349 . S
C1201 H1193 0.950 . S
C1201 C1199 1.327 . S
C1202 C1190 1.349 . S
C1202 H1196 0.950 . S
C1202 C1203 1.327 . S
C1203 H1197 0.950 . S
C1203 C1202 1.327 . S
C1203 C1207 1.429 . S
C1204 C1187 1.574 . S
C1204 H1198 0.949 . S
C1204 C1208 1.368 . S
C1205 C1186 1.429 . S
C1205 C1199 1.429 . S
C1205 C1206 1.523 . S
C1206 C1187 1.368 . S
C1206 C1200 1.368 . S
C1206 C1205 1.523 . S
C1207 C1191 1.429 . S
C1207 C1203 1.429 . S
C1207 C1208 1.523 . S
C1208 C1192 1.368 . S
C1208 C1204 1.368 . S
C1208 C1207 1.523 . S
H1209 C1184 0.950 . S
H1210 C1186 0.950 . S
H1211 C1187 0.949 . S
H1212 C1189 0.950 . S
H1213 C1191 0.950 . S
C1214 C1215 1.349 . S
C1214 C1216 1.327 . S
C1214 H1239 0.950 . S
C1215 C1214 1.349 . S
C1215 C1231 1.349 . S
C1216 C1214 1.327 . S
C1216 C1235 1.429 . S
C1216 H1240 0.950 . S
C1217 C1234 1.574 . S
C1217 C1236 1.368 . S
C1217 H1241 0.949 . S
H1218 C1222 0.949 . S
C1219 C1220 1.349 . S
C1219 C1221 1.327 . S
C1219 H1242 0.950 . S
C1220 C1219 1.349 . S
C1220 C1232 1.349 . S
C1221 C1219 1.327 . S
C1221 C1237 1.429 . S
C1221 H1243 0.950 . S
C1222 H1218 0.949 . S
C1222 C1230 1.574 . S
C1222 C1238 1.368 . S
H1223 C1231 0.950 . S
H1224 C1229 0.950 . S
H1225 C1230 0.949 . S
H1226 C1232 0.950 . S
H1227 C1233 0.950 . S
H1228 C1234 0.949 . S
C1229 H1224 0.950 . S
C1229 C1231 1.327 . S
C1229 C1235 1.429 . S
C1230 C1222 1.574 . S
C1230 H1225 0.949 . S
C1230 C1236 1.368 . S
C1231 C1215 1.349 . S
C1231 H1223 0.950 . S
C1231 C1229 1.327 . S
C1232 C1220 1.349 . S
C1232 H1226 0.950 . S
C1232 C1233 1.327 . S
C1233 H1227 0.950 . S
C1233 C1232 1.327 . S
C1233 C1237 1.429 . S
C1234 C1217 1.574 . S
C1234 H1228 0.949 . S
C1234 C1238 1.368 . S
C1235 C1216 1.429 . S
C1235 C1229 1.429 . S
C1235 C1236 1.523 . S
C1236 C1217 1.368 . S
C1236 C1230 1.368 . S
C1236 C1235 1.523 . S
C1237 C1221 1.429 . S
C1237 C1233 1.429 . S
C1237 C1238 1.523 . S
C1238 C1222 1.368 . S
C1238 C1234 1.368 . S
C1238 C1237 1.523 . S
H1239 C1214 0.950 . S
H1240 C1216 0.950 . S
H1241 C1217 0.949 . S
H1242 C1219 0.950 . S
H1243 C1221 0.950 . S
C1244 C1245 1.349 . S
C1244 C1246 1.327 . S
C1244 H1269 0.950 . S
C1245 C1244 1.349 . S
C1245 C1261 1.349 . S
C1246 C1244 1.327 . S
C1246 C1265 1.429 . S
C1246 H1270 0.950 . S
C1247 C1264 1.574 . S
C1247 C1266 1.368 . S
C1247 H1271 0.949 . S
H1248 C1252 0.949 . S
C1249 C1250 1.349 . S
C1249 C1251 1.327 . S
C1249 H1272 0.950 . S
C1250 C1249 1.349 . S
C1250 C1262 1.349 . S
C1251 C1249 1.327 . S
C1251 C1267 1.429 . S
C1251 H1273 0.950 . S
C1252 H1248 0.949 . S
C1252 C1260 1.574 . S
C1252 C1268 1.368 . S
H1253 C1261 0.950 . S
H1254 C1259 0.950 . S
H1255 C1260 0.949 . S
H1256 C1262 0.950 . S
H1257 C1263 0.950 . S
H1258 C1264 0.949 . S
C1259 H1254 0.950 . S
C1259 C1261 1.327 . S
C1259 C1265 1.429 . S
C1260 C1252 1.574 . S
C1260 H1255 0.949 . S
C1260 C1266 1.368 . S
C1261 C1245 1.349 . S
C1261 H1253 0.950 . S
C1261 C1259 1.327 . S
C1262 C1250 1.349 . S
C1262 H1256 0.950 . S
C1262 C1263 1.327 . S
C1263 H1257 0.950 . S
C1263 C1262 1.327 . S
C1263 C1267 1.429 . S
C1264 C1247 1.574 . S
C1264 H1258 0.949 . S
C1264 C1268 1.368 . S
C1265 C1246 1.429 . S
C1265 C1259 1.429 . S
C1265 C1266 1.523 . S
C1266 C1247 1.368 . S
C1266 C1260 1.368 . S
C1266 C1265 1.523 . S
C1267 C1251 1.429 . S
C1267 C1263 1.429 . S
C1267 C1268 1.523 . S
C1268 C1252 1.368 . S
C1268 C1264 1.368 . S
C1268 C1267 1.523 . S
H1269 C1244 0.950 . S
H1270 C1246 0.950 . S
H1271 C1247 0.949 . S
H1272 C1249 0.950 . S
H1273 C1251 0.950 . S
C1274 C1275 1.349 . S
C1274 C1276 1.327 . S
C1274 H1299 0.950 . S
C1275 C1274 1.349 . S
C1275 C1291 1.349 . S
C1276 C1274 1.327 . S
C1276 C1295 1.429 . S
C1276 H1300 0.950 . S
C1277 C1294 1.574 . S
C1277 C1296 1.368 . S
C1277 H1301 0.949 . S
H1278 C1282 0.949 . S
C1279 C1280 1.349 . S
C1279 C1281 1.327 . S
C1279 H1302 0.950 . S
C1280 C1279 1.349 . S
C1280 C1292 1.349 . S
C1281 C1279 1.327 . S
C1281 C1297 1.429 . S
C1281 H1303 0.950 . S
C1282 H1278 0.949 . S
C1282 C1290 1.574 . S
C1282 C1298 1.368 . S
H1283 C1291 0.950 . S
H1284 C1289 0.950 . S
H1285 C1290 0.949 . S
H1286 C1292 0.950 . S
H1287 C1293 0.950 . S
H1288 C1294 0.949 . S
C1289 H1284 0.950 . S
C1289 C1291 1.327 . S
C1289 C1295 1.429 . S
C1290 C1282 1.574 . S
C1290 H1285 0.949 . S
C1290 C1296 1.368 . S
C1291 C1275 1.349 . S
C1291 H1283 0.950 . S
C1291 C1289 1.327 . S
C1292 C1280 1.349 . S
C1292 H1286 0.950 . S
C1292 C1293 1.327 . S
C1293 H1287 0.950 . S
C1293 C1292 1.327 . S
C1293 C1297 1.429 . S
C1294 C1277 1.574 . S
C1294 H1288 0.949 . S
C1294 C1298 1.368 . S
C1295 C1276 1.429 . S
C1295 C1289 1.429 . S
C1295 C1296 1.523 . S
C1296 C1277 1.368 . S
C1296 C1290 1.368 . S
C1296 C1295 1.523 . S
C1297 C1281 1.429 . S
C1297 C1293 1.429 . S
C1297 C1298 1.523 . S
C1298 C1282 1.368 . S
C1298 C1294 1.368 . S
C1298 C1297 1.523 . S
H1299 C1274 0.950 . S
H1300 C1276 0.950 . S
H1301 C1277 0.949 . S
H1302 C1279 0.950 . S
H1303 C1281 0.950 . S
C1304 C1305 1.349 . S
C1304 C1306 1.327 . S
C1304 H1329 0.950 . S
C1305 C1304 1.349 . S
C1305 C1321 1.349 . S
C1306 C1304 1.327 . S
C1306 C1325 1.429 . S
C1306 H1330 0.950 . S
C1307 C1324 1.574 . S
C1307 C1326 1.368 . S
C1307 H1331 0.949 . S
H1308 C1312 0.949 . S
C1309 C1310 1.349 . S
C1309 C1311 1.327 . S
C1309 H1332 0.950 . S
C1310 C1309 1.349 . S
C1310 C1322 1.349 . S
C1311 C1309 1.327 . S
C1311 C1327 1.429 . S
C1311 H1333 0.950 . S
C1312 H1308 0.949 . S
C1312 C1320 1.574 . S
C1312 C1328 1.368 . S
H1313 C1321 0.950 . S
H1314 C1319 0.950 . S
H1315 C1320 0.949 . S
H1316 C1322 0.950 . S
H1317 C1323 0.950 . S
H1318 C1324 0.949 . S
C1319 H1314 0.950 . S
C1319 C1321 1.327 . S
C1319 C1325 1.429 . S
C1320 C1312 1.574 . S
C1320 H1315 0.949 . S
C1320 C1326 1.368 . S
C1321 C1305 1.349 . S
C1321 H1313 0.950 . S
C1321 C1319 1.327 . S
C1322 C1310 1.349 . S
C1322 H1316 0.950 . S
C1322 C1323 1.327 . S
C1323 H1317 0.950 . S
C1323 C1322 1.327 . S
C1323 C1327 1.429 . S
C1324 C1307 1.574 . S
C1324 H1318 0.949 . S
C1324 C1328 1.368 . S
C1325 C1306 1.429 . S
C1325 C1319 1.429 . S
C1325 C1326 1.523 . S
C1326 C1307 1.368 . S
C1326 C1320 1.368 . S
C1326 C1325 1.523 . S
C1327 C1311 1.429 . S
C1327 C1323 1.429 . S
C1327 C1328 1.523 . S
C1328 C1312 1.368 . S
C1328 C1324 1.368 . S
C1328 C1327 1.523 . S
H1329 C1304 0.950 . S
H1330 C1306 0.950 . S
H1331 C1307 0.949 . S
H1332 C1309 0.950 . S
H1333 C1311 0.950 . S
C1334 C1335 1.349 . S
C1334 C1336 1.327 . S
C1334 H1359 0.950 . S
C1335 C1334 1.349 . S
C1335 C1351 1.349 . S
C1336 C1334 1.327 . S
C1336 C1355 1.429 . S
C1336 H1360 0.950 . S
C1337 C1354 1.574 . S
C1337 C1356 1.368 . S
C1337 H1361 0.949 . S
H1338 C1342 0.949 . S
C1339 C1340 1.349 . S
C1339 C1341 1.327 . S
C1339 H1362 0.950 . S
C1340 C1339 1.349 . S
C1340 C1352 1.349 . S
C1341 C1339 1.327 . S
C1341 C1357 1.429 . S
C1341 H1363 0.950 . S
C1342 H1338 0.949 . S
C1342 C1350 1.574 . S
C1342 C1358 1.368 . S
H1343 C1351 0.950 . S
H1344 C1349 0.950 . S
H1345 C1350 0.949 . S
H1346 C1352 0.950 . S
H1347 C1353 0.950 . S
H1348 C1354 0.949 . S
C1349 H1344 0.950 . S
C1349 C1351 1.327 . S
C1349 C1355 1.429 . S
C1350 C1342 1.574 . S
C1350 H1345 0.949 . S
C1350 C1356 1.368 . S
C1351 C1335 1.349 . S
C1351 H1343 0.950 . S
C1351 C1349 1.327 . S
C1352 C1340 1.349 . S
C1352 H1346 0.950 . S
C1352 C1353 1.327 . S
C1353 H1347 0.950 . S
C1353 C1352 1.327 . S
C1353 C1357 1.429 . S
C1354 C1337 1.574 . S
C1354 H1348 0.949 . S
C1354 C1358 1.368 . S
C1355 C1336 1.429 . S
C1355 C1349 1.429 . S
C1355 C1356 1.523 . S
C1356 C1337 1.368 . S
C1356 C1350 1.368 . S
C1356 C1355 1.523 . S
C1357 C1341 1.429 . S
C1357 C1353 1.429 . S
C1357 C1358 1.523 . S
C1358 C1342 1.368 . S
C1358 C1354 1.368 . S
C1358 C1357 1.523 . S
H1359 C1334 0.950 . S
H1360 C1336 0.950 . S
H1361 C1337 0.949 . S
H1362 C1339 0.950 . S
H1363 C1341 0.950 . S
C1364 C1365 1.349 . S
C1364 C1366 1.327 . S
C1364 H1389 0.950 . S
C1365 C1364 1.349 . S
C1365 C1381 1.349 . S
C1366 C1364 1.327 . S
C1366 C1385 1.429 . S
C1366 H1390 0.950 . S
C1367 C1384 1.574 . S
C1367 C1386 1.368 . S
C1367 H1391 0.949 . S
H1368 C1372 0.949 . S
C1369 C1370 1.349 . S
C1369 C1371 1.327 . S
C1369 H1392 0.950 . S
C1370 C1369 1.349 . S
C1370 C1382 1.349 . S
C1371 C1369 1.327 . S
C1371 C1387 1.429 . S
C1371 H1393 0.950 . S
C1372 H1368 0.949 . S
C1372 C1380 1.574 . S
C1372 C1388 1.368 . S
H1373 C1381 0.950 . S
H1374 C1379 0.950 . S
H1375 C1380 0.949 . S
H1376 C1382 0.950 . S
H1377 C1383 0.950 . S
H1378 C1384 0.949 . S
C1379 H1374 0.950 . S
C1379 C1381 1.327 . S
C1379 C1385 1.429 . S
C1380 C1372 1.574 . S
C1380 H1375 0.949 . S
C1380 C1386 1.368 . S
C1381 C1365 1.349 . S
C1381 H1373 0.950 . S
C1381 C1379 1.327 . S
C1382 C1370 1.349 . S
C1382 H1376 0.950 . S
C1382 C1383 1.327 . S
C1383 H1377 0.950 . S
C1383 C1382 1.327 . S
C1383 C1387 1.429 . S
C1384 C1367 1.574 . S
C1384 H1378 0.949 . S
C1384 C1388 1.368 . S
C1385 C1366 1.429 . S
C1385 C1379 1.429 . S
C1385 C1386 1.523 . S
C1386 C1367 1.368 . S
C1386 C1380 1.368 . S
C1386 C1385 1.523 . S
C1387 C1371 1.429 . S
C1387 C1383 1.429 . S
C1387 C1388 1.523 . S
C1388 C1372 1.368 . S
C1388 C1384 1.368 . S
C1388 C1387 1.523 . S
H1389 C1364 0.950 . S
H1390 C1366 0.950 . S
H1391 C1367 0.949 . S
H1392 C1369 0.950 . S
H1393 C1371 0.950 . S
C1394 C1395 1.349 . S
C1394 C1396 1.327 . S
C1394 H1419 0.950 . S
C1395 C1394 1.349 . S
C1395 C1411 1.349 . S
C1396 C1394 1.327 . S
C1396 C1415 1.429 . S
C1396 H1420 0.950 . S
C1397 C1414 1.574 . S
C1397 C1416 1.368 . S
C1397 H1421 0.949 . S
H1398 C1402 0.949 . S
C1399 C1400 1.349 . S
C1399 C1401 1.327 . S
C1399 H1422 0.950 . S
C1400 C1399 1.349 . S
C1400 C1412 1.349 . S
C1401 C1399 1.327 . S
C1401 C1417 1.429 . S
C1401 H1423 0.950 . S
C1402 H1398 0.949 . S
C1402 C1410 1.574 . S
C1402 C1418 1.368 . S
H1403 C1411 0.950 . S
H1404 C1409 0.950 . S
H1405 C1410 0.949 . S
H1406 C1412 0.950 . S
H1407 C1413 0.950 . S
H1408 C1414 0.949 . S
C1409 H1404 0.950 . S
C1409 C1411 1.327 . S
C1409 C1415 1.429 . S
C1410 C1402 1.574 . S
C1410 H1405 0.949 . S
C1410 C1416 1.368 . S
C1411 C1395 1.349 . S
C1411 H1403 0.950 . S
C1411 C1409 1.327 . S
C1412 C1400 1.349 . S
C1412 H1406 0.950 . S
C1412 C1413 1.327 . S
C1413 H1407 0.950 . S
C1413 C1412 1.327 . S
C1413 C1417 1.429 . S
C1414 C1397 1.574 . S
C1414 H1408 0.949 . S
C1414 C1418 1.368 . S
C1415 C1396 1.429 . S
C1415 C1409 1.429 . S
C1415 C1416 1.523 . S
C1416 C1397 1.368 . S
C1416 C1410 1.368 . S
C1416 C1415 1.523 . S
C1417 C1401 1.429 . S
C1417 C1413 1.429 . S
C1417 C1418 1.523 . S
C1418 C1402 1.368 . S
C1418 C1414 1.368 . S
C1418 C1417 1.523 . S
H1419 C1394 0.950 . S
H1420 C1396 0.950 . S
H1421 C1397 0.949 . S
H1422 C1399 0.950 . S
H1423 C1401 0.950 . S
C1424 C1425 1.349 . S
C1424 C1426 1.327 . S
C1424 H1449 0.950 . S
C1425 C1424 1.349 . S
C1425 C1441 1.349 . S
C1426 C1424 1.327 . S
C1426 C1445 1.429 . S
C1426 H1450 0.950 . S
C1427 C1444 1.574 . S
C1427 C1446 1.368 . S
C1427 H1451 0.949 . S
H1428 C1432 0.949 . S
C1429 C1430 1.349 . S
C1429 C1431 1.327 . S
C1429 H1452 0.950 . S
C1430 C1429 1.349 . S
C1430 C1442 1.349 . S
C1431 C1429 1.327 . S
C1431 C1447 1.429 . S
C1431 H1453 0.950 . S
C1432 H1428 0.949 . S
C1432 C1440 1.574 . S
C1432 C1448 1.368 . S
H1433 C1441 0.950 . S
H1434 C1439 0.950 . S
H1435 C1440 0.949 . S
H1436 C1442 0.950 . S
H1437 C1443 0.950 . S
H1438 C1444 0.949 . S
C1439 H1434 0.950 . S
C1439 C1441 1.327 . S
C1439 C1445 1.429 . S
C1440 C1432 1.574 . S
C1440 H1435 0.949 . S
C1440 C1446 1.368 . S
C1441 C1425 1.349 . S
C1441 H1433 0.950 . S
C1441 C1439 1.327 . S
C1442 C1430 1.349 . S
C1442 H1436 0.950 . S
C1442 C1443 1.327 . S
C1443 H1437 0.950 . S
C1443 C1442 1.327 . S
C1443 C1447 1.429 . S
C1444 C1427 1.574 . S
C1444 H1438 0.949 . S
C1444 C1448 1.368 . S
C1445 C1426 1.429 . S
C1445 C1439 1.429 . S
C1445 C1446 1.523 . S
C1446 C1427 1.368 . S
C1446 C1440 1.368 . S
C1446 C1445 1.523 . S
C1447 C1431 1.429 . S
C1447 C1443 1.429 . S
C1447 C1448 1.523 . S
C1448 C1432 1.368 . S
C1448 C1444 1.368 . S
C1448 C1447 1.523 . S
H1449 C1424 0.950 . S
H1450 C1426 0.950 . S
H1451 C1427 0.949 . S
H1452 C1429 0.950 . S
H1453 C1431 0.950 . S
C1454 C1455 1.349 . S
C1454 C1456 1.327 . S
C1454 H1479 0.950 . S
C1455 C1454 1.349 . S
C1455 C1471 1.349 . S
C1456 C1454 1.327 . S
C1456 C1475 1.429 . S
C1456 H1480 0.950 . S
C1457 C1474 1.574 . S
C1457 C1476 1.368 . S
C1457 H1481 0.949 . S
H1458 C1462 0.949 . S
C1459 C1460 1.349 . S
C1459 C1461 1.327 . S
C1459 H1482 0.950 . S
C1460 C1459 1.349 . S
C1460 C1472 1.349 . S
C1461 C1459 1.327 . S
C1461 C1477 1.429 . S
C1461 H1483 0.950 . S
C1462 H1458 0.949 . S
C1462 C1470 1.574 . S
C1462 C1478 1.368 . S
H1463 C1471 0.950 . S
H1464 C1469 0.950 . S
H1465 C1470 0.949 . S
H1466 C1472 0.950 . S
H1467 C1473 0.950 . S
H1468 C1474 0.949 . S
C1469 H1464 0.950 . S
C1469 C1471 1.327 . S
C1469 C1475 1.429 . S
C1470 C1462 1.574 . S
C1470 H1465 0.949 . S
C1470 C1476 1.368 . S
C1471 C1455 1.349 . S
C1471 H1463 0.950 . S
C1471 C1469 1.327 . S
C1472 C1460 1.349 . S
C1472 H1466 0.950 . S
C1472 C1473 1.327 . S
C1473 H1467 0.950 . S
C1473 C1472 1.327 . S
C1473 C1477 1.429 . S
C1474 C1457 1.574 . S
C1474 H1468 0.949 . S
C1474 C1478 1.368 . S
C1475 C1456 1.429 . S
C1475 C1469 1.429 . S
C1475 C1476 1.523 . S
C1476 C1457 1.368 . S
C1476 C1470 1.368 . S
C1476 C1475 1.523 . S
C1477 C1461 1.429 . S
C1477 C1473 1.429 . S
C1477 C1478 1.523 . S
C1478 C1462 1.368 . S
C1478 C1474 1.368 . S
C1478 C1477 1.523 . S
H1479 C1454 0.950 . S
H1480 C1456 0.950 . S
H1481 C1457 0.949 . S
H1482 C1459 0.950 . S
H1483 C1461 0.950 . S
C1484 C1485 1.349 . S
C1484 C1486 1.327 . S
C1484 H1509 0.950 . S
C1485 C1484 1.349 . S
C1485 C1501 1.349 . S
C1486 C1484 1.327 . S
C1486 C1505 1.429 . S
C1486 H1510 0.950 . S
C1487 C1504 1.574 . S
C1487 C1506 1.368 . S
C1487 H1511 0.949 . S
H1488 C1492 0.949 . S
C1489 C1490 1.349 . S
C1489 C1491 1.327 . S
C1489 H1512 0.950 . S
C1490 C1489 1.349 . S
C1490 C1502 1.349 . S
C1491 C1489 1.327 . S
C1491 C1507 1.429 . S
C1491 H1513 0.950 . S
C1492 H1488 0.949 . S
C1492 C1500 1.574 . S
C1492 C1508 1.368 . S
H1493 C1501 0.950 . S
H1494 C1499 0.950 . S
H1495 C1500 0.949 . S
H1496 C1502 0.950 . S
H1497 C1503 0.950 . S
H1498 C1504 0.949 . S
C1499 H1494 0.950 . S
C1499 C1501 1.327 . S
C1499 C1505 1.429 . S
C1500 C1492 1.574 . S
C1500 H1495 0.949 . S
C1500 C1506 1.368 . S
C1501 C1485 1.349 . S
C1501 H1493 0.950 . S
C1501 C1499 1.327 . S
C1502 C1490 1.349 . S
C1502 H1496 0.950 . S
C1502 C1503 1.327 . S
C1503 H1497 0.950 . S
C1503 C1502 1.327 . S
C1503 C1507 1.429 . S
C1504 C1487 1.574 . S
C1504 H1498 0.949 . S
C1504 C1508 1.368 . S
C1505 C1486 1.429 . S
C1505 C1499 1.429 . S
C1505 C1506 1.523 . S
C1506 C1487 1.368 . S
C1506 C1500 1.368 . S
C1506 C1505 1.523 . S
C1507 C1491 1.429 . S
C1507 C1503 1.429 . S
C1507 C1508 1.523 . S
C1508 C1492 1.368 . S
C1508 C1504 1.368 . S
C1508 C1507 1.523 . S
H1509 C1484 0.950 . S
H1510 C1486 0.950 . S
H1511 C1487 0.949 . S
H1512 C1489 0.950 . S
H1513 C1491 0.950 . S
C1514 C1515 1.349 . S
C1514 C1516 1.327 . S
C1514 H1539 0.950 . S
C1515 C1514 1.349 . S
C1515 C1531 1.349 . S
C1516 C1514 1.327 . S
C1516 C1535 1.429 . S
C1516 H1540 0.950 . S
C1517 C1534 1.574 . S
C1517 C1536 1.368 . S
C1517 H1541 0.949 . S
H1518 C1522 0.949 . S
C1519 C1520 1.349 . S
C1519 C1521 1.327 . S
C1519 H1542 0.950 . S
C1520 C1519 1.349 . S
C1520 C1532 1.349 . S
C1521 C1519 1.327 . S
C1521 C1537 1.429 . S
C1521 H1543 0.950 . S
C1522 H1518 0.949 . S
C1522 C1530 1.574 . S
C1522 C1538 1.368 . S
H1523 C1531 0.950 . S
H1524 C1529 0.950 . S
H1525 C1530 0.949 . S
H1526 C1532 0.950 . S
H1527 C1533 0.950 . S
H1528 C1534 0.949 . S
C1529 H1524 0.950 . S
C1529 C1531 1.327 . S
C1529 C1535 1.429 . S
C1530 C1522 1.574 . S
C1530 H1525 0.949 . S
C1530 C1536 1.368 . S
C1531 C1515 1.349 . S
C1531 H1523 0.950 . S
C1531 C1529 1.327 . S
C1532 C1520 1.349 . S
C1532 H1526 0.950 . S
C1532 C1533 1.327 . S
C1533 H1527 0.950 . S
C1533 C1532 1.327 . S
C1533 C1537 1.429 . S
C1534 C1517 1.574 . S
C1534 H1528 0.949 . S
C1534 C1538 1.368 . S
C1535 C1516 1.429 . S
C1535 C1529 1.429 . S
C1535 C1536 1.523 . S
C1536 C1517 1.368 . S
C1536 C1530 1.368 . S
C1536 C1535 1.523 . S
C1537 C1521 1.429 . S
C1537 C1533 1.429 . S
C1537 C1538 1.523 . S
C1538 C1522 1.368 . S
C1538 C1534 1.368 . S
C1538 C1537 1.523 . S
H1539 C1514 0.950 . S
H1540 C1516 0.950 . S
H1541 C1517 0.949 . S
H1542 C1519 0.950 . S
H1543 C1521 0.950 . S
C1544 C1545 1.349 . S
C1544 C1546 1.327 . S
C1544 H1569 0.950 . S
C1545 C1544 1.349 . S
C1545 C1561 1.349 . S
C1546 C1544 1.327 . S
C1546 C1565 1.429 . S
C1546 H1570 0.950 . S
C1547 C1564 1.574 . S
C1547 C1566 1.368 . S
C1547 H1571 0.949 . S
H1548 C1552 0.949 . S
C1549 C1550 1.349 . S
C1549 C1551 1.327 . S
C1549 H1572 0.950 . S
C1550 C1549 1.349 . S
C1550 C1562 1.349 . S
C1551 C1549 1.327 . S
C1551 C1567 1.429 . S
C1551 H1573 0.950 . S
C1552 H1548 0.949 . S
C1552 C1560 1.574 . S
C1552 C1568 1.368 . S
H1553 C1561 0.950 . S
H1554 C1559 0.950 . S
H1555 C1560 0.949 . S
H1556 C1562 0.950 . S
H1557 C1563 0.950 . S
H1558 C1564 0.949 . S
C1559 H1554 0.950 . S
C1559 C1561 1.327 . S
C1559 C1565 1.429 . S
C1560 C1552 1.574 . S
C1560 H1555 0.949 . S
C1560 C1566 1.368 . S
C1561 C1545 1.349 . S
C1561 H1553 0.950 . S
C1561 C1559 1.327 . S
C1562 C1550 1.349 . S
C1562 H1556 0.950 . S
C1562 C1563 1.327 . S
C1563 H1557 0.950 . S
C1563 C1562 1.327 . S
C1563 C1567 1.429 . S
C1564 C1547 1.574 . S
C1564 H1558 0.949 . S
C1564 C1568 1.368 . S
C1565 C1546 1.429 . S
C1565 C1559 1.429 . S
C1565 C1566 1.523 . S
C1566 C1547 1.368 . S
C1566 C1560 1.368 . S
C1566 C1565 1.523 . S
C1567 C1551 1.429 . S
C1567 C1563 1.429 . S
C1567 C1568 1.523 . S
C1568 C1552 1.368 . S
C1568 C1564 1.368 . S
C1568 C1567 1.523 . S
H1569 C1544 0.950 . S
H1570 C1546 0.950 . S
H1571 C1547 0.949 . S
H1572 C1549 0.950 . S
H1573 C1551 0.950 . S
C1574 C1575 1.349 . S
C1574 C1576 1.327 . S
C1574 H1599 0.950 . S
C1575 C1574 1.349 . S
C1575 C1591 1.349 . S
C1576 C1574 1.327 . S
C1576 C1595 1.429 . S
C1576 H1600 0.950 . S
C1577 C1594 1.574 . S
C1577 C1596 1.368 . S
C1577 H1601 0.949 . S
H1578 C1582 0.949 . S
C1579 C1580 1.349 . S
C1579 C1581 1.327 . S
C1579 H1602 0.950 . S
C1580 C1579 1.349 . S
C1580 C1592 1.349 . S
C1581 C1579 1.327 . S
C1581 C1597 1.429 . S
C1581 H1603 0.950 . S
C1582 H1578 0.949 . S
C1582 C1590 1.574 . S
C1582 C1598 1.368 . S
H1583 C1591 0.950 . S
H1584 C1589 0.950 . S
H1585 C1590 0.949 . S
H1586 C1592 0.950 . S
H1587 C1593 0.950 . S
H1588 C1594 0.949 . S
C1589 H1584 0.950 . S
C1589 C1591 1.327 . S
C1589 C1595 1.429 . S
C1590 C1582 1.574 . S
C1590 H1585 0.949 . S
C1590 C1596 1.368 . S
C1591 C1575 1.349 . S
C1591 H1583 0.950 . S
C1591 C1589 1.327 . S
C1592 C1580 1.349 . S
C1592 H1586 0.950 . S
C1592 C1593 1.327 . S
C1593 H1587 0.950 . S
C1593 C1592 1.327 . S
C1593 C1597 1.429 . S
C1594 C1577 1.574 . S
C1594 H1588 0.949 . S
C1594 C1598 1.368 . S
C1595 C1576 1.429 . S
C1595 C1589 1.429 . S
C1595 C1596 1.523 . S
C1596 C1577 1.368 . S
C1596 C1590 1.368 . S
C1596 C1595 1.523 . S
C1597 C1581 1.429 . S
C1597 C1593 1.429 . S
C1597 C1598 1.523 . S
C1598 C1582 1.368 . S
C1598 C1594 1.368 . S
C1598 C1597 1.523 . S
H1599 C1574 0.950 . S
H1600 C1576 0.950 . S
H1601 C1577 0.949 . S
H1602 C1579 0.950 . S
H1603 C1581 0.950 . S
C1604 C1605 1.349 . S
C1604 C1606 1.327 . S
C1604 H1629 0.950 . S
C1605 C1604 1.349 . S
C1605 C1621 1.349 . S
C1606 C1604 1.327 . S
C1606 C1625 1.429 . S
C1606 H1630 0.950 . S
C1607 C1624 1.574 . S
C1607 C1626 1.368 . S
C1607 H1631 0.949 . S
H1608 C1612 0.949 . S
C1609 C1610 1.349 . S
C1609 C1611 1.327 . S
C1609 H1632 0.950 . S
C1610 C1609 1.349 . S
C1610 C1622 1.349 . S
C1611 C1609 1.327 . S
C1611 C1627 1.429 . S
C1611 H1633 0.950 . S
C1612 H1608 0.949 . S
C1612 C1620 1.574 . S
C1612 C1628 1.368 . S
H1613 C1621 0.950 . S
H1614 C1619 0.950 . S
H1615 C1620 0.949 . S
H1616 C1622 0.950 . S
H1617 C1623 0.950 . S
H1618 C1624 0.949 . S
C1619 H1614 0.950 . S
C1619 C1621 1.327 . S
C1619 C1625 1.429 . S
C1620 C1612 1.574 . S
C1620 H1615 0.949 . S
C1620 C1626 1.368 . S
C1621 C1605 1.349 . S
C1621 H1613 0.950 . S
C1621 C1619 1.327 . S
C1622 C1610 1.349 . S
C1622 H1616 0.950 . S
C1622 C1623 1.327 . S
C1623 H1617 0.950 . S
C1623 C1622 1.327 . S
C1623 C1627 1.429 . S
C1624 C1607 1.574 . S
C1624 H1618 0.949 . S
C1624 C1628 1.368 . S
C1625 C1606 1.429 . S
C1625 C1619 1.429 . S
C1625 C1626 1.523 . S
C1626 C1607 1.368 . S
C1626 C1620 1.368 . S
C1626 C1625 1.523 . S
C1627 C1611 1.429 . S
C1627 C1623 1.429 . S
C1627 C1628 1.523 . S
C1628 C1612 1.368 . S
C1628 C1624 1.368 . S
C1628 C1627 1.523 . S
H1629 C1604 0.950 . S
H1630 C1606 0.950 . S
H1631 C1607 0.949 . S
H1632 C1609 0.950 . S
H1633 C1611 0.950 . S
C1634 C1635 1.349 . S
C1634 C1636 1.327 . S
C1634 H1659 0.950 . S
C1635 C1634 1.349 . S
C1635 C1651 1.349 . S
C1636 C1634 1.327 . S
C1636 C1655 1.429 . S
C1636 H1660 0.950 . S
C1637 C1654 1.574 . S
C1637 C1656 1.368 . S
C1637 H1661 0.949 . S
H1638 C1642 0.949 . S
C1639 C1640 1.349 . S
C1639 C1641 1.327 . S
C1639 H1662 0.950 . S
C1640 C1639 1.349 . S
C1640 C1652 1.349 . S
C1641 C1639 1.327 . S
C1641 C1657 1.429 . S
C1641 H1663 0.950 . S
C1642 H1638 0.949 . S
C1642 C1650 1.574 . S
C1642 C1658 1.368 . S
H1643 C1651 0.950 . S
H1644 C1649 0.950 . S
H1645 C1650 0.949 . S
H1646 C1652 0.950 . S
H1647 C1653 0.950 . S
H1648 C1654 0.949 . S
C1649 H1644 0.950 . S
C1649 C1651 1.327 . S
C1649 C1655 1.429 . S
C1650 C1642 1.574 . S
C1650 H1645 0.949 . S
C1650 C1656 1.368 . S
C1651 C1635 1.349 . S
C1651 H1643 0.950 . S
C1651 C1649 1.327 . S
C1652 C1640 1.349 . S
C1652 H1646 0.950 . S
C1652 C1653 1.327 . S
C1653 H1647 0.950 . S
C1653 C1652 1.327 . S
C1653 C1657 1.429 . S
C1654 C1637 1.574 . S
C1654 H1648 0.949 . S
C1654 C1658 1.368 . S
C1655 C1636 1.429 . S
C1655 C1649 1.429 . S
C1655 C1656 1.523 . S
C1656 C1637 1.368 . S
C1656 C1650 1.368 . S
C1656 C1655 1.523 . S
C1657 C1641 1.429 . S
C1657 C1653 1.429 . S
C1657 C1658 1.523 . S
C1658 C1642 1.368 . S
C1658 C1654 1.368 . S
C1658 C1657 1.523 . S
H1659 C1634 0.950 . S
H1660 C1636 0.950 . S
H1661 C1637 0.949 . S
H1662 C1639 0.950 . S
H1663 C1641 0.950 . S
C1664 C1665 1.349 . S
C1664 C1666 1.327 . S
C1664 H1689 0.950 . S
C1665 C1664 1.349 . S
C1665 C1681 1.349 . S
C1666 C1664 1.327 . S
C1666 C1685 1.429 . S
C1666 H1690 0.950 . S
C1667 C1684 1.574 . S
C1667 C1686 1.368 . S
C1667 H1691 0.949 . S
H1668 C1672 0.949 . S
C1669 C1670 1.349 . S
C1669 C1671 1.327 . S
C1669 H1692 0.950 . S
C1670 C1669 1.349 . S
C1670 C1682 1.349 . S
C1671 C1669 1.327 . S
C1671 C1687 1.429 . S
C1671 H1693 0.950 . S
C1672 H1668 0.949 . S
C1672 C1680 1.574 . S
C1672 C1688 1.368 . S
H1673 C1681 0.950 . S
H1674 C1679 0.950 . S
H1675 C1680 0.949 . S
H1676 C1682 0.950 . S
H1677 C1683 0.950 . S
H1678 C1684 0.949 . S
C1679 H1674 0.950 . S
C1679 C1681 1.327 . S
C1679 C1685 1.429 . S
C1680 C1672 1.574 . S
C1680 H1675 0.949 . S
C1680 C1686 1.368 . S
C1681 C1665 1.349 . S
C1681 H1673 0.950 . S
C1681 C1679 1.327 . S
C1682 C1670 1.349 . S
C1682 H1676 0.950 . S
C1682 C1683 1.327 . S
C1683 H1677 0.950 . S
C1683 C1682 1.327 . S
C1683 C1687 1.429 . S
C1684 C1667 1.574 . S
C1684 H1678 0.949 . S
C1684 C1688 1.368 . S
C1685 C1666 1.429 . S
C1685 C1679 1.429 . S
C1685 C1686 1.523 . S
C1686 C1667 1.368 . S
C1686 C1680 1.368 . S
C1686 C1685 1.523 . S
C1687 C1671 1.429 . S
C1687 C1683 1.429 . S
C1687 C1688 1.523 . S
C1688 C1672 1.368 . S
C1688 C1684 1.368 . S
C1688 C1687 1.523 . S
H1689 C1664 0.950 . S
H1690 C1666 0.950 . S
H1691 C1667 0.949 . S
H1692 C1669 0.950 . S
H1693 C1671 0.950 . S
C1694 C1695 1.349 . S
C1694 C1696 1.327 . S
C1694 H1719 0.950 . S
C1695 C1694 1.349 . S
C1695 C1711 1.349 . S
C1696 C1694 1.327 . S
C1696 C1715 1.429 . S
C1696 H1720 0.950 . S
C1697 C1714 1.574 . S
C1697 C1716 1.368 . S
C1697 H1721 0.949 . S
H1698 C1702 0.949 . S
C1699 C1700 1.349 . S
C1699 C1701 1.327 . S
C1699 H1722 0.950 . S
C1700 C1699 1.349 . S
C1700 C1712 1.349 . S
C1701 C1699 1.327 . S
C1701 C1717 1.429 . S
C1701 H1723 0.950 . S
C1702 H1698 0.949 . S
C1702 C1710 1.574 . S
C1702 C1718 1.368 . S
H1703 C1711 0.950 . S
H1704 C1709 0.950 . S
H1705 C1710 0.949 . S
H1706 C1712 0.950 . S
H1707 C1713 0.950 . S
H1708 C1714 0.949 . S
C1709 H1704 0.950 . S
C1709 C1711 1.327 . S
C1709 C1715 1.429 . S
C1710 C1702 1.574 . S
C1710 H1705 0.949 . S
C1710 C1716 1.368 . S
C1711 C1695 1.349 . S
C1711 H1703 0.950 . S
C1711 C1709 1.327 . S
C1712 C1700 1.349 . S
C1712 H1706 0.950 . S
C1712 C1713 1.327 . S
C1713 H1707 0.950 . S
C1713 C1712 1.327 . S
C1713 C1717 1.429 . S
C1714 C1697 1.574 . S
C1714 H1708 0.949 . S
C1714 C1718 1.368 . S
C1715 C1696 1.429 . S
C1715 C1709 1.429 . S
C1715 C1716 1.523 . S
C1716 C1697 1.368 . S
C1716 C1710 1.368 . S
C1716 C1715 1.523 . S
C1717 C1701 1.429 . S
C1717 C1713 1.429 . S
C1717 C1718 1.523 . S
C1718 C1702 1.368 . S
C1718 C1714 1.368 . S
C1718 C1717 1.523 . S
H1719 C1694 0.950 . S
H1720 C1696 0.950 . S
H1721 C1697 0.949 . S
H1722 C1699 0.950 . S
H1723 C1701 0.950 . S
C1724 C1725 1.349 . S
C1724 C1726 1.327 . S
C1724 H1749 0.950 . S
C1725 C1724 1.349 . S
C1725 C1741 1.349 . S
C1726 C1724 1.327 . S
C1726 C1745 1.429 . S
C1726 H1750 0.950 . S
C1727 C1744 1.574 . S
C1727 C1746 1.368 . S
C1727 H1751 0.949 . S
H1728 C1732 0.949 . S
C1729 C1730 1.349 . S
C1729 C1731 1.327 . S
C1729 H1752 0.950 . S
C1730 C1729 1.349 . S
C1730 C1742 1.349 . S
C1731 C1729 1.327 . S
C1731 C1747 1.429 . S
C1731 H1753 0.950 . S
C1732 H1728 0.949 . S
C1732 C1740 1.574 . S
C1732 C1748 1.368 . S
H1733 C1741 0.950 . S
H1734 C1739 0.950 . S
H1735 C1740 0.949 . S
H1736 C1742 0.950 . S
H1737 C1743 0.950 . S
H1738 C1744 0.949 . S
C1739 H1734 0.950 . S
C1739 C1741 1.327 . S
C1739 C1745 1.429 . S
C1740 C1732 1.574 . S
C1740 H1735 0.949 . S
C1740 C1746 1.368 . S
C1741 C1725 1.349 . S
C1741 H1733 0.950 . S
C1741 C1739 1.327 . S
C1742 C1730 1.349 . S
C1742 H1736 0.950 . S
C1742 C1743 1.327 . S
C1743 H1737 0.950 . S
C1743 C1742 1.327 . S
C1743 C1747 1.429 . S
C1744 C1727 1.574 . S
C1744 H1738 0.949 . S
C1744 C1748 1.368 . S
C1745 C1726 1.429 . S
C1745 C1739 1.429 . S
C1745 C1746 1.523 . S
C1746 C1727 1.368 . S
C1746 C1740 1.368 . S
C1746 C1745 1.523 . S
C1747 C1731 1.429 . S
C1747 C1743 1.429 . S
C1747 C1748 1.523 . S
C1748 C1732 1.368 . S
C1748 C1744 1.368 . S
C1748 C1747 1.523 . S
H1749 C1724 0.950 . S
H1750 C1726 0.950 . S
H1751 C1727 0.949 . S
H1752 C1729 0.950 . S
H1753 C1731 0.950 . S
C1754 C1755 1.349 . S
C1754 C1756 1.327 . S
C1754 H1779 0.950 . S
C1755 C1754 1.349 . S
C1755 C1771 1.349 . S
C1756 C1754 1.327 . S
C1756 C1775 1.429 . S
C1756 H1780 0.950 . S
C1757 C1774 1.574 . S
C1757 C1776 1.368 . S
C1757 H1781 0.949 . S
H1758 C1762 0.949 . S
C1759 C1760 1.349 . S
C1759 C1761 1.327 . S
C1759 H1782 0.950 . S
C1760 C1759 1.349 . S
C1760 C1772 1.349 . S
C1761 C1759 1.327 . S
C1761 C1777 1.429 . S
C1761 H1783 0.950 . S
C1762 H1758 0.949 . S
C1762 C1770 1.574 . S
C1762 C1778 1.368 . S
H1763 C1771 0.950 . S
H1764 C1769 0.950 . S
H1765 C1770 0.949 . S
H1766 C1772 0.950 . S
H1767 C1773 0.950 . S
H1768 C1774 0.949 . S
C1769 H1764 0.950 . S
C1769 C1771 1.327 . S
C1769 C1775 1.429 . S
C1770 C1762 1.574 . S
C1770 H1765 0.949 . S
C1770 C1776 1.368 . S
C1771 C1755 1.349 . S
C1771 H1763 0.950 . S
C1771 C1769 1.327 . S
C1772 C1760 1.349 . S
C1772 H1766 0.950 . S
C1772 C1773 1.327 . S
C1773 H1767 0.950 . S
C1773 C1772 1.327 . S
C1773 C1777 1.429 . S
C1774 C1757 1.574 . S
C1774 H1768 0.949 . S
C1774 C1778 1.368 . S
C1775 C1756 1.429 . S
C1775 C1769 1.429 . S
C1775 C1776 1.523 . S
C1776 C1757 1.368 . S
C1776 C1770 1.368 . S
C1776 C1775 1.523 . S
C1777 C1761 1.429 . S
C1777 C1773 1.429 . S
C1777 C1778 1.523 . S
C1778 C1762 1.368 . S
C1778 C1774 1.368 . S
C1778 C1777 1.523 . S
H1779 C1754 0.950 . S
H1780 C1756 0.950 . S
H1781 C1757 0.949 . S
H1782 C1759 0.950 . S
H1783 C1761 0.950 . S
C1784 C1785 1.349 . S
C1784 C1786 1.327 . S
C1784 H1809 0.950 . S
C1785 C1784 1.349 . S
C1785 C1801 1.349 . S
C1786 C1784 1.327 . S
C1786 C1805 1.429 . S
C1786 H1810 0.950 . S
C1787 C1804 1.574 . S
C1787 C1806 1.368 . S
C1787 H1811 0.949 . S
H1788 C1792 0.949 . S
C1789 C1790 1.349 . S
C1789 C1791 1.327 . S
C1789 H1812 0.950 . S
C1790 C1789 1.349 . S
C1790 C1802 1.349 . S
C1791 C1789 1.327 . S
C1791 C1807 1.429 . S
C1791 H1813 0.950 . S
C1792 H1788 0.949 . S
C1792 C1800 1.574 . S
C1792 C1808 1.368 . S
H1793 C1801 0.950 . S
H1794 C1799 0.950 . S
H1795 C1800 0.949 . S
H1796 C1802 0.950 . S
H1797 C1803 0.950 . S
H1798 C1804 0.949 . S
C1799 H1794 0.950 . S
C1799 C1801 1.327 . S
C1799 C1805 1.429 . S
C1800 C1792 1.574 . S
C1800 H1795 0.949 . S
C1800 C1806 1.368 . S
C1801 C1785 1.349 . S
C1801 H1793 0.950 . S
C1801 C1799 1.327 . S
C1802 C1790 1.349 . S
C1802 H1796 0.950 . S
C1802 C1803 1.327 . S
C1803 H1797 0.950 . S
C1803 C1802 1.327 . S
C1803 C1807 1.429 . S
C1804 C1787 1.574 . S
C1804 H1798 0.949 . S
C1804 C1808 1.368 . S
C1805 C1786 1.429 . S
C1805 C1799 1.429 . S
C1805 C1806 1.523 . S
C1806 C1787 1.368 . S
C1806 C1800 1.368 . S
C1806 C1805 1.523 . S
C1807 C1791 1.429 . S
C1807 C1803 1.429 . S
C1807 C1808 1.523 . S
C1808 C1792 1.368 . S
C1808 C1804 1.368 . S
C1808 C1807 1.523 . S
H1809 C1784 0.950 . S
H1810 C1786 0.950 . S
H1811 C1787 0.949 . S
H1812 C1789 0.950 . S
H1813 C1791 0.950 . S
C1814 C1815 1.349 . S
C1814 C1816 1.327 . S
C1814 H1839 0.950 . S
C1815 C1814 1.349 . S
C1815 C1831 1.349 . S
C1816 C1814 1.327 . S
C1816 C1835 1.429 . S
C1816 H1840 0.950 . S
C1817 C1834 1.574 . S
C1817 C1836 1.368 . S
C1817 H1841 0.949 . S
H1818 C1822 0.949 . S
C1819 C1820 1.349 . S
C1819 C1821 1.327 . S
C1819 H1842 0.950 . S
C1820 C1819 1.349 . S
C1820 C1832 1.349 . S
C1821 C1819 1.327 . S
C1821 C1837 1.429 . S
C1821 H1843 0.950 . S
C1822 H1818 0.949 . S
C1822 C1830 1.574 . S
C1822 C1838 1.368 . S
H1823 C1831 0.950 . S
H1824 C1829 0.950 . S
H1825 C1830 0.949 . S
H1826 C1832 0.950 . S
H1827 C1833 0.950 . S
H1828 C1834 0.949 . S
C1829 H1824 0.950 . S
C1829 C1831 1.327 . S
C1829 C1835 1.429 . S
C1830 C1822 1.574 . S
C1830 H1825 0.949 . S
C1830 C1836 1.368 . S
C1831 C1815 1.349 . S
C1831 H1823 0.950 . S
C1831 C1829 1.327 . S
C1832 C1820 1.349 . S
C1832 H1826 0.950 . S
C1832 C1833 1.327 . S
C1833 H1827 0.950 . S
C1833 C1832 1.327 . S
C1833 C1837 1.429 . S
C1834 C1817 1.574 . S
C1834 H1828 0.949 . S
C1834 C1838 1.368 . S
C1835 C1816 1.429 . S
C1835 C1829 1.429 . S
C1835 C1836 1.523 . S
C1836 C1817 1.368 . S
C1836 C1830 1.368 . S
C1836 C1835 1.523 . S
C1837 C1821 1.429 . S
C1837 C1833 1.429 . S
C1837 C1838 1.523 . S
C1838 C1822 1.368 . S
C1838 C1834 1.368 . S
C1838 C1837 1.523 . S
H1839 C1814 0.950 . S
H1840 C1816 0.950 . S
H1841 C1817 0.949 . S
H1842 C1819 0.950 . S
H1843 C1821 0.950 . S
C1844 C1845 1.349 . S
C1844 C1846 1.327 . S
C1844 H1869 0.950 . S
C1845 C1844 1.349 . S
C1845 C1861 1.349 . S
C1846 C1844 1.327 . S
C1846 C1865 1.429 . S
C1846 H1870 0.950 . S
C1847 C1864 1.574 . S
C1847 C1866 1.368 . S
C1847 H1871 0.949 . S
H1848 C1852 0.949 . S
C1849 C1850 1.349 . S
C1849 C1851 1.327 . S
C1849 H1872 0.950 . S
C1850 C1849 1.349 . S
C1850 C1862 1.349 . S
C1851 C1849 1.327 . S
C1851 C1867 1.429 . S
C1851 H1873 0.950 . S
C1852 H1848 0.949 . S
C1852 C1860 1.574 . S
C1852 C1868 1.368 . S
H1853 C1861 0.950 . S
H1854 C1859 0.950 . S
H1855 C1860 0.949 . S
H1856 C1862 0.950 . S
H1857 C1863 0.950 . S
H1858 C1864 0.949 . S
C1859 H1854 0.950 . S
C1859 C1861 1.327 . S
C1859 C1865 1.429 . S
C1860 C1852 1.574 . S
C1860 H1855 0.949 . S
C1860 C1866 1.368 . S
C1861 C1845 1.349 . S
C1861 H1853 0.950 . S
C1861 C1859 1.327 . S
C1862 C1850 1.349 . S
C1862 H1856 0.950 . S
C1862 C1863 1.327 . S
C1863 H1857 0.950 . S
C1863 C1862 1.327 . S
C1863 C1867 1.429 . S
C1864 C1847 1.574 . S
C1864 H1858 0.949 . S
C1864 C1868 1.368 . S
C1865 C1846 1.429 . S
C1865 C1859 1.429 . S
C1865 C1866 1.523 . S
C1866 C1847 1.368 . S
C1866 C1860 1.368 . S
C1866 C1865 1.523 . S
C1867 C1851 1.429 . S
C1867 C1863 1.429 . S
C1867 C1868 1.523 . S
C1868 C1852 1.368 . S
C1868 C1864 1.368 . S
C1868 C1867 1.523 . S
H1869 C1844 0.950 . S
H1870 C1846 0.950 . S
H1871 C1847 0.949 . S
H1872 C1849 0.950 . S
H1873 C1851 0.950 . S
C1874 C1875 1.349 . S
C1874 C1876 1.327 . S
C1874 H1899 0.950 . S
C1875 C1874 1.349 . S
C1875 C1891 1.349 . S
C1876 C1874 1.327 . S
C1876 C1895 1.429 . S
C1876 H1900 0.950 . S
C1877 C1894 1.574 . S
C1877 C1896 1.368 . S
C1877 H1901 0.949 . S
H1878 C1882 0.949 . S
C1879 C1880 1.349 . S
C1879 C1881 1.327 . S
C1879 H1902 0.950 . S
C1880 C1879 1.349 . S
C1880 C1892 1.349 . S
C1881 C1879 1.327 . S
C1881 C1897 1.429 . S
C1881 H1903 0.950 . S
C1882 H1878 0.949 . S
C1882 C1890 1.574 . S
C1882 C1898 1.368 . S
H1883 C1891 0.950 . S
H1884 C1889 0.950 . S
H1885 C1890 0.949 . S
H1886 C1892 0.950 . S
H1887 C1893 0.950 . S
H1888 C1894 0.949 . S
C1889 H1884 0.950 . S
C1889 C1891 1.327 . S
C1889 C1895 1.429 . S
C1890 C1882 1.574 . S
C1890 H1885 0.949 . S
C1890 C1896 1.368 . S
C1891 C1875 1.349 . S
C1891 H1883 0.950 . S
C1891 C1889 1.327 . S
C1892 C1880 1.349 . S
C1892 H1886 0.950 . S
C1892 C1893 1.327 . S
C1893 H1887 0.950 . S
C1893 C1892 1.327 . S
C1893 C1897 1.429 . S
C1894 C1877 1.574 . S
C1894 H1888 0.949 . S
C1894 C1898 1.368 . S
C1895 C1876 1.429 . S
C1895 C1889 1.429 . S
C1895 C1896 1.523 . S
C1896 C1877 1.368 . S
C1896 C1890 1.368 . S
C1896 C1895 1.523 . S
C1897 C1881 1.429 . S
C1897 C1893 1.429 . S
C1897 C1898 1.523 . S
C1898 C1882 1.368 . S
C1898 C1894 1.368 . S
C1898 C1897 1.523 . S
H1899 C1874 0.950 . S
H1900 C1876 0.950 . S
H1901 C1877 0.949 . S
H1902 C1879 0.950 . S
H1903 C1881 0.950 . S
C470 C289 0.316 . S
C465 C4 0.233 . S
C500 C294 1.453 . S
C495 C63 1.470 . S
C530 C295 1.056 . S
C525 C72 1.062 . S
C555 C102 1.476 . S
C560 C299 1.463 . S
C585 C136 1.470 . S
C590 C302 1.453 . S
C620 C303 1.056 . S
C615 C183 1.052 . S
C645 C233 1.475 . S
C650 C280 1.461 . S
C675 C251 0.238 . S
C680 C296 0.313 . S
C710 C334 1.404 . S
C705 C29 1.434 . S
C735 C42 1.884 . S
C740 C360 1.813 . S
C770 C312 1.420 . S
C765 C97 1.455 . S
C800 C367 1.017 . S
C795 C115 1.041 . S
C825 C149 1.063 . S
C830 C321 1.045 . S
C860 C363 1.427 . S
C855 C187 1.459 . S
C885 C212 1.903 . S
C890 C327 1.837 . S
C915 C255 1.437 . S
C920 C358 1.405 . S
C945 C8 1.437 . S
C950 C366 1.395 . S
C975 C153 1.884 . S
C980 C353 1.815 . S
C1010 C331 1.420 . S
C1005 C170 1.456 . S
C1040 C359 1.018 . S
C1035 C208 1.051 . S
C1065 C238 1.440 . S
C1070 C326 1.410 . S
C1095 C76 1.458 . S
C1100 C344 1.424 . S
C1130 C335 1.835 . S
C1125 C119 1.902 . S
C1155 C38 1.064 . S
C1160 C328 1.035 . S
C1185 C242 0.223 . S
C1190 C390 0.378 . S
C1215 C165 1.444 . S
C1220 C385 1.393 . S
C1250 C399 0.999 . S
C1245 C174 1.024 . S
C1280 C376 1.410 . S
C1275 C204 1.445 . S
C1305 C34 1.443 . S
C1310 C392 1.389 . S
C1340 C391 0.998 . S
C1335 C81 1.020 . S
C1365 C131 1.442 . S
C1370 C395 1.407 . S
C1395 C13 0.223 . S
C1400 C398 0.381 . S
C1425 C267 1.432 . S
C1430 C424 1.397 . S
C1460 C440 1.881 . S
C1455 C144 1.923 . S
C1485 C199 1.446 . S
C1490 C422 1.419 . S
C1515 C217 1.076 . S
C1520 C455 1.049 . S
C1550 C431 1.075 . S
C1545 C47 1.073 . S
C1575 C85 1.479 . S
C1580 C449 1.424 . S
C1610 C427 1.884 . S
C1605 C110 1.905 . S
C1640 C462 1.417 . S
C1635 C17 1.461 . S
C1670 C454 1.416 . S
C1665 C246 1.465 . S
C1695 C51 1.921 . S
C1700 C459 1.879 . S
C1725 C68 1.446 . S
C1730 C430 1.425 . S
C1760 C463 1.051 . S
C1755 C106 1.078 . S
C1785 C0 1.432 . S
C1790 C417 1.392 . S
C1815 C178 1.479 . S
C1820 C456 1.420 . S
C1850 C408 1.884 . S
C1845 C221 1.909 . S
C1880 C423 1.075 . S
C1875 C140 1.068 . S
