# Generated by pormake.
# Topology pth, (4,4)-cn, num edge types: 1
# Building blocks:
#     Node 0, Type 0, BuildingBlock: GALJAG_clean_sbu_0, # of connection points: 4
#     Node 1, Type 0, BuildingBlock: GALJAG_clean_sbu_0, # of connection points: 4
#     Node 2, Type 0, BuildingBlock: GALJAG_clean_sbu_0, # of connection points: 4
#     Node 3, Type 1, BuildingBlock: NAWXER_clean_sbu_0, # of connection points: 4
#     Node 4, Type 1, BuildingBlock: NAWXER_clean_sbu_0, # of connection points: 4
#     Node 5, Type 1, BuildingBlock: NAWXER_clean_sbu_0, # of connection points: 4
#     Edge 6, Type (0, 1), BuildingBlock: XIVTED_clean_linker_0, # of connection points: 2
#     Edge 7, Type (0, 1), BuildingBlock: XIVTED_clean_linker_0, # of connection points: 2
#     Edge 8, Type (0, 1), BuildingBlock: XIVTED_clean_linker_0, # of connection points: 2
#     Edge 9, Type (0, 1), BuildingBlock: XIVTED_clean_linker_0, # of connection points: 2
#     Edge 10, Type (0, 1), BuildingBlock: XIVTED_clean_linker_0, # of connection points: 2
#     Edge 11, Type (0, 1), BuildingBlock: XIVTED_clean_linker_0, # of connection points: 2
#     Edge 12, Type (0, 1), BuildingBlock: XIVTED_clean_linker_0, # of connection points: 2
#     Edge 13, Type (0, 1), BuildingBlock: XIVTED_clean_linker_0, # of connection points: 2
#     Edge 14, Type (0, 1), BuildingBlock: XIVTED_clean_linker_0, # of connection points: 2
#     Edge 15, Type (0, 1), BuildingBlock: XIVTED_clean_linker_0, # of connection points: 2
#     Edge 16, Type (0, 1), BuildingBlock: XIVTED_clean_linker_0, # of connection points: 2
#     Edge 17, Type (0, 1), BuildingBlock: XIVTED_clean_linker_0, # of connection points: 2
# Relax obj value: 0.017
# Max RMSD: 0.060
# Mean RMSD: 0.053
data_MOF--net-pth--node1-GALJAG_clean_sbu_0--node2-NAWXER_clean_sbu_0--edge1-XIVTED_clean_linker_0
_symmetry_space_group_name_H-M    P1
_symmetry_Int_Tables_number       1
_symmetry_cell_setting            triclinic
loop_
_symmetry_equiv_pos_as_xyz
'x, y, z'
_cell_length_a     23.58253
_cell_length_b     23.581168
_cell_length_c     56.476516
_cell_angle_alpha  90.16028
_cell_angle_beta   90.140579
_cell_angle_gamma 120.00533
loop_
_atom_site_label
_atom_site_type_symbol
_atom_site_fract_x
_atom_site_fract_y
_atom_site_fract_z
_atom_type_partial_charge
In0 In 0.00575 0.00466 0.06853 0.0
O1 O 0.96251 0.0624 0.08574 0.0
O2 O 0.05662 0.08051 0.0972 0.0
C3 C 0.92151 0.91443 0.03793 0.0
C4 C 0.0905 0.09419 0.03825 0.0
C5 C 0.999 0.91466 0.09909 0.0
O6 O 0.90503 0.94782 0.05091 0.0
O7 O 0.98051 0.92856 0.03996 0.0
O8 O 0.04865 0.94706 0.08603 0.0
O9 O 0.95471 0.92962 0.09717 0.0
C10 C 0.01215 0.09527 0.09893 0.0
O11 O 0.10674 0.06116 0.05147 0.0
O12 O 0.03145 0.08008 0.03987 0.0
In13 In 0.00264 0.00525 0.40168 0.0
O14 O 0.04557 0.10595 0.38453 0.0
O15 O 0.9515 0.02963 0.37306 0.0
C16 C 0.08641 0.99921 0.43232 0.0
C17 C 0.91885 0.0116 0.43208 0.0
C18 C 0.0101 0.92191 0.3712 0.0
O19 O 0.10319 0.04898 0.41935 0.0
O20 O 0.02735 0.95443 0.43025 0.0
O21 O 0.96043 0.90446 0.38429 0.0
O22 O 0.05393 0.98142 0.373 0.0
C23 C 0.99581 0.08893 0.37138 0.0
O24 O 0.90172 0.96208 0.41878 0.0
O25 O 0.97818 0.05582 0.43047 0.0
In26 In 0.00276 0.99863 0.73493 0.0
O27 O 0.94516 0.89697 0.75149 0.0
O28 O 0.92701 0.97239 0.76352 0.0
C29 C 0.09356 0.00423 0.70498 0.0
C30 C 0.91325 0.9946 0.7045 0.0
C31 C 0.09239 0.08394 0.76548 0.0
O32 O 0.06068 0.955 0.71815 0.0
O33 O 0.07849 0.04851 0.70639 0.0
O34 O 0.05943 0.0999 0.75208 0.0
O35 O 0.07803 0.02478 0.76397 0.0
C36 C 0.91222 0.9131 0.7648 0.0
O37 O 0.94617 0.04338 0.71804 0.0
O38 O 0.92751 0.94973 0.70583 0.0
C39 C 0.05331 0.60298 0.26668 0.0
C40 C 0.05059 0.45399 0.20491 0.0
O41 O 0.10443 0.60803 0.25701 0.0
Zn42 Zn 0.05872 0.53203 0.23573 0.0
O43 O 0.99662 0.55781 0.25999 0.0
Zn44 Zn 0.95114 0.47935 0.23568 0.0
O45 O 0.90572 0.4039 0.25691 0.0
O46 O 0.01357 0.45398 0.25997 0.0
O47 O 0.99453 0.44402 0.21156 0.0
O48 O 0.10243 0.49973 0.21451 0.0
O49 O 0.01495 0.5667 0.21151 0.0
O50 O 0.9071 0.51118 0.2144 0.0
C51 C 0.95697 0.409 0.26661 0.0
C52 C 0.95878 0.55658 0.20481 0.0
C53 C 0.55405 0.95596 0.59891 0.0
C54 C 0.40679 0.96024 0.53794 0.0
O55 O 0.50745 0.9051 0.58914 0.0
Zn56 Zn 0.47697 0.95134 0.56838 0.0
O57 O 0.56552 0.0128 0.59264 0.0
Zn58 Zn 0.53201 0.05891 0.56902 0.0
O59 O 0.50233 0.10382 0.59079 0.0
O60 O 0.44426 0.99592 0.59309 0.0
O61 O 0.45297 0.01612 0.54487 0.0
O62 O 0.40076 0.90815 0.5471 0.0
O63 O 0.55509 0.9957 0.54417 0.0
O64 O 0.60749 0.1035 0.54775 0.0
C65 C 0.45603 0.05237 0.60017 0.0
C66 C 0.60104 0.05205 0.53774 0.0
C67 C 0.40541 0.45215 0.93202 0.0
C68 C 0.55226 0.59822 0.87024 0.0
O69 O 0.39962 0.49767 0.92223 0.0
Zn70 Zn 0.47554 0.5286 0.90115 0.0
O71 O 0.45135 0.44165 0.92561 0.0
Zn72 Zn 0.53013 0.47566 0.90166 0.0
O73 O 0.60586 0.50805 0.92313 0.0
O74 O 0.55411 0.56426 0.92549 0.0
O75 O 0.56365 0.5533 0.87722 0.0
O76 O 0.50589 0.60343 0.87959 0.0
O77 O 0.44214 0.4492 0.87726 0.0
O78 O 0.49982 0.39918 0.88065 0.0
C79 C 0.59998 0.55418 0.93243 0.0
C80 C 0.45349 0.40375 0.87086 0.0
H81 H 0.11603 0.17374 0.12756 0.0
H82 H 0.95638 0.38404 0.17246 0.0
H83 H 0.92719 0.14149 0.10495 0.0
H84 H 0.14633 0.42156 0.19603 0.0
H85 H 0.94903 0.29938 0.14598 0.0
H86 H 0.13075 0.26661 0.15163 0.0
C87 C 0.0775 0.18604 0.12774 0.0
C88 C 0.02007 0.14963 0.1143 0.0
C89 C 0.99262 0.32619 0.15677 0.0
C90 C 0.03699 0.25623 0.14167 0.0
C91 C 0.99697 0.37478 0.17192 0.0
C92 C 0.0519 0.40961 0.18665 0.0
C93 C 0.04336 0.31156 0.15633 0.0
C94 C 0.10318 0.39591 0.18496 0.0
C95 C 0.08613 0.23925 0.14141 0.0
C96 C 0.97205 0.16798 0.1151 0.0
N97 N 0.0974 0.34735 0.17021 0.0
N98 N 0.9816 0.21993 0.12855 0.0
H99 H 0.94572 0.11424 0.46151 0.0
H100 H 0.57468 0.9611 0.50376 0.0
H101 H 0.78686 0.92879 0.43707 0.0
H102 H 0.73032 0.14602 0.53002 0.0
H103 H 0.65143 0.9535 0.47719 0.0
H104 H 0.8682 0.13006 0.48532 0.0
C105 C 0.89451 0.07667 0.46123 0.0
C106 C 0.87268 0.01987 0.44736 0.0
C107 C 0.66904 0.99607 0.48859 0.0
C108 C 0.78369 0.0381 0.47441 0.0
C109 C 0.62513 0.00058 0.50376 0.0
C110 C 0.64631 0.05407 0.51929 0.0
C111 C 0.73512 0.04516 0.48894 0.0
C112 C 0.71201 0.10402 0.51831 0.0
C113 C 0.85029 0.08594 0.47476 0.0
C114 C 0.80586 0.9731 0.44758 0.0
N115 N 0.75441 0.09802 0.50354 0.0
N116 N 0.76378 0.98327 0.46089 0.0
H117 H 0.86584 0.78164 0.76967 0.0
H118 H 0.58156 0.72513 0.86091 0.0
H119 H 0.83337 0.9371 0.79349 0.0
H120 H 0.62362 0.57511 0.83827 0.0
H121 H 0.66729 0.80247 0.83402 0.0
H122 H 0.77233 0.70411 0.79322 0.0
C123 C 0.8392 0.79948 0.77995 0.0
C124 C 0.85762 0.86589 0.77973 0.0
C125 C 0.65722 0.75241 0.83485 0.0
C126 C 0.75004 0.77744 0.80661 0.0
C127 C 0.60802 0.70826 0.85004 0.0
C128 C 0.59593 0.64388 0.85198 0.0
C129 C 0.69402 0.73163 0.82154 0.0
C130 C 0.63186 0.62456 0.83759 0.0
C131 C 0.7856 0.7552 0.79333 0.0
C132 C 0.82101 0.88628 0.79326 0.0
N133 N 0.67933 0.66821 0.82314 0.0
N134 N 0.769 0.84226 0.80617 0.0
H135 H 0.89582 0.83827 0.12793 0.0
H136 H 0.05115 0.62325 0.17178 0.0
H137 H 0.08256 0.86665 0.10489 0.0
H138 H 0.86432 0.59108 0.19643 0.0
H139 H 0.05882 0.70775 0.14533 0.0
H140 H 0.88035 0.74533 0.15189 0.0
C141 C 0.93373 0.82511 0.12799 0.0
C142 C 0.99079 0.86045 0.11447 0.0
C143 C 0.01583 0.68214 0.15635 0.0
C144 C 0.973 0.75374 0.14168 0.0
C145 C 0.01128 0.63364 0.17147 0.0
C146 C 0.95718 0.60041 0.18649 0.0
C147 C 0.96614 0.6983 0.15625 0.0
C148 C 0.90679 0.61548 0.18511 0.0
C149 C 0.92468 0.77186 0.1416 0.0
C150 C 0.03803 0.84103 0.11512 0.0
N151 N 0.91279 0.66395 0.1704 0.0
N152 N 0.02806 0.78904 0.1285 0.0
H153 H 0.06112 0.89499 0.46039 0.0
H154 H 0.43057 0.05568 0.50641 0.0
H155 H 0.21725 0.08486 0.43904 0.0
H156 H 0.27885 0.8643 0.52846 0.0
H157 H 0.35317 0.06339 0.48015 0.0
H158 H 0.13924 0.88042 0.48447 0.0
C159 C 0.11183 0.93378 0.46085 0.0
C160 C 0.13274 0.99144 0.44776 0.0
C161 C 0.33656 0.01942 0.49056 0.0
C162 C 0.2224 0.9747 0.47512 0.0
C163 C 0.38085 0.01486 0.50559 0.0
C164 C 0.36099 0.95939 0.51982 0.0
C165 C 0.27137 0.96832 0.48974 0.0
C166 C 0.29617 0.90786 0.51777 0.0
C167 C 0.1564 0.92523 0.47453 0.0
C168 C 0.19896 0.03981 0.44892 0.0
N169 N 0.25334 0.91382 0.50315 0.0
N170 N 0.24137 0.03033 0.46236 0.0
H171 H 0.13865 0.21536 0.77026 0.0
H172 H 0.42218 0.27538 0.86307 0.0
H173 H 0.17086 0.06055 0.79479 0.0
H174 H 0.38391 0.42548 0.83765 0.0
H175 H 0.33577 0.19635 0.83639 0.0
H176 H 0.23225 0.29361 0.79392 0.0
C177 C 0.16523 0.19781 0.78073 0.0
C178 C 0.14677 0.13139 0.78065 0.0
C179 C 0.34686 0.24679 0.83657 0.0
C180 C 0.25452 0.22071 0.80768 0.0
C181 C 0.39644 0.29188 0.85163 0.0
C182 C 0.40976 0.35683 0.85272 0.0
C183 C 0.3109 0.26721 0.82254 0.0
C184 C 0.37471 0.37566 0.83763 0.0
C185 C 0.21892 0.24251 0.79417 0.0
C186 C 0.18331 0.11138 0.79443 0.0
N187 N 0.32683 0.33112 0.82333 0.0
N188 N 0.23543 0.15584 0.80742 0.0
H189 H 0.868 0.08052 0.69978 0.0
H190 H 0.58417 0.85812 0.60667 0.0
H191 H 0.83442 0.89284 0.67504 0.0
H192 H 0.62481 0.04772 0.63198 0.0
H193 H 0.67013 0.86487 0.63337 0.0
H194 H 0.77504 0.06597 0.67599 0.0
C195 C 0.84123 0.0364 0.68924 0.0
C196 C 0.85914 0.98803 0.6893 0.0
C197 C 0.65968 0.90465 0.63315 0.0
C198 C 0.75211 0.97053 0.66211 0.0
C199 C 0.61036 0.90052 0.61808 0.0
C200 C 0.5978 0.95265 0.61696 0.0
C201 C 0.69611 0.96114 0.64717 0.0
C202 C 0.6334 0.0067 0.63202 0.0
C203 C 0.78792 0.02787 0.67572 0.0
C204 C 0.8224 0.93154 0.67541 0.0
N205 N 0.68097 0.00966 0.64633 0.0
N206 N 0.77064 0.92432 0.66236 0.0
H207 H 0.94636 0.83512 0.0097 0.0
H208 H 0.57622 0.62542 0.96436 0.0
H209 H 0.79051 0.869 0.03153 0.0
H210 H 0.72791 0.58615 0.9417 0.0
H211 H 0.65384 0.71061 0.99068 0.0
H212 H 0.86786 0.74198 0.98575 0.0
C213 C 0.89562 0.82313 0.00937 0.0
C214 C 0.87492 0.86006 0.02256 0.0
C215 C 0.67039 0.68331 0.98012 0.0
C216 C 0.78481 0.75314 0.99534 0.0
C217 C 0.62597 0.63441 0.96507 0.0
C218 C 0.64577 0.59892 0.95064 0.0
C219 C 0.73565 0.69758 0.98077 0.0
C220 C 0.71064 0.61231 0.95254 0.0
C221 C 0.85084 0.76976 0.99577 0.0
C222 C 0.80865 0.84211 0.02158 0.0
N223 N 0.75359 0.66116 0.96719 0.0
N224 N 0.76603 0.78998 0.0082 0.0
H225 H 0.11248 0.94946 0.34176 0.0
H226 H 0.96525 0.57657 0.30143 0.0
H227 H 0.92921 0.78944 0.36651 0.0
H228 H 0.14589 0.73338 0.27358 0.0
H229 H 0.95734 0.65386 0.32779 0.0
H230 H 0.12965 0.87193 0.31832 0.0
C231 C 0.07567 0.898 0.34218 0.0
C232 C 0.01908 0.87583 0.35603 0.0
C233 C 0.99907 0.67164 0.3161 0.0
C234 C 0.0389 0.78687 0.32944 0.0
C235 C 0.00378 0.62742 0.30106 0.0
C236 C 0.05608 0.64876 0.28515 0.0
C237 C 0.04672 0.73819 0.31519 0.0
C238 C 0.10487 0.71499 0.28562 0.0
C239 C 0.08571 0.85379 0.32887 0.0
C240 C 0.9733 0.80871 0.356 0.0
N241 N 0.09864 0.75768 0.30024 0.0
N242 N 0.98425 0.76667 0.34293 0.0
H243 H 0.1418 0.92058 0.70038 0.0
H244 H 0.42479 0.14889 0.60905 0.0
H245 H 0.17159 0.10697 0.67624 0.0
H246 H 0.38722 0.95945 0.63278 0.0
H247 H 0.3385 0.13993 0.63584 0.0
H248 H 0.23631 0.93775 0.67713 0.0
C249 C 0.16804 0.96495 0.69009 0.0
C250 C 0.14859 0.01217 0.69014 0.0
C251 C 0.34971 0.10068 0.63529 0.0
C252 C 0.25731 0.03267 0.6636 0.0
C253 C 0.39925 0.10609 0.62016 0.0
C254 C 0.41267 0.05461 0.61854 0.0
C255 C 0.31391 0.04356 0.64885 0.0
C256 C 0.37789 0.99999 0.63323 0.0
C257 C 0.22223 0.97497 0.67688 0.0
C258 C 0.18475 0.06909 0.67661 0.0
N259 N 0.33002 0.99576 0.64759 0.0
N260 N 0.23731 0.07775 0.66386 0.0
H261 H 0.22161 0.13966 0.03292 0.0
H262 H 0.27765 0.4214 0.94056 0.0
H263 H 0.06619 0.17242 0.00932 0.0
H264 H 0.42841 0.38204 0.96457 0.0
H265 H 0.20004 0.33579 0.96743 0.0
H266 H 0.29882 0.23227 0.00895 0.0
C267 C 0.20371 0.16617 0.0226 0.0
C268 C 0.13742 0.14815 0.02302 0.0
C269 C 0.25031 0.34643 0.9669 0.0
C270 C 0.22553 0.25471 0.99565 0.0
C271 C 0.2946 0.39555 0.95171 0.0
C272 C 0.35932 0.4084 0.95018 0.0
C273 C 0.27128 0.31045 0.9806 0.0
C274 C 0.37874 0.37323 0.96493 0.0
C275 C 0.24781 0.21927 0.00898 0.0
C276 C 0.11694 0.18454 0.00942 0.0
N277 N 0.33495 0.32581 0.97936 0.0
N278 N 0.1608 0.23607 0.99627 0.0
H279 H 0.8926 0.06273 0.34231 0.0
H280 H 0.04743 0.43446 0.30063 0.0
H281 H 0.07907 0.22072 0.36637 0.0
H282 H 0.86222 0.27989 0.27417 0.0
H283 H 0.0544 0.35709 0.32704 0.0
H284 H 0.87692 0.14082 0.31877 0.0
C285 C 0.93041 0.11385 0.34256 0.0
C286 C 0.98747 0.13528 0.35624 0.0
C287 C 0.01189 0.33983 0.31563 0.0
C288 C 0.96941 0.22489 0.32952 0.0
C289 C 0.00774 0.38411 0.30056 0.0
C290 C 0.95438 0.3634 0.28502 0.0
C291 C 0.96256 0.27384 0.31516 0.0
C292 C 0.90413 0.29781 0.2859 0.0
C293 C 0.92122 0.15839 0.3292 0.0
C294 C 0.03455 0.20201 0.35601 0.0
N295 N 0.90978 0.25501 0.30056 0.0
N296 N 0.02446 0.24437 0.34286 0.0
loop_
_geom_bond_atom_site_label_1
_geom_bond_atom_site_label_2
_geom_bond_distance
_geom_bond_site_symmetry_2
_ccdc_geom_bond_type
In0 O1 2.294 1_455 S
In0 O2 2.326 . S
In0 O6 2.266 1_445 S
In0 O7 2.326 1_445 S
In0 O8 2.266 1_545 S
In0 O9 2.326 1_445 S
In0 O11 2.294 . S
In0 O12 2.326 . S
O1 In0 2.294 1_655 S
O1 C10 1.240 1_655 S
O2 In0 2.326 . S
O2 C10 1.252 . S
C3 O6 1.252 . S
C3 O7 1.260 . S
C4 O11 1.240 . S
C4 O12 1.252 . S
C5 O8 1.252 1_655 S
C5 O9 1.260 . S
O6 In0 2.266 1_665 S
O6 C3 1.252 . S
O7 In0 2.326 1_665 S
O7 C3 1.260 . S
O8 In0 2.266 1_565 S
O8 C5 1.252 1_455 S
O9 In0 2.326 1_665 S
O9 C5 1.260 . S
C10 O1 1.240 1_455 S
C10 O2 1.252 . S
O11 In0 2.294 . S
O11 C4 1.240 . S
O12 In0 2.326 . S
O12 C4 1.252 . S
In13 O14 2.294 . S
In13 O15 2.326 1_455 S
In13 O19 2.266 . S
In13 O20 2.326 1_545 S
In13 O21 2.266 1_445 S
In13 O22 2.326 1_545 S
In13 O24 2.294 1_445 S
In13 O25 2.326 1_455 S
O14 In13 2.294 . S
O14 C23 1.240 1_455 S
O15 In13 2.326 1_655 S
O15 C23 1.252 . S
C16 O19 1.252 1_565 S
C16 O20 1.260 . S
C17 O24 1.240 1_545 S
C17 O25 1.252 . S
C18 O21 1.252 1_455 S
C18 O22 1.260 . S
O19 In13 2.266 . S
O19 C16 1.252 1_545 S
O20 In13 2.326 1_565 S
O20 C16 1.260 . S
O21 In13 2.266 1_665 S
O21 C18 1.252 1_655 S
O22 In13 2.326 1_565 S
O22 C18 1.260 . S
C23 O14 1.240 1_655 S
C23 O15 1.252 . S
O24 In13 2.294 1_665 S
O24 C17 1.240 1_565 S
O25 In13 2.326 1_655 S
O25 C17 1.252 . S
In26 O27 2.294 1_445 S
In26 O28 2.326 1_445 S
In26 O32 2.266 1_545 S
In26 O33 2.326 . S
In26 O34 2.266 . S
In26 O35 2.326 . S
In26 O37 2.294 1_455 S
In26 O38 2.326 1_445 S
O27 In26 2.294 1_665 S
O27 C36 1.240 . S
O28 In26 2.326 1_665 S
O28 C36 1.252 . S
C29 O32 1.252 1_545 S
C29 O33 1.260 . S
C30 O37 1.240 1_565 S
C30 O38 1.252 . S
C31 O34 1.252 . S
C31 O35 1.260 . S
O32 In26 2.266 1_565 S
O32 C29 1.252 1_565 S
O33 In26 2.326 . S
O33 C29 1.260 . S
O34 In26 2.266 . S
O34 C31 1.252 . S
O35 In26 2.326 . S
O35 C31 1.260 . S
C36 O27 1.240 . S
C36 O28 1.252 . S
O37 In26 2.294 1_655 S
O37 C30 1.240 1_545 S
O38 In26 2.326 1_665 S
O38 C30 1.252 . S
C39 O41 1.247 . S
C39 O43 1.258 1_455 S
C40 O47 1.247 1_455 S
C40 O48 1.258 . S
O41 C39 1.247 . S
O41 Zn42 2.028 . S
Zn42 O41 2.028 . S
Zn42 O46 2.035 . S
Zn42 O48 2.035 . S
Zn42 O49 2.028 . S
O43 C39 1.258 1_655 S
O43 Zn44 2.035 . S
Zn44 O43 2.035 . S
Zn44 O45 2.028 . S
Zn44 O47 2.028 . S
Zn44 O50 2.035 . S
O45 Zn44 2.028 . S
O45 C51 1.247 1_655 S
O46 Zn42 2.035 . S
O46 C51 1.258 . S
O47 C40 1.247 1_655 S
O47 Zn44 2.028 . S
O48 C40 1.258 . S
O48 Zn42 2.035 . S
O49 Zn42 2.028 . S
O49 C52 1.247 . S
O50 Zn44 2.035 . S
O50 C52 1.258 1_655 S
C51 O45 1.247 1_455 S
C51 O46 1.258 . S
C52 O49 1.247 . S
C52 O50 1.258 1_455 S
C53 O55 1.247 1_545 S
C53 O57 1.258 . S
C54 O61 1.247 . S
C54 O62 1.258 1_545 S
O55 C53 1.247 1_565 S
O55 Zn56 2.028 . S
Zn56 O55 2.028 . S
Zn56 O60 2.035 . S
Zn56 O62 2.035 . S
Zn56 O63 2.028 . S
O57 C53 1.258 . S
O57 Zn58 2.035 . S
Zn58 O57 2.035 . S
Zn58 O59 2.028 . S
Zn58 O61 2.028 . S
Zn58 O64 2.035 . S
O59 Zn58 2.028 . S
O59 C65 1.247 . S
O60 Zn56 2.035 . S
O60 C65 1.258 1_565 S
O61 C54 1.247 . S
O61 Zn58 2.028 . S
O62 C54 1.258 1_565 S
O62 Zn56 2.035 . S
O63 Zn56 2.028 . S
O63 C66 1.247 1_565 S
O64 Zn58 2.035 . S
O64 C66 1.258 . S
C65 O59 1.247 . S
C65 O60 1.258 1_545 S
C66 O63 1.247 1_545 S
C66 O64 1.258 . S
C67 O69 1.247 . S
C67 O71 1.258 . S
C68 O75 1.247 . S
C68 O76 1.258 . S
O69 C67 1.247 . S
O69 Zn70 2.028 . S
Zn70 O69 2.028 . S
Zn70 O74 2.035 . S
Zn70 O76 2.035 . S
Zn70 O77 2.028 . S
O71 C67 1.258 . S
O71 Zn72 2.035 . S
Zn72 O71 2.035 . S
Zn72 O73 2.028 . S
Zn72 O75 2.028 . S
Zn72 O78 2.035 . S
O73 Zn72 2.028 . S
O73 C79 1.247 . S
O74 Zn70 2.035 . S
O74 C79 1.258 . S
O75 C68 1.247 . S
O75 Zn72 2.028 . S
O76 C68 1.258 . S
O76 Zn70 2.035 . S
O77 Zn70 2.028 . S
O77 C80 1.247 . S
O78 Zn72 2.035 . S
O78 C80 1.258 . S
C79 O73 1.247 . S
C79 O74 1.258 . S
C80 O77 1.247 . S
C80 O78 1.258 . S
H81 C87 0.930 . S
H82 C91 0.930 . S
H83 C96 0.929 . S
H84 C94 0.929 . S
H85 C89 0.929 . S
H86 C95 0.929 . S
C87 H81 0.930 . S
C87 C88 1.367 . S
C87 C95 1.378 . S
C88 C87 1.367 . S
C88 C96 1.433 1_455 S
C89 H85 0.929 . S
C89 C91 1.378 . S
C89 C93 1.350 1_655 S
C90 C93 1.463 . S
C90 C95 1.350 . S
C90 N98 1.427 1_455 S
C91 H82 0.930 . S
C91 C89 1.378 . S
C91 C92 1.367 1_655 S
C92 C91 1.367 1_455 S
C92 C94 1.433 . S
C93 C89 1.350 1_455 S
C93 C90 1.463 . S
C93 N97 1.427 . S
C94 H84 0.929 . S
C94 C92 1.433 . S
C94 N97 1.384 . S
C95 H86 0.929 . S
C95 C87 1.378 . S
C95 C90 1.350 . S
C96 H83 0.929 . S
C96 C88 1.433 1_655 S
C96 N98 1.384 . S
N97 C93 1.427 . S
N97 C94 1.384 . S
N98 C90 1.427 1_655 S
N98 C96 1.384 . S
H99 C105 0.930 . S
H100 C109 0.930 . S
H101 C114 0.929 . S
H102 C112 0.929 . S
H103 C107 0.929 . S
H104 C113 0.929 . S
C105 H99 0.930 . S
C105 C106 1.367 . S
C105 C113 1.378 . S
C106 C105 1.367 . S
C106 C114 1.433 1_545 S
C107 H103 0.929 . S
C107 C109 1.378 . S
C107 C111 1.350 1_565 S
C108 C111 1.463 . S
C108 C113 1.350 . S
C108 N116 1.427 1_545 S
C109 H100 0.930 . S
C109 C107 1.378 . S
C109 C110 1.367 1_565 S
C110 C109 1.367 1_545 S
C110 C112 1.433 . S
C111 C107 1.350 1_545 S
C111 C108 1.463 . S
C111 N115 1.427 . S
C112 H102 0.929 . S
C112 C110 1.433 . S
C112 N115 1.384 . S
C113 H104 0.929 . S
C113 C105 1.378 . S
C113 C108 1.350 . S
C114 H101 0.929 . S
C114 C106 1.433 1_565 S
C114 N116 1.384 . S
N115 C111 1.427 . S
N115 C112 1.384 . S
N116 C108 1.427 1_565 S
N116 C114 1.384 . S
H117 C123 0.930 . S
H118 C127 0.930 . S
H119 C132 0.929 . S
H120 C130 0.929 . S
H121 C125 0.929 . S
H122 C131 0.929 . S
C123 H117 0.930 . S
C123 C124 1.367 . S
C123 C131 1.378 . S
C124 C123 1.367 . S
C124 C132 1.433 . S
C125 H121 0.929 . S
C125 C127 1.378 . S
C125 C129 1.350 . S
C126 C129 1.463 . S
C126 C131 1.350 . S
C126 N134 1.427 . S
C127 H118 0.930 . S
C127 C125 1.378 . S
C127 C128 1.367 . S
C128 C127 1.367 . S
C128 C130 1.433 . S
C129 C125 1.350 . S
C129 C126 1.463 . S
C129 N133 1.427 . S
C130 H120 0.929 . S
C130 C128 1.433 . S
C130 N133 1.384 . S
C131 H122 0.929 . S
C131 C123 1.378 . S
C131 C126 1.350 . S
C132 H119 0.929 . S
C132 C124 1.433 . S
C132 N134 1.384 . S
N133 C129 1.427 . S
N133 C130 1.384 . S
N134 C126 1.427 . S
N134 C132 1.384 . S
H135 C141 0.930 . S
H136 C145 0.930 . S
H137 C150 0.929 . S
H138 C148 0.929 . S
H139 C143 0.929 . S
H140 C149 0.929 . S
C141 H135 0.930 . S
C141 C142 1.367 . S
C141 C149 1.378 . S
C142 C141 1.367 . S
C142 C150 1.433 1_655 S
C143 H139 0.929 . S
C143 C145 1.378 . S
C143 C147 1.350 . S
C144 C147 1.456 1_655 S
C144 C149 1.363 . S
C144 N152 1.420 1_655 S
C145 H136 0.930 . S
C145 C143 1.378 . S
C145 C146 1.367 . S
C146 C145 1.367 . S
C146 C148 1.433 1_455 S
C147 C143 1.350 . S
C147 C144 1.456 1_455 S
C147 N151 1.427 1_455 S
C148 H138 0.929 . S
C148 C146 1.433 1_655 S
C148 N151 1.384 . S
C149 H140 0.929 . S
C149 C141 1.378 . S
C149 C144 1.363 . S
C150 H137 0.929 . S
C150 C142 1.433 1_455 S
C150 N152 1.384 . S
N151 C147 1.427 1_655 S
N151 C148 1.384 . S
N152 C144 1.420 1_455 S
N152 C150 1.384 . S
H153 C159 0.930 . S
H154 C163 0.930 . S
H155 C168 0.929 . S
H156 C166 0.929 . S
H157 C161 0.929 . S
H158 C167 0.929 . S
C159 H153 0.930 . S
C159 C160 1.367 . S
C159 C167 1.378 . S
C160 C159 1.367 . S
C160 C168 1.433 1_565 S
C161 H157 0.929 . S
C161 C163 1.378 . S
C161 C165 1.350 . S
C162 C165 1.466 1_565 S
C162 C167 1.354 . S
C162 N170 1.420 1_565 S
C163 H154 0.930 . S
C163 C161 1.378 . S
C163 C164 1.367 . S
C164 C163 1.367 . S
C164 C166 1.433 1_545 S
C165 C161 1.350 . S
C165 C162 1.466 1_545 S
C165 N169 1.427 1_545 S
C166 H156 0.929 . S
C166 C164 1.433 1_565 S
C166 N169 1.384 . S
C167 H158 0.929 . S
C167 C159 1.378 . S
C167 C162 1.354 . S
C168 H155 0.929 . S
C168 C160 1.433 1_545 S
C168 N170 1.384 . S
N169 C165 1.427 1_565 S
N169 C166 1.384 . S
N170 C162 1.420 1_545 S
N170 C168 1.384 . S
H171 C177 0.930 . S
H172 C181 0.930 . S
H173 C186 0.929 . S
H174 C184 0.929 . S
H175 C179 0.929 . S
H176 C185 0.929 . S
C177 H171 0.930 . S
C177 C178 1.367 . S
C177 C185 1.378 . S
C178 C177 1.367 . S
C178 C186 1.433 . S
C179 H175 0.929 . S
C179 C181 1.378 . S
C179 C183 1.350 . S
C180 C183 1.463 . S
C180 C185 1.350 . S
C180 N188 1.427 . S
C181 H172 0.930 . S
C181 C179 1.378 . S
C181 C182 1.367 . S
C182 C181 1.367 . S
C182 C184 1.433 . S
C183 C179 1.350 . S
C183 C180 1.463 . S
C183 N187 1.427 . S
C184 H174 0.929 . S
C184 C182 1.433 . S
C184 N187 1.384 . S
C185 H176 0.929 . S
C185 C177 1.378 . S
C185 C180 1.350 . S
C186 H173 0.929 . S
C186 C178 1.433 . S
C186 N188 1.384 . S
N187 C183 1.427 . S
N187 C184 1.384 . S
N188 C180 1.427 . S
N188 C186 1.384 . S
H189 C195 0.930 . S
H190 C199 0.930 . S
H191 C204 0.929 . S
H192 C202 0.929 . S
H193 C197 0.929 . S
H194 C203 0.929 . S
C195 H189 0.930 . S
C195 C196 1.367 1_545 S
C195 C203 1.378 . S
C196 C195 1.367 1_565 S
C196 C204 1.433 . S
C197 H193 0.929 . S
C197 C199 1.378 . S
C197 C201 1.350 . S
C198 C201 1.463 1_545 S
C198 C203 1.350 . S
C198 N206 1.426 1_545 S
C199 H190 0.930 . S
C199 C197 1.378 . S
C199 C200 1.354 1_565 S
C200 C199 1.354 1_545 S
C200 C202 1.439 . S
C201 C197 1.350 . S
C201 C198 1.463 1_565 S
C201 N205 1.427 1_565 S
C202 H192 0.929 . S
C202 C200 1.439 . S
C202 N205 1.384 . S
C203 H194 0.929 . S
C203 C195 1.378 . S
C203 C198 1.350 . S
C204 H191 0.929 . S
C204 C196 1.433 . S
C204 N206 1.384 . S
N205 C201 1.427 1_545 S
N205 C202 1.384 . S
N206 C198 1.426 1_565 S
N206 C204 1.384 . S
H207 C213 0.930 . S
H208 C217 0.930 . S
H209 C222 0.929 . S
H210 C220 0.929 . S
H211 C215 0.929 . S
H212 C221 0.929 . S
C213 H207 0.930 . S
C213 C214 1.367 . S
C213 C221 1.378 . S
C214 C213 1.367 . S
C214 C222 1.433 . S
C215 H211 0.929 . S
C215 C217 1.378 . S
C215 C219 1.350 . S
C216 C219 1.463 . S
C216 C221 1.350 1_556 S
C216 N224 1.427 . S
C217 H208 0.930 . S
C217 C215 1.378 . S
C217 C218 1.367 . S
C218 C217 1.367 . S
C218 C220 1.433 . S
C219 C215 1.350 . S
C219 C216 1.463 . S
C219 N223 1.427 . S
C220 H210 0.929 . S
C220 C218 1.433 . S
C220 N223 1.384 . S
C221 H212 0.929 . S
C221 C213 1.378 . S
C221 C216 1.350 1_554 S
C222 H209 0.929 . S
C222 C214 1.433 . S
C222 N224 1.384 1_554 S
N223 C219 1.427 . S
N223 C220 1.384 . S
N224 C216 1.427 . S
N224 C222 1.384 1_556 S
H225 C231 0.930 . S
H226 C235 0.930 . S
H227 C240 0.929 . S
H228 C238 0.929 . S
H229 C233 0.929 . S
H230 C239 0.929 . S
C231 H225 0.930 . S
C231 C232 1.367 . S
C231 C239 1.378 . S
C232 C231 1.367 . S
C232 C240 1.433 1_455 S
C233 H229 0.929 . S
C233 C235 1.378 . S
C233 C237 1.350 1_655 S
C234 C237 1.463 . S
C234 C239 1.350 . S
C234 N242 1.427 1_455 S
C235 H226 0.930 . S
C235 C233 1.378 . S
C235 C236 1.367 1_655 S
C236 C235 1.367 1_455 S
C236 C238 1.433 . S
C237 C233 1.350 1_455 S
C237 C234 1.463 . S
C237 N241 1.427 . S
C238 H228 0.929 . S
C238 C236 1.433 . S
C238 N241 1.384 . S
C239 H230 0.929 . S
C239 C231 1.378 . S
C239 C234 1.350 . S
C240 H227 0.929 . S
C240 C232 1.433 1_655 S
C240 N242 1.384 . S
N241 C237 1.427 . S
N241 C238 1.384 . S
N242 C234 1.427 1_655 S
N242 C240 1.384 . S
H243 C249 0.930 . S
H244 C253 0.930 . S
H245 C258 0.929 . S
H246 C256 0.929 . S
H247 C251 0.929 . S
H248 C257 0.929 . S
C249 H243 0.930 . S
C249 C250 1.367 1_565 S
C249 C257 1.378 . S
C250 C249 1.367 1_545 S
C250 C258 1.433 . S
C251 H247 0.929 . S
C251 C253 1.378 . S
C251 C255 1.350 . S
C252 C255 1.463 . S
C252 C257 1.350 1_545 S
C252 N260 1.427 . S
C253 H244 0.930 . S
C253 C251 1.378 . S
C253 C254 1.367 . S
C254 C253 1.367 . S
C254 C256 1.433 1_545 S
C255 C251 1.350 . S
C255 C252 1.463 . S
C255 N259 1.427 1_545 S
C256 H246 0.929 . S
C256 C254 1.433 1_565 S
C256 N259 1.384 . S
C257 H248 0.929 . S
C257 C249 1.378 . S
C257 C252 1.350 1_565 S
C258 H245 0.929 . S
C258 C250 1.433 . S
C258 N260 1.384 . S
N259 C255 1.427 1_565 S
N259 C256 1.384 . S
N260 C252 1.427 . S
N260 C258 1.384 . S
H261 C267 0.930 . S
H262 C271 0.930 . S
H263 C276 0.929 1_556 S
H264 C274 0.929 . S
H265 C269 0.929 . S
H266 C275 0.929 . S
C267 H261 0.930 . S
C267 C268 1.367 . S
C267 C275 1.378 . S
C268 C267 1.367 . S
C268 C276 1.433 . S
C269 H265 0.929 . S
C269 C271 1.378 . S
C269 C273 1.350 . S
C270 C273 1.463 . S
C270 C275 1.350 1_556 S
C270 N278 1.427 . S
C271 H262 0.930 . S
C271 C269 1.378 . S
C271 C272 1.367 . S
C272 C271 1.367 . S
C272 C274 1.433 . S
C273 C269 1.350 . S
C273 C270 1.463 . S
C273 N277 1.427 . S
C274 H264 0.929 . S
C274 C272 1.433 . S
C274 N277 1.384 . S
C275 H266 0.929 . S
C275 C267 1.378 . S
C275 C270 1.350 1_554 S
C276 H263 0.929 1_554 S
C276 C268 1.433 . S
C276 N278 1.384 1_554 S
N277 C273 1.427 . S
N277 C274 1.384 . S
N278 C270 1.427 . S
N278 C276 1.384 1_556 S
H279 C285 0.930 . S
H280 C289 0.930 . S
H281 C294 0.929 . S
H282 C292 0.929 . S
H283 C287 0.929 . S
H284 C293 0.929 . S
C285 H279 0.930 . S
C285 C286 1.367 . S
C285 C293 1.378 . S
C286 C285 1.367 . S
C286 C294 1.433 1_655 S
C287 H283 0.929 . S
C287 C289 1.378 . S
C287 C291 1.350 . S
C288 C291 1.463 1_655 S
C288 C293 1.350 . S
C288 N296 1.427 1_655 S
C289 H280 0.930 . S
C289 C287 1.378 . S
C289 C290 1.367 . S
C290 C289 1.367 . S
C290 C292 1.433 1_455 S
C291 C287 1.350 . S
C291 C288 1.463 1_455 S
C291 N295 1.427 1_455 S
C292 H282 0.929 . S
C292 C290 1.433 1_655 S
C292 N295 1.384 . S
C293 H284 0.929 . S
C293 C285 1.378 . S
C293 C288 1.350 . S
C294 H281 0.929 . S
C294 C286 1.433 1_455 S
C294 N296 1.384 . S
N295 C291 1.427 1_655 S
N295 C292 1.384 . S
N296 C288 1.427 1_455 S
N296 C294 1.384 . S
C92 C40 1.497 . S
C88 C10 1.497 . S
C106 C17 1.497 . S
C110 C66 1.497 . S
C124 C36 1.497 . S
C128 C68 1.497 . S
C142 C5 1.499 . S
C146 C52 1.499 . S
C164 C54 1.499 . S
C160 C16 1.499 . S
C178 C31 1.499 . S
C182 C80 1.499 . S
C200 C53 1.504 . S
C196 C30 1.497 . S
C214 C3 1.499 . S
C218 C79 1.499 . S
C236 C39 1.498 . S
C232 C18 1.498 . S
C254 C65 1.499 . S
C250 C29 1.499 . S
C272 C67 1.497 . S
C268 C4 1.497 . S
C286 C23 1.497 . S
C290 C51 1.496 . S
