# Generated by pormake.
# Topology ocu, (6,8)-cn, num edge types: 1
# Building blocks:
#     Node 0, Type 0, BuildingBlock: KUMBOL_clean_sbu_0, # of connection points: 6
#     Node 1, Type 0, BuildingBlock: KUMBOL_clean_sbu_0, # of connection points: 6
#     Node 2, Type 0, BuildingBlock: KUMBOL_clean_sbu_0, # of connection points: 6
#     Node 3, Type 0, BuildingBlock: KUMBOL_clean_sbu_0, # of connection points: 6
#     Node 4, Type 0, BuildingBlock: KUMBOL_clean_sbu_0, # of connection points: 6
#     Node 5, Type 0, BuildingBlock: KUMBOL_clean_sbu_0, # of connection points: 6
#     Node 6, Type 0, BuildingBlock: KUMBOL_clean_sbu_0, # of connection points: 6
#     Node 7, Type 0, BuildingBlock: KUMBOL_clean_sbu_0, # of connection points: 6
#     Node 8, Type 1, BuildingBlock: VETTIZ_charged_sbu_0, # of connection points: 8
#     Node 9, Type 1, BuildingBlock: VETTIZ_charged_sbu_0, # of connection points: 8
#     Node 10, Type 1, BuildingBlock: VETTIZ_charged_sbu_0, # of connection points: 8
#     Node 11, Type 1, BuildingBlock: VETTIZ_charged_sbu_0, # of connection points: 8
#     Node 12, Type 1, BuildingBlock: VETTIZ_charged_sbu_0, # of connection points: 8
#     Node 13, Type 1, BuildingBlock: VETTIZ_charged_sbu_0, # of connection points: 8
#     Edge 14, Type (0, 1), BuildingBlock: AJUNOK_clean_linker_0, # of connection points: 2
#     Edge 15, Type (0, 1), BuildingBlock: AJUNOK_clean_linker_0, # of connection points: 2
#     Edge 16, Type (0, 1), BuildingBlock: AJUNOK_clean_linker_0, # of connection points: 2
#     Edge 17, Type (0, 1), BuildingBlock: AJUNOK_clean_linker_0, # of connection points: 2
#     Edge 18, Type (0, 1), BuildingBlock: AJUNOK_clean_linker_0, # of connection points: 2
#     Edge 19, Type (0, 1), BuildingBlock: AJUNOK_clean_linker_0, # of connection points: 2
#     Edge 20, Type (0, 1), BuildingBlock: AJUNOK_clean_linker_0, # of connection points: 2
#     Edge 21, Type (0, 1), BuildingBlock: AJUNOK_clean_linker_0, # of connection points: 2
#     Edge 22, Type (0, 1), BuildingBlock: AJUNOK_clean_linker_0, # of connection points: 2
#     Edge 23, Type (0, 1), BuildingBlock: AJUNOK_clean_linker_0, # of connection points: 2
#     Edge 24, Type (0, 1), BuildingBlock: AJUNOK_clean_linker_0, # of connection points: 2
#     Edge 25, Type (0, 1), BuildingBlock: AJUNOK_clean_linker_0, # of connection points: 2
#     Edge 26, Type (0, 1), BuildingBlock: AJUNOK_clean_linker_0, # of connection points: 2
#     Edge 27, Type (0, 1), BuildingBlock: AJUNOK_clean_linker_0, # of connection points: 2
#     Edge 28, Type (0, 1), BuildingBlock: AJUNOK_clean_linker_0, # of connection points: 2
#     Edge 29, Type (0, 1), BuildingBlock: AJUNOK_clean_linker_0, # of connection points: 2
#     Edge 30, Type (0, 1), BuildingBlock: AJUNOK_clean_linker_0, # of connection points: 2
#     Edge 31, Type (0, 1), BuildingBlock: AJUNOK_clean_linker_0, # of connection points: 2
#     Edge 32, Type (0, 1), BuildingBlock: AJUNOK_clean_linker_0, # of connection points: 2
#     Edge 33, Type (0, 1), BuildingBlock: AJUNOK_clean_linker_0, # of connection points: 2
#     Edge 34, Type (0, 1), BuildingBlock: AJUNOK_clean_linker_0, # of connection points: 2
#     Edge 35, Type (0, 1), BuildingBlock: AJUNOK_clean_linker_0, # of connection points: 2
#     Edge 36, Type (0, 1), BuildingBlock: AJUNOK_clean_linker_0, # of connection points: 2
#     Edge 37, Type (0, 1), BuildingBlock: AJUNOK_clean_linker_0, # of connection points: 2
#     Edge 38, Type (0, 1), BuildingBlock: AJUNOK_clean_linker_0, # of connection points: 2
#     Edge 39, Type (0, 1), BuildingBlock: AJUNOK_clean_linker_0, # of connection points: 2
#     Edge 40, Type (0, 1), BuildingBlock: AJUNOK_clean_linker_0, # of connection points: 2
#     Edge 41, Type (0, 1), BuildingBlock: AJUNOK_clean_linker_0, # of connection points: 2
#     Edge 42, Type (0, 1), BuildingBlock: AJUNOK_clean_linker_0, # of connection points: 2
#     Edge 43, Type (0, 1), BuildingBlock: AJUNOK_clean_linker_0, # of connection points: 2
#     Edge 44, Type (0, 1), BuildingBlock: AJUNOK_clean_linker_0, # of connection points: 2
#     Edge 45, Type (0, 1), BuildingBlock: AJUNOK_clean_linker_0, # of connection points: 2
#     Edge 46, Type (0, 1), BuildingBlock: AJUNOK_clean_linker_0, # of connection points: 2
#     Edge 47, Type (0, 1), BuildingBlock: AJUNOK_clean_linker_0, # of connection points: 2
#     Edge 48, Type (0, 1), BuildingBlock: AJUNOK_clean_linker_0, # of connection points: 2
#     Edge 49, Type (0, 1), BuildingBlock: AJUNOK_clean_linker_0, # of connection points: 2
#     Edge 50, Type (0, 1), BuildingBlock: AJUNOK_clean_linker_0, # of connection points: 2
#     Edge 51, Type (0, 1), BuildingBlock: AJUNOK_clean_linker_0, # of connection points: 2
#     Edge 52, Type (0, 1), BuildingBlock: AJUNOK_clean_linker_0, # of connection points: 2
#     Edge 53, Type (0, 1), BuildingBlock: AJUNOK_clean_linker_0, # of connection points: 2
#     Edge 54, Type (0, 1), BuildingBlock: AJUNOK_clean_linker_0, # of connection points: 2
#     Edge 55, Type (0, 1), BuildingBlock: AJUNOK_clean_linker_0, # of connection points: 2
#     Edge 56, Type (0, 1), BuildingBlock: AJUNOK_clean_linker_0, # of connection points: 2
#     Edge 57, Type (0, 1), BuildingBlock: AJUNOK_clean_linker_0, # of connection points: 2
#     Edge 58, Type (0, 1), BuildingBlock: AJUNOK_clean_linker_0, # of connection points: 2
#     Edge 59, Type (0, 1), BuildingBlock: AJUNOK_clean_linker_0, # of connection points: 2
#     Edge 60, Type (0, 1), BuildingBlock: AJUNOK_clean_linker_0, # of connection points: 2
#     Edge 61, Type (0, 1), BuildingBlock: AJUNOK_clean_linker_0, # of connection points: 2
# Relax obj value: 0.151
# Max RMSD: 0.261
# Mean RMSD: 0.165
data_MOF--net-ocu--node1-KUMBOL_clean_sbu_0--node2-VETTIZ_charged_sbu_0--edge1-AJUNOK_clean_linker_0
_symmetry_space_group_name_H-M    P1
_symmetry_Int_Tables_number       1
_symmetry_cell_setting            triclinic
loop_
_symmetry_equiv_pos_as_xyz
'x, y, z'
_cell_length_a     31.302575
_cell_length_b     29.89732
_cell_length_c     32.363445
_cell_angle_alpha  83.264509
_cell_angle_beta   95.15658
_cell_angle_gamma 107.69037
loop_
_atom_site_label
_atom_site_type_symbol
_atom_site_fract_x
_atom_site_fract_y
_atom_site_fract_z
_atom_type_partial_charge
Gd0 Gd 0.30354 0.31638 0.30905 0.0
Gd1 Gd 0.26868 0.22648 0.25567 0.0
C2 C 0.16247 0.25608 0.15836 0.0
C3 C 0.0932 0.20436 0.18563 0.0
C4 C 0.1647 0.20983 0.22527 0.0
C5 C 0.18704 0.24343 0.19453 0.0
C6 C 0.11745 0.18958 0.2203 0.0
C7 C 0.11568 0.23686 0.15444 0.0
C8 C 0.18541 0.28799 0.12691 0.0
C9 C 0.23192 0.30439 0.13038 0.0
N10 N 0.23276 0.26105 0.19815 0.0
C11 C 0.255 0.28917 0.16537 0.0
H12 H 0.29034 0.29684 0.16375 0.0
C13 C 0.16831 0.15159 0.28006 0.0
N14 N 0.18908 0.19298 0.25711 0.0
C15 C 0.12174 0.13223 0.27779 0.0
C16 C 0.096 0.15213 0.24846 0.0
H17 H 0.18769 0.13168 0.29874 0.0
H18 H 0.09656 0.24682 0.12722 0.0
H19 H 0.2866 0.2521 0.40197 0.0
H20 H 0.1676 0.29893 0.09918 0.0
H21 H 0.25024 0.327 0.10514 0.0
H22 H 0.05711 0.18914 0.18166 0.0
H23 H 0.38086 0.40959 0.25718 0.0
H24 H 0.41234 0.26154 0.4668 0.0
H25 H 0.32954 0.23305 0.46411 0.0
H26 H 0.51828 0.36411 0.37555 0.0
H27 H 0.10598 0.10048 0.29725 0.0
H28 H 0.05997 0.1359 0.24563 0.0
H29 H 0.48222 0.30816 0.43271 0.0
H30 H 0.46222 0.44408 0.2573 0.0
N31 N 0.34312 0.28755 0.36636 0.0
C32 C 0.39338 0.26912 0.43855 0.0
C33 C 0.34673 0.25281 0.43711 0.0
C34 C 0.41496 0.29625 0.40404 0.0
C35 C 0.38868 0.30625 0.36819 0.0
C36 C 0.32221 0.26248 0.40083 0.0
N37 N 0.38256 0.35387 0.305 0.0
C38 C 0.40895 0.33919 0.33622 0.0
C39 C 0.44787 0.41401 0.27914 0.0
C40 C 0.47538 0.39733 0.30913 0.0
C41 C 0.40148 0.39311 0.27848 0.0
C42 C 0.45604 0.36085 0.33907 0.0
H43 H 0.51126 0.41466 0.31037 0.0
O44 O 0.33183 0.38792 0.3266 0.0
O45 O 0.24823 0.29937 0.25395 0.0
O46 O 0.33414 0.27169 0.22751 0.0
O47 O 0.32501 0.3395 0.24399 0.0
O48 O 0.25922 0.36213 0.27514 0.0
O49 O 0.27918 0.33668 0.36255 0.0
O50 O 0.24707 0.15183 0.24476 0.0
O51 O 0.32581 0.24485 0.30986 0.0
O52 O 0.24083 0.26846 0.33899 0.0
O53 O 0.24309 0.19896 0.31983 0.0
O54 O 0.31903 0.18463 0.28548 0.0
O55 O 0.27203 0.20589 0.19532 0.0
C56 C 0.23221 0.33814 0.24705 0.0
C57 C 0.48225 0.34783 0.37308 0.0
C58 C 0.46173 0.31595 0.40564 0.0
C59 C 0.30749 0.37896 0.35866 0.0
C60 C 0.30986 0.4147 0.38685 0.0
C61 C 0.3409 0.45984 0.38186 0.0
C62 C 0.27926 0.40423 0.41795 0.0
C63 C 0.27635 0.43933 0.44167 0.0
C64 C 0.33984 0.49449 0.40685 0.0
C65 C 0.30721 0.48468 0.43607 0.0
C66 C 0.34501 0.31796 0.22275 0.0
C67 C 0.34377 0.20743 0.31552 0.0
C68 C 0.25498 0.16113 0.20554 0.0
C69 C 0.2769 0.1329 0.18739 0.0
C70 C 0.25354 0.10573 0.15542 0.0
C71 C 0.32353 0.1451 0.19221 0.0
C72 C 0.34703 0.13455 0.16249 0.0
C73 C 0.27734 0.09363 0.12633 0.0
C74 C 0.32415 0.10914 0.12912 0.0
C75 C 0.22864 0.22218 0.3445 0.0
H76 H 0.36533 0.46857 0.35826 0.0
H77 H 0.25596 0.36912 0.42231 0.0
H78 H 0.36327 0.52952 0.4025 0.0
H79 H 0.30507 0.51309 0.45282 0.0
H80 H 0.21733 0.09727 0.15102 0.0
H81 H 0.34168 0.16805 0.21563 0.0
H82 H 0.25961 0.07433 0.10056 0.0
H83 H 0.34257 0.10186 0.1052 0.0
Gd84 Gd 0.75629 0.3204 0.29868 0.0
Gd85 Gd 0.81595 0.2423 0.27645 0.0
C86 C 0.94763 0.321 0.21401 0.0
C87 C 0.92352 0.32267 0.14062 0.0
C88 C 0.87045 0.28129 0.1931 0.0
C89 C 0.90352 0.29459 0.22433 0.0
C90 C 0.88097 0.29276 0.15081 0.0
C91 C 0.9568 0.33702 0.17224 0.0
C92 C 0.98179 0.32817 0.24561 0.0
C93 C 0.97243 0.30548 0.28534 0.0
N94 N 0.89382 0.27732 0.26427 0.0
C95 C 0.9285 0.27851 0.29368 0.0
H96 H 0.92258 0.25926 0.32409 0.0
C97 C 0.80171 0.22685 0.17446 0.0
N98 N 0.82945 0.2529 0.20395 0.0
C99 C 0.81025 0.23711 0.1322 0.0
C100 C 0.84937 0.27162 0.12016 0.0
H101 H 0.77288 0.19755 0.18306 0.0
H102 H 0.99018 0.35825 0.16392 0.0
H103 H 0.67839 0.21201 0.27986 0.0
H104 H 1.01598 0.34847 0.23903 0.0
H105 H 0.99917 0.30813 0.30943 0.0
H106 H 0.93171 0.33294 0.10836 0.0
H107 H 0.79642 0.38604 0.37956 0.0
H108 H 0.56245 0.1967 0.34521 0.0
H109 H 0.60075 0.17002 0.29378 0.0
H110 H 0.61426 0.31408 0.44135 0.0
H111 H 0.78706 0.21771 0.10906 0.0
H112 H 0.85619 0.27928 0.08742 0.0
H113 H 0.56787 0.25065 0.40025 0.0
H114 H 0.76826 0.40816 0.43959 0.0
N115 N 0.68396 0.26829 0.31702 0.0
C116 C 0.59646 0.21677 0.33778 0.0
C117 C 0.61782 0.20186 0.30856 0.0
C118 C 0.62044 0.25546 0.35916 0.0
C119 C 0.66488 0.28018 0.34846 0.0
C120 C 0.66191 0.22732 0.29937 0.0
N121 N 0.73488 0.33409 0.36349 0.0
C122 C 0.69126 0.31437 0.37244 0.0
C123 C 0.74626 0.38136 0.42123 0.0
C124 C 0.70158 0.36105 0.43079 0.0
C125 C 0.7623 0.36778 0.38727 0.0
C126 C 0.6735 0.32692 0.4065 0.0
H127 H 0.6892 0.37173 0.45707 0.0
O128 O 0.79892 0.39224 0.30194 0.0
O129 O 0.81552 0.31611 0.26785 0.0
O130 O 0.85879 0.28186 0.33071 0.0
O131 O 0.81777 0.33058 0.34526 0.0
O132 O 0.77047 0.34486 0.23156 0.0
O133 O 0.72629 0.37711 0.29063 0.0
O134 O 0.77584 0.16956 0.27134 0.0
O135 O 0.76117 0.24862 0.31183 0.0
O136 O 0.71482 0.29071 0.23957 0.0
O137 O 0.75124 0.23486 0.2325 0.0
O138 O 0.80202 0.21279 0.34397 0.0
O139 O 0.84875 0.18904 0.27468 0.0
C140 C 0.80899 0.33716 0.23272 0.0
C141 C 0.62853 0.30464 0.41557 0.0
C142 C 0.60207 0.26875 0.39205 0.0
C143 C 0.76571 0.40931 0.29013 0.0
C144 C 0.77352 0.44369 0.25363 0.0
C145 C 0.8061 0.48787 0.25457 0.0
C146 C 0.74542 0.43325 0.2181 0.0
C147 C 0.74186 0.46932 0.18852 0.0
C148 C 0.80746 0.52234 0.22097 0.0
C149 C 0.7742 0.51367 0.1885 0.0
C150 C 0.85404 0.31598 0.35133 0.0
C151 C 0.76754 0.22743 0.34695 0.0
C152 C 0.81111 0.15479 0.27453 0.0
C153 C 0.8098 0.11375 0.30399 0.0
C154 C 0.7805 0.06953 0.29614 0.0
C155 C 0.84124 0.11769 0.33764 0.0
C156 C 0.84676 0.07738 0.36079 0.0
C157 C 0.78581 0.02906 0.31935 0.0
C158 C 0.81904 0.03271 0.35154 0.0
C159 C 0.71931 0.25545 0.2199 0.0
H160 H 0.82923 0.49605 0.28151 0.0
H161 H 0.72013 0.39918 0.21691 0.0
H162 H 0.83191 0.55681 0.22172 0.0
H163 H 0.77149 0.54226 0.16558 0.0
H164 H 0.75499 0.06626 0.27101 0.0
H165 H 0.86299 0.15212 0.34476 0.0
H166 H 0.76566 0.99494 0.31108 0.0
H167 H 0.82384 1.00089 0.36829 0.0
Gd168 Gd 0.78421 0.74613 0.31702 0.0
Gd169 Gd 0.80002 0.84496 0.25676 0.0
C170 C 0.88097 0.82184 0.15411 0.0
C171 C 0.95739 0.84622 0.18388 0.0
C172 C 0.89567 0.85059 0.22292 0.0
C173 C 0.8652 0.83249 0.19034 0.0
C174 C 0.94227 0.85889 0.219 0.0
C175 C 0.92688 0.82787 0.15152 0.0
C176 C 0.8502 0.80574 0.12115 0.0
C177 C 0.80535 0.80303 0.12362 0.0
N178 N 0.82043 0.82583 0.19364 0.0
C179 C 0.79131 0.81471 0.15958 0.0
H180 H 0.75723 0.81585 0.15906 0.0
C181 C 0.91118 0.89262 0.28237 0.0
N182 N 0.88041 0.8634 0.25668 0.0
C183 C 0.95723 0.90044 0.28036 0.0
C184 C 0.97283 0.88216 0.24931 0.0
H185 H 0.90124 0.91272 0.3032 0.0
H186 H 0.93926 0.81923 0.12421 0.0
H187 H 0.79784 0.81253 0.39964 0.0
H188 H 0.86101 0.79691 0.09309 0.0
H189 H 0.78163 0.79287 0.09744 0.0
H190 H 0.9929 0.85192 0.18082 0.0
H191 H 0.71778 0.64677 0.27519 0.0
H192 H 0.70511 0.73773 0.48836 0.0
H193 H 0.77101 0.80404 0.46807 0.0
H194 H 0.60431 0.61439 0.41602 0.0
H195 H 0.98076 0.92227 0.3018 0.0
H196 H 1.00869 0.88917 0.2473 0.0
H197 H 0.64188 0.66927 0.46786 0.0
H198 H 0.64599 0.58654 0.28592 0.0
N199 N 0.74844 0.75305 0.37714 0.0
C200 C 0.71671 0.74178 0.45719 0.0
C201 C 0.75371 0.77919 0.44586 0.0
C202 C 0.69411 0.71106 0.42763 0.0
C203 C 0.71096 0.7175 0.38738 0.0
C204 C 0.76896 0.78415 0.40591 0.0
N205 N 0.71263 0.68737 0.32363 0.0
C206 C 0.69118 0.68526 0.3589 0.0
C207 C 0.65764 0.61467 0.30622 0.0
C208 C 0.63444 0.61354 0.34112 0.0
C209 C 0.69767 0.65048 0.2991 0.0
C210 C 0.65219 0.64768 0.36899 0.0
H211 H 0.6045 0.58451 0.34765 0.0
O212 O 0.78348 0.67559 0.34013 0.0
O213 O 0.82158 0.77418 0.25531 0.0
O214 O 0.73582 0.79746 0.22762 0.0
O215 O 0.74588 0.72806 0.25701 0.0
O216 O 0.82077 0.70912 0.2766 0.0
O217 O 0.83479 0.73494 0.36475 0.0
O218 O 0.83904 0.91691 0.24101 0.0
O219 O 0.75468 0.81346 0.31507 0.0
O220 O 0.84556 0.80087 0.34254 0.0
O221 O 0.82824 0.8681 0.32008 0.0
O222 O 0.75116 0.87601 0.28775 0.0
O223 O 0.77446 0.88894 0.20866 0.0
C224 C 0.83782 0.73892 0.2454 0.0
C225 C 0.6339 0.64315 0.40782 0.0
C226 C 0.65537 0.6742 0.4374 0.0
C227 C 0.81741 0.6892 0.3666 0.0
C228 C 0.81477 0.66176 0.40724 0.0
C229 C 0.77353 0.63587 0.42395 0.0
C230 C 0.85447 0.6548 0.4257 0.0
C231 C 0.85321 0.62056 0.45918 0.0
C232 C 0.77237 0.60289 0.4585 0.0
C233 C 0.81207 0.59452 0.47568 0.0
C234 C 0.72708 0.7514 0.22827 0.0
C235 C 0.73427 0.84753 0.32 0.0
C236 C 0.80908 0.92593 0.21392 0.0
C237 C 0.80176 0.972 0.21473 0.0
C238 C 0.83846 0.01225 0.22103 0.0
C239 C 0.75954 0.97732 0.2032 0.0
C240 C 0.75445 0.02223 0.19456 0.0
C241 C 0.83291 0.05726 0.21393 0.0
C242 C 0.79115 0.06239 0.19939 0.0
C243 C 0.84968 0.8452 0.34683 0.0
H244 H 0.74221 0.63933 0.40938 0.0
H245 H 0.88621 0.67351 0.41201 0.0
H246 H 0.74051 0.58247 0.47087 0.0
H247 H 0.81056 0.56729 0.50114 0.0
H248 H 0.87171 0.00905 0.22975 0.0
H249 H 0.7312 0.94678 0.1971 0.0
H250 H 0.86136 0.08816 0.21795 0.0
H251 H 0.78762 0.09734 0.19122 0.0
Gd252 Gd 0.24882 0.83745 0.29394 0.0
Gd253 Gd 0.31425 0.75898 0.29647 0.0
C254 C 0.25147 0.61414 0.36645 0.0
C255 C 0.30006 0.61671 0.42937 0.0
C256 C 0.31387 0.68426 0.37681 0.0
C257 C 0.27661 0.66075 0.35288 0.0
C258 C 0.3272 0.66122 0.41425 0.0
C259 C 0.26227 0.59316 0.40547 0.0
C260 C 0.21733 0.58909 0.33972 0.0
C261 C 0.20997 0.60974 0.29996 0.0
N262 N 0.26726 0.68156 0.31484 0.0
C263 C 0.23568 0.65577 0.2878 0.0
H264 H 0.23085 0.66924 0.25613 0.0
C265 C 0.38336 0.74388 0.37754 0.0
N266 N 0.34011 0.72694 0.36113 0.0
C267 C 0.39807 0.72229 0.41442 0.0
C268 C 0.36918 0.68174 0.43374 0.0
H269 H 0.40617 0.77563 0.36322 0.0
H270 H 0.24282 0.55783 0.41659 0.0
H271 H 0.3535 0.91383 0.3264 0.0
H272 H 0.19758 0.55325 0.34892 0.0
H273 H 0.18487 0.58996 0.27835 0.0
H274 H 0.30939 0.5991 0.45842 0.0
H275 H 0.17274 0.81326 0.21177 0.0
H276 H 0.37427 0.04077 0.24813 0.0
H277 H 0.39374 0.99639 0.31217 0.0
H278 H 0.27215 0.9971 0.13134 0.0
H279 H 0.43154 0.73729 0.42806 0.0
H280 H 0.38067 0.66499 0.46228 0.0
H281 H 0.33309 0.03801 0.17953 0.0
H282 H 0.15927 0.84814 0.14186 0.0
N283 N 0.30269 0.91199 0.27745 0.0
C284 C 0.35402 1.00485 0.25594 0.0
C285 C 0.36484 0.98005 0.29227 0.0
C286 C 0.31916 0.98194 0.22878 0.0
C287 C 0.29299 0.93536 0.24072 0.0
C288 C 0.34012 0.93301 0.30148 0.0
N289 N 0.23429 0.8666 0.22484 0.0
C290 C 0.25886 0.91168 0.21336 0.0
C291 C 0.1881 0.86597 0.16112 0.0
C292 C 0.21534 0.91045 0.14742 0.0
C293 C 0.19717 0.84528 0.20053 0.0
C294 C 0.25041 0.93437 0.17394 0.0
H295 H 0.20805 0.92666 0.11695 0.0
O296 O 0.1764 0.82565 0.29269 0.0
O297 O 0.24907 0.76302 0.31726 0.0
O298 O 0.26698 0.75074 0.23829 0.0
O299 O 0.21072 0.77418 0.26251 0.0
O300 O 0.22984 0.80049 0.35839 0.0
O301 O 0.22289 0.89488 0.29946 0.0
O302 O 0.38194 0.75941 0.29008 0.0
O303 O 0.29911 0.82116 0.25773 0.0
O304 O 0.2934 0.85444 0.35262 0.0
O305 O 0.33563 0.80209 0.35265 0.0
O306 O 0.36562 0.82552 0.26854 0.0
O307 O 0.32708 0.70846 0.25955 0.0
C308 C 0.23457 0.75966 0.35363 0.0
C309 C 0.27725 0.98005 0.16198 0.0
C310 C 0.31143 1.00363 0.18939 0.0
C311 C 0.18107 0.86953 0.29718 0.0
C312 C 0.15414 0.87916 0.32698 0.0
C313 C 0.1131 0.88749 0.31374 0.0
C314 C 0.17289 0.88756 0.3671 0.0
C315 C 0.15209 0.90693 0.39307 0.0
C316 C 0.09118 0.90514 0.34073 0.0
C317 C 0.11087 0.91537 0.38029 0.0
C318 C 0.22547 0.75374 0.23567 0.0
C319 C 0.3384 0.84631 0.24845 0.0
C320 C 0.37054 0.72521 0.26624 0.0
C321 C 0.39994 0.73038 0.23217 0.0
C322 C 0.44645 0.75133 0.23884 0.0
C323 C 0.38312 0.70922 0.19538 0.0
C324 C 0.41263 0.7063 0.16651 0.0
C325 C 0.47574 0.75101 0.20908 0.0
C326 C 0.45911 0.72821 0.17331 0.0
C327 C 0.32493 0.83546 0.36938 0.0
H328 H 0.09888 0.88176 0.28233 0.0
H329 H 0.20482 0.88145 0.3773 0.0
H330 H 0.05962 0.91192 0.33067 0.0
H331 H 0.09414 0.92986 0.4009 0.0
H332 H 0.46033 0.76682 0.26758 0.0
H333 H 0.34739 0.69252 0.19035 0.0
H334 H 0.51157 0.76658 0.21462 0.0
H335 H 0.48298 0.72553 0.15218 0.0
Gd336 Gd 0.27547 0.83252 0.78987 0.0
Gd337 Gd 0.32871 0.74934 0.81773 0.0
C338 C 0.47046 0.78626 0.7701 0.0
C339 C 0.4609 0.7262 0.72308 0.0
C340 C 0.3963 0.73363 0.75562 0.0
C341 C 0.42404 0.76957 0.77726 0.0
C342 C 0.41437 0.71253 0.72725 0.0
C343 C 0.48894 0.76312 0.74445 0.0
C344 C 0.49647 0.82766 0.78647 0.0
C345 C 0.47555 0.85347 0.80609 0.0
N346 N 0.40478 0.79203 0.80092 0.0
C347 C 0.42958 0.83578 0.812 0.0
H348 H 0.41506 0.85938 0.82322 0.0
C349 C 0.32269 0.69139 0.73387 0.0
N350 N 0.3513 0.72268 0.75906 0.0
C351 C 0.33898 0.67001 0.7052 0.0
C352 C 0.38505 0.68004 0.7023 0.0
H353 H 0.28719 0.68012 0.73698 0.0
H354 H 0.52455 0.77508 0.73927 0.0
H355 H 0.1804 0.79722 0.72455 0.0
H356 H 0.53197 0.84166 0.78151 0.0
H357 H 0.49459 0.88768 0.81586 0.0
H358 H 0.47529 0.70997 0.7019 0.0
H359 H 0.3029 0.90105 0.87323 0.0
H360 H 0.06882 0.73799 0.80115 0.0
H361 H 0.10078 0.75331 0.73198 0.0
H362 H 0.12601 0.79387 0.93338 0.0
H363 H 0.31586 0.64493 0.68597 0.0
H364 H 0.39758 0.66333 0.68008 0.0
H365 H 0.07864 0.75305 0.87633 0.0
H366 H 0.27426 0.90139 0.94045 0.0
N367 N 0.19566 0.80152 0.78992 0.0
C368 C 0.10421 0.75639 0.79828 0.0
C369 C 0.12215 0.76493 0.75923 0.0
C370 C 0.1315 0.77442 0.83268 0.0
C371 C 0.17762 0.79742 0.82745 0.0
C372 C 0.16772 0.78913 0.75536 0.0
N373 N 0.24816 0.84318 0.85355 0.0
C374 C 0.20441 0.81968 0.85992 0.0
C375 C 0.25462 0.87703 0.91874 0.0
C376 C 0.21189 0.84821 0.92803 0.0
C377 C 0.27153 0.8753 0.88069 0.0
C378 C 0.18552 0.82041 0.89789 0.0
H379 H 0.19866 0.84976 0.95747 0.0
O380 O 0.30663 0.907 0.79511 0.0
O381 O 0.33218 0.80952 0.76731 0.0
O382 O 0.35726 0.7978 0.86877 0.0
O383 O 0.33436 0.8592 0.83474 0.0
O384 O 0.3146 0.85989 0.72971 0.0
O385 O 0.24283 0.88235 0.75966 0.0
O386 O 0.30204 0.67382 0.81663 0.0
O387 O 0.26312 0.76228 0.83194 0.0
O388 O 0.24769 0.7778 0.74337 0.0
O389 O 0.26034 0.71708 0.78755 0.0
O390 O 0.30158 0.74645 0.88255 0.0
O391 O 0.36173 0.70323 0.85556 0.0
C392 C 0.34497 0.83804 0.73343 0.0
C393 C 0.14061 0.79473 0.90406 0.0
C394 C 0.11367 0.77156 0.87157 0.0
C395 C 0.27645 0.9188 0.76969 0.0
C396 C 0.29377 0.9562 0.73636 0.0
C397 C 0.33102 0.99567 0.74297 0.0
C398 C 0.26944 0.95452 0.69848 0.0
C399 C 0.27799 0.99317 0.66844 0.0
C400 C 0.34234 0.03326 0.71167 0.0
C401 C 0.3153 0.03256 0.67468 0.0
C402 C 0.3545 0.84122 0.86682 0.0
C403 C 0.26218 0.7517 0.8724 0.0
C404 C 0.32817 0.66585 0.848 0.0
C405 C 0.30387 0.63803 0.88369 0.0
C406 C 0.27044 0.59485 0.87956 0.0
C407 C 0.3132 0.65503 0.92282 0.0
C408 C 0.30607 0.62198 0.95758 0.0
C409 C 0.24942 0.56926 0.91514 0.0
C410 C 0.26663 0.58352 0.9547 0.0
C411 C 0.23908 0.73212 0.75471 0.0
H412 H 0.35053 0.99795 0.77243 0.0
H413 H 0.23962 0.92495 0.69464 0.0
H414 H 0.37069 0.06391 0.71696 0.0
H415 H 0.32179 0.06345 0.65233 0.0
H416 H 0.26068 0.58138 0.8494 0.0
H417 H 0.33654 0.6896 0.92553 0.0
H418 H 0.22277 0.53656 0.91234 0.0
H419 H 0.25566 0.55925 0.98191 0.0
Gd420 Gd 0.3224 0.29668 0.76669 0.0
Gd421 Gd 0.22755 0.26341 0.83209 0.0
C422 C 0.23378 0.1591 0.94762 0.0
C423 C 0.1694 0.09209 0.93339 0.0
C424 C 0.18652 0.16299 0.88484 0.0
C425 C 0.22385 0.1834 0.90955 0.0
C426 C 0.15778 0.11782 0.8973 0.0
C427 C 0.20747 0.11271 0.95851 0.0
C428 C 0.26809 0.183 0.97481 0.0
C429 C 0.28975 0.23059 0.96486 0.0
N430 N 0.24757 0.22878 0.89856 0.0
C431 C 0.27863 0.25311 0.92689 0.0
H432 H 0.29705 0.2894 0.92036 0.0
C433 C 0.13479 0.17407 0.82994 0.0
N434 N 0.17578 0.18926 0.85084 0.0
C435 C 0.10499 0.12976 0.84127 0.0
C436 C 0.11702 0.10097 0.87446 0.0
H437 H 0.12548 0.19599 0.80383 0.0
H438 H 0.215 0.09335 0.98728 0.0
H439 H 0.25273 0.27932 0.67978 0.0
H440 H 0.27675 0.16566 1.00427 0.0
H441 H 0.31551 0.24998 0.98619 0.0
H442 H 0.14812 0.0571 0.94312 0.0
H443 H 0.42502 0.35553 0.80168 0.0
H444 H 0.2891 0.40263 0.59471 0.0
H445 H 0.24004 0.32214 0.61303 0.0
H446 H 0.42331 0.49919 0.65996 0.0
H447 H 0.07287 0.11777 0.82423 0.0
H448 H 0.09388 0.06666 0.8832 0.0
H449 H 0.35666 0.46945 0.61316 0.0
H450 H 0.48365 0.43073 0.78453 0.0
N451 N 0.3074 0.33547 0.70134 0.0
C452 C 0.29445 0.38435 0.62469 0.0
C453 C 0.26692 0.33878 0.63478 0.0
C454 C 0.33 0.40466 0.6525 0.0
C455 C 0.33595 0.37876 0.69086 0.0
C456 C 0.27433 0.31454 0.67306 0.0
N457 N 0.3797 0.36742 0.75167 0.0
C458 C 0.37342 0.39529 0.71692 0.0
C459 C 0.45267 0.42133 0.76537 0.0
C460 C 0.44562 0.45168 0.73098 0.0
C461 C 0.41941 0.37878 0.77499 0.0
C462 C 0.40601 0.4384 0.70573 0.0
H463 H 0.4715 0.48449 0.72346 0.0
O464 O 0.37817 0.26634 0.77411 0.0
O465 O 0.29281 0.2476 0.82363 0.0
O466 O 0.28433 0.3232 0.85541 0.0
O467 O 0.33071 0.36001 0.80151 0.0
O468 O 0.35982 0.28701 0.82826 0.0
O469 O 0.33674 0.25956 0.7174 0.0
O470 O 0.16301 0.26949 0.84706 0.0
O471 O 0.25526 0.31053 0.77436 0.0
O472 O 0.26929 0.23748 0.74209 0.0
O473 O 0.21215 0.20571 0.78734 0.0
O474 O 0.18767 0.2747 0.77212 0.0
O475 O 0.22269 0.3249 0.85971 0.0
C476 C 0.3291 0.25437 0.84766 0.0
C477 C 0.3989 0.46576 0.66888 0.0
C478 C 0.36094 0.44886 0.64225 0.0
C479 C 0.37017 0.24864 0.73843 0.0
C480 C 0.40975 0.24893 0.71597 0.0
C481 C 0.44278 0.29157 0.70587 0.0
C482 C 0.41624 0.20602 0.70695 0.0
C483 C 0.45616 0.20604 0.68925 0.0
C484 C 0.48186 0.29179 0.68806 0.0
C485 C 0.48867 0.24957 0.68011 0.0
C486 C 0.31594 0.35919 0.83876 0.0
C487 C 0.21836 0.30549 0.75123 0.0
C488 C 0.17971 0.30922 0.86333 0.0
C489 C 0.16309 0.31274 0.90399 0.0
C490 C 0.15972 0.27589 0.93578 0.0
C491 C 0.14957 0.3523 0.91107 0.0
C492 C 0.13178 0.35408 0.9494 0.0
C493 C 0.14289 0.27785 0.97375 0.0
C494 C 0.12903 0.31644 0.98054 0.0
C495 C 0.23257 0.20513 0.75326 0.0
H496 H 0.43857 0.3247 0.7122 0.0
H497 H 0.39079 0.17282 0.71431 0.0
H498 H 0.50717 0.32495 0.68042 0.0
H499 H 0.51915 0.251 0.66588 0.0
H500 H 0.16987 0.24537 0.93114 0.0
H501 H 0.15206 0.38096 0.88671 0.0
H502 H 0.14046 0.24921 0.99808 0.0
H503 H 0.1164 0.31702 1.0105 0.0
Gd504 Gd 0.76526 0.33243 0.7816 0.0
Gd505 Gd 0.8122 0.23999 0.8172 0.0
C506 C 0.7461 0.14039 0.92576 0.0
C507 C 0.80344 0.15893 0.98199 0.0
C508 C 0.8164 0.20171 0.91312 0.0
C509 C 0.77394 0.17528 0.89857 0.0
C510 C 0.83192 0.19242 0.9547 0.0
C511 C 0.76062 0.13311 0.9676 0.0
C512 C 0.70448 0.11332 0.91007 0.0
C513 C 0.69227 0.11923 0.86771 0.0
N514 N 0.76041 0.18225 0.85772 0.0
C515 C 0.72108 0.1536 0.84167 0.0
H516 H 0.71082 0.15812 0.80918 0.0
C517 C 0.88876 0.25154 0.89704 0.0
N518 N 0.84374 0.23369 0.8861 0.0
C519 C 0.90521 0.24429 0.93802 0.0
C520 C 0.87641 0.21537 0.96723 0.0
H521 H 0.9115 0.27337 0.87435 0.0
H522 H 0.73937 0.1067 0.98885 0.0
H523 H 0.86047 0.41907 0.81741 0.0
H524 H 0.68178 0.0877 0.93059 0.0
H525 H 0.66025 0.09809 0.85518 0.0
H526 H 0.8147 0.1518 1.01405 0.0
H527 H 0.68632 0.32096 0.70192 0.0
H528 H 0.92766 0.49749 0.71234 0.0
H529 H 0.92297 0.47997 0.78849 0.0
H530 H 0.82819 0.44189 0.59664 0.0
H531 H 0.94022 0.26051 0.94689 0.0
H532 H 0.88941 0.20923 0.99887 0.0
H533 H 0.89421 0.4795 0.64143 0.0
H534 H 0.68124 0.34146 0.62643 0.0
N535 N 0.82693 0.39828 0.75866 0.0
C536 C 0.89925 0.47001 0.72494 0.0
C537 C 0.89669 0.46019 0.76783 0.0
C538 C 0.86452 0.44504 0.69882 0.0
C539 C 0.82791 0.40982 0.7167 0.0
C540 C 0.86037 0.4244 0.7842 0.0
N541 N 0.75668 0.35447 0.70926 0.0
C542 C 0.79187 0.38709 0.69134 0.0
C543 C 0.71302 0.35357 0.64399 0.0
C544 C 0.75078 0.38218 0.62413 0.0
C545 C 0.71633 0.34122 0.68687 0.0
C546 C 0.79044 0.40054 0.64799 0.0
H547 H 0.74829 0.39186 0.59087 0.0
O548 O 0.69447 0.3255 0.77501 0.0
O549 O 0.74965 0.26013 0.81597 0.0
O550 O 0.76337 0.20822 0.7617 0.0
O551 O 0.73514 0.27034 0.73694 0.0
O552 O 0.74068 0.31473 0.84591 0.0
O553 O 0.7422 0.39324 0.78674 0.0
O554 O 0.87628 0.22796 0.80917 0.0
O555 O 0.82834 0.31226 0.78325 0.0
O556 O 0.80393 0.35856 0.84338 0.0
O557 O 0.84136 0.30214 0.86124 0.0
O558 O 0.84093 0.25965 0.75433 0.0
O559 O 0.81542 0.16891 0.82018 0.0
C560 C 0.73643 0.27045 0.84871 0.0
C561 C 0.82802 0.43291 0.63002 0.0
C562 C 0.86527 0.45462 0.65543 0.0
C563 C 0.69991 0.36831 0.78394 0.0
C564 C 0.6699 0.3721 0.81512 0.0
C565 C 0.62377 0.34867 0.80972 0.0
C566 C 0.68606 0.39757 0.85014 0.0
C567 C 0.65616 0.39921 0.87947 0.0
C568 C 0.59424 0.34975 0.83903 0.0
C569 C 0.61025 0.37472 0.87375 0.0
C570 C 0.73745 0.22643 0.73371 0.0
C571 C 0.84386 0.30363 0.75118 0.0
C572 C 0.85855 0.18229 0.81594 0.0
C573 C 0.8765 0.15001 0.7978 0.0
C574 C 0.88954 0.11648 0.82572 0.0
C575 C 0.87892 0.14987 0.75466 0.0
C576 C 0.89459 0.11565 0.73989 0.0
C577 C 0.90473 0.08259 0.81112 0.0
C578 C 0.90717 0.08198 0.76846 0.0
C579 C 0.83332 0.34218 0.86847 0.0
H580 H 0.61057 0.32927 0.78279 0.0
H581 H 0.72142 0.4165 0.85442 0.0
H582 H 0.55873 0.33176 0.83451 0.0
H583 H 0.58641 0.37647 0.89535 0.0
H584 H 0.88786 0.11647 0.85906 0.0
H585 H 0.87036 0.17687 0.73314 0.0
H586 H 0.91553 0.05761 0.83316 0.0
H587 H 0.92158 0.05707 0.75775 0.0
Gd588 Gd 0.79438 0.84204 0.82731 0.0
Gd589 Gd 0.78395 0.74459 0.76938 0.0
C590 C 0.69992 0.76079 0.64887 0.0
C591 C 0.62564 0.71062 0.66587 0.0
C592 C 0.68833 0.71925 0.71794 0.0
C593 C 0.71634 0.75137 0.69013 0.0
C594 C 0.64286 0.69769 0.70547 0.0
C595 C 0.65422 0.74174 0.63747 0.0
C596 C 0.73034 0.78692 0.61951 0.0
C597 C 0.77593 0.80267 0.63138 0.0
N598 N 0.76052 0.76951 0.7018 0.0
C599 C 0.79045 0.79363 0.67275 0.0
H600 H 0.82593 0.8043 0.68049 0.0
C601 C 0.68213 0.66561 0.77832 0.0
N602 N 0.70656 0.705 0.75503 0.0
C603 C 0.63672 0.64451 0.76805 0.0
C604 C 0.61668 0.66131 0.73191 0.0
H605 H 0.69747 0.64927 0.80465 0.0
H606 H 0.64101 0.74933 0.6062 0.0
H607 H 0.76518 0.77357 0.91531 0.0
H608 H 0.71914 0.79412 0.58744 0.0
H609 H 0.79996 0.82175 0.60867 0.0
H610 H 0.59081 0.69466 0.65605 0.0
H611 H 0.86151 0.94997 0.79459 0.0
H612 H 0.87693 0.79698 1.00406 0.0
H613 H 0.7984 0.75379 0.98407 0.0
H614 H 0.98575 0.92863 0.93771 0.0
H615 H 0.61757 0.61433 0.7874 0.0
H616 H 0.58175 0.64399 0.72341 0.0
H617 H 0.94689 0.86207 0.98628 0.0
H618 H 0.93945 0.9995 0.80823 0.0
N619 N 0.82525 0.82208 0.8937 0.0
C620 C 0.86277 0.80444 0.97316 0.0
C621 C 0.81859 0.77982 0.96191 0.0
C622 C 0.88741 0.83998 0.94502 0.0
C623 C 0.86734 0.84823 0.90507 0.0
C624 C 0.80008 0.79001 0.92228 0.0
N625 N 0.86581 0.89621 0.84253 0.0
C626 C 0.8887 0.88602 0.8782 0.0
C627 C 0.9255 0.96782 0.8283 0.0
C628 C 0.9505 0.95632 0.86349 0.0
C629 C 0.88207 0.93872 0.81973 0.0
C630 C 0.93145 0.91602 0.88991 0.0
H631 H 0.98352 0.97984 0.87093 0.0
O632 O 0.78609 0.90946 0.83515 0.0
O633 O 0.76183 0.81377 0.76475 0.0
O634 O 0.84836 0.79956 0.75311 0.0
O635 O 0.84089 0.86791 0.77424 0.0
O636 O 0.75826 0.87836 0.77672 0.0
O637 O 0.74422 0.84648 0.86878 0.0
O638 O 0.77252 0.67335 0.75489 0.0
O639 O 0.81763 0.77442 0.83098 0.0
O640 O 0.73027 0.78468 0.8417 0.0
O641 O 0.74603 0.71771 0.82834 0.0
O642 O 0.8241 0.71158 0.81885 0.0
O643 O 0.83311 0.7263 0.73327 0.0
C644 C 0.74328 0.84784 0.74994 0.0
C645 C 0.95288 0.90612 0.92836 0.0
C646 C 0.93075 0.86829 0.95602 0.0
C647 C 0.75315 0.89195 0.8598 0.0
C648 C 0.74767 0.92202 0.89065 0.0
C649 C 0.78518 0.95476 0.90816 0.0
C650 C 0.7041 0.92271 0.89796 0.0
C651 C 0.69826 0.95689 0.92151 0.0
C652 C 0.77937 0.98843 0.93183 0.0
C653 C 0.73626 0.98981 0.93818 0.0
C654 C 0.86036 0.84571 0.7525 0.0
C655 C 0.83665 0.74129 0.84664 0.0
C656 C 0.80956 0.6819 0.73586 0.0
C657 C 0.82072 0.64233 0.7184 0.0
C658 C 0.79009 0.59699 0.72502 0.0
C659 C 0.86067 0.64708 0.69747 0.0
C660 C 0.8684 0.6066 0.68331 0.0
C661 C 0.79805 0.55776 0.71204 0.0
C662 C 0.83654 0.56243 0.6917 0.0
C663 C 0.72323 0.73896 0.84724 0.0
H664 H 0.8189 0.95515 0.90253 0.0
H665 H 0.67493 0.89785 0.88422 0.0
H666 H 0.80841 0.01397 0.94486 0.0
H667 H 0.73249 0.01635 0.9565 0.0
H668 H 0.75959 0.59133 0.7409 0.0
H669 H 0.88499 0.68145 0.69207 0.0
H670 H 0.77413 0.52323 0.71792 0.0
H671 H 0.84141 0.53084 0.68244 0.0
Fe672 Fe 0.0611 0.1389 0.54946 0.0
O673 O 0.04843 0.06999 0.56812 0.0
Fe674 Fe 0.09788 0.03955 0.5569 0.0
Fe675 Fe 0.99457 0.02002 0.54723 0.0
O676 O 0.05289 0.07214 0.56516 0.0
O677 O 0.04487 0.99028 0.5336 0.0
O678 O 0.03947 0.98843 0.53561 0.0
Fe679 Fe 0.03128 0.92151 0.55474 0.0
C680 C 0.97167 0.09964 0.5893 0.0
O681 O 1.01248 0.12931 0.50117 0.0
O682 O 1.00331 0.05528 0.48976 0.0
O683 O 0.08761 0.93042 0.52382 0.0
O684 O 0.13838 0.99871 0.54536 0.0
O685 O 0.11439 0.07636 0.49818 0.0
O686 O 0.11031 0.1466 0.50984 0.0
O687 O 0.94515 0.96339 0.51556 0.0
O688 O 0.98672 0.91434 0.50541 0.0
C689 C 0.12404 0.12101 0.48892 0.0
O690 O 0.07464 0.92997 0.60652 0.0
O691 O 0.0833 1.00344 0.61398 0.0
O692 O 1.01031 0.13022 0.58509 0.0
O693 O 0.95647 0.06154 0.56907 0.0
C694 C 0.99572 0.09429 0.47998 0.0
C695 C 0.95268 0.93004 0.49609 0.0
C696 C 0.97245 0.9406 0.61496 0.0
O697 O 0.98538 0.9849 0.6061 0.0
O698 O 0.97775 0.91314 0.59028 0.0
C699 C 0.12794 0.95868 0.52926 0.0
O700 O 0.14664 0.09255 0.58655 0.0
O701 O 0.10942 0.14552 0.59753 0.0
C702 C 0.09548 0.96683 0.62383 0.0
C703 C 0.14071 0.12535 0.60641 0.0
Fe704 Fe 0.497 0.96991 0.06948 0.0
O705 O 0.50723 0.0383 0.06091 0.0
Fe706 Fe 0.45505 0.06535 0.03366 0.0
Fe707 Fe 0.55967 0.08208 0.03097 0.0
O708 O 0.5024 0.03725 0.06064 0.0
O709 O 0.50764 0.10954 1.00244 0.0
O710 O 0.5137 0.11185 1.00409 0.0
Fe711 Fe 0.52611 0.18056 1.00093 0.0
C712 C 0.59334 0.01728 0.09646 0.0
O713 O 0.53798 0.96969 0.02367 0.0
O714 O 0.54945 0.03756 0.98369 0.0
O715 O 0.4675 0.16943 0.96216 0.0
O716 O 0.41434 0.10792 0.99699 0.0
O717 O 0.43954 0.01741 0.98773 0.0
O718 O 0.44222 0.95224 0.02836 0.0
O719 O 0.60868 0.13205 0.99459 0.0
O720 O 0.5698 0.17949 0.9577 0.0
C721 C 0.43249 0.97244 0.99355 0.0
O722 O 0.48704 0.18108 0.04742 0.0
O723 O 0.47103 0.10914 0.08008 0.0
O724 O 0.55461 0.98969 0.10741 0.0
O725 O 0.6007 0.04623 0.06311 0.0
C726 C 0.5518 0.99524 0.99047 0.0
C727 C 0.6038 0.16297 0.96398 0.0
C728 C 0.59208 0.16925 0.0784 0.0
O729 O 0.57575 0.12449 0.08077 0.0
O730 O 0.58234 0.19367 0.04561 0.0
C731 C 0.42591 0.14536 0.9688 0.0
O732 O 0.40844 0.01326 0.07722 0.0
O733 O 0.45323 0.96995 0.11184 0.0
C734 C 0.48093 0.15353 0.08056 0.0
C735 C 0.41705 0.98259 0.10789 0.0
Fe736 Fe 1.02768 0.64278 0.05616 0.0
O737 O 0.9889 0.57227 0.05322 0.0
Fe738 Fe 0.12577 0.57169 0.08599 0.0
Fe739 Fe 0.91984 0.55322 0.05359 0.0
O740 O 0.05886 0.58468 0.08772 0.0
O741 O 0.06041 0.55407 0.09747 0.0
O742 O 0.98603 0.55593 0.0523 0.0
Fe743 Fe 1.01569 0.49964 0.07436 0.0
C744 C 0.94269 0.64286 0.11731 0.0
O745 O 0.9795 0.66889 1.01081 0.0
O746 O 0.91972 0.60513 1.00188 0.0
O747 O 0.0474 0.50916 0.01948 0.0
O748 O 0.11698 0.52293 0.04364 0.0
O749 O 0.13467 0.62638 0.03366 0.0
O750 O 0.07446 0.64962 1.0047 0.0
O751 O 0.91414 0.49762 1.01368 0.0
O752 O 0.9611 0.4522 0.03814 0.0
C753 C 0.117 0.64984 1.00397 0.0
O754 O 0.06381 0.4534 0.10924 0.0
O755 O 0.12407 0.51088 0.13318 0.0
O756 O 0.98644 0.65447 0.10977 0.0
O757 O 0.91775 0.60708 0.09732 0.0
C758 C 0.94038 0.64923 0.99159 0.0
C759 C 0.92857 0.4609 1.01212 0.0
C760 C 0.93588 0.47895 0.12858 0.0
O761 O 0.91496 0.50226 0.10321 0.0
O762 O 0.97772 0.48279 0.12691 0.0
C763 C 0.08592 0.50434 0.01789 0.0
O764 O 0.14124 0.62099 0.12793 0.0
O765 O 0.08173 0.63458 0.0961 0.0
C766 C 0.10413 0.46508 0.13272 0.0
C767 C 0.11604 0.64769 0.12179 0.0
Fe768 Fe 0.53173 0.52623 0.94352 0.0
O769 O 0.53407 0.51874 1.00413 0.0
Fe770 Fe 0.47902 0.52482 0.032 0.0
Fe771 Fe 0.58185 0.55729 0.04165 0.0
O772 O 0.52932 0.51335 1.00557 0.0
O773 O 0.52633 0.56219 0.06974 0.0
O774 O 0.53073 0.56788 0.06802 0.0
Fe775 Fe 0.52347 0.55714 0.12927 0.0
C776 C 0.62187 0.51186 0.97847 0.0
O777 O 0.57826 0.59056 0.9399 0.0
O778 O 0.59352 0.6192 1.00204 0.0
O779 O 0.47321 0.58734 0.11392 0.0
O780 O 0.43174 0.54554 0.06048 0.0
O781 O 0.49172 0.58662 0.99458 0.0
O782 O 0.47949 0.55762 0.93493 0.0
O783 O 0.62502 0.5998 0.08676 0.0
O784 O 0.57577 0.61808 0.1264 0.0
C785 C 0.47321 0.5857 0.95875 0.0
O786 O 0.4737 0.49353 0.13227 0.0
O787 O 0.46677 0.46259 0.07172 0.0
O788 O 0.5857 0.5003 0.9541 0.0
O789 O 0.6286 0.53776 1.0097 0.0
C790 C 0.59652 0.62372 0.96258 0.0
C791 C 0.61497 0.62587 0.11219 0.0
C792 C 0.58014 0.49406 0.11833 0.0
O793 O 0.57243 0.49632 0.0794 0.0
O794 O 0.57078 0.52183 0.14067 0.0
C795 C 0.43857 0.57572 0.08789 0.0
O796 O 0.43522 0.48437 0.98732 0.0
O797 O 0.48245 0.46396 0.94798 0.0
C798 C 0.4603 0.4586 0.11056 0.0
C799 C 0.4429 0.46102 0.95862 0.0
Fe800 Fe 0.03334 0.38909 0.56771 0.0
O801 O 0.04076 0.45643 0.56743 0.0
Fe802 Fe 0.06714 0.50374 0.51385 0.0
Fe803 Fe 0.06788 0.49573 0.61513 0.0
O804 O 0.03966 0.4573 0.56187 0.0
O805 O 0.09887 0.54096 0.56139 0.0
O806 O 0.10093 0.53971 0.56811 0.0
Fe807 Fe 0.10361 0.60801 0.56092 0.0
C808 C 0.99009 0.40657 0.64486 0.0
O809 O 0.08042 0.38756 0.61777 0.0
O810 O 0.11948 0.46049 0.63164 0.0
O811 O 0.14712 0.61452 0.5152 0.0
O812 O 0.10497 0.56298 0.46974 0.0
O813 O 0.11805 0.4747 0.51622 0.0
O814 O 0.08369 0.39685 0.52792 0.0
O815 O 0.10317 0.54889 0.65646 0.0
O816 O 0.14708 0.60613 0.61098 0.0
C817 C 0.11784 0.43191 0.51904 0.0
O818 O 0.0548 0.60693 0.51348 0.0
O819 O 1.01542 0.53171 0.51189 0.0
O820 O 0.98773 0.38509 0.6116 0.0
O821 O 1.02321 0.44351 0.65498 0.0
C822 C 0.11461 0.41548 0.63568 0.0
C823 C 0.13457 0.58919 0.64802 0.0
C824 C 1.01955 0.57011 0.61127 0.0
O825 O 1.01567 0.52737 0.60566 0.0
O826 O 0.0558 0.60258 0.60374 0.0
C827 C 0.13737 0.60221 0.47773 0.0
O828 O 1.02529 0.45431 0.47097 0.0
O829 O 0.98971 0.3893 0.51449 0.0
C830 C 1.01811 0.57507 0.50683 0.0
C831 C 0.99415 0.41333 0.47806 0.0
Fe832 Fe 0.56328 0.90842 0.53051 0.0
O833 O 0.58166 0.97957 0.52903 0.0
Fe834 Fe 0.55451 0.01734 0.46321 0.0
Fe835 Fe 0.5661 0.01074 0.57715 0.0
O836 O 0.57983 0.98129 0.51627 0.0
O837 O 0.54018 0.04691 0.51313 0.0
O838 O 0.54224 0.0463 0.52418 0.0
Fe839 Fe 0.55072 0.11632 0.51722 0.0
C840 C 0.4937 0.91693 0.59886 0.0
O841 O 0.61663 0.91573 0.57853 0.0
O842 O 0.59973 0.96345 0.62183 0.0
O843 O 0.59894 0.13533 0.4718 0.0
O844 O 0.61446 0.07057 0.45656 0.0
O845 O 0.58818 0.96987 0.42606 0.0
O846 O 0.6039 0.91321 0.47518 0.0
O847 O 0.62839 0.06667 0.5846 0.0
O848 O 0.60247 0.12804 0.56636 0.0
C849 C 0.60829 0.93409 0.43648 0.0
O850 O 0.49791 0.11324 0.46679 0.0
O851 O 0.51166 0.06718 0.42091 0.0
O852 O 0.51749 0.89442 0.5836 0.0
O853 O 0.50164 0.96046 0.58498 0.0
C854 C 0.62087 0.93181 0.61521 0.0
C855 C 0.62967 0.10969 0.58954 0.0
C856 C 0.51409 0.07838 0.60387 0.0
O857 O 0.53967 0.05044 0.61503 0.0
O858 O 0.5082 0.09667 0.56601 0.0
C859 C 0.62278 0.11539 0.45447 0.0
O860 O 0.49412 0.96718 0.46664 0.0
O861 O 0.5059 0.89809 0.48923 0.0
C862 C 0.48974 0.0993 0.42916 0.0
C863 C 0.48052 0.92265 0.47263 0.0
C864 C 0.18646 0.14643 0.38739 0.0
C865 C 0.20163 0.19636 0.38128 0.0
C866 C 0.1611 0.12204 0.42157 0.0
C867 C 0.15189 0.14623 0.45277 0.0
H868 H 0.19449 0.12547 0.36608 0.0
H869 H 0.14872 0.08392 0.42358 0.0
S870 S 0.19036 0.27678 0.45626 0.0
N871 N 0.20745 0.26865 0.41181 0.0
N872 N 0.16481 0.22355 0.47748 0.0
C873 C 0.16912 0.19611 0.44835 0.0
C874 C 0.1928 0.22085 0.41258 0.0
C875 C 0.92724 0.11187 0.38214 0.0
C876 C 0.88406 0.08273 0.39222 0.0
C877 C 0.96348 0.11748 0.41149 0.0
C878 C 0.95731 0.09363 0.45126 0.0
H879 H 0.93319 0.12973 0.35114 0.0
H880 H 0.99655 0.13914 0.40268 0.0
S881 S 0.85044 0.01687 0.49399 0.0
N882 N 0.83657 0.03317 0.44542 0.0
N883 N 0.9051 0.04182 0.50014 0.0
C884 C 0.91424 0.06529 0.46194 0.0
C885 C 0.87737 0.06019 0.43241 0.0
C886 C 0.86897 0.90751 0.39912 0.0
C887 C 0.87687 0.86843 0.38366 0.0
C888 C 0.89192 0.92672 0.43598 0.0
C889 C 0.92357 0.9075 0.45928 0.0
H890 H 0.84437 0.92305 0.38289 0.0
H891 H 0.88529 0.95716 0.4458 0.0
S892 S 0.9575 0.80553 0.4305 0.0
N893 N 0.92013 0.813 0.39335 0.0
N894 N 0.96102 0.84573 0.46239 0.0
C895 C 0.93135 0.86801 0.44359 0.0
C896 C 0.90874 0.84948 0.40602 0.0
C897 C 0.15756 0.88327 0.46731 0.0
C898 C 0.17242 0.91745 0.43427 0.0
C899 C 0.15355 0.89732 0.50583 0.0
C900 C 0.16277 0.94564 0.51069 0.0
H901 H 0.1423 0.84661 0.4617 0.0
H902 H 0.13405 0.87077 0.52811 0.0
S903 S 0.22603 0.0451 0.44004 0.0
N904 N 0.21363 0.99868 0.41311 0.0
N905 N 0.20571 0.02537 0.48634 0.0
C906 C 0.18905 0.97857 0.48169 0.0
C907 C 0.1932 0.96432 0.44238 0.0
C908 C 0.21763 0.02814 0.64933 0.0
C909 C 0.23906 0.99572 0.64035 0.0
C910 C 0.17091 0.01671 0.6468 0.0
C911 C 0.1439 0.97344 0.63377 0.0
H912 H 0.23661 0.06004 0.66328 0.0
H913 H 0.1556 0.0413 0.65642 0.0
S914 S 0.18495 0.87634 0.60718 0.0
N915 N 0.23082 0.92036 0.61472 0.0
N916 N 0.14282 0.89652 0.61417 0.0
C917 C 0.16525 0.94118 0.62344 0.0
C918 C 0.21284 0.954 0.62366 0.0
C919 C 0.2344 0.17807 0.68332 0.0
C920 C 0.2115 0.17286 0.7204 0.0
C921 C 0.21216 0.16044 0.64658 0.0
C922 C 0.16655 0.13595 0.64588 0.0
H923 H 0.26924 0.19876 0.6814 0.0
H924 H 0.23006 0.16832 0.6182 0.0
S925 S 0.09587 0.09534 0.73675 0.0
N926 N 0.14391 0.12945 0.75578 0.0
N927 N 0.10186 0.09608 0.68649 0.0
C928 C 0.14478 0.12453 0.68352 0.0
C929 C 0.16743 0.14269 0.721 0.0
C930 C 0.88279 0.09861 0.66436 0.0
C931 C 0.90996 0.12151 0.69736 0.0
C932 C 0.90205 0.09213 0.6284 0.0
C933 C 0.94888 0.10823 0.62496 0.0
H934 H 0.84708 0.08283 0.66764 0.0
H935 H 0.88054 0.07292 0.6042 0.0
S936 S 0.03293 0.17581 0.7026 0.0
N937 N 0.98403 0.16488 0.72287 0.0
N938 N 1.02126 0.15177 0.65811 0.0
C939 C 0.97562 0.13397 0.65746 0.0
C940 C 0.95584 0.14109 0.69282 0.0
C941 C 0.92 0.85088 0.70356 0.0
C942 C 0.89366 0.8732 0.72176 0.0
C943 C 0.94627 0.87345 0.66988 0.0
C944 C 0.94797 0.91965 0.6533 0.0
H945 H 0.91918 0.81496 0.7144 0.0
H946 H 0.96479 0.85412 0.65627 0.0
S947 S 0.88601 0.99353 0.6899 0.0
N948 N 0.87079 0.94387 0.72004 0.0
N949 N 0.92229 0.98743 0.65871 0.0
C950 C 0.92352 0.94313 0.67237 0.0
C951 C 0.89591 0.91967 0.70604 0.0
C952 C 0.42336 0.12863 0.17387 0.0
C953 C 0.39507 0.15665 0.16174 0.0
C954 C 0.46271 0.13694 0.15357 0.0
C955 C 0.47081 0.17007 0.1183 0.0
H956 H 0.41205 0.09652 0.19429 0.0
H957 H 0.48056 0.11069 0.15926 0.0
S958 S 0.41799 0.26534 0.08954 0.0
N959 N 0.3868 0.22971 0.12558 0.0
N960 N 0.45955 0.24331 0.08475 0.0
C961 C 0.44964 0.20566 0.11397 0.0
C962 C 0.41064 0.19844 0.13588 0.0
C963 C 0.88616 0.39569 0.22343 0.0
C964 C 0.84446 0.36877 0.20628 0.0
C965 C 0.91703 0.43041 0.19832 0.0
C966 C 0.90672 0.4396 0.1555 0.0
H967 H 0.89439 0.39079 0.25654 0.0
H968 H 0.94819 0.45119 0.21272 0.0
S969 S 0.80402 0.37499 0.09534 0.0
N970 N 0.79609 0.35162 0.14385 0.0
N971 N 0.85349 0.41545 0.09676 0.0
C972 C 0.86581 0.41141 0.1381 0.0
C973 C 0.83474 0.37661 0.16348 0.0
C974 C 0.71073 0.01846 0.12832 0.0
C975 C 0.71387 0.02555 0.17066 0.0
C976 C 0.67064 0.01409 0.10481 0.0
C977 C 0.63264 0.01636 0.12319 0.0
H978 H 0.7393 0.01528 0.11358 0.0
H979 H 0.66929 0.0089 0.07206 0.0
S980 S 0.62399 0.0353 0.23275 0.0
N981 N 0.67634 0.0347 0.23031 0.0
N982 N 0.60014 0.02712 0.18545 0.0
C983 C 0.63513 0.02336 0.16552 0.0
C984 C 0.6762 0.02795 0.18953 0.0
C985 C 0.20351 0.74153 0.16167 0.0
C986 C 0.19288 0.73251 0.20349 0.0
C987 C 0.17168 0.72155 0.1308 0.0
C988 C 0.12951 0.69083 0.14155 0.0
H989 H 0.23673 0.76292 0.15302 0.0
H990 H 0.18223 0.72477 0.09929 0.0
S991 S 0.08371 0.66321 0.24587 0.0
N992 N 0.13556 0.69755 0.25354 0.0
N993 N 0.07635 0.65857 0.19519 0.0
C994 C 0.11689 0.68656 0.18242 0.0
C995 C 0.14893 0.70702 0.21379 0.0
C996 C 0.38042 0.8589 0.94035 0.0
C997 C 0.37942 0.87449 0.89786 0.0
C998 C 0.39658 0.89107 0.97062 0.0
C999 C 0.41266 0.94045 0.95989 0.0
H1000 H 0.36704 0.82172 0.95044 0.0
H1001 H 0.39601 0.8768 1.00297 0.0
S1002 S 0.42047 0.99919 0.8522 0.0
N1003 N 0.39833 0.94257 0.84609 0.0
N1004 N 0.42846 1.00264 0.90301 0.0
C1005 C 0.41278 0.95639 0.91732 0.0
C1006 C 0.39644 0.92358 0.88641 0.0
C1007 C 0.14629 0.4406 0.95816 0.0
C1008 C 0.1163 0.39463 0.95842 0.0
C1009 C 0.13514 0.47683 0.9751 0.0
C1010 C 0.09332 0.4688 0.99247 0.0
H1011 H 0.17961 0.44791 0.94712 0.0
H1012 H 0.16021 0.51094 0.97617 0.0
S1013 S 1.00253 0.35476 0.99955 0.0
N1014 N 0.04211 0.34384 0.97552 0.0
N1015 N 1.02215 0.41076 1.00869 0.0
C1016 C 0.06253 0.4234 0.99135 0.0
C1017 C 0.07374 0.38673 0.97398 0.0
C1018 C 0.662 0.21268 0.86393 0.0
C1019 C 0.70523 0.23825 0.87826 0.0
C1020 C 0.63003 0.18611 0.89205 0.0
C1021 C 0.64028 0.18416 0.93536 0.0
H1022 H 0.65261 0.21401 0.83086 0.0
H1023 H 0.59669 0.16778 0.87988 0.0
S1024 S 0.74722 0.2488 0.98858 0.0
N1025 N 0.75538 0.26337 0.93842 0.0
N1026 N 0.69589 0.21188 0.99122 0.0
C1027 C 0.68326 0.20985 0.95004 0.0
C1028 C 0.71541 0.23778 0.92146 0.0
C1029 C 0.90334 0.74854 0.90924 0.0
C1030 C 0.86146 0.72398 0.88871 0.0
C1031 C 0.92825 0.72627 0.94195 0.0
C1032 C 0.91506 0.67663 0.95594 0.0
H1033 H 0.91848 0.78524 0.89885 0.0
H1034 H 0.95906 0.74848 0.95566 0.0
S1035 S 0.81359 0.59273 0.90778 0.0
N1036 N 0.81258 0.64416 0.88381 0.0
N1037 N 0.85765 0.60422 0.94099 0.0
C1038 C 0.87452 0.65187 0.93415 0.0
C1039 C 0.84907 0.67445 0.90207 0.0
C1040 C 0.15211 0.3483 0.19356 0.0
C1041 C 0.19695 0.3658 0.21503 0.0
C1042 C 0.12375 0.37654 0.16797 0.0
C1043 C 0.13335 0.42831 0.16114 0.0
H1044 H 0.13613 0.31105 0.19863 0.0
H1045 H 0.09209 0.35611 0.15417 0.0
S1046 S 0.23766 0.49774 0.21962 0.0
N1047 N 0.24192 0.44399 0.23081 0.0
N1048 N 0.19207 0.49297 0.18867 0.0
C1049 C 0.17601 0.4459 0.18544 0.0
C1050 C 0.20518 0.41719 0.21012 0.0
C1051 C 0.22697 0.73351 0.94669 0.0
C1052 C 0.22135 0.72767 0.90299 0.0
C1053 C 0.19352 0.71034 0.97703 0.0
C1054 C 0.15012 0.67841 0.96753 0.0
H1055 H 0.25855 0.75666 0.95814 0.0
H1056 H 0.20238 0.71752 1.00921 0.0
S1057 S 0.11779 0.64263 0.85934 0.0
N1058 N 0.16786 0.68147 0.8537 0.0
N1059 N 0.10667 0.63964 0.90878 0.0
C1060 C 0.14416 0.67112 0.92398 0.0
C1061 C 0.17864 0.69475 0.89287 0.0
C1062 C 0.33305 0.17267 0.88682 0.0
C1063 C 0.34458 0.2228 0.88367 0.0
C1064 C 0.35627 0.14641 0.91617 0.0
C1065 C 0.39205 0.16878 0.94426 0.0
H1066 H 0.30764 0.15368 0.86502 0.0
H1067 H 0.3477 0.10864 0.91517 0.0
S1068 S 0.43265 0.29859 0.95161 0.0
N1069 N 0.39311 0.29244 0.91361 0.0
N1070 N 0.43436 0.24473 0.96789 0.0
C1071 C 0.40176 0.21849 0.94242 0.0
C1072 C 0.379 0.2448 0.91259 0.0
C1073 C 0.83577 0.37774 0.93973 0.0
C1074 C 0.85854 0.37045 0.90608 0.0
C1075 C 0.85828 0.40493 0.97372 0.0
C1076 C 0.90553 0.4275 0.97696 0.0
H1077 H 0.7997 0.36231 0.93988 0.0
H1078 H 0.83802 0.4087 0.99775 0.0
S1079 S 0.98078 0.42764 0.89383 0.0
N1080 N 0.93176 0.39286 0.87744 0.0
N1081 N 0.97256 0.44483 0.9384 0.0
C1082 C 0.92832 0.42199 0.94258 0.0
C1083 C 0.90553 0.39357 0.9084 0.0
C1084 C 0.63791 0.99679 0.91377 0.0
C1085 C 0.65305 0.9584 0.93041 0.0
C1086 C 0.60249 1.00694 0.93096 0.0
C1087 C 0.58036 0.97818 0.96498 0.0
H1088 H 0.65548 0.02057 0.88885 0.0
H1089 H 0.59435 0.03897 0.91913 0.0
S1090 S 0.60088 0.86611 1.01255 0.0
N1091 N 0.63921 0.88732 0.97775 0.0
N1092 N 0.57125 0.90376 1.00892 0.0
C1093 C 0.5918 0.93604 0.97813 0.0
C1094 C 0.62846 0.9267 0.96112 0.0
C1095 C 0.91429 0.72412 0.20988 0.0
C1096 C 0.86631 0.72178 0.20843 0.0
C1097 C 0.93786 0.70193 0.18239 0.0
C1098 C 0.91774 0.6707 0.14921 0.0
H1099 H 0.93541 0.74401 0.23387 0.0
H1100 H 0.97372 0.70904 0.18865 0.0
S1101 S 0.79248 0.6461 0.12848 0.0
N1102 N 0.80135 0.68071 0.16648 0.0
N1103 N 0.84169 0.64052 0.11989 0.0
C1104 C 0.86978 0.66721 0.14802 0.0
C1105 C 0.84612 0.69077 0.17531 0.0
C1106 C 0.33098 0.88421 0.1719 0.0
C1107 C 0.35306 0.88495 0.21234 0.0
C1108 C 0.34793 0.91948 0.13834 0.0
C1109 C 0.38709 0.9582 0.14369 0.0
H1110 H 0.30135 0.85518 0.16562 0.0
H1111 H 0.33174 0.91476 0.10749 0.0
S1112 S 0.45894 0.97513 0.24197 0.0
N1113 N 0.41859 0.92596 0.25344 0.0
N1114 N 0.44679 0.99355 0.19356 0.0
C1115 C 0.40809 0.9595 0.18436 0.0
C1116 C 0.39252 0.9226 0.21736 0.0
C1117 C 0.67048 0.18568 0.1805 0.0
C1118 C 0.6857 0.23492 0.18407 0.0
C1119 C 0.6404 0.16535 0.14721 0.0
C1120 C 0.62408 0.19281 0.11436 0.0
H1121 H 0.6817 0.16219 0.20406 0.0
H1122 H 0.63027 0.12737 0.1471 0.0
S1123 S 0.65572 0.32412 0.10647 0.0
N1124 N 0.68257 0.31071 0.15024 0.0
N1125 N 0.62802 0.27346 0.0878 0.0
C1126 C 0.63974 0.24231 0.11718 0.0
C1127 C 0.66973 0.26293 0.15169 0.0
C1128 C 0.64785 0.71598 0.87767 0.0
C1129 C 0.6916 0.71195 0.87913 0.0
C1130 C 0.61757 0.69096 0.90794 0.0
C1131 C 0.63082 0.66327 0.94195 0.0
H1132 H 0.63638 0.73693 0.85197 0.0
H1133 H 0.58296 0.6914 0.90364 0.0
S1134 S 0.74368 0.64703 0.96353 0.0
N1135 N 0.74741 0.6805 0.91882 0.0
N1136 N 0.69182 0.63697 0.97731 0.0
C1137 C 0.67543 0.66193 0.94532 0.0
C1138 C 0.70544 0.68523 0.91345 0.0
C1139 C 0.35144 0.56657 0.96936 0.0
C1140 C 0.34876 0.61197 0.97392 0.0
C1141 C 0.39077 0.56011 0.95811 0.0
C1142 C 0.43081 0.59717 0.95616 0.0
H1143 H 0.32189 0.53617 0.96933 0.0
H1144 H 0.38919 0.52552 0.95069 0.0
S1145 S 0.44606 0.72104 0.9748 0.0
N1146 N 0.39241 0.69388 0.98203 0.0
N1147 N 0.46748 0.67997 0.96382 0.0
C1148 C 0.43039 0.6417 0.96522 0.0
C1149 C 0.3897 0.64907 0.97505 0.0
C1150 C 0.38418 0.42423 0.856 0.0
C1151 C 0.34208 0.3945 0.86725 0.0
C1152 C 0.4159 0.44613 0.88596 0.0
C1153 C 0.40632 0.44043 0.92831 0.0
H1154 H 0.39368 0.42901 0.82423 0.0
H1155 H 0.44868 0.46706 0.87577 0.0
S1156 S 0.2955 0.38141 0.97147 0.0
N1157 N 0.28815 0.3715 0.9218 0.0
N1158 N 0.34862 0.41275 0.97841 0.0
C1159 C 0.36241 0.41664 0.93917 0.0
C1160 C 0.32992 0.39389 0.90849 0.0
C1161 C 0.65736 0.41446 0.95372 0.0
C1162 C 0.67023 0.43142 0.91287 0.0
C1163 C 0.6512 0.44486 0.98099 0.0
C1164 C 0.65682 0.49268 0.96772 0.0
H1165 H 0.64677 0.37684 0.96279 0.0
H1166 H 0.63504 0.42943 1.00972 0.0
S1167 S 0.69935 0.55564 0.86735 0.0
N1168 N 0.69682 0.50027 0.86368 0.0
N1169 N 0.68375 0.55686 0.91449 0.0
C1170 C 0.67669 0.51106 0.92976 0.0
C1171 C 0.68345 0.48034 0.90215 0.0
C1172 C 0.68971 0.46958 0.1263 0.0
C1173 C 0.69701 0.46471 0.1695 0.0
C1174 C 0.64811 0.47216 0.10898 0.0
C1175 C 0.61379 0.47135 0.13478 0.0
H1176 H 0.71674 0.47377 0.10611 0.0
H1177 H 0.64459 0.47958 0.07552 0.0
S1178 S 0.61353 0.4473 0.24931 0.0
N1179 N 0.66464 0.45034 0.23759 0.0
N1180 N 0.58631 0.45538 0.20433 0.0
C1181 C 0.61897 0.46039 0.1776 0.0
C1182 C 0.66099 0.45752 0.19528 0.0
C1183 C 0.70842 0.6804 0.1883 0.0
C1184 C 0.70131 0.72393 0.19347 0.0
C1185 C 0.68376 0.65092 0.15838 0.0
C1186 C 0.65033 0.66336 0.13228 0.0
H1187 H 0.73277 0.66799 0.2083 0.0
H1188 H 0.68873 0.61667 0.15781 0.0
S1189 S 0.61985 0.77448 0.12964 0.0
N1190 N 0.66016 0.77925 0.16701 0.0
N1191 N 0.6126 0.72319 0.11132 0.0
C1192 C 0.644 0.70764 0.13542 0.0
C1193 C 0.66973 0.73809 0.16573 0.0
C1194 C 0.41778 0.68557 0.09566 0.0
C1195 C 0.39705 0.67344 0.13378 0.0
C1196 C 0.42381 0.65055 0.07396 0.0
C1197 C 0.40739 0.60286 0.08864 0.0
H1198 H 0.43571 0.722 0.08628 0.0
H1199 H 0.44839 0.66116 0.05054 0.0
S1200 S 0.3381 0.55239 0.17821 0.0
N1201 N 0.35096 0.60996 0.17977 0.0
N1202 N 0.35994 0.54467 0.1361 0.0
C1203 C 0.37828 0.59025 0.12098 0.0
C1204 C 0.37357 0.62566 0.14445 0.0
C1205 C 0.35841 0.38377 0.16589 0.0
C1206 C 0.37257 0.34682 0.18814 0.0
C1207 C 0.38573 0.41704 0.13766 0.0
C1208 C 0.42879 0.41537 0.13059 0.0
H1209 H 0.32635 0.38814 0.17148 0.0
H1210 H 0.37407 0.44608 0.12309 0.0
S1211 S 0.48267 0.32662 0.18109 0.0
N1212 N 0.43254 0.31019 0.20052 0.0
N1213 N 0.4847 0.37389 0.14823 0.0
C1214 C 0.44318 0.37802 0.15164 0.0
C1215 C 0.41484 0.3434 0.18013 0.0
C1216 C 0.95283 0.62182 0.67781 0.0
C1217 C 0.90852 0.60686 0.66012 0.0
C1218 C 0.98866 0.61086 0.66131 0.0
C1219 C 0.98155 0.5832 0.62726 0.0
H1220 H 0.95952 0.64011 0.70575 0.0
H1221 H 1.02192 0.62248 0.67647 0.0
S1222 S 0.8735 0.54065 0.56646 0.0
N1223 N 0.8614 0.56815 0.60306 0.0
N1224 N 0.92736 0.54495 0.57458 0.0
C1225 C 0.93801 0.57004 0.60833 0.0
C1226 C 0.90206 0.58253 0.62404 0.0
C1227 C 0.40453 0.82613 0.67998 0.0
C1228 C 0.38648 0.85463 0.70232 0.0
C1229 C 0.43846 0.84485 0.64842 0.0
C1230 C 0.4567 0.89414 0.63415 0.0
H1231 H 0.39089 0.78841 0.68518 0.0
H1232 H 0.44951 0.81963 0.63412 0.0
S1233 S 0.41991 0.9858 0.67821 0.0
N1234 N 0.39092 0.93667 0.70408 0.0
N1235 N 0.45004 0.97002 0.64658 0.0
C1236 C 0.43788 0.92248 0.6555 0.0
C1237 C 0.40452 0.90362 0.688 0.0
C1238 C 0.20653 0.38709 0.72006 0.0
C1239 C 0.20221 0.3387 0.71695 0.0
C1240 C 0.18042 0.41273 0.69333 0.0
C1241 C 0.14799 0.39162 0.66189 0.0
H1242 H 0.22847 0.40474 0.74481 0.0
H1243 H 0.18444 0.4489 0.69864 0.0
S1244 S 0.12571 0.26655 0.63882 0.0
N1245 N 0.16321 0.27206 0.67851 0.0
N1246 N 0.1172 0.31863 0.62855 0.0
C1247 C 0.14527 0.34382 0.65778 0.0
C1248 C 0.17108 0.31807 0.68505 0.0
C1249 C 0.71987 0.15607 0.68446 0.0
C1250 C 0.70991 0.19614 0.69702 0.0
C1251 C 0.6953 0.12871 0.65074 0.0
C1252 C 0.65876 0.13924 0.62593 0.0
H1253 H 0.74741 0.14546 0.70091 0.0
H1254 H 0.70545 0.09892 0.64404 0.0
S1255 S 0.61399 0.23643 0.64717 0.0
N1256 N 0.65599 0.24005 0.68248 0.0
N1257 N 0.61326 0.1929 0.61996 0.0
C1258 C 0.64826 0.17876 0.63867 0.0
C1259 C 0.67252 0.20568 0.67335 0.0
C1260 C 0.90658 0.31649 0.41742 0.0
C1261 C 0.89158 0.34097 0.38196 0.0
C1262 C 0.93957 0.34017 0.44723 0.0
C1263 C 0.96075 0.38982 0.44317 0.0
H1264 H 0.89183 0.27868 0.42288 0.0
H1265 H 0.94848 0.31888 0.47407 0.0
S1266 S 0.93545 0.47048 0.35441 0.0
N1267 N 0.90165 0.41816 0.34409 0.0
N1268 N 0.96398 0.46183 0.39859 0.0
C1269 C 0.94685 0.41446 0.40705 0.0
C1270 C 0.9124 0.39041 0.37715 0.0
C1271 C 0.6923 0.91263 0.34443 0.0
C1272 C 0.70002 0.86577 0.35111 0.0
C1273 C 0.66503 0.93387 0.36873 0.0
C1274 C 0.63846 0.9117 0.40484 0.0
H1275 H 0.70738 0.93446 0.31759 0.0
H1276 H 0.66521 0.96963 0.35815 0.0
S1277 S 0.63028 0.78361 0.43422 0.0
N1278 N 0.66546 0.79589 0.39646 0.0
N1279 N 0.61914 0.83282 0.44015 0.0
C1280 C 0.64341 0.86379 0.41074 0.0
C1281 C 0.67121 0.84224 0.38558 0.0
C1282 C 0.18076 0.6742 0.37083 0.0
C1283 C 0.21348 0.71584 0.38321 0.0
C1284 C 0.15742 0.63674 0.40037 0.0
C1285 C 0.16436 0.63935 0.44416 0.0
H1286 H 0.17201 0.67106 0.338 0.0
H1287 H 0.13287 0.60617 0.38865 0.0
S1288 S 0.24244 0.74467 0.49241 0.0
N1289 N 0.24854 0.75831 0.44209 0.0
N1290 N 0.20596 0.69163 0.49669 0.0
C1291 C 0.1965 0.68202 0.45623 0.0
C1292 C 0.22019 0.71907 0.42631 0.0
C1293 C 0.39145 0.17433 0.39006 0.0
C1294 C 0.38408 0.1839 0.34478 0.0
C1295 C 0.42322 0.14924 0.41379 0.0
C1296 C 0.45284 0.12568 0.39774 0.0
H1297 H 0.37019 0.18462 0.40895 0.0
H1298 H 0.42335 0.14742 0.44739 0.0
S1299 S 0.44886 0.13131 0.28037 0.0
N1300 N 0.4128 0.16034 0.28603 0.0
N1301 N 0.46729 0.11556 0.32758 0.0
C1302 C 0.44486 0.13317 0.35231 0.0
C1303 C 0.41295 0.15977 0.32799 0.0
C1304 C 0.71511 0.87126 0.67027 0.0
C1305 C 0.70796 0.86034 0.71385 0.0
C1306 C 0.68732 0.89259 0.64012 0.0
C1307 C 0.65155 0.90982 0.65037 0.0
H1308 H 0.74435 0.86581 0.65921 0.0
H1309 H 0.69564 0.89748 0.60783 0.0
S1310 S 0.62278 0.90124 0.76102 0.0
N1311 N 0.6629 0.8754 0.76492 0.0
N1312 N 0.615 0.91706 0.71095 0.0
C1313 C 0.64582 0.90205 0.69419 0.0
C1314 C 0.67272 0.8782 0.7245 0.0
C1315 C 0.70199 0.15666 0.3647 0.0
C1316 C 0.7308 0.20067 0.37499 0.0
C1317 C 0.66767 0.12955 0.39066 0.0
C1318 C 0.66022 0.14528 0.42807 0.0
H1319 H 0.706 0.14303 0.33618 0.0
H1320 H 0.64634 0.09612 0.38097 0.0
S1321 S 0.72967 0.25557 0.47169 0.0
N1322 N 0.7524 0.25653 0.42729 0.0
N1323 N 0.68666 0.20703 0.47499 0.0
C1324 C 0.68922 0.18905 0.43898 0.0
C1325 C 0.72491 0.21618 0.4129 0.0
C1326 C 0.89991 0.56641 0.46394 0.0
C1327 C 0.89473 0.60909 0.47312 0.0
C1328 C 0.94048 0.55619 0.47403 0.0
C1329 C 0.97715 0.58851 0.49344 0.0
H1330 H 0.87252 0.54101 0.4486 0.0
H1331 H 0.94302 0.52267 0.46673 0.0
S1332 S 0.97946 0.70529 0.52375 0.0
N1333 N 0.92857 0.68394 0.50201 0.0
N1334 N 1.00516 0.66493 0.52159 0.0
C1335 C 0.97227 0.63164 0.5023 0.0
C1336 C 0.9309 0.64188 0.49199 0.0
C1337 C 0.37871 0.82885 0.43065 0.0
C1338 C 0.35434 0.85574 0.40599 0.0
C1339 C 0.41852 0.84999 0.45376 0.0
C1340 C 0.43413 0.89915 0.45505 0.0
H1341 H 0.36727 0.79112 0.43136 0.0
H1342 H 0.4378 0.82775 0.4694 0.0
S1343 S 0.3693 0.9825 0.41389 0.0
N1344 N 0.33944 0.93164 0.397 0.0
N1345 N 0.41327 0.97215 0.44073 0.0
C1346 C 0.40506 0.92538 0.43709 0.0
C1347 C 0.36496 0.9035 0.41302 0.0
C1348 C 0.19426 0.40469 0.45079 0.0
C1349 C 0.23703 0.43001 0.46713 0.0
C1350 C 0.15535 0.40117 0.47038 0.0
C1351 C 0.15795 0.42372 0.50634 0.0
H1352 H 0.19029 0.38995 0.42117 0.0
H1353 H 0.12299 0.38409 0.45546 0.0
S1354 S 0.26068 0.48826 0.5653 0.0
N1355 N 0.27934 0.47235 0.52488 0.0
N1356 N 0.20537 0.46776 0.56041 0.0
C1357 C 0.20011 0.44639 0.52468 0.0
C1358 C 0.23993 0.44919 0.50529 0.0
C1359 C 0.43773 0.13892 0.64397 0.0
C1360 C 0.46401 0.16224 0.67701 0.0
C1361 C 0.45186 0.10712 0.62359 0.0
C1362 C 0.49277 0.09677 0.6354 0.0
H1363 H 0.40792 0.1482 0.63151 0.0
H1364 H 0.43211 0.09318 0.59618 0.0
S1365 S 0.56847 0.14026 0.72641 0.0
N1366 N 0.52921 0.16705 0.725 0.0
N1367 N 0.55523 0.10683 0.68718 0.0
C1368 C 0.51667 0.11579 0.67138 0.0
C1369 C 0.50255 0.14874 0.69188 0.0
C1370 C 0.91986 0.36396 0.74148 0.0
C1371 C 0.8782 0.33691 0.72449 0.0
C1372 C 0.95558 0.3885 0.71575 0.0
C1373 C 0.95104 0.38626 0.67219 0.0
H1374 H 0.92543 0.36465 0.77495 0.0
H1375 H 0.98743 0.40759 0.73024 0.0
S1376 S 0.84698 0.32274 0.61271 0.0
N1377 N 0.83402 0.31052 0.6619 0.0
N1378 N 0.89921 0.35761 0.61347 0.0
C1379 C 0.90859 0.36069 0.65508 0.0
C1380 C 0.87289 0.33549 0.68123 0.0
C1381 C 0.18979 0.70742 0.69076 0.0
C1382 C 0.20549 0.69547 0.73112 0.0
C1383 C 0.16429 0.67247 0.66571 0.0
C1384 C 0.15365 0.62374 0.6795 0.0
H1385 H 0.19892 0.74384 0.67757 0.0
H1386 H 0.15429 0.68392 0.6343 0.0
S1387 S 0.18021 0.57371 0.78508 0.0
N1388 N 0.20303 0.6312 0.78603 0.0
N1389 N 0.15634 0.56591 0.73779 0.0
C1390 C 0.16605 0.61133 0.72077 0.0
C1391 C 0.19176 0.64705 0.74674 0.0
loop_
_geom_bond_atom_site_label_1
_geom_bond_atom_site_label_2
_geom_bond_distance
_geom_bond_site_symmetry_2
_ccdc_geom_bond_type
Gd0 N31 2.661 . S
Gd0 N37 2.601 . S
Gd0 O44 2.545 . S
Gd0 O45 2.606 . S
Gd0 O47 2.429 . S
Gd0 O48 2.545 . S
Gd0 O49 2.412 . S
Gd0 O51 2.362 . S
Gd0 O52 2.324 . S
Gd0 C59 2.828 . S
Gd1 N10 2.661 . S
Gd1 N14 2.601 . S
Gd1 O45 2.362 . S
Gd1 O46 2.324 . S
Gd1 O50 2.545 . S
Gd1 O51 2.606 . S
Gd1 O53 2.429 . S
Gd1 O54 2.545 . S
Gd1 O55 2.412 . S
Gd1 C68 2.828 . S
C2 C5 1.417 . S
C2 C7 1.431 . S
C2 C8 1.412 . S
C3 C6 1.437 . S
C3 C7 1.317 . S
C3 H22 0.929 . S
C4 C5 1.426 . S
C4 C6 1.413 . S
C4 N14 1.359 . S
C5 C2 1.417 . S
C5 C4 1.426 . S
C5 N10 1.350 . S
C6 C3 1.437 . S
C6 C4 1.413 . S
C6 C16 1.391 . S
C7 C2 1.431 . S
C7 C3 1.317 . S
C7 H18 0.930 . S
C8 C2 1.412 . S
C8 C9 1.355 . S
C8 H20 0.930 . S
C9 C8 1.355 . S
C9 C11 1.402 . S
C9 H21 0.930 . S
N10 Gd1 2.661 . S
N10 C5 1.350 . S
N10 C11 1.307 . S
C11 C9 1.402 . S
C11 N10 1.307 . S
C11 H12 0.930 . S
H12 C11 0.930 . S
C13 N14 1.334 . S
C13 C15 1.394 . S
C13 H17 0.930 . S
N14 Gd1 2.601 . S
N14 C4 1.359 . S
N14 C13 1.334 . S
C15 C13 1.394 . S
C15 C16 1.359 . S
C15 H27 0.930 . S
C16 C6 1.391 . S
C16 C15 1.359 . S
C16 H28 0.929 . S
H17 C13 0.930 . S
H18 C7 0.930 . S
H19 C36 0.930 . S
H20 C8 0.930 . S
H21 C9 0.930 . S
H22 C3 0.929 . S
H23 C41 0.930 . S
H24 C32 0.930 . S
H25 C33 0.930 . S
H26 C57 0.929 . S
H27 C15 0.930 . S
H28 C16 0.929 . S
H29 C58 0.930 . S
H30 C39 0.930 . S
N31 Gd0 2.661 . S
N31 C35 1.350 . S
N31 C36 1.307 . S
C32 H24 0.930 . S
C32 C33 1.355 . S
C32 C34 1.412 . S
C33 H25 0.930 . S
C33 C32 1.355 . S
C33 C36 1.402 . S
C34 C32 1.412 . S
C34 C35 1.417 . S
C34 C58 1.431 . S
C35 N31 1.350 . S
C35 C34 1.417 . S
C35 C38 1.426 . S
C36 H19 0.930 . S
C36 N31 1.307 . S
C36 C33 1.402 . S
N37 Gd0 2.601 . S
N37 C38 1.359 . S
N37 C41 1.334 . S
C38 C35 1.426 . S
C38 N37 1.359 . S
C38 C42 1.413 . S
C39 H30 0.930 . S
C39 C40 1.359 . S
C39 C41 1.394 . S
C40 C39 1.359 . S
C40 C42 1.391 . S
C40 H43 0.929 . S
C41 H23 0.930 . S
C41 N37 1.334 . S
C41 C39 1.394 . S
C42 C38 1.413 . S
C42 C40 1.391 . S
C42 C57 1.437 . S
H43 C40 0.929 . S
O44 Gd0 2.545 . S
O44 C59 1.258 . S
O45 Gd0 2.606 . S
O45 Gd1 2.362 . S
O45 C56 1.284 . S
O46 Gd1 2.324 . S
O46 C66 1.254 . S
O47 Gd0 2.429 . S
O47 C66 1.268 . S
O48 Gd0 2.545 . S
O48 C56 1.250 . S
O49 Gd0 2.412 . S
O49 C59 1.252 . S
O50 Gd1 2.545 . S
O50 C68 1.258 . S
O51 Gd0 2.362 . S
O51 Gd1 2.606 . S
O51 C67 1.284 . S
O52 Gd0 2.324 . S
O52 C75 1.254 . S
O53 Gd1 2.429 . S
O53 C75 1.268 . S
O54 Gd1 2.545 . S
O54 C67 1.250 . S
O55 Gd1 2.412 . S
O55 C68 1.252 . S
C56 O45 1.284 . S
C56 O48 1.250 . S
C57 H26 0.929 . S
C57 C42 1.437 . S
C57 C58 1.317 . S
C58 H29 0.930 . S
C58 C34 1.431 . S
C58 C57 1.317 . S
C59 Gd0 2.828 . S
C59 O44 1.258 . S
C59 O49 1.252 . S
C59 C60 1.497 . S
C60 C59 1.497 . S
C60 C61 1.395 . S
C60 C62 1.380 . S
C61 C60 1.395 . S
C61 C64 1.398 . S
C61 H76 0.930 . S
C62 C60 1.380 . S
C62 C63 1.391 . S
C62 H77 0.930 . S
C63 C62 1.391 . S
C63 C65 1.387 . S
C64 C61 1.398 . S
C64 C65 1.380 . S
C64 H78 0.930 . S
C65 C63 1.387 . S
C65 C64 1.380 . S
C65 H79 0.930 . S
C66 O46 1.254 . S
C66 O47 1.268 . S
C67 O51 1.284 . S
C67 O54 1.250 . S
C68 Gd1 2.828 . S
C68 O50 1.258 . S
C68 O55 1.252 . S
C68 C69 1.497 . S
C69 C68 1.497 . S
C69 C70 1.395 . S
C69 C71 1.380 . S
C70 C69 1.395 . S
C70 C73 1.398 . S
C70 H80 0.930 . S
C71 C69 1.380 . S
C71 C72 1.391 . S
C71 H81 0.930 . S
C72 C71 1.391 . S
C72 C74 1.387 . S
C73 C70 1.398 . S
C73 C74 1.380 . S
C73 H82 0.930 . S
C74 C72 1.387 . S
C74 C73 1.380 . S
C74 H83 0.930 . S
C75 O52 1.254 . S
C75 O53 1.268 . S
H76 C61 0.930 . S
H77 C62 0.930 . S
H78 C64 0.930 . S
H79 C65 0.930 . S
H80 C70 0.930 . S
H81 C71 0.930 . S
H82 C73 0.930 . S
H83 C74 0.930 . S
Gd84 N115 2.661 . S
Gd84 N121 2.601 . S
Gd84 O128 2.545 . S
Gd84 O129 2.606 . S
Gd84 O131 2.429 . S
Gd84 O132 2.545 . S
Gd84 O133 2.412 . S
Gd84 O135 2.362 . S
Gd84 O136 2.324 . S
Gd84 C143 2.828 . S
Gd85 N94 2.661 . S
Gd85 N98 2.601 . S
Gd85 O129 2.362 . S
Gd85 O130 2.324 . S
Gd85 O134 2.545 . S
Gd85 O135 2.606 . S
Gd85 O137 2.429 . S
Gd85 O138 2.545 . S
Gd85 O139 2.412 . S
Gd85 C152 2.828 . S
C86 C89 1.417 . S
C86 C91 1.431 . S
C86 C92 1.412 . S
C87 C90 1.437 . S
C87 C91 1.317 . S
C87 H106 0.929 . S
C88 C89 1.426 . S
C88 C90 1.413 . S
C88 N98 1.359 . S
C89 C86 1.417 . S
C89 C88 1.426 . S
C89 N94 1.350 . S
C90 C87 1.437 . S
C90 C88 1.413 . S
C90 C100 1.391 . S
C91 C86 1.431 . S
C91 C87 1.317 . S
C91 H102 0.930 . S
C92 C86 1.412 . S
C92 C93 1.355 . S
C92 H104 0.930 . S
C93 C92 1.355 . S
C93 C95 1.402 . S
C93 H105 0.930 . S
N94 Gd85 2.661 . S
N94 C89 1.350 . S
N94 C95 1.307 . S
C95 C93 1.402 . S
C95 N94 1.307 . S
C95 H96 0.930 . S
H96 C95 0.930 . S
C97 N98 1.334 . S
C97 C99 1.394 . S
C97 H101 0.930 . S
N98 Gd85 2.601 . S
N98 C88 1.359 . S
N98 C97 1.334 . S
C99 C97 1.394 . S
C99 C100 1.359 . S
C99 H111 0.930 . S
C100 C90 1.391 . S
C100 C99 1.359 . S
C100 H112 0.929 . S
H101 C97 0.930 . S
H102 C91 0.930 . S
H103 C120 0.930 . S
H104 C92 0.930 . S
H105 C93 0.930 . S
H106 C87 0.929 . S
H107 C125 0.930 . S
H108 C116 0.930 . S
H109 C117 0.930 . S
H110 C141 0.929 . S
H111 C99 0.930 . S
H112 C100 0.929 . S
H113 C142 0.930 . S
H114 C123 0.930 . S
N115 Gd84 2.661 . S
N115 C119 1.350 . S
N115 C120 1.307 . S
C116 H108 0.930 . S
C116 C117 1.355 . S
C116 C118 1.412 . S
C117 H109 0.930 . S
C117 C116 1.355 . S
C117 C120 1.402 . S
C118 C116 1.412 . S
C118 C119 1.417 . S
C118 C142 1.431 . S
C119 N115 1.350 . S
C119 C118 1.417 . S
C119 C122 1.426 . S
C120 H103 0.930 . S
C120 N115 1.307 . S
C120 C117 1.402 . S
N121 Gd84 2.601 . S
N121 C122 1.359 . S
N121 C125 1.334 . S
C122 C119 1.426 . S
C122 N121 1.359 . S
C122 C126 1.413 . S
C123 H114 0.930 . S
C123 C124 1.359 . S
C123 C125 1.394 . S
C124 C123 1.359 . S
C124 C126 1.391 . S
C124 H127 0.929 . S
C125 H107 0.930 . S
C125 N121 1.334 . S
C125 C123 1.394 . S
C126 C122 1.413 . S
C126 C124 1.391 . S
C126 C141 1.437 . S
H127 C124 0.929 . S
O128 Gd84 2.545 . S
O128 C143 1.258 . S
O129 Gd84 2.606 . S
O129 Gd85 2.362 . S
O129 C140 1.284 . S
O130 Gd85 2.324 . S
O130 C150 1.254 . S
O131 Gd84 2.429 . S
O131 C150 1.268 . S
O132 Gd84 2.545 . S
O132 C140 1.250 . S
O133 Gd84 2.412 . S
O133 C143 1.252 . S
O134 Gd85 2.545 . S
O134 C152 1.258 . S
O135 Gd84 2.362 . S
O135 Gd85 2.606 . S
O135 C151 1.284 . S
O136 Gd84 2.324 . S
O136 C159 1.254 . S
O137 Gd85 2.429 . S
O137 C159 1.268 . S
O138 Gd85 2.545 . S
O138 C151 1.250 . S
O139 Gd85 2.412 . S
O139 C152 1.252 . S
C140 O129 1.284 . S
C140 O132 1.250 . S
C141 H110 0.929 . S
C141 C126 1.437 . S
C141 C142 1.317 . S
C142 H113 0.930 . S
C142 C118 1.431 . S
C142 C141 1.317 . S
C143 Gd84 2.828 . S
C143 O128 1.258 . S
C143 O133 1.252 . S
C143 C144 1.497 . S
C144 C143 1.497 . S
C144 C145 1.395 . S
C144 C146 1.380 . S
C145 C144 1.395 . S
C145 C148 1.398 . S
C145 H160 0.930 . S
C146 C144 1.380 . S
C146 C147 1.391 . S
C146 H161 0.930 . S
C147 C146 1.391 . S
C147 C149 1.387 . S
C148 C145 1.398 . S
C148 C149 1.380 . S
C148 H162 0.930 . S
C149 C147 1.387 . S
C149 C148 1.380 . S
C149 H163 0.930 . S
C150 O130 1.254 . S
C150 O131 1.268 . S
C151 O135 1.284 . S
C151 O138 1.250 . S
C152 Gd85 2.828 . S
C152 O134 1.258 . S
C152 O139 1.252 . S
C152 C153 1.497 . S
C153 C152 1.497 . S
C153 C154 1.395 . S
C153 C155 1.380 . S
C154 C153 1.395 . S
C154 C157 1.398 . S
C154 H164 0.930 . S
C155 C153 1.380 . S
C155 C156 1.391 . S
C155 H165 0.930 . S
C156 C155 1.391 . S
C156 C158 1.387 . S
C157 C154 1.398 . S
C157 C158 1.380 . S
C157 H166 0.930 . S
C158 C156 1.387 . S
C158 C157 1.380 . S
C158 H167 0.930 . S
C159 O136 1.254 . S
C159 O137 1.268 . S
H160 C145 0.930 . S
H161 C146 0.930 . S
H162 C148 0.930 . S
H163 C149 0.930 . S
H164 C154 0.930 . S
H165 C155 0.930 . S
H166 C157 0.930 . S
H167 C158 0.930 . S
Gd168 N199 2.661 . S
Gd168 N205 2.601 . S
Gd168 O212 2.545 . S
Gd168 O213 2.606 . S
Gd168 O215 2.429 . S
Gd168 O216 2.545 . S
Gd168 O217 2.412 . S
Gd168 O219 2.362 . S
Gd168 O220 2.324 . S
Gd168 C227 2.828 . S
Gd169 N178 2.661 . S
Gd169 N182 2.601 . S
Gd169 O213 2.362 . S
Gd169 O214 2.324 . S
Gd169 O218 2.545 . S
Gd169 O219 2.606 . S
Gd169 O221 2.429 . S
Gd169 O222 2.545 . S
Gd169 O223 2.412 . S
Gd169 C236 2.828 . S
C170 C173 1.417 . S
C170 C175 1.431 . S
C170 C176 1.412 . S
C171 C174 1.437 . S
C171 C175 1.317 . S
C171 H190 0.929 . S
C172 C173 1.426 . S
C172 C174 1.413 . S
C172 N182 1.359 . S
C173 C170 1.417 . S
C173 C172 1.426 . S
C173 N178 1.350 . S
C174 C171 1.437 . S
C174 C172 1.413 . S
C174 C184 1.391 . S
C175 C170 1.431 . S
C175 C171 1.317 . S
C175 H186 0.930 . S
C176 C170 1.412 . S
C176 C177 1.355 . S
C176 H188 0.930 . S
C177 C176 1.355 . S
C177 C179 1.402 . S
C177 H189 0.930 . S
N178 Gd169 2.661 . S
N178 C173 1.350 . S
N178 C179 1.307 . S
C179 C177 1.402 . S
C179 N178 1.307 . S
C179 H180 0.930 . S
H180 C179 0.930 . S
C181 N182 1.334 . S
C181 C183 1.394 . S
C181 H185 0.930 . S
N182 Gd169 2.601 . S
N182 C172 1.359 . S
N182 C181 1.334 . S
C183 C181 1.394 . S
C183 C184 1.359 . S
C183 H195 0.930 . S
C184 C174 1.391 . S
C184 C183 1.359 . S
C184 H196 0.929 . S
H185 C181 0.930 . S
H186 C175 0.930 . S
H187 C204 0.930 . S
H188 C176 0.930 . S
H189 C177 0.930 . S
H190 C171 0.929 . S
H191 C209 0.930 . S
H192 C200 0.930 . S
H193 C201 0.930 . S
H194 C225 0.929 . S
H195 C183 0.930 . S
H196 C184 0.929 . S
H197 C226 0.930 . S
H198 C207 0.930 . S
N199 Gd168 2.661 . S
N199 C203 1.350 . S
N199 C204 1.307 . S
C200 H192 0.930 . S
C200 C201 1.355 . S
C200 C202 1.412 . S
C201 H193 0.930 . S
C201 C200 1.355 . S
C201 C204 1.402 . S
C202 C200 1.412 . S
C202 C203 1.417 . S
C202 C226 1.431 . S
C203 N199 1.350 . S
C203 C202 1.417 . S
C203 C206 1.426 . S
C204 H187 0.930 . S
C204 N199 1.307 . S
C204 C201 1.402 . S
N205 Gd168 2.601 . S
N205 C206 1.359 . S
N205 C209 1.334 . S
C206 C203 1.426 . S
C206 N205 1.359 . S
C206 C210 1.413 . S
C207 H198 0.930 . S
C207 C208 1.359 . S
C207 C209 1.394 . S
C208 C207 1.359 . S
C208 C210 1.391 . S
C208 H211 0.929 . S
C209 H191 0.930 . S
C209 N205 1.334 . S
C209 C207 1.394 . S
C210 C206 1.413 . S
C210 C208 1.391 . S
C210 C225 1.437 . S
H211 C208 0.929 . S
O212 Gd168 2.545 . S
O212 C227 1.258 . S
O213 Gd168 2.606 . S
O213 Gd169 2.362 . S
O213 C224 1.284 . S
O214 Gd169 2.324 . S
O214 C234 1.254 . S
O215 Gd168 2.429 . S
O215 C234 1.268 . S
O216 Gd168 2.545 . S
O216 C224 1.250 . S
O217 Gd168 2.412 . S
O217 C227 1.252 . S
O218 Gd169 2.545 . S
O218 C236 1.258 . S
O219 Gd168 2.362 . S
O219 Gd169 2.606 . S
O219 C235 1.284 . S
O220 Gd168 2.324 . S
O220 C243 1.254 . S
O221 Gd169 2.429 . S
O221 C243 1.268 . S
O222 Gd169 2.545 . S
O222 C235 1.250 . S
O223 Gd169 2.412 . S
O223 C236 1.252 . S
C224 O213 1.284 . S
C224 O216 1.250 . S
C225 H194 0.929 . S
C225 C210 1.437 . S
C225 C226 1.317 . S
C226 H197 0.930 . S
C226 C202 1.431 . S
C226 C225 1.317 . S
C227 Gd168 2.828 . S
C227 O212 1.258 . S
C227 O217 1.252 . S
C227 C228 1.497 . S
C228 C227 1.497 . S
C228 C229 1.395 . S
C228 C230 1.380 . S
C229 C228 1.395 . S
C229 C232 1.398 . S
C229 H244 0.930 . S
C230 C228 1.380 . S
C230 C231 1.391 . S
C230 H245 0.930 . S
C231 C230 1.391 . S
C231 C233 1.387 . S
C232 C229 1.398 . S
C232 C233 1.380 . S
C232 H246 0.930 . S
C233 C231 1.387 . S
C233 C232 1.380 . S
C233 H247 0.930 . S
C234 O214 1.254 . S
C234 O215 1.268 . S
C235 O219 1.284 . S
C235 O222 1.250 . S
C236 Gd169 2.828 . S
C236 O218 1.258 . S
C236 O223 1.252 . S
C236 C237 1.497 . S
C237 C236 1.497 . S
C237 C238 1.395 . S
C237 C239 1.380 . S
C238 C237 1.395 . S
C238 C241 1.398 1_565 S
C238 H248 0.930 . S
C239 C237 1.380 . S
C239 C240 1.391 . S
C239 H249 0.930 . S
C240 C239 1.391 . S
C240 C242 1.387 . S
C241 C238 1.398 1_545 S
C241 C242 1.380 1_545 S
C241 H250 0.930 . S
C242 C240 1.387 . S
C242 C241 1.380 1_565 S
C242 H251 0.930 1_565 S
C243 O220 1.254 . S
C243 O221 1.268 . S
H244 C229 0.930 . S
H245 C230 0.930 . S
H246 C232 0.930 . S
H247 C233 0.930 . S
H248 C238 0.930 . S
H249 C239 0.930 . S
H250 C241 0.930 . S
H251 C242 0.930 1_545 S
Gd252 N283 2.661 . S
Gd252 N289 2.601 . S
Gd252 O296 2.545 . S
Gd252 O297 2.606 . S
Gd252 O299 2.429 . S
Gd252 O300 2.545 . S
Gd252 O301 2.412 . S
Gd252 O303 2.362 . S
Gd252 O304 2.324 . S
Gd252 C311 2.828 . S
Gd253 N262 2.661 . S
Gd253 N266 2.601 . S
Gd253 O297 2.362 . S
Gd253 O298 2.324 . S
Gd253 O302 2.545 . S
Gd253 O303 2.606 . S
Gd253 O305 2.429 . S
Gd253 O306 2.545 . S
Gd253 O307 2.412 . S
Gd253 C320 2.828 . S
C254 C257 1.417 . S
C254 C259 1.431 . S
C254 C260 1.412 . S
C255 C258 1.437 . S
C255 C259 1.317 . S
C255 H274 0.929 . S
C256 C257 1.426 . S
C256 C258 1.413 . S
C256 N266 1.359 . S
C257 C254 1.417 . S
C257 C256 1.426 . S
C257 N262 1.350 . S
C258 C255 1.437 . S
C258 C256 1.413 . S
C258 C268 1.391 . S
C259 C254 1.431 . S
C259 C255 1.317 . S
C259 H270 0.930 . S
C260 C254 1.412 . S
C260 C261 1.355 . S
C260 H272 0.930 . S
C261 C260 1.355 . S
C261 C263 1.402 . S
C261 H273 0.930 . S
N262 Gd253 2.661 . S
N262 C257 1.350 . S
N262 C263 1.307 . S
C263 C261 1.402 . S
C263 N262 1.307 . S
C263 H264 0.930 . S
H264 C263 0.930 . S
C265 N266 1.334 . S
C265 C267 1.394 . S
C265 H269 0.930 . S
N266 Gd253 2.601 . S
N266 C256 1.359 . S
N266 C265 1.334 . S
C267 C265 1.394 . S
C267 C268 1.359 . S
C267 H279 0.930 . S
C268 C258 1.391 . S
C268 C267 1.359 . S
C268 H280 0.929 . S
H269 C265 0.930 . S
H270 C259 0.930 . S
H271 C288 0.930 . S
H272 C260 0.930 . S
H273 C261 0.930 . S
H274 C255 0.929 . S
H275 C293 0.930 . S
H276 C284 0.930 1_545 S
H277 C285 0.930 . S
H278 C309 0.929 . S
H279 C267 0.930 . S
H280 C268 0.929 . S
H281 C310 0.930 1_545 S
H282 C291 0.930 . S
N283 Gd252 2.661 . S
N283 C287 1.350 . S
N283 C288 1.307 . S
C284 H276 0.930 1_565 S
C284 C285 1.355 . S
C284 C286 1.412 . S
C285 H277 0.930 . S
C285 C284 1.355 . S
C285 C288 1.402 . S
C286 C284 1.412 . S
C286 C287 1.417 . S
C286 C310 1.431 . S
C287 N283 1.350 . S
C287 C286 1.417 . S
C287 C290 1.426 . S
C288 H271 0.930 . S
C288 N283 1.307 . S
C288 C285 1.402 . S
N289 Gd252 2.601 . S
N289 C290 1.359 . S
N289 C293 1.334 . S
C290 C287 1.426 . S
C290 N289 1.359 . S
C290 C294 1.413 . S
C291 H282 0.930 . S
C291 C292 1.359 . S
C291 C293 1.394 . S
C292 C291 1.359 . S
C292 C294 1.391 . S
C292 H295 0.929 . S
C293 H275 0.930 . S
C293 N289 1.334 . S
C293 C291 1.394 . S
C294 C290 1.413 . S
C294 C292 1.391 . S
C294 C309 1.437 . S
H295 C292 0.929 . S
O296 Gd252 2.545 . S
O296 C311 1.258 . S
O297 Gd252 2.606 . S
O297 Gd253 2.362 . S
O297 C308 1.284 . S
O298 Gd253 2.324 . S
O298 C318 1.254 . S
O299 Gd252 2.429 . S
O299 C318 1.268 . S
O300 Gd252 2.545 . S
O300 C308 1.250 . S
O301 Gd252 2.412 . S
O301 C311 1.252 . S
O302 Gd253 2.545 . S
O302 C320 1.258 . S
O303 Gd252 2.362 . S
O303 Gd253 2.606 . S
O303 C319 1.284 . S
O304 Gd252 2.324 . S
O304 C327 1.254 . S
O305 Gd253 2.429 . S
O305 C327 1.268 . S
O306 Gd253 2.545 . S
O306 C319 1.250 . S
O307 Gd253 2.412 . S
O307 C320 1.252 . S
C308 O297 1.284 . S
C308 O300 1.250 . S
C309 H278 0.929 . S
C309 C294 1.437 . S
C309 C310 1.317 . S
C310 H281 0.930 1_565 S
C310 C286 1.431 . S
C310 C309 1.317 . S
C311 Gd252 2.828 . S
C311 O296 1.258 . S
C311 O301 1.252 . S
C311 C312 1.497 . S
C312 C311 1.497 . S
C312 C313 1.395 . S
C312 C314 1.380 . S
C313 C312 1.395 . S
C313 C316 1.398 . S
C313 H328 0.930 . S
C314 C312 1.380 . S
C314 C315 1.391 . S
C314 H329 0.930 . S
C315 C314 1.391 . S
C315 C317 1.387 . S
C316 C313 1.398 . S
C316 C317 1.380 . S
C316 H330 0.930 . S
C317 C315 1.387 . S
C317 C316 1.380 . S
C317 H331 0.930 . S
C318 O298 1.254 . S
C318 O299 1.268 . S
C319 O303 1.284 . S
C319 O306 1.250 . S
C320 Gd253 2.828 . S
C320 O302 1.258 . S
C320 O307 1.252 . S
C320 C321 1.497 . S
C321 C320 1.497 . S
C321 C322 1.395 . S
C321 C323 1.380 . S
C322 C321 1.395 . S
C322 C325 1.398 . S
C322 H332 0.930 . S
C323 C321 1.380 . S
C323 C324 1.391 . S
C323 H333 0.930 . S
C324 C323 1.391 . S
C324 C326 1.387 . S
C325 C322 1.398 . S
C325 C326 1.380 . S
C325 H334 0.930 . S
C326 C324 1.387 . S
C326 C325 1.380 . S
C326 H335 0.930 . S
C327 O304 1.254 . S
C327 O305 1.268 . S
H328 C313 0.930 . S
H329 C314 0.930 . S
H330 C316 0.930 . S
H331 C317 0.930 . S
H332 C322 0.930 . S
H333 C323 0.930 . S
H334 C325 0.930 . S
H335 C326 0.930 . S
Gd336 N367 2.661 . S
Gd336 N373 2.601 . S
Gd336 O380 2.545 . S
Gd336 O381 2.606 . S
Gd336 O383 2.429 . S
Gd336 O384 2.545 . S
Gd336 O385 2.412 . S
Gd336 O387 2.362 . S
Gd336 O388 2.324 . S
Gd336 C395 2.828 . S
Gd337 N346 2.661 . S
Gd337 N350 2.601 . S
Gd337 O381 2.362 . S
Gd337 O382 2.324 . S
Gd337 O386 2.545 . S
Gd337 O387 2.606 . S
Gd337 O389 2.429 . S
Gd337 O390 2.545 . S
Gd337 O391 2.412 . S
Gd337 C404 2.828 . S
C338 C341 1.417 . S
C338 C343 1.431 . S
C338 C344 1.412 . S
C339 C342 1.437 . S
C339 C343 1.317 . S
C339 H358 0.929 . S
C340 C341 1.426 . S
C340 C342 1.413 . S
C340 N350 1.359 . S
C341 C338 1.417 . S
C341 C340 1.426 . S
C341 N346 1.350 . S
C342 C339 1.437 . S
C342 C340 1.413 . S
C342 C352 1.391 . S
C343 C338 1.431 . S
C343 C339 1.317 . S
C343 H354 0.930 . S
C344 C338 1.412 . S
C344 C345 1.355 . S
C344 H356 0.930 . S
C345 C344 1.355 . S
C345 C347 1.402 . S
C345 H357 0.930 . S
N346 Gd337 2.661 . S
N346 C341 1.350 . S
N346 C347 1.307 . S
C347 C345 1.402 . S
C347 N346 1.307 . S
C347 H348 0.930 . S
H348 C347 0.930 . S
C349 N350 1.334 . S
C349 C351 1.394 . S
C349 H353 0.930 . S
N350 Gd337 2.601 . S
N350 C340 1.359 . S
N350 C349 1.334 . S
C351 C349 1.394 . S
C351 C352 1.359 . S
C351 H363 0.930 . S
C352 C342 1.391 . S
C352 C351 1.359 . S
C352 H364 0.929 . S
H353 C349 0.930 . S
H354 C343 0.930 . S
H355 C372 0.930 . S
H356 C344 0.930 . S
H357 C345 0.930 . S
H358 C339 0.929 . S
H359 C377 0.930 . S
H360 C368 0.930 . S
H361 C369 0.930 . S
H362 C393 0.929 . S
H363 C351 0.930 . S
H364 C352 0.929 . S
H365 C394 0.930 . S
H366 C375 0.930 . S
N367 Gd336 2.661 . S
N367 C371 1.350 . S
N367 C372 1.307 . S
C368 H360 0.930 . S
C368 C369 1.355 . S
C368 C370 1.412 . S
C369 H361 0.930 . S
C369 C368 1.355 . S
C369 C372 1.402 . S
C370 C368 1.412 . S
C370 C371 1.417 . S
C370 C394 1.431 . S
C371 N367 1.350 . S
C371 C370 1.417 . S
C371 C374 1.426 . S
C372 H355 0.930 . S
C372 N367 1.307 . S
C372 C369 1.402 . S
N373 Gd336 2.601 . S
N373 C374 1.359 . S
N373 C377 1.334 . S
C374 C371 1.426 . S
C374 N373 1.359 . S
C374 C378 1.413 . S
C375 H366 0.930 . S
C375 C376 1.359 . S
C375 C377 1.394 . S
C376 C375 1.359 . S
C376 C378 1.391 . S
C376 H379 0.929 . S
C377 H359 0.930 . S
C377 N373 1.334 . S
C377 C375 1.394 . S
C378 C374 1.413 . S
C378 C376 1.391 . S
C378 C393 1.437 . S
H379 C376 0.929 . S
O380 Gd336 2.545 . S
O380 C395 1.258 . S
O381 Gd336 2.606 . S
O381 Gd337 2.362 . S
O381 C392 1.284 . S
O382 Gd337 2.324 . S
O382 C402 1.254 . S
O383 Gd336 2.429 . S
O383 C402 1.268 . S
O384 Gd336 2.545 . S
O384 C392 1.250 . S
O385 Gd336 2.412 . S
O385 C395 1.252 . S
O386 Gd337 2.545 . S
O386 C404 1.258 . S
O387 Gd336 2.362 . S
O387 Gd337 2.606 . S
O387 C403 1.284 . S
O388 Gd336 2.324 . S
O388 C411 1.254 . S
O389 Gd337 2.429 . S
O389 C411 1.268 . S
O390 Gd337 2.545 . S
O390 C403 1.250 . S
O391 Gd337 2.412 . S
O391 C404 1.252 . S
C392 O381 1.284 . S
C392 O384 1.250 . S
C393 H362 0.929 . S
C393 C378 1.437 . S
C393 C394 1.317 . S
C394 H365 0.930 . S
C394 C370 1.431 . S
C394 C393 1.317 . S
C395 Gd336 2.828 . S
C395 O380 1.258 . S
C395 O385 1.252 . S
C395 C396 1.497 . S
C396 C395 1.497 . S
C396 C397 1.395 . S
C396 C398 1.380 . S
C397 C396 1.395 . S
C397 C400 1.398 . S
C397 H412 0.930 . S
C398 C396 1.380 . S
C398 C399 1.391 . S
C398 H413 0.930 . S
C399 C398 1.391 . S
C399 C401 1.387 . S
C400 C397 1.398 . S
C400 C401 1.380 . S
C400 H414 0.930 1_565 S
C401 C399 1.387 . S
C401 C400 1.380 . S
C401 H415 0.930 . S
C402 O382 1.254 . S
C402 O383 1.268 . S
C403 O387 1.284 . S
C403 O390 1.250 . S
C404 Gd337 2.828 . S
C404 O386 1.258 . S
C404 O391 1.252 . S
C404 C405 1.497 . S
C405 C404 1.497 . S
C405 C406 1.395 . S
C405 C407 1.380 . S
C406 C405 1.395 . S
C406 C409 1.398 . S
C406 H416 0.930 . S
C407 C405 1.380 . S
C407 C408 1.391 . S
C407 H417 0.930 . S
C408 C407 1.391 . S
C408 C410 1.387 . S
C409 C406 1.398 . S
C409 C410 1.380 . S
C409 H418 0.930 . S
C410 C408 1.387 . S
C410 C409 1.380 . S
C410 H419 0.930 . S
C411 O388 1.254 . S
C411 O389 1.268 . S
H412 C397 0.930 . S
H413 C398 0.930 . S
H414 C400 0.930 1_545 S
H415 C401 0.930 . S
H416 C406 0.930 . S
H417 C407 0.930 . S
H418 C409 0.930 . S
H419 C410 0.930 . S
Gd420 N451 2.661 . S
Gd420 N457 2.601 . S
Gd420 O464 2.545 . S
Gd420 O465 2.606 . S
Gd420 O467 2.429 . S
Gd420 O468 2.545 . S
Gd420 O469 2.412 . S
Gd420 O471 2.362 . S
Gd420 O472 2.324 . S
Gd420 C479 2.828 . S
Gd421 N430 2.661 . S
Gd421 N434 2.601 . S
Gd421 O465 2.362 . S
Gd421 O466 2.324 . S
Gd421 O470 2.545 . S
Gd421 O471 2.606 . S
Gd421 O473 2.429 . S
Gd421 O474 2.545 . S
Gd421 O475 2.412 . S
Gd421 C488 2.828 . S
C422 C425 1.417 . S
C422 C427 1.431 . S
C422 C428 1.412 . S
C423 C426 1.437 . S
C423 C427 1.317 . S
C423 H442 0.929 . S
C424 C425 1.426 . S
C424 C426 1.413 . S
C424 N434 1.359 . S
C425 C422 1.417 . S
C425 C424 1.426 . S
C425 N430 1.350 . S
C426 C423 1.437 . S
C426 C424 1.413 . S
C426 C436 1.391 . S
C427 C422 1.431 . S
C427 C423 1.317 . S
C427 H438 0.930 . S
C428 C422 1.412 . S
C428 C429 1.355 . S
C428 H440 0.930 . S
C429 C428 1.355 . S
C429 C431 1.402 . S
C429 H441 0.930 . S
N430 Gd421 2.661 . S
N430 C425 1.350 . S
N430 C431 1.307 . S
C431 C429 1.402 . S
C431 N430 1.307 . S
C431 H432 0.930 . S
H432 C431 0.930 . S
C433 N434 1.334 . S
C433 C435 1.394 . S
C433 H437 0.930 . S
N434 Gd421 2.601 . S
N434 C424 1.359 . S
N434 C433 1.334 . S
C435 C433 1.394 . S
C435 C436 1.359 . S
C435 H447 0.930 . S
C436 C426 1.391 . S
C436 C435 1.359 . S
C436 H448 0.929 . S
H437 C433 0.930 . S
H438 C427 0.930 . S
H439 C456 0.930 . S
H440 C428 0.930 . S
H441 C429 0.930 . S
H442 C423 0.929 . S
H443 C461 0.930 . S
H444 C452 0.930 . S
H445 C453 0.930 . S
H446 C477 0.929 . S
H447 C435 0.930 . S
H448 C436 0.929 . S
H449 C478 0.930 . S
H450 C459 0.930 . S
N451 Gd420 2.661 . S
N451 C455 1.350 . S
N451 C456 1.307 . S
C452 H444 0.930 . S
C452 C453 1.355 . S
C452 C454 1.412 . S
C453 H445 0.930 . S
C453 C452 1.355 . S
C453 C456 1.402 . S
C454 C452 1.412 . S
C454 C455 1.417 . S
C454 C478 1.431 . S
C455 N451 1.350 . S
C455 C454 1.417 . S
C455 C458 1.426 . S
C456 H439 0.930 . S
C456 N451 1.307 . S
C456 C453 1.402 . S
N457 Gd420 2.601 . S
N457 C458 1.359 . S
N457 C461 1.334 . S
C458 C455 1.426 . S
C458 N457 1.359 . S
C458 C462 1.413 . S
C459 H450 0.930 . S
C459 C460 1.359 . S
C459 C461 1.394 . S
C460 C459 1.359 . S
C460 C462 1.391 . S
C460 H463 0.929 . S
C461 H443 0.930 . S
C461 N457 1.334 . S
C461 C459 1.394 . S
C462 C458 1.413 . S
C462 C460 1.391 . S
C462 C477 1.437 . S
H463 C460 0.929 . S
O464 Gd420 2.545 . S
O464 C479 1.258 . S
O465 Gd420 2.606 . S
O465 Gd421 2.362 . S
O465 C476 1.284 . S
O466 Gd421 2.324 . S
O466 C486 1.254 . S
O467 Gd420 2.429 . S
O467 C486 1.268 . S
O468 Gd420 2.545 . S
O468 C476 1.250 . S
O469 Gd420 2.412 . S
O469 C479 1.252 . S
O470 Gd421 2.545 . S
O470 C488 1.258 . S
O471 Gd420 2.362 . S
O471 Gd421 2.606 . S
O471 C487 1.284 . S
O472 Gd420 2.324 . S
O472 C495 1.254 . S
O473 Gd421 2.429 . S
O473 C495 1.268 . S
O474 Gd421 2.545 . S
O474 C487 1.250 . S
O475 Gd421 2.412 . S
O475 C488 1.252 . S
C476 O465 1.284 . S
C476 O468 1.250 . S
C477 H446 0.929 . S
C477 C462 1.437 . S
C477 C478 1.317 . S
C478 H449 0.930 . S
C478 C454 1.431 . S
C478 C477 1.317 . S
C479 Gd420 2.828 . S
C479 O464 1.258 . S
C479 O469 1.252 . S
C479 C480 1.497 . S
C480 C479 1.497 . S
C480 C481 1.395 . S
C480 C482 1.380 . S
C481 C480 1.395 . S
C481 C484 1.398 . S
C481 H496 0.930 . S
C482 C480 1.380 . S
C482 C483 1.391 . S
C482 H497 0.930 . S
C483 C482 1.391 . S
C483 C485 1.387 . S
C484 C481 1.398 . S
C484 C485 1.380 . S
C484 H498 0.930 . S
C485 C483 1.387 . S
C485 C484 1.380 . S
C485 H499 0.930 . S
C486 O466 1.254 . S
C486 O467 1.268 . S
C487 O471 1.284 . S
C487 O474 1.250 . S
C488 Gd421 2.828 . S
C488 O470 1.258 . S
C488 O475 1.252 . S
C488 C489 1.497 . S
C489 C488 1.497 . S
C489 C490 1.395 . S
C489 C491 1.380 . S
C490 C489 1.395 . S
C490 C493 1.398 . S
C490 H500 0.930 . S
C491 C489 1.380 . S
C491 C492 1.391 . S
C491 H501 0.930 . S
C492 C491 1.391 . S
C492 C494 1.387 . S
C493 C490 1.398 . S
C493 C494 1.380 . S
C493 H502 0.930 . S
C494 C492 1.387 . S
C494 C493 1.380 . S
C494 H503 0.930 . S
C495 O472 1.254 . S
C495 O473 1.268 . S
H496 C481 0.930 . S
H497 C482 0.930 . S
H498 C484 0.930 . S
H499 C485 0.930 . S
H500 C490 0.930 . S
H501 C491 0.930 . S
H502 C493 0.930 . S
H503 C494 0.930 . S
Gd504 N535 2.661 . S
Gd504 N541 2.601 . S
Gd504 O548 2.545 . S
Gd504 O549 2.606 . S
Gd504 O551 2.429 . S
Gd504 O552 2.545 . S
Gd504 O553 2.412 . S
Gd504 O555 2.362 . S
Gd504 O556 2.324 . S
Gd504 C563 2.828 . S
Gd505 N514 2.661 . S
Gd505 N518 2.601 . S
Gd505 O549 2.362 . S
Gd505 O550 2.324 . S
Gd505 O554 2.545 . S
Gd505 O555 2.606 . S
Gd505 O557 2.429 . S
Gd505 O558 2.545 . S
Gd505 O559 2.412 . S
Gd505 C572 2.828 . S
C506 C509 1.417 . S
C506 C511 1.431 . S
C506 C512 1.412 . S
C507 C510 1.437 . S
C507 C511 1.317 . S
C507 H526 0.929 . S
C508 C509 1.426 . S
C508 C510 1.413 . S
C508 N518 1.359 . S
C509 C506 1.417 . S
C509 C508 1.426 . S
C509 N514 1.350 . S
C510 C507 1.437 . S
C510 C508 1.413 . S
C510 C520 1.391 . S
C511 C506 1.431 . S
C511 C507 1.317 . S
C511 H522 0.930 . S
C512 C506 1.412 . S
C512 C513 1.355 . S
C512 H524 0.930 . S
C513 C512 1.355 . S
C513 C515 1.402 . S
C513 H525 0.930 . S
N514 Gd505 2.661 . S
N514 C509 1.350 . S
N514 C515 1.307 . S
C515 C513 1.402 . S
C515 N514 1.307 . S
C515 H516 0.930 . S
H516 C515 0.930 . S
C517 N518 1.334 . S
C517 C519 1.394 . S
C517 H521 0.930 . S
N518 Gd505 2.601 . S
N518 C508 1.359 . S
N518 C517 1.334 . S
C519 C517 1.394 . S
C519 C520 1.359 . S
C519 H531 0.930 . S
C520 C510 1.391 . S
C520 C519 1.359 . S
C520 H532 0.929 . S
H521 C517 0.930 . S
H522 C511 0.930 . S
H523 C540 0.930 . S
H524 C512 0.930 . S
H525 C513 0.930 . S
H526 C507 0.929 . S
H527 C545 0.930 . S
H528 C536 0.930 . S
H529 C537 0.930 . S
H530 C561 0.929 . S
H531 C519 0.930 . S
H532 C520 0.929 . S
H533 C562 0.930 . S
H534 C543 0.930 . S
N535 Gd504 2.661 . S
N535 C539 1.350 . S
N535 C540 1.307 . S
C536 H528 0.930 . S
C536 C537 1.355 . S
C536 C538 1.412 . S
C537 H529 0.930 . S
C537 C536 1.355 . S
C537 C540 1.402 . S
C538 C536 1.412 . S
C538 C539 1.417 . S
C538 C562 1.431 . S
C539 N535 1.350 . S
C539 C538 1.417 . S
C539 C542 1.426 . S
C540 H523 0.930 . S
C540 N535 1.307 . S
C540 C537 1.402 . S
N541 Gd504 2.601 . S
N541 C542 1.359 . S
N541 C545 1.334 . S
C542 C539 1.426 . S
C542 N541 1.359 . S
C542 C546 1.413 . S
C543 H534 0.930 . S
C543 C544 1.359 . S
C543 C545 1.394 . S
C544 C543 1.359 . S
C544 C546 1.391 . S
C544 H547 0.929 . S
C545 H527 0.930 . S
C545 N541 1.334 . S
C545 C543 1.394 . S
C546 C542 1.413 . S
C546 C544 1.391 . S
C546 C561 1.437 . S
H547 C544 0.929 . S
O548 Gd504 2.545 . S
O548 C563 1.258 . S
O549 Gd504 2.606 . S
O549 Gd505 2.362 . S
O549 C560 1.284 . S
O550 Gd505 2.324 . S
O550 C570 1.254 . S
O551 Gd504 2.429 . S
O551 C570 1.268 . S
O552 Gd504 2.545 . S
O552 C560 1.250 . S
O553 Gd504 2.412 . S
O553 C563 1.252 . S
O554 Gd505 2.545 . S
O554 C572 1.258 . S
O555 Gd504 2.362 . S
O555 Gd505 2.606 . S
O555 C571 1.284 . S
O556 Gd504 2.324 . S
O556 C579 1.254 . S
O557 Gd505 2.429 . S
O557 C579 1.268 . S
O558 Gd505 2.545 . S
O558 C571 1.250 . S
O559 Gd505 2.412 . S
O559 C572 1.252 . S
C560 O549 1.284 . S
C560 O552 1.250 . S
C561 H530 0.929 . S
C561 C546 1.437 . S
C561 C562 1.317 . S
C562 H533 0.930 . S
C562 C538 1.431 . S
C562 C561 1.317 . S
C563 Gd504 2.828 . S
C563 O548 1.258 . S
C563 O553 1.252 . S
C563 C564 1.497 . S
C564 C563 1.497 . S
C564 C565 1.395 . S
C564 C566 1.380 . S
C565 C564 1.395 . S
C565 C568 1.398 . S
C565 H580 0.930 . S
C566 C564 1.380 . S
C566 C567 1.391 . S
C566 H581 0.930 . S
C567 C566 1.391 . S
C567 C569 1.387 . S
C568 C565 1.398 . S
C568 C569 1.380 . S
C568 H582 0.930 . S
C569 C567 1.387 . S
C569 C568 1.380 . S
C569 H583 0.930 . S
C570 O550 1.254 . S
C570 O551 1.268 . S
C571 O555 1.284 . S
C571 O558 1.250 . S
C572 Gd505 2.828 . S
C572 O554 1.258 . S
C572 O559 1.252 . S
C572 C573 1.497 . S
C573 C572 1.497 . S
C573 C574 1.395 . S
C573 C575 1.380 . S
C574 C573 1.395 . S
C574 C577 1.398 . S
C574 H584 0.930 . S
C575 C573 1.380 . S
C575 C576 1.391 . S
C575 H585 0.930 . S
C576 C575 1.391 . S
C576 C578 1.387 . S
C577 C574 1.398 . S
C577 C578 1.380 . S
C577 H586 0.930 . S
C578 C576 1.387 . S
C578 C577 1.380 . S
C578 H587 0.930 . S
C579 O556 1.254 . S
C579 O557 1.268 . S
H580 C565 0.930 . S
H581 C566 0.930 . S
H582 C568 0.930 . S
H583 C569 0.930 . S
H584 C574 0.930 . S
H585 C575 0.930 . S
H586 C577 0.930 . S
H587 C578 0.930 . S
Gd588 N619 2.661 . S
Gd588 N625 2.601 . S
Gd588 O632 2.545 . S
Gd588 O633 2.606 . S
Gd588 O635 2.429 . S
Gd588 O636 2.545 . S
Gd588 O637 2.412 . S
Gd588 O639 2.362 . S
Gd588 O640 2.324 . S
Gd588 C647 2.828 . S
Gd589 N598 2.661 . S
Gd589 N602 2.601 . S
Gd589 O633 2.362 . S
Gd589 O634 2.324 . S
Gd589 O638 2.545 . S
Gd589 O639 2.606 . S
Gd589 O641 2.429 . S
Gd589 O642 2.545 . S
Gd589 O643 2.412 . S
Gd589 C656 2.828 . S
C590 C593 1.417 . S
C590 C595 1.431 . S
C590 C596 1.412 . S
C591 C594 1.437 . S
C591 C595 1.317 . S
C591 H610 0.929 . S
C592 C593 1.426 . S
C592 C594 1.413 . S
C592 N602 1.359 . S
C593 C590 1.417 . S
C593 C592 1.426 . S
C593 N598 1.350 . S
C594 C591 1.437 . S
C594 C592 1.413 . S
C594 C604 1.391 . S
C595 C590 1.431 . S
C595 C591 1.317 . S
C595 H606 0.930 . S
C596 C590 1.412 . S
C596 C597 1.355 . S
C596 H608 0.930 . S
C597 C596 1.355 . S
C597 C599 1.402 . S
C597 H609 0.930 . S
N598 Gd589 2.661 . S
N598 C593 1.350 . S
N598 C599 1.307 . S
C599 C597 1.402 . S
C599 N598 1.307 . S
C599 H600 0.930 . S
H600 C599 0.930 . S
C601 N602 1.334 . S
C601 C603 1.394 . S
C601 H605 0.930 . S
N602 Gd589 2.601 . S
N602 C592 1.359 . S
N602 C601 1.334 . S
C603 C601 1.394 . S
C603 C604 1.359 . S
C603 H615 0.930 . S
C604 C594 1.391 . S
C604 C603 1.359 . S
C604 H616 0.929 . S
H605 C601 0.930 . S
H606 C595 0.930 . S
H607 C624 0.930 . S
H608 C596 0.930 . S
H609 C597 0.930 . S
H610 C591 0.929 . S
H611 C629 0.930 . S
H612 C620 0.930 . S
H613 C621 0.930 . S
H614 C645 0.929 . S
H615 C603 0.930 . S
H616 C604 0.929 . S
H617 C646 0.930 . S
H618 C627 0.930 . S
N619 Gd588 2.661 . S
N619 C623 1.350 . S
N619 C624 1.307 . S
C620 H612 0.930 . S
C620 C621 1.355 . S
C620 C622 1.412 . S
C621 H613 0.930 . S
C621 C620 1.355 . S
C621 C624 1.402 . S
C622 C620 1.412 . S
C622 C623 1.417 . S
C622 C646 1.431 . S
C623 N619 1.350 . S
C623 C622 1.417 . S
C623 C626 1.426 . S
C624 H607 0.930 . S
C624 N619 1.307 . S
C624 C621 1.402 . S
N625 Gd588 2.601 . S
N625 C626 1.359 . S
N625 C629 1.334 . S
C626 C623 1.426 . S
C626 N625 1.359 . S
C626 C630 1.413 . S
C627 H618 0.930 . S
C627 C628 1.359 . S
C627 C629 1.394 . S
C628 C627 1.359 . S
C628 C630 1.391 . S
C628 H631 0.929 . S
C629 H611 0.930 . S
C629 N625 1.334 . S
C629 C627 1.394 . S
C630 C626 1.413 . S
C630 C628 1.391 . S
C630 C645 1.437 . S
H631 C628 0.929 . S
O632 Gd588 2.545 . S
O632 C647 1.258 . S
O633 Gd588 2.606 . S
O633 Gd589 2.362 . S
O633 C644 1.284 . S
O634 Gd589 2.324 . S
O634 C654 1.254 . S
O635 Gd588 2.429 . S
O635 C654 1.268 . S
O636 Gd588 2.545 . S
O636 C644 1.250 . S
O637 Gd588 2.412 . S
O637 C647 1.252 . S
O638 Gd589 2.545 . S
O638 C656 1.258 . S
O639 Gd588 2.362 . S
O639 Gd589 2.606 . S
O639 C655 1.284 . S
O640 Gd588 2.324 . S
O640 C663 1.254 . S
O641 Gd589 2.429 . S
O641 C663 1.268 . S
O642 Gd589 2.545 . S
O642 C655 1.250 . S
O643 Gd589 2.412 . S
O643 C656 1.252 . S
C644 O633 1.284 . S
C644 O636 1.250 . S
C645 H614 0.929 . S
C645 C630 1.437 . S
C645 C646 1.317 . S
C646 H617 0.930 . S
C646 C622 1.431 . S
C646 C645 1.317 . S
C647 Gd588 2.828 . S
C647 O632 1.258 . S
C647 O637 1.252 . S
C647 C648 1.497 . S
C648 C647 1.497 . S
C648 C649 1.395 . S
C648 C650 1.380 . S
C649 C648 1.395 . S
C649 C652 1.398 1_565 S
C649 H664 0.930 . S
C650 C648 1.380 . S
C650 C651 1.391 . S
C650 H665 0.930 . S
C651 C650 1.391 . S
C651 C653 1.387 . S
C652 C649 1.398 1_545 S
C652 C653 1.380 1_545 S
C652 H666 0.930 . S
C653 C651 1.387 . S
C653 C652 1.380 1_565 S
C653 H667 0.930 1_565 S
C654 O634 1.254 . S
C654 O635 1.268 . S
C655 O639 1.284 . S
C655 O642 1.250 . S
C656 Gd589 2.828 . S
C656 O638 1.258 . S
C656 O643 1.252 . S
C656 C657 1.497 . S
C657 C656 1.497 . S
C657 C658 1.395 . S
C657 C659 1.380 . S
C658 C657 1.395 . S
C658 C661 1.398 . S
C658 H668 0.930 . S
C659 C657 1.380 . S
C659 C660 1.391 . S
C659 H669 0.930 . S
C660 C659 1.391 . S
C660 C662 1.387 . S
C661 C658 1.398 . S
C661 C662 1.380 . S
C661 H670 0.930 . S
C662 C660 1.387 . S
C662 C661 1.380 . S
C662 H671 0.930 . S
C663 O640 1.254 . S
C663 O641 1.268 . S
H664 C649 0.930 . S
H665 C650 0.930 . S
H666 C652 0.930 . S
H667 C653 0.930 1_545 S
H668 C658 0.930 . S
H669 C659 0.930 . S
H670 C661 0.930 . S
H671 C662 0.930 . S
Fe672 O673 1.886 1_455 S
Fe672 O676 1.715 . S
Fe672 O681 2.077 1_455 S
Fe672 O686 1.935 . S
Fe672 O692 2.077 1_455 S
Fe672 O701 1.935 . S
O673 Fe672 1.886 1_655 S
O673 Fe675 1.715 . S
Fe674 O676 1.886 . S
Fe674 O677 1.715 1_545 S
Fe674 O684 1.935 . S
Fe674 O685 2.077 . S
Fe674 O691 1.935 1_545 S
Fe674 O700 2.077 . S
Fe675 O673 1.715 . S
Fe675 O678 1.886 1_545 S
Fe675 O682 1.935 . S
Fe675 O687 2.077 1_545 S
Fe675 O693 1.935 . S
Fe675 O697 2.077 1_545 S
O676 Fe672 1.715 . S
O676 Fe674 1.886 . S
O677 Fe674 1.715 1_565 S
O677 Fe679 1.886 . S
O678 Fe675 1.886 1_565 S
O678 Fe679 1.715 1_655 S
Fe679 O677 1.886 . S
Fe679 O678 1.715 1_455 S
Fe679 O683 2.077 . S
Fe679 O688 1.935 1_455 S
Fe679 O690 2.077 . S
Fe679 O698 1.935 1_455 S
C680 O692 1.381 . S
C680 O693 1.421 . S
O681 Fe672 2.077 1_655 S
O681 C694 1.381 . S
O682 Fe675 1.935 . S
O682 C694 1.421 . S
O683 Fe679 2.077 . S
O683 C699 1.381 . S
O684 Fe674 1.935 . S
O684 C699 1.421 1_545 S
O685 Fe674 2.077 . S
O685 C689 1.381 . S
O686 Fe672 1.935 . S
O686 C689 1.421 . S
O687 Fe675 2.077 1_565 S
O687 C695 1.381 . S
O688 Fe679 1.935 1_655 S
O688 C695 1.421 . S
C689 O685 1.381 . S
C689 O686 1.421 . S
O690 Fe679 2.077 . S
O690 C702 1.381 . S
O691 Fe674 1.935 1_565 S
O691 C702 1.421 . S
O692 Fe672 2.077 1_655 S
O692 C680 1.381 . S
O693 Fe675 1.935 . S
O693 C680 1.421 . S
C694 O681 1.381 . S
C694 O682 1.421 . S
C695 O687 1.381 . S
C695 O688 1.421 . S
C696 O697 1.381 . S
C696 O698 1.421 . S
O697 Fe675 2.077 1_565 S
O697 C696 1.381 . S
O698 Fe679 1.935 1_655 S
O698 C696 1.421 . S
C699 O683 1.381 . S
C699 O684 1.421 1_565 S
O700 Fe674 2.077 . S
O700 C703 1.381 . S
O701 Fe672 1.935 . S
O701 C703 1.421 . S
C702 O690 1.381 . S
C702 O691 1.421 . S
C703 O700 1.381 . S
C703 O701 1.421 . S
Fe704 O705 1.886 1_565 S
Fe704 O708 1.715 . S
Fe704 O713 2.077 1_554 S
Fe704 O718 1.935 1_554 S
Fe704 O724 2.077 . S
Fe704 O733 1.935 . S
O705 Fe704 1.886 1_545 S
O705 Fe707 1.715 . S
Fe706 O708 1.887 1_546 S
Fe706 O709 1.715 . S
Fe706 O716 1.952 . S
Fe706 O717 2.093 1_545 S
Fe706 O723 1.917 1_556 S
Fe706 O732 2.062 1_546 S
Fe707 O705 1.715 . S
Fe707 O710 1.886 . S
Fe707 O714 1.935 1_554 S
Fe707 O719 2.077 1_554 S
Fe707 O725 1.935 . S
Fe707 O729 2.077 . S
O708 Fe704 1.715 . S
O708 Fe706 1.887 1_564 S
O709 Fe706 1.715 . S
O709 Fe711 1.886 . S
O710 Fe707 1.886 . S
O710 Fe711 1.715 1_554 S
Fe711 O709 1.886 . S
Fe711 O710 1.715 1_556 S
Fe711 O715 2.077 . S
Fe711 O720 1.935 . S
Fe711 O722 2.077 1_556 S
Fe711 O730 1.935 1_556 S
C712 O724 1.381 . S
C712 O725 1.421 1_565 S
O713 Fe704 2.077 1_556 S
O713 C726 1.381 . S
O714 Fe707 1.935 1_556 S
O714 C726 1.421 1_545 S
O715 Fe711 2.077 . S
O715 C731 1.381 . S
O716 Fe706 1.952 . S
O716 C731 1.421 . S
O717 Fe706 2.093 1_565 S
O717 C721 1.381 . S
O718 Fe704 1.935 1_556 S
O718 C721 1.421 . S
O719 Fe707 2.077 1_556 S
O719 C727 1.381 . S
O720 Fe711 1.935 . S
O720 C727 1.421 . S
C721 O717 1.381 . S
C721 O718 1.421 . S
O722 Fe711 2.077 1_554 S
O722 C734 1.381 . S
O723 Fe706 1.917 1_554 S
O723 C734 1.421 . S
O724 Fe704 2.077 . S
O724 C712 1.381 . S
O725 Fe707 1.935 . S
O725 C712 1.421 1_545 S
C726 O713 1.381 . S
C726 O714 1.421 1_565 S
C727 O719 1.381 . S
C727 O720 1.421 . S
C728 O729 1.381 . S
C728 O730 1.421 . S
O729 Fe707 2.077 . S
O729 C728 1.381 . S
O730 Fe711 1.935 1_554 S
O730 C728 1.421 . S
C731 O715 1.381 . S
C731 O716 1.421 . S
O732 Fe706 2.062 1_564 S
O732 C735 1.381 . S
O733 Fe704 1.935 . S
O733 C735 1.421 . S
C734 O722 1.381 . S
C734 O723 1.421 . S
C735 O732 1.381 . S
C735 O733 1.421 . S
Fe736 O737 1.886 1_455 S
Fe736 O740 1.715 . S
Fe736 O745 2.077 1_455 S
Fe736 O750 1.935 . S
Fe736 O756 2.077 1_455 S
Fe736 O765 1.935 . S
O737 Fe736 1.886 1_655 S
O737 Fe739 1.715 . S
Fe738 O740 1.886 . S
Fe738 O741 1.715 . S
Fe738 O748 1.935 . S
Fe738 O749 2.077 . S
Fe738 O755 1.935 . S
Fe738 O764 2.077 . S
Fe739 O737 1.715 . S
Fe739 O742 1.886 . S
Fe739 O746 1.935 . S
Fe739 O751 2.077 . S
Fe739 O757 1.935 . S
Fe739 O761 2.077 . S
O740 Fe736 1.715 . S
O740 Fe738 1.886 . S
O741 Fe738 1.715 . S
O741 Fe743 1.886 1_455 S
O742 Fe739 1.886 . S
O742 Fe743 1.715 . S
Fe743 O741 1.886 1_655 S
Fe743 O742 1.715 . S
Fe743 O747 2.077 1_655 S
Fe743 O752 1.935 . S
Fe743 O754 2.077 1_655 S
Fe743 O762 1.935 . S
C744 O756 1.381 . S
C744 O757 1.421 . S
O745 Fe736 2.077 1_655 S
O745 C758 1.381 1_554 S
O746 Fe739 1.935 . S
O746 C758 1.421 1_554 S
O747 Fe743 2.077 1_455 S
O747 C763 1.388 . S
O748 Fe738 1.935 . S
O748 C763 1.426 . S
O749 Fe738 2.077 . S
O749 C753 1.381 1_554 S
O750 Fe736 1.935 . S
O750 C753 1.421 1_554 S
O751 Fe739 2.077 . S
O751 C759 1.381 1_554 S
O752 Fe743 1.935 . S
O752 C759 1.421 1_554 S
C753 O749 1.381 1_556 S
C753 O750 1.421 1_556 S
O754 Fe743 2.077 1_455 S
O754 C766 1.381 . S
O755 Fe738 1.935 . S
O755 C766 1.421 . S
O756 Fe736 2.077 1_655 S
O756 C744 1.381 . S
O757 Fe739 1.935 . S
O757 C744 1.421 . S
C758 O745 1.381 1_556 S
C758 O746 1.421 1_556 S
C759 O751 1.381 1_556 S
C759 O752 1.421 1_556 S
C760 O761 1.381 . S
C760 O762 1.421 . S
O761 Fe739 2.077 . S
O761 C760 1.381 . S
O762 Fe743 1.935 . S
O762 C760 1.421 . S
C763 O747 1.388 . S
C763 O748 1.426 . S
O764 Fe738 2.077 . S
O764 C767 1.381 . S
O765 Fe736 1.935 . S
O765 C767 1.421 . S
C766 O754 1.381 . S
C766 O755 1.421 . S
C767 O764 1.381 . S
C767 O765 1.421 . S
Fe768 O769 1.886 . S
Fe768 O772 1.715 . S
Fe768 O777 2.077 . S
Fe768 O782 1.935 . S
Fe768 O788 2.077 . S
Fe768 O797 1.935 . S
O769 Fe768 1.886 . S
O769 Fe771 1.715 1_556 S
Fe770 O772 1.886 1_554 S
Fe770 O773 1.715 . S
Fe770 O780 1.935 . S
Fe770 O781 2.077 1_554 S
Fe770 O787 1.935 . S
Fe770 O796 2.077 1_554 S
Fe771 O769 1.715 1_554 S
Fe771 O774 1.886 . S
Fe771 O778 1.935 1_554 S
Fe771 O783 2.077 . S
Fe771 O789 1.935 . S
Fe771 O793 2.077 . S
O772 Fe768 1.715 . S
O772 Fe770 1.886 1_556 S
O773 Fe770 1.715 . S
O773 Fe775 1.886 . S
O774 Fe771 1.886 . S
O774 Fe775 1.715 . S
Fe775 O773 1.886 . S
Fe775 O774 1.715 . S
Fe775 O779 2.077 . S
Fe775 O784 1.935 . S
Fe775 O786 2.077 . S
Fe775 O794 1.935 . S
C776 O788 1.381 . S
C776 O789 1.421 1_556 S
O777 Fe768 2.077 . S
O777 C790 1.381 . S
O778 Fe771 1.935 1_556 S
O778 C790 1.421 . S
O779 Fe775 2.077 . S
O779 C795 1.381 . S
O780 Fe770 1.935 . S
O780 C795 1.421 . S
O781 Fe770 2.077 1_556 S
O781 C785 1.381 . S
O782 Fe768 1.935 . S
O782 C785 1.421 . S
O783 Fe771 2.077 . S
O783 C791 1.381 . S
O784 Fe775 1.935 . S
O784 C791 1.421 . S
C785 O781 1.381 . S
C785 O782 1.421 . S
O786 Fe775 2.077 . S
O786 C798 1.381 . S
O787 Fe770 1.935 . S
O787 C798 1.421 . S
O788 Fe768 2.077 . S
O788 C776 1.381 . S
O789 Fe771 1.935 . S
O789 C776 1.421 1_554 S
C790 O777 1.381 . S
C790 O778 1.421 . S
C791 O783 1.381 . S
C791 O784 1.421 . S
C792 O793 1.381 . S
C792 O794 1.421 . S
O793 Fe771 2.077 . S
O793 C792 1.381 . S
O794 Fe775 1.935 . S
O794 C792 1.421 . S
C795 O779 1.381 . S
C795 O780 1.421 . S
O796 Fe770 2.077 1_556 S
O796 C799 1.381 . S
O797 Fe768 1.935 . S
O797 C799 1.421 . S
C798 O786 1.381 . S
C798 O787 1.421 . S
C799 O796 1.381 . S
C799 O797 1.421 . S
Fe800 O801 1.886 . S
Fe800 O804 1.715 . S
Fe800 O809 2.077 . S
Fe800 O814 1.935 . S
Fe800 O820 2.077 1_455 S
Fe800 O829 1.935 1_455 S
O801 Fe800 1.886 . S
O801 Fe803 1.715 . S
Fe802 O804 1.886 . S
Fe802 O805 1.715 . S
Fe802 O812 1.935 . S
Fe802 O813 2.077 . S
Fe802 O819 1.935 1_455 S
Fe802 O828 2.077 1_455 S
Fe803 O801 1.715 . S
Fe803 O806 1.886 . S
Fe803 O810 1.935 . S
Fe803 O815 2.077 . S
Fe803 O821 1.935 1_455 S
Fe803 O825 2.101 . S
O804 Fe800 1.715 . S
O804 Fe802 1.886 . S
O805 Fe802 1.715 . S
O805 Fe807 1.886 . S
O806 Fe803 1.886 . S
O806 Fe807 1.715 . S
Fe807 O805 1.886 . S
Fe807 O806 1.715 . S
Fe807 O811 2.077 . S
Fe807 O816 1.935 . S
Fe807 O818 2.077 . S
Fe807 O826 1.935 . S
C808 O820 1.381 . S
C808 O821 1.421 . S
O809 Fe800 2.077 . S
O809 C822 1.381 . S
O810 Fe803 1.935 . S
O810 C822 1.421 . S
O811 Fe807 2.077 . S
O811 C827 1.381 . S
O812 Fe802 1.935 . S
O812 C827 1.421 . S
O813 Fe802 2.077 . S
O813 C817 1.381 . S
O814 Fe800 1.935 . S
O814 C817 1.421 . S
O815 Fe803 2.077 . S
O815 C823 1.381 . S
O816 Fe807 1.935 . S
O816 C823 1.421 . S
C817 O813 1.381 . S
C817 O814 1.421 . S
O818 Fe807 2.077 . S
O818 C830 1.381 1_455 S
O819 Fe802 1.935 1_655 S
O819 C830 1.421 . S
O820 Fe800 2.077 1_655 S
O820 C808 1.381 . S
O821 Fe803 1.935 1_655 S
O821 C808 1.421 . S
C822 O809 1.381 . S
C822 O810 1.421 . S
C823 O815 1.381 . S
C823 O816 1.421 . S
C824 O825 1.369 1_655 S
C824 O826 1.421 1_655 S
O825 Fe803 2.101 . S
O825 C824 1.369 1_455 S
O826 Fe807 1.935 . S
O826 C824 1.421 1_455 S
C827 O811 1.381 . S
C827 O812 1.421 . S
O828 Fe802 2.077 1_655 S
O828 C831 1.381 . S
O829 Fe800 1.935 1_655 S
O829 C831 1.421 . S
C830 O818 1.381 1_655 S
C830 O819 1.421 . S
C831 O828 1.381 . S
C831 O829 1.421 . S
Fe832 O833 1.886 . S
Fe832 O836 1.715 . S
Fe832 O841 2.077 . S
Fe832 O846 1.935 . S
Fe832 O852 2.077 . S
Fe832 O861 1.935 . S
O833 Fe832 1.886 . S
O833 Fe835 1.715 1_565 S
Fe834 O836 1.886 1_545 S
Fe834 O837 1.715 . S
Fe834 O844 1.935 . S
Fe834 O845 2.077 1_545 S
Fe834 O851 1.935 . S
Fe834 O860 2.077 1_545 S
Fe835 O833 1.715 1_545 S
Fe835 O838 1.886 . S
Fe835 O842 1.935 1_545 S
Fe835 O847 2.077 . S
Fe835 O853 1.935 1_545 S
Fe835 O857 2.077 . S
O836 Fe832 1.715 . S
O836 Fe834 1.886 1_565 S
O837 Fe834 1.715 . S
O837 Fe839 1.886 . S
O838 Fe835 1.886 . S
O838 Fe839 1.715 . S
Fe839 O837 1.886 . S
Fe839 O838 1.715 . S
Fe839 O843 2.077 . S
Fe839 O848 1.935 . S
Fe839 O850 2.077 . S
Fe839 O858 1.935 . S
C840 O852 1.381 . S
C840 O853 1.421 . S
O841 Fe832 2.077 . S
O841 C854 1.381 . S
O842 Fe835 1.935 1_565 S
O842 C854 1.421 . S
O843 Fe839 2.077 . S
O843 C859 1.381 . S
O844 Fe834 1.935 . S
O844 C859 1.421 . S
O845 Fe834 2.077 1_565 S
O845 C849 1.381 . S
O846 Fe832 1.935 . S
O846 C849 1.421 . S
O847 Fe835 2.077 . S
O847 C855 1.381 . S
O848 Fe839 1.935 . S
O848 C855 1.421 . S
C849 O845 1.381 . S
C849 O846 1.421 . S
O850 Fe839 2.077 . S
O850 C862 1.381 . S
O851 Fe834 1.935 . S
O851 C862 1.421 . S
O852 Fe832 2.077 . S
O852 C840 1.381 . S
O853 Fe835 1.935 1_565 S
O853 C840 1.421 . S
C854 O841 1.381 . S
C854 O842 1.421 . S
C855 O847 1.381 . S
C855 O848 1.421 . S
C856 O857 1.381 . S
C856 O858 1.421 . S
O857 Fe835 2.077 . S
O857 C856 1.381 . S
O858 Fe839 1.935 . S
O858 C856 1.421 . S
C859 O843 1.381 . S
C859 O844 1.421 . S
O860 Fe834 2.077 1_565 S
O860 C863 1.381 . S
O861 Fe832 1.935 . S
O861 C863 1.421 . S
C862 O850 1.381 . S
C862 O851 1.421 . S
C863 O860 1.381 . S
C863 O861 1.421 . S
C864 C865 1.369 . S
C864 C866 1.419 . S
C864 H868 0.930 . S
C865 C864 1.369 . S
C865 C874 1.429 . S
C866 C864 1.419 . S
C866 C867 1.363 . S
C866 H869 0.929 . S
C867 C866 1.363 . S
C867 C873 1.428 . S
H868 C864 0.930 . S
H869 C866 0.929 . S
S870 N871 1.613 . S
S870 N872 1.610 . S
N871 S870 1.613 . S
N871 C874 1.350 . S
N872 S870 1.610 . S
N872 C873 1.351 . S
C873 C867 1.428 . S
C873 N872 1.351 . S
C873 C874 1.434 . S
C874 C865 1.429 . S
C874 N871 1.350 . S
C874 C873 1.434 . S
C875 C876 1.369 . S
C875 C877 1.419 . S
C875 H879 0.930 . S
C876 C875 1.369 . S
C876 C885 1.429 . S
C877 C875 1.419 . S
C877 C878 1.363 . S
C877 H880 0.929 . S
C878 C877 1.363 . S
C878 C884 1.428 . S
H879 C875 0.930 . S
H880 C877 0.929 . S
S881 N882 1.613 . S
S881 N883 1.610 . S
N882 S881 1.613 . S
N882 C885 1.350 . S
N883 S881 1.610 . S
N883 C884 1.351 . S
C884 C878 1.428 . S
C884 N883 1.351 . S
C884 C885 1.434 . S
C885 C876 1.429 . S
C885 N882 1.350 . S
C885 C884 1.434 . S
C886 C887 1.369 . S
C886 C888 1.419 . S
C886 H890 0.930 . S
C887 C886 1.369 . S
C887 C896 1.429 . S
C888 C886 1.419 . S
C888 C889 1.363 . S
C888 H891 0.929 . S
C889 C888 1.363 . S
C889 C895 1.428 . S
H890 C886 0.930 . S
H891 C888 0.929 . S
S892 N893 1.613 . S
S892 N894 1.610 . S
N893 S892 1.613 . S
N893 C896 1.350 . S
N894 S892 1.610 . S
N894 C895 1.351 . S
C895 C889 1.428 . S
C895 N894 1.351 . S
C895 C896 1.434 . S
C896 C887 1.429 . S
C896 N893 1.350 . S
C896 C895 1.434 . S
C897 C898 1.369 . S
C897 C899 1.419 . S
C897 H901 0.930 . S
C898 C897 1.369 . S
C898 C907 1.429 . S
C899 C897 1.419 . S
C899 C900 1.363 . S
C899 H902 0.929 . S
C900 C899 1.363 . S
C900 C906 1.428 . S
H901 C897 0.930 . S
H902 C899 0.929 . S
S903 N904 1.613 . S
S903 N905 1.610 . S
N904 S903 1.613 . S
N904 C907 1.350 . S
N905 S903 1.610 . S
N905 C906 1.351 . S
C906 C900 1.428 . S
C906 N905 1.351 . S
C906 C907 1.434 . S
C907 C898 1.429 . S
C907 N904 1.350 . S
C907 C906 1.434 . S
C908 C909 1.369 . S
C908 C910 1.419 . S
C908 H912 0.930 . S
C909 C908 1.369 . S
C909 C918 1.429 . S
C910 C908 1.419 . S
C910 C911 1.363 . S
C910 H913 0.929 1_565 S
C911 C910 1.363 . S
C911 C917 1.428 . S
H912 C908 0.930 . S
H913 C910 0.929 1_545 S
S914 N915 1.613 . S
S914 N916 1.610 . S
N915 S914 1.613 . S
N915 C918 1.350 . S
N916 S914 1.610 . S
N916 C917 1.351 . S
C917 C911 1.428 . S
C917 N916 1.351 . S
C917 C918 1.434 . S
C918 C909 1.429 . S
C918 N915 1.350 . S
C918 C917 1.434 . S
C919 C920 1.369 . S
C919 C921 1.419 . S
C919 H923 0.930 . S
C920 C919 1.369 . S
C920 C929 1.429 . S
C921 C919 1.419 . S
C921 C922 1.363 . S
C921 H924 0.929 . S
C922 C921 1.363 . S
C922 C928 1.428 . S
H923 C919 0.930 . S
H924 C921 0.929 . S
S925 N926 1.613 . S
S925 N927 1.610 . S
N926 S925 1.613 . S
N926 C929 1.350 . S
N927 S925 1.610 . S
N927 C928 1.351 . S
C928 C922 1.428 . S
C928 N927 1.351 . S
C928 C929 1.434 . S
C929 C920 1.429 . S
C929 N926 1.350 . S
C929 C928 1.434 . S
C930 C931 1.369 . S
C930 C932 1.419 . S
C930 H934 0.930 . S
C931 C930 1.369 . S
C931 C940 1.429 . S
C932 C930 1.419 . S
C932 C933 1.363 . S
C932 H935 0.929 . S
C933 C932 1.363 . S
C933 C939 1.428 . S
H934 C930 0.930 . S
H935 C932 0.929 . S
S936 N937 1.613 1_455 S
S936 N938 1.610 . S
N937 S936 1.613 1_655 S
N937 C940 1.350 . S
N938 S936 1.610 . S
N938 C939 1.351 1_455 S
C939 C933 1.428 . S
C939 N938 1.351 1_655 S
C939 C940 1.434 . S
C940 C931 1.429 . S
C940 N937 1.350 . S
C940 C939 1.434 . S
C941 C942 1.369 . S
C941 C943 1.419 . S
C941 H945 0.930 . S
C942 C941 1.369 . S
C942 C951 1.429 . S
C943 C941 1.419 . S
C943 C944 1.363 . S
C943 H946 0.929 . S
C944 C943 1.363 . S
C944 C950 1.428 . S
H945 C941 0.930 . S
H946 C943 0.929 . S
S947 N948 1.613 . S
S947 N949 1.610 . S
N948 S947 1.613 . S
N948 C951 1.350 . S
N949 S947 1.610 . S
N949 C950 1.351 . S
C950 C944 1.428 . S
C950 N949 1.351 . S
C950 C951 1.434 . S
C951 C942 1.429 . S
C951 N948 1.350 . S
C951 C950 1.434 . S
C952 C953 1.369 . S
C952 C954 1.419 . S
C952 H956 0.930 . S
C953 C952 1.369 . S
C953 C962 1.429 . S
C954 C952 1.419 . S
C954 C955 1.363 . S
C954 H957 0.929 . S
C955 C954 1.363 . S
C955 C961 1.428 . S
H956 C952 0.930 . S
H957 C954 0.929 . S
S958 N959 1.613 . S
S958 N960 1.610 . S
N959 S958 1.613 . S
N959 C962 1.350 . S
N960 S958 1.610 . S
N960 C961 1.351 . S
C961 C955 1.428 . S
C961 N960 1.351 . S
C961 C962 1.434 . S
C962 C953 1.429 . S
C962 N959 1.350 . S
C962 C961 1.434 . S
C963 C964 1.369 . S
C963 C965 1.419 . S
C963 H967 0.930 . S
C964 C963 1.369 . S
C964 C973 1.429 . S
C965 C963 1.419 . S
C965 C966 1.363 . S
C965 H968 0.929 . S
C966 C965 1.363 . S
C966 C972 1.428 . S
H967 C963 0.930 . S
H968 C965 0.929 . S
S969 N970 1.613 . S
S969 N971 1.610 . S
N970 S969 1.613 . S
N970 C973 1.350 . S
N971 S969 1.610 . S
N971 C972 1.351 . S
C972 C966 1.428 . S
C972 N971 1.351 . S
C972 C973 1.434 . S
C973 C964 1.429 . S
C973 N970 1.350 . S
C973 C972 1.434 . S
C974 C975 1.369 . S
C974 C976 1.419 . S
C974 H978 0.930 . S
C975 C974 1.369 . S
C975 C984 1.429 . S
C976 C974 1.419 . S
C976 C977 1.363 . S
C976 H979 0.929 . S
C977 C976 1.363 . S
C977 C983 1.428 . S
H978 C974 0.930 . S
H979 C976 0.929 . S
S980 N981 1.613 . S
S980 N982 1.610 . S
N981 S980 1.613 . S
N981 C984 1.350 . S
N982 S980 1.610 . S
N982 C983 1.351 . S
C983 C977 1.428 . S
C983 N982 1.351 . S
C983 C984 1.434 . S
C984 C975 1.429 . S
C984 N981 1.350 . S
C984 C983 1.434 . S
C985 C986 1.369 . S
C985 C987 1.419 . S
C985 H989 0.930 . S
C986 C985 1.369 . S
C986 C995 1.429 . S
C987 C985 1.419 . S
C987 C988 1.363 . S
C987 H990 0.929 . S
C988 C987 1.363 . S
C988 C994 1.428 . S
H989 C985 0.930 . S
H990 C987 0.929 . S
S991 N992 1.613 . S
S991 N993 1.610 . S
N992 S991 1.613 . S
N992 C995 1.350 . S
N993 S991 1.610 . S
N993 C994 1.351 . S
C994 C988 1.428 . S
C994 N993 1.351 . S
C994 C995 1.434 . S
C995 C986 1.429 . S
C995 N992 1.350 . S
C995 C994 1.434 . S
C996 C997 1.369 . S
C996 C998 1.419 . S
C996 H1000 0.930 . S
C997 C996 1.369 . S
C997 C1006 1.429 . S
C998 C996 1.419 . S
C998 C999 1.363 . S
C998 H1001 0.929 . S
C999 C998 1.363 . S
C999 C1005 1.428 . S
H1000 C996 0.930 . S
H1001 C998 0.929 . S
S1002 N1003 1.613 . S
S1002 N1004 1.610 . S
N1003 S1002 1.613 . S
N1003 C1006 1.350 . S
N1004 S1002 1.610 . S
N1004 C1005 1.351 . S
C1005 C999 1.428 . S
C1005 N1004 1.351 . S
C1005 C1006 1.434 . S
C1006 C997 1.429 . S
C1006 N1003 1.350 . S
C1006 C1005 1.434 . S
C1007 C1008 1.369 . S
C1007 C1009 1.419 . S
C1007 H1011 0.930 . S
C1008 C1007 1.369 . S
C1008 C1017 1.429 . S
C1009 C1007 1.419 . S
C1009 C1010 1.363 . S
C1009 H1012 0.929 . S
C1010 C1009 1.363 . S
C1010 C1016 1.428 . S
H1011 C1007 0.930 . S
H1012 C1009 0.929 . S
S1013 N1014 1.613 1_655 S
S1013 N1015 1.610 1_655 S
N1014 S1013 1.613 1_455 S
N1014 C1017 1.350 . S
N1015 S1013 1.610 1_455 S
N1015 C1016 1.351 . S
C1016 C1010 1.428 . S
C1016 N1015 1.351 . S
C1016 C1017 1.434 . S
C1017 C1008 1.429 . S
C1017 N1014 1.350 . S
C1017 C1016 1.434 . S
C1018 C1019 1.369 . S
C1018 C1020 1.419 . S
C1018 H1022 0.930 . S
C1019 C1018 1.369 . S
C1019 C1028 1.429 . S
C1020 C1018 1.419 . S
C1020 C1021 1.363 . S
C1020 H1023 0.929 . S
C1021 C1020 1.363 . S
C1021 C1027 1.428 . S
H1022 C1018 0.930 . S
H1023 C1020 0.929 . S
S1024 N1025 1.613 . S
S1024 N1026 1.610 . S
N1025 S1024 1.613 . S
N1025 C1028 1.350 . S
N1026 S1024 1.610 . S
N1026 C1027 1.351 . S
C1027 C1021 1.428 . S
C1027 N1026 1.351 . S
C1027 C1028 1.434 . S
C1028 C1019 1.429 . S
C1028 N1025 1.350 . S
C1028 C1027 1.434 . S
C1029 C1030 1.369 . S
C1029 C1031 1.419 . S
C1029 H1033 0.930 . S
C1030 C1029 1.369 . S
C1030 C1039 1.429 . S
C1031 C1029 1.419 . S
C1031 C1032 1.363 . S
C1031 H1034 0.929 . S
C1032 C1031 1.363 . S
C1032 C1038 1.428 . S
H1033 C1029 0.930 . S
H1034 C1031 0.929 . S
S1035 N1036 1.613 . S
S1035 N1037 1.610 . S
N1036 S1035 1.613 . S
N1036 C1039 1.350 . S
N1037 S1035 1.610 . S
N1037 C1038 1.351 . S
C1038 C1032 1.428 . S
C1038 N1037 1.351 . S
C1038 C1039 1.434 . S
C1039 C1030 1.429 . S
C1039 N1036 1.350 . S
C1039 C1038 1.434 . S
C1040 C1041 1.369 . S
C1040 C1042 1.419 . S
C1040 H1044 0.930 . S
C1041 C1040 1.369 . S
C1041 C1050 1.429 . S
C1042 C1040 1.419 . S
C1042 C1043 1.363 . S
C1042 H1045 0.929 . S
C1043 C1042 1.363 . S
C1043 C1049 1.428 . S
H1044 C1040 0.930 . S
H1045 C1042 0.929 . S
S1046 N1047 1.613 . S
S1046 N1048 1.610 . S
N1047 S1046 1.613 . S
N1047 C1050 1.350 . S
N1048 S1046 1.610 . S
N1048 C1049 1.351 . S
C1049 C1043 1.428 . S
C1049 N1048 1.351 . S
C1049 C1050 1.434 . S
C1050 C1041 1.429 . S
C1050 N1047 1.350 . S
C1050 C1049 1.434 . S
C1051 C1052 1.369 . S
C1051 C1053 1.419 . S
C1051 H1055 0.930 . S
C1052 C1051 1.369 . S
C1052 C1061 1.429 . S
C1053 C1051 1.419 . S
C1053 C1054 1.363 . S
C1053 H1056 0.929 . S
C1054 C1053 1.363 . S
C1054 C1060 1.428 . S
H1055 C1051 0.930 . S
H1056 C1053 0.929 . S
S1057 N1058 1.613 . S
S1057 N1059 1.610 . S
N1058 S1057 1.613 . S
N1058 C1061 1.350 . S
N1059 S1057 1.610 . S
N1059 C1060 1.351 . S
C1060 C1054 1.428 . S
C1060 N1059 1.351 . S
C1060 C1061 1.434 . S
C1061 C1052 1.429 . S
C1061 N1058 1.350 . S
C1061 C1060 1.434 . S
C1062 C1063 1.369 . S
C1062 C1064 1.419 . S
C1062 H1066 0.930 . S
C1063 C1062 1.369 . S
C1063 C1072 1.429 . S
C1064 C1062 1.419 . S
C1064 C1065 1.363 . S
C1064 H1067 0.929 . S
C1065 C1064 1.363 . S
C1065 C1071 1.428 . S
H1066 C1062 0.930 . S
H1067 C1064 0.929 . S
S1068 N1069 1.613 . S
S1068 N1070 1.610 . S
N1069 S1068 1.613 . S
N1069 C1072 1.350 . S
N1070 S1068 1.610 . S
N1070 C1071 1.351 . S
C1071 C1065 1.428 . S
C1071 N1070 1.351 . S
C1071 C1072 1.434 . S
C1072 C1063 1.429 . S
C1072 N1069 1.350 . S
C1072 C1071 1.434 . S
C1073 C1074 1.369 . S
C1073 C1075 1.419 . S
C1073 H1077 0.930 . S
C1074 C1073 1.369 . S
C1074 C1083 1.429 . S
C1075 C1073 1.419 . S
C1075 C1076 1.363 . S
C1075 H1078 0.929 . S
C1076 C1075 1.363 . S
C1076 C1082 1.428 . S
H1077 C1073 0.930 . S
H1078 C1075 0.929 . S
S1079 N1080 1.613 . S
S1079 N1081 1.610 . S
N1080 S1079 1.613 . S
N1080 C1083 1.350 . S
N1081 S1079 1.610 . S
N1081 C1082 1.351 . S
C1082 C1076 1.428 . S
C1082 N1081 1.351 . S
C1082 C1083 1.434 . S
C1083 C1074 1.429 . S
C1083 N1080 1.350 . S
C1083 C1082 1.434 . S
C1084 C1085 1.369 . S
C1084 C1086 1.419 . S
C1084 H1088 0.930 . S
C1085 C1084 1.369 . S
C1085 C1094 1.429 . S
C1086 C1084 1.419 . S
C1086 C1087 1.363 . S
C1086 H1089 0.929 . S
C1087 C1086 1.363 . S
C1087 C1093 1.428 . S
H1088 C1084 0.930 . S
H1089 C1086 0.929 . S
S1090 N1091 1.613 1_554 S
S1090 N1092 1.610 1_554 S
N1091 S1090 1.613 1_556 S
N1091 C1094 1.350 . S
N1092 S1090 1.610 1_556 S
N1092 C1093 1.351 . S
C1093 C1087 1.428 . S
C1093 N1092 1.351 . S
C1093 C1094 1.434 . S
C1094 C1085 1.429 . S
C1094 N1091 1.350 . S
C1094 C1093 1.434 . S
C1095 C1096 1.369 . S
C1095 C1097 1.419 . S
C1095 H1099 0.930 . S
C1096 C1095 1.369 . S
C1096 C1105 1.429 . S
C1097 C1095 1.419 . S
C1097 C1098 1.363 . S
C1097 H1100 0.929 . S
C1098 C1097 1.363 . S
C1098 C1104 1.428 . S
H1099 C1095 0.930 . S
H1100 C1097 0.929 . S
S1101 N1102 1.613 . S
S1101 N1103 1.610 . S
N1102 S1101 1.613 . S
N1102 C1105 1.350 . S
N1103 S1101 1.610 . S
N1103 C1104 1.351 . S
C1104 C1098 1.428 . S
C1104 N1103 1.351 . S
C1104 C1105 1.434 . S
C1105 C1096 1.429 . S
C1105 N1102 1.350 . S
C1105 C1104 1.434 . S
C1106 C1107 1.369 . S
C1106 C1108 1.419 . S
C1106 H1110 0.930 . S
C1107 C1106 1.369 . S
C1107 C1116 1.429 . S
C1108 C1106 1.419 . S
C1108 C1109 1.363 . S
C1108 H1111 0.929 . S
C1109 C1108 1.363 . S
C1109 C1115 1.428 . S
H1110 C1106 0.930 . S
H1111 C1108 0.929 . S
S1112 N1113 1.613 . S
S1112 N1114 1.610 . S
N1113 S1112 1.613 . S
N1113 C1116 1.350 . S
N1114 S1112 1.610 . S
N1114 C1115 1.351 . S
C1115 C1109 1.428 . S
C1115 N1114 1.351 . S
C1115 C1116 1.434 . S
C1116 C1107 1.429 . S
C1116 N1113 1.350 . S
C1116 C1115 1.434 . S
C1117 C1118 1.369 . S
C1117 C1119 1.419 . S
C1117 H1121 0.930 . S
C1118 C1117 1.369 . S
C1118 C1127 1.429 . S
C1119 C1117 1.419 . S
C1119 C1120 1.363 . S
C1119 H1122 0.929 . S
C1120 C1119 1.363 . S
C1120 C1126 1.428 . S
H1121 C1117 0.930 . S
H1122 C1119 0.929 . S
S1123 N1124 1.613 . S
S1123 N1125 1.610 . S
N1124 S1123 1.613 . S
N1124 C1127 1.350 . S
N1125 S1123 1.610 . S
N1125 C1126 1.351 . S
C1126 C1120 1.428 . S
C1126 N1125 1.351 . S
C1126 C1127 1.434 . S
C1127 C1118 1.429 . S
C1127 N1124 1.350 . S
C1127 C1126 1.434 . S
C1128 C1129 1.369 . S
C1128 C1130 1.419 . S
C1128 H1132 0.930 . S
C1129 C1128 1.369 . S
C1129 C1138 1.429 . S
C1130 C1128 1.419 . S
C1130 C1131 1.363 . S
C1130 H1133 0.929 . S
C1131 C1130 1.363 . S
C1131 C1137 1.428 . S
H1132 C1128 0.930 . S
H1133 C1130 0.929 . S
S1134 N1135 1.613 . S
S1134 N1136 1.610 . S
N1135 S1134 1.613 . S
N1135 C1138 1.350 . S
N1136 S1134 1.610 . S
N1136 C1137 1.351 . S
C1137 C1131 1.428 . S
C1137 N1136 1.351 . S
C1137 C1138 1.434 . S
C1138 C1129 1.429 . S
C1138 N1135 1.350 . S
C1138 C1137 1.434 . S
C1139 C1140 1.369 . S
C1139 C1141 1.419 . S
C1139 H1143 0.930 . S
C1140 C1139 1.369 . S
C1140 C1149 1.429 . S
C1141 C1139 1.419 . S
C1141 C1142 1.363 . S
C1141 H1144 0.929 . S
C1142 C1141 1.363 . S
C1142 C1148 1.428 . S
H1143 C1139 0.930 . S
H1144 C1141 0.929 . S
S1145 N1146 1.613 . S
S1145 N1147 1.610 . S
N1146 S1145 1.613 . S
N1146 C1149 1.350 . S
N1147 S1145 1.610 . S
N1147 C1148 1.351 . S
C1148 C1142 1.428 . S
C1148 N1147 1.351 . S
C1148 C1149 1.434 . S
C1149 C1140 1.429 . S
C1149 N1146 1.350 . S
C1149 C1148 1.434 . S
C1150 C1151 1.369 . S
C1150 C1152 1.419 . S
C1150 H1154 0.930 . S
C1151 C1150 1.369 . S
C1151 C1160 1.429 . S
C1152 C1150 1.419 . S
C1152 C1153 1.363 . S
C1152 H1155 0.929 . S
C1153 C1152 1.363 . S
C1153 C1159 1.428 . S
H1154 C1150 0.930 . S
H1155 C1152 0.929 . S
S1156 N1157 1.613 . S
S1156 N1158 1.610 . S
N1157 S1156 1.613 . S
N1157 C1160 1.350 . S
N1158 S1156 1.610 . S
N1158 C1159 1.351 . S
C1159 C1153 1.428 . S
C1159 N1158 1.351 . S
C1159 C1160 1.434 . S
C1160 C1151 1.429 . S
C1160 N1157 1.350 . S
C1160 C1159 1.434 . S
C1161 C1162 1.369 . S
C1161 C1163 1.419 . S
C1161 H1165 0.930 . S
C1162 C1161 1.369 . S
C1162 C1171 1.429 . S
C1163 C1161 1.419 . S
C1163 C1164 1.363 . S
C1163 H1166 0.929 . S
C1164 C1163 1.363 . S
C1164 C1170 1.428 . S
H1165 C1161 0.930 . S
H1166 C1163 0.929 . S
S1167 N1168 1.613 . S
S1167 N1169 1.610 . S
N1168 S1167 1.613 . S
N1168 C1171 1.350 . S
N1169 S1167 1.610 . S
N1169 C1170 1.351 . S
C1170 C1164 1.428 . S
C1170 N1169 1.351 . S
C1170 C1171 1.434 . S
C1171 C1162 1.429 . S
C1171 N1168 1.350 . S
C1171 C1170 1.434 . S
C1172 C1173 1.369 . S
C1172 C1174 1.419 . S
C1172 H1176 0.930 . S
C1173 C1172 1.369 . S
C1173 C1182 1.429 . S
C1174 C1172 1.419 . S
C1174 C1175 1.363 . S
C1174 H1177 0.929 . S
C1175 C1174 1.363 . S
C1175 C1181 1.428 . S
H1176 C1172 0.930 . S
H1177 C1174 0.929 . S
S1178 N1179 1.613 . S
S1178 N1180 1.610 . S
N1179 S1178 1.613 . S
N1179 C1182 1.350 . S
N1180 S1178 1.610 . S
N1180 C1181 1.351 . S
C1181 C1175 1.428 . S
C1181 N1180 1.351 . S
C1181 C1182 1.434 . S
C1182 C1173 1.429 . S
C1182 N1179 1.350 . S
C1182 C1181 1.434 . S
C1183 C1184 1.369 . S
C1183 C1185 1.419 . S
C1183 H1187 0.930 . S
C1184 C1183 1.369 . S
C1184 C1193 1.429 . S
C1185 C1183 1.419 . S
C1185 C1186 1.363 . S
C1185 H1188 0.929 . S
C1186 C1185 1.363 . S
C1186 C1192 1.428 . S
H1187 C1183 0.930 . S
H1188 C1185 0.929 . S
S1189 N1190 1.613 . S
S1189 N1191 1.610 . S
N1190 S1189 1.613 . S
N1190 C1193 1.350 . S
N1191 S1189 1.610 . S
N1191 C1192 1.351 . S
C1192 C1186 1.428 . S
C1192 N1191 1.351 . S
C1192 C1193 1.434 . S
C1193 C1184 1.429 . S
C1193 N1190 1.350 . S
C1193 C1192 1.434 . S
C1194 C1195 1.369 . S
C1194 C1196 1.419 . S
C1194 H1198 0.930 . S
C1195 C1194 1.369 . S
C1195 C1204 1.429 . S
C1196 C1194 1.419 . S
C1196 C1197 1.363 . S
C1196 H1199 0.929 . S
C1197 C1196 1.363 . S
C1197 C1203 1.428 . S
H1198 C1194 0.930 . S
H1199 C1196 0.929 . S
S1200 N1201 1.613 . S
S1200 N1202 1.610 . S
N1201 S1200 1.613 . S
N1201 C1204 1.350 . S
N1202 S1200 1.610 . S
N1202 C1203 1.351 . S
C1203 C1197 1.428 . S
C1203 N1202 1.351 . S
C1203 C1204 1.434 . S
C1204 C1195 1.429 . S
C1204 N1201 1.350 . S
C1204 C1203 1.434 . S
C1205 C1206 1.369 . S
C1205 C1207 1.419 . S
C1205 H1209 0.930 . S
C1206 C1205 1.369 . S
C1206 C1215 1.429 . S
C1207 C1205 1.419 . S
C1207 C1208 1.363 . S
C1207 H1210 0.929 . S
C1208 C1207 1.363 . S
C1208 C1214 1.428 . S
H1209 C1205 0.930 . S
H1210 C1207 0.929 . S
S1211 N1212 1.613 . S
S1211 N1213 1.610 . S
N1212 S1211 1.613 . S
N1212 C1215 1.350 . S
N1213 S1211 1.610 . S
N1213 C1214 1.351 . S
C1214 C1208 1.428 . S
C1214 N1213 1.351 . S
C1214 C1215 1.434 . S
C1215 C1206 1.429 . S
C1215 N1212 1.350 . S
C1215 C1214 1.434 . S
C1216 C1217 1.369 . S
C1216 C1218 1.419 . S
C1216 H1220 0.930 . S
C1217 C1216 1.369 . S
C1217 C1226 1.429 . S
C1218 C1216 1.419 . S
C1218 C1219 1.363 . S
C1218 H1221 0.929 . S
C1219 C1218 1.363 . S
C1219 C1225 1.428 . S
H1220 C1216 0.930 . S
H1221 C1218 0.929 . S
S1222 N1223 1.613 . S
S1222 N1224 1.610 . S
N1223 S1222 1.613 . S
N1223 C1226 1.350 . S
N1224 S1222 1.610 . S
N1224 C1225 1.351 . S
C1225 C1219 1.428 . S
C1225 N1224 1.351 . S
C1225 C1226 1.434 . S
C1226 C1217 1.429 . S
C1226 N1223 1.350 . S
C1226 C1225 1.434 . S
C1227 C1228 1.369 . S
C1227 C1229 1.419 . S
C1227 H1231 0.930 . S
C1228 C1227 1.369 . S
C1228 C1237 1.429 . S
C1229 C1227 1.419 . S
C1229 C1230 1.363 . S
C1229 H1232 0.929 . S
C1230 C1229 1.363 . S
C1230 C1236 1.428 . S
H1231 C1227 0.930 . S
H1232 C1229 0.929 . S
S1233 N1234 1.613 . S
S1233 N1235 1.610 . S
N1234 S1233 1.613 . S
N1234 C1237 1.350 . S
N1235 S1233 1.610 . S
N1235 C1236 1.351 . S
C1236 C1230 1.428 . S
C1236 N1235 1.351 . S
C1236 C1237 1.434 . S
C1237 C1228 1.429 . S
C1237 N1234 1.350 . S
C1237 C1236 1.434 . S
C1238 C1239 1.369 . S
C1238 C1240 1.419 . S
C1238 H1242 0.930 . S
C1239 C1238 1.369 . S
C1239 C1248 1.429 . S
C1240 C1238 1.419 . S
C1240 C1241 1.363 . S
C1240 H1243 0.929 . S
C1241 C1240 1.363 . S
C1241 C1247 1.428 . S
H1242 C1238 0.930 . S
H1243 C1240 0.929 . S
S1244 N1245 1.613 . S
S1244 N1246 1.610 . S
N1245 S1244 1.613 . S
N1245 C1248 1.350 . S
N1246 S1244 1.610 . S
N1246 C1247 1.351 . S
C1247 C1241 1.428 . S
C1247 N1246 1.351 . S
C1247 C1248 1.434 . S
C1248 C1239 1.429 . S
C1248 N1245 1.350 . S
C1248 C1247 1.434 . S
C1249 C1250 1.369 . S
C1249 C1251 1.419 . S
C1249 H1253 0.930 . S
C1250 C1249 1.369 . S
C1250 C1259 1.429 . S
C1251 C1249 1.419 . S
C1251 C1252 1.363 . S
C1251 H1254 0.929 . S
C1252 C1251 1.363 . S
C1252 C1258 1.428 . S
H1253 C1249 0.930 . S
H1254 C1251 0.929 . S
S1255 N1256 1.613 . S
S1255 N1257 1.610 . S
N1256 S1255 1.613 . S
N1256 C1259 1.350 . S
N1257 S1255 1.610 . S
N1257 C1258 1.351 . S
C1258 C1252 1.428 . S
C1258 N1257 1.351 . S
C1258 C1259 1.434 . S
C1259 C1250 1.429 . S
C1259 N1256 1.350 . S
C1259 C1258 1.434 . S
C1260 C1261 1.369 . S
C1260 C1262 1.419 . S
C1260 H1264 0.930 . S
C1261 C1260 1.369 . S
C1261 C1270 1.429 . S
C1262 C1260 1.419 . S
C1262 C1263 1.363 . S
C1262 H1265 0.929 . S
C1263 C1262 1.363 . S
C1263 C1269 1.428 . S
H1264 C1260 0.930 . S
H1265 C1262 0.929 . S
S1266 N1267 1.613 . S
S1266 N1268 1.610 . S
N1267 S1266 1.613 . S
N1267 C1270 1.350 . S
N1268 S1266 1.610 . S
N1268 C1269 1.351 . S
C1269 C1263 1.428 . S
C1269 N1268 1.351 . S
C1269 C1270 1.434 . S
C1270 C1261 1.429 . S
C1270 N1267 1.350 . S
C1270 C1269 1.434 . S
C1271 C1272 1.369 . S
C1271 C1273 1.419 . S
C1271 H1275 0.930 . S
C1272 C1271 1.369 . S
C1272 C1281 1.429 . S
C1273 C1271 1.419 . S
C1273 C1274 1.363 . S
C1273 H1276 0.929 . S
C1274 C1273 1.363 . S
C1274 C1280 1.428 . S
H1275 C1271 0.930 . S
H1276 C1273 0.929 . S
S1277 N1278 1.613 . S
S1277 N1279 1.610 . S
N1278 S1277 1.613 . S
N1278 C1281 1.350 . S
N1279 S1277 1.610 . S
N1279 C1280 1.351 . S
C1280 C1274 1.428 . S
C1280 N1279 1.351 . S
C1280 C1281 1.434 . S
C1281 C1272 1.429 . S
C1281 N1278 1.350 . S
C1281 C1280 1.434 . S
C1282 C1283 1.369 . S
C1282 C1284 1.419 . S
C1282 H1286 0.930 . S
C1283 C1282 1.369 . S
C1283 C1292 1.429 . S
C1284 C1282 1.419 . S
C1284 C1285 1.363 . S
C1284 H1287 0.929 . S
C1285 C1284 1.363 . S
C1285 C1291 1.428 . S
H1286 C1282 0.930 . S
H1287 C1284 0.929 . S
S1288 N1289 1.613 . S
S1288 N1290 1.610 . S
N1289 S1288 1.613 . S
N1289 C1292 1.350 . S
N1290 S1288 1.610 . S
N1290 C1291 1.351 . S
C1291 C1285 1.428 . S
C1291 N1290 1.351 . S
C1291 C1292 1.434 . S
C1292 C1283 1.429 . S
C1292 N1289 1.350 . S
C1292 C1291 1.434 . S
C1293 C1294 1.369 . S
C1293 C1295 1.419 . S
C1293 H1297 0.930 . S
C1294 C1293 1.369 . S
C1294 C1303 1.429 . S
C1295 C1293 1.419 . S
C1295 C1296 1.363 . S
C1295 H1298 0.929 . S
C1296 C1295 1.363 . S
C1296 C1302 1.428 . S
H1297 C1293 0.930 . S
H1298 C1295 0.929 . S
S1299 N1300 1.613 . S
S1299 N1301 1.610 . S
N1300 S1299 1.613 . S
N1300 C1303 1.350 . S
N1301 S1299 1.610 . S
N1301 C1302 1.351 . S
C1302 C1296 1.428 . S
C1302 N1301 1.351 . S
C1302 C1303 1.434 . S
C1303 C1294 1.429 . S
C1303 N1300 1.350 . S
C1303 C1302 1.434 . S
C1304 C1305 1.369 . S
C1304 C1306 1.419 . S
C1304 H1308 0.930 . S
C1305 C1304 1.369 . S
C1305 C1314 1.429 . S
C1306 C1304 1.419 . S
C1306 C1307 1.363 . S
C1306 H1309 0.929 . S
C1307 C1306 1.363 . S
C1307 C1313 1.428 . S
H1308 C1304 0.930 . S
H1309 C1306 0.929 . S
S1310 N1311 1.613 . S
S1310 N1312 1.610 . S
N1311 S1310 1.613 . S
N1311 C1314 1.350 . S
N1312 S1310 1.610 . S
N1312 C1313 1.351 . S
C1313 C1307 1.428 . S
C1313 N1312 1.351 . S
C1313 C1314 1.434 . S
C1314 C1305 1.429 . S
C1314 N1311 1.350 . S
C1314 C1313 1.434 . S
C1315 C1316 1.369 . S
C1315 C1317 1.419 . S
C1315 H1319 0.930 . S
C1316 C1315 1.369 . S
C1316 C1325 1.429 . S
C1317 C1315 1.419 . S
C1317 C1318 1.363 . S
C1317 H1320 0.929 . S
C1318 C1317 1.363 . S
C1318 C1324 1.428 . S
H1319 C1315 0.930 . S
H1320 C1317 0.929 . S
S1321 N1322 1.613 . S
S1321 N1323 1.610 . S
N1322 S1321 1.613 . S
N1322 C1325 1.350 . S
N1323 S1321 1.610 . S
N1323 C1324 1.351 . S
C1324 C1318 1.428 . S
C1324 N1323 1.351 . S
C1324 C1325 1.434 . S
C1325 C1316 1.429 . S
C1325 N1322 1.350 . S
C1325 C1324 1.434 . S
C1326 C1327 1.369 . S
C1326 C1328 1.419 . S
C1326 H1330 0.930 . S
C1327 C1326 1.369 . S
C1327 C1336 1.429 . S
C1328 C1326 1.419 . S
C1328 C1329 1.363 . S
C1328 H1331 0.929 . S
C1329 C1328 1.363 . S
C1329 C1335 1.428 . S
H1330 C1326 0.930 . S
H1331 C1328 0.929 . S
S1332 N1333 1.613 . S
S1332 N1334 1.610 . S
N1333 S1332 1.613 . S
N1333 C1336 1.350 . S
N1334 S1332 1.610 . S
N1334 C1335 1.351 . S
C1335 C1329 1.428 . S
C1335 N1334 1.351 . S
C1335 C1336 1.434 . S
C1336 C1327 1.429 . S
C1336 N1333 1.350 . S
C1336 C1335 1.434 . S
C1337 C1338 1.369 . S
C1337 C1339 1.419 . S
C1337 H1341 0.930 . S
C1338 C1337 1.369 . S
C1338 C1347 1.429 . S
C1339 C1337 1.419 . S
C1339 C1340 1.363 . S
C1339 H1342 0.929 . S
C1340 C1339 1.363 . S
C1340 C1346 1.428 . S
H1341 C1337 0.930 . S
H1342 C1339 0.929 . S
S1343 N1344 1.613 . S
S1343 N1345 1.610 . S
N1344 S1343 1.613 . S
N1344 C1347 1.350 . S
N1345 S1343 1.610 . S
N1345 C1346 1.351 . S
C1346 C1340 1.428 . S
C1346 N1345 1.351 . S
C1346 C1347 1.434 . S
C1347 C1338 1.429 . S
C1347 N1344 1.350 . S
C1347 C1346 1.434 . S
C1348 C1349 1.369 . S
C1348 C1350 1.419 . S
C1348 H1352 0.930 . S
C1349 C1348 1.369 . S
C1349 C1358 1.429 . S
C1350 C1348 1.419 . S
C1350 C1351 1.363 . S
C1350 H1353 0.929 . S
C1351 C1350 1.363 . S
C1351 C1357 1.428 . S
H1352 C1348 0.930 . S
H1353 C1350 0.929 . S
S1354 N1355 1.613 . S
S1354 N1356 1.610 . S
N1355 S1354 1.613 . S
N1355 C1358 1.350 . S
N1356 S1354 1.610 . S
N1356 C1357 1.351 . S
C1357 C1351 1.428 . S
C1357 N1356 1.351 . S
C1357 C1358 1.434 . S
C1358 C1349 1.429 . S
C1358 N1355 1.350 . S
C1358 C1357 1.434 . S
C1359 C1360 1.369 . S
C1359 C1361 1.419 . S
C1359 H1363 0.930 . S
C1360 C1359 1.369 . S
C1360 C1369 1.429 . S
C1361 C1359 1.419 . S
C1361 C1362 1.363 . S
C1361 H1364 0.929 . S
C1362 C1361 1.363 . S
C1362 C1368 1.428 . S
H1363 C1359 0.930 . S
H1364 C1361 0.929 . S
S1365 N1366 1.613 . S
S1365 N1367 1.610 . S
N1366 S1365 1.613 . S
N1366 C1369 1.350 . S
N1367 S1365 1.610 . S
N1367 C1368 1.351 . S
C1368 C1362 1.428 . S
C1368 N1367 1.351 . S
C1368 C1369 1.434 . S
C1369 C1360 1.429 . S
C1369 N1366 1.350 . S
C1369 C1368 1.434 . S
C1370 C1371 1.369 . S
C1370 C1372 1.419 . S
C1370 H1374 0.930 . S
C1371 C1370 1.369 . S
C1371 C1380 1.429 . S
C1372 C1370 1.419 . S
C1372 C1373 1.363 . S
C1372 H1375 0.929 . S
C1373 C1372 1.363 . S
C1373 C1379 1.428 . S
H1374 C1370 0.930 . S
H1375 C1372 0.929 . S
S1376 N1377 1.613 . S
S1376 N1378 1.610 . S
N1377 S1376 1.613 . S
N1377 C1380 1.350 . S
N1378 S1376 1.610 . S
N1378 C1379 1.351 . S
C1379 C1373 1.428 . S
C1379 N1378 1.351 . S
C1379 C1380 1.434 . S
C1380 C1371 1.429 . S
C1380 N1377 1.350 . S
C1380 C1379 1.434 . S
C1381 C1382 1.369 . S
C1381 C1383 1.419 . S
C1381 H1385 0.930 . S
C1382 C1381 1.369 . S
C1382 C1391 1.429 . S
C1383 C1381 1.419 . S
C1383 C1384 1.363 . S
C1383 H1386 0.929 . S
C1384 C1383 1.363 . S
C1384 C1390 1.428 . S
H1385 C1381 0.930 . S
H1386 C1383 0.929 . S
S1387 N1388 1.613 . S
S1387 N1389 1.610 . S
N1388 S1387 1.613 . S
N1388 C1391 1.350 . S
N1389 S1387 1.610 . S
N1389 C1390 1.351 . S
C1390 C1384 1.428 . S
C1390 N1389 1.351 . S
C1390 C1391 1.434 . S
C1391 C1382 1.429 . S
C1391 N1388 1.350 . S
C1391 C1390 1.434 . S
C867 C689 1.665 . S
C865 C75 1.498 . S
C878 C694 0.625 . S
C876 C156 0.704 . S
C889 C695 1.705 . S
C887 C243 1.531 . S
C898 C315 0.773 . S
C900 C699 0.757 . S
C909 C399 0.967 . S
C911 C702 0.785 . S
C922 C703 1.673 . S
C920 C495 1.516 . S
C931 C576 1.065 . S
C933 C680 1.137 . S
C942 C654 1.498 . S
C944 C696 1.653 . S
C955 C734 0.875 . S
C953 C72 0.874 . S
C964 C140 1.369 . S
C966 C760 1.385 . S
C977 C712 0.913 . S
C975 C240 0.927 . S
C988 C767 1.157 . S
C986 C318 1.122 . S
C997 C402 1.120 . S
C999 C721 1.144 . S
C1010 C763 1.461 1_556 S
C1008 C492 1.438 . S
C1019 C560 1.367 . S
C1021 C727 1.437 . S
C1030 C655 2.627 . S
C1032 C758 2.751 . S
C1041 C56 2.922 . S
C1043 C766 3.000 . S
C1052 C403 1.861 . S
C1054 C753 1.876 . S
C1065 C731 2.203 . S
C1063 C476 2.109 . S
C1076 C759 1.884 . S
C1074 C579 1.851 . S
C1085 C651 1.192 . S
C1087 C726 1.131 . S
C1096 C224 2.950 . S
C1098 C744 3.066 . S
C1109 C735 1.858 . S
C1107 C319 1.802 . S
C1118 C159 1.912 . S
C1120 C728 1.951 . S
C1129 C663 1.469 . S
C1131 C790 1.507 . S
C1140 C408 0.964 . S
C1142 C785 0.517 . S
C1153 C799 1.509 . S
C1151 C486 1.483 . S
C1164 C776 1.107 . S
C1162 C567 1.059 . S
C1173 C147 0.683 . S
C1175 C792 0.591 . S
C1186 C791 1.565 . S
C1184 C234 1.506 . S
C1195 C324 0.759 . S
C1197 C795 0.741 . S
C1206 C66 1.490 . S
C1208 C798 1.570 . S
C1217 C660 1.189 . S
C1219 C824 1.245 . S
C1230 C840 1.837 . S
C1228 C392 1.866 . S
C1239 C487 2.117 . S
C1241 C822 2.291 . S
C1250 C570 1.847 . S
C1252 C855 1.806 . S
C1263 C831 1.899 . S
C1261 C150 1.891 . S
C1272 C235 2.985 . S
C1274 C849 3.082 . S
C1285 C827 1.736 . S
C1283 C308 1.770 . S
C1296 C862 3.078 . S
C1294 C67 2.953 . S
C1307 C854 2.737 . S
C1305 C644 2.658 . S
C1316 C151 1.381 . S
C1318 C859 1.408 . S
C1327 C231 0.937 . S
C1329 C830 0.956 . S
C1340 C863 1.167 . S
C1338 C327 1.129 . S
C1349 C63 0.872 . S
C1351 C817 0.898 . S
C1360 C483 1.454 . S
C1362 C856 1.471 . S
C1373 C808 1.475 . S
C1371 C571 1.349 . S
C1384 C823 1.088 . S
C1382 C411 1.095 . S
