# Generated by pormake.
# Topology gar, (4,6)-cn, num edge types: 1
# Building blocks:
#     Node 0, Type 0, BuildingBlock: GALJAG_clean_sbu_0, # of connection points: 4
#     Node 1, Type 0, BuildingBlock: GALJAG_clean_sbu_0, # of connection points: 4
#     Node 2, Type 0, BuildingBlock: GALJAG_clean_sbu_0, # of connection points: 4
#     Node 3, Type 0, BuildingBlock: GALJAG_clean_sbu_0, # of connection points: 4
#     Node 4, Type 0, BuildingBlock: GALJAG_clean_sbu_0, # of connection points: 4
#     Node 5, Type 0, BuildingBlock: GALJAG_clean_sbu_0, # of connection points: 4
#     Node 6, Type 0, BuildingBlock: GALJAG_clean_sbu_0, # of connection points: 4
#     Node 7, Type 0, BuildingBlock: GALJAG_clean_sbu_0, # of connection points: 4
#     Node 8, Type 0, BuildingBlock: GALJAG_clean_sbu_0, # of connection points: 4
#     Node 9, Type 0, BuildingBlock: GALJAG_clean_sbu_0, # of connection points: 4
#     Node 10, Type 0, BuildingBlock: GALJAG_clean_sbu_0, # of connection points: 4
#     Node 11, Type 0, BuildingBlock: GALJAG_clean_sbu_0, # of connection points: 4
#     Node 12, Type 0, BuildingBlock: GALJAG_clean_sbu_0, # of connection points: 4
#     Node 13, Type 0, BuildingBlock: GALJAG_clean_sbu_0, # of connection points: 4
#     Node 14, Type 0, BuildingBlock: GALJAG_clean_sbu_0, # of connection points: 4
#     Node 15, Type 0, BuildingBlock: GALJAG_clean_sbu_0, # of connection points: 4
#     Node 16, Type 0, BuildingBlock: GALJAG_clean_sbu_0, # of connection points: 4
#     Node 17, Type 0, BuildingBlock: GALJAG_clean_sbu_0, # of connection points: 4
#     Node 18, Type 0, BuildingBlock: GALJAG_clean_sbu_0, # of connection points: 4
#     Node 19, Type 0, BuildingBlock: GALJAG_clean_sbu_0, # of connection points: 4
#     Node 20, Type 0, BuildingBlock: GALJAG_clean_sbu_0, # of connection points: 4
#     Node 21, Type 0, BuildingBlock: GALJAG_clean_sbu_0, # of connection points: 4
#     Node 22, Type 0, BuildingBlock: GALJAG_clean_sbu_0, # of connection points: 4
#     Node 23, Type 0, BuildingBlock: GALJAG_clean_sbu_0, # of connection points: 4
#     Node 24, Type 1, BuildingBlock: NUHQIS_clean_sbu_0, # of connection points: 6
#     Node 25, Type 1, BuildingBlock: NUHQIS_clean_sbu_0, # of connection points: 6
#     Node 26, Type 1, BuildingBlock: NUHQIS_clean_sbu_0, # of connection points: 6
#     Node 27, Type 1, BuildingBlock: NUHQIS_clean_sbu_0, # of connection points: 6
#     Node 28, Type 1, BuildingBlock: NUHQIS_clean_sbu_0, # of connection points: 6
#     Node 29, Type 1, BuildingBlock: NUHQIS_clean_sbu_0, # of connection points: 6
#     Node 30, Type 1, BuildingBlock: NUHQIS_clean_sbu_0, # of connection points: 6
#     Node 31, Type 1, BuildingBlock: NUHQIS_clean_sbu_0, # of connection points: 6
#     Node 32, Type 1, BuildingBlock: NUHQIS_clean_sbu_0, # of connection points: 6
#     Node 33, Type 1, BuildingBlock: NUHQIS_clean_sbu_0, # of connection points: 6
#     Node 34, Type 1, BuildingBlock: NUHQIS_clean_sbu_0, # of connection points: 6
#     Node 35, Type 1, BuildingBlock: NUHQIS_clean_sbu_0, # of connection points: 6
#     Node 36, Type 1, BuildingBlock: NUHQIS_clean_sbu_0, # of connection points: 6
#     Node 37, Type 1, BuildingBlock: NUHQIS_clean_sbu_0, # of connection points: 6
#     Node 38, Type 1, BuildingBlock: NUHQIS_clean_sbu_0, # of connection points: 6
#     Node 39, Type 1, BuildingBlock: NUHQIS_clean_sbu_0, # of connection points: 6
#     Edge 40, Type (0, 1), BuildingBlock: XUDNAN_clean_linker_2, # of connection points: 2
#     Edge 41, Type (0, 1), BuildingBlock: XUDNAN_clean_linker_2, # of connection points: 2
#     Edge 42, Type (0, 1), BuildingBlock: XUDNAN_clean_linker_2, # of connection points: 2
#     Edge 43, Type (0, 1), BuildingBlock: XUDNAN_clean_linker_2, # of connection points: 2
#     Edge 44, Type (0, 1), BuildingBlock: XUDNAN_clean_linker_2, # of connection points: 2
#     Edge 45, Type (0, 1), BuildingBlock: XUDNAN_clean_linker_2, # of connection points: 2
#     Edge 46, Type (0, 1), BuildingBlock: XUDNAN_clean_linker_2, # of connection points: 2
#     Edge 47, Type (0, 1), BuildingBlock: XUDNAN_clean_linker_2, # of connection points: 2
#     Edge 48, Type (0, 1), BuildingBlock: XUDNAN_clean_linker_2, # of connection points: 2
#     Edge 49, Type (0, 1), BuildingBlock: XUDNAN_clean_linker_2, # of connection points: 2
#     Edge 50, Type (0, 1), BuildingBlock: XUDNAN_clean_linker_2, # of connection points: 2
#     Edge 51, Type (0, 1), BuildingBlock: XUDNAN_clean_linker_2, # of connection points: 2
#     Edge 52, Type (0, 1), BuildingBlock: XUDNAN_clean_linker_2, # of connection points: 2
#     Edge 53, Type (0, 1), BuildingBlock: XUDNAN_clean_linker_2, # of connection points: 2
#     Edge 54, Type (0, 1), BuildingBlock: XUDNAN_clean_linker_2, # of connection points: 2
#     Edge 55, Type (0, 1), BuildingBlock: XUDNAN_clean_linker_2, # of connection points: 2
#     Edge 56, Type (0, 1), BuildingBlock: XUDNAN_clean_linker_2, # of connection points: 2
#     Edge 57, Type (0, 1), BuildingBlock: XUDNAN_clean_linker_2, # of connection points: 2
#     Edge 58, Type (0, 1), BuildingBlock: XUDNAN_clean_linker_2, # of connection points: 2
#     Edge 59, Type (0, 1), BuildingBlock: XUDNAN_clean_linker_2, # of connection points: 2
#     Edge 60, Type (0, 1), BuildingBlock: XUDNAN_clean_linker_2, # of connection points: 2
#     Edge 61, Type (0, 1), BuildingBlock: XUDNAN_clean_linker_2, # of connection points: 2
#     Edge 62, Type (0, 1), BuildingBlock: XUDNAN_clean_linker_2, # of connection points: 2
#     Edge 63, Type (0, 1), BuildingBlock: XUDNAN_clean_linker_2, # of connection points: 2
#     Edge 64, Type (0, 1), BuildingBlock: XUDNAN_clean_linker_2, # of connection points: 2
#     Edge 65, Type (0, 1), BuildingBlock: XUDNAN_clean_linker_2, # of connection points: 2
#     Edge 66, Type (0, 1), BuildingBlock: XUDNAN_clean_linker_2, # of connection points: 2
#     Edge 67, Type (0, 1), BuildingBlock: XUDNAN_clean_linker_2, # of connection points: 2
#     Edge 68, Type (0, 1), BuildingBlock: XUDNAN_clean_linker_2, # of connection points: 2
#     Edge 69, Type (0, 1), BuildingBlock: XUDNAN_clean_linker_2, # of connection points: 2
#     Edge 70, Type (0, 1), BuildingBlock: XUDNAN_clean_linker_2, # of connection points: 2
#     Edge 71, Type (0, 1), BuildingBlock: XUDNAN_clean_linker_2, # of connection points: 2
#     Edge 72, Type (0, 1), BuildingBlock: XUDNAN_clean_linker_2, # of connection points: 2
#     Edge 73, Type (0, 1), BuildingBlock: XUDNAN_clean_linker_2, # of connection points: 2
#     Edge 74, Type (0, 1), BuildingBlock: XUDNAN_clean_linker_2, # of connection points: 2
#     Edge 75, Type (0, 1), BuildingBlock: XUDNAN_clean_linker_2, # of connection points: 2
#     Edge 76, Type (0, 1), BuildingBlock: XUDNAN_clean_linker_2, # of connection points: 2
#     Edge 77, Type (0, 1), BuildingBlock: XUDNAN_clean_linker_2, # of connection points: 2
#     Edge 78, Type (0, 1), BuildingBlock: XUDNAN_clean_linker_2, # of connection points: 2
#     Edge 79, Type (0, 1), BuildingBlock: XUDNAN_clean_linker_2, # of connection points: 2
#     Edge 80, Type (0, 1), BuildingBlock: XUDNAN_clean_linker_2, # of connection points: 2
#     Edge 81, Type (0, 1), BuildingBlock: XUDNAN_clean_linker_2, # of connection points: 2
#     Edge 82, Type (0, 1), BuildingBlock: XUDNAN_clean_linker_2, # of connection points: 2
#     Edge 83, Type (0, 1), BuildingBlock: XUDNAN_clean_linker_2, # of connection points: 2
#     Edge 84, Type (0, 1), BuildingBlock: XUDNAN_clean_linker_2, # of connection points: 2
#     Edge 85, Type (0, 1), BuildingBlock: XUDNAN_clean_linker_2, # of connection points: 2
#     Edge 86, Type (0, 1), BuildingBlock: XUDNAN_clean_linker_2, # of connection points: 2
#     Edge 87, Type (0, 1), BuildingBlock: XUDNAN_clean_linker_2, # of connection points: 2
#     Edge 88, Type (0, 1), BuildingBlock: XUDNAN_clean_linker_2, # of connection points: 2
#     Edge 89, Type (0, 1), BuildingBlock: XUDNAN_clean_linker_2, # of connection points: 2
#     Edge 90, Type (0, 1), BuildingBlock: XUDNAN_clean_linker_2, # of connection points: 2
#     Edge 91, Type (0, 1), BuildingBlock: XUDNAN_clean_linker_2, # of connection points: 2
#     Edge 92, Type (0, 1), BuildingBlock: XUDNAN_clean_linker_2, # of connection points: 2
#     Edge 93, Type (0, 1), BuildingBlock: XUDNAN_clean_linker_2, # of connection points: 2
#     Edge 94, Type (0, 1), BuildingBlock: XUDNAN_clean_linker_2, # of connection points: 2
#     Edge 95, Type (0, 1), BuildingBlock: XUDNAN_clean_linker_2, # of connection points: 2
#     Edge 96, Type (0, 1), BuildingBlock: XUDNAN_clean_linker_2, # of connection points: 2
#     Edge 97, Type (0, 1), BuildingBlock: XUDNAN_clean_linker_2, # of connection points: 2
#     Edge 98, Type (0, 1), BuildingBlock: XUDNAN_clean_linker_2, # of connection points: 2
#     Edge 99, Type (0, 1), BuildingBlock: XUDNAN_clean_linker_2, # of connection points: 2
#     Edge 100, Type (0, 1), BuildingBlock: XUDNAN_clean_linker_2, # of connection points: 2
#     Edge 101, Type (0, 1), BuildingBlock: XUDNAN_clean_linker_2, # of connection points: 2
#     Edge 102, Type (0, 1), BuildingBlock: XUDNAN_clean_linker_2, # of connection points: 2
#     Edge 103, Type (0, 1), BuildingBlock: XUDNAN_clean_linker_2, # of connection points: 2
#     Edge 104, Type (0, 1), BuildingBlock: XUDNAN_clean_linker_2, # of connection points: 2
#     Edge 105, Type (0, 1), BuildingBlock: XUDNAN_clean_linker_2, # of connection points: 2
#     Edge 106, Type (0, 1), BuildingBlock: XUDNAN_clean_linker_2, # of connection points: 2
#     Edge 107, Type (0, 1), BuildingBlock: XUDNAN_clean_linker_2, # of connection points: 2
#     Edge 108, Type (0, 1), BuildingBlock: XUDNAN_clean_linker_2, # of connection points: 2
#     Edge 109, Type (0, 1), BuildingBlock: XUDNAN_clean_linker_2, # of connection points: 2
#     Edge 110, Type (0, 1), BuildingBlock: XUDNAN_clean_linker_2, # of connection points: 2
#     Edge 111, Type (0, 1), BuildingBlock: XUDNAN_clean_linker_2, # of connection points: 2
#     Edge 112, Type (0, 1), BuildingBlock: XUDNAN_clean_linker_2, # of connection points: 2
#     Edge 113, Type (0, 1), BuildingBlock: XUDNAN_clean_linker_2, # of connection points: 2
#     Edge 114, Type (0, 1), BuildingBlock: XUDNAN_clean_linker_2, # of connection points: 2
#     Edge 115, Type (0, 1), BuildingBlock: XUDNAN_clean_linker_2, # of connection points: 2
#     Edge 116, Type (0, 1), BuildingBlock: XUDNAN_clean_linker_2, # of connection points: 2
#     Edge 117, Type (0, 1), BuildingBlock: XUDNAN_clean_linker_2, # of connection points: 2
#     Edge 118, Type (0, 1), BuildingBlock: XUDNAN_clean_linker_2, # of connection points: 2
#     Edge 119, Type (0, 1), BuildingBlock: XUDNAN_clean_linker_2, # of connection points: 2
#     Edge 120, Type (0, 1), BuildingBlock: XUDNAN_clean_linker_2, # of connection points: 2
#     Edge 121, Type (0, 1), BuildingBlock: XUDNAN_clean_linker_2, # of connection points: 2
#     Edge 122, Type (0, 1), BuildingBlock: XUDNAN_clean_linker_2, # of connection points: 2
#     Edge 123, Type (0, 1), BuildingBlock: XUDNAN_clean_linker_2, # of connection points: 2
#     Edge 124, Type (0, 1), BuildingBlock: XUDNAN_clean_linker_2, # of connection points: 2
#     Edge 125, Type (0, 1), BuildingBlock: XUDNAN_clean_linker_2, # of connection points: 2
#     Edge 126, Type (0, 1), BuildingBlock: XUDNAN_clean_linker_2, # of connection points: 2
#     Edge 127, Type (0, 1), BuildingBlock: XUDNAN_clean_linker_2, # of connection points: 2
#     Edge 128, Type (0, 1), BuildingBlock: XUDNAN_clean_linker_2, # of connection points: 2
#     Edge 129, Type (0, 1), BuildingBlock: XUDNAN_clean_linker_2, # of connection points: 2
#     Edge 130, Type (0, 1), BuildingBlock: XUDNAN_clean_linker_2, # of connection points: 2
#     Edge 131, Type (0, 1), BuildingBlock: XUDNAN_clean_linker_2, # of connection points: 2
#     Edge 132, Type (0, 1), BuildingBlock: XUDNAN_clean_linker_2, # of connection points: 2
#     Edge 133, Type (0, 1), BuildingBlock: XUDNAN_clean_linker_2, # of connection points: 2
#     Edge 134, Type (0, 1), BuildingBlock: XUDNAN_clean_linker_2, # of connection points: 2
#     Edge 135, Type (0, 1), BuildingBlock: XUDNAN_clean_linker_2, # of connection points: 2
# Relax obj value: 0.232
# Max RMSD: 0.312
# Mean RMSD: 0.159
data_MOF--net-gar--node1-GALJAG_clean_sbu_0--node2-NUHQIS_clean_sbu_0--edge1-XUDNAN_clean_linker_2
_symmetry_space_group_name_H-M    P1
_symmetry_Int_Tables_number       1
_symmetry_cell_setting            triclinic
loop_
_symmetry_equiv_pos_as_xyz
'x, y, z'
_cell_length_a     56.734419
_cell_length_b     59.885549
_cell_length_c     56.558819
_cell_angle_alpha  92.907756
_cell_angle_beta   96.097464
_cell_angle_gamma 99.800296
loop_
_atom_site_label
_atom_site_type_symbol
_atom_site_fract_x
_atom_site_fract_y
_atom_site_fract_z
_atom_type_partial_charge
In0 In 0.08906 0.29658 0.4239 0.0
O1 O 0.11241 0.29186 0.39015 0.0
O2 O 0.132 0.30626 0.42185 0.0
C3 C 0.04136 0.29329 0.39878 0.0
C4 C 0.08665 0.25132 0.44432 0.0
C5 C 0.09019 0.34129 0.44953 0.0
O6 O 0.06039 0.30271 0.39084 0.0
O7 O 0.04634 0.28511 0.41852 0.0
O8 O 0.0938 0.32322 0.4593 0.0
O9 O 0.08639 0.3371 0.42716 0.0
C10 C 0.13337 0.29984 0.40039 0.0
O11 O 0.08995 0.27015 0.45687 0.0
O12 O 0.08481 0.25544 0.42246 0.0
In13 In 0.06746 0.80249 0.65412 0.0
O14 O 0.06493 0.82913 0.62145 0.0
O15 O 0.07442 0.84369 0.65575 0.0
C16 C 0.06575 0.75749 0.62846 0.0
C17 C 0.11596 0.80624 0.67677 0.0
C18 C 1.0262 0.80104 0.68227 0.0
O19 O 0.05871 0.77465 0.61937 0.0
O20 O 0.07302 0.7626 0.6503 0.0
O21 O 0.04836 0.80616 0.69017 0.0
O22 O 1.02424 0.79603 0.65998 0.0
C23 C 0.07067 0.84794 0.63407 0.0
O24 O 0.09751 0.79863 0.68672 0.0
O25 O 0.10998 0.8122 0.65613 0.0
In26 In 0.58901 0.7992 0.92283 0.0
O27 O 0.6089 0.79419 0.88775 0.0
O28 O 0.6325 0.80688 0.91762 0.0
C29 C 0.54205 0.79482 0.89612 0.0
C30 C 0.58609 0.75668 0.94908 0.0
C31 C 0.58989 0.84644 0.9424 0.0
O32 O 0.56032 0.7889 0.88828 0.0
O33 O 0.54689 0.80238 0.9177 0.0
O34 O 0.59354 0.83016 0.95523 0.0
O35 O 0.58685 0.83912 0.92065 0.0
C36 C 0.63088 0.80059 0.89563 0.0
O37 O 0.59298 0.77692 0.9583 0.0
O38 O 0.58036 0.75764 0.92696 0.0
In39 In 0.56838 0.30616 0.15501 0.0
O40 O 0.56255 0.27543 0.12213 0.0
O41 O 0.5739 0.26704 0.15593 0.0
C42 C 0.56966 0.34888 0.12961 0.0
C43 C 0.52433 0.30262 0.17906 0.0
C44 C 0.61663 0.3114 0.17933 0.0
O45 O 0.56612 0.32873 0.11983 0.0
O46 O 0.57235 0.34776 0.15206 0.0
O47 O 0.59785 0.30574 0.18952 0.0
O48 O 0.61108 0.3151 0.15778 0.0
C49 C 0.56861 0.25954 0.13433 0.0
O50 O 0.545 0.31268 0.18837 0.0
O51 O 0.52587 0.29454 0.15821 0.0
In52 In 0.14262 0.87503 0.18173 0.0
O53 O 0.14146 0.84158 0.16037 0.0
O54 O 0.15113 0.84284 0.19784 0.0
C55 C 0.12451 0.89661 0.14538 0.0
C56 C 0.10747 0.86997 0.2102 0.0
C57 C 0.18817 0.89599 0.19622 0.0
O58 O 0.12533 0.9036 0.1669 0.0
O59 O 0.13368 0.87915 0.14208 0.0
O60 O 0.17083 0.8987 0.20758 0.0
O61 O 0.18218 0.88395 0.1769 0.0
C62 C 0.14737 0.8311 0.17823 0.0
O63 O 0.12735 0.8831 0.2161 0.0
O64 O 0.10521 0.85983 0.18976 0.0
In65 In 0.53969 0.73679 0.43192 0.0
O66 O 0.55779 0.7175 0.40521 0.0
O67 O 0.5748 0.75097 0.41807 0.0
C68 C 0.50225 0.73186 0.39771 0.0
C69 C 0.54705 0.71073 0.46827 0.0
C70 C 0.53294 0.77464 0.45584 0.0
O71 O 0.50409 0.71719 0.41276 0.0
O72 O 0.51921 0.74871 0.40003 0.0
O73 O 0.51765 0.75652 0.45383 0.0
O74 O 0.55155 0.77364 0.44575 0.0
C75 C 0.57505 0.73371 0.40444 0.0
O76 O 0.5287 0.70621 0.453 0.0
O77 O 0.56203 0.72795 0.46471 0.0
In78 In 0.62552 0.36004 0.68891 0.0
O79 O 0.61795 0.33434 0.65678 0.0
O80 O 0.65224 0.33863 0.67731 0.0
C81 C 0.60243 0.38605 0.66036 0.0
C82 C 0.5992 0.33635 0.71898 0.0
C83 C 0.66477 0.38393 0.71554 0.0
O84 O 0.62498 0.38925 0.66498 0.0
O85 O 0.59131 0.37047 0.67116 0.0
O86 O 0.64535 0.37749 0.72421 0.0
O87 O 0.66368 0.37947 0.69341 0.0
C88 C 0.63851 0.32885 0.65947 0.0
O89 O 0.60069 0.35758 0.718 0.0
O90 O 0.61138 0.3272 0.70512 0.0
In91 In 0.04305 0.23997 0.90175 0.0
O92 O 0.03863 0.2107 0.92553 0.0
O93 O 0.0742 0.22835 0.92357 0.0
C94 C 0.04173 0.2761 0.93153 0.0
C95 C 0.07005 0.24088 0.86571 0.0
C96 C 1.00023 0.23309 0.87484 0.0
O97 O 1.02773 0.25741 0.93193 0.0
O98 O 0.05635 0.2765 0.9162 0.0
O99 O 1.01516 0.25138 0.8762 0.0
O100 O 1.00657 0.21795 0.88759 0.0
C101 C 0.06082 0.21286 0.93259 0.0
O102 O 0.05706 0.22276 0.87053 0.0
O103 O 0.0699 0.25806 0.87954 0.0
In104 In 0.53726 0.1205 0.29269 0.0
O105 O 0.5737 0.11156 0.28754 0.0
O106 O 0.56699 0.14334 0.27612 0.0
C107 C 0.54957 0.12218 0.3401 0.0
C108 C 0.50539 0.14535 0.27427 0.0
C109 C 0.51085 0.07915 0.27885 0.0
O110 O 0.54916 0.14017 0.32939 0.0
O111 O 0.54338 0.10408 0.32699 0.0
O112 O 0.50598 0.09196 0.29531 0.0
O113 O 0.52896 0.08734 0.26886 0.0
C114 C 0.58157 0.12965 0.27836 0.0
O115 O 0.51794 0.13536 0.26156 0.0
O116 O 0.50968 0.14363 0.29643 0.0
In117 In 0.3491 0.1778 0.5384 0.0
O118 O 0.34302 0.21068 0.5617 0.0
O119 O 0.35373 0.18519 0.58153 0.0
C120 C 0.34943 0.20257 0.49512 0.0
C121 C 0.39313 0.15794 0.53948 0.0
C122 C 0.30308 0.1489 0.53958 0.0
O123 O 0.358 0.21079 0.51602 0.0
O124 O 0.34076 0.18163 0.49555 0.0
O125 O 0.32269 0.14653 0.55124 0.0
O126 O 0.30645 0.16525 0.52634 0.0
C127 C 0.34767 0.20454 0.58255 0.0
O128 O 0.37242 0.14744 0.53086 0.0
O129 O 0.39161 0.17788 0.54699 0.0
In130 In 0.24529 0.06499 0.8581 0.0
O131 O 0.21721 0.04613 0.82882 0.0
O132 O 0.25084 0.06173 0.8189 0.0
C133 C 0.21884 0.05685 0.89417 0.0
C134 C 0.28015 0.04054 0.86864 0.0
C135 C 0.2489 0.11043 0.85696 0.0
O136 O 0.21005 0.05269 0.87263 0.0
O137 O 0.24096 0.06548 0.89757 0.0
O138 O 0.26659 0.1014 0.8644 0.0
O139 O 0.22959 0.09664 0.85099 0.0
C140 C 0.22996 0.05086 0.81219 0.0
O141 O 0.28473 0.06038 0.86171 0.0
O142 O 0.25818 0.03312 0.86988 0.0
In143 In 0.34528 0.89101 0.04672 0.0
O144 O 0.34766 0.85853 0.06595 0.0
O145 O 0.3517 0.88941 0.08733 0.0
C146 C 0.3364 0.87064 1.00145 0.0
C147 C 0.30546 0.9089 0.05418 0.0
C148 C 0.39025 0.91576 0.04971 0.0
O149 O 0.3342 0.85999 0.01996 0.0
O150 O 0.34314 0.89177 1.00557 0.0
O151 O 0.37157 0.92447 0.04595 0.0
O152 O 0.38625 0.89455 0.05133 0.0
C153 C 0.35117 0.86823 0.0867 0.0
O154 O 0.32543 0.92104 0.05194 0.0
O155 O 0.30544 0.88785 0.05217 0.0
In156 In 0.30892 0.42397 0.04538 0.0
O157 O 0.29662 0.39117 0.06753 0.0
O158 O 0.32095 0.41699 0.08684 0.0
C159 C 0.30679 0.40069 0.99864 0.0
C160 C 0.26864 0.44911 0.0449 0.0
C161 C 0.35537 0.45264 0.0465 0.0
O162 O 0.31912 0.39605 0.01717 0.0
O163 O 0.29511 0.41622 1.00371 0.0
O164 O 0.3383 0.4573 0.05751 0.0
O165 O 0.34928 0.43365 0.03476 0.0
C166 C 0.30859 0.39746 0.08768 0.0
O167 O 0.29089 0.45767 0.04737 0.0
O168 O 0.26613 0.42763 0.04245 0.0
In169 In 0.81259 0.20865 0.03506 0.0
O170 O 0.82498 0.1759 0.04556 0.0
O171 O 0.84437 0.19466 0.02096 0.0
C172 C 0.76668 0.18658 0.032 0.0
C173 C 0.82409 0.23272 0.07863 0.0
C174 C 0.80995 0.22975 0.9933 0.0
O175 O 0.78455 0.17653 0.03472 0.0
O176 O 0.77197 0.20794 0.03138 0.0
O177 O 0.82391 0.23878 1.01144 0.0
O178 O 0.79793 0.21069 0.99638 0.0
C179 C 0.84174 0.17714 0.03254 0.0
O180 O 0.83878 0.23258 0.06342 0.0
O181 O 0.80343 0.22171 0.07152 0.0
In182 In 0.17277 0.50825 0.27287 0.0
O183 O 0.20262 0.49688 0.29628 0.0
O184 O 0.16921 0.47416 0.29077 0.0
C185 C 0.20933 0.5333 0.25388 0.0
C186 C 0.13846 0.48893 0.23789 0.0
C187 C 0.15355 0.53893 0.29753 0.0
O188 O 0.20688 0.53441 0.27573 0.0
O189 O 0.19343 0.51909 0.24125 0.0
O190 O 0.15693 0.54062 0.27601 0.0
O191 O 0.15944 0.52155 0.30659 0.0
C192 C 0.1906 0.47828 0.30083 0.0
O193 O 0.13451 0.50184 0.2548 0.0
O194 O 0.15957 0.4845 0.23938 0.0
In195 In 0.81096 0.92513 0.54277 0.0
O196 O 0.80904 0.89267 0.56817 0.0
O197 O 0.81548 0.92489 0.58534 0.0
C198 C 0.80861 0.89759 0.49832 0.0
C199 C 0.77132 0.95104 0.54173 0.0
C200 C 0.85676 0.9534 0.54034 0.0
O201 O 0.82787 0.90706 0.51071 0.0
O202 O 0.79061 0.90083 0.50871 0.0
O203 O 0.83762 0.95403 0.52678 0.0
O204 O 0.85293 0.93912 0.55586 0.0
C205 C 0.81292 0.90386 0.58831 0.0
O206 O 0.79365 0.95927 0.54496 0.0
O207 O 0.76847 0.9296 0.53884 0.0
In208 In 0.93803 0.03389 0.24399 0.0
O209 O 0.96765 0.04941 0.22321 0.0
O210 O 0.93217 0.04268 0.20501 0.0
C211 C 0.97794 0.03859 0.27529 0.0
C212 C 0.90791 0.05896 0.26146 0.0
C213 C 0.91678 0.98983 0.23573 0.0
O214 O 0.96995 0.05533 0.26696 0.0
O215 O 0.96527 1.01944 0.26854 0.0
O216 O 0.90872 1.00382 0.24866 0.0
O217 O 0.93541 0.99809 0.22666 0.0
C218 C 0.95424 0.05025 0.20421 0.0
O219 O 0.91139 0.05819 0.2398 0.0
O220 O 0.91968 0.04713 0.27433 0.0
In221 In 0.31221 0.71382 0.52623 0.0
O222 O 0.32614 0.69168 0.49903 0.0
O223 O 0.34595 0.69736 0.53343 0.0
C224 C 0.27417 0.67947 0.52605 0.0
C225 C 0.32165 0.73692 0.57042 0.0
C226 C 0.30933 0.74282 0.49063 0.0
O227 O 0.29554 0.67793 0.53354 0.0
O228 O 0.27163 0.6987 0.51892 0.0
O229 O 0.32892 0.73834 0.50015 0.0
O230 O 0.2911 0.73364 0.49989 0.0
C231 C 0.34391 0.68794 0.51263 0.0
O232 O 0.33548 0.74006 0.55443 0.0
O233 O 0.30275 0.72268 0.564 0.0
In234 In 0.4012 0.54232 0.73676 0.0
O235 O 0.36284 0.54528 0.74325 0.0
O236 O 0.38006 0.56772 0.71991 0.0
C237 C 0.39418 0.50138 0.75476 0.0
C238 C 0.41708 0.53362 0.69473 0.0
C239 C 0.43567 0.56691 0.76885 0.0
O240 O 0.37953 0.50699 0.73868 0.0
O241 O 0.41184 0.51672 0.76237 0.0
O242 O 0.44014 0.55527 0.75125 0.0
O243 O 0.41356 0.567 0.76993 0.0
C244 C 0.36132 0.56108 0.72958 0.0
O245 O 0.4189 0.55359 0.70386 0.0
O246 O 0.40643 0.51839 0.70628 0.0
In247 In 0.6392 0.98423 0.78854 0.0
O248 O 0.65661 0.97339 0.82306 0.0
O249 O 0.65937 0.95429 0.791 0.0
C250 C 0.67285 0.02226 0.79253 0.0
C251 C 0.62288 0.98405 0.74198 0.0
C252 C 0.59689 0.97972 0.80671 0.0
O253 O 0.65367 0.02093 0.80222 0.0
O254 O 0.6754 1.0042 0.78132 0.0
O255 O 0.6038 0.96295 0.79692 0.0
O256 O 0.61153 0.99822 0.80783 0.0
C257 C 0.66463 0.95723 0.81338 0.0
O258 O 0.62422 1.00064 0.75689 0.0
O259 O 0.6299 0.96682 0.75042 0.0
In260 In 0.84656 0.67575 0.0364 0.0
O261 O 0.86928 0.64434 0.03592 0.0
O262 O 0.88957 0.67686 0.0409 0.0
C263 C 0.79996 0.64765 0.03528 0.0
C264 C 0.84826 0.6983 0.08348 0.0
C265 C 0.84448 0.69695 0.99062 0.0
O266 O 0.80434 0.66875 0.04089 0.0
O267 O 0.81879 0.64061 0.03025 0.0
O268 O 0.85192 0.70797 1.01056 0.0
O269 O 0.83859 0.67609 0.99388 0.0
C270 C 0.89047 0.65579 0.0392 0.0
O271 O 0.84141 0.70668 0.06429 0.0
O272 O 0.8548 0.67952 0.07887 0.0
In273 In 1.02261 0.6232 0.81729 0.0
O274 O 0.98967 0.62799 0.79275 0.0
O275 O 1.01125 0.65758 0.81063 0.0
C276 C 1.00134 0.57909 0.80929 0.0
C277 C 0.06438 0.62464 0.79852 0.0
C278 C 1.03415 0.63497 0.86426 0.0
O279 O 1.01234 0.59001 0.79407 0.0
O280 O 1.00119 0.59034 0.82875 0.0
O281 O 0.0482 0.64097 0.84902 0.0
O282 O 1.01382 0.62392 0.85566 0.0
C283 C 0.99319 0.64927 0.796 0.0
O284 O 0.05838 0.61161 0.81452 0.0
O285 O 0.04926 0.63696 0.792 0.0
In286 In 0.84579 0.39511 0.5503 0.0
O287 O 0.82742 0.37294 0.57766 0.0
O288 O 0.86323 0.37003 0.5727 0.0
C289 C 0.8341 0.38121 0.50284 0.0
C290 C 0.816 0.42394 0.56101 0.0
C291 C 0.89031 0.42122 0.55799 0.0
O292 O 0.84173 0.3683 0.51776 0.0
O293 O 0.83202 0.40026 0.51199 0.0
O294 O 0.87635 0.41822 0.57387 0.0
O295 O 0.88207 0.41069 0.53812 0.0
C296 C 0.84575 0.36463 0.58456 0.0
O297 O 0.8383 0.4301 0.5605 0.0
O298 O 0.80835 0.40298 0.55585 0.0
In299 In 0.72122 0.56809 0.35744 0.0
O300 O 0.75716 0.55731 0.36832 0.0
O301 O 0.74121 0.54899 0.33257 0.0
C302 C 0.74092 0.61203 0.35642 0.0
C303 C 0.67907 0.56475 0.3298 0.0
C304 C 0.70237 0.54841 0.39436 0.0
O305 O 0.73226 0.59957 0.33783 0.0
O306 O 0.73978 0.6023 0.37566 0.0
O307 O 0.70321 0.53748 0.37492 0.0
O308 O 0.71189 0.56913 0.39548 0.0
C309 C 0.75867 0.54819 0.3481 0.0
O310 O 0.69393 0.55173 0.3264 0.0
O311 O 0.68565 0.57957 0.34696 0.0
Tb312 Tb 0.05132 0.04287 0.01965 0.0
Eu313 Eu 0.09802 0.05073 0.06144 0.0
C314 C 0.10161 0.03407 1.00864 0.0
C315 C 0.06241 1.00407 0.05006 0.0
C316 C 0.99192 0.04973 0.99401 0.0
C317 C 0.96408 0.07472 0.98108 0.0
C318 C 0.98323 0.06353 0.97698 0.0
C319 C 0.98098 0.04719 1.01511 0.0
C320 C 0.96203 0.05838 0.01924 0.0
C321 C 0.9533 0.07233 1.00235 0.0
C322 C 1.01369 0.03981 0.99097 0.0
O323 O 0.03781 0.04842 0.05373 0.0
O324 O 0.07114 0.06839 0.0776 0.0
O325 O 0.10162 0.08192 0.04071 0.0
O326 O 0.06126 0.07894 0.0292 0.0
C327 C 0.04769 0.06194 0.07261 0.0
O328 O 0.11481 0.0441 0.09635 0.0
O329 O 0.13679 0.06096 0.07129 0.0
O330 O 0.10492 0.02874 0.03073 0.0
O331 O 0.08317 0.04353 1.00114 0.0
O332 O 0.05807 1.00921 0.02795 0.0
O333 O 0.07135 1.01993 0.06689 0.0
C334 C 0.08318 0.09072 0.03207 0.0
O335 O 1.03326 0.05437 0.98936 0.0
O336 O 1.01782 0.02403 1.00516 0.0
C337 C 0.15177 0.03234 0.0917 0.0
C338 C 0.18173 0.99935 0.08855 0.0
C339 C 0.19106 0.02133 0.09916 0.0
C340 C 0.1762 0.03769 0.10067 0.0
C341 C 0.14231 1.01034 0.08149 0.0
C342 C 0.15709 0.99404 0.07997 0.0
C343 C 0.13659 0.05002 0.09064 0.0
H344 H 0.95771 0.0852 0.96761 0.0
H345 H 0.99153 0.06596 0.96069 0.0
H346 H 0.98745 0.037 0.02882 0.0
H347 H 0.95465 0.05653 0.03607 0.0
H348 H 0.20989 0.02593 0.10618 0.0
H349 H 0.18388 0.05463 0.10839 0.0
H350 H 0.12356 1.00594 0.07406 0.0
H351 H 0.14931 0.97748 0.07133 0.0
Tb352 Tb 0.36474 0.82899 0.30181 0.0
Eu353 Eu 0.32053 0.78772 0.28081 0.0
C354 C 0.31554 0.8404 0.27875 0.0
C355 C 0.32884 0.80518 0.3349 0.0
C356 C 0.40963 0.88263 0.30851 0.0
C357 C 0.40527 0.92015 0.29606 0.0
C358 C 0.39542 0.89947 0.30455 0.0
C359 C 0.43371 0.8868 0.30383 0.0
C360 C 0.44345 0.90731 0.2951 0.0
C361 C 0.42934 0.92417 0.2911 0.0
C362 C 0.39969 0.86028 0.3165 0.0
O363 O 0.38067 0.79871 0.29728 0.0
O364 O 0.34841 0.77053 0.29968 0.0
O365 O 0.34709 0.79302 0.25378 0.0
O366 O 0.35986 0.83092 0.26321 0.0
C367 C 0.37166 0.7778 0.30147 0.0
O368 O 0.29705 0.76909 0.25061 0.0
O369 O 0.29221 0.75969 0.28648 0.0
O370 O 0.30889 0.81957 0.2692 0.0
O371 O 0.33413 0.8464 0.29511 0.0
O372 O 0.35171 0.81155 0.33226 0.0
O373 O 0.31253 0.8018 0.31621 0.0
C374 C 0.35579 0.81334 0.24754 0.0
O375 O 0.37887 0.85798 0.32482 0.0
O376 O 0.40125 0.84295 0.30225 0.0
C377 C 0.28456 0.72993 0.25613 0.0
C378 C 0.28126 0.68339 0.24301 0.0
C379 C 0.29214 0.69983 0.22885 0.0
C380 C 0.2939 0.72296 0.23542 0.0
C381 C 0.27331 0.71343 0.26995 0.0
C382 C 0.27176 0.69042 0.26353 0.0
C383 C 0.28634 0.75415 0.26375 0.0
H384 H 0.39401 0.93287 0.29305 0.0
H385 H 0.37671 0.89662 0.3078 0.0
H386 H 0.44498 0.87406 0.30674 0.0
H387 H 0.46214 0.9101 0.29177 0.0
H388 H 0.29948 0.6948 0.2129 0.0
H389 H 0.3026 0.7353 0.22433 0.0
H390 H 0.26571 0.71833 0.2858 0.0
H391 H 0.26275 0.67809 0.27447 0.0
Tb392 Tb 0.56786 0.03623 0.52832 0.0
Eu393 Eu 0.60157 0.07892 0.55863 0.0
C394 C 0.58158 0.03399 0.58369 0.0
C395 C 0.54405 0.08145 0.54492 0.0
C396 C 0.53549 0.97889 0.5062 0.0
C397 C 0.51072 0.94197 0.49547 0.0
C398 C 0.51395 0.96559 0.49551 0.0
C399 C 0.55369 0.9685 0.51727 0.0
C400 C 0.55053 0.94488 0.51713 0.0
C401 C 0.52907 0.93141 0.50609 0.0
C402 C 0.53856 1.0036 0.50626 0.0
O403 O 0.58182 0.0577 0.50143 0.0
O404 O 0.59297 0.09195 0.52291 0.0
O405 O 0.62734 0.05434 0.55026 0.0
O406 O 0.60305 0.02274 0.53115 0.0
C407 C 0.58748 0.07991 0.50255 0.0
O408 O 0.63615 0.1016 0.56211 0.0
O409 O 0.61239 0.10314 0.58959 0.0
O410 O 0.58791 0.05609 0.58616 0.0
O411 O 0.57597 0.02304 0.5627 0.0
O412 O 0.5417 0.06058 0.53433 0.0
O413 O 0.56548 0.09156 0.55537 0.0
C414 C 0.62491 0.03339 0.54044 0.0
O415 O 0.53492 1.01382 0.52609 0.0
O416 O 0.55783 1.01372 0.49789 0.0
C417 C 0.63808 0.13679 0.5828 0.0
C418 C 0.6492 0.1844 0.58568 0.0
C419 C 0.63105 0.17277 0.56834 0.0
C420 C 0.62552 0.14906 0.5669 0.0
C421 C 0.65644 0.14823 0.59975 0.0
C422 C 0.66197 0.17186 0.60122 0.0
C423 C 0.6325 0.11205 0.58182 0.0
H424 H 0.49415 0.93197 0.48658 0.0
H425 H 0.49971 0.97347 0.48704 0.0
H426 H 0.57032 0.97864 0.5259 0.0
H427 H 0.56487 0.93713 0.52558 0.0
H428 H 0.62099 0.18199 0.55609 0.0
H429 H 0.61137 0.14032 0.55358 0.0
H430 H 0.66629 0.13889 0.61208 0.0
H431 H 0.67568 0.18031 0.6151 0.0
Tb432 Tb 0.30287 0.3062 0.77957 0.0
Eu433 Eu 0.35205 0.29278 0.80374 0.0
C434 C 0.35163 0.34046 0.78079 0.0
C435 C 0.33477 0.28168 0.74614 0.0
C436 C 0.23867 0.30187 0.75706 0.0
C437 C 0.1961 0.3034 0.75412 0.0
C438 C 0.21976 0.31388 0.75249 0.0
C439 C 0.23364 0.27893 0.76191 0.0
C440 C 0.21007 0.26847 0.76366 0.0
C441 C 0.19114 0.28082 0.76055 0.0
C442 C 0.26363 0.31365 0.75845 0.0
O443 O 0.29293 0.2713 0.78892 0.0
O444 O 0.32248 0.27132 0.81953 0.0
O445 O 0.3407 0.31466 0.83436 0.0
O446 O 0.30252 0.31731 0.81791 0.0
C447 C 0.30151 0.26256 0.80806 0.0
O448 O 0.37324 0.26638 0.81181 0.0
O449 O 0.38746 0.30142 0.82432 0.0
O450 O 0.36405 0.32425 0.78509 0.0
O451 O 0.32827 0.33752 0.7811 0.0
O452 O 0.32236 0.29823 0.74901 0.0
O453 O 0.34529 0.27417 0.76551 0.0
C454 C 0.31973 0.32123 0.83633 0.0
O455 O 0.27309 0.32293 0.77934 0.0
O456 O 0.27821 0.30248 0.74866 0.0
C457 C 0.41552 0.27877 0.81471 0.0
C458 C 0.46128 0.27923 0.79975 0.0
C459 C 0.45902 0.28919 0.82222 0.0
C460 C 0.43631 0.28885 0.82968 0.0
C461 C 0.41775 0.26818 0.79252 0.0
C462 C 0.44051 0.26829 0.78517 0.0
C463 C 0.39186 0.28079 0.82206 0.0
H464 H 0.18182 0.31325 0.75142 0.0
H465 H 0.22339 0.33158 0.74856 0.0
H466 H 0.24806 0.26937 0.7653 0.0
H467 H 0.20695 0.25119 0.76897 0.0
H468 H 0.4748 0.29766 0.83378 0.0
H469 H 0.43493 0.29707 0.84687 0.0
H470 H 0.40195 0.26042 0.78058 0.0
H471 H 0.4418 0.26076 0.76763 0.0
Tb472 Tb 0.08185 0.03843 0.51675 0.0
Eu473 Eu 0.07977 0.06303 0.56616 0.0
C474 C 0.13076 0.06698 0.54477 0.0
C475 C 0.08262 1.0076 0.56421 0.0
C476 C 0.09487 0.02508 0.4551 0.0
C477 C 0.10043 1.01318 0.41483 0.0
C478 C 0.09914 1.00843 0.43862 0.0
C479 C 0.09462 0.04721 0.44827 0.0
C480 C 0.09552 0.0519 0.42446 0.0
C481 C 0.09689 0.03451 0.40721 0.0
C482 C 0.08667 1.01835 0.4778 0.0
O483 O 0.04251 0.03008 0.51948 0.0
O484 O 0.03986 0.04666 0.55623 0.0
O485 O 0.07734 0.09279 0.5407 0.0
O486 O 0.07807 0.07339 0.505 0.0
C487 C 1.02961 0.0338 0.53699 0.0
O488 O 0.06511 0.06664 0.60007 0.0
O489 O 0.09476 0.09156 0.59198 0.0
O490 O 0.12004 0.06321 0.5641 0.0
O491 O 0.11768 0.06148 0.52396 0.0
O492 O 0.08235 1.00879 0.54069 0.0
O493 O 0.08336 0.02679 0.57733 0.0
C494 C 0.07772 0.09303 0.51721 0.0
O495 O 0.10287 0.02096 0.49636 0.0
O496 O 0.06698 0.02523 0.48256 0.0
C497 C 0.09697 0.07954 0.63091 0.0
C498 C 0.1304 0.07021 0.66795 0.0
C499 C 0.11003 0.05387 0.65955 0.0
C500 C 0.09351 0.05844 0.64111 0.0
C501 C 0.11659 0.09632 0.64031 0.0
C502 C 0.13324 0.09165 0.65857 0.0
C503 C 0.08246 0.08312 0.60861 0.0
H504 H 0.10212 0.9996 0.40208 0.0
H505 H 0.09967 0.99131 0.44373 0.0
H506 H 0.09159 0.06035 0.46089 0.0
H507 H 0.0927 0.06851 0.41936 0.0
H508 H 0.10747 0.0372 0.66649 0.0
H509 H 0.07865 0.04506 0.63421 0.0
H510 H 0.11965 0.11271 0.6328 0.0
H511 H 0.14862 0.10466 0.66504 0.0
Tb512 Tb 0.31966 0.77746 0.78951 0.0
Eu513 Eu 0.34091 0.82953 0.78279 0.0
C514 C 0.32269 0.81495 0.83231 0.0
C515 C 0.28423 0.80702 0.76216 0.0
C516 C 0.28957 0.71676 0.78053 0.0
C517 C 0.27446 0.67633 0.77776 0.0
C518 C 0.28261 0.6967 0.79153 0.0
C519 C 0.28589 0.71681 0.7556 0.0
C520 C 0.27774 0.69641 0.74176 0.0
C521 C 0.27333 0.67576 0.75274 0.0
C522 C 0.30412 0.73624 0.79496 0.0
O523 O 0.32119 0.77816 0.75119 0.0
O524 O 0.3508 0.80926 0.75169 0.0
O525 O 0.37037 0.81884 0.80874 0.0
O526 O 0.35972 0.78089 0.79838 0.0
C527 C 0.3374 0.79095 0.74051 0.0
O528 O 0.33494 0.86366 0.77587 0.0
O529 O 0.37122 0.85646 0.77893 0.0
O530 O 0.32526 0.83129 0.81772 0.0
O531 O 0.3233 0.79386 0.82525 0.0
O532 O 0.28613 0.78989 0.77574 0.0
O533 O 0.30365 0.82232 0.76027 0.0
C534 C 0.37569 0.79827 0.80908 0.0
O535 O 0.32488 0.74376 0.78773 0.0
O536 O 0.29321 0.75269 0.80117 0.0
C537 C 0.36528 0.89225 0.79435 0.0
C538 C 0.36857 0.92931 0.82794 0.0
C539 C 0.36309 0.93173 0.80341 0.0
C540 C 0.36153 0.91336 0.7868 0.0
C541 C 0.37241 0.89006 0.81854 0.0
C542 C 0.37428 0.90853 0.83518 0.0
C543 C 0.35784 0.87214 0.77766 0.0
H544 H 0.27147 0.6608 0.78687 0.0
H545 H 0.28531 0.69643 0.81076 0.0
H546 H 0.29104 0.73228 0.74684 0.0
H547 H 0.27678 0.69653 0.72254 0.0
H548 H 0.35813 0.94723 0.79707 0.0
H549 H 0.35576 0.91525 0.76823 0.0
H550 H 0.37521 0.87377 0.82473 0.0
H551 H 0.37889 0.90614 0.85385 0.0
Tb552 Tb 0.59503 0.04771 0.05754 0.0
Eu553 Eu 0.55757 0.05843 1.0155 0.0
C554 C 0.58114 1.00888 1.01371 0.0
C555 C 0.61322 0.08 0.01971 0.0
C556 C 0.63393 0.06184 0.11377 0.0
C557 C 0.66661 0.08001 0.14351 0.0
C558 C 0.65796 0.0643 0.12399 0.0
C559 C 0.61896 0.07575 0.12275 0.0
C560 C 0.6275 0.09137 0.14202 0.0
C561 C 0.65133 0.09356 0.15288 0.0
C562 C 0.62426 0.04506 0.09369 0.0
O563 O 0.58527 0.08172 0.06997 0.0
O564 O 0.56113 0.09214 0.03884 0.0
O565 O 0.53517 0.04333 0.04293 0.0
O566 O 0.56235 0.02315 0.05936 0.0
C567 C 0.57326 0.09721 0.06032 0.0
O568 O 0.5499 0.06573 0.97848 0.0
O569 O 0.52074 0.0596 1.00044 0.0
O570 O 0.56791 0.02318 1.00366 0.0
O571 O 0.59362 1.01526 0.03496 0.0
O572 O 0.61688 0.06206 0.03085 0.0
O573 O 0.59136 0.08375 1.01425 0.0
C574 C 0.54009 0.02624 0.05479 0.0
O575 O 0.6012 0.03736 0.09212 0.0
O576 O 0.63095 0.05026 0.07305 0.0
C577 C 0.51317 0.04546 0.9603 0.0
C578 C 0.49859 1.01618 0.91903 0.0
C579 C 0.5092 1.00823 0.93987 0.0
C580 C 0.51635 0.02276 0.96036 0.0
C581 C 0.50015 0.05274 0.94064 0.0
C582 C 0.49258 0.03807 0.9202 0.0
C583 C 0.52661 0.06206 0.97893 0.0
H584 H 0.68501 0.08125 0.15157 0.0
H585 H 0.66985 0.05382 0.11714 0.0
H586 H 0.60032 0.07415 0.1153 0.0
H587 H 0.61491 0.10091 0.1491 0.0
H588 H 0.51426 0.99159 0.93976 0.0
H589 H 0.52614 1.01681 0.97557 0.0
H590 H 0.49731 0.07017 0.94044 0.0
H591 H 0.48394 0.04454 0.90464 0.0
Tb592 Tb 0.34129 0.32221 0.30154 0.0
Eu593 Eu 0.3158 0.27433 0.2787 0.0
C594 C 0.33855 0.27965 0.33596 0.0
C595 C 0.37339 0.29617 0.2692 0.0
C596 C 0.34486 0.37506 0.33816 0.0
C597 C 0.31317 0.3744 0.36397 0.0
C598 C 0.33039 0.3638 0.35411 0.0
C599 C 0.34392 0.39784 0.33448 0.0
C600 C 0.32655 0.4083 0.34403 0.0
C601 C 0.30991 0.39615 0.35758 0.0
C602 C 0.35515 0.362 0.32047 0.0
O603 O 0.33414 0.32931 0.26282 0.0
O604 O 0.30664 0.29785 0.24917 0.0
O605 O 0.28341 0.28396 0.29607 0.0
O606 O 0.30445 0.31719 0.31488 0.0
C607 C 0.3185 0.31813 0.24532 0.0
O608 O 0.2959 0.25115 0.24919 0.0
O609 O 0.3108 0.23773 0.28096 0.0
O610 O 0.32453 0.26699 0.31838 0.0
O611 O 0.34876 0.30057 0.33183 0.0
O612 O 0.37294 0.31387 0.28416 0.0
O613 O 0.35408 0.27974 0.26572 0.0
C614 C 0.28424 0.30166 0.31128 0.0
O615 O 0.3645 0.34462 0.32739 0.0
O616 O 0.34093 0.35695 0.30063 0.0
C617 C 0.31476 0.21881 0.24527 0.0
C618 C 0.35219 0.19653 0.23361 0.0
C619 C 0.34982 0.21746 0.22436 0.0
C620 C 0.33131 0.22863 0.2303 0.0
C621 C 0.3154 0.1967 0.25202 0.0
C622 C 0.33402 0.18564 0.24629 0.0
C623 C 0.30158 0.23318 0.25886 0.0
H624 H 0.30108 0.36487 0.37492 0.0
H625 H 0.33081 0.34616 0.3572 0.0
H626 H 0.35479 0.40673 0.32207 0.0
H627 H 0.32464 0.42504 0.33857 0.0
H628 H 0.36353 0.22616 0.21448 0.0
H629 H 0.33128 0.24574 0.22495 0.0
H630 H 0.30288 0.18888 0.26366 0.0
H631 H 0.33524 0.16933 0.2533 0.0
Tb632 Tb 0.57509 0.54321 1.0149 0.0
Eu633 Eu 0.57992 0.56391 0.06729 0.0
C634 C 0.62717 0.56755 0.03904 0.0
C635 C 0.57935 0.50755 0.05742 0.0
C636 C 0.56128 0.54111 0.95033 0.0
C637 C 0.56267 0.5527 0.90991 0.0
C638 C 0.57222 0.54206 0.92925 0.0
C639 C 0.54093 0.55129 0.95201 0.0
C640 C 0.53124 0.56167 0.93267 0.0
C641 C 0.54192 0.56248 0.91131 0.0
C642 C 0.57199 0.53097 0.9711 0.0
O643 O 0.53671 0.53416 0.02241 0.0
O644 O 0.53955 0.54955 0.06066 0.0
O645 O 0.57639 0.59598 0.04646 0.0
O646 O 0.57276 0.58028 1.0084 0.0
C647 C 0.5266 0.53758 0.04204 0.0
O648 O 0.56714 0.58077 0.09751 0.0
O649 O 0.60295 0.57207 0.10068 0.0
O650 O 0.61604 0.57811 0.05411 0.0
O651 O 0.61472 0.54942 0.02625 0.0
O652 O 0.57801 0.51137 0.03425 0.0
O653 O 0.58117 0.52533 0.07306 0.0
C654 C 0.57474 0.59878 0.02321 0.0
O655 O 0.59092 0.54353 0.98286 0.0
O656 O 0.55713 0.52198 0.98541 0.0
C657 C 0.58351 0.57154 0.13574 0.0
C658 C 0.58207 0.56171 0.18392 0.0
C659 C 0.56422 0.57221 0.17214 0.0
C660 C 0.56502 0.57719 0.14829 0.0
C661 C 0.60057 0.56 0.14716 0.0
C662 C 0.59991 0.55523 0.1709 0.0
C663 C 0.5865 0.57956 0.11179 0.0
H664 H 0.57158 0.55328 0.89389 0.0
H665 H 0.58823 0.5347 0.92781 0.0
H666 H 0.53241 0.55115 0.96828 0.0
H667 H 0.51503 0.56859 0.93436 0.0
H668 H 0.55011 0.57726 0.18156 0.0
H669 H 0.55167 0.58616 0.13994 0.0
H670 H 0.6152 0.55551 0.13814 0.0
H671 H 0.61436 0.54765 0.17935 0.0
Tb672 Tb 0.8176 0.28369 0.29712 0.0
Eu673 Eu 0.84276 0.33231 0.2827 0.0
C674 C 0.82136 0.32756 0.33275 0.0
C675 C 0.78472 0.31236 0.26669 0.0
C676 C 0.80602 0.22228 0.30469 0.0
C677 C 0.80173 0.18266 0.31332 0.0
C678 C 0.79436 0.20371 0.31559 0.0
C679 C 0.82498 0.21972 0.29141 0.0
C680 C 0.8323 0.19874 0.28908 0.0
C681 C 0.8208 0.18001 0.30005 0.0
C682 C 0.79901 0.24454 0.30774 0.0
O683 O 0.82388 0.27801 0.2597 0.0
O684 O 0.85394 0.30803 0.25656 0.0
O685 O 0.8726 0.32103 0.30778 0.0
O686 O 0.85705 0.28302 0.30523 0.0
C687 C 0.8408 0.28863 0.24802 0.0
O688 O 0.84035 0.36164 0.2617 0.0
O689 O 0.87306 0.3604 0.28442 0.0
O690 O 0.82551 0.34069 0.31527 0.0
O691 O 0.82008 0.30548 0.32988 0.0
O692 O 0.78579 0.29945 0.28495 0.0
O693 O 0.80521 0.32345 0.26058 0.0
C694 C 0.87527 0.30006 0.31205 0.0
O695 O 0.81376 0.2592 0.32239 0.0
O696 O 0.79265 0.25351 0.28814 0.0
C697 C 0.86088 0.39586 0.28132 0.0
C698 C 0.8546 0.43877 0.2994 0.0
C699 C 0.85759 0.43505 0.27524 0.0
C700 C 0.86076 0.41373 0.26628 0.0
C701 C 0.85863 0.39969 0.30559 0.0
C702 C 0.85565 0.42102 0.31459 0.0
C703 C 0.86114 0.37288 0.27124 0.0
H704 H 0.79251 0.16847 0.32186 0.0
H705 H 0.77972 0.20553 0.32597 0.0
H706 H 0.8343 0.23402 0.28307 0.0
H707 H 0.84733 0.19733 0.27912 0.0
H708 H 0.85687 0.44848 0.26319 0.0
H709 H 0.86232 0.41098 0.24747 0.0
H710 H 0.85834 0.38601 0.31744 0.0
H711 H 0.85295 0.42327 0.33318 0.0
Tb712 Tb 0.09493 0.5475 0.56018 0.0
Eu713 Eu 0.068 0.55533 0.50992 0.0
C714 C 0.08497 0.50484 0.51895 0.0
C715 C 0.12346 0.56935 0.5217 0.0
C716 C 0.12471 0.55617 0.62213 0.0
C717 C 0.15042 0.56875 0.65907 0.0
C718 C 0.1463 0.55662 0.63683 0.0
C719 C 0.1074 0.56819 0.6296 0.0
C720 C 0.11141 0.58017 0.65182 0.0
C721 C 0.13296 0.58058 0.66684 0.0
C722 C 0.12101 0.54433 0.59845 0.0
O723 O 0.08919 0.58396 0.56706 0.0
O724 O 0.06427 0.58745 0.5334 0.0
O725 O 0.04092 0.53192 0.52702 0.0
O726 O 0.05715 0.53893 0.56604 0.0
C727 C 0.07544 0.59629 0.55457 0.0
O728 O 0.03977 0.56851 0.48826 0.0
O729 O 0.06465 0.5509 0.4714 0.0
O730 O 0.07863 0.51929 0.50328 0.0
O731 O 0.08993 0.5123 0.54192 0.0
O732 O 0.12016 0.55124 0.53366 0.0
O733 O 0.10465 0.57734 0.51311 0.0
C734 C 0.03938 0.52983 0.54974 0.0
O735 O 0.09996 0.53165 0.59218 0.0
O736 O 0.12796 0.55698 0.58158 0.0
C737 C 0.05202 0.58048 0.45151 0.0
C738 C 0.07173 0.60291 0.41405 0.0
C739 C 0.04937 0.58819 0.40983 0.0
C740 C 0.03965 0.57688 0.42851 0.0
C741 C 0.07236 0.59768 0.45636 0.0
C742 C 0.08217 0.60891 0.43767 0.0
C743 C 0.04752 0.56286 0.46828 0.0
H744 H 0.16722 0.56886 0.67017 0.0
H745 H 0.15998 0.54767 0.63106 0.0
H746 H 0.09075 0.56823 0.61828 0.0
H747 H 0.09731 0.58863 0.65742 0.0
H748 H 0.041 0.58315 0.3918 0.0
H749 H 1.02394 0.56361 0.42452 0.0
H750 H 0.08212 0.60065 0.4741 0.0
H751 H 0.09937 0.62026 0.44135 0.0
Tb752 Tb 0.80412 0.8007 0.27958 0.0
Eu753 Eu 0.85746 0.7978 0.30274 0.0
C754 C 0.84786 0.83659 0.26833 0.0
C755 C 0.83708 0.77638 0.24721 0.0
C756 C 0.73914 0.79184 0.2765 0.0
C757 C 0.6966 0.77587 0.27432 0.0
C758 C 0.71645 0.78556 0.26322 0.0
C759 C 0.74184 0.78821 0.30087 0.0
C760 C 0.72212 0.77878 0.31195 0.0
C761 C 0.69931 0.77252 0.29882 0.0
C762 C 0.7605 0.80046 0.26496 0.0
O763 O 0.80222 0.76704 0.29295 0.0
O764 O 0.83328 0.77441 0.32275 0.0
O765 O 0.84463 0.82154 0.33033 0.0
O766 O 0.80435 0.81129 0.31838 0.0
C767 C 0.81307 0.76206 0.31309 0.0
O768 O 0.88608 0.77813 0.31068 0.0
O769 O 0.89154 0.81389 0.32244 0.0
O770 O 0.86246 0.8228 0.27492 0.0
O771 O 0.82531 0.83309 0.2726 0.0
O772 O 0.82023 0.78925 0.24751 0.0
O773 O 0.85064 0.77459 0.26751 0.0
C774 C 0.82217 0.82147 0.33462 0.0
O775 O 0.77484 0.81806 0.27604 0.0
O776 O 0.77242 0.78495 0.25836 0.0
C777 C 0.92469 0.80011 0.31085 0.0
C778 C 0.96944 0.81514 0.29478 0.0
C779 C 0.96821 0.80874 0.31826 0.0
C780 C 0.94593 0.80132 0.32626 0.0
C781 C 0.92582 0.80562 0.28717 0.0
C782 C 0.94803 0.81308 0.27918 0.0
C783 C 0.90144 0.7959 0.32018 0.0
H784 H 0.67915 0.7712 0.26385 0.0
H785 H 0.71415 0.78792 0.2443 0.0
H786 H 0.7593 0.79239 0.31133 0.0
H787 H 0.7248 0.77602 0.33076 0.0
H788 H 0.98442 0.80988 0.33057 0.0
H789 H 0.94524 0.79725 0.34465 0.0
H790 H 0.90948 0.80504 0.27516 0.0
H791 H 0.94834 0.81817 0.26109 0.0
Tb792 Tb 0.84976 0.32248 0.80342 0.0
Eu793 Eu 0.80565 0.28179 0.77882 0.0
C794 C 0.79918 0.33337 0.78459 0.0
C795 C 0.81771 0.29174 0.83539 0.0
C796 C 0.8948 0.37672 0.81634 0.0
C797 C 0.8991 0.41782 0.82285 0.0
C798 C 0.88809 0.39593 0.82726 0.0
C799 C 0.91295 0.37991 0.8011 0.0
C800 C 0.92393 0.40176 0.7967 0.0
C801 C 0.91715 0.421 0.8075 0.0
C802 C 0.88383 0.35351 0.82168 0.0
O803 O 0.8652 0.29359 0.79174 0.0
O804 O 0.83453 0.26472 0.79603 0.0
O805 O 0.82657 0.29457 0.74897 0.0
O806 O 0.84597 0.32973 0.76582 0.0
C807 C 0.85744 0.27233 0.79554 0.0
O808 O 0.79301 0.25244 0.75371 0.0
O809 O 0.76833 0.26404 0.77636 0.0
O810 O 0.79417 0.31472 0.77051 0.0
O811 O 0.81685 0.33684 0.80205 0.0
O812 O 0.83981 0.30116 0.83241 0.0
O813 O 0.80053 0.28816 0.8174 0.0
C814 C 0.83869 0.31506 0.74724 0.0
O815 O 0.86216 0.35068 0.82806 0.0
O816 O 0.88645 0.33683 0.80707 0.0
C817 C 0.7646 0.22452 0.76772 0.0
C818 C 0.75138 0.17871 0.77748 0.0
C819 C 0.77447 0.19083 0.7858 0.0
C820 C 0.78099 0.21358 0.78107 0.0
C821 C 0.7414 0.21267 0.75982 0.0
C822 C 0.73478 0.18994 0.76473 0.0
C823 C 0.77192 0.24798 0.76137 0.0
H824 H 0.89333 0.43227 0.83132 0.0
H825 H 0.87438 0.39405 0.83933 0.0
H826 H 0.91889 0.36552 0.79271 0.0
H827 H 0.9381 0.40356 0.78515 0.0
H828 H 0.78751 0.18269 0.79591 0.0
H829 H 0.79895 0.22253 0.78751 0.0
H830 H 0.72854 0.22087 0.74952 0.0
H831 H 0.71693 0.18097 0.75795 0.0
Tb832 Tb 0.83882 0.82164 0.80415 0.0
Eu833 Eu 0.81669 0.77667 0.77265 0.0
C834 C 0.83428 0.77504 0.83164 0.0
C835 C 0.87445 0.79944 0.77054 0.0
C836 C 0.83962 0.87014 0.84553 0.0
C837 C 0.80383 0.86567 0.86615 0.0
C838 C 0.82264 0.85658 0.85754 0.0
C839 C 0.83924 0.89345 0.84486 0.0
C840 C 0.8204 0.9025 0.85343 0.0
C841 C 0.80188 0.88833 0.86284 0.0
C842 C 0.8521 0.85937 0.82784 0.0
O843 O 0.83116 0.83405 0.76748 0.0
O844 O 0.81455 0.80219 0.74362 0.0
O845 O 0.78301 0.7854 0.78858 0.0
O846 O 0.80102 0.81515 0.81486 0.0
C847 C 0.82223 0.82432 0.74594 0.0
O848 O 0.79599 0.7564 0.74145 0.0
O849 O 0.8123 0.73987 0.77028 0.0
O850 O 0.82615 0.76445 0.8104 0.0
O851 O 0.84063 0.79744 0.83311 0.0
O852 O 0.87199 0.81368 0.78875 0.0
O853 O 0.85555 0.78408 0.76158 0.0
C854 C 0.78147 0.80016 0.80646 0.0
O855 O 0.8604 0.84105 0.83333 0.0
O856 O 0.84011 0.85677 0.80671 0.0
C857 C 0.81652 0.7262 0.7324 0.0
C858 C 0.85873 0.71073 0.72285 0.0
C859 C 0.85409 0.73156 0.71483 0.0
C860 C 0.83318 0.73935 0.71975 0.0
C861 C 0.81913 0.70383 0.73657 0.0
C862 C 0.84018 0.69614 0.73194 0.0
C863 C 0.80268 0.73769 0.74818 0.0
H864 H 0.78969 0.85455 0.8734 0.0
H865 H 0.82243 0.83849 0.85809 0.0
H866 H 0.85194 0.9041 0.83538 0.0
H867 H 0.819 0.91999 0.8505 0.0
H868 H 0.86771 0.74289 0.70712 0.0
H869 H 0.83158 0.75668 0.71623 0.0
H870 H 0.80652 0.69344 0.74639 0.0
H871 H 0.84301 0.67993 0.73825 0.0
Tb872 Tb 0.53908 0.53202 0.52826 0.0
Eu873 Eu 0.58772 0.5397 0.56783 0.0
C874 C 0.58978 0.53305 0.51191 0.0
C875 C 0.56074 0.49117 0.54794 0.0
C876 C 0.48453 0.54691 0.49749 0.0
C877 C 0.46532 0.57318 0.47402 0.0
C878 C 0.48035 0.55696 0.47594 0.0
C879 C 0.47344 0.55345 0.51718 0.0
C880 C 0.45822 0.56949 0.51521 0.0
C881 C 0.45394 0.57959 0.4936 0.0
C882 C 0.50177 0.53097 0.49962 0.0
O883 O 0.52862 0.54366 0.56184 0.0
O884 O 0.55522 0.52829 0.5865 0.0
O885 O 0.5746 0.5729 0.56956 0.0
O886 O 0.55561 0.56757 0.53125 0.0
C887 C 0.53453 0.53506 0.58197 0.0
O888 O 0.60702 0.52793 0.59881 0.0
O889 O 0.62401 0.55694 0.58163 0.0
O890 O 0.59905 0.54559 0.53147 0.0
O891 O 0.56739 0.52223 0.50918 0.0
O892 O 0.5408 0.4992 0.54269 0.0
O893 O 0.58176 0.50459 0.55031 0.0
C894 C 0.56404 0.58061 0.55072 0.0
O895 O 0.5234 0.53899 0.4947 0.0
O896 O 0.50224 0.51949 0.51863 0.0
C897 C 0.64834 0.53133 0.59584 0.0
C898 C 0.68959 0.51147 0.59279 0.0
C899 C 0.68874 0.52743 0.6117 0.0
C900 C 0.66824 0.53727 0.61321 0.0
C901 C 0.64899 0.5153 0.57705 0.0
C902 C 0.66941 0.5054 0.57557 0.0
C903 C 0.62697 0.54192 0.5971 0.0
H904 H 0.46293 0.58092 0.45725 0.0
H905 H 0.48902 0.5525 0.46063 0.0
H906 H 0.47657 0.54627 0.53419 0.0
H907 H 0.44957 0.57372 0.5306 0.0
H908 H 0.70391 0.53228 0.62536 0.0
H909 H 0.66797 0.54957 0.62785 0.0
H910 H 0.63374 0.51057 0.56344 0.0
H911 H 0.66959 0.49338 0.56065 0.0
Tb912 Tb 0.06365 0.53169 0.03309 0.0
Eu913 Eu 0.09496 0.57125 0.06979 0.0
C914 C 0.07167 0.52447 0.08701 0.0
C915 C 0.0389 0.57559 0.05093 0.0
C916 C 0.0362 0.47497 1.00461 0.0
C917 C 0.04082 0.43894 0.02074 0.0
C918 C 0.0411 0.46224 0.02418 0.0
C919 C 1.03113 0.46418 0.98165 0.0
C920 C 1.03114 0.44097 0.97818 0.0
C921 C 0.03604 0.42818 0.99768 0.0
C922 C 0.03707 0.49957 1.00765 0.0
O923 O 0.07278 0.55867 1.01 0.0
O924 O 0.09324 0.58863 0.03559 0.0
O925 O 0.12184 0.54757 0.06191 0.0
O926 O 0.10037 0.52126 0.03327 0.0
C927 C 0.0831 0.58001 1.01444 0.0
O928 O 0.12697 0.59693 0.08082 0.0
O929 O 0.10166 0.5867 0.10606 0.0
O930 O 0.07299 0.54632 0.09075 0.0
O931 O 0.07264 0.51584 0.06562 0.0
O932 O 0.03632 0.55416 0.04162 0.0
O933 O 0.06036 0.58579 0.06129 0.0
C934 C 0.12093 0.52949 0.04707 0.0
O935 O 1.03203 0.50737 0.02817 0.0
O936 O 0.05573 0.51213 1.00047 0.0
C937 C 0.12378 0.62435 0.1119 0.0
C938 C 0.13205 0.66898 0.13322 0.0
C939 C 0.14346 0.66384 0.11328 0.0
C940 C 0.13945 0.6417 0.10278 0.0
C941 C 0.11222 0.62957 0.13172 0.0
C942 C 0.11625 0.65167 0.14222 0.0
C943 C 0.12097 0.60058 0.10215 0.0
H944 H 0.04484 0.42942 0.036 0.0
H945 H 0.04533 0.47031 0.04207 0.0
H946 H 1.02739 0.47377 0.96637 0.0
H947 H 1.0272 0.43297 0.96025 0.0
H948 H 0.15595 0.67681 0.10614 0.0
H949 H 0.14896 0.63814 0.08779 0.0
H950 H 0.10028 0.61651 0.13937 0.0
H951 H 0.10698 0.65521 0.15739 0.0
H952 H 1.03474 0.18471 0.96002 0.0
H953 H 0.10787 0.20914 0.94545 0.0
H954 H 0.12292 0.18394 0.9747 0.0
H955 H 0.04947 0.17819 0.02438 0.0
H956 H 1.0269 0.15293 0.02355 0.0
H957 H 1.02247 0.17482 1.00366 0.0
H958 H 1.01646 0.14528 0.96737 0.0
H959 H 1.02064 0.12338 0.98714 0.0
H960 H 0.03936 0.12836 0.96344 0.0
H961 H 0.12904 0.15261 1.00183 0.0
H962 H 0.12544 0.11742 0.02336 0.0
H963 H 0.0484 0.11554 0.02096 0.0
C964 C 0.05396 0.18498 0.9632 0.0
C965 C 0.07018 0.19871 0.95052 0.0
C966 C 0.09519 0.19867 0.95509 0.0
C967 C 0.10388 0.18454 0.97173 0.0
C968 C 0.08731 0.17098 0.98382 0.0
C969 C 0.06288 0.17125 0.97983 0.0
C970 C 0.04855 0.154 0.99368 0.0
C971 C 0.03612 0.16569 1.01244 0.0
C972 C 1.0302 0.13674 0.97691 0.0
C973 C 0.0686 0.14322 1.00525 0.0
C974 C 0.0909 0.15339 0.99973 0.0
C975 C 0.11175 0.14479 1.00669 0.0
C976 C 0.10956 0.12486 0.01894 0.0
C977 C 0.08666 0.11382 0.0238 0.0
C978 C 0.06619 0.12366 0.01761 0.0
H979 H 0.2249 0.87759 0.18217 0.0
H980 H 0.20689 0.9227 0.23708 0.0
H981 H 0.24443 0.91945 0.26218 0.0
H982 H 0.23683 0.84012 0.21991 0.0
H983 H 0.26024 0.83001 0.20553 0.0
H984 H 0.23786 0.84214 0.18832 0.0
H985 H 0.27065 0.87261 0.17366 0.0
H986 H 0.29261 0.85877 0.18961 0.0
H987 H 0.29371 0.88892 0.1952 0.0
H988 H 0.27868 0.90431 0.28462 0.0
H989 H 0.30494 0.87852 0.30182 0.0
H990 H 0.29709 0.84094 0.2331 0.0
C991 C 0.22952 0.88785 0.19888 0.0
C992 C 0.21325 0.90063 0.20758 0.0
C993 C 0.21939 0.91307 0.22997 0.0
C994 C 0.24066 0.91128 0.24435 0.0
C995 C 0.2554 0.89689 0.23604 0.0
C996 C 0.25006 0.8855 0.21366 0.0
C997 C 0.26504 0.86721 0.21076 0.0
C998 C 0.24903 0.8435 0.20586 0.0
C999 C 0.28151 0.87225 0.19114 0.0
C1000 C 0.27927 0.86966 0.2351 0.0
C1001 C 0.27397 0.88713 0.24938 0.0
C1002 C 0.28333 0.89091 0.27342 0.0
C1003 C 0.29812 0.8762 0.28307 0.0
C1004 C 0.30271 0.85774 0.26877 0.0
C1005 C 0.2937 0.85491 0.24444 0.0
H1006 H 0.56409 0.81493 0.46326 0.0
H1007 H 0.49286 0.78173 0.476 0.0
H1008 H 0.48541 0.81792 0.49421 0.0
H1009 H 0.57655 0.8536 0.51783 0.0
H1010 H 0.59198 0.87648 0.50267 0.0
H1011 H 0.59257 0.84743 0.49311 0.0
H1012 H 0.57556 0.85449 0.45027 0.0
H1013 H 0.57491 0.88348 0.45969 0.0
H1014 H 0.54781 0.86538 0.44574 0.0
H1015 H 0.48431 0.85846 0.50705 0.0
H1016 H 0.48989 0.90026 0.51408 0.0
H1017 H 0.56192 0.90637 0.49308 0.0
C1018 C 0.54708 0.81518 0.47024 0.0
C1019 C 0.52904 0.79562 0.46829 0.0
C1020 C 0.50693 0.79659 0.47743 0.0
C1021 C 0.50257 0.81702 0.48784 0.0
C1022 C 0.52062 0.83614 0.48913 0.0
C1023 C 0.5425 0.83534 0.48073 0.0
C1024 C 0.55831 0.85851 0.48279 0.0
C1025 C 0.58121 0.85902 0.50014 0.0
C1026 C 0.56449 0.86589 0.45816 0.0
C1027 C 0.54164 0.87263 0.49298 0.0
C1028 C 0.52007 0.85942 0.49674 0.0
C1029 C 0.50125 0.86895 0.50453 0.0
C1030 C 0.50451 0.89264 0.50834 0.0
C1031 C 0.52639 0.90641 0.50429 0.0
C1032 C 0.54524 0.89619 0.49686 0.0
H1033 H 0.57325 0.3525 0.75184 0.0
H1034 H 0.58789 0.29011 0.71877 0.0
H1035 H 0.55673 0.26789 0.7397 0.0
H1036 H 0.5596 0.32934 0.80984 0.0
H1037 H 0.5362 0.34596 0.81234 0.0
H1038 H 0.56186 0.35661 0.79731 0.0
H1039 H 0.53327 0.36139 0.75971 0.0
H1040 H 0.5076 0.35069 0.77453 0.0
H1041 H 0.51166 0.33726 0.74636 0.0
H1042 H 0.52011 0.25307 0.75943 0.0
H1043 H 0.4823 0.24679 0.77835 0.0
H1044 H 0.49273 0.31874 0.79935 0.0
C1045 C 0.5703 0.33413 0.74946 0.0
C1046 C 0.58295 0.32299 0.73376 0.0
C1047 C 0.57845 0.29896 0.73086 0.0
C1048 C 0.56081 0.2862 0.74267 0.0
C1049 C 0.54816 0.29775 0.75756 0.0
C1050 C 0.55293 0.32117 0.76124 0.0
C1051 C 0.53571 0.32961 0.77675 0.0
C1052 C 0.54915 0.34105 0.80047 0.0
C1053 C 0.52121 0.34567 0.76354 0.0
C1054 C 0.51992 0.30736 0.78046 0.0
C1055 C 0.52745 0.28914 0.76942 0.0
C1056 C 0.51435 0.26713 0.76862 0.0
C1057 C 0.49289 0.26372 0.77926 0.0
C1058 C 0.48494 0.28223 0.79057 0.0
C1059 C 0.49883 0.30421 0.79142 0.0
H1060 H 0.06597 0.867 0.5866 0.0
H1061 H 0.08111 0.888 0.66196 0.0
H1062 H 0.08565 0.92801 0.65244 0.0
H1063 H 0.10853 0.91454 0.56637 0.0
H1064 H 0.08941 0.9184 0.53988 0.0
H1065 H 0.08697 0.89089 0.55193 0.0
H1066 H 0.04169 0.89 0.55418 0.0
H1067 H 0.04401 0.91749 0.54212 0.0
H1068 H 1.03209 0.91305 0.57013 0.0
H1069 H 0.08857 0.96788 0.63512 0.0
H1070 H 0.08985 1.00193 0.61243 0.0
H1071 H 0.07376 0.95917 0.54649 0.0
C1072 C 0.07022 0.87992 0.60123 0.0
C1073 C 0.07304 0.87308 0.62558 0.0
C1074 C 0.07869 0.89156 0.64337 0.0
C1075 C 0.08136 0.91485 0.63803 0.0
C1076 C 0.07854 0.92088 0.61434 0.0
C1077 C 0.07311 0.9039 0.59608 0.0
C1078 C 0.0712 0.91563 0.57211 0.0
C1079 C 0.09015 0.90949 0.55664 0.0
C1080 C 0.04573 0.90861 0.55883 0.0
C1081 C 0.07639 0.94157 0.57971 0.0
C1082 C 0.08049 0.94394 0.60432 0.0
C1083 C 0.08539 0.96586 0.61586 0.0
C1084 C 0.0861 0.98554 0.60251 0.0
C1085 C 0.08214 0.9845 0.57708 0.0
C1086 C 0.07719 0.96154 0.56572 0.0
H1087 H 0.504 0.82041 0.89862 0.0
H1088 H 0.52306 0.76363 0.85889 0.0
H1089 H 0.48372 0.75814 0.83399 0.0
H1090 H 0.43934 0.79849 0.89671 0.0
H1091 H 0.43012 0.82544 0.89203 0.0
H1092 H 0.45928 0.82453 0.90771 0.0
H1093 H 0.4796 0.85056 0.8779 0.0
H1094 H 0.45049 0.85156 0.86216 0.0
H1095 H 0.47357 0.84241 0.84643 0.0
H1096 H 0.44047 0.75749 0.81364 0.0
H1097 H 0.40025 0.76414 0.79747 0.0
H1098 H 0.4087 0.82373 0.84652 0.0
C1099 C 0.49987 0.8067 0.88478 0.0
C1100 C 0.51716 0.79224 0.88125 0.0
C1101 C 0.51064 0.77493 0.8624 0.0
C1102 C 0.48807 0.77164 0.84805 0.0
C1103 C 0.47159 0.78604 0.85193 0.0
C1104 C 0.47734 0.80352 0.86964 0.0
C1105 C 0.45666 0.81725 0.86909 0.0
C1106 C 0.4457 0.81638 0.8928 0.0
C1107 C 0.46562 0.84191 0.86357 0.0
C1108 C 0.43839 0.80472 0.84856 0.0
C1109 C 0.44736 0.78654 0.8392 0.0
C1110 C 0.43358 0.77186 0.82081 0.0
C1111 C 0.41045 0.77578 0.81167 0.0
C1112 C 0.40069 0.79458 0.82022 0.0
C1113 C 0.41528 0.80927 0.8391 0.0
H1114 H 0.55438 0.23261 0.08808 0.0
H1115 H 0.58721 0.22752 0.15994 0.0
H1116 H 0.59165 0.18821 0.14932 0.0
H1117 H 0.52109 0.17324 0.08009 0.0
H1118 H 0.52549 0.16893 0.04921 0.0
H1119 H 0.52494 0.19709 0.0618 0.0
H1120 H 0.56663 0.21136 0.0485 0.0
H1121 H 0.56729 0.18324 0.03587 0.0
H1122 H 0.59146 0.19733 0.05764 0.0
H1123 H 0.59364 0.14758 0.13072 0.0
H1124 H 0.59152 0.11137 0.10723 0.0
H1125 H 0.55645 0.13876 0.04627 0.0
C1126 C 0.56256 0.22335 0.10169 0.0
C1127 C 0.57045 0.23441 0.12536 0.0
C1128 C 0.58086 0.22056 0.1419 0.0
C1129 C 0.58354 0.19775 0.13592 0.0
C1130 C 0.57571 0.18755 0.11287 0.0
C1131 C 0.56527 0.19991 0.09593 0.0
C1132 C 0.55814 0.18431 0.0725 0.0
C1133 C 0.53078 0.18069 0.06547 0.0
C1134 C 0.57167 0.19468 0.05243 0.0
C1135 C 0.56616 0.16153 0.07886 0.0
C1136 C 0.57638 0.16402 0.10235 0.0
C1137 C 0.58548 0.14575 0.11239 0.0
C1138 C 0.5842 0.1248 0.09863 0.0
C1139 C 0.57372 0.12093 0.07439 0.0
C1140 C 0.56453 0.14019 0.06461 0.0
H1141 H 0.14628 0.2794 0.35663 0.0
H1142 H 0.1771 0.32604 0.41747 0.0
H1143 H 0.2163 0.33162 0.40146 0.0
H1144 H 0.20038 0.25322 0.35273 0.0
H1145 H 0.19718 0.2501 0.32062 0.0
H1146 H 0.17095 0.25 0.33607 0.0
H1147 H 0.15965 0.28286 0.31199 0.0
H1148 H 0.18587 0.28306 0.2965 0.0
H1149 H 0.1813 0.30868 0.31212 0.0
H1150 H 0.25386 0.33312 0.37828 0.0
H1151 H 0.28519 0.32861 0.35232 0.0
H1152 H 0.23363 0.27962 0.30579 0.0
C1153 C 0.1612 0.29089 0.36664 0.0
C1154 C 0.15762 0.30238 0.3888 0.0
C1155 C 0.17842 0.31693 0.40077 0.0
C1156 C 0.20114 0.32028 0.39164 0.0
C1157 C 0.20402 0.30885 0.37012 0.0
C1158 C 0.18461 0.29422 0.35779 0.0
C1159 C 0.19319 0.28359 0.33532 0.0
C1160 C 0.19024 0.25768 0.33623 0.0
C1161 C 0.17916 0.28991 0.31263 0.0
C1162 C 0.22021 0.29449 0.3369 0.0
C1163 C 0.22584 0.30919 0.35714 0.0
C1164 C 0.24932 0.32156 0.36249 0.0
C1165 C 0.2673 0.31898 0.34729 0.0
C1166 C 0.26284 0.30396 0.32632 0.0
C1167 C 0.23844 0.29142 0.32137 0.0
H1168 H 1.00147 0.06127 0.19822 0.0
H1169 H 0.92954 0.05658 0.16137 0.0
H1170 H 0.94706 0.06642 0.12419 0.0
H1171 H 1.03276 0.10734 0.16422 0.0
H1172 H 0.059 0.09407 0.16436 0.0
H1173 H 0.04109 0.09127 0.1889 0.0
H1174 H 0.03581 0.04741 0.18295 0.0
H1175 H 0.05364 0.05007 0.15851 0.0
H1176 H 1.02367 0.03349 0.15414 0.0
H1177 H 0.97178 0.07092 0.09036 0.0
H1178 H 1.0015 0.06796 0.06207 0.0
H1179 H 0.05725 0.06907 0.12097 0.0
C1180 C 0.9894 0.06295 0.18249 0.0
C1181 C 0.96418 0.05833 0.18259 0.0
C1182 C 0.94893 0.06018 0.1616 0.0
C1183 C 0.95873 0.0659 0.1405 0.0
C1184 C 0.98374 0.06981 0.14087 0.0
C1185 C 0.99886 0.06845 0.16137 0.0
C1186 C 1.02481 0.07039 0.15649 0.0
C1187 C 0.04033 0.09207 0.16925 0.0
C1188 C 0.03506 0.04907 0.16342 0.0
C1189 C 1.02184 0.07199 0.12981 0.0
C1190 C 0.99808 0.07214 0.12122 0.0
C1191 C 0.99047 0.07122 0.09692 0.0
C1192 C 1.00741 0.06936 0.08099 0.0
C1193 C 1.03154 0.06825 0.08944 0.0
C1194 C 0.03901 0.07038 0.11412 0.0
H1195 H 0.3462 0.76049 0.46546 0.0
H1196 H 0.26886 0.75333 0.46589 0.0
H1197 H 0.26577 0.77097 0.42732 0.0
H1198 H 0.355 0.81508 0.4374 0.0
H1199 H 0.37766 0.8072 0.42018 0.0
H1200 H 0.37398 0.79581 0.44871 0.0
H1201 H 0.36818 0.75497 0.42894 0.0
H1202 H 0.37175 0.76622 0.40037 0.0
H1203 H 0.34508 0.74624 0.40422 0.0
H1204 H 0.27074 0.78637 0.38693 0.0
H1205 H 0.28343 0.79919 0.34866 0.0
H1206 H 0.35767 0.79694 0.37472 0.0
C1207 C 0.32866 0.76304 0.45769 0.0
C1208 C 0.30776 0.75566 0.46884 0.0
C1209 C 0.28513 0.75899 0.45782 0.0
C1210 C 0.2832 0.76897 0.43588 0.0
C1211 C 0.30409 0.77567 0.42516 0.0
C1212 C 0.32642 0.77299 0.43579 0.0
C1213 C 0.34594 0.78063 0.42004 0.0
C1214 C 0.36422 0.80089 0.43232 0.0
C1215 C 0.35846 0.76084 0.41298 0.0
C1216 C 0.33107 0.7877 0.39872 0.0
C1217 C 0.30698 0.78476 0.40205 0.0
C1218 C 0.2896 0.78901 0.38429 0.0
C1219 C 0.29699 0.79627 0.36256 0.0
C1220 C 0.32158 0.79933 0.35868 0.0
C1221 C 0.3388 0.79519 0.37721 0.0
H1222 H 0.61165 0.02137 0.7216 0.0
H1223 H 0.61475 0.95043 0.70526 0.0
H1224 H 0.60089 0.95448 0.66278 0.0
H1225 H 0.55892 0.0246 0.68038 0.0
H1226 H 0.57091 0.05292 0.67307 0.0
H1227 H 0.57918 0.04368 0.70214 0.0
H1228 H 0.62436 0.0539 0.69622 0.0
H1229 H 0.61626 0.06324 0.66723 0.0
H1230 H 0.63496 0.04182 0.67037 0.0
H1231 H 0.58828 0.9674 0.62164 0.0
H1232 H 0.58058 0.98809 0.58568 0.0
H1233 H 0.58681 0.05051 0.63022 0.0
C1234 C 0.60918 1.00654 0.7092 0.0
C1235 C 0.61414 0.98553 0.71668 0.0
C1236 C 0.61096 0.96666 0.69984 0.0
C1237 C 0.60303 0.96881 0.67575 0.0
C1238 C 0.59841 0.98991 0.66899 0.0
C1239 C 0.60147 1.00843 0.68531 0.0
C1240 C 0.59677 0.02961 0.6736 0.0
C1241 C 0.57516 0.0382 0.68285 0.0
C1242 C 0.61944 0.04823 0.67706 0.0
C1243 C 0.59093 1.02032 0.64796 0.0
C1244 C 0.59163 0.99734 0.6456 0.0
C1245 C 0.58754 0.98534 0.62335 0.0
C1246 C 0.58311 0.99724 0.60304 0.0
C1247 C 0.58309 0.02094 0.60514 0.0
C1248 C 0.58665 0.03241 0.62798 0.0
H1249 H 0.33733 0.37283 0.97812 0.0
H1250 H 0.27384 0.40258 0.95991 0.0
H1251 H 0.27048 0.38577 0.91869 0.0
H1252 H 0.36179 0.38186 0.92091 0.0
H1253 H 0.37325 0.3556 0.91943 0.0
H1254 H 0.37066 0.36923 0.94797 0.0
H1255 H 0.34461 0.33248 0.95915 0.0
H1256 H 0.34713 0.31874 0.93064 0.0
H1257 H 0.31784 0.31985 0.93978 0.0
H1258 H 0.27309 0.36487 0.87824 0.0
H1259 H 0.2824 0.34397 0.8428 0.0
H1260 H 0.34566 0.32792 0.88382 0.0
C1261 C 0.32261 0.37575 0.96553 0.0
C1262 C 0.30567 0.38928 0.97312 0.0
C1263 C 0.28707 0.39252 0.95535 0.0
C1264 C 0.28499 0.38289 0.93157 0.0
C1265 C 0.30178 0.36985 0.92475 0.0
C1266 C 0.32042 0.36636 0.94119 0.0
C1267 C 0.33634 0.35206 0.92863 0.0
C1268 C 0.36205 0.36548 0.92928 0.0
C1269 C 0.3365 0.32944 0.94025 0.0
C1270 C 0.32376 0.34799 0.90277 0.0
C1271 C 0.30372 0.35837 0.90117 0.0
C1272 C 0.28884 0.35684 0.87951 0.0
C1273 C 0.29435 0.3447 0.85918 0.0
C1274 C 0.31489 0.33389 0.85961 0.0
C1275 C 0.32982 0.33581 0.88219 0.0
H1276 H 0.99539 1.00615 0.30049 0.0
H1277 H 1.01199 0.07699 0.28529 0.0
H1278 H 0.05005 0.08151 0.31215 0.0
H1279 H 1.01328 1.01472 0.36059 0.0
H1280 H 1.0252 0.9888 0.36333 0.0
H1281 H 1.00187 0.9905 0.3398 0.0
H1282 H 1.02899 0.9788 0.30883 0.0
H1283 H 0.05264 0.97753 0.33242 0.0
H1284 H 0.05861 0.99524 0.30815 0.0
H1285 H 0.08359 0.07945 0.34403 0.0
H1286 H 0.10691 0.07225 0.38141 0.0
H1287 H 0.06739 1.0031 0.37615 0.0
C1288 C 1.00729 0.02248 0.30246 0.0
C1289 C 1.00089 0.04119 0.29082 0.0
C1290 C 1.01663 0.06243 0.29411 0.0
C1291 C 0.03839 0.06509 0.3091 0.0
C1292 C 0.04413 0.04631 0.32053 0.0
C1293 C 1.02894 0.02545 0.31746 0.0
C1294 C 0.03756 1.00878 0.33407 0.0
C1295 C 1.01835 1.00023 0.35041 0.0
C1296 C 0.04489 0.98892 0.32002 0.0
C1297 C 0.05931 0.02385 0.34779 0.0
C1298 C 0.06327 0.04524 0.33929 0.0
C1299 C 0.08091 0.06267 0.35064 0.0
C1300 C 0.09402 0.05845 0.3719 0.0
C1301 C 0.08905 0.0371 0.38176 0.0
C1302 C 0.07223 1.01939 0.36885 0.0
H1303 H 0.29818 0.7276 0.61003 0.0
H1304 H 0.35886 0.77153 0.58634 0.0
H1305 H 0.36975 0.78968 0.62717 0.0
H1306 H 0.28213 0.76885 0.65146 0.0
H1307 H 0.27448 0.74867 0.67321 0.0
H1308 H 0.27127 0.73933 0.64208 0.0
H1309 H 0.29864 0.70971 0.65172 0.0
H1310 H 0.30201 0.71905 0.68287 0.0
H1311 H 0.32828 0.71899 0.66755 0.0
H1312 H 0.37397 0.80331 0.67067 0.0
H1313 H 0.37122 0.81136 0.71344 0.0
H1314 H 0.30836 0.75799 0.70936 0.0
C1315 C 0.31368 0.74113 0.61341 0.0
C1316 C 0.32761 0.74823 0.5949 0.0
C1317 C 0.34789 0.76584 0.60016 0.0
C1318 C 0.35423 0.77624 0.62333 0.0
C1319 C 0.34024 0.76877 0.6412 0.0
C1320 C 0.3204 0.75158 0.63654 0.0
C1321 C 0.30857 0.7466 0.65904 0.0
C1322 C 0.28257 0.75114 0.65628 0.0
C1323 C 0.30944 0.72214 0.66568 0.0
C1324 C 0.32475 0.76377 0.67701 0.0
C1325 C 0.3429 0.77638 0.66633 0.0
C1326 C 0.35986 0.79348 0.67921 0.0
C1327 C 0.35815 0.79793 0.70356 0.0
C1328 C 0.33965 0.78531 0.71494 0.0
C1329 C 0.32284 0.76789 0.70135 0.0
H1330 H 0.57318 1.01424 0.81446 0.0
H1331 H 0.56913 0.94211 0.82179 0.0
H1332 H 0.53389 0.94187 0.84427 0.0
H1333 H 0.56533 0.0287 0.86965 0.0
H1334 H 0.54762 0.0504 0.86306 0.0
H1335 H 0.56764 0.04329 0.84264 0.0
H1336 H 0.53202 0.03493 0.80878 0.0
H1337 H 0.51174 0.04182 0.82941 0.0
H1338 H 0.50551 1.01469 0.81256 0.0
H1339 H 0.50603 0.95149 0.87338 0.0
H1340 H 0.48995 0.96992 0.90669 0.0
H1341 H 0.51198 0.03555 0.87917 0.0
C1342 C 0.56435 0.99826 0.82015 0.0
C1343 C 0.57375 0.97823 0.81656 0.0
C1344 C 0.56198 0.95761 0.8243 0.0
C1345 C 0.54191 0.95733 0.83694 0.0
C1346 C 0.53358 0.97768 0.84105 0.0
C1347 C 0.54429 0.99771 0.83249 0.0
C1348 C 0.53459 1.01788 0.84204 0.0
C1349 C 0.555 0.03609 0.85513 0.0
C1350 C 0.5201 0.02791 0.822 0.0
C1351 C 0.51827 1.00646 0.85898 0.0
C1352 C 0.51724 0.98317 0.85766 0.0
C1353 C 0.50617 0.96961 0.87411 0.0
C1354 C 0.49716 0.98024 0.89306 0.0
C1355 C 0.49967 1.00422 0.89559 0.0
C1356 C 0.50906 1.01718 0.87747 0.0
H1357 H 0.33407 0.40584 0.13534 0.0
H1358 H 0.28099 0.35559 0.09177 0.0
H1359 H 0.27792 0.33151 0.12584 0.0
H1360 H 0.36397 0.36492 0.16857 0.0
H1361 H 0.36914 0.38168 0.19662 0.0
H1362 H 0.3674 0.39543 0.16901 0.0
H1363 H 0.33366 0.41525 0.1826 0.0
H1364 H 0.33529 0.40154 0.21023 0.0
H1365 H 0.30702 0.39836 0.19147 0.0
H1366 H 0.28011 0.31175 0.16571 0.0
H1367 H 0.28759 0.2986 0.20592 0.0
H1368 H 0.33975 0.36014 0.22644 0.0
C1369 C 0.32176 0.38977 0.13286 0.0
C1370 C 0.3077 0.38306 0.10999 0.0
C1371 C 0.29203 0.36164 0.1084 0.0
C1372 C 0.29014 0.34764 0.12797 0.0
C1373 C 0.30404 0.35468 0.14996 0.0
C1374 C 0.31966 0.37529 0.15256 0.0
C1375 C 0.3326 0.37852 0.17835 0.0
C1376 C 0.35991 0.38025 0.17812 0.0
C1377 C 0.32681 0.39968 0.19144 0.0
C1378 C 0.32188 0.35669 0.18979 0.0
C1379 C 0.30538 0.34325 0.17289 0.0
C1380 C 0.29304 0.32233 0.17887 0.0
C1381 C 0.29747 0.31489 0.20217 0.0
C1382 C 0.31429 0.32791 0.22035 0.0
C1383 C 0.32665 0.34937 0.21359 0.0
H1384 H 0.30001 0.95369 0.05604 0.0
H1385 H 0.26273 0.8857 0.06517 0.0
H1386 H 0.22752 0.90148 0.07598 0.0
H1387 H 0.2781 0.9821 0.1045 0.0
H1388 H 0.27495 1.00712 0.08887 0.0
H1389 H 0.29732 0.99055 0.08192 0.0
H1390 H 0.27938 0.98592 0.0375 0.0
H1391 H 0.25706 1.00261 0.04429 0.0
H1392 H 0.24782 0.97452 0.02974 0.0
H1393 H 0.19657 0.9247 0.0864 0.0
H1394 H 0.17132 0.95346 0.09374 0.0
H1395 H 0.22816 1.0063 0.07655 0.0
C1396 C 0.28442 0.94213 0.06027 0.0
C1397 C 0.28411 0.91845 0.05979 0.0
C1398 C 0.26334 0.90388 0.06538 0.0
C1399 C 0.24328 0.9127 0.07161 0.0
C1400 C 0.2442 0.93612 0.07207 0.0
C1401 C 0.26416 0.95063 0.06639 0.0
C1402 C 0.26034 0.9751 0.06786 0.0
C1403 C 0.27877 0.98956 0.08693 0.0
C1404 C 0.26119 0.98512 0.04339 0.0
C1405 C 0.23515 0.97207 0.07529 0.0
C1406 C 0.22622 0.94946 0.07772 0.0
C1407 C 0.20333 0.94244 0.08441 0.0
C1408 C 0.18906 0.95892 0.08844 0.0
C1409 C 0.19764 0.9822 0.08565 0.0
C1410 C 0.22112 0.98874 0.07915 0.0
H1411 H 0.75654 0.65658 0.05182 0.0
H1412 H 0.78592 0.60362 1.01611 0.0
H1413 H 0.7463 0.57833 1.01312 0.0
H1414 H 0.71815 0.61853 0.08648 0.0
H1415 H 0.69378 0.63437 0.08419 0.0
H1416 H 0.72426 0.64869 0.08319 0.0
H1417 H 0.71139 0.66406 0.04285 0.0
H1418 H 0.68088 0.64977 0.04373 0.0
H1419 H 0.69647 0.64445 0.01844 0.0
H1420 H 0.70188 0.55824 1.01286 0.0
H1421 H 0.65889 0.54524 0.01729 0.0
H1422 H 0.65711 0.60967 0.055 0.0
C1423 C 0.75469 0.63967 0.04333 0.0
C1424 C 0.77499 0.63244 0.0341 0.0
C1425 C 0.77121 0.60994 0.02335 0.0
C1426 C 0.74851 0.59531 0.02153 0.0
C1427 C 0.72904 0.6029 0.03071 0.0
C1428 C 0.73195 0.62455 0.04161 0.0
C1429 C 0.70808 0.62822 0.05046 0.0
C1430 C 0.71126 0.63273 0.0777 0.0
C1431 C 0.69865 0.64779 0.03814 0.0
C1432 C 0.69134 0.60541 0.04281 0.0
C1433 C 0.70383 0.59112 0.03126 0.0
C1434 C 0.69216 0.56939 0.02205 0.0
C1435 C 0.66747 0.56206 0.02465 0.0
C1436 C 0.65398 0.57604 0.03669 0.0
C1437 C 0.66651 0.59817 0.04589 0.0
H1438 H 0.76345 0.52399 0.30721 0.0
H1439 H 0.79898 0.54607 0.37834 0.0
H1440 H 0.83111 0.52422 0.37137 0.0
H1441 H 0.77256 0.46857 0.30811 0.0
H1442 H 0.77745 0.46538 0.27724 0.0
H1443 H 0.7594 0.48539 0.28652 0.0
H1444 H 0.787 0.51766 0.26857 0.0
H1445 H 0.80522 0.49768 0.25926 0.0
H1446 H 0.81897 0.52287 0.27781 0.0
H1447 H 0.85635 0.49642 0.35858 0.0
H1448 H 0.87246 0.46428 0.34107 0.0
H1449 H 0.82041 0.46054 0.2784 0.0
C1450 C 0.77828 0.52463 0.32112 0.0
C1451 C 0.77884 0.53675 0.34327 0.0
C1452 C 0.79829 0.53691 0.3612 0.0
C1453 C 0.81667 0.52466 0.35736 0.0
C1454 C 0.81536 0.51251 0.33545 0.0
C1455 C 0.79671 0.51249 0.31759 0.0
C1456 C 0.79826 0.49642 0.29653 0.0
C1457 C 0.77558 0.47784 0.29185 0.0
C1458 C 0.80263 0.50944 0.27422 0.0
C1459 C 0.82017 0.48677 0.3057 0.0
C1460 C 0.83 0.4965 0.32803 0.0
C1461 C 0.8491 0.48895 0.34092 0.0
C1462 C 0.85806 0.47067 0.33092 0.0
C1463 C 0.84782 0.46015 0.30831 0.0
C1464 C 0.82902 0.46868 0.29541 0.0
H1465 H 0.91923 0.43737 0.52459 0.0
H1466 H 0.91369 0.44122 0.60054 0.0
H1467 H 0.95138 0.46952 0.60719 0.0
H1468 H 0.98431 0.44354 0.52872 0.0
H1469 H 0.98639 0.46067 0.50347 0.0
H1470 H 0.9597 0.43995 0.50511 0.0
H1471 H 0.93364 0.4714 0.50022 0.0
H1472 H 0.96027 0.49224 0.49878 0.0
H1473 H 0.94024 0.49633 0.52068 0.0
H1474 H 0.98989 0.498 0.60527 0.0
H1475 H 1.02551 0.52406 0.59472 0.0
H1476 H 1.00423 0.5021 0.52 0.0
C1477 C 0.9261 0.44396 0.54264 0.0
C1478 C 0.91364 0.43701 0.56206 0.0
C1479 C 0.92302 0.44627 0.5854 0.0
C1480 C 0.9444 0.46236 0.58936 0.0
C1481 C 0.9561 0.4691 0.56977 0.0
C1482 C 0.94726 0.46017 0.54688 0.0
C1483 C 0.96277 0.47069 0.52879 0.0
C1484 C 0.97396 0.45264 0.51576 0.0
C1485 C 0.94837 0.48342 0.51108 0.0
C1486 C 0.98167 0.48697 0.54503 0.0
C1487 C 0.97768 0.48579 0.56863 0.0
C1488 C 0.99314 0.49911 0.58682 0.0
C1489 C 1.01329 0.51389 0.58068 0.0
C1490 C 1.01761 0.51533 0.55654 0.0
C1491 C 1.0014 0.5017 0.53862 0.0
H1492 H 0.46857 0.15708 0.29661 0.0
H1493 H 0.49637 0.15611 0.22809 0.0
H1494 H 0.46015 0.16944 0.2097 0.0
H1495 H 0.40836 0.1351 0.27466 0.0
H1496 H 0.39557 0.15215 0.29534 0.0
H1497 H 0.42461 0.14467 0.30353 0.0
H1498 H 0.44362 0.18723 0.31226 0.0
H1499 H 0.41454 0.19482 0.3045 0.0
H1500 H 0.43978 0.20684 0.28958 0.0
H1501 H 0.41987 0.1819 0.19874 0.0
H1502 H 0.37929 0.1925 0.19645 0.0
H1503 H 0.37799 0.18328 0.27189 0.0
C1504 C 0.46729 0.16012 0.27784 0.0
C1505 C 0.48533 0.15581 0.26379 0.0
C1506 C 0.48277 0.15949 0.23918 0.0
C1507 C 0.46226 0.16701 0.22858 0.0
C1508 C 0.44448 0.17057 0.24285 0.0
C1509 C 0.44687 0.1673 0.26696 0.0
C1510 C 0.42478 0.17121 0.27819 0.0
C1511 C 0.41262 0.14949 0.28853 0.0
C1512 C 0.43106 0.19122 0.29725 0.0
C1513 C 0.40949 0.17704 0.25663 0.0
C1514 C 0.42115 0.17678 0.23641 0.0
C1515 C 0.41055 0.18206 0.21446 0.0
C1516 C 0.38754 0.18799 0.21328 0.0
C1517 C 0.37536 0.18826 0.23387 0.0
C1518 C 0.38656 0.18261 0.2557 0.0
H1519 H 0.40512 0.11417 0.5242 0.0
H1520 H 0.43771 0.17991 0.55931 0.0
H1521 H 0.47707 0.16759 0.56395 0.0
H1522 H 0.44223 0.08056 0.56069 0.0
H1523 H 0.44545 0.06095 0.5365 0.0
H1524 H 0.41926 0.07438 0.53552 0.0
H1525 H 0.42814 0.08962 0.49496 0.0
H1526 H 0.45435 0.07623 0.49582 0.0
H1527 H 0.45723 0.10627 0.49224 0.0
H1528 H 0.51439 0.14846 0.56555 0.0
H1529 H 0.54564 0.12498 0.56361 0.0
H1530 H 0.49253 0.06979 0.52719 0.0
C1531 C 0.42049 0.12606 0.53287 0.0
C1532 C 0.41738 0.14849 0.54137 0.0
C1533 C 0.43867 0.16289 0.55252 0.0
C1534 C 0.4615 0.15593 0.5553 0.0
C1535 C 0.4639 0.13409 0.54689 0.0
C1536 C 0.44398 0.11926 0.53581 0.0
C1537 C 0.45217 0.09668 0.52843 0.0
C1538 C 0.43898 0.07697 0.54103 0.0
C1539 C 0.44769 0.09191 0.50124 0.0
C1540 C 0.47957 0.10115 0.5371 0.0
C1541 C 0.48568 0.12299 0.54771 0.0
C1542 C 0.50955 0.13138 0.55722 0.0
C1543 C 0.5275 0.1176 0.556 0.0
C1544 C 0.52257 0.09494 0.54529 0.0
C1545 C 0.49771 0.0868 0.53562 0.0
H1546 H 0.73771 0.63817 0.31854 0.0
H1547 H 0.76879 0.63988 0.39225 0.0
H1548 H 0.78896 0.67958 0.38987 0.0
H1549 H 0.78776 0.66925 0.29661 0.0
H1550 H 0.77069 0.68449 0.2764 0.0
H1551 H 0.75742 0.65685 0.28441 0.0
H1552 H 0.72165 0.67343 0.29884 0.0
H1553 H 0.73479 0.70115 0.29079 0.0
H1554 H 0.72754 0.69725 0.32073 0.0
H1555 H 0.80834 0.71763 0.37835 0.0
H1556 H 0.82422 0.75223 0.35911 0.0
H1557 H 0.77913 0.72604 0.29336 0.0
C1558 C 0.74859 0.64698 0.33425 0.0
C1559 C 0.75183 0.63604 0.35556 0.0
C1560 C 0.7661 0.64806 0.37578 0.0
C1561 C 0.77758 0.67056 0.37459 0.0
C1562 C 0.77426 0.68078 0.35318 0.0
C1563 C 0.7599 0.66948 0.33346 0.0
C1564 C 0.75976 0.6841 0.31242 0.0
C1565 C 0.7695 0.67301 0.29122 0.0
C1566 C 0.73443 0.68929 0.30529 0.0
C1567 C 0.77689 0.70516 0.32317 0.0
C1568 C 0.78498 0.70294 0.34672 0.0
C1569 C 0.80192 0.71969 0.36001 0.0
C1570 C 0.81091 0.73921 0.3489 0.0
C1571 C 0.80286 0.74179 0.32477 0.0
C1572 C 0.78543 0.72463 0.3119 0.0
H1573 H 0.9807 0.55038 0.84069 0.0
H1574 H 0.99448 0.55386 0.76681 0.0
H1575 H 0.97365 0.51414 0.75817 0.0
H1576 H 0.99024 0.49284 0.84618 0.0
H1577 H 0.96684 0.48584 0.86515 0.0
H1578 H 0.98244 0.5147 0.86543 0.0
H1579 H 0.94167 0.52819 0.85572 0.0
H1580 H 0.92595 0.49936 0.85531 0.0
H1581 H 0.92167 0.51566 0.82976 0.0
H1582 H 0.95118 0.47425 0.75743 0.0
H1583 H 0.92979 0.4363 0.76494 0.0
H1584 H 0.93166 0.45825 0.83959 0.0
C1585 C 0.97929 0.54278 0.82269 0.0
C1586 C 0.98915 0.5552 0.80439 0.0
C1587 C 0.98708 0.54464 0.7811 0.0
C1588 C 0.97523 0.52212 0.776 0.0
C1589 C 0.96566 0.51035 0.79442 0.0
C1590 C 0.96766 0.52024 0.81732 0.0
C1591 C 0.95621 0.50365 0.83395 0.0
C1592 C 0.97506 0.49898 0.85385 0.0
C1593 C 0.93512 0.51223 0.84429 0.0
C1594 C 0.94742 0.48292 0.81678 0.0
C1595 C 0.953 0.48719 0.79407 0.0
C1596 C 0.94681 0.47066 0.77517 0.0
C1597 C 0.93478 0.44911 0.77965 0.0
C1598 C 0.92912 0.44421 0.80287 0.0
C1599 C 0.93546 0.46149 0.82159 0.0
H1600 H 0.09612 0.92829 0.14957 0.0
H1601 H 0.12568 0.88893 0.09729 0.0
H1602 H 0.10539 0.90766 0.06488 0.0
H1603 H 0.0378 0.92922 0.11421 0.0
H1604 H 0.03759 0.95799 0.12511 0.0
H1605 H 0.05204 0.93948 0.14369 0.0
H1606 H 0.09205 0.96874 0.14858 0.0
H1607 H 0.07748 0.9874 0.13057 0.0
H1608 H 0.10463 0.97886 0.12231 0.0
H1609 H 0.08632 0.93459 0.03897 0.0
H1610 H 0.07295 0.96866 0.02283 0.0
H1611 H 0.05389 0.98789 0.09219 0.0
C1612 C 0.0981 0.92339 0.13129 0.0
C1613 C 0.11243 0.90727 0.12584 0.0
C1614 C 0.11468 0.9013 0.10175 0.0
C1615 C 0.10309 0.91169 0.08326 0.0
C1616 C 0.08902 0.92761 0.08928 0.0
C1617 C 0.08649 0.93333 0.11276 0.0
C1618 C 0.07235 0.95233 0.1149 0.0
C1619 C 0.04853 0.94426 0.12507 0.0
C1620 C 0.08754 0.97304 0.12996 0.0
C1621 C 0.06801 0.95706 0.089 0.0
C1622 C 0.07744 0.9425 0.07434 0.0
C1623 C 0.07829 0.9457 0.05014 0.0
C1624 C 0.07047 0.96494 0.04104 0.0
C1625 C 0.0622 0.9806 0.05631 0.0
C1626 C 0.05974 0.97586 0.08012 0.0
H1627 H 0.98891 0.25918 0.83937 0.0
H1628 H 0.95944 0.20124 0.87661 0.0
H1629 H 0.91931 0.20062 0.85411 0.0
H1630 H 0.94302 0.28777 0.84249 0.0
H1631 H 0.9439 0.29908 0.8136 0.0
H1632 H 0.97064 0.29188 0.8289 0.0
H1633 H 0.97466 0.26518 0.79253 0.0
H1634 H 0.94781 0.27236 0.77703 0.0
H1635 H 0.94978 0.24304 0.78109 0.0
H1636 H 0.88155 0.21083 0.83267 0.0
H1637 H 0.85005 0.23089 0.81494 0.0
H1638 H 0.9053 0.28154 0.79155 0.0
C1639 C 0.97415 0.24598 0.84236 0.0
C1640 C 0.9771 0.23029 0.85967 0.0
C1641 C 0.95744 0.21333 0.86326 0.0
C1642 C 0.93467 0.21282 0.85051 0.0
C1643 C 0.93219 0.2291 0.83403 0.0
C1644 C 0.95156 0.24519 0.82977 0.0
C1645 C 0.94399 0.2624 0.81331 0.0
C1646 C 0.95077 0.28669 0.82531 0.0
C1647 C 0.9547 0.26062 0.78958 0.0
C1648 C 0.91712 0.25433 0.80999 0.0
C1649 C 0.91058 0.23484 0.82161 0.0
C1650 C 0.88649 0.22576 0.82304 0.0
C1651 C 0.86872 0.23727 0.81293 0.0
C1652 C 0.87529 0.25776 0.80188 0.0
C1653 C 0.89972 0.26582 0.79971 0.0
H1654 H 0.60892 0.2968 0.62921 0.0
H1655 H 0.68404 0.32169 0.65489 0.0
H1656 H 0.69565 0.29039 0.63116 0.0
H1657 H 0.61108 0.24131 0.6359 0.0
H1658 H 0.59028 0.22997 0.61005 0.0
H1659 H 0.58844 0.25697 0.62433 0.0
H1660 H 0.59267 0.27569 0.58428 0.0
H1661 H 0.59464 0.24862 0.56986 0.0
H1662 H 0.61807 0.2728 0.56847 0.0
H1663 H 0.69858 0.25389 0.60991 0.0
H1664 H 0.69245 0.21351 0.59546 0.0
H1665 H 0.61524 0.21158 0.58528 0.0
C1666 C 0.62785 0.29604 0.62919 0.0
C1667 C 0.64564 0.31165 0.6436 0.0
C1668 C 0.67019 0.30985 0.64381 0.0
C1669 C 0.67695 0.29228 0.63024 0.0
C1670 C 0.65891 0.27674 0.61663 0.0
C1671 C 0.63483 0.27843 0.61604 0.0
C1672 C 0.61874 0.25776 0.60304 0.0
C1673 C 0.60113 0.2458 0.61931 0.0
C1674 C 0.60524 0.26411 0.58004 0.0
C1675 C 0.63744 0.24364 0.59756 0.0
C1676 C 0.66053 0.25516 0.60488 0.0
C1677 C 0.68063 0.24482 0.60374 0.0
C1678 C 0.67697 0.22186 0.59568 0.0
C1679 C 0.65337 0.20946 0.58928 0.0
C1680 C 0.6335 0.22076 0.58948 0.0
H1681 H 0.61581 0.76478 0.40324 0.0
H1682 H 0.57411 0.70282 0.36674 0.0
H1683 H 0.60166 0.70558 0.33544 0.0
H1684 H 0.62706 0.79407 0.35243 0.0
H1685 H 0.6573 0.80748 0.36385 0.0
H1686 H 0.63536 0.79973 0.38411 0.0
H1687 H 0.66347 0.77583 0.40646 0.0
H1688 H 0.68566 0.78375 0.38645 0.0
H1689 H 0.67479 0.75417 0.38999 0.0
H1690 H 0.63228 0.71703 0.30659 0.0
H1691 H 0.6655 0.73441 0.28455 0.0
H1692 H 0.68663 0.78841 0.34069 0.0
C1693 C 0.61267 0.75159 0.38886 0.0
C1694 C 0.5929 0.73358 0.38736 0.0
C1695 C 0.5893 0.71669 0.36825 0.0
C1696 C 0.60477 0.71817 0.35037 0.0
C1697 C 0.62379 0.73651 0.35209 0.0
C1698 C 0.62795 0.75273 0.37104 0.0
C1699 C 0.6493 0.771 0.36863 0.0
C1700 C 0.64179 0.79445 0.36716 0.0
C1701 C 0.6695 0.77118 0.38909 0.0
C1702 C 0.65632 0.76275 0.34515 0.0
C1703 C 0.64143 0.74288 0.33579 0.0
C1704 C 0.64417 0.73249 0.31386 0.0
C1705 C 0.6629 0.74254 0.30139 0.0
C1706 C 0.6786 0.76264 0.31103 0.0
C1707 C 0.67506 0.77287 0.33307 0.0
H1708 H 0.08819 0.23264 0.49205 0.0
H1709 H 0.08107 0.21112 0.41691 0.0
H1710 H 0.07801 0.17132 0.42701 0.0
H1711 H 0.12391 0.18926 0.51289 0.0
H1712 H 0.10952 0.18416 0.5395 0.0
H1713 H 0.11128 0.21143 0.52699 0.0
H1714 H 0.06517 0.20781 0.52488 0.0
H1715 H 0.06329 0.18052 0.53737 0.0
H1716 H 0.04607 0.18317 0.5093 0.0
H1717 H 0.07575 0.13156 0.44512 0.0
H1718 H 0.07438 0.09791 0.46855 0.0
H1719 H 0.08233 0.14134 0.53364 0.0
C1720 C 0.086 0.21965 0.47759 0.0
C1721 C 0.08498 0.22629 0.45312 0.0
C1722 C 0.08202 0.20772 0.43557 0.0
C1723 C 0.08023 0.18454 0.44125 0.0
C1724 C 0.08127 0.17871 0.46506 0.0
C1725 C 0.08408 0.1958 0.48308 0.0
C1726 C 0.08456 0.18434 0.50725 0.0
C1727 C 0.10875 0.19281 0.52258 0.0
C1728 C 0.06353 0.18927 0.5205 0.0
C1729 C 0.08159 0.15843 0.50006 0.0
C1730 C 0.07978 0.1558 0.47547 0.0
C1731 C 0.07713 0.13381 0.46436 0.0
C1732 C 0.07634 0.11436 0.47812 0.0
C1733 C 0.07804 0.1157 0.50355 0.0
C1734 C 0.08072 0.13872 0.51443 0.0
H1735 H 0.63738 0.29556 0.22294 0.0
H1736 H 0.65716 0.33234 0.16184 0.0
H1737 H 0.69998 0.33655 0.1775 0.0
H1738 H 0.68524 0.32796 0.26701 0.0
H1739 H 0.69113 0.30368 0.28273 0.0
H1740 H 0.66159 0.30376 0.26744 0.0
H1741 H 0.66354 0.26639 0.24348 0.0
H1742 H 0.69309 0.26621 0.2587 0.0
H1743 H 0.68853 0.26493 0.2266 0.0
H1744 H 0.74184 0.33743 0.19968 0.0
H1745 H 0.77857 0.33382 0.22535 0.0
H1746 H 0.73507 0.2952 0.27309 0.0
C1747 C 0.65068 0.30465 0.21289 0.0
C1748 C 0.64309 0.31377 0.19082 0.0
C1749 C 0.66173 0.32519 0.17857 0.0
C1750 C 0.68643 0.3277 0.18744 0.0
C1751 C 0.69324 0.31857 0.2089 0.0
C1752 C 0.67595 0.30712 0.22151 0.0
C1753 C 0.68871 0.29853 0.24389 0.0
C1754 C 0.68122 0.30911 0.26662 0.0
C1755 C 0.68313 0.27246 0.24313 0.0
C1756 C 0.71569 0.30701 0.24192 0.0
C1757 C 0.71764 0.31863 0.22152 0.0
C1758 C 0.74032 0.32829 0.21564 0.0
C1759 C 0.76139 0.32614 0.23059 0.0
C1760 C 0.7606 0.31423 0.25174 0.0
C1761 C 0.73695 0.30448 0.25727 0.0
H1762 H 0.60168 0.87343 0.98883 0.0
H1763 H 0.57301 0.87854 0.91553 0.0
H1764 H 0.56793 0.91781 0.92545 0.0
H1765 H 0.56307 0.9088 1.0167 0.0
H1766 H 0.58623 0.92295 0.03942 0.0
H1767 H 0.58751 0.89482 0.02725 0.0
H1768 H 0.63009 0.9091 1.01605 0.0
H1769 H 0.62893 0.93727 0.02821 0.0
H1770 H 0.63495 0.93292 0.99781 0.0
H1771 H 0.56441 0.95825 0.94349 0.0
H1772 H 0.56508 0.99445 0.96652 0.0
H1773 H 0.59776 0.96749 0.02915 0.0
C1774 C 0.5943 0.8827 0.97474 0.0
C1775 C 0.58775 0.87163 0.95089 0.0
C1776 C 0.57834 0.8855 0.93373 0.0
C1777 C 0.57529 0.90829 0.93931 0.0
C1778 C 0.58181 0.91848 0.96254 0.0
C1779 C 0.59135 0.90616 0.98006 0.0
C1780 C 0.59732 0.92182 1.00354 0.0
C1781 C 0.58267 0.91147 0.02289 0.0
C1782 C 0.62444 0.92549 1.01191 0.0
C1783 C 0.58964 0.9446 0.99655 0.0
C1784 C 0.58054 0.94201 0.97272 0.0
C1785 C 0.57174 0.96017 0.96209 0.0
C1786 C 0.5722 0.98111 0.9756 0.0
C1787 C 0.58164 0.98512 1.00015 0.0
C1788 C 0.59054 0.96597 1.01054 0.0
H1789 H 0.97387 0.78684 0.67271 0.0
H1790 H 1.02951 0.81711 0.7292 0.0
H1791 H 0.99849 0.81977 0.75612 0.0
H1792 H 0.92756 0.82012 0.68881 0.0
H1793 H 0.90266 0.7968 0.68218 0.0
H1794 H 0.92899 0.79776 0.66672 0.0
H1795 H 0.93338 0.75818 0.67979 0.0
H1796 H 0.90752 0.75694 0.6959 0.0
H1797 H 0.93611 0.7532 0.71098 0.0
H1798 H 0.96011 0.82075 0.77808 0.0
H1799 H 0.9202 0.81766 0.79258 0.0
H1800 H 0.88684 0.78455 0.72441 0.0
C1801 C 0.97967 0.79409 0.69073 0.0
C1802 C 1.00512 0.80183 0.69821 0.0
C1803 C 1.01085 0.81098 0.72231 0.0
C1804 C 0.99303 0.81262 0.73802 0.0
C1805 C 0.9685 0.80496 0.7302 0.0
C1806 C 0.96175 0.79572 0.70706 0.0
C1807 C 0.93395 0.7883 0.70359 0.0
C1808 C 0.92262 0.80153 0.68416 0.0
C1809 C 0.92731 0.76262 0.69719 0.0
C1810 C 0.92618 0.79466 0.72824 0.0
C1811 C 0.94658 0.80457 0.74315 0.0
C1812 C 0.94425 0.81279 0.76638 0.0
C1813 C 0.92109 0.81097 0.77462 0.0
C1814 C 0.89941 0.80062 0.76031 0.0
C1815 C 0.90251 0.79231 0.73648 0.0
H1816 H 0.17061 0.0554 0.89428 0.0
H1817 H 0.23501 0.04558 0.93818 0.0
H1818 H 0.21072 0.03466 0.97095 0.0
H1819 H 0.14563 0.08165 0.9412 0.0
H1820 H 0.11487 0.06935 0.93043 0.0
H1821 H 0.13697 0.07427 0.90981 0.0
H1822 H 0.12649 0.03181 0.89448 0.0
H1823 H 0.10451 0.02672 0.91526 0.0
H1824 H 0.12827 1.0102 0.91534 0.0
H1825 H 0.17982 0.02517 0.99864 0.0
H1826 H 0.14548 0.02286 0.02201 0.0
H1827 H 0.10137 0.04143 0.96103 0.0
C1828 C 0.17949 0.05075 0.91075 0.0
C1829 C 0.20454 0.05108 0.91381 0.0
C1830 C 0.21578 0.04539 0.93565 0.0
C1831 C 0.20213 0.03901 0.95421 0.0
C1832 C 0.1774 0.03874 0.95063 0.0
C1833 C 0.16622 0.04483 0.92962 0.0
C1834 C 0.13979 0.04508 0.93115 0.0
C1835 C 0.13398 0.06901 0.92797 0.0
C1836 C 0.12383 0.02739 0.91298 0.0
C1837 C 0.1379 0.03836 0.9564 0.0
C1838 C 0.1597 0.03433 0.9671 0.0
C1839 C 0.16264 0.02827 0.99048 0.0
C1840 C 0.14295 0.02694 1.00357 0.0
C1841 C 0.12072 0.03204 0.99334 0.0
C1842 C 0.11809 0.03738 0.96929 0.0
H1843 H 0.811 0.35205 0.6144 0.0
H1844 H 0.88631 0.35231 0.60657 0.0
H1845 H 0.89249 0.33928 0.64709 0.0
H1846 H 0.81902 0.37261 0.67468 0.0
H1847 H 0.79266 0.35481 0.68291 0.0
H1848 H 0.79344 0.36272 0.65269 0.0
H1849 H 0.78397 0.3203 0.63731 0.0
H1850 H 0.78279 0.31235 0.66752 0.0
H1851 H 0.80272 0.30107 0.64917 0.0
H1852 H 0.89164 0.33028 0.69009 0.0
H1853 H 0.88238 0.32099 0.73073 0.0
H1854 H 0.80732 0.32414 0.71026 0.0
C1855 C 0.82865 0.34886 0.62101 0.0
C1856 C 0.84816 0.35313 0.60719 0.0
C1857 C 0.87104 0.349 0.61666 0.0
C1858 C 0.87477 0.34172 0.63976 0.0
C1859 C 0.85539 0.33832 0.65317 0.0
C1860 C 0.83264 0.34131 0.644 0.0
C1861 C 0.81496 0.33669 0.66231 0.0
C1862 C 0.80441 0.35798 0.6685 0.0
C1863 C 0.79493 0.31639 0.65355 0.0
C1864 C 0.8314 0.33099 0.68327 0.0
C1865 C 0.85471 0.33225 0.67768 0.0
C1866 C 0.87339 0.3289 0.69454 0.0
C1867 C 0.86804 0.32376 0.71757 0.0
C1868 C 0.84421 0.32175 0.72341 0.0
C1869 C 0.82567 0.32541 0.70606 0.0
H1870 H 0.55371 0.08476 0.3639 0.0
H1871 H 0.5631 0.15817 0.37411 0.0
H1872 H 0.57632 0.15591 0.41712 0.0
H1873 H 0.52992 0.07214 0.41781 0.0
H1874 H 0.54494 0.04821 0.42219 0.0
H1875 H 0.53717 0.05618 0.39251 0.0
H1876 H 0.58179 0.05944 0.38454 0.0
H1877 H 0.58973 0.05161 0.41429 0.0
H1878 H 0.60497 0.07774 0.40428 0.0
H1879 H 0.58729 0.1447 0.45956 0.0
H1880 H 0.59378 0.12592 0.49711 0.0
H1881 H 0.57739 0.06017 0.45727 0.0
C1882 C 0.55858 0.10045 0.3751 0.0
C1883 C 0.55736 0.12166 0.36575 0.0
C1884 C 0.56391 0.14174 0.38101 0.0
C1885 C 0.57149 0.1406 0.40537 0.0
C1886 C 0.5725 0.11928 0.41396 0.0
C1887 C 0.5662 0.09961 0.39918 0.0
C1888 C 0.5682 0.07869 0.41252 0.0
C1889 C 0.5436 0.06289 0.41118 0.0
C1890 C 0.58731 0.06614 0.40336 0.0
C1891 C 0.5763 0.08954 0.43734 0.0
C1892 C 0.57886 0.11295 0.43793 0.0
C1893 C 0.58548 0.1264 0.45923 0.0
C1894 C 0.58918 0.11558 0.48045 0.0
C1895 C 0.58615 0.09155 0.48014 0.0
C1896 C 0.57999 0.07854 0.45819 0.0
H1897 H 0.82596 0.73433 0.10277 0.0
H1898 H 0.87205 0.68639 0.1243 0.0
H1899 H 0.87421 0.70095 0.16614 0.0
H1900 H 0.85467 0.78121 0.14699 0.0
H1901 H 0.82691 0.78998 0.15302 0.0
H1902 H 0.82917 0.77652 0.1243 0.0
H1903 H 0.79222 0.74607 0.1291 0.0
H1904 H 0.78987 0.75945 0.15783 0.0
H1905 H 0.79235 0.72984 0.15508 0.0
H1906 H 0.87224 0.72111 0.2071 0.0
H1907 H 0.86496 0.74336 0.24257 0.0
H1908 H 0.81844 0.77853 0.19784 0.0
C1909 C 0.83666 0.72694 0.11622 0.0
C1910 C 0.84905 0.70892 0.10935 0.0
C1911 C 0.8624 0.69999 0.12825 0.0
C1912 C 0.86377 0.70828 0.15243 0.0
C1913 C 0.85147 0.72575 0.15854 0.0
C1914 C 0.83799 0.73496 0.14099 0.0
C1915 C 0.82605 0.75329 0.15294 0.0
C1916 C 0.83471 0.77664 0.14376 0.0
C1917 C 0.79848 0.74678 0.14846 0.0
C1918 C 0.83495 0.75298 0.17973 0.0
C1919 C 0.84976 0.73696 0.18234 0.0
C1920 C 0.86056 0.73357 0.20503 0.0
C1921 C 0.85627 0.74653 0.22539 0.0
C1922 C 0.84098 0.76309 0.22392 0.0
C1923 C 0.83017 0.76614 0.20028 0.0
H1924 H 0.18294 0.03679 0.79411 0.0
H1925 H 0.25418 0.05931 0.77349 0.0
H1926 H 0.23623 0.06229 0.73234 0.0
H1927 H 0.15526 1.00552 0.73516 0.0
H1928 H 0.12702 1.01485 0.73785 0.0
H1929 H 0.14574 1.00991 0.76419 0.0
H1930 H 0.14545 0.05082 0.78126 0.0
H1931 H 0.12717 0.05607 0.75489 0.0
H1932 H 0.15557 0.07451 0.76421 0.0
H1933 H 0.21057 0.06946 0.69602 0.0
H1934 H 0.17888 0.07755 0.66587 0.0
H1935 H 0.12423 0.05052 0.71 0.0
C1936 C 0.19482 0.04146 0.7807 0.0
C1937 C 0.21994 0.04767 0.78688 0.0
C1938 C 0.23489 0.0543 0.76905 0.0
C1939 C 0.22486 0.05605 0.74563 0.0
C1940 C 0.1999 0.0509 0.74038 0.0
C1941 C 0.18507 0.04337 0.7573 0.0
C1942 C 0.15875 0.04131 0.74778 0.0
C1943 C 0.14594 1.01642 0.74614 0.0
C1944 C 0.14601 0.05659 0.76294 0.0
C1945 C 0.16112 0.04985 0.72328 0.0
C1946 C 0.18499 0.05504 0.71926 0.0
C1947 C 0.1918 0.06502 0.69874 0.0
C1948 C 0.17373 0.06977 0.68187 0.0
C1949 C 0.14919 0.06459 0.68567 0.0
C1950 C 0.14285 0.05427 0.70652 0.0
H1951 H 0.8378 0.34154 0.47637 0.0
H1952 H 0.81904 0.40843 0.46958 0.0
H1953 H 0.81226 0.4013 0.42599 0.0
H1954 H 0.86944 0.34113 0.42485 0.0
H1955 H 0.85866 0.31153 0.41585 0.0
H1956 H 0.86129 0.32131 0.44682 0.0
H1957 H 0.81634 0.30447 0.44825 0.0
H1958 H 0.81359 0.29463 0.41726 0.0
H1959 H 0.79374 0.31272 0.42725 0.0
H1960 H 0.80992 0.38834 0.383 0.0
H1961 H 0.81051 0.36946 0.34331 0.0
H1962 H 0.82902 0.3101 0.37673 0.0
C1963 C 0.83205 0.35456 0.4657 0.0
C1964 C 0.82895 0.37558 0.47656 0.0
C1965 C 0.82152 0.3922 0.46185 0.0
C1966 C 0.81761 0.38832 0.43697 0.0
C1967 C 0.821 0.36762 0.42681 0.0
C1968 C 0.82787 0.3509 0.44063 0.0
C1969 C 0.83052 0.3303 0.42488 0.0
C1970 C 0.85652 0.32581 0.42831 0.0
C1971 C 0.81247 0.30928 0.4297 0.0
C1972 C 0.82432 0.33821 0.40019 0.0
C1973 C 0.81896 0.35984 0.40179 0.0
C1974 C 0.81379 0.37128 0.38151 0.0
C1975 C 0.81419 0.36041 0.359 0.0
C1976 C 0.81948 0.33817 0.35676 0.0
C1977 C 0.82443 0.32692 0.37775 0.0
H1978 H 0.59433 0.15564 0.2422 0.0
H1979 H 0.6199 0.10938 0.29108 0.0
H1980 H 0.65344 0.10629 0.26765 0.0
H1981 H 0.59656 0.12675 0.19444 0.0
H1982 H 0.60678 0.14891 0.17555 0.0
H1983 H 0.59191 0.15545 0.20062 0.0
H1984 H 0.6285 0.18652 0.21665 0.0
H1985 H 0.64354 0.17988 0.19133 0.0
H1986 H 0.65818 0.17937 0.22114 0.0
H1987 H 0.67357 0.09735 0.23384 0.0
H1988 H 0.67636 0.0824 0.19329 0.0
H1989 H 0.64055 0.13515 0.16456 0.0
C1990 C 0.60788 0.14595 0.24858 0.0
C1991 C 0.60474 0.13284 0.26837 0.0
C1992 C 0.62214 0.11963 0.27596 0.0
C1993 C 0.64139 0.11795 0.26284 0.0
C1994 C 0.64307 0.12967 0.24222 0.0
C1995 C 0.62698 0.14381 0.2353 0.0
C1996 C 0.62922 0.15035 0.20999 0.0
C1997 C 0.60468 0.14499 0.19426 0.0
C1998 C 0.64055 0.17553 0.20978 0.0
C1999 C 0.64646 0.13519 0.20274 0.0
C2000 C 0.65527 0.12435 0.22194 0.0
C2001 C 0.66756 0.10629 0.21883 0.0
C2002 C 0.66917 0.0979 0.19561 0.0
C2003 C 0.6584 0.1075 0.1758 0.0
C2004 C 0.64886 0.12753 0.1795 0.0
H2005 H 0.8531 0.74313 0.97458 0.0
H2006 H 0.83113 0.67275 0.94755 0.0
H2007 H 0.82694 0.68481 0.90662 0.0
H2008 H 0.81227 0.76629 0.93055 0.0
H2009 H 0.8333 0.79173 0.92698 0.0
H2010 H 0.83504 0.77813 0.95469 0.0
H2011 H 0.87947 0.77551 0.95122 0.0
H2012 H 0.87785 0.78909 0.9235 0.0
H2013 H 0.88725 0.76186 0.92471 0.0
H2014 H 0.8247 0.70415 0.86691 0.0
H2015 H 0.82428 0.72852 0.83322 0.0
H2016 H 0.84719 0.78814 0.88242 0.0
C2017 C 0.84744 0.73018 0.96011 0.0
C2018 C 0.84255 0.70651 0.96529 0.0
C2019 C 0.83512 0.69075 0.94505 0.0
C2020 C 0.83264 0.69754 0.92131 0.0
C2021 C 0.8375 0.7206 0.91688 0.0
C2022 C 0.84473 0.73681 0.93573 0.0
C2023 C 0.84854 0.76054 0.92546 0.0
C2024 C 0.83127 0.77504 0.935 0.0
C2025 C 0.87484 0.77247 0.9316 0.0
C2026 C 0.84242 0.75512 0.89814 0.0
C2027 C 0.83611 0.73183 0.89383 0.0
C2028 C 0.82966 0.72238 0.87036 0.0
C2029 C 0.82949 0.73663 0.85099 0.0
C2030 C 0.83572 0.76077 0.85414 0.0
C2031 C 0.84235 0.76994 0.87859 0.0
H2032 H 0.88265 0.17742 1.01003 0.0
H2033 H 0.83295 0.13537 0.04979 0.0
H2034 H 0.85529 0.10388 0.04507 0.0
H2035 H 0.89135 0.13308 0.96799 0.0
H2036 H 0.92303 0.14358 0.96768 0.0
H2037 H 0.90307 0.16301 0.97379 0.0
H2038 H 0.92949 0.17742 1.01363 0.0
H2039 H 0.94961 0.15816 1.00755 0.0
H2040 H 0.93604 0.1573 0.03497 0.0
H2041 H 0.88198 0.07668 0.03538 0.0
H2042 H 0.91348 0.05607 0.02393 0.0
H2043 H 0.94763 0.11596 0.99214 0.0
C2044 C 0.87653 0.16158 0.01774 0.0
C2045 C 0.85602 0.15881 0.03023 0.0
C2046 C 0.84862 0.13789 0.04019 0.0
C2047 C 0.86113 0.11986 0.03753 0.0
C2048 C 0.88114 0.12303 0.02501 0.0
C2049 C 0.889 0.1434 1.01547 0.0
C2050 C 0.91149 0.14238 1.0034 0.0
C2051 C 0.90695 0.14571 0.97663 0.0
C2052 C 0.93293 0.15985 1.01562 0.0
C2053 C 0.91494 0.11826 1.00763 0.0
C2054 C 0.89708 0.10741 0.01997 0.0
C2055 C 0.8962 0.08504 0.0259 0.0
C2056 C 0.9143 0.07352 0.01942 0.0
C2057 C 0.93327 0.0844 1.00735 0.0
C2058 C 0.93333 0.10704 1.00116 0.0
H2059 H 0.39578 0.44916 0.02108 0.0
H2060 H 0.37245 0.49168 0.07513 0.0
H2061 H 0.41197 0.51709 0.07895 0.0
H2062 H 0.45856 0.45529 0.04745 0.0
H2063 H 0.47105 0.45651 0.01945 0.0
H2064 H 0.44098 0.44129 0.02072 0.0
H2065 H 0.42451 0.46541 0.98838 0.0
H2066 H 0.45453 0.48072 0.98704 0.0
H2067 H 0.43074 0.49595 0.99292 0.0
H2068 H 0.45527 0.5381 0.0782 0.0
H2069 H 0.49719 0.55321 0.07207 0.0
H2070 H 0.49455 0.49932 1.01715 0.0
C2071 C 0.39893 0.46383 0.03373 0.0
C2072 C 0.38031 0.46805 0.04787 0.0
C2073 C 0.3858 0.48768 0.06403 0.0
C2074 C 0.40846 0.50237 0.06636 0.0
C2075 C 0.42622 0.49778 0.05232 0.0
C2076 C 0.42173 0.47902 0.03617 0.0
C2077 C 0.44418 0.47833 0.02314 0.0
C2078 C 0.45428 0.45655 0.02797 0.0
C2079 C 0.43812 0.48021 0.99627 0.0
C2080 C 0.46191 0.49949 0.03449 0.0
C2081 C 0.45104 0.5103 0.0514 0.0
C2082 C 0.46372 0.52973 0.06484 0.0
C2083 C 0.48783 0.5383 0.06118 0.0
C2084 C 0.49985 0.52798 0.04391 0.0
C2085 C 0.48626 0.50815 0.03027 0.0
H2086 H 0.35734 0.60011 0.70817 0.0
H2087 H 0.31723 0.54667 0.74431 0.0
H2088 H 0.2832 0.56749 0.74342 0.0
H2089 H 0.34503 0.64294 0.74106 0.0
H2090 H 0.34283 0.66231 0.71785 0.0
H2091 H 0.36039 0.64037 0.71499 0.0
H2092 H 0.33533 0.62588 0.67438 0.0
H2093 H 0.31739 0.64778 0.67744 0.0
H2094 H 0.30301 0.61841 0.67269 0.0
H2095 H 0.25796 0.5971 0.74662 0.0
H2096 H 0.24618 0.63377 0.75726 0.0
H2097 H 0.30286 0.66834 0.71967 0.0
C2098 C 0.34101 0.59242 0.71506 0.0
C2099 C 0.33978 0.57179 0.72617 0.0
C2100 C 0.31844 0.56246 0.73562 0.0
C2101 C 0.29893 0.57406 0.73496 0.0
C2102 C 0.301 0.59487 0.72464 0.0
C2103 C 0.32153 0.60393 0.71476 0.0
C2104 C 0.32126 0.62823 0.70881 0.0
C2105 C 0.34367 0.64439 0.72145 0.0
C2106 C 0.31911 0.63018 0.68171 0.0
C2107 C 0.29841 0.63205 0.71872 0.0
C2108 C 0.28643 0.61236 0.72687 0.0
C2109 C 0.26682 0.61249 0.73979 0.0
C2110 C 0.26027 0.63341 0.74581 0.0
C2111 C 0.27361 0.6539 0.7393 0.0
C2112 C 0.29187 0.65295 0.72434 0.0
H2113 H 0.22551 0.678 0.51256 0.0
H2114 H 0.27748 0.63657 0.53788 0.0
H2115 H 0.24486 0.60353 0.53681 0.0
H2116 H 0.17884 0.65364 0.54632 0.0
H2117 H 0.15456 0.65468 0.52334 0.0
H2118 H 0.1821 0.67501 0.52499 0.0
H2119 H 0.18653 0.66315 0.4812 0.0
H2120 H 0.15905 0.64267 0.47949 0.0
H2121 H 0.18647 0.63373 0.47264 0.0
H2122 H 0.20692 0.57529 0.53455 0.0
H2123 H 0.16554 0.55383 0.53249 0.0
H2124 H 0.13743 0.61287 0.50838 0.0
C2125 C 0.22999 0.66194 0.51777 0.0
C2126 C 0.25409 0.65989 0.52529 0.0
C2127 C 0.2592 0.6386 0.53207 0.0
C2128 C 0.24079 0.61967 0.53145 0.0
C2129 C 0.21727 0.6222 0.52396 0.0
C2130 C 0.21173 0.64276 0.51729 0.0
C2131 C 0.18476 0.6409 0.51077 0.0
C2132 C 0.17446 0.65701 0.52735 0.0
C2133 C 0.17886 0.64538 0.48446 0.0
C2134 C 0.17607 0.6162 0.51513 0.0
C2135 C 0.19519 0.60574 0.52258 0.0
C2136 C 0.19179 0.58323 0.52856 0.0
C2137 C 0.16819 0.57116 0.52732 0.0
C2138 C 0.14822 0.58157 0.52013 0.0
C2139 C 0.15231 0.60431 0.51361 0.0
H2140 H 0.68638 0.92326 0.7963 0.0
H2141 H 0.68 0.96265 0.86109 0.0
H2142 H 0.7112 0.94491 0.8829 0.0
H2143 H 0.69904 0.87139 0.82558 0.0
H2144 H 0.7206 0.86623 0.80564 0.0
H2145 H 0.69538 0.87931 0.79529 0.0
H2146 H 0.72375 0.91374 0.78233 0.0
H2147 H 0.74922 0.90084 0.79177 0.0
H2148 H 0.74777 0.92907 0.80351 0.0
H2149 H 0.74764 0.9278 0.8959 0.0
H2150 H 0.78525 0.9115 0.89892 0.0
H2151 H 0.76672 0.88236 0.82636 0.0
C2152 C 0.69106 0.92766 0.81523 0.0
C2153 C 0.68074 0.94427 0.82702 0.0
C2154 C 0.68761 0.94988 0.85171 0.0
C2155 C 0.70528 0.93985 0.86428 0.0
C2156 C 0.71566 0.92401 0.85198 0.0
C2157 C 0.70858 0.91773 0.82805 0.0
C2158 C 0.72396 0.90188 0.81844 0.0
C2159 C 0.70885 0.8783 0.81079 0.0
C2160 C 0.73694 0.912 0.79781 0.0
C2161 C 0.74148 0.90109 0.84037 0.0
C2162 C 0.73629 0.91372 0.85967 0.0
C2163 C 0.75153 0.91737 0.88113 0.0
C2164 C 0.7728 0.90815 0.88273 0.0
C2165 C 0.77837 0.89549 0.863 0.0
C2166 C 0.76235 0.89158 0.84182 0.0
H2167 H 0.71886 0.93914 0.5336 0.0
H2168 H 0.77647 0.99725 0.54996 0.0
H2169 H 0.74646 0.02245 0.55078 0.0
H2170 H 0.67865 0.96848 0.49501 0.0
H2171 H 0.65112 0.9547 0.50514 0.0
H2172 H 0.67674 0.94048 0.50579 0.0
H2173 H 0.6753 0.9355 0.55067 0.0
H2174 H 0.64967 0.9497 0.55013 0.0
H2175 H 0.67622 0.96007 0.57075 0.0
H2176 H 0.71007 0.04263 0.55051 0.0
H2177 H 0.67147 0.0559 0.54881 0.0
H2178 H 0.63366 0.98665 0.53187 0.0
C2179 C 0.72526 0.95717 0.53735 0.0
C2180 C 0.75093 0.96573 0.54175 0.0
C2181 C 0.75759 0.98967 0.5465 0.0
C2182 C 0.74039 1.00436 0.54702 0.0
C2183 C 0.71566 0.99554 0.54269 0.0
C2184 C 0.70795 0.97244 0.53787 0.0
C2185 C 0.67997 0.96782 0.53378 0.0
C2186 C 0.67109 0.95723 0.50842 0.0
C2187 C 0.66968 0.95234 0.55244 0.0
C2188 C 0.67325 0.99177 0.53709 0.0
C2189 C 0.69442 1.00734 0.54228 0.0
C2190 C 0.69354 0.0304 0.54641 0.0
C2191 C 0.67104 0.03788 0.54539 0.0
C2192 C 0.64846 0.02287 0.54013 0.0
C2193 C 0.65 0.99913 0.53579 0.0
H2194 H 0.35622 0.46664 0.74357 0.0
H2195 H 0.42798 0.48338 0.7821 0.0
H2196 H 0.4261 0.44317 0.79112 0.0
H2197 H 0.33187 0.42626 0.7835 0.0
H2198 H 0.31347 0.4079 0.75987 0.0
H2199 H 0.3209 0.43793 0.75657 0.0
H2200 H 0.33856 0.42954 0.71726 0.0
H2201 H 0.33154 0.39948 0.72066 0.0
H2202 H 0.36197 0.41259 0.71747 0.0
H2203 H 0.4166 0.40065 0.79473 0.0
H2204 H 0.39824 0.36026 0.79675 0.0
H2205 H 0.33266 0.37241 0.75657 0.0
C2206 C 0.37147 0.46187 0.75404 0.0
C2207 C 0.39223 0.47801 0.76213 0.0
C2208 C 0.41184 0.4712 0.77582 0.0
C2209 C 0.41102 0.44842 0.78088 0.0
C2210 C 0.39042 0.43281 0.77221 0.0
C2211 C 0.37089 0.43933 0.75937 0.0
C2212 C 0.35062 0.41946 0.75262 0.0
C2213 C 0.32788 0.42311 0.76382 0.0
C2214 C 0.34538 0.41501 0.72539 0.0
C2215 C 0.36173 0.40075 0.76377 0.0
C2216 C 0.3848 0.40863 0.77472 0.0
C2217 C 0.39852 0.39428 0.78625 0.0
C2218 C 0.38805 0.37139 0.78717 0.0
C2219 C 0.36407 0.36335 0.77687 0.0
C2220 C 0.35102 0.37815 0.76469 0.0
H2221 H 0.24809 0.56034 0.27839 0.0
H2222 H 0.20985 0.54444 0.20749 0.0
H2223 H 0.23332 0.57907 0.19386 0.0
H2224 H 0.24377 0.61359 0.28258 0.0
H2225 H 0.27283 0.6249 0.29877 0.0
H2226 H 0.25961 0.59583 0.30092 0.0
H2227 H 0.2973 0.58261 0.28681 0.0
H2228 H 0.31094 0.61185 0.2849 0.0
H2229 H 0.30782 0.59188 0.25935 0.0
H2230 H 0.25209 0.6195 0.19112 0.0
H2231 H 0.26467 0.661 0.19941 0.0
H2232 H 0.29104 0.65057 0.27198 0.0
C2233 C 0.24549 0.56363 0.25973 0.0
C2234 C 0.22728 0.54983 0.24396 0.0
C2235 C 0.22396 0.55473 0.21977 0.0
C2236 C 0.23725 0.57436 0.21189 0.0
C2237 C 0.25404 0.58854 0.22835 0.0
C2238 C 0.25854 0.5831 0.25171 0.0
C2239 C 0.27417 0.60268 0.26696 0.0
C2240 C 0.26184 0.60965 0.28854 0.0
C2241 C 0.29904 0.59691 0.27497 0.0
C2242 C 0.27596 0.62066 0.24914 0.0
C2243 C 0.26495 0.61206 0.22674 0.0
C2244 C 0.26145 0.62626 0.20834 0.0
C2245 C 0.26863 0.64981 0.21318 0.0
C2246 C 0.2788 0.65884 0.23633 0.0
C2247 C 0.28342 0.64399 0.25411 0.0
H2248 H 0.51691 0.67342 0.47942 0.0
H2249 H 0.58591 0.71649 0.50239 0.0
H2250 H 0.59381 0.69081 0.53395 0.0
H2251 H 0.50434 0.6538 0.54052 0.0
H2252 H 0.49146 0.62553 0.52805 0.0
H2253 H 0.48814 0.64967 0.51099 0.0
H2254 H 0.50685 0.63226 0.47635 0.0
H2255 H 0.50983 0.60792 0.49282 0.0
H2256 H 0.53592 0.62396 0.48209 0.0
H2257 H 0.59762 0.65721 0.55735 0.0
H2258 H 0.59781 0.61769 0.56837 0.0
H2259 H 0.52637 0.59699 0.53037 0.0
C2260 C 0.53336 0.67778 0.49155 0.0
C2261 C 0.55081 0.69683 0.48855 0.0
C2262 C 0.57229 0.70191 0.50448 0.0
C2263 C 0.57682 0.68756 0.52259 0.0
C2264 C 0.55952 0.66846 0.5247 0.0
C2265 C 0.53809 0.66366 0.50968 0.0
C2266 C 0.52405 0.64052 0.51318 0.0
C2267 C 0.50061 0.64253 0.52382 0.0
C2268 C 0.51891 0.62529 0.48973 0.0
C2269 C 0.5418 0.63234 0.53107 0.0
C2270 C 0.56178 0.64892 0.53821 0.0
C2271 C 0.58182 0.64426 0.55244 0.0
C2272 C 0.58181 0.62186 0.55865 0.0
C2273 C 0.56209 0.60461 0.55014 0.0
C2274 C 0.54154 0.61011 0.53718 0.0
H2275 H 0.70864 0.3844 0.70118 0.0
H2276 H 0.673 0.39541 0.76368 0.0
H2277 H 0.71037 0.39314 0.78942 0.0
H2278 H 0.72954 0.34124 0.71976 0.0
H2279 H 0.758 0.34545 0.70773 0.0
H2280 H 0.73357 0.3574 0.69398 0.0
H2281 H 0.75941 0.39755 0.69911 0.0
H2282 H 0.78457 0.38602 0.7126 0.0
H2283 H 0.77415 0.40882 0.72811 0.0
H2284 H 0.74692 0.37995 0.80796 0.0
H2285 H 0.77773 0.35585 0.8171 0.0
H2286 H 0.78706 0.34938 0.74227 0.0
C2287 C 0.70913 0.38766 0.72025 0.0
C2288 C 0.6881 0.3903 0.73049 0.0
C2289 C 0.68908 0.39367 0.75552 0.0
C2290 C 0.71027 0.39243 0.77026 0.0
C2291 C 0.73019 0.38778 0.75963 0.0
C2292 C 0.72982 0.38566 0.73507 0.0
C2293 C 0.7509 0.37552 0.72788 0.0
C2294 C 0.74248 0.35362 0.7114 0.0
C2295 C 0.76829 0.39303 0.71624 0.0
C2296 C 0.76205 0.37056 0.75203 0.0
C2297 C 0.75062 0.37867 0.77024 0.0
C2298 C 0.75638 0.37404 0.79391 0.0
C2299 C 0.77378 0.36032 0.79896 0.0
C2300 C 0.78446 0.35091 0.78028 0.0
C2301 C 0.77906 0.35659 0.75675 0.0
H2302 H 0.06365 0.31954 0.92741 0.0
H2303 H 1.01636 0.27816 0.9699 0.0
H2304 H 1.01241 0.31267 0.99408 0.0
H2305 H 0.09366 0.36174 0.97534 0.0
H2306 H 0.09445 0.38481 0.95601 0.0
H2307 H 0.09562 0.35663 0.94398 0.0
H2308 H 0.05857 0.35808 0.91338 0.0
H2309 H 0.05722 0.38618 0.92535 0.0
H2310 H 1.0312 0.36398 0.92388 0.0
H2311 H 1.01186 0.35204 1.01197 0.0
H2312 H 1.0132 0.39323 0.02081 0.0
H2313 H 0.05978 0.40825 0.96553 0.0
C2314 C 0.05281 0.31769 0.94208 0.0
C2315 C 0.04044 0.29626 0.94696 0.0
C2316 C 1.02605 0.2945 0.96598 0.0
C2317 C 1.02378 0.31396 0.97983 0.0
C2318 C 0.03598 0.33492 0.97432 0.0
C2319 C 0.05018 0.33688 0.95586 0.0
C2320 C 0.05991 0.36142 0.95233 0.0
C2321 C 0.08755 0.36644 0.95722 0.0
C2322 C 0.05119 0.36778 0.92726 0.0
C2323 C 0.04855 0.37303 0.97134 0.0
C2324 C 0.03512 0.35751 0.98412 0.0
C2325 C 1.02245 0.36435 1.0022 0.0
C2326 C 1.02334 0.38769 1.00712 0.0
C2327 C 0.0365 0.40374 0.99375 0.0
C2328 C 0.04945 0.39627 0.97588 0.0
H2329 H 0.06462 0.84076 0.20173 0.0
H2330 H 0.10858 0.88907 0.25538 0.0
H2331 H 0.07824 0.87983 0.28338 0.0
H2332 H 1.00695 0.85197 0.21573 0.0
H2333 H 0.9925 0.82266 0.21027 0.0
H2334 H 1.01745 0.83361 0.19448 0.0
H2335 H 0.03998 0.8019 0.20957 0.0
H2336 H 1.01519 0.79097 0.22556 0.0
H2337 H 0.04512 0.79878 0.24114 0.0
H2338 H 0.04337 0.86478 0.30554 0.0
H2339 H 1.00571 0.8462 0.31978 0.0
H2340 H 0.98549 0.80713 0.25169 0.0
C2341 C 0.06779 0.84954 0.2193 0.0
C2342 C 0.08886 0.86565 0.22644 0.0
C2343 C 0.09247 0.8767 0.2496 0.0
C2344 C 0.0754 0.87153 0.2656 0.0
C2345 C 0.05494 0.85531 0.25809 0.0
C2346 C 0.05103 0.84457 0.23546 0.0
C2347 C 1.02769 0.82768 0.2318 0.0
C2348 C 1.01011 0.83439 0.21189 0.0
C2349 C 1.03228 0.8034 0.22672 0.0
C2350 C 1.01907 0.83055 0.25594 0.0
C2351 C 0.03502 0.84653 0.27088 0.0
C2352 C 1.03077 0.85218 0.29404 0.0
C2353 C 1.00945 0.84139 0.30202 0.0
C2354 C 0.99272 0.82517 0.28686 0.0
C2355 C 0.99782 0.81959 0.26362 0.0
H2356 H 0.57538 0.39719 0.14575 0.0
H2357 H 0.56669 0.35347 0.08086 0.0
H2358 H 0.56852 0.38718 0.05725 0.0
H2359 H 0.53911 0.43865 0.12131 0.0
H2360 H 0.55804 0.46328 0.13709 0.0
H2361 H 0.55628 0.43592 0.14939 0.0
H2362 H 0.60242 0.43969 0.15173 0.0
H2363 H 0.60428 0.46704 0.1394 0.0
H2364 H 0.617 0.44497 0.12525 0.0
H2365 H 0.57162 0.42744 0.03905 0.0
H2366 H 0.57467 0.46737 0.02919 0.0
H2367 H 0.58098 0.48826 0.10443 0.0
C2368 C 0.57384 0.39453 0.12654 0.0
C2369 C 0.57083 0.37147 0.11573 0.0
C2370 C 0.56896 0.37002 0.09031 0.0
C2371 C 0.57002 0.38949 0.07648 0.0
C2372 C 0.57296 0.41156 0.08754 0.0
C2373 C 0.57478 0.41422 0.11215 0.0
C2374 C 0.57766 0.4401 0.11936 0.0
C2375 C 0.55652 0.44477 0.13259 0.0
C2376 C 0.60177 0.44844 0.13487 0.0
C2377 C 0.57725 0.45155 0.09522 0.0
C2378 C 0.57455 0.43455 0.07714 0.0
C2379 C 0.57372 0.44057 0.05336 0.0
C2380 C 0.57554 0.46383 0.04781 0.0
C2381 C 0.57824 0.48228 0.0655 0.0
C2382 C 0.57906 0.47541 0.08987 0.0
H2383 H 1.01939 0.32219 0.36743 0.0
H2384 H 1.00314 0.25921 0.40172 0.0
H2385 H 0.96101 0.2539 0.38306 0.0
H2386 H 0.96178 0.3401 0.37554 0.0
H2387 H 0.95904 0.35303 0.34752 0.0
H2388 H 0.98842 0.35158 0.36236 0.0
H2389 H 0.99864 0.33099 0.32455 0.0
H2390 H 0.96927 0.33236 0.30962 0.0
H2391 H 0.97903 0.30535 0.31179 0.0
H2392 H 0.91948 0.25443 0.35917 0.0
H2393 H 0.88277 0.26249 0.33611 0.0
H2394 H 0.92266 0.32691 0.3191 0.0
C2395 C 1.00705 0.30715 0.37088 0.0
C2396 C 1.01538 0.29091 0.38616 0.0
C2397 C 0.99791 0.2719 0.39025 0.0
C2398 C 0.97366 0.2687 0.37957 0.0
C2399 C 0.96608 0.28485 0.3648 0.0
C2400 C 0.98221 0.30394 0.3607 0.0
C2401 C 0.96878 0.31922 0.34501 0.0
C2402 C 0.96956 0.34236 0.3584 0.0
C2403 C 0.97958 0.32216 0.32134 0.0
C2404 C 0.94281 0.30573 0.34079 0.0
C2405 C 0.94186 0.28578 0.3522 0.0
C2406 C 0.92021 0.27014 0.35042 0.0
C2407 C 0.89919 0.27489 0.33705 0.0
C2408 C 0.89903 0.29542 0.32547 0.0
C2409 C 0.92157 0.31105 0.32762 0.0
H2410 H 0.08448 0.71683 0.64236 0.0
H2411 H 0.04644 0.74264 0.5821 0.0
H2412 H 0.04492 0.70633 0.55874 0.0
H2413 H 0.12061 0.68475 0.60683 0.0
H2414 H 0.11925 0.66108 0.62539 0.0
H2415 H 0.11731 0.68887 0.63802 0.0
H2416 H 0.07715 0.67247 0.65323 0.0
H2417 H 0.079 0.64465 0.64061 0.0
H2418 H 0.05275 0.65709 0.6325 0.0
H2419 H 0.04687 0.66552 0.54058 0.0
H2420 H 0.05282 0.62676 0.52976 0.0
H2421 H 0.09086 0.62418 0.59999 0.0
C2422 C 0.07573 0.71496 0.62425 0.0
C2423 C 0.06542 0.73371 0.61462 0.0
C2424 C 0.05448 0.72949 0.59056 0.0
C2425 C 0.05352 0.70851 0.57692 0.0
C2426 C 0.06369 0.69071 0.58681 0.0
C2427 C 0.07474 0.69371 0.61002 0.0
C2428 C 0.08456 0.67162 0.61599 0.0
C2429 C 0.11207 0.6769 0.62192 0.0
C2430 C 0.07266 0.66082 0.63683 0.0
C2431 C 0.07729 0.6558 0.59273 0.0
C2432 C 0.06516 0.66737 0.57624 0.0
C2433 C 0.05642 0.65664 0.55359 0.0
C2434 C 0.05995 0.6341 0.5475 0.0
C2435 C 0.07241 0.62114 0.56348 0.0
C2436 C 0.08123 0.63277 0.58676 0.0
H2437 H 0.68253 0.81998 0.90284 0.0
H2438 H 0.62836 0.77845 0.85161 0.0
H2439 H 0.6593 0.77458 0.82503 0.0
H2440 H 0.71662 0.84961 0.85708 0.0
H2441 H 0.74579 0.85077 0.87354 0.0
H2442 H 0.71968 0.85043 0.88916 0.0
H2443 H 0.72938 0.81527 0.91029 0.0
H2444 H 0.75544 0.81555 0.89455 0.0
H2445 H 0.73272 0.79029 0.89267 0.0
H2446 H 0.697 0.77379 0.80295 0.0
H2447 H 0.73641 0.77736 0.7876 0.0
H2448 H 0.7691 0.82058 0.85036 0.0
C2449 C 0.67707 0.81001 0.88606 0.0
C2450 C 0.65205 0.7994 0.87997 0.0
C2451 C 0.64668 0.78684 0.85739 0.0
C2452 C 0.66445 0.78449 0.84189 0.0
C2453 C 0.68851 0.79496 0.8483 0.0
C2454 C 0.69493 0.8077 0.86983 0.0
C2455 C 0.72229 0.81755 0.87175 0.0
C2456 C 0.72634 0.84364 0.87297 0.0
C2457 C 0.73576 0.80917 0.89363 0.0
C2458 C 0.73021 0.80803 0.84836 0.0
C2459 C 0.71019 0.79503 0.83521 0.0
C2460 C 0.71259 0.78409 0.81326 0.0
C2461 C 0.73547 0.78624 0.80453 0.0
C2462 C 0.75683 0.79944 0.81711 0.0
C2463 C 0.75366 0.81056 0.83963 0.0
H2464 H 0.43483 0.56219 0.66201 0.0
H2465 H 0.42896 0.49288 0.68285 0.0
H2466 H 0.4571 0.4852 0.65443 0.0
H2467 H 0.43993 0.54753 0.59731 0.0
H2468 H 0.4607 0.57353 0.59528 0.0
H2469 H 0.43783 0.57276 0.61519 0.0
H2470 H 0.47089 0.58777 0.65027 0.0
H2471 H 0.49388 0.58816 0.63064 0.0
H2472 H 0.49518 0.57234 0.65688 0.0
H2473 H 0.49091 0.48709 0.62983 0.0
H2474 H 0.52342 0.49636 0.60417 0.0
H2475 H 0.50489 0.56312 0.59616 0.0
C2476 C 0.43896 0.54524 0.66003 0.0
C2477 C 0.42985 0.52813 0.67457 0.0
C2478 C 0.43567 0.50617 0.67172 0.0
C2479 C 0.45169 0.50166 0.65571 0.0
C2480 C 0.46116 0.51914 0.64231 0.0
C2481 C 0.4545 0.54029 0.6437 0.0
C2482 C 0.46796 0.55625 0.62778 0.0
C2483 C 0.45057 0.5629 0.6077 0.0
C2484 C 0.48286 0.57737 0.64227 0.0
C2485 C 0.48398 0.54106 0.61816 0.0
C2486 C 0.47985 0.51977 0.62689 0.0
C2487 C 0.49394 0.50348 0.62235 0.0
C2488 C 0.51247 0.50895 0.60807 0.0
C2489 C 0.51636 0.53036 0.59833 0.0
C2490 C 0.50193 0.54655 0.6033 0.0
H2491 H 0.8436 0.25823 0.97105 0.0
H2492 H 0.76898 0.22435 0.96315 0.0
H2493 H 0.76264 0.23874 0.92339 0.0
H2494 H 0.83419 0.30842 0.93808 0.0
H2495 H 0.86127 0.30936 0.92385 0.0
H2496 H 0.85973 0.29837 0.95285 0.0
H2497 H 0.87109 0.26084 0.93674 0.0
H2498 H 0.8726 0.27169 0.90771 0.0
H2499 H 0.85322 0.24515 0.91101 0.0
H2500 H 0.76427 0.25491 0.88417 0.0
H2501 H 0.7741 0.27086 0.84656 0.0
H2502 H 0.8483 0.29353 0.87762 0.0
C2503 C 0.82586 0.25428 0.96107 0.0
C2504 C 0.80667 0.24036 0.9703 0.0
C2505 C 0.78388 0.23504 0.95648 0.0
C2506 C 0.78007 0.24318 0.93388 0.0
C2507 C 0.79931 0.25651 0.92507 0.0
C2508 C 0.82182 0.262 0.93808 0.0
C2509 C 0.83968 0.27534 0.92343 0.0
C2510 C 0.84929 0.2993 0.93526 0.0
C2511 C 0.86037 0.26249 0.9195 0.0
C2512 C 0.8237 0.27622 0.90022 0.0
C2513 C 0.80044 0.26543 0.90179 0.0
C2514 C 0.7824 0.26351 0.88273 0.0
C2515 C 0.78822 0.27267 0.86136 0.0
C2516 C 0.81199 0.28356 0.85895 0.0
C2517 C 0.82992 0.28546 0.87883 0.0
H2518 H 0.1035 0.51227 0.22311 0.0
H2519 H 0.13724 0.45583 0.20219 0.0
H2520 H 0.11524 0.45375 0.16172 0.0
H2521 H 0.04477 0.49663 0.18155 0.0
H2522 H 0.04538 0.52606 0.17589 0.0
H2523 H 0.05748 0.51856 0.20461 0.0
H2524 H 0.09806 0.54461 0.20052 0.0
H2525 H 0.08629 0.55197 0.17184 0.0
H2526 H 0.11348 0.54005 0.17488 0.0
H2527 H 0.09586 0.46232 0.12229 0.0
H2528 H 0.08386 0.48222 0.08712 0.0
H2529 H 0.06565 0.53523 0.13331 0.0
C2530 C 0.10532 0.49873 0.21036 0.0
C2531 C 0.12162 0.48388 0.21583 0.0
C2532 C 0.12447 0.46709 0.19839 0.0
C2533 C 0.11199 0.46577 0.17541 0.0
C2534 C 0.09692 0.48148 0.1702 0.0
C2535 C 0.09355 0.49766 0.18725 0.0
C2536 C 0.08038 0.51529 0.17628 0.0
C2537 C 0.05552 0.51405 0.18511 0.0
C2538 C 0.09546 0.53938 0.18116 0.0
C2539 C 0.07804 0.50727 0.15023 0.0
C2540 C 0.08688 0.4873 0.14714 0.0
C2541 C 0.08849 0.47771 0.12453 0.0
C2542 C 0.08163 0.48918 0.10463 0.0
C2543 C 0.07385 0.51031 0.10751 0.0
C2544 C 0.07134 0.51902 0.13058 0.0
H2545 H 0.84539 0.88922 0.46943 0.0
H2546 H 0.76787 0.87642 0.46946 0.0
H2547 H 0.76333 0.85661 0.42942 0.0
H2548 H 0.84526 0.89893 0.40595 0.0
H2549 H 0.87035 0.8849 0.40173 0.0
H2550 H 0.86793 0.89798 0.43058 0.0
H2551 H 0.87027 0.85997 0.44951 0.0
H2552 H 0.87274 0.84679 0.42071 0.0
H2553 H 0.84925 0.8348 0.43784 0.0
H2554 H 0.76675 0.83779 0.38767 0.0
H2555 H 0.77763 0.82193 0.35006 0.0
H2556 H 0.85321 0.84556 0.37481 0.0
C2557 C 0.8274 0.88217 0.46113 0.0
C2558 C 0.80693 0.88469 0.47345 0.0
C2559 C 0.78396 0.87503 0.46117 0.0
C2560 C 0.78118 0.86362 0.4381 0.0
C2561 C 0.80149 0.86153 0.42656 0.0
C2562 C 0.82426 0.87052 0.43773 0.0
C2563 C 0.84306 0.86581 0.42113 0.0
C2564 C 0.85751 0.88824 0.41446 0.0
C2565 C 0.85983 0.85097 0.43301 0.0
C2566 C 0.82743 0.85285 0.399 0.0
C2567 C 0.80345 0.85066 0.40264 0.0
C2568 C 0.78554 0.83952 0.38491 0.0
C2569 C 0.79199 0.83045 0.36326 0.0
C2570 C 0.81639 0.83212 0.35858 0.0
C2571 C 0.83432 0.84369 0.37718 0.0
H2572 H 0.47718 0.55146 0.78004 0.0
H2573 H 0.43527 0.60076 0.80334 0.0
H2574 H 0.4638 0.61038 0.8402 0.0
H2575 H 0.48351 0.52889 0.83322 0.0
H2576 H 0.51331 0.52272 0.8315 0.0
H2577 H 0.49389 0.52419 0.80465 0.0
H2578 H 0.52635 0.5548 0.79035 0.0
H2579 H 0.546 0.55336 0.81726 0.0
H2580 H 0.5384 0.58023 0.80922 0.0
H2581 H 0.49354 0.61074 0.87656 0.0
H2582 H 0.51893 0.59953 0.91049 0.0
H2583 H 0.53811 0.5469 0.86438 0.0
C2584 C 0.4746 0.56498 0.79243 0.0
C2585 C 0.4544 0.57577 0.78872 0.0
C2586 C 0.45091 0.59261 0.80578 0.0
C2587 C 0.46707 0.59821 0.82667 0.0
C2588 C 0.48639 0.58662 0.83022 0.0
C2589 C 0.49012 0.57027 0.81355 0.0
C2590 C 0.50942 0.55742 0.82317 0.0
C2591 C 0.49942 0.53181 0.82314 0.0
C2592 C 0.53134 0.56172 0.80916 0.0
C2593 C 0.51534 0.56844 0.84822 0.0
C2594 C 0.50246 0.58571 0.85173 0.0
C2595 C 0.50382 0.59734 0.87394 0.0
C2596 C 0.5181 0.59067 0.89317 0.0
C2597 C 0.53036 0.57212 0.89024 0.0
C2598 C 0.52942 0.5614 0.86724 0.0
H2599 H 0.79693 0.22979 0.11636 0.0
H2600 H 0.8669 0.25937 0.09697 0.0
H2601 H 0.87922 0.27543 0.13846 0.0
H2602 H 0.79076 0.27601 0.15765 0.0
H2603 H 0.77643 0.25764 0.17821 0.0
H2604 H 0.77307 0.24875 0.14696 0.0
H2605 H 0.78933 0.21208 0.15713 0.0
H2606 H 0.79296 0.22098 0.18842 0.0
H2607 H 0.81828 0.21426 0.17451 0.0
H2608 H 0.88385 0.28864 0.182 0.0
H2609 H 0.88019 0.29887 0.22409 0.0
H2610 H 0.80763 0.25985 0.21597 0.0
C2611 C 0.8148 0.23978 0.1208 0.0
C2612 C 0.83093 0.24341 0.10331 0.0
C2613 C 0.8542 0.25642 0.10997 0.0
C2614 C 0.86139 0.26555 0.13353 0.0
C2615 C 0.84517 0.26145 0.15037 0.0
C2616 C 0.82233 0.24891 0.14432 0.0
C2617 C 0.80841 0.247 0.16589 0.0
C2618 C 0.78584 0.25801 0.16194 0.0
C2619 C 0.80186 0.22209 0.17183 0.0
C2620 C 0.82693 0.26053 0.18499 0.0
C2621 C 0.84801 0.2687 0.17561 0.0
C2622 C 0.86747 0.28223 0.18953 0.0
C2623 C 0.86523 0.28793 0.21348 0.0
C2624 C 0.84372 0.28004 0.2235 0.0
C2625 C 0.82447 0.26585 0.20903 0.0
H2626 H 0.16055 0.54895 0.34534 0.0
H2627 H 0.12331 0.5666 0.27991 0.0
H2628 H 0.10322 0.59243 0.30317 0.0
H2629 H 0.11426 0.54552 0.37892 0.0
H2630 H 0.13196 0.55771 0.40634 0.0
H2631 H 0.1458 0.54379 0.38412 0.0
H2632 H 0.17768 0.58036 0.38355 0.0
H2633 H 0.16358 0.5945 0.40562 0.0
H2634 H 0.16799 0.6069 0.37769 0.0
H2635 H 0.08135 0.6096 0.33392 0.0
H2636 H 0.06081 0.61721 0.36924 0.0
H2637 H 0.11546 0.59157 0.41408 0.0
C2638 C 0.14854 0.55866 0.33594 0.0
C2639 C 0.14329 0.55582 0.31099 0.0
C2640 C 0.12755 0.56869 0.29912 0.0
C2641 C 0.11619 0.58345 0.31215 0.0
C2642 C 0.12141 0.58561 0.33691 0.0
C2643 C 0.13758 0.57383 0.34861 0.0
C2644 C 0.13866 0.57753 0.37533 0.0
C2645 C 0.13227 0.5548 0.38683 0.0
C2646 C 0.16346 0.59061 0.38618 0.0
C2647 C 0.11942 0.59199 0.37689 0.0
C2648 C 0.10983 0.59677 0.35459 0.0
C2649 C 0.08926 0.60674 0.35152 0.0
C2650 C 0.07773 0.61106 0.37163 0.0
C2651 C 0.08697 0.60557 0.39441 0.0
C2652 C 0.10864 0.5969 0.39706 0.0
H2653 H 0.80651 0.85762 0.60383 0.0
H2654 H 0.82387 0.92803 0.63161 0.0
H2655 H 0.82772 0.91573 0.67248 0.0
H2656 H 0.77126 0.83698 0.65215 0.0
H2657 H 0.78192 0.81034 0.65355 0.0
H2658 H 0.78057 0.82416 0.62597 0.0
H2659 H 0.82568 0.82349 0.624 0.0
H2660 H 0.82714 0.80966 0.65158 0.0
H2661 H 0.84736 0.83584 0.64883 0.0
H2662 H 0.83046 0.89598 0.71209 0.0
H2663 H 0.83101 0.87111 0.74549 0.0
H2664 H 0.81128 0.812 0.69525 0.0
C2665 C 0.81113 0.87052 0.61845 0.0
C2666 C 0.81485 0.89425 0.61355 0.0
C2667 C 0.82082 0.90997 0.63395 0.0
C2668 C 0.82311 0.90304 0.65764 0.0
C2669 C 0.81938 0.87991 0.6618 0.0
C2670 C 0.81344 0.86377 0.64276 0.0
C2671 C 0.81031 0.83993 0.6527 0.0
C2672 C 0.78448 0.82708 0.64567 0.0
C2673 C 0.82871 0.82642 0.64373 0.0
C2674 C 0.81537 0.8452 0.68007 0.0
C2675 C 0.82065 0.8685 0.68473 0.0
C2676 C 0.82624 0.87774 0.70838 0.0
C2677 C 0.82651 0.86324 0.72755 0.0
C2678 C 0.82111 0.83912 0.72394 0.0
C2679 C 0.8154 0.83019 0.69936 0.0
H2680 H 0.76674 0.41594 0.56147 0.0
H2681 H 0.83022 0.46877 0.57498 0.0
H2682 H 0.80491 0.49644 0.5857 0.0
H2683 H 0.72732 0.45093 0.53492 0.0
H2684 H 0.70132 0.43767 0.54804 0.0
H2685 H 0.72445 0.42167 0.54209 0.0
H2686 H 0.72934 0.41223 0.58637 0.0
H2687 H 0.70622 0.42823 0.59243 0.0
H2688 H 0.73554 0.43503 0.60945 0.0
H2689 H 0.77304 0.51856 0.59439 0.0
H2690 H 0.73616 0.53406 0.59952 0.0
H2691 H 0.69307 0.46715 0.58053 0.0
C2692 C 0.77528 0.43332 0.56676 0.0
C2693 C 0.80045 0.44021 0.56742 0.0
C2694 C 0.81097 0.46311 0.57434 0.0
C2695 C 0.79676 0.47896 0.58051 0.0
C2696 C 0.77204 0.47167 0.57966 0.0
C2697 C 0.76132 0.44944 0.57294 0.0
C2698 C 0.73424 0.44626 0.57309 0.0
C2699 C 0.72106 0.43869 0.54804 0.0
C2700 C 0.72585 0.42944 0.59143 0.0
C2701 C 0.73147 0.47022 0.58073 0.0
C2702 C 0.75353 0.48454 0.58458 0.0
C2703 C 0.75565 0.5075 0.59156 0.0
C2704 C 0.73461 0.51611 0.59456 0.0
C2705 C 0.71175 0.50182 0.59051 0.0
C2706 C 0.71027 0.47854 0.58359 0.0
H2707 H 0.25724 0.143 0.51094 0.0
H2708 H 0.29198 0.12218 0.57613 0.0
H2709 H 0.25316 0.10005 0.58407 0.0
H2710 H 0.1995 0.14727 0.53232 0.0
H2711 H 0.18136 0.13545 0.50502 0.0
H2712 H 0.21171 0.15021 0.50426 0.0
H2713 H 0.22203 0.11501 0.48207 0.0
H2714 H 0.1917 0.10016 0.48274 0.0
H2715 H 0.21686 0.08789 0.49486 0.0
H2716 H 0.20925 0.08107 0.58655 0.0
H2717 H 0.1659 0.06461 0.58147 0.0
H2718 H 0.15779 0.09385 0.51315 0.0
C2719 C 0.25674 0.13375 0.52688 0.0
C2720 C 0.27838 0.13474 0.54293 0.0
C2721 C 0.27628 0.12202 0.5634 0.0
C2722 C 0.25403 0.10931 0.56815 0.0
C2723 C 0.23326 0.10873 0.55219 0.0
C2724 C 0.23442 0.12038 0.53173 0.0
C2725 C 0.20927 0.11615 0.51724 0.0
C2726 C 0.19991 0.13861 0.51454 0.0
C2727 C 0.21001 0.10409 0.49277 0.0
C2728 C 0.19387 0.10054 0.53277 0.0
C2729 C 0.20818 0.09677 0.55301 0.0
C2730 C 0.19811 0.08379 0.57057 0.0
C2731 C 0.17318 0.07442 0.56752 0.0
C2732 C 0.1578 0.07734 0.5468 0.0
C2733 C 0.1687 0.09071 0.52912 0.0
H2734 H 0.32207 0.04205 0.84882 0.0
H2735 H 0.27869 1.00621 0.89826 0.0
H2736 H 0.30572 0.97807 0.90131 0.0
H2737 H 0.32691 0.99638 0.81573 0.0
H2738 H 0.35734 1.00504 0.80897 0.0
H2739 H 0.33985 0.02611 0.81639 0.0
H2740 H 0.37295 0.04362 0.85058 0.0
H2741 H 0.39064 0.02247 0.84319 0.0
H2742 H 0.38289 0.02592 0.87309 0.0
H2743 H 0.33044 0.94979 0.89214 0.0
H2744 H 0.34843 0.92249 0.86947 0.0
H2745 H 0.37707 0.97577 0.8257 0.0
C2746 C 0.31903 0.02883 0.8611 0.0
C2747 C 0.2986 0.02634 0.87354 0.0
C2748 C 0.29442 1.00841 0.88873 0.0
C2749 C 0.30981 0.99248 0.89073 0.0
C2750 C 0.32928 0.99473 0.87741 0.0
C2751 C 0.33403 1.01253 0.86292 0.0
C2752 C 0.35309 1.00871 0.84706 0.0
C2753 C 0.34372 1.00906 0.82049 0.0
C2754 C 0.37627 0.02622 0.8539 0.0
C2755 C 0.35679 0.98518 0.85346 0.0
C2756 C 0.3436 0.97782 0.87166 0.0
C2757 C 0.34143 0.95557 0.87838 0.0
C2758 C 0.35188 0.94012 0.86538 0.0
C2759 C 0.36417 0.94691 0.84566 0.0
C2760 C 0.36775 0.97005 0.84062 0.0
H2761 H 0.40416 0.96027 0.0402 0.0
H2762 H 0.43179 0.902 0.06703 0.0
H2763 H 0.47274 0.92492 0.07412 0.0
H2764 H 0.45454 0.98036 1.00896 0.0
H2765 H 0.45368 1.00996 1.01551 0.0
H2766 H 0.42645 0.9892 1.0136 0.0
H2767 H 0.41959 1.00307 0.05609 0.0
H2768 H 0.44696 0.02373 0.0582 0.0
H2769 H 0.44285 1.00342 0.08052 0.0
H2770 H 0.5107 0.95402 0.07795 0.0
H2771 H 0.54354 0.98615 0.07504 0.0
H2772 H 0.49138 0.02532 0.04484 0.0
C2773 C 0.41883 0.95237 0.04763 0.0
C2774 C 0.41482 0.92939 0.05315 0.0
C2775 C 0.43448 0.91958 0.06264 0.0
C2776 C 0.45778 0.93249 0.06685 0.0
C2777 C 0.46112 0.95515 0.06136 0.0
C2778 C 0.44225 0.96496 0.05173 0.0
C2779 C 0.45092 0.98933 0.04635 0.0
C2780 C 0.44612 0.99238 0.01951 0.0
C2781 C 0.43939 1.00586 0.06118 0.0
C2782 C 0.47762 0.99165 0.05436 0.0
C2783 C 0.48309 0.97182 0.06318 0.0
C2784 C 0.50663 0.96967 0.07114 0.0
C2785 C 0.52518 0.98808 0.06949 0.0
C2786 C 0.52011 1.00834 0.05978 0.0
C2787 C 0.4959 1.01018 0.05254 0.0
H2788 H 0.95282 0.6341 0.76494 0.0
H2789 H 0.99844 0.69566 0.79813 0.0
H2790 H 0.97175 0.71864 0.77693 0.0
H2791 H 0.93612 0.6571 0.70698 0.0
H2792 H 0.90574 0.6415 0.7045 0.0
H2793 H 0.93005 0.63004 0.71979 0.0
H2794 H 0.9077 0.62666 0.75749 0.0
H2795 H 0.88331 0.63788 0.74226 0.0
H2796 H 0.89833 0.65144 0.77032 0.0
H2797 H 0.938 0.73442 0.75615 0.0
H2798 H 0.89861 0.74191 0.73961 0.0
H2799 H 0.87528 0.67018 0.71839 0.0
C2800 C 0.9574 0.65244 0.76747 0.0
C2801 C 0.97768 0.66316 0.78311 0.0
C2802 C 0.98296 0.68715 0.7862 0.0
C2803 C 0.96803 0.70032 0.7741 0.0
C2804 C 0.94807 0.68919 0.75888 0.0
C2805 C 0.94273 0.66579 0.75554 0.0
C2806 C 0.91906 0.65793 0.73997 0.0
C2807 C 0.92299 0.64594 0.71641 0.0
C2808 C 0.90104 0.64259 0.75332 0.0
C2809 C 0.91138 0.68055 0.73589 0.0
C2810 C 0.9286 0.69838 0.74656 0.0
C2811 C 0.92464 0.72067 0.74722 0.0
C2812 C 0.90218 0.72478 0.7375 0.0
C2813 C 0.88389 0.70668 0.72723 0.0
C2814 C 0.88896 0.6844 0.72577 0.0
H2815 H 0.90073 0.61006 0.03094 0.0
H2816 H 0.9363 0.67902 0.05309 0.0
H2817 H 0.97539 0.66609 0.05805 0.0
H2818 H 0.93969 0.58123 0.07082 0.0
H2819 H 0.94081 0.55812 0.0495 0.0
H2820 H 0.91506 0.5722 0.0476 0.0
H2821 H 0.92095 0.58067 1.00413 0.0
H2822 H 0.94669 0.56656 1.00592 0.0
H2823 H 0.94967 0.59543 0.99747 0.0
H2824 H 1.01207 0.64586 0.06165 0.0
H2825 H 0.04238 0.62117 0.06236 0.0
H2826 H 0.98661 0.56347 0.03678 0.0
C2827 C 0.9167 0.62252 0.03686 0.0
C2828 C 0.91454 0.64604 0.04164 0.0
C2829 C 0.93656 0.66118 0.0492 0.0
C2830 C 0.95922 0.65386 0.05213 0.0
C2831 C 0.9607 0.63094 0.04736 0.0
C2832 C 0.94002 0.6154 0.0397 0.0
C2833 C 0.94725 0.59175 0.0355 0.0
C2834 C 0.93496 0.57481 0.05182 0.0
C2835 C 0.94074 0.58308 1.00919 0.0
C2836 C 0.97499 0.59638 0.0422 0.0
C2837 C 0.98209 0.61925 0.04902 0.0
C2838 C 1.00643 0.62799 0.05625 0.0
C2839 C 1.02383 0.61348 0.05663 0.0
C2840 C 1.01789 0.58975 0.04975 0.0
C2841 C 0.99257 0.58129 0.04226 0.0
H2842 H 0.28924 0.14348 0.86526 0.0
H2843 H 0.2133 0.13199 0.83841 0.0
H2844 H 0.21769 0.17115 0.82581 0.0
H2845 H 0.29372 0.20442 0.88602 0.0
H2846 H 0.32347 0.21185 0.8771 0.0
H2847 H 0.31361 0.18391 0.88675 0.0
H2848 H 0.3234 0.16601 0.84706 0.0
H2849 H 0.33303 0.19382 0.8372 0.0
H2850 H 0.30979 0.17396 0.81919 0.0
H2851 H 0.23143 0.20951 0.81125 0.0
H2852 H 0.25319 0.24545 0.79853 0.0
H2853 H 0.31974 0.23225 0.83587 0.0
C2854 C 0.27342 0.14942 0.85731 0.0
C2855 C 0.25094 0.13476 0.85286 0.0
C2856 C 0.2307 0.143 0.84209 0.0
C2857 C 0.233 0.16521 0.83486 0.0
C2858 C 0.25558 0.17904 0.83881 0.0
C2859 C 0.27537 0.1716 0.85011 0.0
C2860 C 0.29791 0.18934 0.85089 0.0
C2861 C 0.30775 0.19789 0.87673 0.0
C2862 C 0.31715 0.18023 0.8378 0.0
C2863 C 0.28785 0.20756 0.83755 0.0
C2864 C 0.26339 0.20137 0.83081 0.0
C2865 C 0.25052 0.21475 0.81679 0.0
C2866 C 0.26303 0.23503 0.8095 0.0
C2867 C 0.28807 0.24167 0.81632 0.0
C2868 C 0.30049 0.22781 0.83071 0.0
H2869 H 0.47427 0.0575 0.30137 0.0
H2870 H 0.51803 0.04776 0.24456 0.0
H2871 H 0.49858 1.00733 0.23862 0.0
H2872 H 0.47871 1.00688 0.32692 0.0
H2873 H 0.44844 1.00158 0.33491 0.0
H2874 H 0.4633 0.03024 0.33243 0.0
H2875 H 0.42815 0.0366 0.30177 0.0
H2876 H 0.41309 1.00793 0.30423 0.0
H2877 H 0.41935 1.01748 0.27546 0.0
H2878 H 0.47772 0.96726 0.24206 0.0
H2879 H 0.45669 0.93074 0.2542 0.0
H2880 H 0.42677 0.9669 0.30883 0.0
C2881 C 0.47938 0.047 0.2873 0.0
C2882 C 0.49755 0.05574 0.27331 0.0
C2883 C 0.50404 0.0414 0.25536 0.0
C2884 C 0.49307 1.01844 0.25185 0.0
C2885 C 0.47559 1.01023 0.26635 0.0
C2886 C 0.46868 0.02412 0.28362 0.0
C2887 C 0.45091 1.01083 0.29811 0.0
C2888 C 0.46095 1.01248 0.32465 0.0
C2889 C 0.42642 1.01868 0.29468 0.0
C2890 C 0.44936 0.98714 0.28675 0.0
C2891 C 0.46356 0.98716 0.26832 0.0
C2892 C 0.46629 0.96708 0.25622 0.0
C2893 C 0.45441 0.94644 0.26332 0.0
C2894 C 0.44004 0.94607 0.28235 0.0
C2895 C 0.43724 0.96673 0.29391 0.0
H2896 H 0.62377 0.41239 0.62834 0.0
H2897 H 0.55406 0.38602 0.65043 0.0
H2898 H 0.53428 0.40531 0.61818 0.0
H2899 H 0.61272 0.46616 0.61597 0.0
H2900 H 0.62958 0.46827 0.59066 0.0
H2901 H 0.63723 0.45075 0.61409 0.0
H2902 H 0.63215 0.4165 0.58279 0.0
H2903 H 0.62389 0.43403 0.55941 0.0
H2904 H 0.60402 0.40811 0.5639 0.0
H2905 H 0.52296 0.43101 0.58655 0.0
H2906 H 0.52144 0.46267 0.56042 0.0
H2907 H 0.59845 0.46945 0.55752 0.0
C2908 C 0.60432 0.41057 0.62634 0.0
C2909 C 0.59039 0.39791 0.64186 0.0
C2910 C 0.56501 0.39578 0.63867 0.0
C2911 C 0.55364 0.40647 0.62031 0.0
C2912 C 0.56796 0.41876 0.60516 0.0
C2913 C 0.59276 0.42079 0.608 0.0
C2914 C 0.60431 0.43613 0.59053 0.0
C2915 C 0.62197 0.45653 0.60361 0.0
C2916 C 0.61682 0.42289 0.57313 0.0
C2917 C 0.58221 0.44328 0.57806 0.0
C2918 C 0.56134 0.43287 0.58643 0.0
C2919 C 0.53908 0.43889 0.57945 0.0
C2920 C 0.53836 0.45681 0.56448 0.0
C2921 C 0.55983 0.46845 0.55692 0.0
C2922 C 0.58169 0.46071 0.5628 0.0
H2923 H 0.49703 0.76021 0.36243 0.0
H2924 H 0.45994 0.70104 0.39291 0.0
H2925 H 0.42304 0.70257 0.36585 0.0
H2926 H 0.4514 0.79005 0.36051 0.0
H2927 H 0.45674 0.80277 0.33292 0.0
H2928 H 0.48112 0.79423 0.35107 0.0
H2929 H 0.48948 0.769 0.31535 0.0
H2930 H 0.46507 0.77755 0.29698 0.0
H2931 H 0.46549 0.74783 0.30019 0.0
H2932 H 0.38881 0.71448 0.34021 0.0
H2933 H 0.36047 0.73572 0.31886 0.0
H2934 H 0.42067 0.78679 0.3053 0.0
C2935 C 0.48135 0.74718 0.36296 0.0
C2936 C 0.48126 0.73048 0.37965 0.0
C2937 C 0.46036 0.71389 0.38008 0.0
C2938 C 0.43938 0.71459 0.36474 0.0
C2939 C 0.43984 0.73179 0.34895 0.0
C2940 C 0.46042 0.74764 0.34783 0.0
C2941 C 0.45572 0.7659 0.3314 0.0
C2942 C 0.46158 0.78962 0.34478 0.0
C2943 C 0.46977 0.765 0.30969 0.0
C2944 C 0.429 0.75855 0.32434 0.0
C2945 C 0.42018 0.73861 0.33421 0.0
C2946 C 0.3956 0.72981 0.33196 0.0
C2947 C 0.37963 0.74202 0.31981 0.0
C2948 C 0.38837 0.7629 0.31036 0.0
C2949 C 0.41341 0.77078 0.31209 0.0
H2950 H 0.14381 0.80349 0.13765 0.0
H2951 H 0.15305 0.80371 0.21483 0.0
H2952 H 0.1519 0.76221 0.21177 0.0
H2953 H 0.10243 0.75246 0.12656 0.0
H2954 H 0.11444 0.7431 0.10027 0.0
H2955 H 0.1177 0.77298 0.10854 0.0
H2956 H 0.16399 0.77742 0.10881 0.0
H2957 H 0.16088 0.74754 0.10043 0.0
H2958 H 0.18032 0.75981 0.12682 0.0
H2959 H 0.14694 0.72049 0.20023 0.0
H2960 H 0.14014 0.6816 0.18101 0.0
H2961 H 0.13434 0.70895 0.11143 0.0
C2962 C 0.14588 0.79484 0.1539 0.0
C2963 C 0.14852 0.80672 0.17647 0.0
C2964 C 0.15111 0.79487 0.19736 0.0
C2965 C 0.15046 0.77133 0.1958 0.0
C2966 C 0.14747 0.76005 0.17324 0.0
C2967 C 0.14544 0.77144 0.15267 0.0
C2968 C 0.14174 0.75528 0.13062 0.0
C2969 C 0.11764 0.756 0.11563 0.0
C2970 C 0.163 0.76031 0.1158 0.0
C2971 C 0.14137 0.73295 0.14201 0.0
C2972 C 0.14483 0.73607 0.1666 0.0
C2973 C 0.1444 0.71785 0.18099 0.0
C2974 C 0.14035 0.69584 0.16993 0.0
C2975 C 0.13675 0.6923 0.14475 0.0
C2976 C 0.1374 0.71116 0.1307 0.0
H2977 H 0.09557 0.27898 0.85084 0.0
H2978 H 0.0758 0.20622 0.83432 0.0
H2979 H 0.10036 0.20937 0.80054 0.0
H2980 H 0.09724 0.29536 0.78884 0.0
H2981 H 0.1228 0.31771 0.79728 0.0
H2982 H 0.10129 0.30996 0.81805 0.0
H2983 H 0.13561 0.30293 0.84942 0.0
H2984 H 0.15713 0.31091 0.82891 0.0
H2985 H 0.15516 0.28368 0.84147 0.0
H2986 H 0.13071 0.22018 0.77163 0.0
H2987 H 0.16543 0.2373 0.75157 0.0
H2988 H 0.16431 0.30275 0.78756 0.0
C2989 C 0.09611 0.26372 0.83993 0.0
C2990 C 0.08388 0.24236 0.84512 0.0
C2991 C 0.0851 0.22276 0.83055 0.0
C2992 C 0.09884 0.22442 0.81127 0.0
C2993 C 0.11088 0.24581 0.80675 0.0
C2994 C 0.10955 0.2651 0.82069 0.0
C2995 C 0.1257 0.28579 0.81361 0.0
C2996 C 0.11086 0.30323 0.80386 0.0
C2997 C 0.14451 0.29643 0.83459 0.0
C2998 C 0.13715 0.27502 0.79412 0.0
C2999 C 0.12812 0.25204 0.79007 0.0
C3000 C 0.13762 0.23823 0.77435 0.0
C3001 C 0.15735 0.24806 0.76311 0.0
C3002 C 0.16739 0.27139 0.76785 0.0
C3003 C 0.15659 0.28505 0.78297 0.0
H3004 H 0.57647 0.7081 0.93325 0.0
H3005 H 0.59271 0.7526 0.99787 0.0
H3006 H 0.59097 0.71907 0.02173 0.0
H3007 H 0.53515 0.66208 0.95718 0.0
H3008 H 0.54552 0.63908 0.94194 0.0
H3009 H 0.54756 0.66633 0.92937 0.0
H3010 H 0.5931 0.66806 0.92804 0.0
H3011 H 0.59113 0.6408 0.94059 0.0
H3012 H 0.61203 0.66496 0.95493 0.0
H3013 H 0.58696 0.67921 0.04021 0.0
H3014 H 0.5829 0.63948 0.05059 0.0
H3015 H 0.5703 0.61715 0.97546 0.0
C3016 C 0.57965 0.71096 0.95245 0.0
C3017 C 0.58472 0.73419 0.96313 0.0
C3018 C 0.58878 0.73592 0.98853 0.0
C3019 C 0.58779 0.71656 1.0025 0.0
C3020 C 0.58281 0.69432 0.99158 0.0
C3021 C 0.57892 0.69137 0.96698 0.0
C3022 C 0.57437 0.66531 0.95997 0.0
C3023 C 0.54916 0.65775 0.94628 0.0
C3024 C 0.59381 0.65943 0.94498 0.0
C3025 C 0.57619 0.65413 0.98425 0.0
C3026 C 0.58098 0.67145 1.00217 0.0
C3027 C 0.58327 0.66582 0.02604 0.0
C3028 C 0.58081 0.64265 0.03188 0.0
C3029 C 0.57611 0.62384 1.01442 0.0
C3030 C 0.57382 0.63028 0.98989 0.0
H3031 H 0.13735 0.78728 0.71785 0.0
H3032 H 0.15584 0.83023 0.66072 0.0
H3033 H 0.19877 0.83488 0.67622 0.0
H3034 H 0.18407 0.81761 0.76405 0.0
H3035 H 0.19086 0.79236 0.7773 0.0
H3036 H 0.16118 0.79251 0.76239 0.0
H3037 H 0.16457 0.75756 0.73514 0.0
H3038 H 0.19426 0.75731 0.74997 0.0
H3039 H 0.1898 0.75867 0.71807 0.0
H3040 H 0.24075 0.83601 0.69828 0.0
H3041 H 0.27772 0.83193 0.72342 0.0
H3042 H 0.23524 0.78657 0.76652 0.0
C3043 C 0.15039 0.79775 0.70862 0.0
C3044 C 0.14246 0.80852 0.68777 0.0
C3045 C 0.16073 0.82178 0.67652 0.0
C3046 C 0.18547 0.82457 0.68531 0.0
C3047 C 0.19261 0.81386 0.70561 0.0
C3048 C 0.17565 0.80053 0.71712 0.0
C3049 C 0.1887 0.79054 0.73836 0.0
C3050 C 0.18072 0.79874 0.76193 0.0
C3051 C 0.18405 0.76447 0.73519 0.0
C3052 C 0.21546 0.80032 0.73697 0.0
C3053 C 0.21707 0.8139 0.71796 0.0
C3054 C 0.23951 0.8253 0.71311 0.0
C3055 C 0.26068 0.82289 0.72773 0.0
C3056 C 0.26018 0.80891 0.74735 0.0
C3057 C 0.23683 0.79736 0.75179 0.0
H3058 H 0.08081 0.38463 0.43292 0.0
H3059 H 0.09987 0.35345 0.49805 0.0
H3060 H 0.10056 0.38978 0.52112 0.0
H3061 H 0.1176 0.44132 0.45047 0.0
H3062 H 0.09595 0.45702 0.43688 0.0
H3063 H 0.09688 0.42869 0.42504 0.0
H3064 H 0.05192 0.41648 0.42985 0.0
H3065 H 0.05087 0.44478 0.44169 0.0
H3066 H 0.0417 0.42073 0.45858 0.0
H3067 H 0.0994 0.43127 0.5385 0.0
H3068 H 0.09631 0.47122 0.5477 0.0
H3069 H 0.07751 0.47865 0.47253 0.0
C3070 C 0.08518 0.38531 0.45206 0.0
C3071 C 0.09036 0.36507 0.46318 0.0
C3072 C 0.09582 0.36779 0.48847 0.0
C3073 C 0.09626 0.38877 0.50194 0.0
C3074 C 0.09114 0.40806 0.49057 0.0
C3075 C 0.08563 0.40653 0.46607 0.0
C3076 C 0.0807 0.43006 0.45844 0.0
C3077 C 0.09886 0.43985 0.4417 0.0
C3078 C 0.05476 0.42788 0.44641 0.0
C3079 C 0.08431 0.44503 0.48227 0.0
C3080 C 0.09035 0.43177 0.50053 0.0
C3081 C 0.09465 0.44147 0.52408 0.0
C3082 C 0.09282 0.46469 0.52923 0.0
C3083 C 0.08663 0.47935 0.51131 0.0
C3084 C 0.08231 0.46875 0.4872 0.0
H3085 H 0.50989 0.32558 0.22072 0.0
H3086 H 0.48264 0.27206 0.1652 0.0
H3087 H 0.44398 0.26483 0.18211 0.0
H3088 H 0.47859 0.29864 0.26891 0.0
H3089 H 0.47134 0.32449 0.28162 0.0
H3090 H 0.49753 0.32551 0.26593 0.0
H3091 H 0.4819 0.3539 0.23805 0.0
H3092 H 0.45569 0.35297 0.25368 0.0
H3093 H 0.45218 0.34656 0.22189 0.0
H3094 H 0.4068 0.2622 0.20573 0.0
H3095 H 0.3751 0.26617 0.23127 0.0
H3096 H 0.42238 0.3226 0.2722 0.0
C3097 C 0.49587 0.31225 0.21207 0.0
C3098 C 0.50033 0.29933 0.19113 0.0
C3099 C 0.48065 0.28236 0.18091 0.0
C3100 C 0.45824 0.27804 0.19058 0.0
C3101 C 0.4545 0.29088 0.21088 0.0
C3102 C 0.47273 0.30788 0.22146 0.0
C3103 C 0.46326 0.31956 0.24281 0.0
C3104 C 0.4786 0.3169 0.26621 0.0
C3105 C 0.46327 0.34475 0.23888 0.0
C3106 C 0.43712 0.30649 0.24264 0.0
C3107 C 0.43274 0.28987 0.22404 0.0
C3108 C 0.41033 0.2753 0.2202 0.0
C3109 C 0.39211 0.27764 0.23518 0.0
C3110 C 0.39522 0.29456 0.25447 0.0
C3111 C 0.4186 0.30929 0.25796 0.0
H3112 H 0.69985 0.56782 0.43841 0.0
H3113 H 0.6718 0.50767 0.39113 0.0
H3114 H 0.64162 0.49524 0.41829 0.0
H3115 H 0.68854 0.54009 0.49564 0.0
H3116 H 0.68066 0.56556 0.50854 0.0
H3117 H 0.70258 0.56751 0.48754 0.0
H3118 H 0.6774 0.59145 0.46156 0.0
H3119 H 0.65518 0.58919 0.48213 0.0
H3120 H 0.64633 0.57998 0.45114 0.0
H3121 H 0.61031 0.49307 0.44643 0.0
H3122 H 0.58297 0.49887 0.47654 0.0
H3123 H 0.63232 0.55982 0.50595 0.0
C3124 C 0.68788 0.55166 0.43421 0.0
C3125 C 0.68809 0.53868 0.41276 0.0
C3126 C 0.672 0.51777 0.40761 0.0
C3127 C 0.65477 0.5106 0.42289 0.0
C3128 C 0.65427 0.52435 0.44337 0.0
C3129 C 0.67076 0.54417 0.44935 0.0
C3130 C 0.66527 0.55672 0.47141 0.0
C3131 C 0.68546 0.5575 0.492 0.0
C3132 C 0.66077 0.58074 0.46622 0.0
C3133 C 0.64245 0.54146 0.47617 0.0
C3134 C 0.63646 0.5228 0.45993 0.0
C3135 C 0.61508 0.50732 0.45961 0.0
C3136 C 0.59956 0.51088 0.47658 0.0
C3137 C 0.60563 0.52973 0.49357 0.0
C3138 C 0.62738 0.5451 0.49335 0.0
H3139 H 0.36382 0.88593 0.13303 0.0
H3140 H 0.34445 0.82221 0.08972 0.0
H3141 H 0.34678 0.80115 0.12611 0.0
H3142 H 0.4061 0.86543 0.17852 0.0
H3143 H 0.39735 0.88211 0.20246 0.0
H3144 H 0.39639 0.89199 0.17285 0.0
H3145 H 0.35213 0.89542 0.17434 0.0
H3146 H 0.35158 0.88426 0.20329 0.0
H3147 H 0.33053 0.87069 0.17849 0.0
H3148 H 0.3483 0.78707 0.16731 0.0
H3149 H 0.34863 0.78098 0.21016 0.0
H3150 H 0.36741 0.85385 0.22688 0.0
C3151 C 0.36038 0.86754 0.13119 0.0
C3152 C 0.35392 0.8557 0.10851 0.0
C3153 C 0.34947 0.83164 0.10688 0.0
C3154 C 0.35081 0.81953 0.12746 0.0
C3155 C 0.35696 0.8317 0.14956 0.0
C3156 C 0.36192 0.85518 0.15156 0.0
C3157 C 0.36713 0.86415 0.1775 0.0
C3158 C 0.3933 0.87666 0.18316 0.0
C3159 C 0.34929 0.87955 0.18382 0.0
C3160 C 0.36326 0.84209 0.18979 0.0
C3161 C 0.35781 0.82357 0.17334 0.0
C3162 C 0.35278 0.80144 0.18036 0.0
C3163 C 0.35302 0.79815 0.20479 0.0
C3164 C 0.35815 0.81689 0.222 0.0
C3165 C 0.36365 0.83912 0.21427 0.0
H3166 H 1.01181 0.61288 0.89862 0.0
H3167 H 0.07619 0.65959 0.88726 0.0
H3168 H 0.09423 0.65491 0.92807 0.0
H3169 H 1.01407 0.62646 0.96527 0.0
H3170 H 1.00391 0.59693 0.96963 0.0
H3171 H 0.99383 0.60869 0.94243 0.0
H3172 H 1.00929 0.57743 0.9181 0.0
H3173 H 1.01984 0.56586 0.94507 0.0
H3174 H 0.04044 0.57442 0.9237 0.0
H3175 H 0.10767 0.64018 0.9677 0.0
H3176 H 0.11489 0.61647 1.00174 0.0
H3177 H 0.04261 0.57797 0.98471 0.0
C3178 C 1.02925 0.62292 0.9051 0.0
C3179 C 0.04252 0.63676 0.88996 0.0
C3180 C 0.06564 0.64907 0.89875 0.0
C3181 C 0.07601 0.64653 0.9219 0.0
C3182 C 0.06297 0.63168 0.93596 0.0
C3183 C 0.03993 0.62027 0.92792 0.0
C3184 C 1.03102 0.60278 0.94474 0.0
C3185 C 1.00943 0.6091 0.9562 0.0
C3186 C 1.02481 0.57872 0.93214 0.0
C3187 C 0.05303 0.60527 0.96279 0.0
C3188 C 0.07109 0.62241 0.95796 0.0
C3189 C 0.09353 0.6269 0.97181 0.0
C3190 C 0.09756 0.61336 0.99095 0.0
C3191 C 0.07945 0.59526 0.99539 0.0
C3192 C 0.0569 0.59151 0.98137 0.0
H3193 H 0.35716 0.1963 0.6323 0.0
H3194 H 0.33277 0.24571 0.58647 0.0
H3195 H 0.32777 0.2694 0.62191 0.0
H3196 H 0.31676 0.20232 0.678 0.0
H3197 H 0.33847 0.19982 0.70298 0.0
H3198 H 0.34046 0.18632 0.67421 0.0
H3199 H 0.38421 0.20751 0.6753 0.0
H3200 H 0.38233 0.22108 0.70407 0.0
H3201 H 0.39056 0.23806 0.67982 0.0
H3202 H 0.32434 0.28839 0.66281 0.0
H3203 H 0.32338 0.30109 0.7046 0.0
H3204 H 0.35063 0.24123 0.72737 0.0
C3205 C 0.35083 0.21214 0.62964 0.0
C3206 C 0.34543 0.21877 0.60575 0.0
C3207 C 0.33716 0.23981 0.6039 0.0
C3208 C 0.33421 0.25356 0.62422 0.0
C3209 C 0.33958 0.24662 0.64719 0.0
C3210 C 0.34782 0.2264 0.65012 0.0
C3211 C 0.35225 0.22323 0.67714 0.0
C3212 C 0.33603 0.20163 0.68346 0.0
C3213 C 0.37892 0.22241 0.68452 0.0
C3214 C 0.34519 0.24469 0.68884 0.0
C3215 C 0.33789 0.2578 0.67096 0.0
C3216 C 0.33013 0.27814 0.67677 0.0
C3217 C 0.32965 0.2853 0.70098 0.0
C3218 C 0.33697 0.27263 0.72026 0.0
C3219 C 0.34502 0.25181 0.71366 0.0
H3220 H 0.65915 0.53201 0.29473 0.0
H3221 H 0.64849 0.59538 0.32894 0.0
H3222 H 0.61398 0.59639 0.2988 0.0
H3223 H 0.65161 0.54609 0.23882 0.0
H3224 H 0.6357 0.51899 0.22549 0.0
H3225 H 0.65528 0.52027 0.25275 0.0
H3226 H 0.62012 0.49879 0.27309 0.0
H3227 H 0.60032 0.49747 0.24572 0.0
H3228 H 0.59239 0.50971 0.27291 0.0
H3229 H 0.58811 0.59543 0.26062 0.0
H3230 H 0.57347 0.59271 0.21795 0.0
H3231 H 0.59753 0.52807 0.20937 0.0
C3232 C 0.64902 0.54568 0.2963 0.0
C3233 C 0.65642 0.56362 0.31406 0.0
C3234 C 0.64301 0.58141 0.31548 0.0
C3235 C 0.62328 0.58204 0.29853 0.0
C3236 C 0.6169 0.56449 0.28065 0.0
C3237 C 0.62914 0.54641 0.27966 0.0
C3238 C 0.62087 0.53134 0.257 0.0
C3239 C 0.64212 0.52907 0.24268 0.0
C3240 C 0.60763 0.50794 0.26252 0.0
C3241 C 0.60364 0.54482 0.24447 0.0
C3242 C 0.60109 0.56357 0.25865 0.0
C3243 C 0.58923 0.58042 0.24961 0.0
C3244 C 0.58082 0.57866 0.22526 0.0
C3245 C 0.58439 0.56018 0.2102 0.0
C3246 C 0.59462 0.54245 0.22037 0.0
H3247 H 0.34279 0.88908 0.95803 0.0
H3248 H 0.31889 0.82585 0.98975 0.0
H3249 H 0.31092 0.8057 0.9499 0.0
H3250 H 0.29933 0.8779 0.90453 0.0
H3251 H 0.32009 0.89028 0.88483 0.0
H3252 H 0.32365 0.9007 0.91569 0.0
H3253 H 0.36726 0.8931 0.92115 0.0
H3254 H 0.36426 0.88313 0.89022 0.0
H3255 H 0.37311 0.86522 0.91301 0.0
H3256 H 0.30672 0.7919 0.90738 0.0
H3257 H 0.30729 0.78486 0.86427 0.0
H3258 H 0.33381 0.85663 0.85865 0.0
C3259 C 0.33574 0.87102 0.95653 0.0
C3260 C 0.33141 0.85904 0.9771 0.0
C3261 C 0.32234 0.83541 0.97436 0.0
C3262 C 0.3177 0.8238 0.95175 0.0
C3263 C 0.32218 0.836 0.9319 0.0
C3264 C 0.33103 0.85907 0.93395 0.0
C3265 C 0.33482 0.86782 0.90957 0.0
C3266 C 0.3185 0.88521 0.9033 0.0
C3267 C 0.36145 0.87791 0.90843 0.0
C3268 C 0.32706 0.84598 0.89366 0.0
C3269 C 0.31971 0.82793 0.90702 0.0
C3270 C 0.31233 0.80591 0.8967 0.0
C3271 C 0.31276 0.80209 0.87213 0.0
C3272 C 0.32052 0.82016 0.85793 0.0
C3273 C 0.32749 0.84248 0.8689 0.0
H3274 H 0.07711 0.64644 0.75958 0.0
H3275 H 0.09915 0.59924 0.80946 0.0
H3276 H 0.1294 0.59061 0.78387 0.0
H3277 H 0.07427 0.61413 0.71155 0.0
H3278 H 0.08565 0.63505 0.69181 0.0
H3279 H 0.0722 0.64361 0.71722 0.0
H3280 H 0.11096 0.67261 0.73203 0.0
H3281 H 0.12453 0.66415 0.70635 0.0
H3282 H 0.13959 0.66322 0.73591 0.0
H3283 H 0.14747 0.57883 0.74901 0.0
H3284 H 0.1517 0.56513 0.70825 0.0
H3285 H 0.11992 0.62076 0.68041 0.0
C3286 C 0.08912 0.63511 0.76561 0.0
C3287 C 0.08588 0.6235 0.7864 0.0
C3288 C 0.10144 0.60837 0.79358 0.0
C3289 C 0.11881 0.6035 0.77923 0.0
C3290 C 0.12058 0.61415 0.75797 0.0
C3291 C 0.10643 0.63001 0.75136 0.0
C3292 C 0.10855 0.63588 0.72586 0.0
C3293 C 0.0837 0.63189 0.71075 0.0
C3294 C 0.1217 0.66042 0.725 0.0
C3295 C 0.12395 0.61907 0.71843 0.0
C3296 C 0.13149 0.60732 0.73742 0.0
C3297 C 0.14249 0.58845 0.73416 0.0
C3298 C 0.14485 0.58077 0.71088 0.0
C3299 C 0.13606 0.59187 0.69117 0.0
C3300 C 0.12675 0.61195 0.69518 0.0
H3301 H 0.32844 0.19136 0.4459 0.0
H3302 H 0.37148 0.24677 0.49201 0.0
H3303 H 0.37351 0.27086 0.45792 0.0
H3304 H 0.35893 0.20331 0.39228 0.0
H3305 H 0.33189 0.19655 0.37156 0.0
H3306 H 0.33372 0.18312 0.39936 0.0
H3307 H 0.29528 0.19723 0.40966 0.0
H3308 H 0.29334 0.21068 0.38188 0.0
H3309 H 0.29406 0.22712 0.40962 0.0
H3310 H 0.37138 0.29019 0.41765 0.0
H3311 H 0.36456 0.30239 0.37687 0.0
H3312 H 0.32207 0.23606 0.35421 0.0
C3313 C 0.33838 0.20855 0.44893 0.0
C3314 C 0.34992 0.21669 0.47255 0.0
C3315 C 0.36244 0.23956 0.47481 0.0
C3316 C 0.36372 0.2536 0.45522 0.0
C3317 C 0.35231 0.24517 0.43252 0.0
C3318 C 0.33974 0.22312 0.42922 0.0
C3319 C 0.32885 0.2186 0.40276 0.0
C3320 C 0.33894 0.19923 0.39078 0.0
C3321 C 0.30124 0.21307 0.40087 0.0
C3322 C 0.33726 0.24135 0.39175 0.0
C3323 C 0.35085 0.25638 0.40941 0.0
C3324 C 0.36071 0.27836 0.4039 0.0
C3325 C 0.35672 0.28525 0.38027 0.0
C3326 C 0.34277 0.27061 0.36133 0.0
C3327 C 0.33292 0.2481 0.36765 0.0
H3328 H 0.38277 0.67529 0.53881 0.0
H3329 H 0.34142 0.66617 0.46881 0.0
H3330 H 0.36648 0.63913 0.45582 0.0
H3331 H 0.44147 0.67102 0.5177 0.0
H3332 H 0.45083 0.65584 0.54272 0.0
H3333 H 0.43079 0.67583 0.54611 0.0
H3334 H 0.40002 0.64434 0.56148 0.0
H3335 H 0.41993 0.62429 0.55796 0.0
H3336 H 0.38948 0.61815 0.5434 0.0
H3337 H 0.39378 0.61117 0.45114 0.0
H3338 H 0.42224 0.58446 0.45481 0.0
H3339 H 0.44711 0.61225 0.52739 0.0
C3340 C 0.37923 0.66781 0.52067 0.0
C3341 C 0.36015 0.67285 0.50481 0.0
C3342 C 0.35594 0.66259 0.48127 0.0
C3343 C 0.3701 0.64722 0.47369 0.0
C3344 C 0.38854 0.64238 0.48981 0.0
C3345 C 0.3933 0.65244 0.51275 0.0
C3346 C 0.41372 0.64358 0.52668 0.0
C3347 C 0.43549 0.66271 0.53371 0.0
C3348 C 0.40527 0.63189 0.54868 0.0
C3349 C 0.41918 0.62656 0.50816 0.0
C3350 C 0.40457 0.6263 0.48698 0.0
C3351 C 0.4056 0.61145 0.46752 0.0
C3352 C 0.42198 0.59641 0.46975 0.0
C3353 C 0.43723 0.59629 0.4913 0.0
C3354 C 0.43576 0.61175 0.51067 0.0
H3355 H 0.90045 0.96492 0.57215 0.0
H3356 H 0.87035 0.97295 0.50002 0.0
H3357 H 0.90982 0.99359 0.49183 0.0
H3358 H 0.93878 0.02174 0.58045 0.0
H3359 H 0.96337 1.01253 0.59789 0.0
H3360 H 0.93297 0.99773 0.59828 0.0
H3361 H 0.94586 0.96 0.58551 0.0
H3362 H 0.97629 0.9747 0.58506 0.0
H3363 H 0.96049 0.95811 0.55888 0.0
H3364 H 0.95416 1.01193 0.49022 0.0
H3365 H 0.99733 0.02921 0.49658 0.0
H3366 H 1.00002 1.01373 0.57072 0.0
C3367 C 0.90211 0.97105 0.55462 0.0
C3368 C 0.88163 0.96691 0.53671 0.0
C3369 C 0.88517 0.97563 0.51419 0.0
C3370 C 0.9078 0.98744 0.5093 0.0
C3371 C 0.92743 0.99117 0.52713 0.0
C3372 C 0.92477 0.98352 0.54953 0.0
C3373 C 0.94882 0.99064 0.56566 0.0
C3374 C 0.9458 1.00661 0.58683 0.0
C3375 C 0.95843 0.96961 0.5743 0.0
C3376 C 0.96537 1.00324 0.54887 0.0
C3377 C 0.9526 1.00299 0.52661 0.0
C3378 C 0.96406 1.01241 0.50774 0.0
C3379 C 0.98884 0.02229 0.51153 0.0
C3380 C 1.00259 0.0235 0.53421 0.0
C3381 C 0.9903 1.01374 0.55319 0.0
H3382 H 0.88461 0.08894 0.2379 0.0
H3383 H 0.8955 0.06122 0.30682 0.0
H3384 H 0.87044 0.08673 0.32343 0.0
H3385 H 0.89012 0.14525 0.25947 0.0
H3386 H 0.86758 0.15231 0.23757 0.0
H3387 H 0.88388 0.13006 0.23052 0.0
H3388 H 0.84362 0.10185 0.21984 0.0
H3389 H 0.82717 0.12407 0.22684 0.0
H3390 H 0.82231 0.09786 0.2414 0.0
H3391 H 0.84713 0.11745 0.33319 0.0
H3392 H 0.82859 0.15186 0.33567 0.0
H3393 H 0.83298 0.15908 0.26024 0.0
C3394 C 0.88137 0.08796 0.25638 0.0
C3395 C 0.89185 0.0731 0.27108 0.0
C3396 C 0.88753 0.07249 0.29526 0.0
C3397 C 0.87326 0.08682 0.30481 0.0
C3398 C 0.86344 0.10153 0.28988 0.0
C3399 C 0.86729 0.10216 0.26617 0.0
C3400 C 0.85627 0.12064 0.25435 0.0
C3401 C 0.87562 0.13809 0.24494 0.0
C3402 C 0.83614 0.11049 0.23443 0.0
C3403 C 0.84619 0.13073 0.27528 0.0
C3404 C 0.85019 0.1193 0.29554 0.0
C3405 C 0.84359 0.12634 0.31737 0.0
C3406 C 0.83299 0.14582 0.3186 0.0
C3407 C 0.82935 0.15807 0.29814 0.0
C3408 C 0.83564 0.15009 0.27618 0.0
H3409 H 0.75064 0.14211 0.03993 0.0
H3410 H 0.72621 0.20273 1.01546 0.0
H3411 H 0.68462 0.18122 1.00708 0.0
H3412 H 0.71176 0.1016 0.99766 0.0
H3413 H 0.70622 0.08033 0.0188 0.0
H3414 H 0.73417 0.10028 0.02241 0.0
H3415 H 0.72652 0.11269 0.0651 0.0
H3416 H 0.6987 0.09259 0.06171 0.0
H3417 H 0.69869 0.12214 0.06955 0.0
H3418 H 0.64582 0.15301 1.00106 0.0
H3419 H 0.61191 0.12132 1.00148 0.0
H3420 H 0.66149 0.07926 0.03091 0.0
C3421 C 0.73652 0.15086 0.03282 0.0
C3422 C 0.74162 0.17407 0.02827 0.0
C3423 C 0.72266 0.18497 0.01914 0.0
C3424 C 0.69903 0.17286 1.0142 0.0
C3425 C 0.69465 0.14993 0.01865 0.0
C3426 C 0.71281 0.1391 0.02804 0.0
C3427 C 0.70314 0.11457 0.03208 0.0
C3428 C 0.7145 0.09824 1.01682 0.0
C3429 C 0.70699 0.11025 0.05869 0.0
C3430 C 0.6767 0.11328 0.0235 0.0
C3431 C 0.67223 0.13379 1.0156 0.0
C3432 C 0.64911 0.13686 1.00718 0.0
C3433 C 0.62996 0.11869 1.00739 0.0
C3434 C 0.63398 0.09771 1.01615 0.0
C3435 C 0.65778 0.09497 0.02391 0.0
H3436 H 0.23276 0.48813 0.32968 0.0
H3437 H 0.17337 0.43321 0.30604 0.0
H3438 H 0.19511 0.40644 0.32767 0.0
H3439 H 0.27716 0.46028 0.31978 0.0
H3440 H 0.29801 0.47265 0.34521 0.0
H3441 H 0.27553 0.48793 0.33304 0.0
H3442 H 0.26 0.49102 0.37438 0.0
H3443 H 0.28254 0.4756 0.38671 0.0
H3444 H 0.2512 0.46564 0.38944 0.0
H3445 H 0.22653 0.38499 0.34415 0.0
H3446 H 0.26449 0.37077 0.35206 0.0
H3447 H 0.3031 0.43987 0.36713 0.0
C3448 C 0.224 0.47058 0.32965 0.0
C3449 C 0.20144 0.46266 0.31622 0.0
C3450 C 0.19061 0.4396 0.31637 0.0
C3451 C 0.20278 0.42434 0.32871 0.0
C3452 C 0.22547 0.43259 0.34117 0.0
C3453 C 0.23581 0.45529 0.34195 0.0
C3454 C 0.26154 0.4595 0.35371 0.0
C3455 C 0.27907 0.47072 0.33693 0.0
C3456 C 0.26395 0.47378 0.37748 0.0
C3457 C 0.26478 0.4354 0.35778 0.0
C3458 C 0.24358 0.42016 0.35109 0.0
C3459 C 0.24301 0.39678 0.35013 0.0
C3460 C 0.26477 0.38882 0.35487 0.0
C3461 C 0.28688 0.40421 0.36035 0.0
C3462 C 0.28652 0.4277 0.36311 0.0
H3463 H 0.21619 0.43715 0.03503 0.0
H3464 H 0.27325 0.49484 0.05629 0.0
H3465 H 0.24298 0.51964 0.05842 0.0
H3466 H 0.17716 0.46887 0.9979 0.0
H3467 H 0.14918 0.45405 1.00621 0.0
H3468 H 0.17495 0.44007 1.00648 0.0
H3469 H 0.17185 0.43186 0.05048 0.0
H3470 H 0.14606 0.44581 0.05031 0.0
H3471 H 0.1719 0.45502 0.07214 0.0
H3472 H 0.20613 0.53938 0.05958 0.0
H3473 H 0.16715 0.55217 0.05825 0.0
H3474 H 0.13051 0.48385 0.03452 0.0
C3475 C 0.22242 0.45501 0.04016 0.0
C3476 C 0.24802 0.46354 0.04557 0.0
C3477 C 0.25443 0.48727 0.05202 0.0
C3478 C 0.23707 0.50174 0.05331 0.0
C3479 C 0.21242 0.49294 0.04796 0.0
C3480 C 0.20496 0.47009 0.04134 0.0
C3481 C 0.17702 0.46546 0.03624 0.0
C3482 C 0.16911 0.45657 1.01016 0.0
C3483 C 0.16605 0.44852 0.0533 0.0
C3484 C 0.17005 0.48911 0.04107 0.0
C3485 C 0.19102 0.50455 0.04797 0.0
C3486 C 0.18978 0.52726 0.05404 0.0
C3487 C 0.16712 0.53447 0.05322 0.0
C3488 C 0.14478 0.51958 0.0461 0.0
C3489 C 0.14669 0.49625 0.03977 0.0
H3490 H 0.87611 0.96873 0.25286 0.0
H3491 H 0.93454 0.95584 0.21341 0.0
H3492 H 0.92002 0.91456 0.21343 0.0
H3493 H 0.87846 0.92589 0.29082 0.0
H3494 H 0.84643 0.91817 0.29153 0.0
H3495 H 0.8592 0.9466 0.28548 0.0
H3496 H 0.83084 0.94297 0.24589 0.0
H3497 H 0.81784 0.91449 0.25188 0.0
H3498 H 0.83044 0.91965 0.22431 0.0
H3499 H 0.90316 0.87535 0.22302 0.0
H3500 H 0.88362 0.84052 0.23963 0.0
H3501 H 0.83491 0.87852 0.27133 0.0
C3502 C 0.88549 0.95722 0.24372 0.0
C3503 C 0.90641 0.96541 0.23309 0.0
C3504 C 0.9184 0.94988 0.22155 0.0
C3505 C 0.91026 0.92642 0.22144 0.0
C3506 C 0.88994 0.91886 0.23264 0.0
C3507 C 0.8775 0.93378 0.24329 0.0
C3508 C 0.85724 0.92127 0.25558 0.0
C3509 C 0.86055 0.92841 0.28243 0.0
C3510 C 0.83263 0.9248 0.2437 0.0
C3511 C 0.86085 0.89703 0.25101 0.0
C3512 C 0.87972 0.89602 0.23759 0.0
C3513 C 0.88801 0.87582 0.23304 0.0
C3514 C 0.8769 0.85618 0.24263 0.0
C3515 C 0.85762 0.85688 0.25646 0.0
C3516 C 0.84922 0.87746 0.2603 0.0
H3517 H 0.66456 0.06511 0.80241 0.0
H3518 H 0.71921 0.02792 0.78165 0.0
H3519 H 0.74654 0.06424 0.77834 0.0
H3520 H 0.67423 0.10688 0.76155 0.0
H3521 H 0.66878 0.12981 0.78095 0.0
H3522 H 0.65466 0.10109 0.78445 0.0
H3523 H 0.67306 0.10476 0.82872 0.0
H3524 H 0.68714 0.13358 0.8254 0.0
H3525 H 0.70515 0.11331 0.83611 0.0
H3526 H 0.76695 0.10452 0.77523 0.0
H3527 H 0.77837 0.14569 0.77092 0.0
H3528 H 0.70968 0.1564 0.79224 0.0
C3529 C 0.68248 0.06463 0.79768 0.0
C3530 C 0.68995 0.04377 0.79255 0.0
C3531 C 0.71326 0.04377 0.7858 0.0
C3532 C 0.72889 0.06428 0.78393 0.0
C3533 C 0.72082 0.08459 0.78871 0.0
C3534 C 0.69813 0.08491 0.79539 0.0
C3535 C 0.69311 0.10892 0.79774 0.0
C3536 C 0.67141 0.11184 0.78012 0.0
C3537 C 0.6894 0.11553 0.82353 0.0
C3538 C 0.71638 0.12204 0.79101 0.0
C3539 C 0.73226 0.10773 0.78618 0.0
C3540 C 0.75474 0.11591 0.77914 0.0
C3541 C 0.7611 0.1393 0.77683 0.0
C3542 C 0.74493 0.15421 0.78129 0.0
C3543 C 0.72235 0.14539 0.7886 0.0
loop_
_geom_bond_atom_site_label_1
_geom_bond_atom_site_label_2
_geom_bond_distance
_geom_bond_site_symmetry_2
_ccdc_geom_bond_type
In0 O1 2.294 . S
In0 O2 2.326 . S
In0 O6 2.266 . S
In0 O7 2.326 . S
In0 O8 2.266 . S
In0 O9 2.326 . S
In0 O11 2.294 . S
In0 O12 2.326 . S
O1 In0 2.294 . S
O1 C10 1.240 . S
O2 In0 2.326 . S
O2 C10 1.252 . S
C3 O6 1.252 . S
C3 O7 1.260 . S
C4 O11 1.240 . S
C4 O12 1.252 . S
C5 O8 1.252 . S
C5 O9 1.260 . S
O6 In0 2.266 . S
O6 C3 1.252 . S
O7 In0 2.326 . S
O7 C3 1.260 . S
O8 In0 2.266 . S
O8 C5 1.252 . S
O9 In0 2.326 . S
O9 C5 1.260 . S
C10 O1 1.240 . S
C10 O2 1.252 . S
O11 In0 2.294 . S
O11 C4 1.240 . S
O12 In0 2.326 . S
O12 C4 1.252 . S
In13 O14 2.294 . S
In13 O15 2.326 . S
In13 O19 2.266 . S
In13 O20 2.326 . S
In13 O21 2.266 . S
In13 O22 2.326 . S
In13 O24 2.294 . S
In13 O25 2.326 . S
O14 In13 2.294 . S
O14 C23 1.240 . S
O15 In13 2.326 . S
O15 C23 1.252 . S
C16 O19 1.252 . S
C16 O20 1.260 . S
C17 O24 1.240 . S
C17 O25 1.252 . S
C18 O21 1.252 . S
C18 O22 1.260 . S
O19 In13 2.266 . S
O19 C16 1.252 . S
O20 In13 2.326 . S
O20 C16 1.260 . S
O21 In13 2.266 . S
O21 C18 1.252 . S
O22 In13 2.326 . S
O22 C18 1.260 . S
C23 O14 1.240 . S
C23 O15 1.252 . S
O24 In13 2.294 . S
O24 C17 1.240 . S
O25 In13 2.326 . S
O25 C17 1.252 . S
In26 O27 2.294 . S
In26 O28 2.326 . S
In26 O32 2.266 . S
In26 O33 2.326 . S
In26 O34 2.266 . S
In26 O35 2.326 . S
In26 O37 2.294 . S
In26 O38 2.326 . S
O27 In26 2.294 . S
O27 C36 1.240 . S
O28 In26 2.326 . S
O28 C36 1.252 . S
C29 O32 1.252 . S
C29 O33 1.260 . S
C30 O37 1.240 . S
C30 O38 1.252 . S
C31 O34 1.252 . S
C31 O35 1.260 . S
O32 In26 2.266 . S
O32 C29 1.252 . S
O33 In26 2.326 . S
O33 C29 1.260 . S
O34 In26 2.266 . S
O34 C31 1.252 . S
O35 In26 2.326 . S
O35 C31 1.260 . S
C36 O27 1.240 . S
C36 O28 1.252 . S
O37 In26 2.294 . S
O37 C30 1.240 . S
O38 In26 2.326 . S
O38 C30 1.252 . S
In39 O40 2.294 . S
In39 O41 2.326 . S
In39 O45 2.266 . S
In39 O46 2.326 . S
In39 O47 2.266 . S
In39 O48 2.326 . S
In39 O50 2.294 . S
In39 O51 2.326 . S
O40 In39 2.294 . S
O40 C49 1.240 . S
O41 In39 2.326 . S
O41 C49 1.252 . S
C42 O45 1.252 . S
C42 O46 1.260 . S
C43 O50 1.240 . S
C43 O51 1.252 . S
C44 O47 1.252 . S
C44 O48 1.260 . S
O45 In39 2.266 . S
O45 C42 1.252 . S
O46 In39 2.326 . S
O46 C42 1.260 . S
O47 In39 2.266 . S
O47 C44 1.252 . S
O48 In39 2.326 . S
O48 C44 1.260 . S
C49 O40 1.240 . S
C49 O41 1.252 . S
O50 In39 2.294 . S
O50 C43 1.240 . S
O51 In39 2.326 . S
O51 C43 1.252 . S
In52 O53 2.294 . S
In52 O54 2.326 . S
In52 O58 2.266 . S
In52 O59 2.326 . S
In52 O60 2.266 . S
In52 O61 2.326 . S
In52 O63 2.294 . S
In52 O64 2.326 . S
O53 In52 2.294 . S
O53 C62 1.240 . S
O54 In52 2.326 . S
O54 C62 1.252 . S
C55 O58 1.252 . S
C55 O59 1.260 . S
C56 O63 1.240 . S
C56 O64 1.252 . S
C57 O60 1.252 . S
C57 O61 1.260 . S
O58 In52 2.266 . S
O58 C55 1.252 . S
O59 In52 2.326 . S
O59 C55 1.260 . S
O60 In52 2.266 . S
O60 C57 1.252 . S
O61 In52 2.326 . S
O61 C57 1.260 . S
C62 O53 1.240 . S
C62 O54 1.252 . S
O63 In52 2.294 . S
O63 C56 1.240 . S
O64 In52 2.326 . S
O64 C56 1.252 . S
In65 O66 2.294 . S
In65 O67 2.326 . S
In65 O71 2.266 . S
In65 O72 2.326 . S
In65 O73 2.266 . S
In65 O74 2.326 . S
In65 O76 2.294 . S
In65 O77 2.326 . S
O66 In65 2.294 . S
O66 C75 1.240 . S
O67 In65 2.326 . S
O67 C75 1.252 . S
C68 O71 1.252 . S
C68 O72 1.260 . S
C69 O76 1.240 . S
C69 O77 1.252 . S
C70 O73 1.252 . S
C70 O74 1.260 . S
O71 In65 2.266 . S
O71 C68 1.252 . S
O72 In65 2.326 . S
O72 C68 1.260 . S
O73 In65 2.266 . S
O73 C70 1.252 . S
O74 In65 2.326 . S
O74 C70 1.260 . S
C75 O66 1.240 . S
C75 O67 1.252 . S
O76 In65 2.294 . S
O76 C69 1.240 . S
O77 In65 2.326 . S
O77 C69 1.252 . S
In78 O79 2.294 . S
In78 O80 2.326 . S
In78 O84 2.266 . S
In78 O85 2.326 . S
In78 O86 2.266 . S
In78 O87 2.326 . S
In78 O89 2.294 . S
In78 O90 2.326 . S
O79 In78 2.294 . S
O79 C88 1.240 . S
O80 In78 2.326 . S
O80 C88 1.252 . S
C81 O84 1.252 . S
C81 O85 1.260 . S
C82 O89 1.240 . S
C82 O90 1.252 . S
C83 O86 1.252 . S
C83 O87 1.260 . S
O84 In78 2.266 . S
O84 C81 1.252 . S
O85 In78 2.326 . S
O85 C81 1.260 . S
O86 In78 2.266 . S
O86 C83 1.252 . S
O87 In78 2.326 . S
O87 C83 1.260 . S
C88 O79 1.240 . S
C88 O80 1.252 . S
O89 In78 2.294 . S
O89 C82 1.240 . S
O90 In78 2.326 . S
O90 C82 1.252 . S
In91 O92 2.294 . S
In91 O93 2.332 1_455 S
In91 O97 2.274 . S
In91 O98 2.332 . S
In91 O99 2.264 1_455 S
In91 O100 2.323 1_455 S
In91 O102 2.296 . S
In91 O103 2.329 . S
O92 In91 2.294 . S
O92 C101 1.240 . S
O93 In91 2.332 1_655 S
O93 C101 1.251 1_655 S
C94 O97 1.251 . S
C94 O98 1.255 . S
C95 O102 1.240 . S
C95 O103 1.252 . S
C96 O99 1.252 . S
C96 O100 1.260 . S
O97 In91 2.274 . S
O97 C94 1.251 . S
O98 In91 2.332 . S
O98 C94 1.255 . S
O99 In91 2.264 1_655 S
O99 C96 1.252 . S
O100 In91 2.323 1_655 S
O100 C96 1.260 . S
C101 O92 1.240 . S
C101 O93 1.251 1_455 S
O102 In91 2.296 . S
O102 C95 1.240 . S
O103 In91 2.329 . S
O103 C95 1.252 . S
In104 O105 2.294 . S
In104 O106 2.326 . S
In104 O110 2.266 . S
In104 O111 2.326 . S
In104 O112 2.266 . S
In104 O113 2.326 . S
In104 O115 2.294 . S
In104 O116 2.326 . S
O105 In104 2.294 . S
O105 C114 1.240 . S
O106 In104 2.326 . S
O106 C114 1.252 . S
C107 O110 1.252 . S
C107 O111 1.260 . S
C108 O115 1.240 . S
C108 O116 1.252 . S
C109 O112 1.252 . S
C109 O113 1.260 . S
O110 In104 2.266 . S
O110 C107 1.252 . S
O111 In104 2.326 . S
O111 C107 1.260 . S
O112 In104 2.266 . S
O112 C109 1.252 . S
O113 In104 2.326 . S
O113 C109 1.260 . S
C114 O105 1.240 . S
C114 O106 1.252 . S
O115 In104 2.294 . S
O115 C108 1.240 . S
O116 In104 2.326 . S
O116 C108 1.252 . S
In117 O118 2.294 . S
In117 O119 2.326 . S
In117 O123 2.266 . S
In117 O124 2.326 . S
In117 O125 2.266 . S
In117 O126 2.326 . S
In117 O128 2.294 . S
In117 O129 2.326 . S
O118 In117 2.294 . S
O118 C127 1.240 . S
O119 In117 2.326 . S
O119 C127 1.252 . S
C120 O123 1.252 . S
C120 O124 1.260 . S
C121 O128 1.240 . S
C121 O129 1.252 . S
C122 O125 1.252 . S
C122 O126 1.260 . S
O123 In117 2.266 . S
O123 C120 1.252 . S
O124 In117 2.326 . S
O124 C120 1.260 . S
O125 In117 2.266 . S
O125 C122 1.252 . S
O126 In117 2.326 . S
O126 C122 1.260 . S
C127 O118 1.240 . S
C127 O119 1.252 . S
O128 In117 2.294 . S
O128 C121 1.240 . S
O129 In117 2.326 . S
O129 C121 1.252 . S
In130 O131 2.294 . S
In130 O132 2.326 . S
In130 O136 2.266 . S
In130 O137 2.326 . S
In130 O138 2.266 . S
In130 O139 2.326 . S
In130 O141 2.294 . S
In130 O142 2.326 . S
O131 In130 2.294 . S
O131 C140 1.240 . S
O132 In130 2.326 . S
O132 C140 1.252 . S
C133 O136 1.252 . S
C133 O137 1.260 . S
C134 O141 1.240 . S
C134 O142 1.252 . S
C135 O138 1.252 . S
C135 O139 1.260 . S
O136 In130 2.266 . S
O136 C133 1.252 . S
O137 In130 2.326 . S
O137 C133 1.260 . S
O138 In130 2.266 . S
O138 C135 1.252 . S
O139 In130 2.326 . S
O139 C135 1.260 . S
C140 O131 1.240 . S
C140 O132 1.252 . S
O141 In130 2.294 . S
O141 C134 1.240 . S
O142 In130 2.326 . S
O142 C134 1.252 . S
In143 O144 2.294 . S
In143 O145 2.326 . S
In143 O149 2.266 . S
In143 O150 2.326 . S
In143 O151 2.266 . S
In143 O152 2.326 . S
In143 O154 2.294 . S
In143 O155 2.326 . S
O144 In143 2.294 . S
O144 C153 1.240 . S
O145 In143 2.326 . S
O145 C153 1.252 . S
C146 O149 1.252 . S
C146 O150 1.260 . S
C147 O154 1.240 . S
C147 O155 1.252 . S
C148 O151 1.252 . S
C148 O152 1.260 . S
O149 In143 2.266 . S
O149 C146 1.252 . S
O150 In143 2.326 . S
O150 C146 1.260 . S
O151 In143 2.266 . S
O151 C148 1.252 . S
O152 In143 2.326 . S
O152 C148 1.260 . S
C153 O144 1.240 . S
C153 O145 1.252 . S
O154 In143 2.294 . S
O154 C147 1.240 . S
O155 In143 2.326 . S
O155 C147 1.252 . S
In156 O157 2.294 . S
In156 O158 2.326 . S
In156 O162 2.268 1_554 S
In156 O163 2.326 1_554 S
In156 O164 2.266 . S
In156 O165 2.326 . S
In156 O167 2.294 . S
In156 O168 2.326 . S
O157 In156 2.294 . S
O157 C166 1.240 . S
O158 In156 2.326 . S
O158 C166 1.252 . S
C159 O162 1.250 . S
C159 O163 1.260 . S
C160 O167 1.240 . S
C160 O168 1.252 . S
C161 O164 1.252 . S
C161 O165 1.260 . S
O162 In156 2.268 1_556 S
O162 C159 1.250 . S
O163 In156 2.326 1_556 S
O163 C159 1.260 . S
O164 In156 2.266 . S
O164 C161 1.252 . S
O165 In156 2.326 . S
O165 C161 1.260 . S
C166 O157 1.240 . S
C166 O158 1.252 . S
O167 In156 2.294 . S
O167 C160 1.240 . S
O168 In156 2.326 . S
O168 C160 1.252 . S
In169 O170 2.298 . S
In169 O171 2.328 . S
In169 O175 2.263 1_554 S
In169 O176 2.325 1_554 S
In169 O177 2.239 1_554 S
In169 O178 2.283 1_554 S
In169 O180 2.321 . S
In169 O181 2.369 . S
O170 In169 2.298 . S
O170 C179 1.240 . S
O171 In169 2.328 . S
O171 C179 1.252 . S
C172 O175 1.252 . S
C172 O176 1.260 . S
C173 O180 1.240 . S
C173 O181 1.252 . S
C174 O177 1.252 . S
C174 O178 1.260 . S
O175 In169 2.263 1_556 S
O175 C172 1.252 . S
O176 In169 2.325 1_556 S
O176 C172 1.260 . S
O177 In169 2.239 1_556 S
O177 C174 1.252 . S
O178 In169 2.283 1_556 S
O178 C174 1.260 . S
C179 O170 1.240 . S
C179 O171 1.252 . S
O180 In169 2.321 . S
O180 C173 1.240 . S
O181 In169 2.369 . S
O181 C173 1.252 . S
In182 O183 2.294 . S
In182 O184 2.326 . S
In182 O188 2.266 . S
In182 O189 2.326 . S
In182 O190 2.266 . S
In182 O191 2.326 . S
In182 O193 2.294 . S
In182 O194 2.326 . S
O183 In182 2.294 . S
O183 C192 1.240 . S
O184 In182 2.326 . S
O184 C192 1.252 . S
C185 O188 1.252 . S
C185 O189 1.260 . S
C186 O193 1.240 . S
C186 O194 1.252 . S
C187 O190 1.252 . S
C187 O191 1.260 . S
O188 In182 2.266 . S
O188 C185 1.252 . S
O189 In182 2.326 . S
O189 C185 1.260 . S
O190 In182 2.266 . S
O190 C187 1.252 . S
O191 In182 2.326 . S
O191 C187 1.260 . S
C192 O183 1.240 . S
C192 O184 1.252 . S
O193 In182 2.294 . S
O193 C186 1.240 . S
O194 In182 2.326 . S
O194 C186 1.252 . S
In195 O196 2.294 . S
In195 O197 2.326 . S
In195 O201 2.266 . S
In195 O202 2.326 . S
In195 O203 2.266 . S
In195 O204 2.326 . S
In195 O206 2.294 . S
In195 O207 2.326 . S
O196 In195 2.294 . S
O196 C205 1.240 . S
O197 In195 2.326 . S
O197 C205 1.252 . S
C198 O201 1.252 . S
C198 O202 1.260 . S
C199 O206 1.240 . S
C199 O207 1.252 . S
C200 O203 1.252 . S
C200 O204 1.260 . S
O201 In195 2.266 . S
O201 C198 1.252 . S
O202 In195 2.326 . S
O202 C198 1.260 . S
O203 In195 2.266 . S
O203 C200 1.252 . S
O204 In195 2.326 . S
O204 C200 1.260 . S
C205 O196 1.240 . S
C205 O197 1.252 . S
O206 In195 2.294 . S
O206 C199 1.240 . S
O207 In195 2.326 . S
O207 C199 1.252 . S
In208 O209 2.295 . S
In208 O210 2.328 . S
In208 O214 2.262 . S
In208 O215 2.324 1_545 S
In208 O216 2.258 1_545 S
In208 O217 2.312 1_545 S
In208 O219 2.303 . S
In208 O220 2.339 . S
O209 In208 2.295 . S
O209 C218 1.240 . S
O210 In208 2.328 . S
O210 C218 1.252 . S
C211 O214 1.252 1_565 S
C211 O215 1.260 . S
C212 O219 1.240 . S
C212 O220 1.252 . S
C213 O216 1.252 . S
C213 O217 1.260 . S
O214 In208 2.262 . S
O214 C211 1.252 1_545 S
O215 In208 2.324 1_565 S
O215 C211 1.260 . S
O216 In208 2.258 1_565 S
O216 C213 1.252 . S
O217 In208 2.312 1_565 S
O217 C213 1.260 . S
C218 O209 1.240 . S
C218 O210 1.252 . S
O219 In208 2.303 . S
O219 C212 1.240 . S
O220 In208 2.339 . S
O220 C212 1.252 . S
In221 O222 2.294 . S
In221 O223 2.326 . S
In221 O227 2.266 . S
In221 O228 2.326 . S
In221 O229 2.266 . S
In221 O230 2.326 . S
In221 O232 2.294 . S
In221 O233 2.326 . S
O222 In221 2.294 . S
O222 C231 1.240 . S
O223 In221 2.326 . S
O223 C231 1.252 . S
C224 O227 1.252 . S
C224 O228 1.260 . S
C225 O232 1.240 . S
C225 O233 1.252 . S
C226 O229 1.252 . S
C226 O230 1.260 . S
O227 In221 2.266 . S
O227 C224 1.252 . S
O228 In221 2.326 . S
O228 C224 1.260 . S
O229 In221 2.266 . S
O229 C226 1.252 . S
O230 In221 2.326 . S
O230 C226 1.260 . S
C231 O222 1.240 . S
C231 O223 1.252 . S
O232 In221 2.294 . S
O232 C225 1.240 . S
O233 In221 2.326 . S
O233 C225 1.252 . S
In234 O235 2.294 . S
In234 O236 2.326 . S
In234 O240 2.266 . S
In234 O241 2.326 . S
In234 O242 2.266 . S
In234 O243 2.326 . S
In234 O245 2.294 . S
In234 O246 2.326 . S
O235 In234 2.294 . S
O235 C244 1.240 . S
O236 In234 2.326 . S
O236 C244 1.252 . S
C237 O240 1.252 . S
C237 O241 1.260 . S
C238 O245 1.240 . S
C238 O246 1.252 . S
C239 O242 1.252 . S
C239 O243 1.260 . S
O240 In234 2.266 . S
O240 C237 1.252 . S
O241 In234 2.326 . S
O241 C237 1.260 . S
O242 In234 2.266 . S
O242 C239 1.252 . S
O243 In234 2.326 . S
O243 C239 1.260 . S
C244 O235 1.240 . S
C244 O236 1.252 . S
O245 In234 2.294 . S
O245 C238 1.240 . S
O246 In234 2.326 . S
O246 C238 1.252 . S
In247 O248 2.294 1_545 S
In247 O249 2.326 1_545 S
In247 O253 2.266 . S
In247 O254 2.326 . S
In247 O255 2.266 . S
In247 O256 2.326 . S
In247 O258 2.294 1_545 S
In247 O259 2.326 . S
O248 In247 2.294 1_565 S
O248 C257 1.240 . S
O249 In247 2.326 1_565 S
O249 C257 1.252 . S
C250 O253 1.252 . S
C250 O254 1.260 . S
C251 O258 1.240 . S
C251 O259 1.253 1_565 S
C252 O255 1.252 . S
C252 O256 1.260 . S
O253 In247 2.266 . S
O253 C250 1.252 . S
O254 In247 2.326 . S
O254 C250 1.260 . S
O255 In247 2.266 . S
O255 C252 1.252 . S
O256 In247 2.326 . S
O256 C252 1.260 . S
C257 O248 1.240 . S
C257 O249 1.252 . S
O258 In247 2.294 1_565 S
O258 C251 1.240 . S
O259 In247 2.326 . S
O259 C251 1.253 1_545 S
In260 O261 2.294 . S
In260 O262 2.326 . S
In260 O266 2.266 . S
In260 O267 2.326 . S
In260 O268 2.266 1_554 S
In260 O269 2.326 1_554 S
In260 O271 2.294 . S
In260 O272 2.326 . S
O261 In260 2.294 . S
O261 C270 1.240 . S
O262 In260 2.326 . S
O262 C270 1.252 . S
C263 O266 1.252 . S
C263 O267 1.260 . S
C264 O271 1.240 . S
C264 O272 1.252 . S
C265 O268 1.252 . S
C265 O269 1.260 . S
O266 In260 2.266 . S
O266 C263 1.252 . S
O267 In260 2.326 . S
O267 C263 1.260 . S
O268 In260 2.266 1_556 S
O268 C265 1.252 . S
O269 In260 2.326 1_556 S
O269 C265 1.260 . S
C270 O261 1.240 . S
C270 O262 1.252 . S
O271 In260 2.294 . S
O271 C264 1.240 . S
O272 In260 2.326 . S
O272 C264 1.252 . S
In273 O274 2.294 . S
In273 O275 2.326 . S
In273 O279 2.266 . S
In273 O280 2.326 . S
In273 O281 2.266 1_655 S
In273 O282 2.326 . S
In273 O284 2.294 1_655 S
In273 O285 2.326 . S
O274 In273 2.294 . S
O274 C283 1.240 . S
O275 In273 2.326 . S
O275 C283 1.252 . S
C276 O279 1.252 . S
C276 O280 1.260 . S
C277 O284 1.240 . S
C277 O285 1.252 1_455 S
C278 O281 1.252 . S
C278 O282 1.260 1_455 S
O279 In273 2.266 . S
O279 C276 1.252 . S
O280 In273 2.326 . S
O280 C276 1.260 . S
O281 In273 2.266 1_455 S
O281 C278 1.252 . S
O282 In273 2.326 . S
O282 C278 1.260 1_655 S
C283 O274 1.240 . S
C283 O275 1.252 . S
O284 In273 2.294 1_455 S
O284 C277 1.240 . S
O285 In273 2.326 . S
O285 C277 1.252 1_655 S
In286 O287 2.294 . S
In286 O288 2.326 . S
In286 O292 2.266 . S
In286 O293 2.326 . S
In286 O294 2.266 . S
In286 O295 2.326 . S
In286 O297 2.294 . S
In286 O298 2.326 . S
O287 In286 2.294 . S
O287 C296 1.240 . S
O288 In286 2.326 . S
O288 C296 1.252 . S
C289 O292 1.252 . S
C289 O293 1.260 . S
C290 O297 1.240 . S
C290 O298 1.252 . S
C291 O294 1.252 . S
C291 O295 1.260 . S
O292 In286 2.266 . S
O292 C289 1.252 . S
O293 In286 2.326 . S
O293 C289 1.260 . S
O294 In286 2.266 . S
O294 C291 1.252 . S
O295 In286 2.326 . S
O295 C291 1.260 . S
C296 O287 1.240 . S
C296 O288 1.252 . S
O297 In286 2.294 . S
O297 C290 1.240 . S
O298 In286 2.326 . S
O298 C290 1.252 . S
In299 O300 2.294 . S
In299 O301 2.326 . S
In299 O305 2.266 . S
In299 O306 2.326 . S
In299 O307 2.266 . S
In299 O308 2.326 . S
In299 O310 2.294 . S
In299 O311 2.326 . S
O300 In299 2.294 . S
O300 C309 1.240 . S
O301 In299 2.326 . S
O301 C309 1.252 . S
C302 O305 1.252 . S
C302 O306 1.260 . S
C303 O310 1.240 . S
C303 O311 1.252 . S
C304 O307 1.252 . S
C304 O308 1.260 . S
O305 In299 2.266 . S
O305 C302 1.252 . S
O306 In299 2.326 . S
O306 C302 1.260 . S
O307 In299 2.266 . S
O307 C304 1.252 . S
O308 In299 2.326 . S
O308 C304 1.260 . S
C309 O300 1.240 . S
C309 O301 1.252 . S
O310 In299 2.294 . S
O310 C303 1.240 . S
O311 In299 2.326 . S
O311 C303 1.252 . S
Tb312 C322 2.825 1_455 S
Tb312 O323 2.347 . S
Tb312 O326 2.366 . S
Tb312 O331 2.418 1_554 S
Tb312 O332 2.384 . S
Tb312 O335 2.479 1_554 S
Tb312 O336 2.479 . S
Eu313 O324 2.418 . S
Eu313 O325 2.384 . S
Eu313 O328 2.479 . S
Eu313 O329 2.471 . S
Eu313 O330 2.347 . S
Eu313 O333 2.366 . S
Eu313 C343 2.825 . S
C314 O330 1.259 . S
C314 O331 1.265 1_554 S
C315 O332 1.255 . S
C315 O333 1.265 . S
C316 C318 1.380 1_554 S
C316 C319 1.374 . S
C316 C322 1.507 . S
C317 C318 1.384 . S
C317 C321 1.387 . S
C317 H344 0.930 . S
C318 C316 1.380 1_556 S
C318 C317 1.384 . S
C318 H345 0.931 . S
C319 C316 1.374 . S
C319 C320 1.390 . S
C319 H346 0.930 . S
C320 C319 1.390 . S
C320 C321 1.391 1_554 S
C320 H347 0.930 . S
C321 C317 1.387 . S
C321 C320 1.391 1_556 S
C322 Tb312 2.825 1_655 S
C322 C316 1.507 . S
C322 O335 1.238 1_654 S
C322 O336 1.246 1_655 S
O323 Tb312 2.347 . S
O323 C327 1.259 . S
O324 Eu313 2.418 . S
O324 C327 1.265 . S
O325 Eu313 2.384 . S
O325 C334 1.255 . S
O326 Tb312 2.366 . S
O326 C334 1.265 . S
C327 O323 1.259 . S
C327 O324 1.265 . S
O328 Eu313 2.479 . S
O328 C343 1.238 . S
O329 Eu313 2.471 . S
O329 C343 1.247 . S
O330 Eu313 2.347 . S
O330 C314 1.259 . S
O331 Tb312 2.418 1_556 S
O331 C314 1.265 1_556 S
O332 Tb312 2.384 . S
O332 C315 1.255 . S
O333 Eu313 2.366 . S
O333 C315 1.265 . S
C334 O325 1.255 . S
C334 O326 1.265 . S
O335 Tb312 2.479 1_556 S
O335 C322 1.238 1_456 S
O336 Tb312 2.479 . S
O336 C322 1.246 1_455 S
C337 C340 1.380 . S
C337 C341 1.374 . S
C337 C343 1.507 . S
C338 C339 1.387 . S
C338 C342 1.391 . S
C339 C338 1.387 . S
C339 C340 1.384 . S
C339 H348 0.930 . S
C340 C337 1.380 . S
C340 C339 1.384 . S
C340 H349 0.931 . S
C341 C337 1.374 . S
C341 C342 1.390 . S
C341 H350 0.930 . S
C342 C338 1.391 . S
C342 C341 1.390 . S
C342 H351 0.930 . S
C343 Eu313 2.825 . S
C343 O328 1.238 . S
C343 O329 1.247 . S
C343 C337 1.507 . S
H344 C317 0.930 . S
H345 C318 0.931 . S
H346 C319 0.930 . S
H347 C320 0.930 . S
H348 C339 0.930 . S
H349 C340 0.931 . S
H350 C341 0.930 . S
H351 C342 0.930 . S
Tb352 C362 2.825 . S
Tb352 O363 2.347 . S
Tb352 O366 2.366 . S
Tb352 O371 2.418 . S
Tb352 O372 2.384 . S
Tb352 O375 2.479 . S
Tb352 O376 2.471 . S
Eu353 O364 2.418 . S
Eu353 O365 2.384 . S
Eu353 O368 2.479 . S
Eu353 O369 2.471 . S
Eu353 O370 2.347 . S
Eu353 O373 2.366 . S
Eu353 C383 2.825 . S
C354 O370 1.259 . S
C354 O371 1.265 . S
C355 O372 1.255 . S
C355 O373 1.265 . S
C356 C358 1.380 . S
C356 C359 1.374 . S
C356 C362 1.507 . S
C357 C358 1.384 . S
C357 C361 1.387 . S
C357 H384 0.930 . S
C358 C356 1.380 . S
C358 C357 1.384 . S
C358 H385 0.931 . S
C359 C356 1.374 . S
C359 C360 1.390 . S
C359 H386 0.930 . S
C360 C359 1.390 . S
C360 C361 1.391 . S
C360 H387 0.930 . S
C361 C357 1.387 . S
C361 C360 1.391 . S
C362 Tb352 2.825 . S
C362 C356 1.507 . S
C362 O375 1.238 . S
C362 O376 1.247 . S
O363 Tb352 2.347 . S
O363 C367 1.259 . S
O364 Eu353 2.418 . S
O364 C367 1.265 . S
O365 Eu353 2.384 . S
O365 C374 1.255 . S
O366 Tb352 2.366 . S
O366 C374 1.265 . S
C367 O363 1.259 . S
C367 O364 1.265 . S
O368 Eu353 2.479 . S
O368 C383 1.238 . S
O369 Eu353 2.471 . S
O369 C383 1.247 . S
O370 Eu353 2.347 . S
O370 C354 1.259 . S
O371 Tb352 2.418 . S
O371 C354 1.265 . S
O372 Tb352 2.384 . S
O372 C355 1.255 . S
O373 Eu353 2.366 . S
O373 C355 1.265 . S
C374 O365 1.255 . S
C374 O366 1.265 . S
O375 Tb352 2.479 . S
O375 C362 1.238 . S
O376 Tb352 2.471 . S
O376 C362 1.247 . S
C377 C380 1.380 . S
C377 C381 1.374 . S
C377 C383 1.507 . S
C378 C379 1.387 . S
C378 C382 1.391 . S
C379 C378 1.387 . S
C379 C380 1.384 . S
C379 H388 0.930 . S
C380 C377 1.380 . S
C380 C379 1.384 . S
C380 H389 0.931 . S
C381 C377 1.374 . S
C381 C382 1.390 . S
C381 H390 0.930 . S
C382 C378 1.391 . S
C382 C381 1.390 . S
C382 H391 0.930 . S
C383 Eu353 2.825 . S
C383 O368 1.238 . S
C383 O369 1.247 . S
C383 C377 1.507 . S
H384 C357 0.930 . S
H385 C358 0.931 . S
H386 C359 0.930 . S
H387 C360 0.930 . S
H388 C379 0.930 . S
H389 C380 0.931 . S
H390 C381 0.930 . S
H391 C382 0.930 . S
Tb392 C402 2.825 . S
Tb392 O403 2.347 1_565 S
Tb392 O406 2.366 . S
Tb392 O411 2.418 . S
Tb392 O412 2.384 1_565 S
Tb392 O415 2.479 . S
Tb392 O416 2.471 . S
Eu393 O404 2.418 . S
Eu393 O405 2.384 . S
Eu393 O408 2.479 . S
Eu393 O409 2.471 . S
Eu393 O410 2.347 . S
Eu393 O413 2.366 . S
Eu393 C423 2.825 . S
C394 O410 1.259 . S
C394 O411 1.265 1_545 S
C395 O412 1.255 . S
C395 O413 1.265 . S
C396 C398 1.380 . S
C396 C399 1.374 . S
C396 C402 1.507 . S
C397 C398 1.384 . S
C397 C401 1.387 . S
C397 H424 0.930 . S
C398 C396 1.380 . S
C398 C397 1.384 . S
C398 H425 0.931 . S
C399 C396 1.374 . S
C399 C400 1.390 . S
C399 H426 0.930 . S
C400 C399 1.390 . S
C400 C401 1.391 . S
C400 H427 0.930 . S
C401 C397 1.387 . S
C401 C400 1.391 . S
C402 Tb392 2.825 . S
C402 C396 1.507 . S
C402 O415 1.238 . S
C402 O416 1.247 . S
O403 Tb392 2.347 1_545 S
O403 C407 1.259 . S
O404 Eu393 2.418 . S
O404 C407 1.265 . S
O405 Eu393 2.384 . S
O405 C414 1.255 . S
O406 Tb392 2.366 . S
O406 C414 1.265 1_565 S
C407 O403 1.259 . S
C407 O404 1.265 . S
O408 Eu393 2.479 . S
O408 C423 1.238 . S
O409 Eu393 2.471 . S
O409 C423 1.247 . S
O410 Eu393 2.347 . S
O410 C394 1.259 . S
O411 Tb392 2.418 . S
O411 C394 1.265 1_565 S
O412 Tb392 2.384 1_545 S
O412 C395 1.255 . S
O413 Eu393 2.366 . S
O413 C395 1.265 . S
C414 O405 1.255 . S
C414 O406 1.265 1_545 S
O415 Tb392 2.479 . S
O415 C402 1.238 . S
O416 Tb392 2.471 . S
O416 C402 1.247 . S
C417 C420 1.380 . S
C417 C421 1.374 . S
C417 C423 1.507 . S
C418 C419 1.387 . S
C418 C422 1.391 . S
C419 C418 1.387 . S
C419 C420 1.384 . S
C419 H428 0.930 . S
C420 C417 1.380 . S
C420 C419 1.384 . S
C420 H429 0.931 . S
C421 C417 1.374 . S
C421 C422 1.390 . S
C421 H430 0.930 . S
C422 C418 1.391 . S
C422 C421 1.390 . S
C422 H431 0.930 . S
C423 Eu393 2.825 . S
C423 O408 1.238 . S
C423 O409 1.247 . S
C423 C417 1.507 . S
H424 C397 0.930 . S
H425 C398 0.931 . S
H426 C399 0.930 . S
H427 C400 0.930 . S
H428 C419 0.930 . S
H429 C420 0.931 . S
H430 C421 0.930 . S
H431 C422 0.930 . S
Tb432 C442 2.825 . S
Tb432 O443 2.347 . S
Tb432 O446 2.366 . S
Tb432 O451 2.418 . S
Tb432 O452 2.384 . S
Tb432 O455 2.479 . S
Tb432 O456 2.471 . S
Eu433 O444 2.418 . S
Eu433 O445 2.384 . S
Eu433 O448 2.479 . S
Eu433 O449 2.471 . S
Eu433 O450 2.347 . S
Eu433 O453 2.366 . S
Eu433 C463 2.825 . S
C434 O450 1.259 . S
C434 O451 1.265 . S
C435 O452 1.255 . S
C435 O453 1.265 . S
C436 C438 1.380 . S
C436 C439 1.374 . S
C436 C442 1.507 . S
C437 C438 1.384 . S
C437 C441 1.387 . S
C437 H464 0.930 . S
C438 C436 1.380 . S
C438 C437 1.384 . S
C438 H465 0.931 . S
C439 C436 1.374 . S
C439 C440 1.390 . S
C439 H466 0.930 . S
C440 C439 1.390 . S
C440 C441 1.391 . S
C440 H467 0.930 . S
C441 C437 1.387 . S
C441 C440 1.391 . S
C442 Tb432 2.825 . S
C442 C436 1.507 . S
C442 O455 1.238 . S
C442 O456 1.247 . S
O443 Tb432 2.347 . S
O443 C447 1.259 . S
O444 Eu433 2.418 . S
O444 C447 1.265 . S
O445 Eu433 2.384 . S
O445 C454 1.255 . S
O446 Tb432 2.366 . S
O446 C454 1.265 . S
C447 O443 1.259 . S
C447 O444 1.265 . S
O448 Eu433 2.479 . S
O448 C463 1.238 . S
O449 Eu433 2.471 . S
O449 C463 1.247 . S
O450 Eu433 2.347 . S
O450 C434 1.259 . S
O451 Tb432 2.418 . S
O451 C434 1.265 . S
O452 Tb432 2.384 . S
O452 C435 1.255 . S
O453 Eu433 2.366 . S
O453 C435 1.265 . S
C454 O445 1.255 . S
C454 O446 1.265 . S
O455 Tb432 2.479 . S
O455 C442 1.238 . S
O456 Tb432 2.471 . S
O456 C442 1.247 . S
C457 C460 1.380 . S
C457 C461 1.374 . S
C457 C463 1.507 . S
C458 C459 1.387 . S
C458 C462 1.391 . S
C459 C458 1.387 . S
C459 C460 1.384 . S
C459 H468 0.930 . S
C460 C457 1.380 . S
C460 C459 1.384 . S
C460 H469 0.931 . S
C461 C457 1.374 . S
C461 C462 1.390 . S
C461 H470 0.930 . S
C462 C458 1.391 . S
C462 C461 1.390 . S
C462 H471 0.930 . S
C463 Eu433 2.825 . S
C463 O448 1.238 . S
C463 O449 1.247 . S
C463 C457 1.507 . S
H464 C437 0.930 . S
H465 C438 0.931 . S
H466 C439 0.930 . S
H467 C440 0.930 . S
H468 C459 0.930 . S
H469 C460 0.931 . S
H470 C461 0.930 . S
H471 C462 0.930 . S
Tb472 C482 2.825 . S
Tb472 O483 2.347 . S
Tb472 O486 2.366 . S
Tb472 O491 2.418 . S
Tb472 O492 2.384 1_545 S
Tb472 O495 2.479 . S
Tb472 O496 2.471 . S
Eu473 O484 2.418 . S
Eu473 O485 2.384 . S
Eu473 O488 2.479 . S
Eu473 O489 2.471 . S
Eu473 O490 2.347 . S
Eu473 O493 2.366 . S
Eu473 C503 2.825 . S
C474 O490 1.259 . S
C474 O491 1.265 . S
C475 O492 1.255 . S
C475 O493 1.265 1_565 S
C476 C478 1.380 . S
C476 C479 1.336 1_455 S
C476 C482 1.507 . S
C477 C478 1.384 . S
C477 C481 1.387 . S
C477 H504 0.930 . S
C478 C476 1.380 . S
C478 C477 1.384 . S
C478 H505 0.931 . S
C479 C476 1.336 1_655 S
C479 C480 1.403 . S
C479 H506 0.957 . S
C480 C479 1.403 . S
C480 C481 1.391 1_655 S
C480 H507 0.930 . S
C481 C477 1.387 . S
C481 C480 1.391 1_455 S
C482 Tb472 2.825 . S
C482 C476 1.507 . S
C482 O495 1.238 . S
C482 O496 1.247 . S
O483 Tb472 2.347 . S
O483 C487 1.259 . S
O484 Eu473 2.418 . S
O484 C487 1.265 . S
O485 Eu473 2.384 . S
O485 C494 1.255 . S
O486 Tb472 2.366 . S
O486 C494 1.265 . S
C487 O483 1.259 . S
C487 O484 1.265 . S
O488 Eu473 2.479 . S
O488 C503 1.238 . S
O489 Eu473 2.471 . S
O489 C503 1.247 . S
O490 Eu473 2.347 . S
O490 C474 1.259 . S
O491 Tb472 2.418 . S
O491 C474 1.265 . S
O492 Tb472 2.384 1_565 S
O492 C475 1.255 . S
O493 Eu473 2.366 . S
O493 C475 1.265 1_545 S
C494 O485 1.255 . S
C494 O486 1.265 . S
O495 Tb472 2.479 . S
O495 C482 1.238 . S
O496 Tb472 2.471 . S
O496 C482 1.247 . S
C497 C500 1.380 . S
C497 C501 1.374 . S
C497 C503 1.507 . S
C498 C499 1.387 . S
C498 C502 1.391 . S
C499 C498 1.387 . S
C499 C500 1.384 . S
C499 H508 0.930 . S
C500 C497 1.380 . S
C500 C499 1.384 . S
C500 H509 0.931 . S
C501 C497 1.374 . S
C501 C502 1.390 . S
C501 H510 0.930 . S
C502 C498 1.391 . S
C502 C501 1.390 . S
C502 H511 0.930 . S
C503 Eu473 2.825 . S
C503 O488 1.238 . S
C503 O489 1.247 . S
C503 C497 1.507 . S
H504 C477 0.930 . S
H505 C478 0.931 . S
H506 C479 0.957 . S
H507 C480 0.930 . S
H508 C499 0.930 . S
H509 C500 0.931 . S
H510 C501 0.930 . S
H511 C502 0.930 . S
Tb512 C522 2.825 . S
Tb512 O523 2.347 . S
Tb512 O526 2.366 . S
Tb512 O531 2.418 . S
Tb512 O532 2.384 . S
Tb512 O535 2.479 . S
Tb512 O536 2.471 . S
Eu513 O524 2.418 . S
Eu513 O525 2.384 . S
Eu513 O528 2.479 . S
Eu513 O529 2.471 . S
Eu513 O530 2.347 . S
Eu513 O533 2.366 . S
Eu513 C543 2.825 . S
C514 O530 1.259 . S
C514 O531 1.265 . S
C515 O532 1.255 . S
C515 O533 1.265 . S
C516 C518 1.380 . S
C516 C519 1.374 . S
C516 C522 1.507 . S
C517 C518 1.384 . S
C517 C521 1.387 . S
C517 H544 0.930 . S
C518 C516 1.380 . S
C518 C517 1.384 . S
C518 H545 0.931 . S
C519 C516 1.374 . S
C519 C520 1.390 . S
C519 H546 0.930 . S
C520 C519 1.390 . S
C520 C521 1.391 . S
C520 H547 0.930 . S
C521 C517 1.387 . S
C521 C520 1.391 . S
C522 Tb512 2.825 . S
C522 C516 1.507 . S
C522 O535 1.238 . S
C522 O536 1.247 . S
O523 Tb512 2.347 . S
O523 C527 1.259 . S
O524 Eu513 2.418 . S
O524 C527 1.265 . S
O525 Eu513 2.384 . S
O525 C534 1.255 . S
O526 Tb512 2.366 . S
O526 C534 1.265 . S
C527 O523 1.259 . S
C527 O524 1.265 . S
O528 Eu513 2.479 . S
O528 C543 1.238 . S
O529 Eu513 2.471 . S
O529 C543 1.247 . S
O530 Eu513 2.347 . S
O530 C514 1.259 . S
O531 Tb512 2.418 . S
O531 C514 1.265 . S
O532 Tb512 2.384 . S
O532 C515 1.255 . S
O533 Eu513 2.366 . S
O533 C515 1.265 . S
C534 O525 1.255 . S
C534 O526 1.265 . S
O535 Tb512 2.479 . S
O535 C522 1.238 . S
O536 Tb512 2.471 . S
O536 C522 1.247 . S
C537 C540 1.380 . S
C537 C541 1.374 . S
C537 C543 1.507 . S
C538 C539 1.387 . S
C538 C542 1.391 . S
C539 C538 1.387 . S
C539 C540 1.384 . S
C539 H548 0.930 . S
C540 C537 1.380 . S
C540 C539 1.384 . S
C540 H549 0.931 . S
C541 C537 1.374 . S
C541 C542 1.390 . S
C541 H550 0.930 . S
C542 C538 1.391 . S
C542 C541 1.390 . S
C542 H551 0.930 . S
C543 Eu513 2.825 . S
C543 O528 1.238 . S
C543 O529 1.247 . S
C543 C537 1.507 . S
H544 C517 0.930 . S
H545 C518 0.931 . S
H546 C519 0.930 . S
H547 C520 0.930 . S
H548 C539 0.930 . S
H549 C540 0.931 . S
H550 C541 0.930 . S
H551 C542 0.930 . S
Tb552 C562 2.825 . S
Tb552 O563 2.347 . S
Tb552 O566 2.366 . S
Tb552 O571 2.418 1_545 S
Tb552 O572 2.384 . S
Tb552 O575 2.479 . S
Tb552 O576 2.471 . S
Eu553 O564 2.418 . S
Eu553 O565 2.384 1_556 S
Eu553 O568 2.479 . S
Eu553 O569 2.471 . S
Eu553 O570 2.347 . S
Eu553 O573 2.366 . S
Eu553 C583 2.825 . S
C554 O570 1.262 1_554 S
C554 O571 1.264 1_545 S
C555 O572 1.255 . S
C555 O573 1.265 1_554 S
C556 C558 1.380 . S
C556 C559 1.374 . S
C556 C562 1.507 . S
C557 C558 1.384 . S
C557 C561 1.387 . S
C557 H584 0.930 1_545 S
C558 C556 1.380 . S
C558 C557 1.384 . S
C558 H585 0.931 1_545 S
C559 C556 1.374 . S
C559 C560 1.390 . S
C559 H586 0.930 . S
C560 C559 1.390 . S
C560 C561 1.391 . S
C560 H587 0.930 . S
C561 C557 1.387 . S
C561 C560 1.391 . S
C562 Tb552 2.825 . S
C562 C556 1.507 . S
C562 O575 1.238 . S
C562 O576 1.247 . S
O563 Tb552 2.347 . S
O563 C567 1.259 . S
O564 Eu553 2.418 . S
O564 C567 1.265 1_556 S
O565 Eu553 2.384 1_554 S
O565 C574 1.255 . S
O566 Tb552 2.366 . S
O566 C574 1.265 . S
C567 O563 1.259 . S
C567 O564 1.265 1_554 S
O568 Eu553 2.479 . S
O568 C583 1.238 . S
O569 Eu553 2.471 . S
O569 C583 1.247 . S
O570 Eu553 2.347 . S
O570 C554 1.262 1_556 S
O571 Tb552 2.418 1_565 S
O571 C554 1.264 1_565 S
O572 Tb552 2.384 . S
O572 C555 1.255 . S
O573 Eu553 2.366 . S
O573 C555 1.265 1_556 S
C574 O565 1.255 . S
C574 O566 1.265 . S
O575 Tb552 2.479 . S
O575 C562 1.238 . S
O576 Tb552 2.471 . S
O576 C562 1.247 . S
C577 C580 1.380 . S
C577 C581 1.374 . S
C577 C583 1.507 . S
C578 C579 1.387 . S
C578 C582 1.391 . S
C579 C578 1.387 . S
C579 C580 1.384 . S
C579 H588 0.930 . S
C580 C577 1.380 . S
C580 C579 1.384 . S
C580 H589 0.931 . S
C581 C577 1.374 . S
C581 C582 1.390 . S
C581 H590 0.930 . S
C582 C578 1.391 . S
C582 C581 1.390 . S
C582 H591 0.930 . S
C583 Eu553 2.825 . S
C583 O568 1.238 . S
C583 O569 1.247 . S
C583 C577 1.507 . S
H584 C557 0.930 1_565 S
H585 C558 0.931 1_565 S
H586 C559 0.930 . S
H587 C560 0.930 . S
H588 C579 0.930 . S
H589 C580 0.931 . S
H590 C581 0.930 . S
H591 C582 0.930 . S
Tb592 C602 2.825 . S
Tb592 O603 2.347 . S
Tb592 O606 2.366 . S
Tb592 O611 2.418 . S
Tb592 O612 2.384 . S
Tb592 O615 2.479 . S
Tb592 O616 2.471 . S
Eu593 O604 2.418 . S
Eu593 O605 2.384 . S
Eu593 O608 2.479 . S
Eu593 O609 2.471 . S
Eu593 O610 2.347 . S
Eu593 O613 2.366 . S
Eu593 C623 2.825 . S
C594 O610 1.259 . S
C594 O611 1.265 . S
C595 O612 1.255 . S
C595 O613 1.265 . S
C596 C598 1.380 . S
C596 C599 1.374 . S
C596 C602 1.507 . S
C597 C598 1.384 . S
C597 C601 1.387 . S
C597 H624 0.930 . S
C598 C596 1.380 . S
C598 C597 1.384 . S
C598 H625 0.931 . S
C599 C596 1.374 . S
C599 C600 1.390 . S
C599 H626 0.930 . S
C600 C599 1.390 . S
C600 C601 1.391 . S
C600 H627 0.930 . S
C601 C597 1.387 . S
C601 C600 1.391 . S
C602 Tb592 2.825 . S
C602 C596 1.507 . S
C602 O615 1.238 . S
C602 O616 1.247 . S
O603 Tb592 2.347 . S
O603 C607 1.259 . S
O604 Eu593 2.418 . S
O604 C607 1.265 . S
O605 Eu593 2.384 . S
O605 C614 1.255 . S
O606 Tb592 2.366 . S
O606 C614 1.265 . S
C607 O603 1.259 . S
C607 O604 1.265 . S
O608 Eu593 2.479 . S
O608 C623 1.238 . S
O609 Eu593 2.471 . S
O609 C623 1.247 . S
O610 Eu593 2.347 . S
O610 C594 1.259 . S
O611 Tb592 2.418 . S
O611 C594 1.265 . S
O612 Tb592 2.384 . S
O612 C595 1.255 . S
O613 Eu593 2.366 . S
O613 C595 1.265 . S
C614 O605 1.255 . S
C614 O606 1.265 . S
O615 Tb592 2.479 . S
O615 C602 1.238 . S
O616 Tb592 2.471 . S
O616 C602 1.247 . S
C617 C620 1.380 . S
C617 C621 1.374 . S
C617 C623 1.507 . S
C618 C619 1.387 . S
C618 C622 1.391 . S
C619 C618 1.387 . S
C619 C620 1.384 . S
C619 H628 0.930 . S
C620 C617 1.380 . S
C620 C619 1.384 . S
C620 H629 0.931 . S
C621 C617 1.374 . S
C621 C622 1.390 . S
C621 H630 0.930 . S
C622 C618 1.391 . S
C622 C621 1.390 . S
C622 H631 0.930 . S
C623 Eu593 2.825 . S
C623 O608 1.238 . S
C623 O609 1.247 . S
C623 C617 1.507 . S
H624 C597 0.930 . S
H625 C598 0.931 . S
H626 C599 0.930 . S
H627 C600 0.930 . S
H628 C619 0.930 . S
H629 C620 0.931 . S
H630 C621 0.930 . S
H631 C622 0.930 . S
Tb632 C642 2.825 . S
Tb632 O643 2.347 1_556 S
Tb632 O646 2.366 . S
Tb632 O651 2.418 . S
Tb632 O652 2.384 1_556 S
Tb632 O655 2.479 . S
Tb632 O656 2.471 . S
Eu633 O644 2.418 . S
Eu633 O645 2.384 . S
Eu633 O648 2.479 . S
Eu633 O649 2.471 . S
Eu633 O650 2.347 . S
Eu633 O653 2.366 . S
Eu633 C663 2.825 . S
C634 O650 1.259 . S
C634 O651 1.265 1_554 S
C635 O652 1.255 . S
C635 O653 1.265 . S
C636 C638 1.380 . S
C636 C639 1.374 . S
C636 C642 1.507 . S
C637 C638 1.384 . S
C637 C641 1.387 . S
C637 H664 0.930 . S
C638 C636 1.380 . S
C638 C637 1.384 . S
C638 H665 0.931 . S
C639 C636 1.374 . S
C639 C640 1.390 . S
C639 H666 0.930 . S
C640 C639 1.390 . S
C640 C641 1.391 . S
C640 H667 0.930 . S
C641 C637 1.387 . S
C641 C640 1.391 . S
C642 Tb632 2.825 . S
C642 C636 1.507 . S
C642 O655 1.238 . S
C642 O656 1.247 . S
O643 Tb632 2.347 1_554 S
O643 C647 1.259 . S
O644 Eu633 2.418 . S
O644 C647 1.265 . S
O645 Eu633 2.384 . S
O645 C654 1.255 1_554 S
O646 Tb632 2.366 . S
O646 C654 1.265 . S
C647 O643 1.259 . S
C647 O644 1.265 . S
O648 Eu633 2.479 . S
O648 C663 1.238 . S
O649 Eu633 2.471 . S
O649 C663 1.247 . S
O650 Eu633 2.347 . S
O650 C634 1.259 . S
O651 Tb632 2.418 . S
O651 C634 1.265 1_556 S
O652 Tb632 2.384 1_554 S
O652 C635 1.255 . S
O653 Eu633 2.366 . S
O653 C635 1.265 . S
C654 O645 1.255 1_556 S
C654 O646 1.265 . S
O655 Tb632 2.479 . S
O655 C642 1.238 . S
O656 Tb632 2.471 . S
O656 C642 1.247 . S
C657 C660 1.380 . S
C657 C661 1.374 . S
C657 C663 1.507 . S
C658 C659 1.387 . S
C658 C662 1.391 . S
C659 C658 1.387 . S
C659 C660 1.384 . S
C659 H668 0.930 . S
C660 C657 1.380 . S
C660 C659 1.384 . S
C660 H669 0.931 . S
C661 C657 1.374 . S
C661 C662 1.390 . S
C661 H670 0.930 . S
C662 C658 1.391 . S
C662 C661 1.390 . S
C662 H671 0.930 . S
C663 Eu633 2.825 . S
C663 O648 1.238 . S
C663 O649 1.247 . S
C663 C657 1.507 . S
H664 C637 0.930 . S
H665 C638 0.931 . S
H666 C639 0.930 . S
H667 C640 0.930 . S
H668 C659 0.930 . S
H669 C660 0.931 . S
H670 C661 0.930 . S
H671 C662 0.930 . S
Tb672 C682 2.825 . S
Tb672 O683 2.347 . S
Tb672 O686 2.366 . S
Tb672 O691 2.418 . S
Tb672 O692 2.384 . S
Tb672 O695 2.479 . S
Tb672 O696 2.471 . S
Eu673 O684 2.418 . S
Eu673 O685 2.384 . S
Eu673 O688 2.479 . S
Eu673 O689 2.471 . S
Eu673 O690 2.347 . S
Eu673 O693 2.366 . S
Eu673 C703 2.825 . S
C674 O690 1.259 . S
C674 O691 1.265 . S
C675 O692 1.255 . S
C675 O693 1.265 . S
C676 C678 1.380 . S
C676 C679 1.374 . S
C676 C682 1.507 . S
C677 C678 1.384 . S
C677 C681 1.387 . S
C677 H704 0.930 . S
C678 C676 1.380 . S
C678 C677 1.384 . S
C678 H705 0.931 . S
C679 C676 1.374 . S
C679 C680 1.390 . S
C679 H706 0.930 . S
C680 C679 1.390 . S
C680 C681 1.391 . S
C680 H707 0.930 . S
C681 C677 1.387 . S
C681 C680 1.391 . S
C682 Tb672 2.825 . S
C682 C676 1.507 . S
C682 O695 1.238 . S
C682 O696 1.247 . S
O683 Tb672 2.347 . S
O683 C687 1.259 . S
O684 Eu673 2.418 . S
O684 C687 1.265 . S
O685 Eu673 2.384 . S
O685 C694 1.255 . S
O686 Tb672 2.366 . S
O686 C694 1.265 . S
C687 O683 1.259 . S
C687 O684 1.265 . S
O688 Eu673 2.479 . S
O688 C703 1.238 . S
O689 Eu673 2.471 . S
O689 C703 1.247 . S
O690 Eu673 2.347 . S
O690 C674 1.259 . S
O691 Tb672 2.418 . S
O691 C674 1.265 . S
O692 Tb672 2.384 . S
O692 C675 1.255 . S
O693 Eu673 2.366 . S
O693 C675 1.265 . S
C694 O685 1.255 . S
C694 O686 1.265 . S
O695 Tb672 2.479 . S
O695 C682 1.238 . S
O696 Tb672 2.471 . S
O696 C682 1.247 . S
C697 C700 1.380 . S
C697 C701 1.374 . S
C697 C703 1.507 . S
C698 C699 1.387 . S
C698 C702 1.391 . S
C699 C698 1.387 . S
C699 C700 1.384 . S
C699 H708 0.930 . S
C700 C697 1.380 . S
C700 C699 1.384 . S
C700 H709 0.931 . S
C701 C697 1.374 . S
C701 C702 1.390 . S
C701 H710 0.930 . S
C702 C698 1.391 . S
C702 C701 1.390 . S
C702 H711 0.930 . S
C703 Eu673 2.825 . S
C703 O688 1.238 . S
C703 O689 1.247 . S
C703 C697 1.507 . S
H704 C677 0.930 . S
H705 C678 0.931 . S
H706 C679 0.930 . S
H707 C680 0.930 . S
H708 C699 0.930 . S
H709 C700 0.931 . S
H710 C701 0.930 . S
H711 C702 0.930 . S
Tb712 C722 2.825 . S
Tb712 O723 2.347 . S
Tb712 O726 2.366 . S
Tb712 O731 2.418 . S
Tb712 O732 2.384 . S
Tb712 O735 2.479 . S
Tb712 O736 2.471 . S
Eu713 O724 2.418 . S
Eu713 O725 2.384 1_455 S
Eu713 O728 2.479 . S
Eu713 O729 2.471 . S
Eu713 O730 2.347 . S
Eu713 O733 2.366 . S
Eu713 C743 2.825 . S
C714 O730 1.259 . S
C714 O731 1.265 . S
C715 O732 1.255 . S
C715 O733 1.265 . S
C716 C718 1.380 . S
C716 C719 1.374 . S
C716 C722 1.507 . S
C717 C718 1.384 . S
C717 C721 1.387 . S
C717 H744 0.930 . S
C718 C716 1.380 . S
C718 C717 1.384 . S
C718 H745 0.931 . S
C719 C716 1.374 . S
C719 C720 1.375 1_455 S
C719 H746 0.930 . S
C720 C719 1.375 1_655 S
C720 C721 1.381 1_655 S
C720 H747 0.956 . S
C721 C717 1.387 . S
C721 C720 1.381 1_455 S
C722 Tb712 2.825 . S
C722 C716 1.507 . S
C722 O735 1.238 . S
C722 O736 1.247 . S
O723 Tb712 2.347 . S
O723 C727 1.259 . S
O724 Eu713 2.418 . S
O724 C727 1.265 . S
O725 Eu713 2.384 1_655 S
O725 C734 1.255 . S
O726 Tb712 2.366 . S
O726 C734 1.265 1_455 S
C727 O723 1.259 . S
C727 O724 1.265 . S
O728 Eu713 2.479 . S
O728 C743 1.238 . S
O729 Eu713 2.471 . S
O729 C743 1.247 . S
O730 Eu713 2.347 . S
O730 C714 1.259 . S
O731 Tb712 2.418 . S
O731 C714 1.265 . S
O732 Tb712 2.384 . S
O732 C715 1.255 . S
O733 Eu713 2.366 . S
O733 C715 1.265 . S
C734 O725 1.255 . S
C734 O726 1.265 1_655 S
O735 Tb712 2.479 . S
O735 C722 1.238 . S
O736 Tb712 2.471 . S
O736 C722 1.247 . S
C737 C740 1.380 . S
C737 C741 1.374 . S
C737 C743 1.507 . S
C738 C739 1.387 . S
C738 C742 1.391 . S
C739 C738 1.387 . S
C739 C740 1.384 . S
C739 H748 0.930 . S
C740 C737 1.380 . S
C740 C739 1.384 . S
C740 H749 0.931 . S
C741 C737 1.374 . S
C741 C742 1.390 . S
C741 H750 0.930 . S
C742 C738 1.391 . S
C742 C741 1.390 . S
C742 H751 0.930 . S
C743 Eu713 2.825 . S
C743 O728 1.238 . S
C743 O729 1.247 . S
C743 C737 1.507 . S
H744 C717 0.930 . S
H745 C718 0.931 . S
H746 C719 0.930 . S
H747 C720 0.956 . S
H748 C739 0.930 . S
H749 C740 0.931 . S
H750 C741 0.930 . S
H751 C742 0.930 . S
Tb752 C762 2.825 . S
Tb752 O763 2.347 . S
Tb752 O766 2.366 . S
Tb752 O771 2.418 . S
Tb752 O772 2.384 . S
Tb752 O775 2.479 . S
Tb752 O776 2.471 . S
Eu753 O764 2.418 . S
Eu753 O765 2.384 . S
Eu753 O768 2.479 . S
Eu753 O769 2.471 . S
Eu753 O770 2.347 . S
Eu753 O773 2.366 . S
Eu753 C783 2.825 . S
C754 O770 1.259 . S
C754 O771 1.265 . S
C755 O772 1.255 . S
C755 O773 1.265 . S
C756 C758 1.380 . S
C756 C759 1.374 . S
C756 C762 1.507 . S
C757 C758 1.384 . S
C757 C761 1.387 . S
C757 H784 0.930 . S
C758 C756 1.380 . S
C758 C757 1.384 . S
C758 H785 0.931 . S
C759 C756 1.374 . S
C759 C760 1.390 . S
C759 H786 0.930 . S
C760 C759 1.390 . S
C760 C761 1.391 . S
C760 H787 0.930 . S
C761 C757 1.387 . S
C761 C760 1.391 . S
C762 Tb752 2.825 . S
C762 C756 1.507 . S
C762 O775 1.238 . S
C762 O776 1.247 . S
O763 Tb752 2.347 . S
O763 C767 1.259 . S
O764 Eu753 2.418 . S
O764 C767 1.265 . S
O765 Eu753 2.384 . S
O765 C774 1.255 . S
O766 Tb752 2.366 . S
O766 C774 1.265 . S
C767 O763 1.259 . S
C767 O764 1.265 . S
O768 Eu753 2.479 . S
O768 C783 1.238 . S
O769 Eu753 2.471 . S
O769 C783 1.247 . S
O770 Eu753 2.347 . S
O770 C754 1.259 . S
O771 Tb752 2.418 . S
O771 C754 1.265 . S
O772 Tb752 2.384 . S
O772 C755 1.255 . S
O773 Eu753 2.366 . S
O773 C755 1.265 . S
C774 O765 1.255 . S
C774 O766 1.265 . S
O775 Tb752 2.479 . S
O775 C762 1.238 . S
O776 Tb752 2.471 . S
O776 C762 1.247 . S
C777 C780 1.380 . S
C777 C781 1.374 . S
C777 C783 1.507 . S
C778 C779 1.387 . S
C778 C782 1.391 . S
C779 C778 1.387 . S
C779 C780 1.384 . S
C779 H788 0.930 . S
C780 C777 1.380 . S
C780 C779 1.384 . S
C780 H789 0.931 . S
C781 C777 1.374 . S
C781 C782 1.390 . S
C781 H790 0.930 . S
C782 C778 1.391 . S
C782 C781 1.390 . S
C782 H791 0.930 . S
C783 Eu753 2.825 . S
C783 O768 1.238 . S
C783 O769 1.247 . S
C783 C777 1.507 . S
H784 C757 0.930 . S
H785 C758 0.931 . S
H786 C759 0.930 . S
H787 C760 0.930 . S
H788 C779 0.930 . S
H789 C780 0.931 . S
H790 C781 0.930 . S
H791 C782 0.930 . S
Tb792 C802 2.825 . S
Tb792 O803 2.347 . S
Tb792 O806 2.366 . S
Tb792 O811 2.418 . S
Tb792 O812 2.384 . S
Tb792 O815 2.479 . S
Tb792 O816 2.471 . S
Eu793 O804 2.418 . S
Eu793 O805 2.384 . S
Eu793 O808 2.479 . S
Eu793 O809 2.471 . S
Eu793 O810 2.347 . S
Eu793 O813 2.366 . S
Eu793 C823 2.825 . S
C794 O810 1.259 . S
C794 O811 1.265 . S
C795 O812 1.255 . S
C795 O813 1.265 . S
C796 C798 1.380 . S
C796 C799 1.374 . S
C796 C802 1.507 . S
C797 C798 1.384 . S
C797 C801 1.387 . S
C797 H824 0.930 . S
C798 C796 1.380 . S
C798 C797 1.384 . S
C798 H825 0.931 . S
C799 C796 1.374 . S
C799 C800 1.390 . S
C799 H826 0.930 . S
C800 C799 1.390 . S
C800 C801 1.391 . S
C800 H827 0.930 . S
C801 C797 1.387 . S
C801 C800 1.391 . S
C802 Tb792 2.825 . S
C802 C796 1.507 . S
C802 O815 1.238 . S
C802 O816 1.247 . S
O803 Tb792 2.347 . S
O803 C807 1.259 . S
O804 Eu793 2.418 . S
O804 C807 1.265 . S
O805 Eu793 2.384 . S
O805 C814 1.255 . S
O806 Tb792 2.366 . S
O806 C814 1.265 . S
C807 O803 1.259 . S
C807 O804 1.265 . S
O808 Eu793 2.479 . S
O808 C823 1.238 . S
O809 Eu793 2.471 . S
O809 C823 1.247 . S
O810 Eu793 2.347 . S
O810 C794 1.259 . S
O811 Tb792 2.418 . S
O811 C794 1.265 . S
O812 Tb792 2.384 . S
O812 C795 1.255 . S
O813 Eu793 2.366 . S
O813 C795 1.265 . S
C814 O805 1.255 . S
C814 O806 1.265 . S
O815 Tb792 2.479 . S
O815 C802 1.238 . S
O816 Tb792 2.471 . S
O816 C802 1.247 . S
C817 C820 1.380 . S
C817 C821 1.374 . S
C817 C823 1.507 . S
C818 C819 1.387 . S
C818 C822 1.391 . S
C819 C818 1.387 . S
C819 C820 1.384 . S
C819 H828 0.930 . S
C820 C817 1.380 . S
C820 C819 1.384 . S
C820 H829 0.931 . S
C821 C817 1.374 . S
C821 C822 1.390 . S
C821 H830 0.930 . S
C822 C818 1.391 . S
C822 C821 1.390 . S
C822 H831 0.930 . S
C823 Eu793 2.825 . S
C823 O808 1.238 . S
C823 O809 1.247 . S
C823 C817 1.507 . S
H824 C797 0.930 . S
H825 C798 0.931 . S
H826 C799 0.930 . S
H827 C800 0.930 . S
H828 C819 0.930 . S
H829 C820 0.931 . S
H830 C821 0.930 . S
H831 C822 0.930 . S
Tb832 C842 2.825 . S
Tb832 O843 2.347 . S
Tb832 O846 2.366 . S
Tb832 O851 2.418 . S
Tb832 O852 2.384 . S
Tb832 O855 2.479 . S
Tb832 O856 2.471 . S
Eu833 O844 2.418 . S
Eu833 O845 2.384 . S
Eu833 O848 2.479 . S
Eu833 O849 2.471 . S
Eu833 O850 2.347 . S
Eu833 O853 2.366 . S
Eu833 C863 2.825 . S
C834 O850 1.259 . S
C834 O851 1.265 . S
C835 O852 1.255 . S
C835 O853 1.265 . S
C836 C838 1.380 . S
C836 C839 1.374 . S
C836 C842 1.507 . S
C837 C838 1.384 . S
C837 C841 1.387 . S
C837 H864 0.930 . S
C838 C836 1.380 . S
C838 C837 1.384 . S
C838 H865 0.931 . S
C839 C836 1.374 . S
C839 C840 1.390 . S
C839 H866 0.930 . S
C840 C839 1.390 . S
C840 C841 1.391 . S
C840 H867 0.930 . S
C841 C837 1.387 . S
C841 C840 1.391 . S
C842 Tb832 2.825 . S
C842 C836 1.507 . S
C842 O855 1.238 . S
C842 O856 1.247 . S
O843 Tb832 2.347 . S
O843 C847 1.259 . S
O844 Eu833 2.418 . S
O844 C847 1.265 . S
O845 Eu833 2.384 . S
O845 C854 1.255 . S
O846 Tb832 2.366 . S
O846 C854 1.265 . S
C847 O843 1.259 . S
C847 O844 1.265 . S
O848 Eu833 2.479 . S
O848 C863 1.238 . S
O849 Eu833 2.471 . S
O849 C863 1.247 . S
O850 Eu833 2.347 . S
O850 C834 1.259 . S
O851 Tb832 2.418 . S
O851 C834 1.265 . S
O852 Tb832 2.384 . S
O852 C835 1.255 . S
O853 Eu833 2.366 . S
O853 C835 1.265 . S
C854 O845 1.255 . S
C854 O846 1.265 . S
O855 Tb832 2.479 . S
O855 C842 1.238 . S
O856 Tb832 2.471 . S
O856 C842 1.247 . S
C857 C860 1.380 . S
C857 C861 1.374 . S
C857 C863 1.507 . S
C858 C859 1.387 . S
C858 C862 1.391 . S
C859 C858 1.387 . S
C859 C860 1.384 . S
C859 H868 0.930 . S
C860 C857 1.380 . S
C860 C859 1.384 . S
C860 H869 0.931 . S
C861 C857 1.374 . S
C861 C862 1.390 . S
C861 H870 0.930 . S
C862 C858 1.391 . S
C862 C861 1.390 . S
C862 H871 0.930 . S
C863 Eu833 2.825 . S
C863 O848 1.238 . S
C863 O849 1.247 . S
C863 C857 1.507 . S
H864 C837 0.930 . S
H865 C838 0.931 . S
H866 C839 0.930 . S
H867 C840 0.930 . S
H868 C859 0.930 . S
H869 C860 0.931 . S
H870 C861 0.930 . S
H871 C862 0.930 . S
Tb872 C882 2.825 . S
Tb872 O883 2.347 . S
Tb872 O886 2.366 . S
Tb872 O891 2.418 . S
Tb872 O892 2.384 . S
Tb872 O895 2.479 . S
Tb872 O896 2.471 . S
Eu873 O884 2.418 . S
Eu873 O885 2.384 . S
Eu873 O888 2.479 . S
Eu873 O889 2.471 . S
Eu873 O890 2.347 . S
Eu873 O893 2.366 . S
Eu873 C903 2.825 . S
C874 O890 1.259 . S
C874 O891 1.265 . S
C875 O892 1.255 . S
C875 O893 1.265 . S
C876 C878 1.380 . S
C876 C879 1.374 . S
C876 C882 1.507 . S
C877 C878 1.384 . S
C877 C881 1.387 . S
C877 H904 0.930 . S
C878 C876 1.380 . S
C878 C877 1.384 . S
C878 H905 0.931 . S
C879 C876 1.374 . S
C879 C880 1.390 . S
C879 H906 0.930 . S
C880 C879 1.390 . S
C880 C881 1.391 . S
C880 H907 0.930 . S
C881 C877 1.387 . S
C881 C880 1.391 . S
C882 Tb872 2.825 . S
C882 C876 1.507 . S
C882 O895 1.238 . S
C882 O896 1.247 . S
O883 Tb872 2.347 . S
O883 C887 1.259 . S
O884 Eu873 2.418 . S
O884 C887 1.265 . S
O885 Eu873 2.384 . S
O885 C894 1.255 . S
O886 Tb872 2.366 . S
O886 C894 1.265 . S
C887 O883 1.259 . S
C887 O884 1.265 . S
O888 Eu873 2.479 . S
O888 C903 1.238 . S
O889 Eu873 2.471 . S
O889 C903 1.247 . S
O890 Eu873 2.347 . S
O890 C874 1.259 . S
O891 Tb872 2.418 . S
O891 C874 1.265 . S
O892 Tb872 2.384 . S
O892 C875 1.255 . S
O893 Eu873 2.366 . S
O893 C875 1.265 . S
C894 O885 1.255 . S
C894 O886 1.265 . S
O895 Tb872 2.479 . S
O895 C882 1.238 . S
O896 Tb872 2.471 . S
O896 C882 1.247 . S
C897 C900 1.380 . S
C897 C901 1.374 . S
C897 C903 1.507 . S
C898 C899 1.387 . S
C898 C902 1.391 . S
C899 C898 1.387 . S
C899 C900 1.384 . S
C899 H908 0.930 . S
C900 C897 1.380 . S
C900 C899 1.384 . S
C900 H909 0.931 . S
C901 C897 1.374 . S
C901 C902 1.390 . S
C901 H910 0.930 . S
C902 C898 1.391 . S
C902 C901 1.390 . S
C902 H911 0.930 . S
C903 Eu873 2.825 . S
C903 O888 1.238 . S
C903 O889 1.247 . S
C903 C897 1.507 . S
H904 C877 0.930 . S
H905 C878 0.931 . S
H906 C879 0.930 . S
H907 C880 0.930 . S
H908 C899 0.930 . S
H909 C900 0.931 . S
H910 C901 0.930 . S
H911 C902 0.930 . S
Tb912 C922 2.825 . S
Tb912 O923 2.347 . S
Tb912 O926 2.366 . S
Tb912 O931 2.418 . S
Tb912 O932 2.384 1_455 S
Tb912 O935 2.479 . S
Tb912 O936 2.471 1_554 S
Eu913 O924 2.418 1_554 S
Eu913 O925 2.384 . S
Eu913 O928 2.479 . S
Eu913 O929 2.471 . S
Eu913 O930 2.347 . S
Eu913 O933 2.366 . S
Eu913 C943 2.825 . S
C914 O930 1.259 . S
C914 O931 1.265 . S
C915 O932 1.256 . S
C915 O933 1.260 1_655 S
C916 C918 1.384 . S
C916 C919 1.367 1_554 S
C916 C922 1.509 . S
C917 C918 1.384 . S
C917 C921 1.387 1_554 S
C917 H944 0.930 . S
C918 C916 1.384 . S
C918 C917 1.384 . S
C918 H945 0.931 . S
C919 C916 1.367 1_556 S
C919 C920 1.390 . S
C919 H946 0.930 . S
C920 C919 1.390 . S
C920 C921 1.391 . S
C920 H947 0.930 . S
C921 C917 1.387 1_556 S
C921 C920 1.391 . S
C922 Tb912 2.825 . S
C922 C916 1.509 . S
C922 O935 1.238 . S
C922 O936 1.247 1_554 S
O923 Tb912 2.347 . S
O923 C927 1.259 1_554 S
O924 Eu913 2.418 1_556 S
O924 C927 1.265 . S
O925 Eu913 2.384 . S
O925 C934 1.255 . S
O926 Tb912 2.366 . S
O926 C934 1.265 . S
C927 O923 1.259 1_556 S
C927 O924 1.265 . S
O928 Eu913 2.479 . S
O928 C943 1.238 . S
O929 Eu913 2.471 . S
O929 C943 1.247 . S
O930 Eu913 2.347 . S
O930 C914 1.259 . S
O931 Tb912 2.418 . S
O931 C914 1.265 . S
O932 Tb912 2.384 1_655 S
O932 C915 1.256 . S
O933 Eu913 2.366 . S
O933 C915 1.260 1_455 S
C934 O925 1.255 . S
C934 O926 1.265 . S
O935 Tb912 2.479 . S
O935 C922 1.238 . S
O936 Tb912 2.471 1_556 S
O936 C922 1.247 1_556 S
C937 C940 1.380 . S
C937 C941 1.374 . S
C937 C943 1.507 . S
C938 C939 1.387 . S
C938 C942 1.391 . S
C939 C938 1.387 . S
C939 C940 1.384 . S
C939 H948 0.930 . S
C940 C937 1.380 . S
C940 C939 1.384 . S
C940 H949 0.931 . S
C941 C937 1.374 . S
C941 C942 1.390 . S
C941 H950 0.930 . S
C942 C938 1.391 . S
C942 C941 1.390 . S
C942 H951 0.930 . S
C943 Eu913 2.825 . S
C943 O928 1.238 . S
C943 O929 1.247 . S
C943 C937 1.507 . S
H944 C917 0.930 . S
H945 C918 0.931 . S
H946 C919 0.930 . S
H947 C920 0.930 . S
H948 C939 0.930 . S
H949 C940 0.931 . S
H950 C941 0.930 . S
H951 C942 0.930 . S
H952 C964 0.930 . S
H953 C966 0.930 . S
H954 C967 0.929 1_655 S
H955 C971 0.959 . S
H956 C971 0.959 1_554 S
H957 C971 0.961 . S
H958 C972 0.982 . S
H959 C972 0.961 . S
H960 C972 0.959 . S
H961 C975 0.929 . S
H962 C976 0.931 . S
H963 C978 0.930 . S
C964 H952 0.930 . S
C964 C965 1.399 . S
C964 C969 1.399 . S
C965 C964 1.399 . S
C965 C966 1.376 1_455 S
C966 H953 0.930 . S
C966 C965 1.376 1_655 S
C966 C967 1.388 1_655 S
C967 H954 0.929 1_455 S
C967 C966 1.388 1_455 S
C967 C968 1.391 . S
C968 C967 1.391 . S
C968 C969 1.394 . S
C968 C974 1.465 . S
C969 C964 1.399 . S
C969 C968 1.394 . S
C969 C970 1.516 . S
C970 C969 1.516 . S
C970 C971 1.502 . S
C970 C972 1.561 1_556 S
C970 C973 1.526 . S
C971 H955 0.959 . S
C971 H956 0.959 1_556 S
C971 H957 0.961 . S
C971 C970 1.502 . S
C972 H958 0.982 . S
C972 H959 0.961 . S
C972 H960 0.959 . S
C972 C970 1.561 1_554 S
C973 C970 1.526 . S
C973 C974 1.396 . S
C973 C978 1.390 1_556 S
C974 C968 1.465 . S
C974 C973 1.396 . S
C974 C975 1.399 . S
C975 H961 0.929 . S
C975 C974 1.399 . S
C975 C976 1.385 1_556 S
C976 H962 0.931 . S
C976 C975 1.385 1_554 S
C976 C977 1.389 . S
C977 C976 1.389 . S
C977 C978 1.387 . S
C978 H963 0.930 . S
C978 C973 1.390 1_554 S
C978 C977 1.387 . S
H979 C991 0.930 . S
H980 C993 0.930 . S
H981 C994 0.930 . S
H982 C998 0.959 . S
H983 C998 0.959 . S
H984 C998 0.961 . S
H985 C999 0.960 . S
H986 C999 0.961 . S
H987 C999 0.959 . S
H988 C1002 0.929 . S
H989 C1003 0.931 . S
H990 C1005 0.930 . S
C991 H979 0.930 . S
C991 C992 1.399 . S
C991 C996 1.399 . S
C992 C991 1.399 . S
C992 C993 1.376 . S
C993 H980 0.930 . S
C993 C992 1.376 . S
C993 C994 1.388 . S
C994 H981 0.930 . S
C994 C993 1.388 . S
C994 C995 1.390 . S
C995 C994 1.390 . S
C995 C996 1.394 . S
C995 C1001 1.465 . S
C996 C991 1.399 . S
C996 C995 1.394 . S
C996 C997 1.516 . S
C997 C996 1.516 . S
C997 C998 1.502 . S
C997 C999 1.561 . S
C997 C1000 1.526 . S
C998 H982 0.959 . S
C998 H983 0.959 . S
C998 H984 0.961 . S
C998 C997 1.502 . S
C999 H985 0.960 . S
C999 H986 0.961 . S
C999 H987 0.959 . S
C999 C997 1.561 . S
C1000 C997 1.526 . S
C1000 C1001 1.396 . S
C1000 C1005 1.390 . S
C1001 C995 1.465 . S
C1001 C1000 1.396 . S
C1001 C1002 1.399 . S
C1002 H988 0.929 . S
C1002 C1001 1.399 . S
C1002 C1003 1.385 . S
C1003 H989 0.931 . S
C1003 C1002 1.385 . S
C1003 C1004 1.389 . S
C1004 C1003 1.389 . S
C1004 C1005 1.387 . S
C1005 H990 0.930 . S
C1005 C1000 1.390 . S
C1005 C1004 1.387 . S
H1006 C1018 0.930 . S
H1007 C1020 0.930 . S
H1008 C1021 0.930 . S
H1009 C1025 0.959 . S
H1010 C1025 0.959 . S
H1011 C1025 0.961 . S
H1012 C1026 0.960 . S
H1013 C1026 0.961 . S
H1014 C1026 0.959 . S
H1015 C1029 0.929 . S
H1016 C1030 0.931 . S
H1017 C1032 0.930 . S
C1018 H1006 0.930 . S
C1018 C1019 1.399 . S
C1018 C1023 1.399 . S
C1019 C1018 1.399 . S
C1019 C1020 1.376 . S
C1020 H1007 0.930 . S
C1020 C1019 1.376 . S
C1020 C1021 1.388 . S
C1021 H1008 0.930 . S
C1021 C1020 1.388 . S
C1021 C1022 1.390 . S
C1022 C1021 1.390 . S
C1022 C1023 1.394 . S
C1022 C1028 1.465 . S
C1023 C1018 1.399 . S
C1023 C1022 1.394 . S
C1023 C1024 1.516 . S
C1024 C1023 1.516 . S
C1024 C1025 1.502 . S
C1024 C1026 1.561 . S
C1024 C1027 1.526 . S
C1025 H1009 0.959 . S
C1025 H1010 0.959 . S
C1025 H1011 0.961 . S
C1025 C1024 1.502 . S
C1026 H1012 0.960 . S
C1026 H1013 0.961 . S
C1026 H1014 0.959 . S
C1026 C1024 1.561 . S
C1027 C1024 1.526 . S
C1027 C1028 1.396 . S
C1027 C1032 1.390 . S
C1028 C1022 1.465 . S
C1028 C1027 1.396 . S
C1028 C1029 1.399 . S
C1029 H1015 0.929 . S
C1029 C1028 1.399 . S
C1029 C1030 1.385 . S
C1030 H1016 0.931 . S
C1030 C1029 1.385 . S
C1030 C1031 1.389 . S
C1031 C1030 1.389 . S
C1031 C1032 1.387 . S
C1032 H1017 0.930 . S
C1032 C1027 1.390 . S
C1032 C1031 1.387 . S
H1033 C1045 0.930 . S
H1034 C1047 0.930 . S
H1035 C1048 0.930 . S
H1036 C1052 0.959 . S
H1037 C1052 0.959 . S
H1038 C1052 0.961 . S
H1039 C1053 0.960 . S
H1040 C1053 0.961 . S
H1041 C1053 0.959 . S
H1042 C1056 0.929 . S
H1043 C1057 0.931 . S
H1044 C1059 0.930 . S
C1045 H1033 0.930 . S
C1045 C1046 1.399 . S
C1045 C1050 1.399 . S
C1046 C1045 1.399 . S
C1046 C1047 1.376 . S
C1047 H1034 0.930 . S
C1047 C1046 1.376 . S
C1047 C1048 1.388 . S
C1048 H1035 0.930 . S
C1048 C1047 1.388 . S
C1048 C1049 1.390 . S
C1049 C1048 1.390 . S
C1049 C1050 1.394 . S
C1049 C1055 1.465 . S
C1050 C1045 1.399 . S
C1050 C1049 1.394 . S
C1050 C1051 1.516 . S
C1051 C1050 1.516 . S
C1051 C1052 1.502 . S
C1051 C1053 1.561 . S
C1051 C1054 1.526 . S
C1052 H1036 0.959 . S
C1052 H1037 0.959 . S
C1052 H1038 0.961 . S
C1052 C1051 1.502 . S
C1053 H1039 0.960 . S
C1053 H1040 0.961 . S
C1053 H1041 0.959 . S
C1053 C1051 1.561 . S
C1054 C1051 1.526 . S
C1054 C1055 1.396 . S
C1054 C1059 1.390 . S
C1055 C1049 1.465 . S
C1055 C1054 1.396 . S
C1055 C1056 1.399 . S
C1056 H1042 0.929 . S
C1056 C1055 1.399 . S
C1056 C1057 1.385 . S
C1057 H1043 0.931 . S
C1057 C1056 1.385 . S
C1057 C1058 1.389 . S
C1058 C1057 1.389 . S
C1058 C1059 1.387 . S
C1059 H1044 0.930 . S
C1059 C1054 1.390 . S
C1059 C1058 1.387 . S
H1060 C1072 0.930 . S
H1061 C1074 0.930 . S
H1062 C1075 0.930 . S
H1063 C1079 0.959 . S
H1064 C1079 0.959 . S
H1065 C1079 0.961 . S
H1066 C1080 0.960 . S
H1067 C1080 0.961 . S
H1068 C1080 0.959 . S
H1069 C1083 0.929 . S
H1070 C1084 0.931 . S
H1071 C1086 0.930 . S
C1072 H1060 0.930 . S
C1072 C1073 1.399 . S
C1072 C1077 1.399 . S
C1073 C1072 1.399 . S
C1073 C1074 1.376 . S
C1074 H1061 0.930 . S
C1074 C1073 1.376 . S
C1074 C1075 1.388 . S
C1075 H1062 0.930 . S
C1075 C1074 1.388 . S
C1075 C1076 1.390 . S
C1076 C1075 1.390 . S
C1076 C1077 1.394 . S
C1076 C1082 1.465 . S
C1077 C1072 1.399 . S
C1077 C1076 1.394 . S
C1077 C1078 1.516 . S
C1078 C1077 1.516 . S
C1078 C1079 1.502 . S
C1078 C1080 1.561 . S
C1078 C1081 1.526 . S
C1079 H1063 0.959 . S
C1079 H1064 0.959 . S
C1079 H1065 0.961 . S
C1079 C1078 1.502 . S
C1080 H1066 0.960 . S
C1080 H1067 0.961 . S
C1080 H1068 0.959 . S
C1080 C1078 1.561 . S
C1081 C1078 1.526 . S
C1081 C1082 1.396 . S
C1081 C1086 1.390 . S
C1082 C1076 1.465 . S
C1082 C1081 1.396 . S
C1082 C1083 1.399 . S
C1083 H1069 0.929 . S
C1083 C1082 1.399 . S
C1083 C1084 1.385 . S
C1084 H1070 0.931 . S
C1084 C1083 1.385 . S
C1084 C1085 1.389 . S
C1085 C1084 1.389 . S
C1085 C1086 1.387 . S
C1086 H1071 0.930 . S
C1086 C1081 1.390 . S
C1086 C1085 1.387 . S
H1087 C1099 0.930 . S
H1088 C1101 0.930 . S
H1089 C1102 0.930 . S
H1090 C1106 0.959 . S
H1091 C1106 0.959 . S
H1092 C1106 0.961 . S
H1093 C1107 0.960 . S
H1094 C1107 0.961 . S
H1095 C1107 0.959 . S
H1096 C1110 0.929 . S
H1097 C1111 0.931 . S
H1098 C1113 0.930 . S
C1099 H1087 0.930 . S
C1099 C1100 1.399 . S
C1099 C1104 1.399 . S
C1100 C1099 1.399 . S
C1100 C1101 1.376 . S
C1101 H1088 0.930 . S
C1101 C1100 1.376 . S
C1101 C1102 1.388 . S
C1102 H1089 0.930 . S
C1102 C1101 1.388 . S
C1102 C1103 1.390 . S
C1103 C1102 1.390 . S
C1103 C1104 1.394 . S
C1103 C1109 1.465 . S
C1104 C1099 1.399 . S
C1104 C1103 1.394 . S
C1104 C1105 1.516 . S
C1105 C1104 1.516 . S
C1105 C1106 1.502 . S
C1105 C1107 1.561 . S
C1105 C1108 1.526 . S
C1106 H1090 0.959 . S
C1106 H1091 0.959 . S
C1106 H1092 0.961 . S
C1106 C1105 1.502 . S
C1107 H1093 0.960 . S
C1107 H1094 0.961 . S
C1107 H1095 0.959 . S
C1107 C1105 1.561 . S
C1108 C1105 1.526 . S
C1108 C1109 1.396 . S
C1108 C1113 1.390 . S
C1109 C1103 1.465 . S
C1109 C1108 1.396 . S
C1109 C1110 1.399 . S
C1110 H1096 0.929 . S
C1110 C1109 1.399 . S
C1110 C1111 1.385 . S
C1111 H1097 0.931 . S
C1111 C1110 1.385 . S
C1111 C1112 1.389 . S
C1112 C1111 1.389 . S
C1112 C1113 1.387 . S
C1113 H1098 0.930 . S
C1113 C1108 1.390 . S
C1113 C1112 1.387 . S
H1114 C1126 0.930 . S
H1115 C1128 0.930 . S
H1116 C1129 0.930 . S
H1117 C1133 0.959 . S
H1118 C1133 0.959 . S
H1119 C1133 0.961 . S
H1120 C1134 0.960 . S
H1121 C1134 0.961 . S
H1122 C1134 0.959 . S
H1123 C1137 0.929 . S
H1124 C1138 0.931 . S
H1125 C1140 0.930 . S
C1126 H1114 0.930 . S
C1126 C1127 1.399 . S
C1126 C1131 1.399 . S
C1127 C1126 1.399 . S
C1127 C1128 1.376 . S
C1128 H1115 0.930 . S
C1128 C1127 1.376 . S
C1128 C1129 1.388 . S
C1129 H1116 0.930 . S
C1129 C1128 1.388 . S
C1129 C1130 1.390 . S
C1130 C1129 1.390 . S
C1130 C1131 1.394 . S
C1130 C1136 1.465 . S
C1131 C1126 1.399 . S
C1131 C1130 1.394 . S
C1131 C1132 1.516 . S
C1132 C1131 1.516 . S
C1132 C1133 1.502 . S
C1132 C1134 1.561 . S
C1132 C1135 1.526 . S
C1133 H1117 0.959 . S
C1133 H1118 0.959 . S
C1133 H1119 0.961 . S
C1133 C1132 1.502 . S
C1134 H1120 0.960 . S
C1134 H1121 0.961 . S
C1134 H1122 0.959 . S
C1134 C1132 1.561 . S
C1135 C1132 1.526 . S
C1135 C1136 1.396 . S
C1135 C1140 1.390 . S
C1136 C1130 1.465 . S
C1136 C1135 1.396 . S
C1136 C1137 1.399 . S
C1137 H1123 0.929 . S
C1137 C1136 1.399 . S
C1137 C1138 1.385 . S
C1138 H1124 0.931 . S
C1138 C1137 1.385 . S
C1138 C1139 1.389 . S
C1139 C1138 1.389 . S
C1139 C1140 1.387 . S
C1140 H1125 0.930 . S
C1140 C1135 1.390 . S
C1140 C1139 1.387 . S
H1141 C1153 0.930 . S
H1142 C1155 0.930 . S
H1143 C1156 0.930 . S
H1144 C1160 0.959 . S
H1145 C1160 0.959 . S
H1146 C1160 0.961 . S
H1147 C1161 0.960 . S
H1148 C1161 0.961 . S
H1149 C1161 0.959 . S
H1150 C1164 0.929 . S
H1151 C1165 0.931 . S
H1152 C1167 0.930 . S
C1153 H1141 0.930 . S
C1153 C1154 1.399 . S
C1153 C1158 1.399 . S
C1154 C1153 1.399 . S
C1154 C1155 1.376 . S
C1155 H1142 0.930 . S
C1155 C1154 1.376 . S
C1155 C1156 1.388 . S
C1156 H1143 0.930 . S
C1156 C1155 1.388 . S
C1156 C1157 1.390 . S
C1157 C1156 1.390 . S
C1157 C1158 1.394 . S
C1157 C1163 1.465 . S
C1158 C1153 1.399 . S
C1158 C1157 1.394 . S
C1158 C1159 1.516 . S
C1159 C1158 1.516 . S
C1159 C1160 1.502 . S
C1159 C1161 1.561 . S
C1159 C1162 1.526 . S
C1160 H1144 0.959 . S
C1160 H1145 0.959 . S
C1160 H1146 0.961 . S
C1160 C1159 1.502 . S
C1161 H1147 0.960 . S
C1161 H1148 0.961 . S
C1161 H1149 0.959 . S
C1161 C1159 1.561 . S
C1162 C1159 1.526 . S
C1162 C1163 1.396 . S
C1162 C1167 1.390 . S
C1163 C1157 1.465 . S
C1163 C1162 1.396 . S
C1163 C1164 1.399 . S
C1164 H1150 0.929 . S
C1164 C1163 1.399 . S
C1164 C1165 1.385 . S
C1165 H1151 0.931 . S
C1165 C1164 1.385 . S
C1165 C1166 1.389 . S
C1166 C1165 1.389 . S
C1166 C1167 1.387 . S
C1167 H1152 0.930 . S
C1167 C1162 1.390 . S
C1167 C1166 1.387 . S
H1168 C1180 0.930 1_565 S
H1169 C1182 0.930 . S
H1170 C1183 0.930 . S
H1171 C1187 0.964 . S
H1172 C1187 0.956 1_565 S
H1173 C1187 0.940 1_665 S
H1174 C1188 0.960 . S
H1175 C1188 0.961 . S
H1176 C1188 0.959 . S
H1177 C1191 0.929 . S
H1178 C1192 0.931 . S
H1179 C1194 0.930 . S
C1180 H1168 0.930 1_545 S
C1180 C1181 1.399 . S
C1180 C1185 1.399 . S
C1181 C1180 1.399 . S
C1181 C1182 1.376 . S
C1182 H1169 0.930 . S
C1182 C1181 1.376 . S
C1182 C1183 1.388 . S
C1183 H1170 0.930 . S
C1183 C1182 1.388 . S
C1183 C1184 1.390 . S
C1184 C1183 1.390 . S
C1184 C1185 1.394 . S
C1184 C1190 1.465 . S
C1185 C1180 1.399 . S
C1185 C1184 1.394 . S
C1185 C1186 1.516 . S
C1186 C1185 1.516 . S
C1186 C1187 1.505 1_655 S
C1186 C1188 1.561 1_545 S
C1186 C1189 1.526 1_655 S
C1187 H1171 0.964 . S
C1187 H1172 0.956 1_545 S
C1187 H1173 0.940 1_445 S
C1187 C1186 1.505 1_455 S
C1188 H1174 0.960 . S
C1188 H1175 0.961 . S
C1188 H1176 0.959 . S
C1188 C1186 1.561 1_565 S
C1189 C1186 1.526 1_455 S
C1189 C1190 1.396 1_455 S
C1189 C1194 1.390 . S
C1190 C1184 1.465 . S
C1190 C1189 1.396 1_655 S
C1190 C1191 1.399 . S
C1191 H1177 0.929 . S
C1191 C1190 1.399 . S
C1191 C1192 1.385 1_655 S
C1192 H1178 0.931 . S
C1192 C1191 1.385 1_455 S
C1192 C1193 1.389 . S
C1193 C1192 1.389 . S
C1193 C1194 1.387 . S
C1194 H1179 0.930 . S
C1194 C1189 1.390 . S
C1194 C1193 1.387 . S
H1195 C1207 0.930 . S
H1196 C1209 0.930 . S
H1197 C1210 0.930 . S
H1198 C1214 0.959 . S
H1199 C1214 0.959 . S
H1200 C1214 0.961 . S
H1201 C1215 0.960 . S
H1202 C1215 0.961 . S
H1203 C1215 0.959 . S
H1204 C1218 0.929 . S
H1205 C1219 0.931 . S
H1206 C1221 0.930 . S
C1207 H1195 0.930 . S
C1207 C1208 1.399 . S
C1207 C1212 1.399 . S
C1208 C1207 1.399 . S
C1208 C1209 1.376 . S
C1209 H1196 0.930 . S
C1209 C1208 1.376 . S
C1209 C1210 1.388 . S
C1210 H1197 0.930 . S
C1210 C1209 1.388 . S
C1210 C1211 1.390 . S
C1211 C1210 1.390 . S
C1211 C1212 1.394 . S
C1211 C1217 1.465 . S
C1212 C1207 1.399 . S
C1212 C1211 1.394 . S
C1212 C1213 1.516 . S
C1213 C1212 1.516 . S
C1213 C1214 1.502 . S
C1213 C1215 1.561 . S
C1213 C1216 1.526 . S
C1214 H1198 0.959 . S
C1214 H1199 0.959 . S
C1214 H1200 0.961 . S
C1214 C1213 1.502 . S
C1215 H1201 0.960 . S
C1215 H1202 0.961 . S
C1215 H1203 0.959 . S
C1215 C1213 1.561 . S
C1216 C1213 1.526 . S
C1216 C1217 1.396 . S
C1216 C1221 1.390 . S
C1217 C1211 1.465 . S
C1217 C1216 1.396 . S
C1217 C1218 1.399 . S
C1218 H1204 0.929 . S
C1218 C1217 1.399 . S
C1218 C1219 1.385 . S
C1219 H1205 0.931 . S
C1219 C1218 1.385 . S
C1219 C1220 1.389 . S
C1220 C1219 1.389 . S
C1220 C1221 1.387 . S
C1221 H1206 0.930 . S
C1221 C1216 1.390 . S
C1221 C1220 1.387 . S
H1222 C1234 0.930 . S
H1223 C1236 0.930 . S
H1224 C1237 0.930 . S
H1225 C1241 0.959 . S
H1226 C1241 0.959 . S
H1227 C1241 0.961 . S
H1228 C1242 0.960 . S
H1229 C1242 0.961 . S
H1230 C1242 0.959 . S
H1231 C1245 0.929 . S
H1232 C1246 0.931 . S
H1233 C1248 0.930 . S
C1234 H1222 0.930 . S
C1234 C1235 1.399 1_545 S
C1234 C1239 1.399 . S
C1235 C1234 1.399 1_565 S
C1235 C1236 1.376 . S
C1236 H1223 0.930 . S
C1236 C1235 1.376 . S
C1236 C1237 1.388 . S
C1237 H1224 0.930 . S
C1237 C1236 1.388 . S
C1237 C1238 1.390 . S
C1238 C1237 1.390 . S
C1238 C1239 1.394 1_565 S
C1238 C1244 1.466 1_565 S
C1239 C1234 1.399 . S
C1239 C1238 1.394 1_545 S
C1239 C1240 1.516 . S
C1240 C1239 1.516 . S
C1240 C1241 1.502 . S
C1240 C1242 1.561 . S
C1240 C1243 1.526 . S
C1241 H1225 0.959 . S
C1241 H1226 0.959 . S
C1241 H1227 0.961 . S
C1241 C1240 1.502 . S
C1242 H1228 0.960 . S
C1242 H1229 0.961 . S
C1242 H1230 0.959 . S
C1242 C1240 1.561 . S
C1243 C1240 1.526 . S
C1243 C1244 1.392 . S
C1243 C1248 1.390 . S
C1244 C1238 1.466 1_545 S
C1244 C1243 1.392 . S
C1244 C1245 1.401 1_545 S
C1245 H1231 0.929 . S
C1245 C1244 1.401 1_565 S
C1245 C1246 1.385 . S
C1246 H1232 0.931 . S
C1246 C1245 1.385 . S
C1246 C1247 1.389 1_565 S
C1247 C1246 1.389 1_545 S
C1247 C1248 1.387 . S
C1248 H1233 0.930 . S
C1248 C1243 1.390 . S
C1248 C1247 1.387 . S
H1249 C1261 0.930 . S
H1250 C1263 0.930 . S
H1251 C1264 0.930 . S
H1252 C1268 0.959 . S
H1253 C1268 0.959 . S
H1254 C1268 0.961 . S
H1255 C1269 0.960 . S
H1256 C1269 0.961 . S
H1257 C1269 0.959 . S
H1258 C1272 0.929 . S
H1259 C1273 0.931 . S
H1260 C1275 0.930 . S
C1261 H1249 0.930 . S
C1261 C1262 1.399 . S
C1261 C1266 1.399 . S
C1262 C1261 1.399 . S
C1262 C1263 1.376 . S
C1263 H1250 0.930 . S
C1263 C1262 1.376 . S
C1263 C1264 1.388 . S
C1264 H1251 0.930 . S
C1264 C1263 1.388 . S
C1264 C1265 1.390 . S
C1265 C1264 1.390 . S
C1265 C1266 1.394 . S
C1265 C1271 1.465 . S
C1266 C1261 1.399 . S
C1266 C1265 1.394 . S
C1266 C1267 1.516 . S
C1267 C1266 1.516 . S
C1267 C1268 1.502 . S
C1267 C1269 1.561 . S
C1267 C1270 1.526 . S
C1268 H1252 0.959 . S
C1268 H1253 0.959 . S
C1268 H1254 0.961 . S
C1268 C1267 1.502 . S
C1269 H1255 0.960 . S
C1269 H1256 0.961 . S
C1269 H1257 0.959 . S
C1269 C1267 1.561 . S
C1270 C1267 1.526 . S
C1270 C1271 1.396 . S
C1270 C1275 1.390 . S
C1271 C1265 1.465 . S
C1271 C1270 1.396 . S
C1271 C1272 1.399 . S
C1272 H1258 0.929 . S
C1272 C1271 1.399 . S
C1272 C1273 1.385 . S
C1273 H1259 0.931 . S
C1273 C1272 1.385 . S
C1273 C1274 1.389 . S
C1274 C1273 1.389 . S
C1274 C1275 1.387 . S
C1275 H1260 0.930 . S
C1275 C1270 1.390 . S
C1275 C1274 1.387 . S
H1276 C1288 0.930 . S
H1277 C1290 0.930 . S
H1278 C1291 0.930 . S
H1279 C1295 0.959 . S
H1280 C1295 0.959 . S
H1281 C1295 0.961 . S
H1282 C1296 0.960 . S
H1283 C1296 0.961 . S
H1284 C1296 0.959 . S
H1285 C1299 0.921 1_455 S
H1286 C1300 0.931 . S
H1287 C1302 0.930 1_565 S
C1288 H1276 0.930 . S
C1288 C1289 1.399 . S
C1288 C1293 1.399 . S
C1289 C1288 1.399 . S
C1289 C1290 1.376 1_565 S
C1290 H1277 0.930 . S
C1290 C1289 1.376 1_545 S
C1290 C1291 1.388 . S
C1291 H1278 0.930 . S
C1291 C1290 1.388 . S
C1291 C1292 1.390 . S
C1292 C1291 1.390 . S
C1292 C1293 1.394 1_545 S
C1292 C1298 1.465 . S
C1293 C1288 1.399 . S
C1293 C1292 1.394 1_565 S
C1293 C1294 1.516 . S
C1294 C1293 1.516 . S
C1294 C1295 1.502 . S
C1294 C1296 1.561 . S
C1294 C1297 1.526 1_565 S
C1295 H1279 0.959 . S
C1295 H1280 0.959 . S
C1295 H1281 0.961 . S
C1295 C1294 1.502 . S
C1296 H1282 0.960 . S
C1296 H1283 0.961 . S
C1296 H1284 0.959 . S
C1296 C1294 1.561 . S
C1297 C1294 1.526 1_545 S
C1297 C1298 1.396 . S
C1297 C1302 1.390 . S
C1298 C1292 1.465 . S
C1298 C1297 1.396 . S
C1298 C1299 1.399 . S
C1299 H1285 0.921 1_655 S
C1299 C1298 1.399 . S
C1299 C1300 1.385 1_655 S
C1300 H1286 0.931 . S
C1300 C1299 1.385 1_455 S
C1300 C1301 1.389 . S
C1301 C1300 1.389 . S
C1301 C1302 1.387 1_455 S
C1302 H1287 0.930 1_545 S
C1302 C1297 1.390 . S
C1302 C1301 1.387 1_655 S
H1303 C1315 0.930 . S
H1304 C1317 0.930 . S
H1305 C1318 0.930 . S
H1306 C1322 0.959 . S
H1307 C1322 0.959 . S
H1308 C1322 0.961 . S
H1309 C1323 0.960 . S
H1310 C1323 0.961 . S
H1311 C1323 0.959 . S
H1312 C1326 0.929 . S
H1313 C1327 0.931 . S
H1314 C1329 0.930 . S
C1315 H1303 0.930 . S
C1315 C1316 1.399 . S
C1315 C1320 1.399 . S
C1316 C1315 1.399 . S
C1316 C1317 1.376 . S
C1317 H1304 0.930 . S
C1317 C1316 1.376 . S
C1317 C1318 1.388 . S
C1318 H1305 0.930 . S
C1318 C1317 1.388 . S
C1318 C1319 1.390 . S
C1319 C1318 1.390 . S
C1319 C1320 1.394 . S
C1319 C1325 1.465 . S
C1320 C1315 1.399 . S
C1320 C1319 1.394 . S
C1320 C1321 1.516 . S
C1321 C1320 1.516 . S
C1321 C1322 1.502 . S
C1321 C1323 1.561 . S
C1321 C1324 1.526 . S
C1322 H1306 0.959 . S
C1322 H1307 0.959 . S
C1322 H1308 0.961 . S
C1322 C1321 1.502 . S
C1323 H1309 0.960 . S
C1323 H1310 0.961 . S
C1323 H1311 0.959 . S
C1323 C1321 1.561 . S
C1324 C1321 1.526 . S
C1324 C1325 1.396 . S
C1324 C1329 1.390 . S
C1325 C1319 1.465 . S
C1325 C1324 1.396 . S
C1325 C1326 1.399 . S
C1326 H1312 0.929 . S
C1326 C1325 1.399 . S
C1326 C1327 1.385 . S
C1327 H1313 0.931 . S
C1327 C1326 1.385 . S
C1327 C1328 1.389 . S
C1328 C1327 1.389 . S
C1328 C1329 1.387 . S
C1329 H1314 0.930 . S
C1329 C1324 1.390 . S
C1329 C1328 1.387 . S
H1330 C1342 0.930 1_565 S
H1331 C1344 0.930 . S
H1332 C1345 0.930 . S
H1333 C1349 0.959 . S
H1334 C1349 0.959 . S
H1335 C1349 0.961 1_565 S
H1336 C1350 0.960 . S
H1337 C1350 0.961 . S
H1338 C1350 0.959 . S
H1339 C1353 0.929 . S
H1340 C1354 0.931 . S
H1341 C1356 0.930 . S
C1342 H1330 0.930 1_545 S
C1342 C1343 1.399 . S
C1342 C1347 1.399 . S
C1343 C1342 1.399 . S
C1343 C1344 1.376 . S
C1344 H1331 0.930 . S
C1344 C1343 1.376 . S
C1344 C1345 1.388 . S
C1345 H1332 0.930 . S
C1345 C1344 1.388 . S
C1345 C1346 1.390 . S
C1346 C1345 1.390 . S
C1346 C1347 1.394 . S
C1346 C1352 1.465 . S
C1347 C1342 1.399 . S
C1347 C1346 1.394 . S
C1347 C1348 1.516 . S
C1348 C1347 1.516 . S
C1348 C1349 1.502 . S
C1348 C1350 1.561 . S
C1348 C1351 1.526 . S
C1349 H1333 0.959 . S
C1349 H1334 0.959 . S
C1349 H1335 0.961 1_545 S
C1349 C1348 1.502 . S
C1350 H1336 0.960 . S
C1350 H1337 0.961 . S
C1350 H1338 0.959 . S
C1350 C1348 1.561 . S
C1351 C1348 1.526 . S
C1351 C1352 1.396 . S
C1351 C1356 1.390 . S
C1352 C1346 1.465 . S
C1352 C1351 1.396 . S
C1352 C1353 1.399 . S
C1353 H1339 0.929 . S
C1353 C1352 1.399 . S
C1353 C1354 1.385 . S
C1354 H1340 0.931 . S
C1354 C1353 1.385 . S
C1354 C1355 1.389 . S
C1355 C1354 1.389 . S
C1355 C1356 1.387 . S
C1356 H1341 0.930 . S
C1356 C1351 1.390 . S
C1356 C1355 1.387 . S
H1357 C1369 0.930 . S
H1358 C1371 0.930 . S
H1359 C1372 0.930 . S
H1360 C1376 0.959 . S
H1361 C1376 0.959 . S
H1362 C1376 0.961 . S
H1363 C1377 0.960 . S
H1364 C1377 0.961 . S
H1365 C1377 0.959 . S
H1366 C1380 0.929 . S
H1367 C1381 0.931 . S
H1368 C1383 0.930 . S
C1369 H1357 0.930 . S
C1369 C1370 1.399 . S
C1369 C1374 1.399 . S
C1370 C1369 1.399 . S
C1370 C1371 1.376 . S
C1371 H1358 0.930 . S
C1371 C1370 1.376 . S
C1371 C1372 1.388 . S
C1372 H1359 0.930 . S
C1372 C1371 1.388 . S
C1372 C1373 1.390 . S
C1373 C1372 1.390 . S
C1373 C1374 1.394 . S
C1373 C1379 1.465 . S
C1374 C1369 1.399 . S
C1374 C1373 1.394 . S
C1374 C1375 1.516 . S
C1375 C1374 1.516 . S
C1375 C1376 1.502 . S
C1375 C1377 1.561 . S
C1375 C1378 1.526 . S
C1376 H1360 0.959 . S
C1376 H1361 0.959 . S
C1376 H1362 0.961 . S
C1376 C1375 1.502 . S
C1377 H1363 0.960 . S
C1377 H1364 0.961 . S
C1377 H1365 0.959 . S
C1377 C1375 1.561 . S
C1378 C1375 1.526 . S
C1378 C1379 1.396 . S
C1378 C1383 1.390 . S
C1379 C1373 1.465 . S
C1379 C1378 1.396 . S
C1379 C1380 1.399 . S
C1380 H1366 0.929 . S
C1380 C1379 1.399 . S
C1380 C1381 1.385 . S
C1381 H1367 0.931 . S
C1381 C1380 1.385 . S
C1381 C1382 1.389 . S
C1382 C1381 1.389 . S
C1382 C1383 1.387 . S
C1383 H1368 0.930 . S
C1383 C1378 1.390 . S
C1383 C1382 1.387 . S
H1384 C1396 0.930 . S
H1385 C1398 0.930 . S
H1386 C1399 0.930 . S
H1387 C1403 0.959 . S
H1388 C1403 0.959 1_545 S
H1389 C1403 0.961 . S
H1390 C1404 0.960 . S
H1391 C1404 0.961 1_545 S
H1392 C1404 0.959 . S
H1393 C1407 0.929 . S
H1394 C1408 0.931 . S
H1395 C1410 0.930 1_545 S
C1396 H1384 0.930 . S
C1396 C1397 1.399 . S
C1396 C1401 1.399 . S
C1397 C1396 1.399 . S
C1397 C1398 1.376 . S
C1398 H1385 0.930 . S
C1398 C1397 1.376 . S
C1398 C1399 1.388 . S
C1399 H1386 0.930 . S
C1399 C1398 1.388 . S
C1399 C1400 1.390 . S
C1400 C1399 1.390 . S
C1400 C1401 1.394 . S
C1400 C1406 1.465 . S
C1401 C1396 1.399 . S
C1401 C1400 1.394 . S
C1401 C1402 1.516 . S
C1402 C1401 1.516 . S
C1402 C1403 1.502 . S
C1402 C1404 1.561 . S
C1402 C1405 1.526 . S
C1403 H1387 0.959 . S
C1403 H1388 0.959 1_565 S
C1403 H1389 0.961 . S
C1403 C1402 1.502 . S
C1404 H1390 0.960 . S
C1404 H1391 0.961 1_565 S
C1404 H1392 0.959 . S
C1404 C1402 1.561 . S
C1405 C1402 1.526 . S
C1405 C1406 1.396 . S
C1405 C1410 1.390 . S
C1406 C1400 1.465 . S
C1406 C1405 1.396 . S
C1406 C1407 1.399 . S
C1407 H1393 0.929 . S
C1407 C1406 1.399 . S
C1407 C1408 1.385 . S
C1408 H1394 0.931 . S
C1408 C1407 1.385 . S
C1408 C1409 1.389 . S
C1409 C1408 1.389 . S
C1409 C1410 1.387 . S
C1410 H1395 0.930 1_565 S
C1410 C1405 1.390 . S
C1410 C1409 1.387 . S
H1411 C1423 0.930 . S
H1412 C1425 0.930 . S
H1413 C1426 0.930 . S
H1414 C1430 0.959 . S
H1415 C1430 0.959 . S
H1416 C1430 0.961 . S
H1417 C1431 0.960 . S
H1418 C1431 0.961 . S
H1419 C1431 0.959 . S
H1420 C1434 0.929 . S
H1421 C1435 0.926 1_556 S
H1422 C1437 0.930 . S
C1423 H1411 0.930 . S
C1423 C1424 1.399 . S
C1423 C1428 1.399 . S
C1424 C1423 1.399 . S
C1424 C1425 1.376 1_554 S
C1425 H1412 0.930 . S
C1425 C1424 1.376 1_556 S
C1425 C1426 1.388 . S
C1426 H1413 0.930 . S
C1426 C1425 1.388 . S
C1426 C1427 1.390 1_556 S
C1427 C1426 1.390 1_554 S
C1427 C1428 1.394 . S
C1427 C1433 1.465 . S
C1428 C1423 1.399 . S
C1428 C1427 1.394 . S
C1428 C1429 1.516 . S
C1429 C1428 1.516 . S
C1429 C1430 1.502 . S
C1429 C1431 1.561 . S
C1429 C1432 1.526 . S
C1430 H1414 0.959 . S
C1430 H1415 0.959 . S
C1430 H1416 0.961 . S
C1430 C1429 1.502 . S
C1431 H1417 0.960 . S
C1431 H1418 0.961 . S
C1431 H1419 0.959 . S
C1431 C1429 1.561 . S
C1432 C1429 1.526 . S
C1432 C1433 1.396 . S
C1432 C1437 1.390 . S
C1433 C1427 1.465 . S
C1433 C1432 1.396 . S
C1433 C1434 1.399 1_554 S
C1434 H1420 0.929 . S
C1434 C1433 1.399 1_556 S
C1434 C1435 1.381 1_556 S
C1435 H1421 0.926 1_554 S
C1435 C1434 1.381 1_554 S
C1435 C1436 1.398 . S
C1436 C1435 1.398 . S
C1436 C1437 1.387 . S
C1437 H1422 0.930 . S
C1437 C1432 1.390 . S
C1437 C1436 1.387 . S
H1438 C1450 0.930 . S
H1439 C1452 0.930 . S
H1440 C1453 0.930 . S
H1441 C1457 0.959 . S
H1442 C1457 0.959 . S
H1443 C1457 0.961 . S
H1444 C1458 0.960 . S
H1445 C1458 0.961 . S
H1446 C1458 0.959 . S
H1447 C1461 0.929 . S
H1448 C1462 0.931 . S
H1449 C1464 0.930 . S
C1450 H1438 0.930 . S
C1450 C1451 1.399 . S
C1450 C1455 1.399 . S
C1451 C1450 1.399 . S
C1451 C1452 1.376 . S
C1452 H1439 0.930 . S
C1452 C1451 1.376 . S
C1452 C1453 1.388 . S
C1453 H1440 0.930 . S
C1453 C1452 1.388 . S
C1453 C1454 1.390 . S
C1454 C1453 1.390 . S
C1454 C1455 1.394 . S
C1454 C1460 1.465 . S
C1455 C1450 1.399 . S
C1455 C1454 1.394 . S
C1455 C1456 1.516 . S
C1456 C1455 1.516 . S
C1456 C1457 1.502 . S
C1456 C1458 1.561 . S
C1456 C1459 1.526 . S
C1457 H1441 0.959 . S
C1457 H1442 0.959 . S
C1457 H1443 0.961 . S
C1457 C1456 1.502 . S
C1458 H1444 0.960 . S
C1458 H1445 0.961 . S
C1458 H1446 0.959 . S
C1458 C1456 1.561 . S
C1459 C1456 1.526 . S
C1459 C1460 1.396 . S
C1459 C1464 1.390 . S
C1460 C1454 1.465 . S
C1460 C1459 1.396 . S
C1460 C1461 1.399 . S
C1461 H1447 0.929 . S
C1461 C1460 1.399 . S
C1461 C1462 1.385 . S
C1462 H1448 0.931 . S
C1462 C1461 1.385 . S
C1462 C1463 1.389 . S
C1463 C1462 1.389 . S
C1463 C1464 1.387 . S
C1464 H1449 0.930 . S
C1464 C1459 1.390 . S
C1464 C1463 1.387 . S
H1465 C1477 0.930 . S
H1466 C1479 0.930 . S
H1467 C1480 0.930 . S
H1468 C1484 0.959 . S
H1469 C1484 0.959 . S
H1470 C1484 0.961 . S
H1471 C1485 0.960 . S
H1472 C1485 0.961 . S
H1473 C1485 0.959 . S
H1474 C1488 0.929 . S
H1475 C1489 0.931 . S
H1476 C1491 0.930 . S
C1477 H1465 0.930 . S
C1477 C1478 1.399 . S
C1477 C1482 1.399 . S
C1478 C1477 1.399 . S
C1478 C1479 1.376 . S
C1479 H1466 0.930 . S
C1479 C1478 1.376 . S
C1479 C1480 1.388 . S
C1480 H1467 0.930 . S
C1480 C1479 1.388 . S
C1480 C1481 1.390 . S
C1481 C1480 1.390 . S
C1481 C1482 1.394 . S
C1481 C1487 1.465 . S
C1482 C1477 1.399 . S
C1482 C1481 1.394 . S
C1482 C1483 1.516 . S
C1483 C1482 1.516 . S
C1483 C1484 1.502 . S
C1483 C1485 1.561 . S
C1483 C1486 1.526 . S
C1484 H1468 0.959 . S
C1484 H1469 0.959 . S
C1484 H1470 0.961 . S
C1484 C1483 1.502 . S
C1485 H1471 0.960 . S
C1485 H1472 0.961 . S
C1485 H1473 0.959 . S
C1485 C1483 1.561 . S
C1486 C1483 1.526 . S
C1486 C1487 1.396 . S
C1486 C1491 1.390 . S
C1487 C1481 1.465 . S
C1487 C1486 1.396 . S
C1487 C1488 1.399 . S
C1488 H1474 0.929 . S
C1488 C1487 1.399 . S
C1488 C1489 1.385 . S
C1489 H1475 0.931 . S
C1489 C1488 1.385 . S
C1489 C1490 1.389 . S
C1490 C1489 1.389 . S
C1490 C1491 1.387 . S
C1491 H1476 0.930 . S
C1491 C1486 1.390 . S
C1491 C1490 1.387 . S
H1492 C1504 0.930 . S
H1493 C1506 0.930 . S
H1494 C1507 0.930 . S
H1495 C1511 0.959 . S
H1496 C1511 0.959 . S
H1497 C1511 0.961 . S
H1498 C1512 0.960 . S
H1499 C1512 0.961 . S
H1500 C1512 0.959 . S
H1501 C1515 0.929 . S
H1502 C1516 0.931 . S
H1503 C1518 0.930 . S
C1504 H1492 0.930 . S
C1504 C1505 1.399 . S
C1504 C1509 1.399 . S
C1505 C1504 1.399 . S
C1505 C1506 1.376 . S
C1506 H1493 0.930 . S
C1506 C1505 1.376 . S
C1506 C1507 1.388 . S
C1507 H1494 0.930 . S
C1507 C1506 1.388 . S
C1507 C1508 1.390 . S
C1508 C1507 1.390 . S
C1508 C1509 1.394 . S
C1508 C1514 1.465 . S
C1509 C1504 1.399 . S
C1509 C1508 1.394 . S
C1509 C1510 1.516 . S
C1510 C1509 1.516 . S
C1510 C1511 1.502 . S
C1510 C1512 1.561 . S
C1510 C1513 1.526 . S
C1511 H1495 0.959 . S
C1511 H1496 0.959 . S
C1511 H1497 0.961 . S
C1511 C1510 1.502 . S
C1512 H1498 0.960 . S
C1512 H1499 0.961 . S
C1512 H1500 0.959 . S
C1512 C1510 1.561 . S
C1513 C1510 1.526 . S
C1513 C1514 1.396 . S
C1513 C1518 1.390 . S
C1514 C1508 1.465 . S
C1514 C1513 1.396 . S
C1514 C1515 1.399 . S
C1515 H1501 0.929 . S
C1515 C1514 1.399 . S
C1515 C1516 1.385 . S
C1516 H1502 0.931 . S
C1516 C1515 1.385 . S
C1516 C1517 1.389 . S
C1517 C1516 1.389 . S
C1517 C1518 1.387 . S
C1518 H1503 0.930 . S
C1518 C1513 1.390 . S
C1518 C1517 1.387 . S
H1519 C1531 0.930 . S
H1520 C1533 0.930 . S
H1521 C1534 0.930 . S
H1522 C1538 0.959 . S
H1523 C1538 0.959 . S
H1524 C1538 0.961 . S
H1525 C1539 0.960 . S
H1526 C1539 0.961 . S
H1527 C1539 0.959 . S
H1528 C1542 0.929 . S
H1529 C1543 0.931 . S
H1530 C1545 0.930 . S
C1531 H1519 0.930 . S
C1531 C1532 1.399 . S
C1531 C1536 1.399 . S
C1532 C1531 1.399 . S
C1532 C1533 1.376 . S
C1533 H1520 0.930 . S
C1533 C1532 1.376 . S
C1533 C1534 1.388 . S
C1534 H1521 0.930 . S
C1534 C1533 1.388 . S
C1534 C1535 1.390 . S
C1535 C1534 1.390 . S
C1535 C1536 1.394 . S
C1535 C1541 1.465 . S
C1536 C1531 1.399 . S
C1536 C1535 1.394 . S
C1536 C1537 1.516 . S
C1537 C1536 1.516 . S
C1537 C1538 1.502 . S
C1537 C1539 1.561 . S
C1537 C1540 1.526 . S
C1538 H1522 0.959 . S
C1538 H1523 0.959 . S
C1538 H1524 0.961 . S
C1538 C1537 1.502 . S
C1539 H1525 0.960 . S
C1539 H1526 0.961 . S
C1539 H1527 0.959 . S
C1539 C1537 1.561 . S
C1540 C1537 1.526 . S
C1540 C1541 1.396 . S
C1540 C1545 1.390 . S
C1541 C1535 1.465 . S
C1541 C1540 1.396 . S
C1541 C1542 1.399 . S
C1542 H1528 0.929 . S
C1542 C1541 1.399 . S
C1542 C1543 1.385 . S
C1543 H1529 0.931 . S
C1543 C1542 1.385 . S
C1543 C1544 1.389 . S
C1544 C1543 1.389 . S
C1544 C1545 1.387 . S
C1545 H1530 0.930 . S
C1545 C1540 1.390 . S
C1545 C1544 1.387 . S
H1546 C1558 0.930 . S
H1547 C1560 0.930 . S
H1548 C1561 0.930 . S
H1549 C1565 0.959 . S
H1550 C1565 0.959 . S
H1551 C1565 0.961 . S
H1552 C1566 0.960 . S
H1553 C1566 0.961 . S
H1554 C1566 0.959 . S
H1555 C1569 0.929 . S
H1556 C1570 0.931 . S
H1557 C1572 0.930 . S
C1558 H1546 0.930 . S
C1558 C1559 1.399 . S
C1558 C1563 1.399 . S
C1559 C1558 1.399 . S
C1559 C1560 1.376 . S
C1560 H1547 0.930 . S
C1560 C1559 1.376 . S
C1560 C1561 1.388 . S
C1561 H1548 0.930 . S
C1561 C1560 1.388 . S
C1561 C1562 1.390 . S
C1562 C1561 1.390 . S
C1562 C1563 1.394 . S
C1562 C1568 1.465 . S
C1563 C1558 1.399 . S
C1563 C1562 1.394 . S
C1563 C1564 1.516 . S
C1564 C1563 1.516 . S
C1564 C1565 1.502 . S
C1564 C1566 1.561 . S
C1564 C1567 1.526 . S
C1565 H1549 0.959 . S
C1565 H1550 0.959 . S
C1565 H1551 0.961 . S
C1565 C1564 1.502 . S
C1566 H1552 0.960 . S
C1566 H1553 0.961 . S
C1566 H1554 0.959 . S
C1566 C1564 1.561 . S
C1567 C1564 1.526 . S
C1567 C1568 1.396 . S
C1567 C1572 1.390 . S
C1568 C1562 1.465 . S
C1568 C1567 1.396 . S
C1568 C1569 1.399 . S
C1569 H1555 0.929 . S
C1569 C1568 1.399 . S
C1569 C1570 1.385 . S
C1570 H1556 0.931 . S
C1570 C1569 1.385 . S
C1570 C1571 1.389 . S
C1571 C1570 1.389 . S
C1571 C1572 1.387 . S
C1572 H1557 0.930 . S
C1572 C1567 1.390 . S
C1572 C1571 1.387 . S
H1573 C1585 0.930 . S
H1574 C1587 0.930 . S
H1575 C1588 0.930 . S
H1576 C1592 0.959 . S
H1577 C1592 0.959 . S
H1578 C1592 0.961 . S
H1579 C1593 0.960 . S
H1580 C1593 0.961 . S
H1581 C1593 0.959 . S
H1582 C1596 0.929 . S
H1583 C1597 0.931 . S
H1584 C1599 0.930 . S
C1585 H1573 0.930 . S
C1585 C1586 1.399 . S
C1585 C1590 1.399 . S
C1586 C1585 1.399 . S
C1586 C1587 1.376 . S
C1587 H1574 0.930 . S
C1587 C1586 1.376 . S
C1587 C1588 1.388 . S
C1588 H1575 0.930 . S
C1588 C1587 1.388 . S
C1588 C1589 1.390 . S
C1589 C1588 1.390 . S
C1589 C1590 1.394 . S
C1589 C1595 1.465 . S
C1590 C1585 1.399 . S
C1590 C1589 1.394 . S
C1590 C1591 1.516 . S
C1591 C1590 1.516 . S
C1591 C1592 1.502 . S
C1591 C1593 1.561 . S
C1591 C1594 1.526 . S
C1592 H1576 0.959 . S
C1592 H1577 0.959 . S
C1592 H1578 0.961 . S
C1592 C1591 1.502 . S
C1593 H1579 0.960 . S
C1593 H1580 0.961 . S
C1593 H1581 0.959 . S
C1593 C1591 1.561 . S
C1594 C1591 1.526 . S
C1594 C1595 1.396 . S
C1594 C1599 1.390 . S
C1595 C1589 1.465 . S
C1595 C1594 1.396 . S
C1595 C1596 1.399 . S
C1596 H1582 0.929 . S
C1596 C1595 1.399 . S
C1596 C1597 1.385 . S
C1597 H1583 0.931 . S
C1597 C1596 1.385 . S
C1597 C1598 1.389 . S
C1598 C1597 1.389 . S
C1598 C1599 1.387 . S
C1599 H1584 0.930 . S
C1599 C1594 1.390 . S
C1599 C1598 1.387 . S
H1600 C1612 0.930 . S
H1601 C1614 0.930 . S
H1602 C1615 0.930 . S
H1603 C1619 0.959 . S
H1604 C1619 0.959 . S
H1605 C1619 0.961 . S
H1606 C1620 0.960 . S
H1607 C1620 0.961 . S
H1608 C1620 0.959 . S
H1609 C1623 0.929 . S
H1610 C1624 0.931 1_545 S
H1611 C1626 0.930 . S
C1612 H1600 0.930 . S
C1612 C1613 1.399 . S
C1612 C1617 1.399 . S
C1613 C1612 1.399 . S
C1613 C1614 1.376 . S
C1614 H1601 0.930 . S
C1614 C1613 1.376 . S
C1614 C1615 1.388 . S
C1615 H1602 0.930 . S
C1615 C1614 1.388 . S
C1615 C1616 1.390 . S
C1616 C1615 1.390 . S
C1616 C1617 1.394 . S
C1616 C1622 1.465 . S
C1617 C1612 1.399 . S
C1617 C1616 1.394 . S
C1617 C1618 1.516 . S
C1618 C1617 1.516 . S
C1618 C1619 1.502 . S
C1618 C1620 1.561 . S
C1618 C1621 1.526 . S
C1619 H1603 0.959 . S
C1619 H1604 0.959 . S
C1619 H1605 0.961 . S
C1619 C1618 1.502 . S
C1620 H1606 0.960 . S
C1620 H1607 0.961 . S
C1620 H1608 0.959 . S
C1620 C1618 1.561 . S
C1621 C1618 1.526 . S
C1621 C1622 1.396 . S
C1621 C1626 1.390 . S
C1622 C1616 1.465 . S
C1622 C1621 1.396 . S
C1622 C1623 1.399 . S
C1623 H1609 0.929 . S
C1623 C1622 1.399 . S
C1623 C1624 1.385 . S
C1624 H1610 0.931 1_565 S
C1624 C1623 1.385 . S
C1624 C1625 1.389 . S
C1625 C1624 1.389 . S
C1625 C1626 1.387 . S
C1626 H1611 0.930 . S
C1626 C1621 1.390 . S
C1626 C1625 1.387 . S
H1627 C1639 0.930 . S
H1628 C1641 0.930 . S
H1629 C1642 0.930 . S
H1630 C1646 0.959 . S
H1631 C1646 0.959 . S
H1632 C1646 0.961 . S
H1633 C1647 0.960 . S
H1634 C1647 0.961 . S
H1635 C1647 0.959 . S
H1636 C1650 0.929 . S
H1637 C1651 0.931 . S
H1638 C1653 0.930 . S
C1639 H1627 0.930 . S
C1639 C1640 1.399 . S
C1639 C1644 1.399 . S
C1640 C1639 1.399 . S
C1640 C1641 1.376 . S
C1641 H1628 0.930 . S
C1641 C1640 1.376 . S
C1641 C1642 1.388 . S
C1642 H1629 0.930 . S
C1642 C1641 1.388 . S
C1642 C1643 1.390 . S
C1643 C1642 1.390 . S
C1643 C1644 1.394 . S
C1643 C1649 1.465 . S
C1644 C1639 1.399 . S
C1644 C1643 1.394 . S
C1644 C1645 1.516 . S
C1645 C1644 1.516 . S
C1645 C1646 1.502 . S
C1645 C1647 1.561 . S
C1645 C1648 1.526 . S
C1646 H1630 0.959 . S
C1646 H1631 0.959 . S
C1646 H1632 0.961 . S
C1646 C1645 1.502 . S
C1647 H1633 0.960 . S
C1647 H1634 0.961 . S
C1647 H1635 0.959 . S
C1647 C1645 1.561 . S
C1648 C1645 1.526 . S
C1648 C1649 1.396 . S
C1648 C1653 1.390 . S
C1649 C1643 1.465 . S
C1649 C1648 1.396 . S
C1649 C1650 1.399 . S
C1650 H1636 0.929 . S
C1650 C1649 1.399 . S
C1650 C1651 1.385 . S
C1651 H1637 0.931 . S
C1651 C1650 1.385 . S
C1651 C1652 1.389 . S
C1652 C1651 1.389 . S
C1652 C1653 1.387 . S
C1653 H1638 0.930 . S
C1653 C1648 1.390 . S
C1653 C1652 1.387 . S
H1654 C1666 0.930 . S
H1655 C1668 0.930 . S
H1656 C1669 0.930 . S
H1657 C1673 0.959 . S
H1658 C1673 0.959 . S
H1659 C1673 0.961 . S
H1660 C1674 0.960 . S
H1661 C1674 0.961 . S
H1662 C1674 0.959 . S
H1663 C1677 0.929 . S
H1664 C1678 0.931 . S
H1665 C1680 0.930 . S
C1666 H1654 0.930 . S
C1666 C1667 1.399 . S
C1666 C1671 1.399 . S
C1667 C1666 1.399 . S
C1667 C1668 1.376 . S
C1668 H1655 0.930 . S
C1668 C1667 1.376 . S
C1668 C1669 1.388 . S
C1669 H1656 0.930 . S
C1669 C1668 1.388 . S
C1669 C1670 1.390 . S
C1670 C1669 1.390 . S
C1670 C1671 1.394 . S
C1670 C1676 1.465 . S
C1671 C1666 1.399 . S
C1671 C1670 1.394 . S
C1671 C1672 1.516 . S
C1672 C1671 1.516 . S
C1672 C1673 1.502 . S
C1672 C1674 1.561 . S
C1672 C1675 1.526 . S
C1673 H1657 0.959 . S
C1673 H1658 0.959 . S
C1673 H1659 0.961 . S
C1673 C1672 1.502 . S
C1674 H1660 0.960 . S
C1674 H1661 0.961 . S
C1674 H1662 0.959 . S
C1674 C1672 1.561 . S
C1675 C1672 1.526 . S
C1675 C1676 1.396 . S
C1675 C1680 1.390 . S
C1676 C1670 1.465 . S
C1676 C1675 1.396 . S
C1676 C1677 1.399 . S
C1677 H1663 0.929 . S
C1677 C1676 1.399 . S
C1677 C1678 1.385 . S
C1678 H1664 0.931 . S
C1678 C1677 1.385 . S
C1678 C1679 1.389 . S
C1679 C1678 1.389 . S
C1679 C1680 1.387 . S
C1680 H1665 0.930 . S
C1680 C1675 1.390 . S
C1680 C1679 1.387 . S
H1681 C1693 0.930 . S
H1682 C1695 0.930 . S
H1683 C1696 0.930 . S
H1684 C1700 0.959 . S
H1685 C1700 0.959 . S
H1686 C1700 0.961 . S
H1687 C1701 0.960 . S
H1688 C1701 0.961 . S
H1689 C1701 0.959 . S
H1690 C1704 0.929 . S
H1691 C1705 0.931 . S
H1692 C1707 0.930 . S
C1693 H1681 0.930 . S
C1693 C1694 1.399 . S
C1693 C1698 1.399 . S
C1694 C1693 1.399 . S
C1694 C1695 1.376 . S
C1695 H1682 0.930 . S
C1695 C1694 1.376 . S
C1695 C1696 1.388 . S
C1696 H1683 0.930 . S
C1696 C1695 1.388 . S
C1696 C1697 1.390 . S
C1697 C1696 1.390 . S
C1697 C1698 1.394 . S
C1697 C1703 1.465 . S
C1698 C1693 1.399 . S
C1698 C1697 1.394 . S
C1698 C1699 1.516 . S
C1699 C1698 1.516 . S
C1699 C1700 1.502 . S
C1699 C1701 1.561 . S
C1699 C1702 1.526 . S
C1700 H1684 0.959 . S
C1700 H1685 0.959 . S
C1700 H1686 0.961 . S
C1700 C1699 1.502 . S
C1701 H1687 0.960 . S
C1701 H1688 0.961 . S
C1701 H1689 0.959 . S
C1701 C1699 1.561 . S
C1702 C1699 1.526 . S
C1702 C1703 1.396 . S
C1702 C1707 1.390 . S
C1703 C1697 1.465 . S
C1703 C1702 1.396 . S
C1703 C1704 1.399 . S
C1704 H1690 0.929 . S
C1704 C1703 1.399 . S
C1704 C1705 1.385 . S
C1705 H1691 0.931 . S
C1705 C1704 1.385 . S
C1705 C1706 1.389 . S
C1706 C1705 1.389 . S
C1706 C1707 1.387 . S
C1707 H1692 0.930 . S
C1707 C1702 1.390 . S
C1707 C1706 1.387 . S
H1708 C1720 0.930 . S
H1709 C1722 0.930 . S
H1710 C1723 0.930 . S
H1711 C1727 0.959 . S
H1712 C1727 0.959 . S
H1713 C1727 0.961 . S
H1714 C1728 0.960 . S
H1715 C1728 0.961 . S
H1716 C1728 0.959 . S
H1717 C1731 0.929 . S
H1718 C1732 0.931 . S
H1719 C1734 0.930 . S
C1720 H1708 0.930 . S
C1720 C1721 1.399 . S
C1720 C1725 1.399 . S
C1721 C1720 1.399 . S
C1721 C1722 1.376 . S
C1722 H1709 0.930 . S
C1722 C1721 1.376 . S
C1722 C1723 1.388 . S
C1723 H1710 0.930 . S
C1723 C1722 1.388 . S
C1723 C1724 1.390 . S
C1724 C1723 1.390 . S
C1724 C1725 1.394 . S
C1724 C1730 1.465 . S
C1725 C1720 1.399 . S
C1725 C1724 1.394 . S
C1725 C1726 1.516 . S
C1726 C1725 1.516 . S
C1726 C1727 1.502 . S
C1726 C1728 1.561 . S
C1726 C1729 1.526 . S
C1727 H1711 0.959 . S
C1727 H1712 0.959 . S
C1727 H1713 0.961 . S
C1727 C1726 1.502 . S
C1728 H1714 0.960 . S
C1728 H1715 0.961 . S
C1728 H1716 0.959 . S
C1728 C1726 1.561 . S
C1729 C1726 1.526 . S
C1729 C1730 1.396 . S
C1729 C1734 1.390 . S
C1730 C1724 1.465 . S
C1730 C1729 1.396 . S
C1730 C1731 1.399 . S
C1731 H1717 0.929 . S
C1731 C1730 1.399 . S
C1731 C1732 1.385 . S
C1732 H1718 0.931 . S
C1732 C1731 1.385 . S
C1732 C1733 1.389 . S
C1733 C1732 1.389 . S
C1733 C1734 1.387 . S
C1734 H1719 0.930 . S
C1734 C1729 1.390 . S
C1734 C1733 1.387 . S
H1735 C1747 0.930 . S
H1736 C1749 0.930 . S
H1737 C1750 0.930 . S
H1738 C1754 0.959 . S
H1739 C1754 0.959 . S
H1740 C1754 0.961 . S
H1741 C1755 0.960 . S
H1742 C1755 0.961 . S
H1743 C1755 0.959 . S
H1744 C1758 0.929 . S
H1745 C1759 0.931 . S
H1746 C1761 0.930 . S
C1747 H1735 0.930 . S
C1747 C1748 1.399 . S
C1747 C1752 1.399 . S
C1748 C1747 1.399 . S
C1748 C1749 1.376 . S
C1749 H1736 0.930 . S
C1749 C1748 1.376 . S
C1749 C1750 1.388 . S
C1750 H1737 0.930 . S
C1750 C1749 1.388 . S
C1750 C1751 1.390 . S
C1751 C1750 1.390 . S
C1751 C1752 1.394 . S
C1751 C1757 1.465 . S
C1752 C1747 1.399 . S
C1752 C1751 1.394 . S
C1752 C1753 1.516 . S
C1753 C1752 1.516 . S
C1753 C1754 1.502 . S
C1753 C1755 1.561 . S
C1753 C1756 1.526 . S
C1754 H1738 0.959 . S
C1754 H1739 0.959 . S
C1754 H1740 0.961 . S
C1754 C1753 1.502 . S
C1755 H1741 0.960 . S
C1755 H1742 0.961 . S
C1755 H1743 0.959 . S
C1755 C1753 1.561 . S
C1756 C1753 1.526 . S
C1756 C1757 1.396 . S
C1756 C1761 1.390 . S
C1757 C1751 1.465 . S
C1757 C1756 1.396 . S
C1757 C1758 1.399 . S
C1758 H1744 0.929 . S
C1758 C1757 1.399 . S
C1758 C1759 1.385 . S
C1759 H1745 0.931 . S
C1759 C1758 1.385 . S
C1759 C1760 1.389 . S
C1760 C1759 1.389 . S
C1760 C1761 1.387 . S
C1761 H1746 0.930 . S
C1761 C1756 1.390 . S
C1761 C1760 1.387 . S
H1762 C1774 0.930 . S
H1763 C1776 0.930 . S
H1764 C1777 0.930 . S
H1765 C1781 0.959 . S
H1766 C1781 0.959 1_554 S
H1767 C1781 0.961 . S
H1768 C1782 0.960 . S
H1769 C1782 0.961 . S
H1770 C1782 0.959 . S
H1771 C1785 0.929 . S
H1772 C1786 0.931 . S
H1773 C1788 0.930 . S
C1774 H1762 0.930 . S
C1774 C1775 1.399 . S
C1774 C1779 1.399 . S
C1775 C1774 1.399 . S
C1775 C1776 1.376 . S
C1776 H1763 0.930 . S
C1776 C1775 1.376 . S
C1776 C1777 1.388 . S
C1777 H1764 0.930 . S
C1777 C1776 1.388 . S
C1777 C1778 1.390 . S
C1778 C1777 1.390 . S
C1778 C1779 1.394 . S
C1778 C1784 1.465 . S
C1779 C1774 1.399 . S
C1779 C1778 1.394 . S
C1779 C1780 1.516 . S
C1780 C1779 1.516 . S
C1780 C1781 1.502 . S
C1780 C1782 1.561 . S
C1780 C1783 1.526 . S
C1781 H1765 0.959 . S
C1781 H1766 0.959 1_556 S
C1781 H1767 0.961 . S
C1781 C1780 1.502 . S
C1782 H1768 0.960 . S
C1782 H1769 0.961 . S
C1782 H1770 0.959 . S
C1782 C1780 1.561 . S
C1783 C1780 1.526 . S
C1783 C1784 1.396 . S
C1783 C1788 1.390 . S
C1784 C1778 1.465 . S
C1784 C1783 1.396 . S
C1784 C1785 1.399 . S
C1785 H1771 0.929 . S
C1785 C1784 1.399 . S
C1785 C1786 1.385 . S
C1786 H1772 0.931 . S
C1786 C1785 1.385 . S
C1786 C1787 1.389 . S
C1787 C1786 1.389 . S
C1787 C1788 1.387 . S
C1788 H1773 0.930 . S
C1788 C1783 1.390 . S
C1788 C1787 1.387 . S
H1789 C1801 0.930 . S
H1790 C1803 0.930 . S
H1791 C1804 0.930 . S
H1792 C1808 0.959 . S
H1793 C1808 0.959 . S
H1794 C1808 0.961 . S
H1795 C1809 0.960 . S
H1796 C1809 0.961 . S
H1797 C1809 0.959 . S
H1798 C1812 0.929 . S
H1799 C1813 0.931 . S
H1800 C1815 0.930 . S
C1801 H1789 0.930 . S
C1801 C1802 1.399 . S
C1801 C1806 1.399 . S
C1802 C1801 1.399 . S
C1802 C1803 1.376 . S
C1803 H1790 0.930 . S
C1803 C1802 1.376 . S
C1803 C1804 1.388 . S
C1804 H1791 0.930 . S
C1804 C1803 1.388 . S
C1804 C1805 1.390 . S
C1805 C1804 1.390 . S
C1805 C1806 1.394 . S
C1805 C1811 1.465 . S
C1806 C1801 1.399 . S
C1806 C1805 1.394 . S
C1806 C1807 1.516 . S
C1807 C1806 1.516 . S
C1807 C1808 1.502 . S
C1807 C1809 1.561 . S
C1807 C1810 1.526 . S
C1808 H1792 0.959 . S
C1808 H1793 0.959 . S
C1808 H1794 0.961 . S
C1808 C1807 1.502 . S
C1809 H1795 0.960 . S
C1809 H1796 0.961 . S
C1809 H1797 0.959 . S
C1809 C1807 1.561 . S
C1810 C1807 1.526 . S
C1810 C1811 1.396 . S
C1810 C1815 1.390 . S
C1811 C1805 1.465 . S
C1811 C1810 1.396 . S
C1811 C1812 1.399 . S
C1812 H1798 0.929 . S
C1812 C1811 1.399 . S
C1812 C1813 1.385 . S
C1813 H1799 0.931 . S
C1813 C1812 1.385 . S
C1813 C1814 1.389 . S
C1814 C1813 1.389 . S
C1814 C1815 1.387 . S
C1815 H1800 0.930 . S
C1815 C1810 1.390 . S
C1815 C1814 1.387 . S
H1816 C1828 0.930 . S
H1817 C1830 0.930 . S
H1818 C1831 0.930 . S
H1819 C1835 0.959 . S
H1820 C1835 0.959 . S
H1821 C1835 0.961 . S
H1822 C1836 0.960 . S
H1823 C1836 0.961 . S
H1824 C1836 0.959 . S
H1825 C1839 0.929 . S
H1826 C1840 0.948 . S
H1827 C1842 0.930 . S
C1828 H1816 0.930 . S
C1828 C1829 1.399 . S
C1828 C1833 1.399 . S
C1829 C1828 1.399 . S
C1829 C1830 1.376 . S
C1830 H1817 0.930 . S
C1830 C1829 1.376 . S
C1830 C1831 1.388 . S
C1831 H1818 0.930 . S
C1831 C1830 1.388 . S
C1831 C1832 1.390 . S
C1832 C1831 1.390 . S
C1832 C1833 1.394 . S
C1832 C1838 1.465 . S
C1833 C1828 1.399 . S
C1833 C1832 1.394 . S
C1833 C1834 1.516 . S
C1834 C1833 1.516 . S
C1834 C1835 1.502 . S
C1834 C1836 1.561 . S
C1834 C1837 1.526 . S
C1835 H1819 0.959 . S
C1835 H1820 0.959 . S
C1835 H1821 0.961 . S
C1835 C1834 1.502 . S
C1836 H1822 0.960 . S
C1836 H1823 0.961 . S
C1836 H1824 0.959 . S
C1836 C1834 1.561 . S
C1837 C1834 1.526 . S
C1837 C1838 1.396 . S
C1837 C1842 1.390 . S
C1838 C1832 1.465 . S
C1838 C1837 1.396 . S
C1838 C1839 1.399 . S
C1839 H1825 0.929 . S
C1839 C1838 1.399 . S
C1839 C1840 1.385 . S
C1840 H1826 0.948 . S
C1840 C1839 1.385 . S
C1840 C1841 1.389 . S
C1841 C1840 1.389 . S
C1841 C1842 1.387 . S
C1842 H1827 0.930 . S
C1842 C1837 1.390 . S
C1842 C1841 1.387 . S
H1843 C1855 0.930 . S
H1844 C1857 0.930 . S
H1845 C1858 0.930 . S
H1846 C1862 0.959 . S
H1847 C1862 0.959 . S
H1848 C1862 0.961 . S
H1849 C1863 0.960 . S
H1850 C1863 0.961 . S
H1851 C1863 0.959 . S
H1852 C1866 0.929 . S
H1853 C1867 0.931 . S
H1854 C1869 0.930 . S
C1855 H1843 0.930 . S
C1855 C1856 1.399 . S
C1855 C1860 1.399 . S
C1856 C1855 1.399 . S
C1856 C1857 1.376 . S
C1857 H1844 0.930 . S
C1857 C1856 1.376 . S
C1857 C1858 1.388 . S
C1858 H1845 0.930 . S
C1858 C1857 1.388 . S
C1858 C1859 1.390 . S
C1859 C1858 1.390 . S
C1859 C1860 1.394 . S
C1859 C1865 1.465 . S
C1860 C1855 1.399 . S
C1860 C1859 1.394 . S
C1860 C1861 1.516 . S
C1861 C1860 1.516 . S
C1861 C1862 1.502 . S
C1861 C1863 1.561 . S
C1861 C1864 1.526 . S
C1862 H1846 0.959 . S
C1862 H1847 0.959 . S
C1862 H1848 0.961 . S
C1862 C1861 1.502 . S
C1863 H1849 0.960 . S
C1863 H1850 0.961 . S
C1863 H1851 0.959 . S
C1863 C1861 1.561 . S
C1864 C1861 1.526 . S
C1864 C1865 1.396 . S
C1864 C1869 1.390 . S
C1865 C1859 1.465 . S
C1865 C1864 1.396 . S
C1865 C1866 1.399 . S
C1866 H1852 0.929 . S
C1866 C1865 1.399 . S
C1866 C1867 1.385 . S
C1867 H1853 0.931 . S
C1867 C1866 1.385 . S
C1867 C1868 1.389 . S
C1868 C1867 1.389 . S
C1868 C1869 1.387 . S
C1869 H1854 0.930 . S
C1869 C1864 1.390 . S
C1869 C1868 1.387 . S
H1870 C1882 0.930 . S
H1871 C1884 0.930 . S
H1872 C1885 0.930 . S
H1873 C1889 0.959 . S
H1874 C1889 0.959 1_565 S
H1875 C1889 0.961 1_565 S
H1876 C1890 0.960 . S
H1877 C1890 0.961 1_565 S
H1878 C1890 0.959 . S
H1879 C1893 0.929 . S
H1880 C1894 0.931 . S
H1881 C1896 0.930 . S
C1882 H1870 0.930 . S
C1882 C1883 1.399 . S
C1882 C1887 1.399 . S
C1883 C1882 1.399 . S
C1883 C1884 1.376 . S
C1884 H1871 0.930 . S
C1884 C1883 1.376 . S
C1884 C1885 1.388 . S
C1885 H1872 0.930 . S
C1885 C1884 1.388 . S
C1885 C1886 1.390 . S
C1886 C1885 1.390 . S
C1886 C1887 1.394 . S
C1886 C1892 1.465 . S
C1887 C1882 1.399 . S
C1887 C1886 1.394 . S
C1887 C1888 1.516 . S
C1888 C1887 1.516 . S
C1888 C1889 1.502 . S
C1888 C1890 1.561 . S
C1888 C1891 1.526 . S
C1889 H1873 0.959 . S
C1889 H1874 0.959 1_545 S
C1889 H1875 0.961 1_545 S
C1889 C1888 1.502 . S
C1890 H1876 0.960 . S
C1890 H1877 0.961 1_545 S
C1890 H1878 0.959 . S
C1890 C1888 1.561 . S
C1891 C1888 1.526 . S
C1891 C1892 1.396 . S
C1891 C1896 1.390 . S
C1892 C1886 1.465 . S
C1892 C1891 1.396 . S
C1892 C1893 1.399 . S
C1893 H1879 0.929 . S
C1893 C1892 1.399 . S
C1893 C1894 1.385 . S
C1894 H1880 0.931 . S
C1894 C1893 1.385 . S
C1894 C1895 1.389 . S
C1895 C1894 1.389 . S
C1895 C1896 1.387 . S
C1896 H1881 0.930 . S
C1896 C1891 1.390 . S
C1896 C1895 1.387 . S
H1897 C1909 0.930 . S
H1898 C1911 0.930 . S
H1899 C1912 0.930 . S
H1900 C1916 0.959 . S
H1901 C1916 0.959 . S
H1902 C1916 0.961 . S
H1903 C1917 0.960 . S
H1904 C1917 0.961 . S
H1905 C1917 0.959 . S
H1906 C1920 0.929 . S
H1907 C1921 0.931 . S
H1908 C1923 0.930 . S
C1909 H1897 0.930 . S
C1909 C1910 1.399 . S
C1909 C1914 1.399 . S
C1910 C1909 1.399 . S
C1910 C1911 1.376 . S
C1911 H1898 0.930 . S
C1911 C1910 1.376 . S
C1911 C1912 1.388 . S
C1912 H1899 0.930 . S
C1912 C1911 1.388 . S
C1912 C1913 1.390 . S
C1913 C1912 1.390 . S
C1913 C1914 1.394 . S
C1913 C1919 1.465 . S
C1914 C1909 1.399 . S
C1914 C1913 1.394 . S
C1914 C1915 1.516 . S
C1915 C1914 1.516 . S
C1915 C1916 1.502 . S
C1915 C1917 1.561 . S
C1915 C1918 1.526 . S
C1916 H1900 0.959 . S
C1916 H1901 0.959 . S
C1916 H1902 0.961 . S
C1916 C1915 1.502 . S
C1917 H1903 0.960 . S
C1917 H1904 0.961 . S
C1917 H1905 0.959 . S
C1917 C1915 1.561 . S
C1918 C1915 1.526 . S
C1918 C1919 1.396 . S
C1918 C1923 1.390 . S
C1919 C1913 1.465 . S
C1919 C1918 1.396 . S
C1919 C1920 1.399 . S
C1920 H1906 0.929 . S
C1920 C1919 1.399 . S
C1920 C1921 1.385 . S
C1921 H1907 0.931 . S
C1921 C1920 1.385 . S
C1921 C1922 1.389 . S
C1922 C1921 1.389 . S
C1922 C1923 1.387 . S
C1923 H1908 0.930 . S
C1923 C1918 1.390 . S
C1923 C1922 1.387 . S
H1924 C1936 0.930 . S
H1925 C1938 0.930 . S
H1926 C1939 0.930 . S
H1927 C1943 0.959 . S
H1928 C1943 0.959 . S
H1929 C1943 0.961 . S
H1930 C1944 0.960 . S
H1931 C1944 0.961 . S
H1932 C1944 0.959 . S
H1933 C1947 0.929 . S
H1934 C1948 0.938 . S
H1935 C1950 0.930 . S
C1936 H1924 0.930 . S
C1936 C1937 1.399 . S
C1936 C1941 1.399 . S
C1937 C1936 1.399 . S
C1937 C1938 1.376 . S
C1938 H1925 0.930 . S
C1938 C1937 1.376 . S
C1938 C1939 1.388 . S
C1939 H1926 0.930 . S
C1939 C1938 1.388 . S
C1939 C1940 1.390 . S
C1940 C1939 1.390 . S
C1940 C1941 1.394 . S
C1940 C1946 1.465 . S
C1941 C1936 1.399 . S
C1941 C1940 1.394 . S
C1941 C1942 1.516 . S
C1942 C1941 1.516 . S
C1942 C1943 1.502 . S
C1942 C1944 1.561 . S
C1942 C1945 1.526 . S
C1943 H1927 0.959 . S
C1943 H1928 0.959 . S
C1943 H1929 0.961 . S
C1943 C1942 1.502 . S
C1944 H1930 0.960 . S
C1944 H1931 0.961 . S
C1944 H1932 0.959 . S
C1944 C1942 1.561 . S
C1945 C1942 1.526 . S
C1945 C1946 1.396 . S
C1945 C1950 1.390 . S
C1946 C1940 1.465 . S
C1946 C1945 1.396 . S
C1946 C1947 1.399 . S
C1947 H1933 0.929 . S
C1947 C1946 1.399 . S
C1947 C1948 1.385 . S
C1948 H1934 0.938 . S
C1948 C1947 1.385 . S
C1948 C1949 1.389 . S
C1949 C1948 1.389 . S
C1949 C1950 1.387 . S
C1950 H1935 0.930 . S
C1950 C1945 1.390 . S
C1950 C1949 1.387 . S
H1951 C1963 0.930 . S
H1952 C1965 0.930 . S
H1953 C1966 0.930 . S
H1954 C1970 0.959 . S
H1955 C1970 0.959 . S
H1956 C1970 0.961 . S
H1957 C1971 0.960 . S
H1958 C1971 0.961 . S
H1959 C1971 0.959 . S
H1960 C1974 0.929 . S
H1961 C1975 0.931 . S
H1962 C1977 0.930 . S
C1963 H1951 0.930 . S
C1963 C1964 1.399 . S
C1963 C1968 1.399 . S
C1964 C1963 1.399 . S
C1964 C1965 1.376 . S
C1965 H1952 0.930 . S
C1965 C1964 1.376 . S
C1965 C1966 1.388 . S
C1966 H1953 0.930 . S
C1966 C1965 1.388 . S
C1966 C1967 1.390 . S
C1967 C1966 1.390 . S
C1967 C1968 1.394 . S
C1967 C1973 1.465 . S
C1968 C1963 1.399 . S
C1968 C1967 1.394 . S
C1968 C1969 1.516 . S
C1969 C1968 1.516 . S
C1969 C1970 1.502 . S
C1969 C1971 1.561 . S
C1969 C1972 1.526 . S
C1970 H1954 0.959 . S
C1970 H1955 0.959 . S
C1970 H1956 0.961 . S
C1970 C1969 1.502 . S
C1971 H1957 0.960 . S
C1971 H1958 0.961 . S
C1971 H1959 0.959 . S
C1971 C1969 1.561 . S
C1972 C1969 1.526 . S
C1972 C1973 1.396 . S
C1972 C1977 1.390 . S
C1973 C1967 1.465 . S
C1973 C1972 1.396 . S
C1973 C1974 1.399 . S
C1974 H1960 0.929 . S
C1974 C1973 1.399 . S
C1974 C1975 1.385 . S
C1975 H1961 0.931 . S
C1975 C1974 1.385 . S
C1975 C1976 1.389 . S
C1976 C1975 1.389 . S
C1976 C1977 1.387 . S
C1977 H1962 0.930 . S
C1977 C1972 1.390 . S
C1977 C1976 1.387 . S
H1978 C1990 0.930 . S
H1979 C1992 0.930 . S
H1980 C1993 0.930 . S
H1981 C1997 0.959 . S
H1982 C1997 0.959 . S
H1983 C1997 0.961 . S
H1984 C1998 0.960 . S
H1985 C1998 0.961 . S
H1986 C1998 0.959 . S
H1987 C2001 0.929 1_565 S
H1988 C2002 0.931 . S
H1989 C2004 0.930 . S
C1990 H1978 0.930 . S
C1990 C1991 1.399 . S
C1990 C1995 1.399 . S
C1991 C1990 1.399 . S
C1991 C1992 1.376 . S
C1992 H1979 0.930 . S
C1992 C1991 1.376 . S
C1992 C1993 1.388 . S
C1993 H1980 0.930 . S
C1993 C1992 1.388 . S
C1993 C1994 1.390 . S
C1994 C1993 1.390 . S
C1994 C1995 1.394 . S
C1994 C2000 1.465 . S
C1995 C1990 1.399 . S
C1995 C1994 1.394 . S
C1995 C1996 1.516 . S
C1996 C1995 1.516 . S
C1996 C1997 1.502 . S
C1996 C1998 1.561 . S
C1996 C1999 1.526 . S
C1997 H1981 0.959 . S
C1997 H1982 0.959 . S
C1997 H1983 0.961 . S
C1997 C1996 1.502 . S
C1998 H1984 0.960 . S
C1998 H1985 0.961 . S
C1998 H1986 0.959 . S
C1998 C1996 1.561 . S
C1999 C1996 1.526 . S
C1999 C2000 1.396 . S
C1999 C2004 1.390 . S
C2000 C1994 1.465 . S
C2000 C1999 1.396 . S
C2000 C2001 1.399 . S
C2001 H1987 0.929 1_545 S
C2001 C2000 1.399 . S
C2001 C2002 1.385 1_545 S
C2002 H1988 0.931 . S
C2002 C2001 1.385 1_565 S
C2002 C2003 1.389 1_565 S
C2003 C2002 1.389 1_545 S
C2003 C2004 1.387 . S
C2004 H1989 0.930 . S
C2004 C1999 1.390 . S
C2004 C2003 1.387 . S
H2005 C2017 0.930 . S
H2006 C2019 0.930 . S
H2007 C2020 0.930 . S
H2008 C2024 0.959 . S
H2009 C2024 0.959 . S
H2010 C2024 0.961 . S
H2011 C2025 0.960 . S
H2012 C2025 0.961 . S
H2013 C2025 0.959 . S
H2014 C2028 0.929 . S
H2015 C2029 0.931 . S
H2016 C2031 0.930 . S
C2017 H2005 0.930 . S
C2017 C2018 1.399 . S
C2017 C2022 1.399 . S
C2018 C2017 1.399 . S
C2018 C2019 1.376 . S
C2019 H2006 0.930 . S
C2019 C2018 1.376 . S
C2019 C2020 1.388 . S
C2020 H2007 0.930 . S
C2020 C2019 1.388 . S
C2020 C2021 1.390 . S
C2021 C2020 1.390 . S
C2021 C2022 1.394 . S
C2021 C2027 1.465 . S
C2022 C2017 1.399 . S
C2022 C2021 1.394 . S
C2022 C2023 1.516 . S
C2023 C2022 1.516 . S
C2023 C2024 1.502 . S
C2023 C2025 1.561 . S
C2023 C2026 1.526 . S
C2024 H2008 0.959 . S
C2024 H2009 0.959 . S
C2024 H2010 0.961 . S
C2024 C2023 1.502 . S
C2025 H2011 0.960 . S
C2025 H2012 0.961 . S
C2025 H2013 0.959 . S
C2025 C2023 1.561 . S
C2026 C2023 1.526 . S
C2026 C2027 1.396 . S
C2026 C2031 1.390 . S
C2027 C2021 1.465 . S
C2027 C2026 1.396 . S
C2027 C2028 1.399 . S
C2028 H2014 0.929 . S
C2028 C2027 1.399 . S
C2028 C2029 1.385 . S
C2029 H2015 0.931 . S
C2029 C2028 1.385 . S
C2029 C2030 1.389 . S
C2030 C2029 1.389 . S
C2030 C2031 1.387 . S
C2031 H2016 0.930 . S
C2031 C2026 1.390 . S
C2031 C2030 1.387 . S
H2032 C2044 0.930 . S
H2033 C2046 0.930 . S
H2034 C2047 0.930 . S
H2035 C2051 0.959 . S
H2036 C2051 0.959 . S
H2037 C2051 0.961 . S
H2038 C2052 0.960 . S
H2039 C2052 0.961 . S
H2040 C2052 0.959 . S
H2041 C2055 0.929 . S
H2042 C2056 0.931 . S
H2043 C2058 0.930 . S
C2044 H2032 0.930 . S
C2044 C2045 1.399 1_556 S
C2044 C2049 1.399 . S
C2045 C2044 1.399 1_554 S
C2045 C2046 1.376 . S
C2046 H2033 0.930 . S
C2046 C2045 1.376 . S
C2046 C2047 1.388 . S
C2047 H2034 0.930 . S
C2047 C2046 1.388 . S
C2047 C2048 1.390 . S
C2048 C2047 1.390 . S
C2048 C2049 1.394 1_554 S
C2048 C2054 1.465 . S
C2049 C2044 1.399 . S
C2049 C2048 1.394 1_556 S
C2049 C2050 1.516 . S
C2050 C2049 1.516 . S
C2050 C2051 1.502 . S
C2050 C2052 1.561 . S
C2050 C2053 1.526 . S
C2051 H2035 0.959 . S
C2051 H2036 0.959 . S
C2051 H2037 0.961 . S
C2051 C2050 1.502 . S
C2052 H2038 0.960 . S
C2052 H2039 0.961 . S
C2052 H2040 0.959 . S
C2052 C2050 1.561 . S
C2053 C2050 1.526 . S
C2053 C2054 1.396 1_556 S
C2053 C2058 1.390 . S
C2054 C2048 1.465 . S
C2054 C2053 1.396 1_554 S
C2054 C2055 1.399 . S
C2055 H2041 0.929 . S
C2055 C2054 1.399 . S
C2055 C2056 1.385 . S
C2056 H2042 0.931 . S
C2056 C2055 1.385 . S
C2056 C2057 1.389 1_554 S
C2057 C2056 1.389 1_556 S
C2057 C2058 1.387 . S
C2058 H2043 0.930 . S
C2058 C2053 1.390 . S
C2058 C2057 1.387 . S
H2059 C2071 0.930 . S
H2060 C2073 0.930 . S
H2061 C2074 0.930 . S
H2062 C2078 0.959 . S
H2063 C2078 0.963 . S
H2064 C2078 0.961 . S
H2065 C2079 0.960 . S
H2066 C2079 0.961 . S
H2067 C2079 0.959 . S
H2068 C2082 0.929 . S
H2069 C2083 0.931 . S
H2070 C2085 0.930 . S
C2071 H2059 0.930 . S
C2071 C2072 1.399 . S
C2071 C2076 1.399 . S
C2072 C2071 1.399 . S
C2072 C2073 1.376 . S
C2073 H2060 0.930 . S
C2073 C2072 1.376 . S
C2073 C2074 1.388 . S
C2074 H2061 0.930 . S
C2074 C2073 1.388 . S
C2074 C2075 1.390 . S
C2075 C2074 1.390 . S
C2075 C2076 1.394 . S
C2075 C2081 1.465 . S
C2076 C2071 1.399 . S
C2076 C2075 1.394 . S
C2076 C2077 1.516 . S
C2077 C2076 1.516 . S
C2077 C2078 1.502 . S
C2077 C2079 1.561 1_554 S
C2077 C2080 1.526 . S
C2078 H2062 0.959 . S
C2078 H2063 0.963 . S
C2078 H2064 0.961 . S
C2078 C2077 1.502 . S
C2079 H2065 0.960 . S
C2079 H2066 0.961 . S
C2079 H2067 0.959 . S
C2079 C2077 1.561 1_556 S
C2080 C2077 1.526 . S
C2080 C2081 1.396 . S
C2080 C2085 1.390 . S
C2081 C2075 1.465 . S
C2081 C2080 1.396 . S
C2081 C2082 1.399 . S
C2082 H2068 0.929 . S
C2082 C2081 1.399 . S
C2082 C2083 1.385 . S
C2083 H2069 0.931 . S
C2083 C2082 1.385 . S
C2083 C2084 1.389 . S
C2084 C2083 1.389 . S
C2084 C2085 1.387 . S
C2085 H2070 0.930 . S
C2085 C2080 1.390 . S
C2085 C2084 1.387 . S
H2086 C2098 0.930 . S
H2087 C2100 0.930 . S
H2088 C2101 0.930 . S
H2089 C2105 0.959 . S
H2090 C2105 0.959 . S
H2091 C2105 0.961 . S
H2092 C2106 0.960 . S
H2093 C2106 0.961 . S
H2094 C2106 0.959 . S
H2095 C2109 0.929 . S
H2096 C2110 0.931 . S
H2097 C2112 0.930 . S
C2098 H2086 0.930 . S
C2098 C2099 1.399 . S
C2098 C2103 1.399 . S
C2099 C2098 1.399 . S
C2099 C2100 1.376 . S
C2100 H2087 0.930 . S
C2100 C2099 1.376 . S
C2100 C2101 1.388 . S
C2101 H2088 0.930 . S
C2101 C2100 1.388 . S
C2101 C2102 1.390 . S
C2102 C2101 1.390 . S
C2102 C2103 1.394 . S
C2102 C2108 1.465 . S
C2103 C2098 1.399 . S
C2103 C2102 1.394 . S
C2103 C2104 1.516 . S
C2104 C2103 1.516 . S
C2104 C2105 1.502 . S
C2104 C2106 1.561 . S
C2104 C2107 1.526 . S
C2105 H2089 0.959 . S
C2105 H2090 0.959 . S
C2105 H2091 0.961 . S
C2105 C2104 1.502 . S
C2106 H2092 0.960 . S
C2106 H2093 0.961 . S
C2106 H2094 0.959 . S
C2106 C2104 1.561 . S
C2107 C2104 1.526 . S
C2107 C2108 1.396 . S
C2107 C2112 1.390 . S
C2108 C2102 1.465 . S
C2108 C2107 1.396 . S
C2108 C2109 1.399 . S
C2109 H2095 0.929 . S
C2109 C2108 1.399 . S
C2109 C2110 1.385 . S
C2110 H2096 0.931 . S
C2110 C2109 1.385 . S
C2110 C2111 1.389 . S
C2111 C2110 1.389 . S
C2111 C2112 1.387 . S
C2112 H2097 0.930 . S
C2112 C2107 1.390 . S
C2112 C2111 1.387 . S
H2113 C2125 0.930 . S
H2114 C2127 0.930 . S
H2115 C2128 0.930 . S
H2116 C2132 0.959 . S
H2117 C2132 0.959 . S
H2118 C2132 0.961 . S
H2119 C2133 0.960 . S
H2120 C2133 0.961 . S
H2121 C2133 0.959 . S
H2122 C2136 0.929 . S
H2123 C2137 0.931 . S
H2124 C2139 0.930 . S
C2125 H2113 0.930 . S
C2125 C2126 1.399 . S
C2125 C2130 1.399 . S
C2126 C2125 1.399 . S
C2126 C2127 1.376 . S
C2127 H2114 0.930 . S
C2127 C2126 1.376 . S
C2127 C2128 1.388 . S
C2128 H2115 0.930 . S
C2128 C2127 1.388 . S
C2128 C2129 1.390 . S
C2129 C2128 1.390 . S
C2129 C2130 1.394 . S
C2129 C2135 1.465 . S
C2130 C2125 1.399 . S
C2130 C2129 1.394 . S
C2130 C2131 1.516 . S
C2131 C2130 1.516 . S
C2131 C2132 1.502 . S
C2131 C2133 1.561 . S
C2131 C2134 1.526 . S
C2132 H2116 0.959 . S
C2132 H2117 0.959 . S
C2132 H2118 0.961 . S
C2132 C2131 1.502 . S
C2133 H2119 0.960 . S
C2133 H2120 0.961 . S
C2133 H2121 0.959 . S
C2133 C2131 1.561 . S
C2134 C2131 1.526 . S
C2134 C2135 1.396 . S
C2134 C2139 1.390 . S
C2135 C2129 1.465 . S
C2135 C2134 1.396 . S
C2135 C2136 1.399 . S
C2136 H2122 0.929 . S
C2136 C2135 1.399 . S
C2136 C2137 1.385 . S
C2137 H2123 0.931 . S
C2137 C2136 1.385 . S
C2137 C2138 1.389 . S
C2138 C2137 1.389 . S
C2138 C2139 1.387 . S
C2139 H2124 0.930 . S
C2139 C2134 1.390 . S
C2139 C2138 1.387 . S
H2140 C2152 0.930 . S
H2141 C2154 0.930 . S
H2142 C2155 0.930 . S
H2143 C2159 0.959 . S
H2144 C2159 0.959 . S
H2145 C2159 0.961 . S
H2146 C2160 0.960 . S
H2147 C2160 0.961 . S
H2148 C2160 0.959 . S
H2149 C2163 0.929 . S
H2150 C2164 0.931 . S
H2151 C2166 0.930 . S
C2152 H2140 0.930 . S
C2152 C2153 1.399 . S
C2152 C2157 1.399 . S
C2153 C2152 1.399 . S
C2153 C2154 1.376 . S
C2154 H2141 0.930 . S
C2154 C2153 1.376 . S
C2154 C2155 1.388 . S
C2155 H2142 0.930 . S
C2155 C2154 1.388 . S
C2155 C2156 1.390 . S
C2156 C2155 1.390 . S
C2156 C2157 1.394 . S
C2156 C2162 1.465 . S
C2157 C2152 1.399 . S
C2157 C2156 1.394 . S
C2157 C2158 1.516 . S
C2158 C2157 1.516 . S
C2158 C2159 1.502 . S
C2158 C2160 1.561 . S
C2158 C2161 1.526 . S
C2159 H2143 0.959 . S
C2159 H2144 0.959 . S
C2159 H2145 0.961 . S
C2159 C2158 1.502 . S
C2160 H2146 0.960 . S
C2160 H2147 0.961 . S
C2160 H2148 0.959 . S
C2160 C2158 1.561 . S
C2161 C2158 1.526 . S
C2161 C2162 1.396 . S
C2161 C2166 1.390 . S
C2162 C2156 1.465 . S
C2162 C2161 1.396 . S
C2162 C2163 1.399 . S
C2163 H2149 0.929 . S
C2163 C2162 1.399 . S
C2163 C2164 1.385 . S
C2164 H2150 0.931 . S
C2164 C2163 1.385 . S
C2164 C2165 1.389 . S
C2165 C2164 1.389 . S
C2165 C2166 1.387 . S
C2166 H2151 0.930 . S
C2166 C2161 1.390 . S
C2166 C2165 1.387 . S
H2167 C2179 0.930 . S
H2168 C2181 0.930 . S
H2169 C2182 0.930 . S
H2170 C2186 0.959 . S
H2171 C2186 0.959 . S
H2172 C2186 0.961 . S
H2173 C2187 0.960 . S
H2174 C2187 0.961 . S
H2175 C2187 0.959 . S
H2176 C2190 0.929 . S
H2177 C2191 0.931 . S
H2178 C2193 0.930 . S
C2179 H2167 0.930 . S
C2179 C2180 1.399 . S
C2179 C2184 1.399 . S
C2180 C2179 1.399 . S
C2180 C2181 1.376 . S
C2181 H2168 0.930 . S
C2181 C2180 1.376 . S
C2181 C2182 1.388 . S
C2182 H2169 0.930 . S
C2182 C2181 1.388 . S
C2182 C2183 1.390 . S
C2183 C2182 1.390 . S
C2183 C2184 1.394 . S
C2183 C2189 1.465 . S
C2184 C2179 1.399 . S
C2184 C2183 1.394 . S
C2184 C2185 1.516 . S
C2185 C2184 1.516 . S
C2185 C2186 1.502 . S
C2185 C2187 1.561 . S
C2185 C2188 1.526 . S
C2186 H2170 0.959 . S
C2186 H2171 0.959 . S
C2186 H2172 0.961 . S
C2186 C2185 1.502 . S
C2187 H2173 0.960 . S
C2187 H2174 0.961 . S
C2187 H2175 0.959 . S
C2187 C2185 1.561 . S
C2188 C2185 1.526 . S
C2188 C2189 1.396 . S
C2188 C2193 1.390 . S
C2189 C2183 1.465 . S
C2189 C2188 1.396 . S
C2189 C2190 1.399 . S
C2190 H2176 0.929 . S
C2190 C2189 1.399 . S
C2190 C2191 1.385 . S
C2191 H2177 0.931 . S
C2191 C2190 1.385 . S
C2191 C2192 1.389 . S
C2192 C2191 1.389 . S
C2192 C2193 1.387 . S
C2193 H2178 0.930 . S
C2193 C2188 1.390 . S
C2193 C2192 1.387 . S
H2194 C2206 0.930 . S
H2195 C2208 0.930 . S
H2196 C2209 0.930 . S
H2197 C2213 0.959 . S
H2198 C2213 0.959 . S
H2199 C2213 0.961 . S
H2200 C2214 0.960 . S
H2201 C2214 0.961 . S
H2202 C2214 0.959 . S
H2203 C2217 0.929 . S
H2204 C2218 0.931 . S
H2205 C2220 0.930 . S
C2206 H2194 0.930 . S
C2206 C2207 1.399 . S
C2206 C2211 1.399 . S
C2207 C2206 1.399 . S
C2207 C2208 1.376 . S
C2208 H2195 0.930 . S
C2208 C2207 1.376 . S
C2208 C2209 1.388 . S
C2209 H2196 0.930 . S
C2209 C2208 1.388 . S
C2209 C2210 1.390 . S
C2210 C2209 1.390 . S
C2210 C2211 1.394 . S
C2210 C2216 1.465 . S
C2211 C2206 1.399 . S
C2211 C2210 1.394 . S
C2211 C2212 1.516 . S
C2212 C2211 1.516 . S
C2212 C2213 1.502 . S
C2212 C2214 1.561 . S
C2212 C2215 1.526 . S
C2213 H2197 0.959 . S
C2213 H2198 0.959 . S
C2213 H2199 0.961 . S
C2213 C2212 1.502 . S
C2214 H2200 0.960 . S
C2214 H2201 0.961 . S
C2214 H2202 0.959 . S
C2214 C2212 1.561 . S
C2215 C2212 1.526 . S
C2215 C2216 1.396 . S
C2215 C2220 1.390 . S
C2216 C2210 1.465 . S
C2216 C2215 1.396 . S
C2216 C2217 1.399 . S
C2217 H2203 0.929 . S
C2217 C2216 1.399 . S
C2217 C2218 1.385 . S
C2218 H2204 0.931 . S
C2218 C2217 1.385 . S
C2218 C2219 1.389 . S
C2219 C2218 1.389 . S
C2219 C2220 1.387 . S
C2220 H2205 0.930 . S
C2220 C2215 1.390 . S
C2220 C2219 1.387 . S
H2221 C2233 0.930 . S
H2222 C2235 0.930 . S
H2223 C2236 0.930 . S
H2224 C2240 0.959 . S
H2225 C2240 0.959 . S
H2226 C2240 0.961 . S
H2227 C2241 0.960 . S
H2228 C2241 0.961 . S
H2229 C2241 0.959 . S
H2230 C2244 0.929 . S
H2231 C2245 0.931 . S
H2232 C2247 0.930 . S
C2233 H2221 0.930 . S
C2233 C2234 1.399 . S
C2233 C2238 1.399 . S
C2234 C2233 1.399 . S
C2234 C2235 1.376 . S
C2235 H2222 0.930 . S
C2235 C2234 1.376 . S
C2235 C2236 1.388 . S
C2236 H2223 0.930 . S
C2236 C2235 1.388 . S
C2236 C2237 1.390 . S
C2237 C2236 1.390 . S
C2237 C2238 1.394 . S
C2237 C2243 1.465 . S
C2238 C2233 1.399 . S
C2238 C2237 1.394 . S
C2238 C2239 1.516 . S
C2239 C2238 1.516 . S
C2239 C2240 1.502 . S
C2239 C2241 1.561 . S
C2239 C2242 1.526 . S
C2240 H2224 0.959 . S
C2240 H2225 0.959 . S
C2240 H2226 0.961 . S
C2240 C2239 1.502 . S
C2241 H2227 0.960 . S
C2241 H2228 0.961 . S
C2241 H2229 0.959 . S
C2241 C2239 1.561 . S
C2242 C2239 1.526 . S
C2242 C2243 1.396 . S
C2242 C2247 1.390 . S
C2243 C2237 1.465 . S
C2243 C2242 1.396 . S
C2243 C2244 1.399 . S
C2244 H2230 0.929 . S
C2244 C2243 1.399 . S
C2244 C2245 1.385 . S
C2245 H2231 0.931 . S
C2245 C2244 1.385 . S
C2245 C2246 1.389 . S
C2246 C2245 1.389 . S
C2246 C2247 1.387 . S
C2247 H2232 0.930 . S
C2247 C2242 1.390 . S
C2247 C2246 1.387 . S
H2248 C2260 0.930 . S
H2249 C2262 0.930 . S
H2250 C2263 0.930 . S
H2251 C2267 0.959 . S
H2252 C2267 0.959 . S
H2253 C2267 0.961 . S
H2254 C2268 0.960 . S
H2255 C2268 0.961 . S
H2256 C2268 0.959 . S
H2257 C2271 0.929 . S
H2258 C2272 0.931 . S
H2259 C2274 0.930 . S
C2260 H2248 0.930 . S
C2260 C2261 1.399 . S
C2260 C2265 1.399 . S
C2261 C2260 1.399 . S
C2261 C2262 1.376 . S
C2262 H2249 0.930 . S
C2262 C2261 1.376 . S
C2262 C2263 1.388 . S
C2263 H2250 0.930 . S
C2263 C2262 1.388 . S
C2263 C2264 1.390 . S
C2264 C2263 1.390 . S
C2264 C2265 1.394 . S
C2264 C2270 1.465 . S
C2265 C2260 1.399 . S
C2265 C2264 1.394 . S
C2265 C2266 1.516 . S
C2266 C2265 1.516 . S
C2266 C2267 1.502 . S
C2266 C2268 1.561 . S
C2266 C2269 1.526 . S
C2267 H2251 0.959 . S
C2267 H2252 0.959 . S
C2267 H2253 0.961 . S
C2267 C2266 1.502 . S
C2268 H2254 0.960 . S
C2268 H2255 0.961 . S
C2268 H2256 0.959 . S
C2268 C2266 1.561 . S
C2269 C2266 1.526 . S
C2269 C2270 1.396 . S
C2269 C2274 1.390 . S
C2270 C2264 1.465 . S
C2270 C2269 1.396 . S
C2270 C2271 1.399 . S
C2271 H2257 0.929 . S
C2271 C2270 1.399 . S
C2271 C2272 1.385 . S
C2272 H2258 0.931 . S
C2272 C2271 1.385 . S
C2272 C2273 1.389 . S
C2273 C2272 1.389 . S
C2273 C2274 1.387 . S
C2274 H2259 0.930 . S
C2274 C2269 1.390 . S
C2274 C2273 1.387 . S
H2275 C2287 0.930 . S
H2276 C2289 0.930 . S
H2277 C2290 0.930 . S
H2278 C2294 0.959 . S
H2279 C2294 0.959 . S
H2280 C2294 0.961 . S
H2281 C2295 0.960 . S
H2282 C2295 0.961 . S
H2283 C2295 0.959 . S
H2284 C2298 0.929 . S
H2285 C2299 0.931 . S
H2286 C2301 0.930 . S
C2287 H2275 0.930 . S
C2287 C2288 1.399 . S
C2287 C2292 1.399 . S
C2288 C2287 1.399 . S
C2288 C2289 1.376 . S
C2289 H2276 0.930 . S
C2289 C2288 1.376 . S
C2289 C2290 1.388 . S
C2290 H2277 0.930 . S
C2290 C2289 1.388 . S
C2290 C2291 1.390 . S
C2291 C2290 1.390 . S
C2291 C2292 1.394 . S
C2291 C2297 1.465 . S
C2292 C2287 1.399 . S
C2292 C2291 1.394 . S
C2292 C2293 1.516 . S
C2293 C2292 1.516 . S
C2293 C2294 1.502 . S
C2293 C2295 1.561 . S
C2293 C2296 1.526 . S
C2294 H2278 0.959 . S
C2294 H2279 0.959 . S
C2294 H2280 0.961 . S
C2294 C2293 1.502 . S
C2295 H2281 0.960 . S
C2295 H2282 0.961 . S
C2295 H2283 0.959 . S
C2295 C2293 1.561 . S
C2296 C2293 1.526 . S
C2296 C2297 1.396 . S
C2296 C2301 1.390 . S
C2297 C2291 1.465 . S
C2297 C2296 1.396 . S
C2297 C2298 1.399 . S
C2298 H2284 0.929 . S
C2298 C2297 1.399 . S
C2298 C2299 1.385 . S
C2299 H2285 0.931 . S
C2299 C2298 1.385 . S
C2299 C2300 1.389 . S
C2300 C2299 1.389 . S
C2300 C2301 1.387 . S
C2301 H2286 0.930 . S
C2301 C2296 1.390 . S
C2301 C2300 1.387 . S
H2302 C2314 0.930 . S
H2303 C2316 0.930 . S
H2304 C2317 0.930 . S
H2305 C2321 0.959 . S
H2306 C2321 0.959 . S
H2307 C2321 0.961 . S
H2308 C2322 0.960 . S
H2309 C2322 0.961 . S
H2310 C2322 0.959 . S
H2311 C2325 0.929 . S
H2312 C2326 0.931 . S
H2313 C2328 0.930 . S
C2314 H2302 0.930 . S
C2314 C2315 1.382 1_455 S
C2314 C2319 1.399 . S
C2315 C2314 1.382 1_655 S
C2315 C2316 1.401 . S
C2316 H2303 0.930 . S
C2316 C2315 1.401 . S
C2316 C2317 1.388 . S
C2317 H2304 0.930 . S
C2317 C2316 1.388 . S
C2317 C2318 1.390 . S
C2318 C2317 1.390 . S
C2318 C2319 1.394 1_655 S
C2318 C2324 1.470 1_655 S
C2319 C2314 1.399 . S
C2319 C2318 1.394 1_455 S
C2319 C2320 1.516 . S
C2320 C2319 1.516 . S
C2320 C2321 1.502 . S
C2320 C2322 1.561 . S
C2320 C2323 1.526 . S
C2321 H2305 0.959 . S
C2321 H2306 0.959 . S
C2321 H2307 0.961 . S
C2321 C2320 1.502 . S
C2322 H2308 0.960 . S
C2322 H2309 0.961 . S
C2322 H2310 0.959 . S
C2322 C2320 1.561 . S
C2323 C2320 1.526 . S
C2323 C2324 1.431 . S
C2323 C2328 1.390 . S
C2324 C2318 1.470 1_455 S
C2324 C2323 1.431 . S
C2324 C2325 1.367 1_455 S
C2325 H2311 0.929 . S
C2325 C2324 1.367 1_655 S
C2325 C2326 1.385 . S
C2326 H2312 0.931 . S
C2326 C2325 1.385 . S
C2326 C2327 1.389 1_655 S
C2327 C2326 1.389 1_455 S
C2327 C2328 1.387 . S
C2328 H2313 0.930 . S
C2328 C2323 1.390 . S
C2328 C2327 1.387 . S
H2329 C2341 0.930 . S
H2330 C2343 0.930 . S
H2331 C2344 0.930 . S
H2332 C2348 0.959 . S
H2333 C2348 0.959 . S
H2334 C2348 0.961 . S
H2335 C2349 0.960 . S
H2336 C2349 0.961 . S
H2337 C2349 0.959 . S
H2338 C2352 0.929 1_455 S
H2339 C2353 0.931 . S
H2340 C2355 0.930 . S
C2341 H2329 0.930 . S
C2341 C2342 1.399 . S
C2341 C2346 1.399 . S
C2342 C2341 1.399 . S
C2342 C2343 1.376 . S
C2343 H2330 0.930 . S
C2343 C2342 1.376 . S
C2343 C2344 1.388 . S
C2344 H2331 0.930 . S
C2344 C2343 1.388 . S
C2344 C2345 1.390 . S
C2345 C2344 1.390 . S
C2345 C2346 1.394 . S
C2345 C2351 1.465 1_455 S
C2346 C2341 1.399 . S
C2346 C2345 1.394 . S
C2346 C2347 1.516 1_455 S
C2347 C2346 1.516 1_655 S
C2347 C2348 1.502 . S
C2347 C2349 1.561 . S
C2347 C2350 1.526 . S
C2348 H2332 0.959 . S
C2348 H2333 0.959 . S
C2348 H2334 0.961 . S
C2348 C2347 1.502 . S
C2349 H2335 0.960 . S
C2349 H2336 0.961 . S
C2349 H2337 0.959 . S
C2349 C2347 1.561 . S
C2350 C2347 1.526 . S
C2350 C2351 1.396 . S
C2350 C2355 1.390 . S
C2351 C2345 1.465 1_655 S
C2351 C2350 1.396 . S
C2351 C2352 1.399 . S
C2352 H2338 0.929 1_655 S
C2352 C2351 1.399 . S
C2352 C2353 1.385 . S
C2353 H2339 0.931 . S
C2353 C2352 1.385 . S
C2353 C2354 1.389 . S
C2354 C2353 1.389 . S
C2354 C2355 1.387 . S
C2355 H2340 0.930 . S
C2355 C2350 1.390 . S
C2355 C2354 1.387 . S
H2356 C2368 0.930 . S
H2357 C2370 0.930 . S
H2358 C2371 0.930 . S
H2359 C2375 0.959 . S
H2360 C2375 0.959 . S
H2361 C2375 0.961 . S
H2362 C2376 0.960 . S
H2363 C2376 0.961 . S
H2364 C2376 0.959 . S
H2365 C2379 0.929 . S
H2366 C2380 0.931 . S
H2367 C2382 0.930 . S
C2368 H2356 0.930 . S
C2368 C2369 1.399 . S
C2368 C2373 1.399 . S
C2369 C2368 1.399 . S
C2369 C2370 1.376 . S
C2370 H2357 0.930 . S
C2370 C2369 1.376 . S
C2370 C2371 1.388 . S
C2371 H2358 0.930 . S
C2371 C2370 1.388 . S
C2371 C2372 1.390 . S
C2372 C2371 1.390 . S
C2372 C2373 1.394 . S
C2372 C2378 1.465 . S
C2373 C2368 1.399 . S
C2373 C2372 1.394 . S
C2373 C2374 1.516 . S
C2374 C2373 1.516 . S
C2374 C2375 1.502 . S
C2374 C2376 1.561 . S
C2374 C2377 1.526 . S
C2375 H2359 0.959 . S
C2375 H2360 0.959 . S
C2375 H2361 0.961 . S
C2375 C2374 1.502 . S
C2376 H2362 0.960 . S
C2376 H2363 0.961 . S
C2376 H2364 0.959 . S
C2376 C2374 1.561 . S
C2377 C2374 1.526 . S
C2377 C2378 1.396 . S
C2377 C2382 1.390 . S
C2378 C2372 1.465 . S
C2378 C2377 1.396 . S
C2378 C2379 1.399 . S
C2379 H2365 0.929 . S
C2379 C2378 1.399 . S
C2379 C2380 1.385 . S
C2380 H2366 0.931 . S
C2380 C2379 1.385 . S
C2380 C2381 1.389 . S
C2381 C2380 1.389 . S
C2381 C2382 1.387 . S
C2382 H2367 0.930 . S
C2382 C2377 1.390 . S
C2382 C2381 1.387 . S
H2383 C2395 0.930 . S
H2384 C2397 0.930 . S
H2385 C2398 0.930 . S
H2386 C2402 0.959 . S
H2387 C2402 0.959 . S
H2388 C2402 0.961 . S
H2389 C2403 0.960 . S
H2390 C2403 0.961 . S
H2391 C2403 0.959 . S
H2392 C2406 0.929 . S
H2393 C2407 0.931 . S
H2394 C2409 0.930 . S
C2395 H2383 0.930 . S
C2395 C2396 1.399 . S
C2395 C2400 1.399 . S
C2396 C2395 1.399 . S
C2396 C2397 1.376 . S
C2397 H2384 0.930 . S
C2397 C2396 1.376 . S
C2397 C2398 1.388 . S
C2398 H2385 0.930 . S
C2398 C2397 1.388 . S
C2398 C2399 1.390 . S
C2399 C2398 1.390 . S
C2399 C2400 1.394 . S
C2399 C2405 1.465 . S
C2400 C2395 1.399 . S
C2400 C2399 1.394 . S
C2400 C2401 1.516 . S
C2401 C2400 1.516 . S
C2401 C2402 1.502 . S
C2401 C2403 1.561 . S
C2401 C2404 1.526 . S
C2402 H2386 0.959 . S
C2402 H2387 0.959 . S
C2402 H2388 0.961 . S
C2402 C2401 1.502 . S
C2403 H2389 0.960 . S
C2403 H2390 0.961 . S
C2403 H2391 0.959 . S
C2403 C2401 1.561 . S
C2404 C2401 1.526 . S
C2404 C2405 1.396 . S
C2404 C2409 1.390 . S
C2405 C2399 1.465 . S
C2405 C2404 1.396 . S
C2405 C2406 1.399 . S
C2406 H2392 0.929 . S
C2406 C2405 1.399 . S
C2406 C2407 1.385 . S
C2407 H2393 0.931 . S
C2407 C2406 1.385 . S
C2407 C2408 1.389 . S
C2408 C2407 1.389 . S
C2408 C2409 1.387 . S
C2409 H2394 0.930 . S
C2409 C2404 1.390 . S
C2409 C2408 1.387 . S
H2410 C2422 0.930 . S
H2411 C2424 0.930 . S
H2412 C2425 0.930 1_655 S
H2413 C2429 0.959 . S
H2414 C2429 0.959 . S
H2415 C2429 0.961 . S
H2416 C2430 0.960 . S
H2417 C2430 0.961 . S
H2418 C2430 0.959 . S
H2419 C2433 0.929 1_655 S
H2420 C2434 0.931 . S
H2421 C2436 0.930 . S
C2422 H2410 0.930 . S
C2422 C2423 1.399 . S
C2422 C2427 1.399 . S
C2423 C2422 1.399 . S
C2423 C2424 1.376 . S
C2424 H2411 0.930 . S
C2424 C2423 1.376 . S
C2424 C2425 1.388 . S
C2425 H2412 0.930 1_455 S
C2425 C2424 1.388 . S
C2425 C2426 1.390 . S
C2426 C2425 1.390 . S
C2426 C2427 1.394 . S
C2426 C2432 1.465 . S
C2427 C2422 1.399 . S
C2427 C2426 1.394 . S
C2427 C2428 1.516 . S
C2428 C2427 1.516 . S
C2428 C2429 1.502 . S
C2428 C2430 1.561 . S
C2428 C2431 1.526 . S
C2429 H2413 0.959 . S
C2429 H2414 0.959 . S
C2429 H2415 0.961 . S
C2429 C2428 1.502 . S
C2430 H2416 0.960 . S
C2430 H2417 0.961 . S
C2430 H2418 0.959 . S
C2430 C2428 1.561 . S
C2431 C2428 1.526 . S
C2431 C2432 1.396 . S
C2431 C2436 1.390 . S
C2432 C2426 1.465 . S
C2432 C2431 1.396 . S
C2432 C2433 1.399 . S
C2433 H2419 0.929 1_455 S
C2433 C2432 1.399 . S
C2433 C2434 1.385 . S
C2434 H2420 0.931 . S
C2434 C2433 1.385 . S
C2434 C2435 1.389 . S
C2435 C2434 1.389 . S
C2435 C2436 1.387 . S
C2436 H2421 0.930 . S
C2436 C2431 1.390 . S
C2436 C2435 1.387 . S
H2437 C2449 0.930 . S
H2438 C2451 0.930 . S
H2439 C2452 0.930 . S
H2440 C2456 0.959 . S
H2441 C2456 0.959 . S
H2442 C2456 0.961 . S
H2443 C2457 0.960 . S
H2444 C2457 0.961 . S
H2445 C2457 0.959 . S
H2446 C2460 0.929 . S
H2447 C2461 0.931 . S
H2448 C2463 0.930 . S
C2449 H2437 0.930 . S
C2449 C2450 1.399 . S
C2449 C2454 1.399 . S
C2450 C2449 1.399 . S
C2450 C2451 1.376 . S
C2451 H2438 0.930 . S
C2451 C2450 1.376 . S
C2451 C2452 1.388 . S
C2452 H2439 0.930 . S
C2452 C2451 1.388 . S
C2452 C2453 1.390 . S
C2453 C2452 1.390 . S
C2453 C2454 1.394 . S
C2453 C2459 1.465 . S
C2454 C2449 1.399 . S
C2454 C2453 1.394 . S
C2454 C2455 1.516 . S
C2455 C2454 1.516 . S
C2455 C2456 1.502 . S
C2455 C2457 1.561 . S
C2455 C2458 1.526 . S
C2456 H2440 0.959 . S
C2456 H2441 0.959 . S
C2456 H2442 0.961 . S
C2456 C2455 1.502 . S
C2457 H2443 0.960 . S
C2457 H2444 0.961 . S
C2457 H2445 0.959 . S
C2457 C2455 1.561 . S
C2458 C2455 1.526 . S
C2458 C2459 1.396 . S
C2458 C2463 1.390 . S
C2459 C2453 1.465 . S
C2459 C2458 1.396 . S
C2459 C2460 1.399 . S
C2460 H2446 0.929 . S
C2460 C2459 1.399 . S
C2460 C2461 1.385 . S
C2461 H2447 0.931 . S
C2461 C2460 1.385 . S
C2461 C2462 1.389 . S
C2462 C2461 1.389 . S
C2462 C2463 1.387 . S
C2463 H2448 0.930 . S
C2463 C2458 1.390 . S
C2463 C2462 1.387 . S
H2464 C2476 0.930 . S
H2465 C2478 0.930 . S
H2466 C2479 0.930 . S
H2467 C2483 0.959 . S
H2468 C2483 0.959 . S
H2469 C2483 0.961 . S
H2470 C2484 0.960 . S
H2471 C2484 0.961 . S
H2472 C2484 0.959 . S
H2473 C2487 0.929 . S
H2474 C2488 0.931 . S
H2475 C2490 0.930 . S
C2476 H2464 0.930 . S
C2476 C2477 1.399 . S
C2476 C2481 1.399 . S
C2477 C2476 1.399 . S
C2477 C2478 1.376 . S
C2478 H2465 0.930 . S
C2478 C2477 1.376 . S
C2478 C2479 1.388 . S
C2479 H2466 0.930 . S
C2479 C2478 1.388 . S
C2479 C2480 1.390 . S
C2480 C2479 1.390 . S
C2480 C2481 1.394 . S
C2480 C2486 1.465 . S
C2481 C2476 1.399 . S
C2481 C2480 1.394 . S
C2481 C2482 1.516 . S
C2482 C2481 1.516 . S
C2482 C2483 1.502 . S
C2482 C2484 1.561 . S
C2482 C2485 1.526 . S
C2483 H2467 0.959 . S
C2483 H2468 0.959 . S
C2483 H2469 0.961 . S
C2483 C2482 1.502 . S
C2484 H2470 0.960 . S
C2484 H2471 0.961 . S
C2484 H2472 0.959 . S
C2484 C2482 1.561 . S
C2485 C2482 1.526 . S
C2485 C2486 1.396 . S
C2485 C2490 1.390 . S
C2486 C2480 1.465 . S
C2486 C2485 1.396 . S
C2486 C2487 1.399 . S
C2487 H2473 0.929 . S
C2487 C2486 1.399 . S
C2487 C2488 1.385 . S
C2488 H2474 0.931 . S
C2488 C2487 1.385 . S
C2488 C2489 1.389 . S
C2489 C2488 1.389 . S
C2489 C2490 1.387 . S
C2490 H2475 0.930 . S
C2490 C2485 1.390 . S
C2490 C2489 1.387 . S
H2491 C2503 0.930 . S
H2492 C2505 0.930 . S
H2493 C2506 0.930 . S
H2494 C2510 0.959 . S
H2495 C2510 0.959 . S
H2496 C2510 0.961 . S
H2497 C2511 0.960 . S
H2498 C2511 0.961 . S
H2499 C2511 0.959 . S
H2500 C2514 0.929 . S
H2501 C2515 0.931 . S
H2502 C2517 0.930 . S
C2503 H2491 0.930 . S
C2503 C2504 1.399 . S
C2503 C2508 1.399 . S
C2504 C2503 1.399 . S
C2504 C2505 1.376 . S
C2505 H2492 0.930 . S
C2505 C2504 1.376 . S
C2505 C2506 1.388 . S
C2506 H2493 0.930 . S
C2506 C2505 1.388 . S
C2506 C2507 1.390 . S
C2507 C2506 1.390 . S
C2507 C2508 1.394 . S
C2507 C2513 1.465 . S
C2508 C2503 1.399 . S
C2508 C2507 1.394 . S
C2508 C2509 1.516 . S
C2509 C2508 1.516 . S
C2509 C2510 1.502 . S
C2509 C2511 1.561 . S
C2509 C2512 1.526 . S
C2510 H2494 0.959 . S
C2510 H2495 0.959 . S
C2510 H2496 0.961 . S
C2510 C2509 1.502 . S
C2511 H2497 0.960 . S
C2511 H2498 0.961 . S
C2511 H2499 0.959 . S
C2511 C2509 1.561 . S
C2512 C2509 1.526 . S
C2512 C2513 1.396 . S
C2512 C2517 1.390 . S
C2513 C2507 1.465 . S
C2513 C2512 1.396 . S
C2513 C2514 1.399 . S
C2514 H2500 0.929 . S
C2514 C2513 1.399 . S
C2514 C2515 1.385 . S
C2515 H2501 0.931 . S
C2515 C2514 1.385 . S
C2515 C2516 1.389 . S
C2516 C2515 1.389 . S
C2516 C2517 1.387 . S
C2517 H2502 0.930 . S
C2517 C2512 1.390 . S
C2517 C2516 1.387 . S
H2518 C2530 0.930 . S
H2519 C2532 0.930 . S
H2520 C2533 0.930 . S
H2521 C2537 0.959 . S
H2522 C2537 0.959 . S
H2523 C2537 0.961 . S
H2524 C2538 0.960 . S
H2525 C2538 0.961 . S
H2526 C2538 0.959 . S
H2527 C2541 0.929 . S
H2528 C2542 0.931 . S
H2529 C2544 0.930 . S
C2530 H2518 0.930 . S
C2530 C2531 1.399 . S
C2530 C2535 1.399 . S
C2531 C2530 1.399 . S
C2531 C2532 1.376 . S
C2532 H2519 0.930 . S
C2532 C2531 1.376 . S
C2532 C2533 1.388 . S
C2533 H2520 0.930 . S
C2533 C2532 1.388 . S
C2533 C2534 1.390 . S
C2534 C2533 1.390 . S
C2534 C2535 1.394 . S
C2534 C2540 1.465 . S
C2535 C2530 1.399 . S
C2535 C2534 1.394 . S
C2535 C2536 1.516 . S
C2536 C2535 1.516 . S
C2536 C2537 1.502 . S
C2536 C2538 1.561 . S
C2536 C2539 1.526 . S
C2537 H2521 0.959 . S
C2537 H2522 0.959 . S
C2537 H2523 0.961 . S
C2537 C2536 1.502 . S
C2538 H2524 0.960 . S
C2538 H2525 0.961 . S
C2538 H2526 0.959 . S
C2538 C2536 1.561 . S
C2539 C2536 1.526 . S
C2539 C2540 1.396 . S
C2539 C2544 1.390 . S
C2540 C2534 1.465 . S
C2540 C2539 1.396 . S
C2540 C2541 1.399 . S
C2541 H2527 0.929 . S
C2541 C2540 1.399 . S
C2541 C2542 1.385 . S
C2542 H2528 0.931 . S
C2542 C2541 1.385 . S
C2542 C2543 1.389 . S
C2543 C2542 1.389 . S
C2543 C2544 1.387 . S
C2544 H2529 0.930 . S
C2544 C2539 1.390 . S
C2544 C2543 1.387 . S
H2545 C2557 0.930 . S
H2546 C2559 0.930 . S
H2547 C2560 0.930 . S
H2548 C2564 0.959 . S
H2549 C2564 0.959 . S
H2550 C2564 0.961 . S
H2551 C2565 0.960 . S
H2552 C2565 0.961 . S
H2553 C2565 0.959 . S
H2554 C2568 0.929 . S
H2555 C2569 0.931 . S
H2556 C2571 0.930 . S
C2557 H2545 0.930 . S
C2557 C2558 1.399 . S
C2557 C2562 1.399 . S
C2558 C2557 1.399 . S
C2558 C2559 1.376 . S
C2559 H2546 0.930 . S
C2559 C2558 1.376 . S
C2559 C2560 1.388 . S
C2560 H2547 0.930 . S
C2560 C2559 1.388 . S
C2560 C2561 1.390 . S
C2561 C2560 1.390 . S
C2561 C2562 1.394 . S
C2561 C2567 1.465 . S
C2562 C2557 1.399 . S
C2562 C2561 1.394 . S
C2562 C2563 1.516 . S
C2563 C2562 1.516 . S
C2563 C2564 1.502 . S
C2563 C2565 1.561 . S
C2563 C2566 1.526 . S
C2564 H2548 0.959 . S
C2564 H2549 0.959 . S
C2564 H2550 0.961 . S
C2564 C2563 1.502 . S
C2565 H2551 0.960 . S
C2565 H2552 0.961 . S
C2565 H2553 0.959 . S
C2565 C2563 1.561 . S
C2566 C2563 1.526 . S
C2566 C2567 1.396 . S
C2566 C2571 1.390 . S
C2567 C2561 1.465 . S
C2567 C2566 1.396 . S
C2567 C2568 1.399 . S
C2568 H2554 0.929 . S
C2568 C2567 1.399 . S
C2568 C2569 1.385 . S
C2569 H2555 0.931 . S
C2569 C2568 1.385 . S
C2569 C2570 1.389 . S
C2570 C2569 1.389 . S
C2570 C2571 1.387 . S
C2571 H2556 0.930 . S
C2571 C2566 1.390 . S
C2571 C2570 1.387 . S
H2572 C2584 0.930 . S
H2573 C2586 0.930 . S
H2574 C2587 0.930 . S
H2575 C2591 0.959 . S
H2576 C2591 0.959 . S
H2577 C2591 0.961 . S
H2578 C2592 0.960 . S
H2579 C2592 0.961 . S
H2580 C2592 0.959 . S
H2581 C2595 0.929 . S
H2582 C2596 0.931 . S
H2583 C2598 0.930 . S
C2584 H2572 0.930 . S
C2584 C2585 1.399 . S
C2584 C2589 1.399 . S
C2585 C2584 1.399 . S
C2585 C2586 1.376 . S
C2586 H2573 0.930 . S
C2586 C2585 1.376 . S
C2586 C2587 1.388 . S
C2587 H2574 0.930 . S
C2587 C2586 1.388 . S
C2587 C2588 1.390 . S
C2588 C2587 1.390 . S
C2588 C2589 1.394 . S
C2588 C2594 1.465 . S
C2589 C2584 1.399 . S
C2589 C2588 1.394 . S
C2589 C2590 1.516 . S
C2590 C2589 1.516 . S
C2590 C2591 1.502 . S
C2590 C2592 1.561 . S
C2590 C2593 1.526 . S
C2591 H2575 0.959 . S
C2591 H2576 0.959 . S
C2591 H2577 0.961 . S
C2591 C2590 1.502 . S
C2592 H2578 0.960 . S
C2592 H2579 0.961 . S
C2592 H2580 0.959 . S
C2592 C2590 1.561 . S
C2593 C2590 1.526 . S
C2593 C2594 1.396 . S
C2593 C2598 1.390 . S
C2594 C2588 1.465 . S
C2594 C2593 1.396 . S
C2594 C2595 1.399 . S
C2595 H2581 0.929 . S
C2595 C2594 1.399 . S
C2595 C2596 1.385 . S
C2596 H2582 0.931 . S
C2596 C2595 1.385 . S
C2596 C2597 1.389 . S
C2597 C2596 1.389 . S
C2597 C2598 1.387 . S
C2598 H2583 0.930 . S
C2598 C2593 1.390 . S
C2598 C2597 1.387 . S
H2599 C2611 0.930 . S
H2600 C2613 0.930 . S
H2601 C2614 0.930 . S
H2602 C2618 0.959 . S
H2603 C2618 0.959 . S
H2604 C2618 0.961 . S
H2605 C2619 0.960 . S
H2606 C2619 0.961 . S
H2607 C2619 0.959 . S
H2608 C2622 0.929 . S
H2609 C2623 0.931 . S
H2610 C2625 0.930 . S
C2611 H2599 0.930 . S
C2611 C2612 1.399 . S
C2611 C2616 1.399 . S
C2612 C2611 1.399 . S
C2612 C2613 1.376 . S
C2613 H2600 0.930 . S
C2613 C2612 1.376 . S
C2613 C2614 1.388 . S
C2614 H2601 0.930 . S
C2614 C2613 1.388 . S
C2614 C2615 1.390 . S
C2615 C2614 1.390 . S
C2615 C2616 1.394 . S
C2615 C2621 1.465 . S
C2616 C2611 1.399 . S
C2616 C2615 1.394 . S
C2616 C2617 1.516 . S
C2617 C2616 1.516 . S
C2617 C2618 1.502 . S
C2617 C2619 1.561 . S
C2617 C2620 1.526 . S
C2618 H2602 0.959 . S
C2618 H2603 0.959 . S
C2618 H2604 0.961 . S
C2618 C2617 1.502 . S
C2619 H2605 0.960 . S
C2619 H2606 0.961 . S
C2619 H2607 0.959 . S
C2619 C2617 1.561 . S
C2620 C2617 1.526 . S
C2620 C2621 1.396 . S
C2620 C2625 1.390 . S
C2621 C2615 1.465 . S
C2621 C2620 1.396 . S
C2621 C2622 1.399 . S
C2622 H2608 0.929 . S
C2622 C2621 1.399 . S
C2622 C2623 1.385 . S
C2623 H2609 0.931 . S
C2623 C2622 1.385 . S
C2623 C2624 1.389 . S
C2624 C2623 1.389 . S
C2624 C2625 1.387 . S
C2625 H2610 0.930 . S
C2625 C2620 1.390 . S
C2625 C2624 1.387 . S
H2626 C2638 0.930 . S
H2627 C2640 0.930 . S
H2628 C2641 0.930 . S
H2629 C2645 0.959 . S
H2630 C2645 0.959 . S
H2631 C2645 0.961 . S
H2632 C2646 0.960 . S
H2633 C2646 0.961 . S
H2634 C2646 0.959 . S
H2635 C2649 0.929 . S
H2636 C2650 0.931 . S
H2637 C2652 0.930 . S
C2638 H2626 0.930 . S
C2638 C2639 1.399 . S
C2638 C2643 1.399 . S
C2639 C2638 1.399 . S
C2639 C2640 1.376 . S
C2640 H2627 0.930 . S
C2640 C2639 1.376 . S
C2640 C2641 1.388 . S
C2641 H2628 0.930 . S
C2641 C2640 1.388 . S
C2641 C2642 1.390 . S
C2642 C2641 1.390 . S
C2642 C2643 1.394 . S
C2642 C2648 1.465 . S
C2643 C2638 1.399 . S
C2643 C2642 1.394 . S
C2643 C2644 1.516 . S
C2644 C2643 1.516 . S
C2644 C2645 1.502 . S
C2644 C2646 1.561 . S
C2644 C2647 1.526 . S
C2645 H2629 0.959 . S
C2645 H2630 0.959 . S
C2645 H2631 0.961 . S
C2645 C2644 1.502 . S
C2646 H2632 0.960 . S
C2646 H2633 0.961 . S
C2646 H2634 0.959 . S
C2646 C2644 1.561 . S
C2647 C2644 1.526 . S
C2647 C2648 1.396 . S
C2647 C2652 1.390 . S
C2648 C2642 1.465 . S
C2648 C2647 1.396 . S
C2648 C2649 1.399 . S
C2649 H2635 0.929 . S
C2649 C2648 1.399 . S
C2649 C2650 1.385 . S
C2650 H2636 0.931 . S
C2650 C2649 1.385 . S
C2650 C2651 1.389 . S
C2651 C2650 1.389 . S
C2651 C2652 1.387 . S
C2652 H2637 0.930 . S
C2652 C2647 1.390 . S
C2652 C2651 1.387 . S
H2653 C2665 0.930 . S
H2654 C2667 0.930 . S
H2655 C2668 0.930 . S
H2656 C2672 0.959 . S
H2657 C2672 0.959 . S
H2658 C2672 0.961 . S
H2659 C2673 0.960 . S
H2660 C2673 0.961 . S
H2661 C2673 0.959 . S
H2662 C2676 0.929 . S
H2663 C2677 0.931 . S
H2664 C2679 0.930 . S
C2665 H2653 0.930 . S
C2665 C2666 1.399 . S
C2665 C2670 1.399 . S
C2666 C2665 1.399 . S
C2666 C2667 1.376 . S
C2667 H2654 0.930 . S
C2667 C2666 1.376 . S
C2667 C2668 1.388 . S
C2668 H2655 0.930 . S
C2668 C2667 1.388 . S
C2668 C2669 1.390 . S
C2669 C2668 1.390 . S
C2669 C2670 1.394 . S
C2669 C2675 1.465 . S
C2670 C2665 1.399 . S
C2670 C2669 1.394 . S
C2670 C2671 1.516 . S
C2671 C2670 1.516 . S
C2671 C2672 1.502 . S
C2671 C2673 1.561 . S
C2671 C2674 1.526 . S
C2672 H2656 0.959 . S
C2672 H2657 0.959 . S
C2672 H2658 0.961 . S
C2672 C2671 1.502 . S
C2673 H2659 0.960 . S
C2673 H2660 0.961 . S
C2673 H2661 0.959 . S
C2673 C2671 1.561 . S
C2674 C2671 1.526 . S
C2674 C2675 1.396 . S
C2674 C2679 1.390 . S
C2675 C2669 1.465 . S
C2675 C2674 1.396 . S
C2675 C2676 1.399 . S
C2676 H2662 0.929 . S
C2676 C2675 1.399 . S
C2676 C2677 1.385 . S
C2677 H2663 0.931 . S
C2677 C2676 1.385 . S
C2677 C2678 1.389 . S
C2678 C2677 1.389 . S
C2678 C2679 1.387 . S
C2679 H2664 0.930 . S
C2679 C2674 1.390 . S
C2679 C2678 1.387 . S
H2680 C2692 0.930 . S
H2681 C2694 0.930 . S
H2682 C2695 0.930 . S
H2683 C2699 0.959 . S
H2684 C2699 0.959 . S
H2685 C2699 0.961 . S
H2686 C2700 0.960 . S
H2687 C2700 0.961 . S
H2688 C2700 0.959 . S
H2689 C2703 0.929 . S
H2690 C2704 0.931 . S
H2691 C2706 0.930 . S
C2692 H2680 0.930 . S
C2692 C2693 1.399 . S
C2692 C2697 1.399 . S
C2693 C2692 1.399 . S
C2693 C2694 1.376 . S
C2694 H2681 0.930 . S
C2694 C2693 1.376 . S
C2694 C2695 1.388 . S
C2695 H2682 0.930 . S
C2695 C2694 1.388 . S
C2695 C2696 1.390 . S
C2696 C2695 1.390 . S
C2696 C2697 1.394 . S
C2696 C2702 1.465 . S
C2697 C2692 1.399 . S
C2697 C2696 1.394 . S
C2697 C2698 1.516 . S
C2698 C2697 1.516 . S
C2698 C2699 1.502 . S
C2698 C2700 1.561 . S
C2698 C2701 1.526 . S
C2699 H2683 0.959 . S
C2699 H2684 0.959 . S
C2699 H2685 0.961 . S
C2699 C2698 1.502 . S
C2700 H2686 0.960 . S
C2700 H2687 0.961 . S
C2700 H2688 0.959 . S
C2700 C2698 1.561 . S
C2701 C2698 1.526 . S
C2701 C2702 1.396 . S
C2701 C2706 1.390 . S
C2702 C2696 1.465 . S
C2702 C2701 1.396 . S
C2702 C2703 1.399 . S
C2703 H2689 0.929 . S
C2703 C2702 1.399 . S
C2703 C2704 1.385 . S
C2704 H2690 0.931 . S
C2704 C2703 1.385 . S
C2704 C2705 1.389 . S
C2705 C2704 1.389 . S
C2705 C2706 1.387 . S
C2706 H2691 0.930 . S
C2706 C2701 1.390 . S
C2706 C2705 1.387 . S
H2707 C2719 0.930 . S
H2708 C2721 0.930 . S
H2709 C2722 0.930 . S
H2710 C2726 0.959 . S
H2711 C2726 0.959 . S
H2712 C2726 0.961 . S
H2713 C2727 0.960 . S
H2714 C2727 0.961 . S
H2715 C2727 0.959 . S
H2716 C2730 0.929 . S
H2717 C2731 0.931 . S
H2718 C2733 0.930 . S
C2719 H2707 0.930 . S
C2719 C2720 1.399 . S
C2719 C2724 1.399 . S
C2720 C2719 1.399 . S
C2720 C2721 1.376 . S
C2721 H2708 0.930 . S
C2721 C2720 1.376 . S
C2721 C2722 1.388 . S
C2722 H2709 0.930 . S
C2722 C2721 1.388 . S
C2722 C2723 1.390 . S
C2723 C2722 1.390 . S
C2723 C2724 1.394 . S
C2723 C2729 1.465 . S
C2724 C2719 1.399 . S
C2724 C2723 1.394 . S
C2724 C2725 1.516 . S
C2725 C2724 1.516 . S
C2725 C2726 1.502 . S
C2725 C2727 1.561 . S
C2725 C2728 1.526 . S
C2726 H2710 0.959 . S
C2726 H2711 0.959 . S
C2726 H2712 0.961 . S
C2726 C2725 1.502 . S
C2727 H2713 0.960 . S
C2727 H2714 0.961 . S
C2727 H2715 0.959 . S
C2727 C2725 1.561 . S
C2728 C2725 1.526 . S
C2728 C2729 1.396 . S
C2728 C2733 1.390 . S
C2729 C2723 1.465 . S
C2729 C2728 1.396 . S
C2729 C2730 1.399 . S
C2730 H2716 0.929 . S
C2730 C2729 1.399 . S
C2730 C2731 1.385 . S
C2731 H2717 0.931 . S
C2731 C2730 1.385 . S
C2731 C2732 1.389 . S
C2732 C2731 1.389 . S
C2732 C2733 1.387 . S
C2733 H2718 0.930 . S
C2733 C2728 1.390 . S
C2733 C2732 1.387 . S
H2734 C2746 0.930 . S
H2735 C2748 0.930 . S
H2736 C2749 0.930 . S
H2737 C2753 0.959 . S
H2738 C2753 0.959 . S
H2739 C2753 0.961 1_545 S
H2740 C2754 0.960 . S
H2741 C2754 0.961 . S
H2742 C2754 0.959 . S
H2743 C2757 0.929 . S
H2744 C2758 0.931 . S
H2745 C2760 0.930 . S
C2746 H2734 0.930 . S
C2746 C2747 1.399 . S
C2746 C2751 1.399 1_545 S
C2747 C2746 1.399 . S
C2747 C2748 1.376 1_545 S
C2748 H2735 0.930 . S
C2748 C2747 1.376 1_565 S
C2748 C2749 1.388 . S
C2749 H2736 0.930 . S
C2749 C2748 1.388 . S
C2749 C2750 1.390 . S
C2750 C2749 1.390 . S
C2750 C2751 1.394 . S
C2750 C2756 1.465 . S
C2751 C2746 1.399 1_565 S
C2751 C2750 1.394 . S
C2751 C2752 1.516 . S
C2752 C2751 1.516 . S
C2752 C2753 1.502 . S
C2752 C2754 1.561 . S
C2752 C2755 1.526 . S
C2753 H2737 0.959 . S
C2753 H2738 0.959 . S
C2753 H2739 0.961 1_565 S
C2753 C2752 1.502 . S
C2754 H2740 0.960 . S
C2754 H2741 0.961 . S
C2754 H2742 0.959 . S
C2754 C2752 1.561 . S
C2755 C2752 1.526 . S
C2755 C2756 1.396 . S
C2755 C2760 1.390 . S
C2756 C2750 1.465 . S
C2756 C2755 1.396 . S
C2756 C2757 1.399 . S
C2757 H2743 0.929 . S
C2757 C2756 1.399 . S
C2757 C2758 1.385 . S
C2758 H2744 0.931 . S
C2758 C2757 1.385 . S
C2758 C2759 1.389 . S
C2759 C2758 1.389 . S
C2759 C2760 1.387 . S
C2760 H2745 0.930 . S
C2760 C2755 1.390 . S
C2760 C2759 1.387 . S
H2761 C2773 0.930 . S
H2762 C2775 0.930 . S
H2763 C2776 0.930 1_556 S
H2764 C2780 0.959 . S
H2765 C2780 0.959 . S
H2766 C2780 0.961 . S
H2767 C2781 0.960 . S
H2768 C2781 0.961 . S
H2769 C2781 0.959 . S
H2770 C2784 0.929 1_556 S
H2771 C2785 0.931 1_556 S
H2772 C2787 0.916 1_545 S
C2773 H2761 0.930 . S
C2773 C2774 1.399 . S
C2773 C2778 1.399 . S
C2774 C2773 1.399 . S
C2774 C2775 1.376 . S
C2775 H2762 0.930 . S
C2775 C2774 1.376 . S
C2775 C2776 1.388 . S
C2776 H2763 0.930 1_554 S
C2776 C2775 1.388 . S
C2776 C2777 1.390 . S
C2777 C2776 1.390 . S
C2777 C2778 1.394 . S
C2777 C2783 1.465 . S
C2778 C2773 1.399 . S
C2778 C2777 1.394 . S
C2778 C2779 1.516 . S
C2779 C2778 1.516 . S
C2779 C2780 1.502 . S
C2779 C2781 1.561 . S
C2779 C2782 1.526 . S
C2780 H2764 0.959 . S
C2780 H2765 0.959 . S
C2780 H2766 0.961 . S
C2780 C2779 1.502 . S
C2781 H2767 0.960 . S
C2781 H2768 0.961 . S
C2781 H2769 0.959 . S
C2781 C2779 1.561 . S
C2782 C2779 1.526 . S
C2782 C2783 1.396 . S
C2782 C2787 1.412 . S
C2783 C2777 1.465 . S
C2783 C2782 1.396 . S
C2783 C2784 1.399 . S
C2784 H2770 0.929 1_554 S
C2784 C2783 1.399 . S
C2784 C2785 1.385 . S
C2785 H2771 0.931 1_554 S
C2785 C2784 1.385 . S
C2785 C2786 1.389 1_565 S
C2786 C2785 1.389 1_545 S
C2786 C2787 1.379 1_545 S
C2787 H2772 0.916 1_565 S
C2787 C2782 1.412 . S
C2787 C2786 1.379 1_565 S
H2788 C2800 0.930 . S
H2789 C2802 0.930 . S
H2790 C2803 0.930 . S
H2791 C2807 0.959 . S
H2792 C2807 0.959 . S
H2793 C2807 0.961 . S
H2794 C2808 0.960 . S
H2795 C2808 0.961 . S
H2796 C2808 0.959 . S
H2797 C2811 0.929 . S
H2798 C2812 0.931 . S
H2799 C2814 0.930 . S
C2800 H2788 0.930 . S
C2800 C2801 1.399 . S
C2800 C2805 1.399 . S
C2801 C2800 1.399 . S
C2801 C2802 1.376 . S
C2802 H2789 0.930 . S
C2802 C2801 1.376 . S
C2802 C2803 1.388 . S
C2803 H2790 0.930 . S
C2803 C2802 1.388 . S
C2803 C2804 1.390 . S
C2804 C2803 1.390 . S
C2804 C2805 1.394 . S
C2804 C2810 1.465 . S
C2805 C2800 1.399 . S
C2805 C2804 1.394 . S
C2805 C2806 1.516 . S
C2806 C2805 1.516 . S
C2806 C2807 1.502 . S
C2806 C2808 1.561 . S
C2806 C2809 1.526 . S
C2807 H2791 0.959 . S
C2807 H2792 0.959 . S
C2807 H2793 0.961 . S
C2807 C2806 1.502 . S
C2808 H2794 0.960 . S
C2808 H2795 0.961 . S
C2808 H2796 0.959 . S
C2808 C2806 1.561 . S
C2809 C2806 1.526 . S
C2809 C2810 1.396 . S
C2809 C2814 1.390 . S
C2810 C2804 1.465 . S
C2810 C2809 1.396 . S
C2810 C2811 1.399 . S
C2811 H2797 0.929 . S
C2811 C2810 1.399 . S
C2811 C2812 1.385 . S
C2812 H2798 0.931 . S
C2812 C2811 1.385 . S
C2812 C2813 1.389 . S
C2813 C2812 1.389 . S
C2813 C2814 1.387 . S
C2814 H2799 0.930 . S
C2814 C2809 1.390 . S
C2814 C2813 1.387 . S
H2815 C2827 0.930 1_556 S
H2816 C2829 0.930 . S
H2817 C2830 0.930 . S
H2818 C2834 0.959 1_554 S
H2819 C2834 0.959 . S
H2820 C2834 0.961 . S
H2821 C2835 0.960 . S
H2822 C2835 0.961 . S
H2823 C2835 0.959 . S
H2824 C2838 0.929 . S
H2825 C2839 0.931 . S
H2826 C2841 0.930 . S
C2827 H2815 0.930 1_554 S
C2827 C2828 1.399 . S
C2827 C2832 1.399 . S
C2828 C2827 1.399 . S
C2828 C2829 1.376 . S
C2829 H2816 0.930 . S
C2829 C2828 1.376 . S
C2829 C2830 1.388 . S
C2830 H2817 0.930 . S
C2830 C2829 1.388 . S
C2830 C2831 1.390 . S
C2831 C2830 1.390 . S
C2831 C2832 1.394 . S
C2831 C2837 1.465 . S
C2832 C2827 1.399 . S
C2832 C2831 1.394 . S
C2832 C2833 1.516 . S
C2833 C2832 1.516 . S
C2833 C2834 1.502 1_554 S
C2833 C2835 1.561 1_554 S
C2833 C2836 1.526 . S
C2834 H2818 0.959 1_556 S
C2834 H2819 0.959 . S
C2834 H2820 0.961 . S
C2834 C2833 1.502 1_556 S
C2835 H2821 0.960 . S
C2835 H2822 0.961 . S
C2835 H2823 0.959 . S
C2835 C2833 1.561 1_556 S
C2836 C2833 1.526 . S
C2836 C2837 1.396 . S
C2836 C2841 1.390 . S
C2837 C2831 1.465 . S
C2837 C2836 1.396 . S
C2837 C2838 1.399 . S
C2838 H2824 0.929 . S
C2838 C2837 1.399 . S
C2838 C2839 1.385 . S
C2839 H2825 0.931 . S
C2839 C2838 1.385 . S
C2839 C2840 1.389 . S
C2840 C2839 1.389 . S
C2840 C2841 1.387 . S
C2841 H2826 0.930 . S
C2841 C2836 1.390 . S
C2841 C2840 1.387 . S
H2842 C2854 0.930 . S
H2843 C2856 0.930 . S
H2844 C2857 0.930 . S
H2845 C2861 0.959 . S
H2846 C2861 0.959 . S
H2847 C2861 0.961 . S
H2848 C2862 0.960 . S
H2849 C2862 0.961 . S
H2850 C2862 0.959 . S
H2851 C2865 0.929 . S
H2852 C2866 0.931 . S
H2853 C2868 0.930 . S
C2854 H2842 0.930 . S
C2854 C2855 1.399 . S
C2854 C2859 1.399 . S
C2855 C2854 1.399 . S
C2855 C2856 1.376 . S
C2856 H2843 0.930 . S
C2856 C2855 1.376 . S
C2856 C2857 1.388 . S
C2857 H2844 0.930 . S
C2857 C2856 1.388 . S
C2857 C2858 1.390 . S
C2858 C2857 1.390 . S
C2858 C2859 1.394 . S
C2858 C2864 1.465 . S
C2859 C2854 1.399 . S
C2859 C2858 1.394 . S
C2859 C2860 1.516 . S
C2860 C2859 1.516 . S
C2860 C2861 1.502 . S
C2860 C2862 1.561 . S
C2860 C2863 1.526 . S
C2861 H2845 0.959 . S
C2861 H2846 0.959 . S
C2861 H2847 0.961 . S
C2861 C2860 1.502 . S
C2862 H2848 0.960 . S
C2862 H2849 0.961 . S
C2862 H2850 0.959 . S
C2862 C2860 1.561 . S
C2863 C2860 1.526 . S
C2863 C2864 1.396 . S
C2863 C2868 1.390 . S
C2864 C2858 1.465 . S
C2864 C2863 1.396 . S
C2864 C2865 1.399 . S
C2865 H2851 0.929 . S
C2865 C2864 1.399 . S
C2865 C2866 1.385 . S
C2866 H2852 0.931 . S
C2866 C2865 1.385 . S
C2866 C2867 1.389 . S
C2867 C2866 1.389 . S
C2867 C2868 1.387 . S
C2868 H2853 0.930 . S
C2868 C2863 1.390 . S
C2868 C2867 1.387 . S
H2869 C2881 0.930 . S
H2870 C2883 0.930 . S
H2871 C2884 0.930 . S
H2872 C2888 0.959 1_565 S
H2873 C2888 0.960 1_565 S
H2874 C2888 0.961 . S
H2875 C2889 0.912 1_545 S
H2876 C2889 0.955 . S
H2877 C2889 0.990 . S
H2878 C2892 0.929 . S
H2879 C2893 0.931 . S
H2880 C2895 0.930 . S
C2881 H2869 0.930 . S
C2881 C2882 1.399 . S
C2881 C2886 1.399 1_545 S
C2882 C2881 1.399 . S
C2882 C2883 1.376 1_545 S
C2883 H2870 0.930 . S
C2883 C2882 1.376 1_565 S
C2883 C2884 1.388 . S
C2884 H2871 0.930 . S
C2884 C2883 1.388 . S
C2884 C2885 1.390 . S
C2885 C2884 1.390 . S
C2885 C2886 1.394 . S
C2885 C2891 1.465 . S
C2886 C2881 1.399 1_565 S
C2886 C2885 1.394 . S
C2886 C2887 1.516 . S
C2887 C2886 1.516 . S
C2887 C2888 1.502 1_565 S
C2887 C2889 1.588 . S
C2887 C2890 1.526 . S
C2888 H2872 0.959 1_545 S
C2888 H2873 0.960 1_545 S
C2888 H2874 0.961 . S
C2888 C2887 1.502 1_545 S
C2889 H2875 0.912 1_565 S
C2889 H2876 0.955 . S
C2889 H2877 0.990 . S
C2889 C2887 1.588 . S
C2890 C2887 1.526 . S
C2890 C2891 1.396 . S
C2890 C2895 1.390 . S
C2891 C2885 1.465 . S
C2891 C2890 1.396 . S
C2891 C2892 1.399 . S
C2892 H2878 0.929 . S
C2892 C2891 1.399 . S
C2892 C2893 1.385 . S
C2893 H2879 0.931 . S
C2893 C2892 1.385 . S
C2893 C2894 1.389 . S
C2894 C2893 1.389 . S
C2894 C2895 1.387 . S
C2895 H2880 0.930 . S
C2895 C2890 1.390 . S
C2895 C2894 1.387 . S
H2896 C2908 0.930 . S
H2897 C2910 0.930 . S
H2898 C2911 0.930 . S
H2899 C2915 0.959 . S
H2900 C2915 0.959 . S
H2901 C2915 0.961 . S
H2902 C2916 0.960 . S
H2903 C2916 0.961 . S
H2904 C2916 0.959 . S
H2905 C2919 0.929 . S
H2906 C2920 0.931 . S
H2907 C2922 0.930 . S
C2908 H2896 0.930 . S
C2908 C2909 1.399 . S
C2908 C2913 1.399 . S
C2909 C2908 1.399 . S
C2909 C2910 1.376 . S
C2910 H2897 0.930 . S
C2910 C2909 1.376 . S
C2910 C2911 1.388 . S
C2911 H2898 0.930 . S
C2911 C2910 1.388 . S
C2911 C2912 1.390 . S
C2912 C2911 1.390 . S
C2912 C2913 1.394 . S
C2912 C2918 1.465 . S
C2913 C2908 1.399 . S
C2913 C2912 1.394 . S
C2913 C2914 1.516 . S
C2914 C2913 1.516 . S
C2914 C2915 1.502 . S
C2914 C2916 1.561 . S
C2914 C2917 1.526 . S
C2915 H2899 0.959 . S
C2915 H2900 0.959 . S
C2915 H2901 0.961 . S
C2915 C2914 1.502 . S
C2916 H2902 0.960 . S
C2916 H2903 0.961 . S
C2916 H2904 0.959 . S
C2916 C2914 1.561 . S
C2917 C2914 1.526 . S
C2917 C2918 1.396 . S
C2917 C2922 1.390 . S
C2918 C2912 1.465 . S
C2918 C2917 1.396 . S
C2918 C2919 1.399 . S
C2919 H2905 0.929 . S
C2919 C2918 1.399 . S
C2919 C2920 1.385 . S
C2920 H2906 0.931 . S
C2920 C2919 1.385 . S
C2920 C2921 1.389 . S
C2921 C2920 1.389 . S
C2921 C2922 1.387 . S
C2922 H2907 0.930 . S
C2922 C2917 1.390 . S
C2922 C2921 1.387 . S
H2923 C2935 0.930 . S
H2924 C2937 0.930 . S
H2925 C2938 0.930 . S
H2926 C2942 0.959 . S
H2927 C2942 0.959 . S
H2928 C2942 0.961 . S
H2929 C2943 0.960 . S
H2930 C2943 0.961 . S
H2931 C2943 0.959 . S
H2932 C2946 0.929 . S
H2933 C2947 0.931 . S
H2934 C2949 0.930 . S
C2935 H2923 0.930 . S
C2935 C2936 1.399 . S
C2935 C2940 1.399 . S
C2936 C2935 1.399 . S
C2936 C2937 1.376 . S
C2937 H2924 0.930 . S
C2937 C2936 1.376 . S
C2937 C2938 1.388 . S
C2938 H2925 0.930 . S
C2938 C2937 1.388 . S
C2938 C2939 1.390 . S
C2939 C2938 1.390 . S
C2939 C2940 1.394 . S
C2939 C2945 1.465 . S
C2940 C2935 1.399 . S
C2940 C2939 1.394 . S
C2940 C2941 1.516 . S
C2941 C2940 1.516 . S
C2941 C2942 1.502 . S
C2941 C2943 1.561 . S
C2941 C2944 1.526 . S
C2942 H2926 0.959 . S
C2942 H2927 0.959 . S
C2942 H2928 0.961 . S
C2942 C2941 1.502 . S
C2943 H2929 0.960 . S
C2943 H2930 0.961 . S
C2943 H2931 0.959 . S
C2943 C2941 1.561 . S
C2944 C2941 1.526 . S
C2944 C2945 1.396 . S
C2944 C2949 1.390 . S
C2945 C2939 1.465 . S
C2945 C2944 1.396 . S
C2945 C2946 1.399 . S
C2946 H2932 0.929 . S
C2946 C2945 1.399 . S
C2946 C2947 1.385 . S
C2947 H2933 0.931 . S
C2947 C2946 1.385 . S
C2947 C2948 1.389 . S
C2948 C2947 1.389 . S
C2948 C2949 1.387 . S
C2949 H2934 0.930 . S
C2949 C2944 1.390 . S
C2949 C2948 1.387 . S
H2950 C2962 0.930 . S
H2951 C2964 0.930 . S
H2952 C2965 0.930 . S
H2953 C2969 0.959 . S
H2954 C2969 0.959 . S
H2955 C2969 0.961 . S
H2956 C2970 0.960 . S
H2957 C2970 0.961 . S
H2958 C2970 0.959 . S
H2959 C2973 0.929 . S
H2960 C2974 0.931 . S
H2961 C2976 0.930 . S
C2962 H2950 0.930 . S
C2962 C2963 1.399 . S
C2962 C2967 1.399 . S
C2963 C2962 1.399 . S
C2963 C2964 1.376 . S
C2964 H2951 0.930 . S
C2964 C2963 1.376 . S
C2964 C2965 1.388 . S
C2965 H2952 0.930 . S
C2965 C2964 1.388 . S
C2965 C2966 1.390 . S
C2966 C2965 1.390 . S
C2966 C2967 1.394 . S
C2966 C2972 1.465 . S
C2967 C2962 1.399 . S
C2967 C2966 1.394 . S
C2967 C2968 1.516 . S
C2968 C2967 1.516 . S
C2968 C2969 1.502 . S
C2968 C2970 1.561 . S
C2968 C2971 1.526 . S
C2969 H2953 0.959 . S
C2969 H2954 0.959 . S
C2969 H2955 0.961 . S
C2969 C2968 1.502 . S
C2970 H2956 0.960 . S
C2970 H2957 0.961 . S
C2970 H2958 0.959 . S
C2970 C2968 1.561 . S
C2971 C2968 1.526 . S
C2971 C2972 1.396 . S
C2971 C2976 1.390 . S
C2972 C2966 1.465 . S
C2972 C2971 1.396 . S
C2972 C2973 1.399 . S
C2973 H2959 0.929 . S
C2973 C2972 1.399 . S
C2973 C2974 1.385 . S
C2974 H2960 0.931 . S
C2974 C2973 1.385 . S
C2974 C2975 1.389 . S
C2975 C2974 1.389 . S
C2975 C2976 1.387 . S
C2976 H2961 0.930 . S
C2976 C2971 1.390 . S
C2976 C2975 1.387 . S
H2977 C2989 0.930 . S
H2978 C2991 0.930 . S
H2979 C2992 0.930 . S
H2980 C2996 0.959 . S
H2981 C2996 0.959 . S
H2982 C2996 0.961 . S
H2983 C2997 0.960 . S
H2984 C2997 0.961 . S
H2985 C2997 0.959 . S
H2986 C3000 0.929 . S
H2987 C3001 0.931 . S
H2988 C3003 0.930 . S
C2989 H2977 0.930 . S
C2989 C2990 1.399 . S
C2989 C2994 1.399 . S
C2990 C2989 1.399 . S
C2990 C2991 1.376 . S
C2991 H2978 0.930 . S
C2991 C2990 1.376 . S
C2991 C2992 1.388 . S
C2992 H2979 0.930 . S
C2992 C2991 1.388 . S
C2992 C2993 1.390 . S
C2993 C2992 1.390 . S
C2993 C2994 1.394 . S
C2993 C2999 1.465 . S
C2994 C2989 1.399 . S
C2994 C2993 1.394 . S
C2994 C2995 1.516 . S
C2995 C2994 1.516 . S
C2995 C2996 1.502 . S
C2995 C2997 1.561 . S
C2995 C2998 1.526 . S
C2996 H2980 0.959 . S
C2996 H2981 0.959 . S
C2996 H2982 0.961 . S
C2996 C2995 1.502 . S
C2997 H2983 0.960 . S
C2997 H2984 0.961 . S
C2997 H2985 0.959 . S
C2997 C2995 1.561 . S
C2998 C2995 1.526 . S
C2998 C2999 1.396 . S
C2998 C3003 1.390 . S
C2999 C2993 1.465 . S
C2999 C2998 1.396 . S
C2999 C3000 1.399 . S
C3000 H2986 0.929 . S
C3000 C2999 1.399 . S
C3000 C3001 1.385 . S
C3001 H2987 0.931 . S
C3001 C3000 1.385 . S
C3001 C3002 1.389 . S
C3002 C3001 1.389 . S
C3002 C3003 1.387 . S
C3003 H2988 0.930 . S
C3003 C2998 1.390 . S
C3003 C3002 1.387 . S
H3004 C3016 0.930 . S
H3005 C3018 0.930 . S
H3006 C3019 0.930 . S
H3007 C3023 0.959 . S
H3008 C3023 0.959 . S
H3009 C3023 0.961 . S
H3010 C3024 0.960 . S
H3011 C3024 0.961 . S
H3012 C3024 0.959 . S
H3013 C3027 0.929 . S
H3014 C3028 0.931 1_554 S
H3015 C3030 0.930 . S
C3016 H3004 0.930 . S
C3016 C3017 1.399 . S
C3016 C3021 1.399 . S
C3017 C3016 1.399 . S
C3017 C3018 1.376 . S
C3018 H3005 0.930 . S
C3018 C3017 1.376 . S
C3018 C3019 1.388 . S
C3019 H3006 0.930 . S
C3019 C3018 1.388 . S
C3019 C3020 1.390 . S
C3020 C3019 1.390 . S
C3020 C3021 1.394 . S
C3020 C3026 1.465 . S
C3021 C3016 1.399 . S
C3021 C3020 1.394 . S
C3021 C3022 1.516 . S
C3022 C3021 1.516 . S
C3022 C3023 1.502 . S
C3022 C3024 1.561 . S
C3022 C3025 1.526 . S
C3023 H3007 0.959 . S
C3023 H3008 0.959 . S
C3023 H3009 0.961 . S
C3023 C3022 1.502 . S
C3024 H3010 0.960 . S
C3024 H3011 0.961 . S
C3024 H3012 0.959 . S
C3024 C3022 1.561 . S
C3025 C3022 1.526 . S
C3025 C3026 1.396 . S
C3025 C3030 1.390 . S
C3026 C3020 1.465 . S
C3026 C3025 1.396 . S
C3026 C3027 1.399 . S
C3027 H3013 0.929 . S
C3027 C3026 1.399 . S
C3027 C3028 1.385 . S
C3028 H3014 0.931 1_556 S
C3028 C3027 1.385 . S
C3028 C3029 1.389 . S
C3029 C3028 1.389 . S
C3029 C3030 1.387 . S
C3030 H3015 0.930 . S
C3030 C3025 1.390 . S
C3030 C3029 1.387 . S
H3031 C3043 0.930 . S
H3032 C3045 0.930 . S
H3033 C3046 0.930 . S
H3034 C3050 0.959 . S
H3035 C3050 0.959 . S
H3036 C3050 0.961 . S
H3037 C3051 0.960 . S
H3038 C3051 0.961 . S
H3039 C3051 0.959 . S
H3040 C3054 0.929 . S
H3041 C3055 0.931 . S
H3042 C3057 0.930 . S
C3043 H3031 0.930 . S
C3043 C3044 1.399 . S
C3043 C3048 1.399 . S
C3044 C3043 1.399 . S
C3044 C3045 1.376 . S
C3045 H3032 0.930 . S
C3045 C3044 1.376 . S
C3045 C3046 1.388 . S
C3046 H3033 0.930 . S
C3046 C3045 1.388 . S
C3046 C3047 1.390 . S
C3047 C3046 1.390 . S
C3047 C3048 1.394 . S
C3047 C3053 1.465 . S
C3048 C3043 1.399 . S
C3048 C3047 1.394 . S
C3048 C3049 1.516 . S
C3049 C3048 1.516 . S
C3049 C3050 1.502 . S
C3049 C3051 1.561 . S
C3049 C3052 1.526 . S
C3050 H3034 0.959 . S
C3050 H3035 0.959 . S
C3050 H3036 0.961 . S
C3050 C3049 1.502 . S
C3051 H3037 0.960 . S
C3051 H3038 0.961 . S
C3051 H3039 0.959 . S
C3051 C3049 1.561 . S
C3052 C3049 1.526 . S
C3052 C3053 1.396 . S
C3052 C3057 1.390 . S
C3053 C3047 1.465 . S
C3053 C3052 1.396 . S
C3053 C3054 1.399 . S
C3054 H3040 0.929 . S
C3054 C3053 1.399 . S
C3054 C3055 1.385 . S
C3055 H3041 0.931 . S
C3055 C3054 1.385 . S
C3055 C3056 1.389 . S
C3056 C3055 1.389 . S
C3056 C3057 1.387 . S
C3057 H3042 0.930 . S
C3057 C3052 1.390 . S
C3057 C3056 1.387 . S
H3058 C3070 0.930 . S
H3059 C3072 0.930 . S
H3060 C3073 0.930 . S
H3061 C3077 0.959 . S
H3062 C3077 0.959 . S
H3063 C3077 0.961 . S
H3064 C3078 0.960 . S
H3065 C3078 0.961 . S
H3066 C3078 0.959 . S
H3067 C3081 0.929 . S
H3068 C3082 0.931 . S
H3069 C3084 0.930 . S
C3070 H3058 0.930 . S
C3070 C3071 1.399 . S
C3070 C3075 1.399 . S
C3071 C3070 1.399 . S
C3071 C3072 1.376 . S
C3072 H3059 0.930 . S
C3072 C3071 1.376 . S
C3072 C3073 1.388 . S
C3073 H3060 0.930 . S
C3073 C3072 1.388 . S
C3073 C3074 1.390 . S
C3074 C3073 1.390 . S
C3074 C3075 1.394 . S
C3074 C3080 1.465 . S
C3075 C3070 1.399 . S
C3075 C3074 1.394 . S
C3075 C3076 1.516 . S
C3076 C3075 1.516 . S
C3076 C3077 1.502 . S
C3076 C3078 1.561 . S
C3076 C3079 1.526 . S
C3077 H3061 0.959 . S
C3077 H3062 0.959 . S
C3077 H3063 0.961 . S
C3077 C3076 1.502 . S
C3078 H3064 0.960 . S
C3078 H3065 0.961 . S
C3078 H3066 0.959 . S
C3078 C3076 1.561 . S
C3079 C3076 1.526 . S
C3079 C3080 1.396 . S
C3079 C3084 1.390 . S
C3080 C3074 1.465 . S
C3080 C3079 1.396 . S
C3080 C3081 1.399 . S
C3081 H3067 0.929 . S
C3081 C3080 1.399 . S
C3081 C3082 1.385 . S
C3082 H3068 0.931 . S
C3082 C3081 1.385 . S
C3082 C3083 1.389 . S
C3083 C3082 1.389 . S
C3083 C3084 1.387 . S
C3084 H3069 0.930 . S
C3084 C3079 1.390 . S
C3084 C3083 1.387 . S
H3085 C3097 0.930 . S
H3086 C3099 0.930 . S
H3087 C3100 0.930 . S
H3088 C3104 0.959 . S
H3089 C3104 0.959 . S
H3090 C3104 0.961 . S
H3091 C3105 0.960 . S
H3092 C3105 0.961 . S
H3093 C3105 0.959 . S
H3094 C3108 0.929 . S
H3095 C3109 0.931 . S
H3096 C3111 0.930 . S
C3097 H3085 0.930 . S
C3097 C3098 1.399 . S
C3097 C3102 1.399 . S
C3098 C3097 1.399 . S
C3098 C3099 1.376 . S
C3099 H3086 0.930 . S
C3099 C3098 1.376 . S
C3099 C3100 1.388 . S
C3100 H3087 0.930 . S
C3100 C3099 1.388 . S
C3100 C3101 1.390 . S
C3101 C3100 1.390 . S
C3101 C3102 1.394 . S
C3101 C3107 1.465 . S
C3102 C3097 1.399 . S
C3102 C3101 1.394 . S
C3102 C3103 1.516 . S
C3103 C3102 1.516 . S
C3103 C3104 1.502 . S
C3103 C3105 1.561 . S
C3103 C3106 1.526 . S
C3104 H3088 0.959 . S
C3104 H3089 0.959 . S
C3104 H3090 0.961 . S
C3104 C3103 1.502 . S
C3105 H3091 0.960 . S
C3105 H3092 0.961 . S
C3105 H3093 0.959 . S
C3105 C3103 1.561 . S
C3106 C3103 1.526 . S
C3106 C3107 1.396 . S
C3106 C3111 1.390 . S
C3107 C3101 1.465 . S
C3107 C3106 1.396 . S
C3107 C3108 1.399 . S
C3108 H3094 0.929 . S
C3108 C3107 1.399 . S
C3108 C3109 1.385 . S
C3109 H3095 0.931 . S
C3109 C3108 1.385 . S
C3109 C3110 1.389 . S
C3110 C3109 1.389 . S
C3110 C3111 1.387 . S
C3111 H3096 0.930 . S
C3111 C3106 1.390 . S
C3111 C3110 1.387 . S
H3112 C3124 0.930 . S
H3113 C3126 0.930 . S
H3114 C3127 0.930 . S
H3115 C3131 0.959 . S
H3116 C3131 0.959 . S
H3117 C3131 0.961 . S
H3118 C3132 0.960 . S
H3119 C3132 0.961 . S
H3120 C3132 0.959 . S
H3121 C3135 0.929 . S
H3122 C3136 0.931 . S
H3123 C3138 0.930 . S
C3124 H3112 0.930 . S
C3124 C3125 1.399 . S
C3124 C3129 1.399 . S
C3125 C3124 1.399 . S
C3125 C3126 1.376 . S
C3126 H3113 0.930 . S
C3126 C3125 1.376 . S
C3126 C3127 1.388 . S
C3127 H3114 0.930 . S
C3127 C3126 1.388 . S
C3127 C3128 1.390 . S
C3128 C3127 1.390 . S
C3128 C3129 1.394 . S
C3128 C3134 1.465 . S
C3129 C3124 1.399 . S
C3129 C3128 1.394 . S
C3129 C3130 1.516 . S
C3130 C3129 1.516 . S
C3130 C3131 1.502 . S
C3130 C3132 1.561 . S
C3130 C3133 1.526 . S
C3131 H3115 0.959 . S
C3131 H3116 0.959 . S
C3131 H3117 0.961 . S
C3131 C3130 1.502 . S
C3132 H3118 0.960 . S
C3132 H3119 0.961 . S
C3132 H3120 0.959 . S
C3132 C3130 1.561 . S
C3133 C3130 1.526 . S
C3133 C3134 1.396 . S
C3133 C3138 1.390 . S
C3134 C3128 1.465 . S
C3134 C3133 1.396 . S
C3134 C3135 1.399 . S
C3135 H3121 0.929 . S
C3135 C3134 1.399 . S
C3135 C3136 1.385 . S
C3136 H3122 0.931 . S
C3136 C3135 1.385 . S
C3136 C3137 1.389 . S
C3137 C3136 1.389 . S
C3137 C3138 1.387 . S
C3138 H3123 0.930 . S
C3138 C3133 1.390 . S
C3138 C3137 1.387 . S
H3139 C3151 0.930 . S
H3140 C3153 0.930 . S
H3141 C3154 0.930 . S
H3142 C3158 0.959 . S
H3143 C3158 0.959 . S
H3144 C3158 0.961 . S
H3145 C3159 0.960 . S
H3146 C3159 0.961 . S
H3147 C3159 0.959 . S
H3148 C3162 0.929 . S
H3149 C3163 0.931 . S
H3150 C3165 0.930 . S
C3151 H3139 0.930 . S
C3151 C3152 1.399 . S
C3151 C3156 1.399 . S
C3152 C3151 1.399 . S
C3152 C3153 1.376 . S
C3153 H3140 0.930 . S
C3153 C3152 1.376 . S
C3153 C3154 1.388 . S
C3154 H3141 0.930 . S
C3154 C3153 1.388 . S
C3154 C3155 1.390 . S
C3155 C3154 1.390 . S
C3155 C3156 1.394 . S
C3155 C3161 1.465 . S
C3156 C3151 1.399 . S
C3156 C3155 1.394 . S
C3156 C3157 1.516 . S
C3157 C3156 1.516 . S
C3157 C3158 1.502 . S
C3157 C3159 1.561 . S
C3157 C3160 1.526 . S
C3158 H3142 0.959 . S
C3158 H3143 0.959 . S
C3158 H3144 0.961 . S
C3158 C3157 1.502 . S
C3159 H3145 0.960 . S
C3159 H3146 0.961 . S
C3159 H3147 0.959 . S
C3159 C3157 1.561 . S
C3160 C3157 1.526 . S
C3160 C3161 1.396 . S
C3160 C3165 1.390 . S
C3161 C3155 1.465 . S
C3161 C3160 1.396 . S
C3161 C3162 1.399 . S
C3162 H3148 0.929 . S
C3162 C3161 1.399 . S
C3162 C3163 1.385 . S
C3163 H3149 0.931 . S
C3163 C3162 1.385 . S
C3163 C3164 1.389 . S
C3164 C3163 1.389 . S
C3164 C3165 1.387 . S
C3165 H3150 0.930 . S
C3165 C3160 1.390 . S
C3165 C3164 1.387 . S
H3166 C3178 0.930 1_655 S
H3167 C3180 0.930 . S
H3168 C3181 0.930 . S
H3169 C3185 0.959 . S
H3170 C3185 0.959 . S
H3171 C3185 0.961 . S
H3172 C3186 0.960 . S
H3173 C3186 0.961 . S
H3174 C3186 0.959 . S
H3175 C3189 0.929 . S
H3176 C3190 0.931 . S
H3177 C3192 0.930 . S
C3178 H3166 0.930 1_455 S
C3178 C3179 1.399 . S
C3178 C3183 1.399 . S
C3179 C3178 1.399 . S
C3179 C3180 1.376 . S
C3180 H3167 0.930 . S
C3180 C3179 1.376 . S
C3180 C3181 1.388 . S
C3181 H3168 0.930 . S
C3181 C3180 1.388 . S
C3181 C3182 1.390 . S
C3182 C3181 1.390 . S
C3182 C3183 1.394 . S
C3182 C3188 1.465 . S
C3183 C3178 1.399 . S
C3183 C3182 1.394 . S
C3183 C3184 1.516 . S
C3184 C3183 1.516 . S
C3184 C3185 1.502 1_455 S
C3184 C3186 1.561 . S
C3184 C3187 1.526 . S
C3185 H3169 0.959 . S
C3185 H3170 0.959 . S
C3185 H3171 0.961 . S
C3185 C3184 1.502 1_655 S
C3186 H3172 0.960 . S
C3186 H3173 0.961 . S
C3186 H3174 0.959 . S
C3186 C3184 1.561 . S
C3187 C3184 1.526 . S
C3187 C3188 1.396 . S
C3187 C3192 1.390 . S
C3188 C3182 1.465 . S
C3188 C3187 1.396 . S
C3188 C3189 1.399 . S
C3189 H3175 0.929 . S
C3189 C3188 1.399 . S
C3189 C3190 1.385 . S
C3190 H3176 0.931 . S
C3190 C3189 1.385 . S
C3190 C3191 1.389 . S
C3191 C3190 1.389 . S
C3191 C3192 1.387 . S
C3192 H3177 0.930 . S
C3192 C3187 1.390 . S
C3192 C3191 1.387 . S
H3193 C3205 0.930 . S
H3194 C3207 0.930 . S
H3195 C3208 0.930 . S
H3196 C3212 0.959 . S
H3197 C3212 0.959 . S
H3198 C3212 0.961 . S
H3199 C3213 0.960 . S
H3200 C3213 0.961 . S
H3201 C3213 0.959 . S
H3202 C3216 0.929 . S
H3203 C3217 0.931 . S
H3204 C3219 0.930 . S
C3205 H3193 0.930 . S
C3205 C3206 1.399 . S
C3205 C3210 1.399 . S
C3206 C3205 1.399 . S
C3206 C3207 1.376 . S
C3207 H3194 0.930 . S
C3207 C3206 1.376 . S
C3207 C3208 1.388 . S
C3208 H3195 0.930 . S
C3208 C3207 1.388 . S
C3208 C3209 1.390 . S
C3209 C3208 1.390 . S
C3209 C3210 1.394 . S
C3209 C3215 1.465 . S
C3210 C3205 1.399 . S
C3210 C3209 1.394 . S
C3210 C3211 1.516 . S
C3211 C3210 1.516 . S
C3211 C3212 1.502 . S
C3211 C3213 1.561 . S
C3211 C3214 1.526 . S
C3212 H3196 0.959 . S
C3212 H3197 0.959 . S
C3212 H3198 0.961 . S
C3212 C3211 1.502 . S
C3213 H3199 0.960 . S
C3213 H3200 0.961 . S
C3213 H3201 0.959 . S
C3213 C3211 1.561 . S
C3214 C3211 1.526 . S
C3214 C3215 1.396 . S
C3214 C3219 1.390 . S
C3215 C3209 1.465 . S
C3215 C3214 1.396 . S
C3215 C3216 1.399 . S
C3216 H3202 0.929 . S
C3216 C3215 1.399 . S
C3216 C3217 1.385 . S
C3217 H3203 0.931 . S
C3217 C3216 1.385 . S
C3217 C3218 1.389 . S
C3218 C3217 1.389 . S
C3218 C3219 1.387 . S
C3219 H3204 0.930 . S
C3219 C3214 1.390 . S
C3219 C3218 1.387 . S
H3220 C3232 0.930 . S
H3221 C3234 0.930 . S
H3222 C3235 0.930 . S
H3223 C3239 0.959 . S
H3224 C3239 0.959 . S
H3225 C3239 0.961 . S
H3226 C3240 0.960 . S
H3227 C3240 0.961 . S
H3228 C3240 0.959 . S
H3229 C3243 0.929 . S
H3230 C3244 0.931 . S
H3231 C3246 0.930 . S
C3232 H3220 0.930 . S
C3232 C3233 1.399 . S
C3232 C3237 1.399 . S
C3233 C3232 1.399 . S
C3233 C3234 1.376 . S
C3234 H3221 0.930 . S
C3234 C3233 1.376 . S
C3234 C3235 1.388 . S
C3235 H3222 0.930 . S
C3235 C3234 1.388 . S
C3235 C3236 1.390 . S
C3236 C3235 1.390 . S
C3236 C3237 1.394 . S
C3236 C3242 1.465 . S
C3237 C3232 1.399 . S
C3237 C3236 1.394 . S
C3237 C3238 1.516 . S
C3238 C3237 1.516 . S
C3238 C3239 1.502 . S
C3238 C3240 1.561 . S
C3238 C3241 1.526 . S
C3239 H3223 0.959 . S
C3239 H3224 0.959 . S
C3239 H3225 0.961 . S
C3239 C3238 1.502 . S
C3240 H3226 0.960 . S
C3240 H3227 0.961 . S
C3240 H3228 0.959 . S
C3240 C3238 1.561 . S
C3241 C3238 1.526 . S
C3241 C3242 1.396 . S
C3241 C3246 1.390 . S
C3242 C3236 1.465 . S
C3242 C3241 1.396 . S
C3242 C3243 1.399 . S
C3243 H3229 0.929 . S
C3243 C3242 1.399 . S
C3243 C3244 1.385 . S
C3244 H3230 0.931 . S
C3244 C3243 1.385 . S
C3244 C3245 1.389 . S
C3245 C3244 1.389 . S
C3245 C3246 1.387 . S
C3246 H3231 0.930 . S
C3246 C3241 1.390 . S
C3246 C3245 1.387 . S
H3247 C3259 0.930 . S
H3248 C3261 0.930 . S
H3249 C3262 0.930 . S
H3250 C3266 0.959 . S
H3251 C3266 0.959 . S
H3252 C3266 0.961 . S
H3253 C3267 0.960 . S
H3254 C3267 0.961 . S
H3255 C3267 0.959 . S
H3256 C3270 0.929 . S
H3257 C3271 0.931 . S
H3258 C3273 0.930 . S
C3259 H3247 0.930 . S
C3259 C3260 1.399 . S
C3259 C3264 1.399 . S
C3260 C3259 1.399 . S
C3260 C3261 1.376 . S
C3261 H3248 0.930 . S
C3261 C3260 1.376 . S
C3261 C3262 1.388 . S
C3262 H3249 0.930 . S
C3262 C3261 1.388 . S
C3262 C3263 1.390 . S
C3263 C3262 1.390 . S
C3263 C3264 1.394 . S
C3263 C3269 1.465 . S
C3264 C3259 1.399 . S
C3264 C3263 1.394 . S
C3264 C3265 1.516 . S
C3265 C3264 1.516 . S
C3265 C3266 1.502 . S
C3265 C3267 1.561 . S
C3265 C3268 1.526 . S
C3266 H3250 0.959 . S
C3266 H3251 0.959 . S
C3266 H3252 0.961 . S
C3266 C3265 1.502 . S
C3267 H3253 0.960 . S
C3267 H3254 0.961 . S
C3267 H3255 0.959 . S
C3267 C3265 1.561 . S
C3268 C3265 1.526 . S
C3268 C3269 1.396 . S
C3268 C3273 1.390 . S
C3269 C3263 1.465 . S
C3269 C3268 1.396 . S
C3269 C3270 1.399 . S
C3270 H3256 0.929 . S
C3270 C3269 1.399 . S
C3270 C3271 1.385 . S
C3271 H3257 0.931 . S
C3271 C3270 1.385 . S
C3271 C3272 1.389 . S
C3272 C3271 1.389 . S
C3272 C3273 1.387 . S
C3273 H3258 0.930 . S
C3273 C3268 1.390 . S
C3273 C3272 1.387 . S
H3274 C3286 0.930 . S
H3275 C3288 0.930 . S
H3276 C3289 0.930 . S
H3277 C3293 0.959 . S
H3278 C3293 0.959 . S
H3279 C3293 0.961 . S
H3280 C3294 0.960 . S
H3281 C3294 0.961 . S
H3282 C3294 0.959 . S
H3283 C3297 0.929 . S
H3284 C3298 0.940 . S
H3285 C3300 0.927 . S
C3286 H3274 0.930 . S
C3286 C3287 1.399 . S
C3286 C3291 1.399 . S
C3287 C3286 1.399 . S
C3287 C3288 1.376 . S
C3288 H3275 0.930 . S
C3288 C3287 1.376 . S
C3288 C3289 1.388 . S
C3289 H3276 0.930 . S
C3289 C3288 1.388 . S
C3289 C3290 1.390 . S
C3290 C3289 1.390 . S
C3290 C3291 1.394 . S
C3290 C3296 1.465 . S
C3291 C3286 1.399 . S
C3291 C3290 1.394 . S
C3291 C3292 1.516 . S
C3292 C3291 1.516 . S
C3292 C3293 1.502 1_455 S
C3292 C3294 1.561 . S
C3292 C3295 1.526 . S
C3293 H3277 0.959 . S
C3293 H3278 0.959 . S
C3293 H3279 0.961 . S
C3293 C3292 1.502 1_655 S
C3294 H3280 0.960 . S
C3294 H3281 0.961 . S
C3294 H3282 0.959 . S
C3294 C3292 1.561 . S
C3295 C3292 1.526 . S
C3295 C3296 1.396 . S
C3295 C3300 1.387 . S
C3296 C3290 1.465 . S
C3296 C3295 1.396 . S
C3296 C3297 1.399 . S
C3297 H3283 0.929 . S
C3297 C3296 1.399 . S
C3297 C3298 1.382 . S
C3298 H3284 0.940 . S
C3298 C3297 1.382 . S
C3298 C3299 1.384 1_455 S
C3299 C3298 1.384 1_655 S
C3299 C3300 1.399 1_655 S
C3300 H3285 0.927 . S
C3300 C3295 1.387 . S
C3300 C3299 1.399 1_455 S
H3301 C3313 0.930 . S
H3302 C3315 0.930 . S
H3303 C3316 0.930 . S
H3304 C3320 0.959 . S
H3305 C3320 0.959 . S
H3306 C3320 0.961 . S
H3307 C3321 0.960 . S
H3308 C3321 0.961 . S
H3309 C3321 0.959 . S
H3310 C3324 0.929 . S
H3311 C3325 0.931 . S
H3312 C3327 0.930 . S
C3313 H3301 0.930 . S
C3313 C3314 1.399 . S
C3313 C3318 1.399 . S
C3314 C3313 1.399 . S
C3314 C3315 1.376 . S
C3315 H3302 0.930 . S
C3315 C3314 1.376 . S
C3315 C3316 1.388 . S
C3316 H3303 0.930 . S
C3316 C3315 1.388 . S
C3316 C3317 1.390 . S
C3317 C3316 1.390 . S
C3317 C3318 1.394 . S
C3317 C3323 1.465 . S
C3318 C3313 1.399 . S
C3318 C3317 1.394 . S
C3318 C3319 1.516 . S
C3319 C3318 1.516 . S
C3319 C3320 1.502 . S
C3319 C3321 1.561 . S
C3319 C3322 1.526 . S
C3320 H3304 0.959 . S
C3320 H3305 0.959 . S
C3320 H3306 0.961 . S
C3320 C3319 1.502 . S
C3321 H3307 0.960 . S
C3321 H3308 0.961 . S
C3321 H3309 0.959 . S
C3321 C3319 1.561 . S
C3322 C3319 1.526 . S
C3322 C3323 1.396 . S
C3322 C3327 1.390 . S
C3323 C3317 1.465 . S
C3323 C3322 1.396 . S
C3323 C3324 1.399 . S
C3324 H3310 0.929 . S
C3324 C3323 1.399 . S
C3324 C3325 1.385 . S
C3325 H3311 0.931 . S
C3325 C3324 1.385 . S
C3325 C3326 1.389 . S
C3326 C3325 1.389 . S
C3326 C3327 1.387 . S
C3327 H3312 0.930 . S
C3327 C3322 1.390 . S
C3327 C3326 1.387 . S
H3328 C3340 0.930 . S
H3329 C3342 0.930 . S
H3330 C3343 0.930 . S
H3331 C3347 0.959 . S
H3332 C3347 0.959 . S
H3333 C3347 0.961 . S
H3334 C3348 0.960 . S
H3335 C3348 0.961 . S
H3336 C3348 0.959 . S
H3337 C3351 0.929 . S
H3338 C3352 0.931 . S
H3339 C3354 0.930 . S
C3340 H3328 0.930 . S
C3340 C3341 1.399 . S
C3340 C3345 1.399 . S
C3341 C3340 1.399 . S
C3341 C3342 1.376 . S
C3342 H3329 0.930 . S
C3342 C3341 1.376 . S
C3342 C3343 1.388 . S
C3343 H3330 0.930 . S
C3343 C3342 1.388 . S
C3343 C3344 1.390 . S
C3344 C3343 1.390 . S
C3344 C3345 1.394 . S
C3344 C3350 1.465 . S
C3345 C3340 1.399 . S
C3345 C3344 1.394 . S
C3345 C3346 1.516 . S
C3346 C3345 1.516 . S
C3346 C3347 1.502 . S
C3346 C3348 1.561 . S
C3346 C3349 1.526 . S
C3347 H3331 0.959 . S
C3347 H3332 0.959 . S
C3347 H3333 0.961 . S
C3347 C3346 1.502 . S
C3348 H3334 0.960 . S
C3348 H3335 0.961 . S
C3348 H3336 0.959 . S
C3348 C3346 1.561 . S
C3349 C3346 1.526 . S
C3349 C3350 1.396 . S
C3349 C3354 1.390 . S
C3350 C3344 1.465 . S
C3350 C3349 1.396 . S
C3350 C3351 1.399 . S
C3351 H3337 0.929 . S
C3351 C3350 1.399 . S
C3351 C3352 1.385 . S
C3352 H3338 0.931 . S
C3352 C3351 1.385 . S
C3352 C3353 1.389 . S
C3353 C3352 1.389 . S
C3353 C3354 1.387 . S
C3354 H3339 0.930 . S
C3354 C3349 1.390 . S
C3354 C3353 1.387 . S
H3355 C3367 0.930 . S
H3356 C3369 0.930 . S
H3357 C3370 0.930 . S
H3358 C3374 0.959 . S
H3359 C3374 0.959 . S
H3360 C3374 0.961 . S
H3361 C3375 0.960 . S
H3362 C3375 0.961 . S
H3363 C3375 0.959 . S
H3364 C3378 0.929 . S
H3365 C3379 0.931 1_545 S
H3366 C3381 0.930 . S
C3367 H3355 0.930 . S
C3367 C3368 1.399 . S
C3367 C3372 1.399 . S
C3368 C3367 1.399 . S
C3368 C3369 1.376 . S
C3369 H3356 0.930 . S
C3369 C3368 1.376 . S
C3369 C3370 1.388 . S
C3370 H3357 0.930 . S
C3370 C3369 1.388 . S
C3370 C3371 1.390 . S
C3371 C3370 1.390 . S
C3371 C3372 1.394 . S
C3371 C3377 1.465 . S
C3372 C3367 1.399 . S
C3372 C3371 1.394 . S
C3372 C3373 1.516 . S
C3373 C3372 1.516 . S
C3373 C3374 1.502 . S
C3373 C3375 1.561 . S
C3373 C3376 1.526 . S
C3374 H3358 0.959 . S
C3374 H3359 0.959 . S
C3374 H3360 0.961 . S
C3374 C3373 1.502 . S
C3375 H3361 0.960 . S
C3375 H3362 0.961 . S
C3375 H3363 0.959 . S
C3375 C3373 1.561 . S
C3376 C3373 1.526 . S
C3376 C3377 1.396 . S
C3376 C3381 1.390 . S
C3377 C3371 1.465 . S
C3377 C3376 1.396 . S
C3377 C3378 1.399 . S
C3378 H3364 0.929 . S
C3378 C3377 1.399 . S
C3378 C3379 1.385 . S
C3379 H3365 0.931 1_565 S
C3379 C3378 1.385 . S
C3379 C3380 1.389 . S
C3380 C3379 1.389 . S
C3380 C3381 1.387 . S
C3381 H3366 0.930 . S
C3381 C3376 1.390 . S
C3381 C3380 1.387 . S
H3382 C3394 0.930 . S
H3383 C3396 0.930 . S
H3384 C3397 0.930 . S
H3385 C3401 0.959 . S
H3386 C3401 0.959 . S
H3387 C3401 0.961 . S
H3388 C3402 0.960 . S
H3389 C3402 0.961 . S
H3390 C3402 0.959 . S
H3391 C3405 0.929 . S
H3392 C3406 0.931 . S
H3393 C3408 0.930 . S
C3394 H3382 0.930 . S
C3394 C3395 1.399 . S
C3394 C3399 1.399 . S
C3395 C3394 1.399 . S
C3395 C3396 1.376 . S
C3396 H3383 0.930 . S
C3396 C3395 1.376 . S
C3396 C3397 1.388 . S
C3397 H3384 0.930 . S
C3397 C3396 1.388 . S
C3397 C3398 1.390 . S
C3398 C3397 1.390 . S
C3398 C3399 1.394 . S
C3398 C3404 1.465 . S
C3399 C3394 1.399 . S
C3399 C3398 1.394 . S
C3399 C3400 1.516 . S
C3400 C3399 1.516 . S
C3400 C3401 1.502 . S
C3400 C3402 1.561 . S
C3400 C3403 1.526 . S
C3401 H3385 0.959 . S
C3401 H3386 0.959 . S
C3401 H3387 0.961 . S
C3401 C3400 1.502 . S
C3402 H3388 0.960 . S
C3402 H3389 0.961 . S
C3402 H3390 0.959 . S
C3402 C3400 1.561 . S
C3403 C3400 1.526 . S
C3403 C3404 1.396 . S
C3403 C3408 1.390 . S
C3404 C3398 1.465 . S
C3404 C3403 1.396 . S
C3404 C3405 1.399 . S
C3405 H3391 0.929 . S
C3405 C3404 1.399 . S
C3405 C3406 1.385 . S
C3406 H3392 0.931 . S
C3406 C3405 1.385 . S
C3406 C3407 1.389 . S
C3407 C3406 1.389 . S
C3407 C3408 1.387 . S
C3408 H3393 0.930 . S
C3408 C3403 1.390 . S
C3408 C3407 1.387 . S
H3409 C3421 0.930 . S
H3410 C3423 0.930 . S
H3411 C3424 0.930 . S
H3412 C3428 0.959 . S
H3413 C3428 0.959 . S
H3414 C3428 0.961 . S
H3415 C3429 0.960 . S
H3416 C3429 0.961 . S
H3417 C3429 0.959 . S
H3418 C3432 0.929 . S
H3419 C3433 0.931 . S
H3420 C3435 0.930 . S
C3421 H3409 0.930 . S
C3421 C3422 1.399 1_554 S
C3421 C3426 1.399 . S
C3422 C3421 1.399 1_556 S
C3422 C3423 1.376 . S
C3423 H3410 0.930 . S
C3423 C3422 1.376 . S
C3423 C3424 1.388 . S
C3424 H3411 0.930 . S
C3424 C3423 1.388 . S
C3424 C3425 1.390 . S
C3425 C3424 1.390 . S
C3425 C3426 1.394 1_556 S
C3425 C3431 1.465 . S
C3426 C3421 1.399 . S
C3426 C3425 1.394 1_554 S
C3426 C3427 1.516 . S
C3427 C3426 1.516 . S
C3427 C3428 1.502 . S
C3427 C3429 1.561 . S
C3427 C3430 1.526 . S
C3428 H3412 0.959 . S
C3428 H3413 0.959 . S
C3428 H3414 0.961 . S
C3428 C3427 1.502 . S
C3429 H3415 0.960 . S
C3429 H3416 0.961 . S
C3429 H3417 0.959 . S
C3429 C3427 1.561 . S
C3430 C3427 1.526 . S
C3430 C3431 1.396 1_554 S
C3430 C3435 1.390 . S
C3431 C3425 1.465 . S
C3431 C3430 1.396 1_556 S
C3431 C3432 1.399 . S
C3432 H3418 0.929 . S
C3432 C3431 1.399 . S
C3432 C3433 1.385 . S
C3433 H3419 0.931 . S
C3433 C3432 1.385 . S
C3433 C3434 1.389 . S
C3434 C3433 1.389 . S
C3434 C3435 1.387 1_556 S
C3435 H3420 0.930 . S
C3435 C3430 1.390 . S
C3435 C3434 1.387 1_554 S
H3436 C3448 0.930 . S
H3437 C3450 0.930 . S
H3438 C3451 0.930 . S
H3439 C3455 0.959 . S
H3440 C3455 0.959 . S
H3441 C3455 0.961 . S
H3442 C3456 0.960 . S
H3443 C3456 0.961 . S
H3444 C3456 0.959 . S
H3445 C3459 0.929 . S
H3446 C3460 0.931 . S
H3447 C3462 0.930 . S
C3448 H3436 0.930 . S
C3448 C3449 1.399 . S
C3448 C3453 1.399 . S
C3449 C3448 1.399 . S
C3449 C3450 1.376 . S
C3450 H3437 0.930 . S
C3450 C3449 1.376 . S
C3450 C3451 1.388 . S
C3451 H3438 0.930 . S
C3451 C3450 1.388 . S
C3451 C3452 1.390 . S
C3452 C3451 1.390 . S
C3452 C3453 1.394 . S
C3452 C3458 1.465 . S
C3453 C3448 1.399 . S
C3453 C3452 1.394 . S
C3453 C3454 1.516 . S
C3454 C3453 1.516 . S
C3454 C3455 1.502 . S
C3454 C3456 1.561 . S
C3454 C3457 1.526 . S
C3455 H3439 0.959 . S
C3455 H3440 0.959 . S
C3455 H3441 0.961 . S
C3455 C3454 1.502 . S
C3456 H3442 0.960 . S
C3456 H3443 0.961 . S
C3456 H3444 0.959 . S
C3456 C3454 1.561 . S
C3457 C3454 1.526 . S
C3457 C3458 1.396 . S
C3457 C3462 1.390 . S
C3458 C3452 1.465 . S
C3458 C3457 1.396 . S
C3458 C3459 1.399 . S
C3459 H3445 0.929 . S
C3459 C3458 1.399 . S
C3459 C3460 1.385 . S
C3460 H3446 0.931 . S
C3460 C3459 1.385 . S
C3460 C3461 1.389 . S
C3461 C3460 1.389 . S
C3461 C3462 1.387 . S
C3462 H3447 0.930 . S
C3462 C3457 1.390 . S
C3462 C3461 1.387 . S
H3463 C3475 0.930 . S
H3464 C3477 0.930 1_556 S
H3465 C3478 0.930 1_556 S
H3466 C3482 0.959 . S
H3467 C3482 0.959 . S
H3468 C3482 0.961 . S
H3469 C3483 0.960 . S
H3470 C3483 0.961 . S
H3471 C3483 0.959 . S
H3472 C3486 0.916 1_556 S
H3473 C3487 0.931 1_556 S
H3474 C3489 0.930 . S
C3475 H3463 0.930 . S
C3475 C3476 1.399 . S
C3475 C3480 1.399 . S
C3476 C3475 1.399 . S
C3476 C3477 1.376 . S
C3477 H3464 0.930 1_554 S
C3477 C3476 1.376 . S
C3477 C3478 1.388 . S
C3478 H3465 0.930 1_554 S
C3478 C3477 1.388 . S
C3478 C3479 1.390 . S
C3479 C3478 1.390 . S
C3479 C3480 1.394 . S
C3479 C3485 1.465 . S
C3480 C3475 1.399 . S
C3480 C3479 1.394 . S
C3480 C3481 1.516 . S
C3481 C3480 1.516 . S
C3481 C3482 1.502 . S
C3481 C3483 1.561 . S
C3481 C3484 1.526 . S
C3482 H3466 0.959 . S
C3482 H3467 0.959 . S
C3482 H3468 0.961 . S
C3482 C3481 1.502 . S
C3483 H3469 0.960 . S
C3483 H3470 0.961 . S
C3483 H3471 0.959 . S
C3483 C3481 1.561 . S
C3484 C3481 1.526 . S
C3484 C3485 1.396 . S
C3484 C3489 1.390 . S
C3485 C3479 1.465 . S
C3485 C3484 1.396 . S
C3485 C3486 1.409 . S
C3486 H3472 0.916 1_554 S
C3486 C3485 1.409 . S
C3486 C3487 1.388 . S
C3487 H3473 0.931 1_554 S
C3487 C3486 1.388 . S
C3487 C3488 1.389 . S
C3488 C3487 1.389 . S
C3488 C3489 1.387 . S
C3489 H3474 0.930 . S
C3489 C3484 1.390 . S
C3489 C3488 1.387 . S
H3490 C3502 0.930 . S
H3491 C3504 0.930 . S
H3492 C3505 0.930 . S
H3493 C3509 0.959 . S
H3494 C3509 0.959 . S
H3495 C3509 0.961 . S
H3496 C3510 0.960 . S
H3497 C3510 0.961 . S
H3498 C3510 0.959 . S
H3499 C3513 0.929 . S
H3500 C3514 0.931 . S
H3501 C3516 0.930 . S
C3502 H3490 0.930 . S
C3502 C3503 1.399 . S
C3502 C3507 1.399 . S
C3503 C3502 1.399 . S
C3503 C3504 1.376 . S
C3504 H3491 0.930 . S
C3504 C3503 1.376 . S
C3504 C3505 1.388 . S
C3505 H3492 0.930 . S
C3505 C3504 1.388 . S
C3505 C3506 1.390 . S
C3506 C3505 1.390 . S
C3506 C3507 1.394 . S
C3506 C3512 1.465 . S
C3507 C3502 1.399 . S
C3507 C3506 1.394 . S
C3507 C3508 1.516 . S
C3508 C3507 1.516 . S
C3508 C3509 1.502 . S
C3508 C3510 1.561 . S
C3508 C3511 1.526 . S
C3509 H3493 0.959 . S
C3509 H3494 0.959 . S
C3509 H3495 0.961 . S
C3509 C3508 1.502 . S
C3510 H3496 0.960 . S
C3510 H3497 0.961 . S
C3510 H3498 0.959 . S
C3510 C3508 1.561 . S
C3511 C3508 1.526 . S
C3511 C3512 1.396 . S
C3511 C3516 1.390 . S
C3512 C3506 1.465 . S
C3512 C3511 1.396 . S
C3512 C3513 1.399 . S
C3513 H3499 0.929 . S
C3513 C3512 1.399 . S
C3513 C3514 1.385 . S
C3514 H3500 0.931 . S
C3514 C3513 1.385 . S
C3514 C3515 1.389 . S
C3515 C3514 1.389 . S
C3515 C3516 1.387 . S
C3516 H3501 0.930 . S
C3516 C3511 1.390 . S
C3516 C3515 1.387 . S
H3517 C3529 0.930 . S
H3518 C3531 0.930 . S
H3519 C3532 0.930 . S
H3520 C3536 0.959 . S
H3521 C3536 0.959 . S
H3522 C3536 0.961 . S
H3523 C3537 0.960 . S
H3524 C3537 0.961 . S
H3525 C3537 0.959 . S
H3526 C3540 0.929 . S
H3527 C3541 0.931 . S
H3528 C3543 0.930 . S
C3529 H3517 0.930 . S
C3529 C3530 1.399 . S
C3529 C3534 1.399 . S
C3530 C3529 1.399 . S
C3530 C3531 1.376 . S
C3531 H3518 0.930 . S
C3531 C3530 1.376 . S
C3531 C3532 1.388 . S
C3532 H3519 0.930 . S
C3532 C3531 1.388 . S
C3532 C3533 1.390 . S
C3533 C3532 1.390 . S
C3533 C3534 1.394 . S
C3533 C3539 1.465 . S
C3534 C3529 1.399 . S
C3534 C3533 1.394 . S
C3534 C3535 1.516 . S
C3535 C3534 1.516 . S
C3535 C3536 1.502 . S
C3535 C3537 1.561 . S
C3535 C3538 1.526 . S
C3536 H3520 0.959 . S
C3536 H3521 0.959 . S
C3536 H3522 0.961 . S
C3536 C3535 1.502 . S
C3537 H3523 0.960 . S
C3537 H3524 0.961 . S
C3537 H3525 0.959 . S
C3537 C3535 1.561 . S
C3538 C3535 1.526 . S
C3538 C3539 1.396 . S
C3538 C3543 1.390 . S
C3539 C3533 1.465 . S
C3539 C3538 1.396 . S
C3539 C3540 1.399 . S
C3540 H3526 0.929 . S
C3540 C3539 1.399 . S
C3540 C3541 1.385 . S
C3541 H3527 0.931 . S
C3541 C3540 1.385 . S
C3541 C3542 1.389 . S
C3542 C3541 1.389 . S
C3542 C3543 1.387 . S
C3543 H3528 0.930 . S
C3543 C3538 1.390 . S
C3543 C3542 1.387 . S
C965 C101 1.867 . S
C977 C334 1.779 . S
C992 C57 1.201 . S
C1004 C354 1.101 . S
C1019 C70 0.506 . S
C1031 C401 0.588 . S
C1058 C458 1.120 . S
C1046 C82 1.105 . S
C1073 C23 2.499 . S
C1085 C475 2.478 . S
C1112 C534 1.711 . S
C1100 C29 1.702 . S
C1139 C567 2.596 . S
C1127 C49 2.580 . S
C1154 C10 2.528 . S
C1166 C614 2.477 . S
C1193 C327 1.671 . S
C1181 C218 1.628 . S
C1208 C226 1.251 . S
C1220 C355 1.228 . S
C1247 C394 0.303 . S
C1235 C251 0.449 . S
C1274 C454 2.045 . S
C1262 C159 2.062 . S
C1289 C211 0.308 . S
C1301 C481 0.515 . S
C1328 C527 2.190 . S
C1316 C225 2.198 . S
C1355 C578 0.670 . S
C1343 C252 0.280 . S
C1382 C607 2.254 . S
C1370 C166 2.227 . S
C1409 C338 1.896 1_565 S
C1397 C147 1.984 . S
C1424 C263 2.199 . S
C1436 C634 2.156 . S
C1463 C698 1.265 . S
C1451 C309 1.349 . S
C1490 C734 1.397 . S
C1478 C291 1.345 . S
C1505 C108 1.458 . S
C1517 C618 1.546 . S
C1532 C121 2.513 . S
C1544 C395 2.511 . S
C1559 C302 1.338 . S
C1571 C767 1.332 . S
C1598 C801 0.459 . S
C1586 C276 0.261 . S
C1625 C315 1.919 1_565 S
C1613 C55 1.943 . S
C1652 C807 1.355 . S
C1640 C96 1.448 . S
C1667 C88 0.934 . S
C1679 C418 0.912 . S
C1694 C75 1.221 . S
C1706 C761 1.127 . S
C1733 C494 2.880 . S
C1721 C4 2.894 . S
C1748 C44 1.960 . S
C1760 C675 1.945 . S
C1787 C554 2.939 1_566 S
C1775 C31 2.945 . S
C1814 C835 2.561 . S
C1802 C18 2.569 1_655 S
C1841 C314 1.668 1_556 S
C1829 C133 1.638 . S
C1868 C814 1.857 . S
C1856 C296 1.866 . S
C1883 C107 0.754 . S
C1895 C407 0.616 . S
C1910 C264 2.339 . S
C1922 C755 2.354 . S
C1937 C140 0.622 . S
C1949 C498 0.659 . S
C1976 C674 2.541 . S
C1964 C289 2.539 . S
C1991 C114 0.564 . S
C2003 C561 0.633 . S
C2018 C265 2.534 . S
C2030 C834 2.533 . S
C2045 C179 1.723 . S
C2057 C321 1.662 . S
C2072 C161 2.357 . S
C2084 C647 2.316 . S
C2099 C244 1.412 . S
C2111 C521 1.429 . S
C2126 C224 1.540 . S
C2138 C715 1.575 . S
C2165 C841 1.336 . S
C2153 C257 1.273 . S
C2180 C199 2.800 . S
C2192 C414 2.786 1_565 S
C2219 C434 1.688 . S
C2207 C237 1.639 . S
C2246 C378 0.505 . S
C2234 C185 0.555 . S
C2261 C69 1.869 . S
C2273 C894 1.783 . S
C2300 C794 1.104 . S
C2288 C83 1.205 . S
C2315 C94 0.559 1_655 S
C2327 C921 0.497 . S
C2342 C56 1.068 . S
C2354 C778 1.102 . S
C2369 C42 2.505 . S
C2381 C635 2.501 . S
C2408 C694 1.671 . S
C2396 C3 1.714 1_655 S
C2435 C727 2.603 . S
C2423 C16 2.596 . S
C2462 C854 2.497 . S
C2450 C36 2.519 . S
C2489 C887 1.639 . S
C2477 C238 1.610 . S
C2504 C174 1.234 . S
C2516 C795 1.198 . S
C2543 C914 0.357 . S
C2531 C186 0.395 . S
C2570 C774 2.051 . S
C2558 C198 2.056 . S
C2597 C641 0.512 . S
C2585 C239 0.312 . S
C2612 C173 2.201 . S
C2624 C687 2.200 . S
C2651 C738 0.679 . S
C2639 C187 0.289 . S
C2666 C205 2.239 . S
C2678 C847 2.248 . S
C2705 C898 1.924 . S
C2693 C290 1.930 . S
C2720 C122 2.179 . S
C2732 C474 2.188 . S
C2759 C538 1.332 . S
C2747 C134 1.320 . S
C2786 C574 1.352 . S
C2774 C148 1.383 . S
C2813 C858 1.528 . S
C2801 C283 1.495 . S
C2828 C270 2.511 . S
C2840 C915 2.516 . S
C2867 C447 1.357 . S
C2855 C135 1.264 . S
C2894 C361 0.259 . S
C2882 C109 0.510 . S
C2909 C81 1.909 . S
C2921 C875 1.918 . S
C2948 C367 1.371 . S
C2936 C68 1.404 . S
C2963 C62 0.932 . S
C2975 C938 0.919 . S
C2990 C95 1.220 . S
C3002 C441 1.119 . S
C3017 C30 2.893 . S
C3029 C654 2.866 . S
C3056 C515 1.927 . S
C3044 C17 1.937 . S
C3071 C5 2.942 . S
C3083 C714 2.929 . S
C3098 C43 2.573 . S
C3110 C595 2.545 . S
C3137 C874 1.657 . S
C3125 C304 1.626 . S
C3152 C153 1.871 . S
C3164 C374 1.849 . S
C3191 C927 0.619 . S
C3179 C278 0.755 . S
C3206 C127 2.353 . S
C3218 C435 2.362 . S
C3233 C303 0.622 . S
C3245 C658 0.581 . S
C3272 C514 2.520 . S
C3260 C146 2.547 1_556 S
C3287 C277 0.518 . S
C3299 C721 0.659 1_655 S
C3326 C594 2.517 . S
C3314 C120 2.527 . S
C3353 C881 1.705 . S
C3341 C231 1.690 . S
C3380 C487 2.338 1_665 S
C3368 C200 2.354 . S
C3395 C212 1.398 . S
C3407 C681 1.444 . S
C3434 C555 1.565 1_556 S
C3422 C172 1.581 . S
C3449 C192 1.350 . S
C3461 C601 1.280 . S
C3476 C160 2.791 . S
C3488 C934 2.795 . S
C3515 C754 1.686 . S
C3503 C213 1.672 . S
C3542 C818 0.527 . S
C3530 C250 0.609 . S
