# Generated by pormake.
# Topology ssa, (4,4)-cn, num edge types: 1
# Building blocks:
#     Node 0, Type 0, BuildingBlock: ESEHIV_clean_sbu_0, # of connection points: 4
#     Node 1, Type 0, BuildingBlock: ESEHIV_clean_sbu_0, # of connection points: 4
#     Node 2, Type 0, BuildingBlock: ESEHIV_clean_sbu_0, # of connection points: 4
#     Node 3, Type 0, BuildingBlock: ESEHIV_clean_sbu_0, # of connection points: 4
#     Node 4, Type 0, BuildingBlock: ESEHIV_clean_sbu_0, # of connection points: 4
#     Node 5, Type 0, BuildingBlock: ESEHIV_clean_sbu_0, # of connection points: 4
#     Node 6, Type 1, BuildingBlock: ESEHIV_clean_sbu_0, # of connection points: 4
#     Node 7, Type 1, BuildingBlock: ESEHIV_clean_sbu_0, # of connection points: 4
#     Node 8, Type 1, BuildingBlock: ESEHIV_clean_sbu_0, # of connection points: 4
#     Node 9, Type 1, BuildingBlock: ESEHIV_clean_sbu_0, # of connection points: 4
#     Node 10, Type 1, BuildingBlock: ESEHIV_clean_sbu_0, # of connection points: 4
#     Node 11, Type 1, BuildingBlock: ESEHIV_clean_sbu_0, # of connection points: 4
#     Edge 12, Type (0, 1), BuildingBlock: OJICUG_clean_linker_0, # of connection points: 2
#     Edge 13, Type (0, 1), BuildingBlock: OJICUG_clean_linker_0, # of connection points: 2
#     Edge 14, Type (0, 1), BuildingBlock: OJICUG_clean_linker_0, # of connection points: 2
#     Edge 15, Type (0, 1), BuildingBlock: OJICUG_clean_linker_0, # of connection points: 2
#     Edge 16, Type (0, 1), BuildingBlock: OJICUG_clean_linker_0, # of connection points: 2
#     Edge 17, Type (0, 1), BuildingBlock: OJICUG_clean_linker_0, # of connection points: 2
#     Edge 18, Type (0, 1), BuildingBlock: OJICUG_clean_linker_0, # of connection points: 2
#     Edge 19, Type (0, 1), BuildingBlock: OJICUG_clean_linker_0, # of connection points: 2
#     Edge 20, Type (0, 1), BuildingBlock: OJICUG_clean_linker_0, # of connection points: 2
#     Edge 21, Type (0, 1), BuildingBlock: OJICUG_clean_linker_0, # of connection points: 2
#     Edge 22, Type (0, 1), BuildingBlock: OJICUG_clean_linker_0, # of connection points: 2
#     Edge 23, Type (0, 1), BuildingBlock: OJICUG_clean_linker_0, # of connection points: 2
#     Edge 24, Type (0, 1), BuildingBlock: OJICUG_clean_linker_0, # of connection points: 2
#     Edge 25, Type (0, 1), BuildingBlock: OJICUG_clean_linker_0, # of connection points: 2
#     Edge 26, Type (0, 1), BuildingBlock: OJICUG_clean_linker_0, # of connection points: 2
#     Edge 27, Type (0, 1), BuildingBlock: OJICUG_clean_linker_0, # of connection points: 2
#     Edge 28, Type (0, 1), BuildingBlock: OJICUG_clean_linker_0, # of connection points: 2
#     Edge 29, Type (0, 1), BuildingBlock: OJICUG_clean_linker_0, # of connection points: 2
#     Edge 30, Type (0, 1), BuildingBlock: OJICUG_clean_linker_0, # of connection points: 2
#     Edge 31, Type (0, 1), BuildingBlock: OJICUG_clean_linker_0, # of connection points: 2
#     Edge 32, Type (0, 1), BuildingBlock: OJICUG_clean_linker_0, # of connection points: 2
#     Edge 33, Type (0, 1), BuildingBlock: OJICUG_clean_linker_0, # of connection points: 2
#     Edge 34, Type (0, 1), BuildingBlock: OJICUG_clean_linker_0, # of connection points: 2
#     Edge 35, Type (0, 1), BuildingBlock: OJICUG_clean_linker_0, # of connection points: 2
# Relax obj value: 0.055
# Max RMSD: 0.107
# Mean RMSD: 0.097
data_MOF--net-ssa--node1-ESEHIV_clean_sbu_0--node2-ESEHIV_clean_sbu_0--edge1-OJICUG_clean_linker_0
_symmetry_space_group_name_H-M    P1
_symmetry_Int_Tables_number       1
_symmetry_cell_setting            triclinic
loop_
_symmetry_equiv_pos_as_xyz
'x, y, z'
_cell_length_a     35.876463
_cell_length_b     39.459816
_cell_length_c     27.438573
_cell_angle_alpha  87.428661
_cell_angle_beta   91.503847
_cell_angle_gamma 123.53363
loop_
_atom_site_label
_atom_site_type_symbol
_atom_site_fract_x
_atom_site_fract_y
_atom_site_fract_z
_atom_type_partial_charge
Cu0 Cu 1.03855 0.54289 1.00739 0.0
N1 N 0.05657 0.5235 0.95889 0.0
N2 N 0.05805 0.47533 0.92122 0.0
C3 C 0.04211 0.48407 0.95912 0.0
C4 C 0.08375 0.51092 0.89578 0.0
C5 C 0.08328 0.54088 0.9196 0.0
O6 O 0.97607 0.52797 0.99192 0.0
C7 C 0.09667 0.53826 0.07271 0.0
O8 O 0.12391 0.5656 0.03985 0.0
H9 H 1.01851 0.46181 0.98567 0.0
H10 H 0.10028 0.57263 0.90839 0.0
N11 N 0.07391 0.59919 1.01208 0.0
N12 N 0.11509 0.65656 0.05243 0.0
C13 C 0.08473 0.61618 0.05578 0.0
C14 C 0.09718 0.6301 0.97923 0.0
C15 C 0.12275 0.66578 1.00422 0.0
C16 C 0.96456 0.52784 0.94699 0.0
O17 O 0.99314 0.53447 0.91297 0.0
H18 H 0.07176 0.59868 0.08973 0.0
H19 H 0.09698 0.62684 0.94031 0.0
O20 O 0.05437 0.52254 0.06744 0.0
H21 H 0.10077 0.51479 0.86195 0.0
H22 H 0.14679 0.69564 0.9884 0.0
Cu23 Cu 0.56414 0.02741 0.56711 0.0
N24 N 0.58151 1.018 0.50679 0.0
N25 N 0.59463 0.98449 0.45226 0.0
C26 C 0.57598 0.98224 0.49563 0.0
C27 C 0.61196 1.02308 0.43524 0.0
C28 C 0.60366 0.04346 0.46854 0.0
O29 O 0.50156 0.98365 0.57092 0.0
C30 C 0.63965 0.03349 0.61055 0.0
O31 O 0.65144 0.03463 0.56533 0.0
H32 H 0.56072 0.95575 0.52022 0.0
H33 H 0.61432 0.07497 0.46554 0.0
N34 N 0.57096 0.0784 0.57639 0.0
N35 N 0.57002 0.12679 0.61708 0.0
C36 C 0.55503 0.08675 0.61531 0.0
C37 C 0.59728 0.11465 0.55281 0.0
C38 C 0.59656 0.14422 0.57741 0.0
C39 C 0.47414 0.98902 0.54718 0.0
O40 O 0.48785 0.0258 0.53034 0.0
H41 H 0.53419 0.06391 0.64294 0.0
H42 H 0.61701 0.11974 0.52094 0.0
O43 O 0.6006 0.0251 0.61912 0.0
H44 H 0.63036 0.03605 0.40148 0.0
H45 H 0.61465 0.17621 0.56686 0.0
Cu46 Cu 0.54856 0.53492 0.05221 0.0
N47 N 0.55848 0.49298 0.04093 0.0
N48 N 0.5607 0.44611 0.99829 0.0
C49 C 0.54397 0.46967 1.00105 0.0
C50 C 0.58695 0.45528 0.03833 0.0
C51 C 0.58572 0.48408 0.06415 0.0
O52 O 0.58354 0.57535 1.00147 0.0
C53 C 0.45771 0.47834 0.06704 0.0
O54 O 0.4725 0.45623 0.08418 0.0
H55 H 0.52277 0.47127 0.97356 0.0
H56 H 0.60463 0.49846 0.09672 0.0
N57 N 0.56537 0.56071 0.11332 0.0
N58 N 0.57816 0.60549 0.17066 0.0
C59 C 0.56646 0.59463 0.12367 0.0
C60 C 0.57609 0.54937 0.15548 0.0
C61 C 0.58419 0.57683 0.19056 0.0
C62 C 0.62495 0.60099 1.0096 0.0
O63 O 0.64002 0.60428 0.05444 0.0
H64 H 0.55943 0.61135 0.09685 0.0
H65 H 0.57751 0.52278 0.16061 0.0
O66 O 0.48526 0.51311 0.04709 0.0
H67 H 0.60609 0.44238 0.04837 0.0
H68 H 0.59335 0.57539 0.22811 0.0
Cu69 Cu 1.02007 0.5049 0.52705 0.0
N70 N 1.00124 0.46754 0.4781 0.0
N71 N 1.00597 0.4311 0.42181 0.0
C72 C 1.02434 0.46839 0.43982 0.0
C73 C 0.9692 0.406 0.44884 0.0
C74 C 0.96615 0.42867 0.48325 0.0
O75 O 0.08148 0.55485 0.51241 0.0
C76 C 0.98508 0.46445 0.62705 0.0
O77 O 0.9841 0.49523 0.64139 0.0
H78 H 0.05627 0.4947 0.42837 0.0
H79 H 0.94259 0.41691 0.51312 0.0
N80 N 0.98488 0.52624 0.5208 0.0
N81 N 0.94281 0.54975 0.53796 0.0
C82 C 0.95247 0.52176 0.5495 0.0
C83 C 0.99468 0.55702 0.48895 0.0
C84 C 0.96901 0.57172 0.49954 0.0
C85 C 0.11651 0.56166 0.49078 0.0
O86 O 0.12062 0.53119 0.48369 0.0
H87 H 0.93805 0.50023 0.57996 0.0
H88 H 1.02091 0.56965 0.4619 0.0
O89 O 1.00437 0.46781 0.58665 0.0
H90 H 0.94837 0.37322 0.44657 0.0
H91 H 0.97116 0.59788 0.48203 0.0
Cu92 Cu 0.57324 0.04661 0.09958 0.0
N93 N 0.54891 0.07758 0.1022 0.0
N94 N 0.51665 0.10828 0.07044 0.0
C95 C 0.52459 0.07905 0.06525 0.0
C96 C 0.53558 0.1251 0.11345 0.0
C97 C 0.55564 0.10602 0.13308 0.0
O98 O 0.60446 0.06228 0.03422 0.0
C99 C 0.51515 0.95737 0.13616 0.0
O100 O 0.5479 0.95198 0.13191 0.0
H101 H 0.51568 0.0608 0.03341 0.0
H102 H 0.57609 0.1141 0.16562 0.0
N103 N 0.61936 0.0633 0.14517 0.0
N104 N 0.66374 0.05122 0.19051 0.0
C105 C 0.62132 0.03811 0.17813 0.0
C106 C 0.66214 0.09466 0.13841 0.0
C107 C 0.68961 0.08713 0.16606 0.0
C108 C 0.62557 0.10014 1.0199 0.0
O109 O 0.6229 0.12536 0.04687 0.0
H110 H 0.59288 1.00821 0.18798 0.0
H111 H 0.67326 0.11869 0.11082 0.0
O112 O 0.52051 0.99093 0.1201 0.0
H113 H 0.53784 0.15132 0.12771 0.0
H114 H 0.72575 0.10442 0.16424 0.0
Cu115 Cu 0.51806 0.50096 0.50445 0.0
N116 N 0.56672 0.53858 0.46584 0.0
N117 N 0.6179 0.60222 0.43996 0.0
C118 C 0.58895 0.57815 0.47558 0.0
C119 C 0.61458 0.57634 0.40681 0.0
C120 C 0.58289 0.53695 0.42292 0.0
O121 O 0.46745 0.50689 0.48537 0.0
C122 C 0.57201 0.50086 0.58029 0.0
O123 O 0.57961 0.48387 0.5452 0.0
H124 H 0.58181 0.58891 0.50731 0.0
H125 H 0.57036 0.50968 0.40294 0.0
N126 N 0.49727 0.44667 0.49639 0.0
N127 N 0.47554 0.38589 0.52978 0.0
C128 C 0.47636 0.42011 0.53392 0.0
C129 C 0.50887 0.42809 0.46603 0.0
C130 C 0.4953 0.39028 0.48669 0.0
C131 C 0.45981 0.50794 0.43938 0.0
O132 O 0.48594 0.50584 0.4088 0.0
H133 H 0.46698 0.42798 0.56665 0.0
H134 H 0.52981 0.44239 0.43423 0.0
O135 O 0.54451 0.51178 0.57175 0.0
H136 H 0.6311 0.5852 0.37172 0.0
H137 H 0.5039 0.36988 0.47389 0.0
Cu138 Cu 0.24572 0.47263 0.25856 0.0
N139 N 0.25739 0.44718 0.21129 0.0
N140 N 0.29586 0.43962 0.15505 0.0
C141 C 0.29609 0.46493 0.18667 0.0
C142 C 0.25535 0.40447 0.15993 0.0
C143 C 0.23147 0.40935 0.19441 0.0
O144 O 0.30063 0.50017 0.30094 0.0
C145 C 0.18582 0.48185 0.2006 0.0
O146 O 0.16627 0.4422 0.20222 0.0
H147 H 0.32438 0.49551 0.19292 0.0
H148 H 0.19771 0.38687 0.20629 0.0
N149 N 0.1967 0.43481 0.29642 0.0
N150 N 0.13098 0.41102 0.33146 0.0
C151 C 0.16866 0.44395 0.31311 0.0
C152 C 0.17689 0.39463 0.30593 0.0
C153 C 0.13612 0.37981 0.328 0.0
C154 C 0.30134 0.48957 0.34585 0.0
O155 O 0.2632 0.46404 0.36803 0.0
H156 H 0.17526 0.47424 0.30993 0.0
H157 H 0.19011 0.37709 0.29572 0.0
O158 O 0.22394 0.50371 0.22211 0.0
H159 H 0.24387 0.37726 0.14006 0.0
H160 H 0.11146 0.34842 0.33855 0.0
Cu161 Cu 0.83341 0.24529 0.80688 0.0
N162 N 0.82342 0.20288 0.76928 0.0
N163 N 0.78418 0.1449 0.72982 0.0
C164 C 0.78354 0.17499 0.7503 0.0
C165 C 0.82641 0.15452 0.7356 0.0
C166 C 0.85051 0.19022 0.7605 0.0
O167 O 0.78078 0.21982 0.8524 0.0
C168 C 0.87979 0.30451 0.73051 0.0
O169 O 0.89427 0.28075 0.72519 0.0
H170 H 0.75446 0.17662 0.7521 0.0
H171 H 0.88493 0.20532 0.7724 0.0
N172 N 0.88554 0.26496 0.84335 0.0
N173 N 0.95279 0.31245 0.87173 0.0
C174 C 0.91843 0.30461 0.8426 0.0
C175 C 0.89935 0.2467 0.87458 0.0
C176 C 0.94092 0.27623 0.89271 0.0
C177 C 0.7674 0.1848 0.87276 0.0
O178 O 0.78987 0.16844 0.86391 0.0
H179 H 0.91634 0.32783 0.82282 0.0
H180 H 0.88037 0.21452 0.88413 0.0
O181 O 0.84912 0.2935 0.76256 0.0
H182 H 0.83867 0.13659 0.72377 0.0
H183 H 0.96043 0.27161 0.91965 0.0
Cu184 Cu 0.63147 0.81703 0.31226 0.0
N185 N 0.66502 0.86107 0.26857 0.0
N186 N 0.68597 0.92268 0.2385 0.0
C187 C 0.65277 0.8872 0.25876 0.0
C188 C 0.72016 0.91803 0.23293 0.0
C189 C 0.70714 0.87986 0.25171 0.0
O190 O 0.60095 0.83626 0.35198 0.0
C191 C 0.62169 0.75496 0.25663 0.0
O192 O 0.66532 0.78021 0.25889 0.0
H193 H 0.62066 0.88099 0.26926 0.0
H194 H 0.72793 0.86794 0.25543 0.0
N195 N 0.66749 0.80849 0.35426 0.0
N196 N 0.68185 0.76696 0.39546 0.0
C197 C 0.65014 0.77298 0.37934 0.0
C198 C 0.71216 0.82627 0.35553 0.0
C199 C 0.72109 0.80032 0.38062 0.0
C200 C 0.6285 0.86926 0.37397 0.0
O201 O 0.67109 0.8825 0.37312 0.0
H202 H 0.6146 0.74989 0.38077 0.0
H203 H 0.7363 0.85435 0.3364 0.0
O204 O 0.59733 0.76541 0.27583 0.0
H205 H 0.75305 0.94135 0.21932 0.0
H206 H 0.75342 0.80443 0.38495 0.0
Cu207 Cu 0.77781 0.55876 0.78871 0.0
N208 N 0.81748 0.58496 0.73735 0.0
N209 N 0.8559 0.59037 0.67158 0.0
C210 C 0.83204 0.5669 0.71057 0.0
C211 C 0.85664 0.62484 0.67433 0.0
C212 C 0.83262 0.6213 0.71492 0.0
O213 O 0.80261 0.5311 0.8279 0.0
C214 C 0.70443 0.54892 0.73468 0.0
O215 O 0.72914 0.58853 0.7391 0.0
H216 H 0.82449 0.53675 0.71943 0.0
H217 H 0.82537 0.64299 0.72621 0.0
N218 N 0.77807 0.59706 0.82622 0.0
N219 N 0.7511 0.62445 0.87121 0.0
C220 C 0.74179 0.59131 0.84786 0.0
C221 C 0.81184 0.63514 0.83646 0.0
C222 C 0.79529 0.65208 0.86471 0.0
C223 C 0.81784 0.54001 0.87171 0.0
O224 O 0.80982 0.56317 0.89615 0.0
H225 H 0.70925 0.56298 0.84706 0.0
H226 H 0.84599 0.64942 0.8244 0.0
O227 O 0.71824 0.52772 0.75515 0.0
H228 H 0.87204 0.65022 0.6481 0.0
H229 H 0.81418 0.68221 0.87931 0.0
Cu230 Cu 0.29352 0.78698 0.32559 0.0
N231 N 0.25064 0.78044 0.27992 0.0
N232 N 0.20645 0.75637 0.21438 0.0
C233 C 0.23147 0.75093 0.24734 0.0
C234 C 0.20998 0.79073 0.22677 0.0
C235 C 0.23734 0.80557 0.26719 0.0
O236 O 0.26734 0.73235 0.36079 0.0
C237 C 0.36223 0.84975 0.26664 0.0
O238 O 0.33808 0.86412 0.27703 0.0
H239 H 0.23766 0.72705 0.24651 0.0
H240 H 0.24824 0.83365 0.28458 0.0
N241 N 0.30077 0.82272 0.3733 0.0
N242 N 0.33108 0.86625 0.43394 0.0
C243 C 0.33658 0.84391 0.40257 0.0
C244 C 0.27151 0.83177 0.3869 0.0
C245 C 0.29021 0.85878 0.42404 0.0
C246 C 0.22986 0.71838 0.38259 0.0
O247 O 0.21224 0.73998 0.37808 0.0
H248 H 0.36639 0.84348 0.40022 0.0
H249 H 0.23864 0.81933 0.37131 0.0
O250 O 0.3506 0.81497 0.28636 0.0
H251 H 0.1945 0.80448 0.20763 0.0
H252 H 0.2748 0.87167 0.44255 0.0
Cu253 Cu 0.51233 0.2598 0.80627 0.0
N254 N 0.47477 0.26111 0.75922 0.0
N255 N 0.45612 0.28232 0.69196 0.0
C256 C 0.48774 0.29176 0.7262 0.0
C257 C 0.42179 0.24416 0.70383 0.0
C258 C 0.43341 0.23112 0.74555 0.0
O259 O 0.54331 0.3122 0.84176 0.0
C260 C 0.52141 0.2045 0.75531 0.0
O261 O 0.47909 0.18251 0.76804 0.0
H262 H 0.52063 0.31975 0.72609 0.0
H263 H 0.4138 0.20139 0.76357 0.0
N264 N 0.47905 0.22038 0.85475 0.0
N265 N 0.46698 0.17972 0.9198 0.0
C266 C 0.49453 0.20176 0.88232 0.0
C267 C 0.4402 0.20978 0.87538 0.0
C268 C 0.4327 0.18465 0.91584 0.0
C269 C 0.51827 0.3239 0.85565 0.0
O270 O 0.47617 0.30282 0.84195 0.0
H271 H 0.52672 0.20621 0.87654 0.0
H272 H 0.41979 0.2209 0.86317 0.0
O273 O 0.5455 0.24126 0.76985 0.0
H274 H 0.39084 0.22688 0.68358 0.0
H275 H 0.40486 0.17177 0.94088 0.0
C276 C 0.09344 0.48627 0.13371 0.0
C277 C 0.11693 0.52556 0.11206 0.0
H278 H 0.09675 0.44199 0.17837 0.0
C279 C 0.16279 0.55193 0.12387 0.0
H280 H 0.05838 0.46507 0.12545 0.0
C281 C 0.185 0.53888 0.1545 0.0
C282 C 0.16216 0.49879 0.17371 0.0
H283 H 0.18208 0.58259 0.10811 0.0
H284 H 0.22046 0.5596 0.16124 0.0
C285 C 0.11579 0.47304 0.16381 0.0
C286 C 0.71924 0.06624 0.6368 0.0
C287 C 0.6752 0.05371 0.64779 0.0
H288 H 0.78873 0.10551 0.65434 0.0
C289 C 0.66732 0.06707 0.69057 0.0
H290 H 0.72643 0.05627 0.60427 0.0
C291 C 0.70311 0.09539 0.71907 0.0
C292 C 0.7474 0.11072 0.70555 0.0
H293 H 0.63382 0.05784 0.70032 0.0
H294 H 0.69618 0.10653 0.75064 0.0
C295 C 0.75502 0.09445 0.66547 0.0
C296 C 0.61498 0.65758 0.2341 0.0
C297 C 0.58531 0.64109 0.19434 0.0
H298 H 0.64881 0.70561 0.28465 0.0
C299 C 0.56393 0.66079 0.17801 0.0
H300 H 0.6325 0.64392 0.24775 0.0
C301 C 0.57293 0.69637 0.20008 0.0
C302 C 0.60399 0.71339 0.23856 0.0
H303 H 0.54058 0.64896 0.14785 0.0
H304 H 0.55722 0.71153 0.18561 0.0
C305 C 0.62437 0.69316 0.25543 0.0
C306 C 0.93245 0.6005 0.57313 0.0
C307 C 0.91786 0.55969 0.56752 0.0
H308 H 0.9248 0.64234 0.61126 0.0
C309 C 0.88085 0.52907 0.59436 0.0
H310 H 0.96133 0.62485 0.55345 0.0
C311 C 0.85973 0.53905 0.62735 0.0
C312 C 0.87549 0.57999 0.63466 0.0
H313 H 0.86862 0.49738 0.59025 0.0
H314 H 0.83128 0.51457 0.64735 0.0
C315 C 0.91156 0.61055 0.60643 0.0
C316 C 0.44087 0.93435 0.17455 0.0
C317 C 0.47435 0.9271 0.1663 0.0
H318 H 0.38063 0.91639 0.21143 0.0
C319 C 0.4698 0.89245 0.19037 0.0
H320 H 0.44272 0.96044 0.15719 0.0
C321 C 0.43345 0.86655 0.22225 0.0
C322 C 0.40069 0.87469 0.23129 0.0
H323 H 0.49488 0.88572 0.1854 0.0
H324 H 0.43157 0.84074 0.24049 0.0
C325 C 0.40501 0.90883 0.20626 0.0
C326 C 0.44639 0.31685 0.56504 0.0
C327 C 0.47012 0.35906 0.57012 0.0
H328 H 0.42256 0.25877 0.60077 0.0
C329 C 0.48885 0.37537 0.61561 0.0
H330 H 0.43188 0.3038 0.53019 0.0
C331 C 0.48384 0.35008 0.65538 0.0
C332 C 0.45977 0.30781 0.65078 0.0
H333 H 0.50793 0.4079 0.62029 0.0
H334 H 0.4986 0.3636 0.68995 0.0
C335 C 0.44082 0.29128 0.60532 0.0
C336 C 0.64145 0.9676 0.40842 0.0
C337 C 0.60107 0.95466 0.43172 0.0
H338 H 0.68128 0.95127 0.3729 0.0
C339 C 0.56802 0.91242 0.4348 0.0
H340 H 0.66779 0.99962 0.40557 0.0
C341 C 0.57544 0.88408 0.41479 0.0
C342 C 0.61658 0.89738 0.39263 0.0
H343 H 0.53641 0.90139 0.45234 0.0
H344 H 0.5496 0.85191 0.41783 0.0
C345 C 0.64923 0.93957 0.38988 0.0
C346 C 0.64332 0.59982 0.9228 0.0
C347 C 0.65728 0.6166 0.96901 0.0
H348 H 0.6629 0.58961 0.85488 0.0
C349 C 0.70336 0.64238 0.97862 0.0
H350 H 0.60812 0.58011 0.91402 0.0
C351 C 0.7347 0.64764 0.94473 0.0
C352 C 0.72041 0.62709 0.90083 0.0
H353 H 0.71519 0.6561 1.01375 0.0
H354 H 0.76977 0.66509 0.95455 0.0
C355 C 0.67464 0.60491 0.8891 0.0
C356 C 0.18552 0.61064 0.43823 0.0
C357 C 0.14925 0.60306 0.46707 0.0
H358 H 0.23965 0.65237 0.38932 0.0
C359 C 0.14228 0.63467 0.46951 0.0
H360 H 0.19211 0.58716 0.43502 0.0
C361 C 0.1693 0.67173 0.44316 0.0
C362 C 0.20472 0.67913 0.41315 0.0
H363 H 0.11499 0.63049 0.49089 0.0
H364 H 0.16169 0.69459 0.44588 0.0
C365 C 0.21295 0.64816 0.41183 0.0
C366 C 0.51009 0.12257 0.98353 0.0
C367 C 0.50099 0.12398 0.03266 0.0
H368 H 0.50577 0.13877 0.90926 0.0
C369 C 0.47812 0.14223 0.04398 0.0
H370 H 0.52835 0.10943 0.97351 0.0
C371 C 0.46513 0.15918 1.00675 0.0
C372 C 0.47553 0.15864 0.95785 0.0
H373 H 0.47067 0.14363 0.08153 0.0
H374 H 0.4485 0.17397 1.01627 0.0
C375 C 0.49758 0.13973 0.94667 0.0
C376 C 0.42171 0.52016 0.36859 0.0
C377 C 0.42117 0.50896 0.41841 0.0
H378 H 0.38554 0.52375 0.30701 0.0
C379 C 0.38213 0.49537 0.44511 0.0
H380 H 0.45117 0.53102 0.34663 0.0
C381 C 0.3441 0.49096 0.42198 0.0
C382 C 0.34407 0.50046 0.37159 0.0
H383 H 0.38018 0.48632 0.4833 0.0
H384 H 0.3141 0.47879 0.44344 0.0
C385 C 0.38398 0.51619 0.34566 0.0
C386 C 1.02954 0.40378 0.94336 0.0
C387 C 0.04264 0.43487 0.90731 0.0
H388 H 0.99055 0.33958 0.96 0.0
C389 C 1.03344 0.42451 0.85825 0.0
H390 H 1.03697 0.41108 0.98142 0.0
C391 C 1.00714 0.3837 0.84609 0.0
C392 C 0.98981 0.35263 0.88272 0.0
H393 H 0.04314 0.44774 0.82972 0.0
H394 H 0.99757 0.37638 0.80833 0.0
C395 C 1.00337 0.36291 0.93115 0.0
C396 C 0.90713 0.51515 0.88225 0.0
C397 C 0.922 0.52435 0.93106 0.0
H398 H 0.86281 0.51196 0.82556 0.0
C399 C 0.89876 0.53444 0.96135 0.0
H400 H 0.92391 0.5071 0.85759 0.0
C401 C 0.86361 0.53752 0.9426 0.0
C402 C 0.85016 0.53015 0.89312 0.0
H403 H 0.90914 0.54196 0.99889 0.0
H404 H 0.84794 0.54711 0.96667 0.0
C405 C 0.87175 0.51778 0.86369 0.0
C406 C 0.42901 0.91732 0.51955 0.0
C407 C 0.43268 0.95409 0.52683 0.0
H408 H 0.39367 0.86044 0.48376 0.0
C409 C 0.3998 0.9596 0.50702 0.0
H410 H 0.45406 0.91231 0.53397 0.0
C411 C 0.36533 0.92995 0.47833 0.0
C412 C 0.36334 0.89438 0.46828 0.0
H413 H 0.40186 0.98769 0.51189 0.0
H414 H 0.34168 0.93592 0.46186 0.0
C415 C 0.39482 0.88786 0.49025 0.0
C416 C 0.58085 0.40354 0.95438 0.0
C417 C 0.55244 0.4175 0.96064 0.0
H418 H 0.59339 0.36395 0.91639 0.0
C419 C 0.51501 0.40208 0.92965 0.0
H420 H 0.61039 0.41479 0.9768 0.0
C421 C 0.50557 0.37321 0.89495 0.0
C422 C 0.53314 0.35843 0.88937 0.0
H423 H 0.49196 0.4114 0.93295 0.0
H424 H 0.47574 0.36182 0.87288 0.0
C425 C 0.57142 0.37455 0.9192 0.0
C426 C 0.05364 0.44434 0.35185 0.0
C427 C 1.02954 0.41975 0.39243 0.0
H428 H 0.10372 0.45968 0.29918 0.0
C429 C 1.03468 0.38819 0.40845 0.0
H430 H 0.04983 0.46859 0.33883 0.0
C431 C 0.06637 0.38361 0.38664 0.0
C432 C 0.09308 0.41045 0.34847 0.0
H433 H 1.01668 0.3691 0.44011 0.0
H434 H 0.07197 0.36093 0.40161 0.0
C435 C 0.08479 0.43949 0.32974 0.0
C436 C 0.67132 0.15806 0.95878 0.0
C437 C 0.65716 0.11857 0.97715 0.0
H438 H 0.71625 0.20973 0.91204 0.0
C439 C 0.67765 0.10032 0.95813 0.0
H440 H 0.65636 0.1733 0.97226 0.0
C441 C 0.71245 0.12161 0.92362 0.0
C442 C 0.72781 0.16176 0.90672 0.0
H443 H 0.66816 0.07031 0.97138 0.0
H444 H 0.72805 0.10671 0.91093 0.0
C445 C 0.70588 0.17922 0.92411 0.0
C446 C 0.62224 0.66511 0.45802 0.0
C447 C 0.63938 0.64571 0.434 0.0
H448 H 0.62326 0.71939 0.46483 0.0
C449 C 0.6754 0.66907 0.40158 0.0
H450 H 0.59424 0.6485 0.48273 0.0
C451 C 0.69211 0.71022 0.39152 0.0
C452 C 0.6728 0.72846 0.41351 0.0
H453 H 0.68967 0.65525 0.38285 0.0
H454 H 0.71807 0.72704 0.36437 0.0
C455 C 0.63872 0.70587 0.44779 0.0
C456 C 0.5222 0.12404 0.6836 0.0
C457 C 0.56014 0.14672 0.6536 0.0
H458 H 0.48111 0.12405 0.73859 0.0
C459 C 0.58746 0.18933 0.65967 0.0
H460 H 0.49997 0.09147 0.68035 0.0
C461 C 0.57651 0.20844 0.69377 0.0
C462 C 0.53775 0.18557 0.72261 0.0
H463 H 0.61733 0.20812 0.63795 0.0
H464 H 0.59771 0.24117 0.69653 0.0
C465 C 0.51124 0.14303 0.71721 0.0
C466 C 0.38054 0.42674 0.09746 0.0
C467 C 0.41245 0.46676 0.08089 0.0
H468 H 0.31799 0.38663 0.13389 0.0
C469 C 0.40285 0.49662 0.08419 0.0
H470 H 0.38697 0.40306 0.09532 0.0
C471 C 0.36362 0.48727 0.10685 0.0
C472 C 0.33294 0.44778 0.12592 0.0
H473 H 0.42678 0.52777 0.0719 0.0
H474 H 0.35785 0.51119 0.11076 0.0
C475 C 0.34099 0.41727 0.11944 0.0
C476 C 0.95817 0.39012 0.63941 0.0
C477 C 0.95861 0.42389 0.65469 0.0
H478 H 0.93303 0.32692 0.65033 0.0
C479 C 0.93089 0.41753 0.69457 0.0
H480 H 0.97837 0.39323 0.60872 0.0
C481 C 0.90397 0.37883 0.71839 0.0
C482 C 0.90406 0.34525 0.70322 0.0
H483 H 0.92972 0.4425 0.70735 0.0
H484 H 0.88383 0.37544 0.74925 0.0
C485 C 0.93165 0.35173 0.66329 0.0
C486 C 0.70829 1.02129 0.18426 0.0
C487 C 0.67678 0.02466 0.20925 0.0
H488 H 0.73547 0.9855 0.17355 0.0
C489 C 0.65224 0.99667 0.24734 0.0
H490 H 0.72719 0.04219 0.15419 0.0
C491 C 0.6567 0.96428 0.25811 0.0
C492 C 0.68572 0.95895 0.23086 0.0
H493 H 0.62792 0.9988 0.26714 0.0
H494 H 0.63625 0.94277 0.28693 0.0
C495 C 0.71275 0.98866 0.19502 0.0
C496 C 0.61573 0.48485 0.63942 0.0
C497 C 0.59861 0.50889 0.62649 0.0
H498 H 0.66149 0.4777 0.68395 0.0
C499 C 0.6125 0.54304 0.6541 0.0
H500 H 0.60565 0.45812 0.61914 0.0
C501 C 0.64495 0.5544 0.69107 0.0
C502 C 0.66405 0.5317 0.70205 0.0
H503 H 0.60042 0.56238 0.64521 0.0
H504 H 0.65646 0.58212 0.70987 0.0
C505 C 0.6477 0.4959 0.67684 0.0
C506 C 0.1543 0.72381 0.09019 0.0
C507 C 0.13844 0.68233 0.0928 0.0
H508 H 0.18837 0.78012 0.1272 0.0
C509 C 0.14543 0.66587 0.13588 0.0
H510 H 0.14931 0.73722 0.05746 0.0
C511 C 0.16731 0.6901 0.17559 0.0
C512 C 0.18298 0.73151 0.17336 0.0
H513 H 0.13448 0.63422 0.13883 0.0
H514 H 0.17166 0.67623 0.20828 0.0
C515 C 0.17619 0.74818 0.13025 0.0
loop_
_geom_bond_atom_site_label_1
_geom_bond_atom_site_label_2
_geom_bond_distance
_geom_bond_site_symmetry_2
_ccdc_geom_bond_type
Cu0 N1 1.999 1_454 S
Cu0 O6 1.974 1_454 S
Cu0 N11 1.985 . S
Cu0 O20 1.959 . S
N1 Cu0 1.999 1_656 S
N1 C3 1.263 . S
N1 C5 1.389 1_556 S
N2 C3 1.358 . S
N2 C4 1.400 . S
C3 N1 1.263 . S
C3 N2 1.358 . S
C3 H9 0.930 . S
C4 N2 1.400 . S
C4 C5 1.351 1_556 S
C4 H21 0.930 . S
C5 N1 1.389 1_554 S
C5 C4 1.351 1_554 S
C5 H10 0.930 . S
O6 Cu0 1.974 1_656 S
O6 C16 1.282 . S
C7 O8 1.262 1_554 S
C7 O20 1.251 . S
O8 C7 1.262 1_556 S
H9 C3 0.930 . S
H10 C5 0.930 . S
N11 Cu0 1.985 . S
N11 C13 1.335 . S
N11 C14 1.390 . S
N12 C13 1.345 . S
N12 C15 1.336 . S
C13 N11 1.335 . S
C13 N12 1.345 . S
C13 H18 0.930 . S
C14 N11 1.390 . S
C14 C15 1.346 . S
C14 H19 0.930 1_554 S
C15 N12 1.336 . S
C15 C14 1.346 . S
C15 H22 0.929 . S
C16 O6 1.282 . S
C16 O17 1.216 1_655 S
O17 C16 1.216 1_455 S
H18 C13 0.930 . S
H19 C14 0.930 1_556 S
O20 Cu0 1.959 . S
O20 C7 1.251 . S
H21 C4 0.930 . S
H22 C15 0.929 . S
Cu23 N24 1.999 . S
Cu23 O29 1.974 . S
Cu23 N34 1.985 1_565 S
Cu23 O43 1.959 1_565 S
N24 Cu23 1.999 . S
N24 C26 1.263 . S
N24 C28 1.389 . S
N25 C26 1.358 . S
N25 C27 1.400 . S
C26 N24 1.263 . S
C26 N25 1.358 . S
C26 H32 0.930 . S
C27 N25 1.400 . S
C27 C28 1.351 . S
C27 H44 0.930 . S
C28 N24 1.389 . S
C28 C27 1.351 . S
C28 H33 0.930 . S
O29 Cu23 1.974 . S
O29 C39 1.282 . S
C30 O31 1.261 . S
C30 O43 1.251 . S
O31 C30 1.261 . S
H32 C26 0.930 . S
H33 C28 0.930 . S
N34 Cu23 1.985 1_545 S
N34 C36 1.335 . S
N34 C37 1.390 . S
N35 C36 1.345 . S
N35 C38 1.336 . S
C36 N34 1.335 . S
C36 N35 1.345 . S
C36 H41 0.930 . S
C37 N34 1.390 . S
C37 C38 1.346 . S
C37 H42 0.930 . S
C38 N35 1.336 . S
C38 C37 1.346 . S
C38 H45 0.929 . S
C39 O29 1.282 . S
C39 O40 1.214 . S
O40 C39 1.214 . S
H41 C36 0.930 . S
H42 C37 0.930 . S
O43 Cu23 1.959 1_545 S
O43 C30 1.251 . S
H44 C27 0.930 . S
H45 C38 0.929 . S
Cu46 N47 2.004 . S
Cu46 O52 1.978 . S
Cu46 N57 1.980 1_556 S
Cu46 O66 1.954 1_556 S
N47 Cu46 2.004 . S
N47 C49 1.263 . S
N47 C51 1.389 . S
N48 C49 1.358 . S
N48 C50 1.400 . S
C49 N47 1.263 . S
C49 N48 1.358 . S
C49 H55 0.930 . S
C50 N48 1.400 . S
C50 C51 1.351 . S
C50 H67 0.930 . S
C51 N47 1.389 . S
C51 C50 1.351 . S
C51 H56 0.930 . S
O52 Cu46 1.978 . S
O52 C62 1.282 . S
C53 O54 1.261 . S
C53 O66 1.251 . S
O54 C53 1.261 . S
H55 C49 0.930 . S
H56 C51 0.930 . S
N57 Cu46 1.980 1_554 S
N57 C59 1.335 . S
N57 C60 1.390 . S
N58 C59 1.345 . S
N58 C61 1.336 . S
C59 N57 1.335 . S
C59 N58 1.345 . S
C59 H64 0.930 . S
C60 N57 1.390 . S
C60 C61 1.346 . S
C60 H65 0.930 . S
C61 N58 1.336 . S
C61 C60 1.346 . S
C61 H68 0.929 . S
C62 O52 1.282 . S
C62 O63 1.216 1_556 S
O63 C62 1.216 1_554 S
H64 C59 0.930 . S
H65 C60 0.930 . S
O66 Cu46 1.954 1_554 S
O66 C53 1.251 . S
H67 C50 0.930 . S
H68 C61 0.929 . S
Cu69 N70 1.999 1_655 S
Cu69 O75 1.974 1_655 S
Cu69 N80 1.985 . S
Cu69 O89 1.959 . S
N70 Cu69 1.999 1_455 S
N70 C72 1.263 . S
N70 C74 1.389 1_455 S
N71 C72 1.358 . S
N71 C73 1.400 . S
C72 N70 1.263 . S
C72 N71 1.358 . S
C72 H78 0.930 . S
C73 N71 1.400 . S
C73 C74 1.351 1_455 S
C73 H90 0.930 . S
C74 N70 1.389 1_655 S
C74 C73 1.351 1_655 S
C74 H79 0.930 . S
O75 Cu69 1.974 1_455 S
O75 C85 1.282 . S
C76 O77 1.261 1_655 S
C76 O89 1.251 . S
O77 C76 1.261 1_455 S
H78 C72 0.930 . S
H79 C74 0.930 . S
N80 Cu69 1.985 . S
N80 C82 1.335 . S
N80 C83 1.390 . S
N81 C82 1.345 . S
N81 C84 1.336 . S
C82 N80 1.335 . S
C82 N81 1.345 . S
C82 H87 0.930 . S
C83 N80 1.390 . S
C83 C84 1.346 . S
C83 H88 0.930 1_655 S
C84 N81 1.336 . S
C84 C83 1.346 . S
C84 H91 0.929 . S
C85 O75 1.282 . S
C85 O86 1.216 . S
O86 C85 1.216 . S
H87 C82 0.930 . S
H88 C83 0.930 1_455 S
O89 Cu69 1.959 . S
O89 C76 1.251 . S
H90 C73 0.930 . S
H91 C84 0.929 . S
Cu92 N93 1.999 . S
Cu92 O98 1.974 1_554 S
Cu92 N103 1.985 1_545 S
Cu92 O112 1.959 1_545 S
N93 Cu92 1.999 . S
N93 C95 1.263 1_554 S
N93 C97 1.389 . S
N94 C95 1.358 . S
N94 C96 1.400 . S
C95 N93 1.263 1_556 S
C95 N94 1.358 . S
C95 H101 0.930 . S
C96 N94 1.400 . S
C96 C97 1.351 1_556 S
C96 H113 0.930 1_556 S
C97 N93 1.389 . S
C97 C96 1.351 1_554 S
C97 H102 0.930 . S
O98 Cu92 1.974 1_556 S
O98 C108 1.282 . S
C99 O100 1.261 . S
C99 O112 1.251 . S
O100 C99 1.261 . S
H101 C95 0.930 . S
H102 C97 0.930 . S
N103 Cu92 1.985 1_565 S
N103 C105 1.335 . S
N103 C106 1.390 . S
N104 C105 1.345 . S
N104 C107 1.336 . S
C105 N103 1.335 . S
C105 N104 1.345 . S
C105 H110 0.930 . S
C106 N103 1.390 . S
C106 C107 1.346 . S
C106 H111 0.932 . S
C107 N104 1.336 . S
C107 C106 1.346 . S
C107 H114 0.929 . S
C108 O98 1.282 . S
C108 O109 1.216 . S
O109 C108 1.216 . S
H110 C105 0.930 . S
H111 C106 0.932 . S
O112 Cu92 1.959 1_565 S
O112 C99 1.251 . S
H113 C96 0.930 1_554 S
H114 C107 0.929 . S
Cu115 N116 1.999 . S
Cu115 O121 1.974 . S
Cu115 N126 1.985 . S
Cu115 O135 1.959 . S
N116 Cu115 1.999 . S
N116 C118 1.263 . S
N116 C120 1.389 . S
N117 C118 1.358 . S
N117 C119 1.400 . S
C118 N116 1.263 . S
C118 N117 1.358 . S
C118 H124 0.930 . S
C119 N117 1.400 . S
C119 C120 1.351 . S
C119 H136 0.930 . S
C120 N116 1.389 . S
C120 C119 1.351 . S
C120 H125 0.930 . S
O121 Cu115 1.974 . S
O121 C131 1.282 . S
C122 O123 1.261 . S
C122 O135 1.251 . S
O123 C122 1.261 . S
H124 C118 0.930 . S
H125 C120 0.930 . S
N126 Cu115 1.985 . S
N126 C128 1.335 . S
N126 C129 1.390 . S
N127 C128 1.345 . S
N127 C130 1.336 . S
C128 N126 1.335 . S
C128 N127 1.345 . S
C128 H133 0.930 . S
C129 N126 1.390 . S
C129 C130 1.346 . S
C129 H134 0.930 . S
C130 N127 1.336 . S
C130 C129 1.346 . S
C130 H137 0.929 . S
C131 O121 1.282 . S
C131 O132 1.216 . S
O132 C131 1.216 . S
H133 C128 0.930 . S
H134 C129 0.930 . S
O135 Cu115 1.959 . S
O135 C122 1.251 . S
H136 C119 0.930 . S
H137 C130 0.929 . S
Cu138 N139 1.999 . S
Cu138 O144 1.974 . S
Cu138 N149 1.985 . S
Cu138 O158 1.959 . S
N139 Cu138 1.999 . S
N139 C141 1.263 . S
N139 C143 1.389 . S
N140 C141 1.358 . S
N140 C142 1.400 . S
C141 N139 1.263 . S
C141 N140 1.358 . S
C141 H147 0.930 . S
C142 N140 1.400 . S
C142 C143 1.351 . S
C142 H159 0.930 . S
C143 N139 1.389 . S
C143 C142 1.351 . S
C143 H148 0.930 . S
O144 Cu138 1.974 . S
O144 C154 1.282 . S
C145 O146 1.261 . S
C145 O158 1.251 . S
O146 C145 1.261 . S
H147 C141 0.930 . S
H148 C143 0.930 . S
N149 Cu138 1.985 . S
N149 C151 1.335 . S
N149 C152 1.390 . S
N150 C151 1.345 . S
N150 C153 1.336 . S
C151 N149 1.335 . S
C151 N150 1.345 . S
C151 H156 0.930 . S
C152 N149 1.390 . S
C152 C153 1.346 . S
C152 H157 0.930 . S
C153 N150 1.336 . S
C153 C152 1.346 . S
C153 H160 0.929 . S
C154 O144 1.282 . S
C154 O155 1.216 . S
O155 C154 1.216 . S
H156 C151 0.930 . S
H157 C152 0.930 . S
O158 Cu138 1.959 . S
O158 C145 1.251 . S
H159 C142 0.930 . S
H160 C153 0.929 . S
Cu161 N162 1.999 . S
Cu161 O167 1.974 . S
Cu161 N172 1.985 . S
Cu161 O181 1.959 . S
N162 Cu161 1.999 . S
N162 C164 1.263 . S
N162 C166 1.389 . S
N163 C164 1.358 . S
N163 C165 1.400 . S
C164 N162 1.263 . S
C164 N163 1.358 . S
C164 H170 0.930 . S
C165 N163 1.400 . S
C165 C166 1.351 . S
C165 H182 0.930 . S
C166 N162 1.389 . S
C166 C165 1.351 . S
C166 H171 0.930 . S
O167 Cu161 1.974 . S
O167 C177 1.282 . S
C168 O169 1.261 . S
C168 O181 1.251 . S
O169 C168 1.261 . S
H170 C164 0.930 . S
H171 C166 0.930 . S
N172 Cu161 1.985 . S
N172 C174 1.335 . S
N172 C175 1.390 . S
N173 C174 1.345 . S
N173 C176 1.336 . S
C174 N172 1.335 . S
C174 N173 1.345 . S
C174 H179 0.930 . S
C175 N172 1.390 . S
C175 C176 1.346 . S
C175 H180 0.930 . S
C176 N173 1.336 . S
C176 C175 1.346 . S
C176 H183 0.929 . S
C177 O167 1.282 . S
C177 O178 1.216 . S
O178 C177 1.216 . S
H179 C174 0.930 . S
H180 C175 0.930 . S
O181 Cu161 1.959 . S
O181 C168 1.251 . S
H182 C165 0.930 . S
H183 C176 0.929 . S
Cu184 N185 1.999 . S
Cu184 O190 1.974 . S
Cu184 N195 1.985 . S
Cu184 O204 1.959 . S
N185 Cu184 1.999 . S
N185 C187 1.263 . S
N185 C189 1.389 . S
N186 C187 1.358 . S
N186 C188 1.400 . S
C187 N185 1.263 . S
C187 N186 1.358 . S
C187 H193 0.930 . S
C188 N186 1.400 . S
C188 C189 1.351 . S
C188 H205 0.930 . S
C189 N185 1.389 . S
C189 C188 1.351 . S
C189 H194 0.930 . S
O190 Cu184 1.974 . S
O190 C200 1.282 . S
C191 O192 1.261 . S
C191 O204 1.251 . S
O192 C191 1.261 . S
H193 C187 0.930 . S
H194 C189 0.930 . S
N195 Cu184 1.985 . S
N195 C197 1.335 . S
N195 C198 1.390 . S
N196 C197 1.345 . S
N196 C199 1.336 . S
C197 N195 1.335 . S
C197 N196 1.345 . S
C197 H202 0.930 . S
C198 N195 1.390 . S
C198 C199 1.346 . S
C198 H203 0.930 . S
C199 N196 1.336 . S
C199 C198 1.346 . S
C199 H206 0.929 . S
C200 O190 1.282 . S
C200 O201 1.216 . S
O201 C200 1.216 . S
H202 C197 0.930 . S
H203 C198 0.930 . S
O204 Cu184 1.959 . S
O204 C191 1.251 . S
H205 C188 0.930 . S
H206 C199 0.929 . S
Cu207 N208 1.999 . S
Cu207 O213 1.974 . S
Cu207 N218 1.985 . S
Cu207 O227 1.959 . S
N208 Cu207 1.999 . S
N208 C210 1.263 . S
N208 C212 1.389 . S
N209 C210 1.358 . S
N209 C211 1.400 . S
C210 N208 1.263 . S
C210 N209 1.358 . S
C210 H216 0.930 . S
C211 N209 1.400 . S
C211 C212 1.351 . S
C211 H228 0.930 . S
C212 N208 1.389 . S
C212 C211 1.351 . S
C212 H217 0.930 . S
O213 Cu207 1.974 . S
O213 C223 1.282 . S
C214 O215 1.261 . S
C214 O227 1.251 . S
O215 C214 1.261 . S
H216 C210 0.930 . S
H217 C212 0.930 . S
N218 Cu207 1.985 . S
N218 C220 1.335 . S
N218 C221 1.390 . S
N219 C220 1.345 . S
N219 C222 1.336 . S
C220 N218 1.335 . S
C220 N219 1.345 . S
C220 H225 0.930 . S
C221 N218 1.390 . S
C221 C222 1.346 . S
C221 H226 0.930 . S
C222 N219 1.336 . S
C222 C221 1.346 . S
C222 H229 0.929 . S
C223 O213 1.282 . S
C223 O224 1.216 . S
O224 C223 1.216 . S
H225 C220 0.930 . S
H226 C221 0.930 . S
O227 Cu207 1.959 . S
O227 C214 1.251 . S
H228 C211 0.930 . S
H229 C222 0.929 . S
Cu230 N231 1.999 . S
Cu230 O236 1.974 . S
Cu230 N241 1.985 . S
Cu230 O250 1.959 . S
N231 Cu230 1.999 . S
N231 C233 1.263 . S
N231 C235 1.389 . S
N232 C233 1.358 . S
N232 C234 1.400 . S
C233 N231 1.263 . S
C233 N232 1.358 . S
C233 H239 0.930 . S
C234 N232 1.400 . S
C234 C235 1.351 . S
C234 H251 0.930 . S
C235 N231 1.389 . S
C235 C234 1.351 . S
C235 H240 0.930 . S
O236 Cu230 1.974 . S
O236 C246 1.282 . S
C237 O238 1.261 . S
C237 O250 1.251 . S
O238 C237 1.261 . S
H239 C233 0.930 . S
H240 C235 0.930 . S
N241 Cu230 1.985 . S
N241 C243 1.335 . S
N241 C244 1.390 . S
N242 C243 1.345 . S
N242 C245 1.336 . S
C243 N241 1.335 . S
C243 N242 1.345 . S
C243 H248 0.930 . S
C244 N241 1.390 . S
C244 C245 1.346 . S
C244 H249 0.930 . S
C245 N242 1.336 . S
C245 C244 1.346 . S
C245 H252 0.929 . S
C246 O236 1.282 . S
C246 O247 1.216 . S
O247 C246 1.216 . S
H248 C243 0.930 . S
H249 C244 0.930 . S
O250 Cu230 1.959 . S
O250 C237 1.251 . S
H251 C234 0.930 . S
H252 C245 0.929 . S
Cu253 N254 1.999 . S
Cu253 O259 1.974 . S
Cu253 N264 1.985 . S
Cu253 O273 1.959 . S
N254 Cu253 1.999 . S
N254 C256 1.263 . S
N254 C258 1.389 . S
N255 C256 1.358 . S
N255 C257 1.400 . S
C256 N254 1.263 . S
C256 N255 1.358 . S
C256 H262 0.930 . S
C257 N255 1.400 . S
C257 C258 1.351 . S
C257 H274 0.930 . S
C258 N254 1.389 . S
C258 C257 1.351 . S
C258 H263 0.930 . S
O259 Cu253 1.974 . S
O259 C269 1.282 . S
C260 O261 1.261 . S
C260 O273 1.251 . S
O261 C260 1.261 . S
H262 C256 0.930 . S
H263 C258 0.930 . S
N264 Cu253 1.985 . S
N264 C266 1.335 . S
N264 C267 1.390 . S
N265 C266 1.345 . S
N265 C268 1.336 . S
C266 N264 1.335 . S
C266 N265 1.345 . S
C266 H271 0.930 . S
C267 N264 1.390 . S
C267 C268 1.346 . S
C267 H272 0.930 . S
C268 N265 1.336 . S
C268 C267 1.346 . S
C268 H275 0.929 . S
C269 O259 1.282 . S
C269 O270 1.216 . S
O270 C269 1.216 . S
H271 C266 0.930 . S
H272 C267 0.930 . S
O273 Cu253 1.959 . S
O273 C260 1.251 . S
H274 C257 0.930 . S
H275 C268 0.929 . S
C276 C277 1.387 . S
C276 H280 0.950 . S
C276 C285 1.390 . S
C277 C276 1.387 . S
C277 C279 1.387 . S
H278 C285 0.950 . S
C279 C277 1.387 . S
C279 C281 1.390 . S
C279 H283 0.950 . S
H280 C276 0.950 . S
C281 C279 1.390 . S
C281 C282 1.387 . S
C281 H284 0.950 . S
C282 C281 1.387 . S
C282 C285 1.387 . S
H283 C279 0.950 . S
H284 C281 0.950 . S
C285 C276 1.390 . S
C285 H278 0.950 . S
C285 C282 1.387 . S
C286 C287 1.387 . S
C286 H290 0.950 . S
C286 C295 1.390 . S
C287 C286 1.387 . S
C287 C289 1.387 . S
H288 C295 0.950 . S
C289 C287 1.387 . S
C289 C291 1.390 . S
C289 H293 0.950 . S
H290 C286 0.950 . S
C291 C289 1.390 . S
C291 C292 1.387 . S
C291 H294 0.950 . S
C292 C291 1.387 . S
C292 C295 1.387 . S
H293 C289 0.950 . S
H294 C291 0.950 . S
C295 C286 1.390 . S
C295 H288 0.950 . S
C295 C292 1.387 . S
C296 C297 1.387 . S
C296 H300 0.950 . S
C296 C305 1.390 . S
C297 C296 1.387 . S
C297 C299 1.387 . S
H298 C305 0.950 . S
C299 C297 1.387 . S
C299 C301 1.390 . S
C299 H303 0.950 . S
H300 C296 0.950 . S
C301 C299 1.390 . S
C301 C302 1.387 . S
C301 H304 0.950 . S
C302 C301 1.387 . S
C302 C305 1.387 . S
H303 C299 0.950 . S
H304 C301 0.950 . S
C305 C296 1.390 . S
C305 H298 0.950 . S
C305 C302 1.387 . S
C306 C307 1.387 . S
C306 H310 0.950 . S
C306 C315 1.390 . S
C307 C306 1.387 . S
C307 C309 1.387 . S
H308 C315 0.950 . S
C309 C307 1.387 . S
C309 C311 1.390 . S
C309 H313 0.950 . S
H310 C306 0.950 . S
C311 C309 1.390 . S
C311 C312 1.387 . S
C311 H314 0.950 . S
C312 C311 1.387 . S
C312 C315 1.387 . S
H313 C309 0.950 . S
H314 C311 0.950 . S
C315 C306 1.390 . S
C315 H308 0.950 . S
C315 C312 1.387 . S
C316 C317 1.387 . S
C316 H320 0.950 . S
C316 C325 1.390 . S
C317 C316 1.387 . S
C317 C319 1.387 . S
H318 C325 0.950 . S
C319 C317 1.387 . S
C319 C321 1.390 . S
C319 H323 0.950 . S
H320 C316 0.950 . S
C321 C319 1.390 . S
C321 C322 1.387 . S
C321 H324 0.950 . S
C322 C321 1.387 . S
C322 C325 1.387 . S
H323 C319 0.950 . S
H324 C321 0.950 . S
C325 C316 1.390 . S
C325 H318 0.950 . S
C325 C322 1.387 . S
C326 C327 1.387 . S
C326 H330 0.950 . S
C326 C335 1.390 . S
C327 C326 1.387 . S
C327 C329 1.387 . S
H328 C335 0.950 . S
C329 C327 1.387 . S
C329 C331 1.390 . S
C329 H333 0.950 . S
H330 C326 0.950 . S
C331 C329 1.390 . S
C331 C332 1.387 . S
C331 H334 0.950 . S
C332 C331 1.387 . S
C332 C335 1.387 . S
H333 C329 0.950 . S
H334 C331 0.950 . S
C335 C326 1.390 . S
C335 H328 0.950 . S
C335 C332 1.387 . S
C336 C337 1.387 . S
C336 H340 0.950 . S
C336 C345 1.390 . S
C337 C336 1.387 . S
C337 C339 1.387 . S
H338 C345 0.950 . S
C339 C337 1.387 . S
C339 C341 1.390 . S
C339 H343 0.950 . S
H340 C336 0.950 . S
C341 C339 1.390 . S
C341 C342 1.387 . S
C341 H344 0.950 . S
C342 C341 1.387 . S
C342 C345 1.387 . S
H343 C339 0.950 . S
H344 C341 0.950 . S
C345 C336 1.390 . S
C345 H338 0.950 . S
C345 C342 1.387 . S
C346 C347 1.387 . S
C346 H350 0.950 . S
C346 C355 1.390 . S
C347 C346 1.387 . S
C347 C349 1.387 . S
H348 C355 0.950 . S
C349 C347 1.387 . S
C349 C351 1.390 . S
C349 H353 0.950 . S
H350 C346 0.950 . S
C351 C349 1.390 . S
C351 C352 1.387 . S
C351 H354 0.950 . S
C352 C351 1.387 . S
C352 C355 1.387 . S
H353 C349 0.950 . S
H354 C351 0.950 . S
C355 C346 1.390 . S
C355 H348 0.950 . S
C355 C352 1.387 . S
C356 C357 1.387 . S
C356 H360 0.950 . S
C356 C365 1.390 . S
C357 C356 1.387 . S
C357 C359 1.387 . S
H358 C365 0.950 . S
C359 C357 1.387 . S
C359 C361 1.390 . S
C359 H363 0.950 . S
H360 C356 0.950 . S
C361 C359 1.390 . S
C361 C362 1.387 . S
C361 H364 0.950 . S
C362 C361 1.387 . S
C362 C365 1.387 . S
H363 C359 0.950 . S
H364 C361 0.950 . S
C365 C356 1.390 . S
C365 H358 0.950 . S
C365 C362 1.387 . S
C366 C367 1.387 . S
C366 H370 0.950 . S
C366 C375 1.390 . S
C367 C366 1.387 . S
C367 C369 1.387 . S
H368 C375 0.950 . S
C369 C367 1.387 . S
C369 C371 1.390 . S
C369 H373 0.950 . S
H370 C366 0.950 . S
C371 C369 1.390 . S
C371 C372 1.387 . S
C371 H374 0.950 . S
C372 C371 1.387 . S
C372 C375 1.387 . S
H373 C369 0.950 . S
H374 C371 0.950 . S
C375 C366 1.390 . S
C375 H368 0.950 . S
C375 C372 1.387 . S
C376 C377 1.387 . S
C376 H380 0.950 . S
C376 C385 1.390 . S
C377 C376 1.387 . S
C377 C379 1.387 . S
H378 C385 0.950 . S
C379 C377 1.387 . S
C379 C381 1.390 . S
C379 H383 0.950 . S
H380 C376 0.950 . S
C381 C379 1.390 . S
C381 C382 1.387 . S
C381 H384 0.950 . S
C382 C381 1.387 . S
C382 C385 1.387 . S
H383 C379 0.950 . S
H384 C381 0.950 . S
C385 C376 1.390 . S
C385 H378 0.950 . S
C385 C382 1.387 . S
C386 C387 1.387 . S
C386 H390 0.950 . S
C386 C395 1.390 . S
C387 C386 1.387 . S
C387 C389 1.387 . S
H388 C395 0.950 . S
C389 C387 1.387 . S
C389 C391 1.390 . S
C389 H393 0.950 . S
H390 C386 0.950 . S
C391 C389 1.390 . S
C391 C392 1.387 . S
C391 H394 0.950 . S
C392 C391 1.387 . S
C392 C395 1.387 . S
H393 C389 0.950 . S
H394 C391 0.950 . S
C395 C386 1.390 . S
C395 H388 0.950 . S
C395 C392 1.387 . S
C396 C397 1.387 . S
C396 H400 0.950 . S
C396 C405 1.390 . S
C397 C396 1.387 . S
C397 C399 1.387 . S
H398 C405 0.950 . S
C399 C397 1.387 . S
C399 C401 1.390 . S
C399 H403 0.950 . S
H400 C396 0.950 . S
C401 C399 1.390 . S
C401 C402 1.387 . S
C401 H404 0.950 . S
C402 C401 1.387 . S
C402 C405 1.387 . S
H403 C399 0.950 . S
H404 C401 0.950 . S
C405 C396 1.390 . S
C405 H398 0.950 . S
C405 C402 1.387 . S
C406 C407 1.387 . S
C406 H410 0.950 . S
C406 C415 1.390 . S
C407 C406 1.387 . S
C407 C409 1.387 . S
H408 C415 0.950 . S
C409 C407 1.387 . S
C409 C411 1.390 . S
C409 H413 0.950 . S
H410 C406 0.950 . S
C411 C409 1.390 . S
C411 C412 1.387 . S
C411 H414 0.950 . S
C412 C411 1.387 . S
C412 C415 1.387 . S
H413 C409 0.950 . S
H414 C411 0.950 . S
C415 C406 1.390 . S
C415 H408 0.950 . S
C415 C412 1.387 . S
C416 C417 1.387 . S
C416 H420 0.950 . S
C416 C425 1.390 . S
C417 C416 1.387 . S
C417 C419 1.387 . S
H418 C425 0.950 . S
C419 C417 1.387 . S
C419 C421 1.390 . S
C419 H423 0.950 . S
H420 C416 0.950 . S
C421 C419 1.390 . S
C421 C422 1.387 . S
C421 H424 0.950 . S
C422 C421 1.387 . S
C422 C425 1.387 . S
H423 C419 0.950 . S
H424 C421 0.950 . S
C425 C416 1.390 . S
C425 H418 0.950 . S
C425 C422 1.387 . S
C426 C427 1.387 . S
C426 H430 0.950 . S
C426 C435 1.390 . S
C427 C426 1.387 . S
C427 C429 1.387 . S
H428 C435 0.950 . S
C429 C427 1.387 . S
C429 C431 1.390 . S
C429 H433 0.950 . S
H430 C426 0.950 . S
C431 C429 1.390 . S
C431 C432 1.387 . S
C431 H434 0.950 . S
C432 C431 1.387 . S
C432 C435 1.387 . S
H433 C429 0.950 . S
H434 C431 0.950 . S
C435 C426 1.390 . S
C435 H428 0.950 . S
C435 C432 1.387 . S
C436 C437 1.387 . S
C436 H440 0.950 . S
C436 C445 1.390 . S
C437 C436 1.387 . S
C437 C439 1.387 . S
H438 C445 0.950 . S
C439 C437 1.387 . S
C439 C441 1.390 . S
C439 H443 0.950 . S
H440 C436 0.950 . S
C441 C439 1.390 . S
C441 C442 1.387 . S
C441 H444 0.950 . S
C442 C441 1.387 . S
C442 C445 1.387 . S
H443 C439 0.950 . S
H444 C441 0.950 . S
C445 C436 1.390 . S
C445 H438 0.950 . S
C445 C442 1.387 . S
C446 C447 1.387 . S
C446 H450 0.950 . S
C446 C455 1.390 . S
C447 C446 1.387 . S
C447 C449 1.387 . S
H448 C455 0.950 . S
C449 C447 1.387 . S
C449 C451 1.390 . S
C449 H453 0.950 . S
H450 C446 0.950 . S
C451 C449 1.390 . S
C451 C452 1.387 . S
C451 H454 0.950 . S
C452 C451 1.387 . S
C452 C455 1.387 . S
H453 C449 0.950 . S
H454 C451 0.950 . S
C455 C446 1.390 . S
C455 H448 0.950 . S
C455 C452 1.387 . S
C456 C457 1.387 . S
C456 H460 0.950 . S
C456 C465 1.390 . S
C457 C456 1.387 . S
C457 C459 1.387 . S
H458 C465 0.950 . S
C459 C457 1.387 . S
C459 C461 1.390 . S
C459 H463 0.950 . S
H460 C456 0.950 . S
C461 C459 1.390 . S
C461 C462 1.387 . S
C461 H464 0.950 . S
C462 C461 1.387 . S
C462 C465 1.387 . S
H463 C459 0.950 . S
H464 C461 0.950 . S
C465 C456 1.390 . S
C465 H458 0.950 . S
C465 C462 1.387 . S
C466 C467 1.387 . S
C466 H470 0.950 . S
C466 C475 1.390 . S
C467 C466 1.387 . S
C467 C469 1.387 . S
H468 C475 0.950 . S
C469 C467 1.387 . S
C469 C471 1.390 . S
C469 H473 0.950 . S
H470 C466 0.950 . S
C471 C469 1.390 . S
C471 C472 1.387 . S
C471 H474 0.950 . S
C472 C471 1.387 . S
C472 C475 1.387 . S
H473 C469 0.950 . S
H474 C471 0.950 . S
C475 C466 1.390 . S
C475 H468 0.950 . S
C475 C472 1.387 . S
C476 C477 1.387 . S
C476 H480 0.950 . S
C476 C485 1.390 . S
C477 C476 1.387 . S
C477 C479 1.387 . S
H478 C485 0.950 . S
C479 C477 1.387 . S
C479 C481 1.390 . S
C479 H483 0.950 . S
H480 C476 0.950 . S
C481 C479 1.390 . S
C481 C482 1.387 . S
C481 H484 0.950 . S
C482 C481 1.387 . S
C482 C485 1.387 . S
H483 C479 0.950 . S
H484 C481 0.950 . S
C485 C476 1.390 . S
C485 H478 0.950 . S
C485 C482 1.387 . S
C486 C487 1.387 . S
C486 H490 0.950 . S
C486 C495 1.390 . S
C487 C486 1.387 . S
C487 C489 1.387 . S
H488 C495 0.950 . S
C489 C487 1.387 . S
C489 C491 1.390 . S
C489 H493 0.950 . S
H490 C486 0.950 . S
C491 C489 1.390 . S
C491 C492 1.387 . S
C491 H494 0.950 . S
C492 C491 1.387 . S
C492 C495 1.387 . S
H493 C489 0.950 . S
H494 C491 0.950 . S
C495 C486 1.390 . S
C495 H488 0.950 . S
C495 C492 1.387 . S
C496 C497 1.387 . S
C496 H500 0.950 . S
C496 C505 1.390 . S
C497 C496 1.387 . S
C497 C499 1.387 . S
H498 C505 0.950 . S
C499 C497 1.387 . S
C499 C501 1.390 . S
C499 H503 0.950 . S
H500 C496 0.950 . S
C501 C499 1.390 . S
C501 C502 1.387 . S
C501 H504 0.950 . S
C502 C501 1.387 . S
C502 C505 1.387 . S
H503 C499 0.950 . S
H504 C501 0.950 . S
C505 C496 1.390 . S
C505 H498 0.950 . S
C505 C502 1.387 . S
C506 C507 1.387 . S
C506 H510 0.950 . S
C506 C515 1.390 . S
C507 C506 1.387 . S
C507 C509 1.387 . S
H508 C515 0.950 . S
C509 C507 1.387 . S
C509 C511 1.390 . S
C509 H513 0.950 . S
H510 C506 0.950 . S
C511 C509 1.390 . S
C511 C512 1.387 . S
C511 H514 0.950 . S
C512 C511 1.387 . S
C512 C515 1.387 . S
H513 C509 0.950 . S
H514 C511 0.950 . S
C515 C506 1.390 . S
C515 H508 0.950 . S
C515 C512 1.387 . S
C277 C7 2.266 . S
C282 C145 2.235 . S
C287 C30 1.371 . S
C292 N163 1.368 . S
C302 C191 2.067 . S
C297 N58 2.035 . S
C312 N209 1.280 . S
C307 N81 1.210 . S
C322 C237 2.147 . S
C317 C99 2.188 . S
C332 N255 1.340 . S
C327 N127 1.263 . S
C337 N25 2.059 . S
C342 C200 2.097 . S
C347 C62 1.386 . S
C352 N219 1.278 . S
C362 C246 2.203 . S
C357 C85 2.196 . S
C372 N265 1.233 . S
C367 N94 1.302 . S
C377 C131 2.200 . S
C382 C154 2.182 . S
C392 N173 1.175 . S
C387 N2 1.228 . S
C402 C223 2.059 . S
C397 C16 2.094 . S
C407 C39 1.182 . S
C412 N242 1.172 . S
C422 C269 1.907 . S
C417 N48 1.920 . S
C427 N71 1.074 . S
C432 N150 1.087 . S
C437 C108 2.042 . S
C442 C177 2.000 . S
C447 N117 1.094 . S
C452 N196 1.119 . S
C457 N35 1.908 . S
C462 C260 1.942 . S
C472 N140 1.135 . S
C467 C53 1.198 . S
C477 C76 2.125 . S
C482 C168 2.113 . S
C487 N104 1.088 . S
C492 N186 1.056 . S
C497 C122 2.061 . S
C502 C214 2.046 . S
C507 N12 1.047 . S
C512 N232 1.027 . S
