# Generated by pormake.
# Topology bcu-b, (8,8)-cn, num edge types: 1
# Building blocks:
#     Node 0, Type 0, BuildingBlock: VETTIZ_charged_sbu_0, # of connection points: 8
#     Node 1, Type 1, BuildingBlock: GIZVER_clean_sbu_0, # of connection points: 8
#     Edge 2, Type (0, 1), BuildingBlock: UVAHIK_clean_linker_0, # of connection points: 2
#     Edge 3, Type (0, 1), BuildingBlock: UVAHIK_clean_linker_0, # of connection points: 2
#     Edge 4, Type (0, 1), BuildingBlock: UVAHIK_clean_linker_0, # of connection points: 2
#     Edge 5, Type (0, 1), BuildingBlock: UVAHIK_clean_linker_0, # of connection points: 2
#     Edge 6, Type (0, 1), BuildingBlock: UVAHIK_clean_linker_0, # of connection points: 2
#     Edge 7, Type (0, 1), BuildingBlock: UVAHIK_clean_linker_0, # of connection points: 2
#     Edge 8, Type (0, 1), BuildingBlock: UVAHIK_clean_linker_0, # of connection points: 2
#     Edge 9, Type (0, 1), BuildingBlock: UVAHIK_clean_linker_0, # of connection points: 2
# Relax obj value: 0.082
# Max RMSD: 0.155
# Mean RMSD: 0.139
data_MOF--net-bcu-b--node1-VETTIZ_charged_sbu_0--node2-GIZVER_clean_sbu_0--edge1-UVAHIK_clean_linker_0
_symmetry_space_group_name_H-M    P1
_symmetry_Int_Tables_number       1
_symmetry_cell_setting            triclinic
loop_
_symmetry_equiv_pos_as_xyz
'x, y, z'
_cell_length_a     25.934308
_cell_length_b     28.195385
_cell_length_c     20.71448
_cell_angle_alpha  89.080131
_cell_angle_beta   92.239107
_cell_angle_gamma 98.910106
loop_
_atom_site_label
_atom_site_type_symbol
_atom_site_fract_x
_atom_site_fract_y
_atom_site_fract_z
_atom_type_partial_charge
Fe0 Fe 1.00022 0.9603 1.01827 0.0
O1 O 0.9718 1.00792 0.07186 0.0
Fe2 Fe 0.02855 0.0239 0.87487 0.0
Fe3 Fe 0.97552 1.00656 0.1666 0.0
O4 O 0.03308 0.01831 0.96963 0.0
O5 O 0.03303 0.02297 0.96976 0.0
O6 O 0.97156 1.01259 0.07187 0.0
Fe7 Fe 0.00487 0.07057 0.02374 0.0
C8 C 0.92561 0.90777 0.11939 0.0
O9 O 0.06626 0.9634 0.07709 0.0
O10 O 0.02981 0.96032 0.17302 0.0
O11 O 0.04553 0.12532 0.96618 0.0
O12 O 0.0829 0.08497 0.88826 0.0
O13 O 0.0771 0.97235 0.882 0.0
O14 O 0.03541 0.91804 0.9551 0.0
O15 O 0.03577 0.06323 0.17909 0.0
O16 O 0.07095 0.07646 0.08273 0.0
C17 C 0.06816 0.93007 0.90915 0.0
O18 O 0.93873 0.06801 0.96484 0.0
O19 O 0.97443 0.07016 0.86868 0.0
O20 O 0.9604 0.90548 0.07616 0.0
O21 O 0.92057 0.94597 0.15153 0.0
C22 C 0.06719 0.95443 0.13745 0.0
C23 C 0.07325 0.08098 0.14379 0.0
C24 C 0.93672 0.10071 0.13285 0.0
O25 O 0.92731 0.05827 0.15937 0.0
O26 O 0.96974 0.1129 0.08718 0.0
C27 C 0.07838 0.12332 0.9204 0.0
O28 O 0.96857 0.96698 0.8632 0.0
O29 O 0.93386 0.95352 0.95976 0.0
C30 C 0.93755 0.07699 0.90447 0.0
C31 C 0.93144 0.94888 0.89876 0.0
Co32 Co 0.56801 0.42256 0.49811 0.0
Co33 Co 0.57578 0.45937 0.61108 0.0
Co34 Co 0.5022 0.51543 0.51981 0.0
O35 O 0.56629 0.48505 0.53042 0.0
H36 H 0.59718 0.50726 0.52 0.0
O37 O 0.43768 0.54567 0.50989 0.0
Co38 Co 0.43508 0.60652 0.54714 0.0
Co39 Co 0.42846 0.57564 0.433 0.0
H40 H 0.40678 0.52283 0.51826 0.0
O41 O 0.64123 0.4518 0.64276 0.0
O42 O 0.5837 0.398 0.58653 0.0
O43 O 0.51828 0.45533 0.6678 0.0
O44 O 0.46336 0.47701 0.59129 0.0
O45 O 0.53511 0.56499 0.58302 0.0
O46 O 0.42686 0.66028 0.58581 0.0
O47 O 0.36701 0.59462 0.5668 0.0
O48 O 0.50704 0.62654 0.53356 0.0
O49 O 0.54119 0.55368 0.44773 0.0
O50 O 0.48635 0.58372 0.37836 0.0
O51 O 0.41704 0.6348 0.46158 0.0
O52 O 0.36347 0.58106 0.39968 0.0
C53 C 0.62315 0.38933 0.45701 0.0
C54 C 0.46375 0.42093 0.4705 0.0
C55 C 0.47246 0.45942 0.64718 0.0
C56 C 0.627 0.40853 0.62115 0.0
C57 C 0.37993 0.63702 0.59241 0.0
C58 C 0.54001 0.60985 0.57095 0.0
C59 C 0.53178 0.5757 0.39498 0.0
C60 C 0.37536 0.62379 0.42397 0.0
O61 O 0.57592 0.36683 0.46415 0.0
O62 O 0.63638 0.4325 0.48012 0.0
O63 O 0.46949 0.46563 0.45687 0.0
O64 O 0.49548 0.40453 0.51006 0.0
C65 C 0.1492 0.1475 0.13818 0.0
C66 C 0.11869 0.11181 0.17442 0.0
C67 C 0.18824 0.18029 0.16856 0.0
C68 C 0.27645 0.19938 0.30985 0.0
H69 H 0.26617 0.33445 0.28749 0.0
C70 C 0.40417 0.34237 0.46581 0.0
C71 C 0.42206 0.3872 0.43761 0.0
C72 C 0.36697 0.30915 0.43331 0.0
C73 C 0.27037 0.29702 0.29352 0.0
H74 H 0.10708 0.08091 0.27031 0.0
H75 H 0.17652 0.13737 0.32297 0.0
H76 H 0.20481 0.27447 0.22892 0.0
H77 H 0.41484 0.43267 0.35348 0.0
H78 H 0.35159 0.37411 0.2954 0.0
H79 H 0.34278 0.22137 0.37266 0.0
C80 C 0.16949 0.14034 0.27127 0.0
C81 C 0.235 0.26269 0.26008 0.0
C82 C 0.12972 0.10818 0.24116 0.0
C83 C 0.40147 0.39847 0.37659 0.0
C84 C 0.36497 0.36487 0.34345 0.0
C85 C 0.31246 0.23369 0.34236 0.0
C86 C 0.19834 0.17727 0.23546 0.0
C87 C 0.23747 0.21358 0.26841 0.0
C88 C 0.34746 0.31954 0.37115 0.0
C89 C 0.30964 0.28303 0.33523 0.0
H90 H 0.14173 0.15113 0.08672 0.0
H91 H 0.2103 0.20826 0.13987 0.0
H92 H 0.27937 0.16169 0.3166 0.0
H93 H 0.41892 0.33293 0.51319 0.0
H94 H 0.35352 0.27531 0.45719 0.0
C95 C 0.89503 0.1335 0.22518 0.0
C96 C 0.91015 0.13816 0.16064 0.0
C97 C 0.87008 0.16805 0.25295 0.0
C98 C 0.78491 0.25567 0.21586 0.0
H99 H 0.82451 0.29895 0.39036 0.0
C100 C 0.64271 0.32492 0.38452 0.0
C101 C 0.66072 0.36601 0.42141 0.0
C102 C 0.67709 0.30362 0.34839 0.0
C103 C 0.81334 0.28772 0.34136 0.0
H104 H 0.91088 0.18294 0.07455 0.0
H105 H 0.86555 0.24329 0.12315 0.0
H106 H 0.8792 0.2509 0.33413 0.0
H107 H 0.72921 0.4167 0.44972 0.0
H108 H 0.78976 0.3786 0.38738 0.0
H109 H 0.71802 0.29104 0.224 0.0
C110 C 0.87378 0.21282 0.15209 0.0
C111 C 0.84445 0.26001 0.30933 0.0
C112 C 0.89977 0.17845 0.12441 0.0
C113 C 0.71414 0.38506 0.42183 0.0
C114 C 0.74878 0.36327 0.38622 0.0
C115 C 0.75344 0.28292 0.24821 0.0
C116 C 0.85893 0.20795 0.2168 0.0
C117 C 0.82998 0.24286 0.24679 0.0
C118 C 0.73047 0.32251 0.34876 0.0
C119 C 0.76678 0.29838 0.31179 0.0
H120 H 0.90282 0.10317 0.25472 0.0
H121 H 0.8585 0.16298 0.30259 0.0
H122 H 0.77269 0.24274 0.16786 0.0
H123 H 0.60178 0.30938 0.38287 0.0
H124 H 0.66195 0.27182 0.32085 0.0
C125 C 0.90621 0.81901 0.13992 0.0
C126 C 0.88904 0.86383 0.13397 0.0
C127 C 0.87184 0.77839 0.15936 0.0
C128 C 0.73713 0.72373 0.15998 0.0
H129 H 0.75919 0.67698 0.33437 0.0
C130 C 0.56764 0.63008 0.3056 0.0
C131 C 0.57578 0.59669 0.35461 0.0
C132 C 0.60934 0.65378 0.27128 0.0
C133 C 0.75285 0.68847 0.28497 0.0
H134 H 0.82247 0.90118 0.14059 0.0
H135 H 0.76205 0.82988 0.17193 0.0
H136 H 0.82708 0.73442 0.28523 0.0
H137 H 0.63418 0.5605 0.40395 0.0
H138 H 0.70708 0.60091 0.34241 0.0
H139 H 0.66317 0.67826 0.15892 0.0
C140 C 0.80214 0.82638 0.16278 0.0
C141 C 0.79176 0.72152 0.25705 0.0
C142 C 0.83667 0.86706 0.14517 0.0
C143 C 0.62658 0.58623 0.36675 0.0
C144 C 0.66843 0.60964 0.3317 0.0
C145 C 0.69869 0.69001 0.18725 0.0
C146 C 0.81961 0.78195 0.17101 0.0
C147 C 0.78339 0.74051 0.19522 0.0
C148 C 0.66046 0.64436 0.28419 0.0
C149 C 0.7051 0.67334 0.25112 0.0
H150 H 0.94654 0.81577 0.13185 0.0
H151 H 0.886 0.74437 0.16569 0.0
H152 H 0.73009 0.73786 0.11202 0.0
H153 H 0.52919 0.6394 0.29509 0.0
H154 H 0.60149 0.68095 0.23633 0.0
C155 C 0.13363 0.89937 0.13074 0.0
C156 C 0.10993 0.93129 0.1666 0.0
C157 C 0.16846 0.87212 0.16105 0.0
C158 C 0.20374 0.82803 0.32495 0.0
H159 H 0.31116 0.77955 0.23194 0.0
C160 C 0.34783 0.70485 0.43493 0.0
C161 C 0.34583 0.66193 0.4006 0.0
C162 C 0.32227 0.74181 0.40991 0.0
C163 C 0.28138 0.79305 0.25847 0.0
H164 H 0.10668 0.96242 0.26099 0.0
H165 H 0.16942 0.9169 0.31328 0.0
H166 H 0.26428 0.83965 0.18088 0.0
H167 H 0.31546 0.6241 0.31337 0.0
H168 H 0.27219 0.68898 0.26935 0.0
H169 H 0.22198 0.78162 0.40291 0.0
C170 C 0.1596 0.91109 0.26245 0.0
C171 C 0.25418 0.8272 0.22914 0.0
C172 C 0.12396 0.93756 0.23241 0.0
C173 C 0.31754 0.65658 0.3412 0.0
C174 C 0.2931 0.6938 0.31568 0.0
C175 C 0.23172 0.79456 0.35469 0.0
C176 C 0.18118 0.87691 0.22769 0.0
C177 C 0.21408 0.84438 0.26135 0.0
C178 C 0.2955 0.7368 0.34953 0.0
C179 C 0.26992 0.77603 0.32113 0.0
H180 H 0.12317 0.89356 0.08001 0.0
H181 H 0.1835 0.84581 0.13259 0.0
H182 H 0.17266 0.83958 0.35114 0.0
H183 H 0.36928 0.70994 0.48084 0.0
H184 H 0.32444 0.7747 0.43689 0.0
C185 C 0.10203 0.85091 0.91784 0.0
C186 C 0.09507 0.8925 0.88224 0.0
C187 C 0.12739 0.81584 0.89091 0.0
C188 C 0.1606 0.77006 0.73461 0.0
H189 H 0.27984 0.73034 0.82709 0.0
C190 C 0.2884 0.64156 0.62531 0.0
C191 C 0.34218 0.65914 0.6292 0.0
C192 C 0.25341 0.66333 0.66039 0.0
C193 C 0.24636 0.74085 0.8009 0.0
H194 H 0.10833 0.92925 0.78999 0.0
H195 H 0.15173 0.86826 0.74344 0.0
H196 H 0.22611 0.78078 0.88091 0.0
H197 H 0.40148 0.7127 0.67375 0.0
H198 H 0.34075 0.75013 0.73489 0.0
H199 H 0.18173 0.73144 0.65397 0.0
C200 C 0.13777 0.8627 0.79202 0.0
C201 C 0.21543 0.76936 0.83186 0.0
C202 C 0.11335 0.89791 0.81909 0.0
C203 C 0.36027 0.69836 0.66943 0.0
C204 C 0.32554 0.71957 0.70502 0.0
C205 C 0.19114 0.74111 0.70392 0.0
C206 C 0.14517 0.82135 0.82752 0.0
C207 C 0.17313 0.78536 0.79838 0.0
C208 C 0.27174 0.70248 0.70075 0.0
C209 C 0.23518 0.72731 0.73617 0.0
H210 H 0.08843 0.84571 0.9666 0.0
H211 H 0.1327 0.78426 0.91934 0.0
H212 H 0.12792 0.78159 0.70787 0.0
H213 H 0.27331 0.61141 0.59469 0.0
H214 H 0.21209 0.64945 0.65622 0.0
C215 C 0.12872 0.17396 0.83748 0.0
C216 C 0.11251 0.16798 0.90148 0.0
C217 C 0.16307 0.21456 0.8192 0.0
C218 C 0.27483 0.29097 0.86595 0.0
H219 H 0.23761 0.38297 0.73804 0.0
C220 C 0.43399 0.42935 0.75235 0.0
C221 C 0.42763 0.4381 0.68577 0.0
C222 C 0.39264 0.40495 0.78717 0.0
C223 C 0.24891 0.35744 0.77339 0.0
H224 H 0.11861 0.20053 0.99612 0.0
H225 H 0.18126 0.27101 0.96439 0.0
H226 H 0.16956 0.3234 0.78306 0.0
H227 H 0.3726 0.42878 0.60371 0.0
H228 H 0.30162 0.38474 0.66322 0.0
H229 H 0.35433 0.32173 0.85304 0.0
C230 C 0.16633 0.24426 0.9286 0.0
C231 C 0.20977 0.3238 0.79964 0.0
C232 C 0.13069 0.20406 0.94663 0.0
C233 C 0.37868 0.42308 0.65513 0.0
C234 C 0.3377 0.39796 0.68959 0.0
C235 C 0.31417 0.32395 0.83878 0.0
C236 C 0.18275 0.24958 0.86475 0.0
C237 C 0.22258 0.28988 0.84527 0.0
C238 C 0.34422 0.3879 0.75598 0.0
C239 C 0.3019 0.35698 0.79094 0.0
H240 H 0.11497 0.14709 0.80138 0.0
H241 H 0.17548 0.21799 0.76976 0.0
H242 H 0.2855 0.26457 0.90051 0.0
H243 H 0.47116 0.44083 0.77742 0.0
H244 H 0.39899 0.39889 0.8384 0.0
C245 C 0.85939 0.11903 0.91399 0.0
C246 C 0.89488 0.10064 0.8753 0.0
C247 C 0.82337 0.14629 0.88624 0.0
C248 C 0.76468 0.1815 0.72847 0.0
H249 H 0.75389 0.29854 0.81911 0.0
C250 C 0.63647 0.32147 0.63297 0.0
C251 C 0.65677 0.3701 0.64303 0.0
C252 C 0.66205 0.28527 0.66014 0.0
C253 C 0.75674 0.26617 0.79291 0.0
H254 H 0.91821 0.09426 0.77663 0.0
H255 H 0.85645 0.14218 0.72886 0.0
H256 H 0.80194 0.2396 0.86985 0.0
H257 H 0.72142 0.41879 0.68628 0.0
H258 H 0.76643 0.35596 0.73215 0.0
H259 H 0.72127 0.20924 0.65033 0.0
C260 C 0.8559 0.13534 0.78044 0.0
C261 C 0.7836 0.23193 0.82252 0.0
C262 C 0.89175 0.10813 0.80805 0.0
C263 C 0.70432 0.38172 0.67828 0.0
C264 C 0.72994 0.34564 0.70508 0.0
C265 C 0.73792 0.21589 0.6987 0.0
C266 C 0.82203 0.15568 0.81927 0.0
C267 C 0.78862 0.18948 0.79032 0.0
C268 C 0.70856 0.297 0.69765 0.0
C269 C 0.73442 0.25902 0.73016 0.0
H270 H 0.86056 0.11378 0.96592 0.0
H271 H 0.79724 0.1608 0.91745 0.0
H272 H 0.76722 0.14892 0.7026 0.0
H273 H 0.59994 0.31129 0.60591 0.0
H274 H 0.64445 0.24818 0.65353 0.0
C275 C 0.85946 0.87868 0.90283 0.0
C276 C 0.88641 0.91749 0.86833 0.0
C277 C 0.82107 0.84562 0.87168 0.0
C278 C 0.77602 0.80355 0.70601 0.0
H279 H 0.65721 0.73658 0.79558 0.0
C280 C 0.59735 0.68967 0.57828 0.0
C281 C 0.58198 0.64338 0.60383 0.0
C282 C 0.63532 0.72226 0.61067 0.0
C283 C 0.69045 0.75485 0.77022 0.0
H284 H 0.89235 0.95376 0.77535 0.0
H285 H 0.82372 0.8978 0.72181 0.0
H286 H 0.71917 0.79726 0.85238 0.0
H287 H 0.59444 0.59488 0.68326 0.0
H288 H 0.6601 0.6525 0.74071 0.0
H289 H 0.74586 0.76209 0.62323 0.0
C290 C 0.83356 0.89139 0.77213 0.0
C291 C 0.72613 0.78952 0.80273 0.0
C292 C 0.8726 0.92385 0.80294 0.0
C293 C 0.60563 0.63024 0.66228 0.0
C294 C 0.6429 0.66322 0.69534 0.0
C295 C 0.73983 0.76955 0.67329 0.0
C296 C 0.80809 0.85112 0.80557 0.0
C297 C 0.76948 0.81442 0.77107 0.0
C298 C 0.65798 0.70953 0.66984 0.0
C299 C 0.69678 0.74486 0.70508 0.0
H300 H 0.86961 0.87263 0.95321 0.0
H301 H 0.80296 0.8149 0.89906 0.0
H302 H 0.80947 0.82085 0.68028 0.0
H303 H 0.57994 0.70077 0.53324 0.0
H304 H 0.64618 0.75783 0.59016 0.0
loop_
_geom_bond_atom_site_label_1
_geom_bond_atom_site_label_2
_geom_bond_distance
_geom_bond_site_symmetry_2
_ccdc_geom_bond_type
Fe0 O1 1.886 . S
Fe0 O4 1.715 1_554 S
Fe0 O9 2.077 1_655 S
Fe0 O14 1.935 1_654 S
Fe0 O20 2.077 . S
Fe0 O29 1.935 1_554 S
O1 Fe0 1.886 . S
O1 Fe3 1.715 1_655 S
Fe2 O4 1.886 1_545 S
Fe2 O5 1.715 1_655 S
Fe2 O12 1.935 1_655 S
Fe2 O13 2.077 1_645 S
Fe2 O19 1.935 . S
Fe2 O28 2.077 1_545 S
Fe3 O1 1.715 1_455 S
Fe3 O6 1.886 1_565 S
Fe3 O10 1.935 . S
Fe3 O15 2.077 1_565 S
Fe3 O21 1.935 1_455 S
Fe3 O25 2.077 1_465 S
O4 Fe0 1.715 1_556 S
O4 Fe2 1.886 1_565 S
O5 Fe2 1.715 1_455 S
O5 Fe7 1.886 . S
O6 Fe3 1.886 1_545 S
O6 Fe7 1.715 1_554 S
Fe7 O5 1.886 . S
Fe7 O6 1.715 1_556 S
Fe7 O11 2.077 . S
Fe7 O16 1.935 1_556 S
Fe7 O18 2.077 1_455 S
Fe7 O26 1.935 1_456 S
C8 O20 1.381 . S
C8 O21 1.421 . S
O9 Fe0 2.077 1_455 S
O9 C22 1.381 . S
O10 Fe3 1.935 . S
O10 C22 1.421 . S
O11 Fe7 2.077 . S
O11 C27 1.381 . S
O12 Fe2 1.935 1_455 S
O12 C27 1.421 . S
O13 Fe2 2.077 1_465 S
O13 C17 1.381 . S
O14 Fe0 1.935 1_456 S
O14 C17 1.421 . S
O15 Fe3 2.077 1_545 S
O15 C23 1.381 . S
O16 Fe7 1.935 1_554 S
O16 C23 1.421 . S
C17 O13 1.381 . S
C17 O14 1.421 . S
O18 Fe7 2.077 1_655 S
O18 C30 1.381 . S
O19 Fe2 1.935 . S
O19 C30 1.421 . S
O20 Fe0 2.077 . S
O20 C8 1.381 . S
O21 Fe3 1.935 1_655 S
O21 C8 1.421 . S
C22 O9 1.381 . S
C22 O10 1.421 . S
C23 O15 1.381 . S
C23 O16 1.421 . S
C24 O25 1.381 . S
C24 O26 1.421 . S
O25 Fe3 2.077 1_645 S
O25 C24 1.381 . S
O26 Fe7 1.935 1_654 S
O26 C24 1.421 . S
C27 O11 1.381 . S
C27 O12 1.421 . S
O28 Fe2 2.077 1_565 S
O28 C31 1.381 . S
O29 Fe0 1.935 1_556 S
O29 C31 1.421 . S
C30 O18 1.381 . S
C30 O19 1.421 . S
C31 O28 1.381 . S
C31 O29 1.421 . S
Co32 O35 2.042 . S
Co32 O42 2.264 . S
Co32 O61 2.286 . S
Co32 O62 2.069 . S
Co32 O64 2.015 . S
Co33 O35 2.122 . S
Co33 O41 2.073 . S
Co33 O42 2.327 . S
Co33 O43 1.976 . S
Co34 O35 2.087 . S
Co34 O37 2.087 . S
Co34 O44 2.111 . S
Co34 O45 2.143 . S
Co34 O49 2.111 . S
Co34 O63 2.143 . S
O35 Co32 2.042 . S
O35 Co33 2.122 . S
O35 Co34 2.087 . S
O35 H36 0.980 . S
H36 O35 0.980 . S
O37 Co34 2.087 . S
O37 Co38 2.042 . S
O37 Co39 2.122 . S
O37 H40 0.980 . S
Co38 O37 2.042 . S
Co38 O46 2.286 . S
Co38 O47 2.069 . S
Co38 O48 2.015 . S
Co38 O51 2.264 . S
Co39 O37 2.122 . S
Co39 O50 1.976 . S
Co39 O51 2.327 . S
Co39 O52 2.073 . S
H40 O37 0.980 . S
O41 Co33 2.073 . S
O41 C56 1.245 . S
O42 Co32 2.264 . S
O42 Co33 2.327 . S
O42 C56 1.257 . S
O43 Co33 1.976 . S
O43 C55 1.251 . S
O44 Co34 2.111 . S
O44 C55 1.274 . S
O45 Co34 2.143 . S
O45 C58 1.246 . S
O46 Co38 2.286 . S
O46 C57 1.259 . S
O47 Co38 2.069 . S
O47 C57 1.289 . S
O48 Co38 2.015 . S
O48 C58 1.257 . S
O49 Co34 2.111 . S
O49 C59 1.274 . S
O50 Co39 1.976 . S
O50 C59 1.251 . S
O51 Co38 2.264 . S
O51 Co39 2.327 . S
O51 C60 1.257 . S
O52 Co39 2.073 . S
O52 C60 1.245 . S
C53 O61 1.259 . S
C53 O62 1.289 . S
C54 O63 1.246 . S
C54 O64 1.257 . S
C55 O43 1.251 . S
C55 O44 1.274 . S
C56 O41 1.245 . S
C56 O42 1.257 . S
C57 O46 1.259 . S
C57 O47 1.289 . S
C58 O45 1.246 . S
C58 O48 1.257 . S
C59 O49 1.274 . S
C59 O50 1.251 . S
C60 O51 1.257 . S
C60 O52 1.245 . S
O61 Co32 2.286 . S
O61 C53 1.259 . S
O62 Co32 2.069 . S
O62 C53 1.289 . S
O63 Co34 2.143 . S
O63 C54 1.246 . S
O64 Co32 2.015 . S
O64 C54 1.257 . S
C65 C66 1.349 . S
C65 C67 1.327 . S
C65 H90 0.950 . S
C66 C65 1.349 . S
C66 C82 1.349 . S
C67 C65 1.327 . S
C67 C86 1.429 . S
C67 H91 0.950 . S
C68 C85 1.574 . S
C68 C87 1.368 . S
C68 H92 0.949 . S
H69 C73 0.949 . S
C70 C71 1.349 . S
C70 C72 1.327 . S
C70 H93 0.950 . S
C71 C70 1.349 . S
C71 C83 1.349 . S
C72 C70 1.327 . S
C72 C88 1.429 . S
C72 H94 0.950 . S
C73 H69 0.949 . S
C73 C81 1.574 . S
C73 C89 1.368 . S
H74 C82 0.950 . S
H75 C80 0.950 . S
H76 C81 0.949 . S
H77 C83 0.950 . S
H78 C84 0.950 . S
H79 C85 0.949 . S
C80 H75 0.950 . S
C80 C82 1.327 . S
C80 C86 1.429 . S
C81 C73 1.574 . S
C81 H76 0.949 . S
C81 C87 1.368 . S
C82 C66 1.349 . S
C82 H74 0.950 . S
C82 C80 1.327 . S
C83 C71 1.349 . S
C83 H77 0.950 . S
C83 C84 1.327 . S
C84 H78 0.950 . S
C84 C83 1.327 . S
C84 C88 1.429 . S
C85 C68 1.574 . S
C85 H79 0.949 . S
C85 C89 1.368 . S
C86 C67 1.429 . S
C86 C80 1.429 . S
C86 C87 1.523 . S
C87 C68 1.368 . S
C87 C81 1.368 . S
C87 C86 1.523 . S
C88 C72 1.429 . S
C88 C84 1.429 . S
C88 C89 1.523 . S
C89 C73 1.368 . S
C89 C85 1.368 . S
C89 C88 1.523 . S
H90 C65 0.950 . S
H91 C67 0.950 . S
H92 C68 0.949 . S
H93 C70 0.950 . S
H94 C72 0.950 . S
C95 C96 1.349 . S
C95 C97 1.327 . S
C95 H120 0.950 . S
C96 C95 1.349 . S
C96 C112 1.349 . S
C97 C95 1.327 . S
C97 C116 1.429 . S
C97 H121 0.950 . S
C98 C115 1.574 . S
C98 C117 1.368 . S
C98 H122 0.949 . S
H99 C103 0.949 . S
C100 C101 1.349 . S
C100 C102 1.327 . S
C100 H123 0.950 . S
C101 C100 1.349 . S
C101 C113 1.349 . S
C102 C100 1.327 . S
C102 C118 1.429 . S
C102 H124 0.950 . S
C103 H99 0.949 . S
C103 C111 1.574 . S
C103 C119 1.368 . S
H104 C112 0.950 . S
H105 C110 0.950 . S
H106 C111 0.949 . S
H107 C113 0.950 . S
H108 C114 0.950 . S
H109 C115 0.949 . S
C110 H105 0.950 . S
C110 C112 1.327 . S
C110 C116 1.429 . S
C111 C103 1.574 . S
C111 H106 0.949 . S
C111 C117 1.368 . S
C112 C96 1.349 . S
C112 H104 0.950 . S
C112 C110 1.327 . S
C113 C101 1.349 . S
C113 H107 0.950 . S
C113 C114 1.327 . S
C114 H108 0.950 . S
C114 C113 1.327 . S
C114 C118 1.429 . S
C115 C98 1.574 . S
C115 H109 0.949 . S
C115 C119 1.368 . S
C116 C97 1.429 . S
C116 C110 1.429 . S
C116 C117 1.523 . S
C117 C98 1.368 . S
C117 C111 1.368 . S
C117 C116 1.523 . S
C118 C102 1.429 . S
C118 C114 1.429 . S
C118 C119 1.523 . S
C119 C103 1.368 . S
C119 C115 1.368 . S
C119 C118 1.523 . S
H120 C95 0.950 . S
H121 C97 0.950 . S
H122 C98 0.949 . S
H123 C100 0.950 . S
H124 C102 0.950 . S
C125 C126 1.349 . S
C125 C127 1.327 . S
C125 H150 0.950 . S
C126 C125 1.349 . S
C126 C142 1.349 . S
C127 C125 1.327 . S
C127 C146 1.429 . S
C127 H151 0.950 . S
C128 C145 1.574 . S
C128 C147 1.368 . S
C128 H152 0.949 . S
H129 C133 0.949 . S
C130 C131 1.349 . S
C130 C132 1.327 . S
C130 H153 0.950 . S
C131 C130 1.349 . S
C131 C143 1.349 . S
C132 C130 1.327 . S
C132 C148 1.429 . S
C132 H154 0.950 . S
C133 H129 0.949 . S
C133 C141 1.574 . S
C133 C149 1.368 . S
H134 C142 0.950 . S
H135 C140 0.950 . S
H136 C141 0.949 . S
H137 C143 0.950 . S
H138 C144 0.950 . S
H139 C145 0.949 . S
C140 H135 0.950 . S
C140 C142 1.327 . S
C140 C146 1.429 . S
C141 C133 1.574 . S
C141 H136 0.949 . S
C141 C147 1.368 . S
C142 C126 1.349 . S
C142 H134 0.950 . S
C142 C140 1.327 . S
C143 C131 1.349 . S
C143 H137 0.950 . S
C143 C144 1.327 . S
C144 H138 0.950 . S
C144 C143 1.327 . S
C144 C148 1.429 . S
C145 C128 1.574 . S
C145 H139 0.949 . S
C145 C149 1.368 . S
C146 C127 1.429 . S
C146 C140 1.429 . S
C146 C147 1.523 . S
C147 C128 1.368 . S
C147 C141 1.368 . S
C147 C146 1.523 . S
C148 C132 1.429 . S
C148 C144 1.429 . S
C148 C149 1.523 . S
C149 C133 1.368 . S
C149 C145 1.368 . S
C149 C148 1.523 . S
H150 C125 0.950 . S
H151 C127 0.950 . S
H152 C128 0.949 . S
H153 C130 0.950 . S
H154 C132 0.950 . S
C155 C156 1.349 . S
C155 C157 1.327 . S
C155 H180 0.950 . S
C156 C155 1.349 . S
C156 C172 1.349 . S
C157 C155 1.327 . S
C157 C176 1.429 . S
C157 H181 0.950 . S
C158 C175 1.574 . S
C158 C177 1.368 . S
C158 H182 0.949 . S
H159 C163 0.949 . S
C160 C161 1.349 . S
C160 C162 1.327 . S
C160 H183 0.950 . S
C161 C160 1.349 . S
C161 C173 1.349 . S
C162 C160 1.327 . S
C162 C178 1.429 . S
C162 H184 0.950 . S
C163 H159 0.949 . S
C163 C171 1.574 . S
C163 C179 1.368 . S
H164 C172 0.950 . S
H165 C170 0.950 . S
H166 C171 0.949 . S
H167 C173 0.950 . S
H168 C174 0.950 . S
H169 C175 0.949 . S
C170 H165 0.950 . S
C170 C172 1.327 . S
C170 C176 1.429 . S
C171 C163 1.574 . S
C171 H166 0.949 . S
C171 C177 1.368 . S
C172 C156 1.349 . S
C172 H164 0.950 . S
C172 C170 1.327 . S
C173 C161 1.349 . S
C173 H167 0.950 . S
C173 C174 1.327 . S
C174 H168 0.950 . S
C174 C173 1.327 . S
C174 C178 1.429 . S
C175 C158 1.574 . S
C175 H169 0.949 . S
C175 C179 1.368 . S
C176 C157 1.429 . S
C176 C170 1.429 . S
C176 C177 1.523 . S
C177 C158 1.368 . S
C177 C171 1.368 . S
C177 C176 1.523 . S
C178 C162 1.429 . S
C178 C174 1.429 . S
C178 C179 1.523 . S
C179 C163 1.368 . S
C179 C175 1.368 . S
C179 C178 1.523 . S
H180 C155 0.950 . S
H181 C157 0.950 . S
H182 C158 0.949 . S
H183 C160 0.950 . S
H184 C162 0.950 . S
C185 C186 1.349 . S
C185 C187 1.327 . S
C185 H210 0.950 . S
C186 C185 1.349 . S
C186 C202 1.349 . S
C187 C185 1.327 . S
C187 C206 1.429 . S
C187 H211 0.950 . S
C188 C205 1.574 . S
C188 C207 1.368 . S
C188 H212 0.949 . S
H189 C193 0.949 . S
C190 C191 1.349 . S
C190 C192 1.327 . S
C190 H213 0.950 . S
C191 C190 1.349 . S
C191 C203 1.349 . S
C192 C190 1.327 . S
C192 C208 1.429 . S
C192 H214 0.950 . S
C193 H189 0.949 . S
C193 C201 1.574 . S
C193 C209 1.368 . S
H194 C202 0.950 . S
H195 C200 0.950 . S
H196 C201 0.949 . S
H197 C203 0.950 . S
H198 C204 0.950 . S
H199 C205 0.949 . S
C200 H195 0.950 . S
C200 C202 1.327 . S
C200 C206 1.429 . S
C201 C193 1.574 . S
C201 H196 0.949 . S
C201 C207 1.368 . S
C202 C186 1.349 . S
C202 H194 0.950 . S
C202 C200 1.327 . S
C203 C191 1.349 . S
C203 H197 0.950 . S
C203 C204 1.327 . S
C204 H198 0.950 . S
C204 C203 1.327 . S
C204 C208 1.429 . S
C205 C188 1.574 . S
C205 H199 0.949 . S
C205 C209 1.368 . S
C206 C187 1.429 . S
C206 C200 1.429 . S
C206 C207 1.523 . S
C207 C188 1.368 . S
C207 C201 1.368 . S
C207 C206 1.523 . S
C208 C192 1.429 . S
C208 C204 1.429 . S
C208 C209 1.523 . S
C209 C193 1.368 . S
C209 C205 1.368 . S
C209 C208 1.523 . S
H210 C185 0.950 . S
H211 C187 0.950 . S
H212 C188 0.949 . S
H213 C190 0.950 . S
H214 C192 0.950 . S
C215 C216 1.349 . S
C215 C217 1.327 . S
C215 H240 0.950 . S
C216 C215 1.349 . S
C216 C232 1.349 . S
C217 C215 1.327 . S
C217 C236 1.429 . S
C217 H241 0.950 . S
C218 C235 1.574 . S
C218 C237 1.368 . S
C218 H242 0.949 . S
H219 C223 0.949 . S
C220 C221 1.349 . S
C220 C222 1.327 . S
C220 H243 0.950 . S
C221 C220 1.349 . S
C221 C233 1.349 . S
C222 C220 1.327 . S
C222 C238 1.429 . S
C222 H244 0.950 . S
C223 H219 0.949 . S
C223 C231 1.574 . S
C223 C239 1.368 . S
H224 C232 0.950 . S
H225 C230 0.950 . S
H226 C231 0.949 . S
H227 C233 0.950 . S
H228 C234 0.950 . S
H229 C235 0.949 . S
C230 H225 0.950 . S
C230 C232 1.327 . S
C230 C236 1.429 . S
C231 C223 1.574 . S
C231 H226 0.949 . S
C231 C237 1.368 . S
C232 C216 1.349 . S
C232 H224 0.950 . S
C232 C230 1.327 . S
C233 C221 1.349 . S
C233 H227 0.950 . S
C233 C234 1.327 . S
C234 H228 0.950 . S
C234 C233 1.327 . S
C234 C238 1.429 . S
C235 C218 1.574 . S
C235 H229 0.949 . S
C235 C239 1.368 . S
C236 C217 1.429 . S
C236 C230 1.429 . S
C236 C237 1.523 . S
C237 C218 1.368 . S
C237 C231 1.368 . S
C237 C236 1.523 . S
C238 C222 1.429 . S
C238 C234 1.429 . S
C238 C239 1.523 . S
C239 C223 1.368 . S
C239 C235 1.368 . S
C239 C238 1.523 . S
H240 C215 0.950 . S
H241 C217 0.950 . S
H242 C218 0.949 . S
H243 C220 0.950 . S
H244 C222 0.950 . S
C245 C246 1.349 . S
C245 C247 1.327 . S
C245 H270 0.950 . S
C246 C245 1.349 . S
C246 C262 1.349 . S
C247 C245 1.327 . S
C247 C266 1.429 . S
C247 H271 0.950 . S
C248 C265 1.574 . S
C248 C267 1.368 . S
C248 H272 0.949 . S
H249 C253 0.949 . S
C250 C251 1.349 . S
C250 C252 1.327 . S
C250 H273 0.950 . S
C251 C250 1.349 . S
C251 C263 1.349 . S
C252 C250 1.327 . S
C252 C268 1.429 . S
C252 H274 0.950 . S
C253 H249 0.949 . S
C253 C261 1.574 . S
C253 C269 1.368 . S
H254 C262 0.950 . S
H255 C260 0.950 . S
H256 C261 0.949 . S
H257 C263 0.950 . S
H258 C264 0.950 . S
H259 C265 0.949 . S
C260 H255 0.950 . S
C260 C262 1.327 . S
C260 C266 1.429 . S
C261 C253 1.574 . S
C261 H256 0.949 . S
C261 C267 1.368 . S
C262 C246 1.349 . S
C262 H254 0.950 . S
C262 C260 1.327 . S
C263 C251 1.349 . S
C263 H257 0.950 . S
C263 C264 1.327 . S
C264 H258 0.950 . S
C264 C263 1.327 . S
C264 C268 1.429 . S
C265 C248 1.574 . S
C265 H259 0.949 . S
C265 C269 1.368 . S
C266 C247 1.429 . S
C266 C260 1.429 . S
C266 C267 1.523 . S
C267 C248 1.368 . S
C267 C261 1.368 . S
C267 C266 1.523 . S
C268 C252 1.429 . S
C268 C264 1.429 . S
C268 C269 1.523 . S
C269 C253 1.368 . S
C269 C265 1.368 . S
C269 C268 1.523 . S
H270 C245 0.950 . S
H271 C247 0.950 . S
H272 C248 0.949 . S
H273 C250 0.950 . S
H274 C252 0.950 . S
C275 C276 1.349 . S
C275 C277 1.327 . S
C275 H300 0.950 . S
C276 C275 1.349 . S
C276 C292 1.349 . S
C277 C275 1.327 . S
C277 C296 1.429 . S
C277 H301 0.950 . S
C278 C295 1.574 . S
C278 C297 1.368 . S
C278 H302 0.949 . S
H279 C283 0.949 . S
C280 C281 1.349 . S
C280 C282 1.327 . S
C280 H303 0.950 . S
C281 C280 1.349 . S
C281 C293 1.349 . S
C282 C280 1.327 . S
C282 C298 1.429 . S
C282 H304 0.950 . S
C283 H279 0.949 . S
C283 C291 1.574 . S
C283 C299 1.368 . S
H284 C292 0.950 . S
H285 C290 0.950 . S
H286 C291 0.949 . S
H287 C293 0.950 . S
H288 C294 0.950 . S
H289 C295 0.949 . S
C290 H285 0.950 . S
C290 C292 1.327 . S
C290 C296 1.429 . S
C291 C283 1.574 . S
C291 H286 0.949 . S
C291 C297 1.368 . S
C292 C276 1.349 . S
C292 H284 0.950 . S
C292 C290 1.327 . S
C293 C281 1.349 . S
C293 H287 0.950 . S
C293 C294 1.327 . S
C294 H288 0.950 . S
C294 C293 1.327 . S
C294 C298 1.429 . S
C295 C278 1.574 . S
C295 H289 0.949 . S
C295 C299 1.368 . S
C296 C277 1.429 . S
C296 C290 1.429 . S
C296 C297 1.523 . S
C297 C278 1.368 . S
C297 C291 1.368 . S
C297 C296 1.523 . S
C298 C282 1.429 . S
C298 C294 1.429 . S
C298 C299 1.523 . S
C299 C283 1.368 . S
C299 C295 1.368 . S
C299 C298 1.523 . S
H300 C275 0.950 . S
H301 C277 0.950 . S
H302 C278 0.949 . S
H303 C280 0.950 . S
H304 C282 0.950 . S
C66 C23 1.426 . S
C71 C54 1.427 . S
C96 C24 1.650 . S
C101 C53 1.685 . S
C126 C8 1.420 . S
C131 C59 1.359 . S
C156 C22 1.450 . S
C161 C60 1.406 . S
C186 C17 1.650 . S
C191 C57 1.687 . S
C221 C55 1.360 . S
C216 C27 1.421 . S
C246 C30 1.450 . S
C251 C56 1.406 . S
C281 C58 1.428 . S
C276 C31 1.427 . S
