# Generated by pormake.
# Topology zzz, (3,6)-cn, num edge types: 1
# Building blocks:
#     Node 0, Type 0, BuildingBlock: WUSLED_clean_sbu_0, # of connection points: 3
#     Node 1, Type 0, BuildingBlock: WUSLED_clean_sbu_0, # of connection points: 3
#     Node 2, Type 0, BuildingBlock: WUSLED_clean_sbu_0, # of connection points: 3
#     Node 3, Type 0, BuildingBlock: WUSLED_clean_sbu_0, # of connection points: 3
#     Node 4, Type 0, BuildingBlock: WUSLED_clean_sbu_0, # of connection points: 3
#     Node 5, Type 0, BuildingBlock: WUSLED_clean_sbu_0, # of connection points: 3
#     Node 6, Type 0, BuildingBlock: WUSLED_clean_sbu_0, # of connection points: 3
#     Node 7, Type 0, BuildingBlock: WUSLED_clean_sbu_0, # of connection points: 3
#     Node 8, Type 1, BuildingBlock: BETFEN_clean_sbu_0, # of connection points: 6
#     Node 9, Type 1, BuildingBlock: BETFEN_clean_sbu_0, # of connection points: 6
#     Node 10, Type 1, BuildingBlock: BETFEN_clean_sbu_0, # of connection points: 6
#     Node 11, Type 1, BuildingBlock: BETFEN_clean_sbu_0, # of connection points: 6
#     Edge 12, Type (0, 1), BuildingBlock: TEMPAE_clean_linker_10, # of connection points: 2
#     Edge 13, Type (0, 1), BuildingBlock: TEMPAE_clean_linker_10, # of connection points: 2
#     Edge 14, Type (0, 1), BuildingBlock: TEMPAE_clean_linker_10, # of connection points: 2
#     Edge 15, Type (0, 1), BuildingBlock: TEMPAE_clean_linker_10, # of connection points: 2
#     Edge 16, Type (0, 1), BuildingBlock: TEMPAE_clean_linker_10, # of connection points: 2
#     Edge 17, Type (0, 1), BuildingBlock: TEMPAE_clean_linker_10, # of connection points: 2
#     Edge 18, Type (0, 1), BuildingBlock: TEMPAE_clean_linker_10, # of connection points: 2
#     Edge 19, Type (0, 1), BuildingBlock: TEMPAE_clean_linker_10, # of connection points: 2
#     Edge 20, Type (0, 1), BuildingBlock: TEMPAE_clean_linker_10, # of connection points: 2
#     Edge 21, Type (0, 1), BuildingBlock: TEMPAE_clean_linker_10, # of connection points: 2
#     Edge 22, Type (0, 1), BuildingBlock: TEMPAE_clean_linker_10, # of connection points: 2
#     Edge 23, Type (0, 1), BuildingBlock: TEMPAE_clean_linker_10, # of connection points: 2
#     Edge 24, Type (0, 1), BuildingBlock: TEMPAE_clean_linker_10, # of connection points: 2
#     Edge 25, Type (0, 1), BuildingBlock: TEMPAE_clean_linker_10, # of connection points: 2
#     Edge 26, Type (0, 1), BuildingBlock: TEMPAE_clean_linker_10, # of connection points: 2
#     Edge 27, Type (0, 1), BuildingBlock: TEMPAE_clean_linker_10, # of connection points: 2
#     Edge 28, Type (0, 1), BuildingBlock: TEMPAE_clean_linker_10, # of connection points: 2
#     Edge 29, Type (0, 1), BuildingBlock: TEMPAE_clean_linker_10, # of connection points: 2
#     Edge 30, Type (0, 1), BuildingBlock: TEMPAE_clean_linker_10, # of connection points: 2
#     Edge 31, Type (0, 1), BuildingBlock: TEMPAE_clean_linker_10, # of connection points: 2
#     Edge 32, Type (0, 1), BuildingBlock: TEMPAE_clean_linker_10, # of connection points: 2
#     Edge 33, Type (0, 1), BuildingBlock: TEMPAE_clean_linker_10, # of connection points: 2
#     Edge 34, Type (0, 1), BuildingBlock: TEMPAE_clean_linker_10, # of connection points: 2
#     Edge 35, Type (0, 1), BuildingBlock: TEMPAE_clean_linker_10, # of connection points: 2
# Relax obj value: 0.420
# Max RMSD: 0.264
# Mean RMSD: 0.247
data_MOF--net-zzz--node1-WUSLED_clean_sbu_0--node2-BETFEN_clean_sbu_0--edge1-TEMPAE_clean_linker_10
_symmetry_space_group_name_H-M    P1
_symmetry_Int_Tables_number       1
_symmetry_cell_setting            triclinic
loop_
_symmetry_equiv_pos_as_xyz
'x, y, z'
_cell_length_a     64.586279
_cell_length_b     64.56204
_cell_length_c     19.701113
_cell_angle_alpha  89.980234
_cell_angle_beta   89.948527
_cell_angle_gamma 90.098279
loop_
_atom_site_label
_atom_site_type_symbol
_atom_site_fract_x
_atom_site_fract_y
_atom_site_fract_z
_atom_type_partial_charge
C0 C 0.77559 0.52977 0.45141 0.0
C1 C 0.7848 0.51006 0.45642 0.0
C2 C 0.81713 0.52526 0.49904 0.0
C3 C 0.80527 0.50785 0.47976 0.0
C4 C 0.8079 0.54495 0.49293 0.0
C5 C 0.78747 0.54714 0.46969 0.0
U6 U 0.73009 0.52297 0.32491 0.0
O7 O 0.7062 0.54549 0.29492 0.0
O8 O 0.69696 0.51603 0.34111 0.0
C9 C 0.69079 0.53302 0.31029 0.0
C10 C 0.75358 0.53266 0.42978 0.0
C11 C 0.67484 0.5304 0.25675 0.0
C12 C 0.63969 0.53649 0.21613 0.0
C13 C 0.65478 0.53809 0.26715 0.0
C14 C 0.66446 0.51928 0.14341 0.0
C15 C 0.6443 0.52715 0.15327 0.0
C16 C 0.67954 0.5209 0.19451 0.0
C17 C 0.77087 0.49638 0.22358 0.0
C18 C 0.79831 0.47828 0.16474 0.0
C19 C 0.80638 0.5 0.26169 0.0
C20 C 0.78544 0.50459 0.26901 0.0
C21 C 0.81309 0.48712 0.20862 0.0
C22 C 0.77731 0.48293 0.17216 0.0
C23 C 0.74918 0.5026 0.22892 0.0
O24 O 0.75043 0.54521 0.37822 0.0
O25 O 0.74168 0.51611 0.4278 0.0
O26 O 0.74628 0.52273 0.22701 0.0
O27 O 0.73868 0.49335 0.27744 0.0
H28 H 0.77616 0.4963 0.44274 0.0
H29 H 0.81162 0.4924 0.48406 0.0
H30 H 0.8165 0.55881 0.50578 0.0
H31 H 0.78088 0.56253 0.46641 0.0
H32 H 0.62434 0.54249 0.22619 0.0
H33 H 0.65078 0.54547 0.31475 0.0
H34 H 0.66875 0.51223 0.09558 0.0
H35 H 0.69496 0.51495 0.18515 0.0
H36 H 0.80303 0.46809 0.12393 0.0
H37 H 0.81737 0.50725 0.29577 0.0
H38 H 0.78064 0.51509 0.30882 0.0
H39 H 0.76619 0.47639 0.137 0.0
C40 C 1.00957 0.77522 0.46464 0.0
C41 C 0.0211 0.79028 0.42919 0.0
C42 C 1.00961 0.81755 0.50745 0.0
C43 C 0.02102 0.81113 0.45002 0.0
C44 C 0.99814 0.80236 0.54275 0.0
C45 C 0.99811 0.78157 0.52158 0.0
U46 U 1.00448 0.73025 0.33466 0.0
O47 O 0.02302 0.7017 0.32508 0.0
O48 O 0.98965 0.69958 0.34383 0.0
C49 C 1.00673 0.68952 0.32841 0.0
C50 C 1.00976 0.75283 0.44509 0.0
C51 C 1.00511 0.67352 0.27434 0.0
C52 C 0.01529 0.63974 0.22978 0.0
C53 C 0.01627 0.65497 0.28056 0.0
C54 C 0.99176 0.66124 0.16555 0.0
C55 C 1.00305 0.64264 0.17138 0.0
C56 C 0.99284 0.67653 0.21625 0.0
C57 C 0.99634 0.77381 0.21323 0.0
C58 C 0.99991 0.80333 0.13849 0.0
C59 C 0.99798 0.80848 0.26028 0.0
C60 C 0.99581 0.78717 0.26926 0.0
C61 C 1.00045 0.81678 0.19481 0.0
C62 C 0.99806 0.78196 0.14775 0.0
C63 C 0.99729 0.75144 0.22407 0.0
O64 O 0.99188 0.7446 0.42789 0.0
O65 O 0.02509 0.74647 0.4064 0.0
O66 O 0.01579 0.74474 0.24086 0.0
O67 O 0.98243 0.74371 0.26208 0.0
H68 H 0.03013 0.786 0.38504 0.0
H69 H 0.02978 0.82226 0.42054 0.0
H70 H 0.98943 0.80641 0.5878 0.0
H71 H 0.98925 0.77034 0.55042 0.0
H72 H 0.02404 0.62559 0.23656 0.0
H73 H 0.02583 0.65225 0.32483 0.0
H74 H 0.98241 0.6642 0.12102 0.0
H75 H 0.9842 0.69075 0.20981 0.0
H76 H 1.00127 0.80926 0.08726 0.0
H77 H 0.99849 0.8183 0.30479 0.0
H78 H 0.99437 0.781 0.32011 0.0
H79 H 0.99849 0.7718 0.10401 0.0
C80 C 0.74901 0.99518 0.45393 0.0
C81 C 0.73787 0.01354 0.4416 0.0
C82 C 0.70709 0.99932 0.49835 0.0
C83 C 0.71722 0.01558 0.46356 0.0
C84 C 0.71826 0.98086 0.50919 0.0
C85 C 0.73887 0.97888 0.48756 0.0
U86 U 0.79478 0.99837 0.32666 0.0
O87 O 0.82 0.97608 0.30903 0.0
O88 O 0.82741 1.00775 0.34054 0.0
C89 C 0.83462 0.99003 0.31772 0.0
C90 C 0.77126 0.99275 0.43465 0.0
C91 C 0.85024 0.99142 0.26258 0.0
C92 C 0.88634 0.99092 0.22584 0.0
C93 C 0.87143 0.98998 0.27771 0.0
C94 C 0.8591 0.9948 0.14265 0.0
C95 C 0.88041 0.99323 0.15742 0.0
C96 C 0.84422 0.99394 0.19458 0.0
C97 C 0.7539 0.01862 0.20692 0.0
C98 C 0.72228 1.01309 0.14333 0.0
C99 C 0.72301 0.03841 0.23408 0.0
C100 C 0.74372 0.03359 0.24656 0.0
C101 C 0.71207 0.02823 0.18222 0.0
C102 C 0.74302 1.00846 0.15524 0.0
C103 C 0.77553 1.01279 0.22014 0.0
O104 O 0.77547 0.97798 0.3909 0.0
O105 O 0.78206 1.00974 0.4237 0.0
O106 O 0.7786 0.9929 0.23023 0.0
O107 O 0.78584 0.02468 0.26253 0.0
H108 H 0.74517 0.02642 0.41569 0.0
H109 H 0.70936 0.03012 0.45449 0.0
H110 H 0.71105 0.96777 0.53419 0.0
H111 H 0.74699 0.96453 0.4976 0.0
H112 H 0.90253 0.98947 0.23929 0.0
H113 H 0.87645 0.98801 0.32976 0.0
H114 H 0.8539 0.99693 0.09088 0.0
H115 H 0.82797 0.99521 0.1816 0.0
H116 H 0.71421 1.00462 0.10395 0.0
H117 H 0.71567 0.05029 0.26449 0.0
H118 H 0.75168 0.04158 0.28723 0.0
H119 H 0.75052 0.99674 0.12452 0.0
C120 C 0.5158 0.75231 0.47162 0.0
C121 C 0.50631 0.73718 0.43057 0.0
C122 C 0.51607 0.70968 0.51032 0.0
C123 C 0.50651 0.71617 0.44955 0.0
C124 C 0.52563 0.72492 0.55096 0.0
C125 C 0.52549 0.74588 0.53183 0.0
U126 U 0.52095 0.79846 0.34664 0.0
O127 O 0.50166 0.82648 0.33777 0.0
O128 O 0.53477 0.82945 0.35978 0.0
C129 C 0.51758 0.83909 0.34307 0.0
C130 C 0.51522 0.77483 0.45438 0.0
C131 C 0.51933 0.855 0.28893 0.0
C132 C 0.51043 0.8892 0.24519 0.0
C133 C 0.50955 0.87424 0.29685 0.0
C134 C 0.53114 0.866 0.17686 0.0
C135 C 0.52119 0.88529 0.18428 0.0
C136 C 0.53015 0.85101 0.22843 0.0
C137 C 0.53143 0.75651 0.22019 0.0
C138 C 0.52684 0.72815 0.14149 0.0
C139 C 0.53211 0.72108 0.26119 0.0
C140 C 0.53374 0.7423 0.27353 0.0
C141 C 0.52818 0.71384 0.19523 0.0
C142 C 0.52836 0.74935 0.154 0.0
C143 C 0.52975 0.77863 0.23463 0.0
O144 O 0.53306 0.78363 0.43972 0.0
O145 O 0.5001 0.78112 0.41476 0.0
O146 O 0.51092 0.78458 0.25048 0.0
O147 O 0.54404 0.78626 0.27504 0.0
H148 H 0.49873 0.74156 0.38373 0.0
H149 H 0.49926 0.70498 0.41619 0.0
H150 H 0.53289 0.72074 0.59852 0.0
H151 H 0.53278 0.75717 0.56476 0.0
H152 H 0.50275 0.9039 0.25312 0.0
H153 H 0.50107 0.87767 0.34297 0.0
H154 H 0.53931 0.86227 0.13043 0.0
H155 H 0.53767 0.8362 0.22076 0.0
H156 H 0.52419 0.72296 0.08993 0.0
H157 H 0.53308 0.71045 0.3036 0.0
H158 H 0.53606 0.74766 0.32505 0.0
H159 H 0.52647 0.76018 0.11241 0.0
C160 C 0.24831 0.49666 0.9246 0.0
C161 C 0.23572 0.47923 0.91296 0.0
C162 C 0.2064 0.50115 0.88046 0.0
C163 C 0.2151 0.48142 0.89154 0.0
C164 C 0.21896 0.51863 0.89298 0.0
C165 C 0.23959 0.51643 0.91463 0.0
U166 U 0.29384 0.5007 0.05168 0.0
O167 O 0.31865 0.47834 0.07314 0.0
O168 O 0.32667 0.50957 0.03828 0.0
C169 C 0.3335 0.492 0.06354 0.0
C170 C 0.27053 0.49382 0.94413 0.0
C171 C 0.34901 0.49367 0.11892 0.0
C172 C 0.38506 0.4963 0.15515 0.0
C173 C 0.37017 0.49532 0.10331 0.0
C174 C 0.35786 0.49408 0.23931 0.0
C175 C 0.37914 0.49553 0.22397 0.0
C176 C 0.34299 0.49323 0.18747 0.0
C177 C 0.25233 0.52248 0.16223 0.0
C178 C 0.22469 0.53803 0.22741 0.0
C179 C 0.21692 0.52017 0.12211 0.0
C180 C 0.23791 0.51599 0.11342 0.0
C181 C 0.21005 0.53095 0.17979 0.0
C182 C 0.24571 0.53377 0.21872 0.0
C183 C 0.27414 0.51701 0.15446 0.0
O184 O 0.28189 0.5106 0.95191 0.0
O185 O 0.27437 0.47966 0.99046 0.0
O186 O 0.27758 0.49703 0.14877 0.0
O187 O 0.28432 0.52818 0.10973 0.0
H188 H 0.24188 0.46379 0.91996 0.0
H189 H 0.20596 0.46755 0.8839 0.0
H190 H 0.21303 0.53409 0.88452 0.0
H191 H 0.24876 0.53026 0.92279 0.0
H192 H 0.40127 0.49727 0.14129 0.0
H193 H 0.37522 0.49567 0.05086 0.0
H194 H 0.35265 0.49379 0.29157 0.0
H195 H 0.32676 0.49213 0.20099 0.0
H196 H 0.21987 0.54667 0.2718 0.0
H197 H 0.20604 0.51432 0.08491 0.0
H198 H 0.24288 0.50726 0.06944 0.0
H199 H 0.25673 0.539 0.25647 0.0
C200 C 0.01649 0.251 0.92481 0.0
C201 C 0.03508 0.23966 0.92101 0.0
C202 C 0.01654 0.20864 0.88225 0.0
C203 C 0.03508 0.2188 0.90043 0.0
C204 C 0.99798 0.22005 0.88611 0.0
C205 C 0.99798 0.24086 0.90695 0.0
U206 U 0.02241 0.29618 0.05355 0.0
O207 O 0.0358 0.32748 0.04322 0.0
O208 O 1.00282 0.32385 0.06665 0.0
C209 C 0.01849 0.33675 0.06113 0.0
C210 C 0.01613 0.27348 0.94395 0.0
C211 C 0.02 0.35286 0.11487 0.0
C212 C 1.0082 0.38585 0.16143 0.0
C213 C 1.00745 0.37056 0.11085 0.0
C214 C 0.03431 0.36617 0.22103 0.0
C215 C 0.0216 0.38388 0.21746 0.0
C216 C 0.03347 0.35081 0.1705 0.0
C217 C 0.03372 0.25242 0.17045 0.0
C218 C 0.03145 0.22213 0.24245 0.0
C219 C 0.03225 0.21817 0.12001 0.0
C220 C 0.03379 0.2396 0.113 0.0
C221 C 0.03061 0.20926 0.1848 0.0
C222 C 0.03292 0.24361 0.23525 0.0
C223 C 0.03197 0.27484 0.16183 0.0
O224 O 1.00118 0.27938 0.98495 0.0
O225 O 0.03393 0.28244 0.95811 0.0
O226 O 0.04599 0.2833 0.12206 0.0
O227 O 1.01305 0.28108 0.14861 0.0
H228 H 0.04969 0.24687 0.93405 0.0
H229 H 0.04968 0.21059 0.89923 0.0
H230 H 0.98341 0.21304 0.87158 0.0
H231 H 0.98341 0.24915 0.90827 0.0
H232 H 0.99834 0.39931 0.15638 0.0
H233 H 0.99695 0.37254 0.06849 0.0
H234 H 0.04462 0.36393 0.26373 0.0
H235 H 0.04322 0.33725 0.17523 0.0
H236 H 0.02993 0.21569 0.29298 0.0
H237 H 0.0318 0.20863 0.0748 0.0
H238 H 0.03427 0.24627 0.0627 0.0
H239 H 0.03261 0.25335 0.28001 0.0
C240 C 0.27627 0.02819 0.9271 0.0
C241 C 0.29236 0.03118 0.97418 0.0
C242 C 0.31837 0.02434 0.88669 0.0
C243 C 0.31317 0.02901 0.95444 0.0
C244 C 0.30221 0.02161 0.8396 0.0
C245 C 0.28143 0.02337 0.85971 0.0
U246 U 0.23231 0.02687 0.05948 0.0
O247 O 0.20054 0.01435 0.05256 0.0
O248 O 0.20539 0.04743 0.07155 0.0
C249 C 0.19196 0.03212 0.06883 0.0
C250 C 0.25413 0.03016 0.94678 0.0
C251 C 0.17642 0.03139 0.12427 0.0
C252 C 0.14042 0.02811 0.16049 0.0
C253 C 0.15538 0.02863 0.10878 0.0
C254 C 0.16732 0.03311 0.24431 0.0
C255 C 0.14616 0.03042 0.22907 0.0
C256 C 0.18227 0.03353 0.19256 0.0
C257 C 0.27604 0.0143 0.17785 0.0
C258 C 0.30708 0.01995 0.24428 0.0
C259 C 0.30945 1.00323 0.13436 0.0
C260 C 0.28803 1.00486 0.12701 0.0
C261 C 0.31917 1.0108 0.19303 0.0
C262 C 0.28568 0.02175 0.23659 0.0
C263 C 0.25382 0.01785 0.16782 0.0
O264 O 0.2448 1.01297 0.96554 0.0
O265 O 0.24936 0.04603 0.98555 0.0
O266 O 0.24407 1.00378 0.13163 0.0
O267 O 0.24897 0.03693 0.15104 0.0
H268 H 0.28883 0.03534 0.02612 0.0
H269 H 0.32521 0.03143 0.99185 0.0
H270 H 0.30564 0.01787 0.78719 0.0
H271 H 0.26934 0.02104 0.82236 0.0
H272 H 0.12431 0.0262 0.14662 0.0
H273 H 0.15049 0.02696 0.05647 0.0
H274 H 0.1724 0.03461 0.29646 0.0
H275 H 0.19843 0.03554 0.20589 0.0
H276 H 0.31424 0.02605 0.28981 0.0
H277 H 0.31839 0.99595 0.09442 0.0
H278 H 0.28089 0.99911 0.08095 0.0
H279 H 0.27669 0.02924 0.276 0.0
C280 C 0.49284 0.27768 0.92882 0.0
C281 C 0.47597 0.2914 0.92616 0.0
C282 C 0.49804 0.31932 0.88297 0.0
C283 C 0.47852 0.31187 0.90377 0.0
C284 C 0.51502 0.30565 0.88643 0.0
C285 C 0.51244 0.28509 0.90869 0.0
U286 U 0.49986 0.23061 0.0492 0.0
O287 O 0.47627 0.20823 0.08277 0.0
O288 O 0.5038 0.19716 0.02895 0.0
C289 C 0.48718 0.19206 0.06384 0.0
C290 C 0.4893 0.25564 0.94928 0.0
C291 C 0.48981 0.1757 0.11605 0.0
C292 C 0.48794 0.13929 0.14878 0.0
C293 C 0.48643 0.15485 0.0992 0.0
C294 C 0.49642 0.1652 0.23296 0.0
C295 C 0.49283 0.14422 0.21662 0.0
C296 C 0.49499 0.18072 0.1833 0.0
C297 C 0.5322 0.26815 0.14824 0.0
C298 C 0.54169 0.2969 0.22061 0.0
C299 C 0.53919 0.3019 0.09887 0.0
C300 C 0.53389 0.28107 0.09119 0.0
C301 C 0.54271 0.31016 0.16387 0.0
C302 C 0.53648 0.27606 0.21276 0.0
C303 C 0.52378 0.24719 0.14147 0.0
O304 O 0.50511 0.24284 0.94591 0.0
O305 O 0.47784 0.25267 1.00361 0.0
O306 O 0.50355 0.24613 0.14764 0.0
O307 O 0.531 0.23635 0.09017 0.0
H308 H 0.46065 0.2862 0.94088 0.0
H309 H 0.46512 0.32192 0.903 0.0
H310 H 0.53025 0.31066 0.87033 0.0
H311 H 0.5258 0.27498 0.90941 0.0
H312 H 0.48538 0.12336 0.13375 0.0
H313 H 0.48246 0.15059 0.04764 0.0
H314 H 0.49992 0.16976 0.28457 0.0
H315 H 0.49765 0.1967 0.19767 0.0
H316 H 0.54393 0.30283 0.2715 0.0
H317 H 0.54002 0.31164 0.05416 0.0
H318 H 0.53047 0.27519 0.04099 0.0
H319 H 0.53499 0.26633 0.25733 0.0
Pr320 Pr 0.02938 1.00776 0.75761 0.0
Pr321 Pr 0.99735 0.01868 0.6303 0.0
C322 C 0.04469 1.00063 0.88214 0.0
C323 C 0.03964 0.98848 0.94302 0.0
C324 C 0.05447 0.97481 0.96916 0.0
C325 C 0.04918 0.96099 0.02078 0.0
C326 C 0.02898 0.96073 0.04722 0.0
C327 C 0.01466 0.97558 0.02485 0.0
C328 C 0.01986 0.98926 0.97269 0.0
C329 C 0.05162 0.01749 0.63815 0.0
C330 C 1.01093 0.96905 0.66138 0.0
C331 C 0.98088 0.02594 0.50728 0.0
C332 C 0.98334 0.0398 0.4486 0.0
C333 C 0.96627 0.05131 0.42625 0.0
C334 C 0.96871 0.06645 0.37631 0.0
C335 C 0.98831 0.07033 0.34794 0.0
C336 C 1.00506 0.05774 0.367 0.0
C337 C 1.00263 0.04262 0.41704 0.0
C338 C 0.97548 1.00859 0.75063 0.0
C339 C 0.01571 0.05742 0.72594 0.0
O340 O 0.03267 0.01639 0.86798 0.0
O341 O 0.05027 0.98996 0.82854 0.0
O342 O 0.03228 0.01774 0.64692 0.0
O343 O 0.06039 1.01207 0.69473 0.0
O344 O 1.00362 0.98293 0.61786 0.0
O345 O 0.01895 0.97438 0.72108 0.0
O346 O 0.99534 1.01207 0.51791 0.0
O347 O 0.97401 0.0346 0.56306 0.0
O348 O 0.9947 1.00846 0.74055 0.0
O349 O 0.96645 0.01423 0.69478 0.0
O350 O 0.02305 0.04354 0.76939 0.0
O351 O 1.00755 0.05209 0.66647 0.0
H352 H 0.06985 0.97411 0.94726 0.0
H353 H 0.06049 0.9496 0.03672 0.0
H354 H 0.99915 0.9759 0.04561 0.0
H355 H 1.00817 0.99981 0.95394 0.0
H356 H 0.95118 0.04914 0.44931 0.0
H357 H 0.95542 0.07564 0.36172 0.0
H358 H 0.02032 0.06037 0.34603 0.0
H359 H 0.01598 0.03372 0.43268 0.0
Pr360 Pr 0.51625 0.0297 0.73789 0.0
Pr361 Pr 0.50727 0.99567 0.63927 0.0
C362 C 0.52829 0.05545 0.83793 0.0
C363 C 0.54344 0.05406 0.89267 0.0
C364 C 0.54456 0.06952 0.94235 0.0
C365 C 0.55894 0.0679 0.99508 0.0
C366 C 0.5723 0.05074 0.99859 0.0
C367 C 0.57081 0.03517 0.94886 0.0
C368 C 0.55645 0.03679 0.89652 0.0
C369 C 0.50066 0.04447 0.61369 0.0
C370 C 0.55652 1.00825 0.65683 0.0
C371 C 0.49665 0.97519 0.52537 0.0
C372 C 0.48611 0.97946 0.4609 0.0
C373 C 0.47167 0.9651 0.43669 0.0
C374 C 0.45932 0.96988 0.38093 0.0
C375 C 0.46125 0.98915 0.34795 0.0
C376 C 0.47661 1.00308 0.3701 0.0
C377 C 0.48889 0.99829 0.42635 0.0
C378 C 0.51556 0.97517 0.76231 0.0
C379 C 0.46863 0.01397 0.73203 0.0
O380 O 0.51267 0.04273 0.84346 0.0
O381 O 0.53584 0.05631 0.77638 0.0
O382 O 0.51398 0.03034 0.62054 0.0
O383 O 0.49499 0.05141 0.67247 0.0
O384 O 0.54296 0.99766 0.62088 0.0
O385 O 0.55049 0.02034 0.70737 0.0
O386 O 0.51488 0.98358 0.53446 0.0
O387 O 0.48496 0.97579 0.57953 0.0
O388 O 0.51587 0.99464 0.75499 0.0
O389 O 0.51159 0.96598 0.70549 0.0
O390 O 0.48306 0.0207 0.77355 0.0
O391 O 0.47369 1.00682 0.67139 0.0
H392 H 0.53438 0.08283 0.94024 0.0
H393 H 0.55966 0.08006 0.03285 0.0
H394 H 0.58114 0.02197 0.94916 0.0
H395 H 0.55561 0.02464 0.85865 0.0
H396 H 0.46928 0.95052 0.4629 0.0
H397 H 0.44741 0.95892 0.36643 0.0
H398 H 0.47864 0.01796 0.34554 0.0
H399 H 0.50003 1.00957 0.44415 0.0
Pr400 Pr 0.49525 0.51912 0.7533 0.0
Pr401 Pr 0.52704 0.50799 0.62515 0.0
C402 C 0.48065 0.52823 0.87738 0.0
C403 C 0.48775 0.54127 0.93359 0.0
C404 C 0.47333 0.55146 0.97478 0.0
C405 C 0.47999 0.5663 0.02161 0.0
C406 C 0.50119 0.57101 0.02798 0.0
C407 C 0.51562 0.55972 0.98954 0.0
C408 C 0.50891 0.54526 0.94201 0.0
C409 C 0.47291 0.50954 0.63408 0.0
C410 C 0.51408 0.55757 0.65593 0.0
C411 C 0.54321 0.49973 0.50231 0.0
C412 C 0.54203 0.48478 0.44629 0.0
C413 C 0.56044 0.47642 0.42053 0.0
C414 C 0.55983 0.46068 0.3721 0.0
C415 C 0.54075 0.45304 0.34869 0.0
C416 C 0.52233 0.46215 0.37215 0.0
C417 C 0.52297 0.47793 0.42057 0.0
C418 C 0.54929 0.51822 0.74417 0.0
C419 C 0.50876 0.46952 0.72362 0.0
O420 O 0.49175 0.51169 0.86466 0.0
O421 O 0.47503 0.53828 0.82261 0.0
O422 O 0.49222 0.50921 0.64293 0.0
O423 O 0.46411 0.51494 0.6907 0.0
O424 O 0.52107 0.54371 0.61184 0.0
O425 O 0.5062 0.55221 0.7158 0.0
O426 O 0.52748 0.51228 0.51129 0.0
O427 O 0.55114 0.49276 0.55906 0.0
O428 O 0.52997 0.51775 0.73595 0.0
O429 O 0.55816 0.51394 0.68673 0.0
O430 O 0.50122 0.48346 0.76643 0.0
O431 O 0.51719 0.47468 0.66426 0.0
H432 H 0.45689 0.54869 0.96842 0.0
H433 H 0.46845 0.57491 0.04974 0.0
H434 H 0.53206 0.56277 0.99378 0.0
H435 H 0.52019 0.53793 0.90965 0.0
H436 H 0.57531 0.48158 0.43964 0.0
H437 H 0.57427 0.45381 0.35554 0.0
H438 H 0.50743 0.4567 0.35429 0.0
H439 H 0.50861 0.48439 0.43908 0.0
Pr440 Pr 1.00624 0.49732 0.75531 0.0
Pr441 Pr 0.01674 0.53013 0.63092 0.0
C442 C 0.99966 0.48083 0.87872 0.0
C443 C 0.98627 0.48375 0.93766 0.0
C444 C 0.98756 0.46993 0.99226 0.0
C445 C 0.97318 0.47095 0.04506 0.0
C446 C 0.95733 0.48584 0.04371 0.0
C447 C 0.95683 0.50038 0.99047 0.0
C448 C 0.97117 0.49929 0.93766 0.0
C449 C 0.01612 0.4758 0.63452 0.0
C450 C 0.96716 0.5163 0.662 0.0
C451 C 0.02355 0.54676 0.50784 0.0
C452 C 0.03688 0.54359 0.44887 0.0
C453 C 0.0371 0.55835 0.39679 0.0
C454 C 0.05151 0.55682 0.34417 0.0
C455 C 0.0658 0.54043 0.34308 0.0
C456 C 0.06477 0.5251 0.39374 0.0
C457 C 0.05047 0.52674 0.44652 0.0
C458 C 1.00715 0.55159 0.75211 0.0
C459 C 0.05579 0.51104 0.72393 0.0
O460 O 0.01343 0.49533 0.86733 0.0
O461 O 0.99043 0.47419 0.82362 0.0
O462 O 0.01584 0.49512 0.64386 0.0
O463 O 1.01147 0.46668 0.6913 0.0
O464 O 0.98093 0.52453 0.61988 0.0
O465 O 0.9726 0.50703 0.71961 0.0
O466 O 1.00946 0.53255 0.51909 0.0
O467 O 0.03294 0.55313 0.56299 0.0
O468 O 1.00728 0.5323 0.7424 0.0
O469 O 1.01184 0.56074 0.69542 0.0
O470 O 0.04202 0.50301 0.76641 0.0
O471 O 0.05035 0.52012 0.66604 0.0
H472 H 0.99922 0.45788 0.9928 0.0
H473 H 0.97398 0.45967 0.08566 0.0
H474 H 0.94463 0.51183 0.98748 0.0
H475 H 0.96997 0.51001 0.89552 0.0
H476 H 0.02665 0.57146 0.39816 0.0
H477 H 0.05196 0.56879 0.30565 0.0
H478 H 0.07581 0.51249 0.39483 0.0
H479 H 0.05058 0.51533 0.48686 0.0
C480 C 0.1315 0.04355 0.33982 0.0
C481 C 0.13022 0.02987 0.28452 0.0
C482 C 0.11721 0.04262 0.3938 0.0
C483 C 0.10122 0.02755 0.39319 0.0
C484 C 0.09942 0.01415 0.33653 0.0
C485 C 0.11387 0.01546 0.28302 0.0
C486 C 0.11946 0.05755 0.45228 0.0
C487 C 0.08256 0.99796 0.33345 0.0
C488 C 0.08215 1.00928 0.56619 0.0
C489 C 0.06315 0.01956 0.57317 0.0
C490 C 0.09431 1.01142 0.50746 0.0
C491 C 0.08766 0.02463 0.45444 0.0
C492 C 0.06849 0.03521 0.46129 0.0
C493 C 0.05625 0.03225 0.52011 0.0
C494 C 0.11447 0.99968 0.50262 0.0
C495 C 0.06092 0.04977 0.40692 0.0
H496 H 0.14374 0.05505 0.34096 0.0
H497 H 0.11273 1.00474 0.24089 0.0
H498 H 0.10457 0.06565 0.46151 0.0
H499 H 0.12336 0.04891 0.49923 0.0
H500 H 0.13171 0.06932 0.443 0.0
H501 H 0.08254 0.98943 0.28448 0.0
H502 H 0.08465 0.98665 0.37532 0.0
H503 H 0.06721 1.00532 0.34058 0.0
H504 H 0.08756 0.9994 0.60698 0.0
H505 H 0.04169 0.0404 0.52562 0.0
H506 H 0.12759 1.01075 0.49885 0.0
H507 H 0.11464 0.99004 0.45601 0.0
H508 H 0.11709 0.98946 0.54716 0.0
H509 H 0.07383 0.05892 0.38481 0.0
H510 H 0.04914 0.06068 0.42704 0.0
H511 H 0.05383 0.04059 0.36537 0.0
C512 C 0.47998 0.11097 0.27078 0.0
C513 C 0.49397 0.12771 0.27028 0.0
C514 C 0.48046 0.09583 0.32242 0.0
C515 C 0.49517 0.09746 0.37551 0.0
C516 C 0.50957 0.11405 0.37462 0.0
C517 C 0.50885 0.12885 0.32216 0.0
C518 C 0.46491 0.07834 0.32097 0.0
C519 C 0.52558 0.11641 0.42992 0.0
C520 C 0.48456 0.07387 0.54975 0.0
C521 C 0.49771 0.0566 0.55012 0.0
C522 C 0.48312 0.08688 0.49261 0.0
C523 C 0.495 0.08249 0.43383 0.0
C524 C 0.50765 0.06455 0.43289 0.0
C525 C 0.50898 0.05193 0.49116 0.0
C526 C 0.46942 0.10578 0.49612 0.0
C527 C 0.52031 0.05904 0.37111 0.0
H528 H 0.46825 0.10993 0.23163 0.0
H529 H 0.52004 0.14137 0.32186 0.0
H530 H 0.4729 0.0632 0.32565 0.0
H531 H 0.45424 0.07971 0.36488 0.0
H532 H 0.45557 0.07829 0.27363 0.0
H533 H 0.53602 0.12984 0.4211 0.0
H534 H 0.51776 0.11849 0.47964 0.0
H535 H 0.53511 0.10217 0.43347 0.0
H536 H 0.47575 0.07757 0.595 0.0
H537 H 0.51931 0.03872 0.49116 0.0
H538 H 0.45853 0.10595 0.45261 0.0
H539 H 0.47906 0.11998 0.49252 0.0
H540 H 0.46032 0.10643 0.54396 0.0
H541 H 0.51045 0.05911 0.32504 0.0
H542 H 0.5277 0.04358 0.3759 0.0
H543 H 0.53262 0.07082 0.36349 0.0
C544 C 0.39306 0.48338 0.3368 0.0
C545 C 0.39497 0.49626 0.27961 0.0
C546 C 0.40728 0.48447 0.39089 0.0
C547 C 0.42381 0.49893 0.38855 0.0
C548 C 0.42622 0.51151 0.33009 0.0
C549 C 0.41186 0.51 0.2764 0.0
C550 C 0.4044 0.47034 0.45124 0.0
C551 C 0.44365 0.52703 0.32517 0.0
C552 C 0.44294 0.51823 0.56023 0.0
C553 C 0.46151 0.50735 0.56897 0.0
C554 C 0.43097 0.51602 0.50114 0.0
C555 C 0.43735 0.50209 0.4497 0.0
C556 C 0.45612 0.49093 0.45832 0.0
C557 C 0.46816 0.49396 0.51745 0.0
C558 C 0.41129 0.52845 0.49426 0.0
C559 C 0.46352 0.47569 0.40561 0.0
H560 H 0.38039 0.47238 0.33932 0.0
H561 H 0.4135 0.52007 0.23271 0.0
H562 H 0.41897 0.46183 0.46169 0.0
H563 H 0.40075 0.47967 0.49698 0.0
H564 H 0.39174 0.45892 0.44333 0.0
H565 H 0.444 0.53503 0.27525 0.0
H566 H 0.44197 0.53883 0.36574 0.0
H567 H 0.45872 0.51917 0.33315 0.0
H568 H 0.43773 0.52865 0.59987 0.0
H569 H 0.48235 0.4853 0.52459 0.0
H570 H 0.39776 0.51786 0.49179 0.0
H571 H 0.41158 0.53748 0.44633 0.0
H572 H 0.40898 0.53933 0.53728 0.0
H573 H 0.45042 0.46714 0.38229 0.0
H574 H 0.47446 0.46427 0.42764 0.0
H575 H 0.47168 0.48424 0.36464 0.0
C576 C 0.04057 0.40631 0.30266 0.0
C577 C 0.02187 0.39991 0.27273 0.0
C578 C 0.04087 0.42062 0.35681 0.0
C579 C 0.02201 0.42867 0.38254 0.0
C580 C 1.00315 0.42276 0.35119 0.0
C581 C 1.00331 0.40856 0.29685 0.0
C582 C 0.06136 0.42661 0.38793 0.0
C583 C 0.98265 0.43078 0.3769 0.0
C584 C 0.01889 0.4427 0.57021 0.0
C585 C 0.01902 0.46444 0.56932 0.0
C586 C 0.02019 0.43105 0.51013 0.0
C587 C 0.02174 0.44128 0.44672 0.0
C588 C 0.02231 0.4633 0.44535 0.0
C589 C 0.02091 0.47462 0.50669 0.0
C590 C 0.01944 0.4077 0.51461 0.0
C591 C 0.02423 0.47488 0.37912 0.0
H592 H 0.05504 0.40006 0.28386 0.0
H593 H 0.98874 0.40367 0.27475 0.0
H594 H 0.06264 0.4437 0.39177 0.0
H595 H 0.06236 0.42029 0.4402 0.0
H596 H 0.07471 0.42069 0.35814 0.0
H597 H 0.96954 0.42616 0.34369 0.0
H598 H 0.97973 0.42466 0.42869 0.0
H599 H 0.98301 0.44792 0.38056 0.0
H600 H 0.01746 0.43465 0.61829 0.0
H601 H 0.02093 0.49138 0.50555 0.0
H602 H 0.03337 0.40093 0.49026 0.0
H603 H 1.00573 0.40178 0.48678 0.0
H604 H 0.01862 0.40209 0.56786 0.0
H605 H 0.03925 0.4711 0.35476 0.0
H606 H 0.02331 0.49192 0.38614 0.0
H607 H 1.01182 0.46998 0.34366 0.0
C608 C 0.91484 1.00523 0.10986 0.0
C609 C 0.89628 0.99408 0.10169 0.0
C610 C 0.9294 1.00689 0.05669 0.0
C611 C 0.92546 0.99713 0.99353 0.0
C612 C 0.90709 0.98532 0.98571 0.0
C613 C 0.89277 0.98399 0.03955 0.0
C614 C 0.94872 0.01967 0.06738 0.0
C615 C 0.90228 0.97445 0.91972 0.0
C616 C 0.94766 0.01961 0.82992 0.0
C617 C 0.96445 1.00651 0.81644 0.0
C618 C 0.93545 0.01717 0.88845 0.0
C619 C 0.93958 1.00069 0.93393 0.0
C620 C 0.95663 0.98739 0.92071 0.0
C621 C 0.96913 0.99071 0.86271 0.0
C622 C 0.91777 0.03199 0.90071 0.0
C623 C 0.96104 0.96911 0.96602 0.0
H624 H 0.91773 1.01323 0.15727 0.0
H625 H 0.87874 0.975 0.03288 0.0
H626 H 0.96266 1.01045 0.0545 0.0
H627 H 0.9485 0.03328 0.03296 0.0
H628 H 0.95017 0.02527 0.12048 0.0
H629 H 0.88834 0.96442 0.92357 0.0
H630 H 0.89961 0.9861 0.87926 0.0
H631 H 0.91561 0.96481 0.90365 0.0
H632 H 0.94401 0.03186 0.79422 0.0
H633 H 0.98193 0.98037 0.85189 0.0
H634 H 0.91904 0.03887 0.95215 0.0
H635 H 0.90283 0.02351 0.89846 0.0
H636 H 0.91738 0.04473 0.8628 0.0
H637 H 0.96215 0.97414 0.01972 0.0
H638 H 0.97553 0.96104 0.95138 0.0
H639 H 0.94806 0.95788 0.9629 0.0
C640 C 0.50359 0.91199 0.11052 0.0
C641 C 0.52156 0.90097 0.12801 0.0
C642 C 0.50333 0.92577 0.05504 0.0
C643 C 0.52151 0.9288 0.0158 0.0
C644 C 0.53991 0.91835 0.03477 0.0
C645 C 0.53969 0.90455 0.09025 0.0
C646 C 0.48331 0.93641 0.03663 0.0
C647 C 0.5597 0.92124 0.99509 0.0
C648 C 0.51445 0.94229 0.82887 0.0
C649 C 0.51791 0.96376 0.82762 0.0
C650 C 0.51566 0.93089 0.88949 0.0
C651 C 0.52067 0.94106 0.95102 0.0
C652 C 0.52453 0.96274 0.95009 0.0
C653 C 0.52298 0.97386 0.88846 0.0
C654 C 0.51129 0.9079 0.88766 0.0
C655 C 0.53015 0.97419 0.01423 0.0
H656 H 0.48944 0.90927 0.13876 0.0
H657 H 0.55377 0.89644 0.10388 0.0
H658 H 0.48585 0.95331 0.03063 0.0
H659 H 0.47766 0.93042 0.98721 0.0
H660 H 0.47106 0.9339 0.07539 0.0
H661 H 0.57313 0.91367 0.02004 0.0
H662 H 0.55787 0.91455 0.94356 0.0
H663 H 0.56316 0.93797 0.98878 0.0
H664 H 0.51048 0.93433 0.78223 0.0
H665 H 0.5257 0.99044 0.88793 0.0
H666 H 0.49804 0.90419 0.92144 0.0
H667 H 0.52489 0.89921 0.90682 0.0
H668 H 0.50763 0.9023 0.83572 0.0
H669 H 0.51709 0.97337 0.05074 0.0
H670 H 0.53387 0.99074 1.00451 0.0
H671 H 0.54369 0.96676 0.03882 0.0
C672 C 0.62677 0.50824 0.05658 0.0
C673 C 0.62832 0.52591 0.09793 0.0
C674 C 0.61245 0.50719 1.00273 0.0
C675 C 0.59923 0.52422 0.98929 0.0
C676 C 0.60031 0.54189 0.03183 0.0
C677 C 0.61479 0.54253 0.08539 0.0
C678 C 0.61179 0.48797 0.95918 0.0
C679 C 0.58656 0.5604 0.01961 0.0
C680 C 0.58098 0.52963 0.80592 0.0
C681 C 0.56086 0.52148 0.80848 0.0
C682 C 0.59331 0.53111 0.86455 0.0
C683 C 0.58548 0.52408 0.92774 0.0
C684 C 0.56498 0.51612 0.93082 0.0
C685 C 0.55299 0.51475 0.87101 0.0
C686 C 0.61497 0.53977 0.85845 0.0
C687 C 0.55591 0.50851 0.99688 0.0
H688 H 0.6368 0.49513 0.0663 0.0
H689 H 0.61588 0.55636 0.11633 0.0
H690 H 0.59578 0.48177 0.95696 0.0
H691 H 0.61647 0.49189 0.9065 0.0
H692 H 0.62221 0.47561 0.97841 0.0
H693 H 0.58833 0.57242 0.05955 0.0
H694 H 0.59032 0.56745 0.96972 0.0
H695 H 0.57011 0.5555 0.01778 0.0
H696 H 0.58722 0.53464 0.75751 0.0
H697 H 0.53772 0.50778 0.87276 0.0
H698 H 0.62641 0.52763 0.87177 0.0
H699 H 0.61713 0.55274 0.89467 0.0
H700 H 0.61843 0.54544 0.80641 0.0
H701 H 0.56475 0.49487 0.01502 0.0
H702 H 0.53936 0.50406 0.99174 0.0
H703 H 0.55723 0.52069 0.03636 0.0
C704 C 0.02071 0.61659 0.09515 0.0
C705 C 1.00249 0.62662 0.11608 0.0
C706 C 0.02069 0.60246 0.04058 0.0
C707 C 1.00199 0.59805 1.00575 0.0
C708 C 0.9834 0.60747 0.02838 0.0
C709 C 0.98389 0.62166 0.08281 0.0
C710 C 0.04091 0.59293 0.0183 0.0
C711 C 0.96306 0.60309 0.99356 0.0
C712 C 1.00661 0.58451 0.81804 0.0
C713 C 1.00468 0.56285 0.81771 0.0
C714 C 1.00557 0.59597 0.87853 0.0
C715 C 1.00235 0.58565 0.94112 0.0
C716 C 1.00003 0.56375 0.94125 0.0
C717 C 1.00124 0.55259 0.87952 0.0
C718 C 1.00826 0.61921 0.8754 0.0
C719 C 0.99628 0.5521 1.00651 0.0
H720 H 0.03522 0.62034 0.11989 0.0
H721 H 0.96964 0.62898 0.09915 0.0
H722 H 0.03929 0.57588 0.0138 0.0
H723 H 0.04519 0.59896 0.96741 0.0
H724 H 0.05374 0.59642 0.05408 0.0
H725 H 0.94972 0.60992 0.02122 0.0
H726 H 0.96337 0.60958 0.94141 0.0
H727 H 0.96059 0.58614 0.98889 0.0
H728 H 1.00927 0.59262 0.77062 0.0
H729 H 0.99971 0.53589 0.8797 0.0
H730 H 0.02189 0.62391 0.90606 0.0
H731 H 0.99452 0.62699 0.89744 0.0
H732 H 1.01047 0.62492 0.82269 0.0
H733 H 1.00817 0.55628 0.04477 0.0
H734 H 0.99651 0.53505 0.999 0.0
H735 H 0.981 0.55652 0.02771 0.0
C736 C 0.0362 0.17536 0.24288 0.0
C737 C 0.02623 0.18689 0.19243 0.0
C738 C 0.03012 0.15498 0.25697 0.0
C739 C 0.01362 0.14602 0.21981 0.0
C740 C 1.00437 0.15712 0.16592 0.0
C741 C 1.01078 0.17749 0.15289 0.0
C742 C 0.04055 0.14351 0.31433 0.0
C743 C 0.98678 0.14807 0.12508 0.0
C744 C 1.006 0.08866 0.25149 0.0
C745 C 0.99201 0.08905 0.30602 0.0
C746 C 1.01237 0.10707 0.21982 0.0
C747 C 1.00452 0.1262 0.24339 0.0
C748 C 0.98935 0.12656 0.29521 0.0
C749 C 0.98333 0.10798 0.32602 0.0
C750 C 0.02839 0.10613 0.16408 0.0
C751 C 0.98048 0.14667 0.3214 0.0
H752 H 0.04837 0.18251 0.27269 0.0
H753 H 1.00293 0.18641 0.11407 0.0
H754 H 0.02949 0.14158 0.35702 0.0
H755 H 0.04525 0.1278 0.29759 0.0
H756 H 0.05444 0.15182 0.33346 0.0
H757 H 0.98384 0.15705 0.07793 0.0
H758 H 0.99001 0.13174 0.11119 0.0
H759 H 0.97245 0.14817 0.15619 0.0
H760 H 1.01251 0.07402 0.23516 0.0
H761 H 0.97273 0.10849 0.36867 0.0
H762 H 0.04339 0.11203 0.1836 0.0
H763 H 0.02385 0.11614 0.12083 0.0
H764 H 0.03073 0.09009 0.14522 0.0
H765 H 0.99273 0.15552 0.34827 0.0
H766 H 0.96739 0.14414 0.35709 0.0
H767 H 0.97498 0.1564 0.27865 0.0
C768 C 0.35547 0.01433 0.14918 0.0
C769 C 0.34182 1.00881 0.20165 0.0
C770 C 0.377 1.01283 0.15802 0.0
C771 C 0.38488 1.00546 0.22053 0.0
C772 C 0.37108 0.99958 0.27313 0.0
C773 C 0.34974 1.00141 0.26307 0.0
C774 C 0.39124 0.01941 0.10114 0.0
C775 C 0.37882 0.99137 0.34035 0.0
C776 C 0.43649 0.98081 0.25394 0.0
C777 C 0.44531 0.99551 0.29776 0.0
C778 C 0.41755 0.98466 0.22176 0.0
C779 C 0.40748 1.00381 0.23274 0.0
C780 C 0.41774 0.01972 0.26899 0.0
C781 C 0.43649 0.01533 0.30164 0.0
C782 C 0.40724 0.96732 0.183 0.0
C783 C 0.4078 0.04059 0.28015 0.0
H784 H 0.34931 0.02019 0.10174 0.0
H785 H 0.33918 0.99684 0.3032 0.0
H786 H 0.40077 0.03279 0.11778 0.0
H787 H 0.40207 1.0067 0.08815 0.0
H788 H 0.3826 0.02389 0.05465 0.0
H789 H 0.36599 0.98695 0.37506 0.0
H790 H 0.38873 0.97758 0.33196 0.0
H791 H 0.38844 1.00328 0.36592 0.0
H792 H 0.4436 0.96569 0.24885 0.0
H793 H 0.44317 0.02689 0.33495 0.0
H794 H 0.39923 0.97325 0.13721 0.0
H795 H 0.3954 0.9599 0.2159 0.0
H796 H 0.41854 0.95527 0.16731 0.0
H797 H 0.39985 0.046 0.23355 0.0
H798 H 0.41936 0.05243 0.29574 0.0
H799 H 0.39601 0.03927 0.32093 0.0
C800 C 0.55919 0.34014 0.22346 0.0
C801 C 0.54555 0.33276 0.17371 0.0
C802 C 0.55935 0.36109 0.2418 0.0
C803 C 0.54571 0.375 0.20897 0.0
C804 C 0.53317 0.36799 0.15481 0.0
C805 C 0.53312 0.34688 0.13809 0.0
C806 C 0.57307 0.36801 0.29959 0.0
C807 C 0.51869 0.38243 0.11777 0.0
C808 C 0.52688 0.41789 0.32365 0.0
C809 C 0.54015 0.4342 0.30592 0.0
C810 C 0.52797 0.3988 0.29029 0.0
C811 C 0.54265 0.396 0.23768 0.0
C812 C 0.55535 0.41273 0.21705 0.0
C813 C 0.55403 0.43166 0.25176 0.0
C814 C 0.51418 0.38129 0.31392 0.0
C815 C 0.57092 0.41037 0.16041 0.0
H816 H 0.56918 0.32937 0.25 0.0
H817 H 0.52246 0.34132 0.09974 0.0
H818 H 0.58184 0.38214 0.28527 0.0
H819 H 0.56334 0.37198 0.34417 0.0
H820 H 0.58424 0.35582 0.31499 0.0
H821 H 0.51309 0.37561 0.06934 0.0
H822 H 0.50506 0.38571 0.15036 0.0
H823 H 0.52639 0.39743 0.10667 0.0
H824 H 0.51632 0.41969 0.36606 0.0
H825 H 0.56417 0.44435 0.23756 0.0
H826 H 0.52379 0.36878 0.33617 0.0
H827 H 0.50565 0.37457 0.27032 0.0
H828 H 0.50276 0.38639 0.35266 0.0
H829 H 0.58364 0.40004 0.17719 0.0
H830 H 0.57773 0.42547 0.14496 0.0
H831 H 0.56361 0.40305 0.11545 0.0
C832 C 0.17966 0.53023 0.25765 0.0
C833 C 0.18761 0.53363 0.19242 0.0
C834 C 0.15848 0.53203 0.27081 0.0
C835 C 0.14484 0.53722 0.21723 0.0
C836 C 0.15267 0.54059 0.15106 0.0
C837 C 0.17404 0.53879 0.13942 0.0
C838 C 0.1507 0.52827 0.34218 0.0
C839 C 0.13853 0.54605 0.09282 0.0
C840 C 0.09036 0.52234 0.26503 0.0
C841 C 0.08352 0.5407 0.29554 0.0
C842 C 0.1097 0.52145 0.2329 0.0
C843 C 0.12245 0.5393 0.23206 0.0
C844 C 0.11479 0.55833 0.25717 0.0
C845 C 0.09535 0.55881 0.28861 0.0
C846 C 0.11722 0.50095 0.20561 0.0
C847 C 0.12793 0.5777 0.25723 0.0
H848 H 0.19 0.52577 0.29841 0.0
H849 H 0.18015 0.54154 0.08894 0.0
H850 H 0.14255 0.54223 0.36122 0.0
H851 H 0.13941 0.51531 0.34238 0.0
H852 H 0.16341 0.52446 0.37802 0.0
H853 H 0.14706 0.54775 0.04415 0.0
H854 H 0.12651 0.53391 0.08659 0.0
H855 H 0.13037 0.56079 0.10382 0.0
H856 H 0.08105 0.50841 0.26948 0.0
H857 H 0.09018 0.57302 0.31248 0.0
H858 H 0.12851 0.49416 0.24172 0.0
H859 H 0.12527 0.50306 0.15632 0.0
H860 H 0.10431 0.48975 0.19874 0.0
H861 H 0.14001 0.57635 0.29701 0.0
H862 H 0.1186 0.59178 0.2678 0.0
H863 H 0.13593 0.5797 0.20783 0.0
C864 C 0.0186 0.8459 0.13599 0.0
C865 C 1.00441 0.83925 0.18532 0.0
C866 C 0.02206 0.86698 0.12424 0.0
C867 C 1.01138 0.88183 0.16377 0.0
C868 C 0.99777 0.8753 0.21584 0.0
C869 C 0.99427 0.85405 0.22558 0.0
C870 C 0.03669 0.87334 0.06799 0.0
C871 C 0.98648 0.89075 0.25984 0.0
C872 C 0.03431 0.93528 0.14156 0.0
C873 C 0.02205 0.94292 0.08855 0.0
C874 C 0.02997 0.91598 0.17114 0.0
C875 C 1.01326 0.90404 0.14589 0.0
C876 C 1.00001 0.91237 0.09573 0.0
C877 C 1.00452 0.93178 0.06793 0.0
C878 C 0.04411 0.90778 0.22581 0.0
C879 C 0.98218 0.90003 0.06685 0.0
H880 H 0.02699 0.83458 0.10613 0.0
H881 H 0.98323 0.84908 0.26373 0.0
H882 H 0.0281 0.88214 0.02868 0.0
H883 H 0.04893 0.8837 0.08819 0.0
H884 H 0.04422 0.85983 0.04334 0.0
H885 H 0.97851 0.8832 0.30331 0.0
H886 H 0.99743 0.90253 0.27979 0.0
H887 H 0.97476 0.89905 0.22903 0.0
H888 H 0.04778 0.944 0.15785 0.0
H889 H 0.99519 0.93749 0.02631 0.0
H890 H 0.05457 0.89594 0.20378 0.0
H891 H 0.03505 0.9002 0.26676 0.0
H892 H 0.05377 0.92025 0.24838 0.0
H893 H 0.97204 0.9096 0.03384 0.0
H894 H 0.97263 0.89329 0.10814 0.0
H895 H 0.98833 0.88699 0.03621 0.0
C896 C 0.6833 0.03429 0.10031 0.0
C897 C 0.69019 0.03352 0.16767 0.0
C898 C 0.66256 0.03825 0.08507 0.0
C899 C 0.6484 0.0421 0.13848 0.0
C900 C 0.65532 0.04212 0.20658 0.0
C901 C 0.67613 0.03754 0.22046 0.0
C902 C 0.65578 0.03798 0.01162 0.0
C903 C 0.64083 0.0464 0.26502 0.0
C904 C 0.60111 0.06715 0.06411 0.0
C905 C 0.58897 0.04964 0.05005 0.0
C906 C 0.61969 0.06529 0.10026 0.0
C907 C 0.62633 0.04546 0.12146 0.0
C908 C 0.61308 0.02817 0.11383 0.0
C909 C 0.59443 0.0305 0.07855 0.0
C910 C 0.63309 0.08422 0.11023 0.0
C911 C 0.61949 1.00683 0.13693 0.0
H912 H 0.69415 0.03174 0.05918 0.0
H913 H 0.68127 0.03676 0.27277 0.0
H914 H 0.64342 0.02624 1.00431 0.0
H915 H 0.64925 0.05326 0.99741 0.0
H916 H 0.66872 0.03438 0.97638 0.0
H917 H 0.64938 0.0523 0.30995 0.0
H918 H 0.62873 0.05782 0.25107 0.0
H919 H 0.63298 0.03179 0.27995 0.0
H920 H 0.59694 0.08203 0.04271 0.0
H921 H 0.58471 0.01706 0.06968 0.0
H922 H 0.64608 0.08392 0.07333 0.0
H923 H 0.63987 0.08433 0.16197 0.0
H924 H 0.62425 0.09878 0.10248 0.0
H925 H 0.63212 1.00107 0.10374 0.0
H926 H 0.60645 0.99559 0.1349 0.0
H927 H 0.62554 1.00738 0.18954 0.0
C928 C 0.5371 0.67644 0.2125 0.0
C929 C 0.52447 0.69156 0.18266 0.0
C930 C 0.53412 0.65536 0.19814 0.0
C931 C 0.51821 0.64943 0.15279 0.0
C932 C 0.50491 0.66458 0.12474 0.0
C933 C 0.50818 0.68545 0.1402 0.0
C934 C 0.54847 0.63956 0.22919 0.0
C935 C 0.48771 0.65883 0.07627 0.0
C936 C 0.52262 0.60295 0.03848 0.0
C937 C 0.50796 0.58944 0.06698 0.0
C938 C 0.52713 0.62199 0.06874 0.0
C939 C 0.51658 0.62777 0.12871 0.0
C940 C 0.50269 0.61376 0.1601 0.0
C941 C 0.49851 0.59469 0.12874 0.0
C942 C 0.54206 0.63653 0.03366 0.0
C943 C 0.49131 0.61939 0.22445 0.0
H944 H 0.54971 0.68112 0.24542 0.0
H945 H 0.49805 0.69707 0.11851 0.0
H946 H 0.53948 0.62657 0.25144 0.0
H947 H 0.55858 0.63296 0.18914 0.0
H948 H 0.55844 0.6464 0.2693 0.0
H949 H 0.47794 0.67234 0.06252 0.0
H950 H 0.49442 0.65231 0.02903 0.0
H951 H 0.47766 0.64673 0.09903 0.0
H952 H 0.52977 0.59922 0.99022 0.0
H953 H 0.48739 0.58417 0.15146 0.0
H954 H 0.55341 0.64287 0.07045 0.0
H955 H 0.5334 0.64981 0.01199 0.0
H956 H 0.55067 0.6288 0.99192 0.0
H957 H 0.50211 0.62616 0.2622 0.0
H958 H 0.48345 0.60579 0.24755 0.0
H959 H 0.47945 0.6313 0.21296 0.0
C960 C 0.84948 0.48163 0.24942 0.0
C961 C 0.83551 0.48444 0.19567 0.0
C962 C 0.87089 0.48071 0.23751 0.0
C963 C 0.87839 0.48287 0.1704 0.0
C964 C 0.86432 0.48533 0.11591 0.0
C965 C 0.84308 0.4861 0.12925 0.0
C966 C 0.88533 0.47808 0.29707 0.0
C967 C 0.87171 0.48765 0.04345 0.0
C968 C 0.93087 0.5027 0.11803 0.0
C969 C 0.93975 0.48461 0.09176 0.0
C970 C 0.91152 0.50211 0.15023 0.0
C971 C 0.90089 0.483 0.15571 0.0
C972 C 0.91073 0.46445 0.13557 0.0
C973 C 0.93008 0.46547 0.10362 0.0
C974 C 0.90171 0.52213 0.17302 0.0
C975 C 0.90003 0.44374 0.14207 0.0
H976 H 0.84368 0.48027 0.3009 0.0
H977 H 0.8324 0.48869 0.08769 0.0
H978 H 0.89902 0.46857 0.2836 0.0
H979 H 0.89096 0.49354 0.31342 0.0
H980 H 0.87732 0.47075 0.34084 0.0
H981 H 0.8587 0.48897 1.00687 0.0
H982 H 0.88156 0.50168 0.03875 0.0
H983 H 0.88133 0.47413 0.02889 0.0
H984 H 0.93854 0.51746 0.11017 0.0
H985 H 0.93685 0.45141 0.08337 0.0
H986 H 0.89489 0.52034 0.22439 0.0
H987 H 0.88896 0.52626 0.13778 0.0
H988 H 0.91301 0.53512 0.17395 0.0
H989 H 0.89282 0.44211 0.19296 0.0
H990 H 0.91087 0.43063 0.1339 0.0
H991 H 0.88747 0.44267 0.10381 0.0
C992 C 1.00036 0.17283 0.876 0.0
C993 C 0.01656 0.18642 0.85847 0.0
C994 C 1.00003 0.15208 0.85331 0.0
C995 C 0.01635 0.14445 0.81215 0.0
C996 C 0.03279 0.15802 0.79447 0.0
C997 C 0.03267 0.17873 0.81754 0.0
C998 C 0.98221 0.13828 0.87381 0.0
C999 C 0.0506 0.15064 0.75116 0.0
C1000 C 0.02552 0.08583 0.80813 0.0
C1001 C 0.01633 0.07985 0.74638 0.0
C1002 C 0.02573 0.10666 0.8297 0.0
C1003 C 0.01647 0.12218 0.78895 0.0
C1004 C 1.00726 0.11633 0.72639 0.0
C1005 C 1.00733 0.09534 0.70587 0.0
C1006 C 0.03582 0.11203 0.89656 0.0
C1007 C 0.99713 0.13226 0.68132 0.0
H1008 H 0.98796 0.17831 0.9084 0.0
H1009 H 0.04515 0.18899 0.80255 0.0
H1010 H 0.97462 0.13179 0.82797 0.0
H1011 H 0.98803 0.12502 0.90408 0.0
H1012 H 0.97041 0.14664 0.9043 0.0
H1013 H 0.06221 0.16302 0.74175 0.0
H1014 H 0.05844 0.13741 0.77626 0.0
H1015 H 0.04473 0.145 0.70158 0.0
H1016 H 0.03257 0.07417 0.8402 0.0
H1017 H 1.00012 0.09107 0.65824 0.0
H1018 H 0.02426 0.11905 0.93126 0.0
H1019 H 0.04822 0.12369 0.88843 0.0
H1020 H 0.04266 0.09828 0.92192 0.0
H1021 H 0.98433 0.13994 0.70916 0.0
H1022 H 0.9908 0.12535 0.63403 0.0
H1023 H 1.00848 0.14445 0.66738 0.0
C1024 C 0.34745 0.03278 0.80593 0.0
C1025 C 0.34051 0.02259 0.86469 0.0
C1026 C 0.3682 0.03133 0.78425 0.0
C1027 C 0.38241 0.01897 0.82117 0.0
C1028 C 0.37544 1.00851 0.88038 0.0
C1029 C 0.3547 1.01065 0.90182 0.0
C1030 C 0.37498 0.04331 0.72225 0.0
C1031 C 0.38986 0.99487 0.92076 0.0
C1032 C 0.43147 1.00177 0.72695 0.0
C1033 C 0.44651 0.01516 0.75387 0.0
C1034 C 0.4107 1.00251 0.74939 0.0
C1035 C 0.40461 0.01739 0.79853 0.0
C1036 C 0.41971 0.03112 0.82506 0.0
C1037 C 0.44043 0.02965 0.80318 0.0
C1038 C 0.3953 0.98721 0.72095 0.0
C1039 C 0.41394 0.04761 0.87602 0.0
H1040 H 0.33668 0.04225 0.77743 0.0
H1041 H 0.34945 1.00262 0.94703 0.0
H1042 H 0.38787 0.05393 0.7357 0.0
H1043 H 0.38089 0.03252 0.68297 0.0
H1044 H 0.3622 0.05257 0.69996 0.0
H1045 H 0.38199 0.98745 0.96468 0.0
H1046 H 0.39629 0.98258 0.88754 0.0
H1047 H 0.40311 1.0041 0.93997 0.0
H1048 H 0.43603 0.99042 0.68931 0.0
H1049 H 0.45188 0.04017 0.82403 0.0
H1050 H 0.38283 0.99556 0.69364 0.0
H1051 H 0.38789 0.97845 0.76294 0.0
H1052 H 0.4026 0.97604 0.68541 0.0
H1053 H 0.40169 0.05772 0.85469 0.0
H1054 H 0.42738 0.05742 0.89055 0.0
H1055 H 0.40754 0.04034 0.92255 0.0
C1056 C 0.51795 0.3531 0.87354 0.0
C1057 C 0.50049 0.34109 0.85685 0.0
C1058 C 0.52014 0.37366 0.85018 0.0
C1059 C 0.50452 0.38264 0.80903 0.0
C1060 C 0.487 0.37054 0.79142 0.0
C1061 C 0.48523 0.35002 0.81529 0.0
C1062 C 0.53905 0.38593 0.87059 0.0
C1063 C 0.46991 0.37937 0.74797 0.0
C1064 C 0.49859 0.44156 0.80669 0.0
C1065 C 0.50776 0.44717 0.74449 0.0
C1066 C 0.49759 0.42078 0.82822 0.0
C1067 C 0.50599 0.40492 0.78689 0.0
C1068 C 0.51534 0.4104 0.72415 0.0
C1069 C 0.5161 0.43138 0.70371 0.0
C1070 C 0.4874 0.41578 0.89532 0.0
C1071 C 0.52457 0.39406 0.67855 0.0
H1072 H 0.52975 0.34656 0.90616 0.0
H1073 H 0.47184 0.34089 0.8009 0.0
H1074 H 0.54686 0.39227 0.82489 0.0
H1075 H 0.53436 0.39928 0.90249 0.0
H1076 H 0.55034 0.37644 0.89953 0.0
H1077 H 0.45754 0.36784 0.73728 0.0
H1078 H 0.46285 0.39289 0.77382 0.0
H1079 H 0.47633 0.38495 0.69901 0.0
H1080 H 0.49208 0.45346 0.83905 0.0
H1081 H 0.52328 0.43539 0.65574 0.0
H1082 H 0.4985 0.40764 0.92895 0.0
H1083 H 0.47409 0.4052 0.88709 0.0
H1084 H 0.48177 0.42986 0.92192 0.0
H1085 H 0.53155 0.40078 0.6319 0.0
H1086 H 0.51245 0.38277 0.66348 0.0
H1087 H 0.53668 0.38534 0.70636 0.0
C1088 C 0.17627 0.48924 0.80781 0.0
C1089 C 0.18449 0.50338 0.85504 0.0
C1090 C 0.15571 0.49082 0.78433 0.0
C1091 C 0.14283 0.50708 0.80778 0.0
C1092 C 0.15108 0.52163 0.85455 0.0
C1093 C 0.17166 0.51955 0.87777 0.0
C1094 C 0.14766 0.47486 0.73493 0.0
C1095 C 0.13803 0.53921 0.88126 0.0
C1096 C 0.09374 0.51998 0.70608 0.0
C1097 C 0.07821 0.50991 0.74382 0.0
C1098 C 0.11473 0.51934 0.72637 0.0
C1099 C 0.12052 0.50827 0.78568 0.0
C1100 C 0.10495 0.49802 0.82368 0.0
C1101 C 0.08413 0.49899 0.80253 0.0
C1102 C 0.13073 0.53067 0.68457 0.0
C1103 C 0.11026 0.48592 0.88692 0.0
H1104 H 0.18598 0.47689 0.78859 0.0
H1105 H 0.17755 0.53044 0.9149 0.0
H1106 H 0.13434 0.46647 0.75768 0.0
H1107 H 0.14198 0.48257 0.68821 0.0
H1108 H 0.15967 0.46336 0.72053 0.0
H1109 H 0.14735 0.55064 0.91034 0.0
H1110 H 0.1302 0.54736 0.83888 0.0
H1111 H 0.1258 0.53296 0.91513 0.0
H1112 H 0.08948 0.52855 0.66091 0.0
H1113 H 0.07245 0.49108 0.83243 0.0
H1114 H 0.14259 0.51962 0.666 0.0
H1115 H 0.13883 0.54227 0.71657 0.0
H1116 H 0.12382 0.53871 0.64022 0.0
H1117 H 0.12155 0.47355 0.87449 0.0
H1118 H 0.09642 0.47868 0.91068 0.0
H1119 H 0.1177 0.49626 0.9247 0.0
C1120 C 0.02782 0.85201 0.52579 0.0
C1121 C 1.0098 0.83982 0.53085 0.0
C1122 C 0.02823 0.87282 0.54791 0.0
C1123 C 1.01023 0.88189 0.57645 0.0
C1124 C 0.99201 0.86971 0.58196 0.0
C1125 C 0.99199 0.84899 0.55901 0.0
C1126 C 0.04799 0.88514 0.54057 0.0
C1127 C 0.97242 0.87862 0.61177 0.0
C1128 C 0.01598 0.93079 0.68621 0.0
C1129 C 1.01046 0.94664 0.64076 0.0
C1130 C 0.01588 0.90975 0.66625 0.0
C1131 C 1.01029 0.90423 0.59893 0.0
C1132 C 1.00473 0.92015 0.55286 0.0
C1133 C 1.0048 0.941 0.57426 0.0
C1134 C 0.0218 0.89338 0.71732 0.0
C1135 C 0.9988 0.91517 0.48052 0.0
H1136 H 0.04182 0.84522 0.5053 0.0
H1137 H 0.97782 0.84004 0.56239 0.0
H1138 H 0.04521 0.89894 0.50828 0.0
H1139 H 0.05312 0.89082 0.59097 0.0
H1140 H 0.0607 0.8759 0.51767 0.0
H1141 H 0.97547 0.8846 0.6636 0.0
H1142 H 0.96712 0.89189 0.58054 0.0
H1143 H 0.95973 0.86702 0.61457 0.0
H1144 H 0.02037 0.9348 0.73763 0.0
H1145 H 1.0006 0.95295 0.53821 0.0
H1146 H 0.03542 0.88459 0.69873 0.0
H1147 H 1.00891 0.88214 0.72351 0.0
H1148 H 0.02557 0.90007 0.76777 0.0
H1149 H 1.01175 0.90706 0.45476 0.0
H1150 H 0.99488 0.92925 0.45081 0.0
H1151 H 0.98528 0.90455 0.47989 0.0
C1152 C 0.67892 0.99224 0.58523 0.0
C1153 C 0.68514 1.00153 0.5238 0.0
C1154 C 0.65835 0.99357 0.60895 0.0
C1155 C 0.64339 1.00472 0.57114 0.0
C1156 C 0.64959 0.01449 0.50984 0.0
C1157 C 0.67023 1.0127 0.48684 0.0
C1158 C 0.65256 0.98278 0.67428 0.0
C1159 C 0.63429 0.02663 0.46784 0.0
C1160 C 0.58596 0.99137 0.59358 0.0
C1161 C 0.57897 1.00698 0.63776 0.0
C1162 C 0.60678 0.99038 0.57223 0.0
C1163 C 0.62117 1.00553 0.59455 0.0
C1164 C 0.61426 0.0213 0.63936 0.0
C1165 C 0.59336 0.02174 0.66076 0.0
C1166 C 0.61338 0.97307 0.5255 0.0
C1167 C 0.62889 0.03792 0.66387 0.0
H1168 H 0.69021 0.98394 0.61538 0.0
H1169 H 0.67456 0.01976 0.43899 0.0
H1170 H 0.64615 0.99412 0.71096 0.0
H1171 H 0.64029 0.97112 0.66438 0.0
H1172 H 0.66596 0.97487 0.69814 0.0
H1173 H 0.64183 0.03473 0.42462 0.0
H1174 H 0.62228 0.01604 0.44744 0.0
H1175 H 0.6263 0.03828 0.49986 0.0
H1176 H 0.57511 0.97981 0.5755 0.0
H1177 H 0.58821 0.03396 0.69444 0.0
H1178 H 0.62622 0.96419 0.54891 0.0
H1179 H 0.61929 0.97959 0.4771 0.0
H1180 H 0.6005 0.96222 0.5139 0.0
H1181 H 0.64214 0.0308 0.69097 0.0
H1182 H 0.62121 0.04912 0.69845 0.0
H1183 H 0.63531 0.04652 0.61982 0.0
C1184 C 0.49838 0.67472 0.5211 0.0
C1185 C 0.51591 0.68727 0.53179 0.0
C1186 C 0.49792 0.6538 0.54193 0.0
C1187 C 0.51538 0.64497 0.57453 0.0
C1188 C 0.53312 0.65751 0.58542 0.0
C1189 C 0.53318 0.67837 0.56399 0.0
C1190 C 0.47866 0.64111 0.52913 0.0
C1191 C 0.55215 0.64884 0.6195 0.0
C1192 C 0.50812 0.59563 0.6809 0.0
C1193 C 0.5148 0.58004 0.63618 0.0
C1194 C 0.50829 0.61673 0.66175 0.0
C1195 C 0.51524 0.62257 0.59609 0.0
C1196 C 0.52206 0.60693 0.55085 0.0
C1197 C 0.52179 0.58599 0.57134 0.0
C1198 C 0.50092 0.6328 0.71181 0.0
C1199 C 0.52956 0.61229 0.48037 0.0
H1200 H 0.4848 0.68134 0.49731 0.0
H1201 H 0.54695 0.68767 0.57177 0.0
H1202 H 0.48248 0.62753 0.49703 0.0
H1203 H 0.47248 0.63509 0.57786 0.0
H1204 H 0.46634 0.6502 0.50353 0.0
H1205 H 0.56457 0.66062 0.62542 0.0
H1206 H 0.54807 0.6427 0.67041 0.0
H1207 H 0.55833 0.63571 0.58938 0.0
H1208 H 0.50267 0.59138 0.73105 0.0
H1209 H 0.52695 0.57424 0.53595 0.0
H1210 H 0.48759 0.6414 0.6903 0.0
H1211 H 0.51341 0.64425 0.72144 0.0
H1212 H 0.49615 0.62586 0.76101 0.0
H1213 H 0.51708 0.62018 0.45169 0.0
H1214 H 0.53452 0.59841 0.45134 0.0
H1215 H 0.5428 0.62323 0.48343 0.0
C1216 C 0.84619 0.53601 0.5781 0.0
C1217 C 0.83887 0.52299 0.52605 0.0
C1218 C 0.86663 0.53453 0.6028 0.0
C1219 C 0.88031 0.5195 0.57567 0.0
C1220 C 0.87293 0.50598 0.52426 0.0
C1221 C 0.85246 0.50797 0.49986 0.0
C1222 C 0.8737 0.54932 0.65742 0.0
C1223 C 0.88678 0.4897 0.49343 0.0
C1224 C 0.93864 0.52962 0.58639 0.0
C1225 C 0.94475 0.51736 0.64196 0.0
C1226 C 0.91787 0.53045 0.5647 0.0
C1227 C 0.90255 0.51865 0.59879 0.0
C1228 C 0.90854 0.50623 0.65494 0.0
C1229 C 0.92947 0.50582 0.67602 0.0
C1230 C 0.91234 0.54399 0.50493 0.0
C1231 C 0.89285 0.49312 0.69215 0.0
H1232 H 0.83587 0.54741 0.60003 0.0
H1233 H 0.84728 0.49797 0.45908 0.0
H1234 H 0.8795 0.54056 0.70193 0.0
H1235 H 0.88674 0.55889 0.63819 0.0
H1236 H 0.86112 0.55981 0.67449 0.0
H1237 H 0.87775 0.47774 0.46571 0.0
H1238 H 0.89759 0.49717 0.45708 0.0
H1239 H 0.89621 0.48191 0.53293 0.0
H1240 H 0.95015 0.53869 0.55944 0.0
H1241 H 0.93389 0.49617 0.71862 0.0
H1242 H 0.90031 0.55536 0.51998 0.0
H1243 H 0.90573 0.53436 0.46362 0.0
H1244 H 0.92592 0.55257 0.48464 0.0
H1245 H 0.88032 0.50305 0.71262 0.0
H1246 H 0.89987 0.4843 0.73472 0.0
H1247 H 0.88559 0.482 0.65637 0.0
loop_
_geom_bond_atom_site_label_1
_geom_bond_atom_site_label_2
_geom_bond_distance
_geom_bond_site_symmetry_2
_ccdc_geom_bond_type
C0 C1 1.264 . S
C0 C5 1.479 . S
C0 C10 1.465 . S
C1 C0 1.264 . S
C1 C3 1.339 . S
C1 H28 0.931 . S
C2 C3 1.395 . S
C2 C4 1.320 . S
C3 C1 1.339 . S
C3 C2 1.395 . S
C3 H29 0.929 . S
C4 C2 1.320 . S
C4 C5 1.405 . S
C4 H30 0.930 . S
C5 C0 1.479 . S
C5 C4 1.405 . S
C5 H31 0.931 . S
U6 O7 2.454 . S
U6 O8 2.458 . S
U6 C9 2.984 . S
U6 C10 2.847 . S
U6 C23 2.882 . S
U6 O24 2.441 . S
U6 O25 2.420 . S
U6 O26 2.455 . S
U6 O27 2.449 . S
O7 U6 2.454 . S
O7 C9 1.353 . S
O8 U6 2.458 . S
O8 C9 1.286 . S
C9 U6 2.984 . S
C9 O7 1.353 . S
C9 O8 1.286 . S
C9 C11 1.363 . S
C10 C0 1.465 . S
C10 U6 2.847 . S
C10 O24 1.249 . S
C10 O25 1.202 . S
C11 C9 1.363 . S
C11 C13 1.408 . S
C11 C16 1.342 . S
C12 C13 1.310 . S
C12 C15 1.461 . S
C12 H32 0.932 . S
C13 C11 1.408 . S
C13 C12 1.310 . S
C13 H33 0.930 . S
C14 C15 1.474 . S
C14 C16 1.285 . S
C14 H34 0.929 . S
C15 C12 1.461 . S
C15 C14 1.474 . S
C16 C11 1.342 . S
C16 C14 1.285 . S
C16 H35 0.930 . S
C17 C20 1.424 . S
C17 C22 1.245 . S
C17 C23 1.428 . S
C18 C21 1.260 . S
C18 C22 1.477 . S
C18 H36 0.932 . S
C19 C20 1.384 . S
C19 C21 1.479 . S
C19 H37 0.929 . S
C20 C17 1.424 . S
C20 C19 1.384 . S
C20 H38 0.928 . S
C21 C18 1.260 . S
C21 C19 1.479 . S
C22 C17 1.245 . S
C22 C18 1.477 . S
C22 H39 0.932 . S
C23 U6 2.882 . S
C23 C17 1.428 . S
C23 O26 1.301 . S
C23 O27 1.282 . S
O24 U6 2.441 . S
O24 C10 1.249 . S
O25 U6 2.420 . S
O25 C10 1.202 . S
O26 U6 2.455 . S
O26 C23 1.301 . S
O27 U6 2.449 . S
O27 C23 1.282 . S
H28 C1 0.931 . S
H29 C3 0.929 . S
H30 C4 0.930 . S
H31 C5 0.931 . S
H32 C12 0.932 . S
H33 C13 0.930 . S
H34 C14 0.929 . S
H35 C16 0.930 . S
H36 C18 0.932 . S
H37 C19 0.929 . S
H38 C20 0.928 . S
H39 C22 0.932 . S
C40 C41 1.264 . S
C40 C45 1.479 . S
C40 C50 1.465 . S
C41 C40 1.264 . S
C41 C43 1.339 . S
C41 H68 0.931 . S
C42 C43 1.395 . S
C42 C44 1.320 . S
C43 C41 1.339 . S
C43 C42 1.395 . S
C43 H69 0.929 . S
C44 C42 1.320 . S
C44 C45 1.405 . S
C44 H70 0.921 1_455 S
C45 C40 1.479 . S
C45 C44 1.405 . S
C45 H71 0.931 . S
U46 O47 2.454 . S
U46 O48 2.458 . S
U46 C49 2.984 . S
U46 C50 2.847 . S
U46 C63 2.882 . S
U46 O64 2.441 . S
U46 O65 2.420 . S
U46 O66 2.455 . S
U46 O67 2.449 . S
O47 U46 2.454 . S
O47 C49 1.353 . S
O48 U46 2.458 . S
O48 C49 1.286 . S
C49 U46 2.984 . S
C49 O47 1.353 . S
C49 O48 1.286 . S
C49 C51 1.363 . S
C50 C40 1.465 . S
C50 U46 2.847 . S
C50 O64 1.249 . S
C50 O65 1.202 . S
C51 C49 1.363 . S
C51 C53 1.408 . S
C51 C56 1.342 . S
C52 C53 1.310 . S
C52 C55 1.461 . S
C52 H72 0.932 . S
C53 C51 1.408 . S
C53 C52 1.310 . S
C53 H73 0.930 . S
C54 C55 1.474 1_655 S
C54 C56 1.285 1_655 S
C54 H74 0.930 . S
C55 C52 1.461 . S
C55 C54 1.474 1_455 S
C56 C51 1.342 . S
C56 C54 1.285 1_455 S
C56 H75 0.932 . S
C57 C60 1.424 . S
C57 C62 1.245 . S
C57 C63 1.428 . S
C58 C61 1.260 . S
C58 C62 1.477 . S
C58 H76 0.932 . S
C59 C60 1.384 . S
C59 C61 1.479 . S
C59 H77 0.929 . S
C60 C57 1.424 . S
C60 C59 1.384 . S
C60 H78 0.928 . S
C61 C58 1.260 . S
C61 C59 1.479 . S
C62 C57 1.245 . S
C62 C58 1.477 . S
C62 H79 0.932 . S
C63 U46 2.882 . S
C63 C57 1.428 . S
C63 O66 1.301 . S
C63 O67 1.282 . S
O64 U46 2.441 . S
O64 C50 1.249 . S
O65 U46 2.420 . S
O65 C50 1.202 . S
O66 U46 2.455 . S
O66 C63 1.301 . S
O67 U46 2.449 . S
O67 C63 1.282 . S
H68 C41 0.931 . S
H69 C43 0.929 . S
H70 C44 0.921 1_655 S
H71 C45 0.931 . S
H72 C52 0.932 . S
H73 C53 0.930 . S
H74 C54 0.930 . S
H75 C56 0.932 . S
H76 C58 0.932 . S
H77 C59 0.929 . S
H78 C60 0.928 . S
H79 C62 0.932 . S
C80 C81 1.264 . S
C80 C85 1.479 . S
C80 C90 1.465 . S
C81 C80 1.264 . S
C81 C83 1.339 . S
C81 H108 0.931 . S
C82 C83 1.395 . S
C82 C84 1.320 . S
C83 C81 1.339 . S
C83 C82 1.395 . S
C83 H109 0.929 . S
C84 C82 1.320 . S
C84 C85 1.405 . S
C84 H110 0.921 1_545 S
C85 C80 1.479 . S
C85 C84 1.405 . S
C85 H111 0.931 . S
U86 O87 2.454 . S
U86 O88 2.458 . S
U86 C89 2.984 . S
U86 C90 2.847 . S
U86 C103 2.882 . S
U86 O104 2.441 . S
U86 O105 2.420 . S
U86 O106 2.455 . S
U86 O107 2.449 . S
O87 U86 2.454 . S
O87 C89 1.353 . S
O88 U86 2.458 . S
O88 C89 1.286 . S
C89 U86 2.984 . S
C89 O87 1.353 . S
C89 O88 1.286 . S
C89 C91 1.363 . S
C90 C80 1.465 . S
C90 U86 2.847 . S
C90 O104 1.249 . S
C90 O105 1.202 . S
C91 C89 1.363 . S
C91 C93 1.408 . S
C91 C96 1.342 . S
C92 C93 1.310 . S
C92 C95 1.461 . S
C92 H112 0.932 . S
C93 C91 1.408 . S
C93 C92 1.310 . S
C93 H113 0.930 . S
C94 C95 1.474 1_565 S
C94 C96 1.285 1_565 S
C94 H114 0.930 . S
C95 C92 1.461 . S
C95 C94 1.474 1_545 S
C96 C91 1.342 . S
C96 C94 1.285 1_545 S
C96 H115 0.932 . S
C97 C100 1.424 . S
C97 C102 1.245 . S
C97 C103 1.428 . S
C98 C101 1.260 . S
C98 C102 1.477 . S
C98 H116 0.932 . S
C99 C100 1.384 . S
C99 C101 1.479 . S
C99 H117 0.929 . S
C100 C97 1.424 . S
C100 C99 1.384 . S
C100 H118 0.928 . S
C101 C98 1.260 . S
C101 C99 1.479 . S
C102 C97 1.245 . S
C102 C98 1.477 . S
C102 H119 0.932 . S
C103 U86 2.882 . S
C103 C97 1.428 . S
C103 O106 1.301 . S
C103 O107 1.282 . S
O104 U86 2.441 . S
O104 C90 1.249 . S
O105 U86 2.420 . S
O105 C90 1.202 . S
O106 U86 2.455 . S
O106 C103 1.301 . S
O107 U86 2.449 . S
O107 C103 1.282 . S
H108 C81 0.931 . S
H109 C83 0.929 . S
H110 C84 0.921 1_565 S
H111 C85 0.931 . S
H112 C92 0.932 . S
H113 C93 0.930 . S
H114 C94 0.930 . S
H115 C96 0.932 . S
H116 C98 0.932 . S
H117 C99 0.929 . S
H118 C100 0.928 . S
H119 C102 0.932 . S
C120 C121 1.264 . S
C120 C125 1.479 . S
C120 C130 1.465 . S
C121 C120 1.264 . S
C121 C123 1.339 . S
C121 H148 0.931 . S
C122 C123 1.395 . S
C122 C124 1.320 . S
C123 C121 1.339 . S
C123 C122 1.395 . S
C123 H149 0.929 . S
C124 C122 1.320 . S
C124 C125 1.405 . S
C124 H150 0.930 . S
C125 C120 1.479 . S
C125 C124 1.405 . S
C125 H151 0.931 . S
U126 O127 2.454 . S
U126 O128 2.458 . S
U126 C129 2.984 . S
U126 C130 2.847 . S
U126 C143 2.882 . S
U126 O144 2.441 . S
U126 O145 2.420 . S
U126 O146 2.455 . S
U126 O147 2.449 . S
O127 U126 2.454 . S
O127 C129 1.353 . S
O128 U126 2.458 . S
O128 C129 1.286 . S
C129 U126 2.984 . S
C129 O127 1.353 . S
C129 O128 1.286 . S
C129 C131 1.363 . S
C130 C120 1.465 . S
C130 U126 2.847 . S
C130 O144 1.249 . S
C130 O145 1.202 . S
C131 C129 1.363 . S
C131 C133 1.408 . S
C131 C136 1.342 . S
C132 C133 1.310 . S
C132 C135 1.461 . S
C132 H152 0.932 . S
C133 C131 1.408 . S
C133 C132 1.310 . S
C133 H153 0.930 . S
C134 C135 1.474 . S
C134 C136 1.285 . S
C134 H154 0.929 . S
C135 C132 1.461 . S
C135 C134 1.474 . S
C136 C131 1.342 . S
C136 C134 1.285 . S
C136 H155 0.930 . S
C137 C140 1.424 . S
C137 C142 1.245 . S
C137 C143 1.428 . S
C138 C141 1.260 . S
C138 C142 1.477 . S
C138 H156 0.932 . S
C139 C140 1.384 . S
C139 C141 1.479 . S
C139 H157 0.929 . S
C140 C137 1.424 . S
C140 C139 1.384 . S
C140 H158 0.928 . S
C141 C138 1.260 . S
C141 C139 1.479 . S
C142 C137 1.245 . S
C142 C138 1.477 . S
C142 H159 0.932 . S
C143 U126 2.882 . S
C143 C137 1.428 . S
C143 O146 1.301 . S
C143 O147 1.282 . S
O144 U126 2.441 . S
O144 C130 1.249 . S
O145 U126 2.420 . S
O145 C130 1.202 . S
O146 U126 2.455 . S
O146 C143 1.301 . S
O147 U126 2.449 . S
O147 C143 1.282 . S
H148 C121 0.931 . S
H149 C123 0.929 . S
H150 C124 0.930 . S
H151 C125 0.931 . S
H152 C132 0.932 . S
H153 C133 0.930 . S
H154 C134 0.929 . S
H155 C136 0.930 . S
H156 C138 0.932 . S
H157 C139 0.929 . S
H158 C140 0.928 . S
H159 C142 0.932 . S
C160 C161 1.264 . S
C160 C165 1.479 . S
C160 C170 1.465 . S
C161 C160 1.264 . S
C161 C163 1.339 . S
C161 H188 0.931 . S
C162 C163 1.395 . S
C162 C164 1.320 . S
C163 C161 1.339 . S
C163 C162 1.395 . S
C163 H189 0.929 . S
C164 C162 1.320 . S
C164 C165 1.405 . S
C164 H190 0.930 . S
C165 C160 1.479 . S
C165 C164 1.405 . S
C165 H191 0.931 . S
U166 O167 2.454 . S
U166 O168 2.458 . S
U166 C169 2.984 . S
U166 C170 2.847 1_554 S
U166 C183 2.882 . S
U166 O184 2.441 1_554 S
U166 O185 2.420 1_554 S
U166 O186 2.455 . S
U166 O187 2.449 . S
O167 U166 2.454 . S
O167 C169 1.353 . S
O168 U166 2.458 . S
O168 C169 1.286 . S
C169 U166 2.984 . S
C169 O167 1.353 . S
C169 O168 1.286 . S
C169 C171 1.363 . S
C170 C160 1.465 . S
C170 U166 2.847 1_556 S
C170 O184 1.249 . S
C170 O185 1.202 . S
C171 C169 1.363 . S
C171 C173 1.408 . S
C171 C176 1.342 . S
C172 C173 1.310 . S
C172 C175 1.461 . S
C172 H192 0.932 . S
C173 C171 1.408 . S
C173 C172 1.310 . S
C173 H193 0.930 1_554 S
C174 C175 1.474 . S
C174 C176 1.285 . S
C174 H194 0.929 . S
C175 C172 1.461 . S
C175 C174 1.474 . S
C176 C171 1.342 . S
C176 C174 1.285 . S
C176 H195 0.930 . S
C177 C180 1.424 . S
C177 C182 1.245 . S
C177 C183 1.428 . S
C178 C181 1.260 . S
C178 C182 1.477 . S
C178 H196 0.932 . S
C179 C180 1.384 . S
C179 C181 1.479 . S
C179 H197 0.929 . S
C180 C177 1.424 . S
C180 C179 1.384 . S
C180 H198 0.928 . S
C181 C178 1.260 . S
C181 C179 1.479 . S
C182 C177 1.245 . S
C182 C178 1.477 . S
C182 H199 0.932 . S
C183 U166 2.882 . S
C183 C177 1.428 . S
C183 O186 1.301 . S
C183 O187 1.282 . S
O184 U166 2.441 1_556 S
O184 C170 1.249 . S
O185 U166 2.420 1_556 S
O185 C170 1.202 . S
O186 U166 2.455 . S
O186 C183 1.301 . S
O187 U166 2.449 . S
O187 C183 1.282 . S
H188 C161 0.931 . S
H189 C163 0.929 . S
H190 C164 0.930 . S
H191 C165 0.931 . S
H192 C172 0.932 . S
H193 C173 0.930 1_556 S
H194 C174 0.929 . S
H195 C176 0.930 . S
H196 C178 0.932 . S
H197 C179 0.929 . S
H198 C180 0.928 . S
H199 C182 0.932 . S
C200 C201 1.264 . S
C200 C205 1.479 . S
C200 C210 1.465 . S
C201 C200 1.264 . S
C201 C203 1.339 . S
C201 H228 0.931 . S
C202 C203 1.395 . S
C202 C204 1.320 . S
C203 C201 1.339 . S
C203 C202 1.395 . S
C203 H229 0.929 . S
C204 C202 1.320 . S
C204 C205 1.405 . S
C204 H230 0.923 1_455 S
C205 C200 1.479 . S
C205 C204 1.405 . S
C205 H231 0.931 . S
U206 O207 2.454 . S
U206 O208 2.458 . S
U206 C209 2.984 . S
U206 C210 2.847 1_554 S
U206 C223 2.882 . S
U206 O224 2.441 1_554 S
U206 O225 2.420 1_554 S
U206 O226 2.455 . S
U206 O227 2.449 . S
O207 U206 2.454 . S
O207 C209 1.353 . S
O208 U206 2.458 . S
O208 C209 1.286 . S
C209 U206 2.984 . S
C209 O207 1.353 . S
C209 O208 1.286 . S
C209 C211 1.363 . S
C210 C200 1.465 . S
C210 U206 2.847 1_556 S
C210 O224 1.249 . S
C210 O225 1.202 . S
C211 C209 1.363 . S
C211 C213 1.408 . S
C211 C216 1.342 . S
C212 C213 1.310 . S
C212 C215 1.462 . S
C212 H232 0.932 . S
C213 C211 1.408 . S
C213 C212 1.310 . S
C213 H233 0.930 1_554 S
C214 C215 1.474 1_655 S
C214 C216 1.286 1_655 S
C214 H234 0.929 . S
C215 C212 1.462 . S
C215 C214 1.474 1_455 S
C216 C211 1.342 . S
C216 C214 1.286 1_455 S
C216 H235 0.934 . S
C217 C220 1.424 . S
C217 C222 1.245 . S
C217 C223 1.428 . S
C218 C221 1.260 . S
C218 C222 1.477 . S
C218 H236 0.932 . S
C219 C220 1.384 . S
C219 C221 1.479 . S
C219 H237 0.929 . S
C220 C217 1.424 . S
C220 C219 1.384 . S
C220 H238 0.928 . S
C221 C218 1.260 . S
C221 C219 1.479 . S
C222 C217 1.245 . S
C222 C218 1.477 . S
C222 H239 0.932 . S
C223 U206 2.882 . S
C223 C217 1.428 . S
C223 O226 1.301 . S
C223 O227 1.282 . S
O224 U206 2.441 1_556 S
O224 C210 1.249 . S
O225 U206 2.420 1_556 S
O225 C210 1.202 . S
O226 U206 2.455 . S
O226 C223 1.301 . S
O227 U206 2.449 . S
O227 C223 1.282 . S
H228 C201 0.931 . S
H229 C203 0.929 . S
H230 C204 0.923 1_655 S
H231 C205 0.931 . S
H232 C212 0.932 . S
H233 C213 0.930 1_556 S
H234 C214 0.929 . S
H235 C216 0.934 . S
H236 C218 0.932 . S
H237 C219 0.929 . S
H238 C220 0.928 . S
H239 C222 0.932 . S
C240 C241 1.264 . S
C240 C245 1.479 . S
C240 C250 1.465 . S
C241 C240 1.264 . S
C241 C243 1.339 . S
C241 H268 0.931 . S
C242 C243 1.395 . S
C242 C244 1.320 . S
C243 C241 1.339 . S
C243 C242 1.395 . S
C243 H269 0.929 . S
C244 C242 1.320 . S
C244 C245 1.405 . S
C244 H270 0.923 1_545 S
C245 C240 1.479 . S
C245 C244 1.405 . S
C245 H271 0.931 . S
U246 O247 2.454 . S
U246 O248 2.458 . S
U246 C249 2.984 . S
U246 C250 2.847 1_554 S
U246 C263 2.882 . S
U246 O264 2.441 1_554 S
U246 O265 2.420 1_554 S
U246 O266 2.455 . S
U246 O267 2.449 . S
O247 U246 2.454 . S
O247 C249 1.353 . S
O248 U246 2.458 . S
O248 C249 1.286 . S
C249 U246 2.984 . S
C249 O247 1.353 . S
C249 O248 1.286 . S
C249 C251 1.363 . S
C250 C240 1.465 . S
C250 U246 2.847 1_556 S
C250 O264 1.249 . S
C250 O265 1.202 . S
C251 C249 1.363 . S
C251 C253 1.408 . S
C251 C256 1.342 . S
C252 C253 1.310 . S
C252 C255 1.462 . S
C252 H272 0.932 . S
C253 C251 1.408 . S
C253 C252 1.310 . S
C253 H273 0.930 1_554 S
C254 C255 1.474 1_565 S
C254 C256 1.286 1_565 S
C254 H274 0.929 . S
C255 C252 1.462 . S
C255 C254 1.474 1_545 S
C256 C251 1.342 . S
C256 C254 1.286 1_545 S
C256 H275 0.934 . S
C257 C260 1.424 . S
C257 C262 1.245 . S
C257 C263 1.428 . S
C258 C261 1.260 . S
C258 C262 1.477 . S
C258 H276 0.932 . S
C259 C260 1.384 . S
C259 C261 1.479 . S
C259 H277 0.929 . S
C260 C257 1.424 . S
C260 C259 1.384 . S
C260 H278 0.928 . S
C261 C258 1.260 . S
C261 C259 1.479 . S
C262 C257 1.245 . S
C262 C258 1.477 . S
C262 H279 0.932 . S
C263 U246 2.882 . S
C263 C257 1.428 . S
C263 O266 1.301 . S
C263 O267 1.282 . S
O264 U246 2.441 1_556 S
O264 C250 1.249 . S
O265 U246 2.420 1_556 S
O265 C250 1.202 . S
O266 U246 2.455 . S
O266 C263 1.301 . S
O267 U246 2.449 . S
O267 C263 1.282 . S
H268 C241 0.931 . S
H269 C243 0.929 . S
H270 C244 0.923 1_565 S
H271 C245 0.931 . S
H272 C252 0.932 . S
H273 C253 0.930 1_556 S
H274 C254 0.929 . S
H275 C256 0.934 . S
H276 C258 0.932 . S
H277 C259 0.929 . S
H278 C260 0.928 . S
H279 C262 0.932 . S
C280 C281 1.264 . S
C280 C285 1.479 . S
C280 C290 1.465 . S
C281 C280 1.264 . S
C281 C283 1.339 . S
C281 H308 0.931 . S
C282 C283 1.395 . S
C282 C284 1.320 . S
C283 C281 1.339 . S
C283 C282 1.395 . S
C283 H309 0.929 . S
C284 C282 1.320 . S
C284 C285 1.405 . S
C284 H310 0.930 . S
C285 C280 1.479 . S
C285 C284 1.405 . S
C285 H311 0.931 . S
U286 O287 2.454 . S
U286 O288 2.458 . S
U286 C289 2.984 . S
U286 C290 2.847 1_554 S
U286 C303 2.882 . S
U286 O304 2.441 1_554 S
U286 O305 2.420 1_554 S
U286 O306 2.455 . S
U286 O307 2.449 . S
O287 U286 2.454 . S
O287 C289 1.353 . S
O288 U286 2.458 . S
O288 C289 1.286 . S
C289 U286 2.984 . S
C289 O287 1.353 . S
C289 O288 1.286 . S
C289 C291 1.363 . S
C290 C280 1.465 . S
C290 U286 2.847 1_556 S
C290 O304 1.249 . S
C290 O305 1.202 . S
C291 C289 1.363 . S
C291 C293 1.408 . S
C291 C296 1.342 . S
C292 C293 1.310 . S
C292 C295 1.461 . S
C292 H312 0.932 . S
C293 C291 1.408 . S
C293 C292 1.310 . S
C293 H313 0.930 1_554 S
C294 C295 1.474 . S
C294 C296 1.285 . S
C294 H314 0.929 . S
C295 C292 1.461 . S
C295 C294 1.474 . S
C296 C291 1.342 . S
C296 C294 1.285 . S
C296 H315 0.930 . S
C297 C300 1.424 . S
C297 C302 1.245 . S
C297 C303 1.428 . S
C298 C301 1.260 . S
C298 C302 1.477 . S
C298 H316 0.932 . S
C299 C300 1.384 . S
C299 C301 1.479 . S
C299 H317 0.929 . S
C300 C297 1.424 . S
C300 C299 1.384 . S
C300 H318 0.928 . S
C301 C298 1.260 . S
C301 C299 1.479 . S
C302 C297 1.245 . S
C302 C298 1.477 . S
C302 H319 0.932 . S
C303 U286 2.882 . S
C303 C297 1.428 . S
C303 O306 1.301 . S
C303 O307 1.282 . S
O304 U286 2.441 1_556 S
O304 C290 1.249 . S
O305 U286 2.420 1_556 S
O305 C290 1.202 . S
O306 U286 2.455 . S
O306 C303 1.301 . S
O307 U286 2.449 . S
O307 C303 1.282 . S
H308 C281 0.931 . S
H309 C283 0.929 . S
H310 C284 0.930 . S
H311 C285 0.931 . S
H312 C292 0.932 . S
H313 C293 0.930 1_556 S
H314 C294 0.929 . S
H315 C296 0.930 . S
H316 C298 0.932 . S
H317 C299 0.929 . S
H318 C300 0.928 . S
H319 C302 0.932 . S
Pr320 C322 2.880 . S
Pr320 O340 2.562 . S
Pr320 O341 2.490 . S
Pr320 O342 2.695 1_565 S
Pr320 O343 2.512 . S
Pr320 O345 2.437 . S
Pr320 O348 2.436 1_455 S
Pr320 O350 2.438 1_565 S
Pr321 C331 2.880 . S
Pr321 O342 2.436 1_655 S
Pr321 O344 2.438 1_545 S
Pr321 O346 2.562 . S
Pr321 O347 2.490 . S
Pr321 O348 2.695 1_545 S
Pr321 O349 2.512 . S
Pr321 O351 2.437 . S
C322 Pr320 2.880 . S
C322 C323 1.491 . S
C322 O340 1.254 . S
C322 O341 1.225 . S
C323 C322 1.491 . S
C323 C324 1.392 . S
C323 C328 1.356 . S
C324 C323 1.392 . S
C324 C325 1.368 . S
C324 H352 0.929 . S
C325 C324 1.368 . S
C325 C326 1.386 . S
C325 H353 0.929 . S
C326 C325 1.386 . S
C326 C327 1.373 . S
C327 C326 1.373 . S
C327 C328 1.409 . S
C327 H354 0.931 1_455 S
C328 C323 1.356 . S
C328 C327 1.409 . S
C328 H355 0.930 1_455 S
C329 O342 1.253 1_565 S
C329 O343 1.278 . S
C330 O344 1.267 . S
C330 O345 1.278 1_655 S
C331 Pr321 2.880 . S
C331 C332 1.491 . S
C331 O346 1.254 . S
C331 O347 1.225 . S
C332 C331 1.491 . S
C332 C333 1.392 . S
C332 C337 1.356 . S
C333 C332 1.392 . S
C333 C334 1.368 . S
C333 H356 0.929 . S
C334 C333 1.368 . S
C334 C335 1.386 . S
C334 H357 0.929 . S
C335 C334 1.386 . S
C335 C336 1.373 . S
C336 C335 1.373 . S
C336 C337 1.409 . S
C336 H358 0.931 1_655 S
C337 C332 1.356 . S
C337 C336 1.409 . S
C337 H359 0.930 1_655 S
C338 O348 1.270 1_545 S
C338 O349 1.248 . S
C339 O350 1.267 . S
C339 O351 1.278 1_455 S
O340 Pr320 2.562 . S
O340 C322 1.254 . S
O341 Pr320 2.490 . S
O341 C322 1.225 . S
O342 Pr320 2.695 1_545 S
O342 Pr321 2.436 1_455 S
O342 C329 1.253 1_545 S
O343 Pr320 2.512 . S
O343 C329 1.278 . S
O344 Pr321 2.438 1_565 S
O344 C330 1.267 . S
O345 Pr320 2.437 . S
O345 C330 1.278 1_455 S
O346 Pr321 2.562 . S
O346 C331 1.254 . S
O347 Pr321 2.490 . S
O347 C331 1.225 . S
O348 Pr320 2.436 1_655 S
O348 Pr321 2.695 1_565 S
O348 C338 1.270 1_565 S
O349 Pr321 2.512 . S
O349 C338 1.248 . S
O350 Pr320 2.438 1_545 S
O350 C339 1.267 . S
O351 Pr321 2.437 . S
O351 C339 1.278 1_655 S
H352 C324 0.929 . S
H353 C325 0.929 . S
H354 C327 0.931 1_655 S
H355 C328 0.930 1_655 S
H356 C333 0.929 . S
H357 C334 0.929 . S
H358 C336 0.931 1_455 S
H359 C337 0.930 1_455 S
Pr360 C362 2.880 . S
Pr360 O380 2.562 . S
Pr360 O381 2.490 . S
Pr360 O382 2.695 . S
Pr360 O383 2.512 . S
Pr360 O385 2.437 . S
Pr360 O388 2.436 1_545 S
Pr360 O390 2.438 . S
Pr361 C371 2.880 . S
Pr361 O382 2.436 1_565 S
Pr361 O384 2.438 . S
Pr361 O386 2.562 . S
Pr361 O387 2.490 . S
Pr361 O388 2.695 . S
Pr361 O389 2.512 . S
Pr361 O391 2.437 . S
C362 Pr360 2.880 . S
C362 C363 1.491 . S
C362 O380 1.254 . S
C362 O381 1.225 . S
C363 C362 1.491 . S
C363 C364 1.392 . S
C363 C368 1.356 . S
C364 C363 1.392 . S
C364 C365 1.368 . S
C364 H392 0.929 . S
C365 C364 1.368 . S
C365 C366 1.386 . S
C365 H393 0.929 . S
C366 C365 1.386 . S
C366 C367 1.373 . S
C367 C366 1.373 . S
C367 C368 1.409 . S
C367 H394 0.931 1_545 S
C368 C363 1.356 . S
C368 C367 1.409 . S
C368 H395 0.930 1_545 S
C369 O382 1.270 . S
C369 O383 1.248 . S
C370 O384 1.267 . S
C370 O385 1.278 1_565 S
C371 Pr361 2.880 . S
C371 C372 1.491 . S
C371 O386 1.254 . S
C371 O387 1.225 . S
C372 C371 1.491 . S
C372 C373 1.392 . S
C372 C377 1.356 . S
C373 C372 1.392 . S
C373 C374 1.368 . S
C373 H396 0.929 . S
C374 C373 1.368 . S
C374 C375 1.386 . S
C374 H397 0.929 . S
C375 C374 1.386 . S
C375 C376 1.373 . S
C376 C375 1.373 . S
C376 C377 1.409 . S
C376 H398 0.931 1_565 S
C377 C372 1.356 . S
C377 C376 1.409 . S
C377 H399 0.930 1_565 S
C378 O388 1.270 . S
C378 O389 1.248 . S
C379 O390 1.267 . S
C379 O391 1.278 1_545 S
O380 Pr360 2.562 . S
O380 C362 1.254 . S
O381 Pr360 2.490 . S
O381 C362 1.225 . S
O382 Pr360 2.695 . S
O382 Pr361 2.436 1_545 S
O382 C369 1.270 . S
O383 Pr360 2.512 . S
O383 C369 1.248 . S
O384 Pr361 2.438 . S
O384 C370 1.267 . S
O385 Pr360 2.437 . S
O385 C370 1.278 1_545 S
O386 Pr361 2.562 . S
O386 C371 1.254 . S
O387 Pr361 2.490 . S
O387 C371 1.225 . S
O388 Pr360 2.436 1_565 S
O388 Pr361 2.695 . S
O388 C378 1.270 . S
O389 Pr361 2.512 . S
O389 C378 1.248 . S
O390 Pr360 2.438 . S
O390 C379 1.267 . S
O391 Pr361 2.437 . S
O391 C379 1.278 1_565 S
H392 C364 0.929 . S
H393 C365 0.929 . S
H394 C367 0.931 1_565 S
H395 C368 0.930 1_565 S
H396 C373 0.929 . S
H397 C374 0.929 . S
H398 C376 0.931 1_545 S
H399 C377 0.930 1_545 S
Pr400 C402 2.880 . S
Pr400 O420 2.562 . S
Pr400 O421 2.490 . S
Pr400 O422 2.695 . S
Pr400 O423 2.512 . S
Pr400 O425 2.437 . S
Pr400 O428 2.436 . S
Pr400 O430 2.438 . S
Pr401 C411 2.880 . S
Pr401 O422 2.436 . S
Pr401 O424 2.438 . S
Pr401 O426 2.562 . S
Pr401 O427 2.490 . S
Pr401 O428 2.695 . S
Pr401 O429 2.512 . S
Pr401 O431 2.437 . S
C402 Pr400 2.880 . S
C402 C403 1.491 . S
C402 O420 1.254 . S
C402 O421 1.225 . S
C403 C402 1.491 . S
C403 C404 1.392 . S
C403 C408 1.356 . S
C404 C403 1.392 . S
C404 C405 1.368 . S
C404 H432 0.929 . S
C405 C404 1.368 . S
C405 C406 1.386 . S
C405 H433 0.929 . S
C406 C405 1.386 . S
C406 C407 1.373 . S
C407 C406 1.373 . S
C407 C408 1.409 . S
C407 H434 0.931 . S
C408 C403 1.356 . S
C408 C407 1.409 . S
C408 H435 0.930 . S
C409 O422 1.270 . S
C409 O423 1.248 . S
C410 O424 1.267 . S
C410 O425 1.278 . S
C411 Pr401 2.880 . S
C411 C412 1.491 . S
C411 O426 1.254 . S
C411 O427 1.225 . S
C412 C411 1.491 . S
C412 C413 1.392 . S
C412 C417 1.356 . S
C413 C412 1.392 . S
C413 C414 1.368 . S
C413 H436 0.929 . S
C414 C413 1.368 . S
C414 C415 1.386 . S
C414 H437 0.929 . S
C415 C414 1.386 . S
C415 C416 1.373 . S
C416 C415 1.373 . S
C416 C417 1.409 . S
C416 H438 0.931 . S
C417 C412 1.356 . S
C417 C416 1.409 . S
C417 H439 0.930 . S
C418 O428 1.270 . S
C418 O429 1.248 . S
C419 O430 1.267 . S
C419 O431 1.278 . S
O420 Pr400 2.562 . S
O420 C402 1.254 . S
O421 Pr400 2.490 . S
O421 C402 1.225 . S
O422 Pr400 2.695 . S
O422 Pr401 2.436 . S
O422 C409 1.270 . S
O423 Pr400 2.512 . S
O423 C409 1.248 . S
O424 Pr401 2.438 . S
O424 C410 1.267 . S
O425 Pr400 2.437 . S
O425 C410 1.278 . S
O426 Pr401 2.562 . S
O426 C411 1.254 . S
O427 Pr401 2.490 . S
O427 C411 1.225 . S
O428 Pr400 2.436 . S
O428 Pr401 2.695 . S
O428 C418 1.270 . S
O429 Pr401 2.512 . S
O429 C418 1.248 . S
O430 Pr400 2.438 . S
O430 C419 1.267 . S
O431 Pr401 2.437 . S
O431 C419 1.278 . S
H432 C404 0.929 . S
H433 C405 0.929 . S
H434 C407 0.931 . S
H435 C408 0.930 . S
H436 C413 0.929 . S
H437 C414 0.929 . S
H438 C416 0.931 . S
H439 C417 0.930 . S
Pr440 C442 2.880 . S
Pr440 O460 2.562 . S
Pr440 O461 2.490 . S
Pr440 O462 2.695 1_655 S
Pr440 O463 2.512 . S
Pr440 O465 2.437 . S
Pr440 O468 2.436 . S
Pr440 O470 2.438 1_655 S
Pr441 C451 2.880 . S
Pr441 O462 2.436 . S
Pr441 O464 2.438 1_455 S
Pr441 O466 2.562 . S
Pr441 O467 2.490 . S
Pr441 O468 2.695 1_455 S
Pr441 O469 2.512 . S
Pr441 O471 2.437 . S
C442 Pr440 2.880 . S
C442 C443 1.491 . S
C442 O460 1.254 . S
C442 O461 1.225 . S
C443 C442 1.491 . S
C443 C444 1.392 . S
C443 C448 1.356 . S
C444 C443 1.392 . S
C444 C445 1.368 . S
C444 H472 0.929 . S
C445 C444 1.368 . S
C445 C446 1.386 . S
C445 H473 0.929 . S
C446 C445 1.386 . S
C446 C447 1.373 . S
C447 C446 1.373 . S
C447 C448 1.409 . S
C447 H474 0.931 . S
C448 C443 1.356 . S
C448 C447 1.409 . S
C448 H475 0.930 . S
C449 O462 1.256 1_655 S
C449 O463 1.273 . S
C450 O464 1.267 . S
C450 O465 1.278 . S
C451 Pr441 2.880 . S
C451 C452 1.491 . S
C451 O466 1.254 . S
C451 O467 1.225 . S
C452 C451 1.491 . S
C452 C453 1.392 . S
C452 C457 1.356 . S
C453 C452 1.392 . S
C453 C454 1.368 . S
C453 H476 0.929 . S
C454 C453 1.368 . S
C454 C455 1.386 . S
C454 H477 0.929 . S
C455 C454 1.386 . S
C455 C456 1.373 . S
C456 C455 1.373 . S
C456 C457 1.409 . S
C456 H478 0.931 . S
C457 C452 1.356 . S
C457 C456 1.409 . S
C457 H479 0.930 . S
C458 O468 1.270 1_455 S
C458 O469 1.248 . S
C459 O470 1.267 . S
C459 O471 1.278 . S
O460 Pr440 2.562 . S
O460 C442 1.254 . S
O461 Pr440 2.490 . S
O461 C442 1.225 . S
O462 Pr440 2.695 1_455 S
O462 Pr441 2.436 . S
O462 C449 1.256 1_455 S
O463 Pr440 2.512 . S
O463 C449 1.273 . S
O464 Pr441 2.438 1_655 S
O464 C450 1.267 . S
O465 Pr440 2.437 . S
O465 C450 1.278 . S
O466 Pr441 2.562 . S
O466 C451 1.254 . S
O467 Pr441 2.490 . S
O467 C451 1.225 . S
O468 Pr440 2.436 . S
O468 Pr441 2.695 1_655 S
O468 C458 1.270 1_655 S
O469 Pr441 2.512 . S
O469 C458 1.248 . S
O470 Pr440 2.438 1_455 S
O470 C459 1.267 . S
O471 Pr441 2.437 . S
O471 C459 1.278 . S
H472 C444 0.929 . S
H473 C445 0.929 . S
H474 C447 0.931 . S
H475 C448 0.930 . S
H476 C453 0.929 . S
H477 C454 0.929 . S
H478 C456 0.931 . S
H479 C457 0.930 . S
C480 C481 1.391 . S
C480 C482 1.394 . S
C480 H496 0.931 . S
C481 C480 1.391 . S
C481 C485 1.376 1_545 S
C482 C480 1.394 . S
C482 C483 1.369 . S
C482 C486 1.531 . S
C483 C482 1.369 . S
C483 C484 1.410 1_545 S
C483 C491 1.503 . S
C484 C483 1.410 1_565 S
C484 C485 1.392 . S
C484 C487 1.511 . S
C485 C481 1.376 1_565 S
C485 C484 1.392 . S
C485 H497 0.929 . S
C486 C482 1.531 . S
C486 H498 0.960 . S
C486 H499 0.962 . S
C486 H500 0.960 . S
C487 C484 1.511 . S
C487 H501 0.961 . S
C487 H502 0.961 . S
C487 H503 0.961 1_565 S
C488 C489 1.370 1_565 S
C488 C490 1.363 . S
C488 H504 0.931 . S
C489 C488 1.370 1_545 S
C489 C493 1.408 . S
C490 C488 1.363 . S
C490 C491 1.370 1_565 S
C490 C494 1.524 . S
C491 C483 1.503 . S
C491 C490 1.370 1_545 S
C491 C492 1.403 . S
C492 C491 1.403 . S
C492 C493 1.404 . S
C492 C495 1.539 . S
C493 C489 1.408 . S
C493 C492 1.404 . S
C493 H505 0.930 . S
C494 C490 1.524 . S
C494 H506 0.956 . S
C494 H507 0.961 . S
C494 H508 0.961 . S
C495 C492 1.539 . S
C495 H509 0.958 . S
C495 H510 0.961 . S
C495 H511 0.960 . S
H496 C480 0.931 . S
H497 C485 0.929 . S
H498 C486 0.960 . S
H499 C486 0.962 . S
H500 C486 0.960 . S
H501 C487 0.961 . S
H502 C487 0.961 . S
H503 C487 0.961 1_545 S
H504 C488 0.931 . S
H505 C493 0.930 . S
H506 C494 0.956 . S
H507 C494 0.961 . S
H508 C494 0.961 . S
H509 C495 0.958 . S
H510 C495 0.961 . S
H511 C495 0.960 . S
C512 C513 1.391 . S
C512 C514 1.394 . S
C512 H528 0.931 . S
C513 C512 1.391 . S
C513 C517 1.376 . S
C514 C512 1.394 . S
C514 C515 1.369 . S
C514 C518 1.531 . S
C515 C514 1.369 . S
C515 C516 1.410 . S
C515 C523 1.503 . S
C516 C515 1.410 . S
C516 C517 1.392 . S
C516 C519 1.511 . S
C517 C513 1.376 . S
C517 C516 1.392 . S
C517 H529 0.929 . S
C518 C514 1.531 . S
C518 H530 0.960 . S
C518 H531 0.962 . S
C518 H532 0.960 . S
C519 C516 1.511 . S
C519 H533 0.961 . S
C519 H534 0.961 . S
C519 H535 0.961 . S
C520 C521 1.370 . S
C520 C522 1.363 . S
C520 H536 0.931 . S
C521 C520 1.370 . S
C521 C525 1.408 . S
C522 C520 1.363 . S
C522 C523 1.370 . S
C522 C526 1.524 . S
C523 C515 1.503 . S
C523 C522 1.370 . S
C523 C524 1.403 . S
C524 C523 1.403 . S
C524 C525 1.404 . S
C524 C527 1.539 . S
C525 C521 1.408 . S
C525 C524 1.404 . S
C525 H537 0.930 . S
C526 C522 1.524 . S
C526 H538 0.956 . S
C526 H539 0.961 . S
C526 H540 0.961 . S
C527 C524 1.539 . S
C527 H541 0.958 . S
C527 H542 0.961 . S
C527 H543 0.960 . S
H528 C512 0.931 . S
H529 C517 0.929 . S
H530 C518 0.960 . S
H531 C518 0.962 . S
H532 C518 0.960 . S
H533 C519 0.961 . S
H534 C519 0.961 . S
H535 C519 0.961 . S
H536 C520 0.931 . S
H537 C525 0.930 . S
H538 C526 0.956 . S
H539 C526 0.961 . S
H540 C526 0.961 . S
H541 C527 0.958 . S
H542 C527 0.961 . S
H543 C527 0.960 . S
C544 C545 1.391 . S
C544 C546 1.394 . S
C544 H560 0.931 . S
C545 C544 1.391 . S
C545 C549 1.376 . S
C546 C544 1.394 . S
C546 C547 1.369 . S
C546 C550 1.531 . S
C547 C546 1.369 . S
C547 C548 1.410 . S
C547 C555 1.503 . S
C548 C547 1.410 . S
C548 C549 1.392 . S
C548 C551 1.511 . S
C549 C545 1.376 . S
C549 C548 1.392 . S
C549 H561 0.929 . S
C550 C546 1.531 . S
C550 H562 0.960 . S
C550 H563 0.962 . S
C550 H564 0.960 . S
C551 C548 1.511 . S
C551 H565 0.961 . S
C551 H566 0.961 . S
C551 H567 0.961 . S
C552 C553 1.370 . S
C552 C554 1.363 . S
C552 H568 0.931 . S
C553 C552 1.370 . S
C553 C557 1.408 . S
C554 C552 1.363 . S
C554 C555 1.370 . S
C554 C558 1.524 . S
C555 C547 1.503 . S
C555 C554 1.370 . S
C555 C556 1.403 . S
C556 C555 1.403 . S
C556 C557 1.404 . S
C556 C559 1.539 . S
C557 C553 1.408 . S
C557 C556 1.404 . S
C557 H569 0.930 . S
C558 C554 1.524 . S
C558 H570 0.956 . S
C558 H571 0.961 . S
C558 H572 0.961 . S
C559 C556 1.539 . S
C559 H573 0.958 . S
C559 H574 0.961 . S
C559 H575 0.960 . S
H560 C544 0.931 . S
H561 C549 0.929 . S
H562 C550 0.960 . S
H563 C550 0.962 . S
H564 C550 0.960 . S
H565 C551 0.961 . S
H566 C551 0.961 . S
H567 C551 0.961 . S
H568 C552 0.931 . S
H569 C557 0.930 . S
H570 C558 0.956 . S
H571 C558 0.961 . S
H572 C558 0.961 . S
H573 C559 0.958 . S
H574 C559 0.961 . S
H575 C559 0.960 . S
C576 C577 1.422 . S
C576 C578 1.394 . S
C576 H592 0.931 . S
C577 C576 1.422 . S
C577 C581 1.346 1_455 S
C578 C576 1.394 . S
C578 C579 1.369 . S
C578 C582 1.531 . S
C579 C578 1.369 . S
C579 C580 1.410 1_455 S
C579 C587 1.503 . S
C580 C579 1.410 1_655 S
C580 C581 1.392 . S
C580 C583 1.511 . S
C581 C577 1.346 1_655 S
C581 C580 1.392 . S
C581 H593 0.929 . S
C582 C578 1.531 . S
C582 H594 0.960 . S
C582 H595 0.962 . S
C582 H596 0.960 . S
C583 C580 1.511 . S
C583 H597 0.961 . S
C583 H598 0.961 . S
C583 H599 0.961 . S
C584 C585 1.370 1_655 S
C584 C586 1.363 . S
C584 H600 0.931 . S
C585 C584 1.370 1_455 S
C585 C589 1.408 . S
C586 C584 1.363 . S
C586 C587 1.370 1_655 S
C586 C590 1.524 . S
C587 C579 1.503 . S
C587 C586 1.370 1_455 S
C587 C588 1.403 . S
C588 C587 1.403 . S
C588 C589 1.404 . S
C588 C591 1.539 . S
C589 C585 1.408 . S
C589 C588 1.404 . S
C589 H601 0.930 . S
C590 C586 1.524 . S
C590 H602 0.956 1_655 S
C590 H603 0.961 . S
C590 H604 0.961 . S
C591 C588 1.539 . S
C591 H605 0.958 . S
C591 H606 0.961 . S
C591 H607 0.960 . S
H592 C576 0.931 . S
H593 C581 0.929 . S
H594 C582 0.960 . S
H595 C582 0.962 . S
H596 C582 0.960 . S
H597 C583 0.961 . S
H598 C583 0.961 . S
H599 C583 0.961 . S
H600 C584 0.931 . S
H601 C589 0.930 . S
H602 C590 0.956 1_455 S
H603 C590 0.961 . S
H604 C590 0.961 . S
H605 C591 0.958 . S
H606 C591 0.961 . S
H607 C591 0.960 . S
C608 C609 1.391 . S
C608 C610 1.394 . S
C608 H624 0.931 . S
C609 C608 1.391 . S
C609 C613 1.376 . S
C610 C608 1.394 . S
C610 C611 1.369 . S
C610 C614 1.531 . S
C611 C610 1.369 . S
C611 C612 1.410 . S
C611 C619 1.503 1_554 S
C612 C611 1.410 . S
C612 C613 1.392 . S
C612 C615 1.511 1_554 S
C613 C609 1.376 . S
C613 C612 1.392 . S
C613 H625 0.929 . S
C614 C610 1.531 . S
C614 H626 0.960 . S
C614 H627 0.962 1_565 S
C614 H628 0.960 . S
C615 C612 1.511 1_556 S
C615 H629 0.963 . S
C615 H630 0.967 . S
C615 H631 0.961 . S
C616 C617 1.370 1_545 S
C616 C618 1.363 . S
C616 H632 0.931 . S
C617 C616 1.370 1_565 S
C617 C621 1.408 . S
C618 C616 1.363 . S
C618 C619 1.370 1_545 S
C618 C622 1.524 . S
C619 C611 1.503 1_556 S
C619 C618 1.370 1_565 S
C619 C620 1.403 . S
C620 C619 1.403 . S
C620 C621 1.404 . S
C620 C623 1.539 . S
C621 C617 1.408 . S
C621 C620 1.404 . S
C621 H633 0.930 . S
C622 C618 1.524 . S
C622 H634 0.956 1_556 S
C622 H635 0.961 . S
C622 H636 0.961 . S
C623 C620 1.539 . S
C623 H637 0.958 . S
C623 H638 0.961 . S
C623 H639 0.960 . S
H624 C608 0.931 . S
H625 C613 0.929 . S
H626 C614 0.960 . S
H627 C614 0.962 1_545 S
H628 C614 0.960 . S
H629 C615 0.963 . S
H630 C615 0.967 . S
H631 C615 0.961 . S
H632 C616 0.931 . S
H633 C621 0.930 . S
H634 C622 0.956 1_554 S
H635 C622 0.961 . S
H636 C622 0.961 . S
H637 C623 0.958 . S
H638 C623 0.961 . S
H639 C623 0.960 . S
C640 C641 1.391 . S
C640 C642 1.394 . S
C640 H656 0.931 . S
C641 C640 1.391 . S
C641 C645 1.376 . S
C642 C640 1.394 . S
C642 C643 1.369 . S
C642 C646 1.531 . S
C643 C642 1.369 . S
C643 C644 1.410 . S
C643 C651 1.503 1_554 S
C644 C643 1.410 . S
C644 C645 1.392 . S
C644 C647 1.511 1_554 S
C645 C641 1.376 . S
C645 C644 1.392 . S
C645 H657 0.929 . S
C646 C642 1.531 . S
C646 H658 0.960 . S
C646 H659 0.962 . S
C646 H660 0.960 . S
C647 C644 1.511 1_556 S
C647 H661 0.961 1_556 S
C647 H662 0.961 . S
C647 H663 0.961 . S
C648 C649 1.370 . S
C648 C650 1.363 . S
C648 H664 0.931 . S
C649 C648 1.370 . S
C649 C653 1.408 . S
C650 C648 1.363 . S
C650 C651 1.370 . S
C650 C654 1.524 . S
C651 C643 1.503 1_556 S
C651 C650 1.370 . S
C651 C652 1.403 . S
C652 C651 1.403 . S
C652 C653 1.404 . S
C652 C655 1.539 . S
C653 C649 1.408 . S
C653 C652 1.404 . S
C653 H665 0.930 . S
C654 C650 1.524 . S
C654 H666 0.956 . S
C654 H667 0.961 . S
C654 H668 0.961 . S
C655 C652 1.539 . S
C655 H669 0.958 1_556 S
C655 H670 0.961 . S
C655 H671 0.960 1_556 S
H656 C640 0.931 . S
H657 C645 0.929 . S
H658 C646 0.960 . S
H659 C646 0.962 . S
H660 C646 0.960 . S
H661 C647 0.961 1_554 S
H662 C647 0.961 . S
H663 C647 0.961 . S
H664 C648 0.931 . S
H665 C653 0.930 . S
H666 C654 0.956 . S
H667 C654 0.961 . S
H668 C654 0.961 . S
H669 C655 0.958 1_554 S
H670 C655 0.961 . S
H671 C655 0.960 1_554 S
C672 C673 1.391 . S
C672 C674 1.394 . S
C672 H688 0.931 . S
C673 C672 1.391 . S
C673 C677 1.376 . S
C674 C672 1.394 . S
C674 C675 1.369 . S
C674 C678 1.531 1_554 S
C675 C674 1.369 . S
C675 C676 1.410 . S
C675 C683 1.503 1_554 S
C676 C675 1.410 . S
C676 C677 1.392 . S
C676 C679 1.511 . S
C677 C673 1.376 . S
C677 C676 1.392 . S
C677 H689 0.929 . S
C678 C674 1.531 1_556 S
C678 H690 0.960 . S
C678 H691 0.962 . S
C678 H692 0.960 . S
C679 C676 1.511 . S
C679 H693 0.961 . S
C679 H694 0.961 . S
C679 H695 0.961 . S
C680 C681 1.370 . S
C680 C682 1.363 . S
C680 H696 0.931 . S
C681 C680 1.370 . S
C681 C685 1.408 . S
C682 C680 1.363 . S
C682 C683 1.370 . S
C682 C686 1.524 . S
C683 C675 1.503 1_556 S
C683 C682 1.370 . S
C683 C684 1.403 . S
C684 C683 1.403 . S
C684 C685 1.404 . S
C684 C687 1.539 . S
C685 C681 1.408 . S
C685 C684 1.404 . S
C685 H697 0.930 . S
C686 C682 1.524 . S
C686 H698 0.956 . S
C686 H699 0.961 1_556 S
C686 H700 0.961 . S
C687 C684 1.539 . S
C687 H701 0.958 . S
C687 H702 0.961 . S
C687 H703 0.960 1_556 S
H688 C672 0.931 . S
H689 C677 0.929 . S
H690 C678 0.960 . S
H691 C678 0.962 . S
H692 C678 0.960 . S
H693 C679 0.961 . S
H694 C679 0.961 . S
H695 C679 0.961 . S
H696 C680 0.931 . S
H697 C685 0.930 . S
H698 C686 0.956 . S
H699 C686 0.961 1_554 S
H700 C686 0.961 . S
H701 C687 0.958 . S
H702 C687 0.961 . S
H703 C687 0.960 1_554 S
C704 C705 1.391 1_455 S
C704 C706 1.394 . S
C704 H720 0.931 . S
C705 C704 1.391 1_655 S
C705 C709 1.376 . S
C706 C704 1.394 . S
C706 C707 1.369 1_455 S
C706 C710 1.531 . S
C707 C706 1.369 1_655 S
C707 C708 1.410 . S
C707 C715 1.503 1_554 S
C708 C707 1.410 . S
C708 C709 1.392 . S
C708 C711 1.511 1_554 S
C709 C705 1.376 . S
C709 C708 1.392 . S
C709 H721 0.929 . S
C710 C706 1.531 . S
C710 H722 0.960 . S
C710 H723 0.962 . S
C710 H724 0.960 . S
C711 C708 1.511 1_556 S
C711 H725 0.961 1_556 S
C711 H726 0.961 . S
C711 H727 0.961 . S
C712 C713 1.370 1_455 S
C712 C714 1.363 . S
C712 H728 0.931 . S
C713 C712 1.370 1_655 S
C713 C717 1.408 . S
C714 C712 1.363 . S
C714 C715 1.370 1_455 S
C714 C718 1.524 . S
C715 C707 1.503 1_556 S
C715 C714 1.370 1_655 S
C715 C716 1.403 . S
C716 C715 1.403 . S
C716 C717 1.404 . S
C716 C719 1.539 . S
C717 C713 1.408 . S
C717 C716 1.404 . S
C717 H729 0.930 . S
C718 C714 1.524 . S
C718 H730 0.956 . S
C718 H731 0.961 . S
C718 H732 0.961 . S
C719 C716 1.539 . S
C719 H733 0.958 1_556 S
C719 H734 0.961 . S
C719 H735 0.960 1_556 S
H720 C704 0.931 . S
H721 C709 0.929 . S
H722 C710 0.960 . S
H723 C710 0.962 . S
H724 C710 0.960 . S
H725 C711 0.961 1_554 S
H726 C711 0.961 . S
H727 C711 0.961 . S
H728 C712 0.931 . S
H729 C717 0.930 . S
H730 C718 0.956 . S
H731 C718 0.961 . S
H732 C718 0.961 . S
H733 C719 0.958 1_554 S
H734 C719 0.961 . S
H735 C719 0.960 1_554 S
C736 C737 1.391 . S
C736 C738 1.394 . S
C736 H752 0.931 . S
C737 C736 1.391 . S
C737 C741 1.376 1_455 S
C738 C736 1.394 . S
C738 C739 1.369 1_455 S
C738 C742 1.531 . S
C739 C738 1.369 1_655 S
C739 C740 1.410 . S
C739 C747 1.503 . S
C740 C739 1.410 . S
C740 C741 1.392 . S
C740 C743 1.511 . S
C741 C737 1.376 1_655 S
C741 C740 1.392 . S
C741 H753 0.929 . S
C742 C738 1.531 . S
C742 H754 0.960 . S
C742 H755 0.962 . S
C742 H756 0.960 . S
C743 C740 1.511 . S
C743 H757 0.961 . S
C743 H758 0.961 . S
C743 H759 0.961 . S
C744 C745 1.370 . S
C744 C746 1.363 . S
C744 H760 0.931 . S
C745 C744 1.370 . S
C745 C749 1.408 . S
C746 C744 1.363 . S
C746 C747 1.370 . S
C746 C750 1.524 . S
C747 C739 1.503 . S
C747 C746 1.370 . S
C747 C748 1.403 . S
C748 C747 1.403 . S
C748 C749 1.404 . S
C748 C751 1.539 . S
C749 C745 1.408 . S
C749 C748 1.404 . S
C749 H761 0.930 . S
C750 C746 1.524 . S
C750 H762 0.939 1_655 S
C750 H763 0.961 . S
C750 H764 0.961 . S
C751 C748 1.539 . S
C751 H765 0.958 . S
C751 H766 0.961 . S
C751 H767 0.960 . S
H752 C736 0.931 . S
H753 C741 0.929 . S
H754 C742 0.960 . S
H755 C742 0.962 . S
H756 C742 0.960 . S
H757 C743 0.961 . S
H758 C743 0.961 . S
H759 C743 0.961 . S
H760 C744 0.931 . S
H761 C749 0.930 . S
H762 C750 0.939 1_455 S
H763 C750 0.961 . S
H764 C750 0.961 . S
H765 C751 0.958 . S
H766 C751 0.961 . S
H767 C751 0.960 . S
C768 C769 1.391 . S
C768 C770 1.394 1_545 S
C768 H784 0.931 . S
C769 C768 1.391 . S
C769 C773 1.379 . S
C770 C768 1.394 1_565 S
C770 C771 1.369 . S
C770 C774 1.531 . S
C771 C770 1.369 . S
C771 C772 1.410 . S
C771 C779 1.503 . S
C772 C771 1.410 . S
C772 C773 1.388 1_565 S
C772 C775 1.511 . S
C773 C769 1.379 . S
C773 C772 1.388 1_545 S
C773 H785 0.931 . S
C774 C770 1.531 . S
C774 H786 0.960 . S
C774 H787 0.962 . S
C774 H788 0.960 1_565 S
C775 C772 1.511 . S
C775 H789 0.961 . S
C775 H790 0.961 . S
C775 H791 0.961 1_565 S
C776 C777 1.370 . S
C776 C778 1.363 . S
C776 H792 0.931 . S
C777 C776 1.370 . S
C777 C781 1.408 . S
C778 C776 1.363 . S
C778 C779 1.370 . S
C778 C782 1.524 . S
C779 C771 1.503 . S
C779 C778 1.370 . S
C779 C780 1.403 . S
C780 C779 1.403 . S
C780 C781 1.404 . S
C780 C783 1.539 1_565 S
C781 C777 1.408 . S
C781 C780 1.404 . S
C781 H793 0.930 . S
C782 C778 1.524 . S
C782 H794 0.956 . S
C782 H795 0.961 . S
C782 H796 0.961 . S
C783 C780 1.539 1_545 S
C783 H797 0.958 . S
C783 H798 0.961 . S
C783 H799 0.960 . S
H784 C768 0.931 . S
H785 C773 0.931 . S
H786 C774 0.960 . S
H787 C774 0.962 . S
H788 C774 0.960 1_545 S
H789 C775 0.961 . S
H790 C775 0.961 . S
H791 C775 0.961 1_545 S
H792 C776 0.931 . S
H793 C781 0.930 . S
H794 C782 0.956 . S
H795 C782 0.961 . S
H796 C782 0.961 . S
H797 C783 0.958 . S
H798 C783 0.961 . S
H799 C783 0.960 . S
C800 C801 1.391 . S
C800 C802 1.394 . S
C800 H816 0.931 . S
C801 C800 1.391 . S
C801 C805 1.376 . S
C802 C800 1.394 . S
C802 C803 1.369 . S
C802 C806 1.531 . S
C803 C802 1.369 . S
C803 C804 1.410 . S
C803 C811 1.503 . S
C804 C803 1.410 . S
C804 C805 1.392 . S
C804 C807 1.511 . S
C805 C801 1.376 . S
C805 C804 1.392 . S
C805 H817 0.929 . S
C806 C802 1.531 . S
C806 H818 0.960 . S
C806 H819 0.962 . S
C806 H820 0.960 . S
C807 C804 1.511 . S
C807 H821 0.961 . S
C807 H822 0.961 . S
C807 H823 0.961 . S
C808 C809 1.370 . S
C808 C810 1.363 . S
C808 H824 0.931 . S
C809 C808 1.370 . S
C809 C813 1.408 . S
C810 C808 1.363 . S
C810 C811 1.370 . S
C810 C814 1.524 . S
C811 C803 1.503 . S
C811 C810 1.370 . S
C811 C812 1.403 . S
C812 C811 1.403 . S
C812 C813 1.404 . S
C812 C815 1.539 . S
C813 C809 1.408 . S
C813 C812 1.404 . S
C813 H825 0.930 . S
C814 C810 1.524 . S
C814 H826 0.956 . S
C814 H827 0.961 . S
C814 H828 0.961 . S
C815 C812 1.539 . S
C815 H829 0.958 . S
C815 H830 0.961 . S
C815 H831 0.960 . S
H816 C800 0.931 . S
H817 C805 0.929 . S
H818 C806 0.960 . S
H819 C806 0.962 . S
H820 C806 0.960 . S
H821 C807 0.961 . S
H822 C807 0.961 . S
H823 C807 0.961 . S
H824 C808 0.931 . S
H825 C813 0.930 . S
H826 C814 0.956 . S
H827 C814 0.961 . S
H828 C814 0.961 . S
H829 C815 0.958 . S
H830 C815 0.961 . S
H831 C815 0.960 . S
C832 C833 1.391 . S
C832 C834 1.394 . S
C832 H848 0.931 . S
C833 C832 1.391 . S
C833 C837 1.376 . S
C834 C832 1.394 . S
C834 C835 1.369 . S
C834 C838 1.531 . S
C835 C834 1.369 . S
C835 C836 1.410 . S
C835 C843 1.503 . S
C836 C835 1.410 . S
C836 C837 1.392 . S
C836 C839 1.511 . S
C837 C833 1.376 . S
C837 C836 1.392 . S
C837 H849 0.929 . S
C838 C834 1.531 . S
C838 H850 0.960 . S
C838 H851 0.962 . S
C838 H852 0.960 . S
C839 C836 1.511 . S
C839 H853 0.961 . S
C839 H854 0.961 . S
C839 H855 0.961 . S
C840 C841 1.370 . S
C840 C842 1.363 . S
C840 H856 0.931 . S
C841 C840 1.370 . S
C841 C845 1.408 . S
C842 C840 1.363 . S
C842 C843 1.370 . S
C842 C846 1.524 . S
C843 C835 1.503 . S
C843 C842 1.370 . S
C843 C844 1.403 . S
C844 C843 1.403 . S
C844 C845 1.404 . S
C844 C847 1.539 . S
C845 C841 1.408 . S
C845 C844 1.404 . S
C845 H857 0.930 . S
C846 C842 1.524 . S
C846 H858 0.956 . S
C846 H859 0.961 . S
C846 H860 0.961 . S
C847 C844 1.539 . S
C847 H861 0.958 . S
C847 H862 0.961 . S
C847 H863 0.960 . S
H848 C832 0.931 . S
H849 C837 0.929 . S
H850 C838 0.960 . S
H851 C838 0.962 . S
H852 C838 0.960 . S
H853 C839 0.961 . S
H854 C839 0.961 . S
H855 C839 0.961 . S
H856 C840 0.931 . S
H857 C845 0.930 . S
H858 C846 0.956 . S
H859 C846 0.961 . S
H860 C846 0.961 . S
H861 C847 0.958 . S
H862 C847 0.961 . S
H863 C847 0.960 . S
C864 C865 1.391 1_455 S
C864 C866 1.394 1_554 S
C864 H880 0.931 1_554 S
C865 C864 1.391 1_655 S
C865 C869 1.376 . S
C866 C864 1.394 1_556 S
C866 C867 1.369 . S
C866 C870 1.531 . S
C867 C866 1.369 . S
C867 C868 1.410 1_456 S
C867 C875 1.503 . S
C868 C867 1.410 1_654 S
C868 C869 1.392 . S
C868 C871 1.511 . S
C869 C865 1.376 . S
C869 C868 1.392 . S
C869 H881 0.929 . S
C870 C866 1.531 . S
C870 H882 0.960 . S
C870 H883 0.962 . S
C870 H884 0.960 . S
C871 C868 1.511 . S
C871 H885 0.961 . S
C871 H886 0.961 . S
C871 H887 0.961 . S
C872 C873 1.370 . S
C872 C874 1.363 . S
C872 H888 0.931 . S
C873 C872 1.370 . S
C873 C877 1.408 . S
C874 C872 1.363 . S
C874 C875 1.370 . S
C874 C878 1.524 1_556 S
C875 C867 1.503 . S
C875 C874 1.370 . S
C875 C876 1.403 . S
C876 C875 1.403 . S
C876 C877 1.404 . S
C876 C879 1.539 1_455 S
C877 C873 1.408 . S
C877 C876 1.404 . S
C877 H889 0.930 . S
C878 C874 1.524 1_554 S
C878 H890 0.956 . S
C878 H891 0.961 . S
C878 H892 0.961 . S
C879 C876 1.539 1_655 S
C879 H893 0.958 . S
C879 H894 0.961 . S
C879 H895 0.960 . S
H880 C864 0.931 1_556 S
H881 C869 0.929 . S
H882 C870 0.960 . S
H883 C870 0.962 . S
H884 C870 0.960 . S
H885 C871 0.961 . S
H886 C871 0.961 . S
H887 C871 0.961 . S
H888 C872 0.931 . S
H889 C877 0.930 . S
H890 C878 0.956 . S
H891 C878 0.961 . S
H892 C878 0.961 . S
H893 C879 0.958 . S
H894 C879 0.961 . S
H895 C879 0.960 . S
C896 C897 1.391 1_556 S
C896 C898 1.384 1_565 S
C896 H912 0.931 . S
C897 C896 1.391 1_554 S
C897 C901 1.376 1_565 S
C898 C896 1.384 1_545 S
C898 C899 1.372 1_556 S
C898 C902 1.529 1_545 S
C899 C898 1.372 1_554 S
C899 C900 1.424 . S
C899 C907 1.498 1_554 S
C900 C899 1.424 . S
C900 C901 1.392 . S
C900 C903 1.511 . S
C901 C897 1.376 1_545 S
C901 C900 1.392 . S
C901 H913 0.929 . S
C902 C898 1.529 1_565 S
C902 H914 0.966 . S
C902 H915 0.935 1_565 S
C902 H916 0.983 . S
C903 C900 1.511 . S
C903 H917 0.961 . S
C903 H918 0.961 . S
C903 H919 0.961 . S
C904 C905 1.370 . S
C904 C906 1.363 . S
C904 H920 0.931 . S
C905 C904 1.370 . S
C905 C909 1.408 . S
C906 C904 1.363 . S
C906 C907 1.370 . S
C906 C910 1.524 . S
C907 C899 1.498 1_556 S
C907 C906 1.370 . S
C907 C908 1.403 . S
C908 C907 1.403 . S
C908 C909 1.404 . S
C908 C911 1.539 1_545 S
C909 C905 1.408 . S
C909 C908 1.404 . S
C909 H921 0.930 . S
C910 C906 1.524 . S
C910 H922 0.956 . S
C910 H923 0.961 1_556 S
C910 H924 0.961 . S
C911 C908 1.539 1_565 S
C911 H925 0.958 . S
C911 H926 0.961 . S
C911 H927 0.960 1_556 S
H912 C896 0.931 . S
H913 C901 0.929 . S
H914 C902 0.966 . S
H915 C902 0.935 1_545 S
H916 C902 0.983 . S
H917 C903 0.961 . S
H918 C903 0.961 . S
H919 C903 0.961 . S
H920 C904 0.931 . S
H921 C909 0.930 . S
H922 C910 0.956 . S
H923 C910 0.961 1_554 S
H924 C910 0.961 . S
H925 C911 0.958 . S
H926 C911 0.961 . S
H927 C911 0.960 1_554 S
C928 C929 1.391 . S
C928 C930 1.394 . S
C928 H944 0.931 . S
C929 C928 1.391 . S
C929 C933 1.376 1_554 S
C930 C928 1.394 . S
C930 C931 1.369 . S
C930 C934 1.531 . S
C931 C930 1.369 . S
C931 C932 1.410 1_554 S
C931 C939 1.503 1_554 S
C932 C931 1.410 1_556 S
C932 C933 1.392 . S
C932 C935 1.511 . S
C933 C929 1.376 1_556 S
C933 C932 1.392 . S
C933 H945 0.929 . S
C934 C930 1.531 . S
C934 H946 0.960 . S
C934 H947 0.962 . S
C934 H948 0.960 . S
C935 C932 1.511 . S
C935 H949 0.961 . S
C935 H950 0.961 . S
C935 H951 0.961 . S
C936 C937 1.370 . S
C936 C938 1.363 . S
C936 H952 0.931 . S
C937 C936 1.370 . S
C937 C941 1.408 . S
C938 C936 1.363 . S
C938 C939 1.370 . S
C938 C942 1.524 . S
C939 C931 1.503 1_556 S
C939 C938 1.370 . S
C939 C940 1.403 . S
C940 C939 1.403 . S
C940 C941 1.404 . S
C940 C943 1.539 1_556 S
C941 C937 1.408 . S
C941 C940 1.404 . S
C941 H953 0.930 . S
C942 C938 1.524 . S
C942 H954 0.956 . S
C942 H955 0.961 . S
C942 H956 0.961 . S
C943 C940 1.539 1_554 S
C943 H957 0.958 . S
C943 H958 0.961 1_554 S
C943 H959 0.960 . S
H944 C928 0.931 . S
H945 C933 0.929 . S
H946 C934 0.960 . S
H947 C934 0.962 . S
H948 C934 0.960 . S
H949 C935 0.961 . S
H950 C935 0.961 . S
H951 C935 0.961 . S
H952 C936 0.931 . S
H953 C941 0.930 . S
H954 C942 0.956 . S
H955 C942 0.961 . S
H956 C942 0.961 . S
H957 C943 0.958 . S
H958 C943 0.961 1_556 S
H959 C943 0.960 . S
C960 C961 1.391 . S
C960 C962 1.394 . S
C960 H976 0.931 . S
C961 C960 1.391 . S
C961 C965 1.376 1_554 S
C962 C960 1.394 . S
C962 C963 1.369 . S
C962 C966 1.531 . S
C963 C962 1.369 . S
C963 C964 1.410 1_554 S
C963 C971 1.503 1_554 S
C964 C963 1.410 1_556 S
C964 C965 1.392 . S
C964 C967 1.511 . S
C965 C961 1.376 1_556 S
C965 C964 1.392 . S
C965 H977 0.929 . S
C966 C962 1.531 . S
C966 H978 0.960 . S
C966 H979 0.962 . S
C966 H980 0.960 . S
C967 C964 1.511 . S
C967 H981 0.961 . S
C967 H982 0.961 . S
C967 H983 0.961 . S
C968 C969 1.370 . S
C968 C970 1.363 . S
C968 H984 0.931 . S
C969 C968 1.370 . S
C969 C973 1.408 . S
C970 C968 1.363 . S
C970 C971 1.370 . S
C970 C974 1.524 . S
C971 C963 1.503 1_556 S
C971 C970 1.370 . S
C971 C972 1.403 . S
C972 C971 1.403 . S
C972 C973 1.404 . S
C972 C975 1.539 . S
C973 C969 1.408 . S
C973 C972 1.404 . S
C973 H985 0.930 . S
C974 C970 1.524 . S
C974 H986 0.956 1_556 S
C974 H987 0.961 . S
C974 H988 0.961 . S
C975 C972 1.539 . S
C975 H989 0.958 1_556 S
C975 H990 0.961 . S
C975 H991 0.960 . S
H976 C960 0.931 . S
H977 C965 0.929 . S
H978 C966 0.960 . S
H979 C966 0.962 . S
H980 C966 0.960 . S
H981 C967 0.961 . S
H982 C967 0.961 . S
H983 C967 0.961 . S
H984 C968 0.931 . S
H985 C973 0.930 . S
H986 C974 0.956 1_554 S
H987 C974 0.961 . S
H988 C974 0.961 . S
H989 C975 0.958 1_554 S
H990 C975 0.961 . S
H991 C975 0.960 . S
C992 C993 1.391 1_655 S
C992 C994 1.394 . S
C992 H1008 0.931 . S
C993 C992 1.391 1_455 S
C993 C997 1.376 . S
C994 C992 1.394 . S
C994 C995 1.369 1_655 S
C994 C998 1.531 . S
C995 C994 1.369 1_455 S
C995 C996 1.410 . S
C995 C1003 1.503 . S
C996 C995 1.410 . S
C996 C997 1.392 . S
C996 C999 1.511 . S
C997 C993 1.376 . S
C997 C996 1.392 . S
C997 H1009 0.929 . S
C998 C994 1.531 . S
C998 H1010 0.960 . S
C998 H1011 0.962 . S
C998 H1012 0.960 . S
C999 C996 1.511 . S
C999 H1013 0.961 . S
C999 H1014 0.961 . S
C999 H1015 0.961 . S
C1000 C1001 1.393 . S
C1000 C1002 1.363 . S
C1000 H1016 0.912 1_455 S
C1001 C1000 1.393 . S
C1001 C1005 1.408 . S
C1002 C1000 1.363 . S
C1002 C1003 1.378 . S
C1002 C1006 1.516 1_455 S
C1003 C995 1.503 . S
C1003 C1002 1.378 . S
C1003 C1004 1.403 . S
C1004 C1003 1.403 . S
C1004 C1005 1.404 . S
C1004 C1007 1.539 . S
C1005 C1001 1.408 . S
C1005 C1004 1.404 . S
C1005 H1017 0.930 . S
C1006 C1002 1.516 1_655 S
C1006 H1018 0.956 . S
C1006 H1019 0.961 1_655 S
C1006 H1020 0.961 . S
C1007 C1004 1.539 . S
C1007 H1021 0.958 . S
C1007 H1022 0.961 . S
C1007 H1023 0.960 . S
H1008 C992 0.931 . S
H1009 C997 0.929 . S
H1010 C998 0.960 . S
H1011 C998 0.962 . S
H1012 C998 0.960 . S
H1013 C999 0.961 . S
H1014 C999 0.961 . S
H1015 C999 0.961 . S
H1016 C1000 0.912 1_655 S
H1017 C1005 0.930 . S
H1018 C1006 0.956 . S
H1019 C1006 0.961 1_455 S
H1020 C1006 0.961 . S
H1021 C1007 0.958 . S
H1022 C1007 0.961 . S
H1023 C1007 0.960 . S
C1024 C1025 1.391 . S
C1024 C1026 1.394 . S
C1024 H1040 0.931 . S
C1025 C1024 1.391 . S
C1025 C1029 1.376 1_545 S
C1026 C1024 1.394 . S
C1026 C1027 1.369 . S
C1026 C1030 1.531 . S
C1027 C1026 1.369 . S
C1027 C1028 1.410 1_545 S
C1027 C1035 1.503 . S
C1028 C1027 1.410 1_565 S
C1028 C1029 1.392 . S
C1028 C1031 1.511 . S
C1029 C1025 1.376 1_565 S
C1029 C1028 1.392 . S
C1029 H1041 0.929 . S
C1030 C1026 1.531 . S
C1030 H1042 0.960 . S
C1030 H1043 0.962 . S
C1030 H1044 0.960 . S
C1031 C1028 1.511 . S
C1031 H1045 0.961 . S
C1031 H1046 0.961 . S
C1031 H1047 0.961 . S
C1032 C1033 1.370 1_565 S
C1032 C1034 1.363 . S
C1032 H1048 0.931 . S
C1033 C1032 1.370 1_545 S
C1033 C1037 1.408 . S
C1034 C1032 1.363 . S
C1034 C1035 1.370 1_565 S
C1034 C1038 1.524 . S
C1035 C1027 1.503 . S
C1035 C1034 1.370 1_545 S
C1035 C1036 1.403 . S
C1036 C1035 1.403 . S
C1036 C1037 1.404 . S
C1036 C1039 1.539 . S
C1037 C1033 1.408 . S
C1037 C1036 1.404 . S
C1037 H1049 0.930 . S
C1038 C1034 1.524 . S
C1038 H1050 0.956 . S
C1038 H1051 0.961 . S
C1038 H1052 0.961 . S
C1039 C1036 1.539 . S
C1039 H1053 0.958 . S
C1039 H1054 0.961 . S
C1039 H1055 0.960 . S
H1040 C1024 0.931 . S
H1041 C1029 0.929 . S
H1042 C1030 0.960 . S
H1043 C1030 0.962 . S
H1044 C1030 0.960 . S
H1045 C1031 0.961 . S
H1046 C1031 0.961 . S
H1047 C1031 0.961 . S
H1048 C1032 0.931 . S
H1049 C1037 0.930 . S
H1050 C1038 0.956 . S
H1051 C1038 0.961 . S
H1052 C1038 0.961 . S
H1053 C1039 0.958 . S
H1054 C1039 0.961 . S
H1055 C1039 0.960 . S
C1056 C1057 1.391 . S
C1056 C1058 1.394 . S
C1056 H1072 0.931 . S
C1057 C1056 1.391 . S
C1057 C1061 1.376 . S
C1058 C1056 1.394 . S
C1058 C1059 1.369 . S
C1058 C1062 1.531 . S
C1059 C1058 1.369 . S
C1059 C1060 1.410 . S
C1059 C1067 1.503 . S
C1060 C1059 1.410 . S
C1060 C1061 1.392 . S
C1060 C1063 1.511 . S
C1061 C1057 1.376 . S
C1061 C1060 1.392 . S
C1061 H1073 0.929 . S
C1062 C1058 1.531 . S
C1062 H1074 0.960 . S
C1062 H1075 0.962 . S
C1062 H1076 0.960 . S
C1063 C1060 1.511 . S
C1063 H1077 0.961 . S
C1063 H1078 0.961 . S
C1063 H1079 0.961 . S
C1064 C1065 1.370 . S
C1064 C1066 1.363 . S
C1064 H1080 0.931 . S
C1065 C1064 1.370 . S
C1065 C1069 1.408 . S
C1066 C1064 1.363 . S
C1066 C1067 1.370 . S
C1066 C1070 1.524 . S
C1067 C1059 1.503 . S
C1067 C1066 1.370 . S
C1067 C1068 1.403 . S
C1068 C1067 1.403 . S
C1068 C1069 1.404 . S
C1068 C1071 1.539 . S
C1069 C1065 1.408 . S
C1069 C1068 1.404 . S
C1069 H1081 0.930 . S
C1070 C1066 1.524 . S
C1070 H1082 0.956 . S
C1070 H1083 0.961 . S
C1070 H1084 0.961 . S
C1071 C1068 1.539 . S
C1071 H1085 0.958 . S
C1071 H1086 0.961 . S
C1071 H1087 0.960 . S
H1072 C1056 0.931 . S
H1073 C1061 0.929 . S
H1074 C1062 0.960 . S
H1075 C1062 0.962 . S
H1076 C1062 0.960 . S
H1077 C1063 0.961 . S
H1078 C1063 0.961 . S
H1079 C1063 0.961 . S
H1080 C1064 0.931 . S
H1081 C1069 0.930 . S
H1082 C1070 0.956 . S
H1083 C1070 0.961 . S
H1084 C1070 0.961 . S
H1085 C1071 0.958 . S
H1086 C1071 0.961 . S
H1087 C1071 0.960 . S
C1088 C1089 1.391 . S
C1088 C1090 1.394 . S
C1088 H1104 0.931 . S
C1089 C1088 1.391 . S
C1089 C1093 1.376 . S
C1090 C1088 1.394 . S
C1090 C1091 1.369 . S
C1090 C1094 1.531 . S
C1091 C1090 1.369 . S
C1091 C1092 1.410 . S
C1091 C1099 1.503 . S
C1092 C1091 1.410 . S
C1092 C1093 1.392 . S
C1092 C1095 1.511 . S
C1093 C1089 1.376 . S
C1093 C1092 1.392 . S
C1093 H1105 0.929 . S
C1094 C1090 1.531 . S
C1094 H1106 0.960 . S
C1094 H1107 0.962 . S
C1094 H1108 0.960 . S
C1095 C1092 1.511 . S
C1095 H1109 0.961 . S
C1095 H1110 0.961 . S
C1095 H1111 0.961 . S
C1096 C1097 1.370 . S
C1096 C1098 1.363 . S
C1096 H1112 0.931 . S
C1097 C1096 1.370 . S
C1097 C1101 1.408 . S
C1098 C1096 1.363 . S
C1098 C1099 1.370 . S
C1098 C1102 1.524 . S
C1099 C1091 1.503 . S
C1099 C1098 1.370 . S
C1099 C1100 1.403 . S
C1100 C1099 1.403 . S
C1100 C1101 1.404 . S
C1100 C1103 1.539 . S
C1101 C1097 1.408 . S
C1101 C1100 1.404 . S
C1101 H1113 0.930 . S
C1102 C1098 1.524 . S
C1102 H1114 0.956 . S
C1102 H1115 0.961 . S
C1102 H1116 0.961 . S
C1103 C1100 1.539 . S
C1103 H1117 0.958 . S
C1103 H1118 0.961 . S
C1103 H1119 0.960 . S
H1104 C1088 0.931 . S
H1105 C1093 0.929 . S
H1106 C1094 0.960 . S
H1107 C1094 0.962 . S
H1108 C1094 0.960 . S
H1109 C1095 0.961 . S
H1110 C1095 0.961 . S
H1111 C1095 0.961 . S
H1112 C1096 0.931 . S
H1113 C1101 0.930 . S
H1114 C1102 0.956 . S
H1115 C1102 0.961 . S
H1116 C1102 0.961 . S
H1117 C1103 0.958 . S
H1118 C1103 0.961 . S
H1119 C1103 0.960 . S
C1120 C1121 1.391 1_455 S
C1120 C1122 1.394 . S
C1120 H1136 0.931 . S
C1121 C1120 1.391 1_655 S
C1121 C1125 1.376 . S
C1122 C1120 1.394 . S
C1122 C1123 1.369 1_455 S
C1122 C1126 1.531 . S
C1123 C1122 1.369 1_655 S
C1123 C1124 1.410 . S
C1123 C1131 1.503 . S
C1124 C1123 1.410 . S
C1124 C1125 1.392 . S
C1124 C1127 1.511 . S
C1125 C1121 1.376 . S
C1125 C1124 1.392 . S
C1125 H1137 0.929 . S
C1126 C1122 1.531 . S
C1126 H1138 0.960 . S
C1126 H1139 0.962 . S
C1126 H1140 0.960 . S
C1127 C1124 1.511 . S
C1127 H1141 0.961 . S
C1127 H1142 0.961 . S
C1127 H1143 0.961 . S
C1128 C1129 1.370 . S
C1128 C1130 1.363 . S
C1128 H1144 0.928 1_655 S
C1129 C1128 1.370 . S
C1129 C1133 1.408 . S
C1130 C1128 1.363 . S
C1130 C1131 1.370 . S
C1130 C1134 1.524 1_655 S
C1131 C1123 1.503 . S
C1131 C1130 1.370 . S
C1131 C1132 1.403 . S
C1132 C1131 1.403 . S
C1132 C1133 1.404 . S
C1132 C1135 1.539 . S
C1133 C1129 1.408 . S
C1133 C1132 1.404 . S
C1133 H1145 0.930 . S
C1134 C1130 1.524 1_455 S
C1134 H1146 0.956 . S
C1134 H1147 0.961 1_455 S
C1134 H1148 0.961 . S
C1135 C1132 1.539 . S
C1135 H1149 0.958 . S
C1135 H1150 0.961 . S
C1135 H1151 0.960 . S
H1136 C1120 0.931 . S
H1137 C1125 0.929 . S
H1138 C1126 0.960 . S
H1139 C1126 0.962 . S
H1140 C1126 0.960 . S
H1141 C1127 0.961 . S
H1142 C1127 0.961 . S
H1143 C1127 0.961 . S
H1144 C1128 0.928 1_455 S
H1145 C1133 0.930 . S
H1146 C1134 0.956 . S
H1147 C1134 0.961 1_655 S
H1148 C1134 0.961 . S
H1149 C1135 0.958 . S
H1150 C1135 0.961 . S
H1151 C1135 0.960 . S
C1152 C1153 1.369 1_545 S
C1152 C1154 1.394 . S
C1152 H1168 0.931 . S
C1153 C1152 1.369 1_565 S
C1153 C1157 1.397 . S
C1154 C1152 1.394 . S
C1154 C1155 1.355 1_545 S
C1154 C1158 1.531 . S
C1155 C1154 1.355 1_565 S
C1155 C1156 1.423 . S
C1155 C1163 1.507 . S
C1156 C1155 1.423 . S
C1156 C1157 1.392 . S
C1156 C1159 1.511 . S
C1157 C1153 1.397 . S
C1157 C1156 1.392 . S
C1157 H1169 0.929 . S
C1158 C1154 1.531 . S
C1158 H1170 0.960 . S
C1158 H1171 0.962 . S
C1158 H1172 0.960 . S
C1159 C1156 1.511 . S
C1159 H1173 0.961 . S
C1159 H1174 0.961 . S
C1159 H1175 0.961 . S
C1160 C1161 1.370 . S
C1160 C1162 1.363 . S
C1160 H1176 0.931 . S
C1161 C1160 1.370 . S
C1161 C1165 1.408 1_565 S
C1162 C1160 1.363 . S
C1162 C1163 1.370 . S
C1162 C1166 1.524 . S
C1163 C1155 1.507 . S
C1163 C1162 1.370 . S
C1163 C1164 1.403 1_565 S
C1164 C1163 1.403 1_545 S
C1164 C1165 1.404 . S
C1164 C1167 1.539 . S
C1165 C1161 1.408 1_545 S
C1165 C1164 1.404 . S
C1165 H1177 0.930 . S
C1166 C1162 1.524 . S
C1166 H1178 0.956 . S
C1166 H1179 0.961 . S
C1166 H1180 0.961 . S
C1167 C1164 1.539 . S
C1167 H1181 0.958 . S
C1167 H1182 0.961 . S
C1167 H1183 0.960 . S
H1168 C1152 0.931 . S
H1169 C1157 0.929 . S
H1170 C1158 0.960 . S
H1171 C1158 0.962 . S
H1172 C1158 0.960 . S
H1173 C1159 0.961 . S
H1174 C1159 0.961 . S
H1175 C1159 0.961 . S
H1176 C1160 0.931 . S
H1177 C1165 0.930 . S
H1178 C1166 0.956 . S
H1179 C1166 0.961 . S
H1180 C1166 0.961 . S
H1181 C1167 0.958 . S
H1182 C1167 0.961 . S
H1183 C1167 0.960 . S
C1184 C1185 1.391 . S
C1184 C1186 1.394 . S
C1184 H1200 0.931 . S
C1185 C1184 1.391 . S
C1185 C1189 1.376 . S
C1186 C1184 1.394 . S
C1186 C1187 1.369 . S
C1186 C1190 1.531 . S
C1187 C1186 1.369 . S
C1187 C1188 1.410 . S
C1187 C1195 1.503 . S
C1188 C1187 1.410 . S
C1188 C1189 1.392 . S
C1188 C1191 1.511 . S
C1189 C1185 1.376 . S
C1189 C1188 1.392 . S
C1189 H1201 0.929 . S
C1190 C1186 1.531 . S
C1190 H1202 0.960 . S
C1190 H1203 0.962 . S
C1190 H1204 0.960 . S
C1191 C1188 1.511 . S
C1191 H1205 0.961 . S
C1191 H1206 0.961 . S
C1191 H1207 0.961 . S
C1192 C1193 1.370 . S
C1192 C1194 1.363 . S
C1192 H1208 0.931 . S
C1193 C1192 1.370 . S
C1193 C1197 1.408 . S
C1194 C1192 1.363 . S
C1194 C1195 1.370 . S
C1194 C1198 1.524 . S
C1195 C1187 1.503 . S
C1195 C1194 1.370 . S
C1195 C1196 1.403 . S
C1196 C1195 1.403 . S
C1196 C1197 1.404 . S
C1196 C1199 1.539 . S
C1197 C1193 1.408 . S
C1197 C1196 1.404 . S
C1197 H1209 0.930 . S
C1198 C1194 1.524 . S
C1198 H1210 0.956 . S
C1198 H1211 0.961 . S
C1198 H1212 0.961 . S
C1199 C1196 1.539 . S
C1199 H1213 0.958 . S
C1199 H1214 0.961 . S
C1199 H1215 0.960 . S
H1200 C1184 0.931 . S
H1201 C1189 0.929 . S
H1202 C1190 0.960 . S
H1203 C1190 0.962 . S
H1204 C1190 0.960 . S
H1205 C1191 0.961 . S
H1206 C1191 0.961 . S
H1207 C1191 0.961 . S
H1208 C1192 0.931 . S
H1209 C1197 0.930 . S
H1210 C1198 0.956 . S
H1211 C1198 0.961 . S
H1212 C1198 0.961 . S
H1213 C1199 0.958 . S
H1214 C1199 0.961 . S
H1215 C1199 0.960 . S
C1216 C1217 1.391 . S
C1216 C1218 1.394 . S
C1216 H1232 0.931 . S
C1217 C1216 1.391 . S
C1217 C1221 1.376 . S
C1218 C1216 1.394 . S
C1218 C1219 1.369 . S
C1218 C1222 1.531 . S
C1219 C1218 1.369 . S
C1219 C1220 1.410 . S
C1219 C1227 1.503 . S
C1220 C1219 1.410 . S
C1220 C1221 1.392 . S
C1220 C1223 1.511 . S
C1221 C1217 1.376 . S
C1221 C1220 1.392 . S
C1221 H1233 0.929 . S
C1222 C1218 1.531 . S
C1222 H1234 0.960 . S
C1222 H1235 0.962 . S
C1222 H1236 0.960 . S
C1223 C1220 1.511 . S
C1223 H1237 0.961 . S
C1223 H1238 0.961 . S
C1223 H1239 0.961 . S
C1224 C1225 1.370 . S
C1224 C1226 1.363 . S
C1224 H1240 0.931 . S
C1225 C1224 1.370 . S
C1225 C1229 1.408 . S
C1226 C1224 1.363 . S
C1226 C1227 1.370 . S
C1226 C1230 1.524 . S
C1227 C1219 1.503 . S
C1227 C1226 1.370 . S
C1227 C1228 1.403 . S
C1228 C1227 1.403 . S
C1228 C1229 1.404 . S
C1228 C1231 1.539 . S
C1229 C1225 1.408 . S
C1229 C1228 1.404 . S
C1229 H1241 0.930 . S
C1230 C1226 1.524 . S
C1230 H1242 0.956 . S
C1230 H1243 0.961 . S
C1230 H1244 0.961 . S
C1231 C1228 1.539 . S
C1231 H1245 0.958 . S
C1231 H1246 0.961 . S
C1231 H1247 0.960 . S
H1232 C1216 0.931 . S
H1233 C1221 0.929 . S
H1234 C1222 0.960 . S
H1235 C1222 0.962 . S
H1236 C1222 0.960 . S
H1237 C1223 0.961 . S
H1238 C1223 0.961 . S
H1239 C1223 0.961 . S
H1240 C1224 0.931 . S
H1241 C1229 0.930 . S
H1242 C1230 0.956 . S
H1243 C1230 0.961 . S
H1244 C1230 0.961 . S
H1245 C1231 0.958 . S
H1246 C1231 0.961 . S
H1247 C1231 0.960 . S
C481 C255 2.236 . S
C489 C329 2.425 1_545 S
C521 C369 2.430 . S
C513 C295 2.255 . S
C553 C409 2.436 . S
C545 C175 2.237 . S
C585 C449 2.427 1_455 S
C577 C215 2.258 . S
C617 C338 2.434 1_565 S
C609 C95 2.231 1_565 S
C641 C135 2.248 . S
C649 C378 2.439 . S
C673 C15 2.235 . S
C681 C418 2.430 . S
C705 C55 2.245 1_655 S
C713 C458 2.434 1_655 S
C745 C335 0.447 . S
C737 C221 0.502 . S
C777 C375 0.401 . S
C769 C261 0.445 . S
C809 C415 0.463 . S
C801 C301 0.344 . S
C833 C181 0.483 . S
C841 C455 0.459 . S
C865 C61 0.629 1_655 S
C873 C326 0.402 . S
C905 C366 0.408 . S
C897 C101 0.585 1_565 S
C937 C406 0.478 . S
C929 C141 0.416 . S
C961 C21 0.443 . S
C969 C446 0.478 . S
C993 C202 3.150 . S
C1001 C339 3.485 . S
C1025 C242 3.098 . S
C1033 C379 3.488 . S
C1065 C419 3.483 . S
C1057 C282 3.141 . S
C1097 C459 3.488 . S
C1089 C162 3.098 . S
C1121 C42 3.123 1_655 S
C1129 C330 3.501 . S
C1161 C370 3.483 . S
C1153 C82 3.118 1_565 S
C1193 C410 3.486 . S
C1185 C122 3.117 . S
C1217 C2 3.134 . S
C1225 C450 3.492 . S
