# Generated by pormake.
# Topology pyr, (3,6)-cn, num edge types: 1
# Building blocks:
#     Node 0, Type 0, BuildingBlock: OLANEW_clean_sbu_2, # of connection points: 3
#     Node 1, Type 0, BuildingBlock: OLANEW_clean_sbu_2, # of connection points: 3
#     Node 2, Type 0, BuildingBlock: OLANEW_clean_sbu_2, # of connection points: 3
#     Node 3, Type 0, BuildingBlock: OLANEW_clean_sbu_2, # of connection points: 3
#     Node 4, Type 0, BuildingBlock: OLANEW_clean_sbu_2, # of connection points: 3
#     Node 5, Type 0, BuildingBlock: OLANEW_clean_sbu_2, # of connection points: 3
#     Node 6, Type 0, BuildingBlock: OLANEW_clean_sbu_2, # of connection points: 3
#     Node 7, Type 0, BuildingBlock: OLANEW_clean_sbu_2, # of connection points: 3
#     Node 8, Type 1, BuildingBlock: BETDAH_clean_sbu_0, # of connection points: 6
#     Node 9, Type 1, BuildingBlock: BETDAH_clean_sbu_0, # of connection points: 6
#     Node 10, Type 1, BuildingBlock: BETDAH_clean_sbu_0, # of connection points: 6
#     Node 11, Type 1, BuildingBlock: BETDAH_clean_sbu_0, # of connection points: 6
#     Edge 12, Type (0, 1), None
#     Edge 13, Type (0, 1), None
#     Edge 14, Type (0, 1), None
#     Edge 15, Type (0, 1), None
#     Edge 16, Type (0, 1), None
#     Edge 17, Type (0, 1), None
#     Edge 18, Type (0, 1), None
#     Edge 19, Type (0, 1), None
#     Edge 20, Type (0, 1), None
#     Edge 21, Type (0, 1), None
#     Edge 22, Type (0, 1), None
#     Edge 23, Type (0, 1), None
#     Edge 24, Type (0, 1), None
#     Edge 25, Type (0, 1), None
#     Edge 26, Type (0, 1), None
#     Edge 27, Type (0, 1), None
#     Edge 28, Type (0, 1), None
#     Edge 29, Type (0, 1), None
#     Edge 30, Type (0, 1), None
#     Edge 31, Type (0, 1), None
#     Edge 32, Type (0, 1), None
#     Edge 33, Type (0, 1), None
#     Edge 34, Type (0, 1), None
#     Edge 35, Type (0, 1), None
# Relax obj value: 0.352
# Max RMSD: 0.201
# Mean RMSD: 0.133
data_MOF--net-pyr--node1-OLANEW_clean_sbu_2--node2-BETDAH_clean_sbu_0--edge1-none
_symmetry_space_group_name_H-M    P1
_symmetry_Int_Tables_number       1
_symmetry_cell_setting            triclinic
loop_
_symmetry_equiv_pos_as_xyz
'x, y, z'
_cell_length_a     20.27261
_cell_length_b     22.024983
_cell_length_c     19.247163
_cell_angle_alpha  96.235373
_cell_angle_beta   86.341599
_cell_angle_gamma 105.5647
loop_
_atom_site_label
_atom_site_type_symbol
_atom_site_fract_x
_atom_site_fract_y
_atom_site_fract_z
_atom_type_partial_charge
O0 O 0.47155 0.27795 0.33054 0.0
Cd1 Cd 0.43312 0.37754 0.3368 0.0
O2 O 0.42629 0.24812 0.22819 0.0
Cd3 Cd 0.39105 0.1787 0.13865 0.0
O4 O 0.30261 0.13505 0.20159 0.0
C5 C 0.26852 0.17376 0.22581 0.0
O6 O 0.28067 0.22828 0.19901 0.0
C7 C 0.45839 0.23712 0.27806 0.0
C8 C 0.31413 0.3939 0.27958 0.0
O9 O 0.36908 0.39504 0.24216 0.0
O10 O 0.31334 0.38085 0.34302 0.0
O11 O 0.18493 1.01769 0.87694 0.0
Cd12 Cd 0.15045 0.94675 0.77342 0.0
O13 O 0.10969 0.9487 0.93534 0.0
Cd14 Cd 0.04392 0.93395 0.84687 0.0
O15 O 0.03259 0.96447 0.74582 0.0
C16 C 0.00483 1.00911 0.74238 0.0
O17 O 0.97699 1.03246 0.79895 0.0
C18 C 0.16489 0.99292 0.93379 0.0
C19 C 0.23149 0.86413 0.77759 0.0
O20 O 0.24978 0.91117 0.74044 0.0
O21 O 0.17265 0.85384 0.80942 0.0
O22 O 0.78891 0.5215 1.00373 0.0
Cd23 Cd 0.67181 0.4945 0.94126 0.0
O24 O 0.79723 0.44599 0.07063 0.0
Cd25 Cd 0.70475 0.36028 0.07568 0.0
O26 O 0.62465 0.26909 0.09938 0.0
C27 C 0.63761 0.22278 0.12584 0.0
O28 O 0.70103 0.22651 0.14048 0.0
C29 C 0.82262 0.49956 1.0455 0.0
C30 C 0.6142 0.55195 0.83775 0.0
O31 O 0.6031 0.56386 0.90355 0.0
O32 O 0.65522 0.51702 0.82024 0.0
O33 O 0.96384 0.90665 0.42229 0.0
Cd34 Cd 0.92352 0.79822 0.34678 0.0
O35 O 0.8744 0.88163 0.49445 0.0
Cd36 Cd 0.7825 0.81179 0.52667 0.0
O37 O 0.68925 0.77667 0.58908 0.0
C38 C 0.67711 0.72634 0.61955 0.0
O39 O 0.71997 0.69058 0.61096 0.0
C40 C 0.928 0.92216 0.47547 0.0
C41 C 0.97739 0.70424 0.2618 0.0
O42 O 0.96765 0.75175 0.23472 0.0
O43 O 0.96696 0.70314 0.32821 0.0
O44 O 0.61461 0.80382 0.81959 0.0
Cd45 Cd 0.57825 0.71813 0.89173 0.0
O46 O 0.66644 0.85798 0.91149 0.0
Cd47 Cd 0.72811 0.93826 0.97543 0.0
O48 O 0.70718 0.99467 0.06979 0.0
C49 C 0.64957 0.96823 0.09749 0.0
O50 O 0.61467 0.91283 0.06936 0.0
C51 C 0.65289 0.85456 0.84743 0.0
C52 C 0.70538 0.71744 0.93029 0.0
O53 O 0.68173 0.68999 0.87163 0.0
O54 O 0.66623 0.74112 0.97372 0.0
O55 O 0.98734 0.38477 0.35271 0.0
Cd56 Cd 0.04946 0.32083 0.40653 0.0
O57 O 0.9178 0.42734 0.30526 0.0
Cd58 Cd 0.97527 0.52226 0.34074 0.0
O59 O 0.89148 0.54949 0.40126 0.0
C60 C 0.83541 0.53502 0.36957 0.0
O61 O 0.83545 0.51357 0.30313 0.0
C62 C 0.9307 0.37853 0.32409 0.0
C63 C 0.97425 0.22183 0.48042 0.0
O64 O 0.00518 0.21003 0.42249 0.0
O65 O 0.97815 0.27953 0.50277 0.0
O66 O 0.47881 0.89269 0.36047 0.0
Cd67 Cd 0.4276 0.78175 0.40261 0.0
O68 O 0.41085 0.90449 0.27859 0.0
Cd69 Cd 0.33536 0.80962 0.26246 0.0
O70 O 0.25075 0.72928 0.21809 0.0
C71 C 0.22108 0.73848 0.16527 0.0
O72 O 0.24189 0.79368 0.13976 0.0
C73 C 0.46266 0.92657 0.31707 0.0
C74 C 0.46528 0.72124 0.51483 0.0
O75 O 0.49094 0.71525 0.4526 0.0
O76 O 0.42584 0.7584 0.52589 0.0
O77 O 0.16528 0.54591 0.88962 0.0
Cd78 Cd 0.20082 0.48414 0.78443 0.0
O79 O 0.07246 0.47213 0.91785 0.0
Cd80 Cd 0.0834 0.39626 0.83259 0.0
O81 O 0.07352 0.31301 0.75075 0.0
C82 C 0.01844 0.26837 0.75163 0.0
O83 O 0.97091 0.27303 0.80004 0.0
C84 C 0.11219 0.52783 0.92933 0.0
C85 C 0.33532 0.51941 0.72484 0.0
O86 O 0.29224 0.55135 0.71777 0.0
O87 O 0.31662 0.47258 0.76217 0.0
Ho88 Ho 0.04589 0.11514 0.57259 0.0
Ho89 Ho 0.89902 0.09263 0.62364 0.0
C90 C 0.00464 0.21241 0.69898 0.0
C91 C 0.16092 0.16189 0.50911 0.0
C92 C 0.18391 0.16214 0.43481 0.0
C93 C 0.20683 0.11163 0.40016 0.0
C94 C 0.23053 0.11349 0.33052 0.0
C95 C 0.23202 0.16599 0.29436 0.0
C96 C 0.20676 0.21537 0.32828 0.0
C97 C 0.18338 0.21365 0.39787 0.0
C98 C 0.01283 1.04016 0.67811 0.0
C99 C 0.94589 0.9861 0.51583 0.0
C100 C 0.77621 1.05487 0.67613 0.0
C101 C 0.74039 1.00328 0.71803 0.0
C102 C 0.73045 0.93981 0.69135 0.0
C103 C 0.70148 0.89183 0.73408 0.0
C104 C 0.68268 0.90636 0.80405 0.0
C105 C 0.69164 0.96961 0.83067 0.0
C106 C 0.71996 1.01783 0.78769 0.0
C107 C 0.93657 0.17096 0.52151 0.0
O108 O 0.05146 0.20276 0.65065 0.0
O109 O 0.94414 0.17151 0.70379 0.0
O110 O 0.11636 0.19431 0.52855 0.0
O111 O 0.14685 0.1077 0.53636 0.0
O112 O 0.0595 1.0358 0.62999 0.0
O113 O 0.99184 0.08791 0.67227 0.0
O114 O 0.90657 0.99658 0.57144 0.0
O115 O 0.99901 1.03149 0.4966 0.0
O116 O 0.79303 1.03998 0.61094 0.0
O117 O 0.82532 0.09726 0.70812 0.0
O118 O 0.89446 0.17867 0.57265 0.0
O119 O 0.95314 0.12056 0.52502 0.0
H120 H 0.20778 0.07121 0.42712 0.0
H121 H 0.25004 0.07486 0.30592 0.0
H122 H 0.20746 0.25664 0.30204 0.0
H123 H 0.16602 0.25333 0.42308 0.0
H124 H 0.74614 0.9271 0.63811 0.0
H125 H 0.69544 0.84322 0.71303 0.0
H126 H 0.67609 0.9817 0.88411 0.0
H127 H 0.72708 0.06662 0.80919 0.0
Ho128 Ho 0.59916 0.10156 0.27518 0.0
Ho129 Ho 0.48605 1.05768 0.17511 0.0
C130 C 0.48123 0.17852 0.27288 0.0
C131 C 0.70387 0.15986 0.34812 0.0
C132 C 0.76246 0.21434 0.33802 0.0
C133 C 0.75459 0.26636 0.30665 0.0
C134 C 0.81052 0.31832 0.29858 0.0
C135 C 0.87544 0.31902 0.32133 0.0
C136 C 0.88376 0.26534 0.34872 0.0
C137 C 0.82761 0.21339 0.3575 0.0
C138 C 0.50888 0.99065 0.30662 0.0
C139 C 0.61522 1.00375 0.14923 0.0
C140 C 0.38215 0.99368 0.10478 0.0
C141 C 0.32317 1.00304 0.07151 0.0
C142 C 0.25933 0.9596 0.08017 0.0
C143 C 0.20479 0.96022 1.03998 0.0
C144 C 0.2138 1.00412 0.99012 0.0
C145 C 0.27605 1.05133 0.98631 0.0
C146 C 0.33046 1.05086 1.02687 0.0
C147 C 0.58272 0.16507 0.14138 0.0
O148 O 0.5445 0.18078 0.28959 0.0
O149 O 0.44262 0.12862 0.23787 0.0
O150 O 0.64371 0.17131 0.35874 0.0
O151 O 0.70258 0.11018 0.30423 0.0
O152 O 0.5727 1.00726 0.32102 0.0
O153 O 0.49396 1.0371 0.2838 0.0
O154 O 0.54795 0.98717 0.15211 0.0
O155 O 0.64926 1.05707 0.18316 0.0
O156 O 0.38098 1.00148 0.1731 0.0
O157 O 0.44288 1.01665 0.07602 0.0
O158 O 0.5185 0.15255 0.12703 0.0
O159 O 0.59276 0.11776 0.16602 0.0
H160 H 0.70502 0.2674 0.28957 0.0
H161 H 0.80216 0.35878 0.27661 0.0
H162 H 0.93328 0.2644 0.3647 0.0
H163 H 0.83486 0.17282 0.3802 0.0
H164 H 0.25275 0.92292 0.11521 0.0
H165 H 0.15747 0.92332 1.04426 0.0
H166 H 0.28425 0.08611 0.94876 0.0
H167 H 0.37907 0.08567 1.02048 0.0
Ho168 Ho 0.53068 0.57112 0.62748 0.0
Ho169 Ho 0.4932 0.66879 0.73152 0.0
C170 C 0.57995 0.57607 0.78345 0.0
C171 C 0.57729 0.50932 0.52243 0.0
C172 C 0.64366 0.51758 0.48426 0.0
C173 C 0.7055 0.54521 0.51803 0.0
C174 C 0.76809 0.55268 0.48047 0.0
C175 C 0.76968 0.53296 0.40853 0.0
C176 C 0.7074 0.50673 0.37481 0.0
C177 C 0.64501 0.49908 0.41243 0.0
C178 C 0.40402 0.53574 0.69026 0.0
C179 C 0.4795 0.6858 0.5718 0.0
C180 C 0.42436 0.72378 0.82251 0.0
C181 C 0.37531 0.75997 0.81166 0.0
C182 C 0.31439 0.75189 0.85245 0.0
C183 C 0.26644 0.78443 0.84018 0.0
C184 C 0.279 0.82563 0.78701 0.0
C185 C 0.33971 0.83289 0.74567 0.0
C186 C 0.38719 0.80004 0.75754 0.0
C187 C 0.61538 0.7089 0.66452 0.0
O188 O 0.59412 0.56192 0.71644 0.0
O189 O 0.53668 0.61165 0.80205 0.0
O190 O 0.57467 0.49475 0.58672 0.0
O191 O 0.5453 0.55228 0.51573 0.0
O192 O 0.44251 0.49775 0.67444 0.0
O193 O 0.4324 0.58798 0.66779 0.0
O194 O 0.45403 0.69582 0.63561 0.0
O195 O 0.51759 0.64512 0.55817 0.0
O196 O 0.4878 0.74935 0.80341 0.0
O197 O 0.40457 0.66325 0.80225 0.0
O198 O 0.57542 0.74537 0.68408 0.0
O199 O 0.59154 0.65534 0.68636 0.0
H200 H 0.70542 0.56046 0.57347 0.0
H201 H 0.81512 0.57298 0.50795 0.0
H202 H 0.70673 0.49087 0.31953 0.0
H203 H 0.59771 0.47826 0.38547 0.0
H204 H 0.30394 0.72041 0.89367 0.0
H205 H 0.2202 0.77819 0.87313 0.0
H206 H 0.35076 0.86417 0.70427 0.0
H207 H 0.43324 0.8061 0.7243 0.0
Ho208 Ho 0.0406 0.55684 0.13814 0.0
Ho209 Ho 0.02664 0.65968 1.04444 0.0
C210 C 0.15875 0.69245 0.13748 0.0
C211 C 0.08888 0.46449 0.16514 0.0
C212 C 0.14726 0.44959 0.19687 0.0
C213 C 0.20223 0.43865 0.1533 0.0
C214 C 0.25552 0.41999 0.18009 0.0
C215 C 0.25521 0.41078 0.25121 0.0
C216 C 0.2 0.42112 0.29499 0.0
C217 C 0.14677 0.44054 0.26815 0.0
C218 C 0.99834 0.65118 0.21882 0.0
C219 C 0.89443 0.53653 0.06438 0.0
C220 C 0.98572 0.74117 0.98579 0.0
C221 C 0.91582 0.74196 0.97112 0.0
C222 C 0.86991 0.75375 1.02563 0.0
C223 C 0.8012 0.7457 1.0125 0.0
C224 C 0.77733 0.72521 0.94495 0.0
C225 C 0.82352 0.71512 0.89019 0.0
C226 C 0.8923 0.72391 0.9031 0.0
C227 C 0.09284 0.57477 0.98307 0.0
O228 O 0.14213 0.63259 0.15265 0.0
O229 O 0.12023 0.71481 0.09964 0.0
O230 O 0.04187 0.4834 0.20534 0.0
O231 O 0.10404 0.49387 0.10829 0.0
O232 O 0.00691 0.60106 0.24323 0.0
O233 O 0.01112 0.64545 0.1538 0.0
O234 O 0.91897 0.5934 1.04159 0.0
O235 O 0.93199 0.51102 0.10134 0.0
O236 O 0.00783 0.69591 0.95021 0.0
O237 O 1.0008 0.74883 1.0519 0.0
O238 O 0.1112 0.63488 0.97513 0.0
O239 O 0.03998 0.56325 1.02363 0.0
H240 H 0.2039 0.4439 0.09785 0.0
H241 H 0.29698 0.41256 0.14473 0.0
H242 H 0.19823 0.41486 0.35018 0.0
H243 H 0.10531 0.44829 0.30314 0.0
H244 H 0.88646 0.76772 0.07876 0.0
H245 H 0.76667 0.75455 1.05537 0.0
H246 H 0.80664 0.70052 0.83723 0.0
H247 H 0.92672 0.71477 0.8602 0.0
loop_
_geom_bond_atom_site_label_1
_geom_bond_atom_site_label_2
_geom_bond_distance
_geom_bond_site_symmetry_2
_ccdc_geom_bond_type
O0 Cd1 2.300 . S
O0 C7 1.275 . S
Cd1 O0 2.300 . S
Cd1 O9 2.381 . S
Cd1 O10 2.378 . S
O2 Cd3 2.385 . S
O2 C7 1.255 . S
Cd3 O2 2.385 . S
Cd3 O4 2.317 . S
O4 Cd3 2.317 . S
O4 C5 1.232 . S
C5 O4 1.232 . S
C5 O6 1.218 . S
O6 C5 1.218 . S
C7 O0 1.275 . S
C7 O2 1.255 . S
C8 O9 1.258 . S
C8 O10 1.256 . S
O9 Cd1 2.381 . S
O9 C8 1.258 . S
O10 Cd1 2.378 . S
O10 C8 1.256 . S
O11 Cd12 2.300 . S
O11 C18 1.275 . S
Cd12 O11 2.300 . S
Cd12 O20 2.381 . S
Cd12 O21 2.378 . S
O13 Cd14 2.385 1_455 S
O13 C18 1.255 . S
Cd14 O13 2.385 1_655 S
Cd14 O15 2.317 1_655 S
O15 Cd14 2.317 1_455 S
O15 C16 1.232 . S
C16 O15 1.232 . S
C16 O17 1.218 1_455 S
O17 C16 1.218 1_655 S
C18 O11 1.275 . S
C18 O13 1.255 . S
C19 O20 1.258 . S
C19 O21 1.256 . S
O20 Cd12 2.381 . S
O20 C19 1.258 . S
O21 Cd12 2.378 . S
O21 C19 1.256 . S
O22 Cd23 2.300 . S
O22 C29 1.275 . S
Cd23 O22 2.300 . S
Cd23 O31 2.381 . S
Cd23 O32 2.378 . S
O24 Cd25 2.385 . S
O24 C29 1.255 . S
Cd25 O24 2.385 . S
Cd25 O26 2.317 . S
O26 Cd25 2.317 . S
O26 C27 1.232 . S
C27 O26 1.232 . S
C27 O28 1.218 . S
O28 C27 1.218 . S
C29 O22 1.275 . S
C29 O24 1.255 . S
C30 O31 1.258 . S
C30 O32 1.256 . S
O31 Cd23 2.381 . S
O31 C30 1.258 . S
O32 Cd23 2.378 . S
O32 C30 1.256 . S
O33 Cd34 2.300 . S
O33 C40 1.275 . S
Cd34 O33 2.300 . S
Cd34 O42 2.381 . S
Cd34 O43 2.378 . S
O35 Cd36 2.385 . S
O35 C40 1.255 . S
Cd36 O35 2.385 . S
Cd36 O37 2.317 . S
O37 Cd36 2.317 . S
O37 C38 1.232 . S
C38 O37 1.232 . S
C38 O39 1.218 . S
O39 C38 1.218 . S
C40 O33 1.275 . S
C40 O35 1.255 . S
C41 O42 1.258 . S
C41 O43 1.256 . S
O42 Cd34 2.381 . S
O42 C41 1.258 . S
O43 Cd34 2.378 . S
O43 C41 1.256 . S
O44 Cd45 2.300 . S
O44 C51 1.275 . S
Cd45 O44 2.300 . S
Cd45 O53 2.381 . S
Cd45 O54 2.378 . S
O46 Cd47 2.385 . S
O46 C51 1.255 . S
Cd47 O46 2.385 . S
Cd47 O48 2.317 . S
O48 Cd47 2.317 . S
O48 C49 1.232 . S
C49 O48 1.232 . S
C49 O50 1.218 . S
O50 C49 1.218 . S
C51 O44 1.275 . S
C51 O46 1.255 . S
C52 O53 1.258 . S
C52 O54 1.256 . S
O53 Cd45 2.381 . S
O53 C52 1.258 . S
O54 Cd45 2.378 . S
O54 C52 1.256 . S
O55 Cd56 2.300 . S
O55 C62 1.275 . S
Cd56 O55 2.300 . S
Cd56 O64 2.381 . S
Cd56 O65 2.378 1_655 S
O57 Cd58 2.385 . S
O57 C62 1.255 . S
Cd58 O57 2.385 . S
Cd58 O59 2.317 . S
O59 Cd58 2.317 . S
O59 C60 1.232 . S
C60 O59 1.232 . S
C60 O61 1.218 . S
O61 C60 1.218 . S
C62 O55 1.275 . S
C62 O57 1.255 . S
C63 O64 1.258 1_455 S
C63 O65 1.256 . S
O64 Cd56 2.381 . S
O64 C63 1.258 1_655 S
O65 Cd56 2.378 1_455 S
O65 C63 1.256 . S
O66 Cd67 2.300 . S
O66 C73 1.275 . S
Cd67 O66 2.300 . S
Cd67 O75 2.381 . S
Cd67 O76 2.378 . S
O68 Cd69 2.385 . S
O68 C73 1.255 . S
Cd69 O68 2.385 . S
Cd69 O70 2.317 . S
O70 Cd69 2.317 . S
O70 C71 1.232 . S
C71 O70 1.232 . S
C71 O72 1.218 . S
O72 C71 1.218 . S
C73 O66 1.275 . S
C73 O68 1.255 . S
C74 O75 1.258 . S
C74 O76 1.256 . S
O75 Cd67 2.381 . S
O75 C74 1.258 . S
O76 Cd67 2.378 . S
O76 C74 1.256 . S
O77 Cd78 2.300 . S
O77 C84 1.275 . S
Cd78 O77 2.300 . S
Cd78 O86 2.381 . S
Cd78 O87 2.378 . S
O79 Cd80 2.385 . S
O79 C84 1.255 . S
Cd80 O79 2.385 . S
Cd80 O81 2.317 . S
O81 Cd80 2.317 . S
O81 C82 1.232 . S
C82 O81 1.232 . S
C82 O83 1.218 . S
O83 C82 1.218 . S
C84 O77 1.275 . S
C84 O79 1.255 . S
C85 O86 1.258 . S
C85 O87 1.256 . S
O86 Cd78 2.381 . S
O86 C85 1.258 . S
O87 Cd78 2.378 . S
O87 C85 1.256 . S
Ho88 C91 2.811 . S
Ho88 O108 2.322 . S
Ho88 O110 2.378 . S
Ho88 O111 2.524 . S
Ho88 O112 2.381 1_545 S
Ho88 O113 2.669 1_545 S
Ho88 O115 2.346 1_445 S
Ho88 O119 2.305 1_455 S
Ho89 C100 2.811 1_545 S
Ho89 O109 2.346 1_655 S
Ho89 O113 2.305 1_645 S
Ho89 O114 2.322 1_545 S
Ho89 O116 2.378 1_545 S
Ho89 O117 2.524 1_545 S
Ho89 O118 2.381 . S
Ho89 O119 2.669 . S
C90 O108 1.259 . S
C90 O109 1.268 . S
C91 Ho88 2.811 . S
C91 C92 1.488 . S
C91 O110 1.215 . S
C91 O111 1.289 . S
C92 C91 1.488 . S
C92 C93 1.348 . S
C92 C97 1.413 . S
C93 C92 1.348 . S
C93 C94 1.442 . S
C93 H120 0.930 . S
C94 C93 1.442 . S
C94 C95 1.381 . S
C94 H121 0.931 . S
C95 C94 1.381 . S
C95 C96 1.321 . S
C96 C95 1.321 . S
C96 C97 1.403 . S
C96 H122 0.934 . S
C97 C92 1.413 . S
C97 C96 1.403 . S
C97 H123 0.930 . S
C98 O112 1.275 . S
C98 O113 1.256 . S
C99 O114 1.259 . S
C99 O115 1.268 . S
C100 Ho89 2.811 1_565 S
C100 C101 1.488 . S
C100 O116 1.215 . S
C100 O117 1.289 . S
C101 C100 1.488 . S
C101 C102 1.348 . S
C101 C106 1.413 . S
C102 C101 1.348 . S
C102 C103 1.442 . S
C102 H124 0.930 . S
C103 C102 1.442 . S
C103 C104 1.381 . S
C103 H125 0.931 . S
C104 C103 1.381 . S
C104 C105 1.321 . S
C105 C104 1.321 . S
C105 C106 1.403 . S
C105 H126 0.934 . S
C106 C101 1.413 . S
C106 C105 1.403 . S
C106 H127 0.930 . S
C107 O118 1.275 . S
C107 O119 1.256 . S
O108 Ho88 2.322 . S
O108 C90 1.259 . S
O109 Ho89 2.346 1_455 S
O109 C90 1.268 . S
O110 Ho88 2.378 . S
O110 C91 1.215 . S
O111 Ho88 2.524 . S
O111 C91 1.289 . S
O112 Ho88 2.381 1_565 S
O112 C98 1.275 . S
O113 Ho88 2.669 1_565 S
O113 Ho89 2.305 1_465 S
O113 C98 1.256 . S
O114 Ho89 2.322 1_565 S
O114 C99 1.259 . S
O115 Ho88 2.346 1_665 S
O115 C99 1.268 . S
O116 Ho89 2.378 1_565 S
O116 C100 1.215 . S
O117 Ho89 2.524 1_565 S
O117 C100 1.289 . S
O118 Ho89 2.381 . S
O118 C107 1.275 . S
O119 Ho88 2.305 1_655 S
O119 Ho89 2.669 . S
O119 C107 1.256 . S
H120 C93 0.930 . S
H121 C94 0.931 . S
H122 C96 0.934 . S
H123 C97 0.930 . S
H124 C102 0.930 . S
H125 C103 0.931 . S
H126 C105 0.934 . S
H127 C106 0.930 . S
Ho128 C131 2.811 . S
Ho128 O148 2.322 . S
Ho128 O150 2.378 . S
Ho128 O151 2.524 . S
Ho128 O152 2.381 1_545 S
Ho128 O153 2.669 . S
Ho128 O155 2.346 . S
Ho128 O159 2.305 . S
Ho129 C140 2.811 1_544 S
Ho129 O149 2.346 . S
Ho129 O153 2.305 . S
Ho129 O154 2.322 1_554 S
Ho129 O156 2.378 1_554 S
Ho129 O157 2.524 1_544 S
Ho129 O158 2.381 . S
Ho129 O159 2.669 . S
C130 O148 1.259 . S
C130 O149 1.268 . S
C131 Ho128 2.811 . S
C131 C132 1.488 . S
C131 O150 1.215 . S
C131 O151 1.289 . S
C132 C131 1.488 . S
C132 C133 1.348 . S
C132 C137 1.413 . S
C133 C132 1.348 . S
C133 C134 1.442 . S
C133 H160 0.930 . S
C134 C133 1.442 . S
C134 C135 1.381 . S
C134 H161 0.931 . S
C135 C134 1.381 . S
C135 C136 1.321 . S
C136 C135 1.321 . S
C136 C137 1.403 . S
C136 H162 0.934 . S
C137 C132 1.413 . S
C137 C136 1.403 . S
C137 H163 0.930 . S
C138 O152 1.275 . S
C138 O153 1.256 1_565 S
C139 O154 1.259 1_565 S
C139 O155 1.268 1_566 S
C140 Ho129 2.811 1_566 S
C140 C141 1.488 . S
C140 O156 1.215 1_565 S
C140 O157 1.289 . S
C141 C140 1.488 . S
C141 C142 1.348 . S
C141 C146 1.413 . S
C142 C141 1.348 . S
C142 C143 1.442 . S
C142 H164 0.930 . S
C143 C142 1.442 . S
C143 C144 1.381 . S
C143 H165 0.931 . S
C144 C143 1.381 . S
C144 C145 1.321 . S
C145 C144 1.321 . S
C145 C146 1.403 . S
C145 H166 0.934 . S
C146 C141 1.413 . S
C146 C145 1.403 . S
C146 H167 0.930 1_565 S
C147 O158 1.275 . S
C147 O159 1.256 . S
O148 Ho128 2.322 . S
O148 C130 1.259 . S
O149 Ho129 2.346 . S
O149 C130 1.268 . S
O150 Ho128 2.378 . S
O150 C131 1.215 . S
O151 Ho128 2.524 . S
O151 C131 1.289 . S
O152 Ho128 2.381 1_565 S
O152 C138 1.275 . S
O153 Ho128 2.669 . S
O153 Ho129 2.305 . S
O153 C138 1.256 1_545 S
O154 Ho129 2.322 1_556 S
O154 C139 1.259 1_545 S
O155 Ho128 2.346 . S
O155 C139 1.268 1_544 S
O156 Ho129 2.378 1_556 S
O156 C140 1.215 1_545 S
O157 Ho129 2.524 1_566 S
O157 C140 1.289 . S
O158 Ho129 2.381 . S
O158 C147 1.275 . S
O159 Ho128 2.305 . S
O159 Ho129 2.669 . S
O159 C147 1.256 . S
H160 C133 0.930 . S
H161 C134 0.931 . S
H162 C136 0.934 . S
H163 C137 0.930 . S
H164 C142 0.930 . S
H165 C143 0.931 . S
H166 C145 0.934 . S
H167 C146 0.930 1_545 S
Ho168 C171 2.811 . S
Ho168 O188 2.322 . S
Ho168 O190 2.378 . S
Ho168 O191 2.524 . S
Ho168 O192 2.381 . S
Ho168 O193 2.669 . S
Ho168 O195 2.346 . S
Ho168 O199 2.305 . S
Ho169 C180 2.811 . S
Ho169 O189 2.346 . S
Ho169 O193 2.305 . S
Ho169 O194 2.322 . S
Ho169 O196 2.378 . S
Ho169 O197 2.524 . S
Ho169 O198 2.381 . S
Ho169 O199 2.669 . S
C170 O188 1.259 . S
C170 O189 1.268 . S
C171 Ho168 2.811 . S
C171 C172 1.488 . S
C171 O190 1.215 . S
C171 O191 1.289 . S
C172 C171 1.488 . S
C172 C173 1.348 . S
C172 C177 1.413 . S
C173 C172 1.348 . S
C173 C174 1.442 . S
C173 H200 0.930 . S
C174 C173 1.442 . S
C174 C175 1.381 . S
C174 H201 0.931 . S
C175 C174 1.381 . S
C175 C176 1.321 . S
C176 C175 1.321 . S
C176 C177 1.403 . S
C176 H202 0.934 . S
C177 C172 1.413 . S
C177 C176 1.403 . S
C177 H203 0.930 . S
C178 O192 1.275 . S
C178 O193 1.256 . S
C179 O194 1.259 . S
C179 O195 1.268 . S
C180 Ho169 2.811 . S
C180 C181 1.488 . S
C180 O196 1.215 . S
C180 O197 1.289 . S
C181 C180 1.488 . S
C181 C182 1.348 . S
C181 C186 1.413 . S
C182 C181 1.348 . S
C182 C183 1.442 . S
C182 H204 0.930 . S
C183 C182 1.442 . S
C183 C184 1.381 . S
C183 H205 0.931 . S
C184 C183 1.381 . S
C184 C185 1.321 . S
C185 C184 1.321 . S
C185 C186 1.403 . S
C185 H206 0.934 . S
C186 C181 1.413 . S
C186 C185 1.403 . S
C186 H207 0.930 . S
C187 O198 1.275 . S
C187 O199 1.256 . S
O188 Ho168 2.322 . S
O188 C170 1.259 . S
O189 Ho169 2.346 . S
O189 C170 1.268 . S
O190 Ho168 2.378 . S
O190 C171 1.215 . S
O191 Ho168 2.524 . S
O191 C171 1.289 . S
O192 Ho168 2.381 . S
O192 C178 1.275 . S
O193 Ho168 2.669 . S
O193 Ho169 2.305 . S
O193 C178 1.256 . S
O194 Ho169 2.322 . S
O194 C179 1.259 . S
O195 Ho168 2.346 . S
O195 C179 1.268 . S
O196 Ho169 2.378 . S
O196 C180 1.215 . S
O197 Ho169 2.524 . S
O197 C180 1.289 . S
O198 Ho169 2.381 . S
O198 C187 1.275 . S
O199 Ho168 2.305 . S
O199 Ho169 2.669 . S
O199 C187 1.256 . S
H200 C173 0.930 . S
H201 C174 0.931 . S
H202 C176 0.934 . S
H203 C177 0.930 . S
H204 C182 0.930 . S
H205 C183 0.931 . S
H206 C185 0.934 . S
H207 C186 0.930 . S
Ho208 C211 2.811 . S
Ho208 O228 2.322 . S
Ho208 O230 2.378 . S
Ho208 O231 2.524 . S
Ho208 O232 2.381 1_455 S
Ho208 O233 2.669 1_455 S
Ho208 O235 2.346 1_455 S
Ho208 O239 2.305 1_554 S
Ho209 C220 2.811 1_455 S
Ho209 O229 2.346 1_556 S
Ho209 O233 2.305 1_456 S
Ho209 O234 2.322 1_455 S
Ho209 O236 2.378 1_455 S
Ho209 O237 2.524 1_455 S
Ho209 O238 2.381 . S
Ho209 O239 2.669 . S
C210 O228 1.259 . S
C210 O229 1.268 . S
C211 Ho208 2.811 . S
C211 C212 1.488 . S
C211 O230 1.215 . S
C211 O231 1.289 . S
C212 C211 1.488 . S
C212 C213 1.348 . S
C212 C217 1.413 . S
C213 C212 1.348 . S
C213 C214 1.442 . S
C213 H240 0.930 . S
C214 C213 1.442 . S
C214 C215 1.381 . S
C214 H241 0.931 . S
C215 C214 1.381 . S
C215 C216 1.321 . S
C216 C215 1.321 . S
C216 C217 1.403 . S
C216 H242 0.934 . S
C217 C212 1.413 . S
C217 C216 1.403 . S
C217 H243 0.930 . S
C218 O232 1.275 . S
C218 O233 1.256 . S
C219 O234 1.259 . S
C219 O235 1.268 1_556 S
C220 Ho209 2.811 1_655 S
C220 C221 1.488 . S
C220 O236 1.215 . S
C220 O237 1.308 . S
C221 C220 1.488 . S
C221 C222 1.348 . S
C221 C226 1.413 . S
C222 C221 1.348 . S
C222 C223 1.442 . S
C222 H244 0.930 . S
C223 C222 1.442 . S
C223 C224 1.381 . S
C223 H245 0.931 . S
C224 C223 1.381 . S
C224 C225 1.321 . S
C225 C224 1.321 . S
C225 C226 1.403 . S
C225 H246 0.934 . S
C226 C221 1.413 . S
C226 C225 1.403 . S
C226 H247 0.930 . S
C227 O238 1.275 . S
C227 O239 1.256 . S
O228 Ho208 2.322 . S
O228 C210 1.259 . S
O229 Ho209 2.346 1_554 S
O229 C210 1.268 . S
O230 Ho208 2.378 . S
O230 C211 1.215 . S
O231 Ho208 2.524 . S
O231 C211 1.289 . S
O232 Ho208 2.381 1_655 S
O232 C218 1.275 . S
O233 Ho208 2.669 1_655 S
O233 Ho209 2.305 1_654 S
O233 C218 1.256 . S
O234 Ho209 2.322 1_655 S
O234 C219 1.259 . S
O235 Ho208 2.346 1_655 S
O235 C219 1.268 1_554 S
O236 Ho209 2.378 1_655 S
O236 C220 1.215 . S
O237 Ho209 2.524 1_655 S
O237 C220 1.308 . S
O238 Ho209 2.381 . S
O238 C227 1.275 . S
O239 Ho208 2.305 1_556 S
O239 Ho209 2.669 . S
O239 C227 1.256 . S
H240 C213 0.930 . S
H241 C214 0.931 . S
H242 C216 0.934 . S
H243 C217 0.930 . S
H244 C222 0.930 . S
H245 C223 0.931 . S
H246 C225 0.934 . S
H247 C226 0.930 . S
C5 C95 1.518 . S
C18 C144 1.390 . S
C170 C30 3.388 . S
C41 C218 3.271 . S
C130 C7 3.121 . S
C98 C16 1.925 . S
C219 C29 2.591 . S
C187 C38 1.563 . S
C8 C215 1.985 . S
C147 C27 3.433 1_554 S
C40 C99 3.709 . S
C19 C184 2.622 . S
C104 C51 1.509 . S
C62 C135 2.636 . S
C74 C179 3.796 . S
C84 C227 3.487 . S
C49 C139 2.811 . S
C107 C63 1.900 1_655 S
C210 C71 2.248 . S
C178 C85 2.209 . S
C52 C224 2.600 . S
C138 C73 4.083 . S
C90 C82 2.943 . S
C60 C175 2.410 . S
