# Generated by pormake.
# Topology llk, (3,12)-cn, num edge types: 1
# Building blocks:
#     Node 0, Type 0, BuildingBlock: OLANEW_clean_sbu_2, # of connection points: 3
#     Node 1, Type 0, BuildingBlock: OLANEW_clean_sbu_2, # of connection points: 3
#     Node 2, Type 0, BuildingBlock: OLANEW_clean_sbu_2, # of connection points: 3
#     Node 3, Type 0, BuildingBlock: OLANEW_clean_sbu_2, # of connection points: 3
#     Node 4, Type 0, BuildingBlock: OLANEW_clean_sbu_2, # of connection points: 3
#     Node 5, Type 0, BuildingBlock: OLANEW_clean_sbu_2, # of connection points: 3
#     Node 6, Type 0, BuildingBlock: OLANEW_clean_sbu_2, # of connection points: 3
#     Node 7, Type 0, BuildingBlock: OLANEW_clean_sbu_2, # of connection points: 3
#     Node 8, Type 0, BuildingBlock: OLANEW_clean_sbu_2, # of connection points: 3
#     Node 9, Type 0, BuildingBlock: OLANEW_clean_sbu_2, # of connection points: 3
#     Node 10, Type 0, BuildingBlock: OLANEW_clean_sbu_2, # of connection points: 3
#     Node 11, Type 0, BuildingBlock: OLANEW_clean_sbu_2, # of connection points: 3
#     Node 12, Type 0, BuildingBlock: OLANEW_clean_sbu_2, # of connection points: 3
#     Node 13, Type 0, BuildingBlock: OLANEW_clean_sbu_2, # of connection points: 3
#     Node 14, Type 0, BuildingBlock: OLANEW_clean_sbu_2, # of connection points: 3
#     Node 15, Type 0, BuildingBlock: OLANEW_clean_sbu_2, # of connection points: 3
#     Node 16, Type 0, BuildingBlock: OLANEW_clean_sbu_2, # of connection points: 3
#     Node 17, Type 0, BuildingBlock: OLANEW_clean_sbu_2, # of connection points: 3
#     Node 18, Type 0, BuildingBlock: OLANEW_clean_sbu_2, # of connection points: 3
#     Node 19, Type 0, BuildingBlock: OLANEW_clean_sbu_2, # of connection points: 3
#     Node 20, Type 0, BuildingBlock: OLANEW_clean_sbu_2, # of connection points: 3
#     Node 21, Type 0, BuildingBlock: OLANEW_clean_sbu_2, # of connection points: 3
#     Node 22, Type 0, BuildingBlock: OLANEW_clean_sbu_2, # of connection points: 3
#     Node 23, Type 0, BuildingBlock: OLANEW_clean_sbu_2, # of connection points: 3
#     Node 24, Type 1, BuildingBlock: EZIPEK_clean_sbu_0, # of connection points: 12
#     Node 25, Type 1, BuildingBlock: EZIPEK_clean_sbu_0, # of connection points: 12
#     Node 26, Type 1, BuildingBlock: EZIPEK_clean_sbu_0, # of connection points: 12
#     Node 27, Type 1, BuildingBlock: EZIPEK_clean_sbu_0, # of connection points: 12
#     Node 28, Type 1, BuildingBlock: EZIPEK_clean_sbu_0, # of connection points: 12
#     Node 29, Type 1, BuildingBlock: EZIPEK_clean_sbu_0, # of connection points: 12
#     Edge 30, Type (0, 1), BuildingBlock: KIFKEQ_clean_linker_1, # of connection points: 2
#     Edge 31, Type (0, 1), BuildingBlock: KIFKEQ_clean_linker_1, # of connection points: 2
#     Edge 32, Type (0, 1), BuildingBlock: KIFKEQ_clean_linker_1, # of connection points: 2
#     Edge 33, Type (0, 1), BuildingBlock: KIFKEQ_clean_linker_1, # of connection points: 2
#     Edge 34, Type (0, 1), BuildingBlock: KIFKEQ_clean_linker_1, # of connection points: 2
#     Edge 35, Type (0, 1), BuildingBlock: KIFKEQ_clean_linker_1, # of connection points: 2
#     Edge 36, Type (0, 1), BuildingBlock: KIFKEQ_clean_linker_1, # of connection points: 2
#     Edge 37, Type (0, 1), BuildingBlock: KIFKEQ_clean_linker_1, # of connection points: 2
#     Edge 38, Type (0, 1), BuildingBlock: KIFKEQ_clean_linker_1, # of connection points: 2
#     Edge 39, Type (0, 1), BuildingBlock: KIFKEQ_clean_linker_1, # of connection points: 2
#     Edge 40, Type (0, 1), BuildingBlock: KIFKEQ_clean_linker_1, # of connection points: 2
#     Edge 41, Type (0, 1), BuildingBlock: KIFKEQ_clean_linker_1, # of connection points: 2
#     Edge 42, Type (0, 1), BuildingBlock: KIFKEQ_clean_linker_1, # of connection points: 2
#     Edge 43, Type (0, 1), BuildingBlock: KIFKEQ_clean_linker_1, # of connection points: 2
#     Edge 44, Type (0, 1), BuildingBlock: KIFKEQ_clean_linker_1, # of connection points: 2
#     Edge 45, Type (0, 1), BuildingBlock: KIFKEQ_clean_linker_1, # of connection points: 2
#     Edge 46, Type (0, 1), BuildingBlock: KIFKEQ_clean_linker_1, # of connection points: 2
#     Edge 47, Type (0, 1), BuildingBlock: KIFKEQ_clean_linker_1, # of connection points: 2
#     Edge 48, Type (0, 1), BuildingBlock: KIFKEQ_clean_linker_1, # of connection points: 2
#     Edge 49, Type (0, 1), BuildingBlock: KIFKEQ_clean_linker_1, # of connection points: 2
#     Edge 50, Type (0, 1), BuildingBlock: KIFKEQ_clean_linker_1, # of connection points: 2
#     Edge 51, Type (0, 1), BuildingBlock: KIFKEQ_clean_linker_1, # of connection points: 2
#     Edge 52, Type (0, 1), BuildingBlock: KIFKEQ_clean_linker_1, # of connection points: 2
#     Edge 53, Type (0, 1), BuildingBlock: KIFKEQ_clean_linker_1, # of connection points: 2
#     Edge 54, Type (0, 1), BuildingBlock: KIFKEQ_clean_linker_1, # of connection points: 2
#     Edge 55, Type (0, 1), BuildingBlock: KIFKEQ_clean_linker_1, # of connection points: 2
#     Edge 56, Type (0, 1), BuildingBlock: KIFKEQ_clean_linker_1, # of connection points: 2
#     Edge 57, Type (0, 1), BuildingBlock: KIFKEQ_clean_linker_1, # of connection points: 2
#     Edge 58, Type (0, 1), BuildingBlock: KIFKEQ_clean_linker_1, # of connection points: 2
#     Edge 59, Type (0, 1), BuildingBlock: KIFKEQ_clean_linker_1, # of connection points: 2
#     Edge 60, Type (0, 1), BuildingBlock: KIFKEQ_clean_linker_1, # of connection points: 2
#     Edge 61, Type (0, 1), BuildingBlock: KIFKEQ_clean_linker_1, # of connection points: 2
#     Edge 62, Type (0, 1), BuildingBlock: KIFKEQ_clean_linker_1, # of connection points: 2
#     Edge 63, Type (0, 1), BuildingBlock: KIFKEQ_clean_linker_1, # of connection points: 2
#     Edge 64, Type (0, 1), BuildingBlock: KIFKEQ_clean_linker_1, # of connection points: 2
#     Edge 65, Type (0, 1), BuildingBlock: KIFKEQ_clean_linker_1, # of connection points: 2
#     Edge 66, Type (0, 1), BuildingBlock: KIFKEQ_clean_linker_1, # of connection points: 2
#     Edge 67, Type (0, 1), BuildingBlock: KIFKEQ_clean_linker_1, # of connection points: 2
#     Edge 68, Type (0, 1), BuildingBlock: KIFKEQ_clean_linker_1, # of connection points: 2
#     Edge 69, Type (0, 1), BuildingBlock: KIFKEQ_clean_linker_1, # of connection points: 2
#     Edge 70, Type (0, 1), BuildingBlock: KIFKEQ_clean_linker_1, # of connection points: 2
#     Edge 71, Type (0, 1), BuildingBlock: KIFKEQ_clean_linker_1, # of connection points: 2
#     Edge 72, Type (0, 1), BuildingBlock: KIFKEQ_clean_linker_1, # of connection points: 2
#     Edge 73, Type (0, 1), BuildingBlock: KIFKEQ_clean_linker_1, # of connection points: 2
#     Edge 74, Type (0, 1), BuildingBlock: KIFKEQ_clean_linker_1, # of connection points: 2
#     Edge 75, Type (0, 1), BuildingBlock: KIFKEQ_clean_linker_1, # of connection points: 2
#     Edge 76, Type (0, 1), BuildingBlock: KIFKEQ_clean_linker_1, # of connection points: 2
#     Edge 77, Type (0, 1), BuildingBlock: KIFKEQ_clean_linker_1, # of connection points: 2
#     Edge 78, Type (0, 1), BuildingBlock: KIFKEQ_clean_linker_1, # of connection points: 2
#     Edge 79, Type (0, 1), BuildingBlock: KIFKEQ_clean_linker_1, # of connection points: 2
#     Edge 80, Type (0, 1), BuildingBlock: KIFKEQ_clean_linker_1, # of connection points: 2
#     Edge 81, Type (0, 1), BuildingBlock: KIFKEQ_clean_linker_1, # of connection points: 2
#     Edge 82, Type (0, 1), BuildingBlock: KIFKEQ_clean_linker_1, # of connection points: 2
#     Edge 83, Type (0, 1), BuildingBlock: KIFKEQ_clean_linker_1, # of connection points: 2
#     Edge 84, Type (0, 1), BuildingBlock: KIFKEQ_clean_linker_1, # of connection points: 2
#     Edge 85, Type (0, 1), BuildingBlock: KIFKEQ_clean_linker_1, # of connection points: 2
#     Edge 86, Type (0, 1), BuildingBlock: KIFKEQ_clean_linker_1, # of connection points: 2
#     Edge 87, Type (0, 1), BuildingBlock: KIFKEQ_clean_linker_1, # of connection points: 2
#     Edge 88, Type (0, 1), BuildingBlock: KIFKEQ_clean_linker_1, # of connection points: 2
#     Edge 89, Type (0, 1), BuildingBlock: KIFKEQ_clean_linker_1, # of connection points: 2
#     Edge 90, Type (0, 1), BuildingBlock: KIFKEQ_clean_linker_1, # of connection points: 2
#     Edge 91, Type (0, 1), BuildingBlock: KIFKEQ_clean_linker_1, # of connection points: 2
#     Edge 92, Type (0, 1), BuildingBlock: KIFKEQ_clean_linker_1, # of connection points: 2
#     Edge 93, Type (0, 1), BuildingBlock: KIFKEQ_clean_linker_1, # of connection points: 2
#     Edge 94, Type (0, 1), BuildingBlock: KIFKEQ_clean_linker_1, # of connection points: 2
#     Edge 95, Type (0, 1), BuildingBlock: KIFKEQ_clean_linker_1, # of connection points: 2
#     Edge 96, Type (0, 1), BuildingBlock: KIFKEQ_clean_linker_1, # of connection points: 2
#     Edge 97, Type (0, 1), BuildingBlock: KIFKEQ_clean_linker_1, # of connection points: 2
#     Edge 98, Type (0, 1), BuildingBlock: KIFKEQ_clean_linker_1, # of connection points: 2
#     Edge 99, Type (0, 1), BuildingBlock: KIFKEQ_clean_linker_1, # of connection points: 2
#     Edge 100, Type (0, 1), BuildingBlock: KIFKEQ_clean_linker_1, # of connection points: 2
#     Edge 101, Type (0, 1), BuildingBlock: KIFKEQ_clean_linker_1, # of connection points: 2
# Relax obj value: 0.047
# Max RMSD: 0.088
# Mean RMSD: 0.076
data_MOF--net-llk--node1-OLANEW_clean_sbu_2--node2-EZIPEK_clean_sbu_0--edge1-KIFKEQ_clean_linker_1
_symmetry_space_group_name_H-M    P1
_symmetry_Int_Tables_number       1
_symmetry_cell_setting            triclinic
loop_
_symmetry_equiv_pos_as_xyz
'x, y, z'
_cell_length_a     49.919414
_cell_length_b     52.343054
_cell_length_c     51.158227
_cell_angle_alpha  89.964856
_cell_angle_beta   90.022015
_cell_angle_gamma 89.984252
loop_
_atom_site_label
_atom_site_type_symbol
_atom_site_fract_x
_atom_site_fract_y
_atom_site_fract_z
_atom_type_partial_charge
O0 O 0.0114 0.28515 0.29724 0.0
Cd1 Cd 0.01144 0.24734 0.26918 0.0
O2 O 0.96979 0.2957 0.28799 0.0
Cd3 Cd 0.9715 0.27677 0.25 0.0
O4 O 0.97706 0.29227 0.2106 0.0
C5 C 0.9951 0.30935 0.20898 0.0
O6 O 0.00949 0.31443 0.22986 0.0
C7 C 0.9907 0.29856 0.30186 0.0
C8 C 0.00912 0.20395 0.30122 0.0
O9 O 0.03154 0.21447 0.29547 0.0
O10 O 0.98777 0.21356 0.29136 0.0
O11 O 0.71329 0.98839 0.28591 0.0
Cd12 Cd 0.74103 0.98736 0.24661 0.0
O13 O 0.70827 0.02999 0.28309 0.0
Cd14 Cd 0.7471 0.03256 0.26397 0.0
O15 O 0.7857 0.03182 0.28399 0.0
C16 C 0.7946 0.01049 0.29209 0.0
O17 O 0.78178 0.98947 0.28573 0.0
C18 C 0.70144 0.00872 0.29306 0.0
C19 C 0.70661 0.99005 0.20365 0.0
O20 O 0.71252 0.96858 0.21424 0.0
O21 O 0.71758 0.01025 0.2129 0.0
O22 O 0.98585 0.71722 0.29616 0.0
Cd23 Cd 0.98923 0.75581 0.26939 0.0
O24 O 0.02795 0.70752 0.28833 0.0
Cd25 Cd 0.02702 0.72639 0.25032 0.0
O26 O 0.0214 0.70908 0.21177 0.0
C27 C 0.00555 0.69005 0.21187 0.0
O28 O 0.99337 0.68409 0.23382 0.0
C29 C 0.00657 0.70403 0.30134 0.0
C30 C 0.99188 0.79825 0.30266 0.0
O31 O 0.96951 0.79092 0.29291 0.0
O32 O 0.01304 0.78586 0.29628 0.0
O33 O 0.28732 0.00973 0.28013 0.0
Cd34 Cd 0.25712 0.01121 0.24274 0.0
O35 O 0.28333 0.96826 0.2857 0.0
Cd36 Cd 0.24544 0.96833 0.26466 0.0
O37 O 0.20628 0.97516 0.28208 0.0
C38 C 0.20656 0.99227 0.2997 0.0
O39 O 0.2289 0.00493 0.3038 0.0
C40 C 0.29486 0.98922 0.29123 0.0
C41 C 0.29003 0.00979 0.1988 0.0
O42 O 0.28394 0.03102 0.20976 0.0
O43 O 0.27965 0.98927 0.20799 0.0
O44 O 0.01052 0.71771 0.70151 0.0
Cd45 Cd 0.00546 0.75518 0.72964 0.0
O46 O 0.96898 0.70582 0.70917 0.0
Cd47 Cd 0.96805 0.72323 0.74787 0.0
O48 O 0.9677 0.70532 0.78654 0.0
C49 C 0.98958 0.70012 0.79812 0.0
O50 O 0.01222 0.70799 0.7878 0.0
C51 C 0.99043 0.70382 0.69594 0.0
C52 C 0.00197 0.79866 0.69779 0.0
O53 O 0.02443 0.79158 0.70755 0.0
O54 O 0.98111 0.78554 0.70353 0.0
O55 O 0.28668 0.99091 0.71628 0.0
Cd56 Cd 0.25763 0.99024 0.75453 0.0
O57 O 0.28395 0.03251 0.7109 0.0
Cd58 Cd 0.24703 0.03365 0.73349 0.0
O59 O 0.2073 0.02747 0.71709 0.0
C60 C 0.20659 0.00958 0.70032 0.0
O61 O 0.22828 0.99582 0.69662 0.0
C62 C 0.2945 0.01119 0.70493 0.0
C63 C 0.29163 0.99203 0.79767 0.0
O64 O 0.28518 0.9707 0.78712 0.0
O65 O 0.28117 0.0125 0.78842 0.0
O66 O 0.98464 0.28692 0.70185 0.0
Cd67 Cd 0.984 0.24878 0.72945 0.0
O68 O 0.02677 0.29596 0.71043 0.0
Cd69 Cd 0.02468 0.27705 0.74839 0.0
O70 O 0.01923 0.29379 0.78722 0.0
C71 C 0.00233 0.31197 0.78794 0.0
O72 O 0.98889 0.31746 0.76657 0.0
C73 C 0.00573 0.29967 0.69696 0.0
C74 C 0.98595 0.20577 0.69693 0.0
O75 O 0.96363 0.21648 0.70269 0.0
O76 O 0.00737 0.21501 0.707 0.0
O77 O 0.71128 0.01504 0.71352 0.0
Cd78 Cd 0.74031 0.01536 0.75199 0.0
O79 O 0.70618 0.97341 0.71573 0.0
Cd80 Cd 0.74547 0.97032 0.7339 0.0
O81 O 0.78414 0.97088 0.71402 0.0
C82 C 0.79339 0.99223 0.70635 0.0
O83 O 0.78085 0.01331 0.71301 0.0
C84 C 0.69914 0.99488 0.70634 0.0
C85 C 0.70731 0.01267 0.79596 0.0
O86 O 0.71311 0.03417 0.78537 0.0
O87 O 0.71774 0.99243 0.78622 0.0
O88 O 0.29329 0.2823 0.99445 0.0
Cd89 Cd 0.26368 0.24533 0.99794 0.0
O90 O 0.28512 0.29417 0.0349 0.0
Cd91 Cd 0.24766 0.27308 0.03692 0.0
O92 O 0.20841 0.2911 0.03469 0.0
C93 C 0.19998 0.29827 0.01242 0.0
O94 O 0.21364 0.29188 0.99147 0.0
C95 C 0.29848 0.29658 0.0139 0.0
C96 C 0.29584 0.20172 0.99944 0.0
O97 O 0.28584 0.2097 0.97784 0.0
O98 O 0.29001 0.21395 0.02037 0.0
O99 O 0.29337 0.71837 0.00532 0.0
Cd100 Cd 0.26394 0.75557 0.00375 0.0
O101 O 0.28568 0.70655 0.96477 0.0
Cd102 Cd 0.24862 0.72825 0.96253 0.0
O103 O 0.20932 0.71034 0.96458 0.0
C104 C 0.20104 0.70289 0.9868 0.0
O105 O 0.21489 0.70894 0.00775 0.0
C106 C 0.29873 0.70407 0.98594 0.0
C107 C 0.29653 0.7989 0.00339 0.0
O108 O 0.28935 0.78841 0.02491 0.0
O109 O 0.28766 0.78936 0.982 0.0
O110 O 0.70626 0.28332 0.00671 0.0
Cd111 Cd 0.73582 0.24631 0.00344 0.0
O112 O 0.71205 0.29344 0.96538 0.0
Cd113 Cd 0.74935 0.27201 0.96341 0.0
O114 O 0.78855 0.28886 0.97058 0.0
C115 C 0.78825 0.30582 0.98836 0.0
O116 O 0.76589 0.30963 0.00134 0.0
C117 C 0.6999 0.29677 0.98695 0.0
C118 C 0.70353 0.20291 0.00111 0.0
O119 O 0.71321 0.21066 0.02292 0.0
O120 O 0.70974 0.21527 0.98035 0.0
O121 O 0.70501 0.71801 0.9938 0.0
Cd122 Cd 0.73536 0.75457 0.99297 0.0
O123 O 0.71238 0.70873 0.03509 0.0
Cd124 Cd 0.74951 0.73049 0.03506 0.0
O125 O 0.7888 0.71389 0.02773 0.0
C126 C 0.78856 0.69677 0.01011 0.0
O127 O 0.76617 0.69269 0.99724 0.0
C128 C 0.69936 0.70506 0.01408 0.0
C129 C 0.70397 0.79867 0.99353 0.0
O130 O 0.70999 0.78754 0.97201 0.0
O131 O 0.71345 0.78937 0.01479 0.0
O132 O 0.50689 0.78154 0.79909 0.0
Cd133 Cd 0.50307 0.74451 0.7704 0.0
O134 O 0.46908 0.79833 0.78522 0.0
Cd135 Cd 0.46906 0.77691 0.74872 0.0
O136 O 0.47524 0.79221 0.7095 0.0
C137 C 0.49241 0.81013 0.7088 0.0
O138 O 0.50541 0.81583 0.73037 0.0
C139 C 0.48854 0.79826 0.80124 0.0
C140 C 0.50076 0.70135 0.80239 0.0
O141 O 0.52304 0.70888 0.79263 0.0
O142 O 0.47949 0.71375 0.79637 0.0
O143 O 0.20963 0.49359 0.78211 0.0
Cd144 Cd 0.24016 0.49521 0.74498 0.0
O145 O 0.21268 0.53502 0.78852 0.0
Cd146 Cd 0.25069 0.53657 0.76778 0.0
O147 O 0.28988 0.5294 0.78501 0.0
C148 C 0.28965 0.51175 0.80208 0.0
O149 O 0.26736 0.49887 0.80573 0.0
C150 C 0.20158 0.51372 0.79357 0.0
C151 C 0.20787 0.49792 0.70069 0.0
O152 O 0.21695 0.47643 0.70883 0.0
O153 O 0.21492 0.51819 0.71293 0.0
O154 O 0.49488 0.22112 0.8026 0.0
Cd155 Cd 0.49552 0.25687 0.7721 0.0
O156 O 0.52835 0.20171 0.78291 0.0
Cd157 Cd 0.52596 0.22497 0.74768 0.0
O158 O 0.51723 0.20822 0.70967 0.0
C159 C 0.5137 0.18428 0.71202 0.0
O160 O 0.51531 0.17409 0.73545 0.0
C161 C 0.51182 0.20304 0.80172 0.0
C162 C 0.49782 0.30096 0.80219 0.0
O163 O 0.47534 0.29236 0.79387 0.0
O164 O 0.51924 0.28918 0.79545 0.0
O165 O 0.7871 0.50851 0.78198 0.0
Cd166 Cd 0.75749 0.50614 0.74418 0.0
O167 O 0.78467 0.46707 0.78869 0.0
Cd168 Cd 0.74707 0.4648 0.76727 0.0
O169 O 0.70779 0.47162 0.7844 0.0
C170 C 0.70776 0.48958 0.80112 0.0
O171 O 0.72981 0.5029 0.80442 0.0
C172 C 0.79526 0.48859 0.7938 0.0
C173 C 0.79081 0.50422 0.7006 0.0
O174 O 0.78102 0.52549 0.70852 0.0
O175 O 0.78401 0.48379 0.7127 0.0
O176 O 0.51033 0.21552 0.2034 0.0
Cd177 Cd 0.50533 0.25298 0.23153 0.0
O178 O 0.46762 0.20628 0.20795 0.0
Cd179 Cd 0.46593 0.22326 0.2468 0.0
O180 O 0.46606 0.2047 0.28511 0.0
C181 C 0.4882 0.19858 0.29569 0.0
O182 O 0.51066 0.20586 0.28458 0.0
C183 C 0.4898 0.20299 0.19623 0.0
C184 C 0.50248 0.29639 0.19958 0.0
O185 O 0.52478 0.28919 0.20958 0.0
O186 O 0.48145 0.28344 0.20515 0.0
O187 O 0.78747 0.4923 0.21741 0.0
Cd188 Cd 0.7568 0.49365 0.25442 0.0
O189 O 0.78712 0.53414 0.21335 0.0
Cd190 Cd 0.74952 0.53676 0.23469 0.0
O191 O 0.70986 0.52997 0.21842 0.0
C192 C 0.70929 0.51159 0.2022 0.0
O193 O 0.73109 0.4979 0.19891 0.0
C194 C 0.7968 0.51252 0.20706 0.0
C195 C 0.78927 0.49652 0.29848 0.0
O196 O 0.78028 0.47498 0.29043 0.0
O197 O 0.78196 0.51677 0.28632 0.0
O198 O 0.49335 0.78383 0.20193 0.0
Cd199 Cd 0.49682 0.74702 0.23108 0.0
O200 O 0.53251 0.79904 0.21397 0.0
Cd201 Cd 0.53303 0.77728 0.25024 0.0
O202 O 0.52614 0.79219 0.28943 0.0
C203 C 0.5072 0.80839 0.29057 0.0
O204 O 0.49287 0.81258 0.26944 0.0
C205 C 0.51229 0.79979 0.19888 0.0
C206 C 0.49895 0.70316 0.20015 0.0
O207 O 0.47667 0.71107 0.20962 0.0
O208 O 0.52026 0.7156 0.20588 0.0
O209 O 0.21213 0.50621 0.2156 0.0
Cd210 Cd 0.24147 0.50324 0.25356 0.0
O211 O 0.21114 0.46442 0.21125 0.0
Cd212 Cd 0.24848 0.46021 0.23266 0.0
O213 O 0.2882 0.46229 0.21534 0.0
C214 C 0.29675 0.48411 0.20836 0.0
O215 O 0.28283 0.50452 0.21459 0.0
C216 C 0.20232 0.48636 0.20494 0.0
C217 C 0.20793 0.50159 0.29694 0.0
O218 O 0.21804 0.52276 0.28912 0.0
O219 O 0.21451 0.48111 0.28482 0.0
O220 O 0.7901 0.78525 0.4872 0.0
Cd221 Cd 0.76237 0.74682 0.48957 0.0
O222 O 0.7877 0.79008 0.52981 0.0
Cd223 Cd 0.74897 0.77091 0.53062 0.0
O224 O 0.70991 0.78892 0.52486 0.0
C225 C 0.71021 0.80699 0.50822 0.0
O226 O 0.73253 0.81151 0.49542 0.0
C227 C 0.79818 0.79608 0.50801 0.0
C228 C 0.79616 0.70425 0.49241 0.0
O229 O 0.78662 0.7118 0.47046 0.0
O230 O 0.78929 0.71647 0.51304 0.0
O231 O 0.79229 0.22022 0.51256 0.0
Cd232 Cd 0.76273 0.25735 0.51436 0.0
O233 O 0.78438 0.21246 0.47106 0.0
Cd234 Cd 0.7467 0.23338 0.47308 0.0
O235 O 0.70855 0.21431 0.48036 0.0
C236 C 0.71168 0.19023 0.48161 0.0
O237 O 0.7359 0.18086 0.47858 0.0
C238 C 0.79764 0.20795 0.49177 0.0
C239 C 0.79491 0.30088 0.51231 0.0
O240 O 0.78951 0.28996 0.53411 0.0
O241 O 0.78445 0.29163 0.49147 0.0
O242 O 0.20374 0.78465 0.50529 0.0
Cd243 Cd 0.23367 0.74794 0.50121 0.0
O244 O 0.20951 0.79549 0.46414 0.0
Cd245 Cd 0.24671 0.77415 0.46074 0.0
O246 O 0.28639 0.79129 0.46227 0.0
C247 C 0.29546 0.79803 0.48443 0.0
O248 O 0.2821 0.79169 0.50559 0.0
C249 C 0.19737 0.79842 0.48577 0.0
C250 C 0.20217 0.70397 0.49901 0.0
O251 O 0.21204 0.71172 0.52074 0.0
O252 O 0.20778 0.71663 0.47828 0.0
O253 O 0.20546 0.21664 0.48608 0.0
Cd254 Cd 0.23407 0.2545 0.48809 0.0
O255 O 0.20735 0.21238 0.52878 0.0
Cd256 Cd 0.24649 0.23079 0.52953 0.0
O257 O 0.28534 0.21246 0.52351 0.0
C258 C 0.28456 0.19401 0.50737 0.0
O259 O 0.26191 0.18926 0.49521 0.0
C260 C 0.19693 0.20629 0.50698 0.0
C261 C 0.20119 0.29765 0.49138 0.0
O262 O 0.21025 0.28996 0.4693 0.0
O263 O 0.20814 0.2853 0.51192 0.0
C264 C 0.99669 0.94053 0.56389 0.0
C265 C 0.99646 0.93947 0.43721 0.0
C266 C 0.99515 0.06442 0.56282 0.0
C267 C 0.99808 0.06341 0.43616 0.0
C268 C 0.93181 0.06406 0.49873 0.0
C269 C 0.93209 0.93975 0.50103 0.0
C270 C 0.06112 0.06417 0.50113 0.0
C271 C 0.06147 0.94005 0.50051 0.0
C272 C 0.06143 0.00142 0.4364 0.0
C273 C 0.93192 0.0018 0.4361 0.0
C274 C 0.0614 0.0026 0.5636 0.0
C275 C 0.9318 0.00183 0.56344 0.0
Eu276 Eu 0.99672 0.95393 0.50044 0.0
O277 O 0.97261 0.97906 0.47684 0.0
O278 O 0.02064 0.97961 0.52347 0.0
Eu279 Eu 0.94546 0.0019 0.49977 0.0
Eu280 Eu 0.04758 0.00208 0.49998 0.0
O281 O 0.97275 0.9797 0.52325 0.0
O282 O 0.0206 0.97923 0.47694 0.0
Eu283 Eu 0.99662 0.0024 0.5494 0.0
Eu284 Eu 0.99659 0.00153 0.45053 0.0
O285 O 0.97254 0.02467 0.52292 0.0
O286 O 0.97263 0.02439 0.4765 0.0
O287 O 0.02042 0.02443 0.47659 0.0
O288 O 0.02051 0.02485 0.52305 0.0
Eu289 Eu 0.99649 0.05006 0.49963 0.0
O290 O 0.99635 0.93269 0.53906 0.0
O291 O 0.99698 0.93199 0.46218 0.0
O292 O 0.99462 0.07188 0.53786 0.0
O293 O 0.99845 0.07123 0.461 0.0
O294 O 0.92321 0.03987 0.49928 0.0
O295 O 0.92338 0.96387 0.49968 0.0
O296 O 0.06975 0.04003 0.49988 0.0
O297 O 0.06989 0.96428 0.49978 0.0
O298 O 0.03591 0.00102 0.42863 0.0
O299 O 0.95745 0.00119 0.42847 0.0
O300 O 0.03589 0.00291 0.57134 0.0
O301 O 0.9573 0.00259 0.5712 0.0
O302 O 0.03558 0.07159 0.50162 0.0
O303 O 0.95736 0.07147 0.49854 0.0
O304 O 0.03597 0.9325 0.50112 0.0
O305 O 0.95765 0.93239 0.50161 0.0
O306 O 0.99606 0.96367 0.42896 0.0
O307 O 0.99683 0.03911 0.42828 0.0
O308 O 0.99707 0.96487 0.57173 0.0
O309 O 0.99642 0.04024 0.57107 0.0
O310 O 0.92329 0.00124 0.53865 0.0
O311 O 0.92333 0.00241 0.46086 0.0
O312 O 0.06977 0.00211 0.53877 0.0
O313 O 0.06977 0.00202 0.46123 0.0
C314 C 0.5005 0.93906 0.06298 0.0
C315 C 0.49952 0.06319 0.06167 0.0
C316 C 0.5006 0.93794 0.93655 0.0
C317 C 0.50099 0.06193 0.93547 0.0
C318 C 0.56617 0.00098 0.93651 0.0
C319 C 0.56498 1.00052 0.06322 0.0
C320 C 0.43602 1.00011 0.93526 0.0
C321 C 0.43482 0.00116 0.06176 0.0
C322 C 0.43508 0.06207 0.9987 0.0
C323 C 0.56501 0.06271 0.99908 0.0
C324 C 0.43581 0.93842 0.99949 0.0
C325 C 0.5657 0.93892 0.99944 0.0
Eu326 Eu 0.50008 0.00101 0.04885 0.0
O327 O 0.52398 0.02364 0.02254 0.0
O328 O 0.47662 0.97803 0.02247 0.0
Eu329 Eu 0.55115 1.00075 -0.00024 0.0
Eu330 Eu 0.44988 1.00032 0.99863 0.0
O331 O 0.52418 0.97815 0.02295 0.0
O332 O 0.47638 0.02322 0.022 0.0
Eu333 Eu 0.50071 0.95234 0.99964 0.0
Eu334 Eu 0.5001 0.04876 0.9987 0.0
O335 O 0.52464 0.97779 0.9763 0.0
O336 O 0.52424 0.02298 0.97603 0.0
O337 O 0.47672 0.02296 0.97525 0.0
O338 O 0.47705 0.97756 0.9758 0.0
Eu339 Eu 0.50098 1.0001 0.9495 0.0
O340 O 0.49994 0.96337 0.07094 0.0
O341 O 0.5005 0.03907 0.07022 0.0
O342 O 0.50102 0.96211 0.92816 0.0
O343 O 0.5023 0.03769 0.92746 0.0
O344 O 0.57405 1.00081 0.96146 0.0
O345 O 0.5733 0.00104 0.03843 0.0
O346 O 0.42778 1.00054 0.96007 0.0
O347 O 0.42705 1.00017 0.03682 0.0
O348 O 0.4605 0.06998 0.99908 0.0
O349 O 0.53949 0.07036 0.99821 0.0
O350 O 0.46132 0.93075 0.0005 0.0
O351 O 0.54026 0.93109 0.99894 0.0
O352 O 0.46152 0.99975 0.92732 0.0
O353 O 0.5408 1.00068 0.92819 0.0
O354 O 0.46017 0.00188 0.07016 0.0
O355 O 0.53945 1.00026 0.07105 0.0
O356 O 0.49907 0.07053 0.03672 0.0
O357 O 0.49932 0.06985 0.96017 0.0
O358 O 0.501 0.93126 0.03816 0.0
O359 O 0.50037 0.93055 0.96152 0.0
O360 O 0.57381 0.96322 0.00022 0.0
O361 O 0.57333 0.03849 2e-05 0.0
O362 O 0.42756 0.96264 0.99823 0.0
O363 O 0.42707 0.03775 0.99824 0.0
C364 C -0.00092 0.43806 0.06212 0.0
C365 C 0.99804 0.44016 0.93541 0.0
C366 C -0.00085 0.56197 0.06432 0.0
C367 C 0.99751 0.56427 0.93779 0.0
C368 C 0.93381 0.56328 0.00085 0.0
C369 C 0.93356 0.43908 0.99939 0.0
C370 C 0.06333 0.56307 0.00012 0.0
C371 C 0.06301 0.43878 0.99872 0.0
C372 C 0.06273 0.5023 0.93584 0.0
C373 C 0.93323 0.50143 0.93683 0.0
C374 C 0.06382 0.50017 0.06268 0.0
C375 C 0.93431 0.5008 0.06371 0.0
Eu376 Eu 0.99836 0.45286 0.99896 0.0
O377 O 0.97437 0.47888 0.97636 0.0
O378 O 0.02251 0.47801 0.02236 0.0
Eu379 Eu 0.94763 0.50115 0.00018 0.0
Eu380 Eu 0.04943 0.50096 0.99937 0.0
O381 O 0.97471 0.47804 0.02284 0.0
O382 O 0.02218 0.47876 0.97597 0.0
Eu383 Eu -0.00106 0.50025 0.04912 0.0
Eu384 Eu 0.99807 0.50197 0.95044 0.0
O385 O 0.97483 0.5234 0.0236 0.0
O386 O 0.97451 0.52421 0.97727 0.0
O387 O 0.02219 0.52412 0.97688 0.0
O388 O 0.02273 0.52333 0.02324 0.0
Eu389 Eu 0.9986 0.54933 0.00078 0.0
O390 O 0.99858 0.43064 0.03713 0.0
O391 O 0.9982 0.43199 0.96014 0.0
O392 O -0.00105 0.57019 0.03961 0.0
O393 O 0.99857 0.57152 0.96278 0.0
O394 O 0.92545 0.53903 0.00017 0.0
O395 O 0.92529 0.46335 0.00028 0.0
O396 O 0.07176 0.53885 0.99904 0.0
O397 O 0.07158 0.46296 0.99946 0.0
O398 O 0.03717 0.5024 0.9282 0.0
O399 O 0.95864 0.50218 0.92884 0.0
O400 O 0.0384 0.50033 0.07072 0.0
O401 O 0.95985 0.49981 0.07134 0.0
O402 O 0.03786 0.57068 0.00124 0.0
O403 O 0.95933 0.57083 0.00133 0.0
O404 O 0.03749 0.43129 0.9981 0.0
O405 O 0.95905 0.43146 0.99867 0.0
O406 O 0.9979 0.46462 0.92792 0.0
O407 O 0.99696 0.54014 0.9293 0.0
O408 O -0.0006 0.46227 0.07033 0.0
O409 O -0.0009 0.5375 0.07174 0.0
O410 O 0.92571 0.50166 0.039 0.0
O411 O 0.92503 0.50077 0.96168 0.0
O412 O 0.07202 0.50024 0.03783 0.0
O413 O 0.07134 0.50176 0.96056 0.0
C414 C 0.49925 0.43833 0.06571 0.0
C415 C 0.49956 0.56216 0.06595 0.0
C416 C 0.49938 0.43902 0.93897 0.0
C417 C 0.49901 0.56251 0.93925 0.0
C418 C 0.56385 0.50045 0.93875 0.0
C419 C 0.56418 0.50071 0.06593 0.0
C420 C 0.43435 0.50078 0.93906 0.0
C421 C 0.43481 0.49962 0.06622 0.0
C422 C 0.43426 0.56226 0.00255 0.0
C423 C 0.56373 0.56281 0.00283 0.0
C424 C 0.43481 0.43811 0.00201 0.0
C425 C 0.56426 0.43861 0.0021 0.0
Eu426 Eu 0.49942 0.50032 0.05179 0.0
O427 O 0.52313 0.5231 0.0256 0.0
O428 O 0.47552 0.47764 0.02567 0.0
Eu429 Eu 0.55027 0.50065 0.00239 0.0
Eu430 Eu 0.44828 0.50023 0.00264 0.0
O431 O 0.52343 0.47777 0.02559 0.0
O432 O 0.47524 0.52301 0.02581 0.0
Eu433 Eu 0.49947 0.45227 0.00239 0.0
Eu434 Eu 0.49906 0.54865 0.00259 0.0
O435 O 0.52318 0.47803 0.97925 0.0
O436 O 0.52312 0.52335 0.97927 0.0
O437 O 0.47518 0.52307 0.97947 0.0
O438 O 0.47539 0.4778 0.9793 0.0
Eu439 Eu 0.49914 0.50069 0.95322 0.0
O440 O 0.49994 0.4626 0.07374 0.0
O441 O 0.49903 0.53786 0.07388 0.0
O442 O 0.49844 0.46331 0.93116 0.0
O443 O 0.49974 0.53825 0.93129 0.0
O444 O 0.57233 0.50099 0.96354 0.0
O445 O 0.57253 0.50035 0.04111 0.0
O446 O 0.42601 0.50016 0.96389 0.0
O447 O 0.4262 0.49928 0.04147 0.0
O448 O 0.45974 0.56989 0.00303 0.0
O449 O 0.53817 0.57022 0.00222 0.0
O450 O 0.46036 0.43066 0.00158 0.0
O451 O 0.53878 0.43099 0.00284 0.0
O452 O 0.45986 0.50123 0.93131 0.0
O453 O 0.53829 0.50009 0.93113 0.0
O454 O 0.46032 0.50029 0.07389 0.0
O455 O 0.53868 0.50088 0.07369 0.0
O456 O 0.49989 0.56998 0.04111 0.0
O457 O 0.49831 0.57025 0.96411 0.0
O458 O 0.49869 0.43068 0.04082 0.0
O459 O 0.50031 0.43106 0.96376 0.0
O460 O 0.57264 0.46285 0.00155 0.0
O461 O 0.57233 0.53862 0.00321 0.0
O462 O 0.42624 0.46229 0.00262 0.0
O463 O 0.42587 0.53801 0.00225 0.0
C464 C 0.00115 0.44001 0.56251 0.0
C465 C 0.9971 0.43888 0.4362 0.0
C466 C -0.00095 0.56412 0.56126 0.0
C467 C 0.00043 0.563 0.43498 0.0
C468 C 0.9347 0.56371 0.49754 0.0
C469 C 0.93412 0.44003 0.50135 0.0
C470 C 0.06458 0.56297 0.49846 0.0
C471 C 0.0639 0.43918 0.49771 0.0
C472 C 0.06411 0.50128 0.43519 0.0
C473 C 0.93386 0.50058 0.43582 0.0
C474 C 0.06481 0.50112 0.56166 0.0
C475 C 0.93454 0.50271 0.56221 0.0
Eu476 Eu -0.00091 0.45333 0.49925 0.0
O477 O 0.97538 0.47879 0.47571 0.0
O478 O 0.02308 0.47897 0.52222 0.0
Eu479 Eu 0.94879 0.50176 0.49891 0.0
Eu480 Eu 0.0499 0.50117 0.49849 0.0
O481 O 0.97557 0.4792 0.52247 0.0
O482 O 0.02287 0.47847 0.4754 0.0
Eu483 Eu -0.00038 0.50193 0.54854 0.0
Eu484 Eu -0.00095 0.50104 0.44891 0.0
O485 O 0.97586 0.52441 0.52196 0.0
O486 O 0.97553 0.52413 0.47514 0.0
O487 O 0.02298 0.5237 0.47511 0.0
O488 O 0.02337 0.52425 0.52179 0.0
Eu489 Eu -0.00044 0.54965 0.49826 0.0
O490 O 0.00142 0.43223 0.53769 0.0
O491 O 0.99662 0.43153 0.46118 0.0
O492 O -0.00135 0.57146 0.5363 0.0
O493 O 0.00087 0.57075 0.4598 0.0
O494 O 0.92642 0.53946 0.49754 0.0
O495 O 0.92605 0.46431 0.49995 0.0
O496 O 0.07264 0.53866 0.49899 0.0
O497 O 0.07222 0.46342 0.49742 0.0
O498 O 0.03867 0.50046 0.42707 0.0
O499 O 0.9592 0.50123 0.42742 0.0
O500 O 0.03946 0.50224 0.56999 0.0
O501 O 0.95998 0.50188 0.57036 0.0
O502 O 0.03914 0.57085 0.49807 0.0
O503 O 0.96022 0.57135 0.49789 0.0
O504 O 0.03837 0.43158 0.49839 0.0
O505 O 0.95956 0.43216 0.50175 0.0
O506 O 0.9986 0.46296 0.42765 0.0
O507 O -0.00075 0.53876 0.42685 0.0
O508 O -0.00012 0.46424 0.5706 0.0
O509 O -0.00012 0.54001 0.56984 0.0
O510 O 0.92649 0.50315 0.53734 0.0
O511 O 0.92608 0.50036 0.46076 0.0
O512 O 0.07261 0.5002 0.53673 0.0
O513 O 0.07217 0.50199 0.46005 0.0
C514 C 0.49718 0.93829 0.56173 0.0
C515 C 0.49884 0.93865 0.43523 0.0
C516 C 0.49546 0.06202 0.5617 0.0
C517 C 0.49641 0.06275 0.43536 0.0
C518 C 0.43174 0.06193 0.4981 0.0
C519 C 0.43335 0.9376 0.4976 0.0
C520 C 0.56151 0.06293 0.49962 0.0
C521 C 0.56285 0.93891 0.49941 0.0
C522 C 0.56269 0.00253 0.43585 0.0
C523 C 0.43325 0.99894 0.43417 0.0
C524 C 0.56098 1.00037 0.56284 0.0
C525 C 0.43162 1.00012 0.56102 0.0
Eu526 Eu 0.49787 0.95219 0.49849 0.0
O527 O 0.47403 0.97766 0.47503 0.0
O528 O 0.52115 0.97786 0.522 0.0
Eu529 Eu 0.4463 0.99989 0.49776 0.0
Eu530 Eu 0.54809 1.00084 0.49916 0.0
O531 O 0.4731 0.97732 0.52134 0.0
O532 O 0.52164 0.97808 0.47547 0.0
Eu533 Eu 0.49649 1.00017 0.54767 0.0
Eu534 Eu 0.49777 1.0007 0.44912 0.0
O535 O 0.47292 0.02273 0.52117 0.0
O536 O 0.47329 0.02309 0.475 0.0
O537 O 0.5212 0.02341 0.47564 0.0
O538 O 0.52054 0.02325 0.52201 0.0
Eu539 Eu 0.49682 0.04877 0.49852 0.0
O540 O 0.49771 0.93053 0.53689 0.0
O541 O 0.49856 0.93087 0.46006 0.0
O542 O 0.49675 0.07008 0.53699 0.0
O543 O 0.49703 0.07038 0.46023 0.0
O544 O 0.42372 0.03757 0.49743 0.0
O545 O 0.42456 0.96172 0.49708 0.0
O546 O 0.56993 0.03873 0.50038 0.0
O547 O 0.57085 0.96328 0.49932 0.0
O548 O 0.53728 0.00252 0.42777 0.0
O549 O 0.45882 0.99975 0.42668 0.0
O550 O 0.53536 1.0001 0.57023 0.0
O551 O 0.45701 0.99959 0.56909 0.0
O552 O 0.53602 0.07056 0.49843 0.0
O553 O 0.45718 0.06981 0.49865 0.0
O554 O 0.53742 0.93104 0.49916 0.0
O555 O 0.45892 0.9303 0.49838 0.0
O556 O 0.49874 0.96298 0.42727 0.0
O557 O 0.49618 0.03849 0.42725 0.0
O558 O 0.49663 0.9626 0.56958 0.0
O559 O 0.49489 0.0377 0.56952 0.0
O560 O 0.42347 1.00047 0.53614 0.0
O561 O 0.42453 0.99884 0.45885 0.0
O562 O 0.56979 1.00086 0.53818 0.0
O563 O 0.57085 0.00159 0.46072 0.0
H564 H 0.18118 0.17853 0.46448 0.0
H565 H 0.1663 0.18821 0.54711 0.0
H566 H 0.14874 0.14354 0.46328 0.0
H567 H 0.13369 0.15343 0.54573 0.0
H568 H 0.0552 0.11164 0.52199 0.0
H569 H 0.08798 0.14612 0.52326 0.0
H570 H 0.14553 0.09797 0.48406 0.0
H571 H 0.11272 0.06316 0.48289 0.0
C572 C 0.17083 0.17334 0.48232 0.0
C573 C 0.17623 0.18615 0.50589 0.0
C574 C 0.15247 0.1532 0.48165 0.0
C575 C 0.13885 0.1458 0.50443 0.0
C576 C 0.14389 0.15886 0.52788 0.0
C577 C 0.16255 0.17872 0.52866 0.0
C578 C 0.07483 0.10836 0.51361 0.0
C579 C 0.08139 0.0847 0.50228 0.0
C580 C 0.09361 0.12806 0.51449 0.0
C581 C 0.1192 0.12467 0.50372 0.0
C582 C 0.12582 0.10107 0.49233 0.0
C583 C 0.10715 0.08115 0.49183 0.0
H584 H 0.83359 0.19726 0.53047 0.0
H585 H 0.80731 0.17181 0.45428 0.0
H586 H 0.86532 0.16192 0.53241 0.0
H587 H 0.83926 0.13649 0.45625 0.0
H588 H 0.87888 0.06106 0.48439 0.0
H589 H 0.84636 0.09604 0.48241 0.0
H590 H 0.9069 0.14867 0.50948 0.0
H591 H 0.93917 0.114 0.51175 0.0
C592 C 0.83469 0.18423 0.51407 0.0
C593 C 0.81798 0.1874 0.49219 0.0
C594 C 0.8529 0.16402 0.51517 0.0
C595 C 0.85469 0.14642 0.49451 0.0
C596 C 0.83808 0.14961 0.47257 0.0
C597 C 0.81999 0.16997 0.47136 0.0
C598 C 0.88516 0.08007 0.49008 0.0
C599 C 0.91161 0.08473 0.49819 0.0
C600 C 0.86662 0.1001 0.48873 0.0
C601 C 0.87414 0.12506 0.49578 0.0
C602 C 0.90048 0.12961 0.50415 0.0
C603 C 0.919 0.10972 0.50527 0.0
H604 H 0.81384 0.8235 0.46521 0.0
H605 H 0.82791 0.81537 0.54817 0.0
H606 H 0.84564 0.85902 0.46377 0.0
H607 H 0.85988 0.85068 0.54656 0.0
H608 H 0.93816 0.89276 0.52289 0.0
H609 H 0.90569 0.85805 0.52447 0.0
H610 H 0.84812 0.90502 0.48374 0.0
H611 H 0.88064 0.94011 0.48227 0.0
C612 C 0.82386 0.82916 0.48307 0.0
C613 C 0.81845 0.81661 0.5068 0.0
C614 C 0.84185 0.8496 0.48226 0.0
C615 C 0.85507 0.85757 0.50506 0.0
C616 C 0.84998 0.8448 0.52869 0.0
C617 C 0.83169 0.82465 0.5296 0.0
C618 C 0.91859 0.89574 0.51423 0.0
C619 C 0.91195 0.91914 0.50236 0.0
C620 C 0.89999 0.8759 0.5153 0.0
C621 C 0.87449 0.87889 0.50419 0.0
C622 C 0.86776 0.90224 0.49229 0.0
C623 C 0.88627 0.92231 0.4916 0.0
H624 H 0.16363 0.80713 0.52702 0.0
H625 H 0.18514 0.83587 0.4506 0.0
H626 H 0.1313 0.84188 0.53187 0.0
H627 H 0.15285 0.87043 0.45551 0.0
H628 H 0.11421 0.94394 0.48623 0.0
H629 H 0.14719 0.90958 0.48355 0.0
H630 H 0.08804 0.85568 0.51093 0.0
H631 H 0.0551 0.88988 0.51382 0.0
C632 C 0.1614 0.82077 0.51124 0.0
C633 C 0.17692 0.81871 0.48842 0.0
C634 C 0.14287 0.84061 0.514 0.0
C635 C 0.13971 0.85891 0.49412 0.0
C636 C 0.15514 0.85679 0.47129 0.0
C637 C 0.17346 0.83685 0.46841 0.0
C638 C 0.10828 0.92481 0.49189 0.0
C639 C 0.08198 0.91965 0.50012 0.0
C640 C 0.12712 0.90513 0.49018 0.0
C641 C 0.12011 0.87997 0.49693 0.0
C642 C 0.09403 0.87492 0.50577 0.0
C643 C 0.07513 0.89452 0.50724 0.0
H644 H 0.44918 0.18297 0.16713 0.0
H645 H 0.53487 0.17892 0.17855 0.0
H646 H 0.45205 0.14916 0.13434 0.0
H647 H 0.53756 0.14474 0.14598 0.0
H648 H 0.51963 0.0627 0.11146 0.0
H649 H 0.51805 0.09742 0.14359 0.0
H650 H 0.47506 0.1445 0.08842 0.0
H651 H 0.47688 0.11014 0.05624 0.0
C652 C 0.46862 0.17491 0.16258 0.0
C653 C 0.49181 0.18361 0.17536 0.0
C654 C 0.47024 0.15563 0.14381 0.0
C655 C 0.495 0.14436 0.13781 0.0
C656 C 0.51822 0.15306 0.15047 0.0
C657 C 0.51668 0.17271 0.16891 0.0
C658 C 0.50984 0.08046 0.10625 0.0
C659 C 0.49844 0.08375 0.08136 0.0
C660 C 0.5091 0.10032 0.12452 0.0
C661 C 0.49647 0.12355 0.11836 0.0
C662 C 0.48484 0.12672 0.09361 0.0
C663 C 0.48602 0.10711 0.07521 0.0
H664 H 0.81301 0.54983 0.17329 0.0
H665 H 0.82788 0.47123 0.19491 0.0
H666 H 0.84615 0.54633 0.1384 0.0
H667 H 0.86111 0.46788 0.16003 0.0
H668 H 0.93971 0.48486 0.11426 0.0
H669 H 0.90666 0.4876 0.14926 0.0
H670 H 0.84986 0.52113 0.09561 0.0
H671 H 0.88286 0.51844 0.06046 0.0
C672 C 0.82346 0.53187 0.17071 0.0
C673 C 0.81784 0.5108 0.18685 0.0
C674 C 0.84226 0.52984 0.15063 0.0
C675 C 0.85604 0.50681 0.1465 0.0
C676 C 0.85082 0.48588 0.16291 0.0
C677 C 0.83177 0.4878 0.1828 0.0
C678 C 0.92017 0.49279 0.10988 0.0
C679 C 0.9139 0.50148 0.08459 0.0
C680 C 0.90124 0.49421 0.1299 0.0
C681 C 0.87581 0.50465 0.12511 0.0
C682 C 0.86945 0.51321 0.09983 0.0
C683 C 0.88826 0.51148 0.0797 0.0
H684 H 0.4738 0.80535 0.16117 0.0
H685 H 0.54636 0.83987 0.19086 0.0
H686 H 0.46998 0.83941 0.12879 0.0
H687 H 0.54261 0.87371 0.15833 0.0
H688 H 0.51086 0.94432 0.11534 0.0
H689 H 0.51306 0.91061 0.14825 0.0
H690 H 0.49395 0.85442 0.08934 0.0
H691 H 0.49133 0.88797 0.05652 0.0
C692 C 0.48899 0.82011 0.16073 0.0
C693 C 0.5104 0.81986 0.17858 0.0
C694 C 0.48683 0.83957 0.14213 0.0
C695 C 0.50595 0.85926 0.1411 0.0
C696 C 0.52738 0.85898 0.15889 0.0
C697 C 0.52963 0.83946 0.17737 0.0
C698 C 0.50694 0.92481 0.10942 0.0
C699 C 0.50099 0.91888 0.08326 0.0
C700 C 0.5084 0.90549 0.12824 0.0
C701 C 0.50375 0.87988 0.12133 0.0
C702 C 0.49739 0.874 0.09529 0.0
C703 C 0.4961 0.89326 0.07645 0.0
H704 H 0.18562 0.44977 0.17068 0.0
H705 H 0.1723 0.52845 0.19286 0.0
H706 H 0.1525 0.4541 0.13587 0.0
H707 H 0.13901 0.53262 0.15804 0.0
H708 H 0.05926 0.51601 0.11327 0.0
H709 H 0.09292 0.51319 0.14777 0.0
H710 H 0.14878 0.47977 0.0932 0.0
H711 H 0.11518 0.48259 0.05855 0.0
C712 C 0.17554 0.46794 0.16822 0.0
C713 C 0.18155 0.48878 0.18452 0.0
C714 C 0.15675 0.47044 0.14818 0.0
C715 C 0.14335 0.49371 0.14426 0.0
C716 C 0.14903 0.51445 0.16076 0.0
C717 C 0.1681 0.51206 0.1806 0.0
C718 C 0.07874 0.50811 0.1086 0.0
C719 C 0.08458 0.49946 0.08321 0.0
C720 C 0.09802 0.50665 0.12831 0.0
C721 C 0.12335 0.49621 0.12311 0.0
C722 C 0.12929 0.48773 0.09771 0.0
C723 C 0.11014 0.48951 0.07788 0.0
H724 H 0.45495 0.83882 0.80863 0.0
H725 H 0.52614 0.803 0.83992 0.0
H726 H 0.45851 0.87249 0.84128 0.0
H727 H 0.52982 0.83694 0.87241 0.0
H728 H 0.50864 0.8867 0.94379 0.0
H729 H 0.50574 0.85285 0.91134 0.0
H730 H 0.4884 0.90877 0.85157 0.0
H731 H 0.49084 0.94274 0.88405 0.0
C732 C 0.47134 0.83809 0.82249 0.0
C733 C 0.49026 0.8182 0.82167 0.0
C734 C 0.47348 0.8575 0.84107 0.0
C735 C 0.49451 0.85742 0.85931 0.0
C736 C 0.51327 0.8374 0.85872 0.0
C737 C 0.5112 0.81801 0.84005 0.0
C738 C 0.5042 0.89186 0.92375 0.0
C739 C 0.49988 0.91749 0.91658 0.0
C740 C 0.50273 0.87242 0.90512 0.0
C741 C 0.49678 0.87814 0.87894 0.0
C742 C 0.49271 0.90376 0.87168 0.0
C743 C 0.49432 0.92323 0.89028 0.0
H744 H 0.16828 0.47352 0.80389 0.0
H745 H 0.18708 0.55038 0.82879 0.0
H746 H 0.13465 0.4704 0.83842 0.0
H747 H 0.15351 0.54712 0.86329 0.0
H748 H 0.11474 0.51819 0.93984 0.0
H749 H 0.148 0.5209 0.90494 0.0
H750 H 0.0902 0.4914 0.8499 0.0
H751 H 0.05689 0.48862 0.88467 0.0
C752 C 0.16517 0.48977 0.81665 0.0
C753 C 0.18033 0.5122 0.81361 0.0
C754 C 0.14588 0.48799 0.83633 0.0
C755 C 0.14161 0.50848 0.85355 0.0
C756 C 0.15663 0.53095 0.85043 0.0
C757 C 0.17569 0.53286 0.83057 0.0
C758 C 0.10917 0.51214 0.92033 0.0
C759 C 0.08318 0.50322 0.915 0.0
C760 C 0.12814 0.51388 0.90035 0.0
C761 C 0.1216 0.50642 0.87476 0.0
C762 C 0.09578 0.49713 0.8695 0.0
C763 C 0.0767 0.49569 0.88939 0.0
H764 H 0.49849 0.20718 0.85321 0.0
H765 H 0.52355 0.15294 0.79465 0.0
H766 H 0.49687 0.17316 0.88566 0.0
H767 H 0.51991 0.11849 0.82625 0.0
H768 H 0.53378 0.06392 0.89323 0.0
H769 H 0.53791 0.0985 0.86166 0.0
H770 H 0.47321 0.13874 0.90025 0.0
H771 H 0.4709 0.10497 0.93288 0.0
C772 C 0.50342 0.18787 0.8473 0.0
C773 C 0.51128 0.18265 0.82155 0.0
C774 C 0.50223 0.16824 0.8658 0.0
C775 C 0.50809 0.14281 0.85873 0.0
C776 C 0.51584 0.13776 0.83277 0.0
C777 C 0.51777 0.1575 0.81452 0.0
C778 C 0.52047 0.0802 0.89477 0.0
C779 C 0.50205 0.08192 0.91535 0.0
C780 C 0.52267 0.10003 0.87661 0.0
C781 C 0.50591 0.12167 0.87821 0.0
C782 C 0.487 0.12287 0.89862 0.0
C783 C 0.4854 0.10339 0.9172 0.0
H784 H 0.81019 0.4522 0.82921 0.0
H785 H 0.82709 0.52965 0.80487 0.0
H786 H 0.84319 0.45616 0.86417 0.0
H787 H 0.86011 0.5335 0.83988 0.0
H788 H 0.93825 0.51664 0.88605 0.0
H789 H 0.90489 0.51375 0.85138 0.0
H790 H 0.84809 0.4819 0.90604 0.0
H791 H 0.88147 0.48466 0.94087 0.0
C792 C 0.82102 0.47002 0.83123 0.0
C793 C 0.81605 0.49061 0.81425 0.0
C794 C 0.83974 0.47233 0.85137 0.0
C795 C 0.85407 0.49517 0.85476 0.0
C796 C 0.84941 0.51564 0.83759 0.0
C797 C 0.83048 0.51344 0.81762 0.0
C798 C 0.91864 0.50905 0.89073 0.0
C799 C 0.91252 0.5008 0.9162 0.0
C800 C 0.89952 0.50755 0.87089 0.0
C801 C 0.87399 0.49753 0.87604 0.0
C802 C 0.86774 0.48949 0.90153 0.0
C803 C 0.88677 0.49126 0.92148 0.0
H804 H 0.68855 0.66815 0.05045 0.0
H805 H 0.66386 0.69587 0.97454 0.0
H806 H 0.65611 0.6334 0.04716 0.0
H807 H 0.63156 0.66107 0.9713 0.0
H808 H 0.55672 0.61311 0.99053 0.0
H809 H 0.58932 0.64751 0.9935 0.0
H810 H 0.64933 0.59385 0.0197 0.0
H811 H 0.61661 0.55922 0.01697 0.0
C812 C 0.67612 0.66693 0.03314 0.0
C813 C 0.67875 0.68481 0.01277 0.0
C814 C 0.65773 0.6469 0.03117 0.0
C815 C 0.64142 0.6445 0.00893 0.0
C816 C 0.64376 0.66256 0.98875 0.0
C817 C 0.66231 0.68245 0.99059 0.0
C818 C 0.57686 0.60855 0.99692 0.0
C819 C 0.58404 0.58338 0.00357 0.0
C820 C 0.59556 0.62828 0.99845 0.0
C821 C 0.62182 0.62335 0.00687 0.0
C822 C 0.62912 0.59821 0.01339 0.0
C823 C 0.61045 0.57837 0.01162 0.0
H824 H 0.30973 0.66571 0.95134 0.0
H825 H 0.33354 0.69611 0.02641 0.0
H826 H 0.34196 0.63103 0.95639 0.0
H827 H 0.36564 0.6613 0.03142 0.0
H828 H 0.44083 0.61275 0.01426 0.0
H829 H 0.40806 0.64692 0.0104 0.0
H830 H 0.3485 0.5925 0.98501 0.0
H831 H 0.3814 0.5581 0.98858 0.0
C832 C 0.32189 0.66506 0.96887 0.0
C833 C 0.31911 0.68371 0.98846 0.0
C834 C 0.34017 0.64507 0.97184 0.0
C835 C 0.35619 0.64342 0.99434 0.0
C836 C 0.35365 0.6622 0.01379 0.0
C837 C 0.33523 0.6821 0.01093 0.0
C838 C 0.42074 0.60797 0.00791 0.0
C839 C 0.41376 0.58266 0.00165 0.0
C840 C 0.40194 0.62757 0.00586 0.0
C841 C 0.37578 0.62237 0.99735 0.0
C842 C 0.36863 0.59706 0.99137 0.0
C843 C 0.38741 0.57736 0.99363 0.0
H844 H 0.33393 0.30483 0.97393 0.0
H845 H 0.30931 0.33435 0.0491 0.0
H846 H 0.36646 0.33948 0.96995 0.0
H847 H 0.34186 0.36879 0.04509 0.0
H848 H 0.38174 0.44197 0.01511 0.0
H849 H 0.34876 0.40761 0.01722 0.0
H850 H 0.40876 0.35356 0.99194 0.0
H851 H 0.44169 0.38777 0.98955 0.0
C852 C 0.33552 0.31862 0.98963 0.0
C853 C 0.31905 0.31682 0.01184 0.0
C854 C 0.35418 0.3384 0.98737 0.0
C855 C 0.35656 0.35688 0.00716 0.0
C856 C 0.3402 0.35501 0.02939 0.0
C857 C 0.32172 0.33514 0.03175 0.0
C858 C 0.38786 0.42281 0.0098 0.0
C859 C 0.41438 0.41763 0.00224 0.0
C860 C 0.36902 0.40312 0.01119 0.0
C861 C 0.37625 0.37792 0.00483 0.0
C862 C 0.40258 0.37283 0.99677 0.0
C863 C 0.42147 0.39244 0.99559 0.0
H864 H 0.68753 0.33382 0.95129 0.0
H865 H 0.66643 0.30603 0.02818 0.0
H866 H 0.65529 0.36852 0.95599 0.0
H867 H 0.63424 0.34085 0.03282 0.0
H868 H 0.5581 0.38848 0.01554 0.0
H869 H 0.59093 0.35427 0.01216 0.0
H870 H 0.64965 0.40804 0.98362 0.0
H871 H 0.61671 0.44245 0.98678 0.0
C872 C 0.67595 0.33504 0.96915 0.0
C873 C 0.6795 0.31712 0.98935 0.0
C874 C 0.65767 0.35505 0.9719 0.0
C875 C 0.64238 0.35743 0.99481 0.0
C876 C 0.64566 0.33937 0.01488 0.0
C877 C 0.66413 0.31948 0.01224 0.0
C878 C 0.57801 0.3931 0.00859 0.0
C879 C 0.58476 0.41822 0.00134 0.0
C880 C 0.59685 0.37349 0.00682 0.0
C881 C 0.62278 0.3785 0.99757 0.0
C882 C 0.62969 0.40363 0.99058 0.0
C883 C 0.6109 0.42334 0.99259 0.0
H884 H 0.94926 0.68211 0.66896 0.0
H885 H 0.03552 0.68146 0.67613 0.0
H886 H 0.95188 0.64836 0.63605 0.0
H887 H 0.03798 0.64726 0.64351 0.0
H888 H 0.0207 0.56408 0.61039 0.0
H889 H 0.0194 0.59883 0.64254 0.0
H890 H 0.97363 0.64495 0.58868 0.0
H891 H 0.97525 0.61059 0.55643 0.0
C892 C 0.96876 0.6748 0.66346 0.0
C893 C 0.9922 0.68443 0.67506 0.0
C894 C 0.97023 0.65556 0.64463 0.0
C895 C 0.99511 0.64524 0.63743 0.0
C896 C 0.01857 0.65485 0.64893 0.0
C897 C 0.01715 0.6745 0.6674 0.0
C898 C 0.01036 0.58164 0.60548 0.0
C899 C 0.99811 0.58468 0.58095 0.0
C900 C 0.00978 0.60151 0.62375 0.0
C901 C 0.99645 0.62446 0.61795 0.0
C902 C 0.98397 0.62738 0.59357 0.0
C903 C 0.98501 0.60777 0.57513 0.0
H904 H 0.30843 0.04822 0.66973 0.0
H905 H 0.32663 0.9707 0.69293 0.0
H906 H 0.34113 0.04502 0.63434 0.0
H907 H 0.35925 0.96761 0.6576 0.0
H908 H 0.43684 0.98523 0.61183 0.0
H909 H 0.40363 0.98809 0.64654 0.0
H910 H 0.34645 0.0196 0.59198 0.0
H911 H 0.37977 0.01684 0.55702 0.0
C912 C 0.31947 0.03056 0.66736 0.0
C913 C 0.31499 0.00973 0.68415 0.0
C914 C 0.33801 0.02868 0.64699 0.0
C915 C 0.35262 0.00605 0.64324 0.0
C916 C 0.34836 0.98533 0.66018 0.0
C917 C 0.32964 0.9871 0.68035 0.0
C918 C 0.41719 0.99274 0.60716 0.0
C919 C 0.41093 1.00082 0.58166 0.0
C920 C 0.39815 0.99424 0.62703 0.0
C921 C 0.37253 0.0041 0.62192 0.0
C922 C 0.36616 0.01211 0.59644 0.0
C923 C 0.38514 0.01032 0.57643 0.0
H924 H 0.96212 0.32396 0.67659 0.0
H925 H 0.0485 0.32092 0.67171 0.0
H926 H 0.96158 0.35863 0.64452 0.0
H927 H 0.04778 0.35529 0.63923 0.0
H928 H 0.02579 0.39382 0.55862 0.0
H929 H 0.02736 0.3598 0.59133 0.0
H930 H 0.98091 0.40629 0.64421 0.0
H931 H 0.97967 0.44066 0.61163 0.0
C932 C 0.98096 0.33054 0.66851 0.0
C933 C 0.00536 0.31971 0.67662 0.0
C934 C 0.98062 0.35047 0.65035 0.0
C935 C 0.00463 0.35959 0.63958 0.0
C936 C 0.02901 0.3485 0.64727 0.0
C937 C 0.0294 0.32891 0.66584 0.0
C938 C 0.01594 0.39681 0.57724 0.0
C939 C 0.00255 0.41984 0.58261 0.0
C940 C 0.01699 0.37741 0.59595 0.0
C941 C 0.00421 0.3805 0.62016 0.0
C942 C 0.99079 0.40349 0.62558 0.0
C943 C 0.99022 0.42314 0.60705 0.0
H944 H 0.68696 0.03515 0.67451 0.0
H945 H 0.66373 0.95751 0.69232 0.0
H946 H 0.65351 0.03661 0.63969 0.0
H947 H 0.63025 0.9591 0.65754 0.0
H948 H 0.55411 0.98411 0.61304 0.0
H949 H 0.58716 0.98322 0.64809 0.0
H950 H 0.6466 0.01434 0.59571 0.0
H951 H 0.61351 0.01531 0.56045 0.0
C952 C 0.67461 0.01846 0.67112 0.0
C953 C 0.67797 0.99621 0.68618 0.0
C954 C 0.65563 0.01926 0.65107 0.0
C955 C 0.6394 0.99795 0.64591 0.0
C956 C 0.64241 0.97586 0.66123 0.0
C957 C 0.66162 0.97493 0.68107 0.0
C958 C 0.57419 0.99086 0.60896 0.0
C959 C 0.58119 0.99982 0.58395 0.0
C960 C 0.59313 0.99018 0.62901 0.0
C961 C 0.61939 0.99871 0.62458 0.0
C962 C 0.62641 0.00783 0.59966 0.0
C963 C 0.60753 0.00821 0.57947 0.0
H964 H 0.03474 0.32158 0.32282 0.0
H965 H 0.94828 0.32059 0.327 0.0
H966 H 0.03591 0.35601 0.35511 0.0
H967 H 0.94962 0.35468 0.35975 0.0
H968 H 0.97218 0.39282 0.44057 0.0
H969 H 0.97023 0.3586 0.40808 0.0
H970 H 0.01727 0.40426 0.35492 0.0
H971 H 0.01885 0.43881 0.38721 0.0
C972 C 0.01602 0.32854 0.33081 0.0
C973 C 0.99141 0.31839 0.32241 0.0
C974 C 0.01672 0.34833 0.34911 0.0
C975 C 0.99286 0.35795 0.35975 0.0
C976 C 0.96827 0.34749 0.35181 0.0
C977 C 0.96753 0.32806 0.33309 0.0
C978 C 0.98209 0.39556 0.42194 0.0
C979 C 0.9957 0.41844 0.41639 0.0
C980 C 0.98084 0.37606 0.40336 0.0
C981 C 0.99365 0.37887 0.37913 0.0
C982 C 0.00736 0.40166 0.37357 0.0
C983 C 0.00812 0.42142 0.39194 0.0
H984 H 0.68966 0.96888 0.32556 0.0
H985 H 0.66667 0.04652 0.30739 0.0
H986 H 0.65652 0.96782 0.36064 0.0
H987 H 0.6335 0.04533 0.34245 0.0
H988 H 0.55672 0.01966 0.38586 0.0
H989 H 0.59038 0.02122 0.35146 0.0
H990 H 0.6492 0.99012 0.40458 0.0
H991 H 0.61547 0.98848 0.43923 0.0
C992 C 0.67746 0.98567 0.32897 0.0
C993 C 0.68073 0.00777 0.31367 0.0
C994 C 0.65867 0.98511 0.34918 0.0
C995 C 0.64255 0.00651 0.35426 0.0
C996 C 0.64559 0.02852 0.33882 0.0
C997 C 0.66461 0.0292 0.31881 0.0
C998 C 0.57681 0.0131 0.39026 0.0
C999 C 0.58341 0.00386 0.41527 0.0
C1000 C 0.5961 0.01418 0.37059 0.0
C1001 C 0.62234 0.00578 0.37539 0.0
C1002 C 0.62903 0.99654 0.40035 0.0
C1003 C 0.60978 0.99576 0.42019 0.0
H1004 H 0.96233 0.67991 0.32075 0.0
H1005 H 0.04862 0.68226 0.3271 0.0
H1006 H 0.96102 0.64498 0.35259 0.0
H1007 H 0.04715 0.6477 0.35925 0.0
H1008 H 0.02489 0.60918 0.43906 0.0
H1009 H 0.02637 0.64333 0.40656 0.0
H1010 H 0.97993 0.5971 0.35342 0.0
H1011 H 0.97874 0.56256 0.38585 0.0
C1012 C 0.98096 0.67312 0.3291 0.0
C1013 C 0.00558 0.68384 0.3215 0.0
C1014 C 0.9802 0.65304 0.34711 0.0
C1015 C 0.00398 0.6437 0.35821 0.0
C1016 C 0.02854 0.65466 0.35096 0.0
C1017 C 0.02936 0.67438 0.33258 0.0
C1018 C 0.01499 0.60627 0.42044 0.0
C1019 C 0.00165 0.58324 0.41495 0.0
C1020 C 0.01597 0.62576 0.40185 0.0
C1021 C 0.00322 0.62279 0.37761 0.0
C1022 C 0.98978 0.59983 0.37208 0.0
C1023 C 0.98925 0.58007 0.39052 0.0
H1024 H 0.32873 0.02871 0.30219 0.0
H1025 H 0.30881 0.95173 0.32591 0.0
H1026 H 0.36225 0.03095 0.33681 0.0
H1027 H 0.34243 0.95407 0.36056 0.0
H1028 H 0.38145 0.98222 0.43772 0.0
H1029 H 0.3484 0.97941 0.40259 0.0
H1030 H 0.40624 0.00984 0.3481 0.0
H1031 H 0.43925 0.01279 0.38307 0.0
C1032 C 0.33159 0.01223 0.3147 0.0
C1033 C 0.31612 0.99004 0.31132 0.0
C1034 C 0.35084 0.0135 0.33445 0.0
C1035 C 0.35483 0.99272 0.35137 0.0
C1036 C 0.33953 0.97046 0.34792 0.0
C1037 C 0.32046 0.96907 0.32798 0.0
C1038 C 0.38707 0.98843 0.41828 0.0
C1039 C 0.41295 0.99774 0.41319 0.0
C1040 C 0.36823 0.98662 0.39816 0.0
C1041 C 0.37483 0.99436 0.37266 0.0
C1042 C 0.4006 0.00389 0.36762 0.0
C1043 C 0.41951 0.00544 0.38764 0.0
H1044 H 0.04884 0.18609 0.33307 0.0
H1045 H 0.96658 0.1723 0.31092 0.0
H1046 H 0.04618 0.1515 0.36502 0.0
H1047 H 0.96407 0.1375 0.3428 0.0
H1048 H 0.98248 0.06011 0.38485 0.0
H1049 H 0.98533 0.0933 0.35124 0.0
H1050 H 0.02013 0.145 0.40749 0.0
H1051 H 0.01719 0.11205 0.4411 0.0
C1052 C 0.03026 0.17555 0.33486 0.0
C1053 C 0.00789 0.18199 0.31949 0.0
C1054 C 0.02871 0.15585 0.35326 0.0
C1055 C 0.0049 0.14189 0.35645 0.0
C1056 C 0.98273 0.14786 0.34064 0.0
C1057 C 0.98414 0.16784 0.32248 0.0
C1058 C 0.99076 0.07855 0.39004 0.0
C1059 C -0.00043 0.08343 0.41569 0.0
C1060 C 0.99226 0.09756 0.37083 0.0
C1061 C 0.00302 0.12168 0.37675 0.0
C1062 C 0.01196 0.12651 0.40232 0.0
C1063 C 0.01008 0.10767 0.42161 0.0
H1064 H 0.82382 0.96888 0.30701 0.0
H1065 H 0.81471 0.04979 0.32127 0.0
H1066 H 0.8572 0.96646 0.34191 0.0
H1067 H 0.84786 0.0472 0.35635 0.0
H1068 H 0.88148 0.02225 0.43757 0.0
H1069 H 0.84907 0.02464 0.40168 0.0
H1070 H 0.9043 0.98461 0.35133 0.0
H1071 H 0.93674 0.98236 0.38697 0.0
C1072 C 0.8291 0.98617 0.31744 0.0
C1073 C 0.81665 0.00952 0.31138 0.0
C1074 C 0.84819 0.98477 0.33738 0.0
C1075 C 0.85489 0.0066 0.35192 0.0
C1076 C 0.8428 0.03004 0.3456 0.0
C1077 C 0.82403 0.03153 0.32538 0.0
C1078 C 0.8866 0.01382 0.41889 0.0
C1079 C 0.91164 0.00217 0.41506 0.0
C1080 C 0.86818 0.01538 0.39833 0.0
C1081 C 0.87429 0.00489 0.37375 0.0
C1082 C 0.89908 0.99277 0.37011 0.0
C1083 C 0.91765 0.9916 0.39048 0.0
H1084 H 0.95276 0.83325 0.31369 0.0
H1085 H 0.03381 0.81207 0.33398 0.0
H1086 H 0.95435 0.86788 0.34571 0.0
H1087 H 0.03526 0.84659 0.36608 0.0
H1088 H 0.01243 0.88969 0.4423 0.0
H1089 H 0.01179 0.85625 0.40906 0.0
H1090 H 0.97933 0.90972 0.35312 0.0
H1091 H 0.97998 0.94329 0.38629 0.0
C1092 C 0.97094 0.83603 0.3249 0.0
C1093 C 0.99315 0.81989 0.3213 0.0
C1094 C 0.97187 0.85593 0.34315 0.0
C1095 C 0.9949 0.85988 0.35843 0.0
C1096 C 0.01716 0.84385 0.35473 0.0
C1097 C 0.01636 0.82418 0.33624 0.0
C1098 C 0.00513 0.89435 0.42293 0.0
C1099 C 0.99626 0.91919 0.41697 0.0
C1100 C 0.00495 0.87522 0.40385 0.0
C1101 C 0.99554 0.88038 0.3785 0.0
C1102 C 0.98654 0.90515 0.37255 0.0
C1103 C 0.98708 0.9244 0.39152 0.0
H1104 H 0.15917 0.9658 0.30051 0.0
H1105 H 0.20204 0.02656 0.33952 0.0
H1106 H 0.12355 0.96882 0.33307 0.0
H1107 H 0.16633 0.02979 0.37171 0.0
H1108 H 0.11599 0.0045 0.44207 0.0
H1109 H 0.14984 0.00346 0.40786 0.0
H1110 H 0.08784 0.99693 0.34934 0.0
H1111 H 0.05391 0.99754 0.38344 0.0
C1112 C 0.16082 0.98002 0.31579 0.0
C1113 C 0.18352 0.99581 0.31752 0.0
C1114 C 0.14039 0.9818 0.33441 0.0
C1115 C 0.14227 0.99938 0.35512 0.0
C1116 C 0.16454 0.01573 0.35628 0.0
C1117 C 0.18491 0.01398 0.3377 0.0
C1118 C 0.10949 0.00285 0.42194 0.0
C1119 C 0.08214 0.00109 0.41561 0.0
C1120 C 0.12893 0.00242 0.4023 0.0
C1121 C 0.12151 1.00018 0.37588 0.0
C1122 C 0.09421 0.99843 0.36953 0.0
C1123 C 0.07475 0.99892 0.38914 0.0
H1124 H 0.04045 0.83458 0.68766 0.0
H1125 H 0.95981 0.8126 0.66681 0.0
H1126 H 0.03842 0.86966 0.65614 0.0
H1127 H 0.9579 0.84758 0.63525 0.0
H1128 H 0.98077 0.89078 0.55915 0.0
H1129 H 0.98135 0.85751 0.59254 0.0
H1130 H 0.01318 0.91132 0.64841 0.0
H1131 H 0.01259 0.94477 0.61501 0.0
C1132 C 0.02225 0.83731 0.67646 0.0
C1133 C 0.00031 0.82076 0.67971 0.0
C1134 C 0.02106 0.85747 0.65851 0.0
C1135 C 0.99804 0.8613 0.64317 0.0
C1136 C 0.976 0.84494 0.64663 0.0
C1137 C 0.97706 0.825 0.66481 0.0
C1138 C 0.9879 0.89557 0.57854 0.0
C1139 C 0.99667 0.92046 0.58438 0.0
C1140 C 0.98805 0.87653 0.59771 0.0
C1141 C 0.99728 0.88182 0.62309 0.0
C1142 C 0.0061 0.90666 0.62897 0.0
C1143 C 0.00561 0.92584 0.60987 0.0
H1144 H 0.20035 0.97425 0.6617 0.0
H1145 H 0.16037 0.03787 0.69881 0.0
H1146 H 0.16454 0.97167 0.62952 0.0
H1147 H 0.12463 0.03545 0.66629 0.0
H1148 H 0.05385 0.00808 0.61637 0.0
H1149 H 0.08767 0.0082 0.65063 0.0
H1150 H 0.14958 0.99815 0.59259 0.0
H1151 H 0.11583 0.99761 0.55823 0.0
C1152 C 0.18382 0.98758 0.66313 0.0
C1153 C 0.1833 0.00638 0.68274 0.0
C1154 C 0.1634 0.9862 0.64455 0.0
C1155 C 0.14194 0.00354 0.64518 0.0
C1156 C 0.14085 0.02173 0.66537 0.0
C1157 C 0.16134 0.02315 0.68397 0.0
C1158 C 0.07465 0.00582 0.61082 0.0
C1159 C 0.08206 0.0028 0.58444 0.0
C1160 C 0.09404 0.00603 0.63051 0.0
C1161 C 0.12126 0.00312 0.62433 0.0
C1162 C 0.1287 1.00008 0.59801 0.0
C1163 C 0.10934 0.99996 0.57828 0.0
H1164 H 0.94616 0.18862 0.66478 0.0
H1165 H 0.02815 0.17371 0.6872 0.0
H1166 H 0.94844 0.15403 0.63284 0.0
H1167 H 0.03027 0.13893 0.65533 0.0
H1168 H 0.01089 0.06156 0.61408 0.0
H1169 H 0.00856 0.09513 0.64725 0.0
H1170 H 0.97418 0.14662 0.59047 0.0
H1171 H 0.97657 0.11325 0.55727 0.0
C1172 C 0.96461 0.17785 0.66303 0.0
C1173 C 0.987 0.18394 0.6785 0.0
C1174 C 0.96594 0.15815 0.64463 0.0
C1175 C 0.98956 0.14385 0.64154 0.0
C1176 C 0.01177 0.14954 0.6574 0.0
C1177 C 0.01057 0.16951 0.67556 0.0
C1178 C 0.0028 0.08003 0.60867 0.0
C1179 C 0.99394 0.08472 0.583 0.0
C1180 C 0.00162 0.09927 0.62764 0.0
C1181 C 0.99113 0.12344 0.62145 0.0
C1182 C 0.98215 0.12809 0.59585 0.0
C1183 C 0.9837 0.10901 0.5768 0.0
H1184 H 0.81331 0.95313 0.67675 0.0
H1185 H 0.82322 0.03372 0.69232 0.0
H1186 H 0.8468 0.95586 0.64201 0.0
H1187 H 0.85691 0.03628 0.65775 0.0
H1188 H 0.93648 0.02048 0.61295 0.0
H1189 H 0.90384 0.01791 0.64836 0.0
H1190 H 0.84864 0.97897 0.59708 0.0
H1191 H 0.88125 0.98167 0.56143 0.0
C1192 C 0.82287 0.97134 0.673 0.0
C1193 C 0.81562 0.99323 0.68727 0.0
C1194 C 0.84184 0.97292 0.65297 0.0
C1195 C 0.85424 0.99631 0.64712 0.0
C1196 C 0.84767 0.01801 0.66193 0.0
C1197 C 0.82839 0.01653 0.68168 0.0
C1198 C 0.91736 0.01141 0.60918 0.0
C1199 C 0.91142 0.00125 0.5844 0.0
C1200 C 0.89867 0.01005 0.62943 0.0
C1201 C 0.87382 0.99815 0.62545 0.0
C1202 C 0.86779 0.98805 0.60068 0.0
C1203 C 0.88633 0.98979 0.58026 0.0
H1204 H 0.32318 0.04796 0.1823 0.0
H1205 H 0.30168 0.96945 0.1668 0.0
H1206 H 0.35805 0.04556 0.14894 0.0
H1207 H 0.3365 0.96718 0.13327 0.0
H1208 H 0.38295 0.98527 0.05653 0.0
H1209 H 0.34716 0.98752 0.08896 0.0
H1210 H 0.40212 0.02098 0.14438 0.0
H1211 H 0.43804 0.01872 0.11203 0.0
C1212 C 0.32572 0.03027 0.17161 0.0
C1213 C 0.30969 0.00888 0.17719 0.0
C1214 C 0.34581 0.02886 0.15266 0.0
C1215 C 0.35005 0.00615 0.13867 0.0
C1216 C 0.33357 0.98496 0.14372 0.0
C1217 C 0.31369 0.98625 0.16293 0.0
C1218 C 0.38744 0.99311 0.07563 0.0
C1219 C 0.41336 0.00185 0.0817 0.0
C1220 C 0.36697 0.99425 0.09421 0.0
C1221 C 0.37187 0.0045 0.11911 0.0
C1222 C 0.39775 0.0132 0.12522 0.0
C1223 C 0.41834 0.01173 0.10677 0.0
H1224 H 0.965 0.30816 0.16397 0.0
H1225 H 0.03155 0.34715 0.20039 0.0
H1226 H 0.96689 0.33815 0.12732 0.0
H1227 H 0.03361 0.37673 0.16378 0.0
H1228 H 0.00468 0.44424 0.11494 0.0
H1229 H 0.00488 0.41157 0.14859 0.0
H1230 H 0.99455 0.35321 0.08982 0.0
H1231 H 0.99397 0.38605 0.05584 0.0
C1232 C 0.98026 0.32287 0.164 0.0
C1233 C 0.99795 0.3254 0.18525 0.0
C1234 C 0.98139 0.34 0.14296 0.0
C1235 C 0.00019 0.36002 0.14281 0.0
C1236 C 0.01855 0.36183 0.16355 0.0
C1237 C 0.01746 0.34475 0.18448 0.0
C1238 C 0.00245 0.42449 0.10903 0.0
C1239 C -0.00065 0.41787 0.08255 0.0
C1240 C 0.00277 0.4057 0.12839 0.0
C1241 C -7e-05 0.37976 0.12188 0.0
C1242 C 0.99664 0.37305 0.09547 0.0
C1243 C 0.99645 0.39189 0.076 0.0
H1244 H 0.69593 0.03079 0.17173 0.0
H1245 H 0.67248 0.95273 0.187 0.0
H1246 H 0.66184 0.03365 0.13749 0.0
H1247 H 0.63835 0.95574 0.15294 0.0
H1248 H 0.56008 0.98338 0.1135 0.0
H1249 H 0.59494 0.98095 0.14692 0.0
H1250 H 0.65203 0.01332 0.09289 0.0
H1251 H 0.61726 0.01573 0.05934 0.0
C1252 C 0.68359 0.01423 0.16772 0.0
C1253 C 0.6869 0.99153 0.18207 0.0
C1254 C 0.66416 0.01586 0.14807 0.0
C1255 C 0.64739 0.99496 0.14267 0.0
C1256 C 0.65082 0.97222 0.15689 0.0
C1257 C 0.67048 0.97047 0.17626 0.0
C1258 C 0.58002 0.99011 0.10876 0.0
C1259 C 0.5859 0.99973 0.08374 0.0
C1260 C 0.60001 0.98853 0.12784 0.0
C1261 C 0.62618 0.99687 0.12245 0.0
C1262 C 0.63198 0.00687 0.0976 0.0
C1263 C 0.6121 0.00811 0.07838 0.0
H1264 H 0.03166 0.69333 0.1647 0.0
H1265 H 0.97305 0.64855 0.20673 0.0
H1266 H 0.02957 0.66304 0.12839 0.0
H1267 H 0.97069 0.61868 0.17043 0.0
H1268 H -0.00083 0.55434 0.11732 0.0
H1269 H -0.00011 0.58634 0.15167 0.0
H1270 H 0.00036 0.64627 0.09361 0.0
H1271 H 8e-05 0.61424 0.05901 0.0
C1272 C 0.0181 0.67723 0.16607 0.0
C1273 C 0.00267 0.67328 0.1887 0.0
C1274 C 0.01685 0.65991 0.14524 0.0
C1275 C 0.00017 0.63829 0.14664 0.0
C1276 C 0.98414 0.63485 0.16893 0.0
C1277 C 0.98537 0.65211 0.18969 0.0
C1278 C -0.0006 0.57431 0.11175 0.0
C1279 C -0.0005 0.58161 0.08529 0.0
C1280 C -0.00035 0.59269 0.13152 0.0
C1281 C 1e-05 0.61888 0.1254 0.0
C1282 C 0.00029 0.62625 0.09898 0.0
C1283 C -2e-05 0.60784 0.07915 0.0
H1284 H 0.30383 0.03262 0.82914 0.0
H1285 H 0.32501 0.95394 0.81401 0.0
H1286 H 0.33883 0.03495 0.8625 0.0
H1287 H 0.36006 0.95642 0.84722 0.0
H1288 H 0.43984 0.98267 0.88498 0.0
H1289 H 0.40429 0.98074 0.85215 0.0
H1290 H 0.34895 0.01466 0.9069 0.0
H1291 H 0.38434 0.01658 0.93977 0.0
C1292 C 0.31584 0.01581 0.83303 0.0
C1293 C 0.31164 0.99309 0.81897 0.0
C1294 C 0.33582 0.01714 0.85214 0.0
C1295 C 0.35222 0.99591 0.8573 0.0
C1296 C 0.34788 0.97315 0.84342 0.0
C1297 C 0.32768 0.9717 0.82456 0.0
C1298 C 0.42014 0.98985 0.88996 0.0
C1299 C 0.4149 0.99973 0.91498 0.0
C1300 C 0.39977 0.98857 0.87124 0.0
C1301 C 0.37388 0.99749 0.87704 0.0
C1302 C 0.36876 0.00777 0.90188 0.0
C1303 C 0.389 0.00872 0.92071 0.0
H1304 H 0.96759 0.35153 0.79502 0.0
H1305 H 0.03127 0.31016 0.8336 0.0
H1306 H 0.96569 0.38139 0.83138 0.0
H1307 H 0.02961 0.34043 0.86995 0.0
H1308 H 0.00202 0.38804 0.9408 0.0
H1309 H 0.00169 0.35586 0.90636 0.0
H1310 H 0.99422 0.41532 0.84826 0.0
H1311 H 0.99409 0.44747 0.8825 0.0
C1312 C 0.98112 0.34871 0.81133 0.0
C1313 C -0.00029 0.32852 0.81131 0.0
C1314 C 0.98013 0.36596 0.83211 0.0
C1315 C 0.99771 0.36349 0.85343 0.0
C1316 C 0.01569 0.34278 0.85388 0.0
C1317 C 0.01669 0.32548 0.83302 0.0
C1318 C 0.00023 0.39431 0.9207 0.0
C1319 C 0.998 0.42045 0.91452 0.0
C1320 C 0.0002 0.37581 0.90095 0.0
C1321 C 0.99781 0.383 0.87457 0.0
C1322 C 0.99566 0.4091 0.8684 0.0
C1323 C 0.99577 0.42758 0.88809 0.0
H1324 H 0.69727 0.97189 0.82802 0.0
H1325 H 0.67382 0.0501 0.81352 0.0
H1326 H 0.66366 0.96894 0.86271 0.0
H1327 H 0.64015 0.04699 0.84797 0.0
H1328 H 0.56165 0.0183 0.88634 0.0
H1329 H 0.59676 0.02126 0.8533 0.0
H1330 H 0.65376 0.98932 0.90773 0.0
H1331 H 0.61868 0.98646 0.94099 0.0
C1332 C 0.68506 0.98847 0.83232 0.0
C1333 C 0.68817 0.01122 0.81801 0.0
C1334 C 0.66591 0.98679 0.85222 0.0
C1335 C 0.64924 0.00769 0.85789 0.0
C1336 C 0.65257 0.03051 0.84381 0.0
C1337 C 0.67196 0.03232 0.8242 0.0
C1338 C 0.58162 0.01179 0.89127 0.0
C1339 C 0.58737 0.00213 0.9163 0.0
C1340 C 0.60176 0.01367 0.8724 0.0
C1341 C 0.62797 0.00559 0.87801 0.0
C1342 C 0.63368 0.99558 0.90288 0.0
C1343 C 0.61363 0.99407 0.92192 0.0
H1344 H 0.03123 0.68986 0.83126 0.0
H1345 H 0.94865 0.67011 0.81595 0.0
H1346 H 0.03291 0.65761 0.86583 0.0
H1347 H 0.9505 0.63779 0.85034 0.0
H1348 H 0.97845 0.56131 0.88774 0.0
H1349 H 0.97588 0.59552 0.85534 0.0
H1350 H 0.01158 0.64794 0.91034 0.0
H1351 H 0.0141 0.61382 0.94288 0.0
C1352 C 0.01337 0.67883 0.83543 0.0
C1353 C 0.98983 0.68252 0.82082 0.0
C1354 C 0.01434 0.66042 0.85525 0.0
C1355 C 0.9919 0.64508 0.86059 0.0
C1356 C 0.96818 0.64915 0.84641 0.0
C1357 C 0.96709 0.6678 0.82686 0.0
C1358 C 0.98586 0.58009 0.89292 0.0
C1359 C 0.9965 0.58483 0.91789 0.0
C1360 C 0.98417 0.59972 0.87443 0.0
C1361 C 0.99344 0.62439 0.88038 0.0
C1362 C 0.00438 0.62907 0.90522 0.0
C1363 C 0.0057 0.60955 0.92385 0.0
H1364 H 0.17811 0.32694 0.05156 0.0
H1365 H 0.17211 0.31211 0.96866 0.0
H1366 H 0.14506 0.3611 0.04738 0.0
H1367 H 0.13876 0.34614 0.96465 0.0
H1368 H 0.05855 0.39078 0.97861 0.0
H1369 H 0.09086 0.35585 0.98175 0.0
H1370 H 0.1453 0.40513 0.02361 0.0
H1371 H 0.11309 0.44027 0.0203 0.0
C1372 C 0.16948 0.33071 0.03252 0.0
C1373 C 0.17774 0.31684 0.01042 0.0
C1374 C 0.15076 0.35042 0.03012 0.0
C1375 C 0.1396 0.35636 0.00566 0.0
C1376 C 0.14708 0.3419 0.98373 0.0
C1377 C 0.16614 0.32245 0.98604 0.0
C1378 C 0.07747 0.39421 0.98838 0.0
C1379 C 0.08331 0.41825 0.99924 0.0
C1380 C 0.09595 0.37424 0.99007 0.0
C1381 C 0.12044 0.37779 0.00304 0.0
C1382 C 0.12642 0.40187 0.0137 0.0
C1383 C 0.10812 0.42201 0.01162 0.0
H1384 H 0.17884 0.6747 0.94745 0.0
H1385 H 0.17337 0.68875 0.03053 0.0
H1386 H 0.1456 0.64068 0.95144 0.0
H1387 H 0.13985 0.65486 0.03434 0.0
H1388 H 0.05933 0.61098 0.02053 0.0
H1389 H 0.09183 0.64572 0.01741 0.0
H1390 H 0.14558 0.59641 0.97473 0.0
H1391 H 0.11316 0.56145 0.97801 0.0
C1392 C 0.17028 0.67078 0.96649 0.0
C1393 C 0.17874 0.6844 0.9887 0.0
C1394 C 0.15146 0.65116 0.96878 0.0
C1395 C 0.1404 0.64505 0.99322 0.0
C1396 C 0.14809 0.65924 0.01527 0.0
C1397 C 0.16725 0.6786 0.01307 0.0
C1398 C 0.07813 0.6075 0.01057 0.0
C1399 C 0.08372 0.5835 0.99948 0.0
C1400 C 0.09673 0.62736 0.00889 0.0
C1401 C 0.12108 0.62374 0.99572 0.0
C1402 C 0.1268 0.59972 0.9848 0.0
C1403 C 0.10838 0.57969 0.98686 0.0
H1404 H 0.30642 0.1676 0.96028 0.0
H1405 H 0.32778 0.18641 0.03985 0.0
H1406 H 0.33943 0.13308 0.9605 0.0
H1407 H 0.36082 0.15201 0.03993 0.0
H1408 H 0.43951 0.11151 0.01527 0.0
H1409 H 0.40473 0.14426 0.01596 0.0
H1410 H 0.34815 0.09055 0.98356 0.0
H1411 H 0.3829 0.05764 0.98286 0.0
C1412 C 0.31802 0.16427 0.97786 0.0
C1413 C 0.31453 0.17977 3e-05 0.0
C1414 C 0.33683 0.14445 0.978 0.0
C1415 C 0.35276 0.13997 0.00018 0.0
C1416 C 0.349 0.15522 0.02247 0.0
C1417 C 0.32996 0.17481 0.02246 0.0
C1418 C 0.41968 0.10666 0.00823 0.0
C1419 C 0.41398 0.08196 0.999 0.0
C1420 C 0.39973 0.12538 0.00882 0.0
C1421 C 0.37374 0.11991 -0.00012 0.0
C1422 C 0.36805 0.0953 0.99045 0.0
C1423 C 0.38792 0.07645 0.9902 0.0
H1424 H 0.79253 0.3445 0.02375 0.0
H1425 H 0.8359 0.30668 0.96172 0.0
H1426 H 0.82829 0.37587 0.02758 0.0
H1427 H 0.87157 0.33839 0.96536 0.0
H1428 H 0.94103 0.38731 0.99565 0.0
H1429 H 0.90703 0.35403 0.99469 0.0
H1430 H 0.84508 0.41132 0.00083 0.0
H1431 H 0.87898 0.44471 0.00219 0.0
C1432 C 0.80978 0.34276 0.01103 0.0
C1433 C 0.8113 0.32316 0.99231 0.0
C1434 C 0.83018 0.36087 0.01312 0.0
C1435 C 0.85261 0.35978 0.99659 0.0
C1436 C 0.85461 0.33965 0.97849 0.0
C1437 C 0.83414 0.32152 0.97635 0.0
C1438 C 0.92018 0.39291 0.99688 0.0
C1439 C 0.91281 0.41879 0.99902 0.0
C1440 C 0.90069 0.37377 0.99618 0.0
C1441 C 0.87339 0.38003 0.99771 0.0
C1442 C 0.86599 0.40586 -3e-05 0.0
C1443 C 0.88546 0.42502 0.00059 0.0
H1444 H 0.67257 0.81616 0.95369 0.0
H1445 H 0.69348 0.83106 0.03424 0.0
H1446 H 0.6398 0.85076 0.95508 0.0
H1447 H 0.66077 0.86585 0.03547 0.0
H1448 H 0.61788 0.94271 0.01551 0.0
H1449 H 0.65252 0.90968 0.01378 0.0
H1450 H 0.59569 0.85718 0.97976 0.0
H1451 H 0.56103 0.88999 0.98154 0.0
C1452 C 0.67037 0.82697 0.97162 0.0
C1453 C 0.68557 0.82083 0.99389 0.0
C1454 C 0.65149 0.84666 0.97243 0.0
C1455 C 0.64768 0.86086 0.99542 0.0
C1456 C 0.66341 0.85526 0.01747 0.0
C1457 C 0.68205 0.83531 0.01677 0.0
C1458 C 0.61279 0.92412 0.00764 0.0
C1459 C 0.58669 0.91896 0.99869 0.0
C1460 C 0.63258 0.90522 0.00678 0.0
C1461 C 0.62678 0.88094 0.99656 0.0
C1462 C 0.60076 0.87582 0.98752 0.0
C1463 C 0.58088 0.89456 0.98873 0.0
H1464 H 0.7932 0.658 0.97486 0.0
H1465 H 0.83604 0.6961 0.03708 0.0
H1466 H 0.82899 0.6266 0.9715 0.0
H1467 H 0.87173 0.66436 0.03392 0.0
H1468 H 0.94138 0.61503 0.0047 0.0
H1469 H 0.90746 0.64842 0.00517 0.0
H1470 H 0.84543 0.59128 0.99858 0.0
H1471 H 0.87925 0.5578 0.99768 0.0
C1472 C 0.81034 0.6598 0.98771 0.0
C1473 C 0.81169 0.67948 0.00635 0.0
C1474 C 0.83076 0.64167 0.98589 0.0
C1475 C 0.85304 0.64282 0.00264 0.0
C1476 C 0.85489 0.66304 0.02064 0.0
C1477 C 0.83441 0.6812 0.02249 0.0
C1478 C 0.92053 0.60949 0.00327 0.0
C1479 C 0.91311 0.58362 0.00112 0.0
C1480 C 0.90109 0.62869 0.00369 0.0
C1481 C 0.87378 0.62251 0.00186 0.0
C1482 C 0.86634 0.59669 0.99965 0.0
C1483 C 0.88576 0.57747 0.99931 0.0
H1484 H 0.3088 0.83058 0.96255 0.0
H1485 H 0.32729 0.81622 0.04377 0.0
H1486 H 0.34199 0.86495 0.96178 0.0
H1487 H 0.36058 0.8504 0.04284 0.0
H1488 H 0.44017 0.88962 0.01807 0.0
H1489 H 0.40551 0.85672 0.01931 0.0
H1490 H 0.34952 0.90885 0.98333 0.0
H1491 H 0.38409 0.9419 0.98215 0.0
C1492 C 0.31983 0.83484 0.98025 0.0
C1493 C 0.31544 0.82067 0.00321 0.0
C1494 C 0.33874 0.85455 0.97982 0.0
C1495 C 0.35391 0.86022 0.00222 0.0
C1496 C 0.34933 0.84625 0.02524 0.0
C1497 C 0.33016 0.82681 0.02579 0.0
C1498 C 0.42051 0.89407 0.01035 0.0
C1499 C 0.41489 0.91838 -0.0 0.0
C1500 C 0.40063 0.87529 0.01124 0.0
C1501 C 0.37485 0.88029 0.00146 0.0
C1502 C 0.36928 0.90447 0.99088 0.0
C1503 C 0.38903 0.92341 0.99035 0.0
H1504 H 0.67215 0.18802 0.96013 0.0
H1505 H 0.69228 0.16854 0.03986 0.0
H1506 H 0.63916 0.15359 0.95929 0.0
H1507 H 0.65933 0.13402 0.03889 0.0
H1508 H 0.61699 0.05863 0.01553 0.0
H1509 H 0.65142 0.09176 0.01543 0.0
H1510 H 0.59489 0.14522 0.98241 0.0
H1511 H 0.56037 0.11219 0.98247 0.0
C1512 C 0.6697 0.17627 0.9774 0.0
C1513 C 0.68479 0.18103 8e-05 0.0
C1514 C 0.65069 0.15667 0.97695 0.0
C1515 C 0.64663 0.14123 0.99906 0.0
C1516 C 0.66217 0.14555 0.02152 0.0
C1517 C 0.68095 0.16536 0.02209 0.0
C1518 C 0.6119 0.07742 0.00816 0.0
C1519 C 0.58592 0.08277 0.99901 0.0
C1520 C 0.63159 0.0964 0.00826 0.0
C1521 C 0.62582 0.12102 0.99887 0.0
C1522 C 0.59994 0.12633 0.98954 0.0
C1523 C 0.58014 0.10746 0.98976 0.0
H1524 H 0.45909 0.68719 0.83378 0.0
H1525 H 0.5403 0.66678 0.81333 0.0
H1526 H 0.4584 0.65319 0.8665 0.0
H1527 H 0.53947 0.63268 0.84599 0.0
H1528 H 0.51512 0.55787 0.88837 0.0
H1529 H 0.51499 0.59072 0.85447 0.0
H1530 H 0.48272 0.64505 0.90955 0.0
H1531 H 0.48284 0.61229 0.94356 0.0
C1532 C 0.47671 0.67533 0.83611 0.0
C1533 C 0.49977 0.6797 0.82099 0.0
C1534 C 0.47635 0.65598 0.85496 0.0
C1535 C 0.49891 0.64039 0.85884 0.0
C1536 C 0.52175 0.64433 0.84329 0.0
C1537 C 0.52224 0.6639 0.82467 0.0
C1538 C 0.50793 0.5768 0.89327 0.0
C1539 C 0.49899 0.58246 0.9187 0.0
C1540 C 0.50801 0.59562 0.87388 0.0
C1541 C 0.49881 0.62039 0.87938 0.0
C1542 C 0.4897 0.62603 0.90472 0.0
C1543 C 0.48996 0.60732 0.92423 0.0
H1544 H 0.2939 0.47686 0.84143 0.0
H1545 H 0.33723 0.53788 0.80329 0.0
H1546 H 0.32952 0.47303 0.8737 0.0
H1547 H 0.37276 0.53422 0.83589 0.0
H1548 H 0.44204 0.5045 0.88614 0.0
H1549 H 0.40822 0.50542 0.85193 0.0
H1550 H 0.34599 0.49923 0.91021 0.0
H1551 H 0.37974 0.49794 0.94456 0.0
C1552 C 0.31112 0.48935 0.8398 0.0
C1553 C 0.31265 0.50779 0.81987 0.0
C1554 C 0.33143 0.48726 0.85843 0.0
C1555 C 0.35379 0.5035 0.85752 0.0
C1556 C 0.35584 0.52133 0.83703 0.0
C1557 C 0.33545 0.52347 0.81839 0.0
C1558 C 0.42117 0.50326 0.89177 0.0
C1559 C 0.41368 0.50115 0.91822 0.0
C1560 C 0.40178 0.50392 0.87209 0.0
C1561 C 0.37446 0.50238 0.87835 0.0
C1562 C 0.36693 0.50012 0.90474 0.0
C1563 C 0.3863 0.49954 0.92445 0.0
H1564 H 0.45763 0.33444 0.81405 0.0
H1565 H 0.54029 0.31675 0.83159 0.0
H1566 H 0.45849 0.36859 0.84661 0.0
H1567 H 0.54099 0.35077 0.86423 0.0
H1568 H 0.51687 0.38964 0.94259 0.0
H1569 H 0.51716 0.35727 0.90822 0.0
H1570 H 0.48231 0.41139 0.85433 0.0
H1571 H 0.48203 0.44386 0.88857 0.0
C1572 C 0.47602 0.33797 0.82469 0.0
C1573 C 0.49888 0.3229 0.82029 0.0
C1574 C 0.47651 0.35754 0.84325 0.0
C1575 C 0.49976 0.36216 0.85798 0.0
C1576 C 0.52274 0.3474 0.85329 0.0
C1577 C 0.52237 0.32807 0.83449 0.0
C1578 C 0.50922 0.39464 0.92344 0.0
C1579 C 0.49943 0.41931 0.9183 0.0
C1580 C 0.50958 0.37617 0.90374 0.0
C1581 C 0.49982 0.38191 0.87866 0.0
C1582 C 0.48984 0.40648 0.87355 0.0
C1583 C 0.48982 0.42506 0.89312 0.0
H1584 H 0.70315 0.52496 0.83991 0.0
H1585 H 0.66067 0.46268 0.80304 0.0
H1586 H 0.66771 0.52865 0.87235 0.0
H1587 H 0.6253 0.46624 0.83581 0.0
H1588 H 0.55585 0.49587 0.88595 0.0
H1589 H 0.58946 0.49486 0.85156 0.0
H1590 H 0.65198 0.50259 0.90938 0.0
H1591 H 0.61845 0.50397 0.94391 0.0
C1592 C 0.68615 0.51216 0.83859 0.0
C1593 C 0.68481 0.49342 0.81897 0.0
C1594 C 0.66595 0.51418 0.85732 0.0
C1595 C 0.64388 0.49756 0.85681 0.0
C1596 C 0.642 0.47942 0.83663 0.0
C1597 C 0.66229 0.47734 0.81789 0.0
C1598 C 0.57674 0.49744 0.89144 0.0
C1599 C 0.58438 0.50002 0.91781 0.0
C1600 C 0.596 0.49672 0.87166 0.0
C1601 C 0.62334 0.49867 0.87775 0.0
C1602 C 0.63102 0.50138 0.90405 0.0
C1603 C 0.61177 0.502 0.92386 0.0
H1604 H 0.46079 0.31046 0.16806 0.0
H1605 H 0.54131 0.33205 0.18981 0.0
H1606 H 0.45949 0.34538 0.13638 0.0
H1607 H 0.53988 0.36706 0.15818 0.0
H1608 H 0.51476 0.44233 0.11696 0.0
H1609 H 0.51489 0.4088 0.15025 0.0
H1610 H 0.48356 0.3552 0.09392 0.0
H1611 H 0.48341 0.38856 0.0606 0.0
C1612 C 0.47814 0.32276 0.16623 0.0
C1613 C 0.50118 0.31844 0.18142 0.0
C1614 C 0.47743 0.34266 0.14798 0.0
C1615 C 0.49961 0.35889 0.14475 0.0
C1616 C 0.52242 0.35496 0.16037 0.0
C1617 C 0.52326 0.33485 0.17839 0.0
C1618 C 0.5078 0.42343 0.11168 0.0
C1619 C 0.4991 0.41815 0.08608 0.0
C1620 C 0.50803 0.40421 0.13072 0.0
C1621 C 0.4992 0.37941 0.12469 0.0
C1622 C 0.49025 0.3742 0.0992 0.0
C1623 C 0.49036 0.39329 0.08007 0.0
H1624 H 0.66255 0.53905 0.20031 0.0
H1625 H 0.70368 0.4755 0.16424 0.0
H1626 H 0.62679 0.53543 0.16793 0.0
H1627 H 0.66788 0.47178 0.13218 0.0
H1628 H 0.61867 0.49653 0.06051 0.0
H1629 H 0.65244 0.49785 0.09484 0.0
H1630 H 0.59038 0.50686 0.1529 0.0
H1631 H 0.55654 0.5059 0.1187 0.0
C1632 C 0.66378 0.5241 0.18573 0.0
C1633 C 0.68604 0.50769 0.18474 0.0
C1634 C 0.64328 0.52199 0.16723 0.0
C1635 C 0.6447 0.50349 0.14736 0.0
C1636 C 0.66648 0.48652 0.14697 0.0
C1637 C 0.68689 0.48856 0.16548 0.0
C1638 C 0.61215 0.49877 0.08056 0.0
C1639 C 0.58483 0.50112 0.08675 0.0
C1640 C 0.63152 0.49936 0.10027 0.0
C1641 C 0.62403 0.50239 0.12657 0.0
C1642 C 0.59676 0.50472 0.13279 0.0
C1643 C 0.57738 0.50403 0.11313 0.0
H1644 H 0.45928 0.66846 0.19018 0.0
H1645 H 0.54062 0.68796 0.1693 0.0
H1646 H 0.46001 0.63352 0.15849 0.0
H1647 H 0.54121 0.65314 0.13756 0.0
H1648 H 0.51619 0.61166 0.06117 0.0
H1649 H 0.51669 0.64469 0.09478 0.0
H1650 H 0.48427 0.59112 0.15061 0.0
H1651 H 0.48377 0.55792 0.11702 0.0
C1652 C 0.47736 0.66519 0.17896 0.0
C1653 C 0.49988 0.681 0.18221 0.0
C1654 C 0.47779 0.64514 0.16091 0.0
C1655 C 0.50063 0.64072 0.14551 0.0
C1656 C 0.52326 0.65629 0.14902 0.0
C1657 C 0.52296 0.67611 0.16729 0.0
C1658 C 0.50913 0.60689 0.08059 0.0
C1659 C 0.49992 0.58215 0.08641 0.0
C1660 C 0.50961 0.62577 0.09987 0.0
C1661 C 0.50057 0.62043 0.12529 0.0
C1662 C 0.49123 0.59577 0.13112 0.0
C1663 C 0.49109 0.57675 0.11193 0.0
H1664 H 0.3247 0.52703 0.19511 0.0
H1665 H 0.31944 0.44607 0.17933 0.0
H1666 H 0.35854 0.53134 0.16082 0.0
H1667 H 0.35299 0.45055 0.14491 0.0
H1668 H 0.38496 0.47817 0.06425 0.0
H1669 H 0.35268 0.47429 0.10005 0.0
H1670 H 0.40671 0.51485 0.15121 0.0
H1671 H 0.43909 0.51857 0.11562 0.0
C1672 C 0.33096 0.51014 0.18453 0.0
C1673 C 0.3194 0.48623 0.1899 0.0
C1674 C 0.3503 0.51262 0.16494 0.0
C1675 C 0.35809 0.49131 0.15011 0.0
C1676 C 0.34704 0.46731 0.15588 0.0
C1677 C 0.32804 0.46474 0.17574 0.0
C1678 C 0.38983 0.48642 0.08308 0.0
C1679 C 0.41453 0.49862 0.08718 0.0
C1680 C 0.3715 0.48402 0.10357 0.0
C1681 C 0.37735 0.49416 0.12836 0.0
C1682 C 0.40174 0.50692 0.13227 0.0
C1683 C 0.42026 0.50894 0.11193 0.0
H1684 H 0.82289 0.46435 0.68632 0.0
H1685 H 0.80358 0.54247 0.66642 0.0
H1686 H 0.8576 0.46401 0.65267 0.0
H1687 H 0.83823 0.542 0.63269 0.0
H1688 H 0.88299 0.51933 0.55681 0.0
H1689 H 0.84759 0.5193 0.58966 0.0
H1690 H 0.90234 0.48684 0.64596 0.0
H1691 H 0.93791 0.48684 0.61313 0.0
C1692 C 0.82589 0.48137 0.67462 0.0
C1693 C 0.8105 0.50345 0.67902 0.0
C1694 C 0.84589 0.48122 0.65552 0.0
C1695 C 0.85066 0.50302 0.6402 0.0
C1696 C 0.83486 0.52489 0.64415 0.0
C1697 C 0.81509 0.52517 0.66349 0.0
C1698 C 0.88752 0.51215 0.57618 0.0
C1699 C 0.91328 0.50308 0.58236 0.0
C1700 C 0.86727 0.51228 0.595 0.0
C1701 C 0.87223 0.50302 0.6203 0.0
C1702 C 0.89793 0.49388 0.62651 0.0
C1703 C 0.91833 0.49407 0.60778 0.0
H1704 H 0.52678 0.85003 0.70228 0.0
H1705 H 0.46509 0.80727 0.66229 0.0
H1706 H 0.52907 0.87972 0.66578 0.0
H1707 H 0.46718 0.83736 0.62577 0.0
H1708 H 0.49544 0.88612 0.55574 0.0
H1709 H 0.49601 0.85364 0.58999 0.0
H1710 H 0.49932 0.91285 0.64867 0.0
H1711 H 0.49918 0.94524 0.61471 0.0
C1712 C 0.51382 0.84683 0.68562 0.0
C1713 C 0.49559 0.82637 0.6853 0.0
C1714 C 0.51503 0.86397 0.66476 0.0
C1715 C 0.49807 0.86108 0.64304 0.0
C1716 C 0.48059 0.84003 0.64219 0.0
C1717 C 0.47934 0.82284 0.66314 0.0
C1718 C 0.49635 0.89225 0.57594 0.0
C1719 C 0.49733 0.91838 0.58239 0.0
C1720 C 0.49655 0.8736 0.59555 0.0
C1721 C 0.49787 0.88066 0.62202 0.0
C1722 C 0.49876 0.90675 0.62844 0.0
C1723 C 0.49848 0.92536 0.60891 0.0
H1724 H 0.19492 0.46004 0.66618 0.0
H1725 H 0.17689 0.53844 0.68597 0.0
H1726 H 0.16067 0.46119 0.63206 0.0
H1727 H 0.14257 0.53946 0.65194 0.0
H1728 H 0.06184 0.51742 0.61242 0.0
H1729 H 0.09749 0.51722 0.64518 0.0
H1730 H 0.15179 0.48414 0.58893 0.0
H1731 H 0.1163 0.48431 0.55613 0.0
C1732 C 0.18379 0.47756 0.66313 0.0
C1733 C 0.1886 0.49914 0.67876 0.0
C1734 C 0.16425 0.47823 0.64356 0.0
C1735 C 0.1489 0.50037 0.63949 0.0
C1736 C 0.15394 0.52206 0.65487 0.0
C1737 C 0.17372 0.52151 0.6742 0.0
C1738 C 0.08135 0.51004 0.60705 0.0
C1739 C 0.08622 0.50087 0.58167 0.0
C1740 C 0.10179 0.51011 0.62574 0.0
C1741 C 0.12738 0.5007 0.61954 0.0
C1742 C 0.1322 0.49137 0.59426 0.0
C1743 C 0.1119 0.49161 0.57547 0.0
H1744 H 0.50403 0.19846 0.66112 0.0
H1745 H 0.51255 0.13251 0.71131 0.0
H1746 H 0.49648 0.17021 0.62373 0.0
H1747 H 0.50613 0.10456 0.67423 0.0
H1748 H 0.47226 0.05846 0.6096 0.0
H1749 H 0.47352 0.08961 0.64481 0.0
H1750 H 0.51966 0.14071 0.59596 0.0
H1751 H 0.5173 0.10985 0.56027 0.0
C1752 C 0.50435 0.17798 0.66414 0.0
C1753 C 0.50883 0.16772 0.68915 0.0
C1754 C 0.50016 0.1618 0.64274 0.0
C1755 C 0.50053 0.13508 0.64597 0.0
C1756 C 0.50505 0.12499 0.67104 0.0
C1757 C 0.50898 0.14108 0.69235 0.0
C1758 C 0.48255 0.07641 0.60636 0.0
C1759 C 0.49495 0.08164 0.58234 0.0
C1760 C 0.48336 0.09425 0.62656 0.0
C1761 C 0.49707 0.11753 0.62339 0.0
C1762 C 0.50873 0.12309 0.59902 0.0
C1763 C 0.50752 0.10537 0.57861 0.0
H1764 H 0.8203 0.53712 0.3127 0.0
H1765 H 0.80278 0.45869 0.33288 0.0
H1766 H 0.85516 0.53821 0.3462 0.0
H1767 H 0.83757 0.45992 0.36648 0.0
H1768 H 0.88259 0.48352 0.44187 0.0
H1769 H 0.84681 0.48308 0.40941 0.0
H1770 H 0.90047 0.51592 0.3524 0.0
H1771 H 0.93645 0.51639 0.38486 0.0
C1772 C 0.8237 0.52021 0.32445 0.0
C1773 C 0.8088 0.49781 0.32016 0.0
C1774 C 0.84379 0.5208 0.34346 0.0
C1775 C 0.84912 0.49912 0.35879 0.0
C1776 C 0.83376 0.47694 0.35499 0.0
C1777 C 0.81391 0.47624 0.33574 0.0
C1778 C 0.88679 0.49071 0.42243 0.0
C1779 C 0.91237 0.50002 0.41593 0.0
C1780 C 0.86632 0.4903 0.40384 0.0
C1781 C 0.87088 0.49951 0.37846 0.0
C1782 C 0.89639 0.50891 0.37193 0.0
C1783 C 0.91701 0.50899 0.39043 0.0
H1784 H 0.53693 0.80894 0.33567 0.0
H1785 H 0.46935 0.84521 0.29801 0.0
H1786 H 0.53396 0.83965 0.37149 0.0
H1787 H 0.46623 0.87558 0.33388 0.0
H1788 H 0.49311 0.94463 0.38231 0.0
H1789 H 0.49374 0.91163 0.34886 0.0
H1790 H 0.50552 0.85401 0.40822 0.0
H1791 H 0.50532 0.887 0.4418 0.0
C1792 C 0.52121 0.82319 0.33522 0.0
C1793 C 0.50353 0.82476 0.31388 0.0
C1794 C 0.51947 0.84075 0.35576 0.0
C1795 C 0.50006 0.86022 0.35533 0.0
C1796 C 0.48173 0.8611 0.33452 0.0
C1797 C 0.48342 0.84357 0.31404 0.0
C1798 C 0.49588 0.92496 0.38831 0.0
C1799 C 0.49918 0.91855 0.41481 0.0
C1800 C 0.49602 0.906 0.36912 0.0
C1801 C 0.49955 0.88019 0.37592 0.0
C1802 C 0.50295 0.87375 0.40236 0.0
C1803 C 0.50269 0.89269 0.4216 0.0
H1804 H 0.19542 0.53993 0.33106 0.0
H1805 H 0.17541 0.46202 0.3111 0.0
H1806 H 0.16071 0.53973 0.36472 0.0
H1807 H 0.14064 0.46194 0.34469 0.0
H1808 H 0.06058 0.48535 0.38432 0.0
H1809 H 0.09612 0.48507 0.35146 0.0
H1810 H 0.15118 0.51708 0.40769 0.0
H1811 H 0.11582 0.51743 0.44054 0.0
C1812 C 0.18374 0.52273 0.33396 0.0
C1813 C 0.18816 0.50099 0.31844 0.0
C1814 C 0.16393 0.52261 0.35326 0.0
C1815 C 0.14793 0.50086 0.35718 0.0
C1816 C 0.15251 0.47904 0.34186 0.0
C1817 C 0.17255 0.47904 0.32279 0.0
C1818 C 0.08023 0.49242 0.38964 0.0
C1819 C 0.08536 0.5014 0.41504 0.0
C1820 C 0.1006 0.49207 0.3709 0.0
C1821 C 0.12638 0.50102 0.37708 0.0
C1822 C 0.13144 0.51022 0.40237 0.0
C1823 C 0.11121 0.51026 0.4212 0.0
H1824 H 0.53065 0.18703 0.32734 0.0
H1825 H 0.44718 0.16917 0.31437 0.0
H1826 H 0.53264 0.15452 0.36165 0.0
H1827 H 0.44935 0.13655 0.34848 0.0
H1828 H 0.47671 0.05954 0.38557 0.0
H1829 H 0.47426 0.09356 0.35286 0.0
H1830 H 0.51187 0.14577 0.40685 0.0
H1831 H 0.5142 0.11191 0.43966 0.0
C1832 C 0.51269 0.17634 0.33196 0.0
C1833 C 0.48877 0.18068 0.31813 0.0
C1834 C 0.51384 0.15778 0.35161 0.0
C1835 C 0.4912 0.14292 0.35755 0.0
C1836 C 0.46717 0.14755 0.34408 0.0
C1837 C 0.4659 0.16637 0.32471 0.0
C1838 C 0.48455 0.07824 0.39042 0.0
C1839 C 0.49561 0.08304 0.41521 0.0
C1840 C 0.48296 0.09774 0.37178 0.0
C1841 C 0.49279 0.1223 0.37739 0.0
C1842 C 0.50422 0.127 0.402 0.0
C1843 C 0.50542 0.10763 0.42079 0.0
H1844 H 0.70547 0.84689 0.47431 0.0
H1845 H 0.66268 0.80677 0.53521 0.0
H1846 H 0.6693 0.87791 0.47137 0.0
H1847 H 0.62656 0.83817 0.53251 0.0
H1848 H 0.55621 0.88697 0.50299 0.0
H1849 H 0.59077 0.85415 0.50385 0.0
H1850 H 0.65177 0.91241 0.49843 0.0
H1851 H 0.61734 0.94527 0.49711 0.0
C1852 C 0.68828 0.8446 0.48701 0.0
C1853 C 0.68704 0.8244 0.50509 0.0
C1854 C 0.66762 0.86251 0.48544 0.0
C1855 C 0.64518 0.86068 0.50189 0.0
C1856 C 0.64351 0.84003 0.51944 0.0
C1857 C 0.66424 0.82207 0.52104 0.0
C1858 C 0.57697 0.89286 0.5019 0.0
C1859 C 0.5839 0.91887 0.49993 0.0
C1860 C 0.59679 0.87399 0.50256 0.0
C1861 C 0.62401 0.88065 0.50115 0.0
C1862 C 0.63096 0.90661 0.49917 0.0
C1863 C 0.61117 0.92549 0.49858 0.0
H1864 H 0.65925 0.20227 0.49269 0.0
H1865 H 0.7126 0.1384 0.48019 0.0
H1866 H 0.62211 0.17254 0.49971 0.0
H1867 H 0.67571 0.109 0.48622 0.0
H1868 H 0.61175 0.0599 0.52013 0.0
H1869 H 0.64701 0.09191 0.51837 0.0
H1870 H 0.59392 0.14298 0.47671 0.0
H1871 H 0.55826 0.11122 0.47943 0.0
C1872 C 0.66302 0.18193 0.49136 0.0
C1873 C 0.68887 0.1727 0.48593 0.0
C1874 C 0.64175 0.1649 0.49525 0.0
C1875 C 0.64591 0.13833 0.49367 0.0
C1876 C 0.6718 0.12926 0.48817 0.0
C1877 C 0.69299 0.14619 0.48448 0.0
C1878 C 0.60758 0.07801 0.51069 0.0
C1879 C 0.58234 0.08296 0.4997 0.0
C1880 C 0.62782 0.09635 0.50959 0.0
C1881 C 0.62346 0.11994 0.49707 0.0
C1882 C 0.59792 0.12515 0.48672 0.0
C1883 C 0.57752 0.1069 0.48816 0.0
H1884 H 0.80781 0.66937 0.45426 0.0
H1885 H 0.82781 0.69029 0.5336 0.0
H1886 H 0.84074 0.63482 0.45599 0.0
H1887 H 0.86083 0.65586 0.53518 0.0
H1888 H 0.93953 0.61352 0.51295 0.0
H1889 H 0.90519 0.64674 0.51224 0.0
H1890 H 0.84833 0.59287 0.4806 0.0
H1891 H 0.8826 0.55951 0.48136 0.0
C1892 C 0.81915 0.66654 0.47209 0.0
C1893 C 0.81522 0.68259 0.49378 0.0
C1894 C 0.83791 0.64669 0.4731 0.0
C1895 C 0.85339 0.64272 0.49569 0.0
C1896 C 0.84934 0.65864 0.51744 0.0
C1897 C 0.83032 0.67824 0.51656 0.0
C1898 C 0.91973 0.60873 0.5058 0.0
C1899 C 0.91383 0.58386 0.49717 0.0
C1900 C 0.90002 0.62772 0.50557 0.0
C1901 C 0.8741 0.62237 0.49638 0.0
C1902 C 0.8682 0.59756 0.48764 0.0
C1903 C 0.88779 0.57845 0.48822 0.0
H1904 H 0.31722 0.82648 0.44503 0.0
H1905 H 0.32426 0.81121 0.5278 0.0
H1906 H 0.35077 0.86022 0.44886 0.0
H1907 H 0.35809 0.84483 0.53145 0.0
H1908 H 0.43814 0.88931 0.517 0.0
H1909 H 0.40582 0.8544 0.51382 0.0
H1910 H 0.35101 0.90408 0.4728 0.0
H1911 H 0.38322 0.93917 0.47613 0.0
C1912 C 0.3262 0.83005 0.46396 0.0
C1913 C 0.31806 0.81621 0.48614 0.0
C1914 C 0.34521 0.84951 0.46616 0.0
C1915 C 0.35677 0.85523 0.49048 0.0
C1916 C 0.34946 0.84075 0.51247 0.0
C1917 C 0.33012 0.82154 0.51036 0.0
C1918 C 0.41916 0.89281 0.50736 0.0
C1919 C 0.41319 0.91696 0.49678 0.0
C1920 C 0.40067 0.87287 0.50566 0.0
C1921 C 0.37606 0.87655 0.49294 0.0
C1922 C 0.36999 0.90072 0.48249 0.0
C1923 C 0.3883 0.92082 0.48459 0.0
H1924 H 0.1894 0.33265 0.45333 0.0
H1925 H 0.1705 0.31211 0.53303 0.0
H1926 H 0.1569 0.36754 0.45542 0.0
H1927 H 0.1379 0.34688 0.53498 0.0
H1928 H 0.05912 0.3895 0.51357 0.0
H1929 H 0.09329 0.35615 0.51262 0.0
H1930 H 0.14992 0.40963 0.47991 0.0
H1931 H 0.11581 0.44313 0.48089 0.0
C1932 C 0.17841 0.33564 0.47132 0.0
C1933 C 0.1825 0.31959 0.493 0.0
C1934 C 0.1599 0.35568 0.47254 0.0
C1935 C 0.14482 0.35985 0.49533 0.0
C1936 C 0.14908 0.34395 0.51708 0.0
C1937 C 0.16785 0.32415 0.516 0.0
C1938 C 0.07883 0.39418 0.50613 0.0
C1939 C 0.08471 0.41898 0.49726 0.0
C1940 C 0.09844 0.37511 0.50578 0.0
C1941 C 0.12425 0.38031 0.49621 0.0
C1942 C 0.13014 0.40506 0.48724 0.0
C1943 C 0.11064 0.42425 0.48795 0.0
H1944 H 0.333 0.19499 0.5328 0.0
H1945 H 0.28816 0.15314 0.4746 0.0
H1946 H 0.36906 0.16355 0.52988 0.0
H1947 H 0.32426 0.12208 0.47143 0.0
H1948 H 0.37721 0.0555 0.49758 0.0
H1949 H 0.34279 0.08836 0.49892 0.0
H1950 H 0.40385 0.14678 0.50058 0.0
H1951 H 0.43841 0.11398 0.49966 0.0
C1952 C 0.33097 0.17929 0.51918 0.0
C1953 C 0.30763 0.1765 0.50406 0.0
C1954 C 0.35166 0.16131 0.51744 0.0
C1955 C 0.34941 0.14017 0.50059 0.0
C1956 C 0.3264 0.13786 0.48495 0.0
C1957 C 0.30578 0.1558 0.48666 0.0
C1958 C 0.3834 0.07532 0.49818 0.0
C1959 C 0.41068 0.08198 0.49848 0.0
C1960 C 0.36361 0.09419 0.4988 0.0
C1961 C 0.37058 0.12021 0.49977 0.0
C1962 C 0.39782 0.12691 0.5001 0.0
C1963 C 0.41764 0.10804 0.49942 0.0
H1964 H 0.80469 0.33266 0.47089 0.0
H1965 H 0.82774 0.31834 0.55101 0.0
H1966 H 0.83775 0.36708 0.46835 0.0
H1967 H 0.86082 0.35258 0.54832 0.0
H1968 H 0.93897 0.39128 0.51986 0.0
H1969 H 0.90423 0.35863 0.52275 0.0
H1970 H 0.84695 0.41094 0.48905 0.0
H1971 H 0.88165 0.44378 0.48618 0.0
C1972 C 0.81667 0.33696 0.48799 0.0
C1973 C 0.81364 0.32276 0.51114 0.0
C1974 C 0.83551 0.3567 0.48654 0.0
C1975 C 0.85191 0.36237 0.5081 0.0
C1976 C 0.84861 0.34842 0.53134 0.0
C1977 C 0.82956 0.32893 0.5329 0.0
C1978 C 0.919 0.39585 0.513 0.0
C1979 C 0.91308 0.42015 0.50282 0.0
C1980 C 0.89908 0.37719 0.51483 0.0
C1981 C 0.8729 0.38231 0.5062 0.0
C1982 C 0.867 0.40648 0.49574 0.0
C1983 C 0.88684 0.42529 0.49425 0.0
H1984 H 0.19221 0.66903 0.5376 0.0
H1985 H 0.17049 0.68884 0.45836 0.0
H1986 H 0.15977 0.63406 0.53686 0.0
H1987 H 0.13801 0.65397 0.45775 0.0
H1988 H 0.05977 0.61251 0.48225 0.0
H1989 H 0.09429 0.64547 0.4817 0.0
H1990 H 0.15147 0.59176 0.51321 0.0
H1991 H 0.11697 0.55862 0.51376 0.0
C1992 C 0.18066 0.66582 0.51998 0.0
C1993 C 0.18386 0.68174 0.49806 0.0
C1994 C 0.16218 0.64574 0.51954 0.0
C1995 C 0.14631 0.6414 0.4973 0.0
C1996 C 0.14981 0.65706 0.47525 0.0
C1997 C 0.16851 0.67692 0.47556 0.0
C1998 C 0.07967 0.60769 0.48912 0.0
C1999 C 0.08559 0.58293 0.4981 0.0
C2000 C 0.09948 0.62653 0.4886 0.0
C2001 C 0.12555 0.62114 0.49736 0.0
C2002 C 0.13149 0.59645 0.50647 0.0
C2003 C 0.11176 0.57748 0.50665 0.0
loop_
_geom_bond_atom_site_label_1
_geom_bond_atom_site_label_2
_geom_bond_distance
_geom_bond_site_symmetry_2
_ccdc_geom_bond_type
O0 Cd1 2.300 1_455 S
O0 C7 1.275 1_455 S
Cd1 O0 2.300 1_655 S
Cd1 O9 2.381 1_655 S
Cd1 O10 2.378 . S
O2 Cd3 2.385 . S
O2 C7 1.255 . S
Cd3 O2 2.385 . S
Cd3 O4 2.317 . S
O4 Cd3 2.317 . S
O4 C5 1.232 . S
C5 O4 1.232 . S
C5 O6 1.218 . S
O6 C5 1.218 . S
C7 O0 1.275 1_655 S
C7 O2 1.255 . S
C8 O9 1.258 1_655 S
C8 O10 1.256 . S
O9 Cd1 2.381 1_455 S
O9 C8 1.258 1_455 S
O10 Cd1 2.378 . S
O10 C8 1.256 . S
O11 Cd12 2.300 1_565 S
O11 C18 1.275 1_565 S
Cd12 O11 2.300 1_545 S
Cd12 O20 2.381 1_545 S
Cd12 O21 2.378 . S
O13 Cd14 2.385 . S
O13 C18 1.255 . S
Cd14 O13 2.385 . S
Cd14 O15 2.317 . S
O15 Cd14 2.317 . S
O15 C16 1.232 . S
C16 O15 1.232 . S
C16 O17 1.218 . S
O17 C16 1.218 . S
C18 O11 1.275 1_545 S
C18 O13 1.255 . S
C19 O20 1.258 1_545 S
C19 O21 1.256 . S
O20 Cd12 2.381 1_565 S
O20 C19 1.258 1_565 S
O21 Cd12 2.378 . S
O21 C19 1.256 . S
O22 Cd23 2.300 1_655 S
O22 C29 1.275 1_655 S
Cd23 O22 2.300 1_455 S
Cd23 O31 2.381 1_455 S
Cd23 O32 2.378 . S
O24 Cd25 2.385 . S
O24 C29 1.255 . S
Cd25 O24 2.385 . S
Cd25 O26 2.317 . S
O26 Cd25 2.317 . S
O26 C27 1.232 . S
C27 O26 1.232 . S
C27 O28 1.218 . S
O28 C27 1.218 . S
C29 O22 1.275 1_455 S
C29 O24 1.255 . S
C30 O31 1.258 1_455 S
C30 O32 1.256 . S
O31 Cd23 2.381 1_655 S
O31 C30 1.258 1_655 S
O32 Cd23 2.378 . S
O32 C30 1.256 . S
O33 Cd34 2.300 1_545 S
O33 C40 1.275 1_545 S
Cd34 O33 2.300 1_565 S
Cd34 O42 2.381 1_565 S
Cd34 O43 2.378 . S
O35 Cd36 2.385 . S
O35 C40 1.255 . S
Cd36 O35 2.385 . S
Cd36 O37 2.317 . S
O37 Cd36 2.317 . S
O37 C38 1.232 . S
C38 O37 1.232 . S
C38 O39 1.218 . S
O39 C38 1.218 . S
C40 O33 1.275 1_565 S
C40 O35 1.255 . S
C41 O42 1.258 1_565 S
C41 O43 1.256 . S
O42 Cd34 2.381 1_545 S
O42 C41 1.258 1_545 S
O43 Cd34 2.378 . S
O43 C41 1.256 . S
O44 Cd45 2.300 1_455 S
O44 C51 1.275 1_455 S
Cd45 O44 2.300 1_655 S
Cd45 O53 2.381 1_655 S
Cd45 O54 2.378 . S
O46 Cd47 2.385 . S
O46 C51 1.255 . S
Cd47 O46 2.385 . S
Cd47 O48 2.317 . S
O48 Cd47 2.317 . S
O48 C49 1.232 . S
C49 O48 1.232 . S
C49 O50 1.218 . S
O50 C49 1.218 . S
C51 O44 1.275 1_655 S
C51 O46 1.255 . S
C52 O53 1.258 1_655 S
C52 O54 1.256 . S
O53 Cd45 2.381 1_455 S
O53 C52 1.258 1_455 S
O54 Cd45 2.378 . S
O54 C52 1.256 . S
O55 Cd56 2.300 1_565 S
O55 C62 1.275 1_565 S
Cd56 O55 2.300 1_545 S
Cd56 O64 2.381 1_545 S
Cd56 O65 2.378 . S
O57 Cd58 2.385 . S
O57 C62 1.255 . S
Cd58 O57 2.385 . S
Cd58 O59 2.317 . S
O59 Cd58 2.317 . S
O59 C60 1.232 . S
C60 O59 1.232 . S
C60 O61 1.218 . S
O61 C60 1.218 . S
C62 O55 1.275 1_545 S
C62 O57 1.255 . S
C63 O64 1.258 1_545 S
C63 O65 1.256 . S
O64 Cd56 2.381 1_565 S
O64 C63 1.258 1_565 S
O65 Cd56 2.378 . S
O65 C63 1.256 . S
O66 Cd67 2.300 1_655 S
O66 C73 1.275 1_655 S
Cd67 O66 2.300 1_455 S
Cd67 O75 2.381 1_455 S
Cd67 O76 2.378 . S
O68 Cd69 2.385 . S
O68 C73 1.255 . S
Cd69 O68 2.385 . S
Cd69 O70 2.317 . S
O70 Cd69 2.317 . S
O70 C71 1.232 . S
C71 O70 1.232 . S
C71 O72 1.218 . S
O72 C71 1.218 . S
C73 O66 1.275 1_455 S
C73 O68 1.255 . S
C74 O75 1.258 1_455 S
C74 O76 1.256 . S
O75 Cd67 2.381 1_655 S
O75 C74 1.258 1_655 S
O76 Cd67 2.378 . S
O76 C74 1.256 . S
O77 Cd78 2.300 1_545 S
O77 C84 1.275 1_545 S
Cd78 O77 2.300 1_565 S
Cd78 O86 2.381 1_565 S
Cd78 O87 2.378 . S
O79 Cd80 2.385 . S
O79 C84 1.255 . S
Cd80 O79 2.385 . S
Cd80 O81 2.317 . S
O81 Cd80 2.317 . S
O81 C82 1.232 . S
C82 O81 1.232 . S
C82 O83 1.218 . S
O83 C82 1.218 . S
C84 O77 1.275 1_565 S
C84 O79 1.255 . S
C85 O86 1.258 1_565 S
C85 O87 1.256 . S
O86 Cd78 2.381 1_545 S
O86 C85 1.258 1_545 S
O87 Cd78 2.378 . S
O87 C85 1.256 . S
O88 Cd89 2.300 1_556 S
O88 C95 1.275 1_556 S
Cd89 O88 2.300 1_554 S
Cd89 O97 2.381 1_554 S
Cd89 O98 2.378 . S
O90 Cd91 2.385 . S
O90 C95 1.255 . S
Cd91 O90 2.385 . S
Cd91 O92 2.317 . S
O92 Cd91 2.317 . S
O92 C93 1.232 . S
C93 O92 1.232 . S
C93 O94 1.218 . S
O94 C93 1.218 . S
C95 O88 1.275 1_554 S
C95 O90 1.255 . S
C96 O97 1.258 1_554 S
C96 O98 1.256 . S
O97 Cd89 2.381 1_556 S
O97 C96 1.258 1_556 S
O98 Cd89 2.378 . S
O98 C96 1.256 . S
O99 Cd100 2.300 1_554 S
O99 C106 1.275 1_554 S
Cd100 O99 2.300 1_556 S
Cd100 O108 2.381 1_556 S
Cd100 O109 2.378 . S
O101 Cd102 2.385 . S
O101 C106 1.255 . S
Cd102 O101 2.385 . S
Cd102 O103 2.317 . S
O103 Cd102 2.317 . S
O103 C104 1.232 . S
C104 O103 1.232 . S
C104 O105 1.218 . S
O105 C104 1.218 . S
C106 O99 1.275 1_556 S
C106 O101 1.255 . S
C107 O108 1.258 1_556 S
C107 O109 1.256 . S
O108 Cd100 2.381 1_554 S
O108 C107 1.258 1_554 S
O109 Cd100 2.378 . S
O109 C107 1.256 . S
O110 Cd111 2.300 1_554 S
O110 C117 1.275 1_554 S
Cd111 O110 2.300 1_556 S
Cd111 O119 2.381 1_556 S
Cd111 O120 2.378 . S
O112 Cd113 2.385 . S
O112 C117 1.255 . S
Cd113 O112 2.385 . S
Cd113 O114 2.317 . S
O114 Cd113 2.317 . S
O114 C115 1.232 . S
C115 O114 1.232 . S
C115 O116 1.218 . S
O116 C115 1.218 . S
C117 O110 1.275 1_556 S
C117 O112 1.255 . S
C118 O119 1.258 1_556 S
C118 O120 1.256 . S
O119 Cd111 2.381 1_554 S
O119 C118 1.258 1_554 S
O120 Cd111 2.378 . S
O120 C118 1.256 . S
O121 Cd122 2.300 1_556 S
O121 C128 1.275 1_556 S
Cd122 O121 2.300 1_554 S
Cd122 O130 2.381 1_554 S
Cd122 O131 2.378 . S
O123 Cd124 2.385 . S
O123 C128 1.255 . S
Cd124 O123 2.385 . S
Cd124 O125 2.317 . S
O125 Cd124 2.317 . S
O125 C126 1.232 . S
C126 O125 1.232 . S
C126 O127 1.218 . S
O127 C126 1.218 . S
C128 O121 1.275 1_554 S
C128 O123 1.255 . S
C129 O130 1.258 1_554 S
C129 O131 1.256 . S
O130 Cd122 2.381 1_556 S
O130 C129 1.258 1_556 S
O131 Cd122 2.378 . S
O131 C129 1.256 . S
O132 Cd133 2.300 . S
O132 C139 1.275 . S
Cd133 O132 2.300 . S
Cd133 O141 2.381 . S
Cd133 O142 2.378 . S
O134 Cd135 2.385 . S
O134 C139 1.255 . S
Cd135 O134 2.385 . S
Cd135 O136 2.317 . S
O136 Cd135 2.317 . S
O136 C137 1.232 . S
C137 O136 1.232 . S
C137 O138 1.218 . S
O138 C137 1.218 . S
C139 O132 1.275 . S
C139 O134 1.255 . S
C140 O141 1.258 . S
C140 O142 1.256 . S
O141 Cd133 2.381 . S
O141 C140 1.258 . S
O142 Cd133 2.378 . S
O142 C140 1.256 . S
O143 Cd144 2.300 . S
O143 C150 1.275 . S
Cd144 O143 2.300 . S
Cd144 O152 2.381 . S
Cd144 O153 2.378 . S
O145 Cd146 2.385 . S
O145 C150 1.255 . S
Cd146 O145 2.385 . S
Cd146 O147 2.317 . S
O147 Cd146 2.317 . S
O147 C148 1.232 . S
C148 O147 1.232 . S
C148 O149 1.218 . S
O149 C148 1.218 . S
C150 O143 1.275 . S
C150 O145 1.255 . S
C151 O152 1.258 . S
C151 O153 1.256 . S
O152 Cd144 2.381 . S
O152 C151 1.258 . S
O153 Cd144 2.378 . S
O153 C151 1.256 . S
O154 Cd155 2.300 . S
O154 C161 1.275 . S
Cd155 O154 2.300 . S
Cd155 O163 2.381 . S
Cd155 O164 2.378 . S
O156 Cd157 2.385 . S
O156 C161 1.255 . S
Cd157 O156 2.385 . S
Cd157 O158 2.317 . S
O158 Cd157 2.317 . S
O158 C159 1.232 . S
C159 O158 1.232 . S
C159 O160 1.218 . S
O160 C159 1.218 . S
C161 O154 1.275 . S
C161 O156 1.255 . S
C162 O163 1.258 . S
C162 O164 1.256 . S
O163 Cd155 2.381 . S
O163 C162 1.258 . S
O164 Cd155 2.378 . S
O164 C162 1.256 . S
O165 Cd166 2.300 . S
O165 C172 1.275 . S
Cd166 O165 2.300 . S
Cd166 O174 2.381 . S
Cd166 O175 2.378 . S
O167 Cd168 2.385 . S
O167 C172 1.255 . S
Cd168 O167 2.385 . S
Cd168 O169 2.317 . S
O169 Cd168 2.317 . S
O169 C170 1.232 . S
C170 O169 1.232 . S
C170 O171 1.218 . S
O171 C170 1.218 . S
C172 O165 1.275 . S
C172 O167 1.255 . S
C173 O174 1.258 . S
C173 O175 1.256 . S
O174 Cd166 2.381 . S
O174 C173 1.258 . S
O175 Cd166 2.378 . S
O175 C173 1.256 . S
O176 Cd177 2.300 . S
O176 C183 1.275 . S
Cd177 O176 2.300 . S
Cd177 O185 2.381 . S
Cd177 O186 2.378 . S
O178 Cd179 2.385 . S
O178 C183 1.255 . S
Cd179 O178 2.385 . S
Cd179 O180 2.317 . S
O180 Cd179 2.317 . S
O180 C181 1.232 . S
C181 O180 1.232 . S
C181 O182 1.218 . S
O182 C181 1.218 . S
C183 O176 1.275 . S
C183 O178 1.255 . S
C184 O185 1.258 . S
C184 O186 1.256 . S
O185 Cd177 2.381 . S
O185 C184 1.258 . S
O186 Cd177 2.378 . S
O186 C184 1.256 . S
O187 Cd188 2.300 . S
O187 C194 1.275 . S
Cd188 O187 2.300 . S
Cd188 O196 2.381 . S
Cd188 O197 2.378 . S
O189 Cd190 2.385 . S
O189 C194 1.255 . S
Cd190 O189 2.385 . S
Cd190 O191 2.317 . S
O191 Cd190 2.317 . S
O191 C192 1.232 . S
C192 O191 1.232 . S
C192 O193 1.218 . S
O193 C192 1.218 . S
C194 O187 1.275 . S
C194 O189 1.255 . S
C195 O196 1.258 . S
C195 O197 1.256 . S
O196 Cd188 2.381 . S
O196 C195 1.258 . S
O197 Cd188 2.378 . S
O197 C195 1.256 . S
O198 Cd199 2.300 . S
O198 C205 1.275 . S
Cd199 O198 2.300 . S
Cd199 O207 2.381 . S
Cd199 O208 2.378 . S
O200 Cd201 2.385 . S
O200 C205 1.255 . S
Cd201 O200 2.385 . S
Cd201 O202 2.317 . S
O202 Cd201 2.317 . S
O202 C203 1.232 . S
C203 O202 1.232 . S
C203 O204 1.218 . S
O204 C203 1.218 . S
C205 O198 1.275 . S
C205 O200 1.255 . S
C206 O207 1.258 . S
C206 O208 1.256 . S
O207 Cd199 2.381 . S
O207 C206 1.258 . S
O208 Cd199 2.378 . S
O208 C206 1.256 . S
O209 Cd210 2.300 . S
O209 C216 1.275 . S
Cd210 O209 2.300 . S
Cd210 O218 2.381 . S
Cd210 O219 2.378 . S
O211 Cd212 2.385 . S
O211 C216 1.255 . S
Cd212 O211 2.385 . S
Cd212 O213 2.317 . S
O213 Cd212 2.317 . S
O213 C214 1.232 . S
C214 O213 1.232 . S
C214 O215 1.218 . S
O215 C214 1.218 . S
C216 O209 1.275 . S
C216 O211 1.255 . S
C217 O218 1.258 . S
C217 O219 1.256 . S
O218 Cd210 2.381 . S
O218 C217 1.258 . S
O219 Cd210 2.378 . S
O219 C217 1.256 . S
O220 Cd221 2.300 . S
O220 C227 1.275 . S
Cd221 O220 2.300 . S
Cd221 O229 2.381 . S
Cd221 O230 2.378 . S
O222 Cd223 2.385 . S
O222 C227 1.255 . S
Cd223 O222 2.385 . S
Cd223 O224 2.317 . S
O224 Cd223 2.317 . S
O224 C225 1.232 . S
C225 O224 1.232 . S
C225 O226 1.218 . S
O226 C225 1.218 . S
C227 O220 1.275 . S
C227 O222 1.255 . S
C228 O229 1.258 . S
C228 O230 1.256 . S
O229 Cd221 2.381 . S
O229 C228 1.258 . S
O230 Cd221 2.378 . S
O230 C228 1.256 . S
O231 Cd232 2.300 . S
O231 C238 1.275 . S
Cd232 O231 2.300 . S
Cd232 O240 2.381 . S
Cd232 O241 2.378 . S
O233 Cd234 2.385 . S
O233 C238 1.255 . S
Cd234 O233 2.385 . S
Cd234 O235 2.317 . S
O235 Cd234 2.317 . S
O235 C236 1.232 . S
C236 O235 1.232 . S
C236 O237 1.218 . S
O237 C236 1.218 . S
C238 O231 1.275 . S
C238 O233 1.255 . S
C239 O240 1.258 . S
C239 O241 1.256 . S
O240 Cd232 2.381 . S
O240 C239 1.258 . S
O241 Cd232 2.378 . S
O241 C239 1.256 . S
O242 Cd243 2.300 . S
O242 C249 1.275 . S
Cd243 O242 2.300 . S
Cd243 O251 2.381 . S
Cd243 O252 2.378 . S
O244 Cd245 2.385 . S
O244 C249 1.255 . S
Cd245 O244 2.385 . S
Cd245 O246 2.317 . S
O246 Cd245 2.317 . S
O246 C247 1.232 . S
C247 O246 1.232 . S
C247 O248 1.218 . S
O248 C247 1.218 . S
C249 O242 1.275 . S
C249 O244 1.255 . S
C250 O251 1.258 . S
C250 O252 1.256 . S
O251 Cd243 2.381 . S
O251 C250 1.258 . S
O252 Cd243 2.378 . S
O252 C250 1.256 . S
O253 Cd254 2.300 . S
O253 C260 1.275 . S
Cd254 O253 2.300 . S
Cd254 O262 2.381 . S
Cd254 O263 2.378 . S
O255 Cd256 2.385 . S
O255 C260 1.255 . S
Cd256 O255 2.385 . S
Cd256 O257 2.317 . S
O257 Cd256 2.317 . S
O257 C258 1.232 . S
C258 O257 1.232 . S
C258 O259 1.218 . S
O259 C258 1.218 . S
C260 O253 1.275 . S
C260 O255 1.255 . S
C261 O262 1.258 . S
C261 O263 1.256 . S
O262 Cd254 2.381 . S
O262 C261 1.258 . S
O263 Cd254 2.378 . S
O263 C261 1.256 . S
C264 O290 1.283 . S
C264 O308 1.283 . S
C265 O291 1.283 . S
C265 O306 1.283 . S
C266 O292 1.283 . S
C266 O309 1.283 . S
C267 O293 1.283 . S
C267 O307 1.283 . S
C268 O294 1.283 . S
C268 O303 1.283 . S
C269 O295 1.283 . S
C269 O305 1.283 . S
C270 O296 1.283 . S
C270 O302 1.283 . S
C271 O297 1.283 . S
C271 O304 1.283 . S
C272 O298 1.283 . S
C272 O313 1.283 . S
C273 O299 1.283 . S
C273 O311 1.283 . S
C274 O300 1.283 . S
C274 O312 1.283 . S
C275 O301 1.283 . S
C275 O310 1.283 . S
Eu276 O277 2.370 1_455 S
Eu276 O278 2.370 . S
Eu276 O281 2.370 1_455 S
Eu276 O282 2.370 . S
Eu276 O290 2.363 . S
Eu276 O291 2.363 . S
Eu276 O304 2.363 . S
Eu276 O305 2.363 1_455 S
O277 Eu276 2.370 1_655 S
O277 Eu279 2.370 1_565 S
O277 Eu284 2.370 1_665 S
O278 Eu276 2.370 . S
O278 Eu280 2.370 1_565 S
O278 Eu283 2.370 1_565 S
Eu279 O277 2.370 1_545 S
Eu279 O281 2.370 1_545 S
Eu279 O285 2.370 . S
Eu279 O286 2.370 . S
Eu279 O294 2.363 . S
Eu279 O295 2.363 1_545 S
Eu279 O310 2.363 . S
Eu279 O311 2.363 . S
Eu280 O278 2.370 1_545 S
Eu280 O282 2.370 1_545 S
Eu280 O287 2.370 . S
Eu280 O288 2.370 . S
Eu280 O296 2.363 . S
Eu280 O297 2.363 1_545 S
Eu280 O312 2.363 . S
Eu280 O313 2.363 . S
O281 Eu276 2.370 1_655 S
O281 Eu279 2.370 1_565 S
O281 Eu283 2.370 1_665 S
O282 Eu276 2.370 . S
O282 Eu280 2.370 1_565 S
O282 Eu284 2.370 1_565 S
Eu283 O278 2.370 1_545 S
Eu283 O281 2.370 1_445 S
Eu283 O285 2.370 1_455 S
Eu283 O288 2.370 . S
Eu283 O300 2.363 . S
Eu283 O301 2.363 1_455 S
Eu283 O308 2.363 1_545 S
Eu283 O309 2.363 . S
Eu284 O277 2.370 1_445 S
Eu284 O282 2.370 1_545 S
Eu284 O286 2.370 1_455 S
Eu284 O287 2.370 . S
Eu284 O298 2.363 . S
Eu284 O299 2.363 1_455 S
Eu284 O306 2.363 1_545 S
Eu284 O307 2.363 . S
O285 Eu279 2.370 . S
O285 Eu283 2.370 1_655 S
O285 Eu289 2.370 1_655 S
O286 Eu279 2.370 . S
O286 Eu284 2.370 1_655 S
O286 Eu289 2.370 1_655 S
O287 Eu280 2.370 . S
O287 Eu284 2.370 . S
O287 Eu289 2.370 . S
O288 Eu280 2.370 . S
O288 Eu283 2.370 . S
O288 Eu289 2.370 . S
Eu289 O285 2.370 1_455 S
Eu289 O286 2.370 1_455 S
Eu289 O287 2.370 . S
Eu289 O288 2.370 . S
Eu289 O292 2.363 . S
Eu289 O293 2.363 . S
Eu289 O302 2.363 . S
Eu289 O303 2.363 1_455 S
O290 C264 1.283 . S
O290 Eu276 2.363 . S
O291 C265 1.283 . S
O291 Eu276 2.363 . S
O292 C266 1.283 . S
O292 Eu289 2.363 . S
O293 C267 1.283 . S
O293 Eu289 2.363 . S
O294 C268 1.283 . S
O294 Eu279 2.363 . S
O295 C269 1.283 . S
O295 Eu279 2.363 1_565 S
O296 C270 1.283 . S
O296 Eu280 2.363 . S
O297 C271 1.283 . S
O297 Eu280 2.363 1_565 S
O298 C272 1.283 . S
O298 Eu284 2.363 . S
O299 C273 1.283 . S
O299 Eu284 2.363 1_655 S
O300 C274 1.283 . S
O300 Eu283 2.363 . S
O301 C275 1.283 . S
O301 Eu283 2.363 1_655 S
O302 C270 1.283 . S
O302 Eu289 2.363 . S
O303 C268 1.283 . S
O303 Eu289 2.363 1_655 S
O304 C271 1.283 . S
O304 Eu276 2.363 . S
O305 C269 1.283 . S
O305 Eu276 2.363 1_655 S
O306 C265 1.283 . S
O306 Eu284 2.363 1_565 S
O307 C267 1.283 . S
O307 Eu284 2.363 . S
O308 C264 1.283 . S
O308 Eu283 2.363 1_565 S
O309 C266 1.283 . S
O309 Eu283 2.363 . S
O310 C275 1.283 . S
O310 Eu279 2.363 . S
O311 C273 1.283 . S
O311 Eu279 2.363 . S
O312 C274 1.283 . S
O312 Eu280 2.363 . S
O313 C272 1.283 . S
O313 Eu280 2.363 . S
C314 O340 1.283 . S
C314 O358 1.283 . S
C315 O341 1.283 . S
C315 O356 1.283 . S
C316 O342 1.283 . S
C316 O359 1.283 . S
C317 O343 1.283 . S
C317 O357 1.283 . S
C318 O344 1.283 . S
C318 O353 1.283 . S
C319 O345 1.283 . S
C319 O355 1.283 . S
C320 O346 1.283 . S
C320 O352 1.283 . S
C321 O347 1.283 . S
C321 O354 1.283 . S
C322 O348 1.283 . S
C322 O363 1.283 . S
C323 O349 1.283 . S
C323 O361 1.283 . S
C324 O350 1.283 . S
C324 O362 1.283 . S
C325 O351 1.283 . S
C325 O360 1.283 . S
Eu326 O327 2.370 . S
Eu326 O328 2.370 1_545 S
Eu326 O331 2.370 1_545 S
Eu326 O332 2.370 . S
Eu326 O340 2.363 1_545 S
Eu326 O341 2.363 . S
Eu326 O354 2.363 . S
Eu326 O355 2.363 . S
O327 Eu326 2.370 . S
O327 Eu329 2.370 . S
O327 Eu334 2.370 . S
O328 Eu326 2.370 1_565 S
O328 Eu330 2.370 1_565 S
O328 Eu333 2.370 . S
Eu329 O327 2.370 . S
Eu329 O331 2.370 1_545 S
Eu329 O335 2.370 1_544 S
Eu329 O336 2.370 1_554 S
Eu329 O344 2.363 1_554 S
Eu329 O345 2.363 . S
Eu329 O360 2.363 1_545 S
Eu329 O361 2.363 . S
Eu330 O328 2.370 1_545 S
Eu330 O332 2.370 . S
Eu330 O337 2.370 1_554 S
Eu330 O338 2.370 1_544 S
Eu330 O346 2.363 1_554 S
Eu330 O347 2.363 . S
Eu330 O362 2.363 1_545 S
Eu330 O363 2.363 . S
O331 Eu326 2.370 1_565 S
O331 Eu329 2.370 1_565 S
O331 Eu333 2.370 . S
O332 Eu326 2.370 . S
O332 Eu330 2.370 . S
O332 Eu334 2.370 . S
Eu333 O328 2.370 . S
Eu333 O331 2.370 . S
Eu333 O335 2.370 1_554 S
Eu333 O338 2.370 1_554 S
Eu333 O350 2.363 . S
Eu333 O351 2.363 . S
Eu333 O358 2.363 . S
Eu333 O359 2.363 1_554 S
Eu334 O327 2.370 . S
Eu334 O332 2.370 . S
Eu334 O336 2.370 1_554 S
Eu334 O337 2.370 1_554 S
Eu334 O348 2.363 . S
Eu334 O349 2.363 . S
Eu334 O356 2.363 . S
Eu334 O357 2.363 1_554 S
O335 Eu329 2.370 1_566 S
O335 Eu333 2.370 1_556 S
O335 Eu339 2.370 1_565 S
O336 Eu329 2.370 1_556 S
O336 Eu334 2.370 1_556 S
O336 Eu339 2.370 . S
O337 Eu330 2.370 1_556 S
O337 Eu334 2.370 1_556 S
O337 Eu339 2.370 . S
O338 Eu330 2.370 1_566 S
O338 Eu333 2.370 1_556 S
O338 Eu339 2.370 1_565 S
Eu339 O335 2.370 1_545 S
Eu339 O336 2.370 . S
Eu339 O337 2.370 . S
Eu339 O338 2.370 1_545 S
Eu339 O342 2.363 1_545 S
Eu339 O343 2.363 . S
Eu339 O352 2.363 . S
Eu339 O353 2.363 . S
O340 C314 1.283 . S
O340 Eu326 2.363 1_565 S
O341 C315 1.283 . S
O341 Eu326 2.363 . S
O342 C316 1.283 . S
O342 Eu339 2.363 1_565 S
O343 C317 1.283 . S
O343 Eu339 2.363 . S
O344 C318 1.283 . S
O344 Eu329 2.363 1_556 S
O345 C319 1.283 . S
O345 Eu329 2.363 . S
O346 C320 1.283 . S
O346 Eu330 2.363 1_556 S
O347 C321 1.283 . S
O347 Eu330 2.363 . S
O348 C322 1.283 . S
O348 Eu334 2.363 . S
O349 C323 1.283 . S
O349 Eu334 2.363 . S
O350 C324 1.283 . S
O350 Eu333 2.363 . S
O351 C325 1.283 . S
O351 Eu333 2.363 . S
O352 C320 1.283 . S
O352 Eu339 2.363 . S
O353 C318 1.283 . S
O353 Eu339 2.363 . S
O354 C321 1.283 . S
O354 Eu326 2.363 . S
O355 C319 1.283 . S
O355 Eu326 2.363 . S
O356 C315 1.283 . S
O356 Eu334 2.363 . S
O357 C317 1.283 . S
O357 Eu334 2.363 1_556 S
O358 C314 1.283 . S
O358 Eu333 2.363 . S
O359 C316 1.283 . S
O359 Eu333 2.363 1_556 S
O360 C325 1.283 . S
O360 Eu329 2.363 1_565 S
O361 C323 1.283 . S
O361 Eu329 2.363 . S
O362 C324 1.283 . S
O362 Eu330 2.363 1_565 S
O363 C322 1.283 . S
O363 Eu330 2.363 . S
C364 O390 1.283 . S
C364 O408 1.283 . S
C365 O391 1.283 . S
C365 O406 1.283 . S
C366 O392 1.283 . S
C366 O409 1.283 . S
C367 O393 1.283 . S
C367 O407 1.283 . S
C368 O394 1.283 . S
C368 O403 1.283 . S
C369 O395 1.283 . S
C369 O405 1.283 . S
C370 O396 1.283 . S
C370 O402 1.283 . S
C371 O397 1.283 . S
C371 O404 1.283 . S
C372 O398 1.283 . S
C372 O413 1.283 . S
C373 O399 1.283 . S
C373 O411 1.283 . S
C374 O400 1.283 . S
C374 O412 1.283 . S
C375 O401 1.283 . S
C375 O410 1.283 . S
Eu376 O377 2.370 1_454 S
Eu376 O378 2.370 . S
Eu376 O381 2.370 1_455 S
Eu376 O382 2.370 1_554 S
Eu376 O390 2.363 . S
Eu376 O391 2.363 1_554 S
Eu376 O404 2.363 . S
Eu376 O405 2.363 1_455 S
O377 Eu376 2.370 1_656 S
O377 Eu379 2.370 1_556 S
O377 Eu384 2.370 1_655 S
O378 Eu376 2.370 . S
O378 Eu380 2.370 . S
O378 Eu383 2.370 . S
Eu379 O377 2.370 1_554 S
Eu379 O381 2.370 . S
Eu379 O385 2.370 . S
Eu379 O386 2.370 1_554 S
Eu379 O394 2.363 . S
Eu379 O395 2.363 . S
Eu379 O410 2.363 . S
Eu379 O411 2.363 1_554 S
Eu380 O378 2.370 . S
Eu380 O382 2.370 1_554 S
Eu380 O387 2.370 1_554 S
Eu380 O388 2.370 . S
Eu380 O396 2.363 . S
Eu380 O397 2.363 . S
Eu380 O412 2.363 . S
Eu380 O413 2.363 1_554 S
O381 Eu376 2.370 1_655 S
O381 Eu379 2.370 . S
O381 Eu383 2.370 1_655 S
O382 Eu376 2.370 1_556 S
O382 Eu380 2.370 1_556 S
O382 Eu384 2.370 . S
Eu383 O378 2.370 . S
Eu383 O381 2.370 1_455 S
Eu383 O385 2.370 1_455 S
Eu383 O388 2.370 . S
Eu383 O400 2.363 . S
Eu383 O401 2.363 1_455 S
Eu383 O408 2.363 . S
Eu383 O409 2.363 . S
Eu384 O377 2.370 1_455 S
Eu384 O382 2.370 . S
Eu384 O386 2.370 1_455 S
Eu384 O387 2.370 . S
Eu384 O398 2.363 . S
Eu384 O399 2.363 1_455 S
Eu384 O406 2.363 . S
Eu384 O407 2.363 . S
O385 Eu379 2.370 . S
O385 Eu383 2.370 1_655 S
O385 Eu389 2.370 1_655 S
O386 Eu379 2.370 1_556 S
O386 Eu384 2.370 1_655 S
O386 Eu389 2.370 1_656 S
O387 Eu380 2.370 1_556 S
O387 Eu384 2.370 . S
O387 Eu389 2.370 1_556 S
O388 Eu380 2.370 . S
O388 Eu383 2.370 . S
O388 Eu389 2.370 . S
Eu389 O385 2.370 1_455 S
Eu389 O386 2.370 1_454 S
Eu389 O387 2.370 1_554 S
Eu389 O388 2.370 . S
Eu389 O392 2.363 . S
Eu389 O393 2.363 1_554 S
Eu389 O402 2.363 . S
Eu389 O403 2.363 1_455 S
O390 C364 1.283 . S
O390 Eu376 2.363 . S
O391 C365 1.283 . S
O391 Eu376 2.363 1_556 S
O392 C366 1.283 . S
O392 Eu389 2.363 . S
O393 C367 1.283 . S
O393 Eu389 2.363 1_556 S
O394 C368 1.283 . S
O394 Eu379 2.363 . S
O395 C369 1.283 . S
O395 Eu379 2.363 . S
O396 C370 1.283 . S
O396 Eu380 2.363 . S
O397 C371 1.283 . S
O397 Eu380 2.363 . S
O398 C372 1.283 . S
O398 Eu384 2.363 . S
O399 C373 1.283 . S
O399 Eu384 2.363 1_655 S
O400 C374 1.283 . S
O400 Eu383 2.363 . S
O401 C375 1.283 . S
O401 Eu383 2.363 1_655 S
O402 C370 1.283 . S
O402 Eu389 2.363 . S
O403 C368 1.283 . S
O403 Eu389 2.363 1_655 S
O404 C371 1.283 . S
O404 Eu376 2.363 . S
O405 C369 1.283 . S
O405 Eu376 2.363 1_655 S
O406 C365 1.283 . S
O406 Eu384 2.363 . S
O407 C367 1.283 . S
O407 Eu384 2.363 . S
O408 C364 1.283 . S
O408 Eu383 2.363 . S
O409 C366 1.283 . S
O409 Eu383 2.363 . S
O410 C375 1.283 . S
O410 Eu379 2.363 . S
O411 C373 1.283 . S
O411 Eu379 2.363 1_556 S
O412 C374 1.283 . S
O412 Eu380 2.363 . S
O413 C372 1.283 . S
O413 Eu380 2.363 1_556 S
C414 O440 1.283 . S
C414 O458 1.283 . S
C415 O441 1.283 . S
C415 O456 1.283 . S
C416 O442 1.283 . S
C416 O459 1.283 . S
C417 O443 1.283 . S
C417 O457 1.283 . S
C418 O444 1.283 . S
C418 O453 1.283 . S
C419 O445 1.283 . S
C419 O455 1.283 . S
C420 O446 1.283 . S
C420 O452 1.283 . S
C421 O447 1.283 . S
C421 O454 1.283 . S
C422 O448 1.283 . S
C422 O463 1.283 . S
C423 O449 1.283 . S
C423 O461 1.283 . S
C424 O450 1.283 . S
C424 O462 1.283 . S
C425 O451 1.283 . S
C425 O460 1.283 . S
Eu426 O427 2.370 . S
Eu426 O428 2.370 . S
Eu426 O431 2.370 . S
Eu426 O432 2.370 . S
Eu426 O440 2.363 . S
Eu426 O441 2.363 . S
Eu426 O454 2.363 . S
Eu426 O455 2.363 . S
O427 Eu426 2.370 . S
O427 Eu429 2.370 . S
O427 Eu434 2.370 . S
O428 Eu426 2.370 . S
O428 Eu430 2.370 . S
O428 Eu433 2.370 . S
Eu429 O427 2.370 . S
Eu429 O431 2.370 . S
Eu429 O435 2.370 1_554 S
Eu429 O436 2.370 1_554 S
Eu429 O444 2.363 1_554 S
Eu429 O445 2.363 . S
Eu429 O460 2.363 . S
Eu429 O461 2.363 . S
Eu430 O428 2.370 . S
Eu430 O432 2.370 . S
Eu430 O437 2.370 1_554 S
Eu430 O438 2.370 1_554 S
Eu430 O446 2.363 1_554 S
Eu430 O447 2.363 . S
Eu430 O462 2.363 . S
Eu430 O463 2.363 . S
O431 Eu426 2.370 . S
O431 Eu429 2.370 . S
O431 Eu433 2.370 . S
O432 Eu426 2.370 . S
O432 Eu430 2.370 . S
O432 Eu434 2.370 . S
Eu433 O428 2.370 . S
Eu433 O431 2.370 . S
Eu433 O435 2.370 1_554 S
Eu433 O438 2.370 1_554 S
Eu433 O450 2.363 . S
Eu433 O451 2.363 . S
Eu433 O458 2.363 . S
Eu433 O459 2.363 1_554 S
Eu434 O427 2.370 . S
Eu434 O432 2.370 . S
Eu434 O436 2.370 1_554 S
Eu434 O437 2.370 1_554 S
Eu434 O448 2.363 . S
Eu434 O449 2.363 . S
Eu434 O456 2.363 . S
Eu434 O457 2.363 1_554 S
O435 Eu429 2.370 1_556 S
O435 Eu433 2.370 1_556 S
O435 Eu439 2.370 . S
O436 Eu429 2.370 1_556 S
O436 Eu434 2.370 1_556 S
O436 Eu439 2.370 . S
O437 Eu430 2.370 1_556 S
O437 Eu434 2.370 1_556 S
O437 Eu439 2.370 . S
O438 Eu430 2.370 1_556 S
O438 Eu433 2.370 1_556 S
O438 Eu439 2.370 . S
Eu439 O435 2.370 . S
Eu439 O436 2.370 . S
Eu439 O437 2.370 . S
Eu439 O438 2.370 . S
Eu439 O442 2.363 . S
Eu439 O443 2.363 . S
Eu439 O452 2.363 . S
Eu439 O453 2.363 . S
O440 C414 1.283 . S
O440 Eu426 2.363 . S
O441 C415 1.283 . S
O441 Eu426 2.363 . S
O442 C416 1.283 . S
O442 Eu439 2.363 . S
O443 C417 1.283 . S
O443 Eu439 2.363 . S
O444 C418 1.283 . S
O444 Eu429 2.363 1_556 S
O445 C419 1.283 . S
O445 Eu429 2.363 . S
O446 C420 1.283 . S
O446 Eu430 2.363 1_556 S
O447 C421 1.283 . S
O447 Eu430 2.363 . S
O448 C422 1.283 . S
O448 Eu434 2.363 . S
O449 C423 1.283 . S
O449 Eu434 2.363 . S
O450 C424 1.283 . S
O450 Eu433 2.363 . S
O451 C425 1.283 . S
O451 Eu433 2.363 . S
O452 C420 1.283 . S
O452 Eu439 2.363 . S
O453 C418 1.283 . S
O453 Eu439 2.363 . S
O454 C421 1.283 . S
O454 Eu426 2.363 . S
O455 C419 1.283 . S
O455 Eu426 2.363 . S
O456 C415 1.283 . S
O456 Eu434 2.363 . S
O457 C417 1.283 . S
O457 Eu434 2.363 1_556 S
O458 C414 1.283 . S
O458 Eu433 2.363 . S
O459 C416 1.283 . S
O459 Eu433 2.363 1_556 S
O460 C425 1.283 . S
O460 Eu429 2.363 . S
O461 C423 1.283 . S
O461 Eu429 2.363 . S
O462 C424 1.283 . S
O462 Eu430 2.363 . S
O463 C422 1.283 . S
O463 Eu430 2.363 . S
C464 O490 1.283 . S
C464 O508 1.283 . S
C465 O491 1.283 . S
C465 O506 1.283 . S
C466 O492 1.283 . S
C466 O509 1.283 . S
C467 O493 1.283 . S
C467 O507 1.283 . S
C468 O494 1.283 . S
C468 O503 1.283 . S
C469 O495 1.283 . S
C469 O505 1.283 . S
C470 O496 1.283 . S
C470 O502 1.283 . S
C471 O497 1.283 . S
C471 O504 1.283 . S
C472 O498 1.283 . S
C472 O513 1.283 . S
C473 O499 1.283 . S
C473 O511 1.283 . S
C474 O500 1.283 . S
C474 O512 1.283 . S
C475 O501 1.283 . S
C475 O510 1.283 . S
Eu476 O477 2.370 1_455 S
Eu476 O478 2.370 . S
Eu476 O481 2.370 1_455 S
Eu476 O482 2.370 . S
Eu476 O490 2.363 . S
Eu476 O491 2.363 . S
Eu476 O504 2.363 . S
Eu476 O505 2.363 1_455 S
O477 Eu476 2.370 1_655 S
O477 Eu479 2.370 . S
O477 Eu484 2.370 1_655 S
O478 Eu476 2.370 . S
O478 Eu480 2.370 . S
O478 Eu483 2.370 . S
Eu479 O477 2.370 . S
Eu479 O481 2.370 . S
Eu479 O485 2.370 . S
Eu479 O486 2.370 . S
Eu479 O494 2.363 . S
Eu479 O495 2.363 . S
Eu479 O510 2.363 . S
Eu479 O511 2.363 . S
Eu480 O478 2.370 . S
Eu480 O482 2.370 . S
Eu480 O487 2.370 . S
Eu480 O488 2.370 . S
Eu480 O496 2.363 . S
Eu480 O497 2.363 . S
Eu480 O512 2.363 . S
Eu480 O513 2.363 . S
O481 Eu476 2.370 1_655 S
O481 Eu479 2.370 . S
O481 Eu483 2.370 1_655 S
O482 Eu476 2.370 . S
O482 Eu480 2.370 . S
O482 Eu484 2.370 . S
Eu483 O478 2.370 . S
Eu483 O481 2.370 1_455 S
Eu483 O485 2.370 1_455 S
Eu483 O488 2.370 . S
Eu483 O500 2.363 . S
Eu483 O501 2.363 1_455 S
Eu483 O508 2.363 . S
Eu483 O509 2.363 . S
Eu484 O477 2.370 1_455 S
Eu484 O482 2.370 . S
Eu484 O486 2.370 1_455 S
Eu484 O487 2.370 . S
Eu484 O498 2.363 . S
Eu484 O499 2.363 1_455 S
Eu484 O506 2.363 . S
Eu484 O507 2.363 . S
O485 Eu479 2.370 . S
O485 Eu483 2.370 1_655 S
O485 Eu489 2.370 1_655 S
O486 Eu479 2.370 . S
O486 Eu484 2.370 1_655 S
O486 Eu489 2.370 1_655 S
O487 Eu480 2.370 . S
O487 Eu484 2.370 . S
O487 Eu489 2.370 . S
O488 Eu480 2.370 . S
O488 Eu483 2.370 . S
O488 Eu489 2.370 . S
Eu489 O485 2.370 1_455 S
Eu489 O486 2.370 1_455 S
Eu489 O487 2.370 . S
Eu489 O488 2.370 . S
Eu489 O492 2.363 . S
Eu489 O493 2.363 . S
Eu489 O502 2.363 . S
Eu489 O503 2.363 1_455 S
O490 C464 1.283 . S
O490 Eu476 2.363 . S
O491 C465 1.283 . S
O491 Eu476 2.363 . S
O492 C466 1.283 . S
O492 Eu489 2.363 . S
O493 C467 1.283 . S
O493 Eu489 2.363 . S
O494 C468 1.283 . S
O494 Eu479 2.363 . S
O495 C469 1.283 . S
O495 Eu479 2.363 . S
O496 C470 1.283 . S
O496 Eu480 2.363 . S
O497 C471 1.283 . S
O497 Eu480 2.363 . S
O498 C472 1.283 . S
O498 Eu484 2.363 . S
O499 C473 1.283 . S
O499 Eu484 2.363 1_655 S
O500 C474 1.283 . S
O500 Eu483 2.363 . S
O501 C475 1.283 . S
O501 Eu483 2.363 1_655 S
O502 C470 1.283 . S
O502 Eu489 2.363 . S
O503 C468 1.283 . S
O503 Eu489 2.363 1_655 S
O504 C471 1.283 . S
O504 Eu476 2.363 . S
O505 C469 1.283 . S
O505 Eu476 2.363 1_655 S
O506 C465 1.283 . S
O506 Eu484 2.363 . S
O507 C467 1.283 . S
O507 Eu484 2.363 . S
O508 C464 1.283 . S
O508 Eu483 2.363 . S
O509 C466 1.283 . S
O509 Eu483 2.363 . S
O510 C475 1.283 . S
O510 Eu479 2.363 . S
O511 C473 1.283 . S
O511 Eu479 2.363 . S
O512 C474 1.283 . S
O512 Eu480 2.363 . S
O513 C472 1.283 . S
O513 Eu480 2.363 . S
C514 O540 1.283 . S
C514 O558 1.283 . S
C515 O541 1.283 . S
C515 O556 1.283 . S
C516 O542 1.283 . S
C516 O559 1.283 . S
C517 O543 1.283 . S
C517 O557 1.283 . S
C518 O544 1.283 . S
C518 O553 1.283 . S
C519 O545 1.283 . S
C519 O555 1.283 . S
C520 O546 1.283 . S
C520 O552 1.283 . S
C521 O547 1.283 . S
C521 O554 1.283 . S
C522 O548 1.283 . S
C522 O563 1.283 . S
C523 O549 1.283 . S
C523 O561 1.283 . S
C524 O550 1.283 . S
C524 O562 1.283 . S
C525 O551 1.283 . S
C525 O560 1.283 . S
Eu526 O527 2.370 . S
Eu526 O528 2.370 . S
Eu526 O531 2.370 . S
Eu526 O532 2.370 . S
Eu526 O540 2.363 . S
Eu526 O541 2.363 . S
Eu526 O554 2.363 . S
Eu526 O555 2.363 . S
O527 Eu526 2.370 . S
O527 Eu529 2.370 1_565 S
O527 Eu534 2.370 1_565 S
O528 Eu526 2.370 . S
O528 Eu530 2.370 1_565 S
O528 Eu533 2.370 1_565 S
Eu529 O527 2.370 1_545 S
Eu529 O531 2.370 1_545 S
Eu529 O535 2.370 . S
Eu529 O536 2.370 . S
Eu529 O544 2.363 . S
Eu529 O545 2.363 1_545 S
Eu529 O560 2.363 . S
Eu529 O561 2.363 . S
Eu530 O528 2.370 1_545 S
Eu530 O532 2.370 1_545 S
Eu530 O537 2.370 . S
Eu530 O538 2.370 . S
Eu530 O546 2.363 . S
Eu530 O547 2.363 1_545 S
Eu530 O562 2.363 . S
Eu530 O563 2.363 . S
O531 Eu526 2.370 . S
O531 Eu529 2.370 1_565 S
O531 Eu533 2.370 1_565 S
O532 Eu526 2.370 . S
O532 Eu530 2.370 1_565 S
O532 Eu534 2.370 1_565 S
Eu533 O528 2.370 1_545 S
Eu533 O531 2.370 1_545 S
Eu533 O535 2.370 . S
Eu533 O538 2.370 . S
Eu533 O550 2.363 . S
Eu533 O551 2.363 . S
Eu533 O558 2.363 1_545 S
Eu533 O559 2.363 . S
Eu534 O527 2.370 1_545 S
Eu534 O532 2.370 1_545 S
Eu534 O536 2.370 . S
Eu534 O537 2.370 . S
Eu534 O548 2.363 . S
Eu534 O549 2.363 . S
Eu534 O556 2.363 1_545 S
Eu534 O557 2.363 . S
O535 Eu529 2.370 . S
O535 Eu533 2.370 . S
O535 Eu539 2.370 . S
O536 Eu529 2.370 . S
O536 Eu534 2.370 . S
O536 Eu539 2.370 . S
O537 Eu530 2.370 . S
O537 Eu534 2.370 . S
O537 Eu539 2.370 . S
O538 Eu530 2.370 . S
O538 Eu533 2.370 . S
O538 Eu539 2.370 . S
Eu539 O535 2.370 . S
Eu539 O536 2.370 . S
Eu539 O537 2.370 . S
Eu539 O538 2.370 . S
Eu539 O542 2.363 . S
Eu539 O543 2.363 . S
Eu539 O552 2.363 . S
Eu539 O553 2.363 . S
O540 C514 1.283 . S
O540 Eu526 2.363 . S
O541 C515 1.283 . S
O541 Eu526 2.363 . S
O542 C516 1.283 . S
O542 Eu539 2.363 . S
O543 C517 1.283 . S
O543 Eu539 2.363 . S
O544 C518 1.283 . S
O544 Eu529 2.363 . S
O545 C519 1.283 . S
O545 Eu529 2.363 1_565 S
O546 C520 1.283 . S
O546 Eu530 2.363 . S
O547 C521 1.283 . S
O547 Eu530 2.363 1_565 S
O548 C522 1.283 . S
O548 Eu534 2.363 . S
O549 C523 1.283 . S
O549 Eu534 2.363 . S
O550 C524 1.283 . S
O550 Eu533 2.363 . S
O551 C525 1.283 . S
O551 Eu533 2.363 . S
O552 C520 1.283 . S
O552 Eu539 2.363 . S
O553 C518 1.283 . S
O553 Eu539 2.363 . S
O554 C521 1.283 . S
O554 Eu526 2.363 . S
O555 C519 1.283 . S
O555 Eu526 2.363 . S
O556 C515 1.283 . S
O556 Eu534 2.363 1_565 S
O557 C517 1.283 . S
O557 Eu534 2.363 . S
O558 C514 1.283 . S
O558 Eu533 2.363 1_565 S
O559 C516 1.283 . S
O559 Eu533 2.363 . S
O560 C525 1.283 . S
O560 Eu529 2.363 . S
O561 C523 1.283 . S
O561 Eu529 2.363 . S
O562 C524 1.283 . S
O562 Eu530 2.363 . S
O563 C522 1.283 . S
O563 Eu530 2.363 . S
H564 C572 0.950 . S
H565 C577 0.950 . S
H566 C574 0.950 . S
H567 C576 0.950 . S
H568 C578 0.950 . S
H569 C580 0.950 . S
H570 C582 0.950 . S
H571 C583 0.950 . S
C572 H564 0.950 . S
C572 C573 1.386 . S
C572 C574 1.391 . S
C573 C572 1.386 . S
C573 C577 1.393 . S
C574 H566 0.950 . S
C574 C572 1.391 . S
C574 C575 1.400 . S
C575 C574 1.400 . S
C575 C576 1.398 . S
C575 C581 1.491 . S
C576 H567 0.950 . S
C576 C575 1.398 . S
C576 C577 1.391 . S
C577 H565 0.950 . S
C577 C573 1.393 . S
C577 C576 1.391 . S
C578 H568 0.950 . S
C578 C579 1.386 . S
C578 C580 1.391 . S
C579 C578 1.386 . S
C579 C583 1.393 . S
C580 H569 0.950 . S
C580 C578 1.391 . S
C580 C581 1.400 . S
C581 C575 1.491 . S
C581 C580 1.400 . S
C581 C582 1.398 . S
C582 H570 0.950 . S
C582 C581 1.398 . S
C582 C583 1.391 . S
C583 H571 0.950 . S
C583 C579 1.393 . S
C583 C582 1.391 . S
H584 C592 0.950 . S
H585 C597 0.950 . S
H586 C594 0.950 . S
H587 C596 0.950 . S
H588 C598 0.950 . S
H589 C600 0.950 . S
H590 C602 0.950 . S
H591 C603 0.950 . S
C592 H584 0.950 . S
C592 C593 1.386 . S
C592 C594 1.391 . S
C593 C592 1.386 . S
C593 C597 1.393 . S
C594 H586 0.950 . S
C594 C592 1.391 . S
C594 C595 1.400 . S
C595 C594 1.400 . S
C595 C596 1.398 . S
C595 C601 1.491 . S
C596 H587 0.950 . S
C596 C595 1.398 . S
C596 C597 1.391 . S
C597 H585 0.950 . S
C597 C593 1.393 . S
C597 C596 1.391 . S
C598 H588 0.950 . S
C598 C599 1.386 . S
C598 C600 1.391 . S
C599 C598 1.386 . S
C599 C603 1.393 . S
C600 H589 0.950 . S
C600 C598 1.391 . S
C600 C601 1.400 . S
C601 C595 1.491 . S
C601 C600 1.400 . S
C601 C602 1.398 . S
C602 H590 0.950 . S
C602 C601 1.398 . S
C602 C603 1.391 . S
C603 H591 0.950 . S
C603 C599 1.393 . S
C603 C602 1.391 . S
H604 C612 0.950 . S
H605 C617 0.950 . S
H606 C614 0.950 . S
H607 C616 0.950 . S
H608 C618 0.950 . S
H609 C620 0.950 . S
H610 C622 0.950 . S
H611 C623 0.950 . S
C612 H604 0.950 . S
C612 C613 1.386 . S
C612 C614 1.391 . S
C613 C612 1.386 . S
C613 C617 1.393 . S
C614 H606 0.950 . S
C614 C612 1.391 . S
C614 C615 1.400 . S
C615 C614 1.400 . S
C615 C616 1.398 . S
C615 C621 1.491 . S
C616 H607 0.950 . S
C616 C615 1.398 . S
C616 C617 1.391 . S
C617 H605 0.950 . S
C617 C613 1.393 . S
C617 C616 1.391 . S
C618 H608 0.950 . S
C618 C619 1.386 . S
C618 C620 1.391 . S
C619 C618 1.386 . S
C619 C623 1.393 . S
C620 H609 0.950 . S
C620 C618 1.391 . S
C620 C621 1.400 . S
C621 C615 1.491 . S
C621 C620 1.400 . S
C621 C622 1.398 . S
C622 H610 0.950 . S
C622 C621 1.398 . S
C622 C623 1.391 . S
C623 H611 0.950 . S
C623 C619 1.393 . S
C623 C622 1.391 . S
H624 C632 0.950 . S
H625 C637 0.950 . S
H626 C634 0.950 . S
H627 C636 0.950 . S
H628 C638 0.950 . S
H629 C640 0.950 . S
H630 C642 0.950 . S
H631 C643 0.950 . S
C632 H624 0.950 . S
C632 C633 1.386 . S
C632 C634 1.391 . S
C633 C632 1.386 . S
C633 C637 1.393 . S
C634 H626 0.950 . S
C634 C632 1.391 . S
C634 C635 1.400 . S
C635 C634 1.400 . S
C635 C636 1.398 . S
C635 C641 1.491 . S
C636 H627 0.950 . S
C636 C635 1.398 . S
C636 C637 1.391 . S
C637 H625 0.950 . S
C637 C633 1.393 . S
C637 C636 1.391 . S
C638 H628 0.950 . S
C638 C639 1.386 . S
C638 C640 1.391 . S
C639 C638 1.386 . S
C639 C643 1.393 . S
C640 H629 0.950 . S
C640 C638 1.391 . S
C640 C641 1.400 . S
C641 C635 1.491 . S
C641 C640 1.400 . S
C641 C642 1.398 . S
C642 H630 0.950 . S
C642 C641 1.398 . S
C642 C643 1.391 . S
C643 H631 0.950 . S
C643 C639 1.393 . S
C643 C642 1.391 . S
H644 C652 0.950 . S
H645 C657 0.950 . S
H646 C654 0.950 . S
H647 C656 0.950 . S
H648 C658 0.950 . S
H649 C660 0.950 . S
H650 C662 0.950 . S
H651 C663 0.950 . S
C652 H644 0.950 . S
C652 C653 1.386 . S
C652 C654 1.391 . S
C653 C652 1.386 . S
C653 C657 1.393 . S
C654 H646 0.950 . S
C654 C652 1.391 . S
C654 C655 1.400 . S
C655 C654 1.400 . S
C655 C656 1.398 . S
C655 C661 1.491 . S
C656 H647 0.950 . S
C656 C655 1.398 . S
C656 C657 1.391 . S
C657 H645 0.950 . S
C657 C653 1.393 . S
C657 C656 1.391 . S
C658 H648 0.950 . S
C658 C659 1.386 . S
C658 C660 1.391 . S
C659 C658 1.386 . S
C659 C663 1.393 . S
C660 H649 0.950 . S
C660 C658 1.391 . S
C660 C661 1.400 . S
C661 C655 1.491 . S
C661 C660 1.400 . S
C661 C662 1.398 . S
C662 H650 0.950 . S
C662 C661 1.398 . S
C662 C663 1.391 . S
C663 H651 0.950 . S
C663 C659 1.393 . S
C663 C662 1.391 . S
H664 C672 0.950 . S
H665 C677 0.950 . S
H666 C674 0.950 . S
H667 C676 0.950 . S
H668 C678 0.950 . S
H669 C680 0.950 . S
H670 C682 0.950 . S
H671 C683 0.950 . S
C672 H664 0.950 . S
C672 C673 1.386 . S
C672 C674 1.391 . S
C673 C672 1.386 . S
C673 C677 1.393 . S
C674 H666 0.950 . S
C674 C672 1.391 . S
C674 C675 1.400 . S
C675 C674 1.400 . S
C675 C676 1.398 . S
C675 C681 1.491 . S
C676 H667 0.950 . S
C676 C675 1.398 . S
C676 C677 1.391 . S
C677 H665 0.950 . S
C677 C673 1.393 . S
C677 C676 1.391 . S
C678 H668 0.950 . S
C678 C679 1.386 . S
C678 C680 1.391 . S
C679 C678 1.386 . S
C679 C683 1.393 . S
C680 H669 0.950 . S
C680 C678 1.391 . S
C680 C681 1.400 . S
C681 C675 1.491 . S
C681 C680 1.400 . S
C681 C682 1.398 . S
C682 H670 0.950 . S
C682 C681 1.398 . S
C682 C683 1.391 . S
C683 H671 0.950 . S
C683 C679 1.393 . S
C683 C682 1.391 . S
H684 C692 0.950 . S
H685 C697 0.950 . S
H686 C694 0.950 . S
H687 C696 0.950 . S
H688 C698 0.950 . S
H689 C700 0.950 . S
H690 C702 0.950 . S
H691 C703 0.950 . S
C692 H684 0.950 . S
C692 C693 1.386 . S
C692 C694 1.391 . S
C693 C692 1.386 . S
C693 C697 1.393 . S
C694 H686 0.950 . S
C694 C692 1.391 . S
C694 C695 1.400 . S
C695 C694 1.400 . S
C695 C696 1.398 . S
C695 C701 1.491 . S
C696 H687 0.950 . S
C696 C695 1.398 . S
C696 C697 1.391 . S
C697 H685 0.950 . S
C697 C693 1.393 . S
C697 C696 1.391 . S
C698 H688 0.950 . S
C698 C699 1.386 . S
C698 C700 1.391 . S
C699 C698 1.386 . S
C699 C703 1.393 . S
C700 H689 0.950 . S
C700 C698 1.391 . S
C700 C701 1.400 . S
C701 C695 1.491 . S
C701 C700 1.400 . S
C701 C702 1.398 . S
C702 H690 0.950 . S
C702 C701 1.398 . S
C702 C703 1.391 . S
C703 H691 0.950 . S
C703 C699 1.393 . S
C703 C702 1.391 . S
H704 C712 0.950 . S
H705 C717 0.950 . S
H706 C714 0.950 . S
H707 C716 0.950 . S
H708 C718 0.950 . S
H709 C720 0.950 . S
H710 C722 0.950 . S
H711 C723 0.950 . S
C712 H704 0.950 . S
C712 C713 1.386 . S
C712 C714 1.391 . S
C713 C712 1.386 . S
C713 C717 1.393 . S
C714 H706 0.950 . S
C714 C712 1.391 . S
C714 C715 1.400 . S
C715 C714 1.400 . S
C715 C716 1.398 . S
C715 C721 1.491 . S
C716 H707 0.950 . S
C716 C715 1.398 . S
C716 C717 1.391 . S
C717 H705 0.950 . S
C717 C713 1.393 . S
C717 C716 1.391 . S
C718 H708 0.950 . S
C718 C719 1.386 . S
C718 C720 1.391 . S
C719 C718 1.386 . S
C719 C723 1.393 . S
C720 H709 0.950 . S
C720 C718 1.391 . S
C720 C721 1.400 . S
C721 C715 1.491 . S
C721 C720 1.400 . S
C721 C722 1.398 . S
C722 H710 0.950 . S
C722 C721 1.398 . S
C722 C723 1.391 . S
C723 H711 0.950 . S
C723 C719 1.393 . S
C723 C722 1.391 . S
H724 C732 0.950 . S
H725 C737 0.950 . S
H726 C734 0.950 . S
H727 C736 0.950 . S
H728 C738 0.950 . S
H729 C740 0.950 . S
H730 C742 0.950 . S
H731 C743 0.950 . S
C732 H724 0.950 . S
C732 C733 1.386 . S
C732 C734 1.391 . S
C733 C732 1.386 . S
C733 C737 1.393 . S
C734 H726 0.950 . S
C734 C732 1.391 . S
C734 C735 1.400 . S
C735 C734 1.400 . S
C735 C736 1.398 . S
C735 C741 1.491 . S
C736 H727 0.950 . S
C736 C735 1.398 . S
C736 C737 1.391 . S
C737 H725 0.950 . S
C737 C733 1.393 . S
C737 C736 1.391 . S
C738 H728 0.950 . S
C738 C739 1.386 . S
C738 C740 1.391 . S
C739 C738 1.386 . S
C739 C743 1.393 . S
C740 H729 0.950 . S
C740 C738 1.391 . S
C740 C741 1.400 . S
C741 C735 1.491 . S
C741 C740 1.400 . S
C741 C742 1.398 . S
C742 H730 0.950 . S
C742 C741 1.398 . S
C742 C743 1.391 . S
C743 H731 0.950 . S
C743 C739 1.393 . S
C743 C742 1.391 . S
H744 C752 0.950 . S
H745 C757 0.950 . S
H746 C754 0.950 . S
H747 C756 0.950 . S
H748 C758 0.950 . S
H749 C760 0.950 . S
H750 C762 0.950 . S
H751 C763 0.950 . S
C752 H744 0.950 . S
C752 C753 1.386 . S
C752 C754 1.391 . S
C753 C752 1.386 . S
C753 C757 1.393 . S
C754 H746 0.950 . S
C754 C752 1.391 . S
C754 C755 1.400 . S
C755 C754 1.400 . S
C755 C756 1.398 . S
C755 C761 1.491 . S
C756 H747 0.950 . S
C756 C755 1.398 . S
C756 C757 1.391 . S
C757 H745 0.950 . S
C757 C753 1.393 . S
C757 C756 1.391 . S
C758 H748 0.950 . S
C758 C759 1.386 . S
C758 C760 1.391 . S
C759 C758 1.386 . S
C759 C763 1.393 . S
C760 H749 0.950 . S
C760 C758 1.391 . S
C760 C761 1.400 . S
C761 C755 1.491 . S
C761 C760 1.400 . S
C761 C762 1.398 . S
C762 H750 0.950 . S
C762 C761 1.398 . S
C762 C763 1.391 . S
C763 H751 0.950 . S
C763 C759 1.393 . S
C763 C762 1.391 . S
H764 C772 0.950 . S
H765 C777 0.950 . S
H766 C774 0.950 . S
H767 C776 0.950 . S
H768 C778 0.950 . S
H769 C780 0.950 . S
H770 C782 0.950 . S
H771 C783 0.950 . S
C772 H764 0.950 . S
C772 C773 1.386 . S
C772 C774 1.391 . S
C773 C772 1.386 . S
C773 C777 1.393 . S
C774 H766 0.950 . S
C774 C772 1.391 . S
C774 C775 1.400 . S
C775 C774 1.400 . S
C775 C776 1.398 . S
C775 C781 1.491 . S
C776 H767 0.950 . S
C776 C775 1.398 . S
C776 C777 1.391 . S
C777 H765 0.950 . S
C777 C773 1.393 . S
C777 C776 1.391 . S
C778 H768 0.950 . S
C778 C779 1.386 . S
C778 C780 1.391 . S
C779 C778 1.386 . S
C779 C783 1.393 . S
C780 H769 0.950 . S
C780 C778 1.391 . S
C780 C781 1.400 . S
C781 C775 1.491 . S
C781 C780 1.400 . S
C781 C782 1.398 . S
C782 H770 0.950 . S
C782 C781 1.398 . S
C782 C783 1.391 . S
C783 H771 0.950 . S
C783 C779 1.393 . S
C783 C782 1.391 . S
H784 C792 0.950 . S
H785 C797 0.950 . S
H786 C794 0.950 . S
H787 C796 0.950 . S
H788 C798 0.950 . S
H789 C800 0.950 . S
H790 C802 0.950 . S
H791 C803 0.950 . S
C792 H784 0.950 . S
C792 C793 1.386 . S
C792 C794 1.391 . S
C793 C792 1.386 . S
C793 C797 1.393 . S
C794 H786 0.950 . S
C794 C792 1.391 . S
C794 C795 1.400 . S
C795 C794 1.400 . S
C795 C796 1.398 . S
C795 C801 1.491 . S
C796 H787 0.950 . S
C796 C795 1.398 . S
C796 C797 1.391 . S
C797 H785 0.950 . S
C797 C793 1.393 . S
C797 C796 1.391 . S
C798 H788 0.950 . S
C798 C799 1.386 . S
C798 C800 1.391 . S
C799 C798 1.386 . S
C799 C803 1.393 . S
C800 H789 0.950 . S
C800 C798 1.391 . S
C800 C801 1.400 . S
C801 C795 1.491 . S
C801 C800 1.400 . S
C801 C802 1.398 . S
C802 H790 0.950 . S
C802 C801 1.398 . S
C802 C803 1.391 . S
C803 H791 0.950 . S
C803 C799 1.393 . S
C803 C802 1.391 . S
H804 C812 0.950 . S
H805 C817 0.950 . S
H806 C814 0.951 . S
H807 C816 0.950 . S
H808 C818 0.950 . S
H809 C820 0.950 . S
H810 C822 0.950 . S
H811 C823 0.950 . S
C812 H804 0.950 . S
C812 C813 1.386 . S
C812 C814 1.393 . S
C813 C812 1.386 . S
C813 C817 1.393 . S
C814 H806 0.951 . S
C814 C812 1.393 . S
C814 C815 1.400 . S
C815 C814 1.400 . S
C815 C816 1.399 . S
C815 C821 1.490 1_554 S
C816 H807 0.950 . S
C816 C815 1.399 . S
C816 C817 1.391 . S
C817 H805 0.950 . S
C817 C813 1.393 . S
C817 C816 1.391 . S
C818 H808 0.950 . S
C818 C819 1.387 . S
C818 C820 1.392 . S
C819 C818 1.387 . S
C819 C823 1.393 . S
C820 H809 0.950 . S
C820 C818 1.392 . S
C820 C821 1.400 . S
C821 C815 1.490 1_556 S
C821 C820 1.400 . S
C821 C822 1.399 . S
C822 H810 0.950 . S
C822 C821 1.399 . S
C822 C823 1.392 . S
C823 H811 0.950 . S
C823 C819 1.393 . S
C823 C822 1.392 . S
H824 C832 0.950 . S
H825 C837 0.950 . S
H826 C834 0.950 . S
H827 C836 0.950 . S
H828 C838 0.950 . S
H829 C840 0.950 . S
H830 C842 0.950 . S
H831 C843 0.950 . S
C832 H824 0.950 . S
C832 C833 1.382 1_554 S
C832 C834 1.391 . S
C833 C832 1.382 1_556 S
C833 C837 1.398 . S
C834 H826 0.950 . S
C834 C832 1.391 . S
C834 C835 1.399 1_554 S
C835 C834 1.399 1_556 S
C835 C836 1.401 . S
C835 C841 1.490 1_556 S
C836 H827 0.950 . S
C836 C835 1.401 . S
C836 C837 1.391 . S
C837 H825 0.950 . S
C837 C833 1.398 . S
C837 C836 1.391 . S
C838 H828 0.950 . S
C838 C839 1.386 1_556 S
C838 C840 1.391 . S
C839 C838 1.386 1_554 S
C839 C843 1.393 . S
C840 H829 0.950 . S
C840 C838 1.391 . S
C840 C841 1.398 1_556 S
C841 C835 1.490 1_554 S
C841 C840 1.398 1_554 S
C841 C842 1.402 . S
C842 H830 0.950 . S
C842 C841 1.402 . S
C842 C843 1.391 . S
C843 H831 0.950 . S
C843 C839 1.393 . S
C843 C842 1.391 . S
H844 C852 0.950 . S
H845 C857 0.950 . S
H846 C854 0.950 . S
H847 C856 0.950 . S
H848 C858 0.950 . S
H849 C860 0.950 . S
H850 C862 0.950 . S
H851 C863 0.950 . S
C852 H844 0.950 . S
C852 C853 1.379 1_554 S
C852 C854 1.391 . S
C853 C852 1.379 1_556 S
C853 C857 1.401 . S
C854 H846 0.950 . S
C854 C852 1.391 . S
C854 C855 1.398 1_554 S
C855 C854 1.398 1_556 S
C855 C856 1.402 . S
C855 C861 1.490 1_556 S
C856 H847 0.950 . S
C856 C855 1.402 . S
C856 C857 1.391 . S
C857 H845 0.950 . S
C857 C853 1.401 . S
C857 C856 1.391 . S
C858 H848 0.950 . S
C858 C859 1.386 1_556 S
C858 C860 1.391 . S
C859 C858 1.386 1_554 S
C859 C863 1.393 . S
C860 H849 0.950 . S
C860 C858 1.391 . S
C860 C861 1.396 1_556 S
C861 C855 1.490 1_554 S
C861 C860 1.396 1_554 S
C861 C862 1.404 . S
C862 H850 0.950 . S
C862 C861 1.404 . S
C862 C863 1.391 . S
C863 H851 0.950 . S
C863 C859 1.393 . S
C863 C862 1.391 . S
H864 C872 0.950 . S
H865 C877 0.950 . S
H866 C874 0.950 . S
H867 C876 0.950 . S
H868 C878 0.950 . S
H869 C880 0.950 . S
H870 C882 0.950 . S
H871 C883 0.950 . S
C872 H864 0.950 . S
C872 C873 1.383 . S
C872 C874 1.391 . S
C873 C872 1.383 . S
C873 C877 1.395 1_556 S
C874 H866 0.950 . S
C874 C872 1.391 . S
C874 C875 1.404 1_556 S
C875 C874 1.404 1_554 S
C875 C876 1.395 . S
C875 C881 1.491 . S
C876 H867 0.950 . S
C876 C875 1.395 . S
C876 C877 1.391 . S
C877 H865 0.950 . S
C877 C873 1.395 1_554 S
C877 C876 1.391 . S
C878 H868 0.950 . S
C878 C879 1.392 . S
C878 C880 1.391 . S
C879 C878 1.392 . S
C879 C883 1.387 1_554 S
C880 H869 0.950 . S
C880 C878 1.391 . S
C880 C881 1.404 . S
C881 C875 1.491 . S
C881 C880 1.404 . S
C881 C882 1.395 1_554 S
C882 H870 0.950 . S
C882 C881 1.395 1_556 S
C882 C883 1.391 . S
C883 H871 0.950 . S
C883 C879 1.387 1_556 S
C883 C882 1.391 . S
H884 C892 0.950 . S
H885 C897 0.950 . S
H886 C894 0.950 . S
H887 C896 0.950 . S
H888 C898 0.950 . S
H889 C900 0.950 . S
H890 C902 0.950 . S
H891 C903 0.950 . S
C892 H884 0.950 . S
C892 C893 1.362 1_655 S
C892 C894 1.391 . S
C893 C892 1.362 1_455 S
C893 C897 1.417 . S
C894 H886 0.950 . S
C894 C892 1.391 . S
C894 C895 1.388 1_655 S
C895 C894 1.388 1_455 S
C895 C896 1.411 . S
C895 C901 1.490 1_455 S
C896 H887 0.950 . S
C896 C895 1.411 . S
C896 C897 1.391 . S
C897 H885 0.950 . S
C897 C893 1.417 . S
C897 C896 1.391 . S
C898 H888 0.950 . S
C898 C899 1.369 1_455 S
C898 C900 1.391 . S
C899 C898 1.369 1_655 S
C899 C903 1.410 . S
C900 H889 0.950 . S
C900 C898 1.391 . S
C900 C901 1.395 1_455 S
C901 C895 1.490 1_655 S
C901 C900 1.395 1_655 S
C901 C902 1.404 . S
C902 H890 0.950 . S
C902 C901 1.404 . S
C902 C903 1.391 . S
C903 H891 0.950 . S
C903 C899 1.410 . S
C903 C902 1.391 . S
H904 C912 0.950 . S
H905 C917 0.950 . S
H906 C914 0.950 . S
H907 C916 0.950 . S
H908 C918 0.950 . S
H909 C920 0.950 . S
H910 C922 0.950 . S
H911 C923 0.950 . S
C912 H904 0.950 . S
C912 C913 1.405 . S
C912 C914 1.391 . S
C913 C912 1.405 . S
C913 C917 1.375 1_545 S
C914 H906 0.950 . S
C914 C912 1.391 . S
C914 C915 1.410 . S
C915 C914 1.410 . S
C915 C916 1.389 1_545 S
C915 C921 1.490 1_545 S
C916 H907 0.950 . S
C916 C915 1.389 1_565 S
C916 C917 1.391 . S
C917 H905 0.950 . S
C917 C913 1.375 1_565 S
C917 C916 1.391 . S
C918 H908 0.950 . S
C918 C919 1.399 . S
C918 C920 1.391 . S
C919 C918 1.399 . S
C919 C923 1.380 1_565 S
C920 H909 0.950 . S
C920 C918 1.391 . S
C920 C921 1.404 . S
C921 C915 1.490 1_565 S
C921 C920 1.404 . S
C921 C922 1.394 1_565 S
C922 H910 0.950 . S
C922 C921 1.394 1_545 S
C922 C923 1.391 . S
C923 H911 0.950 . S
C923 C919 1.380 1_545 S
C923 C922 1.391 . S
H924 C932 0.950 . S
H925 C937 0.950 . S
H926 C934 0.950 . S
H927 C936 0.950 . S
H928 C938 0.950 . S
H929 C940 0.950 . S
H930 C942 0.950 . S
H931 C943 0.950 . S
C932 H924 0.950 . S
C932 C933 1.362 1_655 S
C932 C934 1.391 . S
C933 C932 1.362 1_455 S
C933 C937 1.417 . S
C934 H926 0.950 . S
C934 C932 1.391 . S
C934 C935 1.388 1_655 S
C935 C934 1.388 1_455 S
C935 C936 1.411 . S
C935 C941 1.490 1_455 S
C936 H927 0.950 . S
C936 C935 1.411 . S
C936 C937 1.391 . S
C937 H925 0.950 . S
C937 C933 1.417 . S
C937 C936 1.391 . S
C938 H928 0.950 . S
C938 C939 1.369 1_455 S
C938 C940 1.391 . S
C939 C938 1.369 1_655 S
C939 C943 1.410 . S
C940 H929 0.950 . S
C940 C938 1.391 . S
C940 C941 1.395 1_455 S
C941 C935 1.490 1_655 S
C941 C940 1.395 1_655 S
C941 C942 1.404 . S
C942 H930 0.950 . S
C942 C941 1.404 . S
C942 C943 1.391 . S
C943 H931 0.950 . S
C943 C939 1.410 . S
C943 C942 1.391 . S
H944 C952 0.950 . S
H945 C957 0.950 . S
H946 C954 0.950 . S
H947 C956 0.950 . S
H948 C958 0.950 . S
H949 C960 0.950 . S
H950 C962 0.950 . S
H951 C963 0.950 . S
C952 H944 0.950 . S
C952 C953 1.387 1_545 S
C952 C954 1.391 . S
C953 C952 1.387 1_565 S
C953 C957 1.391 . S
C954 H946 0.950 . S
C954 C952 1.391 . S
C954 C955 1.397 . S
C955 C954 1.397 . S
C955 C956 1.402 1_545 S
C955 C961 1.491 . S
C956 H947 0.950 . S
C956 C955 1.402 1_565 S
C956 C957 1.391 . S
C957 H945 0.950 . S
C957 C953 1.391 . S
C957 C956 1.391 . S
C958 H948 0.950 . S
C958 C959 1.378 1_565 S
C958 C960 1.391 . S
C959 C958 1.378 1_545 S
C959 C963 1.400 . S
C960 H949 0.950 . S
C960 C958 1.391 . S
C960 C961 1.397 1_565 S
C961 C955 1.491 . S
C961 C960 1.397 1_545 S
C961 C962 1.402 . S
C962 H950 0.950 . S
C962 C961 1.402 . S
C962 C963 1.391 . S
C963 H951 0.950 . S
C963 C959 1.400 . S
C963 C962 1.391 . S
H964 C972 0.950 . S
H965 C977 0.950 . S
H966 C974 0.950 . S
H967 C976 0.950 . S
H968 C978 0.950 . S
H969 C980 0.950 . S
H970 C982 0.950 . S
H971 C983 0.950 . S
C972 H964 0.950 . S
C972 C973 1.375 1_455 S
C972 C974 1.391 . S
C973 C972 1.375 1_655 S
C973 C977 1.404 . S
C974 H966 0.950 . S
C974 C972 1.391 . S
C974 C975 1.399 1_455 S
C975 C974 1.399 1_655 S
C975 C976 1.400 . S
C975 C981 1.490 1_655 S
C976 H967 0.950 . S
C976 C975 1.400 . S
C976 C977 1.391 . S
C977 H965 0.950 . S
C977 C973 1.404 . S
C977 C976 1.391 . S
C978 H968 0.950 . S
C978 C979 1.367 1_655 S
C978 C980 1.391 . S
C979 C978 1.367 1_455 S
C979 C983 1.412 . S
C980 H969 0.950 . S
C980 C978 1.391 . S
C980 C981 1.391 1_655 S
C981 C975 1.490 1_455 S
C981 C980 1.391 1_455 S
C981 C982 1.408 . S
C982 H970 0.950 . S
C982 C981 1.408 . S
C982 C983 1.391 . S
C983 H971 0.950 . S
C983 C979 1.412 . S
C983 C982 1.391 . S
H984 C992 0.950 . S
H985 C997 0.950 . S
H986 C994 0.950 . S
H987 C996 0.950 . S
H988 C998 0.950 . S
H989 C1000 0.950 . S
H990 C1002 0.950 . S
H991 C1003 0.950 . S
C992 H984 0.950 . S
C992 C993 1.377 1_565 S
C992 C994 1.391 . S
C993 C992 1.377 1_545 S
C993 C997 1.401 . S
C994 H986 0.950 . S
C994 C992 1.391 . S
C994 C995 1.396 1_565 S
C995 C994 1.396 1_545 S
C995 C996 1.402 . S
C995 C1001 1.491 . S
C996 H987 0.950 . S
C996 C995 1.402 . S
C996 C997 1.391 . S
C997 H985 0.950 . S
C997 C993 1.401 . S
C997 C996 1.391 . S
C998 H988 0.950 . S
C998 C999 1.386 1_545 S
C998 C1000 1.391 . S
C999 C998 1.386 1_565 S
C999 C1003 1.392 . S
C1000 H989 0.950 . S
C1000 C998 1.391 . S
C1000 C1001 1.396 . S
C1001 C995 1.491 . S
C1001 C1000 1.396 . S
C1001 C1002 1.402 1_545 S
C1002 H990 0.950 . S
C1002 C1001 1.402 1_565 S
C1002 C1003 1.391 . S
C1003 H991 0.950 . S
C1003 C999 1.392 . S
C1003 C1002 1.391 . S
H1004 C1012 0.950 . S
H1005 C1017 0.950 . S
H1006 C1014 0.950 . S
H1007 C1016 0.950 . S
H1008 C1018 0.950 . S
H1009 C1020 0.950 . S
H1010 C1022 0.950 . S
H1011 C1023 0.950 . S
C1012 H1004 0.950 . S
C1012 C1013 1.362 1_655 S
C1012 C1014 1.391 . S
C1013 C1012 1.362 1_455 S
C1013 C1017 1.417 . S
C1014 H1006 0.950 . S
C1014 C1012 1.391 . S
C1014 C1015 1.388 1_655 S
C1015 C1014 1.388 1_455 S
C1015 C1016 1.411 . S
C1015 C1021 1.490 1_455 S
C1016 H1007 0.950 . S
C1016 C1015 1.411 . S
C1016 C1017 1.391 . S
C1017 H1005 0.950 . S
C1017 C1013 1.417 . S
C1017 C1016 1.391 . S
C1018 H1008 0.950 . S
C1018 C1019 1.368 1_455 S
C1018 C1020 1.391 . S
C1019 C1018 1.368 1_655 S
C1019 C1023 1.411 . S
C1020 H1009 0.950 . S
C1020 C1018 1.391 . S
C1020 C1021 1.394 1_455 S
C1021 C1015 1.490 1_655 S
C1021 C1020 1.394 1_655 S
C1021 C1022 1.404 . S
C1022 H1010 0.950 . S
C1022 C1021 1.404 . S
C1022 C1023 1.391 . S
C1023 H1011 0.950 . S
C1023 C1019 1.411 . S
C1023 C1022 1.391 . S
H1024 C1032 0.950 . S
H1025 C1037 0.950 . S
H1026 C1034 0.950 . S
H1027 C1036 0.950 . S
H1028 C1038 0.950 . S
H1029 C1040 0.950 . S
H1030 C1042 0.950 . S
H1031 C1043 0.950 . S
C1032 H1024 0.950 . S
C1032 C1033 1.403 . S
C1032 C1034 1.391 . S
C1033 C1032 1.403 . S
C1033 C1037 1.376 1_545 S
C1034 H1026 0.950 . S
C1034 C1032 1.391 . S
C1034 C1035 1.410 . S
C1035 C1034 1.410 . S
C1035 C1036 1.390 1_545 S
C1035 C1041 1.490 1_545 S
C1036 H1027 0.950 . S
C1036 C1035 1.390 1_565 S
C1036 C1037 1.391 . S
C1037 H1025 0.950 . S
C1037 C1033 1.376 1_565 S
C1037 C1036 1.391 . S
C1038 H1028 0.950 . S
C1038 C1039 1.399 . S
C1038 C1040 1.391 . S
C1039 C1038 1.399 . S
C1039 C1043 1.381 1_565 S
C1040 H1029 0.950 . S
C1040 C1038 1.391 . S
C1040 C1041 1.405 . S
C1041 C1035 1.490 1_565 S
C1041 C1040 1.405 . S
C1041 C1042 1.394 1_565 S
C1042 H1030 0.950 . S
C1042 C1041 1.394 1_545 S
C1042 C1043 1.391 . S
C1043 H1031 0.950 . S
C1043 C1039 1.381 1_545 S
C1043 C1042 1.391 . S
H1044 C1052 0.950 . S
H1045 C1057 0.950 . S
H1046 C1054 0.950 . S
H1047 C1056 0.950 . S
H1048 C1058 0.950 . S
H1049 C1060 0.950 . S
H1050 C1062 0.950 . S
H1051 C1063 0.950 . S
C1052 H1044 0.950 . S
C1052 C1053 1.368 1_455 S
C1052 C1054 1.391 . S
C1053 C1052 1.368 1_655 S
C1053 C1057 1.411 . S
C1054 H1046 0.950 . S
C1054 C1052 1.391 . S
C1054 C1055 1.394 1_455 S
C1055 C1054 1.394 1_655 S
C1055 C1056 1.405 . S
C1055 C1061 1.490 1_655 S
C1056 H1047 0.950 . S
C1056 C1055 1.405 . S
C1056 C1057 1.391 . S
C1057 H1045 0.950 . S
C1057 C1053 1.411 . S
C1057 C1056 1.391 . S
C1058 H1048 0.950 . S
C1058 C1059 1.363 1_655 S
C1058 C1060 1.391 . S
C1059 C1058 1.363 1_455 S
C1059 C1063 1.417 . S
C1060 H1049 0.950 . S
C1060 C1058 1.391 . S
C1060 C1061 1.389 1_655 S
C1061 C1055 1.490 1_455 S
C1061 C1060 1.389 1_455 S
C1061 C1062 1.411 . S
C1062 H1050 0.950 . S
C1062 C1061 1.411 . S
C1062 C1063 1.391 . S
C1063 H1051 0.950 . S
C1063 C1059 1.417 . S
C1063 C1062 1.391 . S
H1064 C1072 0.950 . S
H1065 C1077 0.950 . S
H1066 C1074 0.950 . S
H1067 C1076 0.950 . S
H1068 C1078 0.950 . S
H1069 C1080 0.950 . S
H1070 C1082 0.950 . S
H1071 C1083 0.950 . S
C1072 H1064 0.950 . S
C1072 C1073 1.373 1_565 S
C1072 C1074 1.391 . S
C1073 C1072 1.373 1_545 S
C1073 C1077 1.406 . S
C1074 H1066 0.950 . S
C1074 C1072 1.391 . S
C1074 C1075 1.394 1_565 S
C1075 C1074 1.394 1_545 S
C1075 C1076 1.405 . S
C1075 C1081 1.491 1_545 S
C1076 H1067 0.950 . S
C1076 C1075 1.405 . S
C1076 C1077 1.391 . S
C1077 H1065 0.950 . S
C1077 C1073 1.406 . S
C1077 C1076 1.391 . S
C1078 H1068 0.950 . S
C1078 C1079 1.381 1_545 S
C1078 C1080 1.391 . S
C1079 C1078 1.381 1_565 S
C1079 C1083 1.397 . S
C1080 H1069 0.950 . S
C1080 C1078 1.391 . S
C1080 C1081 1.403 1_545 S
C1081 C1075 1.491 1_565 S
C1081 C1080 1.403 1_565 S
C1081 C1082 1.396 . S
C1082 H1070 0.950 . S
C1082 C1081 1.396 . S
C1082 C1083 1.391 . S
C1083 H1071 0.950 . S
C1083 C1079 1.397 . S
C1083 C1082 1.391 . S
H1084 C1092 0.950 . S
H1085 C1097 0.950 . S
H1086 C1094 0.950 . S
H1087 C1096 0.950 . S
H1088 C1098 0.950 . S
H1089 C1100 0.950 . S
H1090 C1102 0.950 . S
H1091 C1103 0.950 . S
C1092 H1084 0.950 . S
C1092 C1093 1.399 . S
C1092 C1094 1.391 . S
C1093 C1092 1.399 . S
C1093 C1097 1.380 1_655 S
C1094 H1086 0.950 . S
C1094 C1092 1.391 . S
C1094 C1095 1.404 . S
C1095 C1094 1.404 . S
C1095 C1096 1.394 1_655 S
C1095 C1101 1.490 1_655 S
C1096 H1087 0.950 . S
C1096 C1095 1.394 1_455 S
C1096 C1097 1.391 . S
C1097 H1085 0.950 . S
C1097 C1093 1.380 1_455 S
C1097 C1096 1.391 . S
C1098 H1088 0.950 . S
C1098 C1099 1.404 . S
C1098 C1100 1.391 . S
C1099 C1098 1.404 . S
C1099 C1103 1.375 1_455 S
C1100 H1089 0.950 . S
C1100 C1098 1.391 . S
C1100 C1101 1.410 . S
C1101 C1095 1.490 1_455 S
C1101 C1100 1.410 . S
C1101 C1102 1.389 1_455 S
C1102 H1090 0.950 . S
C1102 C1101 1.389 1_655 S
C1102 C1103 1.391 . S
C1103 H1091 0.950 . S
C1103 C1099 1.375 1_655 S
C1103 C1102 1.391 . S
H1104 C1112 0.950 . S
H1105 C1117 0.950 . S
H1106 C1114 0.950 . S
H1107 C1116 0.950 . S
H1108 C1118 0.950 . S
H1109 C1120 0.950 . S
H1110 C1122 0.950 . S
H1111 C1123 0.950 . S
C1112 H1104 0.950 . S
C1112 C1113 1.399 . S
C1112 C1114 1.391 . S
C1113 C1112 1.399 . S
C1113 C1117 1.381 1_565 S
C1114 H1106 0.950 . S
C1114 C1112 1.391 . S
C1114 C1115 1.405 . S
C1115 C1114 1.405 . S
C1115 C1116 1.394 1_565 S
C1115 C1121 1.490 1_565 S
C1116 H1107 0.950 . S
C1116 C1115 1.394 1_545 S
C1116 C1117 1.391 . S
C1117 H1105 0.950 . S
C1117 C1113 1.381 1_545 S
C1117 C1116 1.391 . S
C1118 H1108 0.950 . S
C1118 C1119 1.404 . S
C1118 C1120 1.391 . S
C1119 C1118 1.404 . S
C1119 C1123 1.376 1_545 S
C1120 H1109 0.950 . S
C1120 C1118 1.391 . S
C1120 C1121 1.410 . S
C1121 C1115 1.490 1_545 S
C1121 C1120 1.410 . S
C1121 C1122 1.390 1_545 S
C1122 H1110 0.950 . S
C1122 C1121 1.390 1_565 S
C1122 C1123 1.391 . S
C1123 H1111 0.950 . S
C1123 C1119 1.376 1_565 S
C1123 C1122 1.391 . S
H1124 C1132 0.950 . S
H1125 C1137 0.950 . S
H1126 C1134 0.950 . S
H1127 C1136 0.950 . S
H1128 C1138 0.950 . S
H1129 C1140 0.950 . S
H1130 C1142 0.950 . S
H1131 C1143 0.950 . S
C1132 H1124 0.950 . S
C1132 C1133 1.401 . S
C1132 C1134 1.391 . S
C1133 C1132 1.401 . S
C1133 C1137 1.379 1_455 S
C1134 H1126 0.950 . S
C1134 C1132 1.391 . S
C1134 C1135 1.408 . S
C1135 C1134 1.408 . S
C1135 C1136 1.391 1_455 S
C1135 C1141 1.490 1_455 S
C1136 H1127 0.950 . S
C1136 C1135 1.391 1_655 S
C1136 C1137 1.391 . S
C1137 H1125 0.950 . S
C1137 C1133 1.379 1_655 S
C1137 C1136 1.391 . S
C1138 H1128 0.950 . S
C1138 C1139 1.398 . S
C1138 C1140 1.391 . S
C1139 C1138 1.398 . S
C1139 C1143 1.382 1_655 S
C1140 H1129 0.950 . S
C1140 C1138 1.391 . S
C1140 C1141 1.405 . S
C1141 C1135 1.490 1_655 S
C1141 C1140 1.405 . S
C1141 C1142 1.394 1_655 S
C1142 H1130 0.950 . S
C1142 C1141 1.394 1_455 S
C1142 C1143 1.391 . S
C1143 H1131 0.950 . S
C1143 C1139 1.382 1_455 S
C1143 C1142 1.391 . S
H1144 C1152 0.950 . S
H1145 C1157 0.950 . S
H1146 C1154 0.950 . S
H1147 C1156 0.950 . S
H1148 C1158 0.950 . S
H1149 C1160 0.950 . S
H1150 C1162 0.950 . S
H1151 C1163 0.950 . S
C1152 H1144 0.950 . S
C1152 C1153 1.396 . S
C1152 C1154 1.391 . S
C1153 C1152 1.396 . S
C1153 C1157 1.382 1_565 S
C1154 H1146 0.950 . S
C1154 C1152 1.391 . S
C1154 C1155 1.403 . S
C1155 C1154 1.403 . S
C1155 C1156 1.396 1_565 S
C1155 C1161 1.490 1_565 S
C1156 H1147 0.950 . S
C1156 C1155 1.396 1_545 S
C1156 C1157 1.391 . S
C1157 H1145 0.950 . S
C1157 C1153 1.382 1_545 S
C1157 C1156 1.391 . S
C1158 H1148 0.950 . S
C1158 C1159 1.403 . S
C1158 C1160 1.391 . S
C1159 C1158 1.403 . S
C1159 C1163 1.376 1_545 S
C1160 H1149 0.950 . S
C1160 C1158 1.391 . S
C1160 C1161 1.410 . S
C1161 C1155 1.490 1_545 S
C1161 C1160 1.410 . S
C1161 C1162 1.389 1_545 S
C1162 H1150 0.950 . S
C1162 C1161 1.389 1_565 S
C1162 C1163 1.391 . S
C1163 H1151 0.950 . S
C1163 C1159 1.376 1_565 S
C1163 C1162 1.391 . S
H1164 C1172 0.950 . S
H1165 C1177 0.949 . S
H1166 C1174 0.950 . S
H1167 C1176 0.951 . S
H1168 C1178 0.950 . S
H1169 C1180 0.950 . S
H1170 C1182 0.950 . S
H1171 C1183 0.950 1_455 S
C1172 H1164 0.950 . S
C1172 C1173 1.386 . S
C1172 C1174 1.391 . S
C1173 C1172 1.386 . S
C1173 C1177 1.393 . S
C1174 H1166 0.950 . S
C1174 C1172 1.391 . S
C1174 C1175 1.401 . S
C1175 C1174 1.401 . S
C1175 C1176 1.398 . S
C1175 C1181 1.490 1_455 S
C1176 H1167 0.951 . S
C1176 C1175 1.398 . S
C1176 C1177 1.391 . S
C1177 H1165 0.949 . S
C1177 C1173 1.393 . S
C1177 C1176 1.391 . S
C1178 H1168 0.950 . S
C1178 C1179 1.387 . S
C1178 C1180 1.391 . S
C1179 C1178 1.387 . S
C1179 C1183 1.393 . S
C1180 H1169 0.950 . S
C1180 C1178 1.391 . S
C1180 C1181 1.401 . S
C1181 C1175 1.490 1_655 S
C1181 C1180 1.401 . S
C1181 C1182 1.398 . S
C1182 H1170 0.950 . S
C1182 C1181 1.398 . S
C1182 C1183 1.391 . S
C1183 H1171 0.950 1_655 S
C1183 C1179 1.393 . S
C1183 C1182 1.391 . S
H1184 C1192 0.950 . S
H1185 C1197 0.950 . S
H1186 C1194 0.950 . S
H1187 C1196 0.950 . S
H1188 C1198 0.950 . S
H1189 C1200 0.950 . S
H1190 C1202 0.950 . S
H1191 C1203 0.950 . S
C1192 H1184 0.950 . S
C1192 C1193 1.372 1_565 S
C1192 C1194 1.391 . S
C1193 C1192 1.372 1_545 S
C1193 C1197 1.407 . S
C1194 H1186 0.950 . S
C1194 C1192 1.391 . S
C1194 C1195 1.394 1_565 S
C1195 C1194 1.394 1_545 S
C1195 C1196 1.405 . S
C1195 C1201 1.491 1_545 S
C1196 H1187 0.950 . S
C1196 C1195 1.405 . S
C1196 C1197 1.391 . S
C1197 H1185 0.950 . S
C1197 C1193 1.407 . S
C1197 C1196 1.391 . S
C1198 H1188 0.950 . S
C1198 C1199 1.380 1_545 S
C1198 C1200 1.391 . S
C1199 C1198 1.380 1_565 S
C1199 C1203 1.398 . S
C1200 H1189 0.950 . S
C1200 C1198 1.391 . S
C1200 C1201 1.402 1_545 S
C1201 C1195 1.491 1_565 S
C1201 C1200 1.402 1_565 S
C1201 C1202 1.396 . S
C1202 H1190 0.950 . S
C1202 C1201 1.396 . S
C1202 C1203 1.391 . S
C1203 H1191 0.950 . S
C1203 C1199 1.398 . S
C1203 C1202 1.391 . S
H1204 C1212 0.950 . S
H1205 C1217 0.950 . S
H1206 C1214 0.950 . S
H1207 C1216 0.950 . S
H1208 C1218 0.950 . S
H1209 C1220 0.950 . S
H1210 C1222 0.950 . S
H1211 C1223 0.950 . S
C1212 H1204 0.950 . S
C1212 C1213 1.371 1_545 S
C1212 C1214 1.391 . S
C1213 C1212 1.371 1_565 S
C1213 C1217 1.407 . S
C1214 H1206 0.950 . S
C1214 C1212 1.391 . S
C1214 C1215 1.397 1_545 S
C1215 C1214 1.397 1_565 S
C1215 C1216 1.402 . S
C1215 C1221 1.490 1_565 S
C1216 H1207 0.950 . S
C1216 C1215 1.402 . S
C1216 C1217 1.391 . S
C1217 H1205 0.950 . S
C1217 C1213 1.407 . S
C1217 C1216 1.391 . S
C1218 H1208 0.950 . S
C1218 C1219 1.364 1_565 S
C1218 C1220 1.391 . S
C1219 C1218 1.364 1_545 S
C1219 C1223 1.415 . S
C1220 H1209 0.950 . S
C1220 C1218 1.391 . S
C1220 C1221 1.389 1_565 S
C1221 C1215 1.490 1_545 S
C1221 C1220 1.389 1_545 S
C1221 C1222 1.410 . S
C1222 H1210 0.950 . S
C1222 C1221 1.410 . S
C1222 C1223 1.391 . S
C1223 H1211 0.950 . S
C1223 C1219 1.415 . S
C1223 C1222 1.391 . S
H1224 C1232 0.950 . S
H1225 C1237 0.950 . S
H1226 C1234 0.952 . S
H1227 C1236 0.950 . S
H1228 C1238 0.949 . S
H1229 C1240 0.951 . S
H1230 C1242 0.950 . S
H1231 C1243 0.950 . S
C1232 H1224 0.950 . S
C1232 C1233 1.384 1_455 S
C1232 C1234 1.391 . S
C1233 C1232 1.384 1_655 S
C1233 C1237 1.396 . S
C1234 H1226 0.952 . S
C1234 C1232 1.391 . S
C1234 C1235 1.399 1_455 S
C1235 C1234 1.399 1_655 S
C1235 C1236 1.400 . S
C1235 C1241 1.490 1_655 S
C1236 H1227 0.950 . S
C1236 C1235 1.400 . S
C1236 C1237 1.391 . S
C1237 H1225 0.950 . S
C1237 C1233 1.396 . S
C1237 C1236 1.391 . S
C1238 H1228 0.949 . S
C1238 C1239 1.385 1_655 S
C1238 C1240 1.391 . S
C1239 C1238 1.385 1_455 S
C1239 C1243 1.393 . S
C1240 H1229 0.951 . S
C1240 C1238 1.391 . S
C1240 C1241 1.399 1_655 S
C1241 C1235 1.490 1_455 S
C1241 C1240 1.399 1_455 S
C1241 C1242 1.401 . S
C1242 H1230 0.950 . S
C1242 C1241 1.401 . S
C1242 C1243 1.391 . S
C1243 H1231 0.950 . S
C1243 C1239 1.393 . S
C1243 C1242 1.391 . S
H1244 C1252 0.950 . S
H1245 C1257 0.950 . S
H1246 C1254 0.950 . S
H1247 C1256 0.950 . S
H1248 C1258 0.950 . S
H1249 C1260 0.950 . S
H1250 C1262 0.950 . S
H1251 C1263 0.950 . S
C1252 H1244 0.950 . S
C1252 C1253 1.375 1_545 S
C1252 C1254 1.391 . S
C1253 C1252 1.375 1_565 S
C1253 C1257 1.404 . S
C1254 H1246 0.950 . S
C1254 C1252 1.391 . S
C1254 C1255 1.396 1_545 S
C1255 C1254 1.396 1_565 S
C1255 C1256 1.403 . S
C1255 C1261 1.490 1_565 S
C1256 H1247 0.950 . S
C1256 C1255 1.403 . S
C1256 C1257 1.391 . S
C1257 H1245 0.950 . S
C1257 C1253 1.404 . S
C1257 C1256 1.391 . S
C1258 H1248 0.950 . S
C1258 C1259 1.386 1_565 S
C1258 C1260 1.391 . S
C1259 C1258 1.386 1_545 S
C1259 C1263 1.393 . S
C1260 H1249 0.950 . S
C1260 C1258 1.391 . S
C1260 C1261 1.393 1_565 S
C1261 C1255 1.490 1_545 S
C1261 C1260 1.393 1_545 S
C1261 C1262 1.406 . S
C1262 H1250 0.950 . S
C1262 C1261 1.406 . S
C1262 C1263 1.391 . S
C1263 H1251 0.950 . S
C1263 C1259 1.393 . S
C1263 C1262 1.391 . S
H1264 C1272 0.950 . S
H1265 C1277 0.950 . S
H1266 C1274 0.950 . S
H1267 C1276 0.950 . S
H1268 C1278 0.950 . S
H1269 C1280 0.950 . S
H1270 C1282 0.950 . S
H1271 C1283 0.950 . S
C1272 H1264 0.950 . S
C1272 C1273 1.386 1_655 S
C1272 C1274 1.391 . S
C1273 C1272 1.386 1_455 S
C1273 C1277 1.393 . S
C1274 H1266 0.950 . S
C1274 C1272 1.391 . S
C1274 C1275 1.394 1_655 S
C1275 C1274 1.394 1_455 S
C1275 C1276 1.406 . S
C1275 C1281 1.490 1_455 S
C1276 H1267 0.950 . S
C1276 C1275 1.406 . S
C1276 C1277 1.391 . S
C1277 H1265 0.950 . S
C1277 C1273 1.393 . S
C1277 C1276 1.391 . S
C1278 H1268 0.950 . S
C1278 C1279 1.377 1_455 S
C1278 C1280 1.391 . S
C1279 C1278 1.377 1_655 S
C1279 C1283 1.403 . S
C1280 H1269 0.950 . S
C1280 C1278 1.391 . S
C1280 C1281 1.397 1_455 S
C1281 C1275 1.490 1_655 S
C1281 C1280 1.397 1_655 S
C1281 C1282 1.403 . S
C1282 H1270 0.950 . S
C1282 C1281 1.403 . S
C1282 C1283 1.391 . S
C1283 H1271 0.950 . S
C1283 C1279 1.403 . S
C1283 C1282 1.391 . S
H1284 C1292 0.950 . S
H1285 C1297 0.950 . S
H1286 C1294 0.950 . S
H1287 C1296 0.950 . S
H1288 C1298 0.950 . S
H1289 C1300 0.950 . S
H1290 C1302 0.950 . S
H1291 C1303 0.950 . S
C1292 H1284 0.950 . S
C1292 C1293 1.373 1_545 S
C1292 C1294 1.391 . S
C1293 C1292 1.373 1_565 S
C1293 C1297 1.406 . S
C1294 H1286 0.950 . S
C1294 C1292 1.391 . S
C1294 C1295 1.398 1_545 S
C1295 C1294 1.398 1_565 S
C1295 C1296 1.401 . S
C1295 C1301 1.490 1_565 S
C1296 H1287 0.950 . S
C1296 C1295 1.401 . S
C1296 C1297 1.391 . S
C1297 H1285 0.950 . S
C1297 C1293 1.406 . S
C1297 C1296 1.391 . S
C1298 H1288 0.950 . S
C1298 C1299 1.365 1_565 S
C1298 C1300 1.391 . S
C1299 C1298 1.365 1_545 S
C1299 C1303 1.414 . S
C1300 H1289 0.950 . S
C1300 C1298 1.391 . S
C1300 C1301 1.390 1_565 S
C1301 C1295 1.490 1_545 S
C1301 C1300 1.390 1_545 S
C1301 C1302 1.409 . S
C1302 H1290 0.950 . S
C1302 C1301 1.409 . S
C1302 C1303 1.391 . S
C1303 H1291 0.950 . S
C1303 C1299 1.414 . S
C1303 C1302 1.391 . S
H1304 C1312 0.950 . S
H1305 C1317 0.950 . S
H1306 C1314 0.950 . S
H1307 C1316 0.950 . S
H1308 C1318 0.950 . S
H1309 C1320 0.950 . S
H1310 C1322 0.950 . S
H1311 C1323 0.950 . S
C1312 H1304 0.950 . S
C1312 C1313 1.397 . S
C1312 C1314 1.391 . S
C1313 C1312 1.397 . S
C1313 C1317 1.382 1_655 S
C1314 H1306 0.950 . S
C1314 C1312 1.391 . S
C1314 C1315 1.403 . S
C1315 C1314 1.403 . S
C1315 C1316 1.396 1_655 S
C1315 C1321 1.490 1_655 S
C1316 H1307 0.950 . S
C1316 C1315 1.396 1_455 S
C1316 C1317 1.391 . S
C1317 H1305 0.950 . S
C1317 C1313 1.382 1_455 S
C1317 C1316 1.391 . S
C1318 H1308 0.950 . S
C1318 C1319 1.403 . S
C1318 C1320 1.391 . S
C1319 C1318 1.403 . S
C1319 C1323 1.376 1_455 S
C1320 H1309 0.950 . S
C1320 C1318 1.391 . S
C1320 C1321 1.410 . S
C1321 C1315 1.490 1_455 S
C1321 C1320 1.410 . S
C1321 C1322 1.389 1_455 S
C1322 H1310 0.950 . S
C1322 C1321 1.389 1_655 S
C1322 C1323 1.391 . S
C1323 H1311 0.950 . S
C1323 C1319 1.376 1_655 S
C1323 C1322 1.391 . S
H1324 C1332 0.950 . S
H1325 C1337 0.950 . S
H1326 C1334 0.950 1_565 S
H1327 C1336 0.950 . S
H1328 C1338 0.950 . S
H1329 C1340 0.950 1_545 S
H1330 C1342 0.950 . S
H1331 C1343 0.950 . S
C1332 H1324 0.950 . S
C1332 C1333 1.386 . S
C1332 C1334 1.391 . S
C1333 C1332 1.386 . S
C1333 C1337 1.393 . S
C1334 H1326 0.950 1_545 S
C1334 C1332 1.391 . S
C1334 C1335 1.400 . S
C1335 C1334 1.400 . S
C1335 C1336 1.400 . S
C1335 C1341 1.490 1_545 S
C1336 H1327 0.950 . S
C1336 C1335 1.400 . S
C1336 C1337 1.391 . S
C1337 H1325 0.950 . S
C1337 C1333 1.393 . S
C1337 C1336 1.391 . S
C1338 H1328 0.950 . S
C1338 C1339 1.385 . S
C1338 C1340 1.391 . S
C1339 C1338 1.385 . S
C1339 C1343 1.394 . S
C1340 H1329 0.950 1_565 S
C1340 C1338 1.391 . S
C1340 C1341 1.400 . S
C1341 C1335 1.490 1_565 S
C1341 C1340 1.400 . S
C1341 C1342 1.399 . S
C1342 H1330 0.950 . S
C1342 C1341 1.399 . S
C1342 C1343 1.391 . S
C1343 H1331 0.950 . S
C1343 C1339 1.394 . S
C1343 C1342 1.391 . S
H1344 C1352 0.950 . S
H1345 C1357 0.950 . S
H1346 C1354 0.950 . S
H1347 C1356 0.950 . S
H1348 C1358 0.950 . S
H1349 C1360 0.950 . S
H1350 C1362 0.950 . S
H1351 C1363 0.950 . S
C1352 H1344 0.950 . S
C1352 C1353 1.368 1_455 S
C1352 C1354 1.391 . S
C1353 C1352 1.368 1_655 S
C1353 C1357 1.411 . S
C1354 H1346 0.950 . S
C1354 C1352 1.391 . S
C1354 C1355 1.394 1_455 S
C1355 C1354 1.394 1_655 S
C1355 C1356 1.405 . S
C1355 C1361 1.490 1_655 S
C1356 H1347 0.950 . S
C1356 C1355 1.405 . S
C1356 C1357 1.391 . S
C1357 H1345 0.950 . S
C1357 C1353 1.411 . S
C1357 C1356 1.391 . S
C1358 H1348 0.950 . S
C1358 C1359 1.363 1_655 S
C1358 C1360 1.391 . S
C1359 C1358 1.363 1_455 S
C1359 C1363 1.417 . S
C1360 H1349 0.950 . S
C1360 C1358 1.391 . S
C1360 C1361 1.389 1_655 S
C1361 C1355 1.490 1_455 S
C1361 C1360 1.389 1_455 S
C1361 C1362 1.411 . S
C1362 H1350 0.950 . S
C1362 C1361 1.411 . S
C1362 C1363 1.391 . S
C1363 H1351 0.950 . S
C1363 C1359 1.417 . S
C1363 C1362 1.391 . S
H1364 C1372 0.950 . S
H1365 C1377 0.950 . S
H1366 C1374 0.950 . S
H1367 C1376 0.950 . S
H1368 C1378 0.950 . S
H1369 C1380 0.950 . S
H1370 C1382 0.950 . S
H1371 C1383 0.950 . S
C1372 H1364 0.950 . S
C1372 C1373 1.380 1_554 S
C1372 C1374 1.391 . S
C1373 C1372 1.380 1_556 S
C1373 C1377 1.398 . S
C1374 H1366 0.950 . S
C1374 C1372 1.391 . S
C1374 C1375 1.402 1_554 S
C1375 C1374 1.402 1_556 S
C1375 C1376 1.396 . S
C1375 C1381 1.491 1_556 S
C1376 H1367 0.950 . S
C1376 C1375 1.396 . S
C1376 C1377 1.391 . S
C1377 H1365 0.950 . S
C1377 C1373 1.398 . S
C1377 C1376 1.391 . S
C1378 H1368 0.950 . S
C1378 C1379 1.372 1_556 S
C1378 C1380 1.391 . S
C1379 C1378 1.372 1_554 S
C1379 C1383 1.407 . S
C1380 H1369 0.950 . S
C1380 C1378 1.391 . S
C1380 C1381 1.394 1_556 S
C1381 C1375 1.491 1_554 S
C1381 C1380 1.394 1_554 S
C1381 C1382 1.405 . S
C1382 H1370 0.950 . S
C1382 C1381 1.405 . S
C1382 C1383 1.391 . S
C1383 H1371 0.950 . S
C1383 C1379 1.407 . S
C1383 C1382 1.391 . S
H1384 C1392 0.950 . S
H1385 C1397 0.950 . S
H1386 C1394 0.950 . S
H1387 C1396 0.950 . S
H1388 C1398 0.950 . S
H1389 C1400 0.950 . S
H1390 C1402 0.950 . S
H1391 C1403 0.950 . S
C1392 H1384 0.950 . S
C1392 C1393 1.363 1_556 S
C1392 C1394 1.391 . S
C1393 C1392 1.363 1_554 S
C1393 C1397 1.416 . S
C1394 H1386 0.950 . S
C1394 C1392 1.391 . S
C1394 C1395 1.389 1_556 S
C1395 C1394 1.389 1_554 S
C1395 C1396 1.410 . S
C1395 C1401 1.490 1_554 S
C1396 H1387 0.950 . S
C1396 C1395 1.410 . S
C1396 C1397 1.391 . S
C1397 H1385 0.950 . S
C1397 C1393 1.416 . S
C1397 C1396 1.391 . S
C1398 H1388 0.950 . S
C1398 C1399 1.371 1_554 S
C1398 C1400 1.391 . S
C1399 C1398 1.371 1_556 S
C1399 C1403 1.408 . S
C1400 H1389 0.950 . S
C1400 C1398 1.391 . S
C1400 C1401 1.396 1_554 S
C1401 C1395 1.490 1_556 S
C1401 C1400 1.396 1_556 S
C1401 C1402 1.402 . S
C1402 H1390 0.950 . S
C1402 C1401 1.402 . S
C1402 C1403 1.391 . S
C1403 H1391 0.950 . S
C1403 C1399 1.408 . S
C1403 C1402 1.391 . S
H1404 C1412 0.950 . S
H1405 C1417 0.950 . S
H1406 C1414 0.950 . S
H1407 C1416 0.950 . S
H1408 C1418 0.950 . S
H1409 C1420 0.950 . S
H1410 C1422 0.950 . S
H1411 C1423 0.950 . S
C1412 H1404 0.950 . S
C1412 C1413 1.383 1_556 S
C1412 C1414 1.391 . S
C1413 C1412 1.383 1_554 S
C1413 C1417 1.396 . S
C1414 H1406 0.950 . S
C1414 C1412 1.391 . S
C1414 C1415 1.399 1_556 S
C1415 C1414 1.399 1_554 S
C1415 C1416 1.399 . S
C1415 C1421 1.491 . S
C1416 H1407 0.950 . S
C1416 C1415 1.399 . S
C1416 C1417 1.391 . S
C1417 H1405 0.950 . S
C1417 C1413 1.396 . S
C1417 C1416 1.391 . S
C1418 H1408 0.950 . S
C1418 C1419 1.383 . S
C1418 C1420 1.391 . S
C1419 C1418 1.383 . S
C1419 C1423 1.396 1_554 S
C1420 H1409 0.950 . S
C1420 C1418 1.391 . S
C1420 C1421 1.399 . S
C1421 C1415 1.491 . S
C1421 C1420 1.399 . S
C1421 C1422 1.399 1_554 S
C1422 H1410 0.950 . S
C1422 C1421 1.399 1_556 S
C1422 C1423 1.391 . S
C1423 H1411 0.950 . S
C1423 C1419 1.396 1_556 S
C1423 C1422 1.391 . S
H1424 C1432 0.950 . S
H1425 C1437 0.950 . S
H1426 C1434 0.950 . S
H1427 C1436 0.950 . S
H1428 C1438 0.950 . S
H1429 C1440 0.950 . S
H1430 C1442 0.950 . S
H1431 C1443 0.950 . S
C1432 H1424 0.950 . S
C1432 C1433 1.404 . S
C1432 C1434 1.391 . S
C1433 C1432 1.404 . S
C1433 C1437 1.376 1_554 S
C1434 H1426 0.950 . S
C1434 C1432 1.391 . S
C1434 C1435 1.410 . S
C1435 C1434 1.410 . S
C1435 C1436 1.390 1_554 S
C1435 C1441 1.490 1_554 S
C1436 H1427 0.950 . S
C1436 C1435 1.390 1_556 S
C1436 C1437 1.391 . S
C1437 H1425 0.950 . S
C1437 C1433 1.376 1_556 S
C1437 C1436 1.391 . S
C1438 H1428 0.950 . S
C1438 C1439 1.399 . S
C1438 C1440 1.391 . S
C1439 C1438 1.399 . S
C1439 C1443 1.380 1_556 S
C1440 H1429 0.950 . S
C1440 C1438 1.391 . S
C1440 C1441 1.405 . S
C1441 C1435 1.490 1_556 S
C1441 C1440 1.405 . S
C1441 C1442 1.394 1_556 S
C1442 H1430 0.950 . S
C1442 C1441 1.394 1_554 S
C1442 C1443 1.391 . S
C1443 H1431 0.950 . S
C1443 C1439 1.380 1_554 S
C1443 C1442 1.391 . S
H1444 C1452 0.950 . S
H1445 C1457 0.950 . S
H1446 C1454 0.950 . S
H1447 C1456 0.950 . S
H1448 C1458 0.950 . S
H1449 C1460 0.950 . S
H1450 C1462 0.950 . S
H1451 C1463 0.950 . S
C1452 H1444 0.950 . S
C1452 C1453 1.364 1_556 S
C1452 C1454 1.391 . S
C1453 C1452 1.364 1_554 S
C1453 C1457 1.414 . S
C1454 H1446 0.950 . S
C1454 C1452 1.391 . S
C1454 C1455 1.390 1_556 S
C1455 C1454 1.390 1_554 S
C1455 C1456 1.409 . S
C1455 C1461 1.490 1_554 S
C1456 H1447 0.950 . S
C1456 C1455 1.409 . S
C1456 C1457 1.391 . S
C1457 H1445 0.950 . S
C1457 C1453 1.414 . S
C1457 C1456 1.391 . S
C1458 H1448 0.950 . S
C1458 C1459 1.372 1_554 S
C1458 C1460 1.391 . S
C1459 C1458 1.372 1_556 S
C1459 C1463 1.406 . S
C1460 H1449 0.950 . S
C1460 C1458 1.391 . S
C1460 C1461 1.397 1_554 S
C1461 C1455 1.490 1_556 S
C1461 C1460 1.397 1_556 S
C1461 C1462 1.401 . S
C1462 H1450 0.950 . S
C1462 C1461 1.401 . S
C1462 C1463 1.391 . S
C1463 H1451 0.950 . S
C1463 C1459 1.406 . S
C1463 C1462 1.391 . S
H1464 C1472 0.950 . S
H1465 C1477 0.950 . S
H1466 C1474 0.950 . S
H1467 C1476 0.950 . S
H1468 C1478 0.950 . S
H1469 C1480 0.950 . S
H1470 C1482 0.950 . S
H1471 C1483 0.950 . S
C1472 H1464 0.950 . S
C1472 C1473 1.397 . S
C1472 C1474 1.391 . S
C1473 C1472 1.397 . S
C1473 C1477 1.382 1_556 S
C1474 H1466 0.950 . S
C1474 C1472 1.391 . S
C1474 C1475 1.403 . S
C1475 C1474 1.403 . S
C1475 C1476 1.396 1_556 S
C1475 C1481 1.490 1_556 S
C1476 H1467 0.950 . S
C1476 C1475 1.396 1_554 S
C1476 C1477 1.391 . S
C1477 H1465 0.950 . S
C1477 C1473 1.382 1_554 S
C1477 C1476 1.391 . S
C1478 H1468 0.950 . S
C1478 C1479 1.403 . S
C1478 C1480 1.391 . S
C1479 C1478 1.403 . S
C1479 C1483 1.376 1_554 S
C1480 H1469 0.950 . S
C1480 C1478 1.391 . S
C1480 C1481 1.410 . S
C1481 C1475 1.490 1_554 S
C1481 C1480 1.410 . S
C1481 C1482 1.389 1_554 S
C1482 H1470 0.950 . S
C1482 C1481 1.389 1_556 S
C1482 C1483 1.391 . S
C1483 H1471 0.950 . S
C1483 C1479 1.376 1_556 S
C1483 C1482 1.391 . S
H1484 C1492 0.950 . S
H1485 C1497 0.950 . S
H1486 C1494 0.950 . S
H1487 C1496 0.950 . S
H1488 C1498 0.950 . S
H1489 C1500 0.950 . S
H1490 C1502 0.950 . S
H1491 C1503 0.950 . S
C1492 H1484 0.950 . S
C1492 C1493 1.366 1_556 S
C1492 C1494 1.391 . S
C1493 C1492 1.366 1_554 S
C1493 C1497 1.413 . S
C1494 H1486 0.950 . S
C1494 C1492 1.391 . S
C1494 C1495 1.390 1_556 S
C1495 C1494 1.390 1_554 S
C1495 C1496 1.408 . S
C1495 C1501 1.490 1_554 S
C1496 H1487 0.950 . S
C1496 C1495 1.408 . S
C1496 C1497 1.391 . S
C1497 H1485 0.950 . S
C1497 C1493 1.413 . S
C1497 C1496 1.391 . S
C1498 H1488 0.950 . S
C1498 C1499 1.374 1_554 S
C1498 C1500 1.391 . S
C1499 C1498 1.374 1_556 S
C1499 C1503 1.405 . S
C1500 H1489 0.950 . S
C1500 C1498 1.391 . S
C1500 C1501 1.398 1_554 S
C1501 C1495 1.490 1_556 S
C1501 C1500 1.398 1_556 S
C1501 C1502 1.400 . S
C1502 H1490 0.950 . S
C1502 C1501 1.400 . S
C1502 C1503 1.391 . S
C1503 H1491 0.950 . S
C1503 C1499 1.405 . S
C1503 C1502 1.391 . S
H1504 C1512 0.950 . S
H1505 C1517 0.950 . S
H1506 C1514 0.950 . S
H1507 C1516 0.950 . S
H1508 C1518 0.950 . S
H1509 C1520 0.950 . S
H1510 C1522 0.950 . S
H1511 C1523 0.950 . S
C1512 H1504 0.950 . S
C1512 C1513 1.399 . S
C1512 C1514 1.391 . S
C1513 C1512 1.399 . S
C1513 C1517 1.380 1_556 S
C1514 H1506 0.950 . S
C1514 C1512 1.391 . S
C1514 C1515 1.404 . S
C1515 C1514 1.404 . S
C1515 C1516 1.394 1_556 S
C1515 C1521 1.490 1_556 S
C1516 H1507 0.950 . S
C1516 C1515 1.394 1_554 S
C1516 C1517 1.391 . S
C1517 H1505 0.950 . S
C1517 C1513 1.380 1_554 S
C1517 C1516 1.391 . S
C1518 H1508 0.950 . S
C1518 C1519 1.405 . S
C1518 C1520 1.391 . S
C1519 C1518 1.405 . S
C1519 C1523 1.375 1_554 S
C1520 H1509 0.950 . S
C1520 C1518 1.391 . S
C1520 C1521 1.410 . S
C1521 C1515 1.490 1_554 S
C1521 C1520 1.410 . S
C1521 C1522 1.389 1_554 S
C1522 H1510 0.950 . S
C1522 C1521 1.389 1_556 S
C1522 C1523 1.391 . S
C1523 H1511 0.950 . S
C1523 C1519 1.375 1_556 S
C1523 C1522 1.391 . S
H1524 C1532 0.950 . S
H1525 C1537 0.950 . S
H1526 C1534 0.950 . S
H1527 C1536 0.950 . S
H1528 C1538 0.950 . S
H1529 C1540 0.950 . S
H1530 C1542 0.950 . S
H1531 C1543 0.950 . S
C1532 H1524 0.950 . S
C1532 C1533 1.386 . S
C1532 C1534 1.391 . S
C1533 C1532 1.386 . S
C1533 C1537 1.393 . S
C1534 H1526 0.950 . S
C1534 C1532 1.391 . S
C1534 C1535 1.400 . S
C1535 C1534 1.400 . S
C1535 C1536 1.398 . S
C1535 C1541 1.491 . S
C1536 H1527 0.950 . S
C1536 C1535 1.398 . S
C1536 C1537 1.391 . S
C1537 H1525 0.950 . S
C1537 C1533 1.393 . S
C1537 C1536 1.391 . S
C1538 H1528 0.950 . S
C1538 C1539 1.386 . S
C1538 C1540 1.391 . S
C1539 C1538 1.386 . S
C1539 C1543 1.393 . S
C1540 H1529 0.950 . S
C1540 C1538 1.391 . S
C1540 C1541 1.400 . S
C1541 C1535 1.491 . S
C1541 C1540 1.400 . S
C1541 C1542 1.398 . S
C1542 H1530 0.950 . S
C1542 C1541 1.398 . S
C1542 C1543 1.391 . S
C1543 H1531 0.950 . S
C1543 C1539 1.393 . S
C1543 C1542 1.391 . S
H1544 C1552 0.950 . S
H1545 C1557 0.950 . S
H1546 C1554 0.950 . S
H1547 C1556 0.950 . S
H1548 C1558 0.950 . S
H1549 C1560 0.950 . S
H1550 C1562 0.950 . S
H1551 C1563 0.950 . S
C1552 H1544 0.950 . S
C1552 C1553 1.386 . S
C1552 C1554 1.391 . S
C1553 C1552 1.386 . S
C1553 C1557 1.393 . S
C1554 H1546 0.950 . S
C1554 C1552 1.391 . S
C1554 C1555 1.400 . S
C1555 C1554 1.400 . S
C1555 C1556 1.398 . S
C1555 C1561 1.491 . S
C1556 H1547 0.950 . S
C1556 C1555 1.398 . S
C1556 C1557 1.391 . S
C1557 H1545 0.950 . S
C1557 C1553 1.393 . S
C1557 C1556 1.391 . S
C1558 H1548 0.950 . S
C1558 C1559 1.386 . S
C1558 C1560 1.391 . S
C1559 C1558 1.386 . S
C1559 C1563 1.393 . S
C1560 H1549 0.950 . S
C1560 C1558 1.391 . S
C1560 C1561 1.400 . S
C1561 C1555 1.491 . S
C1561 C1560 1.400 . S
C1561 C1562 1.398 . S
C1562 H1550 0.950 . S
C1562 C1561 1.398 . S
C1562 C1563 1.391 . S
C1563 H1551 0.950 . S
C1563 C1559 1.393 . S
C1563 C1562 1.391 . S
H1564 C1572 0.950 . S
H1565 C1577 0.950 . S
H1566 C1574 0.950 . S
H1567 C1576 0.950 . S
H1568 C1578 0.950 . S
H1569 C1580 0.950 . S
H1570 C1582 0.950 . S
H1571 C1583 0.950 . S
C1572 H1564 0.950 . S
C1572 C1573 1.386 . S
C1572 C1574 1.391 . S
C1573 C1572 1.386 . S
C1573 C1577 1.393 . S
C1574 H1566 0.950 . S
C1574 C1572 1.391 . S
C1574 C1575 1.400 . S
C1575 C1574 1.400 . S
C1575 C1576 1.398 . S
C1575 C1581 1.491 . S
C1576 H1567 0.950 . S
C1576 C1575 1.398 . S
C1576 C1577 1.391 . S
C1577 H1565 0.950 . S
C1577 C1573 1.393 . S
C1577 C1576 1.391 . S
C1578 H1568 0.950 . S
C1578 C1579 1.386 . S
C1578 C1580 1.391 . S
C1579 C1578 1.386 . S
C1579 C1583 1.393 . S
C1580 H1569 0.950 . S
C1580 C1578 1.391 . S
C1580 C1581 1.400 . S
C1581 C1575 1.491 . S
C1581 C1580 1.400 . S
C1581 C1582 1.398 . S
C1582 H1570 0.950 . S
C1582 C1581 1.398 . S
C1582 C1583 1.391 . S
C1583 H1571 0.950 . S
C1583 C1579 1.393 . S
C1583 C1582 1.391 . S
H1584 C1592 0.950 . S
H1585 C1597 0.950 . S
H1586 C1594 0.950 . S
H1587 C1596 0.950 . S
H1588 C1598 0.950 . S
H1589 C1600 0.950 . S
H1590 C1602 0.950 . S
H1591 C1603 0.950 . S
C1592 H1584 0.950 . S
C1592 C1593 1.386 . S
C1592 C1594 1.391 . S
C1593 C1592 1.386 . S
C1593 C1597 1.393 . S
C1594 H1586 0.950 . S
C1594 C1592 1.391 . S
C1594 C1595 1.400 . S
C1595 C1594 1.400 . S
C1595 C1596 1.398 . S
C1595 C1601 1.491 . S
C1596 H1587 0.950 . S
C1596 C1595 1.398 . S
C1596 C1597 1.391 . S
C1597 H1585 0.950 . S
C1597 C1593 1.393 . S
C1597 C1596 1.391 . S
C1598 H1588 0.950 . S
C1598 C1599 1.386 . S
C1598 C1600 1.391 . S
C1599 C1598 1.386 . S
C1599 C1603 1.393 . S
C1600 H1589 0.950 . S
C1600 C1598 1.391 . S
C1600 C1601 1.400 . S
C1601 C1595 1.491 . S
C1601 C1600 1.400 . S
C1601 C1602 1.398 . S
C1602 H1590 0.950 . S
C1602 C1601 1.398 . S
C1602 C1603 1.391 . S
C1603 H1591 0.950 . S
C1603 C1599 1.393 . S
C1603 C1602 1.391 . S
H1604 C1612 0.950 . S
H1605 C1617 0.950 . S
H1606 C1614 0.950 . S
H1607 C1616 0.950 . S
H1608 C1618 0.950 . S
H1609 C1620 0.950 . S
H1610 C1622 0.950 . S
H1611 C1623 0.950 . S
C1612 H1604 0.950 . S
C1612 C1613 1.386 . S
C1612 C1614 1.391 . S
C1613 C1612 1.386 . S
C1613 C1617 1.393 . S
C1614 H1606 0.950 . S
C1614 C1612 1.391 . S
C1614 C1615 1.400 . S
C1615 C1614 1.400 . S
C1615 C1616 1.398 . S
C1615 C1621 1.491 . S
C1616 H1607 0.950 . S
C1616 C1615 1.398 . S
C1616 C1617 1.391 . S
C1617 H1605 0.950 . S
C1617 C1613 1.393 . S
C1617 C1616 1.391 . S
C1618 H1608 0.950 . S
C1618 C1619 1.386 . S
C1618 C1620 1.391 . S
C1619 C1618 1.386 . S
C1619 C1623 1.393 . S
C1620 H1609 0.950 . S
C1620 C1618 1.391 . S
C1620 C1621 1.400 . S
C1621 C1615 1.491 . S
C1621 C1620 1.400 . S
C1621 C1622 1.398 . S
C1622 H1610 0.950 . S
C1622 C1621 1.398 . S
C1622 C1623 1.391 . S
C1623 H1611 0.950 . S
C1623 C1619 1.393 . S
C1623 C1622 1.391 . S
H1624 C1632 0.950 . S
H1625 C1637 0.950 . S
H1626 C1634 0.950 . S
H1627 C1636 0.950 . S
H1628 C1638 0.950 . S
H1629 C1640 0.950 . S
H1630 C1642 0.950 . S
H1631 C1643 0.950 . S
C1632 H1624 0.950 . S
C1632 C1633 1.386 . S
C1632 C1634 1.391 . S
C1633 C1632 1.386 . S
C1633 C1637 1.393 . S
C1634 H1626 0.950 . S
C1634 C1632 1.391 . S
C1634 C1635 1.400 . S
C1635 C1634 1.400 . S
C1635 C1636 1.398 . S
C1635 C1641 1.491 . S
C1636 H1627 0.950 . S
C1636 C1635 1.398 . S
C1636 C1637 1.391 . S
C1637 H1625 0.950 . S
C1637 C1633 1.393 . S
C1637 C1636 1.391 . S
C1638 H1628 0.950 . S
C1638 C1639 1.386 . S
C1638 C1640 1.391 . S
C1639 C1638 1.386 . S
C1639 C1643 1.393 . S
C1640 H1629 0.950 . S
C1640 C1638 1.391 . S
C1640 C1641 1.400 . S
C1641 C1635 1.491 . S
C1641 C1640 1.400 . S
C1641 C1642 1.398 . S
C1642 H1630 0.950 . S
C1642 C1641 1.398 . S
C1642 C1643 1.391 . S
C1643 H1631 0.950 . S
C1643 C1639 1.393 . S
C1643 C1642 1.391 . S
H1644 C1652 0.950 . S
H1645 C1657 0.950 . S
H1646 C1654 0.950 . S
H1647 C1656 0.950 . S
H1648 C1658 0.950 . S
H1649 C1660 0.950 . S
H1650 C1662 0.950 . S
H1651 C1663 0.950 . S
C1652 H1644 0.950 . S
C1652 C1653 1.386 . S
C1652 C1654 1.391 . S
C1653 C1652 1.386 . S
C1653 C1657 1.393 . S
C1654 H1646 0.950 . S
C1654 C1652 1.391 . S
C1654 C1655 1.400 . S
C1655 C1654 1.400 . S
C1655 C1656 1.398 . S
C1655 C1661 1.491 . S
C1656 H1647 0.950 . S
C1656 C1655 1.398 . S
C1656 C1657 1.391 . S
C1657 H1645 0.950 . S
C1657 C1653 1.393 . S
C1657 C1656 1.391 . S
C1658 H1648 0.950 . S
C1658 C1659 1.386 . S
C1658 C1660 1.391 . S
C1659 C1658 1.386 . S
C1659 C1663 1.393 . S
C1660 H1649 0.950 . S
C1660 C1658 1.391 . S
C1660 C1661 1.400 . S
C1661 C1655 1.491 . S
C1661 C1660 1.400 . S
C1661 C1662 1.398 . S
C1662 H1650 0.950 . S
C1662 C1661 1.398 . S
C1662 C1663 1.391 . S
C1663 H1651 0.950 . S
C1663 C1659 1.393 . S
C1663 C1662 1.391 . S
H1664 C1672 0.950 . S
H1665 C1677 0.950 . S
H1666 C1674 0.950 . S
H1667 C1676 0.950 . S
H1668 C1678 0.950 . S
H1669 C1680 0.950 . S
H1670 C1682 0.950 . S
H1671 C1683 0.950 . S
C1672 H1664 0.950 . S
C1672 C1673 1.386 . S
C1672 C1674 1.391 . S
C1673 C1672 1.386 . S
C1673 C1677 1.393 . S
C1674 H1666 0.950 . S
C1674 C1672 1.391 . S
C1674 C1675 1.400 . S
C1675 C1674 1.400 . S
C1675 C1676 1.398 . S
C1675 C1681 1.491 . S
C1676 H1667 0.950 . S
C1676 C1675 1.398 . S
C1676 C1677 1.391 . S
C1677 H1665 0.950 . S
C1677 C1673 1.393 . S
C1677 C1676 1.391 . S
C1678 H1668 0.950 . S
C1678 C1679 1.386 . S
C1678 C1680 1.391 . S
C1679 C1678 1.386 . S
C1679 C1683 1.393 . S
C1680 H1669 0.950 . S
C1680 C1678 1.391 . S
C1680 C1681 1.400 . S
C1681 C1675 1.491 . S
C1681 C1680 1.400 . S
C1681 C1682 1.398 . S
C1682 H1670 0.950 . S
C1682 C1681 1.398 . S
C1682 C1683 1.391 . S
C1683 H1671 0.950 . S
C1683 C1679 1.393 . S
C1683 C1682 1.391 . S
H1684 C1692 0.950 . S
H1685 C1697 0.950 . S
H1686 C1694 0.950 . S
H1687 C1696 0.950 . S
H1688 C1698 0.950 . S
H1689 C1700 0.950 . S
H1690 C1702 0.950 . S
H1691 C1703 0.950 . S
C1692 H1684 0.950 . S
C1692 C1693 1.386 . S
C1692 C1694 1.391 . S
C1693 C1692 1.386 . S
C1693 C1697 1.393 . S
C1694 H1686 0.950 . S
C1694 C1692 1.391 . S
C1694 C1695 1.400 . S
C1695 C1694 1.400 . S
C1695 C1696 1.398 . S
C1695 C1701 1.491 . S
C1696 H1687 0.950 . S
C1696 C1695 1.398 . S
C1696 C1697 1.391 . S
C1697 H1685 0.950 . S
C1697 C1693 1.393 . S
C1697 C1696 1.391 . S
C1698 H1688 0.950 . S
C1698 C1699 1.386 . S
C1698 C1700 1.391 . S
C1699 C1698 1.386 . S
C1699 C1703 1.393 . S
C1700 H1689 0.950 . S
C1700 C1698 1.391 . S
C1700 C1701 1.400 . S
C1701 C1695 1.491 . S
C1701 C1700 1.400 . S
C1701 C1702 1.398 . S
C1702 H1690 0.950 . S
C1702 C1701 1.398 . S
C1702 C1703 1.391 . S
C1703 H1691 0.950 . S
C1703 C1699 1.393 . S
C1703 C1702 1.391 . S
H1704 C1712 0.950 . S
H1705 C1717 0.950 . S
H1706 C1714 0.950 . S
H1707 C1716 0.950 . S
H1708 C1718 0.950 . S
H1709 C1720 0.950 . S
H1710 C1722 0.950 . S
H1711 C1723 0.950 . S
C1712 H1704 0.950 . S
C1712 C1713 1.386 . S
C1712 C1714 1.391 . S
C1713 C1712 1.386 . S
C1713 C1717 1.393 . S
C1714 H1706 0.950 . S
C1714 C1712 1.391 . S
C1714 C1715 1.400 . S
C1715 C1714 1.400 . S
C1715 C1716 1.398 . S
C1715 C1721 1.491 . S
C1716 H1707 0.950 . S
C1716 C1715 1.398 . S
C1716 C1717 1.391 . S
C1717 H1705 0.950 . S
C1717 C1713 1.393 . S
C1717 C1716 1.391 . S
C1718 H1708 0.950 . S
C1718 C1719 1.386 . S
C1718 C1720 1.391 . S
C1719 C1718 1.386 . S
C1719 C1723 1.393 . S
C1720 H1709 0.950 . S
C1720 C1718 1.391 . S
C1720 C1721 1.400 . S
C1721 C1715 1.491 . S
C1721 C1720 1.400 . S
C1721 C1722 1.398 . S
C1722 H1710 0.950 . S
C1722 C1721 1.398 . S
C1722 C1723 1.391 . S
C1723 H1711 0.950 . S
C1723 C1719 1.393 . S
C1723 C1722 1.391 . S
H1724 C1732 0.950 . S
H1725 C1737 0.950 . S
H1726 C1734 0.950 . S
H1727 C1736 0.950 . S
H1728 C1738 0.950 . S
H1729 C1740 0.950 . S
H1730 C1742 0.950 . S
H1731 C1743 0.950 . S
C1732 H1724 0.950 . S
C1732 C1733 1.386 . S
C1732 C1734 1.391 . S
C1733 C1732 1.386 . S
C1733 C1737 1.393 . S
C1734 H1726 0.950 . S
C1734 C1732 1.391 . S
C1734 C1735 1.400 . S
C1735 C1734 1.400 . S
C1735 C1736 1.398 . S
C1735 C1741 1.491 . S
C1736 H1727 0.950 . S
C1736 C1735 1.398 . S
C1736 C1737 1.391 . S
C1737 H1725 0.950 . S
C1737 C1733 1.393 . S
C1737 C1736 1.391 . S
C1738 H1728 0.950 . S
C1738 C1739 1.386 . S
C1738 C1740 1.391 . S
C1739 C1738 1.386 . S
C1739 C1743 1.393 . S
C1740 H1729 0.950 . S
C1740 C1738 1.391 . S
C1740 C1741 1.400 . S
C1741 C1735 1.491 . S
C1741 C1740 1.400 . S
C1741 C1742 1.398 . S
C1742 H1730 0.950 . S
C1742 C1741 1.398 . S
C1742 C1743 1.391 . S
C1743 H1731 0.950 . S
C1743 C1739 1.393 . S
C1743 C1742 1.391 . S
H1744 C1752 0.950 . S
H1745 C1757 0.950 . S
H1746 C1754 0.950 . S
H1747 C1756 0.950 . S
H1748 C1758 0.950 . S
H1749 C1760 0.950 . S
H1750 C1762 0.950 . S
H1751 C1763 0.950 . S
C1752 H1744 0.950 . S
C1752 C1753 1.386 . S
C1752 C1754 1.391 . S
C1753 C1752 1.386 . S
C1753 C1757 1.393 . S
C1754 H1746 0.950 . S
C1754 C1752 1.391 . S
C1754 C1755 1.400 . S
C1755 C1754 1.400 . S
C1755 C1756 1.398 . S
C1755 C1761 1.491 . S
C1756 H1747 0.950 . S
C1756 C1755 1.398 . S
C1756 C1757 1.391 . S
C1757 H1745 0.950 . S
C1757 C1753 1.393 . S
C1757 C1756 1.391 . S
C1758 H1748 0.950 . S
C1758 C1759 1.386 . S
C1758 C1760 1.391 . S
C1759 C1758 1.386 . S
C1759 C1763 1.393 . S
C1760 H1749 0.950 . S
C1760 C1758 1.391 . S
C1760 C1761 1.400 . S
C1761 C1755 1.491 . S
C1761 C1760 1.400 . S
C1761 C1762 1.398 . S
C1762 H1750 0.950 . S
C1762 C1761 1.398 . S
C1762 C1763 1.391 . S
C1763 H1751 0.950 . S
C1763 C1759 1.393 . S
C1763 C1762 1.391 . S
H1764 C1772 0.950 . S
H1765 C1777 0.950 . S
H1766 C1774 0.950 . S
H1767 C1776 0.950 . S
H1768 C1778 0.950 . S
H1769 C1780 0.950 . S
H1770 C1782 0.950 . S
H1771 C1783 0.950 . S
C1772 H1764 0.950 . S
C1772 C1773 1.386 . S
C1772 C1774 1.391 . S
C1773 C1772 1.386 . S
C1773 C1777 1.393 . S
C1774 H1766 0.950 . S
C1774 C1772 1.391 . S
C1774 C1775 1.400 . S
C1775 C1774 1.400 . S
C1775 C1776 1.398 . S
C1775 C1781 1.491 . S
C1776 H1767 0.950 . S
C1776 C1775 1.398 . S
C1776 C1777 1.391 . S
C1777 H1765 0.950 . S
C1777 C1773 1.393 . S
C1777 C1776 1.391 . S
C1778 H1768 0.950 . S
C1778 C1779 1.386 . S
C1778 C1780 1.391 . S
C1779 C1778 1.386 . S
C1779 C1783 1.393 . S
C1780 H1769 0.950 . S
C1780 C1778 1.391 . S
C1780 C1781 1.400 . S
C1781 C1775 1.491 . S
C1781 C1780 1.400 . S
C1781 C1782 1.398 . S
C1782 H1770 0.950 . S
C1782 C1781 1.398 . S
C1782 C1783 1.391 . S
C1783 H1771 0.950 . S
C1783 C1779 1.393 . S
C1783 C1782 1.391 . S
H1784 C1792 0.950 . S
H1785 C1797 0.950 . S
H1786 C1794 0.950 . S
H1787 C1796 0.950 . S
H1788 C1798 0.950 . S
H1789 C1800 0.950 . S
H1790 C1802 0.950 . S
H1791 C1803 0.950 . S
C1792 H1784 0.950 . S
C1792 C1793 1.386 . S
C1792 C1794 1.391 . S
C1793 C1792 1.386 . S
C1793 C1797 1.393 . S
C1794 H1786 0.950 . S
C1794 C1792 1.391 . S
C1794 C1795 1.400 . S
C1795 C1794 1.400 . S
C1795 C1796 1.398 . S
C1795 C1801 1.491 . S
C1796 H1787 0.950 . S
C1796 C1795 1.398 . S
C1796 C1797 1.391 . S
C1797 H1785 0.950 . S
C1797 C1793 1.393 . S
C1797 C1796 1.391 . S
C1798 H1788 0.950 . S
C1798 C1799 1.386 . S
C1798 C1800 1.391 . S
C1799 C1798 1.386 . S
C1799 C1803 1.393 . S
C1800 H1789 0.950 . S
C1800 C1798 1.391 . S
C1800 C1801 1.400 . S
C1801 C1795 1.491 . S
C1801 C1800 1.400 . S
C1801 C1802 1.398 . S
C1802 H1790 0.950 . S
C1802 C1801 1.398 . S
C1802 C1803 1.391 . S
C1803 H1791 0.950 . S
C1803 C1799 1.393 . S
C1803 C1802 1.391 . S
H1804 C1812 0.950 . S
H1805 C1817 0.950 . S
H1806 C1814 0.950 . S
H1807 C1816 0.950 . S
H1808 C1818 0.950 . S
H1809 C1820 0.950 . S
H1810 C1822 0.950 . S
H1811 C1823 0.950 . S
C1812 H1804 0.950 . S
C1812 C1813 1.386 . S
C1812 C1814 1.391 . S
C1813 C1812 1.386 . S
C1813 C1817 1.393 . S
C1814 H1806 0.950 . S
C1814 C1812 1.391 . S
C1814 C1815 1.400 . S
C1815 C1814 1.400 . S
C1815 C1816 1.398 . S
C1815 C1821 1.491 . S
C1816 H1807 0.950 . S
C1816 C1815 1.398 . S
C1816 C1817 1.391 . S
C1817 H1805 0.950 . S
C1817 C1813 1.393 . S
C1817 C1816 1.391 . S
C1818 H1808 0.950 . S
C1818 C1819 1.386 . S
C1818 C1820 1.391 . S
C1819 C1818 1.386 . S
C1819 C1823 1.393 . S
C1820 H1809 0.950 . S
C1820 C1818 1.391 . S
C1820 C1821 1.400 . S
C1821 C1815 1.491 . S
C1821 C1820 1.400 . S
C1821 C1822 1.398 . S
C1822 H1810 0.950 . S
C1822 C1821 1.398 . S
C1822 C1823 1.391 . S
C1823 H1811 0.950 . S
C1823 C1819 1.393 . S
C1823 C1822 1.391 . S
H1824 C1832 0.950 . S
H1825 C1837 0.950 . S
H1826 C1834 0.950 . S
H1827 C1836 0.950 . S
H1828 C1838 0.950 . S
H1829 C1840 0.950 . S
H1830 C1842 0.950 . S
H1831 C1843 0.950 . S
C1832 H1824 0.950 . S
C1832 C1833 1.386 . S
C1832 C1834 1.391 . S
C1833 C1832 1.386 . S
C1833 C1837 1.393 . S
C1834 H1826 0.950 . S
C1834 C1832 1.391 . S
C1834 C1835 1.400 . S
C1835 C1834 1.400 . S
C1835 C1836 1.398 . S
C1835 C1841 1.491 . S
C1836 H1827 0.950 . S
C1836 C1835 1.398 . S
C1836 C1837 1.391 . S
C1837 H1825 0.950 . S
C1837 C1833 1.393 . S
C1837 C1836 1.391 . S
C1838 H1828 0.950 . S
C1838 C1839 1.386 . S
C1838 C1840 1.391 . S
C1839 C1838 1.386 . S
C1839 C1843 1.393 . S
C1840 H1829 0.950 . S
C1840 C1838 1.391 . S
C1840 C1841 1.400 . S
C1841 C1835 1.491 . S
C1841 C1840 1.400 . S
C1841 C1842 1.398 . S
C1842 H1830 0.950 . S
C1842 C1841 1.398 . S
C1842 C1843 1.391 . S
C1843 H1831 0.950 . S
C1843 C1839 1.393 . S
C1843 C1842 1.391 . S
H1844 C1852 0.950 . S
H1845 C1857 0.950 . S
H1846 C1854 0.950 . S
H1847 C1856 0.950 . S
H1848 C1858 0.950 . S
H1849 C1860 0.950 . S
H1850 C1862 0.950 . S
H1851 C1863 0.950 . S
C1852 H1844 0.950 . S
C1852 C1853 1.386 . S
C1852 C1854 1.391 . S
C1853 C1852 1.386 . S
C1853 C1857 1.393 . S
C1854 H1846 0.950 . S
C1854 C1852 1.391 . S
C1854 C1855 1.400 . S
C1855 C1854 1.400 . S
C1855 C1856 1.398 . S
C1855 C1861 1.491 . S
C1856 H1847 0.950 . S
C1856 C1855 1.398 . S
C1856 C1857 1.391 . S
C1857 H1845 0.950 . S
C1857 C1853 1.393 . S
C1857 C1856 1.391 . S
C1858 H1848 0.950 . S
C1858 C1859 1.386 . S
C1858 C1860 1.391 . S
C1859 C1858 1.386 . S
C1859 C1863 1.393 . S
C1860 H1849 0.950 . S
C1860 C1858 1.391 . S
C1860 C1861 1.400 . S
C1861 C1855 1.491 . S
C1861 C1860 1.400 . S
C1861 C1862 1.398 . S
C1862 H1850 0.950 . S
C1862 C1861 1.398 . S
C1862 C1863 1.391 . S
C1863 H1851 0.950 . S
C1863 C1859 1.393 . S
C1863 C1862 1.391 . S
H1864 C1872 0.950 . S
H1865 C1877 0.950 . S
H1866 C1874 0.950 . S
H1867 C1876 0.950 . S
H1868 C1878 0.950 . S
H1869 C1880 0.950 . S
H1870 C1882 0.950 . S
H1871 C1883 0.950 . S
C1872 H1864 0.950 . S
C1872 C1873 1.386 . S
C1872 C1874 1.391 . S
C1873 C1872 1.386 . S
C1873 C1877 1.393 . S
C1874 H1866 0.950 . S
C1874 C1872 1.391 . S
C1874 C1875 1.400 . S
C1875 C1874 1.400 . S
C1875 C1876 1.398 . S
C1875 C1881 1.491 . S
C1876 H1867 0.950 . S
C1876 C1875 1.398 . S
C1876 C1877 1.391 . S
C1877 H1865 0.950 . S
C1877 C1873 1.393 . S
C1877 C1876 1.391 . S
C1878 H1868 0.950 . S
C1878 C1879 1.386 . S
C1878 C1880 1.391 . S
C1879 C1878 1.386 . S
C1879 C1883 1.393 . S
C1880 H1869 0.950 . S
C1880 C1878 1.391 . S
C1880 C1881 1.400 . S
C1881 C1875 1.491 . S
C1881 C1880 1.400 . S
C1881 C1882 1.398 . S
C1882 H1870 0.950 . S
C1882 C1881 1.398 . S
C1882 C1883 1.391 . S
C1883 H1871 0.950 . S
C1883 C1879 1.393 . S
C1883 C1882 1.391 . S
H1884 C1892 0.950 . S
H1885 C1897 0.950 . S
H1886 C1894 0.950 . S
H1887 C1896 0.950 . S
H1888 C1898 0.950 . S
H1889 C1900 0.950 . S
H1890 C1902 0.950 . S
H1891 C1903 0.950 . S
C1892 H1884 0.950 . S
C1892 C1893 1.386 . S
C1892 C1894 1.391 . S
C1893 C1892 1.386 . S
C1893 C1897 1.393 . S
C1894 H1886 0.950 . S
C1894 C1892 1.391 . S
C1894 C1895 1.400 . S
C1895 C1894 1.400 . S
C1895 C1896 1.398 . S
C1895 C1901 1.491 . S
C1896 H1887 0.950 . S
C1896 C1895 1.398 . S
C1896 C1897 1.391 . S
C1897 H1885 0.950 . S
C1897 C1893 1.393 . S
C1897 C1896 1.391 . S
C1898 H1888 0.950 . S
C1898 C1899 1.386 . S
C1898 C1900 1.391 . S
C1899 C1898 1.386 . S
C1899 C1903 1.393 . S
C1900 H1889 0.950 . S
C1900 C1898 1.391 . S
C1900 C1901 1.400 . S
C1901 C1895 1.491 . S
C1901 C1900 1.400 . S
C1901 C1902 1.398 . S
C1902 H1890 0.950 . S
C1902 C1901 1.398 . S
C1902 C1903 1.391 . S
C1903 H1891 0.950 . S
C1903 C1899 1.393 . S
C1903 C1902 1.391 . S
H1904 C1912 0.950 . S
H1905 C1917 0.950 . S
H1906 C1914 0.950 . S
H1907 C1916 0.950 . S
H1908 C1918 0.950 . S
H1909 C1920 0.950 . S
H1910 C1922 0.950 . S
H1911 C1923 0.950 . S
C1912 H1904 0.950 . S
C1912 C1913 1.386 . S
C1912 C1914 1.391 . S
C1913 C1912 1.386 . S
C1913 C1917 1.393 . S
C1914 H1906 0.950 . S
C1914 C1912 1.391 . S
C1914 C1915 1.400 . S
C1915 C1914 1.400 . S
C1915 C1916 1.398 . S
C1915 C1921 1.491 . S
C1916 H1907 0.950 . S
C1916 C1915 1.398 . S
C1916 C1917 1.391 . S
C1917 H1905 0.950 . S
C1917 C1913 1.393 . S
C1917 C1916 1.391 . S
C1918 H1908 0.950 . S
C1918 C1919 1.386 . S
C1918 C1920 1.391 . S
C1919 C1918 1.386 . S
C1919 C1923 1.393 . S
C1920 H1909 0.950 . S
C1920 C1918 1.391 . S
C1920 C1921 1.400 . S
C1921 C1915 1.491 . S
C1921 C1920 1.400 . S
C1921 C1922 1.398 . S
C1922 H1910 0.950 . S
C1922 C1921 1.398 . S
C1922 C1923 1.391 . S
C1923 H1911 0.950 . S
C1923 C1919 1.393 . S
C1923 C1922 1.391 . S
H1924 C1932 0.950 . S
H1925 C1937 0.950 . S
H1926 C1934 0.950 . S
H1927 C1936 0.950 . S
H1928 C1938 0.950 . S
H1929 C1940 0.950 . S
H1930 C1942 0.950 . S
H1931 C1943 0.950 . S
C1932 H1924 0.950 . S
C1932 C1933 1.386 . S
C1932 C1934 1.391 . S
C1933 C1932 1.386 . S
C1933 C1937 1.393 . S
C1934 H1926 0.950 . S
C1934 C1932 1.391 . S
C1934 C1935 1.400 . S
C1935 C1934 1.400 . S
C1935 C1936 1.398 . S
C1935 C1941 1.491 . S
C1936 H1927 0.950 . S
C1936 C1935 1.398 . S
C1936 C1937 1.391 . S
C1937 H1925 0.950 . S
C1937 C1933 1.393 . S
C1937 C1936 1.391 . S
C1938 H1928 0.950 . S
C1938 C1939 1.386 . S
C1938 C1940 1.391 . S
C1939 C1938 1.386 . S
C1939 C1943 1.393 . S
C1940 H1929 0.950 . S
C1940 C1938 1.391 . S
C1940 C1941 1.400 . S
C1941 C1935 1.491 . S
C1941 C1940 1.400 . S
C1941 C1942 1.398 . S
C1942 H1930 0.950 . S
C1942 C1941 1.398 . S
C1942 C1943 1.391 . S
C1943 H1931 0.950 . S
C1943 C1939 1.393 . S
C1943 C1942 1.391 . S
H1944 C1952 0.950 . S
H1945 C1957 0.950 . S
H1946 C1954 0.950 . S
H1947 C1956 0.950 . S
H1948 C1958 0.950 . S
H1949 C1960 0.950 . S
H1950 C1962 0.950 . S
H1951 C1963 0.950 . S
C1952 H1944 0.950 . S
C1952 C1953 1.386 . S
C1952 C1954 1.391 . S
C1953 C1952 1.386 . S
C1953 C1957 1.393 . S
C1954 H1946 0.950 . S
C1954 C1952 1.391 . S
C1954 C1955 1.400 . S
C1955 C1954 1.400 . S
C1955 C1956 1.398 . S
C1955 C1961 1.491 . S
C1956 H1947 0.950 . S
C1956 C1955 1.398 . S
C1956 C1957 1.391 . S
C1957 H1945 0.950 . S
C1957 C1953 1.393 . S
C1957 C1956 1.391 . S
C1958 H1948 0.950 . S
C1958 C1959 1.386 . S
C1958 C1960 1.391 . S
C1959 C1958 1.386 . S
C1959 C1963 1.393 . S
C1960 H1949 0.950 . S
C1960 C1958 1.391 . S
C1960 C1961 1.400 . S
C1961 C1955 1.491 . S
C1961 C1960 1.400 . S
C1961 C1962 1.398 . S
C1962 H1950 0.950 . S
C1962 C1961 1.398 . S
C1962 C1963 1.391 . S
C1963 H1951 0.950 . S
C1963 C1959 1.393 . S
C1963 C1962 1.391 . S
H1964 C1972 0.950 . S
H1965 C1977 0.950 . S
H1966 C1974 0.950 . S
H1967 C1976 0.950 . S
H1968 C1978 0.950 . S
H1969 C1980 0.950 . S
H1970 C1982 0.950 . S
H1971 C1983 0.950 . S
C1972 H1964 0.950 . S
C1972 C1973 1.386 . S
C1972 C1974 1.391 . S
C1973 C1972 1.386 . S
C1973 C1977 1.393 . S
C1974 H1966 0.950 . S
C1974 C1972 1.391 . S
C1974 C1975 1.400 . S
C1975 C1974 1.400 . S
C1975 C1976 1.398 . S
C1975 C1981 1.491 . S
C1976 H1967 0.950 . S
C1976 C1975 1.398 . S
C1976 C1977 1.391 . S
C1977 H1965 0.950 . S
C1977 C1973 1.393 . S
C1977 C1976 1.391 . S
C1978 H1968 0.950 . S
C1978 C1979 1.386 . S
C1978 C1980 1.391 . S
C1979 C1978 1.386 . S
C1979 C1983 1.393 . S
C1980 H1969 0.950 . S
C1980 C1978 1.391 . S
C1980 C1981 1.400 . S
C1981 C1975 1.491 . S
C1981 C1980 1.400 . S
C1981 C1982 1.398 . S
C1982 H1970 0.950 . S
C1982 C1981 1.398 . S
C1982 C1983 1.391 . S
C1983 H1971 0.950 . S
C1983 C1979 1.393 . S
C1983 C1982 1.391 . S
H1984 C1992 0.950 . S
H1985 C1997 0.950 . S
H1986 C1994 0.950 . S
H1987 C1996 0.950 . S
H1988 C1998 0.950 . S
H1989 C2000 0.950 . S
H1990 C2002 0.950 . S
H1991 C2003 0.950 . S
C1992 H1984 0.950 . S
C1992 C1993 1.386 . S
C1992 C1994 1.391 . S
C1993 C1992 1.386 . S
C1993 C1997 1.393 . S
C1994 H1986 0.950 . S
C1994 C1992 1.391 . S
C1994 C1995 1.400 . S
C1995 C1994 1.400 . S
C1995 C1996 1.398 . S
C1995 C2001 1.491 . S
C1996 H1987 0.950 . S
C1996 C1995 1.398 . S
C1996 C1997 1.391 . S
C1997 H1985 0.950 . S
C1997 C1993 1.393 . S
C1997 C1996 1.391 . S
C1998 H1988 0.950 . S
C1998 C1999 1.386 . S
C1998 C2000 1.391 . S
C1999 C1998 1.386 . S
C1999 C2003 1.393 . S
C2000 H1989 0.950 . S
C2000 C1998 1.391 . S
C2000 C2001 1.400 . S
C2001 C1995 1.491 . S
C2001 C2000 1.400 . S
C2001 C2002 1.398 . S
C2002 H1990 0.950 . S
C2002 C2001 1.398 . S
C2002 C2003 1.391 . S
C2003 H1991 0.950 . S
C2003 C1999 1.393 . S
C2003 C2002 1.391 . S
C579 C270 1.609 . S
C573 C260 1.537 . S
C593 C238 1.548 . S
C599 C268 1.608 . S
C619 C269 1.609 . S
C613 C227 1.554 . S
C633 C249 1.555 . S
C639 C271 1.609 . S
C659 C315 1.668 . S
C653 C183 1.586 . S
C679 C375 1.553 . S
C673 C194 1.472 . S
C693 C205 1.607 . S
C699 C314 1.668 . S
C719 C374 1.553 . S
C713 C216 1.465 . S
C733 C139 1.583 . S
C739 C316 1.675 . S
C759 C372 1.554 . S
C753 C150 1.500 . S
C773 C161 1.607 . S
C779 C317 1.668 . S
C793 C172 1.472 . S
C799 C373 1.560 . S
C819 C423 1.608 1_556 S
C813 C128 1.533 . S
C833 C106 1.539 . S
C839 C422 1.608 . S
C853 C95 1.542 1_556 S
C859 C424 1.608 . S
C879 C425 1.608 . S
C873 C117 1.530 . S
C893 C51 1.588 1_455 S
C899 C466 1.667 1_655 S
C913 C62 1.477 . S
C919 C525 1.553 1_565 S
C933 C73 1.602 . S
C939 C464 1.668 1_655 S
C953 C84 1.495 . S
C959 C524 1.554 . S
C979 C465 1.668 . S
C973 C7 1.603 . S
C999 C522 1.554 1_565 S
C993 C18 1.497 . S
C1013 C29 1.602 . S
C1019 C467 1.668 1_655 S
C1039 C523 1.554 1_565 S
C1033 C40 1.492 1_545 S
C1059 C267 1.533 . S
C1053 C8 1.453 . S
C1073 C16 1.167 . S
C1079 C273 1.395 1_565 S
C1093 C30 1.457 1_655 S
C1099 C265 1.536 . S
C1113 C38 1.138 . S
C1119 C272 1.385 . S
C1133 C52 1.459 1_455 S
C1139 C264 1.536 1_655 S
C1159 C274 1.391 . S
C1153 C60 1.167 1_565 S
C1173 C74 1.463 . S
C1179 C266 1.531 1_655 S
C1199 C275 1.388 1_565 S
C1193 C82 1.143 1_545 S
C1219 C321 1.313 . S
C1213 C41 1.235 . S
C1233 C5 1.346 . S
C1239 C364 1.619 . S
C1259 C319 1.316 . S
C1253 C19 1.253 1_565 S
C1279 C366 1.622 1_655 S
C1273 C27 1.329 . S
C1293 C63 1.268 1_565 S
C1299 C320 1.321 . S
C1319 C365 1.623 . S
C1313 C71 1.371 1_655 S
C1339 C318 1.314 1_565 S
C1333 C85 1.262 1_545 S
C1359 C367 1.623 . S
C1353 C49 1.358 . S
C1379 C371 1.465 . S
C1373 C93 1.203 1_556 S
C1393 C104 1.203 1_554 S
C1399 C370 1.462 1_556 S
C1419 C322 1.458 . S
C1413 C96 1.378 . S
C1439 C369 1.468 1_556 S
C1433 C115 1.227 1_554 S
C1453 C129 1.385 . S
C1459 C325 1.462 1_556 S
C1473 C126 1.231 1_556 S
C1479 C368 1.472 . S
C1499 C324 1.461 1_556 S
C1493 C107 1.412 1_554 S
C1519 C323 1.460 . S
C1513 C118 1.400 . S
C1539 C417 1.536 . S
C1533 C140 1.479 . S
C1559 C420 1.391 . S
C1553 C148 1.185 . S
C1573 C162 1.453 . S
C1579 C416 1.537 . S
C1599 C418 1.391 . S
C1593 C170 1.183 . S
C1619 C414 1.535 . S
C1613 C184 1.466 . S
C1633 C192 1.125 . S
C1639 C419 1.385 . S
C1653 C206 1.466 . S
C1659 C415 1.530 . S
C1679 C421 1.392 . S
C1673 C214 1.159 . S
C1699 C475 1.318 . S
C1693 C173 1.272 . S
C1713 C137 1.369 . S
C1719 C514 1.626 . S
C1739 C474 1.313 . S
C1733 C151 1.241 . S
C1759 C516 1.622 . S
C1753 C159 1.333 . S
C1779 C473 1.318 . S
C1773 C195 1.269 . S
C1793 C203 1.330 . S
C1799 C515 1.626 . S
C1819 C472 1.313 . S
C1813 C217 1.244 . S
C1839 C517 1.624 . S
C1833 C181 1.358 . S
C1859 C521 1.468 . S
C1853 C225 1.243 . S
C1873 C236 1.193 . S
C1879 C520 1.461 . S
C1899 C468 1.458 . S
C1893 C228 1.391 . S
C1913 C247 1.210 . S
C1919 C519 1.469 . S
C1939 C471 1.458 . S
C1933 C261 1.386 . S
C1959 C518 1.467 . S
C1953 C258 1.187 . S
C1979 C469 1.460 . S
C1973 C239 1.405 . S
C1993 C250 1.398 . S
C1999 C470 1.456 . S
