# Generated by pormake.
# Topology ctn, (3,4)-cn, num edge types: 1
# Building blocks:
#     Node 0, Type 0, BuildingBlock: WUSLED_clean_sbu_0, # of connection points: 3
#     Node 1, Type 0, BuildingBlock: WUSLED_clean_sbu_0, # of connection points: 3
#     Node 2, Type 0, BuildingBlock: WUSLED_clean_sbu_0, # of connection points: 3
#     Node 3, Type 0, BuildingBlock: WUSLED_clean_sbu_0, # of connection points: 3
#     Node 4, Type 0, BuildingBlock: WUSLED_clean_sbu_0, # of connection points: 3
#     Node 5, Type 0, BuildingBlock: WUSLED_clean_sbu_0, # of connection points: 3
#     Node 6, Type 0, BuildingBlock: WUSLED_clean_sbu_0, # of connection points: 3
#     Node 7, Type 0, BuildingBlock: WUSLED_clean_sbu_0, # of connection points: 3
#     Node 8, Type 0, BuildingBlock: WUSLED_clean_sbu_0, # of connection points: 3
#     Node 9, Type 0, BuildingBlock: WUSLED_clean_sbu_0, # of connection points: 3
#     Node 10, Type 0, BuildingBlock: WUSLED_clean_sbu_0, # of connection points: 3
#     Node 11, Type 0, BuildingBlock: WUSLED_clean_sbu_0, # of connection points: 3
#     Node 12, Type 0, BuildingBlock: WUSLED_clean_sbu_0, # of connection points: 3
#     Node 13, Type 0, BuildingBlock: WUSLED_clean_sbu_0, # of connection points: 3
#     Node 14, Type 0, BuildingBlock: WUSLED_clean_sbu_0, # of connection points: 3
#     Node 15, Type 0, BuildingBlock: WUSLED_clean_sbu_0, # of connection points: 3
#     Node 16, Type 1, BuildingBlock: QUQFOY_clean_sbu_1, # of connection points: 4
#     Node 17, Type 1, BuildingBlock: QUQFOY_clean_sbu_1, # of connection points: 4
#     Node 18, Type 1, BuildingBlock: QUQFOY_clean_sbu_1, # of connection points: 4
#     Node 19, Type 1, BuildingBlock: QUQFOY_clean_sbu_1, # of connection points: 4
#     Node 20, Type 1, BuildingBlock: QUQFOY_clean_sbu_1, # of connection points: 4
#     Node 21, Type 1, BuildingBlock: QUQFOY_clean_sbu_1, # of connection points: 4
#     Node 22, Type 1, BuildingBlock: QUQFOY_clean_sbu_1, # of connection points: 4
#     Node 23, Type 1, BuildingBlock: QUQFOY_clean_sbu_1, # of connection points: 4
#     Node 24, Type 1, BuildingBlock: QUQFOY_clean_sbu_1, # of connection points: 4
#     Node 25, Type 1, BuildingBlock: QUQFOY_clean_sbu_1, # of connection points: 4
#     Node 26, Type 1, BuildingBlock: QUQFOY_clean_sbu_1, # of connection points: 4
#     Node 27, Type 1, BuildingBlock: QUQFOY_clean_sbu_1, # of connection points: 4
#     Edge 28, Type (0, 1), BuildingBlock: XUDNAN_clean_linker_2, # of connection points: 2
#     Edge 29, Type (0, 1), BuildingBlock: XUDNAN_clean_linker_2, # of connection points: 2
#     Edge 30, Type (0, 1), BuildingBlock: XUDNAN_clean_linker_2, # of connection points: 2
#     Edge 31, Type (0, 1), BuildingBlock: XUDNAN_clean_linker_2, # of connection points: 2
#     Edge 32, Type (0, 1), BuildingBlock: XUDNAN_clean_linker_2, # of connection points: 2
#     Edge 33, Type (0, 1), BuildingBlock: XUDNAN_clean_linker_2, # of connection points: 2
#     Edge 34, Type (0, 1), BuildingBlock: XUDNAN_clean_linker_2, # of connection points: 2
#     Edge 35, Type (0, 1), BuildingBlock: XUDNAN_clean_linker_2, # of connection points: 2
#     Edge 36, Type (0, 1), BuildingBlock: XUDNAN_clean_linker_2, # of connection points: 2
#     Edge 37, Type (0, 1), BuildingBlock: XUDNAN_clean_linker_2, # of connection points: 2
#     Edge 38, Type (0, 1), BuildingBlock: XUDNAN_clean_linker_2, # of connection points: 2
#     Edge 39, Type (0, 1), BuildingBlock: XUDNAN_clean_linker_2, # of connection points: 2
#     Edge 40, Type (0, 1), BuildingBlock: XUDNAN_clean_linker_2, # of connection points: 2
#     Edge 41, Type (0, 1), BuildingBlock: XUDNAN_clean_linker_2, # of connection points: 2
#     Edge 42, Type (0, 1), BuildingBlock: XUDNAN_clean_linker_2, # of connection points: 2
#     Edge 43, Type (0, 1), BuildingBlock: XUDNAN_clean_linker_2, # of connection points: 2
#     Edge 44, Type (0, 1), BuildingBlock: XUDNAN_clean_linker_2, # of connection points: 2
#     Edge 45, Type (0, 1), BuildingBlock: XUDNAN_clean_linker_2, # of connection points: 2
#     Edge 46, Type (0, 1), BuildingBlock: XUDNAN_clean_linker_2, # of connection points: 2
#     Edge 47, Type (0, 1), BuildingBlock: XUDNAN_clean_linker_2, # of connection points: 2
#     Edge 48, Type (0, 1), BuildingBlock: XUDNAN_clean_linker_2, # of connection points: 2
#     Edge 49, Type (0, 1), BuildingBlock: XUDNAN_clean_linker_2, # of connection points: 2
#     Edge 50, Type (0, 1), BuildingBlock: XUDNAN_clean_linker_2, # of connection points: 2
#     Edge 51, Type (0, 1), BuildingBlock: XUDNAN_clean_linker_2, # of connection points: 2
#     Edge 52, Type (0, 1), BuildingBlock: XUDNAN_clean_linker_2, # of connection points: 2
#     Edge 53, Type (0, 1), BuildingBlock: XUDNAN_clean_linker_2, # of connection points: 2
#     Edge 54, Type (0, 1), BuildingBlock: XUDNAN_clean_linker_2, # of connection points: 2
#     Edge 55, Type (0, 1), BuildingBlock: XUDNAN_clean_linker_2, # of connection points: 2
#     Edge 56, Type (0, 1), BuildingBlock: XUDNAN_clean_linker_2, # of connection points: 2
#     Edge 57, Type (0, 1), BuildingBlock: XUDNAN_clean_linker_2, # of connection points: 2
#     Edge 58, Type (0, 1), BuildingBlock: XUDNAN_clean_linker_2, # of connection points: 2
#     Edge 59, Type (0, 1), BuildingBlock: XUDNAN_clean_linker_2, # of connection points: 2
#     Edge 60, Type (0, 1), BuildingBlock: XUDNAN_clean_linker_2, # of connection points: 2
#     Edge 61, Type (0, 1), BuildingBlock: XUDNAN_clean_linker_2, # of connection points: 2
#     Edge 62, Type (0, 1), BuildingBlock: XUDNAN_clean_linker_2, # of connection points: 2
#     Edge 63, Type (0, 1), BuildingBlock: XUDNAN_clean_linker_2, # of connection points: 2
#     Edge 64, Type (0, 1), BuildingBlock: XUDNAN_clean_linker_2, # of connection points: 2
#     Edge 65, Type (0, 1), BuildingBlock: XUDNAN_clean_linker_2, # of connection points: 2
#     Edge 66, Type (0, 1), BuildingBlock: XUDNAN_clean_linker_2, # of connection points: 2
#     Edge 67, Type (0, 1), BuildingBlock: XUDNAN_clean_linker_2, # of connection points: 2
#     Edge 68, Type (0, 1), BuildingBlock: XUDNAN_clean_linker_2, # of connection points: 2
#     Edge 69, Type (0, 1), BuildingBlock: XUDNAN_clean_linker_2, # of connection points: 2
#     Edge 70, Type (0, 1), BuildingBlock: XUDNAN_clean_linker_2, # of connection points: 2
#     Edge 71, Type (0, 1), BuildingBlock: XUDNAN_clean_linker_2, # of connection points: 2
#     Edge 72, Type (0, 1), BuildingBlock: XUDNAN_clean_linker_2, # of connection points: 2
#     Edge 73, Type (0, 1), BuildingBlock: XUDNAN_clean_linker_2, # of connection points: 2
#     Edge 74, Type (0, 1), BuildingBlock: XUDNAN_clean_linker_2, # of connection points: 2
#     Edge 75, Type (0, 1), BuildingBlock: XUDNAN_clean_linker_2, # of connection points: 2
# Relax obj value: 0.036
# Max RMSD: 0.140
# Mean RMSD: 0.064
data_MOF--net-ctn--node1-WUSLED_clean_sbu_0--node2-QUQFOY_clean_sbu_1--edge1-XUDNAN_clean_linker_2
_symmetry_space_group_name_H-M    P1
_symmetry_Int_Tables_number       1
_symmetry_cell_setting            triclinic
loop_
_symmetry_equiv_pos_as_xyz
'x, y, z'
_cell_length_a     71.416556
_cell_length_b     71.911205
_cell_length_c     71.971505
_cell_angle_alpha  93.434461
_cell_angle_beta   90.044525
_cell_angle_gamma 94.43212
loop_
_atom_site_label
_atom_site_type_symbol
_atom_site_fract_x
_atom_site_fract_y
_atom_site_fract_z
_atom_type_partial_charge
C0 C 0.01768 0.09045 0.10136 0.0
C1 C 0.02755 0.08072 0.11403 0.0
C2 C 0.99968 0.07705 0.13354 0.0
C3 C 0.01869 0.07419 0.12998 0.0
C4 C 0.98993 0.08701 0.12087 0.0
C5 C 0.99886 0.09363 0.10495 0.0
U6 U 0.05409 0.08554 0.06302 0.0
O7 O 0.0519 0.0884 0.03284 0.0
O8 O 0.0723 0.10684 0.04945 0.0
C9 C 0.06412 0.10307 0.03313 0.0
C10 C 0.0267 0.09688 0.08418 0.0
C11 C 0.05902 0.11935 0.02295 0.0
C12 C 0.03709 0.13521 0.00453 0.0
C13 C 0.04092 0.12047 0.01554 0.0
C14 C 0.06918 0.14824 0.00859 0.0
C15 C 0.05128 0.14913 1.00064 0.0
C16 C 0.073 0.13352 0.01952 0.0
C17 C 0.08542 0.0434 0.06769 0.0
C18 C 0.11743 0.0373 0.05875 0.0
C19 C 0.09607 0.01216 0.06889 0.0
C20 C 0.08193 0.02447 0.07117 0.0
C21 C 0.11412 0.01846 0.06305 0.0
C22 C 0.10321 0.04971 0.06115 0.0
C23 C 0.0707 0.05616 0.07276 0.0
O24 O 0.04421 0.1039 0.08592 0.0
O25 O 0.02387 0.08548 0.06931 0.0
O26 O 0.05564 0.05497 0.06212 0.0
O27 O 0.07618 0.07339 0.07864 0.0
H28 H 0.04208 0.07805 0.11153 0.0
H29 H 0.02678 0.06689 0.13953 0.0
H30 H 0.97525 0.08928 0.12297 0.0
H31 H 0.99097 0.10104 0.09529 0.0
H32 H 0.02319 0.13533 0.99856 0.0
H33 H 0.02981 0.10976 0.01789 0.0
H34 H 0.08037 0.15887 0.00625 0.0
H35 H 0.08707 0.13302 0.02503 0.0
H36 H 0.13119 0.04259 0.05427 0.0
H37 H 0.09293 0.9977 0.07201 0.0
H38 H 0.06834 0.01928 0.07624 0.0
H39 H 0.10628 0.06427 0.0584 0.0
C40 C 0.26988 0.76194 0.19817 0.0
C41 C 0.26973 0.78044 0.20572 0.0
C42 C 0.26636 0.79178 0.17466 0.0
C43 C 0.26796 0.79517 0.19409 0.0
C44 C 0.26691 0.77332 0.16715 0.0
C45 C 0.26857 0.7586 0.17877 0.0
U46 U 0.29192 0.7329 0.23504 0.0
O47 O 0.27845 0.71751 0.25758 0.0
O48 O 0.2927 0.70229 0.23508 0.0
C49 C 0.28212 0.70111 0.24995 0.0
C50 C 0.27014 0.74584 0.21013 0.0
C51 C 0.26636 0.68652 0.24884 0.0
C52 C 0.23302 0.67684 0.24613 0.0
C53 C 0.24774 0.6909 0.24637 0.0
C54 C 0.25536 0.65378 0.25044 0.0
C55 C 0.23662 0.65807 0.24823 0.0
C56 C 0.27004 0.66786 0.25077 0.0
C57 C 0.34028 0.74928 0.25724 0.0
C58 C 0.35707 0.757 0.28661 0.0
C59 C 0.37241 0.74087 0.26114 0.0
C60 C 0.35622 0.74095 0.25023 0.0
C61 C 0.37319 0.74923 0.27933 0.0
C62 C 0.34083 0.75712 0.27565 0.0
C63 C 0.324 0.7513 0.24481 0.0
O64 O 0.28264 0.73378 0.20591 0.0
O65 O 0.26827 0.74921 0.22818 0.0
O66 O 0.30793 0.75458 0.25282 0.0
O67 O 0.322 0.73955 0.2301 0.0
H68 H 0.27071 0.78354 0.22062 0.0
H69 H 0.2678 0.80925 0.20033 0.0
H70 H 0.26548 0.77014 0.15229 0.0
H71 H 0.26846 0.74448 0.17258 0.0
H72 H 0.21878 0.68075 0.24464 0.0
H73 H 0.24454 0.70521 0.24483 0.0
H74 H 0.25874 0.63949 0.25177 0.0
H75 H 0.28432 0.66416 0.25263 0.0
H76 H 0.35725 0.76374 0.30048 0.0
H77 H 0.38449 0.73455 0.25518 0.0
H78 H 0.35641 0.73492 0.23608 0.0
H79 H 0.32892 0.76386 0.28145 0.0
C80 C 0.95257 0.4544 0.01625 0.0
C81 C 0.95693 0.43783 0.02415 0.0
C82 C 0.96701 0.42513 0.99391 0.0
C83 C 0.96397 0.42327 0.01305 0.0
C84 C 0.96247 0.44168 0.98608 0.0
C85 C 0.9553 0.45612 0.99712 0.0
U86 U 0.95289 0.48653 0.06074 0.0
O87 O 0.9522 0.51716 0.0641 0.0
O88 O 0.92974 0.49896 0.07595 0.0
C89 C 0.93593 0.51616 0.07264 0.0
C90 C 0.94561 0.47024 0.02759 0.0
C91 C 0.92195 0.52871 0.06653 0.0
C92 C 0.89193 0.53432 0.05253 0.0
C93 C 0.90551 0.52204 0.05672 0.0
C94 C 0.9113 0.56009 0.0674 0.0
C95 C 0.89452 0.55347 0.05813 0.0
C96 C 0.9248 0.54786 0.07157 0.0
C97 C 0.98759 0.47641 0.1001 0.0
C98 C 0.00829 0.49541 0.12194 0.0
C99 C 0.99887 0.46331 0.12806 0.0
C100 C 0.98815 0.46145 0.11169 0.0
C101 C 0.00942 0.48017 0.1332 0.0
C102 C 0.9975 0.49354 0.10554 0.0
C103 C 0.97816 0.47306 0.08172 0.0
O104 O 0.93585 0.46613 0.04249 0.0
O105 O 0.95772 0.48484 0.03048 0.0
O106 O 0.98232 0.48524 0.06916 0.0
O107 O 0.96027 0.46714 0.08174 0.0
H108 H 0.95508 0.43619 0.03892 0.0
H109 H 0.96748 0.41076 0.01952 0.0
H110 H 0.96441 0.44347 0.97135 0.0
H111 H 0.95201 0.46874 0.99072 0.0
H112 H 0.87916 0.52871 0.04544 0.0
H113 H 0.90298 0.50732 0.05262 0.0
H114 H 0.91399 0.57477 0.07159 0.0
H115 H 0.93739 0.55334 0.07907 0.0
H116 H 0.01631 0.50856 0.12538 0.0
H117 H 0.9991 0.4514 0.13655 0.0
H118 H 0.98067 0.44809 0.10781 0.0
H119 H 0.9974 0.50534 0.09687 0.0
C120 C 0.71464 0.78465 0.19368 0.0
C121 C 0.73358 0.78767 0.18865 0.0
C122 C 0.72892 0.76455 0.16251 0.0
C123 C 0.74067 0.77766 0.17327 0.0
C124 C 0.70987 0.76184 0.16741 0.0
C125 C 0.70283 0.77176 0.18288 0.0
U126 U 0.71503 0.82733 0.22794 0.0
O127 O 0.69166 0.84174 0.24073 0.0
O128 O 0.71194 0.82948 0.25837 0.0
C129 C 0.69622 0.83781 0.25767 0.0
C130 C 0.70702 0.7947 0.21015 0.0
C131 C 0.68073 0.83036 0.26929 0.0
C132 C 0.66107 0.80446 0.28089 0.0
C133 C 0.67533 0.81116 0.26908 0.0
C134 C 0.65726 0.8361 0.29297 0.0
C135 C 0.65192 0.81685 0.29307 0.0
C136 C 0.67152 0.84275 0.28122 0.0
C137 C 0.75232 0.86823 0.21942 0.0
C138 C 0.77043 0.89099 0.24009 0.0
C139 C 0.76774 0.89627 0.20732 0.0
C140 C 0.75643 0.8796 0.20458 0.0
C141 C 0.7753 0.90194 0.225 0.0
C142 C 0.75906 0.87424 0.23733 0.0
C143 C 0.7424 0.84962 0.21535 0.0
O144 O 0.71816 0.79713 0.2248 0.0
O145 O 0.69841 0.80967 0.20681 0.0
O146 O 0.72495 0.84935 0.20944 0.0
O147 O 0.74504 0.83667 0.22702 0.0
H148 H 0.74292 0.79771 0.19667 0.0
H149 H 0.75534 0.78026 0.16973 0.0
H150 H 0.70048 0.75175 0.15953 0.0
H151 H 0.68816 0.76925 0.1865 0.0
H152 H 0.65716 0.78959 0.28043 0.0
H153 H 0.68223 0.80137 0.2599 0.0
H154 H 0.65072 0.84602 0.3023 0.0
H155 H 0.67553 0.85762 0.28162 0.0
H156 H 0.77608 0.89493 0.25386 0.0
H157 H 0.77093 0.90454 0.19547 0.0
H158 H 0.75136 0.87529 0.19067 0.0
H159 H 0.75605 0.86575 0.24905 0.0
C160 C 0.9999 0.98995 0.43903 0.0
C161 C 0.99887 0.00941 0.4393 0.0
C162 C 0.97875 0.00598 0.41171 0.0
C163 C 0.98832 0.01732 0.42584 0.0
C164 C 0.98034 0.98657 0.41111 0.0
C165 C 0.99074 0.97865 0.42469 0.0
U166 U 0.04096 0.98876 0.4732 0.0
O167 O 0.04096 0.98267 0.50276 0.0
O168 O 0.05554 0.96496 0.48251 0.0
C169 C 0.04993 0.96748 0.49981 0.0
C170 C 0.00977 0.98118 0.4539 0.0
C171 C 0.04192 0.95067 0.50868 0.0
C172 C 0.01522 0.93123 0.51953 0.0
C173 C 0.02244 0.94683 0.51033 0.0
C174 C 0.04682 0.92292 0.52529 0.0
C175 C 0.02731 0.91906 0.52718 0.0
C176 C 0.05402 0.93856 0.51616 0.0
C177 C 0.08064 0.02847 0.47295 0.0
C178 C 0.10045 0.04245 0.49839 0.0
C179 C 0.1091 0.04781 0.46651 0.0
C180 C 0.09318 0.03662 0.46024 0.0
C181 C 0.11271 0.05118 0.48568 0.0
C182 C 0.0846 0.03115 0.49209 0.0
C183 C 0.06298 0.0184 0.46596 0.0
O184 O 0.02567 0.97414 0.44921 0.0
O185 O 0.01052 0.99032 0.4703 0.0
O186 O 0.04842 0.01894 0.47709 0.0
O187 O 0.06441 1.0019 0.45742 0.0
H188 H 0.00596 0.01849 0.45009 0.0
H189 H 0.98759 0.03233 0.42654 0.0
H190 H 0.97303 0.97744 0.40049 0.0
H191 H 0.99135 0.96362 0.42419 0.0
H192 H 1.00014 0.92891 0.52091 0.0
H193 H 0.0128 0.95598 0.50468 0.0
H194 H 0.05657 0.91375 0.5307 0.0
H195 H 0.0691 0.94127 0.51502 0.0
H196 H 0.10299 0.04457 0.51323 0.0
H197 H 0.11815 0.05445 0.45637 0.0
H198 H 0.09037 0.03477 0.44542 0.0
H199 H 0.07522 0.0249 0.5022 0.0
C200 C 0.20471 0.78522 0.85693 0.0
C201 C 0.22021 0.77984 0.86669 0.0
C202 C 0.21449 0.80253 0.8923 0.0
C203 C 0.22509 0.78844 0.88419 0.0
C204 C 0.19905 0.80793 0.88231 0.0
C205 C 0.19422 0.79934 0.86481 0.0
U206 U 0.20755 0.74615 0.81854 0.0
O207 O 0.18469 0.73026 0.80262 0.0
O208 O 0.20604 0.74741 0.78803 0.0
C209 C 0.18982 0.7374 0.78683 0.0
C210 C 0.19898 0.77596 0.83878 0.0
C211 C 0.17495 0.74505 0.7758 0.0
C212 C 0.14302 0.75421 0.77216 0.0
C213 C 0.15702 0.74766 0.78317 0.0
C214 C 0.16463 0.75594 0.74634 0.0
C215 C 0.14664 0.75841 0.7536 0.0
C216 C 0.17857 0.74927 0.75729 0.0
C217 C 0.24217 0.70788 0.8263 0.0
C218 C 0.25824 0.68672 0.80509 0.0
C219 C 0.25354 0.67942 0.83723 0.0
C220 C 0.24455 0.69584 0.84059 0.0
C221 C 0.26044 0.67455 0.81943 0.0
C222 C 0.24912 0.70323 0.80847 0.0
C223 C 0.23308 0.72538 0.8309 0.0
O224 O 0.21177 0.7764 0.82566 0.0
O225 O 0.1897 0.75952 0.8395 0.0
O226 O 0.21527 0.72344 0.83557 0.0
O227 O 0.23709 0.73955 0.82048 0.0
H228 H 0.22847 0.76893 0.86082 0.0
H229 H 0.23721 0.78409 0.89133 0.0
H230 H 0.19041 0.81851 0.88818 0.0
H231 H 0.18214 0.80361 0.85751 0.0
H232 H 0.12938 0.75613 0.77824 0.0
H233 H 0.15375 0.74459 0.7974 0.0
H234 H 0.16784 0.7588 0.73203 0.0
H235 H 0.1922 0.74725 0.75121 0.0
H236 H 0.2633 0.68333 0.79121 0.0
H237 H 0.25528 0.6706 0.84869 0.0
H238 H 0.23953 0.69923 0.8545 0.0
H239 H 0.24753 0.7123 0.79719 0.0
C240 C 0.96231 0.60453 0.52298 0.0
C241 C 0.98166 0.60916 0.52552 0.0
C242 C 0.97528 0.63696 0.54485 0.0
C243 C 0.98807 0.62517 0.5364 0.0
C244 C 0.95596 0.63274 0.54156 0.0
C245 C 0.94955 0.61664 0.5308 0.0
U246 U 0.96391 0.56449 0.48499 0.0
O247 O 0.96036 0.53414 0.48802 0.0
O248 O 0.94067 0.54751 0.47062 0.0
C249 C 0.94473 0.53211 0.47821 0.0
C250 C 0.95512 0.58657 0.51356 0.0
C251 C 0.92904 0.52092 0.48652 0.0
C252 C 0.89928 0.51804 0.50302 0.0
C253 C 0.91389 0.5292 0.49526 0.0
C254 C 0.91491 0.49033 0.49354 0.0
C255 C 0.8997 0.49847 0.50235 0.0
C256 C 0.92938 0.50144 0.48571 0.0
C257 C 1.00249 0.56583 0.4477 0.0
C258 C 0.01564 0.53929 0.43131 0.0
C259 C 0.02127 0.5702 0.41986 0.0
C260 C 0.01057 0.57751 0.43446 0.0
C261 C 0.02421 0.55105 0.4183 0.0
C262 C 0.00482 0.54659 0.44582 0.0
C263 C 0.99257 0.57412 0.4638 0.0
O264 O 0.94774 0.5873 0.4969 0.0
O265 O 0.96574 0.57256 0.51486 0.0
O266 O 0.99423 0.56609 0.4796 0.0
O267 O 0.97544 0.57871 0.46066 0.0
H268 H 0.99182 0.60013 0.51952 0.0
H269 H 1.00305 0.62818 0.53846 0.0
H270 H 0.94575 0.64145 0.54797 0.0
H271 H 0.93457 0.61332 0.52905 0.0
H272 H 0.88784 0.52474 0.50982 0.0
H273 H 0.91338 0.54424 0.49615 0.0
H274 H 0.91554 0.4753 0.49252 0.0
H275 H 0.94091 0.49477 0.47899 0.0
H276 H 0.01742 0.52444 0.43034 0.0
H277 H 0.0278 0.57966 0.41019 0.0
H278 H 0.00896 0.59239 0.43566 0.0
H279 H 0.99859 0.53725 0.45576 0.0
C280 C 0.77991 0.79678 0.85658 0.0
C281 C 0.79689 0.78842 0.85841 0.0
C282 C 0.78292 0.76842 0.88183 0.0
C283 C 0.79839 0.77441 0.87093 0.0
C284 C 0.76595 0.77687 0.87985 0.0
C285 C 0.76449 0.79089 0.86737 0.0
U286 U 0.79604 0.82424 0.81447 0.0
O287 O 0.77939 0.83429 0.79195 0.0
O288 O 0.79614 0.85446 0.81051 0.0
C289 C 0.78363 0.852 0.797 0.0
C290 C 0.77794 0.81156 0.84351 0.0
C291 C 0.76799 0.86447 0.79789 0.0
C292 C 0.75781 0.89603 0.79735 0.0
C293 C 0.77216 0.88391 0.79834 0.0
C294 C 0.73471 0.86953 0.79575 0.0
C295 C 0.7389 0.88899 0.79572 0.0
C296 C 0.74907 0.85741 0.79685 0.0
C297 C 0.84043 0.81094 0.78763 0.0
C298 C 0.84833 0.81374 0.75494 0.0
C299 C 0.87294 0.81066 0.77743 0.0
C300 C 0.85954 0.80986 0.79162 0.0
C301 C 0.86752 0.81246 0.75885 0.0
C302 C 0.83495 0.81305 0.76917 0.0
C303 C 0.82652 0.80894 0.80275 0.0
O304 O 0.7909 0.8256 0.84465 0.0
O305 O 0.77365 0.80574 0.82627 0.0
O306 O 0.80942 0.8024 0.79779 0.0
O307 O 0.82679 0.82274 0.81561 0.0
H308 H 0.80897 0.79276 0.85018 0.0
H309 H 0.81174 0.7684 0.87221 0.0
H310 H 0.75365 0.77244 0.88772 0.0
H311 H 0.75124 0.79711 0.86608 0.0
H312 H 0.76159 0.9109 0.79716 0.0
H313 H 0.78662 0.88972 0.79898 0.0
H314 H 0.72029 0.86364 0.79477 0.0
H315 H 0.74536 0.8425 0.79651 0.0
H316 H 0.84353 0.81488 0.74081 0.0
H317 H 0.88757 0.80995 0.78107 0.0
H318 H 0.8641 0.80823 0.80575 0.0
H319 H 0.8203 0.8139 0.76566 0.0
C320 C 0.27852 0.29592 0.35049 0.0
C321 C 0.29543 0.28748 0.35242 0.0
C322 C 0.28147 0.26813 0.37635 0.0
C323 C 0.29691 0.27375 0.36525 0.0
C324 C 0.26459 0.27673 0.37434 0.0
C325 C 0.26316 0.29048 0.36155 0.0
U326 U 0.2955 0.32223 0.30807 0.0
O327 O 0.27938 0.33057 0.2842 0.0
O328 O 0.29485 0.35195 0.30255 0.0
C329 C 0.28308 0.34851 0.28848 0.0
C330 C 0.27651 0.31015 0.33683 0.0
C331 C 0.26703 0.36029 0.28776 0.0
C332 C 0.24507 0.38095 0.30236 0.0
C333 C 0.25966 0.36908 0.30382 0.0
C334 C 0.24487 0.37514 0.26888 0.0
C335 C 0.23752 0.38415 0.28485 0.0
C336 C 0.25944 0.36339 0.27034 0.0
C337 C 0.34125 0.30954 0.28375 0.0
C338 C 0.35032 0.3154 0.2519 0.0
C339 C 0.37355 0.30699 0.27378 0.0
C340 C 0.35983 0.30595 0.28763 0.0
C341 C 0.36898 0.31159 0.25566 0.0
C342 C 0.33662 0.31444 0.26581 0.0
C343 C 0.32693 0.30753 0.29843 0.0
O344 O 0.28901 0.3246 0.33798 0.0
O345 O 0.27309 0.30361 0.31963 0.0
O346 O 0.31022 0.30029 0.29296 0.0
O347 O 0.32625 0.32178 0.31067 0.0
H348 H 0.30746 0.29149 0.34397 0.0
H349 H 0.3102 0.26762 0.36655 0.0
H350 H 0.25232 0.27259 0.38238 0.0
H351 H 0.24995 0.29676 0.36018 0.0
H352 H 0.23963 0.38751 0.31495 0.0
H353 H 0.26523 0.36691 0.31745 0.0
H354 H 0.23964 0.37748 0.25516 0.0
H355 H 0.26499 0.35688 0.25776 0.0
H356 H 0.34618 0.31877 0.2381 0.0
H357 H 0.38779 0.30429 0.27732 0.0
H358 H 0.36371 0.30221 0.3014 0.0
H359 H 0.32237 0.3173 0.26249 0.0
C360 C 0.45284 0.94902 0.51618 0.0
C361 C 0.46294 0.93736 0.52674 0.0
C362 C 0.46426 0.91496 0.50004 0.0
C363 C 0.46854 0.92046 0.51876 0.0
C364 C 0.45453 0.92693 0.48941 0.0
C365 C 0.44883 0.94379 0.49744 0.0
U366 U 0.45494 0.98802 0.55463 0.0
O367 O 0.4528 0.01831 0.55305 0.0
O368 O 0.43227 1.00184 0.56923 0.0
C369 C 0.43703 0.01812 0.56248 0.0
C370 C 0.4462 0.96649 0.52461 0.0
C371 C 0.42168 0.02742 0.55404 0.0
C372 C 0.39431 0.02662 0.5338 0.0
C373 C 0.40877 0.01754 0.54167 0.0
C374 C 0.4055 0.05558 0.55048 0.0
C375 C 0.39252 0.0458 0.53801 0.0
C376 C 0.41992 0.04647 0.55841 0.0
C377 C 0.49164 0.98609 0.59382 0.0
C378 C 0.49243 1.00367 0.62377 0.0
C379 C 0.51963 0.9879 0.61332 0.0
C380 C 0.51004 0.98146 0.59695 0.0
C381 C 0.51097 0.99912 0.62696 0.0
C382 C 0.48287 0.99727 0.60733 0.0
C383 C 0.48193 0.97897 0.57645 0.0
O384 O 0.43732 0.96499 0.54051 0.0
O385 O 0.4583 0.98122 0.52461 0.0
O386 O 0.48497 0.98912 0.56201 0.0
O387 O 0.46428 0.9726 0.578 0.0
H388 H 0.46632 0.94125 0.5412 0.0
H389 H 0.47623 0.91168 0.52726 0.0
H390 H 0.45086 0.92304 0.47502 0.0
H391 H 0.44108 0.95263 0.48906 0.0
H392 H 0.38444 0.01853 0.52449 0.0
H393 H 0.40987 1.00281 0.53811 0.0
H394 H 0.40478 0.07038 0.55387 0.0
H395 H 0.42978 0.05434 0.56789 0.0
H396 H 0.48521 0.01207 0.63405 0.0
H397 H 0.53395 0.98436 0.61511 0.0
H398 H 0.51705 0.97288 0.58665 0.0
H399 H 0.46865 1.001 0.6052 0.0
C400 C 0.21315 0.2888 0.68946 0.0
C401 C 0.22162 0.30004 0.67604 0.0
C402 C 0.22235 0.27295 0.65407 0.0
C403 C 0.22609 0.29221 0.65849 0.0
C404 C 0.21446 0.26163 0.66777 0.0
C405 C 0.20984 0.26952 0.68529 0.0
U406 U 0.21887 0.32698 0.72856 0.0
O407 O 0.1977 0.34202 0.74436 0.0
O408 O 0.21705 0.32553 0.75895 0.0
C409 C 0.20226 0.33534 0.76021 0.0
C410 C 0.20741 0.29707 0.70765 0.0
C411 C 0.18646 0.32774 0.77141 0.0
C412 C 0.1667 0.30169 0.78263 0.0
C413 C 0.18134 0.30848 0.7713 0.0
C414 C 0.16187 0.33334 0.79397 0.0
C415 C 0.15683 0.31404 0.79416 0.0
C416 C 0.17655 0.34008 0.78274 0.0
C417 C 0.25951 0.36554 0.72258 0.0
C418 C 0.26406 0.39896 0.7309 0.0
C419 C 0.29094 0.38115 0.72427 0.0
C420 C 0.27903 0.36493 0.72117 0.0
C421 C 0.28362 0.39845 0.72876 0.0
C422 C 0.25209 0.38264 0.72778 0.0
C423 C 0.24749 0.34842 0.71707 0.0
O424 O 0.21959 0.29679 0.7213 0.0
O425 O 0.19976 0.31309 0.70718 0.0
O426 O 0.22998 0.35039 0.71242 0.0
O427 O 0.2494 0.33384 0.72689 0.0
H428 H 0.22453 0.31494 0.67903 0.0
H429 H 0.23238 0.30126 0.64832 0.0
H430 H 0.21129 0.24679 0.66475 0.0
H431 H 0.20338 0.2606 0.69549 0.0
H432 H 0.16303 0.28677 0.78226 0.0
H433 H 0.18872 0.29869 0.76256 0.0
H434 H 0.15474 0.34323 0.80281 0.0
H435 H 0.18029 0.35499 0.78304 0.0
H436 H 0.25798 0.41206 0.7343 0.0
H437 H 0.30594 0.38017 0.72288 0.0
H438 H 0.28509 0.35193 0.71719 0.0
H439 H 0.23706 0.38351 0.72898 0.0
C440 C 0.77202 0.26235 0.6983 0.0
C441 C 0.77325 0.28127 0.70472 0.0
C442 C 0.76756 0.29072 0.67329 0.0
C443 C 0.771 0.29528 0.69235 0.0
C444 C 0.76678 0.27181 0.66687 0.0
C445 C 0.76891 0.25781 0.67924 0.0
U446 U 0.79502 0.23671 0.73724 0.0
O447 O 0.78189 0.22203 0.76041 0.0
O448 O 0.79728 0.20647 0.73905 0.0
C449 C 0.78645 0.20556 0.75377 0.0
C450 C 0.77288 0.24706 0.71115 0.0
C451 C 0.77121 0.19047 0.75287 0.0
C452 C 0.73884 0.17901 0.74614 0.0
C453 C 0.75315 0.1935 0.74662 0.0
C454 C 0.76053 0.15823 0.75796 0.0
C455 C 0.74234 0.16116 0.75179 0.0
C456 C 0.77479 0.17275 0.7585 0.0
C457 C 0.8423 0.25675 0.75891 0.0
C458 C 0.8576 0.24519 0.78573 0.0
C459 C 0.87481 0.26687 0.7663 0.0
C460 C 0.85893 0.26741 0.75508 0.0
C461 C 0.87444 0.25562 0.78166 0.0
C462 C 0.84166 0.24567 0.77437 0.0
C463 C 0.8261 0.25727 0.74629 0.0
O464 O 0.78607 0.23554 0.70783 0.0
O465 O 0.77062 0.25131 0.729 0.0
O466 O 0.8098 0.25987 0.75413 0.0
O467 O 0.82495 0.2445 0.73241 0.0
H468 H 0.7757 0.28525 0.71933 0.0
H469 H 0.77193 0.30972 0.69774 0.0
H470 H 0.76395 0.26776 0.65234 0.0
H471 H 0.76778 0.24334 0.67394 0.0
H472 H 0.72497 0.18189 0.74156 0.0
H473 H 0.75008 0.20708 0.74219 0.0
H474 H 0.76386 0.14464 0.76213 0.0
H475 H 0.78867 0.17012 0.76331 0.0
H476 H 0.85689 0.23632 0.79739 0.0
H477 H 0.88744 0.27532 0.76294 0.0
H478 H 0.85969 0.2761 0.74326 0.0
H479 H 0.82893 0.23728 0.77752 0.0
C480 C 0.51157 0.59487 0.60184 0.0
C481 C 0.51825 0.58509 0.61648 0.0
C482 C 0.49011 0.59083 0.63461 0.0
C483 C 0.50758 0.58306 0.63273 0.0
C484 C 0.48342 0.60029 0.61968 0.0
C485 C 0.49404 0.60229 0.60353 0.0
U486 U 0.55184 0.5856 0.56721 0.0
O487 O 0.55107 0.58504 0.53656 0.0
O488 O 0.56971 0.60602 0.55228 0.0
C489 C 0.56297 0.59985 0.53587 0.0
C490 C 0.52263 0.59804 0.58487 0.0
C491 C 0.55796 0.61414 0.52324 0.0
C492 C 0.54249 0.64205 0.51657 0.0
C493 C 0.54622 0.62824 0.52878 0.0
C494 C 0.56188 0.62754 0.49315 0.0
C495 C 0.55048 0.64199 0.49866 0.0
C496 C 0.56557 0.61382 0.50531 0.0
C497 C 0.58677 0.54879 0.57409 0.0
C498 C 0.61696 0.54792 0.55854 0.0
C499 C 0.60294 0.52012 0.57198 0.0
C500 C 0.58761 0.52996 0.57791 0.0
C501 C 0.6178 0.52893 0.56211 0.0
C502 C 0.60159 0.55769 0.56436 0.0
C503 C 0.57031 0.55883 0.58014 0.0
O504 O 0.53988 0.60557 0.58738 0.0
O505 O 0.52125 0.58451 0.57172 0.0
O506 O 0.55527 0.5556 0.56955 0.0
O507 O 0.5737 0.57659 0.58547 0.0
H508 H 0.53176 0.57923 0.61543 0.0
H509 H 0.51321 0.57578 0.64397 0.0
H510 H 0.46989 0.60613 0.62043 0.0
H511 H 0.4886 0.6098 0.59234 0.0
H512 H 0.53374 0.65301 0.52131 0.0
H513 H 0.54018 0.62871 0.54258 0.0
H514 H 0.56798 0.62681 0.47938 0.0
H515 H 0.57458 0.60299 0.50073 0.0
H516 H 0.62823 0.55531 0.55128 0.0
H517 H 0.60292 0.50549 0.57479 0.0
H518 H 0.57629 0.5228 0.58534 0.0
H519 H 0.60127 0.57221 0.56121 0.0
C520 C 0.5009 0.49223 0.94049 0.0
C521 C 0.50055 0.5117 0.93986 0.0
C522 C 0.47967 0.50771 0.91286 0.0
C523 C 0.48996 0.51934 0.92627 0.0
C524 C 0.48063 0.48825 0.91305 0.0
C525 C 0.49108 0.48059 0.92681 0.0
U526 U 0.54247 0.49245 0.97392 0.0
O527 O 0.54318 0.48932 0.00417 0.0
O528 O 0.55707 0.46967 0.9852 0.0
C529 C 0.55256 0.4743 1.00249 0.0
C530 C 0.51079 0.48393 0.9557 0.0
C531 C 0.54695 0.45911 0.01482 0.0
C532 C 0.53749 0.42656 0.02022 0.0
C533 C 0.54038 0.44104 0.008 0.0
C534 C 0.5472 0.44817 0.04614 0.0
C535 C 0.54132 0.4299 0.03939 0.0
C536 C 0.54998 0.46255 0.03401 0.0
C537 C 0.5823 0.53105 0.97109 0.0
C538 C 0.60304 0.54293 0.99663 0.0
C539 C 0.61037 0.55116 0.96516 0.0
C540 C 0.59425 0.54041 0.95865 0.0
C541 C 0.61473 0.55285 0.98428 0.0
C542 C 0.58702 0.53206 0.99009 0.0
C543 C 0.56458 0.52112 0.96419 0.0
O544 O 0.52646 0.47634 0.9512 0.0
O545 O 0.51198 0.49394 0.97162 0.0
O546 O 0.54999 0.52268 0.97514 0.0
O547 O 0.56575 0.50406 0.95688 0.0
H548 H 0.50818 0.52104 0.95008 0.0
H549 H 0.4897 0.53438 0.92633 0.0
H550 H 0.47278 0.47893 0.90296 0.0
H551 H 0.49118 0.46554 0.92698 0.0
H552 H 0.53299 0.41263 0.01459 0.0
H553 H 0.53797 0.43798 0.99323 0.0
H554 H 0.54996 0.4513 0.06085 0.0
H555 H 0.55507 0.47635 0.0396 0.0
H556 H 0.60617 0.54376 0.0114 0.0
H557 H 0.61902 0.55872 0.95533 0.0
H558 H 0.59086 0.53977 0.94394 0.0
H559 H 0.5781 0.5248 0.99993 0.0
C560 C 0.70361 0.28186 0.3586 0.0
C561 C 0.70753 0.30112 0.35702 0.0
C562 C 0.70966 0.30633 0.39075 0.0
C563 C 0.71057 0.31319 0.37285 0.0
C564 C 0.70655 0.28693 0.39237 0.0
C565 C 0.70347 0.2748 0.37645 0.0
U566 U 0.70836 0.24181 0.32023 0.0
O567 O 0.68618 0.22293 0.30652 0.0
O568 O 0.70287 0.24288 0.29013 0.0
C569 C 0.68828 0.23059 0.29044 0.0
C570 C 0.69787 0.27003 0.34164 0.0
C571 C 0.67092 0.23576 0.28144 0.0
C572 C 0.63836 0.24356 0.28306 0.0
C573 C 0.6551 0.24013 0.29194 0.0
C574 C 0.6532 0.23917 0.25305 0.0
C575 C 0.63712 0.24285 0.2635 0.0
C576 C 0.6699 0.23559 0.26195 0.0
C577 C 0.74946 0.20985 0.32105 0.0
C578 C 0.76162 0.19099 0.29522 0.0
C579 C 0.77054 0.18579 0.32684 0.0
C580 C 0.75946 0.19996 0.33345 0.0
C581 C 0.77192 0.18122 0.30763 0.0
C582 C 0.75044 0.20513 0.30187 0.0
C583 C 0.73866 0.22533 0.3285 0.0
O584 O 0.7085 0.2721 0.32689 0.0
O585 O 0.69172 0.25256 0.34371 0.0
O586 O 0.72196 0.22054 0.33516 0.0
O587 O 0.73895 0.24019 0.31867 0.0
H588 H 0.70765 0.30698 0.34349 0.0
H589 H 0.71325 0.32801 0.37108 0.0
H590 H 0.70568 0.28122 0.40596 0.0
H591 H 0.70041 0.26002 0.37817 0.0
H592 H 0.62631 0.2466 0.29152 0.0
H593 H 0.65554 0.24057 0.30701 0.0
H594 H 0.65267 0.23839 0.23798 0.0
H595 H 0.68193 0.23228 0.25356 0.0
H596 H 0.76216 0.18768 0.28037 0.0
H597 H 0.77843 0.17875 0.33679 0.0
H598 H 0.75892 0.2034 0.3483 0.0
H599 H 0.74274 0.21249 0.29203 0.0
C600 C 0.46794 0.10345 0.02561 0.0
C601 C 0.48092 0.11559 0.01679 0.0
C602 C 0.47921 0.13897 0.04266 0.0
C603 C 0.4865 0.13322 0.02524 0.0
C604 C 0.46656 0.12649 0.05159 0.0
C605 C 0.46098 0.10892 0.04313 0.0
U606 U 0.46811 0.06406 0.98688 0.0
O607 O 0.4624 0.03374 0.98863 0.0
O608 O 0.44376 0.04925 0.97213 0.0
C609 C 0.44658 0.03326 0.97918 0.0
C610 C 0.46072 0.08547 0.01646 0.0
C611 C 0.43004 0.0236 0.98768 0.0
C612 C 0.41173 0.01519 0.01484 0.0
C613 C 0.42712 0.02508 0.00699 0.0
C614 C 0.40163 1.00274 0.98414 0.0
C615 C 0.39888 1.00379 1.00351 0.0
C616 C 0.41709 0.01251 0.97632 0.0
C617 C 0.50477 0.06589 0.9474 0.0
C618 C 0.52867 0.04844 0.93146 0.0
C619 C 0.50698 0.06452 0.91355 0.0
C620 C 0.49843 0.0708 0.92998 0.0
C621 C 0.52219 0.05323 0.91405 0.0
C622 C 0.52009 0.05473 0.94794 0.0
C623 C 0.49626 0.07337 0.96489 0.0
O624 O 0.45265 0.08648 1.00017 0.0
O625 O 0.47174 0.07168 0.01688 0.0
O626 O 0.49811 0.06392 0.9798 0.0
O627 O 0.4795 0.0796 0.96347 0.0
H628 H 0.48647 0.11157 1.00325 0.0
H629 H 0.49645 0.14238 0.01807 0.0
H630 H 0.46046 0.13051 0.06486 0.0
H631 H 0.45089 0.09974 0.0501 0.0
H632 H 0.40987 0.01649 0.02978 0.0
H633 H 0.43683 0.03372 0.01602 0.0
H634 H 0.3921 0.99395 0.97505 0.0
H635 H 0.41908 0.01123 0.96139 0.0
H636 H 0.54028 0.03969 0.93238 0.0
H637 H 0.50186 0.06882 0.90044 0.0
H638 H 0.48695 0.0797 0.929 0.0
H639 H 0.52555 0.05092 0.96111 0.0
O640 O 0.25038 0.87732 0.02219 0.0
Cd641 Cd 0.25982 0.89336 0.04577 0.0
Cd642 Cd 0.24232 0.92051 0.02487 0.0
O643 O 0.23694 0.89784 0.00593 0.0
O644 O 0.27041 0.87435 0.06129 0.0
O645 O 0.24669 0.8904 0.07053 0.0
C646 C 0.2581 0.87787 0.0738 0.0
C647 C 0.21751 0.93728 0.0365 0.0
C648 C 0.24167 0.88132 0.00769 0.0
C649 C 0.28344 0.9282 0.03444 0.0
O650 O 0.26931 0.93335 0.02589 0.0
O651 O 0.28213 0.91335 0.04329 0.0
O652 O 0.22441 0.93994 0.02021 0.0
O653 O 0.22467 0.92495 0.04616 0.0
O654 O 0.15219 0.53952 0.27798 0.0
Cd655 Cd 0.13906 0.51526 0.28785 0.0
Cd656 Cd 0.10801 0.52739 0.26852 0.0
O657 O 0.12806 0.54842 0.26245 0.0
O658 O 0.15959 0.50031 0.2966 0.0
O659 O 0.14037 0.49048 0.27339 0.0
C660 C 0.15434 0.4875 0.28395 0.0
C661 C 0.09024 0.51304 0.24343 0.0
C662 C 0.14513 0.55101 0.2677 0.0
C663 C 0.10381 0.52304 0.30987 0.0
O664 O 0.09639 0.5278 0.29495 0.0
O665 O 0.12032 0.5175 0.30975 0.0
O666 O 0.0869 0.52932 0.25055 0.0
O667 O 0.1036 0.50471 0.25074 0.0
O668 O 0.76185 0.68572 0.9942 0.0
Cd669 Cd 0.75232 0.67311 0.01805 0.0
Cd670 Cd 0.77059 0.64315 1.00098 0.0
O671 O 0.77683 0.66254 0.98122 0.0
O672 O 0.74183 0.69342 0.03421 0.0
O673 O 0.76598 0.67842 0.04266 0.0
C674 C 0.75425 0.69087 0.0466 0.0
C675 C 0.79481 0.62931 0.01578 0.0
C676 C 0.77163 0.67908 0.98096 0.0
C677 C 0.72937 0.63618 0.00819 0.0
O678 O 0.74385 0.62964 1.00082 0.0
O679 O 0.73027 0.65264 0.01583 0.0
O680 O 0.78927 0.62364 0.99917 0.0
O681 O 0.78668 0.64303 0.02391 0.0
O682 O 0.90935 0.03513 0.29136 0.0
Cd683 Cd 0.89908 0.03527 0.26435 0.0
Cd684 Cd 0.86659 0.04791 0.286 0.0
O685 O 0.88552 0.04562 0.30745 0.0
O686 O 0.92043 0.02618 0.2493 0.0
O687 O 0.90993 0.05377 0.24601 0.0
C688 C 0.92149 0.04152 0.24092 0.0
C689 C 0.85078 0.07537 0.28558 0.0
C690 C 0.90194 0.03987 0.30684 0.0
C691 C 0.86055 0.01282 0.26093 0.0
O692 O 0.85354 0.02364 0.27323 0.0
O693 O 0.87751 0.01577 0.2558 0.0
O694 O 0.84608 0.0626 0.29691 0.0
O695 O 0.86458 0.07257 0.27441 0.0
O696 O 0.25903 0.18649 0.48913 0.0
Cd697 Cd 0.24793 0.17571 0.51327 0.0
Cd698 Cd 0.26762 0.14251 0.49514 0.0
O699 O 0.2732 0.16273 0.47608 0.0
O700 O 0.23423 0.19733 0.5233 0.0
O701 O 0.25682 0.18606 0.53905 0.0
C702 C 0.24438 0.19808 0.53812 0.0
C703 C 0.29174 0.12263 0.5 0.0
C704 C 0.26856 0.17946 0.47592 0.0
C705 C 0.22597 0.1375 0.50468 0.0
O706 O 0.24036 0.13064 0.49744 0.0
O707 O 0.22677 0.15429 0.51148 0.0
O708 O 0.2818 0.12126 0.48498 0.0
O709 O 0.28805 0.13542 0.51253 0.0
O710 O 0.40932 0.53859 0.79319 0.0
Cd711 Cd 0.39776 0.54014 0.76692 0.0
Cd712 Cd 0.36464 0.54895 0.78974 0.0
O713 O 0.38508 0.54706 0.81001 0.0
O714 O 0.41903 0.53922 0.74876 0.0
O715 O 0.40192 0.56344 0.75266 0.0
C716 C 0.41541 0.55559 0.74408 0.0
C717 C 0.34229 0.57107 0.79624 0.0
C718 C 0.40187 0.54226 0.80892 0.0
C719 C 0.36181 0.5146 0.7624 0.0
O720 O 0.35414 0.52458 0.77499 0.0
O721 O 0.37857 0.51881 0.7573 0.0
O722 O 0.34221 0.55573 0.80457 0.0
O723 O 0.35534 0.5742 0.78416 0.0
O724 O 0.74611 0.37715 0.51769 0.0
Cd725 Cd 0.7588 0.3892 0.54198 0.0
Cd726 Cd 0.74146 0.42307 0.52905 0.0
O727 O 0.73339 0.4023 0.50881 0.0
O728 O 0.76729 0.36807 0.55606 0.0
O729 O 0.74646 0.38696 0.56709 0.0
C730 C 0.75632 0.37293 0.5694 0.0
C731 C 0.71956 0.44604 0.5335 0.0
C732 C 0.7364 0.38513 0.50613 0.0
C733 C 0.78403 0.42438 0.53494 0.0
O734 O 0.76964 0.43269 0.53073 0.0
O735 O 0.78241 0.40752 0.53958 0.0
O736 O 0.72993 0.44491 0.51895 0.0
O737 O 0.72171 0.43422 0.54599 0.0
O738 O 0.65571 0.04406 0.78219 0.0
Cd739 Cd 0.64144 0.02044 0.79196 0.0
Cd740 Cd 0.6122 0.03031 0.76415 0.0
O741 O 0.63484 0.04975 0.76093 0.0
O742 O 0.66032 0.00498 0.80304 0.0
O743 O 0.64344 0.99558 0.77796 0.0
C744 C 0.65614 0.99231 0.7899 0.0
C745 C 0.59158 0.02723 0.73821 0.0
C746 C 0.65058 0.0537 0.76911 0.0
C747 C 0.60267 0.02652 0.80609 0.0
O748 O 0.59817 0.02874 0.7893 0.0
O749 O 0.61943 0.02362 0.81042 0.0
O750 O 0.59295 0.04189 0.74938 0.0
O751 O 0.60202 0.01396 0.74162 0.0
O752 O 0.99142 0.29805 0.92528 0.0
Cd753 Cd 0.99161 0.27164 0.91207 0.0
Cd754 Cd 0.01529 0.28973 0.88639 0.0
O755 O 0.01075 0.31179 0.90545 0.0
O756 O 0.98975 0.25166 0.93047 0.0
O757 O 0.01508 0.25817 0.91361 0.0
C758 C 0.00676 0.2483 0.92608 0.0
C759 C 0.04498 0.2904 0.872 0.0
C760 C 1.0006 0.31265 0.91998 0.0
C761 C 0.97785 0.26939 0.87282 0.0
O762 O 0.99339 0.27839 0.8694 0.0
O763 O 0.97374 0.26526 0.88936 0.0
O764 O 0.03274 0.3018 0.86807 0.0
O765 O 0.04055 0.27862 0.88443 0.0
O766 O 0.48931 0.78673 0.42522 0.0
Cd767 Cd 0.49264 0.76331 0.40784 0.0
Cd768 Cd 0.51223 0.78998 0.38693 0.0
O769 O 0.50554 0.80783 0.40937 0.0
O770 O 0.48986 0.74119 0.42361 0.0
O771 O 0.51651 0.7505 0.41014 0.0
C772 C 0.50746 0.73914 0.42085 0.0
C773 C 0.54237 0.79243 0.37383 0.0
C774 C 0.49575 0.80353 0.42348 0.0
C775 C 0.47776 0.7676 0.36957 0.0
O776 O 0.4912 0.78014 0.36835 0.0
O777 O 0.47554 0.75874 0.3843 0.0
O778 O 0.53049 0.80468 0.37134 0.0
O779 O 0.53739 0.77905 0.38442 0.0
O780 O 0.98219 0.7853 0.67542 0.0
Cd781 Cd 0.00603 0.77546 0.66289 0.0
Cd782 Cd 0.98893 0.79259 0.63025 0.0
O783 O 0.97022 0.79841 0.65148 0.0
O784 O 0.02107 0.7664 0.6836 0.0
O785 O 0.03158 0.78944 0.66654 0.0
C786 C 0.03446 0.77861 0.67978 0.0
C787 C 0.99365 0.81558 0.60827 0.0
C788 C 0.96952 0.79434 0.66846 0.0
C789 C 0.99665 0.75128 0.62714 0.0
O790 O 0.99034 0.76519 0.61976 0.0
O791 O 1.00326 0.75285 0.64363 0.0
O792 O 0.97847 0.80472 0.60862 0.0
O793 O 0.0064 0.81353 0.62055 0.0
O794 O 0.48291 0.28207 0.17306 0.0
Cd795 Cd 0.50624 0.27022 0.16168 0.0
Cd796 Cd 0.49755 0.29757 0.13271 0.0
O797 O 0.47675 0.30222 0.15221 0.0
O798 O 0.51338 0.25379 0.18158 0.0
O799 O 0.53236 0.27714 0.17258 0.0
C800 C 0.52927 0.2635 0.18333 0.0
C801 C 0.51052 0.32373 0.11763 0.0
C802 C 0.473 0.29461 0.16744 0.0
C803 C 0.4992 0.25577 0.12137 0.0
O804 O 0.49686 0.27237 0.11712 0.0
O805 O 0.50286 0.25224 0.13805 0.0
O806 O 0.49399 0.31616 0.11351 0.0
O807 O 0.51974 0.31655 0.13052 0.0
H808 H 0.2134 0.83951 0.90487 0.0
H809 H 0.22617 0.78526 0.92277 0.0
H810 H 0.23402 0.79945 0.95412 0.0
H811 H 0.24976 0.86663 0.93087 0.0
H812 H 0.23565 0.88587 0.93661 0.0
H813 H 0.23102 0.87148 0.91552 0.0
H814 H 0.19648 0.86465 0.92563 0.0
H815 H 0.20102 0.87901 0.94677 0.0
H816 H 0.19161 0.85511 0.94787 0.0
H817 H 0.24072 0.81945 0.98346 0.0
H818 H 0.2461 0.84394 0.00875 0.0
H819 H 0.22821 0.88522 0.97223 0.0
C820 C 0.21768 0.83055 0.9154 0.0
C821 C 0.21924 0.81123 0.91124 0.0
C822 C 0.22517 0.80013 0.92544 0.0
C823 C 0.22951 0.80803 0.94337 0.0
C824 C 0.22782 0.82708 0.94697 0.0
C825 C 0.22204 0.83821 0.93341 0.0
C826 C 0.22153 0.85834 0.94092 0.0
C827 C 0.23532 0.87134 0.93035 0.0
C828 C 0.20146 0.86464 0.94026 0.0
C829 C 0.228 0.85679 0.96081 0.0
C830 C 0.23153 0.83862 0.96398 0.0
C831 C 0.23795 0.83372 0.98116 0.0
C832 C 0.24098 0.84777 0.99545 0.0
C833 C 0.23756 0.86656 0.99256 0.0
C834 C 0.23085 0.87101 0.97498 0.0
H835 H 0.02631 0.55871 0.3812 0.0
H836 H 0.05129 0.52676 0.42271 0.0
H837 H 0.0736 0.51538 0.39929 0.0
H838 H 0.03059 0.52455 0.34217 0.0
H839 H 0.03599 0.54207 0.32568 0.0
H840 H 0.02152 0.54722 0.34555 0.0
H841 H 0.04424 0.57603 0.35518 0.0
H842 H 0.05878 0.57096 0.33537 0.0
H843 H 0.06884 0.57306 0.35845 0.0
H844 H 0.09443 0.50894 0.37193 0.0
H845 H 0.11139 0.50667 0.34212 0.0
H846 H 0.0725 0.54212 0.31796 0.0
C847 C 0.03644 0.54928 0.38534 0.0
C848 C 0.03699 0.54357 0.4038 0.0
C849 C 0.0504 0.53112 0.40861 0.0
C850 C 0.06322 0.52465 0.39542 0.0
C851 C 0.06238 0.53064 0.3774 0.0
C852 C 0.04925 0.54255 0.37229 0.0
C853 C 0.05148 0.54695 0.35201 0.0
C854 C 0.03385 0.53976 0.34069 0.0
C855 C 0.05611 0.568 0.35015 0.0
C856 C 0.06809 0.53587 0.34662 0.0
C857 C 0.07417 0.5266 0.3615 0.0
C858 C 0.08969 0.516 0.36014 0.0
C859 C 0.09927 0.51485 0.34314 0.0
C860 C 0.09325 0.52413 0.32763 0.0
C861 C 0.07735 0.53469 0.32946 0.0
H862 H 0.76729 0.76583 0.91676 0.0
H863 H 0.80159 0.73646 0.8767 0.0
H864 H 0.80345 0.71111 0.89812 0.0
H865 H 0.79052 0.75309 0.95825 0.0
H866 H 0.76908 0.75035 0.97135 0.0
H867 H 0.77106 0.76655 0.95318 0.0
H868 H 0.74128 0.75002 0.93713 0.0
H869 H 0.73918 0.73379 0.95526 0.0
H870 H 0.74035 0.72523 0.93126 0.0
H871 H 0.80069 0.68834 0.92355 0.0
H872 H 0.79354 0.66999 0.95093 0.0
H873 H 0.76063 0.71398 0.97421 0.0
C874 C 0.77514 0.75405 0.91241 0.0
C875 C 0.78435 0.75326 0.89498 0.0
C876 C 0.79466 0.73763 0.89005 0.0
C877 C 0.79571 0.72307 0.90209 0.0
C878 C 0.78639 0.72429 0.91908 0.0
C879 C 0.77632 0.73939 0.92425 0.0
C880 C 0.76728 0.73713 0.94312 0.0
C881 C 0.77495 0.75271 0.95731 0.0
C882 C 0.74575 0.7365 0.94159 0.0
C883 C 0.77372 0.71833 0.94772 0.0
C884 C 0.78478 0.71118 0.93369 0.0
C885 C 0.7921 0.69384 0.93465 0.0
C886 C 0.78795 0.68351 0.95028 0.0
C887 C 0.77654 0.69049 0.96482 0.0
C888 C 0.76947 0.70823 0.96345 0.0
H889 H 0.9761 0.99851 0.37371 0.0
H890 H 0.95341 0.032 0.41923 0.0
H891 H 0.93208 0.04507 0.39727 0.0
H892 H 0.97447 0.03335 0.33913 0.0
H893 H 0.96799 0.01633 0.32037 0.0
H894 H 0.98184 0.00996 0.33959 0.0
H895 H 0.9572 0.98259 0.34544 0.0
H896 H 0.94328 0.98887 0.32625 0.0
H897 H 0.93298 0.98727 0.34901 0.0
H898 H 0.91191 0.05313 0.37068 0.0
H899 H 0.89537 0.05672 0.34111 0.0
H900 H 0.93181 0.01885 0.31256 0.0
C901 C 0.96666 0.00862 0.37903 0.0
C902 C 0.96647 0.01427 0.3982 0.0
C903 C 0.95399 0.02763 0.40459 0.0
C904 C 0.94175 0.03507 0.39223 0.0
C905 C 0.94223 0.02915 0.37346 0.0
C906 C 0.95446 0.01634 0.36684 0.0
C907 C 0.95209 0.01228 0.34601 0.0
C908 C 0.97017 0.01835 0.33567 0.0
C909 C 0.94602 0.99152 0.34142 0.0
C910 C 0.93644 0.0246 0.342 0.0
C911 C 0.93093 0.03417 0.35804 0.0
C912 C 0.91623 0.04584 0.358 0.0
C913 C 0.90688 0.04776 0.34113 0.0
C914 C 0.91235 0.03819 0.32446 0.0
C915 C 0.92744 0.02656 0.32498 0.0
H916 H 0.23862 0.24032 0.6435 0.0
H917 H 0.21334 0.28735 0.62131 0.0
H918 H 0.21765 0.27392 0.5894 0.0
H919 H 0.27356 0.23525 0.60677 0.0
H920 H 0.27176 0.21009 0.60647 0.0
H921 H 0.26731 0.22364 0.62767 0.0
H922 H 0.23453 0.20586 0.63001 0.0
H923 H 0.23888 0.19226 0.60885 0.0
H924 H 0.21834 0.20532 0.61071 0.0
H925 H 0.22264 0.25466 0.56019 0.0
H926 H 0.22926 0.23126 0.53511 0.0
H927 H 0.25256 0.19693 0.57557 0.0
C928 C 0.23405 0.24779 0.63191 0.0
C929 C 0.22571 0.26495 0.63491 0.0
C930 C 0.22 0.27435 0.61936 0.0
C931 C 0.22231 0.26679 0.60118 0.0
C932 C 0.23052 0.24987 0.59871 0.0
C933 C 0.23645 0.24052 0.61359 0.0
C934 C 0.24468 0.22244 0.60697 0.0
C935 C 0.26557 0.22289 0.61229 0.0
C936 C 0.23343 0.20547 0.61459 0.0
C937 C 0.24214 0.22296 0.58606 0.0
C938 C 0.2339 0.23892 0.58167 0.0
C939 C 0.22928 0.24221 0.56343 0.0
C940 C 0.23305 0.2288 0.54928 0.0
C941 C 0.24155 0.21235 0.55336 0.0
C942 C 0.24633 0.20951 0.57201 0.0
H943 H 0.48421 0.56057 0.65644 0.0
H944 H 0.47055 0.61798 0.65236 0.0
H945 H 0.45065 0.61548 0.68021 0.0
H946 H 0.43915 0.54259 0.67082 0.0
H947 H 0.44792 0.52688 0.68677 0.0
H948 H 0.46164 0.53331 0.66685 0.0
H949 H 0.48971 0.54493 0.68844 0.0
H950 H 0.47609 0.53847 0.70844 0.0
H951 H 0.48639 0.56205 0.70725 0.0
H952 H 0.43109 0.6064 0.70783 0.0
H953 H 0.41394 0.59149 0.73354 0.0
H954 H 0.44094 0.54033 0.72028 0.0
C955 C 0.47726 0.57271 0.66154 0.0
C956 C 0.47889 0.58944 0.65205 0.0
C957 C 0.46931 0.6049 0.65913 0.0
C958 C 0.45805 0.60367 0.67504 0.0
C959 C 0.45654 0.58692 0.68389 0.0
C960 C 0.46596 0.57174 0.67746 0.0
C961 C 0.46164 0.55524 0.68936 0.0
C962 C 0.45201 0.53852 0.67775 0.0
C963 C 0.47952 0.54986 0.69894 0.0
C964 C 0.44821 0.56348 0.70335 0.0
C965 C 0.44547 0.58178 0.69996 0.0
C966 C 0.43324 0.59212 0.7107 0.0
C967 C 0.42353 0.58352 0.72527 0.0
C968 C 0.42613 0.56478 0.72903 0.0
C969 C 0.43874 0.55473 0.71791 0.0
H970 H 0.78076 0.29404 0.63753 0.0
H971 H 0.74646 0.32078 0.67941 0.0
H972 H 0.73987 0.34472 0.65757 0.0
H973 H 0.80084 0.33648 0.61855 0.0
H974 H 0.80054 0.32661 0.59493 0.0
H975 H 0.80273 0.31177 0.61398 0.0
H976 H 0.77364 0.29078 0.60186 0.0
H977 H 0.77132 0.30557 0.5828 0.0
H978 H 0.75182 0.30111 0.59822 0.0
H979 H 0.73624 0.36533 0.63065 0.0
H980 H 0.73698 0.38163 0.60132 0.0
H981 H 0.77379 0.34151 0.57713 0.0
C982 C 0.77181 0.30489 0.6421 0.0
C983 C 0.76415 0.30551 0.66025 0.0
C984 C 0.7527 0.32012 0.66571 0.0
C985 C 0.74877 0.33372 0.65334 0.0
C986 C 0.75645 0.33262 0.63554 0.0
C987 C 0.76782 0.31864 0.62997 0.0
C988 C 0.77439 0.32066 0.61011 0.0
C989 C 0.7959 0.32409 0.60936 0.0
C990 C 0.76737 0.30351 0.5975 0.0
C991 C 0.76484 0.33789 0.60533 0.0
C992 C 0.75452 0.34456 0.62016 0.0
C993 C 0.74433 0.36025 0.61897 0.0
C994 C 0.74481 0.3694 0.60223 0.0
C995 C 0.75544 0.3629 0.58689 0.0
C996 C 0.76554 0.34688 0.58857 0.0
H997 H 0.53557 0.98107 0.64805 0.0
H998 H 0.51029 0.03383 0.64484 0.0
H999 H 0.52771 0.04622 0.67304 0.0
H1000 H 0.53592 0.98029 0.69815 0.0
H1001 H 0.55835 0.97049 0.69917 0.0
H1002 H 0.54349 0.96545 0.67897 0.0
H1003 H 0.5705 0.97774 0.65788 0.0
H1004 H 0.58545 0.98283 0.678 0.0
H1005 H 0.5814 1.00101 0.66262 0.0
H1006 H 0.54802 0.05317 0.70114 0.0
H1007 H 0.57006 0.05441 0.72754 0.0
H1008 H 0.58319 0.99749 0.71248 0.0
C1009 C 0.53375 0.99527 0.65319 0.0
C1010 C 0.5214 0.00642 0.64419 0.0
C1011 C 0.51934 0.02486 0.6516 0.0
C1012 C 0.52929 0.03209 0.66756 0.0
C1013 C 0.54134 0.02075 0.676 0.0
C1014 C 0.54364 1.00275 0.66911 0.0
C1015 C 0.55768 0.99363 0.68079 0.0
C1016 C 0.5483 0.97645 0.6898 0.0
C1017 C 0.57477 0.98851 0.66912 0.0
C1018 C 0.56295 0.00938 0.69527 0.0
C1019 C 0.55329 0.02485 0.69223 0.0
C1020 C 0.55567 0.04115 0.70368 0.0
C1021 C 0.56826 0.04169 0.71866 0.0
C1022 C 0.57841 0.02605 0.72213 0.0
C1023 C 0.57569 0.00968 0.71021 0.0
H1024 H 0.87836 0.25678 0.82001 0.0
H1025 H 0.90993 0.25223 0.76864 0.0
H1026 H 0.93934 0.25295 0.78665 0.0
H1027 H 0.91088 0.28862 0.84438 0.0
H1028 H 0.90781 0.2786 0.86664 0.0
H1029 H 0.8889 0.27615 0.84991 0.0
H1030 H 0.88729 0.24018 0.85148 0.0
H1031 H 0.90619 0.24252 0.86828 0.0
H1032 H 0.90816 0.22804 0.84716 0.0
H1033 H 0.96539 0.25691 0.8096 0.0
H1034 H 0.98682 0.26316 0.83645 0.0
H1035 H 0.93905 0.2642 0.87365 0.0
C1036 C 0.89144 0.25557 0.81259 0.0
C1037 C 0.89183 0.25456 0.79288 0.0
C1038 C 0.90928 0.25328 0.7837 0.0
C1039 C 0.92606 0.25354 0.79381 0.0
C1040 C 0.92525 0.25494 0.81316 0.0
C1041 C 0.90843 0.25581 0.82253 0.0
C1042 C 0.91173 0.25815 0.84344 0.0
C1043 C 0.9044 0.27647 0.85156 0.0
C1044 C 0.90281 0.24121 0.85316 0.0
C1045 C 0.93304 0.25889 0.84427 0.0
C1046 C 0.94047 0.25691 0.8266 0.0
C1047 C 0.95976 0.25822 0.82353 0.0
C1048 C 0.97182 0.26184 0.83888 0.0
C1049 C 0.96463 0.26403 0.85716 0.0
C1050 C 0.94495 0.26225 0.85988 0.0
H1051 H 0.47903 0.90667 0.46537 0.0
H1052 H 0.46051 0.88138 0.51614 0.0
H1053 H 0.46772 0.85047 0.50249 0.0
H1054 H 0.46019 0.86975 0.43379 0.0
H1055 H 0.47956 0.8715 0.41778 0.0
H1056 H 0.47365 0.8918 0.43177 0.0
H1057 H 0.50766 0.89619 0.44474 0.0
H1058 H 0.51368 0.87589 0.43078 0.0
H1059 H 0.51747 0.87716 0.4556 0.0
H1060 H 0.47522 0.82213 0.48285 0.0
H1061 H 0.48356 0.79826 0.45888 0.0
H1062 H 0.49794 0.84177 0.42088 0.0
C1063 C 0.4765 0.89463 0.47361 0.0
C1064 C 0.46926 0.89648 0.49187 0.0
C1065 C 0.4663 0.88038 0.50224 0.0
C1066 C 0.47026 0.86273 0.49457 0.0
C1067 C 0.4773 0.86139 0.47653 0.0
C1068 C 0.48052 0.87689 0.4662 0.0
C1069 C 0.48799 0.87152 0.44705 0.0
C1070 C 0.47454 0.87643 0.43169 0.0
C1071 C 0.50788 0.88074 0.4444 0.0
C1072 C 0.48823 0.85054 0.44815 0.0
C1073 C 0.48198 0.84502 0.46529 0.0
C1074 C 0.48028 0.82629 0.46943 0.0
C1075 C 0.48501 0.81283 0.45569 0.0
C1076 C 0.4915 0.81812 0.43801 0.0
C1077 C 0.49324 0.83728 0.43431 0.0
H1078 H 0.12276 0.32843 0.80105 0.0
H1079 H 0.15637 0.28363 0.81557 0.0
H1080 H 0.1315 0.27251 0.83705 0.0
H1081 H 0.10475 0.33846 0.84665 0.0
H1082 H 0.08183 0.34316 0.83844 0.0
H1083 H 0.10208 0.34725 0.82393 0.0
H1084 H 0.0861 0.3256 0.79749 0.0
H1085 H 0.06577 0.32148 0.8119 0.0
H1086 H 0.07775 0.30204 0.80215 0.0
H1087 H 0.10305 0.26687 0.8578 0.0
H1088 H 0.073 0.26653 0.87497 0.0
H1089 H 0.05831 0.31505 0.84668 0.0
C1090 C 0.12494 0.31632 0.80879 0.0
C1091 C 0.14156 0.30692 0.80661 0.0
C1092 C 0.14369 0.29095 0.81682 0.0
C1093 C 0.12969 0.28459 0.82915 0.0
C1094 C 0.11357 0.2943 0.83108 0.0
C1095 C 0.1111 0.30976 0.82108 0.0
C1096 C 0.09249 0.3177 0.82561 0.0
C1097 C 0.09548 0.33783 0.83417 0.0
C1098 C 0.07978 0.31663 0.80825 0.0
C1099 C 0.08491 0.30438 0.83981 0.0
C1100 C 0.09725 0.29099 0.84283 0.0
C1101 C 0.09327 0.27728 0.85549 0.0
C1102 C 0.07618 0.27721 0.86522 0.0
C1103 C 0.06327 0.29074 0.86219 0.0
C1104 C 0.06783 0.30449 0.84932 0.0
H1105 H 0.51774 0.65881 0.49199 0.0
H1106 H 0.57647 0.65953 0.47633 0.0
H1107 H 0.57168 0.68375 0.45434 0.0
H1108 H 0.49945 0.66531 0.44652 0.0
H1109 H 0.4818 0.68033 0.45486 0.0
H1110 H 0.48975 0.663 0.46946 0.0
H1111 H 0.49848 0.68868 0.49548 0.0
H1112 H 0.49046 0.70607 0.481 0.0
H1113 H 0.51403 0.70863 0.49029 0.0
H1114 H 0.56064 0.70799 0.43399 0.0
H1115 H 0.54418 0.73095 0.41723 0.0
H1116 H 0.49265 0.71482 0.44613 0.0
C1117 C 0.52963 0.66417 0.48406 0.0
C1118 C 0.54747 0.65709 0.48584 0.0
C1119 C 0.5626 0.66442 0.47502 0.0
C1120 C 0.56005 0.67828 0.46254 0.0
C1121 C 0.54228 0.68478 0.46098 0.0
C1122 C 0.52733 0.67803 0.47148 0.0
C1123 C 0.50969 0.68747 0.46713 0.0
C1124 C 0.49426 0.67317 0.45901 0.0
C1125 C 0.50276 0.69836 0.48451 0.0
C1126 C 0.51708 0.70057 0.45259 0.0
C1127 C 0.53591 0.69878 0.44924 0.0
C1128 C 0.54588 0.7095 0.43649 0.0
C1129 C 0.53639 0.7225 0.427 0.0
C1130 C 0.51711 0.7247 0.43028 0.0
C1131 C 0.50737 0.71345 0.44321 0.0
H1132 H 0.8989 0.79234 0.75492 0.0
H1133 H 0.8685 0.83351 0.72812 0.0
H1134 H 0.89132 0.83348 0.70244 0.0
H1135 H 0.94559 0.81171 0.74291 0.0
H1136 H 0.95477 0.78912 0.73931 0.0
H1137 H 0.93603 0.79236 0.75565 0.0
H1138 H 0.91569 0.76534 0.73832 0.0
H1139 H 0.93434 0.76205 0.72191 0.0
H1140 H 0.91127 0.76625 0.71374 0.0
H1141 H 0.91694 0.82839 0.67917 0.0
H1142 H 0.94397 0.81922 0.66039 0.0
H1143 H 0.95864 0.78236 0.70286 0.0
C1144 C 0.89714 0.80156 0.74381 0.0
C1145 C 0.88174 0.81287 0.7436 0.0
C1146 C 0.87991 0.82446 0.72854 0.0
C1147 C 0.8929 0.82465 0.71392 0.0
C1148 C 0.9078 0.81328 0.71454 0.0
C1149 C 0.91006 0.80203 0.72914 0.0
C1150 C 0.92728 0.79108 0.72638 0.0
C1151 C 0.94177 0.79639 0.74199 0.0
C1152 C 0.92181 0.76992 0.725 0.0
C1153 C 0.93428 0.79785 0.70789 0.0
C1154 C 0.92281 0.81062 0.70129 0.0
C1155 C 0.92609 0.81848 0.68426 0.0
C1156 C 0.94149 0.81314 0.67366 0.0
C1157 C 0.95353 0.8001 0.68013 0.0
C1158 C 0.94984 0.79247 0.69756 0.0
H1159 H 0.04123 0.90431 0.55858 0.0
H1160 H 0.9959 0.89586 0.51794 0.0
H1161 H 0.98263 0.86879 0.53431 0.0
H1162 H 0.04703 0.85509 0.56329 0.0
H1163 H 0.05205 0.85802 0.58788 0.0
H1164 H 0.05801 0.87691 0.57308 0.0
H1165 H 0.03853 0.8987 0.59398 0.0
H1166 H 0.03248 0.87987 0.60881 0.0
H1167 H 0.01421 0.89182 0.59841 0.0
H1168 H 0.97392 0.84296 0.55516 0.0
H1169 H 0.97059 0.81958 0.57881 0.0
H1170 H 0.02209 0.84374 0.6056 0.0
C1171 C 0.02863 0.89668 0.55297 0.0
C1172 C 0.01958 0.90241 0.53696 0.0
C1173 C 1.00295 0.89207 0.53033 0.0
C1174 C 0.99535 0.87655 0.53947 0.0
C1175 C 0.00457 0.87138 0.5552 0.0
C1176 C 0.02088 0.88106 0.56188 0.0
C1177 C 0.02798 0.8725 0.57909 0.0
C1178 C 0.04742 0.86519 0.57562 0.0
C1179 C 0.02831 0.88656 0.59608 0.0
C1180 C 0.01304 0.85655 0.58108 0.0
C1181 C 0.99967 0.85623 0.56714 0.0
C1182 C 0.98433 0.84303 0.5661 0.0
C1183 C 0.98256 0.82981 0.57966 0.0
C1184 C 0.99609 0.82975 0.59409 0.0
C1185 C 0.01156 0.84333 0.59472 0.0
H1186 H 0.10942 0.74533 0.75082 0.0
H1187 H 0.1501 0.78655 0.72939 0.0
H1188 H 0.12566 0.797 0.70895 0.0
H1189 H 0.0858 0.7327 0.70789 0.0
H1190 H 0.0628 0.72977 0.71809 0.0
H1191 H 0.08328 0.72612 0.73159 0.0
H1192 H 0.07354 0.75047 0.75704 0.0
H1193 H 0.05299 0.75419 0.74362 0.0
H1194 H 0.06932 0.77369 0.75074 0.0
H1195 H 0.09676 0.80247 0.6902 0.0
H1196 H 0.06598 0.80201 0.6743 0.0
H1197 H 0.0443 0.75722 0.70804 0.0
C1198 C 0.11314 0.75674 0.74202 0.0
C1199 C 0.13171 0.76513 0.74175 0.0
C1200 C 0.13603 0.77978 0.72974 0.0
C1201 C 0.12221 0.78589 0.71815 0.0
C1202 C 0.10409 0.77723 0.71868 0.0
C1203 C 0.09953 0.76295 0.73031 0.0
C1204 C 0.07918 0.75555 0.72778 0.0
C1205 C 0.07768 0.73481 0.72093 0.0
C1206 C 0.0681 0.75867 0.74588 0.0
C1207 C 0.07301 0.7678 0.71285 0.0
C1208 C 0.08754 0.78028 0.70784 0.0
C1209 C 0.08526 0.7928 0.69407 0.0
C1210 C 0.06772 0.79244 0.68512 0.0
C1211 C 0.05268 0.77962 0.68991 0.0
C1212 C 0.05545 0.76726 0.70407 0.0
H1213 H 0.96382 0.67282 0.54744 0.0
H1214 H 1.0016 0.63682 0.57237 0.0
H1215 H 0.01168 0.66233 0.59553 0.0
H1216 H 0.9945 0.71578 0.5539 0.0
H1217 H 0.97538 0.73021 0.559 0.0
H1218 H 0.97157 0.70931 0.54396 0.0
H1219 H 0.94454 0.69732 0.5652 0.0
H1220 H 0.9483 0.71815 0.58033 0.0
H1221 H 0.94901 0.6955 0.58966 0.0
H1222 H 0.01625 0.69097 0.61713 0.0
H1223 H 0.01644 0.72151 0.63469 0.0
H1224 H 0.97639 0.73951 0.59538 0.0
C1225 C 0.97427 0.67035 0.55773 0.0
C1226 C 0.98198 0.65283 0.55804 0.0
C1227 C 0.99569 0.65019 0.57168 0.0
C1228 C 1.00143 0.66456 0.58497 0.0
C1229 C 0.99345 0.68159 0.58438 0.0
C1230 C 0.9803 0.68464 0.57102 0.0
C1231 C 0.97388 0.70426 0.57356 0.0
C1232 C 0.97915 0.71555 0.5566 0.0
C1233 C 0.95268 0.70377 0.57742 0.0
C1234 C 0.98527 0.71165 0.59061 0.0
C1235 C 0.99642 0.69831 0.59663 0.0
C1236 C 0.00771 0.70159 0.61246 0.0
C1237 C 0.00766 0.71898 0.62238 0.0
C1238 C 0.99649 0.73298 0.6164 0.0
C1239 C 0.98522 0.72919 0.60023 0.0
H1240 H 0.77822 0.92995 0.25327 0.0
H1241 H 0.80438 0.9109 0.20186 0.0
H1242 H 0.82809 0.93761 0.20514 0.0
H1243 H 0.78578 0.97966 0.24646 0.0
H1244 H 0.79075 0.98604 0.27067 0.0
H1245 H 0.7754 0.96559 0.26423 0.0
H1246 H 0.79635 0.94531 0.28275 0.0
H1247 H 0.81174 0.96569 0.28926 0.0
H1248 H 0.82107 0.94552 0.27765 0.0
H1249 H 0.84966 0.96534 0.21428 0.0
H1250 H 0.86764 0.99316 0.22851 0.0
H1251 H 0.82771 0.99523 0.27394 0.0
C1252 C 0.78895 0.93143 0.24273 0.0
C1253 C 0.7893 0.91839 0.2272 0.0
C1254 C 0.80356 0.92086 0.21368 0.0
C1255 C 0.81718 0.93594 0.21547 0.0
C1256 C 0.81641 0.94854 0.23084 0.0
C1257 C 0.80266 0.94654 0.24423 0.0
C1258 C 0.80525 0.96211 0.25945 0.0
C1259 C 0.78828 0.97406 0.26024 0.0
C1260 C 0.80882 0.95418 0.2784 0.0
C1261 C 0.82267 0.97303 0.25255 0.0
C1262 C 0.82884 0.96486 0.23604 0.0
C1263 C 0.84492 0.97194 0.22716 0.0
C1264 C 0.85507 0.98774 0.2354 0.0
C1265 C 0.84909 0.99646 0.25232 0.0
C1266 C 0.83255 0.98902 0.26091 0.0
H1267 H 0.77698 0.14727 0.322 0.0
H1268 H 0.79555 0.18243 0.27757 0.0
H1269 H 0.81735 0.15906 0.26672 0.0
H1270 H 0.8219 0.13172 0.33249 0.0
H1271 H 0.81288 0.10835 0.33711 0.0
H1272 H 0.79829 0.12754 0.34095 0.0
H1273 H 0.77279 0.11049 0.31909 0.0
H1274 H 0.78728 0.09123 0.31521 0.0
H1275 H 0.77898 0.10294 0.29571 0.0
H1276 H 0.83815 0.13222 0.26145 0.0
H1277 H 0.85534 0.10365 0.26159 0.0
H1278 H 0.82305 0.08611 0.30942 0.0
C1279 C 0.78564 0.15009 0.31 0.0
C1280 C 0.78449 0.16673 0.30063 0.0
C1281 C 0.79596 0.16972 0.28485 0.0
C1282 C 0.80848 0.15656 0.27864 0.0
C1283 C 0.80936 0.14041 0.2883 0.0
C1284 C 0.79816 0.13709 0.30358 0.0
C1285 C 0.80187 0.11869 0.31157 0.0
C1286 C 0.80917 0.12177 0.33172 0.0
C1287 C 0.78418 0.10503 0.31031 0.0
C1288 C 0.81702 0.11224 0.29851 0.0
C1289 C 0.82117 0.12496 0.28518 0.0
C1290 C 0.83494 0.12213 0.27178 0.0
C1291 C 0.84466 0.10587 0.27199 0.0
C1292 C 0.84055 0.09259 0.28547 0.0
C1293 C 0.82651 0.09592 0.29886 0.0
H1294 H 0.36205 0.99847 0.9916 0.0
H1295 H 0.40007 0.98328 0.03425 0.0
H1296 H 0.37435 0.96339 0.04758 0.0
H1297 H 0.32062 0.99994 0.02111 0.0
H1298 H 0.30479 0.99028 1.00289 0.0
H1299 H 0.32599 1.00392 0.99713 0.0
H1300 H 0.33584 0.97652 0.9752 0.0
H1301 H 0.31469 0.9628 0.98088 0.0
H1302 H 0.33724 0.9538 0.9842 0.0
H1303 H 0.34509 0.94365 0.0551 0.0
H1304 H 0.31401 0.92633 0.05702 0.0
H1305 H 0.29466 0.95484 0.00995 0.0
C1306 C 0.36495 0.99099 1.00377 0.0
C1307 C 0.38309 0.99248 0.01192 0.0
C1308 C 0.38625 0.98256 0.02792 0.0
C1309 C 0.37175 0.97116 0.03554 0.0
C1310 C 0.35409 0.96991 0.0271 0.0
C1311 C 0.35059 0.97965 0.01165 0.0
C1312 C 0.3304 0.97566 0.00512 0.0
C1313 C 0.31983 0.99351 0.00666 0.0
C1314 C 0.3295 0.96665 0.98517 0.0
C1315 C 0.32319 0.96191 0.01913 0.0
C1316 C 0.3371 0.95879 0.03167 0.0
C1317 C 0.33404 0.94611 0.04546 0.0
C1318 C 0.31634 0.9363 0.04641 0.0
C1319 C 0.30183 0.93928 0.03372 0.0
C1320 C 0.30535 0.9524 0.02001 0.0
H1321 H 0.23381 0.4183 0.30357 0.0
H1322 H 0.20662 0.37912 0.26189 0.0
H1323 H 0.18228 0.40102 0.25738 0.0
H1324 H 0.19078 0.43466 0.32389 0.0
H1325 H 0.20066 0.45841 0.32772 0.0
H1326 H 0.21564 0.43939 0.32804 0.0
H1327 H 0.2365 0.45434 0.30263 0.0
H1328 H 0.22154 0.47334 0.30216 0.0
H1329 H 0.22593 0.45967 0.28102 0.0
H1330 H 0.16139 0.42771 0.2566 0.0
H1331 H 0.14518 0.45686 0.2602 0.0
H1332 H 0.18562 0.47846 0.30273 0.0
C1333 C 0.22258 0.41419 0.2937 0.0
C1334 C 0.22222 0.39696 0.28304 0.0
C1335 C 0.2074 0.39231 0.27005 0.0
C1336 C 0.19343 0.40463 0.26745 0.0
C1337 C 0.19437 0.42158 0.27798 0.0
C1338 C 0.20851 0.42634 0.29091 0.0
C1339 C 0.20647 0.44558 0.30017 0.0
C1340 C 0.20319 0.44443 0.3212 0.0
C1341 C 0.22363 0.45902 0.29626 0.0
C1342 C 0.18905 0.45093 0.29035 0.0
C1343 C 0.18228 0.43689 0.2776 0.0
C1344 C 0.16652 0.43876 0.26661 0.0
C1345 C 0.15742 0.4554 0.26873 0.0
C1346 C 0.16407 0.46997 0.28176 0.0
C1347 C 0.18011 0.46759 0.29269 0.0
H1348 H 0.14905 0.05476 0.47257 0.0
H1349 H 0.11179 0.07856 0.5136 0.0
H1350 H 0.13705 0.10241 0.5236 0.0
H1351 H 0.19183 0.06253 0.50085 0.0
H1352 H 0.20652 0.06817 0.48131 0.0
H1353 H 0.18578 0.0524 0.47791 0.0
H1354 H 0.1737 0.0733 0.4531 0.0
H1355 H 0.19436 0.08916 0.45645 0.0
H1356 H 0.17139 0.09771 0.45912 0.0
H1357 H 0.16544 0.12497 0.52769 0.0
H1358 H 0.19578 0.14377 0.52683 0.0
H1359 H 0.21518 0.10505 0.48375 0.0
C1360 C 0.14625 0.06494 0.48372 0.0
C1361 C 0.12844 0.06473 0.49236 0.0
C1362 C 0.12538 0.07824 0.50697 0.0
C1363 C 0.13961 0.09193 0.51268 0.0
C1364 C 0.15691 0.09185 0.50376 0.0
C1365 C 0.16037 0.07863 0.48971 0.0
C1366 C 0.18017 0.08185 0.48229 0.0
C1367 C 0.19176 0.06525 0.48581 0.0
C1368 C 0.17988 0.08574 0.46151 0.0
C1369 C 0.18717 0.09915 0.49415 0.0
C1370 C 0.17349 0.10468 0.50641 0.0
C1371 C 0.17633 0.12067 0.51828 0.0
C1372 C 0.1936 0.1313 0.51764 0.0
C1373 C 0.20792 0.12586 0.5053 0.0
C1374 C 0.20461 0.10947 0.49349 0.0
H1375 H 0.73532 0.13375 0.7768 0.0
H1376 H 0.71493 0.15321 0.72508 0.0
H1377 H 0.68956 0.12791 0.72396 0.0
H1378 H 0.72651 0.0843 0.76397 0.0
H1379 H 0.71951 0.0784 0.78708 0.0
H1380 H 0.73604 0.09817 0.78396 0.0
H1381 H 0.71464 0.1196 0.80305 0.0
H1382 H 0.69803 0.09991 0.8062 0.0
H1383 H 0.69048 0.12042 0.79608 0.0
H1384 H 0.66613 0.10084 0.72856 0.0
H1385 H 0.64642 0.07356 0.73833 0.0
H1386 H 0.68251 0.07072 0.78654 0.0
C1387 C 0.72566 0.13261 0.76512 0.0
C1388 C 0.72715 0.14564 0.75107 0.0
C1389 C 0.71397 0.1437 0.7362 0.0
C1390 C 0.69956 0.12926 0.73535 0.0
C1391 C 0.69851 0.11674 0.74943 0.0
C1392 C 0.71123 0.1182 0.764 0.0
C1393 C 0.7069 0.10289 0.77734 0.0
C1394 C 0.72321 0.09019 0.77813 0.0
C1395 C 0.70224 0.11121 0.79682 0.0
C1396 C 0.68972 0.09263 0.76801 0.0
C1397 C 0.68513 0.1009 0.75194 0.0
C1398 C 0.66963 0.0942 0.74108 0.0
C1399 C 0.65849 0.07868 0.74679 0.0
C1400 C 0.66288 0.0699 0.7632 0.0
C1401 C 0.67881 0.077 0.77387 0.0
H1402 H 0.37151 0.07352 0.55362 0.0
H1403 H 0.37947 0.04054 0.50206 0.0
H1404 H 0.3546 0.05641 0.48717 0.0
H1405 H 0.32138 0.07444 0.55 0.0
H1406 H 0.32102 0.09823 0.55935 0.0
H1407 H 0.33933 0.08412 0.5662 0.0
H1408 H 0.36451 0.10908 0.55557 0.0
H1409 H 0.34629 0.12328 0.5487 0.0
H1410 H 0.36377 0.11649 0.53211 0.0
H1411 H 0.32893 0.07563 0.47773 0.0
H1412 H 0.30427 0.09727 0.47417 0.0
H1413 H 0.31325 0.11883 0.53141 0.0
C1414 C 0.36815 0.06971 0.53915 0.0
C1415 C 0.37746 0.0556 0.5291 0.0
C1416 C 0.37238 0.05098 0.51023 0.0
C1417 C 0.35833 0.06003 0.50158 0.0
C1418 C 0.34947 0.07379 0.51189 0.0
C1419 C 0.35418 0.07868 0.53024 0.0
C1420 C 0.34247 0.09405 0.53809 0.0
C1421 C 0.33033 0.0873 0.55437 0.0
C1422 C 0.35501 0.11178 0.54396 0.0
C1423 C 0.33047 0.09702 0.52126 0.0
C1424 C 0.33475 0.08513 0.50634 0.0
C1425 C 0.32548 0.08504 0.48931 0.0
C1426 C 0.31146 0.09741 0.48744 0.0
C1427 C 0.30679 0.10982 0.50249 0.0
C1428 C 0.31651 0.1096 0.51962 0.0
H1429 H 0.63564 0.5014 0.57909 0.0
H1430 H 0.63613 0.53205 0.52884 0.0
H1431 H 0.66256 0.51492 0.51693 0.0
H1432 H 0.68579 0.49891 0.58294 0.0
H1433 H 0.6841 0.47546 0.59066 0.0
H1434 H 0.66548 0.49049 0.59572 0.0
H1435 H 0.64143 0.46573 0.57985 0.0
H1436 H 0.65996 0.4506 0.57478 0.0
H1437 H 0.64533 0.45715 0.55622 0.0
H1438 H 0.6886 0.49452 0.51012 0.0
H1439 H 0.7123 0.47143 0.50838 0.0
H1440 H 0.69483 0.4528 0.56245 0.0
C1441 C 0.64121 0.50446 0.56554 0.0
C1442 C 0.63381 0.51831 0.55504 0.0
C1443 C 0.64172 0.52189 0.53741 0.0
C1444 C 0.65669 0.51211 0.53043 0.0
C1445 C 0.66364 0.49867 0.54114 0.0
C1446 C 0.65616 0.49474 0.55828 0.0
C1447 C 0.66613 0.47932 0.56675 0.0
C1448 C 0.67596 0.48648 0.58511 0.0
C1449 C 0.65239 0.46219 0.56956 0.0
C1450 C 0.68031 0.47516 0.55164 0.0
C1451 C 0.67863 0.48659 0.53706 0.0
C1452 C 0.69006 0.48549 0.52144 0.0
C1453 C 0.70351 0.47229 0.52061 0.0
C1454 C 0.70549 0.46024 0.53527 0.0
C1455 C 0.69372 0.46179 0.55103 0.0
H1456 H 0.72913 0.30412 0.42382 0.0
H1457 H 0.69221 0.33863 0.39559 0.0
H1458 H 0.69408 0.36149 0.42251 0.0
H1459 H 0.71065 0.31338 0.47074 0.0
H1460 H 0.73335 0.31398 0.48183 0.0
H1461 H 0.72863 0.29974 0.46063 0.0
H1462 H 0.75745 0.3165 0.44516 0.0
H1463 H 0.76225 0.33077 0.4663 0.0
H1464 H 0.75917 0.34161 0.44468 0.0
H1465 H 0.70054 0.38112 0.45161 0.0
H1466 H 0.71163 0.39686 0.48129 0.0
H1467 H 0.74443 0.35004 0.49157 0.0
C1468 C 0.7213 0.31639 0.42342 0.0
C1469 C 0.71063 0.31963 0.40749 0.0
C1470 C 0.70072 0.33597 0.40746 0.0
C1471 C 0.70157 0.34899 0.42276 0.0
C1472 C 0.71235 0.34551 0.43811 0.0
C1473 C 0.72204 0.32965 0.43864 0.0
C1474 C 0.73304 0.32974 0.45674 0.0
C1475 C 0.72599 0.31323 0.46816 0.0
C1476 C 0.75423 0.32965 0.45299 0.0
C1477 C 0.72817 0.34823 0.46612 0.0
C1478 C 0.71611 0.35698 0.45512 0.0
C1479 C 0.70991 0.37438 0.46041 0.0
C1480 C 0.71634 0.38323 0.47734 0.0
C1481 C 0.72891 0.37474 0.48887 0.0
C1482 C 0.73472 0.35687 0.48319 0.0
H1483 H 0.56 0.05074 0.90686 0.0
H1484 H 0.5048 0.04075 0.88121 0.0
H1485 H 0.51947 0.03149 0.85144 0.0
H1486 H 0.58324 0.07008 0.86833 0.0
H1487 H 0.60487 0.05928 0.87159 0.0
H1488 H 0.59011 0.06424 0.89125 0.0
H1489 H 0.58873 0.0295 0.89916 0.0
H1490 H 0.60355 0.02443 0.87952 0.0
H1491 H 0.58104 0.01156 0.88163 0.0
H1492 H 0.53987 0.02522 0.82409 0.0
H1493 H 0.5648 0.02161 0.80083 0.0
H1494 H 0.60711 0.0344 0.84403 0.0
C1495 C 0.55097 0.0463 0.89508 0.0
C1496 C 0.53119 0.04659 0.89642 0.0
C1497 C 0.51996 0.04095 0.88052 0.0
C1498 C 0.52816 0.03552 0.86356 0.0
C1499 C 0.54764 0.03564 0.86267 0.0
C1500 C 0.55894 0.04076 0.878 0.0
C1501 C 0.57957 0.04017 0.87305 0.0
C1502 C 0.59006 0.0596 0.87624 0.0
C1503 C 0.58876 0.02554 0.88399 0.0
C1504 C 0.57808 0.03422 0.85247 0.0
C1505 C 0.5595 0.03165 0.84684 0.0
C1506 C 0.55446 0.027 0.82836 0.0
C1507 C 0.56876 0.02504 0.81523 0.0
C1508 C 0.58794 0.02763 0.82058 0.0
C1509 C 0.5926 0.03207 0.83953 0.0
H1510 H 0.26611 0.26617 0.41145 0.0
H1511 H 0.29959 0.23583 0.37139 0.0
H1512 H 0.3011 0.21059 0.39298 0.0
H1513 H 0.28928 0.25315 0.453 0.0
H1514 H 0.26786 0.25094 0.46618 0.0
H1515 H 0.27016 0.26704 0.44794 0.0
H1516 H 0.24 0.25109 0.43207 0.0
H1517 H 0.2376 0.23496 0.45027 0.0
H1518 H 0.23851 0.22628 0.42629 0.0
H1519 H 0.29788 0.18794 0.41849 0.0
H1520 H 0.29027 0.16978 0.4459 0.0
H1521 H 0.25851 0.21469 0.46914 0.0
C1522 C 0.27373 0.25422 0.40715 0.0
C1523 C 0.2828 0.25311 0.38966 0.0
C1524 C 0.29279 0.23724 0.38478 0.0
C1525 C 0.29363 0.22274 0.39692 0.0
C1526 C 0.28444 0.22426 0.41396 0.0
C1527 C 0.2747 0.23961 0.41909 0.0
C1528 C 0.26568 0.23763 0.43801 0.0
C1529 C 0.27373 0.25311 0.45211 0.0
C1530 C 0.24417 0.23748 0.43656 0.0
C1531 C 0.27171 0.21868 0.44265 0.0
C1532 C 0.28257 0.21123 0.42862 0.0
C1533 C 0.28945 0.19369 0.4296 0.0
C1534 C 0.28503 0.18346 0.44525 0.0
C1535 C 0.27381 0.19076 0.45978 0.0
C1536 C 0.2672 0.2087 0.45839 0.0
H1537 H 0.47611 0.49958 0.87495 0.0
H1538 H 0.45488 0.53412 0.92048 0.0
H1539 H 0.43345 0.54734 0.89873 0.0
H1540 H 0.47477 0.53424 0.84017 0.0
H1541 H 0.46768 0.51728 0.82154 0.0
H1542 H 0.48158 0.51064 0.84062 0.0
H1543 H 0.45642 0.48386 0.8469 0.0
H1544 H 0.44247 0.4904 0.82784 0.0
H1545 H 0.43241 0.48915 0.85073 0.0
H1546 H 0.41308 0.55554 0.8725 0.0
H1547 H 0.39623 0.55935 0.84317 0.0
H1548 H 0.43149 0.52069 0.81412 0.0
C1549 C 0.46695 0.50994 0.88031 0.0
C1550 C 0.4672 0.51586 0.89943 0.0
C1551 C 0.45509 0.52954 0.90588 0.0
C1552 C 0.4428 0.53707 0.89364 0.0
C1553 C 0.44289 0.53094 0.87491 0.0
C1554 C 0.45474 0.51781 0.86821 0.0
C1555 C 0.45203 0.51372 0.8474 0.0
C1556 C 0.47009 0.51931 0.83681 0.0
C1557 C 0.44544 0.49305 0.84297 0.0
C1558 C 0.43664 0.52641 0.84353 0.0
C1559 C 0.43153 0.53615 0.85962 0.0
C1560 C 0.41709 0.54813 0.85977 0.0
C1561 C 0.40756 0.55018 0.84304 0.0
C1562 C 0.41262 0.54046 0.82631 0.0
C1563 C 0.42748 0.52854 0.82661 0.0
H1564 H 0.713 0.75628 0.12785 0.0
H1565 H 0.76206 0.74764 0.16092 0.0
H1566 H 0.77442 0.72857 0.13466 0.0
H1567 H 0.70748 0.71047 0.10553 0.0
H1568 H 0.70037 0.71831 0.08347 0.0
H1569 H 0.69571 0.73169 0.10468 0.0
H1570 H 0.71336 0.76099 0.09177 0.0
H1571 H 0.71807 0.74768 0.07051 0.0
H1572 H 0.73718 0.7598 0.08379 0.0
H1573 H 0.78075 0.70917 0.10507 0.0
H1574 H 0.78093 0.69194 0.07426 0.0
H1575 H 0.72801 0.7138 0.06049 0.0
C1576 C 0.72633 0.75035 0.12959 0.0
C1577 C 0.73656 0.75348 0.14647 0.0
C1578 C 0.75406 0.74563 0.14807 0.0
C1579 C 0.76116 0.7347 0.13326 0.0
C1580 C 0.75067 0.73182 0.11685 0.0
C1581 C 0.73368 0.73952 0.1149 0.0
C1582 C 0.72512 0.73427 0.09586 0.0
C1583 C 0.70605 0.72301 0.09749 0.0
C1584 C 0.72334 0.75173 0.08483 0.0
C1585 C 0.73983 0.72223 0.08747 0.0
C1586 C 0.75446 0.72097 0.09978 0.0
C1587 C 0.76942 0.71018 0.09527 0.0
C1588 C 0.7694 0.70042 0.07775 0.0
C1589 C 0.75456 0.70158 0.0649 0.0
C1590 C 0.73967 0.71274 0.0699 0.0
H1591 H 0.97291 0.09251 0.15635 0.0
H1592 H 1.00414 0.04321 0.1479 0.0
H1593 H 0.98841 0.02971 0.17493 0.0
H1594 H 0.97277 0.09428 0.2067 0.0
H1595 H 0.94914 0.10133 0.20868 0.0
H1596 H 0.9633 0.10765 0.18899 0.0
H1597 H 0.93757 0.09196 0.16657 0.0
H1598 H 0.92331 0.08564 0.18619 0.0
H1599 H 0.92939 0.06788 0.16899 0.0
H1600 H 0.96918 0.02112 0.20235 0.0
H1601 H 0.94699 0.01757 0.22824 0.0
H1602 H 0.92711 0.07186 0.21895 0.0
C1603 C 0.9764 0.07884 0.16011 0.0
C1604 C 0.98999 0.06906 0.15 0.0
C1605 C 0.99416 0.05124 0.15557 0.0
C1606 C 0.98518 0.04336 0.17087 0.0
C1607 C 0.97196 0.05337 0.1805 0.0
C1608 C 0.96749 0.07069 0.17536 0.0
C1609 C 0.95242 0.07827 0.18796 0.0
C1610 C 0.95986 0.09646 0.19872 0.0
C1611 C 0.93462 0.0811 0.17676 0.0
C1612 C 0.94906 0.06242 0.20089 0.0
C1613 C 0.96058 0.04828 0.19633 0.0
C1614 C 0.96009 0.03211 0.20607 0.0
C1615 C 0.9474 0.03024 0.22079 0.0
C1616 C 0.93526 0.04442 0.22569 0.0
C1617 C 0.93621 0.06079 0.2156 0.0
H1618 H 0.28243 0.798 0.14056 0.0
H1619 H 0.24347 0.82049 0.18064 0.0
H1620 H 0.23755 0.84539 0.15965 0.0
H1621 H 0.30197 0.84251 0.12523 0.0
H1622 H 0.30396 0.83391 0.10133 0.0
H1623 H 0.3055 0.81824 0.11979 0.0
H1624 H 0.27841 0.79641 0.10465 0.0
H1625 H 0.27677 0.81202 0.08617 0.0
H1626 H 0.25633 0.80575 0.09981 0.0
H1627 H 0.2348 0.86713 0.13342 0.0
H1628 H 0.23644 0.8845 0.10471 0.0
H1629 H 0.27743 0.8479 0.08207 0.0
C1630 C 0.27264 0.80814 0.14494 0.0
C1631 C 0.26344 0.80726 0.16231 0.0
C1632 C 0.25089 0.82098 0.16754 0.0
C1633 C 0.24734 0.83513 0.15565 0.0
C1634 C 0.25653 0.83548 0.13858 0.0
C1635 C 0.26902 0.82241 0.13329 0.0
C1636 C 0.27699 0.8258 0.11417 0.0
C1637 C 0.29837 0.83039 0.1152 0.0
C1638 C 0.27181 0.809 0.10039 0.0
C1639 C 0.2669 0.8427 0.10943 0.0
C1640 C 0.25514 0.84808 0.12366 0.0
C1641 C 0.24406 0.8631 0.12224 0.0
C1642 C 0.24506 0.87287 0.10587 0.0
C1643 C 0.2571 0.86764 0.09115 0.0
C1644 C 0.26816 0.85236 0.09309 0.0
H1645 H 0.01631 0.5097 0.15937 0.0
H1646 H 0.032 0.45367 0.14421 0.0
H1647 H 0.05367 0.45565 0.17105 0.0
H1648 H 0.06242 0.5288 0.17355 0.0
H1649 H 0.05415 0.54338 0.19257 0.0
H1650 H 0.0394 0.53737 0.17247 0.0
H1651 H 0.013 0.52396 0.19366 0.0
H1652 H 0.02767 0.52991 0.21384 0.0
H1653 H 0.01795 0.5062 0.20922 0.0
H1654 H 0.0744 0.46397 0.19912 0.0
H1655 H 0.09233 0.47803 0.22654 0.0
H1656 H 0.06333 0.52864 0.2234 0.0
C1657 C 0.02433 0.49786 0.16165 0.0
C1658 C 0.02228 0.48146 0.14968 0.0
C1659 C 0.03299 0.46625 0.15332 0.0
C1660 C 0.04546 0.46728 0.16848 0.0
C1661 C 0.04713 0.48361 0.17996 0.0
C1662 C 0.03685 0.49863 0.17676 0.0
C1663 C 0.04142 0.51462 0.19114 0.0
C1664 C 0.04985 0.53207 0.18187 0.0
C1665 C 0.02397 0.51892 0.20265 0.0
C1666 C 0.05594 0.50628 0.20285 0.0
C1667 C 0.05904 0.48838 0.19617 0.0
C1668 C 0.07204 0.47796 0.20452 0.0
C1669 C 0.08218 0.48607 0.22009 0.0
C1670 C 0.07923 0.50441 0.22719 0.0
C1671 C 0.06587 0.51455 0.2184 0.0
H1672 H 0.37894 0.74432 0.31676 0.0
H1673 H 0.40818 0.75887 0.26615 0.0
H1674 H 0.43806 0.76323 0.2835 0.0
H1675 H 0.40505 0.77756 0.34733 0.0
H1676 H 0.4056 0.76249 0.36643 0.0
H1677 H 0.38648 0.75945 0.34992 0.0
H1678 H 0.39329 0.72483 0.34328 0.0
H1679 H 0.41246 0.72777 0.35977 0.0
H1680 H 0.4165 0.71924 0.33616 0.0
H1681 H 0.46429 0.76819 0.30629 0.0
H1682 H 0.48577 0.77259 0.33325 0.0
H1683 H 0.44039 0.75413 0.36952 0.0
C1684 C 0.39166 0.74834 0.30934 0.0
C1685 C 0.3912 0.75108 0.29001 0.0
C1686 C 0.40817 0.75632 0.28083 0.0
C1687 C 0.42523 0.75894 0.29059 0.0
C1688 C 0.4252 0.75618 0.30957 0.0
C1689 C 0.40892 0.7509 0.31888 0.0
C1690 C 0.41287 0.74926 0.33945 0.0
C1691 C 0.40185 0.76301 0.35149 0.0
C1692 C 0.40852 0.72907 0.34499 0.0
C1693 C 0.43383 0.75478 0.34025 0.0
C1694 C 0.44058 0.7587 0.3228 0.0
C1695 C 0.45923 0.76498 0.31999 0.0
C1696 C 0.47131 0.76748 0.33541 0.0
C1697 C 0.46481 0.76359 0.35347 0.0
C1698 C 0.44583 0.75693 0.35585 0.0
H1699 H 0.95802 0.387 0.99286 0.0
H1700 H 0.99491 0.42951 0.96826 0.0
H1701 H 0.00823 0.40523 0.94774 0.0
H1702 H 0.99131 0.35071 0.99166 0.0
H1703 H 0.97358 0.33206 0.98583 0.0
H1704 H 0.96745 0.35265 0.99925 0.0
H1705 H 0.94172 0.35762 0.97504 0.0
H1706 H 0.94778 0.33707 0.96155 0.0
H1707 H 0.94801 0.35914 0.95089 0.0
H1708 H 0.01689 0.37674 0.92923 0.0
H1709 H 0.0201 0.34584 0.91345 0.0
H1710 H 0.97765 0.32129 0.94976 0.0
C1711 C 0.96907 0.39114 0.98332 0.0
C1712 C 0.97538 0.41019 0.98214 0.0
C1713 C 0.98968 0.41506 0.96927 0.0
C1714 C 0.99743 0.40135 0.95763 0.0
C1715 C 0.99076 0.38277 0.95899 0.0
C1716 C 0.97691 0.3776 0.97148 0.0
C1717 C 0.97184 0.35666 0.96959 0.0
C1718 C 0.97632 0.34748 0.98766 0.0
C1719 C 0.95111 0.35238 0.96393 0.0
C1720 C 0.98488 0.35093 0.95398 0.0
C1721 C 0.99573 0.36623 0.94818 0.0
C1722 C 0.00854 0.36464 0.9337 0.0
C1723 C 0.01023 0.34697 0.9248 0.0
C1724 C 0.99916 0.33103 0.93032 0.0
C1725 C 0.98641 0.33312 0.94524 0.0
H1726 H 0.6187 0.83209 0.30224 0.0
H1727 H 0.65164 0.78575 0.31352 0.0
H1728 H 0.62755 0.77462 0.33577 0.0
H1729 H 0.603 0.84111 0.34912 0.0
H1730 H 0.57996 0.84674 0.34217 0.0
H1731 H 0.59967 0.85086 0.32696 0.0
H1732 H 0.58212 0.83057 0.30047 0.0
H1733 H 0.56233 0.82646 0.31557 0.0
H1734 H 0.57336 0.80698 0.30455 0.0
H1735 H 0.59978 0.76879 0.35726 0.0
H1736 H 0.57019 0.76816 0.37516 0.0
H1737 H 0.55584 0.81857 0.34995 0.0
C1738 C 0.62094 0.81966 0.30946 0.0
C1739 C 0.63712 0.80981 0.30609 0.0
C1740 C 0.63929 0.79342 0.31566 0.0
C1741 C 0.62573 0.78707 0.32844 0.0
C1742 C 0.61005 0.79721 0.33152 0.0
C1743 C 0.60756 0.81312 0.32223 0.0
C1744 C 0.5894 0.82141 0.32789 0.0
C1745 C 0.59324 0.8412 0.33708 0.0
C1746 C 0.57601 0.82134 0.31112 0.0
C1747 C 0.58205 0.80772 0.34185 0.0
C1748 C 0.59415 0.79387 0.3438 0.0
C1749 C 0.59022 0.77959 0.35584 0.0
C1750 C 0.57339 0.77937 0.36599 0.0
C1751 C 0.56069 0.79333 0.36403 0.0
C1752 C 0.56525 0.80772 0.35186 0.0
H1753 H 0.0195 0.16862 0.99756 0.0
H1754 H 0.07502 0.16339 0.97419 0.0
H1755 H 0.06971 0.18808 0.95294 0.0
H1756 H 0.99643 0.17603 0.95414 0.0
H1757 H 0.98128 0.19265 0.96447 0.0
H1758 H 0.98947 0.17468 0.97812 0.0
H1759 H 1.0031 0.1999 1.00272 0.0
H1760 H 0.99496 0.21795 0.98914 0.0
H1761 H 0.01941 0.21848 0.99556 0.0
H1762 H 0.05851 0.21338 0.93407 0.0
H1763 H 0.04209 0.23743 0.91892 0.0
H1764 H 0.99354 0.22604 0.9539 0.0
C1765 C 0.0305 0.17256 0.9879 0.0
C1766 C 0.04777 0.16408 0.98775 0.0
C1767 C 0.06182 0.16986 0.97493 0.0
C1768 C 0.05889 0.18381 0.96266 0.0
C1769 C 0.0418 0.19191 0.96324 0.0
C1770 C 0.02781 0.1865 0.9755 0.0
C1771 C 0.01071 0.19749 0.97323 0.0
C1772 C 0.99345 0.18443 0.96712 0.0
C1773 C 0.00682 0.20915 0.99123 0.0
C1774 C 0.01729 0.20989 0.95779 0.0
C1775 C 0.03527 0.20643 0.95225 0.0
C1776 C 0.04441 0.21619 0.93828 0.0
C1777 C 0.03495 0.22985 0.92975 0.0
C1778 C 0.0165 0.23366 0.93516 0.0
C1779 C 0.00761 0.22347 0.94939 0.0
H1780 H 0.3976 0.28831 0.24946 0.0
H1781 H 0.3735 0.33641 0.22804 0.0
H1782 H 0.39727 0.33723 0.20317 0.0
H1783 H 0.44607 0.30403 0.24136 0.0
H1784 H 0.45288 0.28089 0.23499 0.0
H1785 H 0.4338 0.28397 0.25096 0.0
H1786 H 0.41187 0.2615 0.2297 0.0
H1787 H 0.43086 0.25839 0.21365 0.0
H1788 H 0.40908 0.26624 0.20558 0.0
H1789 H 0.42365 0.33264 0.18037 0.0
H1790 H 0.45078 0.32329 0.16176 0.0
H1791 H 0.45825 0.27883 0.19872 0.0
C1792 C 0.3974 0.29917 0.2397 0.0
C1793 C 0.38354 0.31227 0.24077 0.0
C1794 C 0.38371 0.32602 0.22742 0.0
C1795 C 0.39725 0.32669 0.21329 0.0
C1796 C 0.41064 0.31356 0.21267 0.0
C1797 C 0.41086 0.3001 0.22556 0.0
C1798 C 0.42678 0.28762 0.22183 0.0
C1799 C 0.44071 0.28923 0.23826 0.0
C1800 C 0.41919 0.26723 0.21743 0.0
C1801 C 0.43549 0.29615 0.2048 0.0
C1802 C 0.42595 0.31107 0.19971 0.0
C1803 C 0.43125 0.32101 0.18427 0.0
C1804 C 0.44669 0.31557 0.17376 0.0
C1805 C 0.45675 0.30034 0.17874 0.0
C1806 C 0.45098 0.29059 0.19454 0.0
H1807 H 0.51335 0.40135 0.04196 0.0
H1808 H 0.5668 0.42341 0.06608 0.0
H1809 H 0.56493 0.3986 0.08838 0.0
H1810 H 0.49151 0.38919 0.08479 0.0
H1811 H 0.4791 0.36805 0.07507 0.0
H1812 H 0.48485 0.38719 0.06054 0.0
H1813 H 0.5021 0.36528 0.03764 0.0
H1814 H 0.49636 0.34604 0.05208 0.0
H1815 H 0.52049 0.3522 0.04624 0.0
H1816 H 0.55721 0.3716 0.10836 0.0
H1817 H 0.54392 0.34441 0.12477 0.0
H1818 H 0.49533 0.33992 0.08802 0.0
C1819 C 0.52473 0.40083 0.05182 0.0
C1820 C 0.54018 0.41441 0.05232 0.0
C1821 C 0.5547 0.41335 0.06559 0.0
C1822 C 0.55382 0.39924 0.07826 0.0
C1823 C 0.53832 0.38622 0.07755 0.0
C1824 C 0.52402 0.38686 0.06469 0.0
C1825 C 0.50874 0.37136 0.06721 0.0
C1826 C 0.48994 0.37944 0.0722 0.0
C1827 C 0.50682 0.35793 0.04975 0.0
C1828 C 0.51667 0.362 0.08352 0.0
C1829 C 0.53378 0.37074 0.08921 0.0
C1830 C 0.54381 0.36462 0.10402 0.0
C1831 C 0.53615 0.34917 0.11327 0.0
C1832 C 0.51857 0.34003 0.10775 0.0
C1833 C 0.50877 0.3466 0.09264 0.0
H1834 H 0.6301 0.26307 0.23304 0.0
H1835 H 0.60276 0.22666 0.2725 0.0
H1836 H 0.57243 0.22862 0.25662 0.0
H1837 H 0.59154 0.29299 0.22908 0.0
H1838 H 0.59501 0.29575 0.20456 0.0
H1839 H 0.61464 0.29184 0.21919 0.0
H1840 H 0.62183 0.26315 0.19763 0.0
H1841 H 0.60221 0.26696 0.18295 0.0
H1842 H 0.60367 0.24465 0.19281 0.0
H1843 H 0.54544 0.23315 0.23585 0.0
H1844 H 0.52292 0.2412 0.21226 0.0
H1845 H 0.56702 0.27554 0.18636 0.0
C1846 C 0.61772 0.25553 0.23833 0.0
C1847 C 0.61882 0.24476 0.2541 0.0
C1848 C 0.60225 0.23521 0.26064 0.0
C1849 C 0.58496 0.23615 0.25165 0.0
C1850 C 0.58437 0.24681 0.23616 0.0
C1851 C 0.60024 0.25646 0.2296 0.0
C1852 C 0.5956 0.26693 0.21266 0.0
C1853 C 0.59942 0.28814 0.21661 0.0
C1854 C 0.60647 0.26 0.1955 0.0
C1855 C 0.57469 0.26144 0.21062 0.0
C1856 C 0.56858 0.24978 0.22432 0.0
C1857 C 0.55003 0.24238 0.22513 0.0
C1858 C 0.53734 0.24701 0.21161 0.0
C1859 C 0.54315 0.25906 0.19747 0.0
C1860 C 0.56211 0.26642 0.19706 0.0
H1861 H 0.4863 0.14981 0.07959 0.0
H1862 H 0.48251 0.17174 0.02491 0.0
H1863 H 0.48855 0.20379 0.03896 0.0
H1864 H 0.46252 0.18527 0.10402 0.0
H1865 H 0.47705 0.18612 0.12459 0.0
H1866 H 0.47365 0.1648 0.11014 0.0
H1867 H 0.50967 0.16396 0.10652 0.0
H1868 H 0.5132 0.18527 0.121 0.0
H1869 H 0.52319 0.18388 0.09801 0.0
H1870 H 0.49305 0.23354 0.05908 0.0
H1871 H 0.49668 0.25889 0.08373 0.0
H1872 H 0.49757 0.21777 0.12547 0.0
C1873 C 0.48679 0.16134 0.07054 0.0
C1874 C 0.484 0.15819 0.05109 0.0
C1875 C 0.48491 0.17371 0.03978 0.0
C1876 C 0.48822 0.192 0.04765 0.0
C1877 C 0.49068 0.19459 0.06686 0.0
C1878 C 0.49012 0.1797 0.07816 0.0
C1879 C 0.49277 0.18636 0.09846 0.0
C1880 C 0.47547 0.18027 0.10998 0.0
C1881 C 0.51078 0.17946 0.10646 0.0
C1882 C 0.49462 0.20734 0.09683 0.0
C1883 C 0.49341 0.21178 0.07848 0.0
C1884 C 0.49416 0.23024 0.07349 0.0
C1885 C 0.49618 0.24455 0.08763 0.0
C1886 C 0.49747 0.24039 0.10659 0.0
C1887 C 0.49677 0.22147 0.11114 0.0
H1888 H 0.28333 0.42836 0.75483 0.0
H1889 H 0.31283 0.40799 0.70591 0.0
H1890 H 0.3351 0.43593 0.70866 0.0
H1891 H 0.28885 0.47792 0.74494 0.0
H1892 H 0.29221 0.48576 0.76905 0.0
H1893 H 0.27801 0.46445 0.76293 0.0
H1894 H 0.29875 0.44635 0.78397 0.0
H1895 H 0.31302 0.46757 0.79012 0.0
H1896 H 0.32377 0.44738 0.7803 0.0
H1897 H 0.35504 0.46507 0.7173 0.0
H1898 H 0.37131 0.49406 0.73114 0.0
H1899 H 0.32883 0.49643 0.77421 0.0
C1900 C 0.29434 0.42991 0.74458 0.0
C1901 C 0.29641 0.41586 0.73024 0.0
C1902 C 0.31113 0.41836 0.71721 0.0
C1903 C 0.32379 0.43426 0.71856 0.0
C1904 C 0.32154 0.44767 0.73297 0.0
C1905 C 0.30716 0.44576 0.74572 0.0
C1906 C 0.30829 0.46211 0.76014 0.0
C1907 C 0.2908 0.47322 0.7592 0.0
C1908 C 0.31113 0.45545 0.77979 0.0
C1909 C 0.32567 0.47334 0.7536 0.0
C1910 C 0.33302 0.46474 0.73787 0.0
C1911 C 0.34936 0.47202 0.72955 0.0
C1912 C 0.35853 0.4885 0.73756 0.0
C1913 C 0.35136 0.49761 0.75375 0.0
C1914 C 0.33459 0.48993 0.76174 0.0
H1915 H 0.29271 0.66806 0.79939 0.0
H1916 H 0.24886 0.64052 0.83201 0.0
H1917 H 0.26475 0.61131 0.82887 0.0
H1918 H 0.29963 0.62744 0.76722 0.0
H1919 H 0.3247 0.63254 0.76606 0.0
H1920 H 0.30954 0.65126 0.77014 0.0
H1921 H 0.32817 0.66224 0.80021 0.0
H1922 H 0.34331 0.64351 0.79628 0.0
H1923 H 0.33086 0.64597 0.81795 0.0
H1924 H 0.28583 0.58569 0.82388 0.0
H1925 H 0.31044 0.56443 0.81622 0.0
H1926 H 0.34083 0.60757 0.78593 0.0
C1927 C 0.28631 0.65579 0.80561 0.0
C1928 C 0.26957 0.65667 0.81609 0.0
C1929 C 0.2618 0.64033 0.82419 0.0
C1930 C 0.27067 0.62362 0.8224 0.0
C1931 C 0.28729 0.62332 0.81234 0.0
C1932 C 0.29502 0.63888 0.80394 0.0
C1933 C 0.31329 0.63472 0.79426 0.0
C1934 C 0.31169 0.6366 0.77317 0.0
C1935 C 0.32989 0.64736 0.80268 0.0
C1936 C 0.31468 0.61447 0.79875 0.0
C1937 C 0.29947 0.60826 0.80919 0.0
C1938 C 0.29773 0.59033 0.81558 0.0
C1939 C 0.31186 0.57836 0.81119 0.0
C1940 C 0.32759 0.58425 0.80042 0.0
C1941 C 0.32893 0.60258 0.79406 0.0
H1942 H 0.86141 0.50093 0.50011 0.0
H1943 H 0.90356 0.46861 0.52349 0.0
H1944 H 0.87853 0.44721 0.53579 0.0
H1945 H 0.82726 0.49577 0.53811 0.0
H1946 H 0.80733 0.49387 0.52254 0.0
H1947 H 0.82855 0.50739 0.51658 0.0
H1948 H 0.83002 0.48773 0.48533 0.0
H1949 H 0.80886 0.47413 0.4912 0.0
H1950 H 0.82986 0.46266 0.4855 0.0
H1951 H 0.84912 0.42821 0.54389 0.0
H1952 H 0.81728 0.41301 0.54748 0.0
H1953 H 0.79396 0.4578 0.5193 0.0
C1954 C 0.86536 0.48955 0.50811 0.0
C1955 C 0.88448 0.48643 0.51079 0.0
C1956 C 0.88904 0.47117 0.52106 0.0
C1957 C 0.87491 0.459 0.52821 0.0
C1958 C 0.85624 0.46228 0.52506 0.0
C1959 C 0.85141 0.47722 0.51533 0.0
C1960 C 0.83026 0.47709 0.51324 0.0
C1961 C 0.82292 0.49457 0.52322 0.0
C1962 C 0.82441 0.47529 0.49259 0.0
C1963 C 0.82399 0.4596 0.52305 0.0
C1964 C 0.83922 0.45133 0.52985 0.0
C1965 C 0.83707 0.43464 0.53878 0.0
C1966 C 0.8189 0.42608 0.54071 0.0
C1967 C 0.80305 0.4342 0.53375 0.0
C1968 C 0.80572 0.4513 0.52497 0.0
H1969 H 0.73467 0.92346 0.81363 0.0
H1970 H 0.70903 0.88375 0.77152 0.0
H1971 H 0.6847 0.90541 0.76598 0.0
H1972 H 0.69116 0.9399 0.83211 0.0
H1973 H 0.70081 0.96373 0.83595 0.0
H1974 H 0.71586 0.94484 0.83701 0.0
H1975 H 0.73747 0.95957 0.81204 0.0
H1976 H 0.72248 0.97848 0.81088 0.0
H1977 H 0.72755 0.96465 0.79004 0.0
H1978 H 0.66392 0.93212 0.76394 0.0
H1979 H 0.64767 0.96129 0.76647 0.0
H1980 H 0.68658 0.98348 0.81013 0.0
C1981 C 0.72394 0.9193 0.80325 0.0
C1982 C 0.72377 0.90182 0.79306 0.0
C1983 C 0.70934 0.89691 0.77971 0.0
C1984 C 0.6955 0.90918 0.77638 0.0
C1985 C 0.69617 0.92633 0.78656 0.0
C1986 C 0.70994 0.93135 0.79981 0.0
C1987 C 0.70755 0.95066 0.80876 0.0
C1988 C 0.70361 0.94971 0.8297 0.0
C1989 C 0.72479 0.96413 0.80521 0.0
C1990 C 0.69041 0.9558 0.79831 0.0
C1991 C 0.68407 0.94158 0.78556 0.0
C1992 C 0.6687 0.94329 0.77398 0.0
C1993 C 0.65957 0.95994 0.77549 0.0
C1994 C 0.66577 0.97468 0.78853 0.0
C1995 C 0.68139 0.97245 0.8001 0.0
H1996 H 0.65077 0.55722 0.9705 0.0
H1997 H 0.61455 0.57812 0.01408 0.0
H1998 H 0.64025 0.60089 0.02541 0.0
H1999 H 0.69388 0.56185 0.99833 0.0
H2000 H 0.7085 0.56895 0.9792 0.0
H2001 H 0.68745 0.55382 0.9748 0.0
H2002 H 0.6756 0.57719 0.95228 0.0
H2003 H 0.69657 0.59239 0.95663 0.0
H2004 H 0.67384 0.60119 0.96043 0.0
H2005 H 0.66893 0.62264 0.03082 0.0
H2006 H 0.69955 0.641 0.03113 0.0
H2007 H 0.71795 0.60557 0.98478 0.0
C2008 C 0.6483 0.56656 0.98246 0.0
C2009 C 0.63067 0.56584 0.99146 0.0
C2010 C 0.62801 0.57823 0.00713 0.0
C2011 C 0.64249 0.59128 0.01361 0.0
C2012 C 0.65963 0.5917 0.00438 0.0
C2013 C 0.6627 0.57958 0.98926 0.0
C2014 C 0.68247 0.58309 0.98184 0.0
C2015 C 0.69374 0.5659 0.98366 0.0
C2016 C 0.68209 0.5888 0.9616 0.0
C2017 C 0.68991 0.59926 0.99499 0.0
C2018 C 0.67645 0.60401 0.00784 0.0
C2019 C 0.67966 0.61894 0.02096 0.0
C2020 C 0.69709 0.62933 0.02097 0.0
C2021 C 0.71121 0.62468 0.00806 0.0
C2022 C 0.70754 0.60933 0.99498 0.0
H2023 H 0.23297 0.62742 0.26969 0.0
H2024 H 0.20464 0.65462 0.22659 0.0
H2025 H 0.17841 0.63024 0.22686 0.0
H2026 H 0.21969 0.57996 0.25194 0.0
H2027 H 0.21679 0.57115 0.27478 0.0
H2028 H 0.23333 0.59083 0.27129 0.0
H2029 H 0.21695 0.61039 0.29699 0.0
H2030 H 0.20034 0.59079 0.30053 0.0
H2031 H 0.1921 0.61293 0.29518 0.0
H2032 H 0.15497 0.60321 0.23215 0.0
H2033 H 0.13621 0.57518 0.24167 0.0
H2034 H 0.18024 0.56477 0.28052 0.0
C2035 C 0.22138 0.62818 0.26013 0.0
C2036 C 0.22092 0.64309 0.24816 0.0
C2037 C 0.20526 0.64359 0.23612 0.0
C2038 C 0.19032 0.62971 0.23607 0.0
C2039 C 0.19124 0.61529 0.24806 0.0
C2040 C 0.20639 0.61437 0.25982 0.0
C2041 C 0.20387 0.59739 0.27136 0.0
C2042 C 0.21934 0.58404 0.26708 0.0
C2043 C 0.20328 0.60323 0.29225 0.0
C2044 C 0.18489 0.58895 0.26431 0.0
C2045 C 0.17785 0.59952 0.2509 0.0
C2046 C 0.16038 0.59477 0.24258 0.0
C2047 C 0.14981 0.57881 0.24813 0.0
C2048 C 0.15672 0.56768 0.26182 0.0
C2049 C 0.17457 0.57286 0.26993 0.0
H2050 H 0.87196 0.55523 0.02702 0.0
H2051 H 0.88314 0.58112 0.08238 0.0
H2052 H 0.85921 0.60327 0.07746 0.0
H2053 H 0.86446 0.59738 0.00468 0.0
H2054 H 0.84572 0.58685 0.98984 0.0
H2055 H 0.86368 0.57284 0.99765 0.0
H2056 H 0.83826 0.55001 0.01142 0.0
H2057 H 0.82021 0.56393 1.0036 0.0
H2058 H 0.82158 0.55896 0.02779 0.0
H2059 H 0.83416 0.62283 0.06663 0.0
H2060 H 0.8095 0.6382 0.05064 0.0
H2061 H 0.81412 0.59961 1.0024 0.0
C2062 C 0.86928 0.56546 0.03817 0.0
C2063 C 0.87963 0.56648 0.05505 0.0
C2064 C 0.87572 0.58022 0.06919 0.0
C2065 C 0.86204 0.59282 0.06659 0.0
C2066 C 0.85226 0.59156 0.04976 0.0
C2067 C 0.85564 0.57821 0.03579 0.0
C2068 C 0.84315 0.57996 0.01901 0.0
C2069 C 0.85496 0.58453 1.00178 0.0
C2070 C 0.83002 0.56216 0.01524 0.0
C2071 C 0.83227 0.59638 0.02574 0.0
C2072 C 0.83774 0.60284 0.04352 0.0
C2073 C 0.82974 0.61789 0.0527 0.0
C2074 C 0.81574 0.62654 0.04349 0.0
C2075 C 0.80983 0.62017 0.02526 0.0
C2076 C 0.8183 0.60487 0.01632 0.0
H2077 H 0.14081 0.01327 0.0357 0.0
H2078 H 0.12223 0.99438 0.08928 0.0
H2079 H 0.14675 0.97202 0.08846 0.0
H2080 H 0.15079 0.96831 0.01569 0.0
H2081 H 0.17131 0.97682 1.00328 0.0
H2082 H 0.15269 0.99187 0.00825 0.0
H2083 H 0.17643 0.01653 0.02477 0.0
H2084 H 0.19514 1.00156 0.01979 0.0
H2085 H 0.19084 0.0098 0.04344 0.0
H2086 H 0.17294 0.95134 0.08179 0.0
H2087 H 0.19897 0.93359 0.06954 0.0
H2088 H 0.20068 0.96547 0.02012 0.0
C2089 C 0.14204 0.00455 0.04732 0.0
C2090 C 0.12949 0.00553 0.06251 0.0
C2091 C 0.13147 0.99372 0.07737 0.0
C2092 C 0.14544 0.98103 0.07709 0.0
C2093 C 0.1574 0.98023 0.06184 0.0
C2094 C 0.15588 0.99166 0.04722 0.0
C2095 C 0.17032 0.98763 0.03233 0.0
C2096 C 0.1607 0.98075 0.01379 0.0
C2097 C 0.18399 0.00491 0.02995 0.0
C2098 C 0.1801 0.97214 0.04086 0.0
C2099 C 0.17246 0.96816 0.05793 0.0
C2100 C 0.17906 0.95435 0.06845 0.0
C2101 C 0.19386 0.94432 0.06136 0.0
C2102 C 0.2019 0.94807 0.04386 0.0
C2103 C 0.19486 0.96222 0.03354 0.0
loop_
_geom_bond_atom_site_label_1
_geom_bond_atom_site_label_2
_geom_bond_distance
_geom_bond_site_symmetry_2
_ccdc_geom_bond_type
C0 C1 1.264 . S
C0 C5 1.479 . S
C0 C10 1.465 . S
C1 C0 1.264 . S
C1 C3 1.339 . S
C1 H28 0.931 . S
C2 C3 1.395 . S
C2 C4 1.320 . S
C3 C1 1.339 . S
C3 C2 1.395 . S
C3 H29 0.929 . S
C4 C2 1.320 . S
C4 C5 1.405 . S
C4 H30 0.930 . S
C5 C0 1.479 . S
C5 C4 1.405 . S
C5 H31 0.931 . S
U6 O7 2.454 . S
U6 O8 2.458 . S
U6 C9 2.984 . S
U6 C10 2.847 . S
U6 C23 2.882 . S
U6 O24 2.441 . S
U6 O25 2.420 . S
U6 O26 2.455 . S
U6 O27 2.449 . S
O7 U6 2.454 . S
O7 C9 1.353 . S
O8 U6 2.458 . S
O8 C9 1.286 . S
C9 U6 2.984 . S
C9 O7 1.353 . S
C9 O8 1.286 . S
C9 C11 1.363 . S
C10 C0 1.465 . S
C10 U6 2.847 . S
C10 O24 1.249 . S
C10 O25 1.202 . S
C11 C9 1.363 . S
C11 C13 1.408 . S
C11 C16 1.342 . S
C12 C13 1.310 . S
C12 C15 1.461 . S
C12 H32 0.932 . S
C13 C11 1.408 . S
C13 C12 1.310 . S
C13 H33 0.930 . S
C14 C15 1.474 . S
C14 C16 1.285 . S
C14 H34 0.929 . S
C15 C12 1.461 . S
C15 C14 1.474 . S
C16 C11 1.342 . S
C16 C14 1.285 . S
C16 H35 0.930 . S
C17 C20 1.424 . S
C17 C22 1.245 . S
C17 C23 1.428 . S
C18 C21 1.260 . S
C18 C22 1.477 . S
C18 H36 0.932 . S
C19 C20 1.384 . S
C19 C21 1.479 . S
C19 H37 0.929 . S
C20 C17 1.424 . S
C20 C19 1.384 . S
C20 H38 0.928 . S
C21 C18 1.260 . S
C21 C19 1.479 . S
C22 C17 1.245 . S
C22 C18 1.477 . S
C22 H39 0.932 . S
C23 U6 2.882 . S
C23 C17 1.428 . S
C23 O26 1.301 . S
C23 O27 1.282 . S
O24 U6 2.441 . S
O24 C10 1.249 . S
O25 U6 2.420 . S
O25 C10 1.202 . S
O26 U6 2.455 . S
O26 C23 1.301 . S
O27 U6 2.449 . S
O27 C23 1.282 . S
H28 C1 0.931 . S
H29 C3 0.929 . S
H30 C4 0.930 . S
H31 C5 0.931 . S
H32 C12 0.932 . S
H33 C13 0.930 . S
H34 C14 0.929 . S
H35 C16 0.930 . S
H36 C18 0.932 . S
H37 C19 0.929 . S
H38 C20 0.928 . S
H39 C22 0.932 . S
C40 C41 1.264 . S
C40 C45 1.479 . S
C40 C50 1.465 . S
C41 C40 1.264 . S
C41 C43 1.339 . S
C41 H68 0.931 . S
C42 C43 1.395 . S
C42 C44 1.320 . S
C43 C41 1.339 . S
C43 C42 1.395 . S
C43 H69 0.929 . S
C44 C42 1.320 . S
C44 C45 1.405 . S
C44 H70 0.930 . S
C45 C40 1.479 . S
C45 C44 1.405 . S
C45 H71 0.931 . S
U46 O47 2.454 . S
U46 O48 2.458 . S
U46 C49 2.984 . S
U46 C50 2.847 . S
U46 C63 2.882 . S
U46 O64 2.441 . S
U46 O65 2.420 . S
U46 O66 2.455 . S
U46 O67 2.449 . S
O47 U46 2.454 . S
O47 C49 1.353 . S
O48 U46 2.458 . S
O48 C49 1.286 . S
C49 U46 2.984 . S
C49 O47 1.353 . S
C49 O48 1.286 . S
C49 C51 1.363 . S
C50 C40 1.465 . S
C50 U46 2.847 . S
C50 O64 1.249 . S
C50 O65 1.202 . S
C51 C49 1.363 . S
C51 C53 1.408 . S
C51 C56 1.342 . S
C52 C53 1.310 . S
C52 C55 1.461 . S
C52 H72 0.932 . S
C53 C51 1.408 . S
C53 C52 1.310 . S
C53 H73 0.930 . S
C54 C55 1.474 . S
C54 C56 1.285 . S
C54 H74 0.929 . S
C55 C52 1.461 . S
C55 C54 1.474 . S
C56 C51 1.342 . S
C56 C54 1.285 . S
C56 H75 0.930 . S
C57 C60 1.424 . S
C57 C62 1.245 . S
C57 C63 1.428 . S
C58 C61 1.260 . S
C58 C62 1.477 . S
C58 H76 0.932 . S
C59 C60 1.384 . S
C59 C61 1.479 . S
C59 H77 0.929 . S
C60 C57 1.424 . S
C60 C59 1.384 . S
C60 H78 0.928 . S
C61 C58 1.260 . S
C61 C59 1.479 . S
C62 C57 1.245 . S
C62 C58 1.477 . S
C62 H79 0.932 . S
C63 U46 2.882 . S
C63 C57 1.428 . S
C63 O66 1.301 . S
C63 O67 1.282 . S
O64 U46 2.441 . S
O64 C50 1.249 . S
O65 U46 2.420 . S
O65 C50 1.202 . S
O66 U46 2.455 . S
O66 C63 1.301 . S
O67 U46 2.449 . S
O67 C63 1.282 . S
H68 C41 0.931 . S
H69 C43 0.929 . S
H70 C44 0.930 . S
H71 C45 0.931 . S
H72 C52 0.932 . S
H73 C53 0.930 . S
H74 C54 0.929 . S
H75 C56 0.930 . S
H76 C58 0.932 . S
H77 C59 0.929 . S
H78 C60 0.928 . S
H79 C62 0.932 . S
C80 C81 1.264 . S
C80 C85 1.479 . S
C80 C90 1.465 . S
C81 C80 1.264 . S
C81 C83 1.339 . S
C81 H108 0.931 . S
C82 C83 1.395 . S
C82 C84 1.320 . S
C83 C81 1.339 . S
C83 C82 1.395 . S
C83 H109 0.929 . S
C84 C82 1.320 . S
C84 C85 1.405 . S
C84 H110 0.930 . S
C85 C80 1.479 . S
C85 C84 1.405 . S
C85 H111 0.931 . S
U86 O87 2.454 . S
U86 O88 2.458 . S
U86 C89 2.984 . S
U86 C90 2.847 . S
U86 C103 2.882 . S
U86 O104 2.441 . S
U86 O105 2.420 . S
U86 O106 2.455 . S
U86 O107 2.449 . S
O87 U86 2.454 . S
O87 C89 1.353 . S
O88 U86 2.458 . S
O88 C89 1.286 . S
C89 U86 2.984 . S
C89 O87 1.353 . S
C89 O88 1.286 . S
C89 C91 1.363 . S
C90 C80 1.465 . S
C90 U86 2.847 . S
C90 O104 1.249 . S
C90 O105 1.202 . S
C91 C89 1.363 . S
C91 C93 1.408 . S
C91 C96 1.342 . S
C92 C93 1.310 . S
C92 C95 1.461 . S
C92 H112 0.932 . S
C93 C91 1.408 . S
C93 C92 1.310 . S
C93 H113 0.930 . S
C94 C95 1.474 . S
C94 C96 1.285 . S
C94 H114 0.929 . S
C95 C92 1.461 . S
C95 C94 1.474 . S
C96 C91 1.342 . S
C96 C94 1.285 . S
C96 H115 0.930 . S
C97 C100 1.424 . S
C97 C102 1.245 . S
C97 C103 1.428 . S
C98 C101 1.260 . S
C98 C102 1.477 . S
C98 H116 0.932 . S
C99 C100 1.384 . S
C99 C101 1.479 . S
C99 H117 0.929 . S
C100 C97 1.424 . S
C100 C99 1.384 . S
C100 H118 0.928 . S
C101 C98 1.260 . S
C101 C99 1.479 . S
C102 C97 1.245 . S
C102 C98 1.477 . S
C102 H119 0.932 . S
C103 U86 2.882 . S
C103 C97 1.428 . S
C103 O106 1.301 . S
C103 O107 1.282 . S
O104 U86 2.441 . S
O104 C90 1.249 . S
O105 U86 2.420 . S
O105 C90 1.202 . S
O106 U86 2.455 . S
O106 C103 1.301 . S
O107 U86 2.449 . S
O107 C103 1.282 . S
H108 C81 0.931 . S
H109 C83 0.929 . S
H110 C84 0.930 . S
H111 C85 0.931 . S
H112 C92 0.932 . S
H113 C93 0.930 . S
H114 C94 0.929 . S
H115 C96 0.930 . S
H116 C98 0.932 . S
H117 C99 0.929 . S
H118 C100 0.928 . S
H119 C102 0.932 . S
C120 C121 1.264 . S
C120 C125 1.479 . S
C120 C130 1.465 . S
C121 C120 1.264 . S
C121 C123 1.339 . S
C121 H148 0.931 . S
C122 C123 1.395 . S
C122 C124 1.320 . S
C123 C121 1.339 . S
C123 C122 1.395 . S
C123 H149 0.929 . S
C124 C122 1.320 . S
C124 C125 1.405 . S
C124 H150 0.930 . S
C125 C120 1.479 . S
C125 C124 1.405 . S
C125 H151 0.931 . S
U126 O127 2.454 . S
U126 O128 2.458 . S
U126 C129 2.984 . S
U126 C130 2.847 . S
U126 C143 2.882 . S
U126 O144 2.441 . S
U126 O145 2.420 . S
U126 O146 2.455 . S
U126 O147 2.449 . S
O127 U126 2.454 . S
O127 C129 1.353 . S
O128 U126 2.458 . S
O128 C129 1.286 . S
C129 U126 2.984 . S
C129 O127 1.353 . S
C129 O128 1.286 . S
C129 C131 1.363 . S
C130 C120 1.465 . S
C130 U126 2.847 . S
C130 O144 1.249 . S
C130 O145 1.202 . S
C131 C129 1.363 . S
C131 C133 1.408 . S
C131 C136 1.342 . S
C132 C133 1.310 . S
C132 C135 1.461 . S
C132 H152 0.932 . S
C133 C131 1.408 . S
C133 C132 1.310 . S
C133 H153 0.930 . S
C134 C135 1.474 . S
C134 C136 1.285 . S
C134 H154 0.929 . S
C135 C132 1.461 . S
C135 C134 1.474 . S
C136 C131 1.342 . S
C136 C134 1.285 . S
C136 H155 0.930 . S
C137 C140 1.424 . S
C137 C142 1.245 . S
C137 C143 1.428 . S
C138 C141 1.260 . S
C138 C142 1.477 . S
C138 H156 0.932 . S
C139 C140 1.384 . S
C139 C141 1.479 . S
C139 H157 0.929 . S
C140 C137 1.424 . S
C140 C139 1.384 . S
C140 H158 0.928 . S
C141 C138 1.260 . S
C141 C139 1.479 . S
C142 C137 1.245 . S
C142 C138 1.477 . S
C142 H159 0.932 . S
C143 U126 2.882 . S
C143 C137 1.428 . S
C143 O146 1.301 . S
C143 O147 1.282 . S
O144 U126 2.441 . S
O144 C130 1.249 . S
O145 U126 2.420 . S
O145 C130 1.202 . S
O146 U126 2.455 . S
O146 C143 1.301 . S
O147 U126 2.449 . S
O147 C143 1.282 . S
H148 C121 0.931 . S
H149 C123 0.929 . S
H150 C124 0.930 . S
H151 C125 0.931 . S
H152 C132 0.932 . S
H153 C133 0.930 . S
H154 C134 0.929 . S
H155 C136 0.930 . S
H156 C138 0.932 . S
H157 C139 0.929 . S
H158 C140 0.928 . S
H159 C142 0.932 . S
C160 C161 1.264 . S
C160 C165 1.479 . S
C160 C170 1.465 . S
C161 C160 1.264 . S
C161 C163 1.339 . S
C161 H188 0.931 . S
C162 C163 1.395 . S
C162 C164 1.320 . S
C163 C161 1.339 . S
C163 C162 1.395 . S
C163 H189 0.929 . S
C164 C162 1.320 . S
C164 C165 1.405 . S
C164 H190 0.930 . S
C165 C160 1.479 . S
C165 C164 1.405 . S
C165 H191 0.931 . S
U166 O167 2.454 . S
U166 O168 2.458 . S
U166 C169 2.984 . S
U166 C170 2.847 . S
U166 C183 2.882 . S
U166 O184 2.441 . S
U166 O185 2.420 . S
U166 O186 2.455 . S
U166 O187 2.449 . S
O167 U166 2.454 . S
O167 C169 1.353 . S
O168 U166 2.458 . S
O168 C169 1.286 . S
C169 U166 2.984 . S
C169 O167 1.353 . S
C169 O168 1.286 . S
C169 C171 1.363 . S
C170 C160 1.465 . S
C170 U166 2.847 . S
C170 O184 1.249 . S
C170 O185 1.202 . S
C171 C169 1.363 . S
C171 C173 1.408 . S
C171 C176 1.342 . S
C172 C173 1.310 . S
C172 C175 1.461 . S
C172 H192 0.932 . S
C173 C171 1.408 . S
C173 C172 1.310 . S
C173 H193 0.930 . S
C174 C175 1.474 . S
C174 C176 1.285 . S
C174 H194 0.929 . S
C175 C172 1.461 . S
C175 C174 1.474 . S
C176 C171 1.342 . S
C176 C174 1.285 . S
C176 H195 0.930 . S
C177 C180 1.424 1_565 S
C177 C182 1.245 . S
C177 C183 1.428 . S
C178 C181 1.301 . S
C178 C182 1.448 1_545 S
C178 H196 0.920 1_545 S
C179 C180 1.384 . S
C179 C181 1.479 . S
C179 H197 0.929 . S
C180 C177 1.424 1_545 S
C180 C179 1.384 . S
C180 H198 0.928 . S
C181 C178 1.301 . S
C181 C179 1.479 . S
C182 C177 1.245 . S
C182 C178 1.448 1_565 S
C182 H199 0.932 . S
C183 U166 2.882 . S
C183 C177 1.428 . S
C183 O186 1.301 . S
C183 O187 1.282 . S
O184 U166 2.441 . S
O184 C170 1.249 . S
O185 U166 2.420 . S
O185 C170 1.202 . S
O186 U166 2.455 . S
O186 C183 1.301 . S
O187 U166 2.449 . S
O187 C183 1.282 . S
H188 C161 0.931 . S
H189 C163 0.929 . S
H190 C164 0.930 . S
H191 C165 0.931 . S
H192 C172 0.932 . S
H193 C173 0.930 . S
H194 C174 0.929 . S
H195 C176 0.930 . S
H196 C178 0.920 1_565 S
H197 C179 0.929 . S
H198 C180 0.928 . S
H199 C182 0.932 . S
C200 C201 1.264 . S
C200 C205 1.479 . S
C200 C210 1.465 . S
C201 C200 1.264 . S
C201 C203 1.339 . S
C201 H228 0.931 . S
C202 C203 1.395 . S
C202 C204 1.320 . S
C203 C201 1.339 . S
C203 C202 1.395 . S
C203 H229 0.929 . S
C204 C202 1.320 . S
C204 C205 1.405 . S
C204 H230 0.930 . S
C205 C200 1.479 . S
C205 C204 1.405 . S
C205 H231 0.931 . S
U206 O207 2.454 . S
U206 O208 2.458 . S
U206 C209 2.984 . S
U206 C210 2.847 . S
U206 C223 2.882 . S
U206 O224 2.441 . S
U206 O225 2.420 . S
U206 O226 2.455 . S
U206 O227 2.449 . S
O207 U206 2.454 . S
O207 C209 1.353 . S
O208 U206 2.458 . S
O208 C209 1.286 . S
C209 U206 2.984 . S
C209 O207 1.353 . S
C209 O208 1.286 . S
C209 C211 1.363 . S
C210 C200 1.465 . S
C210 U206 2.847 . S
C210 O224 1.249 . S
C210 O225 1.202 . S
C211 C209 1.363 . S
C211 C213 1.408 . S
C211 C216 1.342 . S
C212 C213 1.310 . S
C212 C215 1.461 . S
C212 H232 0.932 . S
C213 C211 1.408 . S
C213 C212 1.310 . S
C213 H233 0.930 . S
C214 C215 1.474 . S
C214 C216 1.285 . S
C214 H234 0.929 . S
C215 C212 1.461 . S
C215 C214 1.474 . S
C216 C211 1.342 . S
C216 C214 1.285 . S
C216 H235 0.930 . S
C217 C220 1.424 . S
C217 C222 1.245 . S
C217 C223 1.428 . S
C218 C221 1.260 . S
C218 C222 1.477 . S
C218 H236 0.932 . S
C219 C220 1.384 . S
C219 C221 1.479 . S
C219 H237 0.929 . S
C220 C217 1.424 . S
C220 C219 1.384 . S
C220 H238 0.928 . S
C221 C218 1.260 . S
C221 C219 1.479 . S
C222 C217 1.245 . S
C222 C218 1.477 . S
C222 H239 0.932 . S
C223 U206 2.882 . S
C223 C217 1.428 . S
C223 O226 1.301 . S
C223 O227 1.282 . S
O224 U206 2.441 . S
O224 C210 1.249 . S
O225 U206 2.420 . S
O225 C210 1.202 . S
O226 U206 2.455 . S
O226 C223 1.301 . S
O227 U206 2.449 . S
O227 C223 1.282 . S
H228 C201 0.931 . S
H229 C203 0.929 . S
H230 C204 0.930 . S
H231 C205 0.931 . S
H232 C212 0.932 . S
H233 C213 0.930 . S
H234 C214 0.929 . S
H235 C216 0.930 . S
H236 C218 0.932 . S
H237 C219 0.929 . S
H238 C220 0.928 . S
H239 C222 0.932 . S
C240 C241 1.264 . S
C240 C245 1.479 . S
C240 C250 1.465 . S
C241 C240 1.264 . S
C241 C243 1.339 . S
C241 H268 0.931 . S
C242 C243 1.395 . S
C242 C244 1.320 . S
C243 C241 1.339 . S
C243 C242 1.395 . S
C243 H269 0.929 . S
C244 C242 1.320 . S
C244 C245 1.405 . S
C244 H270 0.930 . S
C245 C240 1.479 . S
C245 C244 1.405 . S
C245 H271 0.931 . S
U246 O247 2.454 . S
U246 O248 2.458 . S
U246 C249 2.984 . S
U246 C250 2.847 . S
U246 C263 2.882 . S
U246 O264 2.441 . S
U246 O265 2.420 . S
U246 O266 2.455 . S
U246 O267 2.449 . S
O247 U246 2.454 . S
O247 C249 1.353 . S
O248 U246 2.458 . S
O248 C249 1.286 . S
C249 U246 2.984 . S
C249 O247 1.353 . S
C249 O248 1.286 . S
C249 C251 1.363 . S
C250 C240 1.465 . S
C250 U246 2.847 . S
C250 O264 1.249 . S
C250 O265 1.202 . S
C251 C249 1.363 . S
C251 C253 1.408 . S
C251 C256 1.342 . S
C252 C253 1.310 . S
C252 C255 1.461 . S
C252 H272 0.932 . S
C253 C251 1.408 . S
C253 C252 1.310 . S
C253 H273 0.930 . S
C254 C255 1.474 . S
C254 C256 1.285 . S
C254 H274 0.929 . S
C255 C252 1.461 . S
C255 C254 1.474 . S
C256 C251 1.342 . S
C256 C254 1.285 . S
C256 H275 0.930 . S
C257 C260 1.424 . S
C257 C262 1.245 . S
C257 C263 1.428 . S
C258 C261 1.260 . S
C258 C262 1.477 . S
C258 H276 0.932 . S
C259 C260 1.384 . S
C259 C261 1.479 . S
C259 H277 0.929 . S
C260 C257 1.424 . S
C260 C259 1.384 . S
C260 H278 0.928 . S
C261 C258 1.260 . S
C261 C259 1.479 . S
C262 C257 1.245 . S
C262 C258 1.477 . S
C262 H279 0.932 . S
C263 U246 2.882 . S
C263 C257 1.428 . S
C263 O266 1.301 . S
C263 O267 1.282 . S
O264 U246 2.441 . S
O264 C250 1.249 . S
O265 U246 2.420 . S
O265 C250 1.202 . S
O266 U246 2.455 . S
O266 C263 1.301 . S
O267 U246 2.449 . S
O267 C263 1.282 . S
H268 C241 0.931 . S
H269 C243 0.929 . S
H270 C244 0.930 . S
H271 C245 0.931 . S
H272 C252 0.932 . S
H273 C253 0.930 . S
H274 C254 0.929 . S
H275 C256 0.930 . S
H276 C258 0.932 . S
H277 C259 0.929 . S
H278 C260 0.928 . S
H279 C262 0.932 . S
C280 C281 1.264 . S
C280 C285 1.479 . S
C280 C290 1.465 . S
C281 C280 1.264 . S
C281 C283 1.339 . S
C281 H308 0.931 . S
C282 C283 1.395 . S
C282 C284 1.320 . S
C283 C281 1.339 . S
C283 C282 1.395 . S
C283 H309 0.929 . S
C284 C282 1.320 . S
C284 C285 1.405 . S
C284 H310 0.930 . S
C285 C280 1.479 . S
C285 C284 1.405 . S
C285 H311 0.931 . S
U286 O287 2.454 . S
U286 O288 2.458 . S
U286 C289 2.984 . S
U286 C290 2.847 . S
U286 C303 2.882 . S
U286 O304 2.441 . S
U286 O305 2.420 . S
U286 O306 2.455 . S
U286 O307 2.449 . S
O287 U286 2.454 . S
O287 C289 1.353 . S
O288 U286 2.458 . S
O288 C289 1.286 . S
C289 U286 2.984 . S
C289 O287 1.353 . S
C289 O288 1.286 . S
C289 C291 1.363 . S
C290 C280 1.465 . S
C290 U286 2.847 . S
C290 O304 1.249 . S
C290 O305 1.202 . S
C291 C289 1.363 . S
C291 C293 1.408 . S
C291 C296 1.342 . S
C292 C293 1.310 . S
C292 C295 1.461 . S
C292 H312 0.932 . S
C293 C291 1.408 . S
C293 C292 1.310 . S
C293 H313 0.930 . S
C294 C295 1.474 . S
C294 C296 1.285 . S
C294 H314 0.929 . S
C295 C292 1.461 . S
C295 C294 1.474 . S
C296 C291 1.342 . S
C296 C294 1.285 . S
C296 H315 0.930 . S
C297 C300 1.424 . S
C297 C302 1.245 . S
C297 C303 1.428 . S
C298 C301 1.260 . S
C298 C302 1.477 . S
C298 H316 0.932 . S
C299 C300 1.384 . S
C299 C301 1.479 . S
C299 H317 0.929 . S
C300 C297 1.424 . S
C300 C299 1.384 . S
C300 H318 0.928 . S
C301 C298 1.260 . S
C301 C299 1.479 . S
C302 C297 1.245 . S
C302 C298 1.477 . S
C302 H319 0.932 . S
C303 U286 2.882 . S
C303 C297 1.428 . S
C303 O306 1.301 . S
C303 O307 1.282 . S
O304 U286 2.441 . S
O304 C290 1.249 . S
O305 U286 2.420 . S
O305 C290 1.202 . S
O306 U286 2.455 . S
O306 C303 1.301 . S
O307 U286 2.449 . S
O307 C303 1.282 . S
H308 C281 0.931 . S
H309 C283 0.929 . S
H310 C284 0.930 . S
H311 C285 0.931 . S
H312 C292 0.932 . S
H313 C293 0.930 . S
H314 C294 0.929 . S
H315 C296 0.930 . S
H316 C298 0.932 . S
H317 C299 0.929 . S
H318 C300 0.928 . S
H319 C302 0.932 . S
C320 C321 1.264 . S
C320 C325 1.479 . S
C320 C330 1.465 . S
C321 C320 1.264 . S
C321 C323 1.339 . S
C321 H348 0.931 . S
C322 C323 1.395 . S
C322 C324 1.320 . S
C323 C321 1.339 . S
C323 C322 1.395 . S
C323 H349 0.929 . S
C324 C322 1.320 . S
C324 C325 1.405 . S
C324 H350 0.930 . S
C325 C320 1.479 . S
C325 C324 1.405 . S
C325 H351 0.931 . S
U326 O327 2.454 . S
U326 O328 2.458 . S
U326 C329 2.984 . S
U326 C330 2.847 . S
U326 C343 2.882 . S
U326 O344 2.441 . S
U326 O345 2.420 . S
U326 O346 2.455 . S
U326 O347 2.449 . S
O327 U326 2.454 . S
O327 C329 1.353 . S
O328 U326 2.458 . S
O328 C329 1.286 . S
C329 U326 2.984 . S
C329 O327 1.353 . S
C329 O328 1.286 . S
C329 C331 1.363 . S
C330 C320 1.465 . S
C330 U326 2.847 . S
C330 O344 1.249 . S
C330 O345 1.202 . S
C331 C329 1.363 . S
C331 C333 1.408 . S
C331 C336 1.342 . S
C332 C333 1.310 . S
C332 C335 1.461 . S
C332 H352 0.932 . S
C333 C331 1.408 . S
C333 C332 1.310 . S
C333 H353 0.930 . S
C334 C335 1.474 . S
C334 C336 1.285 . S
C334 H354 0.929 . S
C335 C332 1.461 . S
C335 C334 1.474 . S
C336 C331 1.342 . S
C336 C334 1.285 . S
C336 H355 0.930 . S
C337 C340 1.424 . S
C337 C342 1.245 . S
C337 C343 1.428 . S
C338 C341 1.260 . S
C338 C342 1.477 . S
C338 H356 0.932 . S
C339 C340 1.384 . S
C339 C341 1.479 . S
C339 H357 0.929 . S
C340 C337 1.424 . S
C340 C339 1.384 . S
C340 H358 0.928 . S
C341 C338 1.260 . S
C341 C339 1.479 . S
C342 C337 1.245 . S
C342 C338 1.477 . S
C342 H359 0.932 . S
C343 U326 2.882 . S
C343 C337 1.428 . S
C343 O346 1.301 . S
C343 O347 1.282 . S
O344 U326 2.441 . S
O344 C330 1.249 . S
O345 U326 2.420 . S
O345 C330 1.202 . S
O346 U326 2.455 . S
O346 C343 1.301 . S
O347 U326 2.449 . S
O347 C343 1.282 . S
H348 C321 0.931 . S
H349 C323 0.929 . S
H350 C324 0.930 . S
H351 C325 0.931 . S
H352 C332 0.932 . S
H353 C333 0.930 . S
H354 C334 0.929 . S
H355 C336 0.930 . S
H356 C338 0.932 . S
H357 C339 0.929 . S
H358 C340 0.928 . S
H359 C342 0.932 . S
C360 C361 1.264 . S
C360 C365 1.479 . S
C360 C370 1.465 . S
C361 C360 1.264 . S
C361 C363 1.339 . S
C361 H388 0.931 . S
C362 C363 1.395 . S
C362 C364 1.320 . S
C363 C361 1.339 . S
C363 C362 1.395 . S
C363 H389 0.929 . S
C364 C362 1.320 . S
C364 C365 1.405 . S
C364 H390 0.930 . S
C365 C360 1.479 . S
C365 C364 1.405 . S
C365 H391 0.931 . S
U366 O367 2.454 . S
U366 O368 2.458 . S
U366 C369 2.984 . S
U366 C370 2.847 . S
U366 C383 2.882 . S
U366 O384 2.441 . S
U366 O385 2.420 . S
U366 O386 2.455 . S
U366 O387 2.449 . S
O367 U366 2.454 . S
O367 C369 1.353 . S
O368 U366 2.458 . S
O368 C369 1.286 . S
C369 U366 2.984 . S
C369 O367 1.353 . S
C369 O368 1.286 . S
C369 C371 1.363 . S
C370 C360 1.465 . S
C370 U366 2.847 . S
C370 O384 1.249 . S
C370 O385 1.202 . S
C371 C369 1.363 . S
C371 C373 1.408 . S
C371 C376 1.342 . S
C372 C373 1.310 . S
C372 C375 1.461 . S
C372 H392 0.932 . S
C373 C371 1.408 . S
C373 C372 1.310 . S
C373 H393 0.930 . S
C374 C375 1.474 . S
C374 C376 1.285 . S
C374 H394 0.950 . S
C375 C372 1.461 . S
C375 C374 1.474 . S
C376 C371 1.342 . S
C376 C374 1.285 . S
C376 H395 0.930 . S
C377 C380 1.424 . S
C377 C382 1.245 . S
C377 C383 1.428 . S
C378 C381 1.260 . S
C378 C382 1.477 . S
C378 H396 0.932 . S
C379 C380 1.384 . S
C379 C381 1.479 . S
C379 H397 0.929 . S
C380 C377 1.424 . S
C380 C379 1.384 . S
C380 H398 0.928 . S
C381 C378 1.260 . S
C381 C379 1.479 . S
C382 C377 1.245 . S
C382 C378 1.477 . S
C382 H399 0.932 . S
C383 U366 2.882 . S
C383 C377 1.428 . S
C383 O386 1.301 . S
C383 O387 1.282 . S
O384 U366 2.441 . S
O384 C370 1.249 . S
O385 U366 2.420 . S
O385 C370 1.202 . S
O386 U366 2.455 . S
O386 C383 1.301 . S
O387 U366 2.449 . S
O387 C383 1.282 . S
H388 C361 0.931 . S
H389 C363 0.929 . S
H390 C364 0.930 . S
H391 C365 0.931 . S
H392 C372 0.932 . S
H393 C373 0.930 . S
H394 C374 0.950 . S
H395 C376 0.930 . S
H396 C378 0.932 . S
H397 C379 0.929 . S
H398 C380 0.928 . S
H399 C382 0.932 . S
C400 C401 1.264 . S
C400 C405 1.479 . S
C400 C410 1.465 . S
C401 C400 1.264 . S
C401 C403 1.339 . S
C401 H428 0.931 . S
C402 C403 1.395 . S
C402 C404 1.320 . S
C403 C401 1.339 . S
C403 C402 1.395 . S
C403 H429 0.929 . S
C404 C402 1.320 . S
C404 C405 1.405 . S
C404 H430 0.930 . S
C405 C400 1.479 . S
C405 C404 1.405 . S
C405 H431 0.931 . S
U406 O407 2.454 . S
U406 O408 2.458 . S
U406 C409 2.984 . S
U406 C410 2.847 . S
U406 C423 2.882 . S
U406 O424 2.441 . S
U406 O425 2.420 . S
U406 O426 2.455 . S
U406 O427 2.449 . S
O407 U406 2.454 . S
O407 C409 1.353 . S
O408 U406 2.458 . S
O408 C409 1.286 . S
C409 U406 2.984 . S
C409 O407 1.353 . S
C409 O408 1.286 . S
C409 C411 1.363 . S
C410 C400 1.465 . S
C410 U406 2.847 . S
C410 O424 1.249 . S
C410 O425 1.202 . S
C411 C409 1.363 . S
C411 C413 1.408 . S
C411 C416 1.342 . S
C412 C413 1.310 . S
C412 C415 1.461 . S
C412 H432 0.932 . S
C413 C411 1.408 . S
C413 C412 1.310 . S
C413 H433 0.930 . S
C414 C415 1.474 . S
C414 C416 1.285 . S
C414 H434 0.929 . S
C415 C412 1.461 . S
C415 C414 1.474 . S
C416 C411 1.342 . S
C416 C414 1.285 . S
C416 H435 0.930 . S
C417 C420 1.424 . S
C417 C422 1.245 . S
C417 C423 1.428 . S
C418 C421 1.260 . S
C418 C422 1.477 . S
C418 H436 0.932 . S
C419 C420 1.384 . S
C419 C421 1.479 . S
C419 H437 0.929 . S
C420 C417 1.424 . S
C420 C419 1.384 . S
C420 H438 0.928 . S
C421 C418 1.260 . S
C421 C419 1.479 . S
C422 C417 1.245 . S
C422 C418 1.477 . S
C422 H439 0.932 . S
C423 U406 2.882 . S
C423 C417 1.428 . S
C423 O426 1.301 . S
C423 O427 1.282 . S
O424 U406 2.441 . S
O424 C410 1.249 . S
O425 U406 2.420 . S
O425 C410 1.202 . S
O426 U406 2.455 . S
O426 C423 1.301 . S
O427 U406 2.449 . S
O427 C423 1.282 . S
H428 C401 0.931 . S
H429 C403 0.929 . S
H430 C404 0.930 . S
H431 C405 0.931 . S
H432 C412 0.932 . S
H433 C413 0.930 . S
H434 C414 0.929 . S
H435 C416 0.930 . S
H436 C418 0.932 . S
H437 C419 0.929 . S
H438 C420 0.928 . S
H439 C422 0.932 . S
C440 C441 1.264 . S
C440 C445 1.479 . S
C440 C450 1.465 . S
C441 C440 1.264 . S
C441 C443 1.339 . S
C441 H468 0.931 . S
C442 C443 1.395 . S
C442 C444 1.320 . S
C443 C441 1.339 . S
C443 C442 1.395 . S
C443 H469 0.929 . S
C444 C442 1.320 . S
C444 C445 1.405 . S
C444 H470 0.930 . S
C445 C440 1.479 . S
C445 C444 1.405 . S
C445 H471 0.931 . S
U446 O447 2.454 . S
U446 O448 2.458 . S
U446 C449 2.984 . S
U446 C450 2.847 . S
U446 C463 2.882 . S
U446 O464 2.441 . S
U446 O465 2.420 . S
U446 O466 2.455 . S
U446 O467 2.449 . S
O447 U446 2.454 . S
O447 C449 1.353 . S
O448 U446 2.458 . S
O448 C449 1.286 . S
C449 U446 2.984 . S
C449 O447 1.353 . S
C449 O448 1.286 . S
C449 C451 1.363 . S
C450 C440 1.465 . S
C450 U446 2.847 . S
C450 O464 1.249 . S
C450 O465 1.202 . S
C451 C449 1.363 . S
C451 C453 1.408 . S
C451 C456 1.342 . S
C452 C453 1.310 . S
C452 C455 1.461 . S
C452 H472 0.932 . S
C453 C451 1.408 . S
C453 C452 1.310 . S
C453 H473 0.930 . S
C454 C455 1.474 . S
C454 C456 1.285 . S
C454 H474 0.929 . S
C455 C452 1.461 . S
C455 C454 1.474 . S
C456 C451 1.342 . S
C456 C454 1.285 . S
C456 H475 0.930 . S
C457 C460 1.424 . S
C457 C462 1.245 . S
C457 C463 1.428 . S
C458 C461 1.260 . S
C458 C462 1.477 . S
C458 H476 0.932 . S
C459 C460 1.384 . S
C459 C461 1.479 . S
C459 H477 0.929 . S
C460 C457 1.424 . S
C460 C459 1.384 . S
C460 H478 0.928 . S
C461 C458 1.260 . S
C461 C459 1.479 . S
C462 C457 1.245 . S
C462 C458 1.477 . S
C462 H479 0.932 . S
C463 U446 2.882 . S
C463 C457 1.428 . S
C463 O466 1.301 . S
C463 O467 1.282 . S
O464 U446 2.441 . S
O464 C450 1.249 . S
O465 U446 2.420 . S
O465 C450 1.202 . S
O466 U446 2.455 . S
O466 C463 1.301 . S
O467 U446 2.449 . S
O467 C463 1.282 . S
H468 C441 0.931 . S
H469 C443 0.929 . S
H470 C444 0.930 . S
H471 C445 0.931 . S
H472 C452 0.932 . S
H473 C453 0.930 . S
H474 C454 0.929 . S
H475 C456 0.930 . S
H476 C458 0.932 . S
H477 C459 0.929 . S
H478 C460 0.928 . S
H479 C462 0.932 . S
C480 C481 1.264 . S
C480 C485 1.479 . S
C480 C490 1.465 . S
C481 C480 1.264 . S
C481 C483 1.339 . S
C481 H508 0.931 . S
C482 C483 1.395 . S
C482 C484 1.320 . S
C483 C481 1.339 . S
C483 C482 1.395 . S
C483 H509 0.929 . S
C484 C482 1.320 . S
C484 C485 1.405 . S
C484 H510 0.930 . S
C485 C480 1.479 . S
C485 C484 1.405 . S
C485 H511 0.931 . S
U486 O487 2.454 . S
U486 O488 2.458 . S
U486 C489 2.984 . S
U486 C490 2.847 . S
U486 C503 2.882 . S
U486 O504 2.441 . S
U486 O505 2.420 . S
U486 O506 2.455 . S
U486 O507 2.449 . S
O487 U486 2.454 . S
O487 C489 1.353 . S
O488 U486 2.458 . S
O488 C489 1.286 . S
C489 U486 2.984 . S
C489 O487 1.353 . S
C489 O488 1.286 . S
C489 C491 1.363 . S
C490 C480 1.465 . S
C490 U486 2.847 . S
C490 O504 1.249 . S
C490 O505 1.202 . S
C491 C489 1.363 . S
C491 C493 1.408 . S
C491 C496 1.342 . S
C492 C493 1.310 . S
C492 C495 1.461 . S
C492 H512 0.932 . S
C493 C491 1.408 . S
C493 C492 1.310 . S
C493 H513 0.930 . S
C494 C495 1.474 . S
C494 C496 1.285 . S
C494 H514 0.929 . S
C495 C492 1.461 . S
C495 C494 1.474 . S
C496 C491 1.342 . S
C496 C494 1.285 . S
C496 H515 0.930 . S
C497 C500 1.424 . S
C497 C502 1.245 . S
C497 C503 1.428 . S
C498 C501 1.260 . S
C498 C502 1.477 . S
C498 H516 0.932 . S
C499 C500 1.384 . S
C499 C501 1.479 . S
C499 H517 0.929 . S
C500 C497 1.424 . S
C500 C499 1.384 . S
C500 H518 0.928 . S
C501 C498 1.260 . S
C501 C499 1.479 . S
C502 C497 1.245 . S
C502 C498 1.477 . S
C502 H519 0.932 . S
C503 U486 2.882 . S
C503 C497 1.428 . S
C503 O506 1.301 . S
C503 O507 1.282 . S
O504 U486 2.441 . S
O504 C490 1.249 . S
O505 U486 2.420 . S
O505 C490 1.202 . S
O506 U486 2.455 . S
O506 C503 1.301 . S
O507 U486 2.449 . S
O507 C503 1.282 . S
H508 C481 0.931 . S
H509 C483 0.929 . S
H510 C484 0.930 . S
H511 C485 0.931 . S
H512 C492 0.932 . S
H513 C493 0.930 . S
H514 C494 0.929 . S
H515 C496 0.930 . S
H516 C498 0.932 . S
H517 C499 0.929 . S
H518 C500 0.928 . S
H519 C502 0.932 . S
C520 C521 1.264 . S
C520 C525 1.479 . S
C520 C530 1.465 . S
C521 C520 1.264 . S
C521 C523 1.339 . S
C521 H548 0.931 . S
C522 C523 1.395 . S
C522 C524 1.320 . S
C523 C521 1.339 . S
C523 C522 1.395 . S
C523 H549 0.929 . S
C524 C522 1.320 . S
C524 C525 1.405 . S
C524 H550 0.930 . S
C525 C520 1.479 . S
C525 C524 1.405 . S
C525 H551 0.931 . S
U526 O527 2.454 . S
U526 O528 2.458 . S
U526 C529 2.984 . S
U526 C530 2.847 . S
U526 C543 2.882 . S
U526 O544 2.441 . S
U526 O545 2.420 . S
U526 O546 2.455 . S
U526 O547 2.449 . S
O527 U526 2.454 . S
O527 C529 1.353 . S
O528 U526 2.458 . S
O528 C529 1.286 . S
C529 U526 2.984 . S
C529 O527 1.353 . S
C529 O528 1.286 . S
C529 C531 1.363 . S
C530 C520 1.465 . S
C530 U526 2.847 . S
C530 O544 1.249 . S
C530 O545 1.202 . S
C531 C529 1.363 . S
C531 C533 1.408 . S
C531 C536 1.342 . S
C532 C533 1.310 . S
C532 C535 1.461 . S
C532 H552 0.932 . S
C533 C531 1.408 . S
C533 C532 1.310 . S
C533 H553 0.930 . S
C534 C535 1.474 . S
C534 C536 1.285 . S
C534 H554 0.929 . S
C535 C532 1.461 . S
C535 C534 1.474 . S
C536 C531 1.342 . S
C536 C534 1.285 . S
C536 H555 0.930 . S
C537 C540 1.424 . S
C537 C542 1.245 . S
C537 C543 1.428 . S
C538 C541 1.260 . S
C538 C542 1.477 . S
C538 H556 0.932 . S
C539 C540 1.384 . S
C539 C541 1.479 . S
C539 H557 0.929 . S
C540 C537 1.424 . S
C540 C539 1.384 . S
C540 H558 0.928 . S
C541 C538 1.260 . S
C541 C539 1.479 . S
C542 C537 1.245 . S
C542 C538 1.477 . S
C542 H559 0.932 . S
C543 U526 2.882 . S
C543 C537 1.428 . S
C543 O546 1.301 . S
C543 O547 1.282 . S
O544 U526 2.441 . S
O544 C530 1.249 . S
O545 U526 2.420 . S
O545 C530 1.202 . S
O546 U526 2.455 . S
O546 C543 1.301 . S
O547 U526 2.449 . S
O547 C543 1.282 . S
H548 C521 0.931 . S
H549 C523 0.929 . S
H550 C524 0.930 . S
H551 C525 0.931 . S
H552 C532 0.932 . S
H553 C533 0.930 . S
H554 C534 0.929 . S
H555 C536 0.930 . S
H556 C538 0.932 . S
H557 C539 0.929 . S
H558 C540 0.928 . S
H559 C542 0.932 . S
C560 C561 1.264 . S
C560 C565 1.479 . S
C560 C570 1.465 . S
C561 C560 1.264 . S
C561 C563 1.339 . S
C561 H588 0.931 . S
C562 C563 1.395 . S
C562 C564 1.320 . S
C563 C561 1.339 . S
C563 C562 1.395 . S
C563 H589 0.929 . S
C564 C562 1.320 . S
C564 C565 1.405 . S
C564 H590 0.930 . S
C565 C560 1.479 . S
C565 C564 1.405 . S
C565 H591 0.931 . S
U566 O567 2.454 . S
U566 O568 2.458 . S
U566 C569 2.984 . S
U566 C570 2.847 . S
U566 C583 2.882 . S
U566 O584 2.441 . S
U566 O585 2.420 . S
U566 O586 2.455 . S
U566 O587 2.449 . S
O567 U566 2.454 . S
O567 C569 1.353 . S
O568 U566 2.458 . S
O568 C569 1.286 . S
C569 U566 2.984 . S
C569 O567 1.353 . S
C569 O568 1.286 . S
C569 C571 1.363 . S
C570 C560 1.465 . S
C570 U566 2.847 . S
C570 O584 1.249 . S
C570 O585 1.202 . S
C571 C569 1.363 . S
C571 C573 1.408 . S
C571 C576 1.342 . S
C572 C573 1.310 . S
C572 C575 1.461 . S
C572 H592 0.932 . S
C573 C571 1.408 . S
C573 C572 1.310 . S
C573 H593 0.930 . S
C574 C575 1.474 . S
C574 C576 1.285 . S
C574 H594 0.929 . S
C575 C572 1.461 . S
C575 C574 1.474 . S
C576 C571 1.342 . S
C576 C574 1.285 . S
C576 H595 0.930 . S
C577 C580 1.424 . S
C577 C582 1.245 . S
C577 C583 1.428 . S
C578 C581 1.260 . S
C578 C582 1.477 . S
C578 H596 0.932 . S
C579 C580 1.384 . S
C579 C581 1.479 . S
C579 H597 0.929 . S
C580 C577 1.424 . S
C580 C579 1.384 . S
C580 H598 0.928 . S
C581 C578 1.260 . S
C581 C579 1.479 . S
C582 C577 1.245 . S
C582 C578 1.477 . S
C582 H599 0.932 . S
C583 U566 2.882 . S
C583 C577 1.428 . S
C583 O586 1.301 . S
C583 O587 1.282 . S
O584 U566 2.441 . S
O584 C570 1.249 . S
O585 U566 2.420 . S
O585 C570 1.202 . S
O586 U566 2.455 . S
O586 C583 1.301 . S
O587 U566 2.449 . S
O587 C583 1.282 . S
H588 C561 0.931 . S
H589 C563 0.929 . S
H590 C564 0.930 . S
H591 C565 0.931 . S
H592 C572 0.932 . S
H593 C573 0.930 . S
H594 C574 0.929 . S
H595 C576 0.930 . S
H596 C578 0.932 . S
H597 C579 0.929 . S
H598 C580 0.928 . S
H599 C582 0.932 . S
C600 C601 1.264 . S
C600 C605 1.479 . S
C600 C610 1.465 . S
C601 C600 1.264 . S
C601 C603 1.339 . S
C601 H628 0.931 . S
C602 C603 1.395 . S
C602 C604 1.305 1_556 S
C603 C601 1.339 . S
C603 C602 1.395 . S
C603 H629 0.929 . S
C604 C602 1.305 1_554 S
C604 C605 1.392 1_554 S
C604 H630 0.961 . S
C605 C600 1.479 . S
C605 C604 1.392 1_556 S
C605 H631 0.931 . S
U606 O607 2.454 . S
U606 O608 2.458 . S
U606 C609 2.984 . S
U606 C610 2.847 . S
U606 C623 2.882 . S
U606 O624 2.441 . S
U606 O625 2.420 . S
U606 O626 2.455 . S
U606 O627 2.449 . S
O607 U606 2.454 . S
O607 C609 1.353 . S
O608 U606 2.458 . S
O608 C609 1.286 . S
C609 U606 2.984 . S
C609 O607 1.353 . S
C609 O608 1.286 . S
C609 C611 1.363 . S
C610 C600 1.465 . S
C610 U606 2.847 . S
C610 O624 1.249 . S
C610 O625 1.202 . S
C611 C609 1.363 . S
C611 C613 1.408 . S
C611 C616 1.342 . S
C612 C613 1.310 . S
C612 C615 1.461 . S
C612 H632 0.932 . S
C613 C611 1.408 . S
C613 C612 1.310 . S
C613 H633 0.930 . S
C614 C615 1.474 . S
C614 C616 1.285 . S
C614 H634 0.929 . S
C615 C612 1.461 . S
C615 C614 1.474 . S
C616 C611 1.342 . S
C616 C614 1.285 . S
C616 H635 0.930 . S
C617 C620 1.424 . S
C617 C622 1.245 . S
C617 C623 1.428 . S
C618 C621 1.260 . S
C618 C622 1.477 . S
C618 H636 0.932 . S
C619 C620 1.384 . S
C619 C621 1.479 . S
C619 H637 0.929 . S
C620 C617 1.424 . S
C620 C619 1.384 . S
C620 H638 0.928 . S
C621 C618 1.260 . S
C621 C619 1.479 . S
C622 C617 1.245 . S
C622 C618 1.477 . S
C622 H639 0.932 . S
C623 U606 2.882 . S
C623 C617 1.428 . S
C623 O626 1.301 . S
C623 O627 1.282 . S
O624 U606 2.441 . S
O624 C610 1.249 . S
O625 U606 2.420 . S
O625 C610 1.202 . S
O626 U606 2.455 . S
O626 C623 1.301 . S
O627 U606 2.449 . S
O627 C623 1.282 . S
H628 C601 0.931 . S
H629 C603 0.929 . S
H630 C604 0.961 . S
H631 C605 0.931 . S
H632 C612 0.932 . S
H633 C613 0.930 . S
H634 C614 0.929 . S
H635 C616 0.930 . S
H636 C618 0.932 . S
H637 C619 0.929 . S
H638 C620 0.928 . S
H639 C622 0.932 . S
O640 Cd641 2.223 . S
O640 C648 1.315 . S
Cd641 O640 2.223 . S
Cd641 O644 2.297 . S
Cd641 O645 2.439 . S
Cd641 O651 2.240 . S
Cd642 O643 2.240 . S
Cd642 O650 2.223 . S
Cd642 O652 2.297 . S
Cd642 O653 2.439 . S
O643 Cd642 2.240 . S
O643 C648 1.279 . S
O644 Cd641 2.297 . S
O644 C646 1.247 . S
O645 Cd641 2.439 . S
O645 C646 1.208 . S
C646 O644 1.247 . S
C646 O645 1.208 . S
C647 O652 1.247 . S
C647 O653 1.208 . S
C648 O640 1.315 . S
C648 O643 1.279 . S
C649 O650 1.315 . S
C649 O651 1.279 . S
O650 Cd642 2.223 . S
O650 C649 1.315 . S
O651 Cd641 2.240 . S
O651 C649 1.279 . S
O652 Cd642 2.297 . S
O652 C647 1.247 . S
O653 Cd642 2.439 . S
O653 C647 1.208 . S
O654 Cd655 2.223 . S
O654 C662 1.315 . S
Cd655 O654 2.223 . S
Cd655 O658 2.297 . S
Cd655 O659 2.439 . S
Cd655 O665 2.240 . S
Cd656 O657 2.240 . S
Cd656 O664 2.223 . S
Cd656 O666 2.297 . S
Cd656 O667 2.439 . S
O657 Cd656 2.240 . S
O657 C662 1.279 . S
O658 Cd655 2.297 . S
O658 C660 1.247 . S
O659 Cd655 2.439 . S
O659 C660 1.208 . S
C660 O658 1.247 . S
C660 O659 1.208 . S
C661 O666 1.247 . S
C661 O667 1.208 . S
C662 O654 1.315 . S
C662 O657 1.279 . S
C663 O664 1.315 . S
C663 O665 1.279 . S
O664 Cd656 2.223 . S
O664 C663 1.315 . S
O665 Cd655 2.240 . S
O665 C663 1.279 . S
O666 Cd656 2.297 . S
O666 C661 1.247 . S
O667 Cd656 2.439 . S
O667 C661 1.208 . S
O668 Cd669 2.223 1_556 S
O668 C676 1.315 . S
Cd669 O668 2.223 1_554 S
Cd669 O672 2.297 . S
Cd669 O673 2.439 . S
Cd669 O679 2.240 . S
Cd670 O671 2.240 . S
Cd670 O678 2.223 . S
Cd670 O680 2.297 1_556 S
Cd670 O681 2.439 1_556 S
O671 Cd670 2.240 . S
O671 C676 1.279 . S
O672 Cd669 2.297 . S
O672 C674 1.247 . S
O673 Cd669 2.439 . S
O673 C674 1.208 . S
C674 O672 1.247 . S
C674 O673 1.208 . S
C675 O680 1.247 . S
C675 O681 1.208 . S
C676 O668 1.315 . S
C676 O671 1.279 . S
C677 O678 1.315 . S
C677 O679 1.279 1_556 S
O678 Cd670 2.223 . S
O678 C677 1.315 . S
O679 Cd669 2.240 . S
O679 C677 1.279 1_554 S
O680 Cd670 2.297 1_554 S
O680 C675 1.247 . S
O681 Cd670 2.439 1_554 S
O681 C675 1.208 . S
O682 Cd683 2.223 . S
O682 C690 1.315 . S
Cd683 O682 2.223 . S
Cd683 O686 2.297 . S
Cd683 O687 2.439 . S
Cd683 O693 2.240 . S
Cd684 O685 2.240 . S
Cd684 O692 2.223 . S
Cd684 O694 2.297 . S
Cd684 O695 2.439 . S
O685 Cd684 2.240 . S
O685 C690 1.279 . S
O686 Cd683 2.297 . S
O686 C688 1.247 . S
O687 Cd683 2.439 . S
O687 C688 1.208 . S
C688 O686 1.247 . S
C688 O687 1.208 . S
C689 O694 1.247 . S
C689 O695 1.208 . S
C690 O682 1.315 . S
C690 O685 1.279 . S
C691 O692 1.315 . S
C691 O693 1.279 . S
O692 Cd684 2.223 . S
O692 C691 1.315 . S
O693 Cd683 2.240 . S
O693 C691 1.279 . S
O694 Cd684 2.297 . S
O694 C689 1.247 . S
O695 Cd684 2.439 . S
O695 C689 1.208 . S
O696 Cd697 2.223 . S
O696 C704 1.315 . S
Cd697 O696 2.223 . S
Cd697 O700 2.297 . S
Cd697 O701 2.439 . S
Cd697 O707 2.240 . S
Cd698 O699 2.240 . S
Cd698 O706 2.223 . S
Cd698 O708 2.297 . S
Cd698 O709 2.439 . S
O699 Cd698 2.240 . S
O699 C704 1.279 . S
O700 Cd697 2.297 . S
O700 C702 1.247 . S
O701 Cd697 2.439 . S
O701 C702 1.208 . S
C702 O700 1.247 . S
C702 O701 1.208 . S
C703 O708 1.247 . S
C703 O709 1.208 . S
C704 O696 1.315 . S
C704 O699 1.279 . S
C705 O706 1.315 . S
C705 O707 1.279 . S
O706 Cd698 2.223 . S
O706 C705 1.315 . S
O707 Cd697 2.240 . S
O707 C705 1.279 . S
O708 Cd698 2.297 . S
O708 C703 1.247 . S
O709 Cd698 2.439 . S
O709 C703 1.208 . S
O710 Cd711 2.223 . S
O710 C718 1.315 . S
Cd711 O710 2.223 . S
Cd711 O714 2.297 . S
Cd711 O715 2.439 . S
Cd711 O721 2.240 . S
Cd712 O713 2.240 . S
Cd712 O720 2.223 . S
Cd712 O722 2.297 . S
Cd712 O723 2.439 . S
O713 Cd712 2.240 . S
O713 C718 1.279 . S
O714 Cd711 2.297 . S
O714 C716 1.247 . S
O715 Cd711 2.439 . S
O715 C716 1.208 . S
C716 O714 1.247 . S
C716 O715 1.208 . S
C717 O722 1.247 . S
C717 O723 1.208 . S
C718 O710 1.315 . S
C718 O713 1.279 . S
C719 O720 1.315 . S
C719 O721 1.279 . S
O720 Cd712 2.223 . S
O720 C719 1.315 . S
O721 Cd711 2.240 . S
O721 C719 1.279 . S
O722 Cd712 2.297 . S
O722 C717 1.247 . S
O723 Cd712 2.439 . S
O723 C717 1.208 . S
O724 Cd725 2.223 . S
O724 C732 1.315 . S
Cd725 O724 2.223 . S
Cd725 O728 2.297 . S
Cd725 O729 2.439 . S
Cd725 O735 2.240 . S
Cd726 O727 2.240 . S
Cd726 O734 2.223 . S
Cd726 O736 2.297 . S
Cd726 O737 2.439 . S
O727 Cd726 2.240 . S
O727 C732 1.279 . S
O728 Cd725 2.297 . S
O728 C730 1.247 . S
O729 Cd725 2.439 . S
O729 C730 1.208 . S
C730 O728 1.247 . S
C730 O729 1.208 . S
C731 O736 1.247 . S
C731 O737 1.208 . S
C732 O724 1.315 . S
C732 O727 1.279 . S
C733 O734 1.315 . S
C733 O735 1.279 . S
O734 Cd726 2.223 . S
O734 C733 1.315 . S
O735 Cd725 2.240 . S
O735 C733 1.279 . S
O736 Cd726 2.297 . S
O736 C731 1.247 . S
O737 Cd726 2.439 . S
O737 C731 1.208 . S
O738 Cd739 2.223 1_545 S
O738 C746 1.315 . S
Cd739 O738 2.223 1_565 S
Cd739 O742 2.297 . S
Cd739 O743 2.439 . S
Cd739 O749 2.240 1_565 S
Cd740 O741 2.240 . S
Cd740 O748 2.223 . S
Cd740 O750 2.297 . S
Cd740 O751 2.439 1_545 S
O741 Cd740 2.240 . S
O741 C746 1.279 . S
O742 Cd739 2.297 . S
O742 C744 1.247 . S
O743 Cd739 2.439 . S
O743 C744 1.208 . S
C744 O742 1.247 . S
C744 O743 1.208 . S
C745 O750 1.247 1_565 S
C745 O751 1.208 . S
C746 O738 1.315 . S
C746 O741 1.279 . S
C747 O748 1.315 . S
C747 O749 1.279 . S
O748 Cd740 2.223 . S
O748 C747 1.315 . S
O749 Cd739 2.240 1_545 S
O749 C747 1.279 . S
O750 Cd740 2.297 . S
O750 C745 1.247 1_545 S
O751 Cd740 2.439 1_565 S
O751 C745 1.208 . S
O752 Cd753 2.223 . S
O752 C760 1.315 . S
Cd753 O752 2.223 . S
Cd753 O756 2.297 1_655 S
Cd753 O757 2.439 1_655 S
Cd753 O763 2.240 . S
Cd754 O755 2.240 . S
Cd754 O762 2.223 1_455 S
Cd754 O764 2.297 . S
Cd754 O765 2.439 . S
O755 Cd754 2.240 . S
O755 C760 1.279 1_455 S
O756 Cd753 2.297 1_455 S
O756 C758 1.247 . S
O757 Cd753 2.439 1_455 S
O757 C758 1.208 . S
C758 O756 1.247 . S
C758 O757 1.208 . S
C759 O764 1.247 . S
C759 O765 1.208 . S
C760 O752 1.315 . S
C760 O755 1.279 1_655 S
C761 O762 1.315 . S
C761 O763 1.279 . S
O762 Cd754 2.223 1_655 S
O762 C761 1.315 . S
O763 Cd753 2.240 . S
O763 C761 1.279 . S
O764 Cd754 2.297 . S
O764 C759 1.247 . S
O765 Cd754 2.439 . S
O765 C759 1.208 . S
O766 Cd767 2.223 . S
O766 C774 1.315 . S
Cd767 O766 2.223 . S
Cd767 O770 2.297 . S
Cd767 O771 2.439 . S
Cd767 O777 2.240 . S
Cd768 O769 2.240 . S
Cd768 O776 2.223 . S
Cd768 O778 2.297 . S
Cd768 O779 2.439 . S
O769 Cd768 2.240 . S
O769 C774 1.279 . S
O770 Cd767 2.297 . S
O770 C772 1.247 . S
O771 Cd767 2.439 . S
O771 C772 1.208 . S
C772 O770 1.247 . S
C772 O771 1.208 . S
C773 O778 1.247 . S
C773 O779 1.208 . S
C774 O766 1.315 . S
C774 O769 1.279 . S
C775 O776 1.315 . S
C775 O777 1.279 . S
O776 Cd768 2.223 . S
O776 C775 1.315 . S
O777 Cd767 2.240 . S
O777 C775 1.279 . S
O778 Cd768 2.297 . S
O778 C773 1.247 . S
O779 Cd768 2.439 . S
O779 C773 1.208 . S
O780 Cd781 2.223 1_655 S
O780 C788 1.315 . S
Cd781 O780 2.223 1_455 S
Cd781 O784 2.297 . S
Cd781 O785 2.439 . S
Cd781 O791 2.240 . S
Cd782 O783 2.240 . S
Cd782 O790 2.223 . S
Cd782 O792 2.297 1_655 S
Cd782 O793 2.439 1_655 S
O783 Cd782 2.240 . S
O783 C788 1.279 . S
O784 Cd781 2.297 . S
O784 C786 1.247 . S
O785 Cd781 2.439 . S
O785 C786 1.208 . S
C786 O784 1.247 . S
C786 O785 1.208 . S
C787 O792 1.247 . S
C787 O793 1.208 . S
C788 O780 1.315 . S
C788 O783 1.279 . S
C789 O790 1.315 . S
C789 O791 1.279 1_655 S
O790 Cd782 2.223 . S
O790 C789 1.315 . S
O791 Cd781 2.240 . S
O791 C789 1.279 1_455 S
O792 Cd782 2.297 1_455 S
O792 C787 1.247 . S
O793 Cd782 2.439 1_455 S
O793 C787 1.208 . S
O794 Cd795 2.223 . S
O794 C802 1.315 . S
Cd795 O794 2.223 . S
Cd795 O798 2.297 . S
Cd795 O799 2.439 . S
Cd795 O805 2.240 . S
Cd796 O797 2.240 . S
Cd796 O804 2.223 . S
Cd796 O806 2.297 . S
Cd796 O807 2.439 . S
O797 Cd796 2.240 . S
O797 C802 1.279 . S
O798 Cd795 2.297 . S
O798 C800 1.247 . S
O799 Cd795 2.439 . S
O799 C800 1.208 . S
C800 O798 1.247 . S
C800 O799 1.208 . S
C801 O806 1.247 . S
C801 O807 1.208 . S
C802 O794 1.315 . S
C802 O797 1.279 . S
C803 O804 1.315 . S
C803 O805 1.279 . S
O804 Cd796 2.223 . S
O804 C803 1.315 . S
O805 Cd795 2.240 . S
O805 C803 1.279 . S
O806 Cd796 2.297 . S
O806 C801 1.247 . S
O807 Cd796 2.439 . S
O807 C801 1.208 . S
H808 C820 0.930 . S
H809 C822 0.930 . S
H810 C823 0.930 . S
H811 C827 0.959 . S
H812 C827 0.959 . S
H813 C827 0.961 . S
H814 C828 0.960 . S
H815 C828 0.961 . S
H816 C828 0.959 . S
H817 C831 0.929 . S
H818 C832 0.931 . S
H819 C834 0.930 . S
C820 H808 0.930 . S
C820 C821 1.399 . S
C820 C825 1.399 . S
C821 C820 1.399 . S
C821 C822 1.376 . S
C822 H809 0.930 . S
C822 C821 1.376 . S
C822 C823 1.388 . S
C823 H810 0.930 . S
C823 C822 1.388 . S
C823 C824 1.390 . S
C824 C823 1.390 . S
C824 C825 1.394 . S
C824 C830 1.465 . S
C825 C820 1.399 . S
C825 C824 1.394 . S
C825 C826 1.516 . S
C826 C825 1.516 . S
C826 C827 1.502 . S
C826 C828 1.561 . S
C826 C829 1.526 . S
C827 H811 0.959 . S
C827 H812 0.959 . S
C827 H813 0.961 . S
C827 C826 1.502 . S
C828 H814 0.960 . S
C828 H815 0.961 . S
C828 H816 0.959 . S
C828 C826 1.561 . S
C829 C826 1.526 . S
C829 C830 1.396 . S
C829 C834 1.390 . S
C830 C824 1.465 . S
C830 C829 1.396 . S
C830 C831 1.399 . S
C831 H817 0.929 . S
C831 C830 1.399 . S
C831 C832 1.385 1_556 S
C832 H818 0.931 . S
C832 C831 1.385 1_554 S
C832 C833 1.389 . S
C833 C832 1.389 . S
C833 C834 1.387 1_554 S
C834 H819 0.930 . S
C834 C829 1.390 . S
C834 C833 1.387 1_556 S
H835 C847 0.930 . S
H836 C849 0.930 . S
H837 C850 0.930 . S
H838 C854 0.959 . S
H839 C854 0.959 . S
H840 C854 0.961 1_655 S
H841 C855 0.960 . S
H842 C855 0.961 . S
H843 C855 0.959 . S
H844 C858 0.929 . S
H845 C859 0.931 . S
H846 C861 0.930 . S
C847 H835 0.930 . S
C847 C848 1.399 . S
C847 C852 1.399 1_655 S
C848 C847 1.399 . S
C848 C849 1.376 1_655 S
C849 H836 0.930 . S
C849 C848 1.376 1_455 S
C849 C850 1.388 . S
C850 H837 0.930 . S
C850 C849 1.388 . S
C850 C851 1.390 . S
C851 C850 1.390 . S
C851 C852 1.394 . S
C851 C857 1.465 . S
C852 C847 1.399 1_455 S
C852 C851 1.394 . S
C852 C853 1.516 . S
C853 C852 1.516 . S
C853 C854 1.502 . S
C853 C855 1.561 . S
C853 C856 1.526 . S
C854 H838 0.959 . S
C854 H839 0.959 . S
C854 H840 0.961 1_455 S
C854 C853 1.502 . S
C855 H841 0.960 . S
C855 H842 0.961 . S
C855 H843 0.959 . S
C855 C853 1.561 . S
C856 C853 1.526 . S
C856 C857 1.396 . S
C856 C861 1.390 . S
C857 C851 1.465 . S
C857 C856 1.396 . S
C857 C858 1.399 . S
C858 H844 0.929 . S
C858 C857 1.399 . S
C858 C859 1.385 . S
C859 H845 0.931 . S
C859 C858 1.385 . S
C859 C860 1.389 . S
C860 C859 1.389 . S
C860 C861 1.387 . S
C861 H846 0.930 . S
C861 C856 1.390 . S
C861 C860 1.387 . S
H862 C874 0.930 . S
H863 C876 0.930 . S
H864 C877 0.930 . S
H865 C881 0.959 . S
H866 C881 0.959 . S
H867 C881 0.961 . S
H868 C882 0.960 . S
H869 C882 0.961 . S
H870 C882 0.959 . S
H871 C885 0.929 . S
H872 C886 0.931 . S
H873 C888 0.930 . S
C874 H862 0.930 . S
C874 C875 1.399 . S
C874 C879 1.399 . S
C875 C874 1.399 . S
C875 C876 1.376 . S
C876 H863 0.930 . S
C876 C875 1.376 . S
C876 C877 1.388 . S
C877 H864 0.930 . S
C877 C876 1.388 . S
C877 C878 1.390 . S
C878 C877 1.390 . S
C878 C879 1.394 . S
C878 C884 1.465 . S
C879 C874 1.399 . S
C879 C878 1.394 . S
C879 C880 1.516 . S
C880 C879 1.516 . S
C880 C881 1.502 . S
C880 C882 1.561 . S
C880 C883 1.526 . S
C881 H865 0.959 . S
C881 H866 0.959 . S
C881 H867 0.961 . S
C881 C880 1.502 . S
C882 H868 0.960 . S
C882 H869 0.961 . S
C882 H870 0.959 . S
C882 C880 1.561 . S
C883 C880 1.526 . S
C883 C884 1.396 . S
C883 C888 1.390 . S
C884 C878 1.465 . S
C884 C883 1.396 . S
C884 C885 1.399 . S
C885 H871 0.929 . S
C885 C884 1.399 . S
C885 C886 1.385 . S
C886 H872 0.931 . S
C886 C885 1.385 . S
C886 C887 1.389 . S
C887 C886 1.389 . S
C887 C888 1.387 . S
C888 H873 0.930 . S
C888 C883 1.390 . S
C888 C887 1.387 . S
H889 C901 0.930 1_455 S
H890 C903 0.930 . S
H891 C904 0.930 1_545 S
H892 C908 0.959 . S
H893 C908 0.959 . S
H894 C908 0.965 . S
H895 C909 0.960 . S
H896 C909 0.961 . S
H897 C909 0.959 . S
H898 C912 0.929 . S
H899 C913 0.931 . S
H900 C915 0.930 . S
C901 H889 0.930 1_655 S
C901 C902 1.395 1_655 S
C901 C906 1.399 . S
C902 C901 1.395 1_455 S
C902 C903 1.369 1_455 S
C903 H890 0.930 . S
C903 C902 1.369 1_655 S
C903 C904 1.388 . S
C904 H891 0.930 1_565 S
C904 C903 1.388 . S
C904 C905 1.396 . S
C905 C904 1.396 . S
C905 C906 1.402 . S
C905 C911 1.452 1_565 S
C906 C901 1.399 . S
C906 C905 1.402 . S
C906 C907 1.516 . S
C907 C906 1.516 . S
C907 C908 1.502 1_565 S
C907 C909 1.561 . S
C907 C910 1.526 1_565 S
C908 H892 0.959 . S
C908 H893 0.959 . S
C908 H894 0.965 . S
C908 C907 1.502 1_545 S
C909 H895 0.960 . S
C909 H896 0.961 . S
C909 H897 0.959 . S
C909 C907 1.561 . S
C910 C907 1.526 1_545 S
C910 C911 1.396 . S
C910 C915 1.390 . S
C911 C905 1.452 1_545 S
C911 C910 1.396 . S
C911 C912 1.399 . S
C912 H898 0.929 . S
C912 C911 1.399 . S
C912 C913 1.385 . S
C913 H899 0.931 . S
C913 C912 1.385 . S
C913 C914 1.389 . S
C914 C913 1.389 . S
C914 C915 1.387 . S
C915 H900 0.930 . S
C915 C910 1.390 . S
C915 C914 1.387 . S
H916 C928 0.930 . S
H917 C930 0.930 . S
H918 C931 0.930 . S
H919 C935 0.959 . S
H920 C935 0.959 . S
H921 C935 0.961 . S
H922 C936 0.960 . S
H923 C936 0.961 . S
H924 C936 0.959 . S
H925 C939 0.929 . S
H926 C940 0.931 . S
H927 C942 0.930 . S
C928 H916 0.930 . S
C928 C929 1.399 . S
C928 C933 1.399 . S
C929 C928 1.399 . S
C929 C930 1.376 . S
C930 H917 0.930 . S
C930 C929 1.376 . S
C930 C931 1.388 . S
C931 H918 0.930 . S
C931 C930 1.388 . S
C931 C932 1.390 . S
C932 C931 1.390 . S
C932 C933 1.394 . S
C932 C938 1.465 . S
C933 C928 1.399 . S
C933 C932 1.394 . S
C933 C934 1.516 . S
C934 C933 1.516 . S
C934 C935 1.502 . S
C934 C936 1.561 . S
C934 C937 1.526 . S
C935 H919 0.959 . S
C935 H920 0.959 . S
C935 H921 0.961 . S
C935 C934 1.502 . S
C936 H922 0.960 . S
C936 H923 0.961 . S
C936 H924 0.959 . S
C936 C934 1.561 . S
C937 C934 1.526 . S
C937 C938 1.396 . S
C937 C942 1.390 . S
C938 C932 1.465 . S
C938 C937 1.396 . S
C938 C939 1.399 . S
C939 H925 0.929 . S
C939 C938 1.399 . S
C939 C940 1.385 . S
C940 H926 0.931 . S
C940 C939 1.385 . S
C940 C941 1.389 . S
C941 C940 1.389 . S
C941 C942 1.387 . S
C942 H927 0.930 . S
C942 C937 1.390 . S
C942 C941 1.387 . S
H943 C955 0.930 . S
H944 C957 0.930 . S
H945 C958 0.930 . S
H946 C962 0.959 . S
H947 C962 0.959 . S
H948 C962 0.961 . S
H949 C963 0.960 . S
H950 C963 0.961 . S
H951 C963 0.959 . S
H952 C966 0.929 . S
H953 C967 0.931 . S
H954 C969 0.930 . S
C955 H943 0.930 . S
C955 C956 1.399 . S
C955 C960 1.399 . S
C956 C955 1.399 . S
C956 C957 1.376 . S
C957 H944 0.930 . S
C957 C956 1.376 . S
C957 C958 1.388 . S
C958 H945 0.930 . S
C958 C957 1.388 . S
C958 C959 1.390 . S
C959 C958 1.390 . S
C959 C960 1.394 . S
C959 C965 1.465 . S
C960 C955 1.399 . S
C960 C959 1.394 . S
C960 C961 1.516 . S
C961 C960 1.516 . S
C961 C962 1.502 . S
C961 C963 1.561 . S
C961 C964 1.526 . S
C962 H946 0.959 . S
C962 H947 0.959 . S
C962 H948 0.961 . S
C962 C961 1.502 . S
C963 H949 0.960 . S
C963 H950 0.961 . S
C963 H951 0.959 . S
C963 C961 1.561 . S
C964 C961 1.526 . S
C964 C965 1.396 . S
C964 C969 1.390 . S
C965 C959 1.465 . S
C965 C964 1.396 . S
C965 C966 1.399 . S
C966 H952 0.929 . S
C966 C965 1.399 . S
C966 C967 1.385 . S
C967 H953 0.931 . S
C967 C966 1.385 . S
C967 C968 1.389 . S
C968 C967 1.389 . S
C968 C969 1.387 . S
C969 H954 0.930 . S
C969 C964 1.390 . S
C969 C968 1.387 . S
H970 C982 0.930 . S
H971 C984 0.930 . S
H972 C985 0.930 . S
H973 C989 0.959 . S
H974 C989 0.959 . S
H975 C989 0.961 . S
H976 C990 0.960 . S
H977 C990 0.961 . S
H978 C990 0.959 . S
H979 C993 0.929 . S
H980 C994 0.931 . S
H981 C996 0.930 . S
C982 H970 0.930 . S
C982 C983 1.399 . S
C982 C987 1.399 . S
C983 C982 1.399 . S
C983 C984 1.376 . S
C984 H971 0.930 . S
C984 C983 1.376 . S
C984 C985 1.388 . S
C985 H972 0.930 . S
C985 C984 1.388 . S
C985 C986 1.390 . S
C986 C985 1.390 . S
C986 C987 1.394 . S
C986 C992 1.465 . S
C987 C982 1.399 . S
C987 C986 1.394 . S
C987 C988 1.516 . S
C988 C987 1.516 . S
C988 C989 1.502 . S
C988 C990 1.561 . S
C988 C991 1.526 . S
C989 H973 0.959 . S
C989 H974 0.959 . S
C989 H975 0.961 . S
C989 C988 1.502 . S
C990 H976 0.960 . S
C990 H977 0.961 . S
C990 H978 0.959 . S
C990 C988 1.561 . S
C991 C988 1.526 . S
C991 C992 1.396 . S
C991 C996 1.390 . S
C992 C986 1.465 . S
C992 C991 1.396 . S
C992 C993 1.399 . S
C993 H979 0.929 . S
C993 C992 1.399 . S
C993 C994 1.385 . S
C994 H980 0.931 . S
C994 C993 1.385 . S
C994 C995 1.389 . S
C995 C994 1.389 . S
C995 C996 1.387 . S
C996 H981 0.930 . S
C996 C991 1.390 . S
C996 C995 1.387 . S
H997 C1009 0.930 . S
H998 C1011 0.930 . S
H999 C1012 0.930 . S
H1000 C1016 0.959 . S
H1001 C1016 0.959 . S
H1002 C1016 0.961 . S
H1003 C1017 0.960 . S
H1004 C1017 0.961 . S
H1005 C1017 0.959 . S
H1006 C1020 0.929 1_545 S
H1007 C1021 0.931 1_545 S
H1008 C1023 0.930 . S
C1009 H997 0.930 . S
C1009 C1010 1.399 . S
C1009 C1014 1.399 . S
C1010 C1009 1.399 . S
C1010 C1011 1.376 . S
C1011 H998 0.930 . S
C1011 C1010 1.376 . S
C1011 C1012 1.388 . S
C1012 H999 0.930 . S
C1012 C1011 1.388 . S
C1012 C1013 1.390 . S
C1013 C1012 1.390 . S
C1013 C1014 1.394 . S
C1013 C1019 1.465 . S
C1014 C1009 1.399 . S
C1014 C1013 1.394 . S
C1014 C1015 1.516 . S
C1015 C1014 1.516 . S
C1015 C1016 1.502 . S
C1015 C1017 1.561 . S
C1015 C1018 1.526 . S
C1016 H1000 0.959 . S
C1016 H1001 0.959 . S
C1016 H1002 0.961 . S
C1016 C1015 1.502 . S
C1017 H1003 0.960 . S
C1017 H1004 0.961 . S
C1017 H1005 0.959 . S
C1017 C1015 1.561 . S
C1018 C1015 1.526 . S
C1018 C1019 1.396 . S
C1018 C1023 1.390 . S
C1019 C1013 1.465 . S
C1019 C1018 1.396 . S
C1019 C1020 1.399 . S
C1020 H1006 0.929 1_565 S
C1020 C1019 1.399 . S
C1020 C1021 1.385 . S
C1021 H1007 0.931 1_565 S
C1021 C1020 1.385 . S
C1021 C1022 1.389 . S
C1022 C1021 1.389 . S
C1022 C1023 1.387 . S
C1023 H1008 0.930 . S
C1023 C1018 1.390 . S
C1023 C1022 1.387 . S
H1024 C1036 0.930 . S
H1025 C1038 0.930 . S
H1026 C1039 0.930 . S
H1027 C1043 0.959 . S
H1028 C1043 0.959 . S
H1029 C1043 0.961 . S
H1030 C1044 0.960 . S
H1031 C1044 0.961 . S
H1032 C1044 0.959 . S
H1033 C1047 0.929 . S
H1034 C1048 0.931 . S
H1035 C1050 0.930 . S
C1036 H1024 0.930 . S
C1036 C1037 1.399 . S
C1036 C1041 1.399 . S
C1037 C1036 1.399 . S
C1037 C1038 1.376 . S
C1038 H1025 0.930 . S
C1038 C1037 1.376 . S
C1038 C1039 1.388 . S
C1039 H1026 0.930 . S
C1039 C1038 1.388 . S
C1039 C1040 1.390 . S
C1040 C1039 1.390 . S
C1040 C1041 1.394 . S
C1040 C1046 1.465 . S
C1041 C1036 1.399 . S
C1041 C1040 1.394 . S
C1041 C1042 1.516 . S
C1042 C1041 1.516 . S
C1042 C1043 1.502 . S
C1042 C1044 1.561 . S
C1042 C1045 1.526 . S
C1043 H1027 0.959 . S
C1043 H1028 0.959 . S
C1043 H1029 0.961 . S
C1043 C1042 1.502 . S
C1044 H1030 0.960 . S
C1044 H1031 0.961 . S
C1044 H1032 0.959 . S
C1044 C1042 1.561 . S
C1045 C1042 1.526 . S
C1045 C1046 1.396 . S
C1045 C1050 1.390 . S
C1046 C1040 1.465 . S
C1046 C1045 1.396 . S
C1046 C1047 1.399 . S
C1047 H1033 0.929 . S
C1047 C1046 1.399 . S
C1047 C1048 1.385 . S
C1048 H1034 0.931 . S
C1048 C1047 1.385 . S
C1048 C1049 1.389 . S
C1049 C1048 1.389 . S
C1049 C1050 1.387 . S
C1050 H1035 0.930 . S
C1050 C1045 1.390 . S
C1050 C1049 1.387 . S
H1051 C1063 0.930 . S
H1052 C1065 0.930 . S
H1053 C1066 0.930 . S
H1054 C1070 0.959 . S
H1055 C1070 0.959 . S
H1056 C1070 0.961 . S
H1057 C1071 0.960 . S
H1058 C1071 0.961 . S
H1059 C1071 0.959 . S
H1060 C1074 0.929 . S
H1061 C1075 0.931 . S
H1062 C1077 0.930 . S
C1063 H1051 0.930 . S
C1063 C1064 1.399 . S
C1063 C1068 1.399 . S
C1064 C1063 1.399 . S
C1064 C1065 1.376 . S
C1065 H1052 0.930 . S
C1065 C1064 1.376 . S
C1065 C1066 1.388 . S
C1066 H1053 0.930 . S
C1066 C1065 1.388 . S
C1066 C1067 1.390 . S
C1067 C1066 1.390 . S
C1067 C1068 1.394 . S
C1067 C1073 1.465 . S
C1068 C1063 1.399 . S
C1068 C1067 1.394 . S
C1068 C1069 1.516 . S
C1069 C1068 1.516 . S
C1069 C1070 1.502 . S
C1069 C1071 1.561 . S
C1069 C1072 1.526 . S
C1070 H1054 0.959 . S
C1070 H1055 0.959 . S
C1070 H1056 0.961 . S
C1070 C1069 1.502 . S
C1071 H1057 0.960 . S
C1071 H1058 0.961 . S
C1071 H1059 0.959 . S
C1071 C1069 1.561 . S
C1072 C1069 1.526 . S
C1072 C1073 1.396 . S
C1072 C1077 1.390 . S
C1073 C1067 1.465 . S
C1073 C1072 1.396 . S
C1073 C1074 1.399 . S
C1074 H1060 0.929 . S
C1074 C1073 1.399 . S
C1074 C1075 1.385 . S
C1075 H1061 0.931 . S
C1075 C1074 1.385 . S
C1075 C1076 1.389 . S
C1076 C1075 1.389 . S
C1076 C1077 1.387 . S
C1077 H1062 0.930 . S
C1077 C1072 1.390 . S
C1077 C1076 1.387 . S
H1078 C1090 0.930 . S
H1079 C1092 0.930 . S
H1080 C1093 0.930 . S
H1081 C1097 0.959 . S
H1082 C1097 0.959 . S
H1083 C1097 0.961 . S
H1084 C1098 0.960 . S
H1085 C1098 0.961 . S
H1086 C1098 0.959 . S
H1087 C1101 0.929 . S
H1088 C1102 0.931 . S
H1089 C1104 0.930 . S
C1090 H1078 0.930 . S
C1090 C1091 1.399 . S
C1090 C1095 1.399 . S
C1091 C1090 1.399 . S
C1091 C1092 1.376 . S
C1092 H1079 0.930 . S
C1092 C1091 1.376 . S
C1092 C1093 1.388 . S
C1093 H1080 0.930 . S
C1093 C1092 1.388 . S
C1093 C1094 1.390 . S
C1094 C1093 1.390 . S
C1094 C1095 1.394 . S
C1094 C1100 1.465 . S
C1095 C1090 1.399 . S
C1095 C1094 1.394 . S
C1095 C1096 1.516 . S
C1096 C1095 1.516 . S
C1096 C1097 1.502 . S
C1096 C1098 1.561 . S
C1096 C1099 1.526 . S
C1097 H1081 0.959 . S
C1097 H1082 0.959 . S
C1097 H1083 0.961 . S
C1097 C1096 1.502 . S
C1098 H1084 0.960 . S
C1098 H1085 0.961 . S
C1098 H1086 0.959 . S
C1098 C1096 1.561 . S
C1099 C1096 1.526 . S
C1099 C1100 1.396 . S
C1099 C1104 1.390 . S
C1100 C1094 1.465 . S
C1100 C1099 1.396 . S
C1100 C1101 1.399 . S
C1101 H1087 0.929 . S
C1101 C1100 1.399 . S
C1101 C1102 1.385 . S
C1102 H1088 0.931 . S
C1102 C1101 1.385 . S
C1102 C1103 1.389 . S
C1103 C1102 1.389 . S
C1103 C1104 1.387 . S
C1104 H1089 0.930 . S
C1104 C1099 1.390 . S
C1104 C1103 1.387 . S
H1105 C1117 0.930 . S
H1106 C1119 0.930 . S
H1107 C1120 0.930 . S
H1108 C1124 0.959 . S
H1109 C1124 0.959 . S
H1110 C1124 0.961 . S
H1111 C1125 0.960 . S
H1112 C1125 0.961 . S
H1113 C1125 0.959 . S
H1114 C1128 0.929 . S
H1115 C1129 0.931 . S
H1116 C1131 0.930 . S
C1117 H1105 0.930 . S
C1117 C1118 1.399 . S
C1117 C1122 1.399 . S
C1118 C1117 1.399 . S
C1118 C1119 1.376 . S
C1119 H1106 0.930 . S
C1119 C1118 1.376 . S
C1119 C1120 1.388 . S
C1120 H1107 0.930 . S
C1120 C1119 1.388 . S
C1120 C1121 1.390 . S
C1121 C1120 1.390 . S
C1121 C1122 1.394 . S
C1121 C1127 1.465 . S
C1122 C1117 1.399 . S
C1122 C1121 1.394 . S
C1122 C1123 1.516 . S
C1123 C1122 1.516 . S
C1123 C1124 1.502 . S
C1123 C1125 1.561 . S
C1123 C1126 1.526 . S
C1124 H1108 0.959 . S
C1124 H1109 0.959 . S
C1124 H1110 0.961 . S
C1124 C1123 1.502 . S
C1125 H1111 0.960 . S
C1125 H1112 0.961 . S
C1125 H1113 0.959 . S
C1125 C1123 1.561 . S
C1126 C1123 1.526 . S
C1126 C1127 1.396 . S
C1126 C1131 1.390 . S
C1127 C1121 1.465 . S
C1127 C1126 1.396 . S
C1127 C1128 1.399 . S
C1128 H1114 0.929 . S
C1128 C1127 1.399 . S
C1128 C1129 1.385 . S
C1129 H1115 0.931 . S
C1129 C1128 1.385 . S
C1129 C1130 1.389 . S
C1130 C1129 1.389 . S
C1130 C1131 1.387 . S
C1131 H1116 0.930 . S
C1131 C1126 1.390 . S
C1131 C1130 1.387 . S
H1132 C1144 0.930 . S
H1133 C1146 0.930 . S
H1134 C1147 0.930 . S
H1135 C1151 0.959 . S
H1136 C1151 0.959 . S
H1137 C1151 0.961 . S
H1138 C1152 0.960 . S
H1139 C1152 0.961 . S
H1140 C1152 0.959 . S
H1141 C1155 0.929 . S
H1142 C1156 0.931 . S
H1143 C1158 0.930 . S
C1144 H1132 0.930 . S
C1144 C1145 1.399 . S
C1144 C1149 1.399 . S
C1145 C1144 1.399 . S
C1145 C1146 1.376 . S
C1146 H1133 0.930 . S
C1146 C1145 1.376 . S
C1146 C1147 1.388 . S
C1147 H1134 0.930 . S
C1147 C1146 1.388 . S
C1147 C1148 1.390 . S
C1148 C1147 1.390 . S
C1148 C1149 1.394 . S
C1148 C1154 1.465 . S
C1149 C1144 1.399 . S
C1149 C1148 1.394 . S
C1149 C1150 1.516 . S
C1150 C1149 1.516 . S
C1150 C1151 1.502 . S
C1150 C1152 1.561 . S
C1150 C1153 1.526 . S
C1151 H1135 0.959 . S
C1151 H1136 0.959 . S
C1151 H1137 0.961 . S
C1151 C1150 1.502 . S
C1152 H1138 0.960 . S
C1152 H1139 0.961 . S
C1152 H1140 0.959 . S
C1152 C1150 1.561 . S
C1153 C1150 1.526 . S
C1153 C1154 1.396 . S
C1153 C1158 1.390 . S
C1154 C1148 1.465 . S
C1154 C1153 1.396 . S
C1154 C1155 1.399 . S
C1155 H1141 0.929 . S
C1155 C1154 1.399 . S
C1155 C1156 1.385 . S
C1156 H1142 0.931 . S
C1156 C1155 1.385 . S
C1156 C1157 1.389 . S
C1157 C1156 1.389 . S
C1157 C1158 1.387 . S
C1158 H1143 0.930 . S
C1158 C1153 1.390 . S
C1158 C1157 1.387 . S
H1159 C1171 0.930 . S
H1160 C1173 0.930 . S
H1161 C1174 0.930 . S
H1162 C1178 0.959 . S
H1163 C1178 0.959 . S
H1164 C1178 0.961 . S
H1165 C1179 0.960 . S
H1166 C1179 0.961 . S
H1167 C1179 0.959 . S
H1168 C1182 0.929 . S
H1169 C1183 0.931 . S
H1170 C1185 0.930 . S
C1171 H1159 0.930 . S
C1171 C1172 1.399 . S
C1171 C1176 1.399 . S
C1172 C1171 1.399 . S
C1172 C1173 1.376 . S
C1173 H1160 0.930 . S
C1173 C1172 1.376 . S
C1173 C1174 1.388 . S
C1174 H1161 0.930 . S
C1174 C1173 1.388 . S
C1174 C1175 1.390 . S
C1175 C1174 1.390 . S
C1175 C1176 1.394 . S
C1175 C1181 1.465 . S
C1176 C1171 1.399 . S
C1176 C1175 1.394 . S
C1176 C1177 1.516 . S
C1177 C1176 1.516 . S
C1177 C1178 1.502 . S
C1177 C1179 1.561 . S
C1177 C1180 1.526 . S
C1178 H1162 0.959 . S
C1178 H1163 0.959 . S
C1178 H1164 0.961 . S
C1178 C1177 1.502 . S
C1179 H1165 0.960 . S
C1179 H1166 0.961 . S
C1179 H1167 0.959 . S
C1179 C1177 1.561 . S
C1180 C1177 1.526 . S
C1180 C1181 1.396 . S
C1180 C1185 1.390 . S
C1181 C1175 1.465 . S
C1181 C1180 1.396 . S
C1181 C1182 1.399 . S
C1182 H1168 0.929 . S
C1182 C1181 1.399 . S
C1182 C1183 1.385 . S
C1183 H1169 0.931 . S
C1183 C1182 1.385 . S
C1183 C1184 1.389 . S
C1184 C1183 1.389 . S
C1184 C1185 1.387 . S
C1185 H1170 0.930 . S
C1185 C1180 1.390 . S
C1185 C1184 1.387 . S
H1186 C1198 0.930 . S
H1187 C1200 0.930 . S
H1188 C1201 0.930 . S
H1189 C1205 0.959 . S
H1190 C1205 0.959 . S
H1191 C1205 0.961 . S
H1192 C1206 0.960 . S
H1193 C1206 0.961 . S
H1194 C1206 0.959 . S
H1195 C1209 0.929 . S
H1196 C1210 0.931 . S
H1197 C1212 0.930 . S
C1198 H1186 0.930 . S
C1198 C1199 1.399 . S
C1198 C1203 1.399 . S
C1199 C1198 1.399 . S
C1199 C1200 1.376 . S
C1200 H1187 0.930 . S
C1200 C1199 1.376 . S
C1200 C1201 1.388 . S
C1201 H1188 0.930 . S
C1201 C1200 1.388 . S
C1201 C1202 1.390 . S
C1202 C1201 1.390 . S
C1202 C1203 1.394 . S
C1202 C1208 1.465 . S
C1203 C1198 1.399 . S
C1203 C1202 1.394 . S
C1203 C1204 1.516 . S
C1204 C1203 1.516 . S
C1204 C1205 1.502 . S
C1204 C1206 1.561 . S
C1204 C1207 1.526 . S
C1205 H1189 0.959 . S
C1205 H1190 0.959 . S
C1205 H1191 0.961 . S
C1205 C1204 1.502 . S
C1206 H1192 0.960 . S
C1206 H1193 0.961 . S
C1206 H1194 0.959 . S
C1206 C1204 1.561 . S
C1207 C1204 1.526 . S
C1207 C1208 1.396 . S
C1207 C1212 1.390 . S
C1208 C1202 1.465 . S
C1208 C1207 1.396 . S
C1208 C1209 1.399 . S
C1209 H1195 0.929 . S
C1209 C1208 1.399 . S
C1209 C1210 1.385 . S
C1210 H1196 0.931 . S
C1210 C1209 1.385 . S
C1210 C1211 1.389 . S
C1211 C1210 1.389 . S
C1211 C1212 1.387 . S
C1212 H1197 0.930 . S
C1212 C1207 1.390 . S
C1212 C1211 1.387 . S
H1213 C1225 0.930 . S
H1214 C1227 0.930 . S
H1215 C1228 0.930 . S
H1216 C1232 0.959 . S
H1217 C1232 0.959 . S
H1218 C1232 0.961 . S
H1219 C1233 0.960 . S
H1220 C1233 0.961 . S
H1221 C1233 0.959 . S
H1222 C1236 0.929 . S
H1223 C1237 0.931 . S
H1224 C1239 0.930 . S
C1225 H1213 0.930 . S
C1225 C1226 1.399 . S
C1225 C1230 1.399 . S
C1226 C1225 1.399 . S
C1226 C1227 1.376 . S
C1227 H1214 0.930 . S
C1227 C1226 1.376 . S
C1227 C1228 1.388 . S
C1228 H1215 0.930 . S
C1228 C1227 1.388 . S
C1228 C1229 1.390 . S
C1229 C1228 1.390 . S
C1229 C1230 1.394 . S
C1229 C1235 1.465 . S
C1230 C1225 1.399 . S
C1230 C1229 1.394 . S
C1230 C1231 1.516 . S
C1231 C1230 1.516 . S
C1231 C1232 1.502 . S
C1231 C1233 1.561 . S
C1231 C1234 1.526 . S
C1232 H1216 0.959 . S
C1232 H1217 0.959 . S
C1232 H1218 0.961 . S
C1232 C1231 1.502 . S
C1233 H1219 0.960 . S
C1233 H1220 0.961 . S
C1233 H1221 0.959 . S
C1233 C1231 1.561 . S
C1234 C1231 1.526 . S
C1234 C1235 1.396 . S
C1234 C1239 1.390 . S
C1235 C1229 1.465 . S
C1235 C1234 1.396 . S
C1235 C1236 1.399 . S
C1236 H1222 0.929 . S
C1236 C1235 1.399 . S
C1236 C1237 1.385 . S
C1237 H1223 0.931 . S
C1237 C1236 1.385 . S
C1237 C1238 1.389 . S
C1238 C1237 1.389 . S
C1238 C1239 1.387 . S
C1239 H1224 0.930 . S
C1239 C1234 1.390 . S
C1239 C1238 1.387 . S
H1240 C1252 0.930 . S
H1241 C1254 0.930 . S
H1242 C1255 0.930 . S
H1243 C1259 0.959 . S
H1244 C1259 0.959 . S
H1245 C1259 0.961 . S
H1246 C1260 0.960 . S
H1247 C1260 0.961 . S
H1248 C1260 0.959 . S
H1249 C1263 0.929 . S
H1250 C1264 0.931 1_545 S
H1251 C1266 0.931 . S
C1252 H1240 0.930 . S
C1252 C1253 1.399 . S
C1252 C1257 1.399 . S
C1253 C1252 1.399 . S
C1253 C1254 1.376 . S
C1254 H1241 0.930 . S
C1254 C1253 1.376 . S
C1254 C1255 1.388 . S
C1255 H1242 0.930 . S
C1255 C1254 1.388 . S
C1255 C1256 1.390 . S
C1256 C1255 1.390 . S
C1256 C1257 1.394 . S
C1256 C1262 1.465 . S
C1257 C1252 1.399 . S
C1257 C1256 1.394 . S
C1257 C1258 1.516 . S
C1258 C1257 1.516 . S
C1258 C1259 1.502 . S
C1258 C1260 1.561 . S
C1258 C1261 1.526 . S
C1259 H1243 0.959 . S
C1259 H1244 0.959 . S
C1259 H1245 0.961 . S
C1259 C1258 1.502 . S
C1260 H1246 0.960 . S
C1260 H1247 0.961 . S
C1260 H1248 0.959 . S
C1260 C1258 1.561 . S
C1261 C1258 1.526 . S
C1261 C1262 1.396 . S
C1261 C1266 1.388 1_565 S
C1262 C1256 1.465 . S
C1262 C1261 1.396 . S
C1262 C1263 1.399 . S
C1263 H1249 0.929 . S
C1263 C1262 1.399 . S
C1263 C1264 1.385 . S
C1264 H1250 0.931 1_565 S
C1264 C1263 1.385 . S
C1264 C1265 1.389 1_565 S
C1265 C1264 1.389 1_545 S
C1265 C1266 1.387 . S
C1266 H1251 0.931 . S
C1266 C1261 1.388 1_545 S
C1266 C1265 1.387 . S
H1267 C1279 0.930 . S
H1268 C1281 0.930 . S
H1269 C1282 0.930 . S
H1270 C1286 0.959 . S
H1271 C1286 0.959 . S
H1272 C1286 0.961 . S
H1273 C1287 0.960 . S
H1274 C1287 0.961 . S
H1275 C1287 0.959 . S
H1276 C1290 0.929 . S
H1277 C1291 0.931 . S
H1278 C1293 0.930 . S
C1279 H1267 0.930 . S
C1279 C1280 1.399 . S
C1279 C1284 1.399 . S
C1280 C1279 1.399 . S
C1280 C1281 1.376 . S
C1281 H1268 0.930 . S
C1281 C1280 1.376 . S
C1281 C1282 1.388 . S
C1282 H1269 0.930 . S
C1282 C1281 1.388 . S
C1282 C1283 1.390 . S
C1283 C1282 1.390 . S
C1283 C1284 1.394 . S
C1283 C1289 1.465 . S
C1284 C1279 1.399 . S
C1284 C1283 1.394 . S
C1284 C1285 1.516 . S
C1285 C1284 1.516 . S
C1285 C1286 1.502 . S
C1285 C1287 1.561 . S
C1285 C1288 1.526 . S
C1286 H1270 0.959 . S
C1286 H1271 0.959 . S
C1286 H1272 0.961 . S
C1286 C1285 1.502 . S
C1287 H1273 0.960 . S
C1287 H1274 0.961 . S
C1287 H1275 0.959 . S
C1287 C1285 1.561 . S
C1288 C1285 1.526 . S
C1288 C1289 1.396 . S
C1288 C1293 1.390 . S
C1289 C1283 1.465 . S
C1289 C1288 1.396 . S
C1289 C1290 1.399 . S
C1290 H1276 0.929 . S
C1290 C1289 1.399 . S
C1290 C1291 1.385 . S
C1291 H1277 0.931 . S
C1291 C1290 1.385 . S
C1291 C1292 1.389 . S
C1292 C1291 1.389 . S
C1292 C1293 1.387 . S
C1293 H1278 0.930 . S
C1293 C1288 1.390 . S
C1293 C1292 1.387 . S
H1294 C1306 0.930 . S
H1295 C1308 0.930 . S
H1296 C1309 0.930 . S
H1297 C1313 0.959 . S
H1298 C1313 0.959 . S
H1299 C1313 0.961 1_556 S
H1300 C1314 0.960 . S
H1301 C1314 0.961 . S
H1302 C1314 0.959 . S
H1303 C1317 0.929 . S
H1304 C1318 0.931 . S
H1305 C1320 0.930 . S
C1306 H1294 0.930 . S
C1306 C1307 1.399 . S
C1306 C1311 1.399 . S
C1307 C1306 1.399 . S
C1307 C1308 1.376 . S
C1308 H1295 0.930 . S
C1308 C1307 1.376 . S
C1308 C1309 1.388 1_545 S
C1309 H1296 0.930 . S
C1309 C1308 1.388 1_565 S
C1309 C1310 1.390 . S
C1310 C1309 1.390 . S
C1310 C1311 1.394 1_565 S
C1310 C1316 1.461 1_556 S
C1311 C1306 1.399 . S
C1311 C1310 1.394 1_545 S
C1311 C1312 1.516 1_545 S
C1312 C1311 1.516 1_565 S
C1312 C1313 1.502 1_566 S
C1312 C1314 1.561 . S
C1312 C1315 1.526 1_556 S
C1313 H1297 0.959 . S
C1313 H1298 0.959 . S
C1313 H1299 0.961 1_554 S
C1313 C1312 1.502 1_544 S
C1314 H1300 0.960 . S
C1314 H1301 0.961 . S
C1314 H1302 0.959 . S
C1314 C1312 1.561 . S
C1315 C1312 1.526 1_554 S
C1315 C1316 1.397 . S
C1315 C1320 1.390 . S
C1316 C1310 1.461 1_554 S
C1316 C1315 1.397 . S
C1316 C1317 1.402 . S
C1317 H1303 0.929 . S
C1317 C1316 1.402 . S
C1317 C1318 1.385 . S
C1318 H1304 0.931 . S
C1318 C1317 1.385 . S
C1318 C1319 1.389 . S
C1319 C1318 1.389 . S
C1319 C1320 1.387 . S
C1320 H1305 0.930 . S
C1320 C1315 1.390 . S
C1320 C1319 1.387 . S
H1321 C1333 0.930 . S
H1322 C1335 0.930 . S
H1323 C1336 0.930 . S
H1324 C1340 0.959 . S
H1325 C1340 0.959 . S
H1326 C1340 0.961 . S
H1327 C1341 0.960 . S
H1328 C1341 0.961 . S
H1329 C1341 0.959 . S
H1330 C1344 0.929 . S
H1331 C1345 0.931 . S
H1332 C1347 0.930 . S
C1333 H1321 0.930 . S
C1333 C1334 1.399 . S
C1333 C1338 1.399 . S
C1334 C1333 1.399 . S
C1334 C1335 1.376 . S
C1335 H1322 0.930 . S
C1335 C1334 1.376 . S
C1335 C1336 1.388 . S
C1336 H1323 0.930 . S
C1336 C1335 1.388 . S
C1336 C1337 1.390 . S
C1337 C1336 1.390 . S
C1337 C1338 1.394 . S
C1337 C1343 1.465 . S
C1338 C1333 1.399 . S
C1338 C1337 1.394 . S
C1338 C1339 1.516 . S
C1339 C1338 1.516 . S
C1339 C1340 1.502 . S
C1339 C1341 1.561 . S
C1339 C1342 1.526 . S
C1340 H1324 0.959 . S
C1340 H1325 0.959 . S
C1340 H1326 0.961 . S
C1340 C1339 1.502 . S
C1341 H1327 0.960 . S
C1341 H1328 0.961 . S
C1341 H1329 0.959 . S
C1341 C1339 1.561 . S
C1342 C1339 1.526 . S
C1342 C1343 1.396 . S
C1342 C1347 1.390 . S
C1343 C1337 1.465 . S
C1343 C1342 1.396 . S
C1343 C1344 1.399 . S
C1344 H1330 0.929 . S
C1344 C1343 1.399 . S
C1344 C1345 1.385 . S
C1345 H1331 0.931 . S
C1345 C1344 1.385 . S
C1345 C1346 1.389 . S
C1346 C1345 1.389 . S
C1346 C1347 1.387 . S
C1347 H1332 0.930 . S
C1347 C1342 1.390 . S
C1347 C1346 1.387 . S
H1348 C1360 0.930 . S
H1349 C1362 0.930 . S
H1350 C1363 0.930 . S
H1351 C1367 0.959 . S
H1352 C1367 0.959 . S
H1353 C1367 0.961 . S
H1354 C1368 0.960 . S
H1355 C1368 0.961 . S
H1356 C1368 0.959 . S
H1357 C1371 0.929 . S
H1358 C1372 0.931 . S
H1359 C1374 0.930 . S
C1360 H1348 0.930 . S
C1360 C1361 1.399 . S
C1360 C1365 1.399 . S
C1361 C1360 1.399 . S
C1361 C1362 1.376 . S
C1362 H1349 0.930 . S
C1362 C1361 1.376 . S
C1362 C1363 1.388 . S
C1363 H1350 0.930 . S
C1363 C1362 1.388 . S
C1363 C1364 1.390 . S
C1364 C1363 1.390 . S
C1364 C1365 1.394 . S
C1364 C1370 1.465 . S
C1365 C1360 1.399 . S
C1365 C1364 1.394 . S
C1365 C1366 1.516 . S
C1366 C1365 1.516 . S
C1366 C1367 1.502 . S
C1366 C1368 1.561 . S
C1366 C1369 1.526 . S
C1367 H1351 0.959 . S
C1367 H1352 0.959 . S
C1367 H1353 0.961 . S
C1367 C1366 1.502 . S
C1368 H1354 0.960 . S
C1368 H1355 0.961 . S
C1368 H1356 0.959 . S
C1368 C1366 1.561 . S
C1369 C1366 1.526 . S
C1369 C1370 1.396 . S
C1369 C1374 1.390 . S
C1370 C1364 1.465 . S
C1370 C1369 1.396 . S
C1370 C1371 1.399 . S
C1371 H1357 0.929 . S
C1371 C1370 1.399 . S
C1371 C1372 1.385 . S
C1372 H1358 0.931 . S
C1372 C1371 1.385 . S
C1372 C1373 1.389 . S
C1373 C1372 1.389 . S
C1373 C1374 1.387 . S
C1374 H1359 0.930 . S
C1374 C1369 1.390 . S
C1374 C1373 1.387 . S
H1375 C1387 0.930 . S
H1376 C1389 0.930 . S
H1377 C1390 0.930 . S
H1378 C1394 0.959 . S
H1379 C1394 0.959 . S
H1380 C1394 0.961 . S
H1381 C1395 0.960 . S
H1382 C1395 0.961 . S
H1383 C1395 0.959 . S
H1384 C1398 0.929 . S
H1385 C1399 0.931 . S
H1386 C1401 0.930 . S
C1387 H1375 0.930 . S
C1387 C1388 1.399 . S
C1387 C1392 1.399 . S
C1388 C1387 1.399 . S
C1388 C1389 1.376 . S
C1389 H1376 0.930 . S
C1389 C1388 1.376 . S
C1389 C1390 1.388 . S
C1390 H1377 0.930 . S
C1390 C1389 1.388 . S
C1390 C1391 1.390 . S
C1391 C1390 1.390 . S
C1391 C1392 1.394 . S
C1391 C1397 1.465 . S
C1392 C1387 1.399 . S
C1392 C1391 1.394 . S
C1392 C1393 1.516 . S
C1393 C1392 1.516 . S
C1393 C1394 1.502 . S
C1393 C1395 1.561 . S
C1393 C1396 1.526 . S
C1394 H1378 0.959 . S
C1394 H1379 0.959 . S
C1394 H1380 0.961 . S
C1394 C1393 1.502 . S
C1395 H1381 0.960 . S
C1395 H1382 0.961 . S
C1395 H1383 0.959 . S
C1395 C1393 1.561 . S
C1396 C1393 1.526 . S
C1396 C1397 1.396 . S
C1396 C1401 1.390 . S
C1397 C1391 1.465 . S
C1397 C1396 1.396 . S
C1397 C1398 1.399 . S
C1398 H1384 0.929 . S
C1398 C1397 1.399 . S
C1398 C1399 1.385 . S
C1399 H1385 0.931 . S
C1399 C1398 1.385 . S
C1399 C1400 1.389 . S
C1400 C1399 1.389 . S
C1400 C1401 1.387 . S
C1401 H1386 0.930 . S
C1401 C1396 1.390 . S
C1401 C1400 1.387 . S
H1402 C1414 0.930 . S
H1403 C1416 0.930 . S
H1404 C1417 0.930 . S
H1405 C1421 0.959 . S
H1406 C1421 0.959 . S
H1407 C1421 0.961 . S
H1408 C1422 0.960 . S
H1409 C1422 0.961 . S
H1410 C1422 0.959 . S
H1411 C1425 0.929 . S
H1412 C1426 0.931 . S
H1413 C1428 0.930 . S
C1414 H1402 0.930 . S
C1414 C1415 1.399 . S
C1414 C1419 1.399 . S
C1415 C1414 1.399 . S
C1415 C1416 1.376 . S
C1416 H1403 0.930 . S
C1416 C1415 1.376 . S
C1416 C1417 1.388 . S
C1417 H1404 0.930 . S
C1417 C1416 1.388 . S
C1417 C1418 1.390 . S
C1418 C1417 1.390 . S
C1418 C1419 1.394 . S
C1418 C1424 1.465 . S
C1419 C1414 1.399 . S
C1419 C1418 1.394 . S
C1419 C1420 1.516 . S
C1420 C1419 1.516 . S
C1420 C1421 1.502 . S
C1420 C1422 1.561 . S
C1420 C1423 1.526 . S
C1421 H1405 0.959 . S
C1421 H1406 0.959 . S
C1421 H1407 0.961 . S
C1421 C1420 1.502 . S
C1422 H1408 0.960 . S
C1422 H1409 0.961 . S
C1422 H1410 0.959 . S
C1422 C1420 1.561 . S
C1423 C1420 1.526 . S
C1423 C1424 1.396 . S
C1423 C1428 1.390 . S
C1424 C1418 1.465 . S
C1424 C1423 1.396 . S
C1424 C1425 1.399 . S
C1425 H1411 0.929 . S
C1425 C1424 1.399 . S
C1425 C1426 1.385 . S
C1426 H1412 0.931 . S
C1426 C1425 1.385 . S
C1426 C1427 1.389 . S
C1427 C1426 1.389 . S
C1427 C1428 1.387 . S
C1428 H1413 0.930 . S
C1428 C1423 1.390 . S
C1428 C1427 1.387 . S
H1429 C1441 0.930 . S
H1430 C1443 0.930 . S
H1431 C1444 0.930 . S
H1432 C1448 0.959 . S
H1433 C1448 0.959 . S
H1434 C1448 0.961 . S
H1435 C1449 0.960 . S
H1436 C1449 0.961 . S
H1437 C1449 0.959 . S
H1438 C1452 0.929 . S
H1439 C1453 0.931 . S
H1440 C1455 0.930 . S
C1441 H1429 0.930 . S
C1441 C1442 1.399 . S
C1441 C1446 1.399 . S
C1442 C1441 1.399 . S
C1442 C1443 1.376 . S
C1443 H1430 0.930 . S
C1443 C1442 1.376 . S
C1443 C1444 1.388 . S
C1444 H1431 0.930 . S
C1444 C1443 1.388 . S
C1444 C1445 1.390 . S
C1445 C1444 1.390 . S
C1445 C1446 1.394 . S
C1445 C1451 1.465 . S
C1446 C1441 1.399 . S
C1446 C1445 1.394 . S
C1446 C1447 1.516 . S
C1447 C1446 1.516 . S
C1447 C1448 1.502 . S
C1447 C1449 1.561 . S
C1447 C1450 1.526 . S
C1448 H1432 0.959 . S
C1448 H1433 0.959 . S
C1448 H1434 0.961 . S
C1448 C1447 1.502 . S
C1449 H1435 0.960 . S
C1449 H1436 0.961 . S
C1449 H1437 0.959 . S
C1449 C1447 1.561 . S
C1450 C1447 1.526 . S
C1450 C1451 1.396 . S
C1450 C1455 1.390 . S
C1451 C1445 1.465 . S
C1451 C1450 1.396 . S
C1451 C1452 1.399 . S
C1452 H1438 0.929 . S
C1452 C1451 1.399 . S
C1452 C1453 1.385 . S
C1453 H1439 0.931 . S
C1453 C1452 1.385 . S
C1453 C1454 1.389 . S
C1454 C1453 1.389 . S
C1454 C1455 1.387 . S
C1455 H1440 0.930 . S
C1455 C1450 1.390 . S
C1455 C1454 1.387 . S
H1456 C1468 0.930 . S
H1457 C1470 0.930 . S
H1458 C1471 0.930 . S
H1459 C1475 0.959 . S
H1460 C1475 0.959 . S
H1461 C1475 0.961 . S
H1462 C1476 0.960 . S
H1463 C1476 0.961 . S
H1464 C1476 0.959 . S
H1465 C1479 0.929 . S
H1466 C1480 0.931 . S
H1467 C1482 0.930 . S
C1468 H1456 0.930 . S
C1468 C1469 1.399 . S
C1468 C1473 1.399 . S
C1469 C1468 1.399 . S
C1469 C1470 1.376 . S
C1470 H1457 0.930 . S
C1470 C1469 1.376 . S
C1470 C1471 1.388 . S
C1471 H1458 0.930 . S
C1471 C1470 1.388 . S
C1471 C1472 1.390 . S
C1472 C1471 1.390 . S
C1472 C1473 1.394 . S
C1472 C1478 1.465 . S
C1473 C1468 1.399 . S
C1473 C1472 1.394 . S
C1473 C1474 1.516 . S
C1474 C1473 1.516 . S
C1474 C1475 1.502 . S
C1474 C1476 1.561 . S
C1474 C1477 1.526 . S
C1475 H1459 0.959 . S
C1475 H1460 0.959 . S
C1475 H1461 0.961 . S
C1475 C1474 1.502 . S
C1476 H1462 0.960 . S
C1476 H1463 0.961 . S
C1476 H1464 0.959 . S
C1476 C1474 1.561 . S
C1477 C1474 1.526 . S
C1477 C1478 1.396 . S
C1477 C1482 1.390 . S
C1478 C1472 1.465 . S
C1478 C1477 1.396 . S
C1478 C1479 1.399 . S
C1479 H1465 0.929 . S
C1479 C1478 1.399 . S
C1479 C1480 1.385 . S
C1480 H1466 0.931 . S
C1480 C1479 1.385 . S
C1480 C1481 1.389 . S
C1481 C1480 1.389 . S
C1481 C1482 1.387 . S
C1482 H1467 0.930 . S
C1482 C1477 1.390 . S
C1482 C1481 1.387 . S
H1483 C1495 0.930 . S
H1484 C1497 0.930 . S
H1485 C1498 0.930 . S
H1486 C1502 0.959 . S
H1487 C1502 0.959 . S
H1488 C1502 0.961 . S
H1489 C1503 0.960 . S
H1490 C1503 0.961 . S
H1491 C1503 0.959 . S
H1492 C1506 0.929 . S
H1493 C1507 0.931 . S
H1494 C1509 0.930 . S
C1495 H1483 0.930 . S
C1495 C1496 1.399 . S
C1495 C1500 1.399 . S
C1496 C1495 1.399 . S
C1496 C1497 1.376 . S
C1497 H1484 0.930 . S
C1497 C1496 1.376 . S
C1497 C1498 1.388 . S
C1498 H1485 0.930 . S
C1498 C1497 1.388 . S
C1498 C1499 1.390 . S
C1499 C1498 1.390 . S
C1499 C1500 1.394 . S
C1499 C1505 1.465 . S
C1500 C1495 1.399 . S
C1500 C1499 1.394 . S
C1500 C1501 1.516 . S
C1501 C1500 1.516 . S
C1501 C1502 1.502 . S
C1501 C1503 1.561 . S
C1501 C1504 1.526 . S
C1502 H1486 0.959 . S
C1502 H1487 0.959 . S
C1502 H1488 0.961 . S
C1502 C1501 1.502 . S
C1503 H1489 0.960 . S
C1503 H1490 0.961 . S
C1503 H1491 0.959 . S
C1503 C1501 1.561 . S
C1504 C1501 1.526 . S
C1504 C1505 1.396 . S
C1504 C1509 1.390 . S
C1505 C1499 1.465 . S
C1505 C1504 1.396 . S
C1505 C1506 1.399 . S
C1506 H1492 0.929 . S
C1506 C1505 1.399 . S
C1506 C1507 1.385 . S
C1507 H1493 0.931 . S
C1507 C1506 1.385 . S
C1507 C1508 1.389 . S
C1508 C1507 1.389 . S
C1508 C1509 1.387 . S
C1509 H1494 0.930 . S
C1509 C1504 1.390 . S
C1509 C1508 1.387 . S
H1510 C1522 0.930 . S
H1511 C1524 0.930 . S
H1512 C1525 0.930 . S
H1513 C1529 0.959 . S
H1514 C1529 0.959 . S
H1515 C1529 0.961 . S
H1516 C1530 0.960 . S
H1517 C1530 0.961 . S
H1518 C1530 0.959 . S
H1519 C1533 0.929 . S
H1520 C1534 0.931 . S
H1521 C1536 0.930 . S
C1522 H1510 0.930 . S
C1522 C1523 1.399 . S
C1522 C1527 1.399 . S
C1523 C1522 1.399 . S
C1523 C1524 1.376 . S
C1524 H1511 0.930 . S
C1524 C1523 1.376 . S
C1524 C1525 1.388 . S
C1525 H1512 0.930 . S
C1525 C1524 1.388 . S
C1525 C1526 1.390 . S
C1526 C1525 1.390 . S
C1526 C1527 1.394 . S
C1526 C1532 1.465 . S
C1527 C1522 1.399 . S
C1527 C1526 1.394 . S
C1527 C1528 1.516 . S
C1528 C1527 1.516 . S
C1528 C1529 1.502 . S
C1528 C1530 1.561 . S
C1528 C1531 1.526 . S
C1529 H1513 0.959 . S
C1529 H1514 0.959 . S
C1529 H1515 0.961 . S
C1529 C1528 1.502 . S
C1530 H1516 0.960 . S
C1530 H1517 0.961 . S
C1530 H1518 0.959 . S
C1530 C1528 1.561 . S
C1531 C1528 1.526 . S
C1531 C1532 1.396 . S
C1531 C1536 1.390 . S
C1532 C1526 1.465 . S
C1532 C1531 1.396 . S
C1532 C1533 1.399 . S
C1533 H1519 0.929 . S
C1533 C1532 1.399 . S
C1533 C1534 1.385 . S
C1534 H1520 0.931 . S
C1534 C1533 1.385 . S
C1534 C1535 1.389 . S
C1535 C1534 1.389 . S
C1535 C1536 1.387 . S
C1536 H1521 0.930 . S
C1536 C1531 1.390 . S
C1536 C1535 1.387 . S
H1537 C1549 0.930 . S
H1538 C1551 0.930 . S
H1539 C1552 0.930 . S
H1540 C1556 0.959 . S
H1541 C1556 0.959 . S
H1542 C1556 0.961 . S
H1543 C1557 0.960 . S
H1544 C1557 0.961 . S
H1545 C1557 0.959 . S
H1546 C1560 0.929 . S
H1547 C1561 0.931 . S
H1548 C1563 0.930 . S
C1549 H1537 0.930 . S
C1549 C1550 1.399 . S
C1549 C1554 1.399 . S
C1550 C1549 1.399 . S
C1550 C1551 1.376 . S
C1551 H1538 0.930 . S
C1551 C1550 1.376 . S
C1551 C1552 1.388 . S
C1552 H1539 0.930 . S
C1552 C1551 1.388 . S
C1552 C1553 1.390 . S
C1553 C1552 1.390 . S
C1553 C1554 1.394 . S
C1553 C1559 1.465 . S
C1554 C1549 1.399 . S
C1554 C1553 1.394 . S
C1554 C1555 1.516 . S
C1555 C1554 1.516 . S
C1555 C1556 1.502 . S
C1555 C1557 1.561 . S
C1555 C1558 1.526 . S
C1556 H1540 0.959 . S
C1556 H1541 0.959 . S
C1556 H1542 0.961 . S
C1556 C1555 1.502 . S
C1557 H1543 0.960 . S
C1557 H1544 0.961 . S
C1557 H1545 0.959 . S
C1557 C1555 1.561 . S
C1558 C1555 1.526 . S
C1558 C1559 1.396 . S
C1558 C1563 1.390 . S
C1559 C1553 1.465 . S
C1559 C1558 1.396 . S
C1559 C1560 1.399 . S
C1560 H1546 0.929 . S
C1560 C1559 1.399 . S
C1560 C1561 1.385 . S
C1561 H1547 0.931 . S
C1561 C1560 1.385 . S
C1561 C1562 1.389 . S
C1562 C1561 1.389 . S
C1562 C1563 1.387 . S
C1563 H1548 0.930 . S
C1563 C1558 1.390 . S
C1563 C1562 1.387 . S
H1564 C1576 0.930 . S
H1565 C1578 0.930 . S
H1566 C1579 0.930 . S
H1567 C1583 0.959 . S
H1568 C1583 0.959 . S
H1569 C1583 0.961 . S
H1570 C1584 0.960 . S
H1571 C1584 0.961 . S
H1572 C1584 0.959 . S
H1573 C1587 0.929 . S
H1574 C1588 0.931 . S
H1575 C1590 0.930 . S
C1576 H1564 0.930 . S
C1576 C1577 1.399 . S
C1576 C1581 1.399 . S
C1577 C1576 1.399 . S
C1577 C1578 1.376 . S
C1578 H1565 0.930 . S
C1578 C1577 1.376 . S
C1578 C1579 1.388 . S
C1579 H1566 0.930 . S
C1579 C1578 1.388 . S
C1579 C1580 1.390 . S
C1580 C1579 1.390 . S
C1580 C1581 1.394 . S
C1580 C1586 1.465 . S
C1581 C1576 1.399 . S
C1581 C1580 1.394 . S
C1581 C1582 1.516 . S
C1582 C1581 1.516 . S
C1582 C1583 1.502 . S
C1582 C1584 1.561 . S
C1582 C1585 1.526 . S
C1583 H1567 0.959 . S
C1583 H1568 0.959 . S
C1583 H1569 0.961 . S
C1583 C1582 1.502 . S
C1584 H1570 0.960 . S
C1584 H1571 0.961 . S
C1584 H1572 0.959 . S
C1584 C1582 1.561 . S
C1585 C1582 1.526 . S
C1585 C1586 1.396 . S
C1585 C1590 1.390 . S
C1586 C1580 1.465 . S
C1586 C1585 1.396 . S
C1586 C1587 1.399 . S
C1587 H1573 0.929 . S
C1587 C1586 1.399 . S
C1587 C1588 1.385 . S
C1588 H1574 0.931 . S
C1588 C1587 1.385 . S
C1588 C1589 1.389 . S
C1589 C1588 1.389 . S
C1589 C1590 1.387 . S
C1590 H1575 0.930 . S
C1590 C1585 1.390 . S
C1590 C1589 1.387 . S
H1591 C1603 0.930 . S
H1592 C1605 0.930 . S
H1593 C1606 0.930 . S
H1594 C1610 0.963 . S
H1595 C1610 0.949 1_655 S
H1596 C1610 0.978 . S
H1597 C1611 0.960 . S
H1598 C1611 0.961 . S
H1599 C1611 0.959 . S
H1600 C1614 0.929 . S
H1601 C1615 0.931 . S
H1602 C1617 0.930 . S
C1603 H1591 0.930 . S
C1603 C1604 1.399 . S
C1603 C1608 1.386 1_455 S
C1604 C1603 1.399 . S
C1604 C1605 1.376 . S
C1605 H1592 0.930 . S
C1605 C1604 1.376 . S
C1605 C1606 1.388 1_455 S
C1606 H1593 0.930 . S
C1606 C1605 1.388 1_655 S
C1606 C1607 1.390 . S
C1607 C1606 1.390 . S
C1607 C1608 1.402 . S
C1607 C1613 1.465 . S
C1608 C1603 1.386 1_655 S
C1608 C1607 1.402 . S
C1608 C1609 1.523 . S
C1609 C1608 1.523 . S
C1609 C1610 1.491 1_655 S
C1609 C1611 1.561 . S
C1609 C1612 1.526 . S
C1610 H1594 0.963 . S
C1610 H1595 0.949 1_455 S
C1610 H1596 0.978 . S
C1610 C1609 1.491 1_455 S
C1611 H1597 0.960 . S
C1611 H1598 0.961 . S
C1611 H1599 0.959 . S
C1611 C1609 1.561 . S
C1612 C1609 1.526 . S
C1612 C1613 1.396 . S
C1612 C1617 1.390 . S
C1613 C1607 1.465 . S
C1613 C1612 1.396 . S
C1613 C1614 1.399 . S
C1614 H1600 0.929 . S
C1614 C1613 1.399 . S
C1614 C1615 1.385 . S
C1615 H1601 0.931 . S
C1615 C1614 1.385 . S
C1615 C1616 1.389 . S
C1616 C1615 1.389 . S
C1616 C1617 1.387 . S
C1617 H1602 0.930 . S
C1617 C1612 1.390 . S
C1617 C1616 1.387 . S
H1618 C1630 0.930 . S
H1619 C1632 0.930 . S
H1620 C1633 0.930 . S
H1621 C1637 0.959 . S
H1622 C1637 0.959 . S
H1623 C1637 0.961 . S
H1624 C1638 0.960 . S
H1625 C1638 0.961 . S
H1626 C1638 0.959 . S
H1627 C1641 0.929 . S
H1628 C1642 0.931 . S
H1629 C1644 0.930 . S
C1630 H1618 0.930 . S
C1630 C1631 1.399 . S
C1630 C1635 1.399 . S
C1631 C1630 1.399 . S
C1631 C1632 1.376 . S
C1632 H1619 0.930 . S
C1632 C1631 1.376 . S
C1632 C1633 1.388 . S
C1633 H1620 0.930 . S
C1633 C1632 1.388 . S
C1633 C1634 1.390 . S
C1634 C1633 1.390 . S
C1634 C1635 1.394 . S
C1634 C1640 1.465 . S
C1635 C1630 1.399 . S
C1635 C1634 1.394 . S
C1635 C1636 1.516 . S
C1636 C1635 1.516 . S
C1636 C1637 1.502 . S
C1636 C1638 1.561 . S
C1636 C1639 1.526 . S
C1637 H1621 0.959 . S
C1637 H1622 0.959 . S
C1637 H1623 0.961 . S
C1637 C1636 1.502 . S
C1638 H1624 0.960 . S
C1638 H1625 0.961 . S
C1638 H1626 0.959 . S
C1638 C1636 1.561 . S
C1639 C1636 1.526 . S
C1639 C1640 1.396 . S
C1639 C1644 1.390 . S
C1640 C1634 1.465 . S
C1640 C1639 1.396 . S
C1640 C1641 1.399 . S
C1641 H1627 0.929 . S
C1641 C1640 1.399 . S
C1641 C1642 1.385 . S
C1642 H1628 0.931 . S
C1642 C1641 1.385 . S
C1642 C1643 1.389 . S
C1643 C1642 1.389 . S
C1643 C1644 1.387 . S
C1644 H1629 0.930 . S
C1644 C1639 1.390 . S
C1644 C1643 1.387 . S
H1645 C1657 0.930 . S
H1646 C1659 0.930 . S
H1647 C1660 0.930 . S
H1648 C1664 0.959 1_455 S
H1649 C1664 0.959 1_455 S
H1650 C1664 0.961 . S
H1651 C1665 0.960 . S
H1652 C1665 0.961 . S
H1653 C1665 0.959 . S
H1654 C1668 0.929 . S
H1655 C1669 0.931 . S
H1656 C1671 0.930 . S
C1657 H1645 0.930 . S
C1657 C1658 1.399 . S
C1657 C1662 1.399 . S
C1658 C1657 1.399 . S
C1658 C1659 1.376 . S
C1659 H1646 0.930 . S
C1659 C1658 1.376 . S
C1659 C1660 1.388 1_655 S
C1660 H1647 0.930 . S
C1660 C1659 1.388 1_455 S
C1660 C1661 1.390 . S
C1661 C1660 1.390 . S
C1661 C1662 1.394 1_455 S
C1661 C1667 1.465 . S
C1662 C1657 1.399 . S
C1662 C1661 1.394 1_655 S
C1662 C1663 1.510 1_655 S
C1663 C1662 1.510 1_455 S
C1663 C1664 1.498 1_455 S
C1663 C1665 1.550 1_455 S
C1663 C1666 1.549 . S
C1664 H1648 0.959 1_655 S
C1664 H1649 0.959 1_655 S
C1664 H1650 0.961 . S
C1664 C1663 1.498 1_655 S
C1665 H1651 0.960 . S
C1665 H1652 0.961 . S
C1665 H1653 0.959 . S
C1665 C1663 1.550 1_655 S
C1666 C1663 1.549 . S
C1666 C1667 1.396 . S
C1666 C1671 1.390 . S
C1667 C1661 1.465 . S
C1667 C1666 1.396 . S
C1667 C1668 1.399 . S
C1668 H1654 0.929 . S
C1668 C1667 1.399 . S
C1668 C1669 1.385 . S
C1669 H1655 0.931 . S
C1669 C1668 1.385 . S
C1669 C1670 1.389 . S
C1670 C1669 1.389 . S
C1670 C1671 1.387 . S
C1671 H1656 0.930 . S
C1671 C1666 1.390 . S
C1671 C1670 1.387 . S
H1672 C1684 0.930 . S
H1673 C1686 0.930 . S
H1674 C1687 0.930 . S
H1675 C1691 0.959 . S
H1676 C1691 0.959 . S
H1677 C1691 0.961 . S
H1678 C1692 0.960 . S
H1679 C1692 0.961 . S
H1680 C1692 0.959 . S
H1681 C1695 0.929 . S
H1682 C1696 0.931 . S
H1683 C1698 0.930 . S
C1684 H1672 0.930 . S
C1684 C1685 1.399 . S
C1684 C1689 1.399 . S
C1685 C1684 1.399 . S
C1685 C1686 1.376 . S
C1686 H1673 0.930 . S
C1686 C1685 1.376 . S
C1686 C1687 1.388 . S
C1687 H1674 0.930 . S
C1687 C1686 1.388 . S
C1687 C1688 1.390 . S
C1688 C1687 1.390 . S
C1688 C1689 1.394 . S
C1688 C1694 1.465 . S
C1689 C1684 1.399 . S
C1689 C1688 1.394 . S
C1689 C1690 1.516 . S
C1690 C1689 1.516 . S
C1690 C1691 1.502 . S
C1690 C1692 1.561 . S
C1690 C1693 1.526 . S
C1691 H1675 0.959 . S
C1691 H1676 0.959 . S
C1691 H1677 0.961 . S
C1691 C1690 1.502 . S
C1692 H1678 0.960 . S
C1692 H1679 0.961 . S
C1692 H1680 0.959 . S
C1692 C1690 1.561 . S
C1693 C1690 1.526 . S
C1693 C1694 1.396 . S
C1693 C1698 1.390 . S
C1694 C1688 1.465 . S
C1694 C1693 1.396 . S
C1694 C1695 1.399 . S
C1695 H1681 0.929 . S
C1695 C1694 1.399 . S
C1695 C1696 1.385 . S
C1696 H1682 0.931 . S
C1696 C1695 1.385 . S
C1696 C1697 1.389 . S
C1697 C1696 1.389 . S
C1697 C1698 1.387 . S
C1698 H1683 0.930 . S
C1698 C1693 1.390 . S
C1698 C1697 1.387 . S
H1699 C1711 0.930 . S
H1700 C1713 0.930 . S
H1701 C1714 0.930 . S
H1702 C1718 0.966 . S
H1703 C1718 0.967 . S
H1704 C1718 0.924 1_554 S
H1705 C1719 0.960 . S
H1706 C1719 0.961 . S
H1707 C1719 0.959 . S
H1708 C1722 0.929 . S
H1709 C1723 0.931 . S
H1710 C1725 0.930 . S
C1711 H1699 0.930 . S
C1711 C1712 1.399 . S
C1711 C1716 1.399 1_554 S
C1712 C1711 1.399 . S
C1712 C1713 1.376 1_554 S
C1713 H1700 0.930 . S
C1713 C1712 1.376 1_556 S
C1713 C1714 1.388 . S
C1714 H1701 0.930 . S
C1714 C1713 1.388 . S
C1714 C1715 1.390 . S
C1715 C1714 1.390 . S
C1715 C1716 1.394 . S
C1715 C1721 1.465 . S
C1716 C1711 1.399 1_556 S
C1716 C1715 1.394 . S
C1716 C1717 1.516 . S
C1717 C1716 1.516 . S
C1717 C1718 1.526 . S
C1717 C1719 1.561 . S
C1717 C1720 1.526 . S
C1718 H1702 0.966 . S
C1718 H1703 0.967 . S
C1718 H1704 0.924 1_556 S
C1718 C1717 1.526 . S
C1719 H1705 0.960 . S
C1719 H1706 0.961 . S
C1719 H1707 0.959 . S
C1719 C1717 1.561 . S
C1720 C1717 1.526 . S
C1720 C1721 1.396 . S
C1720 C1725 1.390 . S
C1721 C1715 1.465 . S
C1721 C1720 1.396 . S
C1721 C1722 1.399 . S
C1722 H1708 0.929 . S
C1722 C1721 1.399 . S
C1722 C1723 1.385 . S
C1723 H1709 0.931 . S
C1723 C1722 1.385 . S
C1723 C1724 1.389 . S
C1724 C1723 1.389 . S
C1724 C1725 1.387 . S
C1725 H1710 0.930 . S
C1725 C1720 1.390 . S
C1725 C1724 1.387 . S
H1726 C1738 0.930 . S
H1727 C1740 0.930 . S
H1728 C1741 0.930 . S
H1729 C1745 0.959 . S
H1730 C1745 0.959 . S
H1731 C1745 0.961 . S
H1732 C1746 0.960 . S
H1733 C1746 0.961 . S
H1734 C1746 0.959 . S
H1735 C1749 0.929 . S
H1736 C1750 0.931 . S
H1737 C1752 0.930 . S
C1738 H1726 0.930 . S
C1738 C1739 1.399 . S
C1738 C1743 1.399 . S
C1739 C1738 1.399 . S
C1739 C1740 1.376 . S
C1740 H1727 0.930 . S
C1740 C1739 1.376 . S
C1740 C1741 1.388 . S
C1741 H1728 0.930 . S
C1741 C1740 1.388 . S
C1741 C1742 1.390 . S
C1742 C1741 1.390 . S
C1742 C1743 1.394 . S
C1742 C1748 1.465 . S
C1743 C1738 1.399 . S
C1743 C1742 1.394 . S
C1743 C1744 1.516 . S
C1744 C1743 1.516 . S
C1744 C1745 1.502 . S
C1744 C1746 1.561 . S
C1744 C1747 1.526 . S
C1745 H1729 0.959 . S
C1745 H1730 0.959 . S
C1745 H1731 0.961 . S
C1745 C1744 1.502 . S
C1746 H1732 0.960 . S
C1746 H1733 0.961 . S
C1746 H1734 0.959 . S
C1746 C1744 1.561 . S
C1747 C1744 1.526 . S
C1747 C1748 1.396 . S
C1747 C1752 1.390 . S
C1748 C1742 1.465 . S
C1748 C1747 1.396 . S
C1748 C1749 1.399 . S
C1749 H1735 0.929 . S
C1749 C1748 1.399 . S
C1749 C1750 1.385 . S
C1750 H1736 0.931 . S
C1750 C1749 1.385 . S
C1750 C1751 1.389 . S
C1751 C1750 1.389 . S
C1751 C1752 1.387 . S
C1752 H1737 0.930 . S
C1752 C1747 1.390 . S
C1752 C1751 1.387 . S
H1753 C1765 0.930 . S
H1754 C1767 0.930 . S
H1755 C1768 0.926 1_556 S
H1756 C1772 0.959 . S
H1757 C1772 0.959 . S
H1758 C1772 0.961 . S
H1759 C1773 0.960 . S
H1760 C1773 0.961 1_556 S
H1761 C1773 0.959 1_556 S
H1762 C1776 0.929 . S
H1763 C1777 0.931 . S
H1764 C1779 0.930 . S
C1765 H1753 0.930 . S
C1765 C1766 1.399 . S
C1765 C1770 1.399 . S
C1766 C1765 1.399 . S
C1766 C1767 1.376 . S
C1767 H1754 0.930 . S
C1767 C1766 1.376 . S
C1767 C1768 1.394 . S
C1768 H1755 0.926 1_554 S
C1768 C1767 1.394 . S
C1768 C1769 1.389 1_554 S
C1769 C1768 1.389 1_556 S
C1769 C1770 1.394 1_556 S
C1769 C1775 1.465 . S
C1770 C1765 1.399 . S
C1770 C1769 1.394 1_554 S
C1770 C1771 1.516 . S
C1771 C1770 1.516 . S
C1771 C1772 1.502 . S
C1771 C1773 1.561 . S
C1771 C1774 1.526 1_554 S
C1772 H1756 0.959 . S
C1772 H1757 0.959 . S
C1772 H1758 0.961 . S
C1772 C1771 1.502 . S
C1773 H1759 0.960 . S
C1773 H1760 0.961 1_554 S
C1773 H1761 0.959 1_554 S
C1773 C1771 1.561 . S
C1774 C1771 1.526 1_556 S
C1774 C1775 1.396 . S
C1774 C1779 1.390 . S
C1775 C1769 1.465 . S
C1775 C1774 1.396 . S
C1775 C1776 1.399 . S
C1776 H1762 0.929 . S
C1776 C1775 1.399 . S
C1776 C1777 1.385 . S
C1777 H1763 0.931 . S
C1777 C1776 1.385 . S
C1777 C1778 1.389 . S
C1778 C1777 1.389 . S
C1778 C1779 1.387 . S
C1779 H1764 0.930 . S
C1779 C1774 1.390 . S
C1779 C1778 1.387 . S
H1780 C1792 0.930 . S
H1781 C1794 0.930 . S
H1782 C1795 0.930 . S
H1783 C1799 0.959 . S
H1784 C1799 0.959 . S
H1785 C1799 0.961 . S
H1786 C1800 0.960 . S
H1787 C1800 0.961 . S
H1788 C1800 0.959 . S
H1789 C1803 0.929 . S
H1790 C1804 0.931 . S
H1791 C1806 0.930 . S
C1792 H1780 0.930 . S
C1792 C1793 1.399 . S
C1792 C1797 1.399 . S
C1793 C1792 1.399 . S
C1793 C1794 1.376 . S
C1794 H1781 0.930 . S
C1794 C1793 1.376 . S
C1794 C1795 1.388 . S
C1795 H1782 0.930 . S
C1795 C1794 1.388 . S
C1795 C1796 1.390 . S
C1796 C1795 1.390 . S
C1796 C1797 1.394 . S
C1796 C1802 1.465 . S
C1797 C1792 1.399 . S
C1797 C1796 1.394 . S
C1797 C1798 1.516 . S
C1798 C1797 1.516 . S
C1798 C1799 1.502 . S
C1798 C1800 1.561 . S
C1798 C1801 1.526 . S
C1799 H1783 0.959 . S
C1799 H1784 0.959 . S
C1799 H1785 0.961 . S
C1799 C1798 1.502 . S
C1800 H1786 0.960 . S
C1800 H1787 0.961 . S
C1800 H1788 0.959 . S
C1800 C1798 1.561 . S
C1801 C1798 1.526 . S
C1801 C1802 1.396 . S
C1801 C1806 1.390 . S
C1802 C1796 1.465 . S
C1802 C1801 1.396 . S
C1802 C1803 1.399 . S
C1803 H1789 0.929 . S
C1803 C1802 1.399 . S
C1803 C1804 1.385 . S
C1804 H1790 0.931 . S
C1804 C1803 1.385 . S
C1804 C1805 1.389 . S
C1805 C1804 1.389 . S
C1805 C1806 1.387 . S
C1806 H1791 0.930 . S
C1806 C1801 1.390 . S
C1806 C1805 1.387 . S
H1807 C1819 0.930 . S
H1808 C1821 0.935 . S
H1809 C1822 0.930 . S
H1810 C1826 0.959 . S
H1811 C1826 0.959 . S
H1812 C1826 0.961 . S
H1813 C1827 0.960 . S
H1814 C1827 0.961 . S
H1815 C1827 0.959 . S
H1816 C1830 0.929 . S
H1817 C1831 0.931 . S
H1818 C1833 0.930 . S
C1819 H1807 0.930 . S
C1819 C1820 1.399 . S
C1819 C1824 1.399 1_556 S
C1820 C1819 1.399 . S
C1820 C1821 1.382 . S
C1821 H1808 0.935 . S
C1821 C1820 1.382 . S
C1821 C1822 1.379 1_556 S
C1822 H1809 0.930 . S
C1822 C1821 1.379 1_554 S
C1822 C1823 1.390 . S
C1823 C1822 1.390 . S
C1823 C1824 1.394 . S
C1823 C1829 1.465 . S
C1824 C1819 1.399 1_554 S
C1824 C1823 1.394 . S
C1824 C1825 1.516 . S
C1825 C1824 1.516 . S
C1825 C1826 1.502 . S
C1825 C1827 1.561 . S
C1825 C1828 1.526 . S
C1826 H1810 0.959 . S
C1826 H1811 0.959 . S
C1826 H1812 0.961 . S
C1826 C1825 1.502 . S
C1827 H1813 0.960 . S
C1827 H1814 0.961 . S
C1827 H1815 0.959 . S
C1827 C1825 1.561 . S
C1828 C1825 1.526 . S
C1828 C1829 1.396 . S
C1828 C1833 1.390 . S
C1829 C1823 1.465 . S
C1829 C1828 1.396 . S
C1829 C1830 1.399 . S
C1830 H1816 0.929 . S
C1830 C1829 1.399 . S
C1830 C1831 1.385 . S
C1831 H1817 0.931 . S
C1831 C1830 1.385 . S
C1831 C1832 1.389 . S
C1832 C1831 1.389 . S
C1832 C1833 1.387 . S
C1833 H1818 0.930 . S
C1833 C1828 1.390 . S
C1833 C1832 1.387 . S
H1834 C1846 0.930 . S
H1835 C1848 0.930 . S
H1836 C1849 0.930 . S
H1837 C1853 0.959 . S
H1838 C1853 0.959 . S
H1839 C1853 0.961 . S
H1840 C1854 0.960 . S
H1841 C1854 0.961 . S
H1842 C1854 0.959 . S
H1843 C1857 0.929 . S
H1844 C1858 0.931 . S
H1845 C1860 0.930 . S
C1846 H1834 0.930 . S
C1846 C1847 1.399 . S
C1846 C1851 1.399 . S
C1847 C1846 1.399 . S
C1847 C1848 1.376 . S
C1848 H1835 0.930 . S
C1848 C1847 1.376 . S
C1848 C1849 1.388 . S
C1849 H1836 0.930 . S
C1849 C1848 1.388 . S
C1849 C1850 1.390 . S
C1850 C1849 1.390 . S
C1850 C1851 1.394 . S
C1850 C1856 1.465 . S
C1851 C1846 1.399 . S
C1851 C1850 1.394 . S
C1851 C1852 1.516 . S
C1852 C1851 1.516 . S
C1852 C1853 1.502 . S
C1852 C1854 1.561 . S
C1852 C1855 1.526 . S
C1853 H1837 0.959 . S
C1853 H1838 0.959 . S
C1853 H1839 0.961 . S
C1853 C1852 1.502 . S
C1854 H1840 0.960 . S
C1854 H1841 0.961 . S
C1854 H1842 0.959 . S
C1854 C1852 1.561 . S
C1855 C1852 1.526 . S
C1855 C1856 1.396 . S
C1855 C1860 1.390 . S
C1856 C1850 1.465 . S
C1856 C1855 1.396 . S
C1856 C1857 1.399 . S
C1857 H1843 0.929 . S
C1857 C1856 1.399 . S
C1857 C1858 1.385 . S
C1858 H1844 0.931 . S
C1858 C1857 1.385 . S
C1858 C1859 1.389 . S
C1859 C1858 1.389 . S
C1859 C1860 1.387 . S
C1860 H1845 0.930 . S
C1860 C1855 1.390 . S
C1860 C1859 1.387 . S
H1861 C1873 0.930 . S
H1862 C1875 0.930 1_556 S
H1863 C1876 0.930 . S
H1864 C1880 0.959 . S
H1865 C1880 0.959 . S
H1866 C1880 0.961 . S
H1867 C1881 0.960 . S
H1868 C1881 0.961 . S
H1869 C1881 0.959 . S
H1870 C1884 0.929 . S
H1871 C1885 0.931 . S
H1872 C1887 0.930 . S
C1873 H1861 0.930 . S
C1873 C1874 1.399 . S
C1873 C1878 1.399 . S
C1874 C1873 1.399 . S
C1874 C1875 1.376 . S
C1875 H1862 0.930 1_554 S
C1875 C1874 1.376 . S
C1875 C1876 1.388 . S
C1876 H1863 0.930 . S
C1876 C1875 1.388 . S
C1876 C1877 1.390 . S
C1877 C1876 1.390 . S
C1877 C1878 1.394 . S
C1877 C1883 1.465 . S
C1878 C1873 1.399 . S
C1878 C1877 1.394 . S
C1878 C1879 1.516 . S
C1879 C1878 1.516 . S
C1879 C1880 1.502 . S
C1879 C1881 1.561 . S
C1879 C1882 1.526 . S
C1880 H1864 0.959 . S
C1880 H1865 0.959 . S
C1880 H1866 0.961 . S
C1880 C1879 1.502 . S
C1881 H1867 0.960 . S
C1881 H1868 0.961 . S
C1881 H1869 0.959 . S
C1881 C1879 1.561 . S
C1882 C1879 1.526 . S
C1882 C1883 1.396 . S
C1882 C1887 1.390 . S
C1883 C1877 1.465 . S
C1883 C1882 1.396 . S
C1883 C1884 1.399 . S
C1884 H1870 0.929 . S
C1884 C1883 1.399 . S
C1884 C1885 1.385 . S
C1885 H1871 0.931 . S
C1885 C1884 1.385 . S
C1885 C1886 1.389 . S
C1886 C1885 1.389 . S
C1886 C1887 1.387 . S
C1887 H1872 0.930 . S
C1887 C1882 1.390 . S
C1887 C1886 1.387 . S
H1888 C1900 0.930 . S
H1889 C1902 0.930 . S
H1890 C1903 0.930 . S
H1891 C1907 0.959 . S
H1892 C1907 0.959 . S
H1893 C1907 0.961 . S
H1894 C1908 0.960 . S
H1895 C1908 0.961 . S
H1896 C1908 0.959 . S
H1897 C1911 0.929 . S
H1898 C1912 0.931 . S
H1899 C1914 0.930 . S
C1900 H1888 0.930 . S
C1900 C1901 1.399 . S
C1900 C1905 1.399 . S
C1901 C1900 1.399 . S
C1901 C1902 1.376 . S
C1902 H1889 0.930 . S
C1902 C1901 1.376 . S
C1902 C1903 1.388 . S
C1903 H1890 0.930 . S
C1903 C1902 1.388 . S
C1903 C1904 1.390 . S
C1904 C1903 1.390 . S
C1904 C1905 1.394 . S
C1904 C1910 1.465 . S
C1905 C1900 1.399 . S
C1905 C1904 1.394 . S
C1905 C1906 1.516 . S
C1906 C1905 1.516 . S
C1906 C1907 1.502 . S
C1906 C1908 1.561 . S
C1906 C1909 1.526 . S
C1907 H1891 0.959 . S
C1907 H1892 0.959 . S
C1907 H1893 0.961 . S
C1907 C1906 1.502 . S
C1908 H1894 0.960 . S
C1908 H1895 0.961 . S
C1908 H1896 0.959 . S
C1908 C1906 1.561 . S
C1909 C1906 1.526 . S
C1909 C1910 1.396 . S
C1909 C1914 1.390 . S
C1910 C1904 1.465 . S
C1910 C1909 1.396 . S
C1910 C1911 1.399 . S
C1911 H1897 0.929 . S
C1911 C1910 1.399 . S
C1911 C1912 1.385 . S
C1912 H1898 0.931 . S
C1912 C1911 1.385 . S
C1912 C1913 1.389 . S
C1913 C1912 1.389 . S
C1913 C1914 1.387 . S
C1914 H1899 0.930 . S
C1914 C1909 1.390 . S
C1914 C1913 1.387 . S
H1915 C1927 0.930 . S
H1916 C1929 0.930 . S
H1917 C1930 0.930 . S
H1918 C1934 0.959 . S
H1919 C1934 0.959 . S
H1920 C1934 0.961 . S
H1921 C1935 0.960 . S
H1922 C1935 0.961 . S
H1923 C1935 0.959 . S
H1924 C1938 0.929 . S
H1925 C1939 0.931 . S
H1926 C1941 0.930 . S
C1927 H1915 0.930 . S
C1927 C1928 1.399 . S
C1927 C1932 1.399 . S
C1928 C1927 1.399 . S
C1928 C1929 1.376 . S
C1929 H1916 0.930 . S
C1929 C1928 1.376 . S
C1929 C1930 1.388 . S
C1930 H1917 0.930 . S
C1930 C1929 1.388 . S
C1930 C1931 1.390 . S
C1931 C1930 1.390 . S
C1931 C1932 1.394 . S
C1931 C1937 1.465 . S
C1932 C1927 1.399 . S
C1932 C1931 1.394 . S
C1932 C1933 1.516 . S
C1933 C1932 1.516 . S
C1933 C1934 1.502 . S
C1933 C1935 1.561 . S
C1933 C1936 1.526 . S
C1934 H1918 0.959 . S
C1934 H1919 0.959 . S
C1934 H1920 0.961 . S
C1934 C1933 1.502 . S
C1935 H1921 0.960 . S
C1935 H1922 0.961 . S
C1935 H1923 0.959 . S
C1935 C1933 1.561 . S
C1936 C1933 1.526 . S
C1936 C1937 1.396 . S
C1936 C1941 1.390 . S
C1937 C1931 1.465 . S
C1937 C1936 1.396 . S
C1937 C1938 1.399 . S
C1938 H1924 0.929 . S
C1938 C1937 1.399 . S
C1938 C1939 1.385 . S
C1939 H1925 0.931 . S
C1939 C1938 1.385 . S
C1939 C1940 1.389 . S
C1940 C1939 1.389 . S
C1940 C1941 1.387 . S
C1941 H1926 0.930 . S
C1941 C1936 1.390 . S
C1941 C1940 1.387 . S
H1942 C1954 0.930 . S
H1943 C1956 0.930 . S
H1944 C1957 0.930 . S
H1945 C1961 0.959 . S
H1946 C1961 0.959 . S
H1947 C1961 0.961 . S
H1948 C1962 0.960 . S
H1949 C1962 0.961 . S
H1950 C1962 0.959 . S
H1951 C1965 0.929 . S
H1952 C1966 0.931 . S
H1953 C1968 0.930 . S
C1954 H1942 0.930 . S
C1954 C1955 1.399 . S
C1954 C1959 1.399 . S
C1955 C1954 1.399 . S
C1955 C1956 1.376 . S
C1956 H1943 0.930 . S
C1956 C1955 1.376 . S
C1956 C1957 1.388 . S
C1957 H1944 0.930 . S
C1957 C1956 1.388 . S
C1957 C1958 1.390 . S
C1958 C1957 1.390 . S
C1958 C1959 1.394 . S
C1958 C1964 1.465 . S
C1959 C1954 1.399 . S
C1959 C1958 1.394 . S
C1959 C1960 1.516 . S
C1960 C1959 1.516 . S
C1960 C1961 1.502 . S
C1960 C1962 1.561 . S
C1960 C1963 1.526 . S
C1961 H1945 0.959 . S
C1961 H1946 0.959 . S
C1961 H1947 0.961 . S
C1961 C1960 1.502 . S
C1962 H1948 0.960 . S
C1962 H1949 0.961 . S
C1962 H1950 0.959 . S
C1962 C1960 1.561 . S
C1963 C1960 1.526 . S
C1963 C1964 1.396 . S
C1963 C1968 1.390 . S
C1964 C1958 1.465 . S
C1964 C1963 1.396 . S
C1964 C1965 1.399 . S
C1965 H1951 0.929 . S
C1965 C1964 1.399 . S
C1965 C1966 1.385 . S
C1966 H1952 0.931 . S
C1966 C1965 1.385 . S
C1966 C1967 1.389 . S
C1967 C1966 1.389 . S
C1967 C1968 1.387 . S
C1968 H1953 0.930 . S
C1968 C1963 1.390 . S
C1968 C1967 1.387 . S
H1969 C1981 0.930 . S
H1970 C1983 0.930 . S
H1971 C1984 0.930 . S
H1972 C1988 0.959 . S
H1973 C1988 0.959 . S
H1974 C1988 0.961 . S
H1975 C1989 0.960 . S
H1976 C1989 0.961 . S
H1977 C1989 0.959 . S
H1978 C1992 0.929 . S
H1979 C1993 0.931 . S
H1980 C1995 0.930 . S
C1981 H1969 0.930 . S
C1981 C1982 1.399 . S
C1981 C1986 1.399 . S
C1982 C1981 1.399 . S
C1982 C1983 1.376 . S
C1983 H1970 0.930 . S
C1983 C1982 1.376 . S
C1983 C1984 1.388 . S
C1984 H1971 0.930 . S
C1984 C1983 1.388 . S
C1984 C1985 1.390 . S
C1985 C1984 1.390 . S
C1985 C1986 1.394 . S
C1985 C1991 1.465 . S
C1986 C1981 1.399 . S
C1986 C1985 1.394 . S
C1986 C1987 1.516 . S
C1987 C1986 1.516 . S
C1987 C1988 1.502 . S
C1987 C1989 1.561 . S
C1987 C1990 1.526 . S
C1988 H1972 0.959 . S
C1988 H1973 0.959 . S
C1988 H1974 0.961 . S
C1988 C1987 1.502 . S
C1989 H1975 0.960 . S
C1989 H1976 0.961 . S
C1989 H1977 0.959 . S
C1989 C1987 1.561 . S
C1990 C1987 1.526 . S
C1990 C1991 1.396 . S
C1990 C1995 1.390 . S
C1991 C1985 1.465 . S
C1991 C1990 1.396 . S
C1991 C1992 1.399 . S
C1992 H1978 0.929 . S
C1992 C1991 1.399 . S
C1992 C1993 1.385 . S
C1993 H1979 0.931 . S
C1993 C1992 1.385 . S
C1993 C1994 1.389 . S
C1994 C1993 1.389 . S
C1994 C1995 1.387 . S
C1995 H1980 0.930 . S
C1995 C1990 1.390 . S
C1995 C1994 1.387 . S
H1996 C2008 0.930 . S
H1997 C2010 0.930 . S
H1998 C2011 0.930 . S
H1999 C2015 0.959 . S
H2000 C2015 0.959 . S
H2001 C2015 0.961 . S
H2002 C2016 0.960 . S
H2003 C2016 0.961 . S
H2004 C2016 0.959 . S
H2005 C2019 0.929 . S
H2006 C2020 0.931 1_554 S
H2007 C2022 0.930 . S
C2008 H1996 0.930 . S
C2008 C2009 1.399 . S
C2008 C2013 1.399 . S
C2009 C2008 1.399 . S
C2009 C2010 1.376 . S
C2010 H1997 0.930 . S
C2010 C2009 1.376 . S
C2010 C2011 1.388 . S
C2011 H1998 0.930 . S
C2011 C2010 1.388 . S
C2011 C2012 1.390 . S
C2012 C2011 1.390 . S
C2012 C2013 1.394 . S
C2012 C2018 1.465 . S
C2013 C2008 1.399 . S
C2013 C2012 1.394 . S
C2013 C2014 1.516 . S
C2014 C2013 1.516 . S
C2014 C2015 1.502 . S
C2014 C2016 1.561 . S
C2014 C2017 1.526 . S
C2015 H1999 0.959 . S
C2015 H2000 0.959 . S
C2015 H2001 0.961 . S
C2015 C2014 1.502 . S
C2016 H2002 0.960 . S
C2016 H2003 0.961 . S
C2016 H2004 0.959 . S
C2016 C2014 1.561 . S
C2017 C2014 1.526 . S
C2017 C2018 1.396 . S
C2017 C2022 1.390 . S
C2018 C2012 1.465 . S
C2018 C2017 1.396 . S
C2018 C2019 1.399 . S
C2019 H2005 0.929 . S
C2019 C2018 1.399 . S
C2019 C2020 1.385 . S
C2020 H2006 0.931 1_556 S
C2020 C2019 1.385 . S
C2020 C2021 1.389 . S
C2021 C2020 1.389 . S
C2021 C2022 1.387 . S
C2022 H2007 0.930 . S
C2022 C2017 1.390 . S
C2022 C2021 1.387 . S
H2023 C2035 0.930 . S
H2024 C2037 0.930 . S
H2025 C2038 0.930 . S
H2026 C2042 0.959 . S
H2027 C2042 0.959 . S
H2028 C2042 0.961 . S
H2029 C2043 0.960 . S
H2030 C2043 0.961 . S
H2031 C2043 0.959 . S
H2032 C2046 0.929 . S
H2033 C2047 0.931 . S
H2034 C2049 0.930 . S
C2035 H2023 0.930 . S
C2035 C2036 1.399 . S
C2035 C2040 1.399 . S
C2036 C2035 1.399 . S
C2036 C2037 1.376 . S
C2037 H2024 0.930 . S
C2037 C2036 1.376 . S
C2037 C2038 1.388 . S
C2038 H2025 0.930 . S
C2038 C2037 1.388 . S
C2038 C2039 1.390 . S
C2039 C2038 1.390 . S
C2039 C2040 1.394 . S
C2039 C2045 1.465 . S
C2040 C2035 1.399 . S
C2040 C2039 1.394 . S
C2040 C2041 1.516 . S
C2041 C2040 1.516 . S
C2041 C2042 1.502 . S
C2041 C2043 1.561 . S
C2041 C2044 1.526 . S
C2042 H2026 0.959 . S
C2042 H2027 0.959 . S
C2042 H2028 0.961 . S
C2042 C2041 1.502 . S
C2043 H2029 0.960 . S
C2043 H2030 0.961 . S
C2043 H2031 0.959 . S
C2043 C2041 1.561 . S
C2044 C2041 1.526 . S
C2044 C2045 1.396 . S
C2044 C2049 1.390 . S
C2045 C2039 1.465 . S
C2045 C2044 1.396 . S
C2045 C2046 1.399 . S
C2046 H2032 0.929 . S
C2046 C2045 1.399 . S
C2046 C2047 1.385 . S
C2047 H2033 0.931 . S
C2047 C2046 1.385 . S
C2047 C2048 1.389 . S
C2048 C2047 1.389 . S
C2048 C2049 1.387 . S
C2049 H2034 0.930 . S
C2049 C2044 1.390 . S
C2049 C2048 1.387 . S
H2050 C2062 0.930 . S
H2051 C2064 0.930 . S
H2052 C2065 0.930 . S
H2053 C2069 0.959 . S
H2054 C2069 0.959 . S
H2055 C2069 0.961 . S
H2056 C2070 0.960 . S
H2057 C2070 0.961 1_556 S
H2058 C2070 0.959 . S
H2059 C2073 0.929 . S
H2060 C2074 0.931 . S
H2061 C2076 0.930 . S
C2062 H2050 0.930 . S
C2062 C2063 1.399 . S
C2062 C2067 1.399 . S
C2063 C2062 1.399 . S
C2063 C2064 1.376 . S
C2064 H2051 0.930 . S
C2064 C2063 1.376 . S
C2064 C2065 1.388 . S
C2065 H2052 0.930 . S
C2065 C2064 1.388 . S
C2065 C2066 1.390 . S
C2066 C2065 1.390 . S
C2066 C2067 1.394 . S
C2066 C2072 1.465 . S
C2067 C2062 1.399 . S
C2067 C2066 1.394 . S
C2067 C2068 1.516 . S
C2068 C2067 1.516 . S
C2068 C2069 1.502 . S
C2068 C2070 1.561 . S
C2068 C2071 1.526 . S
C2069 H2053 0.959 . S
C2069 H2054 0.959 . S
C2069 H2055 0.961 . S
C2069 C2068 1.502 . S
C2070 H2056 0.960 . S
C2070 H2057 0.961 1_554 S
C2070 H2058 0.959 . S
C2070 C2068 1.561 . S
C2071 C2068 1.526 . S
C2071 C2072 1.396 . S
C2071 C2076 1.390 . S
C2072 C2066 1.465 . S
C2072 C2071 1.396 . S
C2072 C2073 1.399 . S
C2073 H2059 0.929 . S
C2073 C2072 1.399 . S
C2073 C2074 1.385 . S
C2074 H2060 0.931 . S
C2074 C2073 1.385 . S
C2074 C2075 1.389 . S
C2075 C2074 1.389 . S
C2075 C2076 1.387 . S
C2076 H2061 0.930 . S
C2076 C2071 1.390 . S
C2076 C2075 1.387 . S
H2077 C2089 0.930 . S
H2078 C2091 0.930 . S
H2079 C2092 0.930 . S
H2080 C2096 0.959 . S
H2081 C2096 0.959 . S
H2082 C2096 0.961 . S
H2083 C2097 0.960 . S
H2084 C2097 0.961 . S
H2085 C2097 0.959 . S
H2086 C2100 0.929 . S
H2087 C2101 0.931 . S
H2088 C2103 0.930 . S
C2089 H2077 0.930 . S
C2089 C2090 1.399 . S
C2089 C2094 1.399 . S
C2090 C2089 1.399 . S
C2090 C2091 1.376 . S
C2091 H2078 0.930 . S
C2091 C2090 1.376 . S
C2091 C2092 1.388 . S
C2092 H2079 0.930 . S
C2092 C2091 1.388 . S
C2092 C2093 1.390 . S
C2093 C2092 1.390 . S
C2093 C2094 1.394 . S
C2093 C2099 1.465 . S
C2094 C2089 1.399 . S
C2094 C2093 1.394 . S
C2094 C2095 1.516 . S
C2095 C2094 1.516 . S
C2095 C2096 1.502 . S
C2095 C2097 1.561 . S
C2095 C2098 1.526 . S
C2096 H2080 0.959 . S
C2096 H2081 0.959 . S
C2096 H2082 0.961 . S
C2096 C2095 1.502 . S
C2097 H2083 0.960 . S
C2097 H2084 0.961 . S
C2097 H2085 0.959 . S
C2097 C2095 1.561 . S
C2098 C2095 1.526 . S
C2098 C2099 1.396 . S
C2098 C2103 1.390 1_545 S
C2099 C2093 1.465 . S
C2099 C2098 1.396 . S
C2099 C2100 1.399 1_545 S
C2100 H2086 0.929 . S
C2100 C2099 1.399 1_565 S
C2100 C2101 1.385 . S
C2101 H2087 0.931 . S
C2101 C2100 1.385 . S
C2101 C2102 1.389 . S
C2102 C2101 1.389 . S
C2102 C2103 1.387 . S
C2103 H2088 0.930 . S
C2103 C2098 1.390 1_565 S
C2103 C2102 1.387 . S
C833 C648 1.599 . S
C821 C202 1.610 . S
C860 C663 1.817 . S
C848 C261 1.727 . S
C875 C282 1.716 . S
C887 C676 1.722 . S
C914 C690 1.645 . S
C902 C162 1.552 . S
C941 C702 1.634 . S
C929 C402 1.693 . S
C968 C716 1.459 . S
C956 C482 1.375 . S
C983 C442 1.779 . S
C995 C730 1.751 . S
C1022 C745 1.565 . S
C1010 C381 1.475 . S
C1037 C461 1.732 . S
C1049 C761 1.710 . S
C1076 C774 1.558 . S
C1064 C362 1.530 . S
C1091 C415 1.568 . S
C1103 C759 1.556 . S
C1130 C772 1.655 . S
C1118 C495 1.640 . S
C1145 C301 1.912 . S
C1157 C788 1.914 . S
C1172 C175 1.689 . S
C1184 C787 1.652 . S
C1199 C215 1.720 . S
C1211 C786 1.637 . S
C1226 C242 1.565 . S
C1238 C789 1.681 . S
C1253 C141 1.749 . S
C1265 C691 1.745 . S
C1280 C581 1.534 . S
C1292 C689 1.535 . S
C1319 C649 1.593 . S
C1307 C615 1.562 . S
C1346 C660 1.777 . S
C1334 C335 1.774 . S
C1361 C181 1.627 . S
C1373 C705 1.714 . S
C1400 C746 1.893 . S
C1388 C455 1.894 . S
C1427 C703 1.589 . S
C1415 C375 1.531 1_545 S
C1454 C731 1.624 . S
C1442 C501 1.520 . S
C1481 C732 1.613 . S
C1469 C562 1.626 . S
C1496 C621 1.797 . S
C1508 C747 1.753 . S
C1523 C322 1.717 . S
C1535 C704 1.724 . S
C1562 C718 1.631 . S
C1550 C522 1.538 . S
C1577 C122 1.713 . S
C1589 C674 1.672 . S
C1616 C688 1.436 . S
C1604 C2 1.293 . S
C1643 C646 1.764 . S
C1631 C42 1.773 . S
C1670 C661 1.613 . S
C1658 C101 1.522 . S
C1685 C61 1.723 . S
C1697 C775 1.704 . S
C1712 C82 1.517 . S
C1724 C760 1.608 . S
C1739 C135 1.567 . S
C1751 C773 1.558 . S
C1766 C15 1.599 . S
C1778 C758 1.674 . S
C1805 C802 1.913 . S
C1793 C341 1.913 . S
C1832 C801 1.697 . S
C1820 C535 1.678 . S
C1859 C800 1.622 . S
C1847 C575 1.721 . S
C1874 C602 1.627 1_554 S
C1886 C803 1.622 . S
C1901 C421 1.745 . S
C1913 C719 1.736 . S
C1940 C717 1.480 . S
C1928 C221 1.524 . S
C1967 C733 1.568 . S
C1955 C255 1.594 . S
C1994 C744 1.771 . S
C1982 C295 1.769 . S
C2009 C541 1.620 . S
C2021 C677 1.728 . S
C2048 C662 1.896 . S
C2036 C55 1.895 . S
C2063 C95 1.599 . S
C2075 C675 1.613 . S
C2102 C647 1.666 . S
C2090 C21 1.605 . S
