# Generated by pormake.
# Topology ctn, (3,4)-cn, num edge types: 1
# Building blocks:
#     Node 0, Type 0, BuildingBlock: WUSLED_clean_sbu_0, # of connection points: 3
#     Node 1, Type 0, BuildingBlock: WUSLED_clean_sbu_0, # of connection points: 3
#     Node 2, Type 0, BuildingBlock: WUSLED_clean_sbu_0, # of connection points: 3
#     Node 3, Type 0, BuildingBlock: WUSLED_clean_sbu_0, # of connection points: 3
#     Node 4, Type 0, BuildingBlock: WUSLED_clean_sbu_0, # of connection points: 3
#     Node 5, Type 0, BuildingBlock: WUSLED_clean_sbu_0, # of connection points: 3
#     Node 6, Type 0, BuildingBlock: WUSLED_clean_sbu_0, # of connection points: 3
#     Node 7, Type 0, BuildingBlock: WUSLED_clean_sbu_0, # of connection points: 3
#     Node 8, Type 0, BuildingBlock: WUSLED_clean_sbu_0, # of connection points: 3
#     Node 9, Type 0, BuildingBlock: WUSLED_clean_sbu_0, # of connection points: 3
#     Node 10, Type 0, BuildingBlock: WUSLED_clean_sbu_0, # of connection points: 3
#     Node 11, Type 0, BuildingBlock: WUSLED_clean_sbu_0, # of connection points: 3
#     Node 12, Type 0, BuildingBlock: WUSLED_clean_sbu_0, # of connection points: 3
#     Node 13, Type 0, BuildingBlock: WUSLED_clean_sbu_0, # of connection points: 3
#     Node 14, Type 0, BuildingBlock: WUSLED_clean_sbu_0, # of connection points: 3
#     Node 15, Type 0, BuildingBlock: WUSLED_clean_sbu_0, # of connection points: 3
#     Node 16, Type 1, BuildingBlock: AZAVOO_clean_sbu_0, # of connection points: 4
#     Node 17, Type 1, BuildingBlock: AZAVOO_clean_sbu_0, # of connection points: 4
#     Node 18, Type 1, BuildingBlock: AZAVOO_clean_sbu_0, # of connection points: 4
#     Node 19, Type 1, BuildingBlock: AZAVOO_clean_sbu_0, # of connection points: 4
#     Node 20, Type 1, BuildingBlock: AZAVOO_clean_sbu_0, # of connection points: 4
#     Node 21, Type 1, BuildingBlock: AZAVOO_clean_sbu_0, # of connection points: 4
#     Node 22, Type 1, BuildingBlock: AZAVOO_clean_sbu_0, # of connection points: 4
#     Node 23, Type 1, BuildingBlock: AZAVOO_clean_sbu_0, # of connection points: 4
#     Node 24, Type 1, BuildingBlock: AZAVOO_clean_sbu_0, # of connection points: 4
#     Node 25, Type 1, BuildingBlock: AZAVOO_clean_sbu_0, # of connection points: 4
#     Node 26, Type 1, BuildingBlock: AZAVOO_clean_sbu_0, # of connection points: 4
#     Node 27, Type 1, BuildingBlock: AZAVOO_clean_sbu_0, # of connection points: 4
#     Edge 28, Type (0, 1), BuildingBlock: XIVTED_clean_linker_0, # of connection points: 2
#     Edge 29, Type (0, 1), BuildingBlock: XIVTED_clean_linker_0, # of connection points: 2
#     Edge 30, Type (0, 1), BuildingBlock: XIVTED_clean_linker_0, # of connection points: 2
#     Edge 31, Type (0, 1), BuildingBlock: XIVTED_clean_linker_0, # of connection points: 2
#     Edge 32, Type (0, 1), BuildingBlock: XIVTED_clean_linker_0, # of connection points: 2
#     Edge 33, Type (0, 1), BuildingBlock: XIVTED_clean_linker_0, # of connection points: 2
#     Edge 34, Type (0, 1), BuildingBlock: XIVTED_clean_linker_0, # of connection points: 2
#     Edge 35, Type (0, 1), BuildingBlock: XIVTED_clean_linker_0, # of connection points: 2
#     Edge 36, Type (0, 1), BuildingBlock: XIVTED_clean_linker_0, # of connection points: 2
#     Edge 37, Type (0, 1), BuildingBlock: XIVTED_clean_linker_0, # of connection points: 2
#     Edge 38, Type (0, 1), BuildingBlock: XIVTED_clean_linker_0, # of connection points: 2
#     Edge 39, Type (0, 1), BuildingBlock: XIVTED_clean_linker_0, # of connection points: 2
#     Edge 40, Type (0, 1), BuildingBlock: XIVTED_clean_linker_0, # of connection points: 2
#     Edge 41, Type (0, 1), BuildingBlock: XIVTED_clean_linker_0, # of connection points: 2
#     Edge 42, Type (0, 1), BuildingBlock: XIVTED_clean_linker_0, # of connection points: 2
#     Edge 43, Type (0, 1), BuildingBlock: XIVTED_clean_linker_0, # of connection points: 2
#     Edge 44, Type (0, 1), BuildingBlock: XIVTED_clean_linker_0, # of connection points: 2
#     Edge 45, Type (0, 1), BuildingBlock: XIVTED_clean_linker_0, # of connection points: 2
#     Edge 46, Type (0, 1), BuildingBlock: XIVTED_clean_linker_0, # of connection points: 2
#     Edge 47, Type (0, 1), BuildingBlock: XIVTED_clean_linker_0, # of connection points: 2
#     Edge 48, Type (0, 1), BuildingBlock: XIVTED_clean_linker_0, # of connection points: 2
#     Edge 49, Type (0, 1), BuildingBlock: XIVTED_clean_linker_0, # of connection points: 2
#     Edge 50, Type (0, 1), BuildingBlock: XIVTED_clean_linker_0, # of connection points: 2
#     Edge 51, Type (0, 1), BuildingBlock: XIVTED_clean_linker_0, # of connection points: 2
#     Edge 52, Type (0, 1), BuildingBlock: XIVTED_clean_linker_0, # of connection points: 2
#     Edge 53, Type (0, 1), BuildingBlock: XIVTED_clean_linker_0, # of connection points: 2
#     Edge 54, Type (0, 1), BuildingBlock: XIVTED_clean_linker_0, # of connection points: 2
#     Edge 55, Type (0, 1), BuildingBlock: XIVTED_clean_linker_0, # of connection points: 2
#     Edge 56, Type (0, 1), BuildingBlock: XIVTED_clean_linker_0, # of connection points: 2
#     Edge 57, Type (0, 1), BuildingBlock: XIVTED_clean_linker_0, # of connection points: 2
#     Edge 58, Type (0, 1), BuildingBlock: XIVTED_clean_linker_0, # of connection points: 2
#     Edge 59, Type (0, 1), BuildingBlock: XIVTED_clean_linker_0, # of connection points: 2
#     Edge 60, Type (0, 1), BuildingBlock: XIVTED_clean_linker_0, # of connection points: 2
#     Edge 61, Type (0, 1), BuildingBlock: XIVTED_clean_linker_0, # of connection points: 2
#     Edge 62, Type (0, 1), BuildingBlock: XIVTED_clean_linker_0, # of connection points: 2
#     Edge 63, Type (0, 1), BuildingBlock: XIVTED_clean_linker_0, # of connection points: 2
#     Edge 64, Type (0, 1), BuildingBlock: XIVTED_clean_linker_0, # of connection points: 2
#     Edge 65, Type (0, 1), BuildingBlock: XIVTED_clean_linker_0, # of connection points: 2
#     Edge 66, Type (0, 1), BuildingBlock: XIVTED_clean_linker_0, # of connection points: 2
#     Edge 67, Type (0, 1), BuildingBlock: XIVTED_clean_linker_0, # of connection points: 2
#     Edge 68, Type (0, 1), BuildingBlock: XIVTED_clean_linker_0, # of connection points: 2
#     Edge 69, Type (0, 1), BuildingBlock: XIVTED_clean_linker_0, # of connection points: 2
#     Edge 70, Type (0, 1), BuildingBlock: XIVTED_clean_linker_0, # of connection points: 2
#     Edge 71, Type (0, 1), BuildingBlock: XIVTED_clean_linker_0, # of connection points: 2
#     Edge 72, Type (0, 1), BuildingBlock: XIVTED_clean_linker_0, # of connection points: 2
#     Edge 73, Type (0, 1), BuildingBlock: XIVTED_clean_linker_0, # of connection points: 2
#     Edge 74, Type (0, 1), BuildingBlock: XIVTED_clean_linker_0, # of connection points: 2
#     Edge 75, Type (0, 1), BuildingBlock: XIVTED_clean_linker_0, # of connection points: 2
# Relax obj value: 0.002
# Max RMSD: 0.044
# Mean RMSD: 0.026
data_MOF--net-ctn--node1-WUSLED_clean_sbu_0--node2-AZAVOO_clean_sbu_0--edge1-XIVTED_clean_linker_0
_symmetry_space_group_name_H-M    P1
_symmetry_Int_Tables_number       1
_symmetry_cell_setting            triclinic
loop_
_symmetry_equiv_pos_as_xyz
'x, y, z'
_cell_length_a     70.214355
_cell_length_b     71.835489
_cell_length_c     71.705167
_cell_angle_alpha  90.932874
_cell_angle_beta   92.556032
_cell_angle_gamma 92.664264
loop_
_atom_site_label
_atom_site_type_symbol
_atom_site_fract_x
_atom_site_fract_y
_atom_site_fract_z
_atom_type_partial_charge
C0 C 0.01669 0.04542 0.07265 0.0
C1 C 0.02568 0.04364 0.09042 0.0
C2 C 0.99478 0.03793 0.10415 0.0
C3 C 0.01483 0.03995 0.10599 0.0
C4 C 0.98593 0.03923 0.08625 0.0
C5 C 0.99675 0.04299 0.07073 0.0
U6 U 0.05581 0.03972 0.03676 0.0
O7 O 0.05369 0.04426 1.00642 0.0
O8 O 0.07432 0.06113 0.02422 0.0
C9 C 0.06602 0.05862 1.00751 0.0
C10 C 0.02748 0.05096 0.05619 0.0
C11 C 0.06004 0.07555 0.99787 0.0
C12 C 0.0507 0.10776 0.99832 0.0
C13 C 0.05544 0.09162 0.00782 0.0
C14 C 0.05446 0.09182 0.9688 0.0
C15 C 0.05032 0.10814 0.97867 0.0
C16 C 0.05932 0.07575 0.97831 0.0
C17 C 0.08913 0.99872 0.03929 0.0
C18 C 0.11951 0.99652 0.02444 0.0
C19 C 0.10317 0.96867 0.03549 0.0
C20 C 0.08849 0.97939 0.04167 0.0
C21 C 0.11889 0.97708 0.02682 0.0
C22 C 0.1047 1.00724 0.03054 0.0
C23 C 0.07346 0.00958 0.04618 0.0
O24 O 0.0453 0.05715 0.05924 0.0
O25 O 0.02499 0.04001 0.04133 0.0
O26 O 0.05779 0.0092 0.03542 0.0
O27 O 0.07823 0.02622 0.05329 0.0
H28 H 0.04103 0.04548 0.09239 0.0
H29 H 0.02215 0.03925 0.11955 0.0
H30 H 0.97057 0.03743 0.0842 0.0
H31 H 0.98947 0.04432 0.0572 0.0
H32 H 0.04781 0.12008 1.00643 0.0
H33 H 0.05578 0.09181 0.02294 0.0
H34 H 0.05396 0.09143 0.95369 0.0
H35 H 0.06269 0.06346 0.97036 0.0
H36 H 0.13131 1.0034 0.01767 0.0
H37 H 0.10235 0.9538 0.0378 0.0
H38 H 0.07663 0.97255 0.04842 0.0
H39 H 0.10544 0.02215 0.02844 0.0
C40 C 0.29496 0.74936 0.18415 0.0
C41 C 0.30214 0.76775 0.18755 0.0
C42 C 0.29553 0.77524 0.15491 0.0
C43 C 0.30234 0.78061 0.17305 0.0
C44 C 0.28859 0.75673 0.1516 0.0
C45 C 0.28829 0.74397 0.16608 0.0
U46 U 0.31343 0.72717 0.22963 0.0
O47 O 0.29702 0.71638 0.253 0.0
O48 O 0.31409 0.69761 0.23686 0.0
C49 C 0.30138 0.69908 0.24965 0.0
C50 C 0.29379 0.73563 0.19917 0.0
C51 C 0.28524 0.68511 0.24854 0.0
C52 C 0.26376 0.66313 0.23081 0.0
C53 C 0.27835 0.67711 0.23138 0.0
C54 C 0.26225 0.66541 0.26445 0.0
C55 C 0.25563 0.65701 0.24736 0.0
C56 C 0.27694 0.67928 0.26501 0.0
C57 C 0.35995 0.74603 0.25501 0.0
C58 C 0.39361 0.74819 0.26484 0.0
C59 C 0.36967 0.74446 0.28794 0.0
C60 C 0.35528 0.74413 0.27376 0.0
C61 C 0.38905 0.74654 0.28369 0.0
C62 C 0.37921 0.74799 0.2507 0.0
C63 C 0.34509 0.74631 0.23976 0.0
O64 O 0.30683 0.72308 0.19947 0.0
O65 O 0.29029 0.74216 0.21585 0.0
O66 O 0.32807 0.75123 0.24434 0.0
O67 O 0.34451 0.73213 0.2279 0.0
H68 H 0.30747 0.7722 0.2014 0.0
H69 H 0.30793 0.79471 0.17601 0.0
H70 H 0.28298 0.7522 0.13788 0.0
H71 H 0.28264 0.72987 0.16319 0.0
H72 H 0.25883 0.65708 0.21742 0.0
H73 H 0.2844 0.6815 0.21844 0.0
H74 H 0.25645 0.66089 0.27746 0.0
H75 H 0.28204 0.68526 0.27839 0.0
H76 H 0.40833 0.74948 0.26096 0.0
H77 H 0.36555 0.74339 0.30226 0.0
H78 H 0.34052 0.74255 0.27749 0.0
H79 H 0.38315 0.7494 0.23633 0.0
C80 C 0.96637 0.44664 0.01135 0.0
C81 C 0.9845 0.43942 0.01423 0.0
C82 C 0.97621 0.41456 0.99126 0.0
C83 C 0.98941 0.42355 1.0042 0.0
C84 C 0.95817 0.42204 0.98834 0.0
C85 C 0.95333 0.43791 0.99828 0.0
U86 U 0.97209 0.48218 0.05225 0.0
O87 O 0.96746 0.51228 0.05242 0.0
O88 O 0.94994 0.49361 0.06935 0.0
C89 C 0.95279 0.51058 0.06315 0.0
C90 C 0.96057 0.46303 0.02193 0.0
C91 C 0.93543 0.52019 0.0572 0.0
C92 C 0.91377 0.53214 0.03323 0.0
C93 C 0.93018 0.52263 0.03827 0.0
C94 C 0.90754 0.5366 0.0659 0.0
C95 C 0.90222 0.53922 0.047 0.0
C96 C 0.92395 0.52722 0.07091 0.0
C97 C 0.01359 0.47871 0.08923 0.0
C98 C 0.0327 0.50215 0.10762 0.0
C99 C 0.02988 0.47045 0.11844 0.0
C100 C 0.01808 0.46547 0.10273 0.0
C101 C 0.0376 0.48878 0.12094 0.0
C102 C 0.02079 0.49719 0.09197 0.0
C103 C 1.00241 0.47259 0.07202 0.0
O104 O 0.95404 0.45964 0.03849 0.0
O105 O 0.97214 0.47795 0.02178 0.0
O106 O 1.00321 0.48368 0.05762 0.0
O107 O 0.9852 0.46524 0.07431 0.0
H108 H 0.99474 0.44595 0.02434 0.0
H109 H 1.00334 0.41805 1.00691 0.0
H110 H 0.94776 0.41564 0.97832 0.0
H111 H 0.9393 0.44331 0.99583 0.0
H112 H 0.91 0.53376 0.01855 0.0
H113 H 0.93876 0.51722 0.02742 0.0
H114 H 0.89918 0.54209 0.07688 0.0
H115 H 0.92776 0.52555 0.08558 0.0
H116 H 0.03821 0.51645 0.10924 0.0
H117 H 0.03351 0.45976 0.12829 0.0
H118 H 0.01279 0.45111 0.10089 0.0
H119 H 0.01751 0.50776 0.08187 0.0
C120 C 0.71533 0.77503 0.19142 0.0
C121 C 0.73439 0.77077 0.18884 0.0
C122 C 0.72464 0.75183 0.16122 0.0
C123 C 0.73898 0.7592 0.17395 0.0
C124 C 0.70561 0.75628 0.16375 0.0
C125 C 0.70102 0.7677 0.17874 0.0
U126 U 0.7237 0.81769 0.22409 0.0
O127 O 0.70315 0.83628 0.23603 0.0
O128 O 0.72165 0.82021 0.25454 0.0
C129 C 0.70749 0.83152 0.25327 0.0
C130 C 0.71003 0.78683 0.20729 0.0
C131 C 0.69138 0.82706 0.26514 0.0
C132 C 0.66287 0.8085 0.27243 0.0
C133 C 0.6776 0.81278 0.26037 0.0
C134 C 0.67554 0.83282 0.29394 0.0
C135 C 0.66182 0.81834 0.28948 0.0
C136 C 0.69014 0.8371 0.2819 0.0
C137 C 0.76743 0.8513 0.21714 0.0
C138 C 0.77562 0.88463 0.21579 0.0
C139 C 0.79848 0.86387 0.22917 0.0
C140 C 0.78549 0.84874 0.2257 0.0
C141 C 0.79385 0.88198 0.224 0.0
C142 C 0.76258 0.86946 0.21234 0.0
C143 C 0.75461 0.83478 0.21209 0.0
O144 O 0.72161 0.78709 0.22224 0.0
O145 O 0.7041 0.80339 0.20301 0.0
O146 O 0.7373 0.83786 0.20542 0.0
O147 O 0.75499 0.82083 0.22373 0.0
H148 H 0.74576 0.77635 0.19833 0.0
H149 H 0.75379 0.75625 0.17224 0.0
H150 H 0.69422 0.7507 0.15429 0.0
H151 H 0.68623 0.77077 0.18047 0.0
H152 H 0.65262 0.79719 0.26864 0.0
H153 H 0.67838 0.80483 0.24747 0.0
H154 H 0.675 0.84088 0.30679 0.0
H155 H 0.70063 0.8482 0.28579 0.0
H156 H 0.77164 0.89834 0.21145 0.0
H157 H 0.81226 0.86132 0.23578 0.0
H158 H 0.78976 0.83494 0.22943 0.0
H159 H 0.74888 0.87194 0.20553 0.0
C160 C 0.01319 0.97632 0.44545 0.0
C161 C 0.01647 0.99321 0.43628 0.0
C162 C 0.99128 0.98437 0.41278 0.0
C163 C 1.00556 0.99723 0.4201 0.0
C164 C 0.98793 0.96761 0.42225 0.0
C165 C 0.99877 0.96365 0.43841 0.0
U166 U 0.05568 0.98485 0.4807 0.0
O167 O 0.05698 0.98112 0.51114 0.0
O168 O 0.07484 0.96472 0.49339 0.0
C169 C 0.0688 0.9675 0.51025 0.0
C170 C 0.02478 0.97145 0.46213 0.0
C171 C 0.06357 0.95051 0.52045 0.0
C172 C 0.04113 0.92492 0.52722 0.0
C173 C 0.0455 0.94141 0.51776 0.0
C174 C 0.07281 0.92654 0.54214 0.0
C175 C 0.05481 0.91719 0.53938 0.0
C176 C 0.07712 0.94302 0.53277 0.0
C177 C 0.09023 0.02755 0.47499 0.0
C178 C 0.11999 0.03408 0.49317 0.0
C179 C 0.10777 0.05724 0.47218 0.0
C180 C 0.09217 0.04518 0.46705 0.0
C181 C 0.12182 0.05194 0.4854 0.0
C182 C 0.10426 0.022 0.48805 0.0
C183 C 0.07339 0.0154 0.46941 0.0
O184 O 0.04199 0.96603 0.45902 0.0
O185 O 0.02439 0.98292 0.47656 0.0
O186 O 0.05919 0.01548 0.48074 0.0
O187 O 0.0768 0.99865 0.46313 0.0
H188 H 0.0276 1.00315 0.4415 0.0
H189 H 1.00865 0.01017 0.41305 0.0
H190 H 0.9769 0.95751 0.41718 0.0
H191 H 0.99599 0.95057 0.44534 0.0
H192 H 0.02722 0.91797 0.52462 0.0
H193 H 0.03488 0.94693 0.50821 0.0
H194 H 0.0836 0.92111 0.55157 0.0
H195 H 0.09113 0.94986 0.53504 0.0
H196 H 0.13048 0.02963 0.50348 0.0
H197 H 0.10886 0.07073 0.46568 0.0
H198 H 0.08154 0.04966 0.45688 0.0
H199 H 0.10298 0.00842 0.49435 0.0
C200 C 0.2131 0.75681 0.82347 0.0
C201 C 0.2327 0.76007 0.8277 0.0
C202 C 0.22584 0.77872 0.85515 0.0
C203 C 0.239 0.77098 0.84331 0.0
C204 C 0.20621 0.77535 0.85084 0.0
C205 C 0.19994 0.76455 0.83515 0.0
U206 U 0.21534 0.71521 0.78933 0.0
O207 O 0.19174 0.69793 0.77569 0.0
O208 O 0.21158 0.71411 0.75874 0.0
C209 C 0.19552 0.70395 0.75897 0.0
C210 C 0.20606 0.74565 0.80688 0.0
C211 C 0.17911 0.71049 0.74751 0.0
C212 C 0.16489 0.73306 0.72674 0.0
C213 C 0.18006 0.72773 0.73848 0.0
C214 C 0.14723 0.70434 0.73323 0.0
C215 C 0.14837 0.72135 0.72382 0.0
C216 C 0.16248 0.69894 0.74486 0.0
C217 C 0.25505 0.68027 0.7972 0.0
C218 C 0.26703 0.65917 0.77405 0.0
C219 C 0.27727 0.65678 0.80659 0.0
C220 C 0.26579 0.67146 0.81114 0.0
C221 C 0.27831 0.65065 0.78794 0.0
C222 C 0.25549 0.67382 0.77864 0.0
C223 C 0.24449 0.69678 0.80222 0.0
O224 O 0.21718 0.74572 0.7926 0.0
O225 O 0.19838 0.72906 0.81018 0.0
O226 O 0.22698 0.69361 0.80756 0.0
O227 O 0.24616 0.71104 0.79105 0.0
H228 H 0.24317 0.75425 0.81891 0.0
H229 H 0.25421 0.77346 0.84599 0.0
H230 H 0.19565 0.78079 0.85976 0.0
H231 H 0.18474 0.76217 0.83215 0.0
H232 H 0.16613 0.74635 0.71986 0.0
H233 H 0.19262 0.73704 0.74025 0.0
H234 H 0.1348 0.69491 0.73114 0.0
H235 H 0.1614 0.68554 0.75156 0.0
H236 H 0.26727 0.65463 0.75959 0.0
H237 H 0.28588 0.65072 0.8176 0.0
H238 H 0.26568 0.67626 0.82554 0.0
H239 H 0.24722 0.68036 0.76767 0.0
C240 C 0.97272 0.57335 0.50363 0.0
C241 C 0.97636 0.59048 0.49495 0.0
C242 C 0.98385 0.6057 0.52527 0.0
C243 C 0.98183 0.60648 0.50566 0.0
C244 C 0.98081 0.58837 0.5338 0.0
C245 C 0.97525 0.57242 0.5231 0.0
U246 U 0.97192 0.53768 0.46251 0.0
O247 O 0.9663 0.50732 0.46259 0.0
O248 O 0.94694 0.52485 0.44659 0.0
C249 C 0.95003 0.50813 0.45287 0.0
C250 C 0.96513 0.5566 0.49298 0.0
C251 C 0.93337 0.49786 0.46032 0.0
C252 C 0.90305 0.48047 0.45446 0.0
C253 C 0.91856 0.49102 0.44793 0.0
C254 C 0.91678 0.48365 0.48599 0.0
C255 C 0.9021 0.47644 0.47353 0.0
C256 C 0.93222 0.49433 0.47947 0.0
C257 C 1.00911 0.54242 0.42453 0.0
C258 C 0.02076 0.51844 0.4041 0.0
C259 C 0.0255 0.551 0.39654 0.0
C260 C 0.01617 0.55606 0.41255 0.0
C261 C 0.02805 0.53213 0.39216 0.0
C262 C 0.0113 0.52353 0.42011 0.0
C263 C 1.00029 0.54839 0.44185 0.0
O264 O 0.95657 0.55939 0.47665 0.0
O265 O 0.97603 0.54221 0.49296 0.0
O266 O 1.00229 0.5375 0.45631 0.0
O267 O 0.98312 0.55485 0.43985 0.0
H268 H 0.97454 0.59162 0.47994 0.0
H269 H 0.98385 0.61958 0.49859 0.0
H270 H 0.98257 0.58711 0.5488 0.0
H271 H 0.97257 0.55936 0.5301 0.0
H272 H 0.8921 0.47498 0.44447 0.0
H273 H 0.91915 0.49358 0.43311 0.0
H274 H 0.91636 0.48098 0.50079 0.0
H275 H 0.94335 0.49961 0.48937 0.0
H276 H 0.0223 0.50378 0.40105 0.0
H277 H 0.03115 0.56193 0.38783 0.0
H278 H 0.01472 0.57071 0.41574 0.0
H279 H 1.0059 0.51271 0.42909 0.0
C280 C 0.78873 0.7716 0.83372 0.0
C281 C 0.80267 0.77098 0.8484 0.0
C282 C 0.78473 0.74538 0.86257 0.0
C283 C 0.80069 0.758 0.86265 0.0
C284 C 0.77119 0.74563 0.84751 0.0
C285 C 0.77314 0.75862 0.83333 0.0
U286 U 0.81065 0.79752 0.79226 0.0
O287 O 0.79602 0.80877 0.7674 0.0
O288 O 0.81278 0.82761 0.78689 0.0
C289 C 0.80102 0.82613 0.77209 0.0
C290 C 0.78931 0.78639 0.81952 0.0
C291 C 0.78556 0.83931 0.77129 0.0
C292 C 0.75699 0.85208 0.7835 0.0
C293 C 0.7716 0.8394 0.78472 0.0
C294 C 0.77022 0.86462 0.75545 0.0
C295 C 0.75607 0.86481 0.76877 0.0
C296 C 0.78476 0.85201 0.75671 0.0
C297 C 0.85681 0.7799 0.77186 0.0
C298 C 0.87779 0.79616 0.7507 0.0
C299 C 0.8813 0.76335 0.75647 0.0
C300 C 0.8662 0.76348 0.76851 0.0
C301 C 0.88744 0.77971 0.7475 0.0
C302 C 0.8626 0.79625 0.76279 0.0
C303 C 0.84129 0.77946 0.78508 0.0
O304 O 0.80296 0.79953 0.82161 0.0
O305 O 0.78602 0.78087 0.80205 0.0
O306 O 0.82418 0.77454 0.77799 0.0
O307 O 0.8413 0.79338 0.79722 0.0
H308 H 0.81485 0.78082 0.84918 0.0
H309 H 0.8113 0.75836 0.8741 0.0
H310 H 0.75889 0.73594 0.84679 0.0
H311 H 0.76216 0.7588 0.82223 0.0
H312 H 0.74629 0.85175 0.79392 0.0
H313 H 0.77197 0.82964 0.79608 0.0
H314 H 0.77022 0.87442 0.74414 0.0
H315 H 0.79545 0.8522 0.74626 0.0
H316 H 0.88218 0.80903 0.74414 0.0
H317 H 0.88805 0.75033 0.75407 0.0
H318 H 0.86187 0.75068 0.77529 0.0
H319 H 0.85549 0.80909 0.76516 0.0
C320 C 0.2905 0.27095 0.3341 0.0
C321 C 0.27729 0.25566 0.33228 0.0
C322 C 0.2876 0.24443 0.36283 0.0
C323 C 0.27591 0.24253 0.3464 0.0
C324 C 0.30129 0.25938 0.3644 0.0
C325 C 0.30269 0.27253 0.35024 0.0
U326 U 0.30956 0.29827 0.29197 0.0
O327 O 0.29333 0.30912 0.26786 0.0
O328 O 0.31006 0.32842 0.28691 0.0
C329 C 0.29796 0.32659 0.27241 0.0
C330 C 0.29002 0.28591 0.32003 0.0
C331 C 0.28223 0.33947 0.2718 0.0
C332 C 0.25356 0.35183 0.28419 0.0
C333 C 0.26828 0.33925 0.28524 0.0
C334 C 0.26667 0.36484 0.2563 0.0
C335 C 0.25254 0.36475 0.26963 0.0
C336 C 0.28131 0.35233 0.25738 0.0
C337 C 0.35513 0.28445 0.26835 0.0
C338 C 0.38849 0.28625 0.26028 0.0
C339 C 0.3636 0.28634 0.23583 0.0
C340 C 0.34974 0.28528 0.24927 0.0
C341 C 0.38318 0.28671 0.24112 0.0
C342 C 0.37462 0.28507 0.2737 0.0
C343 C 0.34078 0.28223 0.28279 0.0
O344 O 0.30324 0.29949 0.32176 0.0
O345 O 0.28617 0.28056 0.30259 0.0
O346 O 0.32354 0.27614 0.27698 0.0
O347 O 0.34072 0.29569 0.29543 0.0
H348 H 0.26759 0.2541 0.32011 0.0
H349 H 0.26539 0.23106 0.34459 0.0
H350 H 0.31038 0.26142 0.37694 0.0
H351 H 0.31292 0.28422 0.35223 0.0
H352 H 0.24287 0.3513 0.29463 0.0
H353 H 0.26877 0.32937 0.29649 0.0
H354 H 0.26663 0.3748 0.24512 0.0
H355 H 0.29201 0.35277 0.24694 0.0
H356 H 0.40338 0.28682 0.26495 0.0
H357 H 0.3589 0.2864 0.22124 0.0
H358 H 0.33482 0.28484 0.24468 0.0
H359 H 0.37913 0.28449 0.28832 0.0
C360 C 0.47396 0.94817 0.511 0.0
C361 C 0.48123 0.93343 0.52133 0.0
C362 C 0.48371 0.91498 0.49272 0.0
C363 C 0.48598 0.91697 0.51228 0.0
C364 C 0.4769 0.92999 0.48242 0.0
C365 C 0.47203 0.94639 0.49149 0.0
U366 U 0.47791 0.98485 0.55074 0.0
O367 O 0.47589 0.01536 0.54943 0.0
O368 O 0.45537 0.9987 0.56522 0.0
C369 C 0.46019 0.01521 0.55876 0.0
C370 C 0.46797 0.9653 0.52026 0.0
C371 C 0.44452 0.0261 0.55082 0.0
C372 C 0.41296 0.02823 0.53564 0.0
C373 C 0.42799 0.01748 0.5421 0.0
C374 C 0.43097 0.05631 0.54611 0.0
C375 C 0.41424 0.04779 0.53763 0.0
C376 C 0.4459 0.04557 0.55264 0.0
C377 C 0.51644 0.98013 0.59055 0.0
C378 C 0.53489 1.00366 0.60942 0.0
C379 C 0.53259 0.97176 0.61978 0.0
C380 C 0.521 0.9668 0.60392 0.0
C381 C 0.54 0.99018 0.62255 0.0
C382 C 0.52319 0.9987 0.59362 0.0
C383 C 0.50586 0.97401 0.57303 0.0
O384 O 0.45958 0.96308 0.53617 0.0
O385 O 0.48037 0.97959 0.52058 0.0
O386 O 0.50854 0.98435 0.55832 0.0
O387 O 0.48799 0.96812 0.57448 0.0
H388 H 0.48303 0.93456 0.53639 0.0
H389 H 0.49143 0.90578 0.5206 0.0
H390 H 0.47482 0.92887 0.46738 0.0
H391 H 0.46648 0.95762 0.48326 0.0
H392 H 0.40037 0.02123 0.52901 0.0
H393 H 0.42661 1.00245 0.54044 0.0
H394 H 0.43237 0.07129 0.54813 0.0
H395 H 0.45847 0.0525 0.55939 0.0
H396 H 0.54014 0.01802 0.61126 0.0
H397 H 0.53637 0.961 0.62949 0.0
H398 H 0.51603 0.95238 0.60182 0.0
H399 H 0.5198 0.00932 0.5836 0.0
C400 C 0.21452 0.27772 0.68824 0.0
C401 C 0.23338 0.27226 0.68668 0.0
C402 C 0.22412 0.25438 0.65823 0.0
C403 C 0.2381 0.26064 0.67187 0.0
C404 C 0.20533 0.26002 0.65976 0.0
C405 C 0.20059 0.2715 0.67464 0.0
U406 U 0.22128 0.32034 0.72158 0.0
O407 O 0.19959 0.33802 0.73304 0.0
O408 O 0.21814 0.32237 0.75187 0.0
C409 C 0.20334 0.33288 0.75027 0.0
C410 C 0.20889 0.28939 0.70408 0.0
C411 C 0.18676 0.32694 0.76098 0.0
C412 C 0.16525 0.30263 0.77242 0.0
C413 C 0.18009 0.30821 0.76103 0.0
C414 C 0.16306 0.33454 0.78327 0.0
C415 C 0.15674 0.31569 0.78388 0.0
C416 C 0.17796 0.34008 0.77195 0.0
C417 C 0.26411 0.3555 0.71625 0.0
C418 C 0.29046 0.3704 0.73512 0.0
C419 C 0.27594 0.38705 0.70954 0.0
C420 C 0.26327 0.37172 0.70557 0.0
C421 C 0.28991 0.38645 0.72417 0.0
C422 C 0.27775 0.35512 0.73121 0.0
C423 C 0.252 0.33864 0.71068 0.0
O424 O 0.22021 0.28976 0.71922 0.0
O425 O 0.20266 0.30584 0.69982 0.0
O426 O 0.23474 0.34135 0.70364 0.0
O427 O 0.25249 0.32445 0.72203 0.0
H428 H 0.24447 0.27692 0.69691 0.0
H429 H 0.25275 0.25675 0.67096 0.0
H430 H 0.19419 0.2553 0.64961 0.0
H431 H 0.18595 0.27544 0.67559 0.0
H432 H 0.16055 0.28806 0.77237 0.0
H433 H 0.18661 0.29786 0.75254 0.0
H434 H 0.15697 0.34492 0.79204 0.0
H435 H 0.18292 0.35459 0.7721 0.0
H436 H 0.3009 0.36955 0.74663 0.0
H437 H 0.27527 0.39911 0.7007 0.0
H438 H 0.25312 0.37237 0.69379 0.0
H439 H 0.27894 0.34286 0.7397 0.0
C440 C 0.7976 0.25101 0.68594 0.0
C441 C 0.78048 0.25933 0.68096 0.0
C442 C 0.79651 0.27813 0.65785 0.0
C443 C 0.77993 0.27279 0.66711 0.0
C444 C 0.81375 0.27 0.66309 0.0
C445 C 0.81432 0.25663 0.67707 0.0
U446 U 0.81868 0.22647 0.72887 0.0
O447 O 0.80406 0.21333 0.75212 0.0
O448 O 0.82108 0.19648 0.73391 0.0
C449 C 0.80911 0.19653 0.74748 0.0
C450 C 0.79744 0.23609 0.69988 0.0
C451 C 0.79382 0.1817 0.74632 0.0
C452 C 0.76082 0.17085 0.73958 0.0
C453 C 0.77503 0.18525 0.74032 0.0
C454 C 0.7841 0.1492 0.75051 0.0
C455 C 0.76522 0.15263 0.74462 0.0
C456 C 0.79822 0.16359 0.75137 0.0
C457 C 0.86473 0.24612 0.75391 0.0
C458 C 0.87934 0.23131 0.78085 0.0
C459 C 0.8932 0.26036 0.76975 0.0
C460 C 0.8789 0.26051 0.75553 0.0
C461 C 0.89358 0.2458 0.78264 0.0
C462 C 0.86504 0.23148 0.76661 0.0
C463 C 0.84963 0.24674 0.73908 0.0
O464 O 0.81088 0.224 0.69889 0.0
O465 O 0.79424 0.24128 0.71708 0.0
O466 O 0.83258 0.25023 0.74472 0.0
O467 O 0.84934 0.23329 0.7264 0.0
H468 H 0.76741 0.25518 0.68759 0.0
H469 H 0.76638 0.27861 0.66326 0.0
H470 H 0.82679 0.27396 0.65635 0.0
H471 H 0.82777 0.25053 0.68075 0.0
H472 H 0.74646 0.17391 0.73483 0.0
H473 H 0.77133 0.19912 0.73622 0.0
H474 H 0.78793 0.1354 0.75474 0.0
H475 H 0.81261 0.16057 0.75606 0.0
H476 H 0.87932 0.21976 0.79037 0.0
H477 H 0.90373 0.27188 0.77085 0.0
H478 H 0.87883 0.27195 0.74588 0.0
H479 H 0.8542 0.22023 0.76552 0.0
C480 C 0.51532 0.5495 0.57042 0.0
C481 C 0.51776 0.53278 0.5799 0.0
C482 C 0.49364 0.54103 0.60173 0.0
C483 C 0.50701 0.52858 0.59544 0.0
C484 C 0.49137 0.55778 0.59213 0.0
C485 C 0.50209 0.56193 0.57664 0.0
U486 U 0.55472 0.5416 0.5357 0.0
O487 O 0.55371 0.54539 0.50531 0.0
O488 O 0.57407 0.56242 0.52322 0.0
C489 C 0.56633 0.55952 0.50634 0.0
C490 C 0.52632 0.55436 0.55405 0.0
C491 C 0.5608 0.57634 0.49641 0.0
C492 C 0.53857 0.6007 0.49021 0.0
C493 C 0.54353 0.58463 0.49973 0.0
C494 C 0.56813 0.60039 0.47406 0.0
C495 C 0.55082 0.60881 0.47726 0.0
C496 C 0.57304 0.58431 0.48353 0.0
C497 C 0.58699 0.4997 0.54011 0.0
C498 C 0.62055 0.49511 0.53484 0.0
C499 C 0.59741 0.46915 0.53103 0.0
C500 C 0.58289 0.48081 0.5357 0.0
C501 C 0.6165 0.47604 0.53084 0.0
C502 C 0.60596 0.50682 0.53942 0.0
C503 C 0.57142 0.5113 0.54626 0.0
O504 O 0.54424 0.5599 0.55754 0.0
O505 O 0.5239 0.5429 0.53958 0.0
O506 O 0.55593 0.511 0.53524 0.0
O507 O 0.57633 0.52799 0.55319 0.0
H508 H 0.52793 0.52301 0.57526 0.0
H509 H 0.50902 0.5155 0.60239 0.0
H510 H 0.48151 0.56786 0.59674 0.0
H511 H 0.50008 0.57495 0.56954 0.0
H512 H 0.52505 0.60666 0.49289 0.0
H513 H 0.5339 0.57866 0.50966 0.0
H514 H 0.57809 0.6064 0.46447 0.0
H515 H 0.58648 0.57816 0.48088 0.0
H516 H 0.63508 0.5009 0.53499 0.0
H517 H 0.59364 0.45466 0.52767 0.0
H518 H 0.56841 0.47495 0.53611 0.0
H519 H 0.60962 0.52134 0.54276 0.0
C520 C 0.51304 0.47647 0.94296 0.0
C521 C 0.51601 0.49377 0.93443 0.0
C522 C 0.49245 0.48453 0.90949 0.0
C523 C 0.50574 0.49779 0.91785 0.0
C524 C 0.48945 0.46735 0.9183 0.0
C525 C 0.49963 0.46338 0.93483 0.0
U526 U 0.55396 0.48362 0.98064 0.0
O527 O 0.55276 0.47938 0.01102 0.0
O528 O 0.57136 0.46272 0.99431 0.0
C529 C 0.56402 0.46528 0.01066 0.0
C530 C 0.52368 0.4716 0.96023 0.0
C531 C 0.55728 0.44818 0.01999 0.0
C532 C 0.54386 0.41633 0.01852 0.0
C533 C 0.54853 0.43307 0.00971 0.0
C534 C 0.55575 0.42984 0.04819 0.0
C535 C 0.5477 0.41441 0.03782 0.0
C536 C 0.56056 0.44654 0.03933 0.0
C537 C 0.59186 0.52402 0.97773 0.0
C538 C 0.62211 0.53982 0.97079 0.0
C539 C 0.61037 0.54197 1.00194 0.0
C540 C 0.59432 0.53061 0.99629 0.0
C541 C 0.62436 0.54689 0.9892 0.0
C542 C 0.60601 0.52858 0.96512 0.0
C543 C 0.57442 0.51316 0.97092 0.0
O544 O 0.54081 0.46545 0.95812 0.0
O545 O 0.52296 0.48328 0.97445 0.0
O546 O 0.55932 0.51404 0.98108 0.0
O547 O 0.57697 0.49629 0.9644 0.0
H548 H 0.52635 0.50405 0.94051 0.0
H549 H 0.50852 0.51109 0.91135 0.0
H550 H 0.47915 0.45692 0.91242 0.0
H551 H 0.49707 0.45 0.94125 0.0
H552 H 0.53743 0.40479 0.01019 0.0
H553 H 0.54569 0.43405 0.99479 0.0
H554 H 0.559 0.42879 0.06303 0.0
H555 H 0.5673 0.45805 0.04751 0.0
H556 H 0.63248 0.54349 0.96056 0.0
H557 H 0.61178 0.54699 0.01628 0.0
H558 H 0.58373 0.52722 1.00639 0.0
H559 H 0.60441 0.52372 0.95072 0.0
C560 C 0.71251 0.25519 0.32367 0.0
C561 C 0.73199 0.25761 0.32888 0.0
C562 C 0.72457 0.27685 0.35575 0.0
C563 C 0.73796 0.2684 0.34468 0.0
C564 C 0.70505 0.27428 0.35048 0.0
C565 C 0.69911 0.26359 0.33459 0.0
U566 U 0.71646 0.21387 0.28984 0.0
O567 O 0.69397 0.19594 0.27541 0.0
O568 O 0.71393 0.21272 0.25914 0.0
C569 C 0.69854 0.20157 0.25877 0.0
C570 C 0.70592 0.2441 0.30689 0.0
C571 C 0.68266 0.20698 0.2462 0.0
C572 C 0.65606 0.22645 0.23843 0.0
C573 C 0.67083 0.22142 0.25092 0.0
C574 C 0.66483 0.20264 0.21653 0.0
C575 C 0.653 0.21721 0.22099 0.0
C576 C 0.67949 0.19761 0.229 0.0
C577 C 0.7564 0.17971 0.29906 0.0
C578 C 0.7679 0.15802 0.2762 0.0
C579 C 0.77909 0.15671 0.30857 0.0
C580 C 0.76763 0.17144 0.31299 0.0
C581 C 0.77961 0.14999 0.29006 0.0
C582 C 0.75637 0.17272 0.28067 0.0
C583 C 0.74556 0.19609 0.30387 0.0
O584 O 0.71747 0.24438 0.29294 0.0
O585 O 0.69837 0.2274 0.30994 0.0
O586 O 0.7279 0.19267 0.30865 0.0
O587 O 0.74737 0.21037 0.29275 0.0
H588 H 0.74263 0.25124 0.3207 0.0
H589 H 0.75312 0.27025 0.34808 0.0
H590 H 0.6943 0.28027 0.35879 0.0
H591 H 0.684 0.26184 0.33086 0.0
H592 H 0.64732 0.23781 0.24225 0.0
H593 H 0.67312 0.22885 0.26416 0.0
H594 H 0.6627 0.195 0.2034 0.0
H595 H 0.68843 0.1864 0.22515 0.0
H596 H 0.76774 0.15303 0.26186 0.0
H597 H 0.78805 0.15103 0.31955 0.0
H598 H 0.76786 0.17666 0.32727 0.0
H599 H 0.7477 0.17884 0.26971 0.0
C600 C 0.47077 0.07017 1.00462 0.0
C601 C 0.48823 0.07997 1.00227 0.0
C602 C 0.48097 0.10243 0.0266 0.0
C603 C 0.49329 0.09599 0.01316 0.0
C604 C 0.46344 0.09254 0.02873 0.0
C605 C 0.45843 0.07659 0.01786 0.0
U606 U 0.47717 0.03412 0.96521 0.0
O607 O 0.47342 1.00356 0.96599 0.0
O608 O 0.45513 0.01934 0.94702 0.0
C609 C 0.45854 1.00303 0.95418 0.0
C610 C 0.46517 0.05311 0.9937 0.0
C611 C 0.44179 0.99185 0.96001 0.0
C612 C 0.41344 0.98785 0.97816 0.0
C613 C 0.42889 0.99907 0.97235 0.0
C614 C 0.42367 0.96221 0.95928 0.0
C615 C 0.41079 0.9692 0.97184 0.0
C616 C 0.43899 0.97342 0.95344 0.0
C617 C 0.51941 0.03921 0.93289 0.0
C618 C 0.52272 0.0226 0.9034 0.0
C619 C 0.55036 0.03831 0.91908 0.0
C620 C 0.53898 0.04412 0.93338 0.0
C621 C 0.54241 0.02746 0.9039 0.0
C622 C 0.51133 0.02834 0.91783 0.0
C623 C 0.5079 0.0456 0.94829 0.0
O624 O 0.45905 0.05552 0.97635 0.0
O625 O 0.47671 0.0393 0.99549 0.0
O626 O 0.50843 0.03542 0.96335 0.0
O627 O 0.49071 0.05099 0.94366 0.0
H628 H 0.49796 0.07519 0.99211 0.0
H629 H 0.50695 0.10315 0.01125 0.0
H630 H 0.45344 0.09725 0.03865 0.0
H631 H 0.44486 0.06923 0.01982 0.0
H632 H 0.40388 0.99361 0.98794 0.0
H633 H 0.43089 0.01327 0.97764 0.0
H634 H 0.42189 0.94803 0.95392 0.0
H635 H 0.44878 0.96763 0.94388 0.0
H636 H 0.51618 0.01412 0.89201 0.0
H637 H 0.56538 0.04256 0.91979 0.0
H638 H 0.54548 0.05252 0.94485 0.0
H639 H 0.49626 0.02429 0.91723 0.0
Mg640 Mg 0.25817 0.86862 0.01405 0.0
O641 O 0.28693 0.88491 0.00935 0.0
O642 O 0.30884 0.8633 0.00902 0.0
Mg643 Mg 0.29534 0.83436 0.01372 0.0
C644 C 0.30418 0.88023 0.00781 0.0
C645 C 0.22292 0.89011 1.00292 0.0
O646 O 0.21715 0.87251 1.00068 0.0
O647 O 0.25679 0.85763 0.98357 0.0
O648 O 0.27861 0.83596 0.98563 0.0
O649 O 0.26293 0.87031 0.04538 0.0
O650 O 0.27233 0.84748 0.02773 0.0
C651 C 0.26583 0.84444 0.97631 0.0
C652 C 0.27146 0.85478 0.04413 0.0
O653 O 0.24044 0.89393 1.00733 0.0
Mg654 Mg 0.15339 0.51281 0.26938 0.0
O655 O 0.13503 0.51033 0.24155 0.0
O656 O 0.15542 0.51232 0.21852 0.0
Mg657 Mg 0.18599 0.51538 0.23077 0.0
C658 C 0.13845 0.51058 0.22416 0.0
C659 C 0.1132 0.51519 0.28533 0.0
O660 O 0.11309 0.52818 0.27264 0.0
O661 O 0.1626 0.48255 0.26609 0.0
O662 O 0.18295 0.48608 0.24309 0.0
O663 O 0.1537 0.54412 0.26917 0.0
O664 O 0.17539 0.52759 0.25628 0.0
C665 C 0.17459 0.47598 0.25507 0.0
C666 C 0.16904 0.54371 0.25986 0.0
O667 O 0.12751 0.50497 0.28675 0.0
Mg668 Mg 0.7744 0.66072 0.02143 0.0
O669 O 0.74612 0.64253 0.0175 0.0
O670 O 0.7226 0.66251 0.0168 0.0
Mg671 Mg 0.73483 0.69244 0.01936 0.0
C672 C 0.72836 0.64591 0.01626 0.0
C673 C 0.7923 0.62208 0.02686 0.0
O674 O 0.77985 0.62195 0.04001 0.0
O675 O 0.7725 0.66919 0.99052 0.0
O676 O 0.74888 0.68902 0.99125 0.0
O677 O 0.77235 0.66136 0.05273 0.0
O678 O 0.76005 0.68218 0.03417 0.0
C679 C 0.76159 0.68072 0.98249 0.0
C680 C 0.76264 0.67613 0.05083 0.0
O681 O 0.79283 0.63571 0.01573 0.0
Mg682 Mg 0.90823 0.03059 0.25395 0.0
O683 O 0.89034 1.00306 0.24725 0.0
O684 O 0.91128 0.98192 0.23984 0.0
Mg685 Mg 0.9416 0.99488 0.24187 0.0
C686 C 0.89419 0.98651 0.24224 0.0
C687 C 0.88066 0.06113 0.25835 0.0
O688 O 0.89344 0.06707 0.24671 0.0
O689 O 0.91822 0.01949 0.28265 0.0
O690 O 0.9389 0.99876 0.2735 0.0
O691 O 0.90727 0.03813 0.22361 0.0
O692 O 0.92999 0.02217 0.2369 0.0
C693 C 0.93053 1.00731 0.28635 0.0
C694 C 0.92278 0.02932 0.22201 0.0
O695 O 0.88233 0.04504 0.26529 0.0
Mg696 Mg 0.27628 0.15952 0.52211 0.0
O697 O 0.24747 0.14226 0.51725 0.0
O698 O 0.22497 0.16326 0.51548 0.0
Mg699 Mg 0.23816 0.19277 0.51891 0.0
C700 C 0.22995 0.1464 0.51516 0.0
C701 C 0.3111 0.1373 0.51219 0.0
O702 O 0.31665 0.15462 0.50893 0.0
O703 O 0.27573 0.16815 0.49122 0.0
O704 O 0.25295 0.18894 0.49129 0.0
O705 O 0.27321 0.16009 0.55327 0.0
O706 O 0.26237 0.18143 0.53445 0.0
C707 C 0.26557 0.18013 0.48292 0.0
C708 C 0.26416 0.17525 0.55113 0.0
O709 O 0.29404 0.13395 0.51693 0.0
Mg710 Mg 0.40771 0.53219 0.75129 0.0
O711 O 0.38984 0.50454 0.74542 0.0
O712 O 0.41064 0.48322 0.73818 0.0
Mg713 Mg 0.4409 0.49643 0.73891 0.0
C714 C 0.39362 0.48786 0.74084 0.0
C715 C 0.38024 0.56275 0.75608 0.0
O716 O 0.39288 0.56867 0.74429 0.0
O717 O 0.41854 0.52157 0.77998 0.0
O718 O 0.4392 0.50095 0.77056 0.0
O719 O 0.4059 0.53918 0.72082 0.0
O720 O 0.42905 0.5236 0.73386 0.0
C721 C 0.43113 0.50961 0.78353 0.0
C722 C 0.42143 0.53046 0.71901 0.0
O723 O 0.38201 0.54666 0.76301 0.0
Mg724 Mg 0.75624 0.36608 0.51439 0.0
O725 O 0.78376 0.38433 0.50959 0.0
O726 O 0.80741 0.36447 0.51001 0.0
Mg727 Mg 0.79596 0.33471 0.51459 0.0
C728 C 0.80143 0.38093 0.5085 0.0
C729 C 0.72001 0.38551 0.51423 0.0
O730 O 0.71751 0.36909 0.52181 0.0
O731 O 0.75565 0.3549 0.48408 0.0
O732 O 0.77904 0.33485 0.48636 0.0
O733 O 0.76066 0.36856 0.54556 0.0
O734 O 0.772 0.34623 0.52853 0.0
C735 C 0.76559 0.34233 0.47696 0.0
C736 C 0.77041 0.35374 0.54475 0.0
O737 O 0.73623 0.38973 0.50778 0.0
Mg738 Mg 0.65735 0.0133 0.77003 0.0
O739 O 0.63855 0.01081 0.74248 0.0
O740 O 0.65867 0.01209 0.71918 0.0
Mg741 Mg 0.68943 0.01467 0.73097 0.0
C742 C 0.64176 0.01077 0.72504 0.0
C743 C 0.63559 1.00375 0.80512 0.0
O744 O 0.65362 1.00343 0.8108 0.0
O745 O 0.66595 0.98276 0.76706 0.0
O746 O 0.68604 0.98565 0.74377 0.0
O747 O 0.6584 0.04469 0.76926 0.0
O748 O 0.67946 0.0273 0.75652 0.0
C749 C 0.6777 0.97585 0.75599 0.0
C750 C 0.67363 0.04366 0.75986 0.0
O751 O 0.63165 1.00628 0.78787 0.0
Mg752 Mg 0.03469 0.26537 0.90727 0.0
O753 O 1.00757 0.25889 0.88833 0.0
O754 O 0.98499 0.24784 0.90677 0.0
Mg755 Mg 0.9971 0.24725 0.93688 0.0
C756 C 0.99055 0.25248 0.8907 0.0
C757 C 0.06691 0.27517 0.88261 0.0
O758 O 0.07321 0.26344 0.89507 0.0
O759 O 0.02183 0.29196 0.91868 0.0
O760 O 1.00011 0.27935 0.93723 0.0
O761 O 0.04365 0.23607 0.90393 0.0
O762 O 0.02587 0.24531 0.92653 0.0
C763 C 1.0088 0.29357 0.93046 0.0
C764 C 0.03411 0.23194 0.91843 0.0
O765 O 0.04987 0.28034 0.88358 0.0
Mg766 Mg 0.53365 0.76493 0.4047 0.0
O767 O 0.50606 0.75899 0.38634 0.0
O768 O 0.48401 0.74771 0.40525 0.0
Mg769 Mg 0.49698 0.74634 0.43504 0.0
C770 C 0.48912 0.75262 0.3891 0.0
C771 C 0.56626 0.783 0.38491 0.0
O772 O 0.5731 0.77803 0.40136 0.0
O773 O 0.52121 0.79134 0.41704 0.0
O774 O 0.50057 0.77839 0.43647 0.0
O775 O 0.54252 0.73562 0.40062 0.0
O776 O 0.52529 0.74466 0.42374 0.0
C777 C 0.50899 0.79275 0.42967 0.0
C778 C 0.53332 0.73137 0.41531 0.0
O779 O 0.54843 0.78042 0.38121 0.0
Mg780 Mg 1.00177 0.75872 0.61336 0.0
O781 O 0.02969 0.75242 0.63021 0.0
O782 O 0.0507 0.74486 0.60912 0.0
Mg783 Mg 0.03678 0.74534 0.57974 0.0
C784 C 0.04634 0.74764 0.62601 0.0
C785 C 0.98727 0.76208 0.65383 0.0
O786 O 0.99532 0.74594 0.65457 0.0
O787 O 0.01498 0.78685 0.60399 0.0
O788 O 0.03491 0.77713 0.58277 0.0
O789 O 0.9917 0.72867 0.61393 0.0
O790 O 1.00879 0.74067 0.59168 0.0
C791 C 0.02719 0.79021 0.5916 0.0
C792 C 1.00048 0.72621 0.59865 0.0
O793 O 0.98855 0.77159 0.63908 0.0
Mg794 Mg 0.50346 0.25522 0.11448 0.0
O795 O 0.53184 0.24915 0.13054 0.0
O796 O 0.55224 0.24157 0.10893 0.0
Mg797 Mg 0.5375 0.242 0.07984 0.0
C798 C 0.54835 0.24437 0.12595 0.0
C799 C 0.47521 0.27529 0.13871 0.0
O800 O 0.46801 0.27737 0.12168 0.0
O801 O 0.51607 0.28357 0.1048 0.0
O802 O 0.53488 0.27366 0.0827 0.0
O803 O 0.49375 0.22497 0.11509 0.0
O804 O 0.50988 0.23738 0.0924 0.0
C805 C 0.5275 0.28684 0.09168 0.0
C806 C 0.50195 0.22278 0.09945 0.0
O807 O 0.49108 0.26754 0.14083 0.0
H808 H 0.2567 0.77299 0.87886 0.0
H809 H 0.23509 0.85291 0.95297 0.0
H810 H 0.21032 0.80983 0.87046 0.0
H811 H 0.28513 0.82013 0.95549 0.0
H812 H 0.22583 0.83828 0.92248 0.0
H813 H 0.26731 0.79085 0.90679 0.0
C814 C 0.24882 0.78496 0.88273 0.0
C815 C 0.23257 0.78986 0.87214 0.0
C816 C 0.23891 0.83444 0.92969 0.0
C817 C 0.24452 0.81032 0.90461 0.0
C818 C 0.24424 0.84284 0.94706 0.0
C819 C 0.26084 0.83764 0.95695 0.0
C820 C 0.25024 0.82076 0.92222 0.0
C821 C 0.27211 0.82447 0.94856 0.0
C822 C 0.25485 0.79512 0.89882 0.0
C823 C 0.22276 0.80532 0.87827 0.0
N824 N 0.26654 0.81644 0.93183 0.0
N825 N 0.22884 0.81495 0.89412 0.0
H826 H 0.05467 0.50543 0.38901 0.0
H827 H 0.08057 0.5345 0.28542 0.0
H828 H 0.02588 0.54708 0.35718 0.0
H829 H 0.1119 0.49477 0.31752 0.0
H830 H 0.05828 0.53657 0.31039 0.0
H831 H 0.07358 0.49879 0.36199 0.0
C832 C 0.05215 0.51303 0.37629 0.0
C833 C 0.03873 0.52695 0.37546 0.0
C834 C 0.06992 0.52728 0.31195 0.0
C835 C 0.06048 0.51951 0.34448 0.0
C836 C 0.08267 0.52604 0.29764 0.0
C837 C 0.09827 0.51455 0.29939 0.0
C838 C 0.07275 0.51701 0.32827 0.0
C839 C 0.10013 0.50386 0.31556 0.0
C840 C 0.06304 0.5093 0.36089 0.0
C841 C 0.03627 0.53647 0.35862 0.0
N842 N 0.08763 0.50548 0.32944 0.0
N843 N 0.04707 0.53263 0.34388 0.0
H844 H 0.81107 0.72601 0.8834 0.0
H845 H 0.73532 0.69456 0.95806 0.0
H846 H 0.751 0.73644 0.87879 0.0
H847 H 0.79408 0.67943 0.96229 0.0
H848 H 0.74074 0.70775 0.92762 0.0
H849 H 0.80529 0.70733 0.9111 0.0
C850 C 0.79667 0.72434 0.88813 0.0
C851 C 0.78151 0.73289 0.87868 0.0
C852 C 0.75246 0.70141 0.93505 0.0
C853 C 0.7748 0.71141 0.91033 0.0
C854 C 0.74936 0.69383 0.95248 0.0
C855 C 0.76431 0.68599 0.96284 0.0
C856 C 0.77075 0.70144 0.92788 0.0
C857 C 0.78215 0.68532 0.95477 0.0
C858 C 0.79337 0.71356 0.90389 0.0
C859 C 0.76313 0.72997 0.88537 0.0
N860 N 0.78495 0.69319 0.93786 0.0
N861 N 0.76035 0.71962 0.90078 0.0
H862 H 0.97623 0.01717 0.40079 0.0
H863 H 0.94527 0.97546 0.29945 0.0
H864 H 0.98168 0.95978 0.38398 0.0
H865 H 0.92928 0.02981 0.31786 0.0
H866 H 0.95833 0.96976 0.33071 0.0
H867 H 0.95917 0.02256 0.37086 0.0
C868 C 0.97385 1.00571 0.39084 0.0
C869 C 0.98042 0.98798 0.39495 0.0
C870 C 0.95185 0.98289 0.32804 0.0
C871 C 0.96086 0.99405 0.36073 0.0
C872 C 0.94437 0.98618 0.31014 0.0
C873 C 0.93624 1.00319 0.30597 0.0
C874 C 0.9515 0.9968 0.34199 0.0
C875 C 0.93537 0.01647 0.32048 0.0
C876 C 0.96399 0.00877 0.37382 0.0
C877 C 0.97672 0.97362 0.38158 0.0
N878 N 0.94313 0.01309 0.33781 0.0
N879 N 0.96732 0.977 0.36511 0.0
H880 H 0.21282 0.2566 0.62128 0.0
H881 H 0.26773 0.16716 0.58841 0.0
H882 H 0.24673 0.22413 0.65911 0.0
H883 H 0.24378 0.20687 0.55056 0.0
H884 H 0.25725 0.18571 0.61474 0.0
H885 H 0.22116 0.23638 0.59545 0.0
C886 C 0.22193 0.24514 0.62418 0.0
C887 C 0.2291 0.24209 0.64241 0.0
C888 C 0.2542 0.19027 0.60065 0.0
C889 C 0.2388 0.21886 0.61282 0.0
C890 C 0.2601 0.17965 0.5856 0.0
C891 C 0.25659 0.1854 0.56719 0.0
C892 C 0.24462 0.20672 0.59726 0.0
C893 C 0.24672 0.20177 0.56444 0.0
C894 C 0.22678 0.23365 0.6094 0.0
C895 C 0.24106 0.22714 0.64526 0.0
N896 N 0.24112 0.21183 0.57927 0.0
N897 N 0.2455 0.21606 0.63064 0.0
H898 H 0.50527 0.52482 0.63459 0.0
H899 H 0.40791 0.54211 0.68491 0.0
H900 H 0.456 0.54775 0.60696 0.0
H901 H 0.45587 0.51613 0.71163 0.0
H902 H 0.42462 0.54264 0.65571 0.0
H903 H 0.48681 0.5198 0.66233 0.0
C904 C 0.49052 0.52862 0.63425 0.0
C905 C 0.48227 0.53686 0.61839 0.0
C906 C 0.43143 0.53667 0.66791 0.0
C907 C 0.46106 0.53136 0.65029 0.0
C908 C 0.42187 0.53633 0.6846 0.0
C909 C 0.4305 0.52909 0.70078 0.0
C910 C 0.44985 0.52983 0.66739 0.0
C911 C 0.44863 0.52181 0.69952 0.0
C912 C 0.48 0.52584 0.65016 0.0
C913 C 0.46312 0.5417 0.61894 0.0
N914 N 0.45775 0.52249 0.68318 0.0
N915 N 0.45323 0.53897 0.63462 0.0
H916 H 0.77764 0.31073 0.65604 0.0
H917 H 0.79266 0.32343 0.54738 0.0
H918 H 0.81297 0.27584 0.62399 0.0
H919 H 0.76536 0.3637 0.58119 0.0
H920 H 0.80165 0.30678 0.57556 0.0
H921 H 0.77404 0.33104 0.62917 0.0
C922 C 0.78471 0.30739 0.64337 0.0
C923 C 0.79552 0.29148 0.64223 0.0
C924 C 0.79389 0.31938 0.57686 0.0
C925 C 0.79147 0.31469 0.61139 0.0
C926 C 0.78879 0.32895 0.56074 0.0
C927 C 0.77818 0.34499 0.56187 0.0
C928 C 0.78815 0.32572 0.59428 0.0
C929 C 0.77352 0.35139 0.57963 0.0
C930 C 0.78273 0.31905 0.62806 0.0
C931 C 0.80459 0.288 0.62555 0.0
N932 N 0.77834 0.34163 0.5951 0.0
N933 N 0.8022 0.29938 0.61074 0.0
H934 H 0.57297 0.012 0.62199 0.0
H935 H 0.60429 0.99896 0.72976 0.0
H936 H 0.53898 0.97918 0.65919 0.0
H937 H 0.64234 0.01868 0.68794 0.0
H938 H 0.57853 0.9951 0.70544 0.0
H939 H 0.59671 0.01834 0.64747 0.0
C940 C 0.57037 1.0063 0.63559 0.0
C941 C 0.55392 0.99502 0.63841 0.0
C942 C 0.59253 1.00032 0.70166 0.0
C943 C 0.58128 1.00209 0.66773 0.0
C944 C 0.60722 1.00259 0.71554 0.0
C945 C 0.62558 0.00906 0.71091 0.0
C946 C 0.59617 1.00479 0.68309 0.0
C947 C 0.6285 0.0135 0.6922 0.0
C948 C 0.58403 0.00981 0.65012 0.0
C949 C 0.55153 0.98779 0.65632 0.0
N950 N 0.614 0.01131 0.67905 0.0
N951 N 0.56505 0.99144 0.67029 0.0
H952 H 0.93174 0.25624 0.78154 0.0
H953 H 0.95335 0.23914 0.89041 0.0
H954 H 0.88952 0.23584 0.81912 0.0
H955 H 0.99573 0.26154 0.85397 0.0
H956 H 0.93025 0.23682 0.86405 0.0
H957 H 0.95566 0.25742 0.80745 0.0
C958 C 0.92746 0.25205 0.79523 0.0
C959 C 0.90851 0.24597 0.79811 0.0
C960 C 0.9446 0.24221 0.86177 0.0
C961 C 0.93596 0.24712 0.82785 0.0
C962 C 0.95786 0.24355 0.87686 0.0
C963 C 0.97659 0.2506 0.87449 0.0
C964 C 0.94998 0.24797 0.84406 0.0
C965 C 0.98148 0.25604 0.85651 0.0
C966 C 0.94118 0.25264 0.81001 0.0
C967 C 0.90396 0.24041 0.81613 0.0
N968 N 0.96826 0.25464 0.84201 0.0
N969 N 0.91754 0.24117 0.83027 0.0
H970 H 0.4743 0.87956 0.50368 0.0
H971 H 0.52302 0.82765 0.4196 0.0
H972 H 0.502 0.90954 0.45997 0.0
H973 H 0.4857 0.80038 0.45807 0.0
H974 H 0.517 0.85772 0.43451 0.0
H975 H 0.48032 0.85029 0.48781 0.0
C976 C 0.4818 0.87999 0.4908 0.0
C977 C 0.4877 0.89707 0.4832 0.0
C978 C 0.5101 0.84512 0.43958 0.0
C979 C 0.49451 0.86344 0.46474 0.0
C980 C 0.51352 0.82795 0.43108 0.0
C981 C 0.50491 0.81136 0.43756 0.0
C982 C 0.49812 0.8457 0.45477 0.0
C983 C 0.49272 0.81269 0.45252 0.0
C984 C 0.4851 0.86324 0.48164 0.0
C985 C 0.49706 0.89671 0.46626 0.0
N986 N 0.4898 0.82947 0.46062 0.0
N987 N 0.50024 0.88017 0.45763 0.0
H988 H 0.12363 0.33249 0.79256 0.0
H989 H 0.10152 0.26219 0.87495 0.0
H990 H 0.15677 0.28501 0.80596 0.0
H991 H 0.06108 0.30196 0.85586 0.0
H992 H 0.12238 0.27171 0.85038 0.0
H993 H 0.101 0.32278 0.81607 0.0
C994 C 0.12613 0.32002 0.8004 0.0
C995 C 0.14215 0.30955 0.79724 0.0
C996 C 0.10895 0.27838 0.85147 0.0
C997 C 0.11635 0.29841 0.82417 0.0
C998 C 0.097 0.27299 0.8656 0.0
C999 C 0.07947 0.2813 0.86754 0.0
C1000 C 0.10353 0.29235 0.83914 0.0
C1001 C 0.07445 0.29517 0.85488 0.0
C1002 C 0.11316 0.31445 0.81375 0.0
C1003 C 0.14455 0.29341 0.8077 0.0
N1004 N 0.08647 0.30033 0.84124 0.0
N1005 N 0.13189 0.28843 0.82072 0.0
H1006 H 0.53334 0.63928 0.49108 0.0
H1007 H 0.54741 0.70002 0.39978 0.0
H1008 H 0.55694 0.61804 0.44084 0.0
H1009 H 0.51867 0.71916 0.44797 0.0
H1010 H 0.54971 0.66942 0.41396 0.0
H1011 H 0.52655 0.66809 0.475 0.0
C1012 C 0.53692 0.64056 0.47661 0.0
C1013 C 0.54583 0.62616 0.46737 0.0
C1014 C 0.54274 0.68026 0.42136 0.0
C1015 C 0.53833 0.65936 0.4489 0.0
C1016 C 0.54139 0.69774 0.41325 0.0
C1017 C 0.53288 0.71222 0.42271 0.0
C1018 C 0.53567 0.67725 0.43915 0.0
C1019 C 0.52533 0.70843 0.44014 0.0
C1020 C 0.53313 0.65709 0.46745 0.0
C1021 C 0.55038 0.62884 0.44867 0.0
N1022 N 0.52705 0.69138 0.44785 0.0
N1023 N 0.54667 0.64512 0.44011 0.0
H1024 H 0.92054 0.76112 0.75223 0.0
H1025 H 0.96177 0.79008 0.65377 0.0
H1026 H 0.89192 0.79764 0.7141 0.0
H1027 H 0.98392 0.7466 0.68819 0.0
H1028 H 0.93868 0.79636 0.67748 0.0
H1029 H 0.94618 0.75883 0.7306 0.0
C1030 C 0.91959 0.76864 0.73929 0.0
C1031 C 0.90382 0.77938 0.73492 0.0
C1032 C 0.9487 0.78555 0.67989 0.0
C1033 C 0.93347 0.77701 0.71007 0.0
C1034 C 0.96197 0.78201 0.6664 0.0
C1035 C 0.97476 0.76769 0.66891 0.0
C1036 C 0.94829 0.77477 0.69607 0.0
C1037 C 0.97428 0.75768 0.68556 0.0
C1038 C 0.93434 0.7674 0.72696 0.0
C1039 C 0.90377 0.78923 0.71812 0.0
N1040 N 0.96123 0.76136 0.69842 0.0
N1041 N 0.91828 0.78771 0.70627 0.0
H1042 H 0.02195 0.90501 0.55602 0.0
H1043 H 0.05879 0.80299 0.57414 0.0
H1044 H 0.07827 0.88804 0.54379 0.0
H1045 H 1.00701 0.82183 0.59688 0.0
H1046 H 0.06574 0.83421 0.56282 0.0
H1047 H 0.01558 0.87477 0.57056 0.0
C1048 C 0.03297 0.89494 0.55638 0.0
C1049 C 0.05069 0.89911 0.54866 0.0
C1050 C 0.05291 0.83162 0.57039 0.0
C1051 C 0.04351 0.86452 0.56531 0.0
C1052 C 0.0489 0.81374 0.57686 0.0
C1053 C 0.03223 0.80971 0.58642 0.0
C1054 C 0.04006 0.84569 0.57323 0.0
C1055 C 0.02005 0.82431 0.58962 0.0
C1056 C 0.02937 0.87774 0.56479 0.0
C1057 C 0.06449 0.88559 0.54972 0.0
N1058 N 0.02411 0.84162 0.58287 0.0
N1059 N 0.06057 0.86893 0.55777 0.0
H1060 H 0.10949 0.71817 0.72767 0.0
H1061 H 0.08477 0.74623 0.62237 0.0
H1062 H 0.1518 0.73598 0.68908 0.0
H1063 H 0.04203 0.74313 0.6638 0.0
H1064 H 0.10922 0.74088 0.64657 0.0
H1065 H 0.08431 0.72559 0.70447 0.0
C1066 C 0.11348 0.72365 0.71434 0.0
C1067 C 0.13281 0.72646 0.71033 0.0
C1068 C 0.09452 0.74144 0.65043 0.0
C1069 C 0.10409 0.73492 0.68374 0.0
C1070 C 0.08049 0.74444 0.63658 0.0
C1071 C 0.06124 0.74508 0.641 0.0
C1072 C 0.08937 0.73882 0.66893 0.0
C1073 C 0.05667 0.74278 0.65974 0.0
C1074 C 0.09911 0.72798 0.70116 0.0
C1075 C 0.13713 0.73377 0.69289 0.0
N1076 N 0.07062 0.73961 0.67301 0.0
N1077 N 0.12293 0.73761 0.68024 0.0
H1078 H 1.00809 0.63577 0.51792 0.0
H1079 H 0.98396 0.69328 0.61004 0.0
H1080 H 0.96961 0.61525 0.55903 0.0
H1081 H 0.01642 0.71681 0.5657 0.0
H1082 H 0.98143 0.66345 0.59303 0.0
H1083 H 0.01381 0.66451 0.5365 0.0
C1084 C 1.00082 0.63727 0.53082 0.0
C1085 C 0.98829 0.62298 0.53683 0.0
C1086 C 0.98922 0.6751 0.58706 0.0
C1087 C 0.99498 0.65587 0.55833 0.0
C1088 C 0.99072 0.69215 0.59681 0.0
C1089 C 1.0004 0.70763 0.58929 0.0
C1090 C 0.99744 0.67346 0.56963 0.0
C1091 C 1.00886 0.70528 0.57207 0.0
C1092 C 1.00418 0.65367 0.54148 0.0
C1093 C 0.97958 0.62568 0.55389 0.0
N1094 N 1.00711 0.68856 0.5628 0.0
N1095 N 0.98305 0.64177 0.56397 0.0
H1096 H 0.83205 0.88177 0.21801 0.0
H1097 H 0.85548 0.989 0.24706 0.0
H1098 H 0.78879 0.91834 0.23526 0.0
H1099 H 0.89729 0.95042 0.23057 0.0
H1100 H 0.83056 0.96399 0.24242 0.0
H1101 H 0.85585 0.90734 0.2223 0.0
C1102 C 0.82755 0.89515 0.22286 0.0
C1103 C 0.80835 0.89778 0.22645 0.0
C1104 C 0.8452 0.96107 0.23981 0.0
C1105 C 0.83569 0.92746 0.23115 0.0
C1106 C 0.85945 0.97534 0.24244 0.0
C1107 C 0.87859 0.97188 0.23925 0.0
C1108 C 0.85014 0.94322 0.23393 0.0
C1109 C 0.88281 0.95386 0.23327 0.0
C1110 C 0.84117 0.90984 0.22519 0.0
C1111 C 0.80338 0.91566 0.23223 0.0
N1112 N 0.86876 0.9403 0.23085 0.0
N1113 N 0.81697 0.9298 0.23446 0.0
H1114 H 0.78859 0.11837 0.30932 0.0
H1115 H 0.87123 0.09315 0.24128 0.0
H1116 H 0.8017 0.14855 0.25959 0.0
H1117 H 0.85387 0.0568 0.2854 0.0
H1118 H 0.84593 0.11364 0.24854 0.0
H1119 H 0.81237 0.09582 0.30156 0.0
C1120 C 0.79642 0.12025 0.29676 0.0
C1121 C 0.7931 0.13543 0.2851 0.0
C1122 C 0.84754 0.10118 0.25664 0.0
C1123 C 0.82033 0.10965 0.27615 0.0
C1124 C 0.86208 0.08943 0.25253 0.0
C1125 C 0.86478 0.0732 0.26278 0.0
C1126 C 0.83553 0.09686 0.27125 0.0
C1127 C 0.85232 0.06916 0.27714 0.0
C1128 C 0.80992 0.10731 0.29231 0.0
C1129 C 0.80354 0.137 0.2689 0.0
N1130 N 0.83828 0.08098 0.28103 0.0
N1131 N 0.8167 0.12437 0.265 0.0
H1132 H 0.41257 0.933 0.98256 0.0
H1133 H 0.30098 0.91771 1.00038 0.0
H1134 H 0.3732 0.97712 0.97672 0.0
H1135 H 0.34245 0.87543 1.00661 0.0
H1136 H 0.32681 0.94021 0.99278 0.0
H1137 H 0.38668 0.91223 0.99236 0.0
C1138 C 0.39842 0.93831 0.98326 0.0
C1139 C 0.39505 0.9568 0.9786 0.0
C1140 C 0.33019 0.92601 0.99589 0.0
C1141 C 0.36514 0.93299 0.99004 0.0
C1142 C 0.31546 0.91316 1.00026 0.0
C1143 C 0.31946 0.89456 1.00406 0.0
C1144 C 0.34903 0.92022 0.99535 0.0
C1145 C 0.33854 0.88952 1.00368 0.0
C1146 C 0.38362 0.92645 0.98898 0.0
C1147 C 0.37647 0.96298 0.98023 0.0
N1148 N 0.3525 0.90221 0.99936 0.0
N1149 N 0.36217 0.95107 0.9857 0.0
H1150 H 0.23672 0.3845 0.29795 0.0
H1151 H 0.18604 0.45301 0.22768 0.0
H1152 H 0.23305 0.37608 0.23815 0.0
H1153 H 0.17773 0.45516 0.28688 0.0
H1154 H 0.20165 0.42363 0.23148 0.0
H1155 H 0.21374 0.40906 0.29471 0.0
C1156 C 0.23091 0.3876 0.28417 0.0
C1157 C 0.23712 0.37835 0.26827 0.0
C1158 C 0.1962 0.43032 0.24365 0.0
C1159 C 0.21096 0.40663 0.26446 0.0
C1160 C 0.18724 0.44711 0.24147 0.0
C1161 C 0.18064 0.45658 0.25699 0.0
C1162 C 0.199 0.42303 0.26158 0.0
C1163 C 0.18255 0.44826 0.27453 0.0
C1164 C 0.21783 0.40169 0.28233 0.0
C1165 C 0.22912 0.38311 0.25077 0.0
N1166 N 0.19185 0.4321 0.27641 0.0
N1167 N 0.21667 0.39699 0.24934 0.0
H1168 H 0.12038 0.08923 0.49286 0.0
H1169 H 0.23331 0.10827 0.51078 0.0
H1170 H 0.16002 0.04516 0.49139 0.0
H1171 H 0.19148 0.15043 0.51228 0.0
H1172 H 0.20727 0.08456 0.50462 0.0
H1173 H 0.14678 0.11145 0.50088 0.0
C1174 C 0.13469 0.08422 0.49416 0.0
C1175 C 0.13796 0.06529 0.49124 0.0
C1176 C 0.20387 0.09902 0.50636 0.0
C1177 C 0.16851 0.09082 0.50065 0.0
C1178 C 0.21872 0.11256 0.50989 0.0
C1179 C 0.21467 0.13145 0.512 0.0
C1180 C 0.18486 0.10442 0.50495 0.0
C1181 C 0.19544 0.13613 0.51069 0.0
C1182 C 0.1498 0.09693 0.49885 0.0
C1183 C 0.15681 0.0596 0.49357 0.0
N1184 N 0.18137 0.12277 0.50724 0.0
N1185 N 0.1714 0.07233 0.49803 0.0
H1186 H 0.76807 0.11689 0.73159 0.0
H1187 H 0.66633 0.08046 0.76628 0.0
H1188 H 0.72836 0.15315 0.75611 0.0
H1189 H 0.70667 0.04537 0.74103 0.0
H1190 H 0.68728 0.10776 0.76024 0.0
H1191 H 0.74438 0.09105 0.73269 0.0
C1192 C 0.75434 0.11942 0.73721 0.0
C1193 C 0.75029 0.13719 0.74395 0.0
C1194 C 0.69142 0.09409 0.75584 0.0
C1195 C 0.72294 0.10757 0.7452 0.0
C1196 C 0.67943 0.0785 0.75923 0.0
C1197 C 0.68474 0.06055 0.7542 0.0
C1198 C 0.70887 0.0917 0.74742 0.0
C1199 C 0.70192 0.05888 0.74515 0.0
C1200 C 0.74075 0.10466 0.73775 0.0
C1201 C 0.73208 0.13971 0.75071 0.0
N1202 N 0.71339 0.0742 0.74219 0.0
N1203 N 0.71914 0.12503 0.75132 0.0
H1204 H 0.37568 0.04082 0.54124 0.0
H1205 H 0.34786 0.13995 0.5012 0.0
H1206 H 0.41603 0.08125 0.5197 0.0
H1207 H 0.30694 0.10119 0.52446 0.0
H1208 H 0.37226 0.11713 0.50519 0.0
H1209 H 0.34977 0.06118 0.53262 0.0
C1210 C 0.37909 0.05387 0.53451 0.0
C1211 C 0.39813 0.05936 0.53134 0.0
C1212 C 0.35793 0.11352 0.50932 0.0
C1213 C 0.3685 0.08283 0.52156 0.0
C1214 C 0.34393 0.12656 0.50701 0.0
C1215 C 0.3253 0.12258 0.51262 0.0
C1216 C 0.3534 0.09628 0.51741 0.0
C1217 C 0.32111 0.1049 0.51997 0.0
C1218 C 0.36428 0.06554 0.52969 0.0
C1219 C 0.40165 0.07654 0.52273 0.0
N1220 N 0.33508 0.09247 0.52229 0.0
N1221 N 0.38703 0.08764 0.51823 0.0
H1222 H 0.6492 0.48249 0.51126 0.0
H1223 H 0.68437 0.37918 0.52677 0.0
H1224 H 0.61961 0.44015 0.54252 0.0
H1225 H 0.72022 0.42232 0.50315 0.0
H1226 H 0.65949 0.40119 0.52991 0.0
H1227 H 0.67452 0.46078 0.50606 0.0
C1228 C 0.64801 0.46869 0.51707 0.0
C1229 C 0.63209 0.46316 0.52726 0.0
C1230 C 0.67275 0.40593 0.524 0.0
C1231 C 0.66093 0.4382 0.52115 0.0
C1232 C 0.68702 0.3933 0.52214 0.0
C1233 C 0.70452 0.39888 0.51475 0.0
C1234 C 0.67582 0.42442 0.51844 0.0
C1235 C 0.70697 0.41741 0.50894 0.0
C1236 C 0.66243 0.45628 0.51401 0.0
C1237 C 0.6313 0.445 0.53425 0.0
N1238 N 0.69278 0.42956 0.51096 0.0
N1239 N 0.64544 0.43325 0.53105 0.0
H1240 H 0.70965 0.30881 0.36988 0.0
H1241 H 0.7852 0.31752 0.45689 0.0
H1242 H 0.75407 0.27032 0.38092 0.0
H1243 H 0.73503 0.35008 0.4531 0.0
H1244 H 0.7758 0.30288 0.4269 0.0
H1245 H 0.72012 0.32624 0.39843 0.0
C1246 C 0.72155 0.30395 0.37828 0.0
C1247 C 0.73095 0.28797 0.37288 0.0
C1248 C 0.76684 0.31327 0.43255 0.0
C1249 C 0.7432 0.30815 0.40546 0.0
C1250 C 0.77223 0.32172 0.44972 0.0
C1251 C 0.76081 0.33499 0.45772 0.0
C1252 C 0.74986 0.31803 0.42313 0.0
C1253 C 0.74426 0.33989 0.44755 0.0
C1254 C 0.72758 0.31401 0.39453 0.0
C1255 C 0.74652 0.28265 0.38424 0.0
N1256 N 0.73922 0.33133 0.43082 0.0
N1257 N 0.75211 0.29268 0.39992 0.0
H1258 H 0.53457 0.02665 0.86587 0.0
H1259 H 0.63951 0.99664 0.84234 0.0
H1260 H 0.57843 0.01438 0.90732 0.0
H1261 H 0.59749 0.01109 0.79991 0.0
H1262 H 0.61598 1.00017 0.86594 0.0
H1263 H 0.55601 0.01829 0.8413 0.0
C1264 C 0.54862 0.02203 0.86982 0.0
C1265 C 0.55474 0.02139 0.88873 0.0
C1266 C 0.61181 1.00246 0.85147 0.0
C1267 C 0.57941 0.01189 0.86065 0.0
C1268 C 0.62527 1.00039 0.83793 0.0
C1269 C 0.62056 1.0037 0.81908 0.0
C1270 C 0.59342 1.00796 0.84624 0.0
C1271 C 0.60179 0.00844 0.81427 0.0
C1272 C 0.56089 0.01734 0.85578 0.0
C1273 C 0.57318 0.01543 0.89297 0.0
N1274 N 0.58895 0.01058 0.82778 0.0
N1275 N 0.58483 0.011 0.87908 0.0
H1276 H 0.25359 0.23085 0.37551 0.0
H1277 H 0.29886 0.17896 0.46396 0.0
H1278 H 0.31438 0.22926 0.38682 0.0
H1279 H 0.23997 0.19326 0.45742 0.0
H1280 H 0.30461 0.19213 0.43311 0.0
H1281 H 0.24831 0.21185 0.40276 0.0
C1282 C 0.26588 0.22629 0.38355 0.0
C1283 C 0.28448 0.23174 0.3788 0.0
C1284 C 0.29041 0.19217 0.43839 0.0
C1285 C 0.27847 0.21009 0.41042 0.0
C1286 C 0.28708 0.18453 0.4559 0.0
C1287 C 0.26894 0.18515 0.46332 0.0
C1288 C 0.27541 0.20022 0.4282 0.0
C1289 C 0.25423 0.19266 0.45234 0.0
C1290 C 0.26283 0.21553 0.39924 0.0
C1291 C 0.29979 0.22561 0.39007 0.0
N1292 N 0.2578 0.19993 0.43543 0.0
N1293 N 0.29645 0.21516 0.40539 0.0
H1294 H 0.48558 0.46055 0.87972 0.0
H1295 H 0.42855 0.53157 0.81532 0.0
H1296 H 0.47599 0.5168 0.8978 0.0
H1297 H 0.44839 0.47887 0.7963 0.0
H1298 H 0.44241 0.52561 0.84669 0.0
H1299 H 0.46871 0.46628 0.85014 0.0
C1300 C 0.47979 0.4741 0.87754 0.0
C1301 C 0.48219 0.48818 0.89135 0.0
C1302 C 0.4436 0.51535 0.83563 0.0
C1303 C 0.46288 0.49497 0.85719 0.0
C1304 C 0.43559 0.51868 0.81777 0.0
C1305 C 0.4374 0.50577 0.8031 0.0
C1306 C 0.45328 0.4989 0.83882 0.0
C1307 C 0.44677 0.48933 0.80708 0.0
C1308 C 0.47023 0.47741 0.86055 0.0
C1309 C 0.47463 0.50558 0.88749 0.0
N1310 N 0.45434 0.48642 0.82447 0.0
N1311 N 0.46529 0.50848 0.87078 0.0
H1312 H 0.74923 0.72317 0.16131 0.0
H1313 H 0.74042 0.70652 0.05081 0.0
H1314 H 0.71118 0.75277 0.12476 0.0
H1315 H 0.76834 0.66871 0.08807 0.0
H1316 H 0.73024 0.724 0.0777 0.0
H1317 H 0.75739 0.70372 0.13472 0.0
C1318 C 0.74263 0.72561 0.14769 0.0
C1319 C 0.72952 0.73966 0.14527 0.0
C1320 C 0.73846 0.71179 0.08003 0.0
C1321 C 0.73877 0.7174 0.11476 0.0
C1322 C 0.74424 0.70172 0.06463 0.0
C1323 C 0.75518 0.686 0.06712 0.0
C1324 C 0.74384 0.70631 0.09815 0.0
C1325 C 0.75987 0.68069 0.08547 0.0
C1326 C 0.7472 0.71441 0.13254 0.0
C1327 C 0.72122 0.74201 0.12733 0.0
N1328 N 0.75429 0.69089 0.10027 0.0
N1329 N 0.72607 0.73109 0.11277 0.0
H1330 H 0.96045 0.0528 0.11139 0.0
H1331 H 0.95598 0.01251 0.21452 0.0
H1332 H 1.00242 0.01694 0.13524 0.0
H1333 H 0.91138 0.04377 0.18841 0.0
H1334 H 0.9727 0.01311 0.18537 0.0
H1335 H 0.94191 0.04887 0.13912 0.0
C1336 C 0.96571 0.04392 0.12235 0.0
C1337 C 0.98309 0.03518 0.12087 0.0
C1338 C 0.95918 0.01971 0.18596 0.0
C1339 C 0.96195 0.03088 0.15299 0.0
C1340 C 0.94956 0.01931 0.20261 0.0
C1341 C 0.9322 0.02809 0.20395 0.0
C1342 C 0.95148 0.02908 0.17052 0.0
C1343 C 0.92471 0.03682 0.18804 0.0
C1344 C 0.95513 0.04178 0.13827 0.0
C1345 C 0.98927 0.02417 0.1358 0.0
N1346 N 0.93444 0.03719 0.17205 0.0
N1347 N 0.97876 0.02239 0.15122 0.0
H1348 H 0.28515 0.8117 0.15583 0.0
H1349 H 0.29016 0.82224 0.0453 0.0
H1350 H 0.30515 0.76972 0.11871 0.0
H1351 H 0.26929 0.86488 0.08113 0.0
H1352 H 0.29891 0.80449 0.07266 0.0
H1353 H 0.28232 0.83283 0.12945 0.0
C1354 C 0.28917 0.807 0.14219 0.0
C1355 C 0.29522 0.78882 0.13945 0.0
C1356 C 0.2926 0.81781 0.07462 0.0
C1357 C 0.29186 0.81288 0.10918 0.0
C1358 C 0.28766 0.82805 0.05893 0.0
C1359 C 0.27894 0.84512 0.06085 0.0
C1360 C 0.28864 0.82452 0.09247 0.0
C1361 C 0.27597 0.85178 0.07897 0.0
C1362 C 0.28746 0.81904 0.12712 0.0
C1363 C 0.30008 0.78346 0.12143 0.0
N1364 N 0.28065 0.84139 0.09408 0.0
N1365 N 0.2982 0.79537 0.10701 0.0
H1366 H 0.07088 0.51014 0.12025 0.0
H1367 H 0.10094 0.49872 0.22857 0.0
H1368 H 0.03621 0.47837 0.15772 0.0
H1369 H 0.13945 0.51801 0.18697 0.0
H1370 H 0.07548 0.49448 0.20401 0.0
H1371 H 0.09444 0.51671 0.14585 0.0
C1372 C 0.0681 0.50471 0.13392 0.0
C1373 C 0.0515 0.49366 0.13679 0.0
C1374 C 0.08952 0.49968 0.20032 0.0
C1375 C 0.07864 0.50101 0.16625 0.0
C1376 C 0.10404 0.50216 0.21434 0.0
C1377 C 0.12244 0.50863 0.20986 0.0
C1378 C 0.09337 0.50392 0.18175 0.0
C1379 C 0.12558 0.51285 0.19113 0.0
C1380 C 0.08166 0.50835 0.14852 0.0
C1381 C 0.04888 0.48678 0.1548 0.0
N1382 N 0.11124 0.51044 0.17784 0.0
N1383 N 0.0623 0.49056 0.16885 0.0
H1384 H 0.42272 0.76792 0.28589 0.0
H1385 H 0.45372 0.73483 0.38825 0.0
H1386 H 0.39053 0.72659 0.31615 0.0
H1387 H 0.49157 0.76677 0.35375 0.0
H1388 H 0.42984 0.73294 0.36246 0.0
H1389 H 0.44754 0.76877 0.31092 0.0
C1390 C 0.42089 0.7589 0.29769 0.0
C1391 C 0.4044 0.74715 0.29881 0.0
C1392 C 0.44338 0.74032 0.36049 0.0
C1393 C 0.43274 0.74835 0.32777 0.0
C1394 C 0.45705 0.74146 0.37525 0.0
C1395 C 0.47474 0.75102 0.37324 0.0
C1396 C 0.44726 0.74893 0.34355 0.0
C1397 C 0.47818 0.75923 0.35597 0.0
C1398 C 0.43506 0.75948 0.31204 0.0
C1399 C 0.40277 0.73609 0.31472 0.0
N1400 N 0.46453 0.75808 0.34184 0.0
N1401 N 0.4167 0.73701 0.32854 0.0
H1402 H 0.95327 0.38311 0.98474 0.0
H1403 H 0.02923 0.32723 0.92827 0.0
H1404 H 1.00974 0.40613 0.97502 0.0
H1405 H 0.97698 0.30262 0.94844 0.0
H1406 H 0.02136 0.35728 0.94214 0.0
H1407 H 0.96078 0.35457 0.96839 0.0
C1408 C 0.96723 0.38223 0.97904 0.0
C1409 C 0.98087 0.39711 0.98125 0.0
C1410 C 0.01162 0.34528 0.94344 0.0
C1411 C 0.98969 0.36421 0.96254 0.0
C1412 C 0.01605 0.32816 0.93543 0.0
C1413 C 1.00381 0.31231 0.93726 0.0
C1414 C 0.99475 0.34659 0.95315 0.0
C1415 C 0.98695 0.31436 0.94677 0.0
C1416 C 0.97157 0.36584 0.96978 0.0
C1417 C 0.99885 0.39496 0.9738 0.0
N1418 N 0.98296 0.33111 0.95434 0.0
N1419 N 1.00273 0.37883 0.96475 0.0
H1420 H 0.62351 0.80923 0.2824 0.0
H1421 H 0.60407 0.79261 0.39031 0.0
H1422 H 0.66631 0.8158 0.3274 0.0
H1423 H 0.55905 0.78866 0.34725 0.0
H1424 H 0.62673 0.80143 0.36701 0.0
H1425 H 0.59952 0.80148 0.30533 0.0
C1426 C 0.62788 0.80898 0.29707 0.0
C1427 C 0.64696 0.81329 0.30297 0.0
C1428 C 0.6119 0.79874 0.36258 0.0
C1429 C 0.6196 0.80455 0.32925 0.0
C1430 C 0.59889 0.7937 0.37593 0.0
C1431 C 0.57958 0.78984 0.37076 0.0
C1432 C 0.60569 0.79987 0.34376 0.0
C1433 C 0.57379 0.79155 0.35187 0.0
C1434 C 0.61416 0.80467 0.31015 0.0
C1435 C 0.65175 0.8129 0.32218 0.0
N1436 N 0.58681 0.79635 0.33902 0.0
N1437 N 0.63821 0.80861 0.33456 0.0
H1438 H 0.06667 0.12154 0.94715 0.0
H1439 H 0.01605 0.21885 0.94918 0.0
H1440 H 0.02482 0.13484 0.98705 0.0
H1441 H 0.05136 0.20147 0.90494 0.0
H1442 H 0.01832 0.18803 0.96292 0.0
H1443 H 0.06061 0.15052 0.93125 0.0
C1444 C 0.05603 0.13041 0.95249 0.0
C1445 C 0.04625 0.12561 0.96854 0.0
C1446 C 0.02542 0.19091 0.95011 0.0
C1447 C 0.0395 0.15922 0.95047 0.0
C1448 C 0.02408 0.2085 0.94222 0.0
C1449 C 0.03356 0.2128 0.92588 0.0
C1450 C 0.03644 0.17755 0.94171 0.0
C1451 C 0.04384 0.19882 0.91755 0.0
C1452 C 0.05266 0.14707 0.94343 0.0
C1453 C 0.03294 0.13801 0.97493 0.0
N1454 N 0.04512 0.18191 0.92563 0.0
N1455 N 0.03003 0.15425 0.96594 0.0
H1456 H 0.38297 0.30536 0.20784 0.0
H1457 H 0.48173 0.26629 0.17554 0.0
H1458 H 0.41719 0.269 0.24137 0.0
H1459 H 0.44216 0.294 0.13888 0.0
H1460 H 0.46042 0.2707 0.20124 0.0
H1461 H 0.40643 0.30446 0.18376 0.0
C1462 C 0.39537 0.29715 0.21017 0.0
C1463 C 0.39793 0.28713 0.2267 0.0
C1464 C 0.45648 0.27592 0.1876 0.0
C1465 C 0.42513 0.28629 0.19915 0.0
C1466 C 0.4687 0.2735 0.17293 0.0
C1467 C 0.4637 0.27968 0.15496 0.0
C1468 C 0.43918 0.28468 0.18432 0.0
C1469 C 0.44658 0.28889 0.15244 0.0
C1470 C 0.40885 0.29674 0.19642 0.0
C1471 C 0.41461 0.27711 0.229 0.0
N1472 N 0.43493 0.29104 0.1669 0.0
N1473 N 0.4275 0.2769 0.21538 0.0
H1474 H 0.53179 0.40687 0.07155 0.0
H1475 H 0.55138 0.29823 0.06467 0.0
H1476 H 0.55645 0.38014 0.02466 0.0
H1477 H 0.51316 0.31986 0.10441 0.0
H1478 H 0.55636 0.32929 0.05253 0.0
H1479 H 0.5274 0.37624 0.08606 0.0
C1480 C 0.53628 0.39458 0.06432 0.0
C1481 C 0.5444 0.39606 0.0468 0.0
C1482 C 0.5469 0.32733 0.06393 0.0
C1483 C 0.53958 0.36111 0.06335 0.0
C1484 C 0.54406 0.30952 0.07097 0.0
C1485 C 0.53168 0.30627 0.08557 0.0
C1486 C 0.53739 0.34224 0.07148 0.0
C1487 C 0.52279 0.32165 0.09313 0.0
C1488 C 0.53371 0.37713 0.07257 0.0
C1489 C 0.54988 0.37967 0.03803 0.0
N1490 N 0.52577 0.33899 0.08596 0.0
N1491 N 0.54744 0.36297 0.04641 0.0
H1492 H 0.65513 0.22044 0.18316 0.0
H1493 H 0.54599 0.246 0.16433 0.0
H1494 H 0.6162 0.22677 0.22748 0.0
H1495 H 0.58562 0.23663 0.12117 0.0
H1496 H 0.57147 0.2406 0.18791 0.0
H1497 H 0.62985 0.22794 0.16055 0.0
C1498 C 0.64122 0.22334 0.18816 0.0
C1499 C 0.63778 0.22276 0.20728 0.0
C1500 C 0.57455 0.23978 0.17327 0.0
C1501 C 0.60861 0.23159 0.18131 0.0
C1502 C 0.56001 0.24288 0.15978 0.0
C1503 C 0.56357 0.24171 0.14066 0.0
C1504 C 0.5928 0.23554 0.16761 0.0
C1505 C 0.58208 0.23762 0.13567 0.0
C1506 C 0.62677 0.22772 0.17521 0.0
C1507 C 0.61954 0.22711 0.2129 0.0
N1508 N 0.5959 0.23467 0.14901 0.0
N1509 N 0.60561 0.23125 0.19997 0.0
H1510 H 0.47488 0.10846 0.06376 0.0
H1511 H 0.51555 0.21458 0.06518 0.0
H1512 H 0.49895 0.13528 0.01619 0.0
H1513 H 0.48733 0.18912 0.11124 0.0
H1514 H 0.51236 0.18482 0.04811 0.0
H1515 H 0.48176 0.13705 0.08221 0.0
C1516 C 0.48158 0.12036 0.05715 0.0
C1517 C 0.48616 0.11945 0.03828 0.0
C1518 C 0.50698 0.18569 0.062 0.0
C1519 C 0.49432 0.15228 0.0595 0.0
C1520 C 0.50888 0.20268 0.07182 0.0
C1521 C 0.50168 0.20439 0.0897 0.0
C1522 C 0.49779 0.17022 0.07007 0.0
C1523 C 0.49306 0.18848 0.09749 0.0
C1524 C 0.48561 0.13667 0.06775 0.0
C1525 C 0.49526 0.13524 0.03068 0.0
N1526 N 0.49128 0.17211 0.0876 0.0
N1527 N 0.49894 0.151 0.04127 0.0
H1528 H 0.28508 0.42433 0.72381 0.0
H1529 H 0.39701 0.4503 0.73667 0.0
H1530 H 0.32826 0.38398 0.73145 0.0
H1531 H 0.35459 0.49171 0.74018 0.0
H1532 H 0.37166 0.42613 0.73309 0.0
H1533 H 0.30992 0.44943 0.72816 0.0
C1534 C 0.29976 0.42074 0.7264 0.0
C1535 C 0.30456 0.40199 0.72733 0.0
C1536 C 0.36783 0.44048 0.73467 0.0
C1537 C 0.33303 0.43062 0.73228 0.0
C1538 C 0.38235 0.45437 0.73667 0.0
C1539 C 0.378 0.47316 0.73872 0.0
C1540 C 0.34868 0.44529 0.73457 0.0
C1541 C 0.35865 0.47743 0.73867 0.0
C1542 C 0.31391 0.43507 0.72897 0.0
C1543 C 0.32381 0.39819 0.73088 0.0
N1544 N 0.3447 0.4636 0.73656 0.0
N1545 N 0.33729 0.41233 0.73313 0.0
H1546 H 0.28681 0.61846 0.80648 0.0
H1547 H 0.37109 0.59516 0.73959 0.0
H1548 H 0.30124 0.65012 0.75804 0.0
H1549 H 0.35314 0.55793 0.78276 0.0
H1550 H 0.34563 0.61544 0.74687 0.0
H1551 H 0.31088 0.59622 0.79873 0.0
C1552 C 0.29499 0.62073 0.7942 0.0
C1553 C 0.29194 0.63624 0.7829 0.0
C1554 C 0.34715 0.60284 0.75477 0.0
C1555 C 0.31953 0.61082 0.77397 0.0
C1556 C 0.36178 0.59121 0.75065 0.0
C1557 C 0.36436 0.57478 0.76061 0.0
C1558 C 0.3349 0.5982 0.7691 0.0
C1559 C 0.3517 0.57045 0.77472 0.0
C1560 C 0.30867 0.60798 0.78975 0.0
C1561 C 0.30285 0.6383 0.76705 0.0
N1562 N 0.33755 0.58214 0.77862 0.0
N1563 N 0.31616 0.62584 0.76315 0.0
H1564 H 0.86368 0.47629 0.46385 0.0
H1565 H 0.83991 0.38112 0.51553 0.0
H1566 H 0.90472 0.44798 0.49829 0.0
H1567 H 0.79569 0.41567 0.49385 0.0
H1568 H 0.86376 0.40534 0.50844 0.0
H1569 H 0.83853 0.4542 0.4737 0.0
C1570 C 0.86739 0.46547 0.47352 0.0
C1571 C 0.88637 0.46398 0.48023 0.0
C1572 C 0.84885 0.40773 0.50532 0.0
C1573 C 0.85768 0.43864 0.4915 0.0
C1574 C 0.83518 0.39385 0.50931 0.0
C1575 C 0.81572 0.39629 0.5052 0.0
C1576 C 0.84316 0.4242 0.49689 0.0
C1577 C 0.81051 0.41319 0.49728 0.0
C1578 C 0.85301 0.45294 0.47921 0.0
C1579 C 0.8903 0.4498 0.49289 0.0
N1580 N 0.82418 0.42644 0.4932 0.0
N1581 N 0.87614 0.43763 0.49797 0.0
H1582 H 0.73652 0.87557 0.73712 0.0
H1583 H 0.68044 0.95528 0.78801 0.0
H1584 H 0.74027 0.88503 0.79679 0.0
H1585 H 0.68922 0.95253 0.72891 0.0
H1586 H 0.69653 0.92576 0.79166 0.0
H1587 H 0.71369 0.90002 0.73421 0.0
C1588 C 0.73255 0.88278 0.74964 0.0
C1589 C 0.74066 0.87841 0.7672 0.0
C1590 C 0.69465 0.93151 0.77787 0.0
C1591 C 0.71419 0.90643 0.76396 0.0
C1592 C 0.68531 0.94824 0.77576 0.0
C1593 C 0.68361 0.95642 0.75814 0.0
C1594 C 0.70209 0.92285 0.76222 0.0
C1595 C 0.69037 0.94681 0.74277 0.0
C1596 C 0.7194 0.89669 0.74797 0.0
C1597 C 0.73444 0.8879 0.78296 0.0
N1598 N 0.69938 0.93064 0.74518 0.0
N1599 N 0.72172 0.90158 0.78096 0.0
H1600 H 0.66214 0.54519 0.98066 0.0
H1601 H 0.69035 0.64697 0.02227 0.0
H1602 H 0.62372 0.57898 0.01022 0.0
H1603 H 0.73273 0.60942 1.00498 0.0
H1604 H 0.66582 0.62218 0.01705 0.0
H1605 H 0.68817 0.56839 0.98848 0.0
C1606 C 0.65918 0.55745 0.98883 0.0
C1607 C 0.64068 0.56013 0.99477 0.0
C1608 C 0.68048 0.61927 0.01447 0.0
C1609 C 0.67038 0.58673 1.00372 0.0
C1610 C 0.69455 0.63347 0.0174 0.0
C1611 C 0.71369 0.63035 0.01398 0.0
C1612 C 0.68541 0.60173 0.00784 0.0
C1613 C 0.71817 0.61247 0.00781 0.0
C1614 C 0.67407 0.57062 0.99337 0.0
C1615 C 0.63775 0.57619 1.0055 0.0
N1616 N 0.70411 0.59886 1.00478 0.0
N1617 N 0.65237 0.5889 0.00948 0.0
H1618 H 0.22277 0.65416 0.26673 0.0
H1619 H 0.20056 0.54724 0.2387 0.0
H1620 H 0.25502 0.6242 0.22723 0.0
H1621 H 0.16208 0.57976 0.26962 0.0
H1622 H 0.22004 0.57551 0.23352 0.0
H1623 H 0.19998 0.62737 0.26751 0.0
C1624 C 0.22502 0.64197 0.25818 0.0
C1625 C 0.24089 0.64141 0.24697 0.0
C1626 C 0.20722 0.57652 0.24126 0.0
C1627 C 0.21485 0.61065 0.24779 0.0
C1628 C 0.19602 0.56035 0.24418 0.0
C1629 C 0.17963 0.56107 0.25463 0.0
C1630 C 0.20217 0.59357 0.24904 0.0
C1631 C 0.17459 0.57852 0.26148 0.0
C1632 C 0.21195 0.62671 0.25855 0.0
C1633 C 0.24294 0.62532 0.23598 0.0
N1634 N 0.18593 0.59403 0.25874 0.0
N1635 N 0.23019 0.61054 0.2368 0.0
H1636 H 0.8673 0.53646 0.06263 0.0
H1637 H 0.82373 0.62065 1.00525 0.0
H1638 H 0.89735 0.5654 0.01973 0.0
H1639 H 0.79477 0.59128 0.0486 0.0
H1640 H 0.84966 0.59902 0.00824 0.0
H1641 H 0.83965 0.55496 0.0558 0.0
C1642 C 0.8681 0.54672 0.05176 0.0
C1643 C 0.8848 0.54948 0.04189 0.0
C1644 C 0.83754 0.59723 0.01698 0.0
C1645 C 0.85298 0.57076 0.03386 0.0
C1646 C 0.82269 0.60954 0.01524 0.0
C1647 C 0.80707 0.6079 0.02678 0.0
C1648 C 0.83679 0.58316 0.03037 0.0
C1649 C 0.80655 0.59321 0.03948 0.0
C1650 C 0.85223 0.55724 0.04778 0.0
C1651 C 0.88478 0.56273 0.02766 0.0
N1652 N 0.82121 0.58153 0.041 0.0
N1653 N 0.86919 0.57297 0.02418 0.0
H1654 H 0.11573 0.94303 0.00893 0.0
H1655 H 0.22805 0.92713 0.01363 0.0
H1656 H 0.15772 0.98469 0.03023 0.0
H1657 H 0.18501 0.8863 0.99264 0.0
H1658 H 0.20311 0.94956 0.01724 0.0
H1659 H 0.14138 0.92315 1.0006 0.0
C1660 C 0.13037 0.94801 0.01186 0.0
C1661 C 0.13453 0.9655 0.02048 0.0
C1662 C 0.19917 0.93574 0.01168 0.0
C1663 C 0.16416 0.94276 0.01085 0.0
C1664 C 0.21342 0.92294 0.00954 0.0
C1665 C 0.20863 0.90472 1.00295 0.0
C1666 C 0.18 0.93027 1.00719 0.0
C1667 C 0.18941 0.90011 0.99791 0.0
C1668 C 0.14505 0.93668 1.00701 0.0
C1669 C 0.15383 0.97135 0.02356 0.0
N1670 N 0.17584 0.91272 1.00025 0.0
N1671 N 0.16791 0.95995 0.01889 0.0
loop_
_geom_bond_atom_site_label_1
_geom_bond_atom_site_label_2
_geom_bond_distance
_geom_bond_site_symmetry_2
_ccdc_geom_bond_type
C0 C1 1.264 . S
C0 C5 1.479 . S
C0 C10 1.465 1_655 S
C1 C0 1.264 . S
C1 C3 1.339 . S
C1 H28 0.931 1_655 S
C2 C3 1.395 . S
C2 C4 1.320 . S
C3 C1 1.339 . S
C3 C2 1.395 . S
C3 H29 0.886 1_545 S
C4 C2 1.320 . S
C4 C5 1.405 . S
C4 H30 0.930 . S
C5 C0 1.479 . S
C5 C4 1.405 . S
C5 H31 0.931 . S
U6 O7 2.454 . S
U6 O8 2.458 1_554 S
U6 C9 2.988 1_554 S
U6 C10 2.847 . S
U6 C23 2.882 . S
U6 O24 2.441 . S
U6 O25 2.420 . S
U6 O26 2.455 . S
U6 O27 2.449 . S
O7 U6 2.454 . S
O7 C9 1.358 1_554 S
O8 U6 2.458 1_556 S
O8 C9 1.285 . S
C9 U6 2.988 1_556 S
C9 O7 1.358 1_556 S
C9 O8 1.285 . S
C9 C11 1.360 . S
C10 C0 1.465 1_455 S
C10 U6 2.847 . S
C10 O24 1.249 . S
C10 O25 1.202 . S
C11 C9 1.360 . S
C11 C13 1.408 . S
C11 C16 1.342 . S
C12 C13 1.310 . S
C12 C15 1.461 . S
C12 H32 0.932 . S
C13 C11 1.408 . S
C13 C12 1.310 . S
C13 H33 0.930 1_556 S
C14 C15 1.474 . S
C14 C16 1.285 . S
C14 H34 0.929 . S
C15 C12 1.461 . S
C15 C14 1.474 . S
C16 C11 1.342 . S
C16 C14 1.285 . S
C16 H35 0.930 . S
C17 C20 1.424 . S
C17 C22 1.245 . S
C17 C23 1.428 1_565 S
C18 C21 1.260 . S
C18 C22 1.477 . S
C18 H36 0.932 1_554 S
C19 C20 1.384 . S
C19 C21 1.479 . S
C19 H37 0.929 . S
C20 C17 1.424 . S
C20 C19 1.384 . S
C20 H38 0.928 . S
C21 C18 1.260 . S
C21 C19 1.479 . S
C22 C17 1.245 . S
C22 C18 1.477 . S
C22 H39 0.932 1_564 S
C23 U6 2.882 . S
C23 C17 1.428 1_545 S
C23 O26 1.301 . S
C23 O27 1.282 . S
O24 U6 2.441 . S
O24 C10 1.249 . S
O25 U6 2.420 . S
O25 C10 1.202 . S
O26 U6 2.455 . S
O26 C23 1.301 . S
O27 U6 2.449 . S
O27 C23 1.282 . S
H28 C1 0.931 1_455 S
H29 C3 0.886 1_565 S
H30 C4 0.930 . S
H31 C5 0.931 . S
H32 C12 0.932 . S
H33 C13 0.930 1_554 S
H34 C14 0.929 . S
H35 C16 0.930 . S
H36 C18 0.932 1_556 S
H37 C19 0.929 . S
H38 C20 0.928 . S
H39 C22 0.932 1_546 S
C40 C41 1.264 . S
C40 C45 1.479 . S
C40 C50 1.465 . S
C41 C40 1.264 . S
C41 C43 1.339 . S
C41 H68 0.931 . S
C42 C43 1.395 . S
C42 C44 1.320 . S
C43 C41 1.339 . S
C43 C42 1.395 . S
C43 H69 0.929 . S
C44 C42 1.320 . S
C44 C45 1.405 . S
C44 H70 0.930 . S
C45 C40 1.479 . S
C45 C44 1.405 . S
C45 H71 0.931 . S
U46 O47 2.454 . S
U46 O48 2.458 . S
U46 C49 2.984 . S
U46 C50 2.847 . S
U46 C63 2.882 . S
U46 O64 2.441 . S
U46 O65 2.420 . S
U46 O66 2.455 . S
U46 O67 2.449 . S
O47 U46 2.454 . S
O47 C49 1.353 . S
O48 U46 2.458 . S
O48 C49 1.286 . S
C49 U46 2.984 . S
C49 O47 1.353 . S
C49 O48 1.286 . S
C49 C51 1.363 . S
C50 C40 1.465 . S
C50 U46 2.847 . S
C50 O64 1.249 . S
C50 O65 1.202 . S
C51 C49 1.363 . S
C51 C53 1.408 . S
C51 C56 1.342 . S
C52 C53 1.310 . S
C52 C55 1.461 . S
C52 H72 0.932 . S
C53 C51 1.408 . S
C53 C52 1.310 . S
C53 H73 0.930 . S
C54 C55 1.474 . S
C54 C56 1.285 . S
C54 H74 0.929 . S
C55 C52 1.461 . S
C55 C54 1.474 . S
C56 C51 1.342 . S
C56 C54 1.285 . S
C56 H75 0.930 . S
C57 C60 1.424 . S
C57 C62 1.245 . S
C57 C63 1.428 . S
C58 C61 1.260 . S
C58 C62 1.477 . S
C58 H76 0.932 . S
C59 C60 1.384 . S
C59 C61 1.479 . S
C59 H77 0.929 . S
C60 C57 1.424 . S
C60 C59 1.384 . S
C60 H78 0.928 . S
C61 C58 1.260 . S
C61 C59 1.479 . S
C62 C57 1.245 . S
C62 C58 1.477 . S
C62 H79 0.932 . S
C63 U46 2.882 . S
C63 C57 1.428 . S
C63 O66 1.301 . S
C63 O67 1.282 . S
O64 U46 2.441 . S
O64 C50 1.249 . S
O65 U46 2.420 . S
O65 C50 1.202 . S
O66 U46 2.455 . S
O66 C63 1.301 . S
O67 U46 2.449 . S
O67 C63 1.282 . S
H68 C41 0.931 . S
H69 C43 0.929 . S
H70 C44 0.930 . S
H71 C45 0.931 . S
H72 C52 0.932 . S
H73 C53 0.930 . S
H74 C54 0.929 . S
H75 C56 0.930 . S
H76 C58 0.932 . S
H77 C59 0.929 . S
H78 C60 0.928 . S
H79 C62 0.932 . S
C80 C81 1.264 1_655 S
C80 C85 1.479 1_554 S
C80 C90 1.465 . S
C81 C80 1.264 1_455 S
C81 C83 1.339 1_554 S
C81 H108 0.931 . S
C82 C83 1.395 1_655 S
C82 C84 1.320 . S
C83 C81 1.339 1_556 S
C83 C82 1.395 1_455 S
C83 H109 0.934 . S
C84 C82 1.320 . S
C84 C85 1.405 . S
C84 H110 0.930 . S
C85 C80 1.479 1_556 S
C85 C84 1.405 . S
C85 H111 0.931 . S
U86 O87 2.454 . S
U86 O88 2.458 . S
U86 C89 2.984 . S
U86 C90 2.847 . S
U86 C103 2.882 1_655 S
U86 O104 2.441 . S
U86 O105 2.420 1_655 S
U86 O106 2.455 . S
U86 O107 2.449 1_655 S
O87 U86 2.454 . S
O87 C89 1.353 . S
O88 U86 2.458 . S
O88 C89 1.286 . S
C89 U86 2.984 . S
C89 O87 1.353 . S
C89 O88 1.286 . S
C89 C91 1.363 . S
C90 C80 1.465 . S
C90 U86 2.847 . S
C90 O104 1.249 . S
C90 O105 1.202 1_655 S
C91 C89 1.363 . S
C91 C93 1.408 . S
C91 C96 1.342 . S
C92 C93 1.310 . S
C92 C95 1.461 . S
C92 H112 0.932 . S
C93 C91 1.408 . S
C93 C92 1.310 . S
C93 H113 0.930 . S
C94 C95 1.474 . S
C94 C96 1.285 . S
C94 H114 0.929 . S
C95 C92 1.461 . S
C95 C94 1.474 . S
C96 C91 1.342 . S
C96 C94 1.285 . S
C96 H115 0.930 . S
C97 C100 1.424 . S
C97 C102 1.245 . S
C97 C103 1.428 . S
C98 C101 1.260 . S
C98 C102 1.477 . S
C98 H116 0.932 . S
C99 C100 1.384 . S
C99 C101 1.479 . S
C99 H117 0.929 . S
C100 C97 1.424 . S
C100 C99 1.384 . S
C100 H118 0.928 . S
C101 C98 1.260 . S
C101 C99 1.479 . S
C102 C97 1.245 . S
C102 C98 1.477 . S
C102 H119 0.932 . S
C103 U86 2.882 1_455 S
C103 C97 1.428 . S
C103 O106 1.301 1_455 S
C103 O107 1.282 . S
O104 U86 2.441 . S
O104 C90 1.249 . S
O105 U86 2.420 1_455 S
O105 C90 1.202 1_455 S
O106 U86 2.455 . S
O106 C103 1.301 1_655 S
O107 U86 2.449 1_455 S
O107 C103 1.282 . S
H108 C81 0.931 . S
H109 C83 0.934 . S
H110 C84 0.930 . S
H111 C85 0.931 . S
H112 C92 0.932 . S
H113 C93 0.930 . S
H114 C94 0.929 . S
H115 C96 0.930 . S
H116 C98 0.932 . S
H117 C99 0.929 . S
H118 C100 0.928 . S
H119 C102 0.932 . S
C120 C121 1.264 . S
C120 C125 1.479 . S
C120 C130 1.465 . S
C121 C120 1.264 . S
C121 C123 1.339 . S
C121 H148 0.931 . S
C122 C123 1.395 . S
C122 C124 1.320 . S
C123 C121 1.339 . S
C123 C122 1.395 . S
C123 H149 0.929 . S
C124 C122 1.320 . S
C124 C125 1.405 . S
C124 H150 0.930 . S
C125 C120 1.479 . S
C125 C124 1.405 . S
C125 H151 0.931 . S
U126 O127 2.454 . S
U126 O128 2.458 . S
U126 C129 2.984 . S
U126 C130 2.847 . S
U126 C143 2.882 . S
U126 O144 2.441 . S
U126 O145 2.420 . S
U126 O146 2.455 . S
U126 O147 2.449 . S
O127 U126 2.454 . S
O127 C129 1.353 . S
O128 U126 2.458 . S
O128 C129 1.286 . S
C129 U126 2.984 . S
C129 O127 1.353 . S
C129 O128 1.286 . S
C129 C131 1.363 . S
C130 C120 1.465 . S
C130 U126 2.847 . S
C130 O144 1.249 . S
C130 O145 1.202 . S
C131 C129 1.363 . S
C131 C133 1.408 . S
C131 C136 1.342 . S
C132 C133 1.310 . S
C132 C135 1.461 . S
C132 H152 0.932 . S
C133 C131 1.408 . S
C133 C132 1.310 . S
C133 H153 0.930 . S
C134 C135 1.474 . S
C134 C136 1.285 . S
C134 H154 0.929 . S
C135 C132 1.461 . S
C135 C134 1.474 . S
C136 C131 1.342 . S
C136 C134 1.285 . S
C136 H155 0.930 . S
C137 C140 1.424 . S
C137 C142 1.245 . S
C137 C143 1.428 . S
C138 C141 1.260 . S
C138 C142 1.477 . S
C138 H156 0.932 . S
C139 C140 1.384 . S
C139 C141 1.479 . S
C139 H157 0.929 . S
C140 C137 1.424 . S
C140 C139 1.384 . S
C140 H158 0.928 . S
C141 C138 1.260 . S
C141 C139 1.479 . S
C142 C137 1.245 . S
C142 C138 1.477 . S
C142 H159 0.932 . S
C143 U126 2.882 . S
C143 C137 1.428 . S
C143 O146 1.301 . S
C143 O147 1.282 . S
O144 U126 2.441 . S
O144 C130 1.249 . S
O145 U126 2.420 . S
O145 C130 1.202 . S
O146 U126 2.455 . S
O146 C143 1.301 . S
O147 U126 2.449 . S
O147 C143 1.282 . S
H148 C121 0.931 . S
H149 C123 0.929 . S
H150 C124 0.930 . S
H151 C125 0.931 . S
H152 C132 0.932 . S
H153 C133 0.930 . S
H154 C134 0.929 . S
H155 C136 0.930 . S
H156 C138 0.932 . S
H157 C139 0.929 . S
H158 C140 0.928 . S
H159 C142 0.932 . S
C160 C161 1.230 1_565 S
C160 C165 1.479 1_455 S
C160 C170 1.465 . S
C161 C160 1.230 1_545 S
C161 C163 1.346 . S
C161 H188 0.959 . S
C162 C163 1.395 1_665 S
C162 C164 1.320 . S
C163 C161 1.346 . S
C163 C162 1.395 1_445 S
C163 H189 0.929 . S
C164 C162 1.320 . S
C164 C165 1.405 . S
C164 H190 0.930 . S
C165 C160 1.479 1_655 S
C165 C164 1.405 . S
C165 H191 0.931 . S
U166 O167 2.454 . S
U166 O168 2.458 . S
U166 C169 2.984 . S
U166 C170 2.847 . S
U166 C183 2.882 1_565 S
U166 O184 2.441 . S
U166 O185 2.420 . S
U166 O186 2.455 . S
U166 O187 2.449 1_565 S
O167 U166 2.454 . S
O167 C169 1.353 . S
O168 U166 2.458 . S
O168 C169 1.286 . S
C169 U166 2.984 . S
C169 O167 1.353 . S
C169 O168 1.286 . S
C169 C171 1.363 . S
C170 C160 1.465 . S
C170 U166 2.847 . S
C170 O184 1.249 . S
C170 O185 1.202 . S
C171 C169 1.363 . S
C171 C173 1.408 . S
C171 C176 1.342 . S
C172 C173 1.310 . S
C172 C175 1.461 . S
C172 H192 0.932 . S
C173 C171 1.408 . S
C173 C172 1.310 . S
C173 H193 0.930 . S
C174 C175 1.474 . S
C174 C176 1.285 . S
C174 H194 0.929 . S
C175 C172 1.461 . S
C175 C174 1.474 . S
C176 C171 1.342 . S
C176 C174 1.285 . S
C176 H195 0.930 . S
C177 C180 1.424 . S
C177 C182 1.245 . S
C177 C183 1.428 . S
C178 C181 1.260 . S
C178 C182 1.477 . S
C178 H196 0.932 . S
C179 C180 1.384 . S
C179 C181 1.479 . S
C179 H197 0.929 . S
C180 C177 1.424 . S
C180 C179 1.384 . S
C180 H198 0.928 . S
C181 C178 1.260 . S
C181 C179 1.479 . S
C182 C177 1.245 . S
C182 C178 1.477 . S
C182 H199 0.932 1_545 S
C183 U166 2.882 1_545 S
C183 C177 1.428 . S
C183 O186 1.301 1_545 S
C183 O187 1.282 . S
O184 U166 2.441 . S
O184 C170 1.249 . S
O185 U166 2.420 . S
O185 C170 1.202 . S
O186 U166 2.455 . S
O186 C183 1.301 1_565 S
O187 U166 2.449 1_545 S
O187 C183 1.282 . S
H188 C161 0.959 . S
H189 C163 0.929 . S
H190 C164 0.930 . S
H191 C165 0.931 . S
H192 C172 0.932 . S
H193 C173 0.930 . S
H194 C174 0.929 . S
H195 C176 0.930 . S
H196 C178 0.932 . S
H197 C179 0.929 . S
H198 C180 0.928 . S
H199 C182 0.932 1_565 S
C200 C201 1.264 . S
C200 C205 1.479 . S
C200 C210 1.465 . S
C201 C200 1.264 . S
C201 C203 1.339 . S
C201 H228 0.931 . S
C202 C203 1.395 . S
C202 C204 1.320 . S
C203 C201 1.339 . S
C203 C202 1.395 . S
C203 H229 0.929 . S
C204 C202 1.320 . S
C204 C205 1.405 . S
C204 H230 0.930 . S
C205 C200 1.479 . S
C205 C204 1.405 . S
C205 H231 0.931 . S
U206 O207 2.454 . S
U206 O208 2.458 . S
U206 C209 2.984 . S
U206 C210 2.847 . S
U206 C223 2.882 . S
U206 O224 2.441 . S
U206 O225 2.420 . S
U206 O226 2.455 . S
U206 O227 2.449 . S
O207 U206 2.454 . S
O207 C209 1.353 . S
O208 U206 2.458 . S
O208 C209 1.286 . S
C209 U206 2.984 . S
C209 O207 1.353 . S
C209 O208 1.286 . S
C209 C211 1.363 . S
C210 C200 1.465 . S
C210 U206 2.847 . S
C210 O224 1.249 . S
C210 O225 1.202 . S
C211 C209 1.363 . S
C211 C213 1.408 . S
C211 C216 1.342 . S
C212 C213 1.310 . S
C212 C215 1.461 . S
C212 H232 0.932 . S
C213 C211 1.408 . S
C213 C212 1.310 . S
C213 H233 0.930 . S
C214 C215 1.474 . S
C214 C216 1.285 . S
C214 H234 0.929 . S
C215 C212 1.461 . S
C215 C214 1.474 . S
C216 C211 1.342 . S
C216 C214 1.285 . S
C216 H235 0.930 . S
C217 C220 1.424 . S
C217 C222 1.245 . S
C217 C223 1.428 . S
C218 C221 1.260 . S
C218 C222 1.477 . S
C218 H236 0.932 . S
C219 C220 1.384 . S
C219 C221 1.479 . S
C219 H237 0.929 . S
C220 C217 1.424 . S
C220 C219 1.384 . S
C220 H238 0.928 . S
C221 C218 1.260 . S
C221 C219 1.479 . S
C222 C217 1.245 . S
C222 C218 1.477 . S
C222 H239 0.932 . S
C223 U206 2.882 . S
C223 C217 1.428 . S
C223 O226 1.301 . S
C223 O227 1.282 . S
O224 U206 2.441 . S
O224 C210 1.249 . S
O225 U206 2.420 . S
O225 C210 1.202 . S
O226 U206 2.455 . S
O226 C223 1.301 . S
O227 U206 2.449 . S
O227 C223 1.282 . S
H228 C201 0.931 . S
H229 C203 0.929 . S
H230 C204 0.930 . S
H231 C205 0.931 . S
H232 C212 0.932 . S
H233 C213 0.930 . S
H234 C214 0.929 . S
H235 C216 0.930 . S
H236 C218 0.932 . S
H237 C219 0.929 . S
H238 C220 0.928 . S
H239 C222 0.932 . S
C240 C241 1.264 . S
C240 C245 1.479 . S
C240 C250 1.465 . S
C241 C240 1.264 . S
C241 C243 1.339 . S
C241 H268 0.931 1_655 S
C242 C243 1.395 . S
C242 C244 1.320 . S
C243 C241 1.339 . S
C243 C242 1.395 . S
C243 H269 0.929 1_655 S
C244 C242 1.320 . S
C244 C245 1.405 . S
C244 H270 0.930 . S
C245 C240 1.479 . S
C245 C244 1.405 . S
C245 H271 0.931 . S
U246 O247 2.454 . S
U246 O248 2.458 . S
U246 C249 2.984 . S
U246 C250 2.847 . S
U246 C263 2.882 . S
U246 O264 2.441 . S
U246 O265 2.420 . S
U246 O266 2.455 . S
U246 O267 2.426 1_655 S
O247 U246 2.454 . S
O247 C249 1.353 . S
O248 U246 2.458 . S
O248 C249 1.286 . S
C249 U246 2.984 . S
C249 O247 1.353 . S
C249 O248 1.286 . S
C249 C251 1.363 . S
C250 C240 1.465 . S
C250 U246 2.847 . S
C250 O264 1.249 . S
C250 O265 1.202 . S
C251 C249 1.363 . S
C251 C253 1.408 . S
C251 C256 1.342 . S
C252 C253 1.310 . S
C252 C255 1.461 . S
C252 H272 0.932 . S
C253 C251 1.408 . S
C253 C252 1.310 . S
C253 H273 0.930 . S
C254 C255 1.474 . S
C254 C256 1.285 . S
C254 H274 0.929 . S
C255 C252 1.461 . S
C255 C254 1.474 . S
C256 C251 1.342 . S
C256 C254 1.285 . S
C256 H275 0.930 . S
C257 C260 1.424 . S
C257 C262 1.245 . S
C257 C263 1.428 1_455 S
C258 C261 1.260 . S
C258 C262 1.477 . S
C258 H276 0.932 . S
C259 C260 1.384 . S
C259 C261 1.479 . S
C259 H277 0.929 . S
C260 C257 1.424 . S
C260 C259 1.384 . S
C260 H278 0.928 . S
C261 C258 1.260 . S
C261 C259 1.479 . S
C262 C257 1.245 . S
C262 C258 1.477 . S
C262 H279 0.932 1_455 S
C263 U246 2.882 . S
C263 C257 1.428 1_655 S
C263 O266 1.301 . S
C263 O267 1.279 1_655 S
O264 U246 2.441 . S
O264 C250 1.249 . S
O265 U246 2.420 . S
O265 C250 1.202 . S
O266 U246 2.455 . S
O266 C263 1.301 . S
O267 U246 2.426 1_455 S
O267 C263 1.279 1_455 S
H268 C241 0.931 1_455 S
H269 C243 0.929 1_455 S
H270 C244 0.930 . S
H271 C245 0.931 . S
H272 C252 0.932 . S
H273 C253 0.930 . S
H274 C254 0.929 . S
H275 C256 0.930 . S
H276 C258 0.932 . S
H277 C259 0.929 . S
H278 C260 0.928 . S
H279 C262 0.932 1_655 S
C280 C281 1.264 . S
C280 C285 1.479 . S
C280 C290 1.465 . S
C281 C280 1.264 . S
C281 C283 1.339 . S
C281 H308 0.931 . S
C282 C283 1.395 . S
C282 C284 1.320 . S
C283 C281 1.339 . S
C283 C282 1.395 . S
C283 H309 0.929 . S
C284 C282 1.320 . S
C284 C285 1.405 . S
C284 H310 0.930 . S
C285 C280 1.479 . S
C285 C284 1.405 . S
C285 H311 0.931 . S
U286 O287 2.454 . S
U286 O288 2.458 . S
U286 C289 2.984 . S
U286 C290 2.847 . S
U286 C303 2.882 . S
U286 O304 2.441 . S
U286 O305 2.420 . S
U286 O306 2.455 . S
U286 O307 2.449 . S
O287 U286 2.454 . S
O287 C289 1.353 . S
O288 U286 2.458 . S
O288 C289 1.286 . S
C289 U286 2.984 . S
C289 O287 1.353 . S
C289 O288 1.286 . S
C289 C291 1.363 . S
C290 C280 1.465 . S
C290 U286 2.847 . S
C290 O304 1.249 . S
C290 O305 1.202 . S
C291 C289 1.363 . S
C291 C293 1.408 . S
C291 C296 1.342 . S
C292 C293 1.310 . S
C292 C295 1.461 . S
C292 H312 0.932 . S
C293 C291 1.408 . S
C293 C292 1.310 . S
C293 H313 0.930 . S
C294 C295 1.474 . S
C294 C296 1.285 . S
C294 H314 0.929 . S
C295 C292 1.461 . S
C295 C294 1.474 . S
C296 C291 1.342 . S
C296 C294 1.285 . S
C296 H315 0.930 . S
C297 C300 1.424 . S
C297 C302 1.245 . S
C297 C303 1.428 . S
C298 C301 1.260 . S
C298 C302 1.477 . S
C298 H316 0.932 . S
C299 C300 1.384 . S
C299 C301 1.479 . S
C299 H317 0.929 . S
C300 C297 1.424 . S
C300 C299 1.384 . S
C300 H318 0.928 . S
C301 C298 1.260 . S
C301 C299 1.479 . S
C302 C297 1.245 . S
C302 C298 1.477 . S
C302 H319 0.932 . S
C303 U286 2.882 . S
C303 C297 1.428 . S
C303 O306 1.301 . S
C303 O307 1.282 . S
O304 U286 2.441 . S
O304 C290 1.249 . S
O305 U286 2.420 . S
O305 C290 1.202 . S
O306 U286 2.455 . S
O306 C303 1.301 . S
O307 U286 2.449 . S
O307 C303 1.282 . S
H308 C281 0.931 . S
H309 C283 0.929 . S
H310 C284 0.930 . S
H311 C285 0.931 . S
H312 C292 0.932 . S
H313 C293 0.930 . S
H314 C294 0.929 . S
H315 C296 0.930 . S
H316 C298 0.932 . S
H317 C299 0.929 . S
H318 C300 0.928 . S
H319 C302 0.932 . S
C320 C321 1.264 . S
C320 C325 1.479 . S
C320 C330 1.465 . S
C321 C320 1.264 . S
C321 C323 1.339 . S
C321 H348 0.931 . S
C322 C323 1.395 . S
C322 C324 1.320 . S
C323 C321 1.339 . S
C323 C322 1.395 . S
C323 H349 0.929 . S
C324 C322 1.320 . S
C324 C325 1.405 . S
C324 H350 0.930 . S
C325 C320 1.479 . S
C325 C324 1.405 . S
C325 H351 0.931 . S
U326 O327 2.454 . S
U326 O328 2.458 . S
U326 C329 2.984 . S
U326 C330 2.847 . S
U326 C343 2.882 . S
U326 O344 2.441 . S
U326 O345 2.420 . S
U326 O346 2.455 . S
U326 O347 2.449 . S
O327 U326 2.454 . S
O327 C329 1.353 . S
O328 U326 2.458 . S
O328 C329 1.286 . S
C329 U326 2.984 . S
C329 O327 1.353 . S
C329 O328 1.286 . S
C329 C331 1.363 . S
C330 C320 1.465 . S
C330 U326 2.847 . S
C330 O344 1.249 . S
C330 O345 1.202 . S
C331 C329 1.363 . S
C331 C333 1.408 . S
C331 C336 1.342 . S
C332 C333 1.310 . S
C332 C335 1.461 . S
C332 H352 0.932 . S
C333 C331 1.408 . S
C333 C332 1.310 . S
C333 H353 0.930 . S
C334 C335 1.474 . S
C334 C336 1.285 . S
C334 H354 0.929 . S
C335 C332 1.461 . S
C335 C334 1.474 . S
C336 C331 1.342 . S
C336 C334 1.285 . S
C336 H355 0.930 . S
C337 C340 1.424 . S
C337 C342 1.245 . S
C337 C343 1.428 . S
C338 C341 1.260 . S
C338 C342 1.477 . S
C338 H356 0.932 . S
C339 C340 1.384 . S
C339 C341 1.479 . S
C339 H357 0.929 . S
C340 C337 1.424 . S
C340 C339 1.384 . S
C340 H358 0.928 . S
C341 C338 1.260 . S
C341 C339 1.479 . S
C342 C337 1.245 . S
C342 C338 1.477 . S
C342 H359 0.932 . S
C343 U326 2.882 . S
C343 C337 1.428 . S
C343 O346 1.301 . S
C343 O347 1.282 . S
O344 U326 2.441 . S
O344 C330 1.249 . S
O345 U326 2.420 . S
O345 C330 1.202 . S
O346 U326 2.455 . S
O346 C343 1.301 . S
O347 U326 2.449 . S
O347 C343 1.282 . S
H348 C321 0.931 . S
H349 C323 0.929 . S
H350 C324 0.930 . S
H351 C325 0.931 . S
H352 C332 0.932 . S
H353 C333 0.930 . S
H354 C334 0.929 . S
H355 C336 0.930 . S
H356 C338 0.932 . S
H357 C339 0.929 . S
H358 C340 0.928 . S
H359 C342 0.932 . S
C360 C361 1.264 . S
C360 C365 1.479 . S
C360 C370 1.465 . S
C361 C360 1.264 . S
C361 C363 1.339 . S
C361 H388 0.931 . S
C362 C363 1.395 . S
C362 C364 1.320 . S
C363 C361 1.339 . S
C363 C362 1.395 . S
C363 H389 0.929 . S
C364 C362 1.320 . S
C364 C365 1.405 . S
C364 H390 0.930 . S
C365 C360 1.479 . S
C365 C364 1.405 . S
C365 H391 0.931 . S
U366 O367 2.454 . S
U366 O368 2.458 . S
U366 C369 2.984 . S
U366 C370 2.847 . S
U366 C383 2.882 . S
U366 O384 2.441 . S
U366 O385 2.420 . S
U366 O386 2.455 . S
U366 O387 2.449 . S
O367 U366 2.454 . S
O367 C369 1.353 . S
O368 U366 2.458 . S
O368 C369 1.286 . S
C369 U366 2.984 . S
C369 O367 1.353 . S
C369 O368 1.286 . S
C369 C371 1.363 1_565 S
C370 C360 1.465 . S
C370 U366 2.847 . S
C370 O384 1.249 . S
C370 O385 1.202 . S
C371 C369 1.363 1_545 S
C371 C373 1.408 . S
C371 C376 1.342 . S
C372 C373 1.310 . S
C372 C375 1.461 . S
C372 H392 0.932 . S
C373 C371 1.408 . S
C373 C372 1.310 . S
C373 H393 0.930 1_545 S
C374 C375 1.474 . S
C374 C376 1.285 . S
C374 H394 0.929 . S
C375 C372 1.461 . S
C375 C374 1.474 . S
C376 C371 1.342 . S
C376 C374 1.285 . S
C376 H395 0.930 . S
C377 C380 1.424 . S
C377 C382 1.245 . S
C377 C383 1.428 . S
C378 C381 1.260 . S
C378 C382 1.477 . S
C378 H396 0.932 1_565 S
C379 C380 1.384 . S
C379 C381 1.479 . S
C379 H397 0.929 . S
C380 C377 1.424 . S
C380 C379 1.384 . S
C380 H398 0.928 . S
C381 C378 1.260 . S
C381 C379 1.479 . S
C382 C377 1.245 . S
C382 C378 1.477 . S
C382 H399 0.929 1_565 S
C383 U366 2.882 . S
C383 C377 1.428 . S
C383 O386 1.301 . S
C383 O387 1.282 . S
O384 U366 2.441 . S
O384 C370 1.249 . S
O385 U366 2.420 . S
O385 C370 1.202 . S
O386 U366 2.455 . S
O386 C383 1.301 . S
O387 U366 2.449 . S
O387 C383 1.282 . S
H388 C361 0.931 . S
H389 C363 0.929 . S
H390 C364 0.930 . S
H391 C365 0.931 . S
H392 C372 0.932 . S
H393 C373 0.930 1_565 S
H394 C374 0.929 . S
H395 C376 0.930 . S
H396 C378 0.932 1_545 S
H397 C379 0.929 . S
H398 C380 0.928 . S
H399 C382 0.929 1_545 S
C400 C401 1.264 . S
C400 C405 1.479 . S
C400 C410 1.465 . S
C401 C400 1.264 . S
C401 C403 1.339 . S
C401 H428 0.931 . S
C402 C403 1.395 . S
C402 C404 1.320 . S
C403 C401 1.339 . S
C403 C402 1.395 . S
C403 H429 0.929 . S
C404 C402 1.320 . S
C404 C405 1.405 . S
C404 H430 0.930 . S
C405 C400 1.479 . S
C405 C404 1.405 . S
C405 H431 0.931 . S
U406 O407 2.454 . S
U406 O408 2.458 . S
U406 C409 2.984 . S
U406 C410 2.847 . S
U406 C423 2.882 . S
U406 O424 2.441 . S
U406 O425 2.420 . S
U406 O426 2.455 . S
U406 O427 2.449 . S
O407 U406 2.454 . S
O407 C409 1.353 . S
O408 U406 2.458 . S
O408 C409 1.286 . S
C409 U406 2.984 . S
C409 O407 1.353 . S
C409 O408 1.286 . S
C409 C411 1.363 . S
C410 C400 1.465 . S
C410 U406 2.847 . S
C410 O424 1.249 . S
C410 O425 1.202 . S
C411 C409 1.363 . S
C411 C413 1.408 . S
C411 C416 1.342 . S
C412 C413 1.310 . S
C412 C415 1.461 . S
C412 H432 0.932 . S
C413 C411 1.408 . S
C413 C412 1.310 . S
C413 H433 0.930 . S
C414 C415 1.474 . S
C414 C416 1.285 . S
C414 H434 0.929 . S
C415 C412 1.461 . S
C415 C414 1.474 . S
C416 C411 1.342 . S
C416 C414 1.285 . S
C416 H435 0.930 . S
C417 C420 1.424 . S
C417 C422 1.245 . S
C417 C423 1.428 . S
C418 C421 1.260 . S
C418 C422 1.477 . S
C418 H436 0.932 . S
C419 C420 1.384 . S
C419 C421 1.479 . S
C419 H437 0.929 . S
C420 C417 1.424 . S
C420 C419 1.384 . S
C420 H438 0.928 . S
C421 C418 1.260 . S
C421 C419 1.479 . S
C422 C417 1.245 . S
C422 C418 1.477 . S
C422 H439 0.932 . S
C423 U406 2.882 . S
C423 C417 1.428 . S
C423 O426 1.301 . S
C423 O427 1.282 . S
O424 U406 2.441 . S
O424 C410 1.249 . S
O425 U406 2.420 . S
O425 C410 1.202 . S
O426 U406 2.455 . S
O426 C423 1.301 . S
O427 U406 2.449 . S
O427 C423 1.282 . S
H428 C401 0.931 . S
H429 C403 0.929 . S
H430 C404 0.930 . S
H431 C405 0.931 . S
H432 C412 0.932 . S
H433 C413 0.930 . S
H434 C414 0.929 . S
H435 C416 0.930 . S
H436 C418 0.932 . S
H437 C419 0.929 . S
H438 C420 0.928 . S
H439 C422 0.932 . S
C440 C441 1.264 . S
C440 C445 1.479 . S
C440 C450 1.465 . S
C441 C440 1.264 . S
C441 C443 1.339 . S
C441 H468 0.931 . S
C442 C443 1.395 . S
C442 C444 1.320 . S
C443 C441 1.339 . S
C443 C442 1.395 . S
C443 H469 0.929 . S
C444 C442 1.320 . S
C444 C445 1.405 . S
C444 H470 0.930 . S
C445 C440 1.479 . S
C445 C444 1.405 . S
C445 H471 0.931 . S
U446 O447 2.454 . S
U446 O448 2.458 . S
U446 C449 2.984 . S
U446 C450 2.847 . S
U446 C463 2.882 . S
U446 O464 2.441 . S
U446 O465 2.420 . S
U446 O466 2.455 . S
U446 O467 2.449 . S
O447 U446 2.454 . S
O447 C449 1.353 . S
O448 U446 2.458 . S
O448 C449 1.286 . S
C449 U446 2.984 . S
C449 O447 1.353 . S
C449 O448 1.286 . S
C449 C451 1.363 . S
C450 C440 1.465 . S
C450 U446 2.847 . S
C450 O464 1.249 . S
C450 O465 1.202 . S
C451 C449 1.363 . S
C451 C453 1.408 . S
C451 C456 1.342 . S
C452 C453 1.310 . S
C452 C455 1.461 . S
C452 H472 0.932 . S
C453 C451 1.408 . S
C453 C452 1.310 . S
C453 H473 0.930 . S
C454 C455 1.474 . S
C454 C456 1.285 . S
C454 H474 0.929 . S
C455 C452 1.461 . S
C455 C454 1.474 . S
C456 C451 1.342 . S
C456 C454 1.285 . S
C456 H475 0.930 . S
C457 C460 1.424 . S
C457 C462 1.245 . S
C457 C463 1.428 . S
C458 C461 1.260 . S
C458 C462 1.477 . S
C458 H476 0.932 . S
C459 C460 1.384 . S
C459 C461 1.479 . S
C459 H477 0.929 . S
C460 C457 1.424 . S
C460 C459 1.384 . S
C460 H478 0.928 . S
C461 C458 1.260 . S
C461 C459 1.479 . S
C462 C457 1.245 . S
C462 C458 1.477 . S
C462 H479 0.932 . S
C463 U446 2.882 . S
C463 C457 1.428 . S
C463 O466 1.301 . S
C463 O467 1.282 . S
O464 U446 2.441 . S
O464 C450 1.249 . S
O465 U446 2.420 . S
O465 C450 1.202 . S
O466 U446 2.455 . S
O466 C463 1.301 . S
O467 U446 2.449 . S
O467 C463 1.282 . S
H468 C441 0.931 . S
H469 C443 0.929 . S
H470 C444 0.930 . S
H471 C445 0.931 . S
H472 C452 0.932 . S
H473 C453 0.930 . S
H474 C454 0.929 . S
H475 C456 0.930 . S
H476 C458 0.932 . S
H477 C459 0.929 . S
H478 C460 0.928 . S
H479 C462 0.932 . S
C480 C481 1.264 . S
C480 C485 1.479 . S
C480 C490 1.465 . S
C481 C480 1.264 . S
C481 C483 1.339 . S
C481 H508 0.931 . S
C482 C483 1.395 . S
C482 C484 1.320 . S
C483 C481 1.339 . S
C483 C482 1.395 . S
C483 H509 0.929 . S
C484 C482 1.320 . S
C484 C485 1.405 . S
C484 H510 0.930 . S
C485 C480 1.479 . S
C485 C484 1.405 . S
C485 H511 0.931 . S
U486 O487 2.454 . S
U486 O488 2.458 . S
U486 C489 2.984 . S
U486 C490 2.847 . S
U486 C503 2.882 . S
U486 O504 2.441 . S
U486 O505 2.420 . S
U486 O506 2.455 . S
U486 O507 2.449 . S
O487 U486 2.454 . S
O487 C489 1.353 . S
O488 U486 2.458 . S
O488 C489 1.286 . S
C489 U486 2.984 . S
C489 O487 1.353 . S
C489 O488 1.286 . S
C489 C491 1.363 . S
C490 C480 1.465 . S
C490 U486 2.847 . S
C490 O504 1.249 . S
C490 O505 1.202 . S
C491 C489 1.363 . S
C491 C493 1.408 . S
C491 C496 1.342 . S
C492 C493 1.310 . S
C492 C495 1.461 . S
C492 H512 0.932 . S
C493 C491 1.408 . S
C493 C492 1.310 . S
C493 H513 0.930 . S
C494 C495 1.474 . S
C494 C496 1.285 . S
C494 H514 0.929 . S
C495 C492 1.461 . S
C495 C494 1.474 . S
C496 C491 1.342 . S
C496 C494 1.285 . S
C496 H515 0.930 . S
C497 C500 1.424 . S
C497 C502 1.245 . S
C497 C503 1.428 . S
C498 C501 1.260 . S
C498 C502 1.477 . S
C498 H516 0.932 . S
C499 C500 1.384 . S
C499 C501 1.479 . S
C499 H517 0.929 . S
C500 C497 1.424 . S
C500 C499 1.384 . S
C500 H518 0.928 . S
C501 C498 1.260 . S
C501 C499 1.479 . S
C502 C497 1.245 . S
C502 C498 1.477 . S
C502 H519 0.932 . S
C503 U486 2.882 . S
C503 C497 1.428 . S
C503 O506 1.301 . S
C503 O507 1.282 . S
O504 U486 2.441 . S
O504 C490 1.249 . S
O505 U486 2.420 . S
O505 C490 1.202 . S
O506 U486 2.455 . S
O506 C503 1.301 . S
O507 U486 2.449 . S
O507 C503 1.282 . S
H508 C481 0.931 . S
H509 C483 0.929 . S
H510 C484 0.930 . S
H511 C485 0.931 . S
H512 C492 0.932 . S
H513 C493 0.930 . S
H514 C494 0.929 . S
H515 C496 0.930 . S
H516 C498 0.932 . S
H517 C499 0.929 . S
H518 C500 0.928 . S
H519 C502 0.932 . S
C520 C521 1.264 . S
C520 C525 1.479 . S
C520 C530 1.465 . S
C521 C520 1.264 . S
C521 C523 1.339 . S
C521 H548 0.931 . S
C522 C523 1.395 . S
C522 C524 1.320 . S
C523 C521 1.339 . S
C523 C522 1.395 . S
C523 H549 0.929 . S
C524 C522 1.320 . S
C524 C525 1.405 . S
C524 H550 0.930 . S
C525 C520 1.479 . S
C525 C524 1.405 . S
C525 H551 0.931 . S
U526 O527 2.454 . S
U526 O528 2.458 . S
U526 C529 2.984 . S
U526 C530 2.847 . S
U526 C543 2.882 . S
U526 O544 2.441 . S
U526 O545 2.420 . S
U526 O546 2.455 . S
U526 O547 2.449 . S
O527 U526 2.454 . S
O527 C529 1.353 . S
O528 U526 2.458 . S
O528 C529 1.286 . S
C529 U526 2.984 . S
C529 O527 1.353 . S
C529 O528 1.286 . S
C529 C531 1.363 1_556 S
C530 C520 1.465 . S
C530 U526 2.847 . S
C530 O544 1.249 . S
C530 O545 1.202 . S
C531 C529 1.363 1_554 S
C531 C533 1.408 1_554 S
C531 C536 1.342 . S
C532 C533 1.310 1_554 S
C532 C535 1.461 . S
C532 H552 0.932 . S
C533 C531 1.408 1_556 S
C533 C532 1.310 1_556 S
C533 H553 0.930 . S
C534 C535 1.474 . S
C534 C536 1.285 . S
C534 H554 0.929 . S
C535 C532 1.461 . S
C535 C534 1.474 . S
C536 C531 1.342 . S
C536 C534 1.285 . S
C536 H555 0.930 . S
C537 C540 1.424 . S
C537 C542 1.245 . S
C537 C543 1.428 . S
C538 C541 1.260 . S
C538 C542 1.477 . S
C538 H556 0.932 1_556 S
C539 C540 1.384 . S
C539 C541 1.479 . S
C539 H557 0.929 . S
C540 C537 1.424 . S
C540 C539 1.384 . S
C540 H558 0.928 . S
C541 C538 1.260 . S
C541 C539 1.479 . S
C542 C537 1.245 . S
C542 C538 1.477 . S
C542 H559 0.921 1_556 S
C543 U526 2.882 . S
C543 C537 1.428 . S
C543 O546 1.301 . S
C543 O547 1.282 . S
O544 U526 2.441 . S
O544 C530 1.249 . S
O545 U526 2.420 . S
O545 C530 1.202 . S
O546 U526 2.455 . S
O546 C543 1.301 . S
O547 U526 2.449 . S
O547 C543 1.282 . S
H548 C521 0.931 . S
H549 C523 0.929 . S
H550 C524 0.930 . S
H551 C525 0.931 . S
H552 C532 0.932 . S
H553 C533 0.930 . S
H554 C534 0.929 . S
H555 C536 0.930 . S
H556 C538 0.932 1_554 S
H557 C539 0.929 . S
H558 C540 0.928 . S
H559 C542 0.921 1_554 S
C560 C561 1.264 . S
C560 C565 1.479 . S
C560 C570 1.465 . S
C561 C560 1.264 . S
C561 C563 1.339 . S
C561 H588 0.931 . S
C562 C563 1.395 . S
C562 C564 1.320 . S
C563 C561 1.339 . S
C563 C562 1.395 . S
C563 H589 0.929 . S
C564 C562 1.320 . S
C564 C565 1.405 . S
C564 H590 0.930 . S
C565 C560 1.479 . S
C565 C564 1.405 . S
C565 H591 0.931 . S
U566 O567 2.454 . S
U566 O568 2.458 . S
U566 C569 2.984 . S
U566 C570 2.847 . S
U566 C583 2.882 . S
U566 O584 2.441 . S
U566 O585 2.420 . S
U566 O586 2.455 . S
U566 O587 2.449 . S
O567 U566 2.454 . S
O567 C569 1.353 . S
O568 U566 2.458 . S
O568 C569 1.286 . S
C569 U566 2.984 . S
C569 O567 1.353 . S
C569 O568 1.286 . S
C569 C571 1.363 . S
C570 C560 1.465 . S
C570 U566 2.847 . S
C570 O584 1.249 . S
C570 O585 1.202 . S
C571 C569 1.363 . S
C571 C573 1.408 . S
C571 C576 1.342 . S
C572 C573 1.310 . S
C572 C575 1.461 . S
C572 H592 0.932 . S
C573 C571 1.408 . S
C573 C572 1.310 . S
C573 H593 0.930 . S
C574 C575 1.474 . S
C574 C576 1.285 . S
C574 H594 0.929 . S
C575 C572 1.461 . S
C575 C574 1.474 . S
C576 C571 1.342 . S
C576 C574 1.285 . S
C576 H595 0.930 . S
C577 C580 1.424 . S
C577 C582 1.245 . S
C577 C583 1.428 . S
C578 C581 1.260 . S
C578 C582 1.477 . S
C578 H596 0.932 . S
C579 C580 1.384 . S
C579 C581 1.479 . S
C579 H597 0.929 . S
C580 C577 1.424 . S
C580 C579 1.384 . S
C580 H598 0.928 . S
C581 C578 1.260 . S
C581 C579 1.479 . S
C582 C577 1.245 . S
C582 C578 1.477 . S
C582 H599 0.932 . S
C583 U566 2.882 . S
C583 C577 1.428 . S
C583 O586 1.301 . S
C583 O587 1.282 . S
O584 U566 2.441 . S
O584 C570 1.249 . S
O585 U566 2.420 . S
O585 C570 1.202 . S
O586 U566 2.455 . S
O586 C583 1.301 . S
O587 U566 2.449 . S
O587 C583 1.282 . S
H588 C561 0.931 . S
H589 C563 0.929 . S
H590 C564 0.930 . S
H591 C565 0.931 . S
H592 C572 0.932 . S
H593 C573 0.930 . S
H594 C574 0.929 . S
H595 C576 0.930 . S
H596 C578 0.932 . S
H597 C579 0.929 . S
H598 C580 0.928 . S
H599 C582 0.932 . S
C600 C601 1.264 . S
C600 C605 1.479 . S
C600 C610 1.465 . S
C601 C600 1.264 . S
C601 C603 1.339 . S
C601 H628 0.931 . S
C602 C603 1.395 . S
C602 C604 1.320 . S
C603 C601 1.339 . S
C603 C602 1.395 . S
C603 H629 0.929 . S
C604 C602 1.320 . S
C604 C605 1.405 . S
C604 H630 0.930 . S
C605 C600 1.479 . S
C605 C604 1.405 . S
C605 H631 0.931 . S
U606 O607 2.454 . S
U606 O608 2.458 . S
U606 C609 2.984 . S
U606 C610 2.847 1_556 S
U606 C623 2.882 . S
U606 O624 2.441 1_556 S
U606 O625 2.420 . S
U606 O626 2.455 . S
U606 O627 2.449 . S
O607 U606 2.454 . S
O607 C609 1.353 . S
O608 U606 2.458 . S
O608 C609 1.286 . S
C609 U606 2.984 . S
C609 O607 1.353 . S
C609 O608 1.286 . S
C609 C611 1.363 1_545 S
C610 C600 1.465 . S
C610 U606 2.847 1_554 S
C610 O624 1.249 . S
C610 O625 1.202 1_554 S
C611 C609 1.363 1_565 S
C611 C613 1.408 . S
C611 C616 1.342 . S
C612 C613 1.310 . S
C612 C615 1.461 . S
C612 H632 0.932 1_556 S
C613 C611 1.408 . S
C613 C612 1.310 . S
C613 H633 0.930 1_566 S
C614 C615 1.474 . S
C614 C616 1.285 . S
C614 H634 0.929 . S
C615 C612 1.461 . S
C615 C614 1.474 . S
C616 C611 1.342 . S
C616 C614 1.285 . S
C616 H635 0.930 . S
C617 C620 1.424 . S
C617 C622 1.245 . S
C617 C623 1.428 . S
C618 C621 1.260 . S
C618 C622 1.477 . S
C618 H636 0.932 1_545 S
C619 C620 1.384 . S
C619 C621 1.479 . S
C619 H637 0.929 . S
C620 C617 1.424 . S
C620 C619 1.384 . S
C620 H638 0.928 . S
C621 C618 1.260 . S
C621 C619 1.479 . S
C622 C617 1.245 . S
C622 C618 1.477 . S
C622 H639 0.932 1_545 S
C623 U606 2.882 . S
C623 C617 1.428 . S
C623 O626 1.301 . S
C623 O627 1.282 . S
O624 U606 2.441 1_554 S
O624 C610 1.249 . S
O625 U606 2.420 . S
O625 C610 1.202 1_556 S
O626 U606 2.455 . S
O626 C623 1.301 . S
O627 U606 2.449 . S
O627 C623 1.282 . S
H628 C601 0.931 . S
H629 C603 0.929 . S
H630 C604 0.930 . S
H631 C605 0.931 . S
H632 C612 0.932 1_554 S
H633 C613 0.930 1_544 S
H634 C614 0.929 . S
H635 C616 0.930 . S
H636 C618 0.932 1_565 S
H637 C619 0.929 . S
H638 C620 0.928 . S
H639 C622 0.932 1_565 S
Mg640 O641 2.028 . S
Mg640 O647 1.986 1_554 S
Mg640 O649 2.114 . S
Mg640 O650 2.251 . S
Mg640 O653 2.010 . S
O641 Mg640 2.028 . S
O641 C644 1.258 . S
O642 Mg643 2.029 . S
O642 C644 1.244 1_556 S
Mg643 O642 2.029 . S
Mg643 O648 2.032 . S
Mg643 O650 2.079 1_556 S
C644 O641 1.258 . S
C644 O642 1.244 1_554 S
C645 O646 1.264 . S
C645 O653 1.249 . S
O646 C645 1.264 . S
O647 Mg640 1.986 1_556 S
O647 C651 1.246 . S
O648 Mg643 2.032 . S
O648 C651 1.259 . S
O649 Mg640 2.114 . S
O649 C652 1.252 . S
O650 Mg640 2.251 . S
O650 Mg643 2.079 1_554 S
O650 C652 1.273 . S
C651 O647 1.246 . S
C651 O648 1.259 . S
C652 O649 1.252 . S
C652 O650 1.273 . S
O653 Mg640 2.010 . S
O653 C645 1.249 . S
Mg654 O655 2.028 . S
Mg654 O661 1.986 . S
Mg654 O663 2.114 . S
Mg654 O664 2.251 . S
Mg654 O667 2.010 . S
O655 Mg654 2.028 . S
O655 C658 1.250 . S
O656 Mg657 2.028 . S
O656 C658 1.248 . S
Mg657 O656 2.028 . S
Mg657 O662 2.032 . S
Mg657 O664 2.079 . S
C658 O655 1.250 . S
C658 O656 1.248 . S
C659 O660 1.264 . S
C659 O667 1.249 . S
O660 C659 1.264 . S
O661 Mg654 1.986 . S
O661 C665 1.246 . S
O662 Mg657 2.032 . S
O662 C665 1.259 . S
O663 Mg654 2.114 . S
O663 C666 1.252 . S
O664 Mg654 2.251 . S
O664 Mg657 2.079 . S
O664 C666 1.273 . S
C665 O661 1.246 . S
C665 O662 1.259 . S
C666 O663 1.252 . S
C666 O664 1.273 . S
O667 Mg654 2.010 . S
O667 C659 1.249 . S
Mg668 O669 2.028 . S
Mg668 O675 1.986 1_554 S
Mg668 O677 2.114 . S
Mg668 O678 2.251 . S
Mg668 O681 2.010 . S
O669 Mg668 2.028 . S
O669 C672 1.250 1_554 S
O670 Mg671 2.028 . S
O670 C672 1.248 . S
Mg671 O670 2.028 . S
Mg671 O676 2.032 . S
Mg671 O678 2.079 1_556 S
C672 O669 1.250 1_556 S
C672 O670 1.248 . S
C673 O674 1.264 . S
C673 O681 1.249 . S
O674 C673 1.264 . S
O675 Mg668 1.986 1_556 S
O675 C679 1.246 . S
O676 Mg671 2.032 . S
O676 C679 1.259 . S
O677 Mg668 2.114 . S
O677 C680 1.252 . S
O678 Mg668 2.251 . S
O678 Mg671 2.079 1_554 S
O678 C680 1.273 . S
C679 O675 1.246 . S
C679 O676 1.259 . S
C680 O677 1.252 . S
C680 O678 1.273 . S
O681 Mg668 2.010 . S
O681 C673 1.249 . S
Mg682 O683 2.028 . S
Mg682 O689 1.986 . S
Mg682 O691 2.114 . S
Mg682 O692 2.251 . S
Mg682 O695 2.010 . S
O683 Mg682 2.028 . S
O683 C686 1.250 1_545 S
O684 Mg685 2.028 . S
O684 C686 1.248 . S
Mg685 O684 2.028 . S
Mg685 O690 2.032 . S
Mg685 O692 2.079 1_565 S
C686 O683 1.250 1_565 S
C686 O684 1.248 . S
C687 O688 1.264 . S
C687 O695 1.249 . S
O688 C687 1.264 . S
O689 Mg682 1.986 . S
O689 C693 1.246 . S
O690 Mg685 2.032 . S
O690 C693 1.259 1_565 S
O691 Mg682 2.114 . S
O691 C694 1.252 . S
O692 Mg682 2.251 . S
O692 Mg685 2.079 1_545 S
O692 C694 1.273 . S
C693 O689 1.246 . S
C693 O690 1.259 1_545 S
C694 O691 1.252 . S
C694 O692 1.273 . S
O695 Mg682 2.010 . S
O695 C687 1.249 . S
Mg696 O697 2.028 . S
Mg696 O703 1.986 . S
Mg696 O705 2.114 . S
Mg696 O706 2.251 . S
Mg696 O709 2.010 . S
O697 Mg696 2.028 . S
O697 C700 1.250 . S
O698 Mg699 2.028 . S
O698 C700 1.248 . S
Mg699 O698 2.028 . S
Mg699 O704 2.032 . S
Mg699 O706 2.079 . S
C700 O697 1.250 . S
C700 O698 1.248 . S
C701 O702 1.264 . S
C701 O709 1.249 . S
O702 C701 1.264 . S
O703 Mg696 1.986 . S
O703 C707 1.246 . S
O704 Mg699 2.032 . S
O704 C707 1.259 . S
O705 Mg696 2.114 . S
O705 C708 1.252 . S
O706 Mg696 2.251 . S
O706 Mg699 2.079 . S
O706 C708 1.273 . S
C707 O703 1.246 . S
C707 O704 1.259 . S
C708 O705 1.252 . S
C708 O706 1.273 . S
O709 Mg696 2.010 . S
O709 C701 1.249 . S
Mg710 O711 2.028 . S
Mg710 O717 1.986 . S
Mg710 O719 2.114 . S
Mg710 O720 2.251 . S
Mg710 O723 2.010 . S
O711 Mg710 2.028 . S
O711 C714 1.250 . S
O712 Mg713 2.028 . S
O712 C714 1.248 . S
Mg713 O712 2.028 . S
Mg713 O718 2.032 . S
Mg713 O720 2.079 . S
C714 O711 1.250 . S
C714 O712 1.248 . S
C715 O716 1.264 . S
C715 O723 1.249 . S
O716 C715 1.264 . S
O717 Mg710 1.986 . S
O717 C721 1.246 . S
O718 Mg713 2.032 . S
O718 C721 1.259 . S
O719 Mg710 2.114 . S
O719 C722 1.252 . S
O720 Mg710 2.251 . S
O720 Mg713 2.079 . S
O720 C722 1.273 . S
C721 O717 1.246 . S
C721 O718 1.259 . S
C722 O719 1.252 . S
C722 O720 1.273 . S
O723 Mg710 2.010 . S
O723 C715 1.249 . S
Mg724 O725 2.028 . S
Mg724 O731 1.986 . S
Mg724 O733 2.114 . S
Mg724 O734 2.251 . S
Mg724 O737 2.010 . S
O725 Mg724 2.028 . S
O725 C728 1.250 . S
O726 Mg727 2.028 . S
O726 C728 1.248 . S
Mg727 O726 2.028 . S
Mg727 O732 2.032 . S
Mg727 O734 2.079 . S
C728 O725 1.250 . S
C728 O726 1.248 . S
C729 O730 1.264 . S
C729 O737 1.249 . S
O730 C729 1.264 . S
O731 Mg724 1.986 . S
O731 C735 1.246 . S
O732 Mg727 2.032 . S
O732 C735 1.259 . S
O733 Mg724 2.114 . S
O733 C736 1.252 . S
O734 Mg724 2.251 . S
O734 Mg727 2.079 . S
O734 C736 1.273 . S
C735 O731 1.246 . S
C735 O732 1.259 . S
C736 O733 1.252 . S
C736 O734 1.273 . S
O737 Mg724 2.010 . S
O737 C729 1.249 . S
Mg738 O739 2.028 1_545 S
Mg738 O745 1.986 1_545 S
Mg738 O747 2.114 . S
Mg738 O748 2.251 . S
Mg738 O751 2.010 . S
O739 Mg738 2.028 1_565 S
O739 C742 1.250 . S
O740 Mg741 2.028 . S
O740 C742 1.248 . S
Mg741 O740 2.028 . S
Mg741 O746 2.032 . S
Mg741 O748 2.079 1_565 S
C742 O739 1.250 . S
C742 O740 1.248 . S
C743 O744 1.264 . S
C743 O751 1.249 . S
O744 C743 1.264 . S
O745 Mg738 1.986 1_565 S
O745 C749 1.246 . S
O746 Mg741 2.032 . S
O746 C749 1.259 . S
O747 Mg738 2.114 . S
O747 C750 1.252 . S
O748 Mg738 2.251 . S
O748 Mg741 2.079 1_545 S
O748 C750 1.273 . S
C749 O745 1.246 . S
C749 O746 1.259 . S
C750 O747 1.252 . S
C750 O748 1.273 . S
O751 Mg738 2.010 . S
O751 C743 1.249 . S
Mg752 O753 2.028 . S
Mg752 O759 1.986 . S
Mg752 O761 2.114 . S
Mg752 O762 2.251 . S
Mg752 O765 2.010 . S
O753 Mg752 2.028 . S
O753 C756 1.250 1_455 S
O754 Mg755 2.028 . S
O754 C756 1.248 . S
Mg755 O754 2.028 . S
Mg755 O760 2.032 . S
Mg755 O762 2.079 1_655 S
C756 O753 1.250 1_655 S
C756 O754 1.248 . S
C757 O758 1.264 . S
C757 O765 1.249 . S
O758 C757 1.264 . S
O759 Mg752 1.986 . S
O759 C763 1.246 . S
O760 Mg755 2.032 . S
O760 C763 1.259 1_655 S
O761 Mg752 2.114 . S
O761 C764 1.252 . S
O762 Mg752 2.251 . S
O762 Mg755 2.079 1_455 S
O762 C764 1.273 . S
C763 O759 1.246 . S
C763 O760 1.259 1_455 S
C764 O761 1.252 . S
C764 O762 1.273 . S
O765 Mg752 2.010 . S
O765 C757 1.249 . S
Mg766 O767 2.028 . S
Mg766 O773 1.986 . S
Mg766 O775 2.114 . S
Mg766 O776 2.251 . S
Mg766 O779 2.010 . S
O767 Mg766 2.028 . S
O767 C770 1.250 . S
O768 Mg769 2.028 . S
O768 C770 1.248 . S
Mg769 O768 2.028 . S
Mg769 O774 2.032 . S
Mg769 O776 2.079 . S
C770 O767 1.250 . S
C770 O768 1.248 . S
C771 O772 1.264 . S
C771 O779 1.249 . S
O772 C771 1.264 . S
O773 Mg766 1.986 . S
O773 C777 1.246 . S
O774 Mg769 2.032 . S
O774 C777 1.259 . S
O775 Mg766 2.114 . S
O775 C778 1.252 . S
O776 Mg766 2.251 . S
O776 Mg769 2.079 . S
O776 C778 1.273 . S
C777 O773 1.246 . S
C777 O774 1.259 . S
C778 O775 1.252 . S
C778 O776 1.273 . S
O779 Mg766 2.010 . S
O779 C771 1.249 . S
Mg780 O781 2.028 1_655 S
Mg780 O787 1.999 . S
Mg780 O789 2.114 . S
Mg780 O790 2.251 1_655 S
Mg780 O793 2.010 . S
O781 Mg780 2.028 1_455 S
O781 C784 1.250 . S
O782 Mg783 2.028 . S
O782 C784 1.248 . S
Mg783 O782 2.028 . S
Mg783 O788 2.032 . S
Mg783 O790 2.079 . S
C784 O781 1.250 . S
C784 O782 1.248 . S
C785 O786 1.264 . S
C785 O793 1.249 . S
O786 C785 1.264 . S
O787 Mg780 1.999 . S
O787 C791 1.212 1_655 S
O788 Mg783 2.032 . S
O788 C791 1.259 . S
O789 Mg780 2.114 . S
O789 C792 1.252 . S
O790 Mg780 2.251 1_455 S
O790 Mg783 2.079 . S
O790 C792 1.273 1_455 S
C791 O787 1.212 1_455 S
C791 O788 1.259 . S
C792 O789 1.252 . S
C792 O790 1.273 1_655 S
O793 Mg780 2.010 . S
O793 C785 1.249 . S
Mg794 O795 2.028 . S
Mg794 O801 1.986 . S
Mg794 O803 2.114 . S
Mg794 O804 2.251 . S
Mg794 O807 2.010 . S
O795 Mg794 2.028 . S
O795 C798 1.250 . S
O796 Mg797 2.028 . S
O796 C798 1.248 . S
Mg797 O796 2.028 . S
Mg797 O802 2.032 . S
Mg797 O804 2.079 . S
C798 O795 1.250 . S
C798 O796 1.248 . S
C799 O800 1.264 . S
C799 O807 1.249 . S
O800 C799 1.264 . S
O801 Mg794 1.986 . S
O801 C805 1.246 . S
O802 Mg797 2.032 . S
O802 C805 1.259 . S
O803 Mg794 2.114 . S
O803 C806 1.252 . S
O804 Mg794 2.251 . S
O804 Mg797 2.079 . S
O804 C806 1.273 . S
C805 O801 1.246 . S
C805 O802 1.259 . S
C806 O803 1.252 . S
C806 O804 1.273 . S
O807 Mg794 2.010 . S
O807 C799 1.249 . S
H808 C814 0.930 . S
H809 C818 0.930 . S
H810 C823 0.929 . S
H811 C821 0.929 . S
H812 C816 0.929 . S
H813 C822 0.929 . S
C814 H808 0.930 . S
C814 C815 1.367 . S
C814 C822 1.378 . S
C815 C814 1.367 . S
C815 C823 1.433 . S
C816 H812 0.929 . S
C816 C818 1.378 . S
C816 C820 1.350 . S
C817 C820 1.463 . S
C817 C822 1.350 . S
C817 N825 1.427 . S
C818 H809 0.930 . S
C818 C816 1.378 . S
C818 C819 1.367 . S
C819 C818 1.367 . S
C819 C821 1.433 . S
C820 C816 1.350 . S
C820 C817 1.463 . S
C820 N824 1.427 . S
C821 H811 0.929 . S
C821 C819 1.433 . S
C821 N824 1.384 . S
C822 H813 0.929 . S
C822 C814 1.378 . S
C822 C817 1.350 . S
C823 H810 0.929 . S
C823 C815 1.433 . S
C823 N825 1.384 . S
N824 C820 1.427 . S
N824 C821 1.384 . S
N825 C817 1.427 . S
N825 C823 1.384 . S
H826 C832 0.930 . S
H827 C836 0.930 . S
H828 C841 0.929 . S
H829 C839 0.929 . S
H830 C834 0.929 . S
H831 C840 0.929 . S
C832 H826 0.930 . S
C832 C833 1.367 . S
C832 C840 1.378 . S
C833 C832 1.367 . S
C833 C841 1.433 . S
C834 H830 0.929 . S
C834 C836 1.378 . S
C834 C838 1.350 . S
C835 C838 1.463 . S
C835 C840 1.350 . S
C835 N843 1.427 . S
C836 H827 0.930 . S
C836 C834 1.378 . S
C836 C837 1.367 . S
C837 C836 1.367 . S
C837 C839 1.433 . S
C838 C834 1.350 . S
C838 C835 1.463 . S
C838 N842 1.427 . S
C839 H829 0.929 . S
C839 C837 1.433 . S
C839 N842 1.384 . S
C840 H831 0.929 . S
C840 C832 1.378 . S
C840 C835 1.350 . S
C841 H828 0.929 . S
C841 C833 1.433 . S
C841 N843 1.384 . S
N842 C838 1.427 . S
N842 C839 1.384 . S
N843 C835 1.427 . S
N843 C841 1.384 . S
H844 C850 0.930 . S
H845 C854 0.930 . S
H846 C859 0.929 . S
H847 C857 0.929 . S
H848 C852 0.929 . S
H849 C858 0.929 . S
C850 H844 0.930 . S
C850 C851 1.367 . S
C850 C858 1.378 . S
C851 C850 1.367 . S
C851 C859 1.433 . S
C852 H848 0.929 . S
C852 C854 1.378 . S
C852 C856 1.350 . S
C853 C856 1.463 . S
C853 C858 1.350 . S
C853 N861 1.427 . S
C854 H845 0.930 . S
C854 C852 1.378 . S
C854 C855 1.367 . S
C855 C854 1.367 . S
C855 C857 1.433 . S
C856 C852 1.350 . S
C856 C853 1.463 . S
C856 N860 1.427 . S
C857 H847 0.929 . S
C857 C855 1.433 . S
C857 N860 1.384 . S
C858 H849 0.929 . S
C858 C850 1.378 . S
C858 C853 1.350 . S
C859 H846 0.929 . S
C859 C851 1.433 . S
C859 N861 1.384 . S
N860 C856 1.427 . S
N860 C857 1.384 . S
N861 C853 1.427 . S
N861 C859 1.384 . S
H862 C868 0.930 . S
H863 C872 0.930 . S
H864 C877 0.929 . S
H865 C875 0.929 . S
H866 C870 0.929 . S
H867 C876 0.929 . S
C868 H862 0.930 . S
C868 C869 1.367 1_545 S
C868 C876 1.378 . S
C869 C868 1.367 1_565 S
C869 C877 1.433 . S
C870 H866 0.929 . S
C870 C872 1.378 . S
C870 C874 1.335 1_565 S
C871 C874 1.460 1_565 S
C871 C876 1.350 1_565 S
C871 N879 1.427 . S
C872 H863 0.930 . S
C872 C870 1.378 . S
C872 C873 1.367 1_565 S
C873 C872 1.367 1_545 S
C873 C875 1.433 . S
C874 C870 1.335 1_545 S
C874 C871 1.460 1_545 S
C874 N878 1.446 . S
C875 H865 0.929 . S
C875 C873 1.433 . S
C875 N878 1.384 . S
C876 H867 0.929 . S
C876 C868 1.378 . S
C876 C871 1.350 1_545 S
C877 H864 0.929 . S
C877 C869 1.433 . S
C877 N879 1.384 . S
N878 C874 1.446 . S
N878 C875 1.384 . S
N879 C871 1.427 . S
N879 C877 1.384 . S
H880 C886 0.930 . S
H881 C890 0.930 . S
H882 C895 0.929 . S
H883 C893 0.929 . S
H884 C888 0.929 . S
H885 C894 0.929 . S
C886 H880 0.930 . S
C886 C887 1.367 . S
C886 C894 1.378 . S
C887 C886 1.367 . S
C887 C895 1.433 . S
C888 H884 0.929 . S
C888 C890 1.378 . S
C888 C892 1.350 . S
C889 C892 1.463 . S
C889 C894 1.350 . S
C889 N897 1.427 . S
C890 H881 0.930 . S
C890 C888 1.378 . S
C890 C891 1.367 . S
C891 C890 1.367 . S
C891 C893 1.433 . S
C892 C888 1.350 . S
C892 C889 1.463 . S
C892 N896 1.427 . S
C893 H883 0.929 . S
C893 C891 1.433 . S
C893 N896 1.384 . S
C894 H885 0.929 . S
C894 C886 1.378 . S
C894 C889 1.350 . S
C895 H882 0.929 . S
C895 C887 1.433 . S
C895 N897 1.384 . S
N896 C892 1.427 . S
N896 C893 1.384 . S
N897 C889 1.427 . S
N897 C895 1.384 . S
H898 C904 0.930 . S
H899 C908 0.930 . S
H900 C913 0.929 . S
H901 C911 0.929 . S
H902 C906 0.929 . S
H903 C912 0.929 . S
C904 H898 0.930 . S
C904 C905 1.367 . S
C904 C912 1.378 . S
C905 C904 1.367 . S
C905 C913 1.433 . S
C906 H902 0.929 . S
C906 C908 1.378 . S
C906 C910 1.350 . S
C907 C910 1.463 . S
C907 C912 1.350 . S
C907 N915 1.427 . S
C908 H899 0.930 . S
C908 C906 1.378 . S
C908 C909 1.367 . S
C909 C908 1.367 . S
C909 C911 1.433 . S
C910 C906 1.350 . S
C910 C907 1.463 . S
C910 N914 1.427 . S
C911 H901 0.929 . S
C911 C909 1.433 . S
C911 N914 1.384 . S
C912 H903 0.929 . S
C912 C904 1.378 . S
C912 C907 1.350 . S
C913 H900 0.929 . S
C913 C905 1.433 . S
C913 N915 1.384 . S
N914 C910 1.427 . S
N914 C911 1.384 . S
N915 C907 1.427 . S
N915 C913 1.384 . S
H916 C922 0.930 . S
H917 C926 0.930 . S
H918 C931 0.929 . S
H919 C929 0.929 . S
H920 C924 0.929 . S
H921 C930 0.929 . S
C922 H916 0.930 . S
C922 C923 1.367 . S
C922 C930 1.378 . S
C923 C922 1.367 . S
C923 C931 1.433 . S
C924 H920 0.929 . S
C924 C926 1.378 . S
C924 C928 1.350 . S
C925 C928 1.463 . S
C925 C930 1.350 . S
C925 N933 1.427 . S
C926 H917 0.930 . S
C926 C924 1.378 . S
C926 C927 1.367 . S
C927 C926 1.367 . S
C927 C929 1.433 . S
C928 C924 1.350 . S
C928 C925 1.463 . S
C928 N932 1.427 . S
C929 H919 0.929 . S
C929 C927 1.433 . S
C929 N932 1.384 . S
C930 H921 0.929 . S
C930 C922 1.378 . S
C930 C925 1.350 . S
C931 H918 0.929 . S
C931 C923 1.433 . S
C931 N933 1.384 . S
N932 C928 1.427 . S
N932 C929 1.384 . S
N933 C925 1.427 . S
N933 C931 1.384 . S
H934 C940 0.910 1_545 S
H935 C944 0.930 . S
H936 C949 0.929 . S
H937 C947 0.929 . S
H938 C942 0.929 . S
H939 C948 0.929 1_545 S
C940 H934 0.910 1_565 S
C940 C941 1.367 . S
C940 C948 1.378 . S
C941 C940 1.367 . S
C941 C949 1.433 . S
C942 H938 0.929 . S
C942 C944 1.378 . S
C942 C946 1.350 . S
C943 C946 1.463 . S
C943 C948 1.350 . S
C943 N951 1.427 . S
C944 H935 0.930 . S
C944 C942 1.378 . S
C944 C945 1.367 . S
C945 C944 1.367 . S
C945 C947 1.433 1_565 S
C946 C942 1.350 . S
C946 C943 1.463 . S
C946 N950 1.427 1_565 S
C947 H937 0.929 . S
C947 C945 1.433 1_545 S
C947 N950 1.384 . S
C948 H939 0.929 1_565 S
C948 C940 1.378 . S
C948 C943 1.350 . S
C949 H936 0.929 . S
C949 C941 1.433 . S
C949 N951 1.384 . S
N950 C946 1.427 1_545 S
N950 C947 1.384 . S
N951 C943 1.427 . S
N951 C949 1.384 . S
H952 C958 0.930 . S
H953 C962 0.930 . S
H954 C967 0.929 . S
H955 C965 0.929 . S
H956 C960 0.929 . S
H957 C966 0.929 . S
C958 H952 0.930 . S
C958 C959 1.367 . S
C958 C966 1.378 . S
C959 C958 1.367 . S
C959 C967 1.433 . S
C960 H956 0.929 . S
C960 C962 1.378 . S
C960 C964 1.350 . S
C961 C964 1.463 . S
C961 C966 1.350 . S
C961 N969 1.427 . S
C962 H953 0.930 . S
C962 C960 1.378 . S
C962 C963 1.367 . S
C963 C962 1.367 . S
C963 C965 1.433 . S
C964 C960 1.350 . S
C964 C961 1.463 . S
C964 N968 1.427 . S
C965 H955 0.929 . S
C965 C963 1.433 . S
C965 N968 1.384 . S
C966 H957 0.929 . S
C966 C958 1.378 . S
C966 C961 1.350 . S
C967 H954 0.929 . S
C967 C959 1.433 . S
C967 N969 1.384 . S
N968 C964 1.427 . S
N968 C965 1.384 . S
N969 C961 1.427 . S
N969 C967 1.384 . S
H970 C976 0.930 . S
H971 C980 0.930 . S
H972 C985 0.929 . S
H973 C983 0.929 . S
H974 C978 0.929 . S
H975 C984 0.929 . S
C976 H970 0.930 . S
C976 C977 1.367 . S
C976 C984 1.378 . S
C977 C976 1.367 . S
C977 C985 1.433 . S
C978 H974 0.929 . S
C978 C980 1.378 . S
C978 C982 1.350 . S
C979 C982 1.463 . S
C979 C984 1.350 . S
C979 N987 1.427 . S
C980 H971 0.930 . S
C980 C978 1.378 . S
C980 C981 1.367 . S
C981 C980 1.367 . S
C981 C983 1.433 . S
C982 C978 1.350 . S
C982 C979 1.463 . S
C982 N986 1.427 . S
C983 H973 0.929 . S
C983 C981 1.433 . S
C983 N986 1.384 . S
C984 H975 0.929 . S
C984 C976 1.378 . S
C984 C979 1.350 . S
C985 H972 0.929 . S
C985 C977 1.433 . S
C985 N987 1.384 . S
N986 C982 1.427 . S
N986 C983 1.384 . S
N987 C979 1.427 . S
N987 C985 1.384 . S
H988 C994 0.930 . S
H989 C998 0.930 . S
H990 C1003 0.929 . S
H991 C1001 0.929 . S
H992 C996 0.929 . S
H993 C1002 0.929 . S
C994 H988 0.930 . S
C994 C995 1.367 . S
C994 C1002 1.378 . S
C995 C994 1.367 . S
C995 C1003 1.433 . S
C996 H992 0.929 . S
C996 C998 1.378 . S
C996 C1000 1.350 . S
C997 C1000 1.463 . S
C997 C1002 1.350 . S
C997 N1005 1.427 . S
C998 H989 0.930 . S
C998 C996 1.378 . S
C998 C999 1.367 . S
C999 C998 1.367 . S
C999 C1001 1.433 . S
C1000 C996 1.350 . S
C1000 C997 1.463 . S
C1000 N1004 1.427 . S
C1001 H991 0.929 . S
C1001 C999 1.433 . S
C1001 N1004 1.384 . S
C1002 H993 0.929 . S
C1002 C994 1.378 . S
C1002 C997 1.350 . S
C1003 H990 0.929 . S
C1003 C995 1.433 . S
C1003 N1005 1.384 . S
N1004 C1000 1.427 . S
N1004 C1001 1.384 . S
N1005 C997 1.427 . S
N1005 C1003 1.384 . S
H1006 C1012 0.930 . S
H1007 C1016 0.930 . S
H1008 C1021 0.929 . S
H1009 C1019 0.929 . S
H1010 C1014 0.929 . S
H1011 C1020 0.929 . S
C1012 H1006 0.930 . S
C1012 C1013 1.367 . S
C1012 C1020 1.378 . S
C1013 C1012 1.367 . S
C1013 C1021 1.433 . S
C1014 H1010 0.929 . S
C1014 C1016 1.378 . S
C1014 C1018 1.350 . S
C1015 C1018 1.463 . S
C1015 C1020 1.350 . S
C1015 N1023 1.427 . S
C1016 H1007 0.930 . S
C1016 C1014 1.378 . S
C1016 C1017 1.367 . S
C1017 C1016 1.367 . S
C1017 C1019 1.433 . S
C1018 C1014 1.350 . S
C1018 C1015 1.463 . S
C1018 N1022 1.427 . S
C1019 H1009 0.929 . S
C1019 C1017 1.433 . S
C1019 N1022 1.384 . S
C1020 H1011 0.929 . S
C1020 C1012 1.378 . S
C1020 C1015 1.350 . S
C1021 H1008 0.929 . S
C1021 C1013 1.433 . S
C1021 N1023 1.384 . S
N1022 C1018 1.427 . S
N1022 C1019 1.384 . S
N1023 C1015 1.427 . S
N1023 C1021 1.384 . S
H1024 C1030 0.930 . S
H1025 C1034 0.930 . S
H1026 C1039 0.929 . S
H1027 C1037 0.929 . S
H1028 C1032 0.929 . S
H1029 C1038 0.929 . S
C1030 H1024 0.930 . S
C1030 C1031 1.367 . S
C1030 C1038 1.378 . S
C1031 C1030 1.367 . S
C1031 C1039 1.433 . S
C1032 H1028 0.929 . S
C1032 C1034 1.378 . S
C1032 C1036 1.350 . S
C1033 C1036 1.463 . S
C1033 C1038 1.350 . S
C1033 N1041 1.427 . S
C1034 H1025 0.930 . S
C1034 C1032 1.378 . S
C1034 C1035 1.367 . S
C1035 C1034 1.367 . S
C1035 C1037 1.433 . S
C1036 C1032 1.350 . S
C1036 C1033 1.463 . S
C1036 N1040 1.427 . S
C1037 H1027 0.929 . S
C1037 C1035 1.433 . S
C1037 N1040 1.384 . S
C1038 H1029 0.929 . S
C1038 C1030 1.378 . S
C1038 C1033 1.350 . S
C1039 H1026 0.929 . S
C1039 C1031 1.433 . S
C1039 N1041 1.384 . S
N1040 C1036 1.427 . S
N1040 C1037 1.384 . S
N1041 C1033 1.427 . S
N1041 C1039 1.384 . S
H1042 C1048 0.930 . S
H1043 C1052 0.930 . S
H1044 C1057 0.929 . S
H1045 C1055 0.929 1_655 S
H1046 C1050 0.929 . S
H1047 C1056 0.929 . S
C1048 H1042 0.930 . S
C1048 C1049 1.367 . S
C1048 C1056 1.378 . S
C1049 C1048 1.367 . S
C1049 C1057 1.433 . S
C1050 H1046 0.929 . S
C1050 C1052 1.378 . S
C1050 C1054 1.350 . S
C1051 C1054 1.463 . S
C1051 C1056 1.350 . S
C1051 N1059 1.427 . S
C1052 H1043 0.930 . S
C1052 C1050 1.378 . S
C1052 C1053 1.367 . S
C1053 C1052 1.367 . S
C1053 C1055 1.433 . S
C1054 C1050 1.350 . S
C1054 C1051 1.463 . S
C1054 N1058 1.427 . S
C1055 H1045 0.929 1_455 S
C1055 C1053 1.433 . S
C1055 N1058 1.384 . S
C1056 H1047 0.929 . S
C1056 C1048 1.378 . S
C1056 C1051 1.350 . S
C1057 H1044 0.929 . S
C1057 C1049 1.433 . S
C1057 N1059 1.384 . S
N1058 C1054 1.427 . S
N1058 C1055 1.384 . S
N1059 C1051 1.427 . S
N1059 C1057 1.384 . S
H1060 C1066 0.930 . S
H1061 C1070 0.930 . S
H1062 C1075 0.929 . S
H1063 C1073 0.929 . S
H1064 C1068 0.929 . S
H1065 C1074 0.929 . S
C1066 H1060 0.930 . S
C1066 C1067 1.367 . S
C1066 C1074 1.378 . S
C1067 C1066 1.367 . S
C1067 C1075 1.433 . S
C1068 H1064 0.929 . S
C1068 C1070 1.378 . S
C1068 C1072 1.350 . S
C1069 C1072 1.463 . S
C1069 C1074 1.350 . S
C1069 N1077 1.427 . S
C1070 H1061 0.930 . S
C1070 C1068 1.378 . S
C1070 C1071 1.367 . S
C1071 C1070 1.367 . S
C1071 C1073 1.433 . S
C1072 C1068 1.350 . S
C1072 C1069 1.463 . S
C1072 N1076 1.427 . S
C1073 H1063 0.929 . S
C1073 C1071 1.433 . S
C1073 N1076 1.384 . S
C1074 H1065 0.929 . S
C1074 C1066 1.378 . S
C1074 C1069 1.350 . S
C1075 H1062 0.929 . S
C1075 C1067 1.433 . S
C1075 N1077 1.384 . S
N1076 C1072 1.427 . S
N1076 C1073 1.384 . S
N1077 C1069 1.427 . S
N1077 C1075 1.384 . S
H1078 C1084 0.930 . S
H1079 C1088 0.930 . S
H1080 C1093 0.929 . S
H1081 C1091 0.929 . S
H1082 C1086 0.929 . S
H1083 C1092 0.929 . S
C1084 H1078 0.930 . S
C1084 C1085 1.367 1_455 S
C1084 C1092 1.378 . S
C1085 C1084 1.367 1_655 S
C1085 C1093 1.433 . S
C1086 H1082 0.929 . S
C1086 C1088 1.378 . S
C1086 C1090 1.350 . S
C1087 C1090 1.463 . S
C1087 C1092 1.350 1_655 S
C1087 N1095 1.427 . S
C1088 H1079 0.930 . S
C1088 C1086 1.378 . S
C1088 C1089 1.367 . S
C1089 C1088 1.367 . S
C1089 C1091 1.433 1_655 S
C1090 C1086 1.350 . S
C1090 C1087 1.463 . S
C1090 N1094 1.427 1_655 S
C1091 H1081 0.929 . S
C1091 C1089 1.433 1_455 S
C1091 N1094 1.384 . S
C1092 H1083 0.929 . S
C1092 C1084 1.378 . S
C1092 C1087 1.350 1_455 S
C1093 H1080 0.929 . S
C1093 C1085 1.433 . S
C1093 N1095 1.384 . S
N1094 C1090 1.427 1_455 S
N1094 C1091 1.384 . S
N1095 C1087 1.427 . S
N1095 C1093 1.384 . S
H1096 C1102 0.930 . S
H1097 C1106 0.930 . S
H1098 C1111 0.929 . S
H1099 C1109 0.929 . S
H1100 C1104 0.929 . S
H1101 C1110 0.929 . S
C1102 H1096 0.930 . S
C1102 C1103 1.367 . S
C1102 C1110 1.378 . S
C1103 C1102 1.367 . S
C1103 C1111 1.433 . S
C1104 H1100 0.929 . S
C1104 C1106 1.378 . S
C1104 C1108 1.350 . S
C1105 C1108 1.463 . S
C1105 C1110 1.350 . S
C1105 N1113 1.427 . S
C1106 H1097 0.930 . S
C1106 C1104 1.378 . S
C1106 C1107 1.367 . S
C1107 C1106 1.367 . S
C1107 C1109 1.433 . S
C1108 C1104 1.350 . S
C1108 C1105 1.463 . S
C1108 N1112 1.427 . S
C1109 H1099 0.929 . S
C1109 C1107 1.433 . S
C1109 N1112 1.384 . S
C1110 H1101 0.929 . S
C1110 C1102 1.378 . S
C1110 C1105 1.350 . S
C1111 H1098 0.929 . S
C1111 C1103 1.433 . S
C1111 N1113 1.384 . S
N1112 C1108 1.427 . S
N1112 C1109 1.384 . S
N1113 C1105 1.427 . S
N1113 C1111 1.384 . S
H1114 C1120 0.930 . S
H1115 C1124 0.930 . S
H1116 C1129 0.929 . S
H1117 C1127 0.929 . S
H1118 C1122 0.929 . S
H1119 C1128 0.929 . S
C1120 H1114 0.930 . S
C1120 C1121 1.367 . S
C1120 C1128 1.378 . S
C1121 C1120 1.367 . S
C1121 C1129 1.433 . S
C1122 H1118 0.929 . S
C1122 C1124 1.378 . S
C1122 C1126 1.350 . S
C1123 C1126 1.463 . S
C1123 C1128 1.350 . S
C1123 N1131 1.427 . S
C1124 H1115 0.930 . S
C1124 C1122 1.378 . S
C1124 C1125 1.367 . S
C1125 C1124 1.367 . S
C1125 C1127 1.433 . S
C1126 C1122 1.350 . S
C1126 C1123 1.463 . S
C1126 N1130 1.427 . S
C1127 H1117 0.929 . S
C1127 C1125 1.433 . S
C1127 N1130 1.384 . S
C1128 H1119 0.929 . S
C1128 C1120 1.378 . S
C1128 C1123 1.350 . S
C1129 H1116 0.929 . S
C1129 C1121 1.433 . S
C1129 N1131 1.384 . S
N1130 C1126 1.427 . S
N1130 C1127 1.384 . S
N1131 C1123 1.427 . S
N1131 C1129 1.384 . S
H1132 C1138 0.930 . S
H1133 C1142 0.930 . S
H1134 C1147 0.929 . S
H1135 C1145 0.932 . S
H1136 C1140 0.929 . S
H1137 C1146 0.929 . S
C1138 H1132 0.930 . S
C1138 C1139 1.367 . S
C1138 C1146 1.378 . S
C1139 C1138 1.367 . S
C1139 C1147 1.433 . S
C1140 H1136 0.929 . S
C1140 C1142 1.378 . S
C1140 C1144 1.350 . S
C1141 C1144 1.463 . S
C1141 C1146 1.350 . S
C1141 N1149 1.427 . S
C1142 H1133 0.930 . S
C1142 C1140 1.378 . S
C1142 C1143 1.367 . S
C1143 C1142 1.367 . S
C1143 C1145 1.433 . S
C1144 C1140 1.350 . S
C1144 C1141 1.463 . S
C1144 N1148 1.427 . S
C1145 H1135 0.932 . S
C1145 C1143 1.433 . S
C1145 N1148 1.384 . S
C1146 H1137 0.929 . S
C1146 C1138 1.378 . S
C1146 C1141 1.350 . S
C1147 H1134 0.929 . S
C1147 C1139 1.433 . S
C1147 N1149 1.384 . S
N1148 C1144 1.427 . S
N1148 C1145 1.384 . S
N1149 C1141 1.427 . S
N1149 C1147 1.384 . S
H1150 C1156 0.930 . S
H1151 C1160 0.930 . S
H1152 C1165 0.929 . S
H1153 C1163 0.929 . S
H1154 C1158 0.929 . S
H1155 C1164 0.929 . S
C1156 H1150 0.930 . S
C1156 C1157 1.367 . S
C1156 C1164 1.378 . S
C1157 C1156 1.367 . S
C1157 C1165 1.433 . S
C1158 H1154 0.929 . S
C1158 C1160 1.378 . S
C1158 C1162 1.350 . S
C1159 C1162 1.463 . S
C1159 C1164 1.350 . S
C1159 N1167 1.427 . S
C1160 H1151 0.930 . S
C1160 C1158 1.378 . S
C1160 C1161 1.367 . S
C1161 C1160 1.367 . S
C1161 C1163 1.433 . S
C1162 C1158 1.350 . S
C1162 C1159 1.463 . S
C1162 N1166 1.427 . S
C1163 H1153 0.929 . S
C1163 C1161 1.433 . S
C1163 N1166 1.384 . S
C1164 H1155 0.929 . S
C1164 C1156 1.378 . S
C1164 C1159 1.350 . S
C1165 H1152 0.929 . S
C1165 C1157 1.433 . S
C1165 N1167 1.384 . S
N1166 C1162 1.427 . S
N1166 C1163 1.384 . S
N1167 C1159 1.427 . S
N1167 C1165 1.384 . S
H1168 C1174 0.930 . S
H1169 C1178 0.930 . S
H1170 C1183 0.929 . S
H1171 C1181 0.929 . S
H1172 C1176 0.929 . S
H1173 C1182 0.929 . S
C1174 H1168 0.930 . S
C1174 C1175 1.367 . S
C1174 C1182 1.378 . S
C1175 C1174 1.367 . S
C1175 C1183 1.433 . S
C1176 H1172 0.929 . S
C1176 C1178 1.378 . S
C1176 C1180 1.350 . S
C1177 C1180 1.463 . S
C1177 C1182 1.350 . S
C1177 N1185 1.427 . S
C1178 H1169 0.930 . S
C1178 C1176 1.378 . S
C1178 C1179 1.367 . S
C1179 C1178 1.367 . S
C1179 C1181 1.433 . S
C1180 C1176 1.350 . S
C1180 C1177 1.463 . S
C1180 N1184 1.427 . S
C1181 H1171 0.929 . S
C1181 C1179 1.433 . S
C1181 N1184 1.384 . S
C1182 H1173 0.929 . S
C1182 C1174 1.378 . S
C1182 C1177 1.350 . S
C1183 H1170 0.929 . S
C1183 C1175 1.433 . S
C1183 N1185 1.384 . S
N1184 C1180 1.427 . S
N1184 C1181 1.384 . S
N1185 C1177 1.427 . S
N1185 C1183 1.384 . S
H1186 C1192 0.930 . S
H1187 C1196 0.930 . S
H1188 C1201 0.929 . S
H1189 C1199 0.929 . S
H1190 C1194 0.929 . S
H1191 C1200 0.929 . S
C1192 H1186 0.930 . S
C1192 C1193 1.367 . S
C1192 C1200 1.378 . S
C1193 C1192 1.367 . S
C1193 C1201 1.433 . S
C1194 H1190 0.929 . S
C1194 C1196 1.378 . S
C1194 C1198 1.350 . S
C1195 C1198 1.463 . S
C1195 C1200 1.350 . S
C1195 N1203 1.427 . S
C1196 H1187 0.930 . S
C1196 C1194 1.378 . S
C1196 C1197 1.367 . S
C1197 C1196 1.367 . S
C1197 C1199 1.433 . S
C1198 C1194 1.350 . S
C1198 C1195 1.463 . S
C1198 N1202 1.427 . S
C1199 H1189 0.929 . S
C1199 C1197 1.433 . S
C1199 N1202 1.384 . S
C1200 H1191 0.929 . S
C1200 C1192 1.378 . S
C1200 C1195 1.350 . S
C1201 H1188 0.929 . S
C1201 C1193 1.433 . S
C1201 N1203 1.384 . S
N1202 C1198 1.427 . S
N1202 C1199 1.384 . S
N1203 C1195 1.427 . S
N1203 C1201 1.384 . S
H1204 C1210 0.930 . S
H1205 C1214 0.930 . S
H1206 C1219 0.929 . S
H1207 C1217 0.929 . S
H1208 C1212 0.929 . S
H1209 C1218 0.929 . S
C1210 H1204 0.930 . S
C1210 C1211 1.367 . S
C1210 C1218 1.378 . S
C1211 C1210 1.367 . S
C1211 C1219 1.433 . S
C1212 H1208 0.929 . S
C1212 C1214 1.378 . S
C1212 C1216 1.350 . S
C1213 C1216 1.463 . S
C1213 C1218 1.350 . S
C1213 N1221 1.427 . S
C1214 H1205 0.930 . S
C1214 C1212 1.378 . S
C1214 C1215 1.367 . S
C1215 C1214 1.367 . S
C1215 C1217 1.433 . S
C1216 C1212 1.350 . S
C1216 C1213 1.463 . S
C1216 N1220 1.427 . S
C1217 H1207 0.929 . S
C1217 C1215 1.433 . S
C1217 N1220 1.384 . S
C1218 H1209 0.929 . S
C1218 C1210 1.378 . S
C1218 C1213 1.350 . S
C1219 H1206 0.929 . S
C1219 C1211 1.433 . S
C1219 N1221 1.384 . S
N1220 C1216 1.427 . S
N1220 C1217 1.384 . S
N1221 C1213 1.427 . S
N1221 C1219 1.384 . S
H1222 C1228 0.930 . S
H1223 C1232 0.930 . S
H1224 C1237 0.929 . S
H1225 C1235 0.929 . S
H1226 C1230 0.929 . S
H1227 C1236 0.929 . S
C1228 H1222 0.930 . S
C1228 C1229 1.367 . S
C1228 C1236 1.378 . S
C1229 C1228 1.367 . S
C1229 C1237 1.433 . S
C1230 H1226 0.929 . S
C1230 C1232 1.378 . S
C1230 C1234 1.350 . S
C1231 C1234 1.463 . S
C1231 C1236 1.350 . S
C1231 N1239 1.427 . S
C1232 H1223 0.930 . S
C1232 C1230 1.378 . S
C1232 C1233 1.367 . S
C1233 C1232 1.367 . S
C1233 C1235 1.433 . S
C1234 C1230 1.350 . S
C1234 C1231 1.463 . S
C1234 N1238 1.427 . S
C1235 H1225 0.929 . S
C1235 C1233 1.433 . S
C1235 N1238 1.384 . S
C1236 H1227 0.929 . S
C1236 C1228 1.378 . S
C1236 C1231 1.350 . S
C1237 H1224 0.929 . S
C1237 C1229 1.433 . S
C1237 N1239 1.384 . S
N1238 C1234 1.427 . S
N1238 C1235 1.384 . S
N1239 C1231 1.427 . S
N1239 C1237 1.384 . S
H1240 C1246 0.930 . S
H1241 C1250 0.930 . S
H1242 C1255 0.929 . S
H1243 C1253 0.929 . S
H1244 C1248 0.929 . S
H1245 C1254 0.929 . S
C1246 H1240 0.930 . S
C1246 C1247 1.367 . S
C1246 C1254 1.378 . S
C1247 C1246 1.367 . S
C1247 C1255 1.433 . S
C1248 H1244 0.929 . S
C1248 C1250 1.378 . S
C1248 C1252 1.350 . S
C1249 C1252 1.463 . S
C1249 C1254 1.350 . S
C1249 N1257 1.427 . S
C1250 H1241 0.930 . S
C1250 C1248 1.378 . S
C1250 C1251 1.367 . S
C1251 C1250 1.367 . S
C1251 C1253 1.433 . S
C1252 C1248 1.350 . S
C1252 C1249 1.463 . S
C1252 N1256 1.427 . S
C1253 H1243 0.929 . S
C1253 C1251 1.433 . S
C1253 N1256 1.384 . S
C1254 H1245 0.929 . S
C1254 C1246 1.378 . S
C1254 C1249 1.350 . S
C1255 H1242 0.929 . S
C1255 C1247 1.433 . S
C1255 N1257 1.384 . S
N1256 C1252 1.427 . S
N1256 C1253 1.384 . S
N1257 C1249 1.427 . S
N1257 C1255 1.384 . S
H1258 C1264 0.930 . S
H1259 C1268 0.930 . S
H1260 C1273 0.929 . S
H1261 C1271 0.923 1_565 S
H1262 C1266 0.929 . S
H1263 C1272 0.929 . S
C1264 H1258 0.930 . S
C1264 C1265 1.367 . S
C1264 C1272 1.378 . S
C1265 C1264 1.367 . S
C1265 C1273 1.433 . S
C1266 H1262 0.929 . S
C1266 C1268 1.378 . S
C1266 C1270 1.350 . S
C1267 C1270 1.463 . S
C1267 C1272 1.350 . S
C1267 N1275 1.427 . S
C1268 H1259 0.930 . S
C1268 C1266 1.378 . S
C1268 C1269 1.367 . S
C1269 C1268 1.367 . S
C1269 C1271 1.433 . S
C1270 C1266 1.350 . S
C1270 C1267 1.463 . S
C1270 N1274 1.427 . S
C1271 H1261 0.923 1_545 S
C1271 C1269 1.433 . S
C1271 N1274 1.384 . S
C1272 H1263 0.929 . S
C1272 C1264 1.378 . S
C1272 C1267 1.350 . S
C1273 H1260 0.929 . S
C1273 C1265 1.433 . S
C1273 N1275 1.384 . S
N1274 C1270 1.427 . S
N1274 C1271 1.384 . S
N1275 C1267 1.427 . S
N1275 C1273 1.384 . S
H1276 C1282 0.930 . S
H1277 C1286 0.930 . S
H1278 C1291 0.929 . S
H1279 C1289 0.929 . S
H1280 C1284 0.929 . S
H1281 C1290 0.929 . S
C1282 H1276 0.930 . S
C1282 C1283 1.367 . S
C1282 C1290 1.378 . S
C1283 C1282 1.367 . S
C1283 C1291 1.433 . S
C1284 H1280 0.929 . S
C1284 C1286 1.378 . S
C1284 C1288 1.350 . S
C1285 C1288 1.463 . S
C1285 C1290 1.350 . S
C1285 N1293 1.427 . S
C1286 H1277 0.930 . S
C1286 C1284 1.378 . S
C1286 C1287 1.367 . S
C1287 C1286 1.367 . S
C1287 C1289 1.433 . S
C1288 C1284 1.350 . S
C1288 C1285 1.463 . S
C1288 N1292 1.427 . S
C1289 H1279 0.929 . S
C1289 C1287 1.433 . S
C1289 N1292 1.384 . S
C1290 H1281 0.929 . S
C1290 C1282 1.378 . S
C1290 C1285 1.350 . S
C1291 H1278 0.929 . S
C1291 C1283 1.433 . S
C1291 N1293 1.384 . S
N1292 C1288 1.427 . S
N1292 C1289 1.384 . S
N1293 C1285 1.427 . S
N1293 C1291 1.384 . S
H1294 C1300 0.930 . S
H1295 C1304 0.930 . S
H1296 C1309 0.929 . S
H1297 C1307 0.929 . S
H1298 C1302 0.929 . S
H1299 C1308 0.929 . S
C1300 H1294 0.930 . S
C1300 C1301 1.367 . S
C1300 C1308 1.378 . S
C1301 C1300 1.367 . S
C1301 C1309 1.433 . S
C1302 H1298 0.929 . S
C1302 C1304 1.378 . S
C1302 C1306 1.350 . S
C1303 C1306 1.463 . S
C1303 C1308 1.350 . S
C1303 N1311 1.427 . S
C1304 H1295 0.930 . S
C1304 C1302 1.378 . S
C1304 C1305 1.367 . S
C1305 C1304 1.367 . S
C1305 C1307 1.433 . S
C1306 C1302 1.350 . S
C1306 C1303 1.463 . S
C1306 N1310 1.427 . S
C1307 H1297 0.929 . S
C1307 C1305 1.433 . S
C1307 N1310 1.384 . S
C1308 H1299 0.929 . S
C1308 C1300 1.378 . S
C1308 C1303 1.350 . S
C1309 H1296 0.929 . S
C1309 C1301 1.433 . S
C1309 N1311 1.384 . S
N1310 C1306 1.427 . S
N1310 C1307 1.384 . S
N1311 C1303 1.427 . S
N1311 C1309 1.384 . S
H1312 C1318 0.930 . S
H1313 C1322 0.930 . S
H1314 C1327 0.929 . S
H1315 C1325 0.929 . S
H1316 C1320 0.929 . S
H1317 C1326 0.929 . S
C1318 H1312 0.930 . S
C1318 C1319 1.367 . S
C1318 C1326 1.378 . S
C1319 C1318 1.367 . S
C1319 C1327 1.433 . S
C1320 H1316 0.929 . S
C1320 C1322 1.378 . S
C1320 C1324 1.350 . S
C1321 C1324 1.463 . S
C1321 C1326 1.350 . S
C1321 N1329 1.427 . S
C1322 H1313 0.930 . S
C1322 C1320 1.378 . S
C1322 C1323 1.367 . S
C1323 C1322 1.367 . S
C1323 C1325 1.433 . S
C1324 C1320 1.350 . S
C1324 C1321 1.463 . S
C1324 N1328 1.427 . S
C1325 H1315 0.929 . S
C1325 C1323 1.433 . S
C1325 N1328 1.384 . S
C1326 H1317 0.929 . S
C1326 C1318 1.378 . S
C1326 C1321 1.350 . S
C1327 H1314 0.929 . S
C1327 C1319 1.433 . S
C1327 N1329 1.384 . S
N1328 C1324 1.427 . S
N1328 C1325 1.384 . S
N1329 C1321 1.427 . S
N1329 C1327 1.384 . S
H1330 C1336 0.930 . S
H1331 C1340 0.930 1_565 S
H1332 C1345 0.929 1_565 S
H1333 C1343 0.929 . S
H1334 C1338 0.929 1_565 S
H1335 C1344 0.929 . S
C1336 H1330 0.930 . S
C1336 C1337 1.367 . S
C1336 C1344 1.378 . S
C1337 C1336 1.367 . S
C1337 C1345 1.433 . S
C1338 H1334 0.929 1_545 S
C1338 C1340 1.378 . S
C1338 C1342 1.350 . S
C1339 C1342 1.463 . S
C1339 C1344 1.350 . S
C1339 N1347 1.427 . S
C1340 H1331 0.930 1_545 S
C1340 C1338 1.378 . S
C1340 C1341 1.367 . S
C1341 C1340 1.367 . S
C1341 C1343 1.433 . S
C1342 C1338 1.350 . S
C1342 C1339 1.463 . S
C1342 N1346 1.427 . S
C1343 H1333 0.929 . S
C1343 C1341 1.433 . S
C1343 N1346 1.384 . S
C1344 H1335 0.929 . S
C1344 C1336 1.378 . S
C1344 C1339 1.350 . S
C1345 H1332 0.929 1_545 S
C1345 C1337 1.433 . S
C1345 N1347 1.384 . S
N1346 C1342 1.427 . S
N1346 C1343 1.384 . S
N1347 C1339 1.427 . S
N1347 C1345 1.384 . S
H1348 C1354 0.930 . S
H1349 C1358 0.930 . S
H1350 C1363 0.929 . S
H1351 C1361 0.929 . S
H1352 C1356 0.929 . S
H1353 C1362 0.929 . S
C1354 H1348 0.930 . S
C1354 C1355 1.367 . S
C1354 C1362 1.378 . S
C1355 C1354 1.367 . S
C1355 C1363 1.433 . S
C1356 H1352 0.929 . S
C1356 C1358 1.378 . S
C1356 C1360 1.350 . S
C1357 C1360 1.463 . S
C1357 C1362 1.350 . S
C1357 N1365 1.427 . S
C1358 H1349 0.930 . S
C1358 C1356 1.378 . S
C1358 C1359 1.367 . S
C1359 C1358 1.367 . S
C1359 C1361 1.433 . S
C1360 C1356 1.350 . S
C1360 C1357 1.463 . S
C1360 N1364 1.427 . S
C1361 H1351 0.929 . S
C1361 C1359 1.433 . S
C1361 N1364 1.384 . S
C1362 H1353 0.929 . S
C1362 C1354 1.378 . S
C1362 C1357 1.350 . S
C1363 H1350 0.929 . S
C1363 C1355 1.433 . S
C1363 N1365 1.384 . S
N1364 C1360 1.427 . S
N1364 C1361 1.384 . S
N1365 C1357 1.427 . S
N1365 C1363 1.384 . S
H1366 C1372 0.930 . S
H1367 C1376 0.930 . S
H1368 C1381 0.929 . S
H1369 C1379 0.929 . S
H1370 C1374 0.929 . S
H1371 C1380 0.929 . S
C1372 H1366 0.930 . S
C1372 C1373 1.367 . S
C1372 C1380 1.378 . S
C1373 C1372 1.367 . S
C1373 C1381 1.433 . S
C1374 H1370 0.929 . S
C1374 C1376 1.378 . S
C1374 C1378 1.350 . S
C1375 C1378 1.463 . S
C1375 C1380 1.350 . S
C1375 N1383 1.427 . S
C1376 H1367 0.930 . S
C1376 C1374 1.378 . S
C1376 C1377 1.367 . S
C1377 C1376 1.367 . S
C1377 C1379 1.433 . S
C1378 C1374 1.350 . S
C1378 C1375 1.463 . S
C1378 N1382 1.427 . S
C1379 H1369 0.929 . S
C1379 C1377 1.433 . S
C1379 N1382 1.384 . S
C1380 H1371 0.929 . S
C1380 C1372 1.378 . S
C1380 C1375 1.350 . S
C1381 H1368 0.929 . S
C1381 C1373 1.433 . S
C1381 N1383 1.384 . S
N1382 C1378 1.427 . S
N1382 C1379 1.384 . S
N1383 C1375 1.427 . S
N1383 C1381 1.384 . S
H1384 C1390 0.930 . S
H1385 C1394 0.930 . S
H1386 C1399 0.929 . S
H1387 C1397 0.929 . S
H1388 C1392 0.929 . S
H1389 C1398 0.929 . S
C1390 H1384 0.930 . S
C1390 C1391 1.367 . S
C1390 C1398 1.378 . S
C1391 C1390 1.367 . S
C1391 C1399 1.433 . S
C1392 H1388 0.929 . S
C1392 C1394 1.378 . S
C1392 C1396 1.350 . S
C1393 C1396 1.463 . S
C1393 C1398 1.350 . S
C1393 N1401 1.427 . S
C1394 H1385 0.930 . S
C1394 C1392 1.378 . S
C1394 C1395 1.367 . S
C1395 C1394 1.367 . S
C1395 C1397 1.433 . S
C1396 C1392 1.350 . S
C1396 C1393 1.463 . S
C1396 N1400 1.427 . S
C1397 H1387 0.929 . S
C1397 C1395 1.433 . S
C1397 N1400 1.384 . S
C1398 H1389 0.929 . S
C1398 C1390 1.378 . S
C1398 C1393 1.350 . S
C1399 H1386 0.929 . S
C1399 C1391 1.433 . S
C1399 N1401 1.384 . S
N1400 C1396 1.427 . S
N1400 C1397 1.384 . S
N1401 C1393 1.427 . S
N1401 C1399 1.384 . S
H1402 C1408 0.930 . S
H1403 C1412 0.930 . S
H1404 C1417 0.929 . S
H1405 C1415 0.929 . S
H1406 C1410 0.929 . S
H1407 C1416 0.929 . S
C1408 H1402 0.930 . S
C1408 C1409 1.367 . S
C1408 C1416 1.378 . S
C1409 C1408 1.367 . S
C1409 C1417 1.433 1_655 S
C1410 H1406 0.929 . S
C1410 C1412 1.378 . S
C1410 C1414 1.350 . S
C1411 C1414 1.463 . S
C1411 C1416 1.350 1_455 S
C1411 N1419 1.427 . S
C1412 H1403 0.930 . S
C1412 C1410 1.378 . S
C1412 C1413 1.367 . S
C1413 C1412 1.367 . S
C1413 C1415 1.433 1_455 S
C1414 C1410 1.350 . S
C1414 C1411 1.463 . S
C1414 N1418 1.427 1_455 S
C1415 H1405 0.929 . S
C1415 C1413 1.433 1_655 S
C1415 N1418 1.384 . S
C1416 H1407 0.929 . S
C1416 C1408 1.378 . S
C1416 C1411 1.350 1_655 S
C1417 H1404 0.929 . S
C1417 C1409 1.433 1_455 S
C1417 N1419 1.384 . S
N1418 C1414 1.427 1_655 S
N1418 C1415 1.384 . S
N1419 C1411 1.427 . S
N1419 C1417 1.384 . S
H1420 C1426 0.930 . S
H1421 C1430 0.930 . S
H1422 C1435 0.929 . S
H1423 C1433 0.929 . S
H1424 C1428 0.929 . S
H1425 C1434 0.929 . S
C1426 H1420 0.930 . S
C1426 C1427 1.367 . S
C1426 C1434 1.378 . S
C1427 C1426 1.367 . S
C1427 C1435 1.433 . S
C1428 H1424 0.929 . S
C1428 C1430 1.378 . S
C1428 C1432 1.350 . S
C1429 C1432 1.463 . S
C1429 C1434 1.350 . S
C1429 N1437 1.427 . S
C1430 H1421 0.930 . S
C1430 C1428 1.378 . S
C1430 C1431 1.367 . S
C1431 C1430 1.367 . S
C1431 C1433 1.433 . S
C1432 C1428 1.350 . S
C1432 C1429 1.463 . S
C1432 N1436 1.427 . S
C1433 H1423 0.929 . S
C1433 C1431 1.433 . S
C1433 N1436 1.384 . S
C1434 H1425 0.929 . S
C1434 C1426 1.378 . S
C1434 C1429 1.350 . S
C1435 H1422 0.929 . S
C1435 C1427 1.433 . S
C1435 N1437 1.384 . S
N1436 C1432 1.427 . S
N1436 C1433 1.384 . S
N1437 C1429 1.427 . S
N1437 C1435 1.384 . S
H1438 C1444 0.930 . S
H1439 C1448 0.930 1_655 S
H1440 C1453 0.929 1_655 S
H1441 C1451 0.929 . S
H1442 C1446 0.929 1_655 S
H1443 C1452 0.929 . S
C1444 H1438 0.930 . S
C1444 C1445 1.367 . S
C1444 C1452 1.378 . S
C1445 C1444 1.367 . S
C1445 C1453 1.433 . S
C1446 H1442 0.929 1_455 S
C1446 C1448 1.378 . S
C1446 C1450 1.350 . S
C1447 C1450 1.463 . S
C1447 C1452 1.350 . S
C1447 N1455 1.427 . S
C1448 H1439 0.930 1_455 S
C1448 C1446 1.378 . S
C1448 C1449 1.367 . S
C1449 C1448 1.367 . S
C1449 C1451 1.433 . S
C1450 C1446 1.350 . S
C1450 C1447 1.463 . S
C1450 N1454 1.427 . S
C1451 H1441 0.929 . S
C1451 C1449 1.433 . S
C1451 N1454 1.384 . S
C1452 H1443 0.929 . S
C1452 C1444 1.378 . S
C1452 C1447 1.350 . S
C1453 H1440 0.929 1_455 S
C1453 C1445 1.433 . S
C1453 N1455 1.384 . S
N1454 C1450 1.427 . S
N1454 C1451 1.384 . S
N1455 C1447 1.427 . S
N1455 C1453 1.384 . S
H1456 C1462 0.930 . S
H1457 C1466 0.930 . S
H1458 C1471 0.929 . S
H1459 C1469 0.929 . S
H1460 C1464 0.929 . S
H1461 C1470 0.929 . S
C1462 H1456 0.930 . S
C1462 C1463 1.367 . S
C1462 C1470 1.378 . S
C1463 C1462 1.367 . S
C1463 C1471 1.433 . S
C1464 H1460 0.929 . S
C1464 C1466 1.378 . S
C1464 C1468 1.350 . S
C1465 C1468 1.463 . S
C1465 C1470 1.350 . S
C1465 N1473 1.427 . S
C1466 H1457 0.930 . S
C1466 C1464 1.378 . S
C1466 C1467 1.367 . S
C1467 C1466 1.367 . S
C1467 C1469 1.433 . S
C1468 C1464 1.350 . S
C1468 C1465 1.463 . S
C1468 N1472 1.427 . S
C1469 H1459 0.929 . S
C1469 C1467 1.433 . S
C1469 N1472 1.384 . S
C1470 H1461 0.929 . S
C1470 C1462 1.378 . S
C1470 C1465 1.350 . S
C1471 H1458 0.929 . S
C1471 C1463 1.433 . S
C1471 N1473 1.384 . S
N1472 C1468 1.427 . S
N1472 C1469 1.384 . S
N1473 C1465 1.427 . S
N1473 C1471 1.384 . S
H1474 C1480 0.930 . S
H1475 C1484 0.930 . S
H1476 C1489 0.929 . S
H1477 C1487 0.929 . S
H1478 C1482 0.929 . S
H1479 C1488 0.929 . S
C1480 H1474 0.930 . S
C1480 C1481 1.367 . S
C1480 C1488 1.378 . S
C1481 C1480 1.367 . S
C1481 C1489 1.433 . S
C1482 H1478 0.929 . S
C1482 C1484 1.378 . S
C1482 C1486 1.350 . S
C1483 C1486 1.463 . S
C1483 C1488 1.350 . S
C1483 N1491 1.427 . S
C1484 H1475 0.930 . S
C1484 C1482 1.378 . S
C1484 C1485 1.367 . S
C1485 C1484 1.367 . S
C1485 C1487 1.433 . S
C1486 C1482 1.350 . S
C1486 C1483 1.463 . S
C1486 N1490 1.427 . S
C1487 H1477 0.929 . S
C1487 C1485 1.433 . S
C1487 N1490 1.384 . S
C1488 H1479 0.929 . S
C1488 C1480 1.378 . S
C1488 C1483 1.350 . S
C1489 H1476 0.929 . S
C1489 C1481 1.433 . S
C1489 N1491 1.384 . S
N1490 C1486 1.427 . S
N1490 C1487 1.384 . S
N1491 C1483 1.427 . S
N1491 C1489 1.384 . S
H1492 C1498 0.930 . S
H1493 C1502 0.930 . S
H1494 C1507 0.929 . S
H1495 C1505 0.929 . S
H1496 C1500 0.929 . S
H1497 C1506 0.929 . S
C1498 H1492 0.930 . S
C1498 C1499 1.367 . S
C1498 C1506 1.378 . S
C1499 C1498 1.367 . S
C1499 C1507 1.433 . S
C1500 H1496 0.929 . S
C1500 C1502 1.378 . S
C1500 C1504 1.350 . S
C1501 C1504 1.463 . S
C1501 C1506 1.350 . S
C1501 N1509 1.427 . S
C1502 H1493 0.930 . S
C1502 C1500 1.378 . S
C1502 C1503 1.367 . S
C1503 C1502 1.367 . S
C1503 C1505 1.433 . S
C1504 C1500 1.350 . S
C1504 C1501 1.463 . S
C1504 N1508 1.427 . S
C1505 H1495 0.929 . S
C1505 C1503 1.433 . S
C1505 N1508 1.384 . S
C1506 H1497 0.929 . S
C1506 C1498 1.378 . S
C1506 C1501 1.350 . S
C1507 H1494 0.929 . S
C1507 C1499 1.433 . S
C1507 N1509 1.384 . S
N1508 C1504 1.427 . S
N1508 C1505 1.384 . S
N1509 C1501 1.427 . S
N1509 C1507 1.384 . S
H1510 C1516 0.930 . S
H1511 C1520 0.930 . S
H1512 C1525 0.929 . S
H1513 C1523 0.929 . S
H1514 C1518 0.929 . S
H1515 C1524 0.929 . S
C1516 H1510 0.930 . S
C1516 C1517 1.367 . S
C1516 C1524 1.378 . S
C1517 C1516 1.367 . S
C1517 C1525 1.433 . S
C1518 H1514 0.929 . S
C1518 C1520 1.378 . S
C1518 C1522 1.350 . S
C1519 C1522 1.463 . S
C1519 C1524 1.350 . S
C1519 N1527 1.427 . S
C1520 H1511 0.930 . S
C1520 C1518 1.378 . S
C1520 C1521 1.367 . S
C1521 C1520 1.367 . S
C1521 C1523 1.433 . S
C1522 C1518 1.350 . S
C1522 C1519 1.463 . S
C1522 N1526 1.427 . S
C1523 H1513 0.929 . S
C1523 C1521 1.433 . S
C1523 N1526 1.384 . S
C1524 H1515 0.929 . S
C1524 C1516 1.378 . S
C1524 C1519 1.350 . S
C1525 H1512 0.929 . S
C1525 C1517 1.433 . S
C1525 N1527 1.384 . S
N1526 C1522 1.427 . S
N1526 C1523 1.384 . S
N1527 C1519 1.427 . S
N1527 C1525 1.384 . S
H1528 C1534 0.930 . S
H1529 C1538 0.930 . S
H1530 C1543 0.929 . S
H1531 C1541 0.929 . S
H1532 C1536 0.929 . S
H1533 C1542 0.929 . S
C1534 H1528 0.930 . S
C1534 C1535 1.367 . S
C1534 C1542 1.378 . S
C1535 C1534 1.367 . S
C1535 C1543 1.433 . S
C1536 H1532 0.929 . S
C1536 C1538 1.378 . S
C1536 C1540 1.350 . S
C1537 C1540 1.463 . S
C1537 C1542 1.350 . S
C1537 N1545 1.427 . S
C1538 H1529 0.930 . S
C1538 C1536 1.378 . S
C1538 C1539 1.367 . S
C1539 C1538 1.367 . S
C1539 C1541 1.433 . S
C1540 C1536 1.350 . S
C1540 C1537 1.463 . S
C1540 N1544 1.427 . S
C1541 H1531 0.929 . S
C1541 C1539 1.433 . S
C1541 N1544 1.384 . S
C1542 H1533 0.929 . S
C1542 C1534 1.378 . S
C1542 C1537 1.350 . S
C1543 H1530 0.929 . S
C1543 C1535 1.433 . S
C1543 N1545 1.384 . S
N1544 C1540 1.427 . S
N1544 C1541 1.384 . S
N1545 C1537 1.427 . S
N1545 C1543 1.384 . S
H1546 C1552 0.930 . S
H1547 C1556 0.930 . S
H1548 C1561 0.929 . S
H1549 C1559 0.929 . S
H1550 C1554 0.929 . S
H1551 C1560 0.929 . S
C1552 H1546 0.930 . S
C1552 C1553 1.367 . S
C1552 C1560 1.378 . S
C1553 C1552 1.367 . S
C1553 C1561 1.433 . S
C1554 H1550 0.929 . S
C1554 C1556 1.378 . S
C1554 C1558 1.350 . S
C1555 C1558 1.463 . S
C1555 C1560 1.350 . S
C1555 N1563 1.427 . S
C1556 H1547 0.930 . S
C1556 C1554 1.378 . S
C1556 C1557 1.367 . S
C1557 C1556 1.367 . S
C1557 C1559 1.433 . S
C1558 C1554 1.350 . S
C1558 C1555 1.463 . S
C1558 N1562 1.427 . S
C1559 H1549 0.929 . S
C1559 C1557 1.433 . S
C1559 N1562 1.384 . S
C1560 H1551 0.929 . S
C1560 C1552 1.378 . S
C1560 C1555 1.350 . S
C1561 H1548 0.929 . S
C1561 C1553 1.433 . S
C1561 N1563 1.384 . S
N1562 C1558 1.427 . S
N1562 C1559 1.384 . S
N1563 C1555 1.427 . S
N1563 C1561 1.384 . S
H1564 C1570 0.930 . S
H1565 C1574 0.930 . S
H1566 C1579 0.929 . S
H1567 C1577 0.929 . S
H1568 C1572 0.929 . S
H1569 C1578 0.929 . S
C1570 H1564 0.930 . S
C1570 C1571 1.367 . S
C1570 C1578 1.378 . S
C1571 C1570 1.367 . S
C1571 C1579 1.433 . S
C1572 H1568 0.929 . S
C1572 C1574 1.378 . S
C1572 C1576 1.350 . S
C1573 C1576 1.463 . S
C1573 C1578 1.350 . S
C1573 N1581 1.427 . S
C1574 H1565 0.930 . S
C1574 C1572 1.378 . S
C1574 C1575 1.367 . S
C1575 C1574 1.367 . S
C1575 C1577 1.433 . S
C1576 C1572 1.350 . S
C1576 C1573 1.463 . S
C1576 N1580 1.427 . S
C1577 H1567 0.929 . S
C1577 C1575 1.433 . S
C1577 N1580 1.384 . S
C1578 H1569 0.929 . S
C1578 C1570 1.378 . S
C1578 C1573 1.350 . S
C1579 H1566 0.929 . S
C1579 C1571 1.433 . S
C1579 N1581 1.384 . S
N1580 C1576 1.427 . S
N1580 C1577 1.384 . S
N1581 C1573 1.427 . S
N1581 C1579 1.384 . S
H1582 C1588 0.930 . S
H1583 C1592 0.930 . S
H1584 C1597 0.929 . S
H1585 C1595 0.929 . S
H1586 C1590 0.929 . S
H1587 C1596 0.929 . S
C1588 H1582 0.930 . S
C1588 C1589 1.367 . S
C1588 C1596 1.378 . S
C1589 C1588 1.367 . S
C1589 C1597 1.433 . S
C1590 H1586 0.929 . S
C1590 C1592 1.378 . S
C1590 C1594 1.350 . S
C1591 C1594 1.463 . S
C1591 C1596 1.350 . S
C1591 N1599 1.427 . S
C1592 H1583 0.930 . S
C1592 C1590 1.378 . S
C1592 C1593 1.367 . S
C1593 C1592 1.367 . S
C1593 C1595 1.433 . S
C1594 C1590 1.350 . S
C1594 C1591 1.463 . S
C1594 N1598 1.427 . S
C1595 H1585 0.929 . S
C1595 C1593 1.433 . S
C1595 N1598 1.384 . S
C1596 H1587 0.929 . S
C1596 C1588 1.378 . S
C1596 C1591 1.350 . S
C1597 H1584 0.929 . S
C1597 C1589 1.433 . S
C1597 N1599 1.384 . S
N1598 C1594 1.427 . S
N1598 C1595 1.384 . S
N1599 C1591 1.427 . S
N1599 C1597 1.384 . S
H1600 C1606 0.912 1_554 S
H1601 C1610 0.930 . S
H1602 C1615 0.929 . S
H1603 C1613 0.929 . S
H1604 C1608 0.929 . S
H1605 C1614 0.929 . S
C1606 H1600 0.912 1_556 S
C1606 C1607 1.388 . S
C1606 C1614 1.376 1_556 S
C1607 C1606 1.388 . S
C1607 C1615 1.433 . S
C1608 H1604 0.929 . S
C1608 C1610 1.378 . S
C1608 C1612 1.350 . S
C1609 C1612 1.463 . S
C1609 C1614 1.350 1_556 S
C1609 N1617 1.427 . S
C1610 H1601 0.930 . S
C1610 C1608 1.378 . S
C1610 C1611 1.367 . S
C1611 C1610 1.367 . S
C1611 C1613 1.433 1_556 S
C1612 C1608 1.350 . S
C1612 C1609 1.463 . S
C1612 N1616 1.427 1_556 S
C1613 H1603 0.929 . S
C1613 C1611 1.433 1_554 S
C1613 N1616 1.384 . S
C1614 H1605 0.929 . S
C1614 C1606 1.376 1_554 S
C1614 C1609 1.350 1_554 S
C1615 H1602 0.929 . S
C1615 C1607 1.433 . S
C1615 N1617 1.384 . S
N1616 C1612 1.427 1_554 S
N1616 C1613 1.384 . S
N1617 C1609 1.427 . S
N1617 C1615 1.384 . S
H1618 C1624 0.930 . S
H1619 C1628 0.930 . S
H1620 C1633 0.929 . S
H1621 C1631 0.929 . S
H1622 C1626 0.929 . S
H1623 C1632 0.929 . S
C1624 H1618 0.930 . S
C1624 C1625 1.367 . S
C1624 C1632 1.378 . S
C1625 C1624 1.367 . S
C1625 C1633 1.433 . S
C1626 H1622 0.929 . S
C1626 C1628 1.378 . S
C1626 C1630 1.350 . S
C1627 C1630 1.463 . S
C1627 C1632 1.350 . S
C1627 N1635 1.427 . S
C1628 H1619 0.930 . S
C1628 C1626 1.378 . S
C1628 C1629 1.367 . S
C1629 C1628 1.367 . S
C1629 C1631 1.433 . S
C1630 C1626 1.350 . S
C1630 C1627 1.463 . S
C1630 N1634 1.427 . S
C1631 H1621 0.929 . S
C1631 C1629 1.433 . S
C1631 N1634 1.384 . S
C1632 H1623 0.929 . S
C1632 C1624 1.378 . S
C1632 C1627 1.350 . S
C1633 H1620 0.929 . S
C1633 C1625 1.433 . S
C1633 N1635 1.384 . S
N1634 C1630 1.427 . S
N1634 C1631 1.384 . S
N1635 C1627 1.427 . S
N1635 C1633 1.384 . S
H1636 C1642 0.930 . S
H1637 C1646 0.930 . S
H1638 C1651 0.917 1_556 S
H1639 C1649 0.929 . S
H1640 C1644 0.887 1_556 S
H1641 C1650 0.929 . S
C1642 H1636 0.930 . S
C1642 C1643 1.367 . S
C1642 C1650 1.378 . S
C1643 C1642 1.367 . S
C1643 C1651 1.433 . S
C1644 H1640 0.887 1_554 S
C1644 C1646 1.372 1_554 S
C1644 C1648 1.399 . S
C1645 C1648 1.463 . S
C1645 C1650 1.350 . S
C1645 N1653 1.427 . S
C1646 H1637 0.930 . S
C1646 C1644 1.372 1_556 S
C1646 C1647 1.367 1_556 S
C1647 C1646 1.367 1_554 S
C1647 C1649 1.433 . S
C1648 C1644 1.399 . S
C1648 C1645 1.463 . S
C1648 N1652 1.427 . S
C1649 H1639 0.929 . S
C1649 C1647 1.433 . S
C1649 N1652 1.384 . S
C1650 H1641 0.929 . S
C1650 C1642 1.378 . S
C1650 C1645 1.350 . S
C1651 H1638 0.917 1_554 S
C1651 C1643 1.433 . S
C1651 N1653 1.384 . S
N1652 C1648 1.427 . S
N1652 C1649 1.384 . S
N1653 C1645 1.427 . S
N1653 C1651 1.384 . S
H1654 C1660 0.930 . S
H1655 C1664 0.897 1_556 S
H1656 C1669 0.929 1_556 S
H1657 C1667 0.929 . S
H1658 C1662 0.929 1_556 S
H1659 C1668 0.929 . S
C1660 H1654 0.930 . S
C1660 C1661 1.367 . S
C1660 C1668 1.378 . S
C1661 C1660 1.367 . S
C1661 C1669 1.433 . S
C1662 H1658 0.929 1_554 S
C1662 C1664 1.383 . S
C1662 C1666 1.350 . S
C1663 C1666 1.463 . S
C1663 C1668 1.350 . S
C1663 N1671 1.427 . S
C1664 H1655 0.897 1_554 S
C1664 C1662 1.383 . S
C1664 C1665 1.399 . S
C1665 C1664 1.399 . S
C1665 C1667 1.433 . S
C1666 C1662 1.350 . S
C1666 C1663 1.463 . S
C1666 N1670 1.427 . S
C1667 H1657 0.929 . S
C1667 C1665 1.433 . S
C1667 N1670 1.384 . S
C1668 H1659 0.929 . S
C1668 C1660 1.378 . S
C1668 C1663 1.350 . S
C1669 H1656 0.929 1_554 S
C1669 C1661 1.433 . S
C1669 N1671 1.384 . S
N1670 C1666 1.427 . S
N1670 C1667 1.384 . S
N1671 C1663 1.427 . S
N1671 C1669 1.384 . S
C819 C651 1.425 . S
C815 C202 1.424 . S
C837 C659 1.292 . S
C833 C261 1.561 . S
C851 C282 1.443 . S
C855 C679 1.420 . S
C873 C693 1.502 . S
C869 C162 1.516 . S
C891 C708 1.511 . S
C887 C402 1.494 . S
C909 C722 1.526 . S
C905 C482 1.523 . S
C923 C442 1.569 . S
C927 C736 1.579 . S
C945 C742 1.455 . S
C941 C381 1.487 . S
C959 C461 1.565 . S
C963 C756 1.527 . S
C981 C777 1.512 . S
C977 C362 1.523 . S
C995 C415 1.420 . S
C999 C757 1.196 . S
C1017 C778 1.563 . S
C1013 C495 1.559 . S
C1031 C301 1.525 . S
C1035 C785 1.246 . S
C1049 C175 1.533 . S
C1053 C791 1.510 . S
C1067 C215 1.465 . S
C1071 C784 1.421 . S
C1085 C242 1.451 . S
C1089 C792 1.456 . S
C1103 C141 1.521 . S
C1107 C686 1.494 . S
C1121 C581 1.509 . S
C1125 C687 1.271 . S
C1143 C644 1.469 1_556 S
C1139 C615 1.516 . S
C1161 C665 1.425 . S
C1157 C335 1.452 . S
C1175 C181 1.536 . S
C1179 C700 1.514 . S
C1197 C750 1.515 . S
C1193 C455 1.514 . S
C1215 C701 1.152 . S
C1211 C375 1.396 . S
C1233 C729 1.331 . S
C1229 C501 1.620 . S
C1251 C735 1.424 . S
C1247 C562 1.430 . S
C1265 C621 1.563 . S
C1269 C743 1.275 . S
C1283 C322 1.442 . S
C1287 C707 1.423 . S
C1305 C721 1.507 . S
C1301 C522 1.514 . S
C1319 C122 1.501 . S
C1323 C680 1.513 . S
C1341 C694 1.526 . S
C1337 C2 1.518 . S
C1359 C652 1.579 . S
C1355 C42 1.569 . S
C1377 C658 1.450 . S
C1373 C101 1.488 . S
C1391 C61 1.564 . S
C1395 C770 1.530 . S
C1409 C82 1.519 . S
C1413 C763 1.512 . S
C1427 C135 1.420 . S
C1431 C771 1.180 . S
C1445 C15 1.560 . S
C1449 C764 1.563 . S
C1467 C799 1.267 . S
C1463 C341 1.524 . S
C1485 C805 1.510 . S
C1481 C535 1.533 . S
C1503 C798 1.428 . S
C1499 C575 1.467 . S
C1517 C602 1.448 . S
C1521 C806 1.457 . S
C1535 C421 1.520 . S
C1539 C714 1.492 . S
C1557 C715 1.275 . S
C1553 C221 1.510 . S
C1575 C728 1.465 . S
C1571 C255 1.514 . S
C1593 C749 1.433 . S
C1589 C295 1.457 . S
C1607 C541 1.539 . S
C1611 C672 1.505 . S
C1629 C666 1.516 . S
C1625 C55 1.516 . S
C1643 C95 1.396 . S
C1647 C673 1.165 . S
C1665 C645 1.344 . S
C1661 C21 1.619 . S
