# Generated by pormake.
# Topology ftw, (4,12)-cn, num edge types: 1
# Building blocks:
#     Node 0, Type 0, BuildingBlock: ESEHIV_clean_sbu_0, # of connection points: 4
#     Node 1, Type 0, BuildingBlock: ESEHIV_clean_sbu_0, # of connection points: 4
#     Node 2, Type 0, BuildingBlock: ESEHIV_clean_sbu_0, # of connection points: 4
#     Node 3, Type 1, BuildingBlock: EZIPEK_clean_sbu_0, # of connection points: 12
#     Edge 4, Type (0, 1), BuildingBlock: FUNLAD_clean_linker_0, # of connection points: 2
#     Edge 5, Type (0, 1), BuildingBlock: FUNLAD_clean_linker_0, # of connection points: 2
#     Edge 6, Type (0, 1), BuildingBlock: FUNLAD_clean_linker_0, # of connection points: 2
#     Edge 7, Type (0, 1), BuildingBlock: FUNLAD_clean_linker_0, # of connection points: 2
#     Edge 8, Type (0, 1), BuildingBlock: FUNLAD_clean_linker_0, # of connection points: 2
#     Edge 9, Type (0, 1), BuildingBlock: FUNLAD_clean_linker_0, # of connection points: 2
#     Edge 10, Type (0, 1), BuildingBlock: FUNLAD_clean_linker_0, # of connection points: 2
#     Edge 11, Type (0, 1), BuildingBlock: FUNLAD_clean_linker_0, # of connection points: 2
#     Edge 12, Type (0, 1), BuildingBlock: FUNLAD_clean_linker_0, # of connection points: 2
#     Edge 13, Type (0, 1), BuildingBlock: FUNLAD_clean_linker_0, # of connection points: 2
#     Edge 14, Type (0, 1), BuildingBlock: FUNLAD_clean_linker_0, # of connection points: 2
#     Edge 15, Type (0, 1), BuildingBlock: FUNLAD_clean_linker_0, # of connection points: 2
# Relax obj value: 0.024
# Max RMSD: 0.144
# Mean RMSD: 0.113
data_MOF--net-ftw--node1-ESEHIV_clean_sbu_0--node2-EZIPEK_clean_sbu_0--edge1-FUNLAD_clean_linker_0
_symmetry_space_group_name_H-M    P1
_symmetry_Int_Tables_number       1
_symmetry_cell_setting            triclinic
loop_
_symmetry_equiv_pos_as_xyz
'x, y, z'
_cell_length_a     28.625502
_cell_length_b     28.153005
_cell_length_c     27.884694
_cell_angle_alpha  86.744931
_cell_angle_beta   87.110028
_cell_angle_gamma 92.889399
loop_
_atom_site_label
_atom_site_type_symbol
_atom_site_fract_x
_atom_site_fract_y
_atom_site_fract_z
_atom_type_partial_charge
Cu0 Cu 0.99346 0.51156 0.48304 0.0
N1 N 0.95711 0.46851 0.45094 0.0
N2 N 0.94265 0.40742 0.40522 0.0
C3 C 0.97573 0.43534 0.42426 0.0
C4 C 0.90134 0.4237 0.421 0.0
C5 C 0.91041 0.46148 0.44934 0.0
O6 O 0.02753 0.47365 0.52838 0.0
C7 C 0.05215 0.58906 0.44272 0.0
O8 O 0.05159 0.60281 0.48697 0.0
H9 H 1.01308 0.43143 0.4199 0.0
H10 H 0.88485 0.48203 0.46763 0.0
N11 N 0.9573 0.55331 0.51656 0.0
N12 N 0.9392 0.60473 0.5718 0.0
C13 C 0.96826 0.57101 0.55857 0.0
C14 C 0.92002 0.57664 0.50242 0.0
C15 C 0.90869 0.60844 0.53655 0.0
C16 C 1.00237 0.45397 0.56365 0.0
O17 O 0.95744 0.46158 0.56695 0.0
H18 H 0.99868 0.56116 0.57761 0.0
H19 H 0.90346 0.5722 0.46884 0.0
O20 O 0.0326 0.54895 0.43466 0.0
H21 H 0.86705 0.40975 0.41242 0.0
H22 H 0.8809 0.63306 0.53493 0.0
Cu23 Cu 0.53787 0.04889 0.4845 0.0
N24 N 0.57155 0.08651 0.52535 0.0
N25 N 0.61901 0.10149 0.58469 0.0
C26 C 0.6033 0.06904 0.5546 0.0
C27 C 0.59597 0.14109 0.5738 0.0
C28 C 0.56655 0.13167 0.53733 0.0
O29 O 0.58179 1.01092 0.44987 0.0
C30 C 0.45813 0.04068 0.54152 0.0
O31 O 0.46065 0.08589 0.52661 0.0
H32 H 0.61286 0.03233 0.55517 0.0
H33 H 0.54198 0.15547 0.52218 0.0
N34 N 0.50809 0.08323 0.43669 0.0
N35 N 0.46227 0.09416 0.37494 0.0
C36 C 0.47872 0.06243 0.40707 0.0
C37 C 0.51075 0.12988 0.42267 0.0
C38 C 0.4821 0.1368 0.3847 0.0
C39 C 0.61626 0.03576 0.42909 0.0
O40 O 0.61942 0.08176 0.43505 0.0
H41 H 0.4694 0.02459 0.40938 0.0
H42 H 0.53241 0.15684 0.43826 0.0
O43 O 0.48959 0.01405 0.52604 0.0
H44 H 0.59938 0.17427 0.59139 0.0
H45 H 0.47712 0.17032 0.36513 0.0
Cu46 Cu 0.53212 0.50421 0.02049 0.0
N47 N 0.49408 0.54402 0.05542 0.0
N48 N 0.44359 0.60079 0.06852 0.0
C49 C 0.46505 0.57481 0.03545 0.0
C50 C 0.45988 0.58555 0.11105 0.0
C51 C 0.49097 0.55059 0.10287 0.0
O52 O 0.4911 0.46445 0.98338 0.0
C53 C 0.60517 0.56807 0.01605 0.0
O54 O 0.59461 0.55917 0.0622 0.0
H55 H 0.46088 0.57888 -0.00289 0.0
H56 H 0.51053 0.53197 0.12953 0.0
N57 N 0.56465 0.46169 0.05873 0.0
N58 N 0.61992 0.41076 0.07575 0.0
C59 C 0.60477 0.44314 0.04336 0.0
C60 C 0.55371 0.44029 0.10251 0.0
C61 C 0.5878 0.40881 0.11313 0.0
C62 C 0.45726 0.44365 0.00937 0.0
O63 O 0.45359 0.45216 0.0552 0.0
H64 H 0.62149 0.45211 0.00811 0.0
H65 H 0.52265 0.44615 0.12461 0.0
O66 O 0.58061 0.54642 0.98623 0.0
H67 H 0.4501 0.59866 0.14569 0.0
H68 H 0.58856 0.38604 0.14564 0.0
C69 C 0.03344 0.13071 0.87344 0.0
C70 C 0.03208 0.11449 0.10536 0.0
C71 C 0.02379 0.90052 0.87074 0.0
C72 C 0.03893 0.88477 0.10261 0.0
C73 C 0.14531 0.89598 0.98548 0.0
C74 C 0.1481 0.12833 0.97487 0.0
C75 C 0.9175 0.88825 0.98931 0.0
C76 C 0.92098 0.11727 0.0035 0.0
C77 C 0.92214 0.98944 0.11291 0.0
C78 C 0.14885 0.01587 0.09596 0.0
C79 C 0.91891 0.01704 0.87939 0.0
C80 C 0.145 1.0101 0.86322 0.0
Eu81 Eu 0.03432 0.09693 0.98898 0.0
O82 O 0.07647 0.04831 0.02767 0.0
O83 O 0.99145 0.05073 0.94874 0.0
Eu84 Eu 0.12288 1.01117 0.98134 0.0
Eu85 Eu 0.94454 1.00377 0.99443 0.0
O86 O 0.07557 0.0545 0.94275 0.0
O87 O 0.99306 0.04462 0.03398 0.0
Eu88 Eu 0.03248 0.0139 0.89741 0.0
Eu89 Eu 0.03512 1.00132 0.0785 0.0
O90 O 0.07409 0.9696 0.94196 0.0
O91 O 0.07519 0.96432 0.02658 0.0
O92 O 0.99156 0.96019 0.03339 0.0
O93 O 0.99097 0.96698 0.94821 0.0
Eu94 Eu 0.03192 0.91731 0.98691 0.0
O95 O 0.03084 0.14127 0.91947 0.0
O96 O 0.03611 0.13185 0.05975 0.0
O97 O 0.02751 0.88268 0.91573 0.0
O98 O 0.03354 0.87304 0.05737 0.0
O99 O 0.16043 0.94171 0.98611 0.0
O100 O 0.16253 0.08391 0.97303 0.0
O101 O 0.90453 0.93298 0.99138 0.0
O102 O 0.90649 0.0715 0.00298 0.0
O103 O 0.96712 0.99098 0.12356 0.0
O104 O 0.1045 1.01021 0.11351 0.0
O105 O 0.96334 0.01793 0.86225 0.0
O106 O 0.10027 0.01276 0.85241 0.0
O107 O 0.96171 0.87478 0.98848 0.0
O108 O 0.1006 0.88037 0.98338 0.0
O109 O 0.96566 0.13397 -0.00174 0.0
O110 O 0.10361 0.13977 0.98159 0.0
O111 O 0.02992 0.06833 0.11981 0.0
O112 O 0.04125 0.92913 0.11729 0.0
O113 O 0.03633 0.08698 0.85758 0.0
O114 O 0.02484 0.94676 0.85689 0.0
O115 O 0.16062 1.0094 0.90765 0.0
O116 O 0.16284 0.01623 0.04945 0.0
O117 O 0.90465 1.01228 0.92595 0.0
O118 O 0.90656 0.99357 0.06849 0.0
C119 C 0.99407 0.36624 0.34904 0.0
C120 C 0.95064 0.36873 0.37447 0.0
C121 C 1.00253 0.32872 0.31984 0.0
C122 C 0.96741 0.29296 0.31441 0.0
C123 C 0.92419 0.29493 0.3402 0.0
C124 C 0.91578 0.33249 0.3698 0.0
C125 C 0.97509 0.25314 0.28251 0.0
C126 C 1.00613 0.25713 0.24432 0.0
C127 C 1.01345 0.21907 0.21042 0.0
C128 C 0.03241 0.23236 0.16396 0.0
C129 C 0.03929 0.19828 0.13033 0.0
C130 C 0.02786 0.14981 0.1425 0.0
H131 H 0.98974 0.15863 0.25914 0.0
C132 C 1.01028 0.13613 0.18954 0.0
C133 C 1.00309 0.17044 0.22322 0.0
H134 H 1.0012 0.09907 0.20013 0.0
H135 H 1.02174 0.39349 0.35124 0.0
H136 H 0.03692 0.32783 0.30208 0.0
H137 H 0.89668 0.26757 0.33714 0.0
H138 H 0.88219 0.33276 0.38935 0.0
H139 H 0.95261 0.22097 0.28912 0.0
H140 H 0.0252 0.29101 0.23524 0.0
H141 H 0.04127 0.26947 0.1533 0.0
H142 H 0.05331 0.21015 0.0946 0.0
C143 C 0.69372 0.0408 0.38436 0.0
C144 C 0.65054 0.01569 0.39541 0.0
C145 C 0.72442 0.02676 0.34812 0.0
C146 C 0.71283 0.98703 0.32184 0.0
C147 C 0.67003 0.96119 0.33348 0.0
C148 C 0.63929 0.97508 0.37035 0.0
C149 C 0.74334 0.97479 0.27994 0.0
C150 C 0.7901 0.98401 0.27789 0.0
C151 C 0.82191 0.97975 0.23465 0.0
C152 C 0.87011 0.97854 0.24107 0.0
C153 C 0.90223 0.98035 0.20163 0.0
C154 C 0.8871 0.98386 0.15437 0.0
H155 H 0.76955 0.98384 0.18094 0.0
C156 C 0.83866 0.98379 0.14775 0.0
C157 C 0.80635 0.9818 0.18747 0.0
H158 H 0.82566 0.98648 0.11195 0.0
H159 H 0.70335 0.07237 0.40286 0.0
H160 H 0.75628 0.04856 0.33945 0.0
H161 H 0.66003 0.93073 0.31349 0.0
H162 H 0.60598 0.95538 0.37775 0.0
H163 H 0.7268 0.95846 0.25032 0.0
H164 H 0.80638 0.99601 0.30977 0.0
H165 H 0.88318 0.97725 0.27691 0.0
H166 H 0.93912 0.9801 0.20849 0.0
C167 C 0.0615 0.61095 0.35421 0.0
C168 C 0.06666 0.62348 0.40184 0.0
C169 C 0.06757 0.64545 0.31601 0.0
C170 C 0.07871 0.69339 0.32467 0.0
C171 C 0.08708 0.70517 0.37186 0.0
C172 C 0.08096 0.67068 0.41008 0.0
C173 C 0.08037 0.73229 0.28606 0.0
C174 C 0.05612 0.72978 0.24593 0.0
C175 C 0.05352 0.77025 0.20962 0.0
C176 C 0.04225 0.7605 0.16263 0.0
C177 C 0.0376 0.79752 0.12788 0.0
C178 C 0.04351 0.84535 0.13951 0.0
H179 H 0.06633 0.82727 0.25756 0.0
C180 C 0.05434 0.85512 0.18675 0.0
C181 C 0.05922 0.81808 0.2214 0.0
H182 H 0.05898 0.89145 0.1972 0.0
H183 H 0.05114 0.57476 0.34648 0.0
H184 H 0.06281 0.63439 0.27999 0.0
H185 H 0.09643 0.74163 0.37953 0.0
H186 H 0.08558 0.68154 0.44626 0.0
H187 H 0.1001 0.76504 0.29253 0.0
H188 H 0.03641 0.69708 0.23931 0.0
H189 H 0.0371 0.72402 0.15268 0.0
H190 H 0.0291 0.78849 0.09198 0.0
C191 C 0.39802 0.11685 0.32357 0.0
C192 C 0.43063 0.08389 0.33782 0.0
C193 C 0.36602 0.10579 0.28899 0.0
C194 C 0.3663 0.0616 0.26771 0.0
C195 C 0.39986 0.02937 0.28092 0.0
C196 C 0.43138 0.04017 0.3159 0.0
C197 C 0.33267 0.0483 0.23119 0.0
C198 C 0.28866 0.06313 0.23154 0.0
C199 C 0.25389 0.04847 0.19658 0.0
C200 C 0.20607 0.04833 0.2103 0.0
C201 C 0.17213 0.03641 0.17812 0.0
C202 C 0.18519 0.025 0.13099 0.0
H203 H 0.30367 0.03739 0.13732 0.0
C204 C 0.23316 0.02503 0.1172 0.0
C205 C 0.26717 0.03657 0.14964 0.0
H206 H 0.24455 0.01671 0.08115 0.0
H207 H 0.39668 0.15079 0.33985 0.0
H208 H 0.34145 0.13204 0.27871 0.0
H209 H 0.40122 0.99536 0.2647 0.0
H210 H 0.45662 0.01439 0.32555 0.0
H211 H 0.34354 0.02288 0.20552 0.0
H212 H 0.27654 0.08473 0.26027 0.0
H213 H 0.19483 0.05762 0.24611 0.0
H214 H 0.13559 0.03725 0.19002 0.0
C215 C 0.92962 0.68092 0.61039 0.0
C216 C 0.94385 0.63384 0.61235 0.0
C217 C 0.93796 0.71032 0.64816 0.0
C218 C 0.96092 0.69322 0.68866 0.0
C219 C 0.97319 0.64556 0.69148 0.0
C220 C 0.96496 0.61626 0.65372 0.0
C221 C 0.97247 0.72373 0.72868 0.0
C222 C 0.97931 0.77149 0.72288 0.0
C223 C 0.99254 0.80276 0.7619 0.0
C224 C 1.00892 0.84987 0.74912 0.0
C225 C 1.02016 0.88126 0.78432 0.0
C226 C 1.01534 0.86627 0.83333 0.0
H227 H 0.97432 0.7522 0.82292 0.0
C228 C 0.99953 0.81897 0.84626 0.0
C229 C 0.98794 0.78764 0.81104 0.0
H230 H 0.99467 0.80642 0.88371 0.0
H231 H 0.91323 0.69555 0.5791 0.0
H232 H 0.92635 0.7463 0.64536 0.0
H233 H 0.99019 0.63119 0.72257 0.0
H234 H 0.97546 0.57986 0.65678 0.0
H235 H 0.97848 0.70556 0.76297 0.0
H236 H 0.97709 0.78871 0.68729 0.0
H237 H 1.01271 0.86265 0.71166 0.0
H238 H 0.03225 0.91744 0.77301 0.0
C239 C 0.38241 0.05164 0.58573 0.0
C240 C 0.42113 0.02374 0.57836 0.0
C241 C 0.34968 0.04039 0.62381 0.0
C242 C 0.3545 1.00054 0.65558 0.0
C243 C 0.39277 0.97194 0.64781 0.0
C244 C 0.42566 0.98318 0.60922 0.0
C245 C 0.32185 0.99074 0.69872 0.0
C246 C 0.27715 1.0038 0.69932 0.0
C247 C 0.24445 1.00156 0.74267 0.0
C248 C 0.19659 1.00562 0.73576 0.0
C249 C 0.16461 1.00811 0.77481 0.0
C250 C 0.17962 1.00695 0.82212 0.0
H251 H 0.29643 0.99781 0.79683 0.0
C252 C 0.22756 1.00236 0.82927 0.0
C253 C 0.25971 0.99977 0.78996 0.0
H254 H 0.24043 1.00129 0.86515 0.0
H255 H 0.37794 0.08326 0.56276 0.0
H256 H 0.32176 0.06435 0.62925 0.0
H257 H 0.39759 0.94132 0.67203 0.0
H258 H 0.45545 0.9613 0.6047 0.0
H259 H 0.33516 0.97288 0.73034 0.0
H260 H 0.26332 0.01732 0.66593 0.0
H261 H 0.18382 1.00747 0.6998 0.0
H262 H 0.12807 1.01143 0.76758 0.0
C263 C 1.00307 0.41963 0.64722 0.0
C264 C 1.02139 0.42098 0.5996 0.0
C265 C 1.0145 0.38385 0.68047 0.0
C266 C 0.04337 0.34746 0.66639 0.0
C267 C 0.06419 0.35069 0.61944 0.0
C268 C 0.05341 0.38732 0.58624 0.0
C269 C 0.05122 0.30539 0.69939 0.0
C270 C 1.02088 0.29098 0.73655 0.0
C271 C 0.02711 0.24981 0.7707 0.0
C272 C 1.00807 0.25145 0.81783 0.0
C273 C 1.01073 0.21294 0.851 0.0
C274 C 0.03171 0.17129 0.83759 0.0
H275 H 0.06261 0.20563 0.72059 0.0
C276 C 0.05051 0.16924 0.7902 0.0
C277 C 0.04854 0.20838 0.75703 0.0
H278 H 0.06687 0.13758 0.77885 0.0
H279 H 0.979 0.44584 0.65856 0.0
H280 H 0.99986 0.38471 0.7169 0.0
H281 H 0.08728 0.32375 0.60783 0.0
H282 H 0.06797 0.38772 0.54959 0.0
H283 H 0.08187 0.2852 0.69207 0.0
H284 H 0.98985 0.31057 0.74355 0.0
H285 H 0.99099 0.28277 0.82911 0.0
H286 H 0.99549 0.21561 0.88705 0.0
C287 C 0.68215 0.05669 0.62059 0.0
C288 C 0.65106 0.09375 0.62247 0.0
C289 C 0.71202 0.0478 0.65778 0.0
C290 C 0.71221 0.07628 0.6977 0.0
C291 C 0.68105 0.11318 0.69972 0.0
C292 C 0.65094 0.12196 0.66254 0.0
C293 C 0.74361 0.06795 0.73811 0.0
C294 C 0.78381 0.04521 0.73334 0.0
C295 C 0.81682 0.03775 0.77234 0.0
C296 C 0.86308 0.0278 0.75917 0.0
C297 C 0.89576 0.02063 0.79393 0.0
C298 C 0.88302 0.02279 0.84312 0.0
H299 H 0.76794 0.04527 0.83344 0.0
C300 C 0.83639 0.03167 0.85662 0.0
C301 C 0.80356 0.03907 0.82161 0.0
H302 H 0.82527 0.03339 0.89416 0.0
H303 H 0.68359 0.03436 0.5903 0.0
H304 H 0.73422 0.01799 0.65521 0.0
H305 H 0.68001 0.13542 0.73018 0.0
H306 H 0.62705 0.15031 0.66573 0.0
H307 H 0.73435 0.08329 0.77191 0.0
H308 H 0.79491 0.03367 0.69829 0.0
H309 H 0.87426 0.02603 0.72163 0.0
H310 H 0.93116 0.01346 0.78196 0.0
C311 C 0.38062 0.39782 0.01752 0.0
C312 C 0.42326 0.40851 0.99101 0.0
C313 C 0.34996 0.36097 0.00539 0.0
C314 C 0.36082 0.33366 0.96604 0.0
C315 C 0.40314 0.34474 0.93882 0.0
C316 C 0.43397 0.38221 0.95089 0.0
C317 C 0.32981 0.29169 0.9555 0.0
C318 C 0.28317 0.29004 0.96593 0.0
C319 C 0.25046 0.24748 0.96319 0.0
C320 C 0.20226 0.25454 0.96504 0.0
C321 C 0.16949 0.21598 0.9679 0.0
C322 C 0.18386 0.16887 0.96931 0.0
H323 H 0.30204 0.19339 0.96297 0.0
C324 C 0.23223 0.16157 0.96631 0.0
C325 C 0.26524 0.20046 0.96338 0.0
H326 H 0.24466 0.12585 0.96731 0.0
H327 H 0.3713 0.41723 0.04876 0.0
H328 H 0.31862 0.35285 0.02833 0.0
H329 H 0.41264 0.32399 0.90861 0.0
H330 H 0.46682 0.38929 0.93011 0.0
H331 H 0.34584 0.26189 0.93935 0.0
H332 H 0.26751 0.32205 0.97775 0.0
H333 H 0.1897 0.29022 0.96519 0.0
H334 H 0.13271 0.22341 0.96975 0.0
C335 C 0.38459 0.63884 0.01892 0.0
C336 C 0.41142 0.638 0.05987 0.0
C337 C 0.35386 0.67517 0.0102 0.0
C338 C 0.349 0.71161 0.04242 0.0
C339 C 0.37615 0.71099 0.08303 0.0
C340 C 0.40674 0.67459 0.09181 0.0
C341 C 0.31714 0.75143 0.03443 0.0
C342 C 0.27946 0.74866 0.00728 0.0
C343 C 0.24641 0.78763 0.00101 0.0
C344 C 0.20046 0.77582 0.98877 0.0
C345 C 0.16798 0.81094 0.98317 0.0
C346 C 0.18073 0.85912 0.98906 0.0
H347 H 0.29504 0.8468 0.01393 0.0
C348 C 0.22715 0.8712 6e-05 0.0
C349 C 0.25962 0.83593 0.00596 0.0
H350 H 0.23841 0.90788 0.00471 0.0
H351 H 0.38706 0.61122 0.99361 0.0
H352 H 0.33469 0.67483 0.97778 0.0
H353 H 0.3736 0.73875 0.10826 0.0
H354 H 0.42731 0.67566 0.12327 0.0
H355 H 0.32371 0.78315 0.05398 0.0
H356 H 0.27042 0.71542 0.99123 0.0
H357 H 0.18934 0.73907 0.9842 0.0
H358 H 0.13273 0.8001 0.97442 0.0
C359 C 0.66151 0.33709 0.09355 0.0
C360 C 0.66023 0.38231 0.06964 0.0
C361 C 0.69944 0.30852 0.08536 0.0
C362 C 0.73702 0.32447 0.05286 0.0
C363 C 0.73647 0.3703 0.03035 0.0
C364 C 0.69852 0.39877 0.03842 0.0
C365 C 0.7774 0.29463 0.04185 0.0
C366 C 0.77408 0.24657 0.04543 0.0
C367 C 0.81301 0.21545 0.03275 0.0
C368 C 0.80165 0.16736 0.02569 0.0
C369 C 0.83655 0.13602 0.01534 0.0
C370 C 0.88412 0.15176 0.01199 0.0
H371 H 0.87116 0.26798 0.03531 0.0
C372 C 0.89569 0.20004 0.0187 0.0
C373 C 0.86059 0.23154 0.0291 0.0
H374 H 0.93191 0.21342 0.01681 0.0
H375 H 0.63275 0.32324 0.11785 0.0
H376 H 0.69915 0.27412 0.10477 0.0
H377 H 0.76516 0.38387 0.00571 0.0
H378 H 0.69924 0.43377 0.02014 0.0
H379 H 0.80971 0.31304 0.0274 0.0
H380 H 0.74036 0.22862 0.056 0.0
H381 H 0.76546 0.15378 0.02837 0.0
H382 H 0.826 0.09921 0.01043 0.0
C383 C 0.66662 0.62745 0.03742 0.0
C384 C 0.64476 0.60281 0.00143 0.0
C385 C 0.7039 0.66035 0.02599 0.0
C386 C 0.72052 0.67012 0.97805 0.0
C387 C 0.69973 0.6448 0.94184 0.0
C388 C 0.66179 0.6116 0.95336 0.0
C389 C 0.75992 0.70621 0.96642 0.0
C390 C 0.76391 0.74583 0.99127 0.0
C391 C 0.80383 0.78191 0.98624 0.0
C392 C 0.79617 0.82748 0.00184 0.0
C393 C 0.83303 0.86167 0.00245 0.0
C394 C 0.87895 0.85108 0.98806 0.0
H395 H 0.8569 0.73601 0.95977 0.0
C396 C 0.88685 0.80545 0.97213 0.0
C397 C 0.84957 0.77115 0.97104 0.0
H398 H 0.92176 0.79622 0.96055 0.0
H399 H 0.65499 0.62145 0.07494 0.0
H400 H 0.72002 0.67781 0.05508 0.0
H401 H 0.71231 0.65125 0.90463 0.0
H402 H 0.646 0.59288 0.92488 0.0
H403 H 0.78507 0.70045 0.93713 0.0
H404 H 0.73564 0.75284 0.01702 0.0
H405 H 0.76144 0.83663 0.01421 0.0
H406 H 0.82545 0.89626 0.01514 0.0
loop_
_geom_bond_atom_site_label_1
_geom_bond_atom_site_label_2
_geom_bond_distance
_geom_bond_site_symmetry_2
_ccdc_geom_bond_type
Cu0 N1 1.999 . S
Cu0 O6 1.974 . S
Cu0 N11 1.985 . S
Cu0 O20 1.959 . S
N1 Cu0 1.999 . S
N1 C3 1.263 . S
N1 C5 1.389 . S
N2 C3 1.358 . S
N2 C4 1.400 . S
C3 N1 1.263 . S
C3 N2 1.358 . S
C3 H9 0.930 1_455 S
C4 N2 1.400 . S
C4 C5 1.351 . S
C4 H21 0.930 . S
C5 N1 1.389 . S
C5 C4 1.351 . S
C5 H10 0.930 . S
O6 Cu0 1.974 . S
O6 C16 1.282 1_455 S
C7 O8 1.261 . S
C7 O20 1.251 1_655 S
O8 C7 1.261 . S
H9 C3 0.930 1_655 S
H10 C5 0.930 . S
N11 Cu0 1.985 . S
N11 C13 1.335 . S
N11 C14 1.390 1_455 S
N12 C13 1.345 . S
N12 C15 1.336 1_455 S
C13 N11 1.335 . S
C13 N12 1.345 . S
C13 H18 0.930 . S
C14 N11 1.390 1_655 S
C14 C15 1.346 . S
C14 H19 0.930 . S
C15 N12 1.336 1_655 S
C15 C14 1.346 . S
C15 H22 0.929 . S
C16 O6 1.282 1_655 S
C16 O17 1.216 . S
O17 C16 1.216 . S
H18 C13 0.930 . S
H19 C14 0.930 . S
O20 Cu0 1.959 . S
O20 C7 1.251 1_455 S
H21 C4 0.930 . S
H22 C15 0.929 . S
Cu23 N24 1.999 . S
Cu23 O29 1.974 . S
Cu23 N34 1.985 . S
Cu23 O43 1.959 . S
N24 Cu23 1.999 . S
N24 C26 1.263 . S
N24 C28 1.389 . S
N25 C26 1.358 . S
N25 C27 1.400 . S
C26 N24 1.263 . S
C26 N25 1.358 . S
C26 H32 0.930 1_565 S
C27 N25 1.400 . S
C27 C28 1.351 . S
C27 H44 0.930 . S
C28 N24 1.389 . S
C28 C27 1.351 . S
C28 H33 0.930 . S
O29 Cu23 1.974 . S
O29 C39 1.282 1_565 S
C30 O31 1.261 . S
C30 O43 1.251 1_545 S
O31 C30 1.261 . S
H32 C26 0.930 1_545 S
H33 C28 0.930 . S
N34 Cu23 1.985 . S
N34 C36 1.335 . S
N34 C37 1.390 1_565 S
N35 C36 1.345 . S
N35 C38 1.336 1_565 S
C36 N34 1.335 . S
C36 N35 1.345 . S
C36 H41 0.930 . S
C37 N34 1.390 1_545 S
C37 C38 1.346 . S
C37 H42 0.930 . S
C38 N35 1.336 1_545 S
C38 C37 1.346 . S
C38 H45 0.929 . S
C39 O29 1.282 1_545 S
C39 O40 1.216 . S
O40 C39 1.216 . S
H41 C36 0.930 . S
H42 C37 0.930 . S
O43 Cu23 1.959 . S
O43 C30 1.251 1_565 S
H44 C27 0.930 . S
H45 C38 0.929 . S
Cu46 N47 1.999 . S
Cu46 O52 1.974 . S
Cu46 N57 1.985 . S
Cu46 O66 1.959 . S
N47 Cu46 1.999 . S
N47 C49 1.263 . S
N47 C51 1.389 . S
N48 C49 1.358 . S
N48 C50 1.400 . S
C49 N47 1.263 . S
C49 N48 1.358 . S
C49 H55 0.930 1_556 S
C50 N48 1.400 . S
C50 C51 1.351 . S
C50 H67 0.930 . S
C51 N47 1.389 . S
C51 C50 1.351 . S
C51 H56 0.930 . S
O52 Cu46 1.974 . S
O52 C62 1.282 1_556 S
C53 O54 1.261 . S
C53 O66 1.251 1_554 S
O54 C53 1.261 . S
H55 C49 0.930 1_554 S
H56 C51 0.930 . S
N57 Cu46 1.985 . S
N57 C59 1.335 . S
N57 C60 1.390 1_556 S
N58 C59 1.345 . S
N58 C61 1.336 1_556 S
C59 N57 1.335 . S
C59 N58 1.345 . S
C59 H64 0.930 . S
C60 N57 1.390 1_554 S
C60 C61 1.346 . S
C60 H65 0.930 . S
C61 N58 1.336 1_554 S
C61 C60 1.346 . S
C61 H68 0.929 . S
C62 O52 1.282 1_554 S
C62 O63 1.216 . S
O63 C62 1.216 . S
H64 C59 0.930 . S
H65 C60 0.930 . S
O66 Cu46 1.959 . S
O66 C53 1.251 1_556 S
H67 C50 0.930 . S
H68 C61 0.929 . S
C69 O95 1.283 . S
C69 O113 1.283 . S
C70 O96 1.283 . S
C70 O111 1.283 . S
C71 O97 1.283 . S
C71 O114 1.283 . S
C72 O98 1.283 . S
C72 O112 1.283 . S
C73 O99 1.283 1_554 S
C73 O108 1.283 . S
C74 O100 1.283 . S
C74 O110 1.283 . S
C75 O101 1.283 . S
C75 O107 1.283 . S
C76 O102 1.282 . S
C76 O109 1.284 1_554 S
C77 O103 1.283 . S
C77 O118 1.283 . S
C78 O104 1.283 . S
C78 O116 1.283 . S
C79 O105 1.283 . S
C79 O117 1.283 . S
C80 O106 1.283 . S
C80 O115 1.283 . S
Eu81 O82 2.370 1_556 S
Eu81 O83 2.370 1_455 S
Eu81 O86 2.370 . S
Eu81 O87 2.370 1_456 S
Eu81 O95 2.363 . S
Eu81 O96 2.363 1_556 S
Eu81 O109 2.363 1_455 S
Eu81 O110 2.363 . S
O82 Eu81 2.370 1_554 S
O82 Eu84 2.370 1_554 S
O82 Eu89 2.361 1_455 S
O83 Eu81 2.370 1_655 S
O83 Eu85 2.370 1_556 S
O83 Eu88 2.370 1_655 S
Eu84 O82 2.370 1_556 S
Eu84 O86 2.370 . S
Eu84 O90 2.370 1_545 S
Eu84 O91 2.370 1_546 S
Eu84 O99 2.363 1_545 S
Eu84 O100 2.363 . S
Eu84 O115 2.363 . S
Eu84 O116 2.363 1_556 S
Eu85 O83 2.370 1_554 S
Eu85 O87 2.370 . S
Eu85 O92 2.370 1_545 S
Eu85 O93 2.370 1_544 S
Eu85 O101 2.363 1_545 S
Eu85 O102 2.363 . S
Eu85 O117 2.363 1_554 S
Eu85 O118 2.363 . S
O86 Eu81 2.370 . S
O86 Eu84 2.370 . S
O86 Eu88 2.370 . S
O87 Eu81 2.370 1_654 S
O87 Eu85 2.370 . S
O87 Eu89 2.380 . S
Eu88 O83 2.370 1_455 S
Eu88 O86 2.370 . S
Eu88 O90 2.370 1_545 S
Eu88 O93 2.370 1_445 S
Eu88 O105 2.363 1_455 S
Eu88 O106 2.363 . S
Eu88 O113 2.363 . S
Eu88 O114 2.363 1_545 S
Eu89 O82 2.361 1_655 S
Eu89 O87 2.380 . S
Eu89 O91 2.361 1_645 S
Eu89 O92 2.379 1_545 S
Eu89 O103 2.378 . S
Eu89 O104 2.347 1_655 S
Eu89 O111 2.363 1_655 S
Eu89 O112 2.362 1_545 S
O90 Eu84 2.370 1_565 S
O90 Eu88 2.370 1_565 S
O90 Eu94 2.364 1_456 S
O91 Eu84 2.370 1_564 S
O91 Eu89 2.361 1_465 S
O91 Eu94 2.363 1_455 S
O92 Eu85 2.370 1_565 S
O92 Eu89 2.379 1_565 S
O92 Eu94 2.377 . S
O93 Eu85 2.370 1_566 S
O93 Eu88 2.370 1_665 S
O93 Eu94 2.377 1_556 S
Eu94 O90 2.364 1_654 S
Eu94 O91 2.363 1_655 S
Eu94 O92 2.377 . S
Eu94 O93 2.377 1_554 S
Eu94 O97 2.363 1_654 S
Eu94 O98 2.363 . S
Eu94 O107 2.374 . S
Eu94 O108 2.351 1_655 S
O95 C69 1.283 . S
O95 Eu81 2.363 . S
O96 C70 1.283 . S
O96 Eu81 2.363 1_554 S
O97 C71 1.283 . S
O97 Eu94 2.363 1_456 S
O98 C72 1.283 . S
O98 Eu94 2.363 . S
O99 C73 1.283 1_556 S
O99 Eu84 2.363 1_565 S
O100 C74 1.283 . S
O100 Eu84 2.363 . S
O101 C75 1.283 . S
O101 Eu85 2.363 1_565 S
O102 C76 1.282 . S
O102 Eu85 2.363 . S
O103 C77 1.283 . S
O103 Eu89 2.378 . S
O104 C78 1.283 . S
O104 Eu89 2.347 1_455 S
O105 C79 1.283 . S
O105 Eu88 2.363 1_655 S
O106 C80 1.283 . S
O106 Eu88 2.363 . S
O107 C75 1.283 . S
O107 Eu94 2.374 . S
O108 C73 1.283 . S
O108 Eu94 2.351 1_455 S
O109 C76 1.284 1_556 S
O109 Eu81 2.363 1_655 S
O110 C74 1.283 . S
O110 Eu81 2.363 . S
O111 C70 1.283 . S
O111 Eu89 2.363 1_455 S
O112 C72 1.283 . S
O112 Eu89 2.362 1_565 S
O113 C69 1.283 . S
O113 Eu88 2.363 . S
O114 C71 1.283 . S
O114 Eu88 2.363 1_565 S
O115 C80 1.283 . S
O115 Eu84 2.363 . S
O116 C78 1.283 . S
O116 Eu84 2.363 1_554 S
O117 C79 1.283 . S
O117 Eu85 2.363 1_556 S
O118 C77 1.283 . S
O118 Eu85 2.363 . S
C119 C120 1.386 . S
C119 C121 1.383 . S
C119 H135 0.951 . S
C120 C119 1.386 . S
C120 C124 1.383 1_455 S
C121 C119 1.383 . S
C121 C122 1.402 1_455 S
C121 H136 0.951 . S
C122 C121 1.402 1_655 S
C122 C123 1.375 . S
C122 C125 1.481 . S
C123 C122 1.375 . S
C123 C124 1.367 . S
C123 H137 0.951 . S
C124 C120 1.383 1_655 S
C124 C123 1.367 . S
C124 H138 0.950 . S
C125 C122 1.481 . S
C125 C126 1.297 1_655 S
C125 H139 0.950 . S
C126 C125 1.297 1_455 S
C126 C127 1.479 . S
C126 H140 0.950 . S
C127 C126 1.479 . S
C127 C128 1.375 . S
C127 C133 1.404 1_455 S
C128 C127 1.375 . S
C128 C129 1.369 . S
C128 H141 0.950 . S
C129 C128 1.369 . S
C129 C130 1.392 . S
C129 H142 0.951 . S
C130 C129 1.392 . S
C130 C132 1.384 1_455 S
H131 C133 0.949 . S
C132 C130 1.384 1_655 S
C132 C133 1.385 . S
C132 H134 0.950 . S
C133 C127 1.404 1_655 S
C133 H131 0.949 . S
C133 C132 1.385 . S
H134 C132 0.950 . S
H135 C119 0.951 . S
H136 C121 0.951 . S
H137 C123 0.951 . S
H138 C124 0.950 . S
H139 C125 0.950 . S
H140 C126 0.950 . S
H141 C128 0.950 . S
H142 C129 0.951 . S
C143 C144 1.386 . S
C143 C145 1.383 . S
C143 H159 0.951 . S
C144 C143 1.386 . S
C144 C148 1.383 1_545 S
C145 C143 1.383 . S
C145 C146 1.402 1_545 S
C145 H160 0.951 . S
C146 C145 1.402 1_565 S
C146 C147 1.375 . S
C146 C149 1.481 . S
C147 C146 1.375 . S
C147 C148 1.367 . S
C147 H161 0.951 . S
C148 C144 1.383 1_565 S
C148 C147 1.367 . S
C148 H162 0.950 . S
C149 C146 1.481 . S
C149 C150 1.297 1_565 S
C149 H163 0.950 . S
C150 C149 1.297 1_545 S
C150 C151 1.481 . S
C150 H164 0.950 . S
C151 C150 1.481 . S
C151 C152 1.379 . S
C151 C157 1.399 1_545 S
C152 C151 1.379 . S
C152 C153 1.369 . S
C152 H165 0.950 . S
C153 C152 1.369 . S
C153 C154 1.381 1_545 S
C153 H166 0.951 . S
C154 C153 1.381 1_565 S
C154 C156 1.395 . S
H155 C157 0.949 . S
C156 C154 1.395 . S
C156 C157 1.385 . S
C156 H158 0.950 . S
C157 C151 1.399 1_565 S
C157 H155 0.949 . S
C157 C156 1.385 . S
H158 C156 0.950 . S
H159 C143 0.951 . S
H160 C145 0.951 . S
H161 C147 0.951 . S
H162 C148 0.950 . S
H163 C149 0.950 . S
H164 C150 0.950 . S
H165 C152 0.950 . S
H166 C153 0.951 . S
C167 C168 1.386 . S
C167 C169 1.383 . S
C167 H183 0.951 . S
C168 C167 1.386 . S
C168 C172 1.383 . S
C169 C167 1.383 . S
C169 C170 1.402 . S
C169 H184 0.951 . S
C170 C169 1.402 . S
C170 C171 1.375 . S
C170 C173 1.481 . S
C171 C170 1.375 . S
C171 C172 1.367 . S
C171 H185 0.951 . S
C172 C168 1.383 . S
C172 C171 1.367 . S
C172 H186 0.950 . S
C173 C170 1.481 . S
C173 C174 1.297 . S
C173 H187 0.950 . S
C174 C173 1.297 . S
C174 C175 1.479 . S
C174 H188 0.950 . S
C175 C174 1.479 . S
C175 C176 1.375 . S
C175 C181 1.404 . S
C176 C175 1.375 . S
C176 C177 1.369 . S
C176 H189 0.950 . S
C177 C176 1.369 . S
C177 C178 1.392 . S
C177 H190 0.951 . S
C178 C177 1.392 . S
C178 C180 1.384 . S
H179 C181 0.949 . S
C180 C178 1.384 . S
C180 C181 1.385 . S
C180 H182 0.950 . S
C181 C175 1.404 . S
C181 H179 0.949 . S
C181 C180 1.385 . S
H182 C180 0.950 . S
H183 C167 0.951 . S
H184 C169 0.951 . S
H185 C171 0.951 . S
H186 C172 0.950 . S
H187 C173 0.950 . S
H188 C174 0.950 . S
H189 C176 0.950 . S
H190 C177 0.951 . S
C191 C192 1.386 1_545 S
C191 C193 1.383 . S
C191 H207 0.951 . S
C192 C191 1.386 1_565 S
C192 C196 1.383 . S
C193 C191 1.383 . S
C193 C194 1.402 1_545 S
C193 H208 0.951 . S
C194 C193 1.402 1_565 S
C194 C195 1.375 . S
C194 C197 1.481 . S
C195 C194 1.375 . S
C195 C196 1.367 . S
C195 H209 0.951 . S
C196 C192 1.383 . S
C196 C195 1.367 . S
C196 H210 0.950 . S
C197 C194 1.481 . S
C197 C198 1.297 1_565 S
C197 H211 0.950 . S
C198 C197 1.297 1_545 S
C198 C199 1.479 . S
C198 H212 0.950 . S
C199 C198 1.479 . S
C199 C200 1.375 . S
C199 C205 1.404 1_545 S
C200 C199 1.375 . S
C200 C201 1.369 . S
C200 H213 0.950 . S
C201 C200 1.369 . S
C201 C202 1.392 . S
C201 H214 0.951 . S
C202 C201 1.392 . S
C202 C204 1.384 1_545 S
H203 C205 0.949 . S
C204 C202 1.384 1_565 S
C204 C205 1.385 . S
C204 H206 0.950 . S
C205 C199 1.404 1_565 S
C205 H203 0.949 . S
C205 C204 1.385 . S
H206 C204 0.950 . S
H207 C191 0.951 . S
H208 C193 0.951 . S
H209 C195 0.951 . S
H210 C196 0.950 . S
H211 C197 0.950 . S
H212 C198 0.950 . S
H213 C200 0.950 . S
H214 C201 0.951 . S
C215 C216 1.386 1_655 S
C215 C217 1.383 . S
C215 H231 0.951 . S
C216 C215 1.386 1_455 S
C216 C220 1.383 . S
C217 C215 1.383 . S
C217 C218 1.402 1_655 S
C217 H232 0.951 . S
C218 C217 1.402 1_455 S
C218 C219 1.375 . S
C218 C221 1.481 . S
C219 C218 1.375 . S
C219 C220 1.367 . S
C219 H233 0.951 . S
C220 C216 1.383 . S
C220 C219 1.367 . S
C220 H234 0.950 . S
C221 C218 1.481 . S
C221 C222 1.297 1_455 S
C221 H235 0.950 . S
C222 C221 1.297 1_655 S
C222 C223 1.479 . S
C222 H236 0.950 . S
C223 C222 1.479 . S
C223 C224 1.375 . S
C223 C229 1.404 1_655 S
C224 C223 1.375 . S
C224 C225 1.369 . S
C224 H237 0.950 . S
C225 C224 1.369 . S
C225 C226 1.392 . S
C225 H238 0.951 . S
C226 C225 1.392 . S
C226 C228 1.384 1_655 S
H227 C229 0.949 . S
C228 C226 1.384 1_455 S
C228 C229 1.385 . S
C228 H230 0.950 . S
C229 C223 1.404 1_455 S
C229 H227 0.949 . S
C229 C228 1.385 . S
H230 C228 0.950 . S
H231 C215 0.951 . S
H232 C217 0.951 . S
H233 C219 0.951 . S
H234 C220 0.950 . S
H235 C221 0.950 . S
H236 C222 0.950 . S
H237 C224 0.950 . S
H238 C225 0.951 . S
C239 C240 1.386 . S
C239 C241 1.383 . S
C239 H255 0.951 . S
C240 C239 1.386 . S
C240 C244 1.383 1_545 S
C241 C239 1.383 . S
C241 C242 1.402 . S
C241 H256 0.951 . S
C242 C241 1.402 . S
C242 C243 1.375 1_545 S
C242 C245 1.481 1_545 S
C243 C242 1.375 1_565 S
C243 C244 1.367 . S
C243 H257 0.951 . S
C244 C240 1.383 1_565 S
C244 C243 1.367 . S
C244 H258 0.950 . S
C245 C242 1.481 1_565 S
C245 C246 1.297 1_565 S
C245 H259 0.950 . S
C246 C245 1.297 1_545 S
C246 C247 1.479 . S
C246 H260 0.950 . S
C247 C246 1.479 . S
C247 C248 1.375 . S
C247 C253 1.404 1_545 S
C248 C247 1.375 . S
C248 C249 1.369 . S
C248 H261 0.950 . S
C249 C248 1.369 . S
C249 C250 1.392 . S
C249 H262 0.951 . S
C250 C249 1.392 . S
C250 C252 1.384 1_545 S
H251 C253 0.949 . S
C252 C250 1.384 1_565 S
C252 C253 1.385 . S
C252 H254 0.950 . S
C253 C247 1.404 1_565 S
C253 H251 0.949 . S
C253 C252 1.385 . S
H254 C252 0.950 . S
H255 C239 0.951 . S
H256 C241 0.951 . S
H257 C243 0.951 . S
H258 C244 0.950 . S
H259 C245 0.950 . S
H260 C246 0.950 . S
H261 C248 0.950 . S
H262 C249 0.951 . S
C263 C264 1.386 . S
C263 C265 1.383 . S
C263 H279 0.951 . S
C264 C263 1.386 . S
C264 C268 1.383 1_655 S
C265 C263 1.383 . S
C265 C266 1.402 1_655 S
C265 H280 0.951 . S
C266 C265 1.402 1_455 S
C266 C267 1.375 . S
C266 C269 1.481 . S
C267 C266 1.375 . S
C267 C268 1.367 . S
C267 H281 0.951 . S
C268 C264 1.383 1_455 S
C268 C267 1.367 . S
C268 H282 0.950 . S
C269 C266 1.481 . S
C269 C270 1.297 1_455 S
C269 H283 0.950 . S
C270 C269 1.297 1_655 S
C270 C271 1.479 . S
C270 H284 0.950 . S
C271 C270 1.479 . S
C271 C272 1.375 . S
C271 C277 1.404 1_655 S
C272 C271 1.375 . S
C272 C273 1.369 . S
C272 H285 0.950 . S
C273 C272 1.369 . S
C273 C274 1.392 1_655 S
C273 H286 0.951 . S
C274 C273 1.392 1_455 S
C274 C276 1.384 . S
H275 C277 0.949 . S
C276 C274 1.384 . S
C276 C277 1.385 . S
C276 H278 0.950 . S
C277 C271 1.404 1_455 S
C277 H275 0.949 . S
C277 C276 1.385 . S
H278 C276 0.950 . S
H279 C263 0.951 . S
H280 C265 0.951 . S
H281 C267 0.951 . S
H282 C268 0.950 . S
H283 C269 0.950 . S
H284 C270 0.950 . S
H285 C272 0.950 . S
H286 C273 0.951 . S
C287 C288 1.391 . S
C287 C289 1.383 . S
C287 H303 0.951 . S
C288 C287 1.391 . S
C288 C292 1.376 1_565 S
C289 C287 1.383 . S
C289 C290 1.402 1_565 S
C289 H304 0.951 . S
C290 C289 1.402 1_545 S
C290 C291 1.375 . S
C290 C293 1.481 . S
C291 C290 1.375 . S
C291 C292 1.367 . S
C291 H305 0.951 . S
C292 C288 1.376 1_545 S
C292 C291 1.367 . S
C292 H306 0.950 . S
C293 C290 1.481 . S
C293 C294 1.297 . S
C293 H307 0.950 . S
C294 C293 1.297 . S
C294 C295 1.479 . S
C294 H308 0.950 1_545 S
C295 C294 1.479 . S
C295 C296 1.375 1_545 S
C295 C301 1.404 . S
C296 C295 1.375 1_565 S
C296 C297 1.369 . S
C296 H309 0.950 . S
C297 C296 1.369 . S
C297 C298 1.392 1_565 S
C297 H310 0.951 . S
C298 C297 1.392 1_545 S
C298 C300 1.384 . S
H299 C301 0.949 . S
C300 C298 1.384 . S
C300 C301 1.385 . S
C300 H302 0.950 . S
C301 C295 1.404 . S
C301 H299 0.949 . S
C301 C300 1.385 . S
H302 C300 0.950 . S
H303 C287 0.951 . S
H304 C289 0.951 . S
H305 C291 0.951 . S
H306 C292 0.950 . S
H307 C293 0.950 . S
H308 C294 0.950 1_565 S
H309 C296 0.950 . S
H310 C297 0.951 . S
C311 C312 1.386 . S
C311 C313 1.383 . S
C311 H327 0.951 . S
C312 C311 1.386 . S
C312 C316 1.382 . S
C313 C311 1.383 . S
C313 C314 1.402 1_554 S
C313 H328 0.951 . S
C314 C313 1.402 1_556 S
C314 C315 1.375 . S
C314 C317 1.481 . S
C315 C314 1.375 . S
C315 C316 1.367 1_556 S
C315 H329 0.951 . S
C316 C312 1.382 . S
C316 C315 1.367 1_554 S
C316 H330 0.950 1_554 S
C317 C314 1.481 . S
C317 C318 1.297 . S
C317 H331 0.950 . S
C318 C317 1.297 . S
C318 C319 1.479 . S
C318 H332 0.950 . S
C319 C318 1.479 . S
C319 C320 1.375 . S
C319 C325 1.404 . S
C320 C319 1.375 . S
C320 C321 1.369 . S
C320 H333 0.950 . S
C321 C320 1.369 . S
C321 C322 1.392 . S
C321 H334 0.951 1_556 S
C322 C321 1.392 . S
C322 C324 1.384 . S
H323 C325 0.949 . S
C324 C322 1.384 . S
C324 C325 1.385 . S
C324 H326 0.950 . S
C325 C319 1.404 . S
C325 H323 0.949 . S
C325 C324 1.385 . S
H326 C324 0.950 . S
H327 C311 0.951 . S
H328 C313 0.951 . S
H329 C315 0.951 . S
H330 C316 0.950 1_556 S
H331 C317 0.950 . S
H332 C318 0.950 . S
H333 C320 0.950 . S
H334 C321 0.951 1_554 S
C335 C336 1.388 . S
C335 C337 1.381 1_556 S
C335 H351 0.951 1_556 S
C336 C335 1.388 . S
C336 C340 1.383 . S
C337 C335 1.381 1_554 S
C337 C338 1.402 . S
C337 H352 0.951 . S
C338 C337 1.402 . S
C338 C339 1.375 1_554 S
C338 C341 1.481 . S
C339 C338 1.375 1_556 S
C339 C340 1.367 . S
C339 H353 0.951 . S
C340 C336 1.383 . S
C340 C339 1.367 . S
C340 H354 0.950 . S
C341 C338 1.481 . S
C341 C342 1.297 . S
C341 H355 0.950 . S
C342 C341 1.297 . S
C342 C343 1.479 . S
C342 H356 0.950 . S
C343 C342 1.479 . S
C343 C344 1.375 . S
C343 C349 1.404 . S
C344 C343 1.375 . S
C344 C345 1.369 . S
C344 H357 0.950 . S
C345 C344 1.369 . S
C345 C346 1.392 . S
C345 H358 0.951 . S
C346 C345 1.392 . S
C346 C348 1.384 . S
H347 C349 0.949 . S
C348 C346 1.384 . S
C348 C349 1.385 . S
C348 H350 0.950 . S
C349 C343 1.404 . S
C349 H347 0.949 . S
C349 C348 1.385 . S
H350 C348 0.950 . S
H351 C335 0.951 1_554 S
H352 C337 0.951 . S
H353 C339 0.951 . S
H354 C340 0.950 . S
H355 C341 0.950 . S
H356 C342 0.950 . S
H357 C344 0.950 . S
H358 C345 0.951 . S
C359 C360 1.386 1_554 S
C359 C361 1.383 . S
C359 H375 0.951 . S
C360 C359 1.386 1_556 S
C360 C364 1.383 . S
C361 C359 1.383 . S
C361 C362 1.402 1_554 S
C361 H376 0.951 . S
C362 C361 1.402 1_556 S
C362 C363 1.375 . S
C362 C365 1.481 . S
C363 C362 1.375 . S
C363 C364 1.367 . S
C363 H377 0.951 . S
C364 C360 1.383 . S
C364 C363 1.367 . S
C364 H378 0.950 . S
C365 C362 1.481 . S
C365 C366 1.292 1_556 S
C365 H379 0.950 . S
C366 C365 1.292 1_554 S
C366 C367 1.479 1_554 S
C366 H380 0.956 . S
C367 C366 1.479 1_556 S
C367 C368 1.375 1_556 S
C367 C373 1.404 . S
C368 C367 1.375 1_554 S
C368 C369 1.369 . S
C368 H381 0.950 . S
C369 C368 1.369 . S
C369 C370 1.392 1_554 S
C369 H382 0.951 . S
C370 C369 1.392 1_556 S
C370 C372 1.384 . S
H371 C373 0.949 . S
C372 C370 1.384 . S
C372 C373 1.385 . S
C372 H374 0.950 . S
C373 C367 1.404 . S
C373 H371 0.949 . S
C373 C372 1.385 . S
H374 C372 0.950 . S
H375 C359 0.951 . S
H376 C361 0.951 . S
H377 C363 0.951 . S
H378 C364 0.950 . S
H379 C365 0.950 . S
H380 C366 0.956 . S
H381 C368 0.950 . S
H382 C369 0.951 . S
C383 C384 1.386 . S
C383 C385 1.383 . S
C383 H399 0.951 . S
C384 C383 1.386 . S
C384 C388 1.383 1_554 S
C385 C383 1.383 . S
C385 C386 1.402 1_554 S
C385 H400 0.951 . S
C386 C385 1.402 1_556 S
C386 C387 1.375 . S
C386 C389 1.481 . S
C387 C386 1.375 . S
C387 C388 1.367 . S
C387 H401 0.951 . S
C388 C384 1.383 1_556 S
C388 C387 1.367 . S
C388 H402 0.950 . S
C389 C386 1.481 . S
C389 C390 1.297 1_556 S
C389 H403 0.950 . S
C390 C389 1.297 1_554 S
C390 C391 1.479 . S
C390 H404 0.950 . S
C391 C390 1.479 . S
C391 C392 1.375 . S
C391 C397 1.404 1_554 S
C392 C391 1.375 . S
C392 C393 1.369 . S
C392 H405 0.950 . S
C393 C392 1.369 . S
C393 C394 1.392 . S
C393 H406 0.951 . S
C394 C393 1.392 . S
C394 C396 1.384 1_554 S
H395 C397 0.949 . S
C396 C394 1.384 1_556 S
C396 C397 1.385 . S
C396 H398 0.950 . S
C397 C391 1.404 1_556 S
C397 H395 0.949 . S
C397 C396 1.385 . S
H398 C396 0.950 . S
H399 C383 0.951 . S
H400 C385 0.951 . S
H401 C387 0.951 . S
H402 C388 0.950 . S
H403 C389 0.950 . S
H404 C390 0.950 . S
H405 C392 0.950 . S
H406 C393 0.951 . S
C130 C70 1.211 . S
C120 N2 1.214 . S
C154 C77 1.606 1_565 S
C144 C39 1.605 . S
C178 C72 1.438 . S
C168 C7 1.446 . S
C202 C78 1.371 . S
C192 N35 1.301 . S
C216 N12 1.104 . S
C226 C71 1.190 1_655 S
C250 C80 1.639 . S
C240 C30 1.643 . S
C264 C16 1.413 . S
C274 C69 1.398 . S
C288 N25 1.382 . S
C298 C79 1.406 . S
C312 C62 1.793 . S
C322 C74 1.809 . S
C336 N48 1.537 . S
C346 C73 1.599 . S
C370 C76 1.568 1_556 S
C360 N58 1.504 . S
C394 C75 1.838 . S
C384 C53 1.843 . S
