# Generated by pormake.
# Topology pts, (4,4)-cn, num edge types: 1
# Building blocks:
#     Node 0, Type 0, BuildingBlock: ESEHIV_clean_sbu_0, # of connection points: 4
#     Node 1, Type 0, BuildingBlock: ESEHIV_clean_sbu_0, # of connection points: 4
#     Node 2, Type 1, BuildingBlock: QUQFOY_clean_sbu_1, # of connection points: 4
#     Node 3, Type 1, BuildingBlock: QUQFOY_clean_sbu_1, # of connection points: 4
#     Edge 4, Type (0, 1), BuildingBlock: FUNLAD_clean_linker_1, # of connection points: 2
#     Edge 5, Type (0, 1), BuildingBlock: FUNLAD_clean_linker_1, # of connection points: 2
#     Edge 6, Type (0, 1), BuildingBlock: FUNLAD_clean_linker_1, # of connection points: 2
#     Edge 7, Type (0, 1), BuildingBlock: FUNLAD_clean_linker_1, # of connection points: 2
#     Edge 8, Type (0, 1), BuildingBlock: FUNLAD_clean_linker_1, # of connection points: 2
#     Edge 9, Type (0, 1), BuildingBlock: FUNLAD_clean_linker_1, # of connection points: 2
#     Edge 10, Type (0, 1), BuildingBlock: FUNLAD_clean_linker_1, # of connection points: 2
#     Edge 11, Type (0, 1), BuildingBlock: FUNLAD_clean_linker_1, # of connection points: 2
# Relax obj value: 0.097
# Max RMSD: 0.250
# Mean RMSD: 0.176
data_MOF--net-pts--node1-ESEHIV_clean_sbu_0--node2-QUQFOY_clean_sbu_1--edge1-FUNLAD_clean_linker_1
_symmetry_space_group_name_H-M    P1
_symmetry_Int_Tables_number       1
_symmetry_cell_setting            triclinic
loop_
_symmetry_equiv_pos_as_xyz
'x, y, z'
_cell_length_a     24.412711
_cell_length_b     26.703327
_cell_length_c     40.331753
_cell_angle_alpha  93.43946
_cell_angle_beta   93.659986
_cell_angle_gamma 90.305274
loop_
_atom_site_label
_atom_site_type_symbol
_atom_site_fract_x
_atom_site_fract_y
_atom_site_fract_z
_atom_type_partial_charge
Cu0 Cu 0.55059 0.09526 1.01749 0.0
N1 N 0.57668 0.13938 0.98802 0.0
N2 N 0.62761 0.16465 0.94803 0.0
C3 C 0.62535 0.13571 0.97423 0.0
C4 C 0.57854 0.1874 0.94527 0.0
C5 C 0.5472 0.17193 0.97012 0.0
O6 O 0.61306 0.06218 0.0383 0.0
C7 C 0.50747 0.03306 0.96308 0.0
O8 O 0.55606 0.03926 0.95171 0.0
H9 H 0.65609 0.10851 0.98116 0.0
H10 H 0.50452 0.18054 0.97325 0.0
N11 N 0.51404 0.12995 0.05074 0.0
N12 N 0.45003 0.14698 0.08666 0.0
C13 C 0.46112 0.12383 0.05728 0.0
C14 C 0.53697 0.15855 0.07662 0.0
C15 C 0.49748 0.16915 0.09892 0.0
C16 C 0.6107 0.04222 0.06598 0.0
O17 O 0.56308 0.03795 0.07907 0.0
H18 H 0.43223 0.1002 0.04189 0.0
H19 H 0.58004 0.16862 0.07984 0.0
O20 O 0.49856 0.05042 0.9923 0.0
H21 H 0.56514 0.21094 0.92542 0.0
H22 H 0.50358 0.19025 0.12265 0.0
Cu23 Cu 0.06417 0.57114 0.52785 0.0
N24 N 0.10776 0.53224 0.55591 0.0
N25 N 0.12885 0.46735 0.58665 0.0
C26 C 0.09536 0.48469 0.56219 0.0
C27 C 0.16432 0.50531 0.59606 0.0
C28 C 0.15112 0.54541 0.57701 0.0
O29 O 0.02119 0.52358 0.49821 0.0
C30 C 0.04665 0.65301 0.57054 0.0
O31 O 0.09944 0.65787 0.56684 0.0
H32 H 0.06057 0.46398 0.55019 0.0
H33 H 0.17047 0.58207 0.5793 0.0
N34 N 0.10492 0.61177 0.50215 0.0
N35 N 0.12062 0.67315 0.46871 0.0
C36 C 0.0825 0.64378 0.48073 0.0
C37 C 0.15938 0.62068 0.50341 0.0
C38 C 0.16925 0.65873 0.48273 0.0
C39 C 0.04809 0.49904 0.47672 0.0
O40 O 0.10038 0.50975 0.47486 0.0
H41 H 0.03873 0.64689 0.47511 0.0
H42 H 0.18954 0.60198 0.51899 0.0
O43 O 0.02068 0.61592 0.55547 0.0
H44 H 0.19658 0.50473 0.61571 0.0
H45 H 0.20891 0.67469 0.47863 0.0
O46 O 0.9756 1.01828 0.24984 0.0
Cd47 Cd 0.05174 0.02634 0.27569 0.0
Cd48 Cd 0.02871 0.12852 0.26518 0.0
O49 O 0.95915 0.09768 0.24023 0.0
O50 O 0.06741 0.95771 0.29073 0.0
O51 O 0.05972 0.02384 0.32576 0.0
C52 C 0.06851 0.97641 0.32096 0.0
C53 C 0.01937 0.19693 0.30322 0.0
C54 C 0.94531 0.05158 0.23708 0.0
C55 C 0.1319 0.08537 0.23833 0.0
O56 O 0.10102 0.12329 0.2415 0.0
O57 O 0.11987 0.04413 0.25039 0.0
O58 O 0.01549 0.20202 0.2716 0.0
O59 O 0.02814 0.15261 0.31355 0.0
O60 O 0.01089 0.13375 0.81002 0.0
Cd61 Cd 0.08067 0.12109 0.78426 0.0
Cd62 Cd 0.03529 0.02378 0.77886 0.0
O63 O 0.96938 0.06038 0.79864 0.0
O64 O 0.11175 0.1898 0.78093 0.0
O65 O 0.08281 0.14152 0.73678 0.0
C66 C 0.10362 0.1837 0.74912 0.0
C67 C 0.02142 0.96745 0.73247 0.0
C68 C 0.96966 0.10498 0.81164 0.0
C69 C 0.14371 0.03937 0.81801 0.0
O70 O 0.10265 1.0104 0.81088 0.0
O71 O 0.14429 0.08349 0.80779 0.0
O72 O 1.00736 0.95621 0.76141 0.0
O73 O 0.04229 1.01141 0.72957 0.0
H74 H 0.3614 0.13686 0.08667 0.0
C75 C 0.39893 0.14376 0.10232 0.0
H76 H 0.43448 0.15072 0.15144 0.0
H77 H 0.22572 0.21124 0.22653 0.0
H78 H 0.28287 0.28564 0.23674 0.0
H79 H 0.36811 0.29465 0.20787 0.0
H80 H 0.39706 0.22899 0.16892 0.0
C81 C 0.39708 0.14469 0.13562 0.0
C82 C 0.34447 0.13928 0.15204 0.0
C83 C 0.32745 0.17851 0.17425 0.0
C84 C 0.27753 0.17386 0.19026 0.0
C85 C 0.26256 0.21308 0.21309 0.0
C86 C 0.29509 0.25603 0.2193 0.0
C87 C 0.34312 0.26106 0.20309 0.0
C88 C 0.35932 0.22294 0.18082 0.0
H89 H 0.21293 0.05939 0.22339 0.0
C90 C 0.1827 0.08884 0.22059 0.0
H91 H 0.16182 0.15587 0.19789 0.0
H92 H 0.36931 0.05267 0.11598 0.0
H93 H 0.30939 0.98075 0.10273 0.0
H94 H 0.21707 0.97799 0.12414 0.0
H95 H 0.18508 0.04634 0.15989 0.0
C96 C 0.19178 0.12619 0.2006 0.0
C97 C 0.24393 0.13045 0.1835 0.0
C98 C 0.26023 0.09176 0.16055 0.0
C99 C 0.31164 0.09517 0.14601 0.0
C100 C 0.32923 0.0537 0.12593 0.0
C101 C 0.29544 1.01186 0.11838 0.0
C102 C 0.24362 1.01017 0.13059 0.0
C103 C 0.22598 0.04953 0.1514 0.0
H104 H 0.09577 0.39148 0.58727 0.0
C105 C 0.12263 0.41945 0.60073 0.0
H106 H 0.17163 0.43676 0.64509 0.0
H107 H 1.00532 0.25707 0.6887 0.0
H108 H 0.93151 0.31572 0.67842 0.0
H109 H 0.94944 0.39673 0.65464 0.0
H110 H 0.04088 0.41932 0.64064 0.0
C111 C 0.14464 0.40966 0.63105 0.0
C112 C 0.13337 0.36138 0.64633 0.0
C113 C 0.07956 0.34927 0.65504 0.0
C114 C 0.06944 0.3032 0.66973 0.0
C115 C 0.01533 0.29174 0.67779 0.0
C116 C 0.97258 0.32507 0.67205 0.0
C117 C 0.98266 0.37062 0.65859 0.0
C118 C 0.03541 0.3829 0.65034 0.0
H119 H 0.13777 0.25788 0.74062 0.0
C120 C 0.11731 0.22495 0.72825 0.0
H121 H 0.08064 0.19337 0.6828 0.0
H122 H 0.24096 0.37261 0.63265 0.0
H123 H 0.31487 0.31455 0.64425 0.0
H124 H 0.29735 0.23546 0.67055 0.0
H125 H 0.20571 0.21389 0.68541 0.0
C126 C 0.10334 0.22477 0.6955 0.0
C127 C 0.11333 0.27024 0.67693 0.0
C128 C 0.167 0.28227 0.66827 0.0
C129 C 0.17704 0.32787 0.65301 0.0
C130 C 0.23105 0.3387 0.64449 0.0
C131 C 0.27385 0.30564 0.65093 0.0
C132 C 0.26399 0.26112 0.66576 0.0
C133 C 0.21126 0.2493 0.6743 0.0
H134 H 0.7005 0.04463 0.07542 0.0
C135 C 0.66237 0.03435 0.08592 0.0
H136 H 0.6252 1.01344 0.12886 0.0
H137 H 0.9005 0.99777 0.15627 0.0
H138 H 0.89634 0.93114 0.11272 0.0
H139 H 0.80842 0.90686 0.0823 0.0
H140 H 0.7243 0.95007 0.09482 0.0
C141 C 0.66332 1.02192 0.11776 0.0
C142 C 0.71417 0.02935 0.14011 0.0
C143 C 0.76236 1.00185 0.13384 0.0
C144 C 0.81249 1.01405 0.15267 0.0
C145 C 0.86078 0.98859 0.144 0.0
C146 C 0.85907 0.95044 0.11882 0.0
C147 C 0.80962 0.9369 0.1016 0.0
C148 C 0.76172 0.96221 0.10888 0.0
H149 H 0.87938 0.99755 0.21923 0.0
C150 C 0.89387 0.0359 0.2179 0.0
H151 H 0.87988 0.10558 0.19697 0.0
H152 H 0.62892 0.08873 0.15944 0.0
H153 H 0.63179 0.15187 0.20512 0.0
H154 H 0.71723 0.16929 0.24 0.0
H155 H 0.80053 0.12395 0.22908 0.0
C156 C 0.866 0.06701 0.1981 0.0
C157 C 0.81358 0.05189 0.17904 0.0
C158 C 0.76473 0.07766 0.18632 0.0
C159 C 0.71513 0.06672 0.1667 0.0
C160 C 0.66755 0.09458 0.17384 0.0
C161 C 0.6686 0.13113 0.2 0.0
C162 C 0.71671 0.141 0.21959 0.0
C163 C 0.7643 0.11475 0.21296 0.0
H164 H 0.97666 0.68312 0.5981 0.0
C165 C 0.01906 0.68964 0.59272 0.0
H166 H 0.08934 0.73623 0.60187 0.0
H167 H 0.93763 0.91713 0.65365 0.0
H168 H 0.90937 0.92353 0.59523 0.0
H169 H 0.93377 0.8579 0.55314 0.0
H170 H 0.98581 0.78496 0.56932 0.0
C171 C 0.04674 0.72996 0.60692 0.0
C172 C 0.02388 0.76524 0.63229 0.0
C173 C 0.99395 0.80774 0.62244 0.0
C174 C 0.98127 0.84632 0.64662 0.0
C175 C 0.94996 0.88764 0.63619 0.0
C176 C 0.93316 0.89158 0.60277 0.0
C177 C 0.94681 0.85457 0.57908 0.0
C178 C 0.97679 0.813 0.58866 0.0
H179 H 0.03945 0.9375 0.68212 0.0
C180 C 0.0178 0.9298 0.70401 0.0
H181 H 0.97162 0.87726 0.72778 0.0
H182 H 0.07644 0.68606 0.65965 0.0
H183 H 0.10447 0.67897 0.71798 0.0
H184 H 0.08536 0.74676 0.7598 0.0
H185 H 0.03812 0.82182 0.74369 0.0
C186 C 0.99255 0.88515 0.70567 0.0
C187 C 0.99991 0.84284 0.68047 0.0
C188 C 0.02728 0.7989 0.69051 0.0
C189 C 0.03906 0.76007 0.66638 0.0
C190 C 0.06701 0.71689 0.67695 0.0
C191 C 0.08321 0.71226 0.71035 0.0
C192 C 0.07237 0.7504 0.73389 0.0
C193 C 0.04496 0.79331 0.72425 0.0
H194 H 0.46844 1.01638 0.91296 0.0
C195 C 0.46089 1.01849 0.93928 0.0
H196 H 0.40132 1.01955 0.97483 0.0
H197 H 0.2204 0.12458 0.8869 0.0
H198 H 0.23842 0.18519 0.93345 0.0
H199 H 0.31366 0.17252 0.9758 0.0
H200 H 0.37074 0.09904 0.97211 0.0
C201 C 0.40904 1.0163 0.94855 0.0
C202 C 0.36169 1.02166 0.92379 0.0
C203 C 0.329 0.06539 0.92619 0.0
C204 C 0.28664 0.07346 0.90126 0.0
C205 C 0.25398 0.11701 0.90466 0.0
C206 C 0.26372 0.15211 0.93135 0.0
C207 C 0.30597 0.14493 0.95522 0.0
C208 C 0.33838 0.10228 0.9528 0.0
H209 H 0.18413 0.98825 0.85297 0.0
C210 C 0.1895 0.02255 0.84028 0.0
H211 H 0.24073 0.08478 0.8345 0.0
H212 H 0.41071 0.93052 0.91439 0.0
H213 H 0.39506 0.87116 0.86666 0.0
H214 H 0.32725 0.88866 0.8209 0.0
H215 H 0.27388 0.96495 0.82289 0.0
C216 C 0.23583 0.04986 0.84657 0.0
C217 C 0.27767 0.03842 0.87355 0.0
C218 C 0.30987 0.99438 0.87134 0.0
C219 C 0.35097 0.98542 0.89693 0.0
C220 C 0.38063 0.94006 0.89497 0.0
C221 C 0.37179 0.90555 0.86783 0.0
C222 C 0.33346 0.91532 0.84213 0.0
C223 C 0.30282 0.95917 0.84369 0.0
H224 H 0.98442 0.44016 0.46382 0.0
C225 C 0.02368 0.45477 0.45728 0.0
H226 H 0.09149 0.4447 0.42787 0.0
H227 H 0.09683 0.21701 0.39731 0.0
H228 H 0.17362 0.22907 0.43808 0.0
H229 H 0.18747 0.30945 0.47105 0.0
H230 H 0.12484 0.37846 0.46314 0.0
C231 C 0.05162 0.4304 0.43362 0.0
C232 C 0.03576 0.37974 0.41836 0.0
C233 C 0.07157 0.339 0.42408 0.0
C234 C 0.0628 0.29222 0.40565 0.0
C235 C 0.10078 0.25309 0.41094 0.0
C236 C 0.1452 0.25949 0.43428 0.0
C237 C 0.15306 0.30476 0.4528 0.0
C238 C 0.11689 0.34416 0.44787 0.0
H239 H 0.01791 0.27814 0.31576 0.0
C240 C 0.01628 0.24167 0.32631 0.0
H241 H 0.01235 0.20306 0.37018 0.0
H242 H 0.95824 0.44937 0.40154 0.0
H243 H 0.87686 0.43497 0.36447 0.0
H244 H 0.85726 0.35157 0.33641 0.0
H245 H 0.91979 0.28235 0.34467 0.0
C246 C 0.01319 0.2393 0.35933 0.0
C247 C 0.01755 0.28586 0.38189 0.0
C248 C 0.97898 0.32515 0.37838 0.0
C249 C 0.98883 0.37258 0.39594 0.0
C250 C 0.9518 0.41212 0.38991 0.0
C251 C 0.90499 0.40441 0.36855 0.0
C252 C 0.89405 0.35751 0.35265 0.0
C253 C 0.93047 0.31822 0.3574 0.0
H254 H 0.65482 0.17014 0.89791 0.0
C255 C 0.6678 0.16256 0.9234 0.0
H256 H 0.73286 0.14186 0.95636 0.0
H257 H 0.87128 1.0148 0.85849 0.0
H258 H 0.8428 0.95325 0.89563 0.0
H259 H 0.77439 0.97407 0.93659 0.0
H260 H 0.73479 0.05684 0.94099 0.0
C261 C 0.71994 0.14919 0.93085 0.0
C262 C 0.75893 0.13684 0.90459 0.0
C263 C 0.78052 0.08763 0.90161 0.0
C264 C 0.8186 0.0751 0.87722 0.0
C265 C 0.84114 0.02623 0.87587 0.0
C266 C 0.82529 0.99042 0.89716 0.0
C267 C 0.7869 1.00217 0.92026 0.0
C268 C 0.76464 0.05005 0.92259 0.0
H269 H 0.93089 0.15596 0.84802 0.0
C270 C 0.92388 0.12274 0.83131 0.0
H271 H 0.86879 0.0645 0.81418 0.0
H272 H 0.73161 0.23648 0.90607 0.0
H273 H 0.75426 0.29626 0.86606 0.0
H274 H 0.81037 0.27124 0.81917 0.0
H275 H 0.84562 0.18674 0.81273 0.0
C276 C 0.87565 0.09804 0.83058 0.0
C277 C 0.83385 0.11132 0.85505 0.0
C278 C 0.81039 0.15989 0.85708 0.0
C279 C 0.77469 0.17328 0.8827 0.0
C280 C 0.75613 0.22338 0.88597 0.0
C281 C 0.76924 0.25825 0.86333 0.0
C282 C 0.80107 0.24424 0.83704 0.0
C283 C 0.82148 0.19571 0.83382 0.0
H284 H 0.06967 0.71173 0.43219 0.0
C285 C 0.10915 0.71233 0.44632 0.0
H286 H 0.18345 0.75245 0.45764 0.0
H287 H 0.17532 0.86507 0.32405 0.0
H288 H 0.25631 0.81381 0.319 0.0
H289 H 0.2805 0.75113 0.35986 0.0
H290 H 0.22414 0.73965 0.40618 0.0
C291 C 0.14396 0.75088 0.44364 0.0
C292 C 0.13066 0.79092 0.42017 0.0
C293 C 0.16388 0.79698 0.39311 0.0
C294 C 0.14924 0.83239 0.36914 0.0
C295 C 0.18374 0.83805 0.34261 0.0
C296 C 0.23054 0.80899 0.33947 0.0
C297 C 0.2442 0.77377 0.3625 0.0
C298 C 0.21145 0.76763 0.38902 0.0
H299 H 0.08798 0.96256 0.37403 0.0
C300 C 0.08069 0.94459 0.34923 0.0
H301 H 0.07742 0.87663 0.31973 0.0
H302 H 0.06457 0.79658 0.47267 0.0
H303 H 0.982 0.84596 0.47707 0.0
H304 H 0.95111 0.9008 0.43259 0.0
H305 H 1.00335 0.90767 0.38399 0.0
C306 C 0.08361 0.89434 0.34467 0.0
C307 C 0.1009 0.86126 0.37193 0.0
C308 C 0.06822 0.85596 0.39943 0.0
C309 C 0.08414 0.82195 0.42411 0.0
C310 C 0.05284 0.81984 0.45238 0.0
C311 C 1.00557 0.84829 0.45536 0.0
C312 C 0.98834 0.87933 0.43039 0.0
C313 C 0.01903 0.8832 0.40269 0.0
loop_
_geom_bond_atom_site_label_1
_geom_bond_atom_site_label_2
_geom_bond_distance
_geom_bond_site_symmetry_2
_ccdc_geom_bond_type
Cu0 N1 1.999 1_554 S
Cu0 O6 1.974 . S
Cu0 N11 1.985 . S
Cu0 O20 1.959 1_554 S
N1 Cu0 1.999 1_556 S
N1 C3 1.263 . S
N1 C5 1.389 . S
N2 C3 1.358 . S
N2 C4 1.400 . S
C3 N1 1.263 . S
C3 N2 1.358 . S
C3 H9 0.930 . S
C4 N2 1.400 . S
C4 C5 1.351 . S
C4 H21 0.930 . S
C5 N1 1.389 . S
C5 C4 1.351 . S
C5 H10 0.930 . S
O6 Cu0 1.974 . S
O6 C16 1.282 . S
C7 O8 1.261 . S
C7 O20 1.251 . S
O8 C7 1.261 . S
H9 C3 0.930 . S
H10 C5 0.930 . S
N11 Cu0 1.985 . S
N11 C13 1.335 . S
N11 C14 1.390 . S
N12 C13 1.345 . S
N12 C15 1.336 . S
C13 N11 1.335 . S
C13 N12 1.345 . S
C13 H18 0.930 . S
C14 N11 1.390 . S
C14 C15 1.346 . S
C14 H19 0.930 . S
C15 N12 1.336 . S
C15 C14 1.346 . S
C15 H22 0.929 . S
C16 O6 1.282 . S
C16 O17 1.216 . S
O17 C16 1.216 . S
H18 C13 0.930 . S
H19 C14 0.930 . S
O20 Cu0 1.959 1_556 S
O20 C7 1.251 . S
H21 C4 0.930 . S
H22 C15 0.929 . S
Cu23 N24 1.999 . S
Cu23 O29 1.974 . S
Cu23 N34 1.985 . S
Cu23 O43 1.959 . S
N24 Cu23 1.999 . S
N24 C26 1.263 . S
N24 C28 1.389 1_455 S
N25 C26 1.358 . S
N25 C27 1.400 1_455 S
C26 N24 1.263 . S
C26 N25 1.358 . S
C26 H32 0.930 . S
C27 N25 1.400 1_655 S
C27 C28 1.351 . S
C27 H44 0.930 . S
C28 N24 1.389 1_655 S
C28 C27 1.351 . S
C28 H33 0.930 . S
O29 Cu23 1.974 . S
O29 C39 1.282 . S
C30 O31 1.261 . S
C30 O43 1.251 . S
O31 C30 1.261 . S
H32 C26 0.930 . S
H33 C28 0.930 . S
N34 Cu23 1.985 . S
N34 C36 1.335 . S
N34 C37 1.390 . S
N35 C36 1.345 . S
N35 C38 1.336 . S
C36 N34 1.335 . S
C36 N35 1.345 . S
C36 H41 0.926 1_455 S
C37 N34 1.390 . S
C37 C38 1.346 . S
C37 H42 0.930 . S
C38 N35 1.336 . S
C38 C37 1.346 . S
C38 H45 0.929 . S
C39 O29 1.282 . S
C39 O40 1.216 . S
O40 C39 1.216 . S
H41 C36 0.926 1_655 S
H42 C37 0.930 . S
O43 Cu23 1.959 . S
O43 C30 1.251 . S
H44 C27 0.930 . S
H45 C38 0.929 . S
O46 Cd47 2.223 . S
O46 C54 1.315 1_465 S
Cd47 O46 2.223 . S
Cd47 O50 2.297 . S
Cd47 O51 2.439 1_565 S
Cd47 O57 2.240 1_565 S
Cd48 O49 2.240 1_455 S
Cd48 O56 2.223 . S
Cd48 O58 2.297 . S
Cd48 O59 2.439 . S
O49 Cd48 2.240 1_655 S
O49 C54 1.279 . S
O50 Cd47 2.297 . S
O50 C52 1.247 . S
O51 Cd47 2.439 1_545 S
O51 C52 1.210 1_545 S
C52 O50 1.247 . S
C52 O51 1.210 1_565 S
C53 O58 1.247 . S
C53 O59 1.208 . S
C54 O46 1.315 1_645 S
C54 O49 1.279 . S
C55 O56 1.315 . S
C55 O57 1.279 . S
O56 Cd48 2.223 . S
O56 C55 1.315 . S
O57 Cd47 2.240 1_545 S
O57 C55 1.279 . S
O58 Cd48 2.297 . S
O58 C53 1.247 . S
O59 Cd48 2.439 . S
O59 C53 1.208 . S
O60 Cd61 2.223 . S
O60 C68 1.315 . S
Cd61 O60 2.223 . S
Cd61 O64 2.297 . S
Cd61 O65 2.439 . S
Cd61 O71 2.240 . S
Cd62 O63 2.240 1_565 S
Cd62 O70 2.223 . S
Cd62 O72 2.297 . S
Cd62 O73 2.439 . S
O63 Cd62 2.240 1_545 S
O63 C68 1.279 . S
O64 Cd61 2.297 . S
O64 C66 1.247 . S
O65 Cd61 2.439 . S
O65 C66 1.208 . S
C66 O64 1.247 . S
C66 O65 1.208 . S
C67 O72 1.247 . S
C67 O73 1.208 . S
C68 O60 1.315 . S
C68 O63 1.279 . S
C69 O70 1.315 1_545 S
C69 O71 1.279 . S
O70 Cd62 2.223 . S
O70 C69 1.315 1_565 S
O71 Cd61 2.240 . S
O71 C69 1.279 . S
O72 Cd62 2.297 . S
O72 C67 1.247 . S
O73 Cd62 2.439 . S
O73 C67 1.208 . S
H74 C75 0.951 . S
C75 H74 0.951 . S
C75 C81 1.265 . S
H76 C81 0.950 . S
H77 C85 0.949 . S
H78 C86 0.950 . S
H79 C87 0.951 . S
H80 C88 0.951 . S
C81 C75 1.265 . S
C81 H76 0.950 . S
C81 C82 1.478 . S
C82 C81 1.478 . S
C82 C83 1.397 . S
C82 C99 1.394 . S
C83 C82 1.397 . S
C83 C84 1.438 . S
C83 C88 1.429 . S
C84 C83 1.438 . S
C84 C85 1.428 . S
C84 C97 1.394 . S
C85 H77 0.949 . S
C85 C84 1.428 . S
C85 C86 1.345 . S
C86 H78 0.950 . S
C86 C85 1.345 . S
C86 C87 1.424 . S
C87 H79 0.951 . S
C87 C86 1.424 . S
C87 C88 1.347 . S
C88 H80 0.951 . S
C88 C83 1.429 . S
C88 C87 1.347 . S
H89 C90 0.951 . S
C90 H89 0.951 . S
C90 C96 1.265 . S
H91 C96 0.950 . S
H92 C100 0.949 . S
H93 C101 0.950 . S
H94 C102 0.951 . S
H95 C103 0.951 . S
C96 C90 1.265 . S
C96 H91 0.950 . S
C96 C97 1.478 . S
C97 C84 1.394 . S
C97 C96 1.478 . S
C97 C98 1.397 . S
C98 C97 1.397 . S
C98 C99 1.438 . S
C98 C103 1.429 . S
C99 C82 1.394 . S
C99 C98 1.438 . S
C99 C100 1.428 . S
C100 H92 0.949 . S
C100 C99 1.428 . S
C100 C101 1.345 1_545 S
C101 H93 0.950 . S
C101 C100 1.345 1_565 S
C101 C102 1.424 . S
C102 H94 0.951 . S
C102 C101 1.424 . S
C102 C103 1.347 1_565 S
C103 H95 0.951 . S
C103 C98 1.429 . S
C103 C102 1.347 1_545 S
H104 C105 0.951 . S
C105 H104 0.951 . S
C105 C111 1.265 . S
H106 C111 0.950 1_655 S
H107 C115 0.949 . S
H108 C116 0.950 . S
H109 C117 0.951 . S
H110 C118 0.951 . S
C111 C105 1.265 . S
C111 H106 0.950 1_455 S
C111 C112 1.478 . S
C112 C111 1.478 . S
C112 C113 1.397 1_455 S
C112 C129 1.394 . S
C113 C112 1.397 1_655 S
C113 C114 1.438 . S
C113 C118 1.429 . S
C114 C113 1.438 . S
C114 C115 1.428 . S
C114 C127 1.394 1_655 S
C115 H107 0.949 . S
C115 C114 1.428 . S
C115 C116 1.345 . S
C116 H108 0.950 . S
C116 C115 1.345 . S
C116 C117 1.424 . S
C117 H109 0.951 . S
C117 C116 1.424 . S
C117 C118 1.347 . S
C118 H110 0.951 . S
C118 C113 1.429 . S
C118 C117 1.347 . S
H119 C120 0.951 1_655 S
C120 H119 0.951 1_455 S
C120 C126 1.265 . S
H121 C126 0.950 . S
H122 C130 0.949 . S
H123 C131 0.950 . S
H124 C132 0.951 . S
H125 C133 0.951 . S
C126 C120 1.265 . S
C126 H121 0.950 . S
C126 C127 1.478 . S
C127 C114 1.394 1_455 S
C127 C126 1.478 . S
C127 C128 1.397 . S
C128 C127 1.397 . S
C128 C129 1.438 . S
C128 C133 1.429 . S
C129 C112 1.394 . S
C129 C128 1.438 . S
C129 C130 1.428 . S
C130 H122 0.949 . S
C130 C129 1.428 . S
C130 C131 1.345 . S
C131 H123 0.950 . S
C131 C130 1.345 . S
C131 C132 1.424 . S
C132 H124 0.951 . S
C132 C131 1.424 . S
C132 C133 1.347 . S
C133 H125 0.951 . S
C133 C128 1.429 . S
C133 C132 1.347 . S
H134 C135 0.951 . S
C135 H134 0.951 . S
C135 C141 1.265 . S
H136 C141 0.950 1_565 S
H137 C145 0.949 . S
H138 C146 0.950 . S
H139 C147 0.951 . S
H140 C148 0.951 . S
C141 C135 1.265 . S
C141 H136 0.950 1_545 S
C141 C142 1.478 . S
C142 C141 1.478 . S
C142 C143 1.397 . S
C142 C159 1.394 . S
C143 C142 1.397 . S
C143 C144 1.438 . S
C143 C148 1.429 1_545 S
C144 C143 1.438 . S
C144 C145 1.428 1_545 S
C144 C157 1.394 . S
C145 H137 0.949 . S
C145 C144 1.428 1_565 S
C145 C146 1.345 . S
C146 H138 0.950 . S
C146 C145 1.345 . S
C146 C147 1.424 . S
C147 H139 0.951 . S
C147 C146 1.424 . S
C147 C148 1.347 . S
C148 H140 0.951 . S
C148 C143 1.429 1_565 S
C148 C147 1.347 . S
H149 C150 0.951 . S
C150 H149 0.951 . S
C150 C156 1.265 . S
H151 C156 0.950 . S
H152 C160 0.949 . S
H153 C161 0.950 . S
H154 C162 0.951 . S
H155 C163 0.951 . S
C156 C150 1.265 . S
C156 H151 0.950 . S
C156 C157 1.478 . S
C157 C144 1.394 . S
C157 C156 1.478 . S
C157 C158 1.397 . S
C158 C157 1.397 . S
C158 C159 1.438 . S
C158 C163 1.429 . S
C159 C142 1.394 . S
C159 C158 1.438 . S
C159 C160 1.428 . S
C160 H152 0.949 . S
C160 C159 1.428 . S
C160 C161 1.345 . S
C161 H153 0.950 . S
C161 C160 1.345 . S
C161 C162 1.424 . S
C162 H154 0.951 . S
C162 C161 1.424 . S
C162 C163 1.347 . S
C163 H155 0.951 . S
C163 C158 1.429 . S
C163 C162 1.347 . S
H164 C165 0.951 . S
C165 H164 0.951 . S
C165 C171 1.265 . S
H166 C171 0.950 . S
H167 C175 0.949 . S
H168 C176 0.950 . S
H169 C177 0.951 . S
H170 C178 0.951 . S
C171 C165 1.265 . S
C171 H166 0.950 . S
C171 C172 1.478 . S
C172 C171 1.478 . S
C172 C173 1.397 . S
C172 C189 1.394 . S
C173 C172 1.397 . S
C173 C174 1.438 . S
C173 C178 1.429 . S
C174 C173 1.438 . S
C174 C175 1.428 . S
C174 C187 1.394 . S
C175 H167 0.949 . S
C175 C174 1.428 . S
C175 C176 1.345 . S
C176 H168 0.950 . S
C176 C175 1.345 . S
C176 C177 1.424 . S
C177 H169 0.951 . S
C177 C176 1.424 . S
C177 C178 1.347 . S
C178 H170 0.951 . S
C178 C173 1.429 . S
C178 C177 1.347 . S
H179 C180 0.951 . S
C180 H179 0.951 . S
C180 C186 1.265 . S
H181 C186 0.950 . S
H182 C190 0.949 . S
H183 C191 0.950 . S
H184 C192 0.951 . S
H185 C193 0.951 . S
C186 C180 1.265 . S
C186 H181 0.950 . S
C186 C187 1.478 . S
C187 C174 1.394 . S
C187 C186 1.478 . S
C187 C188 1.397 . S
C188 C187 1.397 . S
C188 C189 1.438 . S
C188 C193 1.429 . S
C189 C172 1.394 . S
C189 C188 1.438 . S
C189 C190 1.428 . S
C190 H182 0.949 . S
C190 C189 1.428 . S
C190 C191 1.345 1_455 S
C191 H183 0.950 . S
C191 C190 1.345 1_655 S
C191 C192 1.424 . S
C192 H184 0.951 . S
C192 C191 1.424 . S
C192 C193 1.347 1_655 S
C193 H185 0.951 . S
C193 C188 1.429 . S
C193 C192 1.347 1_455 S
H194 C195 0.951 . S
C195 H194 0.951 . S
C195 C201 1.265 . S
H196 C201 0.950 . S
H197 C205 0.949 . S
H198 C206 0.950 . S
H199 C207 0.951 . S
H200 C208 0.951 . S
C201 C195 1.265 . S
C201 H196 0.950 . S
C201 C202 1.478 . S
C202 C201 1.478 . S
C202 C203 1.397 . S
C202 C219 1.394 1_545 S
C203 C202 1.397 . S
C203 C204 1.438 . S
C203 C208 1.429 . S
C204 C203 1.438 . S
C204 C205 1.428 . S
C204 C217 1.394 . S
C205 H197 0.949 . S
C205 C204 1.428 . S
C205 C206 1.345 . S
C206 H198 0.950 . S
C206 C205 1.345 . S
C206 C207 1.424 . S
C207 H199 0.951 . S
C207 C206 1.424 . S
C207 C208 1.347 . S
C208 H200 0.951 . S
C208 C203 1.429 . S
C208 C207 1.347 . S
H209 C210 0.951 . S
C210 H209 0.951 . S
C210 C216 1.265 . S
H211 C216 0.950 . S
H212 C220 0.949 . S
H213 C221 0.950 . S
H214 C222 0.951 . S
H215 C223 0.951 . S
C216 C210 1.265 . S
C216 H211 0.950 . S
C216 C217 1.478 . S
C217 C204 1.394 . S
C217 C216 1.478 . S
C217 C218 1.397 1_545 S
C218 C217 1.397 1_565 S
C218 C219 1.438 . S
C218 C223 1.429 . S
C219 C202 1.394 1_565 S
C219 C218 1.438 . S
C219 C220 1.428 . S
C220 H212 0.949 . S
C220 C219 1.428 . S
C220 C221 1.345 . S
C221 H213 0.950 . S
C221 C220 1.345 . S
C221 C222 1.424 . S
C222 H214 0.951 . S
C222 C221 1.424 . S
C222 C223 1.347 . S
C223 H215 0.951 . S
C223 C218 1.429 . S
C223 C222 1.347 . S
H224 C225 0.951 . S
C225 H224 0.951 . S
C225 C231 1.265 . S
H226 C231 0.950 . S
H227 C235 0.949 . S
H228 C236 0.950 . S
H229 C237 0.951 . S
H230 C238 0.951 . S
C231 C225 1.265 . S
C231 H226 0.950 . S
C231 C232 1.478 . S
C232 C231 1.478 . S
C232 C233 1.397 . S
C232 C249 1.394 . S
C233 C232 1.397 . S
C233 C234 1.438 . S
C233 C238 1.429 . S
C234 C233 1.438 . S
C234 C235 1.428 . S
C234 C247 1.394 . S
C235 H227 0.949 . S
C235 C234 1.428 . S
C235 C236 1.345 . S
C236 H228 0.950 . S
C236 C235 1.345 . S
C236 C237 1.424 . S
C237 H229 0.951 . S
C237 C236 1.424 . S
C237 C238 1.347 . S
C238 H230 0.951 . S
C238 C233 1.429 . S
C238 C237 1.347 . S
H239 C240 0.951 . S
C240 H239 0.951 . S
C240 C246 1.265 . S
H241 C246 0.950 . S
H242 C250 0.949 . S
H243 C251 0.950 . S
H244 C252 0.951 . S
H245 C253 0.951 . S
C246 C240 1.265 . S
C246 H241 0.950 . S
C246 C247 1.478 . S
C247 C234 1.394 . S
C247 C246 1.478 . S
C247 C248 1.397 . S
C248 C247 1.397 . S
C248 C249 1.438 . S
C248 C253 1.429 . S
C249 C232 1.394 . S
C249 C248 1.438 . S
C249 C250 1.428 . S
C250 H242 0.949 . S
C250 C249 1.428 . S
C250 C251 1.345 . S
C251 H243 0.950 . S
C251 C250 1.345 . S
C251 C252 1.424 . S
C252 H244 0.951 . S
C252 C251 1.424 . S
C252 C253 1.347 . S
C253 H245 0.951 . S
C253 C248 1.429 . S
C253 C252 1.347 . S
H254 C255 0.951 . S
C255 H254 0.951 . S
C255 C261 1.265 . S
H256 C261 0.950 . S
H257 C265 0.949 . S
H258 C266 0.950 . S
H259 C267 0.951 . S
H260 C268 0.951 . S
C261 C255 1.265 . S
C261 H256 0.950 . S
C261 C262 1.478 . S
C262 C261 1.478 . S
C262 C263 1.397 . S
C262 C279 1.394 . S
C263 C262 1.397 . S
C263 C264 1.438 . S
C263 C268 1.429 1_545 S
C264 C263 1.438 . S
C264 C265 1.428 1_545 S
C264 C277 1.394 . S
C265 H257 0.949 . S
C265 C264 1.428 1_565 S
C265 C266 1.345 . S
C266 H258 0.950 . S
C266 C265 1.345 . S
C266 C267 1.424 . S
C267 H259 0.951 . S
C267 C266 1.424 . S
C267 C268 1.347 . S
C268 H260 0.951 . S
C268 C263 1.429 1_565 S
C268 C267 1.347 . S
H269 C270 0.951 . S
C270 H269 0.951 . S
C270 C276 1.265 . S
H271 C276 0.950 . S
H272 C280 0.949 . S
H273 C281 0.950 . S
H274 C282 0.951 . S
H275 C283 0.951 . S
C276 C270 1.265 . S
C276 H271 0.950 . S
C276 C277 1.478 . S
C277 C264 1.394 . S
C277 C276 1.478 . S
C277 C278 1.397 . S
C278 C277 1.397 . S
C278 C279 1.438 . S
C278 C283 1.429 . S
C279 C262 1.394 . S
C279 C278 1.438 . S
C279 C280 1.428 . S
C280 H272 0.949 . S
C280 C279 1.428 . S
C280 C281 1.345 . S
C281 H273 0.950 . S
C281 C280 1.345 . S
C281 C282 1.424 . S
C282 H274 0.951 . S
C282 C281 1.424 . S
C282 C283 1.347 . S
C283 H275 0.951 . S
C283 C278 1.429 . S
C283 C282 1.347 . S
H284 C285 0.951 1_655 S
C285 H284 0.951 1_455 S
C285 C291 1.265 . S
H286 C291 0.950 . S
H287 C295 0.949 . S
H288 C296 0.950 . S
H289 C297 0.951 . S
H290 C298 0.951 . S
C291 C285 1.265 . S
C291 H286 0.950 . S
C291 C292 1.478 . S
C292 C291 1.478 . S
C292 C293 1.397 . S
C292 C309 1.394 . S
C293 C292 1.397 . S
C293 C294 1.438 . S
C293 C298 1.429 . S
C294 C293 1.438 . S
C294 C295 1.428 . S
C294 C307 1.394 . S
C295 H287 0.949 . S
C295 C294 1.428 . S
C295 C296 1.345 . S
C296 H288 0.950 . S
C296 C295 1.345 . S
C296 C297 1.424 . S
C297 H289 0.951 . S
C297 C296 1.424 . S
C297 C298 1.347 . S
C298 H290 0.951 . S
C298 C293 1.429 . S
C298 C297 1.347 . S
H299 C300 0.951 . S
C300 H299 0.951 . S
C300 C306 1.265 1_455 S
H301 C306 0.950 . S
H302 C310 0.949 . S
H303 C311 0.950 . S
H304 C312 0.951 . S
H305 C313 0.951 . S
C306 C300 1.265 1_655 S
C306 H301 0.950 . S
C306 C307 1.478 1_655 S
C307 C294 1.394 . S
C307 C306 1.478 1_455 S
C307 C308 1.397 1_455 S
C308 C307 1.397 1_655 S
C308 C309 1.438 1_655 S
C308 C313 1.429 . S
C309 C292 1.394 . S
C309 C308 1.438 1_455 S
C309 C310 1.428 1_455 S
C310 H302 0.949 . S
C310 C309 1.428 1_655 S
C310 C311 1.345 . S
C311 H303 0.950 . S
C311 C310 1.345 . S
C311 C312 1.424 . S
C312 H304 0.951 . S
C312 C311 1.424 . S
C312 C313 1.347 . S
C313 H305 0.951 . S
C313 C308 1.429 . S
C313 C312 1.347 . S
C90 C55 1.536 . S
C75 N12 1.539 . S
C120 C66 1.517 . S
C105 N25 1.569 . S
C150 C54 1.535 . S
C135 C16 1.553 . S
C180 C67 1.555 . S
C165 C30 1.591 . S
C210 C69 1.590 . S
C195 C7 1.572 . S
C240 C53 1.426 . S
C225 C39 1.510 . S
C270 C68 1.580 1_655 S
C255 N2 1.502 . S
C285 N35 1.506 . S
C300 C52 1.449 . S
