# Generated by pormake.
# Topology gar, (4,6)-cn, num edge types: 1
# Building blocks:
#     Node 0, Type 0, BuildingBlock: NAHDIM_clean_sbu_0, # of connection points: 4
#     Node 1, Type 0, BuildingBlock: NAHDIM_clean_sbu_0, # of connection points: 4
#     Node 2, Type 0, BuildingBlock: NAHDIM_clean_sbu_0, # of connection points: 4
#     Node 3, Type 0, BuildingBlock: NAHDIM_clean_sbu_0, # of connection points: 4
#     Node 4, Type 0, BuildingBlock: NAHDIM_clean_sbu_0, # of connection points: 4
#     Node 5, Type 0, BuildingBlock: NAHDIM_clean_sbu_0, # of connection points: 4
#     Node 6, Type 0, BuildingBlock: NAHDIM_clean_sbu_0, # of connection points: 4
#     Node 7, Type 0, BuildingBlock: NAHDIM_clean_sbu_0, # of connection points: 4
#     Node 8, Type 0, BuildingBlock: NAHDIM_clean_sbu_0, # of connection points: 4
#     Node 9, Type 0, BuildingBlock: NAHDIM_clean_sbu_0, # of connection points: 4
#     Node 10, Type 0, BuildingBlock: NAHDIM_clean_sbu_0, # of connection points: 4
#     Node 11, Type 0, BuildingBlock: NAHDIM_clean_sbu_0, # of connection points: 4
#     Node 12, Type 0, BuildingBlock: NAHDIM_clean_sbu_0, # of connection points: 4
#     Node 13, Type 0, BuildingBlock: NAHDIM_clean_sbu_0, # of connection points: 4
#     Node 14, Type 0, BuildingBlock: NAHDIM_clean_sbu_0, # of connection points: 4
#     Node 15, Type 0, BuildingBlock: NAHDIM_clean_sbu_0, # of connection points: 4
#     Node 16, Type 0, BuildingBlock: NAHDIM_clean_sbu_0, # of connection points: 4
#     Node 17, Type 0, BuildingBlock: NAHDIM_clean_sbu_0, # of connection points: 4
#     Node 18, Type 0, BuildingBlock: NAHDIM_clean_sbu_0, # of connection points: 4
#     Node 19, Type 0, BuildingBlock: NAHDIM_clean_sbu_0, # of connection points: 4
#     Node 20, Type 0, BuildingBlock: NAHDIM_clean_sbu_0, # of connection points: 4
#     Node 21, Type 0, BuildingBlock: NAHDIM_clean_sbu_0, # of connection points: 4
#     Node 22, Type 0, BuildingBlock: NAHDIM_clean_sbu_0, # of connection points: 4
#     Node 23, Type 0, BuildingBlock: NAHDIM_clean_sbu_0, # of connection points: 4
#     Node 24, Type 1, BuildingBlock: KUMBUR_clean_sbu_0, # of connection points: 6
#     Node 25, Type 1, BuildingBlock: KUMBUR_clean_sbu_0, # of connection points: 6
#     Node 26, Type 1, BuildingBlock: KUMBUR_clean_sbu_0, # of connection points: 6
#     Node 27, Type 1, BuildingBlock: KUMBUR_clean_sbu_0, # of connection points: 6
#     Node 28, Type 1, BuildingBlock: KUMBUR_clean_sbu_0, # of connection points: 6
#     Node 29, Type 1, BuildingBlock: KUMBUR_clean_sbu_0, # of connection points: 6
#     Node 30, Type 1, BuildingBlock: KUMBUR_clean_sbu_0, # of connection points: 6
#     Node 31, Type 1, BuildingBlock: KUMBUR_clean_sbu_0, # of connection points: 6
#     Node 32, Type 1, BuildingBlock: KUMBUR_clean_sbu_0, # of connection points: 6
#     Node 33, Type 1, BuildingBlock: KUMBUR_clean_sbu_0, # of connection points: 6
#     Node 34, Type 1, BuildingBlock: KUMBUR_clean_sbu_0, # of connection points: 6
#     Node 35, Type 1, BuildingBlock: KUMBUR_clean_sbu_0, # of connection points: 6
#     Node 36, Type 1, BuildingBlock: KUMBUR_clean_sbu_0, # of connection points: 6
#     Node 37, Type 1, BuildingBlock: KUMBUR_clean_sbu_0, # of connection points: 6
#     Node 38, Type 1, BuildingBlock: KUMBUR_clean_sbu_0, # of connection points: 6
#     Node 39, Type 1, BuildingBlock: KUMBUR_clean_sbu_0, # of connection points: 6
#     Edge 40, Type (0, 1), None
#     Edge 41, Type (0, 1), None
#     Edge 42, Type (0, 1), None
#     Edge 43, Type (0, 1), None
#     Edge 44, Type (0, 1), None
#     Edge 45, Type (0, 1), None
#     Edge 46, Type (0, 1), None
#     Edge 47, Type (0, 1), None
#     Edge 48, Type (0, 1), None
#     Edge 49, Type (0, 1), None
#     Edge 50, Type (0, 1), None
#     Edge 51, Type (0, 1), None
#     Edge 52, Type (0, 1), None
#     Edge 53, Type (0, 1), None
#     Edge 54, Type (0, 1), None
#     Edge 55, Type (0, 1), None
#     Edge 56, Type (0, 1), None
#     Edge 57, Type (0, 1), None
#     Edge 58, Type (0, 1), None
#     Edge 59, Type (0, 1), None
#     Edge 60, Type (0, 1), None
#     Edge 61, Type (0, 1), None
#     Edge 62, Type (0, 1), None
#     Edge 63, Type (0, 1), None
#     Edge 64, Type (0, 1), None
#     Edge 65, Type (0, 1), None
#     Edge 66, Type (0, 1), None
#     Edge 67, Type (0, 1), None
#     Edge 68, Type (0, 1), None
#     Edge 69, Type (0, 1), None
#     Edge 70, Type (0, 1), None
#     Edge 71, Type (0, 1), None
#     Edge 72, Type (0, 1), None
#     Edge 73, Type (0, 1), None
#     Edge 74, Type (0, 1), None
#     Edge 75, Type (0, 1), None
#     Edge 76, Type (0, 1), None
#     Edge 77, Type (0, 1), None
#     Edge 78, Type (0, 1), None
#     Edge 79, Type (0, 1), None
#     Edge 80, Type (0, 1), None
#     Edge 81, Type (0, 1), None
#     Edge 82, Type (0, 1), None
#     Edge 83, Type (0, 1), None
#     Edge 84, Type (0, 1), None
#     Edge 85, Type (0, 1), None
#     Edge 86, Type (0, 1), None
#     Edge 87, Type (0, 1), None
#     Edge 88, Type (0, 1), None
#     Edge 89, Type (0, 1), None
#     Edge 90, Type (0, 1), None
#     Edge 91, Type (0, 1), None
#     Edge 92, Type (0, 1), None
#     Edge 93, Type (0, 1), None
#     Edge 94, Type (0, 1), None
#     Edge 95, Type (0, 1), None
#     Edge 96, Type (0, 1), None
#     Edge 97, Type (0, 1), None
#     Edge 98, Type (0, 1), None
#     Edge 99, Type (0, 1), None
#     Edge 100, Type (0, 1), None
#     Edge 101, Type (0, 1), None
#     Edge 102, Type (0, 1), None
#     Edge 103, Type (0, 1), None
#     Edge 104, Type (0, 1), None
#     Edge 105, Type (0, 1), None
#     Edge 106, Type (0, 1), None
#     Edge 107, Type (0, 1), None
#     Edge 108, Type (0, 1), None
#     Edge 109, Type (0, 1), None
#     Edge 110, Type (0, 1), None
#     Edge 111, Type (0, 1), None
#     Edge 112, Type (0, 1), None
#     Edge 113, Type (0, 1), None
#     Edge 114, Type (0, 1), None
#     Edge 115, Type (0, 1), None
#     Edge 116, Type (0, 1), None
#     Edge 117, Type (0, 1), None
#     Edge 118, Type (0, 1), None
#     Edge 119, Type (0, 1), None
#     Edge 120, Type (0, 1), None
#     Edge 121, Type (0, 1), None
#     Edge 122, Type (0, 1), None
#     Edge 123, Type (0, 1), None
#     Edge 124, Type (0, 1), None
#     Edge 125, Type (0, 1), None
#     Edge 126, Type (0, 1), None
#     Edge 127, Type (0, 1), None
#     Edge 128, Type (0, 1), None
#     Edge 129, Type (0, 1), None
#     Edge 130, Type (0, 1), None
#     Edge 131, Type (0, 1), None
#     Edge 132, Type (0, 1), None
#     Edge 133, Type (0, 1), None
#     Edge 134, Type (0, 1), None
#     Edge 135, Type (0, 1), None
# Relax obj value: 0.253
# Max RMSD: 0.405
# Mean RMSD: 0.208
data_MOF--net-gar--node1-NAHDIM_clean_sbu_0--node2-KUMBUR_clean_sbu_0--edge1-none
_symmetry_space_group_name_H-M    P1
_symmetry_Int_Tables_number       1
_symmetry_cell_setting            triclinic
loop_
_symmetry_equiv_pos_as_xyz
'x, y, z'
_cell_length_a     33.522547
_cell_length_b     26.756601
_cell_length_c     26.236448
_cell_angle_alpha  104.33132
_cell_angle_beta   94.937001
_cell_angle_gamma 102.66568
loop_
_atom_site_label
_atom_site_type_symbol
_atom_site_fract_x
_atom_site_fract_y
_atom_site_fract_z
_atom_type_partial_charge
C0 C 0.27713 0.39945 0.34161 0.0
O1 O 0.2887 0.43723 0.38629 0.0
O2 O 0.16242 0.32896 0.40681 0.0
Zn3 Zn 0.19021 0.38704 0.37396 0.0
O4 O 0.1916 0.45905 0.42959 0.0
C5 C 0.11119 0.35613 0.30658 0.0
O6 O 0.09888 0.32465 0.33649 0.0
O7 O 0.23937 0.37312 0.33109 0.0
C8 C 0.15521 0.45904 0.44122 0.0
O9 O 0.12449 0.41956 0.41474 0.0
C10 C 0.16581 0.33862 0.45714 0.0
O11 O 0.19338 0.38105 0.48645 0.0
O12 O 0.14805 0.38437 0.31518 0.0
C13 C 0.9307 0.76284 0.72216 0.0
O14 O 0.91186 0.72964 0.6765 0.0
O15 O 0.03165 0.69395 0.65379 0.0
Zn16 Zn 0.01847 0.7683 0.68513 0.0
O17 O 0.03082 0.81308 0.63176 0.0
C18 C 0.09938 0.79133 0.73952 0.0
O19 O 0.10925 0.77546 0.69197 0.0
O20 O 0.96993 0.78013 0.72896 0.0
C21 C 0.0623 0.85208 0.63846 0.0
O22 O 0.0829 0.87488 0.68644 0.0
C23 C 0.04842 0.69119 0.61152 0.0
O24 O 0.04505 0.72573 0.58481 0.0
O25 O 0.06319 0.79612 0.74486 0.0
C26 C 0.77713 0.89954 0.84155 0.0
O27 O 0.78869 0.93737 0.8862 0.0
O28 O 0.66241 0.82901 0.90681 0.0
Zn29 Zn 0.69011 0.88701 0.8738 0.0
O30 O 0.69111 0.95901 0.92913 0.0
C31 C 0.61116 0.85582 0.80628 0.0
O32 O 0.59888 0.82432 0.83617 0.0
O33 O 0.73937 0.8732 0.83104 0.0
C34 C 0.65464 0.9588 0.94056 0.0
O35 O 0.62405 0.91914 0.91411 0.0
C36 C 0.6658 0.83878 0.95715 0.0
O37 O 0.69332 0.88129 0.9864 0.0
O38 O 0.64801 0.88411 0.8149 0.0
C39 C 0.43077 0.26287 0.22236 0.0
O40 O 0.41197 0.22949 0.17676 0.0
O41 O 0.53194 0.19449 0.15406 0.0
Zn42 Zn 0.5186 0.26871 0.18537 0.0
O43 O 0.53085 0.31346 0.13198 0.0
C44 C 0.59948 0.29178 0.23977 0.0
O45 O 0.6094 0.27613 0.19221 0.0
O46 O 0.46997 0.28037 0.22913 0.0
C47 C 0.56234 0.35241 0.13856 0.0
O48 O 0.58304 0.37522 0.18649 0.0
C49 C 0.54887 0.19185 0.11191 0.0
O50 O 0.54541 0.22629 0.08512 0.0
O51 O 0.56329 0.29653 0.24514 0.0
C52 C 0.08878 0.83054 0.15491 0.0
O53 O 0.07507 0.82647 0.10522 0.0
O54 O 0.14592 0.77526 0.07881 0.0
Zn55 Zn 0.16902 0.86219 0.12492 0.0
O56 O 0.15484 0.93878 0.10143 0.0
C57 C 0.26637 0.87084 0.17751 0.0
O58 O 0.27815 0.87169 0.13123 0.0
O59 O 0.12698 0.8501 0.17298 0.0
C60 C 0.13542 0.95525 0.06504 0.0
O61 O 0.11775 0.91975 0.02022 0.0
C62 C 0.13241 0.72824 0.04474 0.0
O63 O 0.12608 0.72561 0.99396 0.0
O64 O 0.22774 0.86976 0.18172 0.0
C65 C 0.62272 0.82593 0.41408 0.0
O66 O 0.63692 0.82873 0.46325 0.0
O67 O 0.55582 0.71776 0.46852 0.0
Zn68 Zn 0.54168 0.7949 0.44336 0.0
O69 O 0.566 0.88151 0.49265 0.0
C70 C 0.44345 0.78607 0.38376 0.0
O71 O 0.42899 0.78198 0.42788 0.0
O72 O 0.58438 0.80713 0.39658 0.0
C73 C 0.5794 0.92999 0.52439 0.0
O74 O 0.5799 0.93652 0.57564 0.0
C75 C 0.57808 0.70217 0.50337 0.0
O76 O 0.60064 0.73922 0.54436 0.0
O77 O 0.48303 0.78922 0.38347 0.0
C78 C 0.58878 0.33051 0.65496 0.0
O79 O 0.57507 0.32646 0.60528 0.0
O80 O 0.64598 0.27519 0.57878 0.0
Zn81 Zn 0.66904 0.36215 0.625 0.0
O82 O 0.65483 0.43875 0.60147 0.0
C83 C 0.76638 0.37075 0.6778 0.0
O84 O 0.77821 0.3716 0.63154 0.0
O85 O 0.62699 0.35004 0.67303 0.0
C86 C 0.63536 0.45521 0.5651 0.0
O87 O 0.61764 0.41969 0.52031 0.0
C88 C 0.6325 0.22817 0.5447 0.0
O89 O 0.62615 0.22554 0.49393 0.0
O90 O 0.72774 0.36969 0.68193 0.0
C91 C 0.12275 0.32594 0.91415 0.0
O92 O 0.13694 0.32881 0.96334 0.0
O93 O 0.05586 0.21776 0.96856 0.0
Zn94 Zn 0.04173 0.29484 0.9434 0.0
O95 O 0.06607 0.38139 0.99262 0.0
C96 C 0.9435 0.28594 0.88394 0.0
O97 O 0.92907 0.28176 0.92805 0.0
O98 O 0.08442 0.30708 0.89661 0.0
C99 C 0.07947 0.42986 0.02436 0.0
O100 O 0.07997 0.43641 0.0756 0.0
C101 C 0.07808 0.20217 0.00345 0.0
O102 O 0.10058 0.23922 0.04449 0.0
O103 O 0.98308 0.28916 0.8836 0.0
C104 C 0.40772 0.10411 0.30008 0.0
O105 O 0.44206 0.11493 0.28037 0.0
O106 O 0.45576 0.01996 0.27929 0.0
Zn107 Zn 0.44202 0.04996 0.34913 0.0
O108 O 0.49079 0.07424 0.40666 0.0
C109 C 0.42565 0.94918 0.34016 0.0
O110 O 0.46489 0.9642 0.36004 0.0
O111 O 0.40784 0.0974 0.34591 0.0
C112 C 0.52575 0.06482 0.39908 0.0
O113 O 0.53207 0.04092 0.35177 0.0
C114 C 0.48487 0.0341 0.25492 0.0
O115 O 0.51017 0.08179 0.27278 0.0
O116 O 0.40413 0.98293 0.34652 0.0
C117 C 0.39298 0.20595 0.54048 0.0
O118 O 0.41091 0.25645 0.54744 0.0
O119 O 0.33703 0.28405 0.59712 0.0
Zn120 Zn 0.31999 0.2394 0.5157 0.0
O121 O 0.34705 0.27968 0.45409 0.0
C122 C 0.21842 0.15585 0.48497 0.0
O123 O 0.21366 0.1398 0.43285 0.0
O124 O 0.35484 0.18822 0.52128 0.0
C125 C 0.37342 0.31909 0.44397 0.0
O126 O 0.39561 0.35849 0.48354 0.0
C127 C 0.34702 0.32038 0.64174 0.0
O128 O 0.35039 0.37032 0.64228 0.0
O129 O 0.25375 0.18832 0.5098 0.0
C130 C 0.28993 0.93838 0.75815 0.0
O131 O 0.28497 0.92522 0.706 0.0
O132 O 0.18599 0.03898 0.69185 0.0
Zn133 Zn 0.22745 0.04614 0.77913 0.0
O134 O 0.18817 0.05333 0.85942 0.0
C135 C 0.28243 0.17928 0.80662 0.0
O136 O 0.26251 0.1917 0.84703 0.0
O137 O 0.27131 0.97643 0.78228 0.0
C138 C 0.15089 0.05514 0.87406 0.0
O139 O 0.12263 0.05536 0.83659 0.0
C140 C 0.15504 0.05485 0.66971 0.0
O141 O 0.13297 0.07827 0.7023 0.0
O142 O 0.27418 0.12847 0.78042 0.0
C143 C 0.35577 0.07663 0.97904 0.0
O144 O 0.33828 0.02669 0.95334 0.0
O145 O 0.42724 0.02554 0.05388 0.0
Zn146 Zn 0.42558 0.03857 0.98327 0.0
O147 O 0.39815 0.97018 0.93508 0.0
C148 C 0.50656 0.0674 0.01027 0.0
O149 O 0.492 0.09113 0.05191 0.0
O150 O 0.39475 0.09328 0.98347 0.0
C151 C 0.41854 0.93651 0.91774 0.0
O152 O 0.45862 0.94768 0.93127 0.0
C153 C 0.40123 0.9858 0.05836 0.0
O154 O 0.3641 0.97187 0.03075 0.0
O155 O 0.48295 0.05183 0.96653 0.0
C156 C 0.31963 0.4551 0.02436 0.0
O157 O 0.30206 0.4051 0.02039 0.0
O158 O 0.36634 0.39048 0.11614 0.0
Zn159 Zn 0.39229 0.42417 0.05126 0.0
O160 O 0.37417 0.37411 0.97136 0.0
C161 C 0.4928 0.50754 0.0818 0.0
O162 O 0.49659 0.52471 0.13376 0.0
O163 O 0.35776 0.47394 0.04295 0.0
C164 C 0.36359 0.339 0.92581 0.0
O165 O 0.36107 0.28881 0.92347 0.0
C166 C 0.33953 0.35207 0.12673 0.0
O167 O 0.31807 0.3117 0.08753 0.0
O168 O 0.45797 0.47454 0.05647 0.0
C169 C 0.86055 0.09922 0.05451 0.0
O170 O 0.87495 0.15123 0.07091 0.0
O171 O 0.80417 0.17631 0.13699 0.0
Zn172 Zn 0.78951 0.12354 0.06757 0.0
O173 O 0.80323 0.16954 0.02319 0.0
C174 C 0.70829 0.1018 0.0727 0.0
O175 O 0.7253 0.12842 0.12089 0.0
O176 O 0.82401 0.07748 0.05828 0.0
C177 C 0.77573 0.16439 0.98538 0.0
O178 O 0.74892 0.11878 0.96323 0.0
C179 C 0.79085 0.21814 0.1467 0.0
O180 O 0.76285 0.22489 0.11283 0.0
O181 O 0.73151 0.08331 0.04223 0.0
C182 C 0.30523 0.57065 0.29294 0.0
O183 O 0.27562 0.58114 0.31989 0.0
O184 O 0.22239 0.57327 0.14996 0.0
Zn185 Zn 0.26363 0.60021 0.21667 0.0
O186 O 0.22936 0.62286 0.26862 0.0
C187 C 0.28137 0.70438 0.22234 0.0
O188 O 0.24161 0.68906 0.20409 0.0
O189 O 0.29998 0.56031 0.24246 0.0
C190 C 0.24283 0.6658 0.30483 0.0
O191 O 0.28253 0.6848 0.32217 0.0
C192 C 0.18388 0.56636 0.154 0.0
O193 O 0.17053 0.56126 0.1984 0.0
O194 O 0.30176 0.6697 0.2216 0.0
C195 C 0.81985 0.95533 0.52404 0.0
O196 O 0.80199 0.90546 0.52029 0.0
O197 O 0.86627 0.89043 0.61608 0.0
Zn198 Zn 0.89225 0.92416 0.55127 0.0
O199 O 0.87413 0.87424 0.47132 0.0
C200 C 0.99274 1.0075 0.5818 0.0
O201 O 0.99653 0.02467 0.63376 0.0
O202 O 0.8579 0.97407 0.54297 0.0
C203 C 0.86355 0.83909 0.4258 0.0
O204 O 0.86112 0.78893 0.42351 0.0
C205 C 0.83947 0.85201 0.62668 0.0
O206 O 0.81799 0.81164 0.5875 0.0
O207 O 0.95792 0.9745 0.55647 0.0
C208 C 0.9193 0.21854 0.30641 0.0
O209 O 0.9222 0.22987 0.35837 0.0
O210 O 0.02413 0.1028 0.20785 0.0
Zn211 Zn 0.98402 0.11331 0.28765 0.0
O212 O 0.02511 0.12177 0.37516 0.0
C213 C 0.92782 0.98132 0.26117 0.0
O214 O 0.9459 0.96858 0.21905 0.0
O215 O 0.93941 0.18199 0.28282 0.0
C216 C 0.05623 0.10638 0.39745 0.0
O217 O 0.07849 0.08316 0.36501 0.0
C218 C 0.06283 0.10989 0.1957 0.0
O219 O 0.09227 0.12708 0.23668 0.0
O220 O 0.93747 0.03195 0.28803 0.0
C221 C 0.35991 0.59871 0.55353 0.0
O222 O 0.37468 0.65062 0.57087 0.0
O223 O 0.30427 0.67607 0.63681 0.0
Zn224 Zn 0.28904 0.62365 0.56723 0.0
O225 O 0.30244 0.67009 0.52327 0.0
C226 C 0.20801 0.60243 0.57372 0.0
O227 O 0.22539 0.6282 0.622 0.0
O228 O 0.32318 0.57719 0.55667 0.0
C229 C 0.27466 0.66516 0.48585 0.0
O230 O 0.24789 0.61957 0.46351 0.0
C231 C 0.29088 0.71785 0.64669 0.0
O232 O 0.26261 0.72445 0.61309 0.0
O233 O 0.23086 0.58407 0.54258 0.0
C234 C 0.41926 0.71841 0.80639 0.0
O235 O 0.42219 0.72977 0.85835 0.0
O236 O 0.52414 0.60276 0.70786 0.0
Zn237 Zn 0.48402 0.61326 0.78764 0.0
O238 O 0.52512 0.62177 0.87514 0.0
C239 C 0.4278 0.48126 0.76115 0.0
O240 O 0.44585 0.46852 0.71899 0.0
O241 O 0.43938 0.68187 0.78279 0.0
C242 C 0.55624 0.6064 0.89743 0.0
O243 O 0.57851 0.58319 0.86499 0.0
C244 C 0.56284 0.60989 0.69571 0.0
O245 O 0.59228 0.62714 0.7367 0.0
O246 O 0.43749 0.53189 0.78803 0.0
C247 C 0.80492 0.07027 0.79342 0.0
O248 O 0.77539 0.08085 0.82048 0.0
O249 O 0.72239 0.07357 0.65053 0.0
Zn250 Zn 0.76339 0.10027 0.71753 0.0
O251 O 0.72922 0.12324 0.76977 0.0
C252 C 0.78142 0.2042 0.7231 0.0
O253 O 0.74167 0.18886 0.70482 0.0
O254 O 0.79959 0.06003 0.74295 0.0
C255 C 0.74291 0.16599 0.80621 0.0
O256 O 0.78268 0.18489 0.82318 0.0
C257 C 0.68388 0.06695 0.65441 0.0
O258 O 0.67043 0.06246 0.69893 0.0
O259 O 0.80181 0.16955 0.72245 0.0
C260 C 0.89303 0.70596 0.04039 0.0
O261 O 0.91099 0.75645 0.04734 0.0
O262 O 0.83705 0.78407 0.09709 0.0
Zn263 Zn 0.82002 0.73944 0.01566 0.0
O264 O 0.84706 0.77973 0.95405 0.0
C265 C 0.71845 0.65586 0.98493 0.0
O266 O 0.71371 0.63978 0.93281 0.0
O267 O 0.85488 0.68826 0.02122 0.0
C268 C 0.87341 0.81917 0.94394 0.0
O269 O 0.89557 0.85859 0.98352 0.0
C270 C 0.84704 0.82041 0.14171 0.0
O271 O 0.85041 0.87035 0.14223 0.0
O272 O 0.75378 0.68835 0.00976 0.0
C273 C 0.9074 0.6035 0.80001 0.0
O274 O 0.94175 0.61436 0.78035 0.0
O275 O 0.95592 0.51943 0.78017 0.0
Zn276 Zn 0.94197 0.54967 0.84958 0.0
O277 O 0.99088 0.57434 0.90678 0.0
C278 C 0.92568 0.44893 0.84097 0.0
O279 O 0.96496 0.46394 0.86068 0.0
O280 O 0.90751 0.59676 0.84583 0.0
C281 C 0.0258 0.56482 0.89911 0.0
O282 O 0.03198 0.54053 0.85186 0.0
C283 C 0.9847 0.53364 0.75537 0.0
O284 O 0.00991 0.58141 0.7729 0.0
O285 O 0.9042 0.48273 0.84735 0.0
C286 C 0.85603 0.57687 0.47934 0.0
O287 O 0.83855 0.52696 0.45351 0.0
O288 O 0.92688 0.52535 0.55425 0.0
Zn289 Zn 0.92581 0.53874 0.48374 0.0
O290 O 0.89838 0.47043 0.43529 0.0
C291 C 0.00699 0.56586 0.51055 0.0
O292 O 0.99268 0.58833 0.55298 0.0
O293 O 0.89502 0.59351 0.48392 0.0
C294 C 0.91871 0.43674 0.41772 0.0
O295 O 0.95882 0.44786 0.43103 0.0
C296 C 0.90087 0.48545 0.55837 0.0
O297 O 0.86384 0.47152 0.53049 0.0
O298 O 0.9833 0.55187 0.46696 0.0
C299 C 0.78995 0.43854 0.25819 0.0
O300 O 0.78496 0.42534 0.20604 0.0
O301 O 0.68599 0.53901 0.19183 0.0
Zn302 Zn 0.72743 0.54621 0.27913 0.0
O303 O 0.68812 0.55339 0.35942 0.0
C304 C 0.78244 0.67933 0.30663 0.0
O305 O 0.76256 0.69177 0.34707 0.0
O306 O 0.77133 0.47658 0.28231 0.0
C307 C 0.65081 0.55505 0.37403 0.0
O308 O 0.62249 0.55505 0.3365 0.0
C309 C 0.65504 0.55487 0.16967 0.0
O310 O 0.63295 0.57828 0.20225 0.0
O311 O 0.77415 0.62853 0.28041 0.0
Tb312 Tb 0.05944 0.03871 0.0064 0.0
C313 C 0.17948 0.24679 0.10846 0.0
C314 C 0.20936 0.28006 0.03953 0.0
C315 C 0.2155 0.34083 0.12647 0.0
C316 C 0.18817 0.23765 0.05792 0.0
C317 C 0.19106 0.29964 0.14265 0.0
C318 C 0.22494 0.33088 0.07486 0.0
C319 C 0.15403 0.26809 0.20637 0.0
N320 N 0.15862 0.20424 0.12351 0.0
C321 C 0.14401 0.21663 0.17195 0.0
C322 C 0.17883 0.30952 0.19252 0.0
Tb323 Tb 0.15538 0.11763 0.06298 0.0
N324 N 0.17025 0.18892 0.02468 0.0
C325 C 0.16603 0.18429 0.97101 0.0
C326 C 0.21135 0.27128 0.9854 0.0
C327 C 0.18774 0.22394 0.95068 0.0
H328 H 0.12765 0.1888 0.18989 0.0
H329 H 0.18533 0.21834 0.90816 0.0
H330 H 0.24174 0.36355 0.06173 0.0
H331 H 0.14402 0.27501 0.24508 0.0
H332 H 0.14494 0.15164 0.94291 0.0
H333 H 0.02244 0.93744 0.15935 0.0
H334 H 0.22775 0.30247 0.96985 0.0
H335 H 0.0926 0.96921 0.88196 0.0
H336 H 0.06399 1.00605 0.12797 0.0
H337 H 0.07246 0.8844 0.82365 0.0
H338 H 0.22607 0.38079 0.15297 0.0
H339 H 0.98315 0.85277 0.09548 0.0
H340 H 0.97175 0.7927 0.00335 0.0
H341 H 0.18816 0.34884 0.22035 0.0
H342 H 0.988 0.77736 0.91244 0.0
N343 N 0.0442 0.96743 0.04489 0.0
C344 C 0.04559 0.97204 0.09851 0.0
C345 C 1.00084 0.88415 0.08122 0.0
C346 C 1.00515 0.87589 0.02774 0.0
C347 C 0.02276 0.93175 0.11715 0.0
C348 C 0.02768 0.91859 0.01085 0.0
H349 H 0.02462 0.8113 0.84544 0.0
N350 N 0.05935 0.95301 0.9467 0.0
C351 C 0.06242 0.89073 0.86233 0.0
C352 C 0.03717 0.91031 0.96051 0.0
C353 C 0.07436 0.94129 0.89844 0.0
C354 C 0.03597 0.84955 0.87473 0.0
C355 C 0.02439 0.85826 0.92496 0.0
O356 O 0.00691 0.06251 0.97879 0.0
O357 O 0.09435 0.1208 0.034 0.0
O358 O 0.12015 0.1117 0.13414 0.0
O359 O 0.05298 0.07728 0.09258 0.0
O360 O 0.0527 0.10207 0.96663 0.0
O361 O 1.00393 1.01779 0.03679 0.0
O362 O 0.20706 0.09199 0.08889 0.0
O363 O 0.11991 0.03601 0.03536 0.0
O364 O 0.09431 0.04649 0.93554 0.0
O365 O 0.16157 0.08073 0.97662 0.0
O366 O 0.15847 0.05489 0.10521 0.0
O367 O 0.20978 0.13038 0.02667 0.0
C368 C 0.07872 0.14236 0.99991 0.0
C369 C 0.94188 0.03459 0.00511 0.0
C370 C 0.88171 0.06649 0.02064 0.0
C371 C 0.92378 0.07267 0.03322 0.0
C372 C 0.85854 0.02532 0.97716 0.0
C373 C 0.91742 0.9886 0.96868 0.0
C374 C 0.87633 0.98545 0.95248 0.0
C375 C 0.07899 0.10032 0.13781 0.0
C376 C 0.98621 0.04603 0.01356 0.0
C377 C 0.99917 0.81676 0.93991 0.0
C378 C 0.98949 0.82564 0.99139 0.0
C379 C 0.13352 1.01463 0.07055 0.0
C380 C 0.27249 0.11151 0.05846 0.0
C381 C 0.2928 0.09771 0.01438 0.0
C382 C 0.33558 0.10189 0.02201 0.0
C383 C 0.35795 0.12131 0.07368 0.0
C384 C 0.29495 0.12677 0.1092 0.0
C385 C 0.33745 0.13276 0.11708 0.0
C386 C 0.13537 0.05843 0.93162 0.0
C387 C 0.22725 0.10278 0.05136 0.0
H388 H 0.94207 0.10604 0.06527 0.0
H389 H 0.8262 0.02228 0.96489 0.0
H390 H 0.92955 0.95528 0.95259 0.0
H391 H 0.85851 0.95127 0.92185 0.0
H392 H 0.27519 0.08145 0.97476 0.0
H393 H 0.39071 0.12361 0.08096 0.0
H394 H 0.27876 0.13152 0.14238 0.0
H395 H 0.35428 0.14368 0.1568 0.0
Tb396 Tb 0.38159 0.8095 0.22513 0.0
C397 C 0.28944 0.93138 0.40326 0.0
C398 C 0.34354 0.99545 0.46876 0.0
C399 C 0.27258 0.98883 0.48153 0.0
C400 C 0.33052 0.95166 0.42269 0.0
C401 C 0.25986 0.94702 0.43438 0.0
C402 C 0.31423 1.01555 0.4966 0.0
C403 C 0.20706 0.88005 0.36965 0.0
N404 N 0.27844 0.89063 0.35825 0.0
C405 C 0.23742 0.86749 0.33924 0.0
C406 C 0.2187 0.91801 0.41875 0.0
Tb407 Tb 0.32765 0.84629 0.33327 0.0
N408 N 0.35686 0.92338 0.40171 0.0
C409 C 0.39534 0.93377 0.43056 0.0
C410 C 0.38515 1.01295 0.4898 0.0
C411 C 0.411 0.9812 0.4713 0.0
H412 H 0.22788 0.83601 0.30269 0.0
H413 H 0.44217 0.99305 0.49065 0.0
H414 H 0.32371 0.04784 0.53293 0.0
H415 H 0.17491 0.85936 0.35602 0.0
H416 H 0.41524 0.90773 0.41988 0.0
H417 H 0.26332 0.65148 0.08341 0.0
H418 H 0.39668 0.0473 0.52399 0.0
H419 H 0.48144 0.82099 0.25169 0.0
H420 H 0.29217 0.74318 0.14388 0.0
H421 H 0.53344 0.79653 0.19583 0.0
H422 H 0.25072 1.00014 0.50733 0.0
H423 H 0.30945 0.59979 0.04523 0.0
H424 H 0.38225 0.60195 0.02971 0.0
H425 H 0.19552 0.92576 0.44352 0.0
H426 H 0.45529 0.65101 0.05056 0.0
N427 N 0.35164 0.73015 0.15967 0.0
C428 C 0.31218 0.71732 0.13316 0.0
C429 C 0.32172 0.63627 0.07674 0.0
C430 C 0.36385 0.6564 0.09363 0.0
C431 C 0.29563 0.66703 0.09689 0.0
C432 C 0.37771 0.7021 0.1377 0.0
H433 H 0.51063 0.72813 0.10967 0.0
N434 N 0.43051 0.76567 0.1982 0.0
C435 C 0.5011 0.77608 0.18368 0.0
C436 C 0.41881 0.72384 0.15428 0.0
C437 C 0.47156 0.78929 0.21538 0.0
C438 C 0.48839 0.73711 0.13531 0.0
C439 C 0.44742 0.7075 0.12204 0.0
O440 O 0.42528 0.86561 0.20341 0.0
O441 O 0.37206 0.87278 0.28794 0.0
O442 O 0.29828 0.87776 0.27138 0.0
O443 O 0.32362 0.83219 0.19804 0.0
O444 O 0.43198 0.87071 0.27845 0.0
O445 O 0.36507 0.82696 0.15396 0.0
O446 O 0.28223 0.79243 0.35392 0.0
O447 O 0.33662 0.78204 0.27032 0.0
O448 O 0.41368 0.78118 0.28839 0.0
O449 O 0.38535 0.82289 0.36076 0.0
O450 O 0.27711 0.78598 0.27959 0.0
O451 O 0.34303 0.82663 0.40339 0.0
C452 C 0.40918 0.89606 0.30571 0.0
C453 C 0.41567 0.87943 0.11948 0.0
C454 C 0.4181 0.94465 0.07183 0.0
C455 C 0.39999 0.91901 0.10639 0.0
C456 C 0.45204 0.93029 0.04973 0.0
C457 C 0.44854 0.86306 0.0968 0.0
C458 C 0.46651 0.88867 0.0612 0.0
C459 C 0.29731 0.86037 0.21857 0.0
C460 C 0.39968 0.86304 0.16249 0.0
C461 C 0.43399 0.66363 0.07669 0.0
C462 C 0.39241 0.63595 0.06448 0.0
C463 C 0.29917 0.75949 0.25229 0.0
C464 C 0.2886 0.78362 0.43895 0.0
C465 C 0.29316 0.73671 0.44776 0.0
C466 C 0.26774 0.71336 0.47763 0.0
C467 C 0.24045 0.73967 0.50426 0.0
C468 C 0.26138 0.81099 0.46375 0.0
C469 C 0.23821 0.7895 0.49828 0.0
C470 C 0.41337 0.79711 0.34121 0.0
C471 C 0.3069 0.79368 0.39519 0.0
H472 H 0.37454 0.93137 0.12472 0.0
H473 H 0.46742 0.95134 0.0241 0.0
H474 H 0.46097 0.83252 0.10794 0.0
H475 H 0.4925 0.87799 0.04414 0.0
H476 H 0.31496 0.71638 0.42855 0.0
H477 H 0.22152 0.72236 0.52976 0.0
H478 H 0.2578 0.84766 0.45608 0.0
H479 H 0.2186 0.81121 0.51973 0.0
Tb480 Tb 0.64583 0.06944 0.49015 0.0
C481 C 0.53183 0.02158 0.63972 0.0
C482 C 0.48456 0.94085 0.58244 0.0
C483 C 0.49139 0.95867 0.67825 0.0
C484 C 0.51309 0.98977 0.58892 0.0
C485 C 0.52321 1.00423 0.68433 0.0
C486 C 0.4719 0.92736 0.62743 0.0
C487 C 0.57344 0.0831 0.73917 0.0
N488 N 0.55987 0.06821 0.64534 0.0
C489 C 0.57781 0.10155 0.69436 0.0
C490 C 0.54751 0.03286 0.73329 0.0
Tb491 Tb 0.56792 0.08749 0.56846 0.0
N492 N 0.52462 1.00525 0.54603 0.0
C493 C 0.51025 0.97269 0.49553 0.0
C494 C 0.47094 0.90614 0.5313 0.0
C495 C 0.48524 0.92145 0.48779 0.0
H496 H 0.59822 0.14006 0.69775 0.0
H497 H 0.47661 0.89443 0.44826 0.0
H498 H 0.44923 0.89064 0.62296 0.0
H499 H 0.59056 0.10678 0.77761 0.0
H500 H 0.51955 0.98446 0.46124 0.0
H501 H 0.73969 0.264 0.60616 0.0
H502 H 0.45032 0.86715 0.52519 0.0
H503 H 0.61346 1.01765 0.35881 0.0
H504 H 0.69957 0.17388 0.59532 0.0
H505 H 0.613 0.05296 0.28074 0.0
H506 H 0.48235 0.94665 0.71243 0.0
H507 H 0.75675 0.2946 0.52794 0.0
H508 H 0.75163 0.27313 0.43089 0.0
H509 H 0.54715 1.01607 0.76639 0.0
H510 H 0.71304 0.21874 0.34268 0.0
N511 N 0.68741 0.1537 0.50982 0.0
C512 C 0.70554 0.18566 0.55973 0.0
C513 C 0.73815 0.25462 0.52256 0.0
C514 C 0.72129 0.2209 0.47199 0.0
C515 C 0.72919 0.23734 0.56674 0.0
C516 C 0.69434 0.17113 0.46669 0.0
H517 H 0.65122 0.14579 0.29066 0.0
N518 N 0.64809 0.09181 0.41259 0.0
C519 C 0.63019 0.07771 0.31877 0.0
C520 C 0.67322 0.14004 0.41711 0.0
C521 C 0.63 0.05842 0.3633 0.0
C522 C 0.65287 0.12934 0.32408 0.0
C523 C 0.67787 0.15874 0.37229 0.0
O524 O 0.6773 0.02714 0.43609 0.0
O525 O 0.59754 0.02925 0.5247 0.0
O526 O 0.61613 0.06724 0.61606 0.0
O527 O 0.67223 0.08318 0.57136 0.0
O528 O 0.62328 0.98096 0.47325 0.0
O529 O 0.70188 0.05764 0.52112 0.0
O530 O 0.5412 0.14377 0.61478 0.0
O531 O 0.6123 0.12814 0.52824 0.0
O532 O 0.58689 0.04885 0.4382 0.0
O533 O 0.54766 0.09427 0.49089 0.0
O534 O 0.60456 0.17118 0.6016 0.0
O535 O 0.50625 0.08417 0.54203 0.0
C536 C 0.59716 0.97967 0.50613 0.0
C537 C 0.74452 1.01744 0.46358 0.0
C538 C 0.80105 0.98257 0.49053 0.0
C539 C 0.76202 0.99121 0.49614 0.0
C540 C 0.82197 0.99839 0.45092 0.0
C541 C 0.76495 0.03233 0.42324 0.0
C542 C 0.80371 0.02254 0.4171 0.0
C543 C 0.65569 0.07221 0.61182 0.0
C544 C 0.70537 0.02897 0.4745 0.0
C545 C 0.70754 0.20566 0.37705 0.0
C546 C 0.72957 0.23623 0.42668 0.0
C547 C 0.62198 0.17543 0.56038 0.0
C548 C 0.46909 0.13969 0.59401 0.0
C549 C 0.45036 0.16588 0.56237 0.0
C550 C 0.41206 0.1761 0.57108 0.0
C551 C 0.39297 0.16099 0.61233 0.0
C552 C 0.45026 0.12521 0.63558 0.0
C553 C 0.41221 0.13611 0.64464 0.0
C554 C 0.55591 0.07142 0.44443 0.0
C555 C 0.50727 0.12644 0.5803 0.0
H556 H 0.74582 0.97901 0.52687 0.0
H557 H 0.85217 0.99133 0.4457 0.0
H558 H 0.7515 0.05222 0.39749 0.0
H559 H 0.82014 0.03471 0.38692 0.0
H560 H 0.46527 0.17751 0.53049 0.0
H561 H 0.3636 0.16949 0.62023 0.0
H562 H 0.46458 0.10508 0.66031 0.0
H563 H 0.39738 0.12483 0.67641 0.0
Tb564 Tb 0.3104 0.35473 0.78563 0.0
C565 C 0.43771 0.26824 0.87433 0.0
C566 C 0.46945 0.34466 0.94772 0.0
C567 C 0.46636 0.25682 0.95792 0.0
C568 C 0.44877 0.32222 0.89518 0.0
C569 C 0.44567 0.23478 0.90566 0.0
C570 C 0.4793 0.31194 0.97852 0.0
C571 C 0.41786 0.16073 0.82905 0.0
N572 N 0.41761 0.2481 0.82394 0.0
C573 C 0.4113 0.19527 0.79943 0.0
C574 C 0.43348 0.18003 0.88291 0.0
Tb575 Tb 0.39962 0.30664 0.78223 0.0
N576 N 0.43535 0.35224 0.8661 0.0
C577 C 0.43818 0.40461 0.89025 0.0
C578 C 0.4759 0.39872 0.96987 0.0
C579 C 0.45707 0.42795 0.94273 0.0
H580 H 0.39855 0.17959 0.75787 0.0
H581 H 0.45661 0.46848 0.96167 0.0
H582 H 0.49476 0.32872 0.01918 0.0
H583 H 0.41288 0.11967 0.80985 0.0
H584 H 0.42221 0.42754 0.87175 0.0
H585 H 0.25359 0.19255 0.6064 0.0
H586 H 0.49295 0.41631 0.00927 0.0
H587 H 0.31733 0.48341 0.80579 0.0
H588 H 0.28686 0.23355 0.69706 0.0
H589 H 0.32073 0.54006 0.74742 0.0
H590 H 0.47299 0.2316 0.98239 0.0
H591 H 0.2188 0.24497 0.55794 0.0
H592 H 0.22336 0.33225 0.54503 0.0
H593 H 0.43882 0.15262 0.90542 0.0
H594 H 0.247 0.42936 0.58011 0.0
N595 N 0.27446 0.30907 0.70178 0.0
C596 C 0.27131 0.25651 0.67808 0.0
C597 C 0.23529 0.26249 0.59751 0.0
C598 C 0.24273 0.3167 0.61887 0.0
C599 C 0.2531 0.23308 0.62533 0.0
C600 C 0.26215 0.33916 0.6719 0.0
H601 H 0.28595 0.50784 0.65459 0.0
N602 N 0.29394 0.41335 0.74243 0.0
C603 C 0.30393 0.50039 0.73223 0.0
C604 C 0.27438 0.39312 0.69184 0.0
C605 C 0.30353 0.46687 0.76473 0.0
C606 C 0.28628 0.48085 0.67923 0.0
C607 C 0.26974 0.42641 0.65877 0.0
O608 O 0.28306 0.40152 0.84188 0.0
O609 O 0.35216 0.32484 0.82813 0.0
O610 O 0.34886 0.2346 0.78618 0.0
O611 O 0.29083 0.26889 0.79051 0.0
O612 O 0.33521 0.38973 0.87123 0.0
O613 O 0.24893 0.32249 0.79294 0.0
O614 O 0.42631 0.26182 0.7235 0.0
O615 O 0.35795 0.33689 0.73966 0.0
O616 O 0.36245 0.4263 0.78367 0.0
O617 O 0.42009 0.39202 0.7775 0.0
O618 O 0.37285 0.26959 0.69781 0.0
O619 O 0.46064 0.33969 0.77407 0.0
C620 C 0.35419 0.35366 0.87505 0.0
C621 C 0.21057 0.3759 0.84401 0.0
C622 C 0.14838 0.35614 0.88384 0.0
C623 C 0.18753 0.34878 0.87549 0.0
C624 C 0.13328 0.39288 0.86263 0.0
C625 C 0.19558 0.41274 0.82329 0.0
C626 C 0.15699 0.42134 0.83292 0.0
C627 C 0.30837 0.22801 0.79011 0.0
C628 C 0.24948 0.36314 0.8329 0.0
C629 C 0.25055 0.4043 0.60602 0.0
C630 C 0.23621 0.34932 0.58644 0.0
C631 C 0.35525 0.30674 0.69324 0.0
C632 C 0.49888 0.28598 0.72424 0.0
C633 C 0.52328 0.31148 0.69282 0.0
C634 C 0.56224 0.30252 0.6861 0.0
C635 C 0.57582 0.26582 0.70899 0.0
C636 C 0.51235 0.24919 0.74667 0.0
C637 C 0.55072 0.23886 0.73861 0.0
C638 C 0.40266 0.43289 0.77869 0.0
C639 C 0.46005 0.29998 0.73314 0.0
H640 H 0.19937 0.32041 0.89159 0.0
H641 H 0.10326 0.39979 0.86936 0.0
H642 H 0.21345 0.43421 0.79949 0.0
H643 H 0.14518 0.44944 0.81656 0.0
H644 H 0.51257 0.33971 0.6753 0.0
H645 H 0.60561 0.25756 0.70339 0.0
H646 H 0.49341 0.22889 0.77039 0.0
H647 H 0.56122 0.21036 0.75584 0.0
Tb648 Tb 0.09883 0.14133 0.56946 0.0
C649 C 0.12304 0.98632 0.37695 0.0
C650 C 0.05466 0.95963 0.32644 0.0
C651 C 0.11258 0.94542 0.2812 0.0
C652 C 0.08117 0.98046 0.37552 0.0
C653 C 0.1393 0.97055 0.32916 0.0
C654 C 0.0702 0.93986 0.27983 0.0
C655 C 0.20732 1.00978 0.37798 0.0
N656 N 0.1479 1.01049 0.42435 0.0
C657 C 0.19005 1.01984 0.42488 0.0
C658 C 0.18193 0.98299 0.33016 0.0
Tb659 Tb 0.11223 0.02078 0.49783 0.0
N660 N 0.06702 1.00083 0.42106 0.0
C661 C 0.02688 1.00368 0.41928 0.0
C662 C 0.01422 0.9642 0.32458 0.0
C663 C 1.00118 0.98987 0.37055 0.0
H664 H 0.21146 0.0346 0.46119 0.0
H665 H 0.97125 0.99867 0.36893 0.0
H666 H 0.05009 0.92362 0.24205 0.0
H667 H 0.24055 1.01967 0.37935 0.0
H668 H 0.01583 0.02181 0.45469 0.0
H669 H 0.2385 0.16283 0.70016 0.0
H670 H 0.99413 0.95073 0.28713 0.0
H671 H 0.99898 0.12717 0.60433 0.0
H672 H 0.19462 0.14003 0.6137 0.0
H673 H 0.96905 0.14295 0.68546 0.0
H674 H 0.12464 0.9332 0.24449 0.0
H675 H 0.2153 0.21156 0.78124 0.0
H676 H 0.15859 0.2381 0.82548 0.0
H677 H 0.19553 0.97265 0.29422 0.0
H678 H 0.08392 0.22863 0.82166 0.0
N679 N 0.14321 0.16083 0.64668 0.0
C680 C 0.18336 0.1581 0.649 0.0
C681 C 0.19532 0.19774 0.74366 0.0
C682 C 0.15481 0.20215 0.74121 0.0
C683 C 0.20864 0.17181 0.69804 0.0
C684 C 0.12865 0.1811 0.69189 0.0
H685 H 0.01341 0.19017 0.77099 0.0
N686 N 0.0623 0.15086 0.64215 0.0
C687 C 1.00232 0.15247 0.68737 0.0
C688 C 0.08675 0.17517 0.6898 0.0
C689 C 0.02008 0.1417 0.64093 0.0
C690 C 0.02735 0.17937 0.73541 0.0
C691 C 0.07005 0.19133 0.73712 0.0
O692 O 0.0743 0.20739 0.58635 0.0
O693 O 0.09149 0.09168 0.48779 0.0
O694 O 0.17217 0.08048 0.5064 0.0
O695 O 0.15609 0.16126 0.53141 0.0
O696 O 0.06072 0.14917 0.49762 0.0
O697 O 0.13947 0.21625 0.58126 0.0
O698 O 0.13634 0.95411 0.48199 0.0
O699 O 0.12009 0.07059 0.57951 0.0
O700 O 0.03869 0.08201 0.55913 0.0
O701 O 0.05555 1.0017 0.53694 0.0
O702 O 0.15039 1.01254 0.56936 0.0
O703 O 0.07088 0.94648 0.48592 0.0
C704 C 0.06919 0.11354 0.45994 0.0
C705 C 0.10596 0.27367 0.54906 0.0
C706 C 0.13093 0.31583 0.48177 0.0
C707 C 0.13571 0.28384 0.51563 0.0
C708 C 0.09461 0.33358 0.47857 0.0
C709 C 0.07173 0.29562 0.54818 0.0
C710 C 0.0656 0.32404 0.51197 0.0
C711 C 0.1819 0.13253 0.51208 0.0
C712 C 0.10909 0.23962 0.5843 0.0
C713 C 0.0964 0.21648 0.78532 0.0
C714 C 0.13883 0.22196 0.78743 0.0
C715 C 0.14203 0.04811 0.60722 0.0
C716 C 0.10274 0.88732 0.51728 0.0
C717 C 0.08026 0.88774 0.56056 0.0
C718 C 0.0851 0.85441 0.59315 0.0
C719 C 0.11306 0.82238 0.58292 0.0
C720 C 0.1295 0.85385 0.50709 0.0
C721 C 0.13472 0.82187 0.54006 0.0
C722 C 0.02946 0.03036 0.55512 0.0
C723 C 0.10089 0.9225 0.4831 0.0
H724 H 0.1625 0.26762 0.51617 0.0
H725 H 0.08884 0.35653 0.45185 0.0
H726 H 0.04921 0.28986 0.57465 0.0
H727 H 0.03851 0.33921 0.50991 0.0
H728 H 0.05955 0.91364 0.56904 0.0
H729 H 0.11772 0.79655 0.60732 0.0
H730 H 0.14645 0.85257 0.47359 0.0
H731 H 0.15428 0.79479 0.53143 0.0
Tb732 Tb 0.39376 0.84384 0.74835 0.0
C733 C 0.33136 0.76161 0.90836 0.0
C734 C 0.33238 0.67064 0.86794 0.0
C735 C 0.34175 0.70362 0.96386 0.0
C736 C 0.32679 0.72011 0.8634 0.0
C737 C 0.33767 0.75331 0.95922 0.0
C738 C 0.3401 0.66275 0.91831 0.0
C739 C 0.33223 0.84249 0.99757 0.0
N740 N 0.32738 0.80921 0.90242 0.0
C741 C 0.32708 0.84949 0.94668 0.0
C742 C 0.33846 0.7946 0.00401 0.0
Tb743 Tb 0.31555 0.81329 0.8155 0.0
N744 N 0.31686 0.72792 0.81525 0.0
C745 C 0.31059 0.68641 0.77066 0.0
C746 C 0.33129 0.63107 0.82172 0.0
C747 C 0.32066 0.63964 0.77251 0.0
H748 H 0.32082 0.88639 0.94255 0.0
H749 H 0.31905 0.61126 0.73485 0.0
H750 H 0.34491 0.62534 0.92263 0.0
H751 H 0.33001 0.87342 0.03172 0.0
H752 H 0.2984 0.6879 0.73288 0.0
H753 H 0.38832 0.04702 0.83642 0.0
H754 H 0.3385 0.59439 0.82461 0.0
H755 H 0.3826 0.77258 0.61899 0.0
H756 H 0.41275 0.96948 0.83574 0.0
H757 H 0.36743 0.78693 0.5315 0.0
H758 H 0.3467 0.6967 0.00252 0.0
H759 H 0.36387 0.06219 0.75007 0.0
H760 H 0.35928 0.03603 0.65179 0.0
H761 H 0.34217 0.78914 0.04354 0.0
H762 H 0.3564 0.96686 0.56959 0.0
N763 N 0.39228 0.93054 0.75312 0.0
C764 C 0.39897 0.9714 0.79879 0.0
C765 C 0.37368 0.02643 0.7508 0.0
C766 C 0.37363 0.98879 0.70351 0.0
C767 C 0.38673 1.01778 0.79898 0.0
C768 C 0.38078 0.93936 0.70584 0.0
H769 H 0.35808 0.87411 0.52442 0.0
N770 N 0.37865 0.85001 0.66296 0.0
C771 C 0.36874 0.81838 0.56711 0.0
C772 C 0.3749 0.89855 0.6595 0.0
C773 C 0.37662 0.81026 0.61716 0.0
C774 C 0.36367 0.86762 0.56329 0.0
C775 C 0.36682 0.90837 0.60963 0.0
O776 O 0.43969 0.84888 0.69799 0.0
O777 O 0.37796 0.79326 0.80161 0.0
O778 O 0.35827 0.88079 0.86762 0.0
O779 O 0.41835 0.88127 0.83216 0.0
O780 O 0.40112 0.76105 0.73415 0.0
O781 O 0.45585 0.85652 0.78144 0.0
O782 O 0.26806 0.8123 0.86294 0.0
O783 O 0.3314 0.86364 0.76228 0.0
O784 O 0.35145 0.77421 0.6969 0.0
O785 O 0.29115 0.77305 0.73229 0.0
O786 O 0.30939 0.89657 0.83039 0.0
O787 O 0.25445 0.80027 0.77841 0.0
C788 C 0.39326 0.75228 0.77899 0.0
C789 C 0.51184 0.85572 0.72843 0.0
C790 C 0.58202 0.86064 0.76444 0.0
C791 C 0.53992 0.85172 0.76888 0.0
C792 C 0.59612 0.8746 0.7199 0.0
C793 C 0.52569 0.86107 0.68062 0.0
C794 C 0.56781 0.87307 0.67733 0.0
C795 C 0.39825 0.89326 0.87239 0.0
C796 C 0.46823 0.85139 0.73538 0.0
C797 C 0.3626 0.95871 0.60739 0.0
C798 C 0.36479 0.99831 0.6542 0.0
C799 C 0.31645 0.90484 0.78519 0.0
C800 C 0.19754 0.80791 0.82865 0.0
C801 C 0.17033 0.80581 0.78441 0.0
C802 C 0.12806 0.79675 0.78659 0.0
C803 C 0.1131 0.78992 0.83336 0.0
C804 C 0.18281 0.80956 0.87741 0.0
C805 C 0.1405 0.79825 0.87923 0.0
C806 C 0.31139 0.76066 0.6924 0.0
C807 C 0.24109 0.80991 0.82387 0.0
H808 H 0.52912 0.84168 0.8037 0.0
H809 H 0.62871 0.88393 0.71674 0.0
H810 H 0.50417 0.85541 0.64566 0.0
H811 H 0.57848 0.87969 0.64131 0.0
H812 H 0.18195 0.8115 0.74845 0.0
H813 H 0.08038 0.77822 0.83447 0.0
H814 H 0.20372 0.81835 0.91383 0.0
H815 H 0.12899 0.7957 0.91603 0.0
Tb816 Tb 0.60563 0.04669 0.08589 0.0
C817 C 0.53826 0.12048 0.90179 0.0
C818 C 0.50442 0.03506 0.8412 0.0
C819 C 0.49609 0.11561 0.82002 0.0
C820 C 0.53317 0.0663 0.8859 0.0
C821 C 0.52048 0.14608 0.86852 0.0
C822 C 0.48602 0.06007 0.80791 0.0
C823 C 0.55093 0.22955 0.9344 0.0
N824 N 0.56226 0.14829 0.94871 0.0
C825 C 0.56769 0.20221 0.96602 0.0
C826 C 0.52867 0.20154 0.88439 0.0
Tb827 Tb 0.6066 0.10492 0.97879 0.0
N828 N 0.55576 0.04424 0.91509 0.0
C829 C 0.54856 0.98994 0.90362 0.0
C830 C 0.4975 0.97988 0.82922 0.0
C831 C 0.51935 0.95726 0.86088 0.0
H832 H 0.58791 0.22477 0.00217 0.0
H833 H 0.51314 0.91474 0.85375 0.0
H834 H 0.46648 0.037 0.77085 0.0
H835 H 0.55682 0.27245 0.94748 0.0
H836 H 0.56401 0.971 0.92815 0.0
H837 H 0.69818 0.23799 0.20905 0.0
H838 H 0.4754 0.95471 0.79577 0.0
H839 H 0.63024 0.92939 0.05932 0.0
H840 H 0.64404 0.18181 0.13948 0.0
H841 H 0.65939 0.88248 0.11562 0.0
H842 H 0.4845 0.1345 0.79195 0.0
H843 H 0.73543 0.19972 0.26872 0.0
H844 H 0.74179 0.11755 0.29784 0.0
H845 H 0.51713 0.22305 0.85897 0.0
H846 H 0.73024 0.02004 0.27222 0.0
N847 N 0.65167 0.10878 0.15389 0.0
C848 C 0.65882 0.16306 0.1647 0.0
C849 C 0.71166 0.17399 0.23746 0.0
C850 C 0.70372 0.11883 0.22745 0.0
C851 C 0.68996 0.196 0.20499 0.0
C852 C 0.6755 0.08718 0.18244 0.0
H853 H 0.6979 0.93175 0.20489 0.0
N854 N 0.65327 1.00652 0.11445 0.0
C855 C 0.66492 0.92535 0.129 0.0
C856 C 0.67472 0.03397 0.16338 0.0
C857 C 0.64938 0.95268 0.09644 0.0
C858 C 0.68644 0.95328 0.17942 0.0
C859 C 0.69339 1.00856 0.19617 0.0
O860 O 0.5708 0.96979 0.08132 0.0
O861 O 0.5741 0.04774 0.0121 0.0
O862 O 0.58256 0.15393 0.04276 0.0
O863 O 0.57787 0.11508 0.11435 0.0
O864 O 0.53871 0.02669 0.06512 0.0
O865 O 0.59102 0.03455 0.15648 0.0
O866 O 0.643 0.17691 0.97377 0.0
O867 O 0.63665 0.10504 0.0541 0.0
O868 O 0.63692 1.00369 0.02357 0.0
O869 O 0.62956 0.03547 0.94892 0.0
O870 O 0.67361 0.12438 0.00218 0.0
O871 O 0.63124 0.10106 0.90891 0.0
C872 C 0.53711 0.03812 0.02065 0.0
C873 C 0.5394 0.96274 0.15684 0.0
C874 C 0.49936 0.99105 0.22373 0.0
C875 C 0.51466 0.99595 0.17771 0.0
C876 C 0.50539 0.94985 0.24564 0.0
C877 C 0.5441 0.92039 0.1769 0.0
C878 C 0.52743 0.91451 0.22203 0.0
C879 C 0.57149 0.15151 0.08975 0.0
C880 C 0.57306 0.98419 0.13323 0.0
C881 C 0.71654 0.03884 0.24564 0.0
C882 C 0.72306 0.09427 0.2603 0.0
C883 C 0.67378 0.11668 0.04804 0.0
C884 C 0.66426 0.17992 0.89092 0.0
C885 C 0.69868 0.16813 0.87115 0.0
C886 C 0.71328 0.18937 0.83219 0.0
C887 C 0.69257 0.22149 0.81074 0.0
C888 C 0.64371 0.21343 0.87231 0.0
C889 C 0.65806 0.2344 0.83175 0.0
C890 C 0.64325 1.0045 0.97435 0.0
C891 C 0.6505 0.15162 0.92753 0.0
H892 H 0.5129 0.0303 0.16336 0.0
H893 H 0.49601 0.9471 0.28299 0.0
H894 H 0.56492 0.89629 0.16187 0.0
H895 H 0.53495 0.88603 0.24155 0.0
H896 H 0.71288 0.13949 0.88385 0.0
H897 H 0.70202 0.23503 0.77713 0.0
H898 H 0.61662 0.22215 0.88773 0.0
H899 H 0.64182 0.25909 0.8156 0.0
Tb900 Tb 0.39018 0.39393 0.29336 0.0
C901 C 0.23325 0.24049 0.26658 0.0
C902 C 0.21663 0.23471 0.35251 0.0
C903 C 0.18444 0.16191 0.27498 0.0
C904 C 0.24191 0.25773 0.32006 0.0
C905 C 0.20806 0.18899 0.24383 0.0
C906 C 0.18647 0.18683 0.32913 0.0
C907 C 0.23252 0.19553 0.16215 0.0
N908 N 0.25926 0.26577 0.23864 0.0
C909 C 0.25167 0.24806 0.18519 0.0
C910 C 0.21136 0.16462 0.19203 0.0
Tb911 Tb 0.32472 0.27597 0.27553 0.0
N912 N 0.27955 0.29048 0.33945 0.0
C913 C 0.28704 0.31638 0.39284 0.0
C914 C 0.22545 0.25791 0.40724 0.0
C915 C 0.25977 0.30117 0.42723 0.0
H916 H 0.26384 0.2719 0.15988 0.0
H917 H 0.26623 0.32146 0.46928 0.0
H918 H 0.16758 0.16665 0.35305 0.0
H919 H 0.2318 0.18306 0.12064 0.0
H920 H 0.31235 0.35079 0.40925 0.0
H921 H 0.44089 0.33891 0.09303 0.0
H922 H 0.20608 0.24319 0.43399 0.0
H923 H 0.45542 0.38946 0.39951 0.0
H924 H 0.39727 0.31322 0.15695 0.0
H925 H 0.49491 0.47636 0.44002 0.0
H926 H 0.16557 0.12169 0.25788 0.0
H927 H 0.50125 0.4175 0.12311 0.0
H928 H 0.54411 0.49465 0.20213 0.0
H929 H 0.19647 0.12343 0.17611 0.0
H930 H 0.55151 0.53984 0.29832 0.0
N931 N 0.43155 0.37626 0.22414 0.0
C932 C 0.42289 0.34755 0.17145 0.0
C933 C 0.48294 0.40454 0.1516 0.0
C934 C 0.49377 0.42934 0.20586 0.0
C935 C 0.44857 0.36094 0.13461 0.0
C936 C 0.46958 0.40844 0.24035 0.0
H937 H 0.52764 0.53724 0.38602 0.0
N938 N 0.45674 0.39926 0.32219 0.0
C939 C 0.49054 0.46537 0.39853 0.0
C940 C 0.48127 0.42442 0.29292 0.0
C941 C 0.46819 0.41385 0.37497 0.0
C942 C 0.51059 0.49687 0.3686 0.0
C943 C 0.50953 0.47383 0.31518 0.0
O944 O 0.41011 0.46381 0.35525 0.0
O945 O 0.3328 0.35667 0.31589 0.0
O946 O 0.3297 0.30249 0.19764 0.0
O947 O 0.35651 0.39336 0.22 0.0
O948 O 0.33186 0.42028 0.28953 0.0
O949 O 0.41192 0.46607 0.27477 0.0
O950 O 0.31323 0.2048 0.21553 0.0
O951 O 0.38147 0.31292 0.25255 0.0
O952 O 0.38609 0.36901 0.37269 0.0
O953 O 0.35641 0.2785 0.35083 0.0
O954 O 0.38418 0.25417 0.28546 0.0
O955 O 0.30096 0.20458 0.29398 0.0
C956 C 0.30895 0.38517 0.30714 0.0
C957 C 0.40326 0.54067 0.33527 0.0
C958 C 0.34586 0.57772 0.32161 0.0
C959 C 0.36676 0.53922 0.30502 0.0
C960 C 0.36347 0.62152 0.36594 0.0
C961 C 0.42152 0.58395 0.37943 0.0
C962 C 0.40185 0.6251 0.39416 0.0
C963 C 0.33796 0.34925 0.18414 0.0
C964 C 0.41906 0.49398 0.32417 0.0
C965 C 0.53144 0.50035 0.28224 0.0
C966 C 0.52586 0.47572 0.22742 0.0
C967 C 0.40557 0.28524 0.26241 0.0
C968 C 0.31344 0.1287 0.24288 0.0
C969 C 0.35109 0.13517 0.2724 0.0
C970 C 0.3689 0.09346 0.26727 0.0
C971 C 0.3483 0.04262 0.2346 0.0
C972 C 0.2909 0.0781 0.21177 0.0
C973 C 0.30873 0.03489 0.20716 0.0
C974 C 0.37543 0.32248 0.3866 0.0
C975 C 0.29874 0.17559 0.24589 0.0
H976 H 0.35307 0.50641 0.27007 0.0
H977 H 0.34775 0.65271 0.37841 0.0
H978 H 0.45009 0.58511 0.40296 0.0
H979 H 0.41562 0.65873 0.42825 0.0
H980 H 0.36641 0.17241 0.30113 0.0
H981 H 0.36218 1.00926 0.23149 0.0
H982 H 0.26019 0.07219 0.1909 0.0
H983 H 0.29199 0.9958 0.18263 0.0
Tb984 Tb 0.59887 0.64136 0.06943 0.0
C985 C 0.62302 0.48629 0.8769 0.0
C986 C 0.55464 0.45963 0.82642 0.0
C987 C 0.61253 0.44536 0.78116 0.0
C988 C 0.58116 0.48046 0.87548 0.0
C989 C 0.63926 0.47048 0.8291 0.0
C990 C 0.57015 0.43984 0.7798 0.0
C991 C 0.7073 0.50969 0.87789 0.0
N992 N 0.64789 0.51048 0.92429 0.0
C993 C 0.69004 0.51981 0.92479 0.0
C994 C 0.68189 0.48289 0.83008 0.0
Tb995 Tb 0.61224 0.5208 0.99778 0.0
N996 N 0.56702 0.50087 0.92103 0.0
C997 C 0.52688 0.50372 0.91926 0.0
C998 C 0.5142 0.46422 0.82457 0.0
C999 C 0.50117 0.4899 0.87054 0.0
H1000 H 0.71146 0.53465 0.96108 0.0
H1001 H 0.47124 0.4987 0.86893 0.0
H1002 H 0.55004 0.4236 0.74203 0.0
H1003 H 0.74053 0.51957 0.87924 0.0
H1004 H 0.51584 0.52186 0.95467 0.0
H1005 H 0.73852 0.66284 0.20013 0.0
H1006 H 0.4941 0.45074 0.78712 0.0
H1007 H 0.499 0.62711 0.10433 0.0
H1008 H 0.69464 0.64004 0.11368 0.0
H1009 H 0.46908 0.6429 0.18544 0.0
H1010 H 0.62458 0.43313 0.74444 0.0
H1011 H 0.71532 0.71156 0.28122 0.0
H1012 H 0.65861 0.7381 0.32546 0.0
H1013 H 0.69548 0.47251 0.79414 0.0
H1014 H 0.58395 0.72865 0.32165 0.0
N1015 N 0.64324 0.66085 0.14666 0.0
C1016 C 0.68338 0.65811 0.14898 0.0
C1017 C 0.69534 0.69774 0.24364 0.0
C1018 C 0.65483 0.70217 0.24119 0.0
C1019 C 0.70866 0.67182 0.19802 0.0
C1020 C 0.62867 0.68112 0.19187 0.0
H1021 H 0.51344 0.69017 0.27097 0.0
N1022 N 0.56234 0.65088 0.14213 0.0
C1023 C 0.50235 0.65245 0.18736 0.0
C1024 C 0.58678 0.67519 0.18978 0.0
C1025 C 0.52011 0.64167 0.14091 0.0
C1026 C 0.52738 0.67937 0.23539 0.0
C1027 C 0.57008 0.69135 0.23709 0.0
O1028 O 0.57437 0.70744 0.08637 0.0
O1029 O 0.59153 0.59171 0.98776 0.0
O1030 O 0.67218 0.58048 0.00631 0.0
O1031 O 0.65613 0.66128 0.0314 0.0
O1032 O 0.56073 0.64919 0.9976 0.0
O1033 O 0.63952 0.71625 0.08117 0.0
O1034 O 0.6363 0.45409 0.98199 0.0
O1035 O 0.62011 0.5706 0.07946 0.0
O1036 O 0.53872 0.58203 0.05907 0.0
O1037 O 0.5556 0.50175 0.03697 0.0
O1038 O 0.6504 0.51254 0.06932 0.0
O1039 O 0.57083 0.44654 0.98577 0.0
C1040 C 0.56921 0.61357 0.95992 0.0
C1041 C 0.60601 0.77371 0.04906 0.0
C1042 C 0.63095 0.81597 0.98182 0.0
C1043 C 0.63574 0.78393 0.01562 0.0
C1044 C 0.59463 0.83372 0.97868 0.0
C1045 C 0.57177 0.79563 0.04822 0.0
C1046 C 0.56561 0.82409 0.01204 0.0
C1047 C 0.68193 0.63254 0.01204 0.0
C1048 C 0.60916 0.73965 0.08427 0.0
C1049 C 0.59642 0.7165 0.2853 0.0
C1050 C 0.63885 0.72198 0.28741 0.0
C1051 C 0.64204 0.54813 0.10718 0.0
C1052 C 0.60253 0.38726 0.0171 0.0
C1053 C 0.58022 0.38794 0.06056 0.0
C1054 C 0.58503 0.3546 0.09315 0.0
C1055 C 0.61282 0.32234 0.08275 0.0
C1056 C 0.62902 0.35347 0.00666 0.0
C1057 C 0.6342 0.32147 0.03963 0.0
C1058 C 0.5295 0.53039 0.05511 0.0
C1059 C 0.6008 0.42251 0.98298 0.0
H1060 H 0.66253 0.7677 0.01612 0.0
H1061 H 0.58883 0.85669 0.95202 0.0
H1062 H 0.54924 0.78983 0.07467 0.0
H1063 H 0.53849 0.83918 0.00996 0.0
H1064 H 0.55967 0.41402 0.06917 0.0
H1065 H 0.61752 0.29657 0.10719 0.0
H1066 H 0.64581 0.35196 0.973 0.0
H1067 H 0.65348 0.29409 0.0308 0.0
Tb1068 Tb 0.8938 0.34401 0.24837 0.0
C1069 C 0.83146 0.26176 0.40835 0.0
C1070 C 0.83241 0.17078 0.36787 0.0
C1071 C 0.84175 0.2037 0.4638 0.0
C1072 C 0.82687 0.22027 0.36337 0.0
C1073 C 0.83772 0.25341 0.45919 0.0
C1074 C 0.84013 0.16286 0.41823 0.0
C1075 C 0.83226 0.34255 0.49759 0.0
N1076 N 0.8275 0.30938 0.40244 0.0
C1077 C 0.82717 0.34963 0.44672 0.0
C1078 C 0.83849 0.29466 0.504 0.0
Tb1079 Tb 0.81563 0.31347 0.31555 0.0
N1080 N 0.81696 0.2281 0.31522 0.0
C1081 C 0.81068 0.18662 0.27061 0.0
C1082 C 0.83133 0.13123 0.32163 0.0
C1083 C 0.82073 0.13983 0.27243 0.0
H1084 H 0.82088 0.38652 0.44261 0.0
H1085 H 0.81915 0.11147 0.23477 0.0
H1086 H 0.845 0.1255 0.42253 0.0
H1087 H 0.82996 0.37341 0.53175 0.0
H1088 H 0.79852 0.18816 0.23286 0.0
H1089 H 0.88855 0.54725 0.33639 0.0
H1090 H 0.83854 0.09455 0.32451 0.0
H1091 H 0.88268 0.27272 0.11904 0.0
H1092 H 0.913 0.4697 0.33567 0.0
H1093 H 0.86755 0.28705 0.03155 0.0
H1094 H 0.84667 0.19672 0.50244 0.0
H1095 H 0.86389 0.56232 0.25009 0.0
H1096 H 0.85909 0.53605 0.15176 0.0
H1097 H 0.84216 0.28915 0.54351 0.0
H1098 H 0.85613 0.46683 0.06958 0.0
N1099 N 0.89235 0.4307 0.25311 0.0
C1100 C 0.89914 0.4716 0.29875 0.0
C1101 C 0.87372 0.52656 0.2508 0.0
C1102 C 0.8736 0.48889 0.20349 0.0
C1103 C 0.88689 0.51798 0.29896 0.0
C1104 C 0.8808 0.43949 0.20583 0.0
H1105 H 0.85804 0.37416 0.02442 0.0
N1106 N 0.87871 0.35015 0.16297 0.0
C1107 C 0.8688 0.3185 0.06713 0.0
C1108 C 0.87491 0.39867 0.1595 0.0
C1109 C 0.87668 0.31039 0.11719 0.0
C1110 C 0.86366 0.3677 0.06329 0.0
C1111 C 0.86677 0.40845 0.10963 0.0
O1112 O 0.93972 0.34879 0.19797 0.0
O1113 O 0.87802 0.29342 0.30164 0.0
O1114 O 0.85832 0.38105 0.36766 0.0
O1115 O 0.91839 0.38141 0.33217 0.0
O1116 O 0.90119 0.26123 0.23419 0.0
O1117 O 0.95592 0.35701 0.28154 0.0
O1118 O 0.76813 0.31214 0.36301 0.0
O1119 O 0.83146 0.36384 0.26233 0.0
O1120 O 0.85144 0.27441 0.19693 0.0
O1121 O 0.79116 0.27332 0.23232 0.0
O1122 O 0.80945 0.39674 0.33044 0.0
O1123 O 0.75452 0.30055 0.27856 0.0
C1124 C 0.89333 0.25245 0.27902 0.0
C1125 C 0.01189 0.35587 0.22854 0.0
C1126 C 0.08206 0.36083 0.26464 0.0
C1127 C 0.03996 0.35194 0.26904 0.0
C1128 C 0.09617 0.37459 0.22001 0.0
C1129 C 0.02574 0.36105 0.1807 0.0
C1130 C 0.06786 0.37295 0.17738 0.0
C1131 C 0.89831 0.39352 0.37239 0.0
C1132 C 0.96828 0.35155 0.23545 0.0
C1133 C 0.86245 0.45874 0.10738 0.0
C1134 C 0.86465 0.49836 0.15419 0.0
C1135 C 0.81652 0.40504 0.28524 0.0
C1136 C 0.69759 0.30786 0.32879 0.0
C1137 C 0.67041 0.30601 0.28462 0.0
C1138 C 0.62814 0.297 0.28679 0.0
C1139 C 0.61314 0.28995 0.33348 0.0
C1140 C 0.68283 0.30935 0.37751 0.0
C1141 C 0.64052 0.29805 0.37932 0.0
C1142 C 0.81137 0.26096 0.1924 0.0
C1143 C 0.74115 0.30993 0.32402 0.0
H1144 H 0.02914 0.34197 0.3039 0.0
H1145 H 0.12876 0.38386 0.21686 0.0
H1146 H 1.00423 0.35534 0.14571 0.0
H1147 H 0.07853 0.37943 0.14132 0.0
H1148 H 0.68205 0.31182 0.24871 0.0
H1149 H 0.58042 0.27825 0.33457 0.0
H1150 H 0.70372 0.31803 0.41393 0.0
H1151 H 0.62899 0.29531 0.41606 0.0
Tb1152 Tb 0.10566 0.54608 0.586 0.0
C1153 C 0.03898 0.62117 0.40179 0.0
C1154 C 1.00487 0.53588 0.34115 0.0
C1155 C 0.99667 0.61659 0.32023 0.0
C1156 C 0.03376 0.56701 0.38577 0.0
C1157 C 0.02114 0.64693 0.36871 0.0
C1158 C 0.98646 0.56104 0.30802 0.0
C1159 C 0.05159 0.73022 0.43487 0.0
N1160 N 0.06304 0.64883 0.44868 0.0
C1161 C 0.06846 0.70272 0.46624 0.0
C1162 C 0.02931 0.70238 0.38483 0.0
Tb1163 Tb 0.10701 0.60518 0.47911 0.0
N1164 N 0.05638 0.54484 0.41478 0.0
C1165 C 0.04915 0.4905 0.40306 0.0
C1166 C 0.99778 0.48068 0.3291 0.0
C1167 C 0.01973 0.45795 0.36051 0.0
H1168 H 0.0887 0.72511 0.50244 0.0
H1169 H 0.01344 0.41543 0.35333 0.0
H1170 H 0.96677 0.53805 0.27103 0.0
H1171 H 0.05742 0.77309 0.44816 0.0
H1172 H 0.06464 0.4714 0.42738 0.0
H1173 H 0.19772 0.73725 0.7097 0.0
H1174 H 0.97558 0.45556 0.29571 0.0
H1175 H 0.13003 0.42877 0.5596 0.0
H1176 H 0.14333 0.68112 0.64047 0.0
H1177 H 0.15911 0.38175 0.61596 0.0
H1178 H 0.98507 0.63559 0.29227 0.0
H1179 H 0.23533 0.69901 0.76897 0.0
H1180 H 0.24177 0.61683 0.79806 0.0
H1181 H 0.01769 0.72401 0.35959 0.0
H1182 H 0.23015 0.51931 0.77248 0.0
N1183 N 0.15132 0.60806 0.65444 0.0
C1184 C 0.15829 0.66234 0.66549 0.0
C1185 C 0.21145 0.67326 0.73785 0.0
C1186 C 0.20349 0.61809 0.72784 0.0
C1187 C 0.18955 0.69527 0.70562 0.0
C1188 C 0.17518 0.58643 0.68291 0.0
H1189 H 0.19771 0.431 0.70517 0.0
N1190 N 0.15305 0.5058 0.61481 0.0
C1191 C 0.16461 0.4246 0.62936 0.0
C1192 C 0.17438 0.53321 0.66381 0.0
C1193 C 0.14909 0.45196 0.59681 0.0
C1194 C 0.18618 0.45253 0.67976 0.0
C1195 C 0.1931 0.50781 0.69655 0.0
O1196 O 0.07095 0.4694 0.58206 0.0
O1197 O 0.07482 0.54762 0.51212 0.0
O1198 O 0.0823 0.65364 0.54253 0.0
O1199 O 0.07748 0.61434 0.61382 0.0
O1200 O 0.03888 0.52264 0.56261 0.0
O1201 O 0.09013 0.53523 0.65667 0.0
O1202 O 0.14356 0.67668 0.47333 0.0
O1203 O 0.13631 0.60467 0.55451 0.0
O1204 O 0.138 0.50402 0.52451 0.0
O1205 O 0.1299 0.53551 0.44975 0.0
O1206 O 0.17387 0.62805 0.5051 0.0
O1207 O 0.13369 0.59981 0.41067 0.0
C1208 C 0.0376 0.53617 0.51926 0.0
C1209 C 0.03902 0.46266 0.65713 0.0
C1210 C 0.99907 0.49063 0.72407 0.0
C1211 C 0.01401 0.49547 0.67785 0.0
C1212 C 0.00538 0.44958 0.74604 0.0
C1213 C 0.04404 0.42041 0.67719 0.0
C1214 C 0.02752 0.41441 0.72238 0.0
C1215 C 0.07113 0.65093 0.58936 0.0
C1216 C 0.07267 0.48458 0.63386 0.0
C1217 C 0.21636 0.53811 0.74595 0.0
C1218 C 0.22292 0.59354 0.7606 0.0
C1219 C 0.17361 0.61824 0.55 0.0
C1220 C 0.16458 0.67781 0.39028 0.0
C1221 C 0.19862 0.66605 0.3695 0.0
C1222 C 0.21303 0.68833 0.33113 0.0
C1223 C 0.19227 0.72106 0.31081 0.0
C1224 C 0.14404 0.71207 0.373 0.0
C1225 C 0.15798 0.73371 0.33265 0.0
C1226 C 0.14404 0.50483 0.47519 0.0
C1227 C 0.15246 0.65062 0.42834 0.0
H1228 H 0.01194 0.52966 0.66335 0.0
H1229 H 0.99616 0.44685 0.78349 0.0
H1230 H 0.06502 0.39658 0.66217 0.0
H1231 H 0.03527 0.38607 0.74193 0.0
H1232 H 0.21307 0.63725 0.38149 0.0
H1233 H 0.20163 0.73542 0.27759 0.0
H1234 H 0.11749 0.72119 0.38957 0.0
H1235 H 0.14176 0.75904 0.31755 0.0
Tb1236 Tb 0.81039 0.85476 0.28558 0.0
C1237 C 0.93776 0.76825 0.37424 0.0
C1238 C 0.96947 0.84465 0.44767 0.0
C1239 C 0.96655 0.7568 0.45775 0.0
C1240 C 0.94878 0.82222 0.39513 0.0
C1241 C 0.94584 0.73477 0.4055 0.0
C1242 C 0.97939 0.81192 0.47841 0.0
C1243 C 0.91807 0.66077 0.32884 0.0
N1244 N 0.91763 0.74813 0.32386 0.0
C1245 C 0.91137 0.69532 0.2993 0.0
C1246 C 0.93375 0.68004 0.38268 0.0
Tb1247 Tb 0.89961 0.80669 0.28221 0.0
N1248 N 0.93533 0.85226 0.36609 0.0
C1249 C 0.93815 0.90462 0.39026 0.0
C1250 C 0.97587 0.8987 0.46986 0.0
C1251 C 0.95703 0.92794 0.44274 0.0
H1252 H 0.89859 0.67966 0.25775 0.0
H1253 H 0.95658 0.96847 0.46169 0.0
H1254 H 0.99486 0.82869 0.51907 0.0
H1255 H 0.91322 0.61974 0.30955 0.0
H1256 H 0.92218 0.92756 0.37177 0.0
H1257 H 0.7536 0.69255 0.10636 0.0
H1258 H 0.99291 0.91628 0.50927 0.0
H1259 H 0.81722 0.98345 0.30577 0.0
H1260 H 0.78686 0.73357 0.19702 0.0
H1261 H 0.82042 0.04017 0.24743 0.0
H1262 H 0.97326 0.73157 0.48217 0.0
H1263 H 0.71881 0.74496 0.05788 0.0
H1264 H 0.72341 0.83225 0.04493 0.0
H1265 H 0.93921 0.65261 0.40512 0.0
H1266 H 0.7471 0.92934 0.07998 0.0
N1267 N 0.77446 0.80909 0.20172 0.0
C1268 C 0.77131 0.75652 0.17804 0.0
C1269 C 0.7353 0.76249 0.09745 0.0
C1270 C 0.74276 0.8167 0.11879 0.0
C1271 C 0.75311 0.73309 0.12529 0.0
C1272 C 0.76217 0.83917 0.17182 0.0
H1273 H 0.78592 1.00785 0.15451 0.0
N1274 N 0.79396 0.91337 0.24236 0.0
C1275 C 0.80384 1.00041 0.23218 0.0
C1276 C 0.77442 0.89313 0.19175 0.0
C1277 C 0.8035 0.96689 0.26467 0.0
C1278 C 0.78629 0.98085 0.17914 0.0
C1279 C 0.76981 0.9264 0.15867 0.0
O1280 O 0.78303 0.90156 0.34182 0.0
O1281 O 0.85214 0.82487 0.3281 0.0
O1282 O 0.84888 0.73465 0.28621 0.0
O1283 O 0.79084 0.76892 0.29046 0.0
O1284 O 0.83519 0.88978 0.37118 0.0
O1285 O 0.74891 0.82252 0.29287 0.0
O1286 O 0.9263 0.76189 0.22345 0.0
O1287 O 0.85795 0.83693 0.23963 0.0
O1288 O 0.86243 0.92634 0.28365 0.0
O1289 O 0.92009 0.89207 0.27751 0.0
O1290 O 0.87285 0.76962 0.19779 0.0
O1291 O 0.96065 0.83973 0.27408 0.0
C1292 C 0.85415 0.8537 0.37501 0.0
C1293 C 0.71054 0.87591 0.34394 0.0
C1294 C 0.64835 0.85613 0.38377 0.0
C1295 C 0.6875 0.84878 0.37542 0.0
C1296 C 0.63325 0.89287 0.36256 0.0
C1297 C 0.69555 0.91275 0.32323 0.0
C1298 C 0.65695 0.92134 0.33286 0.0
C1299 C 0.80837 0.72804 0.2901 0.0
C1300 C 0.74946 0.86317 0.33283 0.0
C1301 C 0.75063 0.90429 0.1059 0.0
C1302 C 0.73626 0.84932 0.08634 0.0
C1303 C 0.85526 0.80677 0.19321 0.0
C1304 C 0.99888 0.78603 0.22421 0.0
C1305 C 0.02329 0.81153 0.1928 0.0
C1306 C 0.06223 0.80254 0.18604 0.0
C1307 C 0.0758 0.7658 0.20889 0.0
C1308 C 0.01234 0.7492 0.2466 0.0
C1309 C 0.05069 0.73883 0.2385 0.0
C1310 C 0.90266 0.93294 0.27869 0.0
C1311 C 0.96006 0.80004 0.23313 0.0
H1312 H 0.69934 0.82041 0.39152 0.0
H1313 H 0.60323 0.89978 0.36931 0.0
H1314 H 0.71341 0.93424 0.29942 0.0
H1315 H 0.64513 0.94945 0.31652 0.0
H1316 H 0.01259 0.83979 0.17531 0.0
H1317 H 0.10557 0.75751 0.20326 0.0
H1318 H 0.99341 0.72891 0.27034 0.0
H1319 H 0.06119 0.71031 0.2557 0.0
Tb1320 Tb 0.88159 0.30947 0.72547 0.0
C1321 C 0.7894 0.43143 0.9034 0.0
C1322 C 0.84343 0.49552 0.969 0.0
C1323 C 0.77245 0.4889 0.98157 0.0
C1324 C 0.83047 0.45171 0.92293 0.0
C1325 C 0.75979 0.44704 0.93447 0.0
C1326 C 0.81408 0.51567 0.99668 0.0
C1327 C 0.70705 0.38 0.86973 0.0
N1328 N 0.77844 0.39064 0.85842 0.0
C1329 C 0.73744 0.36747 0.83937 0.0
C1330 C 0.71864 0.41797 0.91881 0.0
Tb1331 Tb 0.82767 0.34627 0.83368 0.0
N1332 N 0.85682 0.42332 0.90216 0.0
C1333 C 0.89516 0.43351 0.93131 0.0
C1334 C 0.88499 0.51281 0.99036 0.0
C1335 C 0.91075 0.4808 0.97224 0.0
H1336 H 0.72792 0.33596 0.80283 0.0
H1337 H 0.94176 0.49228 0.99214 0.0
H1338 H 0.82352 0.54798 0.03302 0.0
H1339 H 0.6749 0.35927 0.85608 0.0
H1340 H 0.91498 0.40732 0.92081 0.0
H1341 H 0.76317 0.1512 0.58429 0.0
H1342 H 0.89645 0.54707 0.02464 0.0
H1343 H 0.98146 0.32106 0.75175 0.0
H1344 H 0.792 0.24294 0.6446 0.0
H1345 H 0.0334 0.29658 0.69578 0.0
H1346 H 0.75056 0.50019 0.00734 0.0
H1347 H 0.80933 0.09979 0.54562 0.0
H1348 H 0.88209 0.10203 0.52985 0.0
H1349 H 0.69544 0.42571 0.94355 0.0
H1350 H 0.95515 0.15105 0.55061 0.0
N1351 N 0.85159 0.2301 0.66008 0.0
C1352 C 0.81205 0.21716 0.63377 0.0
C1353 C 0.82162 0.13626 0.57712 0.0
C1354 C 0.86376 0.15645 0.59386 0.0
C1355 C 0.7955 0.16688 0.59751 0.0
C1356 C 0.87765 0.20213 0.63794 0.0
H1357 H 0.01053 0.22815 0.60965 0.0
N1358 N 0.9305 0.26571 0.69836 0.0
C1359 C 1.00107 0.27612 0.68369 0.0
C1360 C 0.91876 0.22389 0.65443 0.0
C1361 C 0.97156 0.28935 0.71545 0.0
C1362 C 0.98831 0.23714 0.63534 0.0
C1363 C 0.94734 0.20755 0.62212 0.0
O1364 O 0.9252 0.36566 0.70373 0.0
O1365 O 0.87209 0.37272 0.78836 0.0
O1366 O 0.79832 0.37771 0.77172 0.0
O1367 O 0.82357 0.33203 0.69837 0.0
O1368 O 0.932 0.37069 0.77879 0.0
O1369 O 0.86497 0.32693 0.65434 0.0
O1370 O 0.7822 0.29266 0.85456 0.0
O1371 O 0.83667 0.28198 0.77078 0.0
O1372 O 0.91372 0.28113 0.78863 0.0
O1373 O 0.88536 0.32274 0.86104 0.0
O1374 O 0.77717 0.28589 0.78009 0.0
O1375 O 0.84311 0.32669 0.90385 0.0
C1376 C 0.90921 0.39599 0.80613 0.0
C1377 C 0.91551 0.37933 0.61975 0.0
C1378 C 0.91774 0.44428 0.5718 0.0
C1379 C 0.8998 0.41887 0.60661 0.0
C1380 C 0.95154 0.42974 0.54949 0.0
C1381 C 0.94827 0.36281 0.59691 0.0
C1382 C 0.96608 0.3882 0.56105 0.0
C1383 C 0.79728 0.36024 0.7189 0.0
C1384 C 0.89956 0.36305 0.66284 0.0
C1385 C 0.93386 0.16368 0.57678 0.0
C1386 C 0.89228 0.13602 0.56461 0.0
C1387 C 0.79923 0.25938 0.75282 0.0
C1388 C 0.78877 0.28351 0.93954 0.0
C1389 C 0.79403 0.23688 0.94842 0.0
C1390 C 0.76845 0.21258 0.97753 0.0
C1391 C 0.74038 0.2378 0.00359 0.0
C1392 C 0.76081 0.30984 0.96384 0.0
C1393 C 0.73757 0.28752 0.99783 0.0
C1394 C 0.9134 0.297 0.84145 0.0
C1395 C 0.80692 0.29392 0.89579 0.0
H1396 H 0.87444 0.43137 0.62507 0.0
H1397 H 0.96674 0.45058 0.52359 0.0
H1398 H 0.96071 0.33229 0.60807 0.0
H1399 H 0.99196 0.37735 0.54382 0.0
H1400 H 0.81637 0.21735 0.92959 0.0
H1401 H 0.72128 0.2197 0.02847 0.0
H1402 H 0.75666 0.34628 0.95609 0.0
H1403 H 0.7174 0.30844 0.0189 0.0
Tb1404 Tb 0.89019 0.89395 0.7933 0.0
C1405 C 0.73328 0.7405 0.7666 0.0
C1406 C 0.71669 0.73482 0.85257 0.0
C1407 C 0.68446 0.66197 0.77509 0.0
C1408 C 0.74195 0.7578 0.82009 0.0
C1409 C 0.70806 0.689 0.7439 0.0
C1410 C 0.68652 0.68694 0.82924 0.0
C1411 C 0.73246 0.69547 0.66217 0.0
N1412 N 0.75928 0.76574 0.73862 0.0
C1413 C 0.75166 0.74799 0.68518 0.0
C1414 C 0.71132 0.66459 0.69209 0.0
Tb1415 Tb 0.82475 0.776 0.77552 0.0
N1416 N 0.77959 0.79057 0.83945 0.0
C1417 C 0.78708 0.81653 0.89282 0.0
C1418 C 0.72552 0.75808 0.90729 0.0
C1419 C 0.75983 0.80136 0.92724 0.0
H1420 H 0.76384 0.77178 0.65983 0.0
H1421 H 0.7663 0.8217 0.96928 0.0
H1422 H 0.66764 0.6668 0.85319 0.0
H1423 H 0.73171 0.68297 0.62065 0.0
H1424 H 0.81239 0.85096 0.9092 0.0
H1425 H 0.94099 0.83913 0.593 0.0
H1426 H 0.70617 0.74339 0.93407 0.0
H1427 H 0.95536 0.88923 0.89943 0.0
H1428 H 0.89731 0.81337 0.65685 0.0
H1429 H 0.99484 0.97609 0.94006 0.0
H1430 H 0.66556 0.62176 0.75804 0.0
H1431 H 1.0014 0.91765 0.62321 0.0
H1432 H 0.04421 0.99475 0.70232 0.0
H1433 H 0.69638 0.62342 0.67616 0.0
H1434 H 0.05158 0.0398 0.79853 0.0
N1435 N 0.93158 0.87632 0.7241 0.0
C1436 C 0.92293 0.84769 0.6714 0.0
C1437 C 0.98305 0.90466 0.65166 0.0
C1438 C 0.99385 0.92941 0.70593 0.0
C1439 C 0.94866 0.8611 0.6346 0.0
C1440 C 0.96962 0.90847 0.74036 0.0
H1441 H 0.02764 0.03707 0.88616 0.0
N1442 N 0.95672 0.89916 0.82214 0.0
C1443 C 0.99051 0.96516 0.89856 0.0
C1444 C 0.98128 0.92437 0.79293 0.0
C1445 C 0.96815 0.91366 0.87492 0.0
C1446 C 0.01058 0.99673 0.86869 0.0
C1447 C 0.00955 0.97375 0.81526 0.0
O1448 O 0.91019 0.96383 0.85517 0.0
O1449 O 0.83281 0.85672 0.81587 0.0
O1450 O 0.8297 0.80247 0.69761 0.0
O1451 O 0.85651 0.89334 0.71994 0.0
O1452 O 0.83186 0.92028 0.78942 0.0
O1453 O 0.91191 0.96611 0.77469 0.0
O1454 O 0.81319 0.70481 0.71556 0.0
O1455 O 0.88147 0.81293 0.75248 0.0
O1456 O 0.88603 0.8691 0.87266 0.0
O1457 O 0.8565 0.77856 0.8508 0.0
O1458 O 0.8842 0.75416 0.78537 0.0
O1459 O 0.80103 0.70466 0.79408 0.0
C1460 C 0.80896 0.88521 0.80708 0.0
C1461 C 0.90325 0.04067 0.83526 0.0
C1462 C 0.84564 0.07748 0.82193 0.0
C1463 C 0.86665 0.03913 0.80516 0.0
C1464 C 0.86327 0.12129 0.86624 0.0
C1465 C 0.92152 0.08398 0.8794 0.0
C1466 C 0.90176 0.12502 0.89426 0.0
C1467 C 0.83794 0.84922 0.6841 0.0
C1468 C 0.91909 0.99401 0.82409 0.0
C1469 C 0.0315 1.00033 0.7824 0.0
C1470 C 0.02594 0.97577 0.72756 0.0
C1471 C 0.90557 0.78523 0.76228 0.0
C1472 C 0.81332 0.62868 0.7429 0.0
C1473 C 0.85098 0.635 0.7723 0.0
C1474 C 0.86859 0.5931 0.76726 0.0
C1475 C 0.84781 0.5423 0.73466 0.0
C1476 C 0.79061 0.57811 0.71188 0.0
C1477 C 0.80827 0.53477 0.70727 0.0
C1478 C 0.87544 0.82257 0.88658 0.0
C1479 C 0.79872 0.67564 0.74597 0.0
H1480 H 0.85297 1.00635 0.77018 0.0
H1481 H 0.84748 0.15238 0.87882 0.0
H1482 H 0.95016 0.08523 0.90281 0.0
H1483 H 0.91555 0.15867 0.92833 0.0
H1484 H 0.86647 0.67226 0.80089 0.0
H1485 H 0.86155 0.50882 0.73159 0.0
H1486 H 0.7599 0.57235 0.69108 0.0
H1487 H 0.7914 0.4957 0.68278 0.0
Tb1488 Tb 0.55936 0.5387 0.50642 0.0
C1489 C 0.67949 0.74675 0.60843 0.0
C1490 C 0.70937 0.78001 0.53949 0.0
C1491 C 0.71552 0.84079 0.62644 0.0
C1492 C 0.68819 0.73761 0.55789 0.0
C1493 C 0.69107 0.79961 0.64261 0.0
C1494 C 0.72495 0.83083 0.57482 0.0
C1495 C 0.65404 0.76806 0.70634 0.0
N1496 N 0.65861 0.70421 0.62347 0.0
C1497 C 0.644 0.71661 0.67191 0.0
C1498 C 0.67884 0.80949 0.69249 0.0
Tb1499 Tb 0.65537 0.61758 0.56295 0.0
N1500 N 0.67026 0.68888 0.52466 0.0
C1501 C 0.66604 0.68424 0.47098 0.0
C1502 C 0.71135 0.77123 0.48537 0.0
C1503 C 0.68774 0.72389 0.45065 0.0
H1504 H 0.62764 0.68878 0.68985 0.0
H1505 H 0.68533 0.71829 0.40813 0.0
H1506 H 0.74176 0.8635 0.56169 0.0
H1507 H 0.64405 0.77497 0.74506 0.0
H1508 H 0.64494 0.6516 0.44288 0.0
H1509 H 0.5223 0.43737 0.65934 0.0
H1510 H 0.72775 0.80242 0.46981 0.0
H1511 H 0.59252 0.46917 0.38199 0.0
H1512 H 0.56386 0.506 0.62798 0.0
H1513 H 0.57242 0.38438 0.32371 0.0
H1514 H 0.7261 0.88074 0.65293 0.0
H1515 H 0.48297 0.35275 0.59545 0.0
H1516 H 0.47147 0.29273 0.50326 0.0
H1517 H 0.68817 0.84881 0.72031 0.0
H1518 H 0.48779 0.27737 0.41239 0.0
N1519 N 0.54409 0.4674 0.5449 0.0
C1520 C 0.54547 0.472 0.59851 0.0
C1521 C 0.50067 0.38412 0.5812 0.0
C1522 C 0.50497 0.37588 0.52771 0.0
C1523 C 0.52263 0.4317 0.61713 0.0
C1524 C 0.52754 0.41857 0.51085 0.0
H1525 H 0.52457 0.31126 0.34548 0.0
N1526 N 0.55925 0.45298 0.44672 0.0
C1527 C 0.56235 0.39069 0.36237 0.0
C1528 C 0.53705 0.41029 0.46052 0.0
C1529 C 0.57428 0.44125 0.39848 0.0
C1530 C 0.53589 0.34952 0.37476 0.0
C1531 C 0.52427 0.35823 0.42496 0.0
O1532 O 0.50684 0.56266 0.47896 0.0
O1533 O 0.59434 0.62077 0.53394 0.0
O1534 O 0.62015 0.61168 0.63412 0.0
O1535 O 0.55296 0.57726 0.59262 0.0
O1536 O 0.55263 0.60205 0.46663 0.0
O1537 O 0.50385 0.51783 0.53682 0.0
O1538 O 0.70705 0.59193 0.58888 0.0
O1539 O 0.61984 0.53597 0.53541 0.0
O1540 O 0.59424 0.54646 0.43554 0.0
O1541 O 0.66151 0.58067 0.47659 0.0
O1542 O 0.65847 0.55485 0.60519 0.0
O1543 O 0.70977 0.63028 0.52663 0.0
C1544 C 0.57869 0.64234 0.49987 0.0
C1545 C 0.44175 0.53442 0.50503 0.0
C1546 C 0.38131 0.56589 0.5201 0.0
C1547 C 0.42343 0.57244 0.53281 0.0
C1548 C 0.35832 0.52435 0.47682 0.0
C1549 C 0.41746 0.48813 0.46885 0.0
C1550 C 0.3763 0.48454 0.45253 0.0
C1551 C 0.57899 0.6003 0.63783 0.0
C1552 C 0.48612 0.54612 0.51369 0.0
C1553 C 0.49898 0.31676 0.43987 0.0
C1554 C 0.48926 0.32565 0.49133 0.0
C1555 C 0.63347 0.5146 0.57059 0.0
C1556 C 0.77252 0.61151 0.55853 0.0
C1557 C 0.79292 0.59777 0.51451 0.0
C1558 C 0.83573 0.60206 0.52224 0.0
C1559 C 0.85802 0.62152 0.57395 0.0
C1560 C 0.79493 0.62679 0.60931 0.0
C1561 C 0.83744 0.63287 0.61728 0.0
C1562 C 0.63529 0.55838 0.4316 0.0
C1563 C 0.72725 0.6027 0.55136 0.0
H1564 H 0.4416 0.60606 0.56471 0.0
H1565 H 0.32595 0.52102 0.46441 0.0
H1566 H 0.42977 0.45489 0.45307 0.0
H1567 H 0.35856 0.45011 0.42212 0.0
H1568 H 0.77537 0.58148 0.47486 0.0
H1569 H 0.89079 0.62391 0.58132 0.0
H1570 H 0.77869 0.63148 0.64245 0.0
H1571 H 0.85422 0.64381 0.65702 0.0
Tb1572 Tb 0.14577 0.56942 0.99035 0.0
C1573 C 0.03183 0.52149 0.13949 0.0
C1574 C 0.98463 0.44073 0.08212 0.0
C1575 C 0.99139 0.45851 0.17794 0.0
C1576 C 0.01311 0.4897 0.08865 0.0
C1577 C 0.02321 0.50407 0.18406 0.0
C1578 C 0.97195 0.42719 0.12709 0.0
C1579 C 0.07351 0.58286 0.23897 0.0
N1580 N 0.05988 0.56813 0.14517 0.0
C1581 C 0.07787 0.6014 0.19421 0.0
C1582 C 0.04753 0.53263 0.23302 0.0
Tb1583 Tb 0.06796 0.58743 0.06834 0.0
N1584 N 0.02464 0.50524 0.04578 0.0
C1585 C 0.01032 0.4727 0.99527 0.0
C1586 C 0.9711 0.40602 0.03097 0.0
C1587 C 0.98541 0.4214 0.98748 0.0
H1588 H 0.09831 0.63988 0.19764 0.0
H1589 H 0.97683 0.39441 0.94794 0.0
H1590 H 0.94929 0.39045 0.1226 0.0
H1591 H 0.09067 0.60646 0.27741 0.0
H1592 H 0.01962 0.48453 0.961 0.0
H1593 H 0.23973 0.76427 0.10598 0.0
H1594 H 0.95053 0.36699 0.02482 0.0
H1595 H 0.11343 0.51741 0.85885 0.0
H1596 H 0.19963 0.67417 0.09541 0.0
H1597 H 0.11295 0.5526 0.78072 0.0
H1598 H 0.98232 0.44648 0.21211 0.0
H1599 H 0.25664 0.79466 0.02761 0.0
H1600 H 0.25135 0.77306 0.9306 0.0
H1601 H 0.04719 0.51576 0.26606 0.0
H1602 H 0.21255 0.71872 0.84255 0.0
N1603 N 0.18707 0.65394 0.00993 0.0
C1604 C 0.20545 0.68591 0.05976 0.0
C1605 C 0.23803 0.7547 0.02235 0.0
C1606 C 0.2211 0.72089 0.97184 0.0
C1607 C 0.22914 0.73754 0.06661 0.0
C1608 C 0.19408 0.67116 0.96669 0.0
H1609 H 0.15086 0.64554 0.79064 0.0
N1610 N 0.14775 0.59174 0.91266 0.0
C1611 C 0.13006 0.57744 0.81876 0.0
C1612 C 0.17295 0.63997 0.91711 0.0
C1613 C 0.12984 0.55823 0.86332 0.0
C1614 C 0.15261 0.62912 0.82406 0.0
C1615 C 0.1776 0.6586 0.87225 0.0
O1616 O 0.17823 0.52979 0.93613 0.0
O1617 O 0.09753 0.52899 0.02464 0.0
O1618 O 0.11602 0.56676 0.11585 0.0
O1619 O 0.17216 0.58338 0.07149 0.0
O1620 O 0.12375 0.4809 0.97359 0.0
O1621 O 0.20262 0.55895 0.0217 0.0
O1622 O 0.04117 0.64358 0.11476 0.0
O1623 O 0.1123 0.62828 0.02817 0.0
O1624 O 0.08693 0.54885 0.93825 0.0
O1625 O 0.04776 0.59441 0.99086 0.0
O1626 O 0.10461 0.67112 0.10165 0.0
O1627 O 0.00626 0.58408 0.04191 0.0
C1628 C 0.09732 0.47948 0.00611 0.0
C1629 C 0.24429 0.51643 0.96237 0.0
C1630 C 0.30068 0.482 0.99061 0.0
C1631 C 0.26155 0.49091 0.99596 0.0
C1632 C 0.3219 0.49756 0.95107 0.0
C1633 C 0.2651 0.53072 0.92211 0.0
C1634 C 0.30393 0.52132 0.91676 0.0
C1635 C 0.15562 0.57198 0.11173 0.0
C1636 C 0.20772 0.53474 0.97407 0.0
C1637 C 0.20719 0.70557 0.87693 0.0
C1638 C 0.2293 0.73617 0.92648 0.0
C1639 C 0.12195 0.67549 0.0604 0.0
C1640 C 0.96908 0.6396 0.09394 0.0
C1641 C 0.95038 0.66581 0.06228 0.0
C1642 C 0.91209 0.6761 0.071 0.0
C1643 C 0.89299 0.66102 0.11226 0.0
C1644 C 0.95023 0.62517 0.13552 0.0
C1645 C 0.91219 0.63611 0.14457 0.0
C1646 C 0.056 0.57152 0.94442 0.0
C1647 C 0.00725 0.62626 0.08027 0.0
H1648 H 0.24543 0.48003 0.02729 0.0
H1649 H 0.35221 0.49072 0.94632 0.0
H1650 H 0.25221 0.55118 0.89646 0.0
H1651 H 0.32072 0.53387 0.88704 0.0
H1652 H 0.9653 0.6774 0.03039 0.0
H1653 H 0.86363 0.66956 0.12016 0.0
H1654 H 0.96453 0.60504 0.16026 0.0
H1655 H 0.89735 0.62485 0.17633 0.0
loop_
_geom_bond_atom_site_label_1
_geom_bond_atom_site_label_2
_geom_bond_distance
_geom_bond_site_symmetry_2
_ccdc_geom_bond_type
C0 O1 1.160 . S
C0 O7 1.185 . S
O1 C0 1.160 . S
O2 Zn3 1.899 . S
O2 C10 1.284 . S
Zn3 O2 1.899 . S
Zn3 O4 2.032 . S
Zn3 O7 2.086 . S
Zn3 O12 1.977 . S
O4 Zn3 2.032 . S
O4 C8 1.278 . S
C5 O6 1.203 . S
C5 O12 1.267 . S
O6 C5 1.203 . S
O7 C0 1.185 . S
O7 Zn3 2.086 . S
C8 O4 1.278 . S
C8 O9 1.211 . S
O9 C8 1.211 . S
C10 O2 1.284 . S
C10 O11 1.273 . S
O11 C10 1.273 . S
O12 Zn3 1.977 . S
O12 C5 1.267 . S
C13 O14 1.160 . S
C13 O20 1.185 . S
O14 C13 1.160 . S
O15 Zn16 1.900 1_655 S
O15 C23 1.284 . S
Zn16 O15 1.900 1_455 S
Zn16 O17 2.030 1_455 S
Zn16 O20 2.082 1_455 S
Zn16 O25 1.981 . S
O17 Zn16 2.030 1_655 S
O17 C21 1.278 1_655 S
C18 O19 1.203 . S
C18 O25 1.267 . S
O19 C18 1.203 . S
O20 C13 1.185 . S
O20 Zn16 2.082 1_655 S
C21 O17 1.278 1_455 S
C21 O22 1.211 . S
O22 C21 1.211 . S
C23 O15 1.284 . S
C23 O24 1.273 1_655 S
O24 C23 1.273 1_455 S
O25 Zn16 1.981 . S
O25 C18 1.267 . S
C26 O27 1.160 . S
C26 O33 1.185 . S
O27 C26 1.160 . S
O28 Zn29 1.899 . S
O28 C36 1.284 . S
Zn29 O28 1.899 . S
Zn29 O30 2.032 . S
Zn29 O33 2.086 . S
Zn29 O38 1.977 . S
O30 Zn29 2.032 . S
O30 C34 1.278 1_565 S
C31 O32 1.203 . S
C31 O38 1.267 . S
O32 C31 1.203 . S
O33 C26 1.185 . S
O33 Zn29 2.086 . S
C34 O30 1.278 1_545 S
C34 O35 1.211 1_545 S
O35 C34 1.211 1_565 S
C36 O28 1.284 . S
C36 O37 1.274 1_556 S
O37 C36 1.274 1_554 S
O38 Zn29 1.977 . S
O38 C31 1.267 . S
C39 O40 1.160 . S
C39 O46 1.185 . S
O40 C39 1.160 . S
O41 Zn42 1.899 . S
O41 C49 1.284 . S
Zn42 O41 1.899 . S
Zn42 O43 2.032 . S
Zn42 O46 2.086 . S
Zn42 O51 1.977 . S
O43 Zn42 2.032 . S
O43 C47 1.278 . S
C44 O45 1.203 . S
C44 O51 1.267 . S
O45 C44 1.203 . S
O46 C39 1.185 . S
O46 Zn42 2.086 . S
C47 O43 1.278 . S
C47 O48 1.211 . S
O48 C47 1.211 . S
C49 O41 1.284 . S
C49 O50 1.273 . S
O50 C49 1.273 . S
O51 Zn42 1.977 . S
O51 C44 1.267 . S
C52 O53 1.160 . S
C52 O59 1.185 . S
O53 C52 1.160 . S
O54 Zn55 1.899 . S
O54 C62 1.284 . S
Zn55 O54 1.899 . S
Zn55 O56 2.032 . S
Zn55 O59 2.086 . S
Zn55 O64 1.977 . S
O56 Zn55 2.032 . S
O56 C60 1.278 . S
C57 O58 1.203 . S
C57 O64 1.267 . S
O58 C57 1.203 . S
O59 C52 1.185 . S
O59 Zn55 2.086 . S
C60 O56 1.278 . S
C60 O61 1.211 . S
O61 C60 1.211 . S
C62 O54 1.284 . S
C62 O63 1.273 1_554 S
O63 C62 1.273 1_556 S
O64 Zn55 1.977 . S
O64 C57 1.267 . S
C65 O66 1.160 . S
C65 O72 1.185 . S
O66 C65 1.160 . S
O67 Zn68 1.899 . S
O67 C75 1.284 . S
Zn68 O67 1.899 . S
Zn68 O69 2.032 . S
Zn68 O72 2.086 . S
Zn68 O77 1.977 . S
O69 Zn68 2.032 . S
O69 C73 1.278 . S
C70 O71 1.203 . S
C70 O77 1.267 . S
O71 C70 1.203 . S
O72 C65 1.185 . S
O72 Zn68 2.086 . S
C73 O69 1.278 . S
C73 O74 1.211 . S
O74 C73 1.211 . S
C75 O67 1.284 . S
C75 O76 1.273 . S
O76 C75 1.273 . S
O77 Zn68 1.977 . S
O77 C70 1.267 . S
C78 O79 1.160 . S
C78 O85 1.185 . S
O79 C78 1.160 . S
O80 Zn81 1.899 . S
O80 C88 1.284 . S
Zn81 O80 1.899 . S
Zn81 O82 2.032 . S
Zn81 O85 2.086 . S
Zn81 O90 1.977 . S
O82 Zn81 2.032 . S
O82 C86 1.278 . S
C83 O84 1.203 . S
C83 O90 1.267 . S
O84 C83 1.203 . S
O85 C78 1.185 . S
O85 Zn81 2.086 . S
C86 O82 1.278 . S
C86 O87 1.211 . S
O87 C86 1.211 . S
C88 O80 1.284 . S
C88 O89 1.273 . S
O89 C88 1.273 . S
O90 Zn81 1.977 . S
O90 C83 1.267 . S
C91 O92 1.160 . S
C91 O98 1.185 . S
O92 C91 1.160 . S
O93 Zn94 1.899 . S
O93 C101 1.284 1_556 S
Zn94 O93 1.899 . S
Zn94 O95 2.032 1_556 S
Zn94 O98 2.086 . S
Zn94 O103 1.977 1_455 S
O95 Zn94 2.032 1_554 S
O95 C99 1.278 . S
C96 O97 1.203 . S
C96 O103 1.267 . S
O97 C96 1.203 . S
O98 C91 1.185 . S
O98 Zn94 2.086 . S
C99 O95 1.278 . S
C99 O100 1.211 . S
O100 C99 1.211 . S
C101 O93 1.284 1_554 S
C101 O102 1.273 . S
O102 C101 1.273 . S
O103 Zn94 1.977 1_655 S
O103 C96 1.267 . S
C104 O105 1.160 . S
C104 O111 1.185 . S
O105 C104 1.160 . S
O106 Zn107 1.899 1_565 S
O106 C114 1.284 . S
Zn107 O106 1.899 1_545 S
Zn107 O108 2.032 . S
Zn107 O111 2.086 . S
Zn107 O116 1.977 1_545 S
O108 Zn107 2.032 . S
O108 C112 1.278 . S
C109 O110 1.203 . S
C109 O116 1.267 . S
O110 C109 1.203 . S
O111 C104 1.185 . S
O111 Zn107 2.086 . S
C112 O108 1.278 . S
C112 O113 1.211 1_545 S
O113 C112 1.211 1_565 S
C114 O106 1.284 . S
C114 O115 1.273 . S
O115 C114 1.273 . S
O116 Zn107 1.977 1_565 S
O116 C109 1.267 . S
C117 O118 1.160 . S
C117 O124 1.185 . S
O118 C117 1.160 . S
O119 Zn120 1.899 . S
O119 C127 1.284 . S
Zn120 O119 1.899 . S
Zn120 O121 2.032 . S
Zn120 O124 2.086 . S
Zn120 O129 1.977 . S
O121 Zn120 2.032 . S
O121 C125 1.278 . S
C122 O123 1.203 . S
C122 O129 1.267 . S
O123 C122 1.203 . S
O124 C117 1.185 . S
O124 Zn120 2.086 . S
C125 O121 1.278 . S
C125 O126 1.211 . S
O126 C125 1.211 . S
C127 O119 1.284 . S
C127 O128 1.273 . S
O128 C127 1.273 . S
O129 Zn120 1.977 . S
O129 C122 1.267 . S
C130 O131 1.160 . S
C130 O137 1.185 . S
O131 C130 1.160 . S
O132 Zn133 1.899 . S
O132 C140 1.284 . S
Zn133 O132 1.899 . S
Zn133 O134 2.032 . S
Zn133 O137 2.086 1_545 S
Zn133 O142 1.977 . S
O134 Zn133 2.032 . S
O134 C138 1.278 . S
C135 O136 1.203 . S
C135 O142 1.267 . S
O136 C135 1.203 . S
O137 C130 1.185 . S
O137 Zn133 2.086 1_565 S
C138 O134 1.278 . S
C138 O139 1.211 . S
O139 C138 1.211 . S
C140 O132 1.284 . S
C140 O141 1.273 . S
O141 C140 1.273 . S
O142 Zn133 1.977 . S
O142 C135 1.267 . S
C143 O144 1.160 . S
C143 O150 1.185 . S
O144 C143 1.160 . S
O145 Zn146 1.899 1_565 S
O145 C153 1.284 . S
Zn146 O145 1.899 1_545 S
Zn146 O147 2.032 1_544 S
Zn146 O150 2.086 . S
Zn146 O155 1.977 . S
O147 Zn146 2.032 1_566 S
O147 C151 1.278 . S
C148 O149 1.203 . S
C148 O155 1.267 . S
O149 C148 1.203 . S
O150 C143 1.185 . S
O150 Zn146 2.086 . S
C151 O147 1.278 . S
C151 O152 1.211 . S
O152 C151 1.211 . S
C153 O145 1.284 . S
C153 O154 1.273 . S
O154 C153 1.273 . S
O155 Zn146 1.977 . S
O155 C148 1.267 . S
C156 O157 1.160 . S
C156 O163 1.185 . S
O157 C156 1.160 . S
O158 Zn159 1.899 . S
O158 C166 1.284 . S
Zn159 O158 1.899 . S
Zn159 O160 2.032 1_554 S
Zn159 O163 2.086 . S
Zn159 O168 1.977 . S
O160 Zn159 2.032 1_556 S
O160 C164 1.278 . S
C161 O162 1.203 . S
C161 O168 1.267 . S
O162 C161 1.203 . S
O163 C156 1.185 . S
O163 Zn159 2.086 . S
C164 O160 1.278 . S
C164 O165 1.211 . S
O165 C164 1.211 . S
C166 O158 1.284 . S
C166 O167 1.273 . S
O167 C166 1.273 . S
O168 Zn159 1.977 . S
O168 C161 1.267 . S
C169 O170 1.160 . S
C169 O176 1.185 . S
O170 C169 1.160 . S
O171 Zn172 1.899 . S
O171 C179 1.284 . S
Zn172 O171 1.899 . S
Zn172 O173 2.032 . S
Zn172 O176 2.086 . S
Zn172 O181 1.977 . S
O173 Zn172 2.032 . S
O173 C177 1.278 1_554 S
C174 O175 1.203 . S
C174 O181 1.267 . S
O175 C174 1.203 . S
O176 C169 1.185 . S
O176 Zn172 2.086 . S
C177 O173 1.278 1_556 S
C177 O178 1.211 . S
O178 C177 1.211 . S
C179 O171 1.284 . S
C179 O180 1.273 . S
O180 C179 1.273 . S
O181 Zn172 1.977 . S
O181 C174 1.267 . S
C182 O183 1.160 . S
C182 O189 1.185 . S
O183 C182 1.160 . S
O184 Zn185 1.899 . S
O184 C192 1.284 . S
Zn185 O184 1.899 . S
Zn185 O186 2.032 . S
Zn185 O189 2.086 . S
Zn185 O194 1.977 . S
O186 Zn185 2.032 . S
O186 C190 1.278 . S
C187 O188 1.203 . S
C187 O194 1.267 . S
O188 C187 1.203 . S
O189 C182 1.185 . S
O189 Zn185 2.086 . S
C190 O186 1.278 . S
C190 O191 1.211 . S
O191 C190 1.211 . S
C192 O184 1.284 . S
C192 O193 1.273 . S
O193 C192 1.273 . S
O194 Zn185 1.977 . S
O194 C187 1.267 . S
C195 O196 1.160 . S
C195 O202 1.185 . S
O196 C195 1.160 . S
O197 Zn198 1.899 . S
O197 C205 1.284 . S
Zn198 O197 1.899 . S
Zn198 O199 2.032 . S
Zn198 O202 2.086 . S
Zn198 O207 1.977 . S
O199 Zn198 2.032 . S
O199 C203 1.278 . S
C200 O201 1.203 . S
C200 O207 1.267 . S
O201 C200 1.203 . S
O202 C195 1.185 . S
O202 Zn198 2.086 . S
C203 O199 1.278 . S
C203 O204 1.211 . S
O204 C203 1.211 . S
C205 O197 1.284 . S
C205 O206 1.273 . S
O206 C205 1.273 . S
O207 Zn198 1.977 . S
O207 C200 1.267 . S
C208 O209 1.160 . S
C208 O215 1.185 . S
O209 C208 1.160 . S
O210 Zn211 1.899 . S
O210 C218 1.284 1_655 S
Zn211 O210 1.899 . S
Zn211 O212 2.032 1_655 S
Zn211 O215 2.086 . S
Zn211 O220 1.977 . S
O212 Zn211 2.032 1_455 S
O212 C216 1.278 . S
C213 O214 1.203 . S
C213 O220 1.267 1_565 S
O214 C213 1.203 . S
O215 C208 1.185 . S
O215 Zn211 2.086 . S
C216 O212 1.278 . S
C216 O217 1.211 . S
O217 C216 1.211 . S
C218 O210 1.284 1_455 S
C218 O219 1.273 . S
O219 C218 1.273 . S
O220 Zn211 1.977 . S
O220 C213 1.267 1_545 S
C221 O222 1.160 . S
C221 O228 1.185 . S
O222 C221 1.160 . S
O223 Zn224 1.899 . S
O223 C231 1.284 . S
Zn224 O223 1.899 . S
Zn224 O225 2.032 . S
Zn224 O228 2.086 . S
Zn224 O233 1.977 . S
O225 Zn224 2.032 . S
O225 C229 1.278 . S
C226 O227 1.203 . S
C226 O233 1.267 . S
O227 C226 1.203 . S
O228 C221 1.185 . S
O228 Zn224 2.086 . S
C229 O225 1.278 . S
C229 O230 1.211 . S
O230 C229 1.211 . S
C231 O223 1.284 . S
C231 O232 1.273 . S
O232 C231 1.273 . S
O233 Zn224 1.977 . S
O233 C226 1.267 . S
C234 O235 1.160 . S
C234 O241 1.185 . S
O235 C234 1.160 . S
O236 Zn237 1.899 . S
O236 C244 1.284 . S
Zn237 O236 1.899 . S
Zn237 O238 2.032 . S
Zn237 O241 2.086 . S
Zn237 O246 1.977 . S
O238 Zn237 2.032 . S
O238 C242 1.278 . S
C239 O240 1.203 . S
C239 O246 1.267 . S
O240 C239 1.203 . S
O241 C234 1.185 . S
O241 Zn237 2.086 . S
C242 O238 1.278 . S
C242 O243 1.211 . S
O243 C242 1.211 . S
C244 O236 1.284 . S
C244 O245 1.273 . S
O245 C244 1.273 . S
O246 Zn237 1.977 . S
O246 C239 1.267 . S
C247 O248 1.160 . S
C247 O254 1.185 . S
O248 C247 1.160 . S
O249 Zn250 1.899 . S
O249 C257 1.284 . S
Zn250 O249 1.899 . S
Zn250 O251 2.032 . S
Zn250 O254 2.086 . S
Zn250 O259 1.977 . S
O251 Zn250 2.032 . S
O251 C255 1.278 . S
C252 O253 1.203 . S
C252 O259 1.267 . S
O253 C252 1.203 . S
O254 C247 1.185 . S
O254 Zn250 2.086 . S
C255 O251 1.278 . S
C255 O256 1.211 . S
O256 C255 1.211 . S
C257 O249 1.284 . S
C257 O258 1.273 . S
O258 C257 1.273 . S
O259 Zn250 1.977 . S
O259 C252 1.267 . S
C260 O261 1.160 . S
C260 O267 1.185 1_554 S
O261 C260 1.160 . S
O262 Zn263 1.899 . S
O262 C270 1.284 . S
Zn263 O262 1.899 . S
Zn263 O264 2.032 1_554 S
Zn263 O267 2.086 1_554 S
Zn263 O272 1.977 1_554 S
O264 Zn263 2.032 1_556 S
O264 C268 1.278 . S
C265 O266 1.203 1_556 S
C265 O272 1.267 . S
O266 C265 1.203 1_554 S
O267 C260 1.185 1_556 S
O267 Zn263 2.086 1_556 S
C268 O264 1.278 . S
C268 O269 1.211 . S
O269 C268 1.211 . S
C270 O262 1.284 . S
C270 O271 1.273 . S
O271 C270 1.273 . S
O272 Zn263 1.977 1_556 S
O272 C265 1.267 . S
C273 O274 1.160 . S
C273 O280 1.185 . S
O274 C273 1.160 . S
O275 Zn276 1.899 . S
O275 C283 1.300 . S
Zn276 O275 1.899 . S
Zn276 O277 2.032 . S
Zn276 O280 2.086 . S
Zn276 O285 1.977 . S
O277 Zn276 2.032 . S
O277 C281 1.278 1_655 S
C278 O279 1.203 . S
C278 O285 1.267 . S
O279 C278 1.203 . S
O280 C273 1.185 . S
O280 Zn276 2.086 . S
C281 O277 1.278 1_455 S
C281 O282 1.211 1_455 S
O282 C281 1.211 1_655 S
C283 O275 1.300 . S
C283 O284 1.264 1_655 S
O284 C283 1.264 1_455 S
O285 Zn276 1.977 . S
O285 C278 1.267 . S
C286 O287 1.160 . S
C286 O293 1.185 . S
O287 C286 1.160 . S
O288 Zn289 1.899 . S
O288 C296 1.284 . S
Zn289 O288 1.899 . S
Zn289 O290 2.032 . S
Zn289 O293 2.086 . S
Zn289 O298 1.977 . S
O290 Zn289 2.032 . S
O290 C294 1.278 . S
C291 O292 1.203 . S
C291 O298 1.267 1_455 S
O292 C291 1.203 . S
O293 C286 1.185 . S
O293 Zn289 2.086 . S
C294 O290 1.278 . S
C294 O295 1.211 . S
O295 C294 1.211 . S
C296 O288 1.284 . S
C296 O297 1.273 . S
O297 C296 1.273 . S
O298 Zn289 1.977 . S
O298 C291 1.267 1_655 S
C299 O300 1.160 . S
C299 O306 1.185 . S
O300 C299 1.160 . S
O301 Zn302 1.899 . S
O301 C309 1.284 . S
Zn302 O301 1.899 . S
Zn302 O303 2.032 . S
Zn302 O306 2.086 . S
Zn302 O311 1.977 . S
O303 Zn302 2.032 . S
O303 C307 1.278 . S
C304 O305 1.203 . S
C304 O311 1.267 . S
O305 C304 1.203 . S
O306 C299 1.185 . S
O306 Zn302 2.086 . S
C307 O303 1.278 . S
C307 O308 1.211 . S
O308 C307 1.211 . S
C309 O301 1.284 . S
C309 O310 1.273 . S
O310 C309 1.273 . S
O311 Zn302 1.977 . S
O311 C304 1.267 . S
Tb312 N343 2.660 1_546 S
Tb312 N350 2.600 1_545 S
Tb312 O356 2.546 1_455 S
Tb312 O357 2.610 1_556 S
Tb312 O359 2.320 1_556 S
Tb312 O360 2.552 . S
Tb312 O361 2.408 1_456 S
Tb312 O363 2.362 1_556 S
Tb312 O364 2.421 . S
Tb312 C376 2.833 1_455 S
C313 C316 1.432 . S
C313 C317 1.414 . S
C313 N320 1.359 . S
C314 C316 1.417 . S
C314 C318 1.432 . S
C314 C326 1.410 . S
C315 C317 1.444 . S
C315 C318 1.317 . S
C315 H338 0.929 . S
C316 C313 1.432 . S
C316 C314 1.417 . S
C316 N324 1.360 . S
C317 C313 1.414 . S
C317 C315 1.444 . S
C317 C322 1.385 . S
C318 C314 1.432 . S
C318 C315 1.317 . S
C318 H330 0.930 . S
C319 C321 1.392 . S
C319 C322 1.370 . S
C319 H331 0.931 . S
N320 C313 1.359 . S
N320 C321 1.327 . S
N320 Tb323 2.600 . S
C321 C319 1.392 . S
C321 N320 1.327 . S
C321 H328 0.930 . S
C322 C317 1.385 . S
C322 C319 1.370 . S
C322 H341 0.930 . S
Tb323 N320 2.600 . S
Tb323 N324 2.660 . S
Tb323 O357 2.362 . S
Tb323 O358 2.421 . S
Tb323 O362 2.546 . S
Tb323 O363 2.610 . S
Tb323 O365 2.320 1_554 S
Tb323 O366 2.552 . S
Tb323 O367 2.413 . S
Tb323 C387 2.833 . S
N324 C316 1.360 . S
N324 Tb323 2.660 . S
N324 C325 1.305 1_554 S
C325 N324 1.305 1_556 S
C325 C327 1.407 . S
C325 H332 0.930 . S
C326 C314 1.410 . S
C326 C327 1.345 1_554 S
C326 H334 0.930 1_554 S
C327 C325 1.407 . S
C327 C326 1.345 1_556 S
C327 H329 0.930 . S
H328 C321 0.930 . S
H329 C327 0.930 . S
H330 C318 0.930 . S
H331 C319 0.931 . S
H332 C325 0.930 . S
H333 C347 0.930 . S
H334 C326 0.930 1_556 S
H335 C353 0.930 . S
H336 C344 0.930 . S
H337 C351 0.931 . S
H338 C315 0.929 . S
H339 C345 0.930 . S
H340 C378 0.930 . S
H341 C322 0.930 . S
H342 C377 0.929 . S
N343 Tb312 2.660 1_564 S
N343 C344 1.305 . S
N343 C348 1.360 1_454 S
C344 H336 0.930 . S
C344 N343 1.305 . S
C344 C347 1.407 . S
C345 H339 0.930 . S
C345 C346 1.410 1_554 S
C345 C347 1.345 1_655 S
C346 C345 1.410 1_556 S
C346 C348 1.417 . S
C346 C378 1.432 . S
C347 H333 0.930 . S
C347 C344 1.407 . S
C347 C345 1.345 1_455 S
C348 N343 1.360 1_656 S
C348 C346 1.417 . S
C348 C352 1.432 . S
H349 C354 0.930 . S
N350 Tb312 2.600 1_565 S
N350 C352 1.359 1_455 S
N350 C353 1.327 . S
C351 H337 0.931 . S
C351 C353 1.392 1_655 S
C351 C354 1.370 . S
C352 C348 1.432 . S
C352 N350 1.359 1_655 S
C352 C355 1.414 . S
C353 H335 0.930 . S
C353 N350 1.327 . S
C353 C351 1.392 1_455 S
C354 H349 0.930 . S
C354 C351 1.370 . S
C354 C355 1.385 . S
C355 C352 1.414 . S
C355 C354 1.385 . S
C355 C377 1.444 . S
O356 Tb312 2.546 1_655 S
O356 C376 1.251 . S
O357 Tb312 2.610 1_554 S
O357 Tb323 2.362 . S
O357 C368 1.283 . S
O358 Tb323 2.421 . S
O358 C375 1.262 . S
O359 Tb312 2.320 1_554 S
O359 C375 1.260 . S
O360 Tb312 2.552 . S
O360 C368 1.243 1_556 S
O361 Tb312 2.408 1_654 S
O361 C376 1.237 1_554 S
O362 Tb323 2.546 . S
O362 C387 1.251 . S
O363 Tb312 2.362 1_554 S
O363 Tb323 2.610 . S
O363 C379 1.283 1_545 S
O364 Tb312 2.421 . S
O364 C386 1.262 . S
O365 Tb323 2.320 1_556 S
O365 C386 1.260 . S
O366 Tb323 2.552 . S
O366 C379 1.243 1_545 S
O367 Tb323 2.413 . S
O367 C387 1.256 . S
C368 O357 1.283 . S
C368 O360 1.243 1_554 S
C369 C371 1.382 . S
C369 C373 1.393 1_545 S
C369 C376 1.500 . S
C370 C371 1.400 . S
C370 C372 1.384 . S
C371 C369 1.382 . S
C371 C370 1.400 . S
C371 H388 0.930 1_556 S
C372 C370 1.384 . S
C372 C374 1.392 1_545 S
C372 H389 0.931 . S
C373 C369 1.393 1_565 S
C373 C374 1.401 . S
C373 H390 0.930 . S
C374 C372 1.392 1_565 S
C374 C373 1.401 . S
C374 H391 0.930 . S
C375 O358 1.262 . S
C375 O359 1.260 . S
C376 Tb312 2.833 1_655 S
C376 O356 1.251 . S
C376 O361 1.237 1_556 S
C376 C369 1.500 . S
C377 H342 0.929 . S
C377 C355 1.444 . S
C377 C378 1.317 . S
C378 H340 0.930 . S
C378 C346 1.432 . S
C378 C377 1.317 . S
C379 O363 1.283 1_565 S
C379 O366 1.243 1_565 S
C380 C381 1.382 . S
C380 C384 1.393 . S
C380 C387 1.500 . S
C381 C380 1.382 . S
C381 C382 1.400 . S
C381 H392 0.930 . S
C382 C381 1.400 . S
C382 C383 1.384 . S
C383 C382 1.384 . S
C383 C385 1.392 . S
C383 H393 0.931 . S
C384 C380 1.393 . S
C384 C385 1.401 . S
C384 H394 0.930 . S
C385 C383 1.392 . S
C385 C384 1.401 . S
C385 H395 0.930 . S
C386 O364 1.262 . S
C386 O365 1.260 . S
C387 Tb323 2.833 . S
C387 O362 1.251 . S
C387 O367 1.256 . S
C387 C380 1.500 . S
H388 C371 0.930 1_554 S
H389 C372 0.931 . S
H390 C373 0.930 . S
H391 C374 0.930 . S
H392 C381 0.930 . S
H393 C383 0.931 . S
H394 C384 0.930 . S
H395 C385 0.930 . S
Tb396 N427 2.660 . S
Tb396 N434 2.600 . S
Tb396 O440 2.546 . S
Tb396 O441 2.610 . S
Tb396 O443 2.320 . S
Tb396 O444 2.552 . S
Tb396 O445 2.413 . S
Tb396 O447 2.362 . S
Tb396 O448 2.421 . S
Tb396 C460 2.833 . S
C397 C400 1.432 . S
C397 C401 1.414 . S
C397 N404 1.359 . S
C398 C400 1.417 . S
C398 C402 1.432 1_565 S
C398 C410 1.410 . S
C399 C401 1.444 1_545 S
C399 C402 1.317 . S
C399 H422 0.929 . S
C400 C397 1.432 . S
C400 C398 1.417 . S
C400 N408 1.360 . S
C401 C397 1.414 . S
C401 C399 1.444 1_565 S
C401 C406 1.385 . S
C402 C398 1.432 1_545 S
C402 C399 1.317 . S
C402 H414 0.930 . S
C403 C405 1.392 . S
C403 C406 1.370 . S
C403 H415 0.931 . S
N404 C397 1.359 . S
N404 C405 1.327 . S
N404 Tb407 2.600 . S
C405 C403 1.392 . S
C405 N404 1.327 . S
C405 H412 0.930 . S
C406 C401 1.385 . S
C406 C403 1.370 . S
C406 H425 0.930 . S
Tb407 N404 2.600 . S
Tb407 N408 2.660 . S
Tb407 O441 2.362 . S
Tb407 O442 2.421 . S
Tb407 O446 2.546 . S
Tb407 O447 2.610 . S
Tb407 O449 2.320 . S
Tb407 O450 2.552 . S
Tb407 O451 2.413 . S
Tb407 C471 2.833 . S
N408 C400 1.360 . S
N408 Tb407 2.660 . S
N408 C409 1.305 . S
C409 N408 1.305 . S
C409 C411 1.407 . S
C409 H416 0.930 . S
C410 C398 1.410 . S
C410 C411 1.345 . S
C410 H418 0.930 1_565 S
C411 C409 1.407 . S
C411 C410 1.345 . S
C411 H413 0.930 . S
H412 C405 0.930 . S
H413 C411 0.930 . S
H414 C402 0.930 . S
H415 C403 0.931 . S
H416 C409 0.930 . S
H417 C431 0.930 . S
H418 C410 0.930 1_545 S
H419 C437 0.930 . S
H420 C428 0.930 . S
H421 C435 0.931 . S
H422 C399 0.929 . S
H423 C429 0.930 . S
H424 C462 0.930 . S
H425 C406 0.930 . S
H426 C461 0.929 . S
N427 Tb396 2.660 . S
N427 C428 1.305 . S
N427 C432 1.360 . S
C428 H420 0.930 . S
C428 N427 1.305 . S
C428 C431 1.407 . S
C429 H423 0.930 . S
C429 C430 1.410 . S
C429 C431 1.345 . S
C430 C429 1.410 . S
C430 C432 1.417 . S
C430 C462 1.432 . S
C431 H417 0.930 . S
C431 C428 1.407 . S
C431 C429 1.345 . S
C432 N427 1.360 . S
C432 C430 1.417 . S
C432 C436 1.432 . S
H433 C438 0.930 . S
N434 Tb396 2.600 . S
N434 C436 1.359 . S
N434 C437 1.327 . S
C435 H421 0.931 . S
C435 C437 1.392 . S
C435 C438 1.370 . S
C436 C432 1.432 . S
C436 N434 1.359 . S
C436 C439 1.414 . S
C437 H419 0.930 . S
C437 N434 1.327 . S
C437 C435 1.392 . S
C438 H433 0.930 . S
C438 C435 1.370 . S
C438 C439 1.385 . S
C439 C436 1.414 . S
C439 C438 1.385 . S
C439 C461 1.444 . S
O440 Tb396 2.546 . S
O440 C460 1.251 . S
O441 Tb396 2.610 . S
O441 Tb407 2.362 . S
O441 C452 1.283 . S
O442 Tb407 2.421 . S
O442 C459 1.262 . S
O443 Tb396 2.320 . S
O443 C459 1.260 . S
O444 Tb396 2.552 . S
O444 C452 1.243 . S
O445 Tb396 2.413 . S
O445 C460 1.256 . S
O446 Tb407 2.546 . S
O446 C471 1.251 . S
O447 Tb396 2.362 . S
O447 Tb407 2.610 . S
O447 C463 1.283 . S
O448 Tb396 2.421 . S
O448 C470 1.262 . S
O449 Tb407 2.320 . S
O449 C470 1.260 . S
O450 Tb407 2.552 . S
O450 C463 1.243 . S
O451 Tb407 2.413 . S
O451 C471 1.256 . S
C452 O441 1.283 . S
C452 O444 1.243 . S
C453 C455 1.382 . S
C453 C457 1.393 . S
C453 C460 1.500 . S
C454 C455 1.400 . S
C454 C456 1.384 . S
C455 C453 1.382 . S
C455 C454 1.400 . S
C455 H472 0.930 . S
C456 C454 1.384 . S
C456 C458 1.392 . S
C456 H473 0.931 . S
C457 C453 1.393 . S
C457 C458 1.401 . S
C457 H474 0.930 . S
C458 C456 1.392 . S
C458 C457 1.401 . S
C458 H475 0.930 . S
C459 O442 1.262 . S
C459 O443 1.260 . S
C460 Tb396 2.833 . S
C460 O440 1.251 . S
C460 O445 1.256 . S
C460 C453 1.500 . S
C461 H426 0.929 . S
C461 C439 1.444 . S
C461 C462 1.317 . S
C462 H424 0.930 . S
C462 C430 1.432 . S
C462 C461 1.317 . S
C463 O447 1.283 . S
C463 O450 1.243 . S
C464 C465 1.382 . S
C464 C468 1.393 . S
C464 C471 1.500 . S
C465 C464 1.382 . S
C465 C466 1.400 . S
C465 H476 0.930 . S
C466 C465 1.400 . S
C466 C467 1.384 . S
C467 C466 1.384 . S
C467 C469 1.392 . S
C467 H477 0.931 . S
C468 C464 1.393 . S
C468 C469 1.401 . S
C468 H478 0.930 . S
C469 C467 1.392 . S
C469 C468 1.401 . S
C469 H479 0.930 . S
C470 O448 1.262 . S
C470 O449 1.260 . S
C471 Tb407 2.833 . S
C471 O446 1.251 . S
C471 O451 1.256 . S
C471 C464 1.500 . S
H472 C455 0.930 . S
H473 C456 0.931 . S
H474 C457 0.930 . S
H475 C458 0.930 . S
H476 C465 0.930 . S
H477 C467 0.931 . S
H478 C468 0.930 . S
H479 C469 0.930 . S
Tb480 N511 2.660 . S
Tb480 N518 2.600 . S
Tb480 O524 2.547 . S
Tb480 O525 2.610 . S
Tb480 O527 2.320 . S
Tb480 O528 2.552 1_545 S
Tb480 O529 2.413 . S
Tb480 O531 2.362 . S
Tb480 O532 2.421 . S
Tb480 C544 2.833 . S
C481 C484 1.432 . S
C481 C485 1.414 . S
C481 N488 1.359 1_565 S
C482 C484 1.417 . S
C482 C486 1.432 . S
C482 C494 1.410 . S
C483 C485 1.444 . S
C483 C486 1.317 . S
C483 H506 0.929 . S
C484 C481 1.432 . S
C484 C482 1.417 . S
C484 N492 1.360 . S
C485 C481 1.414 . S
C485 C483 1.444 . S
C485 C490 1.385 . S
C486 C482 1.432 . S
C486 C483 1.317 . S
C486 H498 0.930 . S
C487 C489 1.392 . S
C487 C490 1.370 1_545 S
C487 H499 0.931 . S
N488 C481 1.359 1_545 S
N488 C489 1.327 . S
N488 Tb491 2.600 . S
C489 C487 1.392 . S
C489 N488 1.327 . S
C489 H496 0.930 . S
C490 C485 1.385 . S
C490 C487 1.370 1_565 S
C490 H509 0.930 . S
Tb491 N488 2.600 . S
Tb491 N492 2.660 1_545 S
Tb491 O525 2.362 . S
Tb491 O526 2.421 . S
Tb491 O530 2.546 . S
Tb491 O531 2.610 . S
Tb491 O533 2.320 . S
Tb491 O534 2.552 . S
Tb491 O535 2.413 . S
Tb491 C555 2.833 . S
N492 C484 1.360 . S
N492 Tb491 2.660 1_565 S
N492 C493 1.305 . S
C493 N492 1.305 . S
C493 C495 1.407 . S
C493 H500 0.930 . S
C494 C482 1.410 . S
C494 C495 1.345 . S
C494 H502 0.930 . S
C495 C493 1.407 . S
C495 C494 1.345 . S
C495 H497 0.930 . S
H496 C489 0.930 . S
H497 C495 0.930 . S
H498 C486 0.930 . S
H499 C487 0.931 . S
H500 C493 0.930 . S
H501 C515 0.930 . S
H502 C494 0.930 . S
H503 C521 0.930 . S
H504 C512 0.930 . S
H505 C519 0.931 . S
H506 C483 0.929 . S
H507 C513 0.930 . S
H508 C546 0.930 . S
H509 C490 0.930 . S
H510 C545 0.929 . S
N511 Tb480 2.660 . S
N511 C512 1.305 . S
N511 C516 1.360 . S
C512 H504 0.930 . S
C512 N511 1.305 . S
C512 C515 1.407 . S
C513 H507 0.930 . S
C513 C514 1.410 . S
C513 C515 1.345 . S
C514 C513 1.410 . S
C514 C516 1.417 . S
C514 C546 1.432 . S
C515 H501 0.930 . S
C515 C512 1.407 . S
C515 C513 1.345 . S
C516 N511 1.360 . S
C516 C514 1.417 . S
C516 C520 1.432 . S
H517 C522 0.930 . S
N518 Tb480 2.600 . S
N518 C520 1.359 . S
N518 C521 1.327 . S
C519 H505 0.931 . S
C519 C521 1.392 . S
C519 C522 1.370 . S
C520 C516 1.432 . S
C520 N518 1.359 . S
C520 C523 1.414 . S
C521 H503 0.930 . S
C521 N518 1.327 . S
C521 C519 1.392 . S
C522 H517 0.930 . S
C522 C519 1.370 . S
C522 C523 1.385 . S
C523 C520 1.414 . S
C523 C522 1.385 . S
C523 C545 1.444 . S
O524 Tb480 2.547 . S
O524 C544 1.250 . S
O525 Tb480 2.610 . S
O525 Tb491 2.362 . S
O525 C536 1.283 1_545 S
O526 Tb491 2.421 . S
O526 C543 1.262 . S
O527 Tb480 2.320 . S
O527 C543 1.260 . S
O528 Tb480 2.552 1_565 S
O528 C536 1.243 . S
O529 Tb480 2.413 . S
O529 C544 1.256 . S
O530 Tb491 2.546 . S
O530 C555 1.251 . S
O531 Tb480 2.362 . S
O531 Tb491 2.610 . S
O531 C547 1.283 . S
O532 Tb480 2.421 . S
O532 C554 1.262 . S
O533 Tb491 2.320 . S
O533 C554 1.260 . S
O534 Tb491 2.552 . S
O534 C547 1.243 . S
O535 Tb491 2.413 . S
O535 C555 1.256 . S
C536 O525 1.283 1_565 S
C536 O528 1.243 . S
C537 C539 1.382 . S
C537 C541 1.393 . S
C537 C544 1.500 1_565 S
C538 C539 1.400 . S
C538 C540 1.384 . S
C539 C537 1.382 . S
C539 C538 1.400 . S
C539 H556 0.930 . S
C540 C538 1.384 . S
C540 C542 1.392 . S
C540 H557 0.931 . S
C541 C537 1.393 . S
C541 C542 1.401 . S
C541 H558 0.930 . S
C542 C540 1.392 . S
C542 C541 1.401 . S
C542 H559 0.930 . S
C543 O526 1.262 . S
C543 O527 1.260 . S
C544 Tb480 2.833 . S
C544 O524 1.250 . S
C544 O529 1.256 . S
C544 C537 1.500 1_545 S
C545 H510 0.929 . S
C545 C523 1.444 . S
C545 C546 1.317 . S
C546 H508 0.930 . S
C546 C514 1.432 . S
C546 C545 1.317 . S
C547 O531 1.283 . S
C547 O534 1.243 . S
C548 C549 1.382 . S
C548 C552 1.393 . S
C548 C555 1.500 . S
C549 C548 1.382 . S
C549 C550 1.400 . S
C549 H560 0.930 . S
C550 C549 1.400 . S
C550 C551 1.384 . S
C551 C550 1.384 . S
C551 C553 1.392 . S
C551 H561 0.931 . S
C552 C548 1.393 . S
C552 C553 1.401 . S
C552 H562 0.930 . S
C553 C551 1.392 . S
C553 C552 1.401 . S
C553 H563 0.930 . S
C554 O532 1.262 . S
C554 O533 1.260 . S
C555 Tb491 2.833 . S
C555 O530 1.251 . S
C555 O535 1.256 . S
C555 C548 1.500 . S
H556 C539 0.930 . S
H557 C540 0.931 . S
H558 C541 0.930 . S
H559 C542 0.930 . S
H560 C549 0.930 . S
H561 C551 0.931 . S
H562 C552 0.930 . S
H563 C553 0.930 . S
Tb564 N595 2.660 . S
Tb564 N602 2.600 . S
Tb564 O608 2.546 . S
Tb564 O609 2.610 . S
Tb564 O611 2.320 . S
Tb564 O612 2.552 . S
Tb564 O613 2.413 . S
Tb564 O615 2.362 . S
Tb564 O616 2.421 . S
Tb564 C628 2.833 . S
C565 C568 1.432 . S
C565 C569 1.414 . S
C565 N572 1.359 . S
C566 C568 1.417 . S
C566 C570 1.432 . S
C566 C578 1.410 . S
C567 C569 1.444 . S
C567 C570 1.317 . S
C567 H590 0.929 . S
C568 C565 1.432 . S
C568 C566 1.417 . S
C568 N576 1.360 . S
C569 C565 1.414 . S
C569 C567 1.444 . S
C569 C574 1.385 . S
C570 C566 1.432 . S
C570 C567 1.317 . S
C570 H582 0.930 1_556 S
C571 C573 1.392 . S
C571 C574 1.370 . S
C571 H583 0.931 . S
N572 C565 1.359 . S
N572 C573 1.327 . S
N572 Tb575 2.600 . S
C573 C571 1.392 . S
C573 N572 1.327 . S
C573 H580 0.930 . S
C574 C569 1.385 . S
C574 C571 1.370 . S
C574 H593 0.930 . S
Tb575 N572 2.600 . S
Tb575 N576 2.660 . S
Tb575 O609 2.362 . S
Tb575 O610 2.421 . S
Tb575 O614 2.546 . S
Tb575 O615 2.610 . S
Tb575 O617 2.320 . S
Tb575 O618 2.552 . S
Tb575 O619 2.413 . S
Tb575 C639 2.833 . S
N576 C568 1.360 . S
N576 Tb575 2.660 . S
N576 C577 1.305 . S
C577 N576 1.305 . S
C577 C579 1.407 . S
C577 H584 0.930 . S
C578 C566 1.410 . S
C578 C579 1.345 . S
C578 H586 0.930 1_556 S
C579 C577 1.407 . S
C579 C578 1.345 . S
C579 H581 0.930 . S
H580 C573 0.930 . S
H581 C579 0.930 . S
H582 C570 0.930 1_554 S
H583 C571 0.931 . S
H584 C577 0.930 . S
H585 C599 0.930 . S
H586 C578 0.930 1_554 S
H587 C605 0.930 . S
H588 C596 0.930 . S
H589 C603 0.931 . S
H590 C567 0.929 . S
H591 C597 0.930 . S
H592 C630 0.930 . S
H593 C574 0.930 . S
H594 C629 0.929 . S
N595 Tb564 2.660 . S
N595 C596 1.305 . S
N595 C600 1.360 . S
C596 H588 0.930 . S
C596 N595 1.305 . S
C596 C599 1.407 . S
C597 H591 0.930 . S
C597 C598 1.410 . S
C597 C599 1.345 . S
C598 C597 1.410 . S
C598 C600 1.417 . S
C598 C630 1.432 . S
C599 H585 0.930 . S
C599 C596 1.407 . S
C599 C597 1.345 . S
C600 N595 1.360 . S
C600 C598 1.417 . S
C600 C604 1.432 . S
H601 C606 0.930 . S
N602 Tb564 2.600 . S
N602 C604 1.359 . S
N602 C605 1.327 . S
C603 H589 0.931 . S
C603 C605 1.392 . S
C603 C606 1.370 . S
C604 C600 1.432 . S
C604 N602 1.359 . S
C604 C607 1.414 . S
C605 H587 0.930 . S
C605 N602 1.327 . S
C605 C603 1.392 . S
C606 H601 0.930 . S
C606 C603 1.370 . S
C606 C607 1.385 . S
C607 C604 1.414 . S
C607 C606 1.385 . S
C607 C629 1.444 . S
O608 Tb564 2.546 . S
O608 C628 1.251 . S
O609 Tb564 2.610 . S
O609 Tb575 2.362 . S
O609 C620 1.283 . S
O610 Tb575 2.421 . S
O610 C627 1.262 . S
O611 Tb564 2.320 . S
O611 C627 1.260 . S
O612 Tb564 2.552 . S
O612 C620 1.243 . S
O613 Tb564 2.413 . S
O613 C628 1.256 . S
O614 Tb575 2.546 . S
O614 C639 1.251 . S
O615 Tb564 2.362 . S
O615 Tb575 2.610 . S
O615 C631 1.283 . S
O616 Tb564 2.421 . S
O616 C638 1.262 . S
O617 Tb575 2.320 . S
O617 C638 1.260 . S
O618 Tb575 2.552 . S
O618 C631 1.243 . S
O619 Tb575 2.413 . S
O619 C639 1.256 . S
C620 O609 1.283 . S
C620 O612 1.243 . S
C621 C623 1.382 . S
C621 C625 1.393 . S
C621 C628 1.500 . S
C622 C623 1.400 . S
C622 C624 1.384 . S
C623 C621 1.382 . S
C623 C622 1.400 . S
C623 H640 0.930 . S
C624 C622 1.384 . S
C624 C626 1.392 . S
C624 H641 0.931 . S
C625 C621 1.393 . S
C625 C626 1.401 . S
C625 H642 0.930 . S
C626 C624 1.392 . S
C626 C625 1.401 . S
C626 H643 0.930 . S
C627 O610 1.262 . S
C627 O611 1.260 . S
C628 Tb564 2.833 . S
C628 O608 1.251 . S
C628 O613 1.256 . S
C628 C621 1.500 . S
C629 H594 0.929 . S
C629 C607 1.444 . S
C629 C630 1.317 . S
C630 H592 0.930 . S
C630 C598 1.432 . S
C630 C629 1.317 . S
C631 O615 1.283 . S
C631 O618 1.243 . S
C632 C633 1.382 . S
C632 C636 1.393 . S
C632 C639 1.500 . S
C633 C632 1.382 . S
C633 C634 1.400 . S
C633 H644 0.930 . S
C634 C633 1.400 . S
C634 C635 1.384 . S
C635 C634 1.384 . S
C635 C637 1.392 . S
C635 H645 0.931 . S
C636 C632 1.393 . S
C636 C637 1.401 . S
C636 H646 0.930 . S
C637 C635 1.392 . S
C637 C636 1.401 . S
C637 H647 0.930 . S
C638 O616 1.262 . S
C638 O617 1.260 . S
C639 Tb575 2.833 . S
C639 O614 1.251 . S
C639 O619 1.256 . S
C639 C632 1.500 . S
H640 C623 0.930 . S
H641 C624 0.931 . S
H642 C625 0.930 . S
H643 C626 0.930 . S
H644 C633 0.930 . S
H645 C635 0.931 . S
H646 C636 0.930 . S
H647 C637 0.930 . S
Tb648 N679 2.660 . S
Tb648 N686 2.600 . S
Tb648 O692 2.546 . S
Tb648 O693 2.610 . S
Tb648 O695 2.320 . S
Tb648 O696 2.552 . S
Tb648 O697 2.413 . S
Tb648 O699 2.362 . S
Tb648 O700 2.421 . S
Tb648 C712 2.833 . S
C649 C652 1.432 . S
C649 C653 1.414 . S
C649 N656 1.359 . S
C650 C652 1.417 . S
C650 C654 1.432 . S
C650 C662 1.410 1_455 S
C651 C653 1.444 . S
C651 C654 1.317 . S
C651 H674 0.929 . S
C652 C649 1.432 . S
C652 C650 1.417 . S
C652 N660 1.360 . S
C653 C649 1.414 . S
C653 C651 1.444 . S
C653 C658 1.385 . S
C654 C650 1.432 . S
C654 C651 1.317 . S
C654 H666 0.930 . S
C655 C657 1.392 . S
C655 C658 1.370 . S
C655 H667 0.931 . S
N656 C649 1.359 . S
N656 C657 1.327 . S
N656 Tb659 2.600 . S
C657 C655 1.392 . S
C657 N656 1.327 . S
C657 H664 0.930 . S
C658 C653 1.385 . S
C658 C655 1.370 . S
C658 H677 0.930 . S
Tb659 N656 2.600 . S
Tb659 N660 2.660 . S
Tb659 O693 2.362 1_565 S
Tb659 O694 2.421 1_565 S
Tb659 O698 2.546 . S
Tb659 O699 2.610 1_565 S
Tb659 O701 2.320 . S
Tb659 O702 2.552 . S
Tb659 O703 2.413 . S
Tb659 C723 2.833 . S
N660 C652 1.360 . S
N660 Tb659 2.660 . S
N660 C661 1.275 1_455 S
C661 N660 1.275 1_655 S
C661 C663 1.424 . S
C661 H668 0.945 . S
C662 C650 1.410 1_655 S
C662 C663 1.345 . S
C662 H670 0.930 . S
C663 C661 1.424 . S
C663 C662 1.345 . S
C663 H665 0.930 . S
H664 C657 0.930 . S
H665 C663 0.930 . S
H666 C654 0.930 . S
H667 C655 0.931 . S
H668 C661 0.945 . S
H669 C683 0.930 . S
H670 C662 0.930 . S
H671 C689 0.930 . S
H672 C680 0.930 . S
H673 C687 0.931 1_655 S
H674 C651 0.929 . S
H675 C681 0.930 . S
H676 C714 0.930 . S
H677 C658 0.930 . S
H678 C713 0.929 . S
N679 Tb648 2.660 . S
N679 C680 1.305 . S
N679 C684 1.360 . S
C680 H672 0.930 . S
C680 N679 1.305 . S
C680 C683 1.407 . S
C681 H675 0.930 . S
C681 C682 1.410 . S
C681 C683 1.345 . S
C682 C681 1.410 . S
C682 C684 1.417 . S
C682 C714 1.432 . S
C683 H669 0.930 . S
C683 C680 1.407 . S
C683 C681 1.345 . S
C684 N679 1.360 . S
C684 C682 1.417 . S
C684 C688 1.432 . S
H685 C690 0.930 . S
N686 Tb648 2.600 . S
N686 C688 1.359 . S
N686 C689 1.327 . S
C687 H673 0.931 1_455 S
C687 C689 1.392 . S
C687 C690 1.370 . S
C688 C684 1.432 . S
C688 N686 1.359 . S
C688 C691 1.414 . S
C689 H671 0.930 . S
C689 N686 1.327 . S
C689 C687 1.392 . S
C690 H685 0.930 . S
C690 C687 1.370 . S
C690 C691 1.385 . S
C691 C688 1.414 . S
C691 C690 1.385 . S
C691 C713 1.444 . S
O692 Tb648 2.546 . S
O692 C712 1.251 . S
O693 Tb648 2.610 . S
O693 Tb659 2.362 1_545 S
O693 C704 1.283 . S
O694 Tb659 2.421 1_545 S
O694 C711 1.262 . S
O695 Tb648 2.320 . S
O695 C711 1.260 . S
O696 Tb648 2.552 . S
O696 C704 1.243 . S
O697 Tb648 2.413 . S
O697 C712 1.256 . S
O698 Tb659 2.546 . S
O698 C723 1.251 . S
O699 Tb648 2.362 . S
O699 Tb659 2.610 1_545 S
O699 C715 1.283 . S
O700 Tb648 2.421 . S
O700 C722 1.262 . S
O701 Tb659 2.320 . S
O701 C722 1.260 1_565 S
O702 Tb659 2.552 . S
O702 C715 1.243 1_565 S
O703 Tb659 2.413 . S
O703 C723 1.256 . S
C704 O693 1.283 . S
C704 O696 1.243 . S
C705 C707 1.382 . S
C705 C709 1.393 . S
C705 C712 1.500 . S
C706 C707 1.400 . S
C706 C708 1.384 . S
C707 C705 1.382 . S
C707 C706 1.400 . S
C707 H724 0.930 . S
C708 C706 1.384 . S
C708 C710 1.392 . S
C708 H725 0.931 . S
C709 C705 1.393 . S
C709 C710 1.401 . S
C709 H726 0.930 . S
C710 C708 1.392 . S
C710 C709 1.401 . S
C710 H727 0.930 . S
C711 O694 1.262 . S
C711 O695 1.260 . S
C712 Tb648 2.833 . S
C712 O692 1.251 . S
C712 O697 1.256 . S
C712 C705 1.500 . S
C713 H678 0.929 . S
C713 C691 1.444 . S
C713 C714 1.317 . S
C714 H676 0.930 . S
C714 C682 1.432 . S
C714 C713 1.317 . S
C715 O699 1.283 . S
C715 O702 1.243 1_545 S
C716 C717 1.382 . S
C716 C720 1.393 . S
C716 C723 1.500 . S
C717 C716 1.382 . S
C717 C718 1.400 . S
C717 H728 0.930 . S
C718 C717 1.400 . S
C718 C719 1.384 . S
C719 C718 1.384 . S
C719 C721 1.392 . S
C719 H729 0.931 . S
C720 C716 1.393 . S
C720 C721 1.401 . S
C720 H730 0.930 . S
C721 C719 1.392 . S
C721 C720 1.401 . S
C721 H731 0.930 . S
C722 O700 1.262 . S
C722 O701 1.260 1_545 S
C723 Tb659 2.833 . S
C723 O698 1.251 . S
C723 O703 1.256 . S
C723 C716 1.500 . S
H724 C707 0.930 . S
H725 C708 0.931 . S
H726 C709 0.930 . S
H727 C710 0.930 . S
H728 C717 0.930 . S
H729 C719 0.931 . S
H730 C720 0.930 . S
H731 C721 0.930 . S
Tb732 N763 2.660 . S
Tb732 N770 2.600 . S
Tb732 O776 2.546 . S
Tb732 O777 2.610 . S
Tb732 O779 2.320 . S
Tb732 O780 2.552 . S
Tb732 O781 2.413 . S
Tb732 O783 2.362 . S
Tb732 O784 2.421 . S
Tb732 C796 2.833 . S
C733 C736 1.432 . S
C733 C737 1.414 . S
C733 N740 1.359 . S
C734 C736 1.417 . S
C734 C738 1.432 . S
C734 C746 1.410 . S
C735 C737 1.444 . S
C735 C738 1.317 . S
C735 H758 0.929 . S
C736 C733 1.432 . S
C736 C734 1.417 . S
C736 N744 1.360 . S
C737 C733 1.414 . S
C737 C735 1.444 . S
C737 C742 1.385 . S
C738 C734 1.432 . S
C738 C735 1.317 . S
C738 H750 0.930 . S
C739 C741 1.392 . S
C739 C742 1.370 . S
C739 H751 0.931 1_556 S
N740 C733 1.359 . S
N740 C741 1.327 . S
N740 Tb743 2.600 . S
C741 C739 1.392 . S
C741 N740 1.327 . S
C741 H748 0.930 . S
C742 C737 1.385 . S
C742 C739 1.370 . S
C742 H761 0.930 1_556 S
Tb743 N740 2.600 . S
Tb743 N744 2.660 . S
Tb743 O777 2.362 . S
Tb743 O778 2.421 . S
Tb743 O782 2.546 . S
Tb743 O783 2.610 . S
Tb743 O785 2.320 . S
Tb743 O786 2.552 . S
Tb743 O787 2.413 . S
Tb743 C807 2.833 . S
N744 C736 1.360 . S
N744 Tb743 2.660 . S
N744 C745 1.305 . S
C745 N744 1.305 . S
C745 C747 1.407 . S
C745 H752 0.930 . S
C746 C734 1.410 . S
C746 C747 1.345 . S
C746 H754 0.930 . S
C747 C745 1.407 . S
C747 C746 1.345 . S
C747 H749 0.930 . S
H748 C741 0.930 . S
H749 C747 0.930 . S
H750 C738 0.930 . S
H751 C739 0.931 1_554 S
H752 C745 0.930 . S
H753 C767 0.930 . S
H754 C746 0.930 . S
H755 C773 0.930 . S
H756 C764 0.930 . S
H757 C771 0.931 . S
H758 C735 0.929 . S
H759 C765 0.930 . S
H760 C798 0.930 . S
H761 C742 0.930 1_554 S
H762 C797 0.929 1_545 S
N763 Tb732 2.660 . S
N763 C764 1.305 . S
N763 C768 1.360 . S
C764 H756 0.930 . S
C764 N763 1.305 . S
C764 C767 1.407 1_565 S
C765 H759 0.930 . S
C765 C766 1.410 . S
C765 C767 1.345 . S
C766 C765 1.410 . S
C766 C768 1.417 1_545 S
C766 C798 1.432 . S
C767 H753 0.930 . S
C767 C764 1.407 1_545 S
C767 C765 1.345 . S
C768 N763 1.360 . S
C768 C766 1.417 1_565 S
C768 C772 1.432 . S
H769 C774 0.930 . S
N770 Tb732 2.600 . S
N770 C772 1.359 . S
N770 C773 1.327 . S
C771 H757 0.931 . S
C771 C773 1.392 . S
C771 C774 1.370 . S
C772 C768 1.432 . S
C772 N770 1.359 . S
C772 C775 1.414 . S
C773 H755 0.930 . S
C773 N770 1.327 . S
C773 C771 1.392 . S
C774 H769 0.930 . S
C774 C771 1.370 . S
C774 C775 1.385 . S
C775 C772 1.414 . S
C775 C774 1.385 . S
C775 C797 1.444 . S
O776 Tb732 2.546 . S
O776 C796 1.251 . S
O777 Tb732 2.610 . S
O777 Tb743 2.362 . S
O777 C788 1.283 . S
O778 Tb743 2.421 . S
O778 C795 1.262 . S
O779 Tb732 2.320 . S
O779 C795 1.260 . S
O780 Tb732 2.552 . S
O780 C788 1.243 . S
O781 Tb732 2.413 . S
O781 C796 1.256 . S
O782 Tb743 2.546 . S
O782 C807 1.251 . S
O783 Tb732 2.362 . S
O783 Tb743 2.610 . S
O783 C799 1.283 . S
O784 Tb732 2.421 . S
O784 C806 1.262 . S
O785 Tb743 2.320 . S
O785 C806 1.260 . S
O786 Tb743 2.552 . S
O786 C799 1.243 . S
O787 Tb743 2.413 . S
O787 C807 1.256 . S
C788 O777 1.283 . S
C788 O780 1.243 . S
C789 C791 1.382 . S
C789 C793 1.393 . S
C789 C796 1.500 . S
C790 C791 1.400 . S
C790 C792 1.384 . S
C791 C789 1.382 . S
C791 C790 1.400 . S
C791 H808 0.930 . S
C792 C790 1.384 . S
C792 C794 1.392 . S
C792 H809 0.931 . S
C793 C789 1.393 . S
C793 C794 1.401 . S
C793 H810 0.930 . S
C794 C792 1.392 . S
C794 C793 1.401 . S
C794 H811 0.930 . S
C795 O778 1.262 . S
C795 O779 1.260 . S
C796 Tb732 2.833 . S
C796 O776 1.251 . S
C796 O781 1.256 . S
C796 C789 1.500 . S
C797 H762 0.929 1_565 S
C797 C775 1.444 . S
C797 C798 1.317 1_565 S
C798 H760 0.930 . S
C798 C766 1.432 . S
C798 C797 1.317 1_545 S
C799 O783 1.283 . S
C799 O786 1.243 . S
C800 C801 1.382 . S
C800 C804 1.393 . S
C800 C807 1.500 . S
C801 C800 1.382 . S
C801 C802 1.400 . S
C801 H812 0.930 . S
C802 C801 1.400 . S
C802 C803 1.384 . S
C803 C802 1.384 . S
C803 C805 1.392 . S
C803 H813 0.931 . S
C804 C800 1.393 . S
C804 C805 1.401 . S
C804 H814 0.930 . S
C805 C803 1.392 . S
C805 C804 1.401 . S
C805 H815 0.930 . S
C806 O784 1.262 . S
C806 O785 1.260 . S
C807 Tb743 2.833 . S
C807 O782 1.251 . S
C807 O787 1.256 . S
C807 C800 1.500 . S
H808 C791 0.930 . S
H809 C792 0.931 . S
H810 C793 0.930 . S
H811 C794 0.930 . S
H812 C801 0.930 . S
H813 C803 0.931 . S
H814 C804 0.930 . S
H815 C805 0.930 . S
Tb816 N847 2.660 . S
Tb816 N854 2.600 1_545 S
Tb816 O860 2.546 1_545 S
Tb816 O861 2.610 . S
Tb816 O863 2.320 . S
Tb816 O864 2.552 1_545 S
Tb816 O865 2.413 . S
Tb816 O867 2.362 . S
Tb816 O868 2.421 1_545 S
Tb816 C880 2.833 1_545 S
C817 C820 1.432 . S
C817 C821 1.414 . S
C817 N824 1.359 . S
C818 C820 1.417 1_565 S
C818 C822 1.432 1_565 S
C818 C830 1.410 . S
C819 C821 1.444 . S
C819 C822 1.317 . S
C819 H842 0.929 . S
C820 C817 1.432 . S
C820 C818 1.417 1_545 S
C820 N828 1.360 . S
C821 C817 1.414 . S
C821 C819 1.444 . S
C821 C826 1.385 . S
C822 C818 1.432 1_545 S
C822 C819 1.317 . S
C822 H834 0.930 1_545 S
C823 C825 1.392 . S
C823 C826 1.370 . S
C823 H835 0.931 . S
N824 C817 1.359 . S
N824 C825 1.327 . S
N824 Tb827 2.600 . S
C825 C823 1.392 . S
C825 N824 1.327 . S
C825 H832 0.930 . S
C826 C821 1.385 . S
C826 C823 1.370 . S
C826 H845 0.930 . S
Tb827 N824 2.600 . S
Tb827 N828 2.660 . S
Tb827 O861 2.362 1_556 S
Tb827 O862 2.421 1_556 S
Tb827 O866 2.546 . S
Tb827 O867 2.610 1_556 S
Tb827 O869 2.304 1_545 S
Tb827 O870 2.552 1_556 S
Tb827 O871 2.413 . S
Tb827 C891 2.833 . S
N828 C820 1.360 . S
N828 Tb827 2.660 . S
N828 C829 1.305 1_545 S
C829 N828 1.305 1_565 S
C829 C831 1.407 . S
C829 H836 0.930 . S
C830 C818 1.410 . S
C830 C831 1.345 . S
C830 H838 0.930 . S
C831 C829 1.407 . S
C831 C830 1.345 . S
C831 H833 0.930 . S
H832 C825 0.930 . S
H833 C831 0.930 . S
H834 C822 0.930 1_565 S
H835 C823 0.931 . S
H836 C829 0.930 . S
H837 C851 0.930 . S
H838 C830 0.930 . S
H839 C857 0.930 . S
H840 C848 0.930 . S
H841 C855 0.931 . S
H842 C819 0.929 . S
H843 C849 0.930 . S
H844 C882 0.930 . S
H845 C826 0.930 . S
H846 C881 0.929 . S
N847 Tb816 2.660 . S
N847 C848 1.305 . S
N847 C852 1.360 . S
C848 H840 0.930 . S
C848 N847 1.305 . S
C848 C851 1.407 . S
C849 H843 0.930 . S
C849 C850 1.410 . S
C849 C851 1.345 . S
C850 C849 1.410 . S
C850 C852 1.417 . S
C850 C882 1.432 . S
C851 H837 0.930 . S
C851 C848 1.407 . S
C851 C849 1.345 . S
C852 N847 1.360 . S
C852 C850 1.417 . S
C852 C856 1.432 . S
H853 C858 0.930 . S
N854 Tb816 2.600 1_565 S
N854 C856 1.359 1_565 S
N854 C857 1.327 . S
C855 H841 0.931 . S
C855 C857 1.392 . S
C855 C858 1.370 . S
C856 C852 1.432 . S
C856 N854 1.359 1_545 S
C856 C859 1.414 . S
C857 H839 0.930 . S
C857 N854 1.327 . S
C857 C855 1.392 . S
C858 H853 0.930 . S
C858 C855 1.370 . S
C858 C859 1.385 1_565 S
C859 C856 1.414 . S
C859 C858 1.385 1_545 S
C859 C881 1.444 . S
O860 Tb816 2.546 1_565 S
O860 C880 1.251 . S
O861 Tb816 2.610 . S
O861 Tb827 2.362 1_554 S
O861 C872 1.283 . S
O862 Tb827 2.421 1_554 S
O862 C879 1.262 . S
O863 Tb816 2.320 . S
O863 C879 1.260 . S
O864 Tb816 2.552 1_565 S
O864 C872 1.243 1_565 S
O865 Tb816 2.413 . S
O865 C880 1.256 1_545 S
O866 Tb827 2.546 . S
O866 C891 1.251 . S
O867 Tb816 2.362 . S
O867 Tb827 2.610 1_554 S
O867 C883 1.283 . S
O868 Tb816 2.421 1_565 S
O868 C890 1.262 1_554 S
O869 Tb827 2.304 1_565 S
O869 C890 1.275 . S
O870 Tb827 2.552 1_554 S
O870 C883 1.243 . S
O871 Tb827 2.413 . S
O871 C891 1.256 . S
C872 O861 1.283 . S
C872 O864 1.243 1_545 S
C873 C875 1.382 . S
C873 C877 1.393 . S
C873 C880 1.500 . S
C874 C875 1.400 . S
C874 C876 1.384 . S
C875 C873 1.382 . S
C875 C874 1.400 . S
C875 H892 0.930 1_565 S
C876 C874 1.384 . S
C876 C878 1.392 . S
C876 H893 0.931 . S
C877 C873 1.393 . S
C877 C878 1.401 . S
C877 H894 0.930 . S
C878 C876 1.392 . S
C878 C877 1.401 . S
C878 H895 0.930 . S
C879 O862 1.262 . S
C879 O863 1.260 . S
C880 Tb816 2.833 1_565 S
C880 O860 1.251 . S
C880 O865 1.256 1_565 S
C880 C873 1.500 . S
C881 H846 0.929 . S
C881 C859 1.444 . S
C881 C882 1.317 . S
C882 H844 0.930 . S
C882 C850 1.432 . S
C882 C881 1.317 . S
C883 O867 1.283 . S
C883 O870 1.243 . S
C884 C885 1.382 . S
C884 C888 1.393 . S
C884 C891 1.500 . S
C885 C884 1.382 . S
C885 C886 1.400 . S
C885 H896 0.930 . S
C886 C885 1.400 . S
C886 C887 1.384 . S
C887 C886 1.384 . S
C887 C889 1.392 . S
C887 H897 0.931 . S
C888 C884 1.393 . S
C888 C889 1.401 . S
C888 H898 0.930 . S
C889 C887 1.392 . S
C889 C888 1.401 . S
C889 H899 0.930 . S
C890 O868 1.262 1_556 S
C890 O869 1.275 . S
C891 Tb827 2.833 . S
C891 O866 1.251 . S
C891 O871 1.256 . S
C891 C884 1.500 . S
H892 C875 0.930 1_545 S
H893 C876 0.931 . S
H894 C877 0.930 . S
H895 C878 0.930 . S
H896 C885 0.930 . S
H897 C887 0.931 . S
H898 C888 0.930 . S
H899 C889 0.930 . S
Tb900 N931 2.660 . S
Tb900 N938 2.600 . S
Tb900 O944 2.546 . S
Tb900 O945 2.610 . S
Tb900 O947 2.320 . S
Tb900 O948 2.552 . S
Tb900 O949 2.413 . S
Tb900 O951 2.362 . S
Tb900 O952 2.421 . S
Tb900 C964 2.833 . S
C901 C904 1.432 . S
C901 C905 1.414 . S
C901 N908 1.359 . S
C902 C904 1.417 . S
C902 C906 1.432 . S
C902 C914 1.410 . S
C903 C905 1.444 . S
C903 C906 1.317 . S
C903 H926 0.929 . S
C904 C901 1.432 . S
C904 C902 1.417 . S
C904 N912 1.360 . S
C905 C901 1.414 . S
C905 C903 1.444 . S
C905 C910 1.385 . S
C906 C902 1.432 . S
C906 C903 1.317 . S
C906 H918 0.930 . S
C907 C909 1.392 . S
C907 C910 1.370 . S
C907 H919 0.931 . S
N908 C901 1.359 . S
N908 C909 1.327 . S
N908 Tb911 2.600 . S
C909 C907 1.392 . S
C909 N908 1.327 . S
C909 H916 0.930 . S
C910 C905 1.385 . S
C910 C907 1.370 . S
C910 H929 0.930 . S
Tb911 N908 2.600 . S
Tb911 N912 2.660 . S
Tb911 O945 2.362 . S
Tb911 O946 2.421 . S
Tb911 O950 2.546 . S
Tb911 O951 2.610 . S
Tb911 O953 2.320 . S
Tb911 O954 2.552 . S
Tb911 O955 2.413 . S
Tb911 C975 2.833 . S
N912 C904 1.360 . S
N912 Tb911 2.660 . S
N912 C913 1.305 . S
C913 N912 1.305 . S
C913 C915 1.407 . S
C913 H920 0.930 . S
C914 C902 1.410 . S
C914 C915 1.345 . S
C914 H922 0.930 . S
C915 C913 1.407 . S
C915 C914 1.345 . S
C915 H917 0.930 . S
H916 C909 0.930 . S
H917 C915 0.930 . S
H918 C906 0.930 . S
H919 C907 0.931 . S
H920 C913 0.930 . S
H921 C935 0.930 . S
H922 C914 0.930 . S
H923 C941 0.930 . S
H924 C932 0.930 . S
H925 C939 0.931 . S
H926 C903 0.929 . S
H927 C933 0.930 . S
H928 C966 0.930 . S
H929 C910 0.930 . S
H930 C965 0.929 . S
N931 Tb900 2.660 . S
N931 C932 1.305 . S
N931 C936 1.360 . S
C932 H924 0.930 . S
C932 N931 1.305 . S
C932 C935 1.407 . S
C933 H927 0.930 . S
C933 C934 1.410 . S
C933 C935 1.345 . S
C934 C933 1.410 . S
C934 C936 1.417 . S
C934 C966 1.432 . S
C935 H921 0.930 . S
C935 C932 1.407 . S
C935 C933 1.345 . S
C936 N931 1.360 . S
C936 C934 1.417 . S
C936 C940 1.432 . S
H937 C942 0.930 . S
N938 Tb900 2.600 . S
N938 C940 1.359 . S
N938 C941 1.327 . S
C939 H925 0.931 . S
C939 C941 1.392 . S
C939 C942 1.370 . S
C940 C936 1.432 . S
C940 N938 1.359 . S
C940 C943 1.414 . S
C941 H923 0.930 . S
C941 N938 1.327 . S
C941 C939 1.392 . S
C942 H937 0.930 . S
C942 C939 1.370 . S
C942 C943 1.385 . S
C943 C940 1.414 . S
C943 C942 1.385 . S
C943 C965 1.444 . S
O944 Tb900 2.546 . S
O944 C964 1.251 . S
O945 Tb900 2.610 . S
O945 Tb911 2.362 . S
O945 C956 1.283 . S
O946 Tb911 2.421 . S
O946 C963 1.262 . S
O947 Tb900 2.320 . S
O947 C963 1.260 . S
O948 Tb900 2.552 . S
O948 C956 1.243 . S
O949 Tb900 2.413 . S
O949 C964 1.256 . S
O950 Tb911 2.546 . S
O950 C975 1.251 . S
O951 Tb900 2.362 . S
O951 Tb911 2.610 . S
O951 C967 1.283 . S
O952 Tb900 2.421 . S
O952 C974 1.262 . S
O953 Tb911 2.320 . S
O953 C974 1.260 . S
O954 Tb911 2.552 . S
O954 C967 1.243 . S
O955 Tb911 2.413 . S
O955 C975 1.256 . S
C956 O945 1.283 . S
C956 O948 1.243 . S
C957 C959 1.382 . S
C957 C961 1.393 . S
C957 C964 1.500 . S
C958 C959 1.400 . S
C958 C960 1.384 . S
C959 C957 1.382 . S
C959 C958 1.400 . S
C959 H976 0.930 . S
C960 C958 1.384 . S
C960 C962 1.392 . S
C960 H977 0.931 . S
C961 C957 1.393 . S
C961 C962 1.401 . S
C961 H978 0.930 . S
C962 C960 1.392 . S
C962 C961 1.401 . S
C962 H979 0.930 . S
C963 O946 1.262 . S
C963 O947 1.260 . S
C964 Tb900 2.833 . S
C964 O944 1.251 . S
C964 O949 1.256 . S
C964 C957 1.500 . S
C965 H930 0.929 . S
C965 C943 1.444 . S
C965 C966 1.317 . S
C966 H928 0.930 . S
C966 C934 1.432 . S
C966 C965 1.317 . S
C967 O951 1.283 . S
C967 O954 1.243 . S
C968 C969 1.382 . S
C968 C972 1.393 . S
C968 C975 1.500 . S
C969 C968 1.382 . S
C969 C970 1.400 . S
C969 H980 0.930 . S
C970 C969 1.400 . S
C970 C971 1.384 1_545 S
C971 C970 1.384 1_565 S
C971 C973 1.392 . S
C971 H981 0.931 . S
C972 C968 1.393 . S
C972 C973 1.401 1_545 S
C972 H982 0.930 . S
C973 C971 1.392 . S
C973 C972 1.401 1_565 S
C973 H983 0.930 . S
C974 O952 1.262 . S
C974 O953 1.260 . S
C975 Tb911 2.833 . S
C975 O950 1.251 . S
C975 O955 1.256 . S
C975 C968 1.500 . S
H976 C959 0.930 . S
H977 C960 0.931 . S
H978 C961 0.930 . S
H979 C962 0.930 . S
H980 C969 0.930 . S
H981 C971 0.931 . S
H982 C972 0.930 . S
H983 C973 0.930 . S
Tb984 N1015 2.660 . S
Tb984 N1022 2.600 . S
Tb984 O1028 2.546 . S
Tb984 O1029 2.610 1_554 S
Tb984 O1031 2.320 . S
Tb984 O1032 2.552 1_554 S
Tb984 O1033 2.413 . S
Tb984 O1035 2.362 . S
Tb984 O1036 2.421 . S
Tb984 C1048 2.833 . S
C985 C988 1.432 . S
C985 C989 1.414 . S
C985 N992 1.359 . S
C986 C988 1.417 . S
C986 C990 1.432 . S
C986 C998 1.410 . S
C987 C989 1.444 . S
C987 C990 1.317 . S
C987 H1010 0.929 . S
C988 C985 1.432 . S
C988 C986 1.417 . S
C988 N996 1.360 . S
C989 C985 1.414 . S
C989 C987 1.444 . S
C989 C994 1.385 . S
C990 C986 1.432 . S
C990 C987 1.317 . S
C990 H1002 0.930 . S
C991 C993 1.392 . S
C991 C994 1.370 . S
C991 H1003 0.931 . S
N992 C985 1.359 . S
N992 C993 1.327 . S
N992 Tb995 2.610 . S
C993 C991 1.392 . S
C993 N992 1.327 . S
C993 H1000 0.930 . S
C994 C989 1.385 . S
C994 C991 1.370 . S
C994 H1013 0.930 . S
Tb995 N992 2.610 . S
Tb995 N996 2.668 . S
Tb995 O1029 2.368 . S
Tb995 O1030 2.424 1_556 S
Tb995 O1034 2.544 . S
Tb995 O1035 2.602 1_556 S
Tb995 O1037 2.315 1_556 S
Tb995 O1038 2.541 1_556 S
Tb995 O1039 2.409 1_556 S
Tb995 C1059 2.829 1_556 S
N996 C988 1.360 . S
N996 Tb995 2.668 . S
N996 C997 1.305 . S
C997 N996 1.305 . S
C997 C999 1.407 . S
C997 H1004 0.930 . S
C998 C986 1.410 . S
C998 C999 1.345 . S
C998 H1006 0.930 . S
C999 C997 1.407 . S
C999 C998 1.345 . S
C999 H1001 0.930 . S
H1000 C993 0.930 . S
H1001 C999 0.930 . S
H1002 C990 0.930 . S
H1003 C991 0.931 . S
H1004 C997 0.930 . S
H1005 C1019 0.930 . S
H1006 C998 0.930 . S
H1007 C1025 0.930 . S
H1008 C1016 0.930 . S
H1009 C1023 0.931 . S
H1010 C987 0.929 . S
H1011 C1017 0.930 . S
H1012 C1050 0.930 . S
H1013 C994 0.930 . S
H1014 C1049 0.929 . S
N1015 Tb984 2.660 . S
N1015 C1016 1.305 . S
N1015 C1020 1.360 . S
C1016 H1008 0.930 . S
C1016 N1015 1.305 . S
C1016 C1019 1.407 . S
C1017 H1011 0.930 . S
C1017 C1018 1.410 . S
C1017 C1019 1.345 . S
C1018 C1017 1.410 . S
C1018 C1020 1.417 . S
C1018 C1050 1.432 . S
C1019 H1005 0.930 . S
C1019 C1016 1.407 . S
C1019 C1017 1.345 . S
C1020 N1015 1.360 . S
C1020 C1018 1.417 . S
C1020 C1024 1.432 . S
H1021 C1026 0.930 . S
N1022 Tb984 2.600 . S
N1022 C1024 1.359 . S
N1022 C1025 1.327 . S
C1023 H1009 0.931 . S
C1023 C1025 1.392 . S
C1023 C1026 1.370 . S
C1024 C1020 1.432 . S
C1024 N1022 1.359 . S
C1024 C1027 1.414 . S
C1025 H1007 0.930 . S
C1025 N1022 1.327 . S
C1025 C1023 1.392 . S
C1026 H1021 0.930 . S
C1026 C1023 1.370 . S
C1026 C1027 1.385 . S
C1027 C1024 1.414 . S
C1027 C1026 1.385 . S
C1027 C1049 1.444 . S
O1028 Tb984 2.546 . S
O1028 C1048 1.251 . S
O1029 Tb984 2.610 1_556 S
O1029 Tb995 2.368 . S
O1029 C1040 1.283 . S
O1030 Tb995 2.424 1_554 S
O1030 C1047 1.262 . S
O1031 Tb984 2.320 . S
O1031 C1047 1.260 . S
O1032 Tb984 2.552 1_556 S
O1032 C1040 1.243 . S
O1033 Tb984 2.413 . S
O1033 C1048 1.256 . S
O1034 Tb995 2.544 . S
O1034 C1059 1.251 1_556 S
O1035 Tb984 2.362 . S
O1035 Tb995 2.602 1_554 S
O1035 C1051 1.283 . S
O1036 Tb984 2.421 . S
O1036 C1058 1.262 . S
O1037 Tb995 2.315 1_554 S
O1037 C1058 1.260 . S
O1038 Tb995 2.541 1_554 S
O1038 C1051 1.243 . S
O1039 Tb995 2.409 1_554 S
O1039 C1059 1.256 . S
C1040 O1029 1.283 . S
C1040 O1032 1.243 . S
C1041 C1043 1.382 . S
C1041 C1045 1.393 . S
C1041 C1048 1.500 . S
C1042 C1043 1.400 . S
C1042 C1044 1.384 . S
C1043 C1041 1.382 . S
C1043 C1042 1.400 . S
C1043 H1060 0.930 . S
C1044 C1042 1.384 . S
C1044 C1046 1.392 . S
C1044 H1061 0.931 . S
C1045 C1041 1.393 . S
C1045 C1046 1.401 . S
C1045 H1062 0.930 . S
C1046 C1044 1.392 . S
C1046 C1045 1.401 . S
C1046 H1063 0.930 . S
C1047 O1030 1.262 . S
C1047 O1031 1.260 . S
C1048 Tb984 2.833 . S
C1048 O1028 1.251 . S
C1048 O1033 1.256 . S
C1048 C1041 1.500 . S
C1049 H1014 0.929 . S
C1049 C1027 1.444 . S
C1049 C1050 1.317 . S
C1050 H1012 0.930 . S
C1050 C1018 1.432 . S
C1050 C1049 1.317 . S
C1051 O1035 1.283 . S
C1051 O1038 1.243 . S
C1052 C1053 1.382 . S
C1052 C1056 1.393 1_554 S
C1052 C1059 1.500 . S
C1053 C1052 1.382 . S
C1053 C1054 1.400 . S
C1053 H1064 0.930 . S
C1054 C1053 1.400 . S
C1054 C1055 1.384 . S
C1055 C1054 1.384 . S
C1055 C1057 1.392 1_554 S
C1055 H1065 0.931 . S
C1056 C1052 1.393 1_556 S
C1056 C1057 1.401 . S
C1056 H1066 0.930 . S
C1057 C1055 1.392 1_556 S
C1057 C1056 1.401 . S
C1057 H1067 0.930 . S
C1058 O1036 1.262 . S
C1058 O1037 1.260 . S
C1059 Tb995 2.829 1_554 S
C1059 O1034 1.251 1_554 S
C1059 O1039 1.256 . S
C1059 C1052 1.500 . S
H1060 C1043 0.930 . S
H1061 C1044 0.931 . S
H1062 C1045 0.930 . S
H1063 C1046 0.930 . S
H1064 C1053 0.930 . S
H1065 C1055 0.931 . S
H1066 C1056 0.930 . S
H1067 C1057 0.930 . S
Tb1068 N1099 2.660 . S
Tb1068 N1106 2.600 . S
Tb1068 O1112 2.546 . S
Tb1068 O1113 2.610 . S
Tb1068 O1115 2.320 . S
Tb1068 O1116 2.552 . S
Tb1068 O1117 2.413 . S
Tb1068 O1119 2.362 . S
Tb1068 O1120 2.421 . S
Tb1068 C1132 2.833 . S
C1069 C1072 1.432 . S
C1069 C1073 1.414 . S
C1069 N1076 1.359 . S
C1070 C1072 1.417 . S
C1070 C1074 1.432 . S
C1070 C1082 1.410 . S
C1071 C1073 1.444 . S
C1071 C1074 1.317 . S
C1071 H1094 0.929 . S
C1072 C1069 1.432 . S
C1072 C1070 1.417 . S
C1072 N1080 1.360 . S
C1073 C1069 1.414 . S
C1073 C1071 1.444 . S
C1073 C1078 1.385 . S
C1074 C1070 1.432 . S
C1074 C1071 1.317 . S
C1074 H1086 0.930 . S
C1075 C1077 1.392 . S
C1075 C1078 1.370 . S
C1075 H1087 0.931 . S
N1076 C1069 1.359 . S
N1076 C1077 1.327 . S
N1076 Tb1079 2.600 . S
C1077 C1075 1.392 . S
C1077 N1076 1.327 . S
C1077 H1084 0.930 . S
C1078 C1073 1.385 . S
C1078 C1075 1.370 . S
C1078 H1097 0.930 . S
Tb1079 N1076 2.600 . S
Tb1079 N1080 2.660 . S
Tb1079 O1113 2.362 . S
Tb1079 O1114 2.421 . S
Tb1079 O1118 2.546 . S
Tb1079 O1119 2.610 . S
Tb1079 O1121 2.320 . S
Tb1079 O1122 2.552 . S
Tb1079 O1123 2.413 . S
Tb1079 C1143 2.833 . S
N1080 C1072 1.360 . S
N1080 Tb1079 2.660 . S
N1080 C1081 1.305 . S
C1081 N1080 1.305 . S
C1081 C1083 1.407 . S
C1081 H1088 0.930 . S
C1082 C1070 1.410 . S
C1082 C1083 1.345 . S
C1082 H1090 0.930 . S
C1083 C1081 1.407 . S
C1083 C1082 1.345 . S
C1083 H1085 0.930 . S
H1084 C1077 0.930 . S
H1085 C1083 0.930 . S
H1086 C1074 0.930 . S
H1087 C1075 0.931 . S
H1088 C1081 0.930 . S
H1089 C1103 0.930 . S
H1090 C1082 0.930 . S
H1091 C1109 0.930 . S
H1092 C1100 0.930 . S
H1093 C1107 0.931 . S
H1094 C1071 0.929 . S
H1095 C1101 0.930 . S
H1096 C1134 0.930 . S
H1097 C1078 0.930 . S
H1098 C1133 0.929 . S
N1099 Tb1068 2.660 . S
N1099 C1100 1.305 . S
N1099 C1104 1.360 . S
C1100 H1092 0.930 . S
C1100 N1099 1.305 . S
C1100 C1103 1.407 . S
C1101 H1095 0.930 . S
C1101 C1102 1.410 . S
C1101 C1103 1.345 . S
C1102 C1101 1.410 . S
C1102 C1104 1.417 . S
C1102 C1134 1.432 . S
C1103 H1089 0.930 . S
C1103 C1100 1.407 . S
C1103 C1101 1.345 . S
C1104 N1099 1.360 . S
C1104 C1102 1.417 . S
C1104 C1108 1.432 . S
H1105 C1110 0.930 . S
N1106 Tb1068 2.600 . S
N1106 C1108 1.359 . S
N1106 C1109 1.327 . S
C1107 H1093 0.931 . S
C1107 C1109 1.392 . S
C1107 C1110 1.370 . S
C1108 C1104 1.432 . S
C1108 N1106 1.359 . S
C1108 C1111 1.414 . S
C1109 H1091 0.930 . S
C1109 N1106 1.327 . S
C1109 C1107 1.392 . S
C1110 H1105 0.930 . S
C1110 C1107 1.370 . S
C1110 C1111 1.385 . S
C1111 C1108 1.414 . S
C1111 C1110 1.385 . S
C1111 C1133 1.444 . S
O1112 Tb1068 2.546 . S
O1112 C1132 1.251 . S
O1113 Tb1068 2.610 . S
O1113 Tb1079 2.362 . S
O1113 C1124 1.283 . S
O1114 Tb1079 2.421 . S
O1114 C1131 1.262 . S
O1115 Tb1068 2.320 . S
O1115 C1131 1.260 . S
O1116 Tb1068 2.552 . S
O1116 C1124 1.243 . S
O1117 Tb1068 2.413 . S
O1117 C1132 1.256 . S
O1118 Tb1079 2.546 . S
O1118 C1143 1.251 . S
O1119 Tb1068 2.362 . S
O1119 Tb1079 2.610 . S
O1119 C1135 1.283 . S
O1120 Tb1068 2.421 . S
O1120 C1142 1.262 . S
O1121 Tb1079 2.320 . S
O1121 C1142 1.260 . S
O1122 Tb1079 2.552 . S
O1122 C1135 1.243 . S
O1123 Tb1079 2.413 . S
O1123 C1143 1.256 . S
C1124 O1113 1.283 . S
C1124 O1116 1.243 . S
C1125 C1127 1.382 . S
C1125 C1129 1.393 . S
C1125 C1132 1.500 1_455 S
C1126 C1127 1.400 . S
C1126 C1128 1.384 . S
C1127 C1125 1.382 . S
C1127 C1126 1.400 . S
C1127 H1144 0.930 . S
C1128 C1126 1.384 . S
C1128 C1130 1.392 . S
C1128 H1145 0.931 . S
C1129 C1125 1.393 . S
C1129 C1130 1.401 . S
C1129 H1146 0.930 . S
C1130 C1128 1.392 . S
C1130 C1129 1.401 . S
C1130 H1147 0.930 . S
C1131 O1114 1.262 . S
C1131 O1115 1.260 . S
C1132 Tb1068 2.833 . S
C1132 O1112 1.251 . S
C1132 O1117 1.256 . S
C1132 C1125 1.500 1_655 S
C1133 H1098 0.929 . S
C1133 C1111 1.444 . S
C1133 C1134 1.317 . S
C1134 H1096 0.930 . S
C1134 C1102 1.432 . S
C1134 C1133 1.317 . S
C1135 O1119 1.283 . S
C1135 O1122 1.243 . S
C1136 C1137 1.382 . S
C1136 C1140 1.393 . S
C1136 C1143 1.500 . S
C1137 C1136 1.382 . S
C1137 C1138 1.400 . S
C1137 H1148 0.930 . S
C1138 C1137 1.400 . S
C1138 C1139 1.384 . S
C1139 C1138 1.384 . S
C1139 C1141 1.392 . S
C1139 H1149 0.931 . S
C1140 C1136 1.393 . S
C1140 C1141 1.401 . S
C1140 H1150 0.930 . S
C1141 C1139 1.392 . S
C1141 C1140 1.401 . S
C1141 H1151 0.930 . S
C1142 O1120 1.262 . S
C1142 O1121 1.260 . S
C1143 Tb1079 2.833 . S
C1143 O1118 1.251 . S
C1143 O1123 1.256 . S
C1143 C1136 1.500 . S
H1144 C1127 0.930 . S
H1145 C1128 0.931 . S
H1146 C1129 0.930 . S
H1147 C1130 0.930 . S
H1148 C1137 0.930 . S
H1149 C1139 0.931 . S
H1150 C1140 0.930 . S
H1151 C1141 0.930 . S
Tb1152 N1183 2.660 . S
Tb1152 N1190 2.600 . S
Tb1152 O1196 2.546 . S
Tb1152 O1197 2.610 . S
Tb1152 O1199 2.320 . S
Tb1152 O1200 2.552 . S
Tb1152 O1201 2.413 . S
Tb1152 O1203 2.362 . S
Tb1152 O1204 2.421 . S
Tb1152 C1216 2.833 . S
C1153 C1156 1.432 . S
C1153 C1157 1.414 1_455 S
C1153 N1160 1.359 . S
C1154 C1156 1.417 1_655 S
C1154 C1158 1.432 . S
C1154 C1166 1.410 . S
C1155 C1157 1.444 . S
C1155 C1158 1.317 . S
C1155 H1178 0.929 . S
C1156 C1153 1.432 . S
C1156 C1154 1.417 1_455 S
C1156 N1164 1.360 . S
C1157 C1153 1.414 1_655 S
C1157 C1155 1.444 . S
C1157 C1162 1.385 . S
C1158 C1154 1.432 . S
C1158 C1155 1.317 . S
C1158 H1170 0.930 . S
C1159 C1161 1.392 . S
C1159 C1162 1.370 1_455 S
C1159 H1171 0.931 . S
N1160 C1153 1.359 . S
N1160 C1161 1.327 . S
N1160 Tb1163 2.600 . S
C1161 C1159 1.392 . S
C1161 N1160 1.327 . S
C1161 H1168 0.930 . S
C1162 C1157 1.385 . S
C1162 C1159 1.370 1_655 S
C1162 H1181 0.930 . S
Tb1163 N1160 2.600 . S
Tb1163 N1164 2.660 . S
Tb1163 O1197 2.362 . S
Tb1163 O1198 2.421 . S
Tb1163 O1202 2.546 . S
Tb1163 O1203 2.610 . S
Tb1163 O1205 2.320 . S
Tb1163 O1206 2.552 . S
Tb1163 O1207 2.413 . S
Tb1163 C1227 2.833 . S
N1164 C1156 1.360 . S
N1164 Tb1163 2.660 . S
N1164 C1165 1.305 . S
C1165 N1164 1.305 . S
C1165 C1167 1.407 1_455 S
C1165 H1172 0.930 . S
C1166 C1154 1.410 . S
C1166 C1167 1.345 . S
C1166 H1174 0.930 . S
C1167 C1165 1.407 1_655 S
C1167 C1166 1.345 . S
C1167 H1169 0.930 . S
H1168 C1161 0.930 . S
H1169 C1167 0.930 . S
H1170 C1158 0.930 . S
H1171 C1159 0.931 . S
H1172 C1165 0.930 . S
H1173 C1187 0.930 . S
H1174 C1166 0.930 . S
H1175 C1193 0.930 . S
H1176 C1184 0.930 . S
H1177 C1191 0.931 . S
H1178 C1155 0.929 . S
H1179 C1185 0.930 . S
H1180 C1218 0.930 . S
H1181 C1162 0.930 . S
H1182 C1217 0.929 . S
N1183 Tb1152 2.660 . S
N1183 C1184 1.305 . S
N1183 C1188 1.360 . S
C1184 H1176 0.930 . S
C1184 N1183 1.305 . S
C1184 C1187 1.407 . S
C1185 H1179 0.930 . S
C1185 C1186 1.410 . S
C1185 C1187 1.345 . S
C1186 C1185 1.410 . S
C1186 C1188 1.417 . S
C1186 C1218 1.432 . S
C1187 H1173 0.930 . S
C1187 C1184 1.407 . S
C1187 C1185 1.345 . S
C1188 N1183 1.360 . S
C1188 C1186 1.417 . S
C1188 C1192 1.432 . S
H1189 C1194 0.930 . S
N1190 Tb1152 2.600 . S
N1190 C1192 1.359 . S
N1190 C1193 1.327 . S
C1191 H1177 0.931 . S
C1191 C1193 1.392 . S
C1191 C1194 1.370 . S
C1192 C1188 1.432 . S
C1192 N1190 1.359 . S
C1192 C1195 1.414 . S
C1193 H1175 0.930 . S
C1193 N1190 1.327 . S
C1193 C1191 1.392 . S
C1194 H1189 0.930 . S
C1194 C1191 1.370 . S
C1194 C1195 1.385 . S
C1195 C1192 1.414 . S
C1195 C1194 1.385 . S
C1195 C1217 1.444 . S
O1196 Tb1152 2.546 . S
O1196 C1216 1.251 . S
O1197 Tb1152 2.610 . S
O1197 Tb1163 2.362 . S
O1197 C1208 1.283 . S
O1198 Tb1163 2.421 . S
O1198 C1215 1.262 . S
O1199 Tb1152 2.320 . S
O1199 C1215 1.260 . S
O1200 Tb1152 2.552 . S
O1200 C1208 1.243 . S
O1201 Tb1152 2.413 . S
O1201 C1216 1.256 . S
O1202 Tb1163 2.546 . S
O1202 C1227 1.251 . S
O1203 Tb1152 2.362 . S
O1203 Tb1163 2.610 . S
O1203 C1219 1.283 . S
O1204 Tb1152 2.421 . S
O1204 C1226 1.262 . S
O1205 Tb1163 2.320 . S
O1205 C1226 1.260 . S
O1206 Tb1163 2.552 . S
O1206 C1219 1.243 . S
O1207 Tb1163 2.413 . S
O1207 C1227 1.256 . S
C1208 O1197 1.283 . S
C1208 O1200 1.243 . S
C1209 C1211 1.382 . S
C1209 C1213 1.393 . S
C1209 C1216 1.500 . S
C1210 C1211 1.400 1_655 S
C1210 C1212 1.384 . S
C1211 C1209 1.382 . S
C1211 C1210 1.400 1_455 S
C1211 H1228 0.930 . S
C1212 C1210 1.384 . S
C1212 C1214 1.392 1_655 S
C1212 H1229 0.931 . S
C1213 C1209 1.393 . S
C1213 C1214 1.401 . S
C1213 H1230 0.930 . S
C1214 C1212 1.392 1_455 S
C1214 C1213 1.401 . S
C1214 H1231 0.930 . S
C1215 O1198 1.262 . S
C1215 O1199 1.260 . S
C1216 Tb1152 2.833 . S
C1216 O1196 1.251 . S
C1216 O1201 1.256 . S
C1216 C1209 1.500 . S
C1217 H1182 0.929 . S
C1217 C1195 1.444 . S
C1217 C1218 1.317 . S
C1218 H1180 0.930 . S
C1218 C1186 1.432 . S
C1218 C1217 1.317 . S
C1219 O1203 1.283 . S
C1219 O1206 1.243 . S
C1220 C1221 1.382 . S
C1220 C1224 1.393 . S
C1220 C1227 1.500 . S
C1221 C1220 1.382 . S
C1221 C1222 1.400 . S
C1221 H1232 0.930 . S
C1222 C1221 1.400 . S
C1222 C1223 1.384 . S
C1223 C1222 1.384 . S
C1223 C1225 1.392 . S
C1223 H1233 0.931 . S
C1224 C1220 1.393 . S
C1224 C1225 1.401 . S
C1224 H1234 0.930 . S
C1225 C1223 1.392 . S
C1225 C1224 1.401 . S
C1225 H1235 0.930 . S
C1226 O1204 1.262 . S
C1226 O1205 1.260 . S
C1227 Tb1163 2.833 . S
C1227 O1202 1.251 . S
C1227 O1207 1.256 . S
C1227 C1220 1.500 . S
H1228 C1211 0.930 . S
H1229 C1212 0.931 . S
H1230 C1213 0.930 . S
H1231 C1214 0.930 . S
H1232 C1221 0.930 . S
H1233 C1223 0.931 . S
H1234 C1224 0.930 . S
H1235 C1225 0.930 . S
Tb1236 N1267 2.660 . S
Tb1236 N1274 2.600 . S
Tb1236 O1280 2.546 . S
Tb1236 O1281 2.610 . S
Tb1236 O1283 2.320 . S
Tb1236 O1284 2.552 . S
Tb1236 O1285 2.413 . S
Tb1236 O1287 2.362 . S
Tb1236 O1288 2.421 . S
Tb1236 C1300 2.833 . S
C1237 C1240 1.432 . S
C1237 C1241 1.414 . S
C1237 N1244 1.359 . S
C1238 C1240 1.417 . S
C1238 C1242 1.432 1_655 S
C1238 C1250 1.410 1_655 S
C1239 C1241 1.444 1_455 S
C1239 C1242 1.317 . S
C1239 H1262 0.929 . S
C1240 C1237 1.432 . S
C1240 C1238 1.417 . S
C1240 N1248 1.360 . S
C1241 C1237 1.414 . S
C1241 C1239 1.444 1_655 S
C1241 C1246 1.385 . S
C1242 C1238 1.432 1_455 S
C1242 C1239 1.317 . S
C1242 H1254 0.930 . S
C1243 C1245 1.392 . S
C1243 C1246 1.370 . S
C1243 H1255 0.931 . S
N1244 C1237 1.359 . S
N1244 C1245 1.327 . S
N1244 Tb1247 2.600 . S
C1245 C1243 1.392 . S
C1245 N1244 1.327 . S
C1245 H1252 0.930 . S
C1246 C1241 1.385 . S
C1246 C1243 1.370 . S
C1246 H1265 0.930 . S
Tb1247 N1244 2.600 . S
Tb1247 N1248 2.660 . S
Tb1247 O1281 2.362 . S
Tb1247 O1282 2.421 . S
Tb1247 O1286 2.546 . S
Tb1247 O1287 2.610 . S
Tb1247 O1289 2.320 . S
Tb1247 O1290 2.552 . S
Tb1247 O1291 2.413 . S
Tb1247 C1311 2.833 . S
N1248 C1240 1.360 . S
N1248 Tb1247 2.660 . S
N1248 C1249 1.305 . S
C1249 N1248 1.305 . S
C1249 C1251 1.407 . S
C1249 H1256 0.930 . S
C1250 C1238 1.410 1_455 S
C1250 C1251 1.345 1_455 S
C1250 H1258 0.930 . S
C1251 C1249 1.407 . S
C1251 C1250 1.345 1_655 S
C1251 H1253 0.930 . S
H1252 C1245 0.930 . S
H1253 C1251 0.930 . S
H1254 C1242 0.930 . S
H1255 C1243 0.931 . S
H1256 C1249 0.930 . S
H1257 C1271 0.930 . S
H1258 C1250 0.930 . S
H1259 C1277 0.930 . S
H1260 C1268 0.930 . S
H1261 C1275 0.931 . S
H1262 C1239 0.929 . S
H1263 C1269 0.930 . S
H1264 C1302 0.930 . S
H1265 C1246 0.930 . S
H1266 C1301 0.929 . S
N1267 Tb1236 2.660 . S
N1267 C1268 1.305 . S
N1267 C1272 1.360 . S
C1268 H1260 0.930 . S
C1268 N1267 1.305 . S
C1268 C1271 1.407 . S
C1269 H1263 0.930 . S
C1269 C1270 1.410 . S
C1269 C1271 1.345 . S
C1270 C1269 1.410 . S
C1270 C1272 1.417 . S
C1270 C1302 1.432 . S
C1271 H1257 0.930 . S
C1271 C1268 1.407 . S
C1271 C1269 1.345 . S
C1272 N1267 1.360 . S
C1272 C1270 1.417 . S
C1272 C1276 1.432 . S
H1273 C1278 0.930 . S
N1274 Tb1236 2.600 . S
N1274 C1276 1.359 . S
N1274 C1277 1.327 . S
C1275 H1261 0.931 . S
C1275 C1277 1.392 . S
C1275 C1278 1.370 . S
C1276 C1272 1.432 . S
C1276 N1274 1.359 . S
C1276 C1279 1.414 . S
C1277 H1259 0.930 . S
C1277 N1274 1.327 . S
C1277 C1275 1.392 . S
C1278 H1273 0.930 . S
C1278 C1275 1.370 . S
C1278 C1279 1.385 . S
C1279 C1276 1.414 . S
C1279 C1278 1.385 . S
C1279 C1301 1.444 . S
O1280 Tb1236 2.546 . S
O1280 C1300 1.251 . S
O1281 Tb1236 2.610 . S
O1281 Tb1247 2.362 . S
O1281 C1292 1.283 . S
O1282 Tb1247 2.421 . S
O1282 C1299 1.262 . S
O1283 Tb1236 2.320 . S
O1283 C1299 1.260 . S
O1284 Tb1236 2.552 . S
O1284 C1292 1.243 . S
O1285 Tb1236 2.413 . S
O1285 C1300 1.256 . S
O1286 Tb1247 2.546 . S
O1286 C1311 1.251 . S
O1287 Tb1236 2.362 . S
O1287 Tb1247 2.610 . S
O1287 C1303 1.283 . S
O1288 Tb1236 2.421 . S
O1288 C1310 1.262 . S
O1289 Tb1247 2.320 . S
O1289 C1310 1.260 . S
O1290 Tb1247 2.552 . S
O1290 C1303 1.243 . S
O1291 Tb1247 2.413 . S
O1291 C1311 1.256 . S
C1292 O1281 1.283 . S
C1292 O1284 1.243 . S
C1293 C1295 1.382 . S
C1293 C1297 1.393 . S
C1293 C1300 1.500 . S
C1294 C1295 1.400 . S
C1294 C1296 1.384 . S
C1295 C1293 1.382 . S
C1295 C1294 1.400 . S
C1295 H1312 0.930 . S
C1296 C1294 1.384 . S
C1296 C1298 1.392 . S
C1296 H1313 0.931 . S
C1297 C1293 1.393 . S
C1297 C1298 1.401 . S
C1297 H1314 0.930 . S
C1298 C1296 1.392 . S
C1298 C1297 1.401 . S
C1298 H1315 0.930 . S
C1299 O1282 1.262 . S
C1299 O1283 1.260 . S
C1300 Tb1236 2.833 . S
C1300 O1280 1.251 . S
C1300 O1285 1.256 . S
C1300 C1293 1.500 . S
C1301 H1266 0.929 . S
C1301 C1279 1.444 . S
C1301 C1302 1.317 . S
C1302 H1264 0.930 . S
C1302 C1270 1.432 . S
C1302 C1301 1.317 . S
C1303 O1287 1.283 . S
C1303 O1290 1.243 . S
C1304 C1305 1.382 . S
C1304 C1308 1.393 . S
C1304 C1311 1.500 1_455 S
C1305 C1304 1.382 . S
C1305 C1306 1.400 . S
C1305 H1316 0.930 . S
C1306 C1305 1.400 . S
C1306 C1307 1.384 . S
C1307 C1306 1.384 . S
C1307 C1309 1.392 . S
C1307 H1317 0.931 . S
C1308 C1304 1.393 . S
C1308 C1309 1.401 . S
C1308 H1318 0.930 . S
C1309 C1307 1.392 . S
C1309 C1308 1.401 . S
C1309 H1319 0.930 . S
C1310 O1288 1.262 . S
C1310 O1289 1.260 . S
C1311 Tb1247 2.833 . S
C1311 O1286 1.251 . S
C1311 O1291 1.256 . S
C1311 C1304 1.500 1_655 S
H1312 C1295 0.930 . S
H1313 C1296 0.931 . S
H1314 C1297 0.930 . S
H1315 C1298 0.930 . S
H1316 C1305 0.930 . S
H1317 C1307 0.931 . S
H1318 C1308 0.930 . S
H1319 C1309 0.930 . S
Tb1320 N1351 2.660 . S
Tb1320 N1358 2.600 . S
Tb1320 O1364 2.546 . S
Tb1320 O1365 2.610 . S
Tb1320 O1367 2.320 . S
Tb1320 O1368 2.552 . S
Tb1320 O1369 2.413 . S
Tb1320 O1371 2.362 . S
Tb1320 O1372 2.421 . S
Tb1320 C1384 2.833 . S
C1321 C1324 1.432 . S
C1321 C1325 1.414 . S
C1321 N1328 1.359 . S
C1322 C1324 1.417 . S
C1322 C1326 1.432 1_556 S
C1322 C1334 1.410 . S
C1323 C1325 1.444 . S
C1323 C1326 1.317 1_556 S
C1323 H1346 0.929 1_556 S
C1324 C1321 1.432 . S
C1324 C1322 1.417 . S
C1324 N1332 1.360 . S
C1325 C1321 1.414 . S
C1325 C1323 1.444 . S
C1325 C1330 1.385 . S
C1326 C1322 1.432 1_554 S
C1326 C1323 1.317 1_554 S
C1326 H1338 0.930 . S
C1327 C1329 1.392 . S
C1327 C1330 1.370 . S
C1327 H1339 0.931 . S
N1328 C1321 1.359 . S
N1328 C1329 1.327 . S
N1328 Tb1331 2.600 . S
C1329 C1327 1.392 . S
C1329 N1328 1.327 . S
C1329 H1336 0.930 . S
C1330 C1325 1.385 . S
C1330 C1327 1.370 . S
C1330 H1349 0.930 . S
Tb1331 N1328 2.600 . S
Tb1331 N1332 2.660 . S
Tb1331 O1365 2.362 . S
Tb1331 O1366 2.421 . S
Tb1331 O1370 2.546 . S
Tb1331 O1371 2.610 . S
Tb1331 O1373 2.320 . S
Tb1331 O1374 2.552 . S
Tb1331 O1375 2.413 . S
Tb1331 C1395 2.833 . S
N1332 C1324 1.360 . S
N1332 Tb1331 2.660 . S
N1332 C1333 1.305 . S
C1333 N1332 1.305 . S
C1333 C1335 1.407 . S
C1333 H1340 0.930 . S
C1334 C1322 1.410 . S
C1334 C1335 1.345 . S
C1334 H1342 0.930 1_556 S
C1335 C1333 1.407 . S
C1335 C1334 1.345 . S
C1335 H1337 0.930 . S
H1336 C1329 0.930 . S
H1337 C1335 0.930 . S
H1338 C1326 0.930 . S
H1339 C1327 0.931 . S
H1340 C1333 0.930 . S
H1341 C1355 0.930 . S
H1342 C1334 0.930 1_554 S
H1343 C1361 0.930 . S
H1344 C1352 0.930 . S
H1345 C1359 0.931 . S
H1346 C1323 0.929 1_554 S
H1347 C1353 0.930 . S
H1348 C1386 0.930 . S
H1349 C1330 0.930 . S
H1350 C1385 0.929 . S
N1351 Tb1320 2.660 . S
N1351 C1352 1.305 . S
N1351 C1356 1.360 . S
C1352 H1344 0.930 . S
C1352 N1351 1.305 . S
C1352 C1355 1.407 . S
C1353 H1347 0.930 . S
C1353 C1354 1.410 . S
C1353 C1355 1.345 . S
C1354 C1353 1.410 . S
C1354 C1356 1.417 . S
C1354 C1386 1.432 . S
C1355 H1341 0.930 . S
C1355 C1352 1.407 . S
C1355 C1353 1.345 . S
C1356 N1351 1.360 . S
C1356 C1354 1.417 . S
C1356 C1360 1.432 . S
H1357 C1362 0.930 . S
N1358 Tb1320 2.600 . S
N1358 C1360 1.359 . S
N1358 C1361 1.327 . S
C1359 H1345 0.931 . S
C1359 C1361 1.392 . S
C1359 C1362 1.370 . S
C1360 C1356 1.432 . S
C1360 N1358 1.359 . S
C1360 C1363 1.414 . S
C1361 H1343 0.930 . S
C1361 N1358 1.327 . S
C1361 C1359 1.392 . S
C1362 H1357 0.930 . S
C1362 C1359 1.370 . S
C1362 C1363 1.385 . S
C1363 C1360 1.414 . S
C1363 C1362 1.385 . S
C1363 C1385 1.444 . S
O1364 Tb1320 2.546 . S
O1364 C1384 1.251 . S
O1365 Tb1320 2.610 . S
O1365 Tb1331 2.362 . S
O1365 C1376 1.283 . S
O1366 Tb1331 2.421 . S
O1366 C1383 1.262 . S
O1367 Tb1320 2.320 . S
O1367 C1383 1.260 . S
O1368 Tb1320 2.552 . S
O1368 C1376 1.243 . S
O1369 Tb1320 2.413 . S
O1369 C1384 1.256 . S
O1370 Tb1331 2.546 . S
O1370 C1395 1.251 . S
O1371 Tb1320 2.362 . S
O1371 Tb1331 2.610 . S
O1371 C1387 1.283 . S
O1372 Tb1320 2.421 . S
O1372 C1394 1.262 . S
O1373 Tb1331 2.320 . S
O1373 C1394 1.260 . S
O1374 Tb1331 2.552 . S
O1374 C1387 1.243 . S
O1375 Tb1331 2.413 . S
O1375 C1395 1.256 . S
C1376 O1365 1.283 . S
C1376 O1368 1.243 . S
C1377 C1379 1.382 . S
C1377 C1381 1.393 . S
C1377 C1384 1.500 . S
C1378 C1379 1.400 . S
C1378 C1380 1.384 . S
C1379 C1377 1.382 . S
C1379 C1378 1.400 . S
C1379 H1396 0.930 . S
C1380 C1378 1.384 . S
C1380 C1382 1.392 . S
C1380 H1397 0.931 . S
C1381 C1377 1.393 . S
C1381 C1382 1.401 . S
C1381 H1398 0.930 . S
C1382 C1380 1.392 . S
C1382 C1381 1.401 . S
C1382 H1399 0.930 1_655 S
C1383 O1366 1.262 . S
C1383 O1367 1.260 . S
C1384 Tb1320 2.833 . S
C1384 O1364 1.251 . S
C1384 O1369 1.256 . S
C1384 C1377 1.500 . S
C1385 H1350 0.929 . S
C1385 C1363 1.444 . S
C1385 C1386 1.317 . S
C1386 H1348 0.930 . S
C1386 C1354 1.432 . S
C1386 C1385 1.317 . S
C1387 O1371 1.283 . S
C1387 O1374 1.243 . S
C1388 C1389 1.382 . S
C1388 C1392 1.393 . S
C1388 C1395 1.500 . S
C1389 C1388 1.382 . S
C1389 C1390 1.400 1_556 S
C1389 H1400 0.930 . S
C1390 C1389 1.400 1_554 S
C1390 C1391 1.384 . S
C1391 C1390 1.384 . S
C1391 C1393 1.392 . S
C1391 H1401 0.931 . S
C1392 C1388 1.393 . S
C1392 C1393 1.401 1_556 S
C1392 H1402 0.930 . S
C1393 C1391 1.392 . S
C1393 C1392 1.401 1_554 S
C1393 H1403 0.930 . S
C1394 O1372 1.262 . S
C1394 O1373 1.260 . S
C1395 Tb1331 2.833 . S
C1395 O1370 1.251 . S
C1395 O1375 1.256 . S
C1395 C1388 1.500 . S
H1396 C1379 0.930 . S
H1397 C1380 0.931 . S
H1398 C1381 0.930 . S
H1399 C1382 0.930 1_455 S
H1400 C1389 0.930 . S
H1401 C1391 0.931 . S
H1402 C1392 0.930 . S
H1403 C1393 0.930 . S
Tb1404 N1435 2.660 . S
Tb1404 N1442 2.600 . S
Tb1404 O1448 2.546 . S
Tb1404 O1449 2.610 . S
Tb1404 O1451 2.320 . S
Tb1404 O1452 2.552 . S
Tb1404 O1453 2.413 . S
Tb1404 O1455 2.362 . S
Tb1404 O1456 2.421 . S
Tb1404 C1468 2.833 1_565 S
C1405 C1408 1.432 . S
C1405 C1409 1.414 . S
C1405 N1412 1.359 . S
C1406 C1408 1.417 . S
C1406 C1410 1.432 . S
C1406 C1418 1.410 . S
C1407 C1409 1.444 . S
C1407 C1410 1.317 . S
C1407 H1430 0.929 . S
C1408 C1405 1.432 . S
C1408 C1406 1.417 . S
C1408 N1416 1.360 . S
C1409 C1405 1.414 . S
C1409 C1407 1.444 . S
C1409 C1414 1.385 . S
C1410 C1406 1.432 . S
C1410 C1407 1.317 . S
C1410 H1422 0.930 . S
C1411 C1413 1.392 . S
C1411 C1414 1.370 . S
C1411 H1423 0.931 . S
N1412 C1405 1.359 . S
N1412 C1413 1.327 . S
N1412 Tb1415 2.600 . S
C1413 C1411 1.392 . S
C1413 N1412 1.327 . S
C1413 H1420 0.930 . S
C1414 C1409 1.385 . S
C1414 C1411 1.370 . S
C1414 H1433 0.930 . S
Tb1415 N1412 2.600 . S
Tb1415 N1416 2.660 . S
Tb1415 O1449 2.362 . S
Tb1415 O1450 2.421 . S
Tb1415 O1454 2.546 . S
Tb1415 O1455 2.610 . S
Tb1415 O1457 2.320 . S
Tb1415 O1458 2.552 . S
Tb1415 O1459 2.413 . S
Tb1415 C1479 2.833 . S
N1416 C1408 1.360 . S
N1416 Tb1415 2.660 . S
N1416 C1417 1.305 . S
C1417 N1416 1.305 . S
C1417 C1419 1.407 . S
C1417 H1424 0.930 . S
C1418 C1406 1.410 . S
C1418 C1419 1.345 . S
C1418 H1426 0.930 . S
C1419 C1417 1.407 . S
C1419 C1418 1.345 . S
C1419 H1421 0.930 . S
H1420 C1413 0.930 . S
H1421 C1419 0.930 . S
H1422 C1410 0.930 . S
H1423 C1411 0.931 . S
H1424 C1417 0.930 . S
H1425 C1439 0.930 . S
H1426 C1418 0.930 . S
H1427 C1445 0.930 . S
H1428 C1436 0.930 . S
H1429 C1443 0.931 1_554 S
H1430 C1407 0.929 . S
H1431 C1437 0.930 . S
H1432 C1470 0.930 . S
H1433 C1414 0.930 . S
H1434 C1469 0.929 1_545 S
N1435 Tb1404 2.660 . S
N1435 C1436 1.305 . S
N1435 C1440 1.360 . S
C1436 H1428 0.930 . S
C1436 N1435 1.305 . S
C1436 C1439 1.407 . S
C1437 H1431 0.930 . S
C1437 C1438 1.410 . S
C1437 C1439 1.345 1_455 S
C1438 C1437 1.410 . S
C1438 C1440 1.417 1_455 S
C1438 C1470 1.432 . S
C1439 H1425 0.930 . S
C1439 C1436 1.407 . S
C1439 C1437 1.345 1_655 S
C1440 N1435 1.360 . S
C1440 C1438 1.417 1_655 S
C1440 C1444 1.432 . S
H1441 C1446 0.930 1_545 S
N1442 Tb1404 2.600 . S
N1442 C1444 1.359 . S
N1442 C1445 1.327 . S
C1443 H1429 0.931 1_556 S
C1443 C1445 1.392 . S
C1443 C1446 1.370 1_655 S
C1444 C1440 1.432 . S
C1444 N1442 1.359 . S
C1444 C1447 1.414 1_655 S
C1445 H1427 0.930 . S
C1445 N1442 1.327 . S
C1445 C1443 1.392 . S
C1446 H1441 0.930 1_565 S
C1446 C1443 1.370 1_455 S
C1446 C1447 1.385 . S
C1447 C1444 1.414 1_455 S
C1447 C1446 1.385 . S
C1447 C1469 1.444 . S
O1448 Tb1404 2.546 . S
O1448 C1468 1.251 1_565 S
O1449 Tb1404 2.610 . S
O1449 Tb1415 2.362 . S
O1449 C1460 1.283 . S
O1450 Tb1415 2.421 . S
O1450 C1467 1.262 . S
O1451 Tb1404 2.320 . S
O1451 C1467 1.260 . S
O1452 Tb1404 2.552 . S
O1452 C1460 1.243 . S
O1453 Tb1404 2.413 . S
O1453 C1468 1.256 1_565 S
O1454 Tb1415 2.546 . S
O1454 C1479 1.251 . S
O1455 Tb1404 2.362 . S
O1455 Tb1415 2.610 . S
O1455 C1471 1.283 . S
O1456 Tb1404 2.421 . S
O1456 C1478 1.262 . S
O1457 Tb1415 2.320 . S
O1457 C1478 1.260 . S
O1458 Tb1415 2.552 . S
O1458 C1471 1.243 . S
O1459 Tb1415 2.413 . S
O1459 C1479 1.256 . S
C1460 O1449 1.283 . S
C1460 O1452 1.243 . S
C1461 C1463 1.382 . S
C1461 C1465 1.393 . S
C1461 C1468 1.500 . S
C1462 C1463 1.400 . S
C1462 C1464 1.384 . S
C1463 C1461 1.382 . S
C1463 C1462 1.400 . S
C1463 H1480 0.930 . S
C1464 C1462 1.384 . S
C1464 C1466 1.392 . S
C1464 H1481 0.931 . S
C1465 C1461 1.393 . S
C1465 C1466 1.401 . S
C1465 H1482 0.930 . S
C1466 C1464 1.392 . S
C1466 C1465 1.401 . S
C1466 H1483 0.930 . S
C1467 O1450 1.262 . S
C1467 O1451 1.260 . S
C1468 Tb1404 2.833 1_545 S
C1468 O1448 1.251 1_545 S
C1468 O1453 1.256 1_545 S
C1468 C1461 1.500 . S
C1469 H1434 0.929 1_565 S
C1469 C1447 1.444 . S
C1469 C1470 1.317 . S
C1470 H1432 0.930 . S
C1470 C1438 1.432 . S
C1470 C1469 1.317 . S
C1471 O1455 1.283 . S
C1471 O1458 1.243 . S
C1472 C1473 1.382 . S
C1472 C1476 1.393 . S
C1472 C1479 1.500 . S
C1473 C1472 1.382 . S
C1473 C1474 1.400 . S
C1473 H1484 0.930 . S
C1474 C1473 1.400 . S
C1474 C1475 1.384 . S
C1475 C1474 1.384 . S
C1475 C1477 1.392 . S
C1475 H1485 0.931 . S
C1476 C1472 1.393 . S
C1476 C1477 1.401 . S
C1476 H1486 0.930 . S
C1477 C1475 1.392 . S
C1477 C1476 1.401 . S
C1477 H1487 0.930 . S
C1478 O1456 1.262 . S
C1478 O1457 1.260 . S
C1479 Tb1415 2.833 . S
C1479 O1454 1.251 . S
C1479 O1459 1.256 . S
C1479 C1472 1.500 . S
H1480 C1463 0.930 . S
H1481 C1464 0.931 . S
H1482 C1465 0.930 . S
H1483 C1466 0.930 . S
H1484 C1473 0.930 . S
H1485 C1475 0.931 . S
H1486 C1476 0.930 . S
H1487 C1477 0.930 . S
Tb1488 N1519 2.660 . S
Tb1488 N1526 2.600 . S
Tb1488 O1532 2.546 . S
Tb1488 O1533 2.610 . S
Tb1488 O1535 2.320 . S
Tb1488 O1536 2.552 . S
Tb1488 O1537 2.413 . S
Tb1488 O1539 2.362 . S
Tb1488 O1540 2.421 . S
Tb1488 C1552 2.833 . S
C1489 C1492 1.432 . S
C1489 C1493 1.414 . S
C1489 N1496 1.359 . S
C1490 C1492 1.417 . S
C1490 C1494 1.432 . S
C1490 C1502 1.410 . S
C1491 C1493 1.444 . S
C1491 C1494 1.317 . S
C1491 H1514 0.929 . S
C1492 C1489 1.432 . S
C1492 C1490 1.417 . S
C1492 N1500 1.360 . S
C1493 C1489 1.414 . S
C1493 C1491 1.444 . S
C1493 C1498 1.385 . S
C1494 C1490 1.432 . S
C1494 C1491 1.317 . S
C1494 H1506 0.930 . S
C1495 C1497 1.392 . S
C1495 C1498 1.370 . S
C1495 H1507 0.931 . S
N1496 C1489 1.359 . S
N1496 C1497 1.327 . S
N1496 Tb1499 2.600 . S
C1497 C1495 1.392 . S
C1497 N1496 1.327 . S
C1497 H1504 0.930 . S
C1498 C1493 1.385 . S
C1498 C1495 1.370 . S
C1498 H1517 0.930 . S
Tb1499 N1496 2.600 . S
Tb1499 N1500 2.660 . S
Tb1499 O1533 2.362 . S
Tb1499 O1534 2.421 . S
Tb1499 O1538 2.546 . S
Tb1499 O1539 2.610 . S
Tb1499 O1541 2.320 . S
Tb1499 O1542 2.552 . S
Tb1499 O1543 2.413 . S
Tb1499 C1563 2.833 . S
N1500 C1492 1.360 . S
N1500 Tb1499 2.660 . S
N1500 C1501 1.305 . S
C1501 N1500 1.305 . S
C1501 C1503 1.407 . S
C1501 H1508 0.930 . S
C1502 C1490 1.410 . S
C1502 C1503 1.345 . S
C1502 H1510 0.930 . S
C1503 C1501 1.407 . S
C1503 C1502 1.345 . S
C1503 H1505 0.930 . S
H1504 C1497 0.930 . S
H1505 C1503 0.930 . S
H1506 C1494 0.930 . S
H1507 C1495 0.931 . S
H1508 C1501 0.930 . S
H1509 C1523 0.930 . S
H1510 C1502 0.930 . S
H1511 C1529 0.930 . S
H1512 C1520 0.930 . S
H1513 C1527 0.931 . S
H1514 C1491 0.929 . S
H1515 C1521 0.930 . S
H1516 C1554 0.930 . S
H1517 C1498 0.930 . S
H1518 C1553 0.929 . S
N1519 Tb1488 2.660 . S
N1519 C1520 1.305 . S
N1519 C1524 1.360 . S
C1520 H1512 0.930 . S
C1520 N1519 1.305 . S
C1520 C1523 1.407 . S
C1521 H1515 0.930 . S
C1521 C1522 1.410 . S
C1521 C1523 1.345 . S
C1522 C1521 1.410 . S
C1522 C1524 1.417 . S
C1522 C1554 1.432 . S
C1523 H1509 0.930 . S
C1523 C1520 1.407 . S
C1523 C1521 1.345 . S
C1524 N1519 1.360 . S
C1524 C1522 1.417 . S
C1524 C1528 1.432 . S
H1525 C1530 0.930 . S
N1526 Tb1488 2.600 . S
N1526 C1528 1.359 . S
N1526 C1529 1.327 . S
C1527 H1513 0.931 . S
C1527 C1529 1.392 . S
C1527 C1530 1.370 . S
C1528 C1524 1.432 . S
C1528 N1526 1.359 . S
C1528 C1531 1.414 . S
C1529 H1511 0.930 . S
C1529 N1526 1.327 . S
C1529 C1527 1.392 . S
C1530 H1525 0.930 . S
C1530 C1527 1.370 . S
C1530 C1531 1.385 . S
C1531 C1528 1.414 . S
C1531 C1530 1.385 . S
C1531 C1553 1.444 . S
O1532 Tb1488 2.546 . S
O1532 C1552 1.251 . S
O1533 Tb1488 2.610 . S
O1533 Tb1499 2.362 . S
O1533 C1544 1.283 . S
O1534 Tb1499 2.421 . S
O1534 C1551 1.262 . S
O1535 Tb1488 2.320 . S
O1535 C1551 1.260 . S
O1536 Tb1488 2.552 . S
O1536 C1544 1.243 . S
O1537 Tb1488 2.413 . S
O1537 C1552 1.256 . S
O1538 Tb1499 2.546 . S
O1538 C1563 1.251 . S
O1539 Tb1488 2.362 . S
O1539 Tb1499 2.610 . S
O1539 C1555 1.283 . S
O1540 Tb1488 2.421 . S
O1540 C1562 1.262 . S
O1541 Tb1499 2.320 . S
O1541 C1562 1.260 . S
O1542 Tb1499 2.552 . S
O1542 C1555 1.243 . S
O1543 Tb1499 2.413 . S
O1543 C1563 1.256 . S
C1544 O1533 1.283 . S
C1544 O1536 1.243 . S
C1545 C1547 1.382 . S
C1545 C1549 1.393 . S
C1545 C1552 1.500 . S
C1546 C1547 1.400 . S
C1546 C1548 1.384 . S
C1547 C1545 1.382 . S
C1547 C1546 1.400 . S
C1547 H1564 0.930 . S
C1548 C1546 1.384 . S
C1548 C1550 1.392 . S
C1548 H1565 0.931 . S
C1549 C1545 1.393 . S
C1549 C1550 1.401 . S
C1549 H1566 0.930 . S
C1550 C1548 1.392 . S
C1550 C1549 1.401 . S
C1550 H1567 0.930 . S
C1551 O1534 1.262 . S
C1551 O1535 1.260 . S
C1552 Tb1488 2.833 . S
C1552 O1532 1.251 . S
C1552 O1537 1.256 . S
C1552 C1545 1.500 . S
C1553 H1518 0.929 . S
C1553 C1531 1.444 . S
C1553 C1554 1.317 . S
C1554 H1516 0.930 . S
C1554 C1522 1.432 . S
C1554 C1553 1.317 . S
C1555 O1539 1.283 . S
C1555 O1542 1.243 . S
C1556 C1557 1.382 . S
C1556 C1560 1.393 . S
C1556 C1563 1.500 . S
C1557 C1556 1.382 . S
C1557 C1558 1.400 . S
C1557 H1568 0.930 . S
C1558 C1557 1.400 . S
C1558 C1559 1.384 . S
C1559 C1558 1.384 . S
C1559 C1561 1.392 . S
C1559 H1569 0.931 . S
C1560 C1556 1.393 . S
C1560 C1561 1.401 . S
C1560 H1570 0.930 . S
C1561 C1559 1.392 . S
C1561 C1560 1.401 . S
C1561 H1571 0.930 . S
C1562 O1540 1.262 . S
C1562 O1541 1.260 . S
C1563 Tb1499 2.833 . S
C1563 O1538 1.251 . S
C1563 O1543 1.256 . S
C1563 C1556 1.500 . S
H1564 C1547 0.930 . S
H1565 C1548 0.931 . S
H1566 C1549 0.930 . S
H1567 C1550 0.930 . S
H1568 C1557 0.930 . S
H1569 C1559 0.931 . S
H1570 C1560 0.930 . S
H1571 C1561 0.930 . S
Tb1572 N1603 2.660 1_556 S
Tb1572 N1610 2.600 . S
Tb1572 O1616 2.546 . S
Tb1572 O1617 2.610 1_556 S
Tb1572 O1619 2.320 1_556 S
Tb1572 O1620 2.552 . S
Tb1572 O1621 2.413 . S
Tb1572 O1623 2.362 1_556 S
Tb1572 O1624 2.421 . S
Tb1572 C1636 2.833 . S
C1573 C1576 1.432 1_455 S
C1573 C1577 1.414 1_455 S
C1573 N1580 1.359 . S
C1574 C1576 1.417 . S
C1574 C1578 1.432 . S
C1574 C1586 1.410 . S
C1575 C1577 1.444 . S
C1575 C1578 1.317 . S
C1575 H1598 0.929 . S
C1576 C1573 1.432 1_655 S
C1576 C1574 1.417 . S
C1576 N1584 1.360 . S
C1577 C1573 1.414 1_655 S
C1577 C1575 1.444 . S
C1577 C1582 1.385 1_655 S
C1578 C1574 1.432 . S
C1578 C1575 1.317 . S
C1578 H1590 0.930 . S
C1579 C1581 1.392 . S
C1579 C1582 1.370 . S
C1579 H1591 0.931 . S
N1580 C1573 1.359 . S
N1580 C1581 1.327 . S
N1580 Tb1583 2.600 . S
C1581 C1579 1.392 . S
C1581 N1580 1.327 . S
C1581 H1588 0.930 . S
C1582 C1577 1.385 1_455 S
C1582 C1579 1.370 . S
C1582 H1601 0.932 . S
Tb1583 N1580 2.600 . S
Tb1583 N1584 2.660 1_455 S
Tb1583 O1617 2.362 . S
Tb1583 O1618 2.421 . S
Tb1583 O1622 2.546 . S
Tb1583 O1623 2.610 . S
Tb1583 O1625 2.320 1_554 S
Tb1583 O1626 2.552 . S
Tb1583 O1627 2.413 1_455 S
Tb1583 C1647 2.833 1_455 S
N1584 C1576 1.360 . S
N1584 Tb1583 2.660 1_655 S
N1584 C1585 1.305 1_554 S
C1585 N1584 1.305 1_556 S
C1585 C1587 1.407 . S
C1585 H1592 0.930 . S
C1586 C1574 1.410 . S
C1586 C1587 1.345 1_554 S
C1586 H1594 0.930 1_554 S
C1587 C1585 1.407 . S
C1587 C1586 1.345 1_556 S
C1587 H1589 0.930 . S
H1588 C1581 0.930 . S
H1589 C1587 0.930 . S
H1590 C1578 0.930 . S
H1591 C1579 0.931 . S
H1592 C1585 0.930 . S
H1593 C1607 0.930 . S
H1594 C1586 0.930 1_556 S
H1595 C1613 0.930 . S
H1596 C1604 0.930 . S
H1597 C1611 0.931 . S
H1598 C1575 0.929 . S
H1599 C1605 0.930 . S
H1600 C1638 0.930 . S
H1601 C1582 0.932 . S
H1602 C1637 0.929 . S
N1603 Tb1572 2.660 1_554 S
N1603 C1604 1.305 . S
N1603 C1608 1.360 1_554 S
C1604 H1596 0.930 . S
C1604 N1603 1.305 . S
C1604 C1607 1.407 . S
C1605 H1599 0.930 . S
C1605 C1606 1.410 1_554 S
C1605 C1607 1.345 . S
C1606 C1605 1.410 1_556 S
C1606 C1608 1.417 . S
C1606 C1638 1.432 . S
C1607 H1593 0.930 . S
C1607 C1604 1.407 . S
C1607 C1605 1.345 . S
C1608 N1603 1.360 1_556 S
C1608 C1606 1.417 . S
C1608 C1612 1.432 . S
H1609 C1614 0.930 . S
N1610 Tb1572 2.600 . S
N1610 C1612 1.359 . S
N1610 C1613 1.327 . S
C1611 H1597 0.931 . S
C1611 C1613 1.392 . S
C1611 C1614 1.370 . S
C1612 C1608 1.432 . S
C1612 N1610 1.359 . S
C1612 C1615 1.414 . S
C1613 H1595 0.930 . S
C1613 N1610 1.327 . S
C1613 C1611 1.392 . S
C1614 H1609 0.930 . S
C1614 C1611 1.370 . S
C1614 C1615 1.385 . S
C1615 C1612 1.414 . S
C1615 C1614 1.385 . S
C1615 C1637 1.444 . S
O1616 Tb1572 2.546 . S
O1616 C1636 1.251 . S
O1617 Tb1572 2.610 1_554 S
O1617 Tb1583 2.362 . S
O1617 C1628 1.283 . S
O1618 Tb1583 2.421 . S
O1618 C1635 1.262 . S
O1619 Tb1572 2.320 1_554 S
O1619 C1635 1.260 . S
O1620 Tb1572 2.552 . S
O1620 C1628 1.243 1_556 S
O1621 Tb1572 2.413 . S
O1621 C1636 1.256 . S
O1622 Tb1583 2.546 . S
O1622 C1647 1.251 1_455 S
O1623 Tb1572 2.362 1_554 S
O1623 Tb1583 2.610 . S
O1623 C1639 1.283 . S
O1624 Tb1572 2.421 . S
O1624 C1646 1.262 . S
O1625 Tb1583 2.320 1_556 S
O1625 C1646 1.260 . S
O1626 Tb1583 2.552 . S
O1626 C1639 1.243 . S
O1627 Tb1583 2.413 1_655 S
O1627 C1647 1.256 . S
C1628 O1617 1.283 . S
C1628 O1620 1.243 1_554 S
C1629 C1631 1.382 . S
C1629 C1633 1.393 . S
C1629 C1636 1.500 . S
C1630 C1631 1.400 . S
C1630 C1632 1.384 . S
C1631 C1629 1.382 . S
C1631 C1630 1.400 . S
C1631 H1648 0.930 1_556 S
C1632 C1630 1.384 . S
C1632 C1634 1.392 . S
C1632 H1649 0.931 . S
C1633 C1629 1.393 . S
C1633 C1634 1.401 . S
C1633 H1650 0.930 . S
C1634 C1632 1.392 . S
C1634 C1633 1.401 . S
C1634 H1651 0.930 . S
C1635 O1618 1.262 . S
C1635 O1619 1.260 . S
C1636 Tb1572 2.833 . S
C1636 O1616 1.251 . S
C1636 O1621 1.256 . S
C1636 C1629 1.500 . S
C1637 H1602 0.929 . S
C1637 C1615 1.444 . S
C1637 C1638 1.317 . S
C1638 H1600 0.930 . S
C1638 C1606 1.432 . S
C1638 C1637 1.317 . S
C1639 O1623 1.283 . S
C1639 O1626 1.243 . S
C1640 C1641 1.382 . S
C1640 C1644 1.393 . S
C1640 C1647 1.500 . S
C1641 C1640 1.382 . S
C1641 C1642 1.400 . S
C1641 H1652 0.930 . S
C1642 C1641 1.400 . S
C1642 C1643 1.384 . S
C1643 C1642 1.384 . S
C1643 C1645 1.392 . S
C1643 H1653 0.931 . S
C1644 C1640 1.393 . S
C1644 C1645 1.401 . S
C1644 H1654 0.930 . S
C1645 C1643 1.392 . S
C1645 C1644 1.401 . S
C1645 H1655 0.930 . S
C1646 O1624 1.262 . S
C1646 O1625 1.260 . S
C1647 Tb1583 2.833 1_655 S
C1647 O1622 1.251 1_655 S
C1647 O1627 1.256 . S
C1647 C1640 1.500 . S
H1648 C1631 0.930 1_554 S
H1649 C1632 0.931 . S
H1650 C1633 0.930 . S
H1651 C1634 0.930 . S
H1652 C1641 0.930 . S
H1653 C1643 0.931 . S
H1654 C1644 0.930 . S
H1655 C1645 0.930 . S
C101 C368 3.153 . S
C57 C459 3.002 . S
C73 C536 2.676 . S
C634 C78 1.014 . S
C21 C718 2.561 . S
C790 C31 1.461 . S
C879 C49 2.822 . S
C0 C956 2.281 . S
C375 C218 2.960 . S
C229 C466 0.880 . S
C543 C257 1.098 . S
C620 C164 2.331 . S
C216 C704 2.701 . S
C806 C231 1.399 . S
C886 C255 0.205 . S
C963 C166 2.687 . S
C382 C143 2.074 . S
C265 C1047 2.222 1_556 S
C1135 C299 3.270 . S
C1208 C291 1.498 . S
C104 C970 3.630 . S
C117 C550 2.339 . S
C304 C1299 2.432 . S
C1376 C278 1.012 . S
C379 C60 3.081 . S
C1394 C96 3.076 . S
C88 C547 2.619 . S
C65 C1294 1.324 . S
C706 C10 2.619 . S
C44 C1138 1.465 . S
C890 C34 2.646 1_565 S
C1471 C13 2.786 . S
C386 C138 2.898 . S
C1378 C296 1.078 . S
C112 C554 1.500 . S
C270 C1303 2.355 . S
C140 C715 2.783 . S
C1131 C294 1.679 . S
C114 C874 0.435 . S
C268 C1478 2.801 . S
C169 C370 2.555 1_554 S
C161 C1058 2.298 . S
C234 C788 3.229 . S
C226 C1219 1.234 . S
C1462 C247 4.460 . S
C195 C538 3.016 . S
C638 C239 2.469 . S
C463 C187 1.419 . S
C75 C1544 3.153 . S
C1383 C83 3.001 . S
C99 C1628 2.676 . S
C52 C1306 1.014 . S
C47 C1054 2.561 . S
C1126 C5 1.461 . S
C1215 C23 2.821 1_455 S
C1460 C26 2.281 . S
C1551 C244 2.960 . S
C177 C1390 0.880 1_556 S
C1635 C192 1.098 . S
C1292 C203 2.331 . S
C1040 C242 2.701 . S
C179 C1142 1.399 . S
C1222 C190 0.204 . S
C205 C1467 2.686 . S
C1558 C286 2.078 . S
C122 C711 2.221 . S
C799 C130 3.270 . S
C872 C148 1.499 . S
C1474 C273 3.627 . S
C260 C1642 2.339 . S
C627 C135 2.432 . S
C452 C109 1.010 . S
C86 C1555 3.081 . S
C470 C70 3.076 . S
C62 C1639 2.619 . S
C91 C622 1.325 . S
C36 C1042 2.619 1_556 S
C802 C18 1.465 . S
C8 C1226 2.645 . S
C39 C967 2.786 . S
C1562 C307 2.897 . S
C153 C454 1.079 . S
C1646 C281 1.502 . S
C127 C631 2.355 . S
C309 C1051 2.783 . S
C795 C151 1.680 . S
C283 C1210 0.436 . S
C974 C125 2.801 . S
C1546 C221 2.555 . S
C722 C200 2.298 1_445 S
C208 C1124 3.229 . S
C883 C174 1.234 . S
C182 C958 4.458 . S
C156 C1630 3.016 1_554 S
C1310 C213 2.469 . S
C1387 C252 1.419 . S
