# Generated by pormake.
# Topology bwt, (3,3)-cn, num edge types: 1
# Building blocks:
#     Node 0, Type 0, BuildingBlock: WUSLED_clean_sbu_0, # of connection points: 3
#     Node 1, Type 0, BuildingBlock: WUSLED_clean_sbu_0, # of connection points: 3
#     Node 2, Type 0, BuildingBlock: WUSLED_clean_sbu_0, # of connection points: 3
#     Node 3, Type 0, BuildingBlock: WUSLED_clean_sbu_0, # of connection points: 3
#     Node 4, Type 0, BuildingBlock: WUSLED_clean_sbu_0, # of connection points: 3
#     Node 5, Type 0, BuildingBlock: WUSLED_clean_sbu_0, # of connection points: 3
#     Node 6, Type 0, BuildingBlock: WUSLED_clean_sbu_0, # of connection points: 3
#     Node 7, Type 0, BuildingBlock: WUSLED_clean_sbu_0, # of connection points: 3
#     Node 8, Type 0, BuildingBlock: WUSLED_clean_sbu_0, # of connection points: 3
#     Node 9, Type 0, BuildingBlock: WUSLED_clean_sbu_0, # of connection points: 3
#     Node 10, Type 0, BuildingBlock: WUSLED_clean_sbu_0, # of connection points: 3
#     Node 11, Type 0, BuildingBlock: WUSLED_clean_sbu_0, # of connection points: 3
#     Node 12, Type 0, BuildingBlock: WUSLED_clean_sbu_0, # of connection points: 3
#     Node 13, Type 0, BuildingBlock: WUSLED_clean_sbu_0, # of connection points: 3
#     Node 14, Type 0, BuildingBlock: WUSLED_clean_sbu_0, # of connection points: 3
#     Node 15, Type 0, BuildingBlock: WUSLED_clean_sbu_0, # of connection points: 3
#     Node 16, Type 0, BuildingBlock: WUSLED_clean_sbu_0, # of connection points: 3
#     Node 17, Type 0, BuildingBlock: WUSLED_clean_sbu_0, # of connection points: 3
#     Node 18, Type 0, BuildingBlock: WUSLED_clean_sbu_0, # of connection points: 3
#     Node 19, Type 0, BuildingBlock: WUSLED_clean_sbu_0, # of connection points: 3
#     Node 20, Type 0, BuildingBlock: WUSLED_clean_sbu_0, # of connection points: 3
#     Node 21, Type 0, BuildingBlock: WUSLED_clean_sbu_0, # of connection points: 3
#     Node 22, Type 0, BuildingBlock: WUSLED_clean_sbu_0, # of connection points: 3
#     Node 23, Type 0, BuildingBlock: WUSLED_clean_sbu_0, # of connection points: 3
#     Node 24, Type 1, BuildingBlock: OLANEW_clean_sbu_2, # of connection points: 3
#     Node 25, Type 1, BuildingBlock: OLANEW_clean_sbu_2, # of connection points: 3
#     Node 26, Type 1, BuildingBlock: OLANEW_clean_sbu_2, # of connection points: 3
#     Node 27, Type 1, BuildingBlock: OLANEW_clean_sbu_2, # of connection points: 3
#     Node 28, Type 1, BuildingBlock: OLANEW_clean_sbu_2, # of connection points: 3
#     Node 29, Type 1, BuildingBlock: OLANEW_clean_sbu_2, # of connection points: 3
#     Node 30, Type 1, BuildingBlock: OLANEW_clean_sbu_2, # of connection points: 3
#     Node 31, Type 1, BuildingBlock: OLANEW_clean_sbu_2, # of connection points: 3
#     Node 32, Type 1, BuildingBlock: OLANEW_clean_sbu_2, # of connection points: 3
#     Node 33, Type 1, BuildingBlock: OLANEW_clean_sbu_2, # of connection points: 3
#     Node 34, Type 1, BuildingBlock: OLANEW_clean_sbu_2, # of connection points: 3
#     Node 35, Type 1, BuildingBlock: OLANEW_clean_sbu_2, # of connection points: 3
#     Node 36, Type 1, BuildingBlock: OLANEW_clean_sbu_2, # of connection points: 3
#     Node 37, Type 1, BuildingBlock: OLANEW_clean_sbu_2, # of connection points: 3
#     Node 38, Type 1, BuildingBlock: OLANEW_clean_sbu_2, # of connection points: 3
#     Node 39, Type 1, BuildingBlock: OLANEW_clean_sbu_2, # of connection points: 3
#     Node 40, Type 1, BuildingBlock: OLANEW_clean_sbu_2, # of connection points: 3
#     Node 41, Type 1, BuildingBlock: OLANEW_clean_sbu_2, # of connection points: 3
#     Node 42, Type 1, BuildingBlock: OLANEW_clean_sbu_2, # of connection points: 3
#     Node 43, Type 1, BuildingBlock: OLANEW_clean_sbu_2, # of connection points: 3
#     Node 44, Type 1, BuildingBlock: OLANEW_clean_sbu_2, # of connection points: 3
#     Node 45, Type 1, BuildingBlock: OLANEW_clean_sbu_2, # of connection points: 3
#     Node 46, Type 1, BuildingBlock: OLANEW_clean_sbu_2, # of connection points: 3
#     Node 47, Type 1, BuildingBlock: OLANEW_clean_sbu_2, # of connection points: 3
#     Edge 48, Type (0, 1), BuildingBlock: UVAHIK_clean_linker_0, # of connection points: 2
#     Edge 49, Type (0, 1), BuildingBlock: UVAHIK_clean_linker_0, # of connection points: 2
#     Edge 50, Type (0, 1), BuildingBlock: UVAHIK_clean_linker_0, # of connection points: 2
#     Edge 51, Type (0, 1), BuildingBlock: UVAHIK_clean_linker_0, # of connection points: 2
#     Edge 52, Type (0, 1), BuildingBlock: UVAHIK_clean_linker_0, # of connection points: 2
#     Edge 53, Type (0, 1), BuildingBlock: UVAHIK_clean_linker_0, # of connection points: 2
#     Edge 54, Type (0, 1), BuildingBlock: UVAHIK_clean_linker_0, # of connection points: 2
#     Edge 55, Type (0, 1), BuildingBlock: UVAHIK_clean_linker_0, # of connection points: 2
#     Edge 56, Type (0, 1), BuildingBlock: UVAHIK_clean_linker_0, # of connection points: 2
#     Edge 57, Type (0, 1), BuildingBlock: UVAHIK_clean_linker_0, # of connection points: 2
#     Edge 58, Type (0, 1), BuildingBlock: UVAHIK_clean_linker_0, # of connection points: 2
#     Edge 59, Type (0, 1), BuildingBlock: UVAHIK_clean_linker_0, # of connection points: 2
#     Edge 60, Type (0, 1), BuildingBlock: UVAHIK_clean_linker_0, # of connection points: 2
#     Edge 61, Type (0, 1), BuildingBlock: UVAHIK_clean_linker_0, # of connection points: 2
#     Edge 62, Type (0, 1), BuildingBlock: UVAHIK_clean_linker_0, # of connection points: 2
#     Edge 63, Type (0, 1), BuildingBlock: UVAHIK_clean_linker_0, # of connection points: 2
#     Edge 64, Type (0, 1), BuildingBlock: UVAHIK_clean_linker_0, # of connection points: 2
#     Edge 65, Type (0, 1), BuildingBlock: UVAHIK_clean_linker_0, # of connection points: 2
#     Edge 66, Type (0, 1), BuildingBlock: UVAHIK_clean_linker_0, # of connection points: 2
#     Edge 67, Type (0, 1), BuildingBlock: UVAHIK_clean_linker_0, # of connection points: 2
#     Edge 68, Type (0, 1), BuildingBlock: UVAHIK_clean_linker_0, # of connection points: 2
#     Edge 69, Type (0, 1), BuildingBlock: UVAHIK_clean_linker_0, # of connection points: 2
#     Edge 70, Type (0, 1), BuildingBlock: UVAHIK_clean_linker_0, # of connection points: 2
#     Edge 71, Type (0, 1), BuildingBlock: UVAHIK_clean_linker_0, # of connection points: 2
#     Edge 72, Type (0, 1), BuildingBlock: UVAHIK_clean_linker_0, # of connection points: 2
#     Edge 73, Type (0, 1), BuildingBlock: UVAHIK_clean_linker_0, # of connection points: 2
#     Edge 74, Type (0, 1), BuildingBlock: UVAHIK_clean_linker_0, # of connection points: 2
#     Edge 75, Type (0, 1), BuildingBlock: UVAHIK_clean_linker_0, # of connection points: 2
#     Edge 76, Type (0, 1), BuildingBlock: UVAHIK_clean_linker_0, # of connection points: 2
#     Edge 77, Type (0, 1), BuildingBlock: UVAHIK_clean_linker_0, # of connection points: 2
#     Edge 78, Type (0, 1), BuildingBlock: UVAHIK_clean_linker_0, # of connection points: 2
#     Edge 79, Type (0, 1), BuildingBlock: UVAHIK_clean_linker_0, # of connection points: 2
#     Edge 80, Type (0, 1), BuildingBlock: UVAHIK_clean_linker_0, # of connection points: 2
#     Edge 81, Type (0, 1), BuildingBlock: UVAHIK_clean_linker_0, # of connection points: 2
#     Edge 82, Type (0, 1), BuildingBlock: UVAHIK_clean_linker_0, # of connection points: 2
#     Edge 83, Type (0, 1), BuildingBlock: UVAHIK_clean_linker_0, # of connection points: 2
#     Edge 84, Type (0, 1), BuildingBlock: UVAHIK_clean_linker_0, # of connection points: 2
#     Edge 85, Type (0, 1), BuildingBlock: UVAHIK_clean_linker_0, # of connection points: 2
#     Edge 86, Type (0, 1), BuildingBlock: UVAHIK_clean_linker_0, # of connection points: 2
#     Edge 87, Type (0, 1), BuildingBlock: UVAHIK_clean_linker_0, # of connection points: 2
#     Edge 88, Type (0, 1), BuildingBlock: UVAHIK_clean_linker_0, # of connection points: 2
#     Edge 89, Type (0, 1), BuildingBlock: UVAHIK_clean_linker_0, # of connection points: 2
#     Edge 90, Type (0, 1), BuildingBlock: UVAHIK_clean_linker_0, # of connection points: 2
#     Edge 91, Type (0, 1), BuildingBlock: UVAHIK_clean_linker_0, # of connection points: 2
#     Edge 92, Type (0, 1), BuildingBlock: UVAHIK_clean_linker_0, # of connection points: 2
#     Edge 93, Type (0, 1), BuildingBlock: UVAHIK_clean_linker_0, # of connection points: 2
#     Edge 94, Type (0, 1), BuildingBlock: UVAHIK_clean_linker_0, # of connection points: 2
#     Edge 95, Type (0, 1), BuildingBlock: UVAHIK_clean_linker_0, # of connection points: 2
#     Edge 96, Type (0, 1), BuildingBlock: UVAHIK_clean_linker_0, # of connection points: 2
#     Edge 97, Type (0, 1), BuildingBlock: UVAHIK_clean_linker_0, # of connection points: 2
#     Edge 98, Type (0, 1), BuildingBlock: UVAHIK_clean_linker_0, # of connection points: 2
#     Edge 99, Type (0, 1), BuildingBlock: UVAHIK_clean_linker_0, # of connection points: 2
#     Edge 100, Type (0, 1), BuildingBlock: UVAHIK_clean_linker_0, # of connection points: 2
#     Edge 101, Type (0, 1), BuildingBlock: UVAHIK_clean_linker_0, # of connection points: 2
#     Edge 102, Type (0, 1), BuildingBlock: UVAHIK_clean_linker_0, # of connection points: 2
#     Edge 103, Type (0, 1), BuildingBlock: UVAHIK_clean_linker_0, # of connection points: 2
#     Edge 104, Type (0, 1), BuildingBlock: UVAHIK_clean_linker_0, # of connection points: 2
#     Edge 105, Type (0, 1), BuildingBlock: UVAHIK_clean_linker_0, # of connection points: 2
#     Edge 106, Type (0, 1), BuildingBlock: UVAHIK_clean_linker_0, # of connection points: 2
#     Edge 107, Type (0, 1), BuildingBlock: UVAHIK_clean_linker_0, # of connection points: 2
#     Edge 108, Type (0, 1), BuildingBlock: UVAHIK_clean_linker_0, # of connection points: 2
#     Edge 109, Type (0, 1), BuildingBlock: UVAHIK_clean_linker_0, # of connection points: 2
#     Edge 110, Type (0, 1), BuildingBlock: UVAHIK_clean_linker_0, # of connection points: 2
#     Edge 111, Type (0, 1), BuildingBlock: UVAHIK_clean_linker_0, # of connection points: 2
#     Edge 112, Type (0, 1), BuildingBlock: UVAHIK_clean_linker_0, # of connection points: 2
#     Edge 113, Type (0, 1), BuildingBlock: UVAHIK_clean_linker_0, # of connection points: 2
#     Edge 114, Type (0, 1), BuildingBlock: UVAHIK_clean_linker_0, # of connection points: 2
#     Edge 115, Type (0, 1), BuildingBlock: UVAHIK_clean_linker_0, # of connection points: 2
#     Edge 116, Type (0, 1), BuildingBlock: UVAHIK_clean_linker_0, # of connection points: 2
#     Edge 117, Type (0, 1), BuildingBlock: UVAHIK_clean_linker_0, # of connection points: 2
#     Edge 118, Type (0, 1), BuildingBlock: UVAHIK_clean_linker_0, # of connection points: 2
#     Edge 119, Type (0, 1), BuildingBlock: UVAHIK_clean_linker_0, # of connection points: 2
# Relax obj value: 0.114
# Max RMSD: 0.150
# Mean RMSD: 0.087
data_MOF--net-bwt--node1-WUSLED_clean_sbu_0--node2-OLANEW_clean_sbu_2--edge1-UVAHIK_clean_linker_0
_symmetry_space_group_name_H-M    P1
_symmetry_Int_Tables_number       1
_symmetry_cell_setting            triclinic
loop_
_symmetry_equiv_pos_as_xyz
'x, y, z'
_cell_length_a     89.546756
_cell_length_b     89.446534
_cell_length_c     89.525936
_cell_angle_alpha  93.539924
_cell_angle_beta   93.533568
_cell_angle_gamma 93.54425
loop_
_atom_site_label
_atom_site_type_symbol
_atom_site_fract_x
_atom_site_fract_y
_atom_site_fract_z
_atom_type_partial_charge
C0 C 0.28673 0.6407 0.37963 0.0
C1 C 0.30024 0.63769 0.3873 0.0
C2 C 0.31369 0.64205 0.36502 0.0
C3 C 0.31362 0.63841 0.38007 0.0
C4 C 0.30015 0.64536 0.35748 0.0
C5 C 0.28677 0.64469 0.36476 0.0
U6 U 0.26532 0.62542 0.41089 0.0
O7 O 0.24734 0.63454 0.42367 0.0
O8 O 0.24335 0.61298 0.41051 0.0
C9 C 0.23745 0.62373 0.41838 0.0
C10 C 0.27252 0.63866 0.38679 0.0
C11 C 0.22339 0.62864 0.41163 0.0
C12 C 0.20988 0.64082 0.39194 0.0
C13 C 0.2234 0.63691 0.39882 0.0
C14 C 0.19625 0.62839 0.41075 0.0
C15 C 0.19613 0.63649 0.39776 0.0
C16 C 0.20978 0.62449 0.41762 0.0
C17 C 0.28637 0.60465 0.44048 0.0
C18 C 0.27333 0.59274 0.46002 0.0
C19 C 0.30025 0.5916 0.45921 0.0
C20 C 0.29995 0.5999 0.44648 0.0
C21 C 0.28694 0.58792 0.46613 0.0
C22 C 0.27306 0.60104 0.44729 0.0
C23 C 0.28617 0.61318 0.427 0.0
O24 O 0.26707 0.62466 0.38648 0.0
O25 O 0.272 0.64592 0.39996 0.0
O26 O 0.28316 0.62733 0.42907 0.0
O27 O 0.27889 0.60629 0.41509 0.0
H28 H 0.30037 0.63442 0.39876 0.0
H29 H 0.32381 0.63559 0.38611 0.0
H30 H 0.29988 0.64832 0.34593 0.0
H31 H 0.27641 0.64698 0.35868 0.0
H32 H 0.21019 0.64721 0.38207 0.0
H33 H 0.23385 0.64017 0.39405 0.0
H34 H 0.18587 0.62471 0.4154 0.0
H35 H 0.2096 0.61802 0.42745 0.0
H36 H 0.26286 0.58994 0.46496 0.0
H37 H 0.31093 0.58824 0.46375 0.0
H38 H 0.31033 0.60262 0.44133 0.0
H39 H 0.26245 0.60459 0.44273 0.0
C40 C 0.22128 0.28515 0.79691 0.0
C41 C 0.20854 0.29071 0.80306 0.0
C42 C 0.19309 0.2806 0.78098 0.0
C43 C 0.19454 0.28842 0.79518 0.0
C44 C 0.20584 0.27456 0.77515 0.0
C45 C 0.21982 0.27685 0.78306 0.0
U46 U 0.24657 0.30705 0.82727 0.0
O47 O 0.26702 0.32137 0.82531 0.0
O48 O 0.26791 0.30162 0.83865 0.0
C49 C 0.27552 0.31272 0.83298 0.0
C50 C 0.23626 0.28924 0.80408 0.0
C51 C 0.28925 0.30901 0.82589 0.0
C52 C 0.30161 0.2989 0.80447 0.0
C53 C 0.28864 0.30031 0.81226 0.0
C54 C 0.31594 0.3143 0.82424 0.0
C55 C 0.31534 0.30624 0.81019 0.0
C56 C 0.303 0.31566 0.832 0.0
C57 C 0.23211 0.33303 0.85655 0.0
C58 C 0.24811 0.35424 0.86767 0.0
C59 C 0.22689 0.34487 0.88069 0.0
C60 C 0.22327 0.33391 0.86893 0.0
C61 C 0.2394 0.35516 0.8802 0.0
C62 C 0.24461 0.34323 0.85608 0.0
C63 C 0.22865 0.32135 0.84428 0.0
O64 O 0.24084 0.30335 0.8031 0.0
O65 O 0.23896 0.28444 0.81753 0.0
O66 O 0.23296 0.30793 0.847 0.0
O67 O 0.23187 0.32547 0.83095 0.0
H68 H 0.20953 0.29728 0.8137 0.0
H69 H 0.185 0.29337 0.79989 0.0
H70 H 0.20505 0.26833 0.76434 0.0
H71 H 0.22958 0.27253 0.77814 0.0
H72 H 0.3008 0.29245 0.79378 0.0
H73 H 0.27805 0.29513 0.80738 0.0
H74 H 0.32623 0.32028 0.82889 0.0
H75 H 0.30361 0.32251 0.84247 0.0
H76 H 0.25762 0.36212 0.86669 0.0
H77 H 0.22004 0.34513 0.89023 0.0
H78 H 0.21366 0.32606 0.86955 0.0
H79 H 0.25169 0.34272 0.8467 0.0
C80 C 0.76084 0.98568 0.59226 0.0
C81 C 0.77441 0.98953 0.58597 0.0
C82 C 0.78834 0.9824 0.6084 0.0
C83 C 0.78807 0.98793 0.594 0.0
C84 C 0.77466 0.97841 0.61451 0.0
C85 C 0.76105 0.98007 0.60651 0.0
U86 U 0.73607 0.99007 0.5565 0.0
O87 O 0.71369 0.97958 0.54961 0.0
O88 O 0.71689 0.00409 0.55338 0.0
C89 C 0.70725 0.99237 0.55105 0.0
C90 C 0.74634 0.98739 0.58421 0.0
C91 C 0.6944 0.99243 0.56052 0.0
C92 C 0.68181 0.98407 0.58208 0.0
C93 C 0.69389 0.98363 0.57296 0.0
C94 C 0.67071 0.00231 0.56663 0.0
C95 C 0.67013 0.99346 0.57905 0.0
C96 C 0.68274 0.00175 0.55741 0.0
C97 C 0.75018 0.99109 0.51808 0.0
C98 C 0.73162 0.99199 0.4973 0.0
C99 C 0.75796 0.99137 0.49259 0.0
C100 C 0.76155 0.99101 0.50801 0.0
C101 C 0.74292 0.99173 0.48708 0.0
C102 C 0.73522 0.99168 0.51265 0.0
C103 C 0.75369 0.99019 0.53421 0.0
O104 O 0.74471 0.00042 0.57848 0.0
O105 O 0.74114 0.97589 0.57514 0.0
O106 O 0.7483 0.9778 0.53964 0.0
O107 O 0.75139 0.00235 0.54254 0.0
H108 H 0.77443 0.99384 0.57493 0.0
H109 H 0.79839 0.99122 0.58902 0.0
H110 H 0.77445 0.97386 0.62543 0.0
H111 H 0.75066 0.97695 0.61147 0.0
H112 H 0.68177 0.9773 0.59171 0.0
H113 H 0.70289 0.9765 0.57571 0.0
H114 H 0.66182 0.0096 0.56401 0.0
H115 H 0.68299 0.00868 0.54791 0.0
H116 H 0.71997 0.99253 0.49344 0.0
H117 H 0.76689 0.99107 0.48498 0.0
H118 H 0.77315 0.99052 0.51205 0.0
H119 H 0.7263 0.9918 0.5203 0.0
C120 C 0.71633 0.00651 0.26396 0.0
C121 C 0.70364 0.00947 0.25495 0.0
C122 C 0.68776 0.00487 0.27545 0.0
C123 C 0.68951 0.00867 0.26063 0.0
C124 C 0.70054 0.00192 0.2845 0.0
C125 C 0.71476 0.00277 0.27877 0.0
U126 U 0.73689 0.00723 0.22916 0.0
O127 O 0.75798 0.01865 0.22337 0.0
O128 O 0.75497 0.99402 0.22096 0.0
C129 C 0.76427 0.00594 0.22065 0.0
C130 C 0.7309 0.00644 0.25735 0.0
C131 C 0.77947 0.00468 0.22763 0.0
C132 C 0.80138 0.01503 0.24313 0.0
C133 C 0.78662 0.01615 0.23748 0.0
C134 C 0.80193 0.99083 0.22952 0.0
C135 C 0.8092 0.00241 0.23911 0.0
C136 C 0.78724 0.99199 0.22379 0.0
C137 C 0.71374 0.00844 0.19244 0.0
C138 C 0.72546 0.01202 0.16907 0.0
C139 C 0.69974 0.00173 0.16867 0.0
C140 C 0.70047 0.00289 0.18434 0.0
C141 C 0.71227 0.00617 0.16088 0.0
C142 C 0.72622 0.01307 0.18474 0.0
C143 C 0.7147 0.00846 0.20887 0.0
O144 O 0.73265 0.99432 0.24875 0.0
O145 O 0.73505 0.01892 0.25125 0.0
O146 O 0.72154 0.02047 0.21608 0.0
O147 O 0.71873 0.99585 0.21419 0.0
H148 H 0.70463 0.01216 0.2434 0.0
H149 H 0.6799 0.01071 0.25326 0.0
H150 H 0.69955 0.99907 0.29599 0.0
H151 H 0.72446 0.00034 0.28582 0.0
H152 H 0.8067 0.02407 0.25059 0.0
H153 H 0.78092 0.02608 0.24067 0.0
H154 H 0.80776 0.98107 0.22606 0.0
H155 H 0.78202 0.98307 0.21611 0.0
H156 H 0.73534 0.01536 0.16336 0.0
H157 H 0.68939 0.9973 0.16265 0.0
H158 H 0.69077 0.99921 0.19013 0.0
H159 H 0.73664 0.01721 0.19084 0.0
C160 C 0.37835 0.29696 0.63793 0.0
C161 C 0.38637 0.30921 0.63249 0.0
C162 C 0.36743 0.32586 0.64045 0.0
C163 C 0.38096 0.32352 0.63371 0.0
C164 C 0.35948 0.31351 0.64597 0.0
C165 C 0.36491 0.29918 0.64471 0.0
U166 U 0.40866 0.27224 0.62607 0.0
O167 O 0.41823 0.2528 0.63604 0.0
O168 O 0.40748 0.25038 0.61324 0.0
C169 C 0.41364 0.24359 0.62443 0.0
C170 C 0.38393 0.28188 0.6363 0.0
C171 C 0.40581 0.22942 0.62786 0.0
C172 C 0.3855 0.21555 0.63883 0.0
C173 C 0.39277 0.22924 0.63578 0.0
C174 C 0.40422 0.20218 0.62602 0.0
C175 C 0.39113 0.20186 0.63394 0.0
C176 C 0.41148 0.21584 0.62302 0.0
C177 C 0.44317 0.29077 0.61026 0.0
C178 C 0.4621 0.27601 0.59935 0.0
C179 C 0.46512 0.30319 0.60066 0.0
C180 C 0.45155 0.30395 0.60754 0.0
C181 C 0.47048 0.28921 0.59636 0.0
C182 C 0.44856 0.27679 0.60626 0.0
C183 C 0.42864 0.29173 0.61688 0.0
O184 O 0.3849 0.27667 0.62237 0.0
O185 O 0.39585 0.27975 0.64504 0.0
O186 O 0.42835 0.28818 0.63089 0.0
O187 O 0.41703 0.28583 0.60836 0.0
H188 H 0.39677 0.30767 0.62718 0.0
H189 H 0.38725 0.3327 0.62913 0.0
H190 H 0.34913 0.31495 0.65138 0.0
H191 H 0.3586 0.28982 0.649 0.0
H192 H 0.37536 0.21568 0.64483 0.0
H193 H 0.38821 0.23966 0.63954 0.0
H194 H 0.40898 0.19186 0.62229 0.0
H195 H 0.42156 0.21579 0.61692 0.0
H196 H 0.46602 0.26508 0.59634 0.0
H197 H 0.4712 0.31355 0.59837 0.0
H198 H 0.44751 0.31483 0.61054 0.0
H199 H 0.44223 0.2665 0.60835 0.0
C200 C 0.26331 0.72702 0.00609 0.0
C201 C 0.25312 0.71481 0.00785 0.0
C202 C 0.27218 0.69743 0.00239 0.0
C203 C 0.25751 0.70018 0.00606 0.0
C204 C 0.28233 0.7097 0.00042 0.0
C205 C 0.27793 0.72443 0.00232 0.0
U206 U 0.23091 0.75107 0.00782 0.0
O207 O 0.22639 0.77085 0.02222 0.0
O208 O 0.22587 0.77215 0.99779 0.0
C209 C 0.22567 0.77957 0.01092 0.0
C210 C 0.25826 0.74231 0.00763 0.0
C211 C 0.23465 0.79413 0.01292 0.0
C212 C 0.24775 0.81424 0.02917 0.0
C213 C 0.23992 0.80017 0.0273 0.0
C214 C 0.24526 0.81653 0.00234 0.0
C215 C 0.25045 0.8226 0.01671 0.0
C216 C 0.23738 0.8025 0.00047 0.0
C217 C 0.19238 0.72941 0.00367 0.0
C218 C 0.16875 0.74095 0.00619 0.0
C219 C 0.16889 0.71475 0.99748 0.0
C220 C 0.18454 0.7158 0.99876 0.0
C221 C 0.16081 0.72732 0.00112 0.0
C222 C 0.18444 0.742 0.0074 0.0
C223 C 0.20882 0.73021 0.00456 0.0
O224 O 0.25093 0.74656 0.99561 0.0
O225 O 0.25167 0.74548 0.02006 0.0
O226 O 0.21548 0.73489 0.01765 0.0
O227 O 0.21509 0.7361 0.99321 0.0
H228 H 0.24171 0.71661 0.01052 0.0
H229 H 0.24933 0.69099 0.00735 0.0
H230 H 0.29372 0.70793 0.99766 0.0
H231 H 0.28589 0.73375 0.00081 0.0
H232 H 0.25169 0.81858 0.04037 0.0
H233 H 0.23788 0.79411 0.03716 0.0
H234 H 0.24694 0.82281 0.99255 0.0
H235 H 0.23327 0.7983 0.98927 0.0
H236 H 0.16283 0.75085 0.00895 0.0
H237 H 0.16311 0.70405 0.99376 0.0
H238 H 0.19052 0.70598 0.99585 0.0
H239 H 0.19038 0.75262 0.01115 0.0
C240 C 0.78489 0.22877 0.28821 0.0
C241 C 0.79284 0.2165 0.29242 0.0
C242 C 0.77122 0.19944 0.28428 0.0
C243 C 0.78607 0.20195 0.29045 0.0
C244 C 0.76345 0.21179 0.27977 0.0
C245 C 0.77024 0.22633 0.28174 0.0
U246 U 0.81657 0.25604 0.30493 0.0
O247 O 0.8256 0.27754 0.29733 0.0
O248 O 0.81576 0.27682 0.31915 0.0
C249 C 0.82131 0.28529 0.30909 0.0
C250 C 0.79144 0.24416 0.29135 0.0
C251 C 0.81285 0.29841 0.30601 0.0
C252 C 0.79024 0.30932 0.29658 0.0
C253 C 0.79869 0.29681 0.29825 0.0
C254 C 0.81018 0.32514 0.31014 0.0
C255 C 0.79581 0.32362 0.30269 0.0
C256 C 0.81861 0.31265 0.31177 0.0
C257 C 0.85101 0.24259 0.32486 0.0
C258 C 0.87084 0.26096 0.33467 0.0
C259 C 0.86857 0.2366 0.34505 0.0
C260 C 0.85627 0.23241 0.33492 0.0
C261 C 0.87576 0.25107 0.34528 0.0
C262 C 0.85852 0.2568 0.32462 0.0
C263 C 0.83678 0.239 0.3159 0.0
O264 O 0.79279 0.24871 0.30564 0.0
O265 O 0.80339 0.24775 0.28417 0.0
O266 O 0.8364 0.24303 0.302 0.0
O267 O 0.82486 0.24241 0.32289 0.0
H268 H 0.80415 0.21823 0.29755 0.0
H269 H 0.79229 0.19272 0.2942 0.0
H270 H 0.75207 0.21022 0.27481 0.0
H271 H 0.76396 0.2357 0.27844 0.0
H272 H 0.77929 0.30777 0.29065 0.0
H273 H 0.79407 0.28585 0.29377 0.0
H274 H 0.81473 0.3359 0.31521 0.0
H275 H 0.82948 0.31404 0.31789 0.0
H276 H 0.87625 0.2721 0.3344 0.0
H277 H 0.87195 0.22877 0.35317 0.0
H278 H 0.8505 0.22145 0.33536 0.0
H279 H 0.85455 0.26487 0.31701 0.0
C280 C 0.59266 0.75997 0.988 0.0
C281 C 0.58595 0.77339 0.99154 0.0
C282 C 0.60828 0.78782 0.98489 0.0
C283 C 0.59372 0.78722 0.99003 0.0
C284 C 0.61481 0.77429 0.98117 0.0
C285 C 0.60707 0.7605 0.98274 0.0
U286 U 0.55721 0.73423 0.99077 0.0
O287 O 0.55186 0.71135 0.98064 0.0
O288 O 0.55349 0.71546 0.00512 0.0
C289 C 0.55239 0.70539 0.9937 0.0
C290 C 0.58491 0.74529 0.98967 0.0
C291 C 0.56251 0.69319 0.99495 0.0
C292 C 0.58773 0.68485 0.99785 0.0
C293 C 0.57804 0.69645 0.99712 0.0
C294 C 0.56646 0.66658 0.99426 0.0
C295 C 0.58207 0.66976 0.99633 0.0
C296 C 0.55676 0.67822 0.99357 0.0
C297 C 0.51825 0.74766 0.98874 0.0
C298 C 0.49725 0.72918 0.98891 0.0
C299 C 0.49283 0.75563 0.98864 0.0
C300 C 0.50828 0.75912 0.98862 0.0
C301 C 0.48715 0.74061 0.98874 0.0
C302 C 0.51266 0.73268 0.98893 0.0
C303 C 0.53446 0.75122 0.98869 0.0
O304 O 0.57835 0.74379 0.00229 0.0
O305 O 0.57672 0.7395 0.97779 0.0
O306 O 0.54073 0.74545 0.97694 0.0
O307 O 0.54208 0.74951 0.00143 0.0
H308 H 0.57478 0.77317 0.99556 0.0
H309 H 0.58842 0.79742 0.99311 0.0
H310 H 0.62587 0.77432 0.97691 0.0
H311 H 0.61236 0.75023 0.97985 0.0
H312 H 0.59966 0.6877 -0.00032 0.0
H313 H 0.58266 0.70798 0.99818 0.0
H314 H 0.56175 0.65509 0.99286 0.0
H315 H 0.54479 0.67554 0.9918 0.0
H316 H 0.49327 0.71753 0.98924 0.0
H317 H 0.48533 0.76467 0.98839 0.0
H318 H 0.51245 0.77074 0.98846 0.0
H319 H 0.52024 0.7237 0.98911 0.0
C320 C 0.64113 0.38611 0.29273 0.0
C321 C 0.63764 0.39441 0.3057 0.0
C322 C 0.64013 0.37248 0.32021 0.0
C323 C 0.63718 0.38767 0.31933 0.0
C324 C 0.64402 0.36431 0.30722 0.0
C325 C 0.64448 0.37108 0.29357 0.0
U326 U 0.63 0.41813 0.27008 0.0
O327 O 0.64043 0.42901 0.25157 0.0
O328 O 0.61766 0.41828 0.24812 0.0
C329 C 0.62916 0.42457 0.24188 0.0
C330 C 0.64021 0.39282 0.27819 0.0
C331 C 0.63317 0.41658 0.22803 0.0
C332 C 0.64243 0.39466 0.21519 0.0
C333 C 0.63941 0.4026 0.22848 0.0
C334 C 0.63317 0.4147 0.20089 0.0
C335 C 0.63923 0.40056 0.20122 0.0
C336 C 0.63016 0.42263 0.2142 0.0
C337 C 0.61254 0.45061 0.291 0.0
C338 C 0.60434 0.47249 0.27886 0.0
C339 C 0.59818 0.46859 0.30438 0.0
C340 C 0.60575 0.4554 0.30397 0.0
C341 C 0.59728 0.47723 0.29179 0.0
C342 C 0.61187 0.45924 0.27845 0.0
C343 C 0.6197 0.43629 0.2906 0.0
O344 O 0.62646 0.39391 0.27254 0.0
O345 O 0.6489 0.40509 0.27731 0.0
O346 O 0.63382 0.43685 0.2873 0.0
O347 O 0.61161 0.42493 0.28361 0.0
H348 H 0.63498 0.40604 0.30522 0.0
H349 H 0.63436 0.39432 0.32916 0.0
H350 H 0.64619 0.35255 0.3075 0.0
H351 H 0.64708 0.3645 0.28361 0.0
H352 H 0.64726 0.3839 0.21585 0.0
H353 H 0.64178 0.39778 0.23912 0.0
H354 H 0.63039 0.41947 0.19032 0.0
H355 H 0.62525 0.43337 0.21367 0.0
H356 H 0.60371 0.47882 0.26893 0.0
H357 H 0.59302 0.47203 0.31456 0.0
H358 H 0.60617 0.44883 0.31375 0.0
H359 H 0.61698 0.45561 0.26829 0.0
C360 C 0.0132 0.25507 0.71161 0.0
C361 C 0.01365 0.24447 0.69945 0.0
C362 C 0.01032 0.26392 0.68205 0.0
C363 C 0.01218 0.24885 0.68479 0.0
C364 C 0.01024 0.2746 0.69423 0.0
C365 C 0.01164 0.27019 0.70896 0.0
U366 U 0.01369 0.22263 0.73568 0.0
O367 O 0.02467 0.21898 0.75771 0.0
O368 O 0.00014 0.21623 0.75415 0.0
C369 C 0.01181 0.21677 0.76387 0.0
C370 C 0.01327 0.24997 0.72687 0.0
C371 C 0.01014 0.22479 0.77857 0.0
C372 C 0.0211 0.2376 0.80184 0.0
C373 C 0.02268 0.23142 0.78733 0.0
C374 C 0.99441 0.23093 0.79901 0.0
C375 C 0.00697 0.23725 0.80789 0.0
C376 C 0.99599 0.22471 0.78455 0.0
C377 C 0.01466 0.18409 0.71562 0.0
C378 C 0.01626 0.16164 0.72939 0.0
C379 C 0.01013 0.15952 0.70256 0.0
C380 C 0.01117 0.17515 0.70234 0.0
C381 C 0.01259 0.15257 0.7161 0.0
C382 C 0.01724 0.17728 0.72916 0.0
C383 C 0.01491 0.20046 0.71531 0.0
O384 O 0.00108 0.24188 0.72954 0.0
O385 O 0.02567 0.24409 0.73158 0.0
O386 O 0.02691 0.20793 0.72185 0.0
O387 O 0.00235 0.20631 0.71869 0.0
H388 H 0.01477 0.23273 0.70132 0.0
H389 H 0.01229 0.24043 0.67556 0.0
H390 H 0.0085 0.28622 0.69235 0.0
H391 H 0.01115 0.27848 0.71824 0.0
H392 H 0.03097 0.2425 0.80838 0.0
H393 H 0.03377 0.23154 0.78314 0.0
H394 H 0.98341 0.23026 0.80343 0.0
H395 H 0.98614 0.21947 0.77821 0.0
H396 H 0.01839 0.15667 0.73998 0.0
H397 H 0.00703 0.1529 0.69217 0.0
H398 H 0.00902 0.18026 0.69182 0.0
H399 H 0.01987 0.18406 0.73955 0.0
C400 C 0.29037 0.78275 0.22946 0.0
C401 C 0.28461 0.79122 0.21799 0.0
C402 C 0.28567 0.76997 0.19974 0.0
C403 C 0.2822 0.78486 0.20329 0.0
C404 C 0.29128 0.76152 0.21134 0.0
C405 C 0.29353 0.76783 0.22603 0.0
U406 U 0.3083 0.81407 0.25678 0.0
O407 O 0.30123 0.82344 0.27837 0.0
O408 O 0.3226 0.81276 0.27741 0.0
C409 C 0.31287 0.81874 0.28599 0.0
C410 C 0.29389 0.78937 0.24487 0.0
C411 C 0.30963 0.81047 0.29919 0.0
C412 C 0.29937 0.78832 0.31036 0.0
C413 C 0.30122 0.79664 0.29778 0.0
C414 C 0.31407 0.80776 0.32585 0.0
C415 C 0.30596 0.7937 0.32452 0.0
C416 C 0.31587 0.81605 0.31329 0.0
C417 C 0.32931 0.84775 0.24281 0.0
C418 C 0.34137 0.86671 0.26093 0.0
C419 C 0.34833 0.86573 0.23516 0.0
C420 C 0.33787 0.85355 0.23166 0.0
C421 C 0.3504 0.87227 0.24991 0.0
C422 C 0.33097 0.85452 0.25742 0.0
C423 C 0.3198 0.83383 0.23954 0.0
O424 O 0.30818 0.79017 0.24936 0.0
O425 O 0.2871 0.80151 0.24881 0.0
O426 O 0.30603 0.83406 0.24385 0.0
O427 O 0.32636 0.82164 0.24295 0.0
H428 H 0.28213 0.80281 0.2203 0.0
H429 H 0.27767 0.79165 0.19472 0.0
H430 H 0.29436 0.75012 0.20904 0.0
H431 H 0.29808 0.76113 0.23469 0.0
H432 H 0.29292 0.77762 0.30896 0.0
H433 H 0.29635 0.79215 0.28692 0.0
H434 H 0.31952 0.81215 0.33649 0.0
H435 H 0.3225 0.82666 0.31454 0.0
H436 H 0.34253 0.87162 0.27234 0.0
H437 H 0.3552 0.86961 0.22646 0.0
H438 H 0.33683 0.84834 0.22036 0.0
H439 H 0.32452 0.85012 0.26621 0.0
C440 C 0.9869 0.59517 0.7634 0.0
C441 C 0.98052 0.58699 0.77456 0.0
C442 C 0.98202 0.60955 0.79141 0.0
C443 C 0.97805 0.59413 0.78843 0.0
C444 C 0.98857 0.61762 0.7802 0.0
C445 C 0.99096 0.61048 0.76631 0.0
U446 U 0.99112 0.56002 0.7383 0.0
O447 O 0.98239 0.55396 0.71508 0.0
O448 O 0.00668 0.55582 0.7207 0.0
C449 C 0.99585 0.55397 0.71002 0.0
C450 C 0.98945 0.58785 0.74875 0.0
C451 C 0.99796 0.5627 0.6969 0.0
C452 C 0.00301 0.58644 0.68584 0.0
C453 C 0.00128 0.57827 0.69851 0.0
C454 C 0.99802 0.56354 0.66989 0.0
C455 C 0.00134 0.57915 0.67139 0.0
C456 C 0.99637 0.55539 0.68256 0.0
C457 C 0.98876 0.52142 0.7518 0.0
C458 C 0.99251 0.50117 0.7334 0.0
C459 C 0.98784 0.49565 0.75895 0.0
C460 C 0.98687 0.51099 0.76269 0.0
C461 C 0.9908 0.49062 0.74427 0.0
C462 C 0.9915 0.51641 0.73713 0.0
C463 C 0.98809 0.53755 0.75552 0.0
O464 O 0.00219 0.58137 0.74803 0.0
O465 O 0.97793 0.57962 0.74218 0.0
O466 O 0.97662 0.54361 0.74896 0.0
O467 O 0.00086 0.54545 0.7547 0.0
H468 H 0.97737 0.57511 0.77249 0.0
H469 H 0.97283 0.58761 0.79673 0.0
H470 H 0.99201 0.62943 0.78221 0.0
H471 H 0.996 0.61691 0.75784 0.0
H472 H 0.00538 0.59848 0.68732 0.0
H473 H 0.00243 0.5841 0.70953 0.0
H474 H 0.99683 0.5576 0.65892 0.0
H475 H 0.9938 0.54336 0.68116 0.0
H476 H 0.99454 0.49763 0.72195 0.0
H477 H 0.98656 0.48778 0.76757 0.0
H478 H 0.98475 0.51471 0.77407 0.0
H479 H 0.99292 0.52434 0.72857 0.0
C480 C 0.71032 0.37366 0.62727 0.0
C481 C 0.69946 0.38256 0.62113 0.0
C482 C 0.6819 0.37422 0.63903 0.0
C483 C 0.6854 0.38286 0.62697 0.0
C484 C 0.69282 0.36526 0.64514 0.0
C485 C 0.70696 0.36502 0.6393 0.0
U486 U 0.73427 0.38332 0.59591 0.0
O487 O 0.75753 0.3926 0.59571 0.0
O488 O 0.75079 0.37066 0.58408 0.0
C489 C 0.76193 0.38043 0.58875 0.0
C490 C 0.72495 0.3732 0.62079 0.0
C491 C 0.77498 0.3741 0.5961 0.0
C492 C 0.78714 0.36403 0.61794 0.0
C493 C 0.77447 0.36945 0.61075 0.0
C494 C 0.80084 0.36755 0.59575 0.0
C495 C 0.8005 0.36311 0.61055 0.0
C496 C 0.78817 0.37303 0.58861 0.0
C497 C 0.71545 0.404 0.56435 0.0
C498 C 0.72674 0.40895 0.54103 0.0
C499 C 0.70377 0.42028 0.54705 0.0
C500 C 0.70394 0.41324 0.56055 0.0
C501 C 0.71512 0.41817 0.53709 0.0
C502 C 0.72691 0.40194 0.55458 0.0
C503 C 0.71529 0.3967 0.57858 0.0
O504 O 0.72495 0.36476 0.60825 0.0
O505 O 0.73221 0.38636 0.62023 0.0
O506 O 0.72348 0.40374 0.58984 0.0
O507 O 0.71656 0.38211 0.57767 0.0
H508 H 0.70183 0.38918 0.61172 0.0
H509 H 0.67715 0.38966 0.62184 0.0
H510 H 0.69046 0.35854 0.65448 0.0
H511 H 0.71523 0.35805 0.64413 0.0
H512 H 0.78647 0.36053 0.62926 0.0
H513 H 0.76431 0.37017 0.61667 0.0
H514 H 0.81101 0.36715 0.58983 0.0
H515 H 0.78874 0.37661 0.5773 0.0
H516 H 0.73556 0.40696 0.53355 0.0
H517 H 0.69481 0.42751 0.54451 0.0
H518 H 0.69506 0.41502 0.56803 0.0
H519 H 0.73592 0.39485 0.5574 0.0
C520 C 0.77419 0.70891 0.20239 0.0
C521 C 0.78501 0.71527 0.19353 0.0
C522 C 0.80418 0.71463 0.21398 0.0
C523 C 0.79984 0.71818 0.1993 0.0
C524 C 0.79324 0.70841 0.22283 0.0
C525 C 0.7784 0.70565 0.21711 0.0
U526 U 0.74583 0.69066 0.17211 0.0
O527 O 0.72571 0.6759 0.17423 0.0
O528 O 0.72362 0.69758 0.16431 0.0
C529 C 0.71661 0.68585 0.16952 0.0
C530 C 0.75865 0.70501 0.19642 0.0
C531 C 0.70472 0.68912 0.17956 0.0
C532 C 0.69676 0.69406 0.20473 0.0
C533 C 0.70821 0.69262 0.19492 0.0
C534 C 0.67825 0.68937 0.18376 0.0
C535 C 0.68167 0.69215 0.19928 0.0
C536 C 0.68971 0.68781 0.17398 0.0
C537 C 0.75882 0.67029 0.13739 0.0
C538 C 0.7407 0.65654 0.11951 0.0
C539 C 0.76723 0.65318 0.11804 0.0
C540 C 0.77045 0.66353 0.13034 0.0
C541 C 0.7523 0.6494 0.11261 0.0
C542 C 0.74393 0.66687 0.13183 0.0
C543 C 0.76223 0.67979 0.15127 0.0
O544 O 0.75395 0.71186 0.18458 0.0
O545 O 0.75458 0.6906 0.19559 0.0
O546 O 0.75962 0.67301 0.16354 0.0
O547 O 0.75741 0.69339 0.15135 0.0
H548 H 0.78207 0.71785 0.1821 0.0
H549 H 0.8079 0.72318 0.19224 0.0
H550 H 0.79619 0.70528 0.23408 0.0
H551 H 0.77025 0.70067 0.2241 0.0
H552 H 0.6997 0.69632 0.2166 0.0
H553 H 0.71978 0.69376 0.19939 0.0
H554 H 0.66671 0.68769 0.17927 0.0
H555 H 0.68685 0.68511 0.16215 0.0
H556 H 0.7291 0.65403 0.1155 0.0
H557 H 0.77642 0.64774 0.11316 0.0
H558 H 0.78199 0.66593 0.13461 0.0
H559 H 0.73481 0.67193 0.13724 0.0
C560 C 0.24209 0.00152 0.40994 0.0
C561 C 0.23144 0.00593 0.41988 0.0
C562 C 0.21243 0.00509 0.39917 0.0
C563 C 0.21674 0.00775 0.41453 0.0
C564 C 0.22313 0.00041 0.38931 0.0
C565 C 0.23787 0.99867 0.39467 0.0
U566 U 0.27127 0.99927 0.44206 0.0
O567 O 0.29116 0.98607 0.44376 0.0
O568 O 0.29372 0.01069 0.446 0.0
C569 C 0.30043 0.99812 0.44414 0.0
C570 C 0.25767 0.00018 0.41539 0.0
C571 C 0.31108 0.99824 0.43236 0.0
C572 C 0.31553 0.997 0.40586 0.0
C573 C 0.30583 0.99525 0.41732 0.0
C574 C 0.33595 0.00456 0.42436 0.0
C575 C 0.33064 0.0019 0.40924 0.0
C576 C 0.32621 0.00275 0.43585 0.0
C577 C 0.25982 0.00053 0.48211 0.0
C578 C 0.27828 0.99841 0.50275 0.0
C579 C 0.25287 0.00411 0.50777 0.0
C580 C 0.24905 0.00361 0.49237 0.0
C581 C 0.26752 0.00152 0.51312 0.0
C582 C 0.27446 0.99796 0.48735 0.0
C583 C 0.25582 0.00037 0.46599 0.0
O584 O 0.26399 0.01212 0.42314 0.0
O585 O 0.26037 0.98756 0.42152 0.0
O586 O 0.25794 0.98777 0.45826 0.0
O587 O 0.26064 0.0124 0.45954 0.0
H588 H 0.23456 0.00817 0.43173 0.0
H589 H 0.20885 0.01156 0.4224 0.0
H590 H 0.22011 0.99804 0.37746 0.0
H591 H 0.24598 0.99518 0.38688 0.0
H592 H 0.31105 0.99508 0.39434 0.0
H593 H 0.2941 0.99199 0.41441 0.0
H594 H 0.34757 0.00821 0.4273 0.0
H595 H 0.3304 0.00523 0.4474 0.0
H596 H 0.2897 0.99655 0.50652 0.0
H597 H 0.24431 0.00637 0.51549 0.0
H598 H 0.23771 0.00564 0.48846 0.0
H599 H 0.28294 0.99569 0.47953 0.0
C600 C 0.28188 0.01353 0.72277 0.0
C601 C 0.29211 0.0048 0.73022 0.0
C602 C 0.31166 0.01301 0.71432 0.0
C603 C 0.30681 0.00451 0.72601 0.0
C604 C 0.30139 0.02176 0.70685 0.0
C605 C 0.28658 0.02195 0.71102 0.0
U606 U 0.25834 0.01427 0.75566 0.0
O607 O 0.24021 0.02831 0.76226 0.0
O608 O 0.23626 0.00377 0.75966 0.0
C609 C 0.23035 0.01676 0.76191 0.0
C610 C 0.26685 0.01488 0.72827 0.0
C611 C 0.21619 0.01834 0.75323 0.0
C612 C 0.20147 0.01744 0.72945 0.0
C613 C 0.21522 0.01647 0.73752 0.0
C614 C 0.18968 0.02247 0.75275 0.0
C615 C 0.18853 0.02038 0.737 0.0
C616 C 0.2034 0.02145 0.76078 0.0
C617 C 0.27929 0.01042 0.79352 0.0
C618 C 0.26672 0.00705 0.81646 0.0
C619 C 0.29366 0.01231 0.81747 0.0
C620 C 0.29303 0.01279 0.8019 0.0
C621 C 0.28052 0.0094 0.82495 0.0
C622 C 0.2661 0.00759 0.80085 0.0
C623 C 0.27891 0.01119 0.7772 0.0
O624 O 0.26087 0.0027 0.73367 0.0
O625 O 0.26544 0.02712 0.73683 0.0
O626 O 0.27581 0.02426 0.77227 0.0
O627 O 0.27177 0.99976 0.7693 0.0
H628 H 0.28885 0.99846 0.73956 0.0
H629 H 0.31449 0.99791 0.7322 0.0
H630 H 0.30481 0.02843 0.69781 0.0
H631 H 0.27889 0.0289 0.70528 0.0
H632 H 0.20096 0.01591 0.71733 0.0
H633 H 0.22505 0.01411 0.73153 0.0
H634 H 0.17989 0.02452 0.7589 0.0
H635 H 0.20399 0.02288 0.77291 0.0
H636 H 0.25642 0.00463 0.82185 0.0
H637 H 0.30443 0.01445 0.82367 0.0
H638 H 0.30329 0.01511 0.79639 0.0
H639 H 0.25537 0.00579 0.79452 0.0
C640 C 0.63156 0.69855 0.36718 0.0
C641 C 0.6241 0.6868 0.37401 0.0
C642 C 0.64204 0.66945 0.36514 0.0
C643 C 0.62929 0.67238 0.373 0.0
C644 C 0.64945 0.68129 0.35829 0.0
C645 C 0.64424 0.69574 0.35932 0.0
U646 U 0.60277 0.72442 0.38055 0.0
O647 O 0.60484 0.74755 0.39058 0.0
O648 O 0.59129 0.74221 0.36941 0.0
C649 C 0.59713 0.75277 0.37929 0.0
C650 C 0.62599 0.71366 0.36817 0.0
C651 C 0.60381 0.76632 0.37311 0.0
C652 C 0.62543 0.78193 0.3668 0.0
C653 C 0.61936 0.76859 0.37206 0.0
C654 C 0.60045 0.79065 0.36321 0.0
C655 C 0.61604 0.79314 0.3624 0.0
C656 C 0.59442 0.77738 0.36854 0.0
C657 C 0.57122 0.7078 0.40247 0.0
C658 C 0.54902 0.7209 0.40789 0.0
C659 C 0.55411 0.69814 0.42011 0.0
C660 C 0.56717 0.69703 0.41245 0.0
C661 C 0.54484 0.71005 0.41786 0.0
C662 C 0.56214 0.71982 0.4003 0.0
C663 C 0.58492 0.70633 0.39442 0.0
O664 O 0.61307 0.71492 0.36072 0.0
O665 O 0.62677 0.72027 0.38175 0.0
O666 O 0.5971 0.71343 0.40099 0.0
O667 O 0.58349 0.70792 0.37991 0.0
H668 H 0.61422 0.68877 0.38006 0.0
H669 H 0.62319 0.66348 0.37821 0.0
H670 H 0.65938 0.67945 0.35229 0.0
H671 H 0.65012 0.7047 0.354 0.0
H672 H 0.63746 0.78346 0.36615 0.0
H673 H 0.62681 0.76014 0.37543 0.0
H674 H 0.59293 0.79912 0.36008 0.0
H675 H 0.5824 0.77583 0.36929 0.0
H676 H 0.5422 0.73029 0.40606 0.0
H677 H 0.55112 0.68954 0.42759 0.0
H678 H 0.57408 0.68769 0.41425 0.0
H679 H 0.56517 0.72832 0.39272 0.0
C680 C 0.72778 0.28581 0.00336 0.0
C681 C 0.73336 0.29648 0.99389 0.0
C682 C 0.71811 0.31525 0.00498 0.0
C683 C 0.72854 0.311 0.99466 0.0
C684 C 0.71253 0.30457 0.01448 0.0
C685 C 0.71729 0.28993 0.01362 0.0
U686 U 0.76091 0.26229 0.00073 0.0
O687 O 0.76769 0.24267 0.01244 0.0
O688 O 0.76414 0.24113 0.98787 0.0
C689 C 0.76661 0.23389 2e-05 0.0
C690 C 0.73367 0.27079 0.00321 0.0
C691 C 0.75764 0.21963 0.00043 0.0
C692 C 0.73582 0.20508 0.00785 0.0
C693 C 0.74431 0.21875 0.0079 0.0
C694 C 0.75378 0.19315 0.99265 0.0
C695 C 0.74044 0.19217 0.00015 0.0
C696 C 0.76231 0.20676 0.99283 0.0
C697 C 0.79883 0.28351 0.99722 0.0
C698 C 0.82141 0.27159 0.99069 0.0
C699 C 0.82295 0.29763 0.0002 0.0
C700 C 0.80745 0.29688 0.00137 0.0
C701 C 0.83013 0.28502 0.9948 0.0
C702 C 0.80588 0.27083 0.99193 0.0
C703 C 0.78258 0.28304 0.9987 0.0
O704 O 0.73864 0.26588 0.9904 0.0
O705 O 0.74267 0.26846 0.01488 0.0
O706 O 0.77813 0.27874 0.01156 0.0
O707 O 0.77417 0.27702 0.98705 0.0
H708 H 0.74168 0.29371 0.98606 0.0
H709 H 0.73331 0.31904 0.98741 0.0
H710 H 0.70448 0.30753 0.02253 0.0
H711 H 0.71295 0.28189 0.0211 0.0
H712 H 0.72553 0.20465 0.01361 0.0
H713 H 0.74043 0.22863 0.0137 0.0
H714 H 0.7577 0.18334 0.98679 0.0
H715 H 0.77254 0.20726 0.98697 0.0
H716 H 0.82655 0.2617 0.98637 0.0
H717 H 0.82932 0.30807 0.00376 0.0
H718 H 0.80219 0.30674 0.00559 0.0
H719 H 0.79938 0.26038 0.98874 0.0
C720 C 0.21098 0.7683 0.70432 0.0
C721 C 0.20342 0.78017 0.69854 0.0
C722 C 0.2238 0.79796 0.70857 0.0
C723 C 0.20977 0.79488 0.70065 0.0
C724 C 0.23118 0.78602 0.71458 0.0
C725 C 0.22482 0.7713 0.71245 0.0
U726 U 0.18098 0.74051 0.68563 0.0
O727 O 0.18288 0.71903 0.67284 0.0
O728 O 0.17051 0.71967 0.69327 0.0
C729 C 0.17607 0.71123 0.6827 0.0
C730 C 0.20482 0.75276 0.7013 0.0
C731 C 0.18408 0.69844 0.68774 0.0
C732 C 0.20477 0.68837 0.70188 0.0
C733 C 0.19661 0.70058 0.69804 0.0
C734 C 0.18781 0.6718 0.68532 0.0
C735 C 0.20057 0.67385 0.69543 0.0
C736 C 0.17966 0.68399 0.68153 0.0
C737 C 0.1489 0.75513 0.662 0.0
C738 C 0.13077 0.73819 0.64709 0.0
C739 C 0.12919 0.7651 0.64649 0.0
C740 C 0.14173 0.7674 0.65665 0.0
C741 C 0.12362 0.75047 0.64149 0.0
C742 C 0.14331 0.7405 0.65726 0.0
C743 C 0.16252 0.75774 0.67204 0.0
O744 O 0.19207 0.74943 0.70725 0.0
O745 O 0.20498 0.7476 0.68725 0.0
O746 O 0.17481 0.75337 0.66632 0.0
O747 O 0.16124 0.754 0.6859 0.0
H748 H 0.19275 0.778 0.69214 0.0
H749 H 0.20388 0.80377 0.69571 0.0
H750 H 0.24191 0.78803 0.72088 0.0
H751 H 0.23079 0.76225 0.71699 0.0
H752 H 0.21443 0.69033 0.70981 0.0
H753 H 0.2002 0.71171 0.7029 0.0
H754 H 0.1844 0.66085 0.67991 0.0
H755 H 0.17009 0.68218 0.67346 0.0
H756 H 0.12666 0.72678 0.64361 0.0
H757 H 0.12409 0.7748 0.64227 0.0
H758 H 0.14597 0.77876 0.66016 0.0
H759 H 0.14874 0.7309 0.66132 0.0
C760 C 0.40576 0.22302 0.01025 0.0
C761 C 0.4158 0.21236 0.01446 0.0
C762 C 0.39532 0.19296 0.01286 0.0
C763 C 0.41062 0.19747 0.0158 0.0
C764 C 0.38538 0.20369 0.0084 0.0
C765 C 0.39056 0.21859 0.00714 0.0
U766 U 0.43691 0.25341 0.00691 0.0
O767 O 0.43699 0.27381 0.99441 0.0
O768 O 0.44087 0.27562 0.01894 0.0
C769 C 0.4384 0.28274 0.00672 0.0
C770 C 0.41094 0.23881 0.00929 0.0
C771 C 0.42742 0.29421 0.00793 0.0
C772 C 0.40175 0.30158 0.0058 0.0
C773 C 0.41214 0.29067 0.00397 0.0
C774 C 0.42182 0.3196 0.01569 0.0
C775 C 0.40648 0.31613 0.01179 0.0
C776 C 0.43219 0.30873 0.01375 0.0
C777 C 0.47734 0.24396 0.00432 0.0
C778 C 0.49649 0.26232 0.99757 0.0
C779 C 0.50368 0.23999 0.00947 0.0
C780 C 0.48856 0.2352 0.00995 0.0
C781 C 0.5078 0.2536 0.00327 0.0
C782 C 0.48138 0.25759 0.99817 0.0
C783 C 0.46148 0.23908 0.00539 0.0
O784 O 0.41943 0.24481 0.02089 0.0
O785 O 0.41593 0.24225 0.99635 0.0
O786 O 0.45251 0.24106 0.99358 0.0
O787 O 0.45587 0.24309 0.01814 0.0
H788 H 0.42761 0.2156 0.01687 0.0
H789 H 0.41857 0.18957 0.01942 0.0
H790 H 0.37359 0.20056 0.0058 0.0
H791 H 0.38269 0.22667 0.00379 0.0
H792 H 0.39 0.29857 0.00282 0.0
H793 H 0.40822 0.27944 -0.00037 0.0
H794 H 0.4258 0.33076 0.02016 0.0
H795 H 0.44394 0.31161 0.01692 0.0
H796 H 0.49933 0.27293 0.99289 0.0
H797 H 0.51215 0.23298 0.01382 0.0
H798 H 0.48563 0.2247 0.0148 0.0
H799 H 0.47286 0.26461 0.99394 0.0
C800 C 0.368 0.62819 0.69958 0.0
C801 C 0.37388 0.62036 0.68745 0.0
C802 C 0.36601 0.63929 0.67074 0.0
C803 C 0.37291 0.62586 0.67318 0.0
C804 C 0.36015 0.64711 0.68297 0.0
C805 C 0.36114 0.64158 0.69727 0.0
U806 U 0.37844 0.5971 0.72393 0.0
O807 O 0.38997 0.59736 0.74632 0.0
O808 O 0.36714 0.58683 0.7423 0.0
C809 C 0.37831 0.59094 0.75221 0.0
C810 C 0.36894 0.62226 0.71453 0.0
C811 C 0.37422 0.59803 0.7665 0.0
C812 C 0.36887 0.61999 0.78216 0.0
C813 C 0.37198 0.61343 0.76817 0.0
C814 C 0.3699 0.59577 0.79277 0.0
C815 C 0.36797 0.61125 0.79467 0.0
C816 C 0.37301 0.58925 0.77883 0.0
C817 C 0.39476 0.56292 0.7047 0.0
C818 C 0.39692 0.53877 0.71542 0.0
C819 C 0.41054 0.54465 0.69374 0.0
C820 C 0.4046 0.55873 0.69387 0.0
C821 C 0.40668 0.53443 0.70443 0.0
C822 C 0.39104 0.55292 0.71558 0.0
C823 C 0.38852 0.57773 0.7044 0.0
O824 O 0.35996 0.61034 0.71602 0.0
O825 O 0.38264 0.62106 0.72031 0.0
O826 O 0.39697 0.58891 0.71128 0.0
O827 O 0.37427 0.57815 0.70706 0.0
H828 H 0.37923 0.60998 0.68905 0.0
H829 H 0.37775 0.61967 0.6641 0.0
H830 H 0.35461 0.65739 0.68145 0.0
H831 H 0.35649 0.64773 0.70651 0.0
H832 H 0.36754 0.63195 0.78326 0.0
H833 H 0.37288 0.62038 0.75873 0.0
H834 H 0.369 0.58866 0.80209 0.0
H835 H 0.37463 0.57734 0.77771 0.0
H836 H 0.3936 0.53115 0.72374 0.0
H837 H 0.41825 0.54183 0.68531 0.0
H838 H 0.40768 0.56636 0.68546 0.0
H839 H 0.38351 0.55599 0.72411 0.0
C840 C 0.01491 0.73761 0.28978 0.0
C841 C 0.01776 0.74939 0.30086 0.0
C842 C 0.01173 0.73254 0.32022 0.0
C843 C 0.01631 0.74687 0.31589 0.0
C844 C 0.0094 0.72059 0.30915 0.0
C845 C 0.01096 0.72313 0.294 0.0
U846 U 0.01185 0.76677 0.26227 0.0
O847 O 0.02461 0.77235 0.24291 0.0
O848 O 0.00022 0.76734 0.24002 0.0
C849 C 0.01274 0.77012 0.23346 0.0
C850 C 0.01493 0.74094 0.27392 0.0
C851 C 0.0147 0.76074 0.21979 0.0
C852 C 0.01353 0.7365 0.20579 0.0
C853 C 0.01218 0.74506 0.21921 0.0
C854 C 0.02029 0.75921 0.19363 0.0
C855 C 0.01753 0.74351 0.19284 0.0
C856 C 0.01888 0.76772 0.20699 0.0
C857 C 0.0058 0.80609 0.27929 0.0
C858 C 0.01057 0.82939 0.26728 0.0
C859 C 0.99653 0.82922 0.28958 0.0
C860 C 0.99796 0.8138 0.29008 0.0
C861 C 0.00298 0.83722 0.27829 0.0
C862 C 0.0119 0.81392 0.26774 0.0
C863 C 0.0078 0.79003 0.28054 0.0
O864 O 0.00201 0.74491 0.26818 0.0
O865 O 0.02639 0.74976 0.27058 0.0
O866 O 0.02111 0.78557 0.27769 0.0
O867 O 0.99672 0.78083 0.27457 0.0
H868 H 0.02078 0.76068 0.29784 0.0
H869 H 0.01857 0.75625 0.32413 0.0
H870 H 0.00583 0.70945 0.31213 0.0
H871 H 0.00867 0.71392 0.28557 0.0
H872 H 0.01142 0.72443 0.20553 0.0
H873 H 0.00901 0.73949 0.22906 0.0
H874 H 0.02312 0.76499 0.18381 0.0
H875 H 0.02083 0.77982 0.20726 0.0
H876 H 0.01551 0.83523 0.25837 0.0
H877 H 0.99077 0.83496 0.29831 0.0
H878 H 0.99317 0.80791 0.29906 0.0
H879 H 0.01788 0.80812 0.25921 0.0
C880 C 0.70793 0.20757 0.77644 0.0
C881 C 0.70189 0.2005 0.78847 0.0
C882 C 0.7142 0.21998 0.80602 0.0
C883 C 0.70499 0.20665 0.80314 0.0
C884 C 0.72056 0.22676 0.79391 0.0
C885 C 0.71742 0.2206 0.77924 0.0
U886 U 0.68738 0.17842 0.74876 0.0
O887 O 0.67254 0.18107 0.72886 0.0
O888 O 0.69338 0.16967 0.72647 0.0
C889 C 0.68198 0.1756 0.71961 0.0
C890 C 0.7037 0.20189 0.76096 0.0
C891 C 0.68551 0.1849 0.70709 0.0
C892 C 0.68496 0.20863 0.69528 0.0
C893 C 0.68291 0.20026 0.70772 0.0
C894 C 0.69314 0.1867 0.68165 0.0
C895 C 0.68986 0.20191 0.68197 0.0
C896 C 0.6909 0.17827 0.69407 0.0
C897 C 0.66484 0.14548 0.76286 0.0
C898 C 0.65084 0.12705 0.74545 0.0
C899 C 0.64589 0.12827 0.7718 0.0
C900 C 0.65692 0.14002 0.77461 0.0
C901 C 0.64261 0.12178 0.75716 0.0
C902 C 0.66183 0.13887 0.74827 0.0
C903 C 0.6753 0.15877 0.76576 0.0
O904 O 0.70945 0.18929 0.7566 0.0
O905 O 0.68934 0.20212 0.757 0.0
O906 O 0.66945 0.1715 0.76303 0.0
O907 O 0.6887 0.15769 0.76069 0.0
H908 H 0.69448 0.19043 0.78647 0.0
H909 H 0.69975 0.20125 0.81216 0.0
H910 H 0.72786 0.23691 0.79576 0.0
H911 H 0.72218 0.22617 0.77005 0.0
H912 H 0.68209 0.22022 0.69594 0.0
H913 H 0.67887 0.20573 0.71768 0.0
H914 H 0.69721 0.18122 0.67172 0.0
H915 H 0.69309 0.16648 0.69339 0.0
H916 H 0.64846 0.12238 0.73404 0.0
H917 H 0.63985 0.12433 0.78107 0.0
H918 H 0.65906 0.14506 0.78592 0.0
H919 H 0.66772 0.14309 0.73902 0.0
C920 C 0.00659 0.40839 0.2412 0.0
C921 C 0.00953 0.41855 0.23026 0.0
C922 C 0.00815 0.39797 0.21108 0.0
C923 C 0.01036 0.41338 0.21532 0.0
C924 C 0.0048 0.38786 0.22202 0.0
C925 C 0.00408 0.39305 0.23699 0.0
U926 U 0.00596 0.44023 0.27101 0.0
O927 O 0.99509 0.44166 0.29235 0.0
O928 O 0.01963 0.44459 0.29229 0.0
C929 C 0.00798 0.44266 0.30036 0.0
C930 C 0.00666 0.41368 0.25703 0.0
C931 C 0.00963 0.43175 0.31191 0.0
C932 C 0.00404 0.40713 0.32103 0.0
C933 C 0.00196 0.41752 0.31018 0.0
C934 C 0.02173 0.42495 0.33531 0.0
C935 C 0.014 0.41069 0.33371 0.0
C936 C 0.01952 0.43538 0.32453 0.0
C937 C 0.00332 0.48031 0.25947 0.0
C938 C 0.01155 0.50286 0.27509 0.0
C939 C 0.9931 0.50413 0.25431 0.0
C940 C 0.9938 0.48875 0.25083 0.0
C941 C 0.00202 0.51135 0.26644 0.0
C942 C 0.01212 0.48745 0.27171 0.0
C943 C 0.00378 0.46411 0.25566 0.0
O944 O 0.01877 0.42191 0.26218 0.0
O945 O 0.99419 0.41921 0.2612 0.0
O946 O 0.99205 0.45577 0.25912 0.0
O947 O 0.01659 0.45824 0.25893 0.0
H948 H 0.0114 0.43046 0.23332 0.0
H949 H 0.01275 0.42143 0.20709 0.0
H950 H 0.00313 0.37592 0.21906 0.0
H951 H 0.00179 0.38507 0.24533 0.0
H952 H 0.99772 0.39637 0.31952 0.0
H953 H 0.99437 0.41439 0.30044 0.0
H954 H 0.02967 0.428 0.34479 0.0
H955 H 0.02567 0.44625 0.32596 0.0
H956 H 0.0184 0.5081 0.28461 0.0
H957 H 0.98575 0.51042 0.24738 0.0
H958 H 0.9869 0.48342 0.24138 0.0
H959 H 0.01943 0.48113 0.27865 0.0
O960 O 0.30404 0.51206 0.61195 0.0
Cd961 Cd 0.30708 0.50474 0.63778 0.0
O962 O 0.28945 0.52998 0.61836 0.0
Cd963 Cd 0.29112 0.52869 0.64266 0.0
O964 O 0.28644 0.5431 0.66218 0.0
C965 C 0.2732 0.54265 0.66655 0.0
O966 O 0.26326 0.53238 0.66025 0.0
C967 C 0.29584 0.52254 0.60831 0.0
C968 C 0.31617 0.47551 0.63911 0.0
O969 O 0.30223 0.47806 0.6378 0.0
O970 O 0.32579 0.4868 0.6398 0.0
O971 O 0.29473 0.49278 0.97534 0.0
Cd972 Cd 0.31057 0.51186 0.99065 0.0
O973 O 0.29467 0.48094 0.99596 0.0
Cd974 Cd 0.29129 0.46229 0.01034 0.0
O975 O 0.30109 0.44172 0.01668 0.0
C976 C 0.31493 0.44171 0.0143 0.0
O977 O 0.32145 0.45371 0.00909 0.0
C978 C 0.29116 0.48104 0.98196 0.0
C979 C 0.30253 0.5413 0.9892 0.0
O980 O 0.31141 0.53575 0.97995 0.0
O981 O 0.29719 0.53278 0.99885 0.0
O982 O 0.69533 0.01966 0.32877 0.0
Cd983 Cd 0.68583 0.02596 0.30401 0.0
O984 O 0.68587 0.99648 0.32455 0.0
Cd985 Cd 0.68175 0.97291 0.32941 0.0
O986 O 0.67622 0.94952 0.33395 0.0
C987 C 0.66613 0.94186 0.32565 0.0
O988 O 0.65936 0.94822 0.3145 0.0
C989 C 0.69311 0.00656 0.33326 0.0
C990 C 0.69889 0.05328 0.29644 0.0
O991 O 0.6866 0.05262 0.30307 0.0
O992 O 0.70495 0.04097 0.29326 0.0
O993 O 0.71517 0.96175 0.99713 0.0
Cd994 Cd 0.71316 0.95273 0.9708 0.0
O995 O 0.70744 0.98365 0.99167 0.0
Cd996 Cd 0.69987 0.00595 0.99723 0.0
O997 O 0.69664 0.02978 0.00117 0.0
C998 C 0.69552 0.03763 0.98986 0.0
O999 O 0.69583 0.03097 0.97639 0.0
C1000 C 0.71171 0.9748 0.00142 0.0
C1001 C 0.69586 0.92568 0.96873 0.0
O1002 O 0.71015 0.92605 0.97107 0.0
O1003 O 0.68979 0.93809 0.96687 0.0
O1004 O 0.59503 0.28005 0.49226 0.0
Cd1005 Cd 0.61663 0.27545 0.47763 0.0
O1006 O 0.61154 0.28612 0.51094 0.0
Cd1007 Cd 0.62034 0.28983 0.53424 0.0
O1008 O 0.63394 0.28491 0.55413 0.0
C1009 C 0.63913 0.272 0.55348 0.0
O1010 O 0.63588 0.26308 0.54134 0.0
C1011 C 0.59789 0.284 0.50606 0.0
C1012 C 0.61902 0.29278 0.45304 0.0
O1013 O 0.6114 0.2801 0.45191 0.0
O1014 O 0.62531 0.29737 0.46589 0.0
O1015 O 0.9946 0.71313 0.96719 0.0
Cd1016 Cd 0.96809 0.70763 0.95975 0.0
O1017 O 0.99181 0.69806 0.9853 0.0
Cd1018 Cd 0.99853 0.68833 0.00628 0.0
O1019 O 0.00245 0.6876 0.03046 0.0
C1020 C 0.99547 0.69709 0.03799 0.0
O1021 O 0.98662 0.70577 0.03074 0.0
C1022 C 0.00026 0.70676 0.97829 0.0
C1023 C 0.96566 0.69029 0.93275 0.0
O1024 O 0.9655 0.70462 0.933 0.0
O1025 O 0.96662 0.68416 0.94531 0.0
O1026 O 0.94372 0.31037 0.49108 0.0
Cd1027 Cd 0.94937 0.32475 0.51504 0.0
O1028 O 0.96693 0.30484 0.48791 0.0
Cd1029 Cd 0.98426 0.29888 0.4729 0.0
O1030 O 0.99685 0.3051 0.45394 0.0
C1031 C 0.00357 0.31808 0.45542 0.0
O1032 O 0.00334 0.32591 0.46831 0.0
C1033 C 0.95325 0.3044 0.48306 0.0
C1034 C 0.96392 0.31018 0.5377 0.0
O1035 O 0.94965 0.30848 0.53514 0.0
O1036 O 0.9714 0.31845 0.52922 0.0
O1037 O 0.32708 0.6995 0.01634 0.0
Cd1038 Cd 0.30136 0.69263 0.02195 0.0
O1039 O 0.3226 0.69037 0.99309 0.0
Cd1040 Cd 0.32756 0.68579 0.96962 0.0
O1041 O 0.33197 0.67924 0.94642 0.0
C1042 C 0.34207 0.6702 0.94389 0.0
O1043 O 0.34973 0.6652 0.95533 0.0
C1044 C 0.33166 0.69686 0.00334 0.0
C1045 C 0.29482 0.70469 0.05004 0.0
O1046 O 0.29895 0.69126 0.04829 0.0
O1047 O 0.2937 0.7124 0.03846 0.0
O1048 O 0.49114 0.59955 0.28312 0.0
Cd1049 Cd 0.47655 0.62067 0.27665 0.0
O1050 O 0.50948 0.61688 0.28667 0.0
Cd1051 Cd 0.53235 0.62663 0.29126 0.0
O1052 O 0.55302 0.63867 0.28597 0.0
C1053 C 0.55652 0.63625 0.27254 0.0
O1054 O 0.54796 0.62666 0.26357 0.0
C1055 C 0.50499 0.60307 0.2862 0.0
C1056 C 0.45061 0.62308 0.2919 0.0
O1057 O 0.45041 0.61546 0.27927 0.0
O1058 O 0.46317 0.62936 0.29742 0.0
O1059 O 0.96273 0.99043 0.71742 0.0
Cd1060 Cd 0.95168 0.96474 0.71479 0.0
O1061 O 0.98134 0.98375 0.70425 0.0
Cd1062 Cd 0.00323 0.98774 0.69516 0.0
O1063 O 0.0267 0.99318 0.69138 0.0
C1064 C 0.03296 0.00541 0.69738 0.0
O1065 O 0.02496 0.01448 0.70521 0.0
C1066 C 0.97476 0.99394 0.71131 0.0
C1067 C 0.92493 0.9644 0.6972 0.0
O1068 O 0.92522 0.96667 0.71149 0.0
O1069 O 0.93728 0.96193 0.69125 0.0
O1070 O 0.4864 0.9734 0.30196 0.0
Cd1071 Cd 0.50311 0.99271 0.31584 0.0
O1072 O 0.47549 0.99149 0.29113 0.0
Cd1073 Cd 0.45571 0.00096 0.281 0.0
O1074 O 0.43345 0.00663 0.28671 0.0
C1075 C 0.43247 0.01855 0.29495 0.0
O1076 O 0.44454 0.02761 0.29802 0.0
C1077 C 0.47591 0.9776 0.29332 0.0
C1078 C 0.53297 0.99234 0.3092 0.0
O1079 O 0.52782 0.98424 0.31928 0.0
O1080 O 0.5239 0.00038 0.30211 0.0
O1081 O 0.02148 0.33306 0.69485 0.0
Cd1082 Cd 0.02599 0.30739 0.68662 0.0
O1083 O 0.99742 0.3266 0.69287 0.0
Cd1084 Cd 0.97361 0.33078 0.69185 0.0
O1085 O 0.95005 0.33399 0.68611 0.0
C1086 C 0.94415 0.32751 0.67394 0.0
O1087 O 0.95239 0.31913 0.66563 0.0
C1088 C 0.00807 0.33659 0.69606 0.0
C1089 C 0.05265 0.29871 0.70004 0.0
O1090 O 0.05236 0.30448 0.68728 0.0
O1091 O 0.04029 0.29694 0.70639 0.0
O1092 O 0.70111 0.48212 0.38527 0.0
Cd1093 Cd 0.7001 0.48938 0.35934 0.0
O1094 O 0.72576 0.48346 0.38739 0.0
Cd1095 Cd 0.72769 0.48331 0.36322 0.0
O1096 O 0.73306 0.46762 0.34497 0.0
C1097 C 0.72436 0.45584 0.34238 0.0
O1098 O 0.71213 0.45455 0.34972 0.0
C1099 C 0.71327 0.48165 0.3933 0.0
C1100 C 0.69091 0.51858 0.35802 0.0
O1101 O 0.68135 0.50723 0.35663 0.0
O1102 O 0.70483 0.51612 0.35986 0.0
O1103 O 0.74842 0.51791 0.00015 0.0
Cd1104 Cd 0.74694 0.49713 0.98106 0.0
O1105 O 0.72387 0.51686 0.99862 0.0
Cd1106 Cd 0.70253 0.52644 0.00259 0.0
O1107 O 0.68496 0.5421 0.00413 0.0
C1108 C 0.68797 0.55501 0.99948 0.0
O1109 O 0.70118 0.55795 0.99431 0.0
C1110 C 0.7363 0.52299 0.00429 0.0
C1111 C 0.73696 0.46993 0.99173 0.0
O1112 O 0.75096 0.47407 0.99228 0.0
O1113 O 0.72762 0.47877 0.98626 0.0
O1114 O 0.29689 0.98319 0.6766 0.0
Cd1115 Cd 0.30146 0.97772 0.70279 0.0
O1116 O 0.31253 0.00312 0.67941 0.0
Cd1117 Cd 0.3234 0.02431 0.67335 0.0
O1118 O 0.33351 0.04626 0.66859 0.0
C1119 C 0.32513 0.05678 0.66556 0.0
O1120 O 0.31051 0.05416 0.66527 0.0
C1121 C 0.30333 0.99442 0.67106 0.0
C1122 C 0.28977 0.94883 0.70718 0.0
O1123 O 0.28178 0.96015 0.70879 0.0
O1124 O 0.30335 0.95122 0.70371 0.0
O1125 O 0.31515 0.00914 0.99087 0.0
Cd1126 Cd 0.32325 0.01173 0.0175 0.0
O1127 O 0.29234 0.01567 0.9945 0.0
Cd1128 Cd 0.29501 0.00894 0.01745 0.0
O1129 O 0.29467 0.98688 0.02665 0.0
C1130 C 0.30169 0.97726 0.01929 0.0
O1131 O 0.30922 0.98166 0.00802 0.0
C1132 C 0.30248 0.01281 0.98561 0.0
C1133 C 0.33693 0.04057 0.0228 0.0
O1134 O 0.34453 0.02942 0.01901 0.0
O1135 O 0.32295 0.03798 0.02463 0.0
O1136 O 0.39461 0.70068 0.48489 0.0
Cd1137 Cd 0.36857 0.6996 0.49187 0.0
O1138 O 0.39526 0.72503 0.48243 0.0
Cd1139 Cd 0.37097 0.72631 0.48209 0.0
O1140 O 0.35213 0.73164 0.46708 0.0
C1141 C 0.34863 0.72272 0.45562 0.0
O1142 O 0.35548 0.71019 0.45418 0.0
C1143 C 0.40192 0.71289 0.4826 0.0
C1144 C 0.36644 0.69055 0.52106 0.0
O1145 O 0.36524 0.68094 0.50975 0.0
O1146 O 0.36858 0.70445 0.51856 0.0
O1147 O 0.99131 0.32864 0.01877 0.0
Cd1148 Cd 0.01709 0.33756 0.02636 0.0
O1149 O -0.00054 0.30778 0.00923 0.0
Cd1150 Cd 0.99683 0.28725 0.99468 0.0
O1151 O 0.99649 0.27508 0.97289 0.0
C1152 C 0.98684 0.27842 0.96284 0.0
O1153 O 0.97704 0.28817 0.96639 0.0
C1154 C 0.98859 0.3158 0.01195 0.0
C1155 C 0.01876 0.34778 0.05639 0.0
O1156 O 0.01564 0.35656 0.04602 0.0
O1157 O 0.02138 0.33421 0.05252 0.0
O1158 O 0.99535 0.74285 0.52275 0.0
Cd1159 Cd 0.97355 0.73697 0.50516 0.0
O1160 O 0.99812 0.71869 0.52121 0.0
Cd1161 Cd 0.00713 0.69846 0.52953 0.0
O1162 O 0.01239 0.68095 0.54443 0.0
C1163 C 0.00313 0.66966 0.54474 0.0
O1164 O 0.99108 0.66854 0.53549 0.0
C1165 C 0.00249 0.73178 0.52675 0.0
C1166 C 0.98152 0.73376 0.47563 0.0
O1167 O 0.9781 0.74645 0.48144 0.0
O1168 O 0.98119 0.7225 0.48382 0.0
O1169 O 0.67106 0.29039 0.98558 0.0
Cd1170 Cd 0.69808 0.2941 0.98389 0.0
O1171 O 0.67362 0.30142 0.00818 0.0
Cd1172 Cd 0.66613 0.31151 0.02906 0.0
O1173 O 0.6622 0.32384 0.05012 0.0
C1174 C 0.6573 0.31712 0.06111 0.0
O1175 O 0.65433 0.30252 0.05962 0.0
C1176 C 0.6652 0.29489 0.99747 0.0
C1177 C 0.70652 0.28366 0.95597 0.0
O1178 O 0.70596 0.27499 0.96682 0.0
O1179 O 0.70326 0.29732 0.95842 0.0
O1180 O 0.4852 0.39289 0.67989 0.0
Cd1181 Cd 0.4962 0.36869 0.67639 0.0
O1182 O 0.47524 0.3832 0.69904 0.0
Cd1183 Cd 0.45996 0.38075 0.7169 0.0
O1184 O 0.4441 0.37032 0.73124 0.0
C1185 C 0.43166 0.36471 0.72515 0.0
O1186 O 0.42872 0.36595 0.71073 0.0
C1187 C 0.47683 0.39418 0.69078 0.0
C1188 C 0.52675 0.37113 0.6721 0.0
O1189 O 0.51698 0.37067 0.66097 0.0
O1190 O 0.52205 0.37058 0.68531 0.0
O1191 O 0.02657 0.99918 0.32265 0.0
Cd1192 Cd 0.03278 0.02534 0.33117 0.0
O1193 O 0.01422 0.00683 0.30306 0.0
Cd1194 Cd 0.99793 0.00428 0.28391 0.0
O1195 O 0.97566 0.00328 0.27281 0.0
C1196 C 0.96666 0.99217 0.27484 0.0
O1197 O 0.97148 0.9813 0.28272 0.0
C1198 C 0.01864 0.99609 0.31049 0.0
C1199 C 0.0619 0.02741 0.34394 0.0
O1200 O 0.05072 0.02463 0.35185 0.0
O1201 O 0.05923 0.02967 0.33006 0.0
O1202 O 0.51289 0.00648 0.74742 0.0
Cd1203 Cd 0.49301 0.98645 0.74555 0.0
O1204 O 0.51935 0.99781 0.72551 0.0
Cd1205 Cd 0.53222 0.99785 0.70552 0.0
O1206 O 0.54707 0.99778 0.6871 0.0
C1207 C 0.56106 0.99715 0.6901 0.0
O1208 O 0.56607 0.99649 0.70413 0.0
C1209 C 0.52157 0.00727 0.73677 0.0
C1210 C 0.46571 0.9962 0.7347 0.0
O1211 O 0.46956 0.99714 0.74877 0.0
O1212 O 0.47485 0.99068 0.7257 0.0
O1213 O 0.98429 0.67708 0.28888 0.0
Cd1214 Cd 0.98131 0.70395 0.29268 0.0
O1215 O 0.00248 0.67872 0.30651 0.0
Cd1216 Cd 0.0214 0.67063 0.31957 0.0
O1217 O 0.04234 0.66548 0.3313 0.0
C1218 C 0.05321 0.66176 0.3237 0.0
O1219 O 0.05139 0.66082 0.30899 0.0
C1220 C 0.99416 0.6708 0.29662 0.0
C1221 C 0.95398 0.711 0.27942 0.0
O1222 O 0.96566 0.71059 0.27187 0.0
O1223 O 0.9553 0.70829 0.29332 0.0
C1224 C 0.17966 0.63845 0.37433 0.0
C1225 C 0.1817 0.63997 0.39006 0.0
C1226 C 0.16591 0.64115 0.36708 0.0
C1227 C 0.13076 0.65985 0.37251 0.0
H1228 H 0.11493 0.63239 0.33928 0.0
C1229 C 0.07002 0.66063 0.34701 0.0
C1230 C 0.06785 0.65901 0.33129 0.0
C1231 C 0.08396 0.65839 0.35413 0.0
C1232 C 0.11927 0.64025 0.34843 0.0
H1233 H 0.17099 0.6459 0.41048 0.0
H1234 H 0.14692 0.65035 0.39786 0.0
H1235 H 0.13925 0.62862 0.35175 0.0
H1236 H 0.07862 0.65369 0.31074 0.0
H1237 H 0.10294 0.64987 0.32317 0.0
H1238 H 0.11073 0.67144 0.36923 0.0
C1239 C 0.15599 0.64718 0.39111 0.0
C1240 C 0.13322 0.63811 0.35557 0.0
C1241 C 0.16974 0.64447 0.39836 0.0
C1242 C 0.0799 0.65499 0.32287 0.0
C1243 C 0.09383 0.65273 0.32999 0.0
C1244 C 0.1168 0.66199 0.36538 0.0
C1245 C 0.15388 0.64545 0.37539 0.0
C1246 C 0.13912 0.64787 0.3677 0.0
C1247 C 0.09603 0.65446 0.3457 0.0
C1248 C 0.11089 0.6522 0.35327 0.0
H1249 H 0.18859 0.63485 0.3676 0.0
H1250 H 0.16472 0.6399 0.35495 0.0
H1251 H 0.13509 0.6677 0.38168 0.0
H1252 H 0.06097 0.66368 0.35383 0.0
H1253 H 0.08524 0.65961 0.36626 0.0
C1254 C 0.32669 0.30928 0.78556 0.0
C1255 C 0.32856 0.30695 0.80094 0.0
C1256 C 0.33911 0.31241 0.77731 0.0
C1257 C 0.3768 0.33029 0.78297 0.0
H1258 H 0.37999 0.31689 0.74133 0.0
C1259 C 0.42479 0.35318 0.74882 0.0
C1260 C 0.42084 0.35646 0.73399 0.0
C1261 C 0.41461 0.3452 0.75706 0.0
C1262 C 0.3792 0.32082 0.75293 0.0
H1263 H 0.34503 0.30495 0.8194 0.0
H1264 H 0.36673 0.31063 0.80498 0.0
H1265 H 0.36034 0.30546 0.7555 0.0
H1266 H 0.40311 0.35397 0.71621 0.0
H1267 H 0.38524 0.34044 0.7307 0.0
H1268 H 0.39523 0.34603 0.78032 0.0
C1269 C 0.35561 0.31021 0.7994 0.0
C1270 C 0.368 0.31422 0.76104 0.0
C1271 C 0.34319 0.30697 0.80765 0.0
C1272 C 0.40652 0.35159 0.72759 0.0
C1273 C 0.39631 0.3437 0.73587 0.0
C1274 C 0.38793 0.33695 0.77484 0.0
C1275 C 0.35367 0.31337 0.78425 0.0
C1276 C 0.36654 0.31904 0.77608 0.0
C1277 C 0.40022 0.34041 0.75071 0.0
C1278 C 0.38912 0.33248 0.75965 0.0
H1279 H 0.31561 0.30955 0.78006 0.0
H1280 H 0.33724 0.31495 0.76569 0.0
H1281 H 0.37582 0.33442 0.79447 0.0
H1282 H 0.43579 0.35667 0.75403 0.0
H1283 H 0.41806 0.3427 0.7684 0.0
C1284 C 0.65282 0.0082 0.59422 0.0
C1285 C 0.65761 0.99425 0.58908 0.0
C1286 C 0.64158 0.00896 0.60434 0.0
C1287 C 0.61036 0.98696 0.6192 0.0
H1288 H 0.61774 0.01487 0.65417 0.0
C1289 C 0.56627 0.99679 0.66287 0.0
C1290 C 0.57159 0.99719 0.67801 0.0
C1291 C 0.57629 0.99678 0.6515 0.0
C1292 C 0.61554 0.007 0.64448 0.0
H1293 H 0.65409 0.97015 0.59009 0.0
H1294 H 0.63443 0.97147 0.60779 0.0
H1295 H 0.63593 0.01414 0.63498 0.0
H1296 H 0.59161 0.99792 0.69307 0.0
H1297 H 0.60905 0.9979 0.67323 0.0
H1298 H 0.59007 0.97966 0.62885 0.0
C1299 C 0.63936 0.98181 0.60398 0.0
C1300 C 0.62587 0.00669 0.63343 0.0
C1301 C 0.65069 0.98106 0.59397 0.0
C1302 C 0.58713 0.99762 0.68152 0.0
C1303 C 0.59714 0.9977 0.67017 0.0
C1304 C 0.59995 0.98735 0.63021 0.0
C1305 C 0.63482 0.99578 0.60941 0.0
C1306 C 0.62345 0.99658 0.62074 0.0
C1307 C 0.59183 0.99728 0.65504 0.0
C1308 C 0.60252 0.99728 0.64304 0.0
H1309 H 0.65803 0.01855 0.59071 0.0
H1310 H 0.63821 0.01988 0.60825 0.0
H1311 H 0.60816 0.97913 0.60948 0.0
H1312 H 0.55436 0.99646 0.65979 0.0
H1313 H 0.57189 0.99657 0.63994 0.0
C1314 C 0.83041 0.98817 0.24924 0.0
C1315 C 0.82516 0.00159 0.24423 0.0
C1316 C 0.84566 0.98706 0.25293 0.0
C1317 C 0.88241 0.00323 0.24439 0.0
H1318 H 0.89697 0.98434 0.27982 0.0
C1319 C 0.94512 0.00501 0.2635 0.0
C1320 C 0.95064 0.9923 0.26986 0.0
C1321 C 0.92979 0.00573 0.26001 0.0
C1322 C 0.89307 0.98944 0.26976 0.0
H1323 H 0.83167 0.02444 0.23937 0.0
H1324 H 0.85834 0.02252 0.24589 0.0
H1325 H 0.87011 0.98674 0.27512 0.0
H1326 H 0.94447 0.97017 0.27705 0.0
H1327 H 0.91772 0.9713 0.27066 0.0
H1328 H 0.90527 0.0058 0.23889 0.0
C1329 C 0.85066 0.01285 0.24689 0.0
C1330 C 0.8777 0.99087 0.26712 0.0
C1331 C 0.83539 0.01399 0.24331 0.0
C1332 C 0.94056 0.98015 0.27223 0.0
C1333 C 0.92521 0.98084 0.26868 0.0
C1334 C 0.89775 0.00172 0.24697 0.0
C1335 C 0.85596 0.99932 0.25155 0.0
C1336 C 0.87224 0.99784 0.25445 0.0
C1337 C 0.91964 0.99373 0.26273 0.0
C1338 C 0.90327 0.99487 0.25972 0.0
H1339 H 0.82273 0.97847 0.25016 0.0
H1340 H 0.84945 0.97647 0.25643 0.0
H1341 H 0.87847 0.00841 0.23439 0.0
H1342 H 0.95258 0.01459 0.26157 0.0
H1343 H 0.92586 0.0159 0.25561 0.0
C1344 C 0.38196 0.17527 0.62606 0.0
C1345 C 0.38349 0.18725 0.63709 0.0
C1346 C 0.37531 0.16135 0.62914 0.0
C1347 C 0.35073 0.14277 0.6552 0.0
H1348 H 0.36862 0.10686 0.6403 0.0
C1349 C 0.32243 0.0833 0.65872 0.0
C1350 C 0.33173 0.07179 0.66242 0.0
C1351 C 0.32863 0.09746 0.65574 0.0
C1352 C 0.36355 0.11677 0.64465 0.0
H1353 H 0.37914 0.19398 0.66002 0.0
H1354 H 0.36756 0.16965 0.66542 0.0
H1355 H 0.3796 0.13143 0.6351 0.0
H1356 H 0.35485 0.06618 0.66598 0.0
H1357 H 0.36564 0.0909 0.66093 0.0
H1358 H 0.33485 0.12809 0.66502 0.0
C1359 C 0.37134 0.17109 0.65431 0.0
C1360 C 0.36974 0.13087 0.6415 0.0
C1361 C 0.37798 0.18504 0.65122 0.0
C1362 C 0.34736 0.07477 0.6631 0.0
C1363 C 0.35355 0.08893 0.66012 0.0
C1364 C 0.34453 0.12866 0.65834 0.0
C1365 C 0.37003 0.15904 0.64334 0.0
C1366 C 0.3634 0.14405 0.64672 0.0
C1367 C 0.34427 0.10045 0.65639 0.0
C1368 C 0.35086 0.11548 0.6531 0.0
H1369 H 0.38583 0.17668 0.61497 0.0
H1370 H 0.37421 0.15242 0.62033 0.0
H1371 H 0.34548 0.15268 0.65928 0.0
H1372 H 0.31034 0.08138 0.65806 0.0
H1373 H 0.32115 0.106 0.65271 0.0
C1374 C 0.25447 0.84812 0.03016 0.0
C1375 C 0.25819 0.83782 0.0187 0.0
C1376 C 0.26108 0.86275 0.03148 0.0
C1377 C 0.27965 0.89059 0.00884 0.0
H1378 H 0.28934 0.91243 0.04735 0.0
C1379 C 0.30666 0.95057 0.01267 0.0
C1380 C 0.29976 0.96108 0.02183 0.0
C1381 C 0.30338 0.93521 0.01355 0.0
C1382 C 0.28663 0.90647 0.03653 0.0
H1383 H 0.27224 0.83458 5e-05 0.0
H1384 H 0.2839 0.86005 0.00243 0.0
H1385 H 0.28038 0.88598 0.04641 0.0
H1386 H 0.28464 0.96366 0.03969 0.0
H1387 H 0.27889 0.93676 0.04121 0.0
H1388 H 0.28578 0.91104 0.99896 0.0
C1389 C 0.27562 0.85694 0.0102 0.0
C1390 C 0.28147 0.89134 0.03598 0.0
C1391 C 0.26896 0.84234 0.00884 0.0
C1392 C 0.29011 0.95586 0.03245 0.0
C1393 C 0.28686 0.94045 0.03336 0.0
C1394 C 0.28486 0.90564 0.0094 0.0
C1395 C 0.2716 0.86739 0.0214 0.0
C1396 C 0.27782 0.88325 0.02211 0.0
C1397 C 0.29316 0.92999 0.02363 0.0
C1398 C 0.28833 0.91379 0.02324 0.0
H1399 H 0.24608 0.84503 0.03782 0.0
H1400 H 0.25756 0.87055 0.0401 0.0
H1401 H 0.27665 0.88481 0.99798 0.0
H1402 H 0.31425 0.95419 0.00445 0.0
H1403 H 0.30861 0.92741 0.00609 0.0
C1404 C 0.77106 0.33516 0.30466 0.0
C1405 C 0.78641 0.33675 0.30215 0.0
C1406 C 0.76257 0.34773 0.30576 0.0
C1407 C 0.76269 0.38845 0.29904 0.0
H1408 H 0.73712 0.38955 0.33244 0.0
C1409 C 0.74332 0.44315 0.3274 0.0
C1410 C 0.72909 0.4428 0.33323 0.0
C1411 C 0.74865 0.43012 0.32077 0.0
C1412 C 0.74398 0.38936 0.32288 0.0
H1413 H 0.80463 0.35276 0.29796 0.0
H1414 H 0.78994 0.3747 0.30029 0.0
H1415 H 0.74947 0.36683 0.32605 0.0
H1416 H 0.70888 0.42874 0.3357 0.0
H1417 H 0.71812 0.40609 0.32402 0.0
H1418 H 0.7575 0.41124 0.29625 0.0
C1419 C 0.78441 0.36373 0.30128 0.0
C1420 C 0.75107 0.37629 0.3192 0.0
C1421 C 0.79289 0.35115 0.30013 0.0
C1422 C 0.71996 0.42937 0.33146 0.0
C1423 C 0.72528 0.41636 0.32484 0.0
C1424 C 0.75561 0.40157 0.30276 0.0
C1425 C 0.76922 0.36221 0.30442 0.0
C1426 C 0.76068 0.37572 0.30736 0.0
C1427 C 0.73985 0.41647 0.31982 0.0
C1428 C 0.74632 0.40222 0.31485 0.0
H1429 H 0.76571 0.32427 0.30638 0.0
H1430 H 0.75084 0.34612 0.30795 0.0
H1431 H 0.76985 0.38833 0.28972 0.0
H1432 H 0.75064 0.45332 0.32855 0.0
H1433 H 0.75996 0.43058 0.31711 0.0
C1434 C 0.60595 0.65864 0.98946 0.0
C1435 C 0.59246 0.65744 0.99666 0.0
C1436 C 0.6158 0.64714 0.98978 0.0
C1437 C 0.62573 0.61447 0.01074 0.0
H1438 H 0.64648 0.60399 0.97518 0.0
C1439 C 0.66293 0.56381 0.00591 0.0
C1440 C 0.67672 0.56645 0.99951 0.0
C1441 C 0.65227 0.57459 0.00568 0.0
C1442 C 0.64086 0.60688 0.98523 0.0
H1443 H 0.57877 0.6432 0.00991 0.0
H1444 H 0.59581 0.62295 0.01017 0.0
H1445 H 0.6284 0.62324 0.97441 0.0
H1446 H 0.69017 0.58251 0.98794 0.0
H1447 H 0.67159 0.60127 0.98755 0.0
H1448 H 0.6382 0.59801 0.02152 0.0
C1449 C 0.59885 0.63289 0.00443 0.0
C1450 C 0.63051 0.61792 0.98481 0.0
C1451 C 0.58901 0.64442 0.00413 0.0
C1452 C 0.67965 0.5801 0.99294 0.0
C1453 C 0.66897 0.59082 0.99263 0.0
C1454 C 0.63604 0.60336 0.01115 0.0
C1455 C 0.61237 0.63412 0.99726 0.0
C1456 C 0.62293 0.62195 0.99759 0.0
C1457 C 0.65516 0.58817 0.99895 0.0
C1458 C 0.64381 0.59955 0.99843 0.0
H1459 H 0.60888 0.66842 0.98343 0.0
H1460 H 0.62619 0.64855 0.9843 0.0
H1461 H 0.62023 0.61743 0.02084 0.0
H1462 H 0.66034 0.5534 0.01107 0.0
H1463 H 0.64168 0.5722 0.01055 0.0
C1464 C 0.63814 0.37628 0.18537 0.0
C1465 C 0.6418 0.39184 0.18703 0.0
C1466 C 0.6401 0.36815 0.17188 0.0
C1467 C 0.64338 0.37288 0.13155 0.0
H1468 H 0.65903 0.33341 0.13145 0.0
C1469 C 0.65906 0.34118 0.07723 0.0
C1470 C 0.65533 0.32564 0.0755 0.0
C1471 C 0.65744 0.34919 0.09086 0.0
C1472 C 0.65448 0.34434 0.13129 0.0
H1473 H 0.65076 0.41096 0.17589 0.0
H1474 H 0.65417 0.39677 0.15233 0.0
H1475 H 0.65642 0.34751 0.15525 0.0
H1476 H 0.64689 0.30636 0.08675 0.0
H1477 H 0.64391 0.32039 0.1105 0.0
H1478 H 0.64138 0.36971 0.10761 0.0
C1479 C 0.64956 0.3909 0.16141 0.0
C1480 C 0.653 0.35243 0.14493 0.0
C1481 C 0.64761 0.39904 0.17491 0.0
C1482 C 0.6499 0.31831 0.08771 0.0
C1483 C 0.64828 0.32634 0.10136 0.0
C1484 C 0.64484 0.36479 0.11792 0.0
C1485 C 0.64575 0.37538 0.1597 0.0
C1486 C 0.64744 0.3668 0.14522 0.0
C1487 C 0.65205 0.34187 0.1031 0.0
C1488 C 0.65041 0.35043 0.11762 0.0
H1489 H 0.63342 0.37043 0.1944 0.0
H1490 H 0.63686 0.35624 0.17087 0.0
H1491 H 0.63882 0.38381 0.13139 0.0
H1492 H 0.66333 0.34717 0.06807 0.0
H1493 H 0.66064 0.36111 0.09188 0.0
C1494 C 0.99312 0.25074 0.82762 0.0
C1495 C 0.00539 0.2426 0.8237 0.0
C1496 C 0.99103 0.25474 0.84264 0.0
C1497 C 0.00054 0.24336 0.88064 0.0
H1498 H 0.98792 0.28258 0.89331 0.0
C1499 C -0.00058 0.26394 0.94293 0.0
C1500 C 0.98771 0.27276 0.94707 0.0
C1501 C 0.00108 0.25979 0.92785 0.0
C1502 C 0.99124 0.2715 0.88992 0.0
H1503 H 0.02521 0.23246 0.83248 0.0
H1504 H 0.02169 0.23966 0.85868 0.0
H1505 H 0.99225 0.27685 0.86701 0.0
H1506 H 0.96819 0.28366 0.93868 0.0
H1507 H 0.97094 0.27621 0.91239 0.0
H1508 H -0.00051 0.23797 0.90352 0.0
C1509 C 0.0136 0.24281 0.85013 0.0
C1510 C 0.99376 0.26824 0.87486 0.0
C1511 C 0.01572 0.23885 0.83511 0.0
C1512 C 0.97739 0.27693 0.93586 0.0
C1513 C 0.97903 0.27275 0.92078 0.0
C1514 C 0.99798 0.2466 0.89569 0.0
C1515 C 0.00114 0.25063 0.85407 0.0
C1516 C 0.99849 0.25415 0.87007 0.0
C1517 C 0.99102 0.26434 0.91659 0.0
C1518 C 0.99334 0.26072 0.90051 0.0
H1519 H 0.98504 0.2539 0.81906 0.0
H1520 H 0.98127 0.2607 0.84532 0.0
H1521 H 0.00393 0.2323 0.87724 0.0
H1522 H 0.00759 0.26056 0.95129 0.0
H1523 H 0.01052 0.25343 0.925 0.0
C1524 C 0.30701 0.76885 0.33608 0.0
C1525 C 0.30527 0.78437 0.3377 0.0
C1526 C 0.30812 0.76037 0.34866 0.0
C1527 C 0.30314 0.76119 0.38977 0.0
H1528 H 0.33543 0.73426 0.38956 0.0
C1529 C 0.33352 0.74188 0.4434 0.0
C1530 C 0.33891 0.72743 0.44299 0.0
C1531 C 0.32635 0.74714 0.43061 0.0
C1532 C 0.32617 0.7415 0.38975 0.0
H1533 H 0.30236 0.80293 0.3538 0.0
H1534 H 0.30475 0.78826 0.37574 0.0
H1535 H 0.32845 0.74652 0.36696 0.0
H1536 H 0.34 0.7068 0.42915 0.0
H1537 H 0.32739 0.71592 0.40692 0.0
H1538 H 0.30129 0.7565 0.41281 0.0
C1539 C 0.30512 0.78258 0.36474 0.0
C1540 C 0.32215 0.74854 0.37675 0.0
C1541 C 0.30395 0.79105 0.35216 0.0
C1542 C 0.33614 0.71804 0.42981 0.0
C1543 C 0.32897 0.72329 0.41704 0.0
C1544 C 0.30721 0.75416 0.40282 0.0
C1545 C 0.30758 0.7672 0.36317 0.0
C1546 C 0.31073 0.75865 0.37664 0.0
C1547 C 0.3244 0.73805 0.41715 0.0
C1548 C 0.31893 0.7444 0.40301 0.0
H1549 H 0.30817 0.76333 0.32514 0.0
H1550 H 0.30976 0.7485 0.34702 0.0
H1551 H 0.29415 0.76875 0.39001 0.0
H1552 H 0.33543 0.7494 0.45339 0.0
H1553 H 0.32305 0.7586 0.43107 0.0
C1554 C 0.99259 0.58494 0.64539 0.0
C1555 C 0.00285 0.58781 0.6579 0.0
C1556 C 0.99392 0.59313 0.6327 0.0
C1557 C 0.01039 0.62879 0.62049 0.0
H1558 H 0.00198 0.60924 0.58071 0.0
C1559 C 0.01717 0.66085 0.56727 0.0
C1560 C 0.0051 0.65878 0.55638 0.0
C1561 C 0.01823 0.65141 0.57909 0.0
C1562 C 0.00429 0.61486 0.59175 0.0
H1563 H 0.0227 0.60131 0.66686 0.0
H1564 H 0.0251 0.61556 0.64464 0.0
H1565 H 0.00127 0.59434 0.60262 0.0
H1566 H 0.985 0.6448 0.54904 0.0
H1567 H 0.98683 0.62838 0.5697 0.0
H1568 H 0.01329 0.64931 0.60963 0.0
C1569 C 0.01588 0.60715 0.64473 0.0
C1570 C 0.00386 0.60634 0.6043 0.0
C1571 C 0.01451 0.59899 0.65745 0.0
C1572 C 0.99443 0.64672 0.55725 0.0
C1573 C 0.99552 0.63725 0.56905 0.0
C1574 C 0.01087 0.63729 0.60794 0.0
C1575 C 0.00557 0.60433 0.63222 0.0
C1576 C 0.00675 0.61324 0.61883 0.0
C1577 C 0.00728 0.63966 0.58024 0.0
C1578 C 0.00768 0.63044 0.59345 0.0
H1579 H 0.98336 0.57655 0.6455 0.0
H1580 H 0.98563 0.59086 0.62338 0.0
H1581 H 0.01246 0.63449 0.63152 0.0
H1582 H 0.02562 0.66999 0.56688 0.0
H1583 H 0.02755 0.65341 0.58743 0.0
C1584 C 0.81831 0.36305 0.63331 0.0
C1585 C 0.81418 0.35796 0.61836 0.0
C1586 C 0.83156 0.35879 0.64045 0.0
C1587 C 0.86013 0.33076 0.6384 0.0
H1588 H 0.88595 0.36199 0.66058 0.0
C1589 C 0.92234 0.32334 0.65497 0.0
C1590 C 0.92845 0.3298 0.66889 0.0
C1591 C 0.90774 0.32597 0.64985 0.0
C1592 C 0.87878 0.35307 0.65465 0.0
H1593 H 0.82046 0.34406 0.59936 0.0
H1594 H 0.84367 0.33677 0.61177 0.0
H1595 H 0.86156 0.36794 0.64979 0.0
H1596 H 0.92389 0.3438 0.68853 0.0
H1597 H 0.89834 0.34824 0.67966 0.0
H1598 H 0.87741 0.31591 0.64315 0.0
C1599 C 0.83663 0.34398 0.61799 0.0
C1600 C 0.8648 0.35649 0.64845 0.0
C1601 C 0.82342 0.34828 0.61082 0.0
C1602 C 0.91954 0.33872 0.67771 0.0
C1603 C 0.90492 0.34133 0.6726 0.0
C1604 C 0.8741 0.32732 0.64464 0.0
C1605 C 0.84092 0.34931 0.63283 0.0
C1606 C 0.85539 0.34542 0.64012 0.0
C1607 C 0.8989 0.33509 0.65854 0.0
C1608 C 0.88366 0.33848 0.6527 0.0
H1609 H 0.8115 0.37061 0.63938 0.0
H1610 H 0.83449 0.36297 0.65193 0.0
H1611 H 0.85303 0.32193 0.63224 0.0
H1612 H 0.9289 0.31643 0.64788 0.0
H1613 H 0.90354 0.32115 0.63888 0.0
C1614 C 0.65621 0.69868 0.2068 0.0
C1615 C 0.66953 0.69159 0.20979 0.0
C1616 C 0.64404 0.69641 0.21564 0.0
C1617 C 0.63222 0.67941 0.25057 0.0
H1618 H 0.59465 0.6707 0.22685 0.0
C1619 C 0.57783 0.65606 0.27566 0.0
C1620 C 0.56954 0.64452 0.2668 0.0
C1621 C 0.58977 0.66418 0.26985 0.0
C1622 C 0.60506 0.67306 0.23365 0.0
H1623 H 0.68078 0.67705 0.22468 0.0
H1624 H 0.65954 0.67279 0.23985 0.0
H1625 H 0.61627 0.68128 0.21518 0.0
H1626 H 0.56745 0.63226 0.24501 0.0
H1627 H 0.58832 0.64613 0.23503 0.0
H1628 H 0.62112 0.67028 0.26882 0.0
C1629 C 0.65851 0.6804 0.23095 0.0
C1630 C 0.61742 0.67937 0.22701 0.0
C1631 C 0.67071 0.68279 0.22221 0.0
C1632 C 0.57353 0.64114 0.25211 0.0
C1633 C 0.58544 0.6492 0.24633 0.0
C1634 C 0.61984 0.67299 0.2572 0.0
C1635 C 0.64489 0.68685 0.22753 0.0
C1636 C 0.63127 0.68228 0.23528 0.0
C1637 C 0.59361 0.6609 0.25506 0.0
C1638 C 0.60624 0.66936 0.24868 0.0
H1639 H 0.65509 0.7057 0.1974 0.0
H1640 H 0.63382 0.70181 0.21288 0.0
H1641 H 0.64265 0.68173 0.25733 0.0
H1642 H 0.575 0.65895 0.28703 0.0
H1643 H 0.59581 0.67316 0.27683 0.0
C1644 C 0.34 0.99508 0.38404 0.0
C1645 C 0.34057 0.0049 0.39696 0.0
C1646 C 0.34878 0.99832 0.37214 0.0
C1647 C 0.38271 0.02041 0.36318 0.0
H1648 H 0.36639 0.01235 0.32211 0.0
C1649 C 0.41875 0.03258 0.31425 0.0
C1650 C 0.41904 0.02047 0.30351 0.0
C1651 C 0.40755 0.03284 0.32443 0.0
C1652 C 0.3711 0.01464 0.33352 0.0
H1653 H 0.35069 0.0259 0.40748 0.0
H1654 H 0.36607 0.03155 0.38674 0.0
H1655 H 0.35038 0.00813 0.34278 0.0
H1656 H 0.4071 0.9998 0.29421 0.0
H1657 H 0.38767 0.0002 0.31203 0.0
H1658 H 0.40349 0.02661 0.35401 0.0
C1659 C 0.35897 0.02124 0.38588 0.0
C1660 C 0.36196 0.01217 0.34535 0.0
C1661 C 0.3502 0.01798 0.39778 0.0
C1662 C 0.40725 0.00925 0.3024 0.0
C1663 C 0.39606 0.00951 0.31259 0.0
C1664 C 0.39183 0.02288 0.35138 0.0
C1665 C 0.35831 0.01148 0.3729 0.0
C1666 C 0.36773 0.01485 0.36031 0.0
C1667 C 0.39641 0.02102 0.32406 0.0
C1668 C 0.38619 0.01985 0.33642 0.0
H1669 H 0.33282 0.98482 0.38315 0.0
H1670 H 0.34824 0.99043 0.36242 0.0
H1671 H 0.38755 0.02239 0.37457 0.0
H1672 H 0.42759 0.04149 0.31529 0.0
H1673 H 0.40793 0.04202 0.33295 0.0
C1674 C 0.1692 0.00969 0.71707 0.0
C1675 C 0.17373 0.02069 0.72863 0.0
C1676 C 0.15471 0.0091 0.7102 0.0
C1677 C 0.1207 0.03056 0.70557 0.0
H1678 H 0.09977 0.99113 0.70304 0.0
C1679 C 0.05647 0.02139 0.7049 0.0
C1680 C 0.0493 0.00871 0.69681 0.0
C1681 C 0.07207 0.02371 0.70567 0.0
C1682 C 0.10548 0.00219 0.70335 0.0
H1683 H 0.16693 0.04018 0.74146 0.0
H1684 H 0.14159 0.039 0.72967 0.0
H1685 H 0.12653 0.9937 0.70989 0.0
H1686 H 0.05285 0.98896 0.68247 0.0
H1687 H 0.08008 0.99311 0.68369 0.0
H1688 H 0.09951 0.03907 0.69942 0.0
C1689 C 0.14923 0.03089 0.72584 0.0
C1690 C 0.12085 0.00366 0.7073 0.0
C1691 C 0.16369 0.03146 0.73272 0.0
C1692 C 0.05803 0.99877 0.68892 0.0
C1693 C 0.07364 0.00111 0.68967 0.0
C1694 C 0.10531 0.02908 0.70159 0.0
C1695 C 0.14448 0.01952 0.71471 0.0
C1696 C 0.12858 0.01789 0.70876 0.0
C1697 C 0.08086 0.01342 0.69834 0.0
C1698 C 0.09747 0.01491 0.70075 0.0
H1699 H 0.17665 0.00119 0.71372 0.0
H1700 H 0.15143 0.00031 0.70155 0.0
H1701 H 0.1264 0.04164 0.70639 0.0
H1702 H 0.05007 0.0293 0.71107 0.0
H1703 H 0.07726 0.03322 0.71258 0.0
C1704 C 0.63503 0.81519 0.36515 0.0
C1705 C 0.6224 0.80759 0.35737 0.0
C1706 C 0.64041 0.82926 0.36102 0.0
C1707 C 0.62801 0.86176 0.34107 0.0
H1708 H 0.67052 0.87346 0.34254 0.0
C1709 C 0.65033 0.91787 0.31973 0.0
C1710 C 0.66184 0.92611 0.32865 0.0
C1711 C 0.646 0.90313 0.32274 0.0
C1712 C 0.65861 0.8704 0.3422 0.0
H1713 H 0.60592 0.80852 0.33873 0.0
H1714 H 0.61536 0.83297 0.33142 0.0
H1715 H 0.66222 0.84811 0.34845 0.0
H1716 H 0.67796 0.92523 0.34765 0.0
H1717 H 0.67031 0.89954 0.35295 0.0
H1718 H 0.62437 0.88402 0.33486 0.0
C1719 C 0.62092 0.82823 0.34095 0.0
C1720 C 0.65385 0.85587 0.34559 0.0
C1721 C 0.61552 0.8142 0.34511 0.0
C1722 C 0.66905 0.9192 0.34055 0.0
C1723 C 0.66473 0.90444 0.34353 0.0
C1724 C 0.63276 0.87625 0.33765 0.0
C1725 C 0.63331 0.83604 0.34898 0.0
C1726 C 0.63848 0.85138 0.34508 0.0
C1727 C 0.65308 0.89627 0.33473 0.0
C1728 C 0.64811 0.88076 0.33819 0.0
H1729 H 0.64048 0.81048 0.37476 0.0
H1730 H 0.64986 0.83502 0.36757 0.0
H1731 H 0.61608 0.8588 0.34085 0.0
H1732 H 0.64459 0.92281 0.31044 0.0
H1733 H 0.63713 0.89708 0.31561 0.0
C1734 C 0.72879 0.16863 0.98653 0.0
C1735 C 0.73152 0.17763 -4e-05 0.0
C1736 C 0.72133 0.15446 0.98646 0.0
C1737 C 0.71538 0.12386 0.01083 0.0
H1738 H 0.68729 0.10755 0.97833 0.0
C1739 C 0.69499 0.06136 0.00621 0.0
C1740 C 0.6953 0.05415 0.99184 0.0
C1741 C 0.69622 0.07703 0.00816 0.0
C1742 C 0.69515 0.11192 0.98746 0.0
H1743 H 0.72824 0.17905 0.02378 0.0
H1744 H 0.71521 0.15416 0.02367 0.0
H1745 H 0.69532 0.13422 0.97998 0.0
H1746 H 0.69652 0.05774 0.96819 0.0
H1747 H 0.69899 0.08495 0.9716 0.0
H1748 H 0.71579 0.10153 0.01797 0.0
C1749 C 0.71888 0.1581 0.01321 0.0
C1750 C 0.69972 0.12719 0.98842 0.0
C1751 C 0.72623 0.17236 0.01326 0.0
C1752 C 0.69626 0.06293 0.97942 0.0
C1753 C 0.69756 0.07857 0.98137 0.0
C1754 C 0.71089 0.10858 0.00983 0.0
C1755 C 0.71653 0.14893 -0.00016 0.0
C1756 C 0.71014 0.13325 -8e-05 0.0
C1757 C 0.69785 0.08582 0.99579 0.0
C1758 C 0.701 0.10235 0.99793 0.0
H1759 H 0.73259 0.17249 0.97609 0.0
H1760 H 0.71983 0.1476 0.97601 0.0
H1761 H 0.72355 0.12817 0.01972 0.0
H1762 H 0.69413 0.05492 0.01601 0.0
H1763 H 0.69616 0.08225 0.0194 0.0
C1764 C 0.22559 0.66285 0.69922 0.0
C1765 C 0.20984 0.66099 0.69847 0.0
C1766 C 0.23428 0.65046 0.70035 0.0
C1767 C 0.23266 0.60965 0.7073 0.0
H1768 H 0.26416 0.60873 0.6795 0.0
C1769 C 0.2533 0.55541 0.67998 0.0
C1770 C 0.26832 0.55518 0.67631 0.0
C1771 C 0.24798 0.56835 0.68678 0.0
C1772 C 0.25564 0.60888 0.68758 0.0
H1773 H 0.19096 0.64474 0.69934 0.0
H1774 H 0.20605 0.62313 0.7008 0.0
H1775 H 0.25143 0.63162 0.68384 0.0
H1776 H 0.28984 0.56795 0.67804 0.0
H1777 H 0.28055 0.59049 0.68997 0.0
H1778 H 0.23649 0.58659 0.71045 0.0
C1779 C 0.21173 0.63416 0.70068 0.0
C1780 C 0.24831 0.62204 0.69008 0.0
C1781 C 0.20304 0.64655 0.69962 0.0
C1782 C 0.27817 0.56779 0.68059 0.0
C1783 C 0.27283 0.58074 0.68735 0.0
C1784 C 0.23996 0.59643 0.70474 0.0
C1785 C 0.22745 0.63591 0.7007 0.0
C1786 C 0.23649 0.62251 0.6997 0.0
C1787 C 0.25757 0.58133 0.69005 0.0
C1788 C 0.2513 0.59581 0.69458 0.0
H1789 H 0.23122 0.67379 0.69829 0.0
H1790 H 0.24637 0.65226 0.70058 0.0
H1791 H 0.22378 0.60969 0.71499 0.0
H1792 H 0.24543 0.54586 0.67692 0.0
H1793 H 0.23615 0.56844 0.68862 0.0
C1794 C 0.39631 0.33693 0.02733 0.0
C1795 C 0.39552 0.32769 0.01399 0.0
C1796 C 0.38645 0.3483 0.02918 0.0
C1797 C 0.35093 0.36239 0.01353 0.0
H1798 H 0.36855 0.4007 0.03096 0.0
C1799 C 0.33879 0.42876 0.01381 0.0
C1800 C 0.32348 0.42831 0.0165 0.0
C1801 C 0.34688 0.41604 0.01514 0.0
C1802 C 0.36346 0.39008 0.02605 0.0
H1803 H 0.38364 0.32295 0.99223 0.0
H1804 H 0.36657 0.34299 0.99531 0.0
H1805 H 0.38371 0.37909 0.02986 0.0
H1806 H 0.3047 0.41419 0.02294 0.0
H1807 H 0.31894 0.39189 0.0254 0.0
H1808 H 0.33085 0.37364 0.00914 0.0
C1809 C 0.37462 0.34127 0.00448 0.0
C1810 C 0.3721 0.37763 0.02558 0.0
C1811 C 0.38442 0.32983 0.00267 0.0
C1812 C 0.31648 0.41488 0.02078 0.0
C1813 C 0.32461 0.40209 0.0221 0.0
C1814 C 0.34228 0.37488 0.01397 0.0
C1815 C 0.37564 0.35077 0.01768 0.0
C1816 C 0.36602 0.36367 0.01913 0.0
C1817 C 0.33989 0.40253 0.01923 0.0
C1818 C 0.34854 0.38893 0.02001 0.0
H1819 H 0.40458 0.33536 0.03635 0.0
H1820 H 0.38736 0.3552 0.0396 0.0
H1821 H 0.34585 0.35175 0.00867 0.0
H1822 H 0.34453 0.4389 0.01045 0.0
H1823 H 0.35856 0.4167 0.0126 0.0
C1824 C 0.35487 0.62913 0.81151 0.0
C1825 C 0.36537 0.61819 0.80975 0.0
C1826 C 0.35222 0.63526 0.8258 0.0
C1827 C 0.35631 0.62719 0.86583 0.0
H1828 H 0.35121 0.66968 0.87322 0.0
C1829 C 0.35563 0.6545 0.92568 0.0
C1830 C 0.34488 0.66499 0.92833 0.0
C1831 C 0.35801 0.6492 0.91106 0.0
C1832 C 0.35245 0.65776 0.8713 0.0
H1833 H 0.38172 0.60558 0.82162 0.0
H1834 H 0.37712 0.61623 0.84644 0.0
H1835 H 0.35551 0.65971 0.84792 0.0
H1836 H 0.32836 0.67831 0.91765 0.0
H1837 H 0.33247 0.66899 0.89212 0.0
H1838 H 0.35329 0.6252 0.88915 0.0
C1839 C 0.37068 0.61985 0.83683 0.0
C1840 C 0.35491 0.65205 0.8568 0.0
C1841 C 0.37332 0.61373 0.82259 0.0
C1842 C 0.33672 0.67023 0.916 0.0
C1843 C 0.33913 0.66495 0.90136 0.0
C1844 C 0.35387 0.63289 0.88028 0.0
C1845 C 0.36001 0.63059 0.83865 0.0
C1846 C 0.35698 0.63671 0.85392 0.0
C1847 C 0.34972 0.65428 0.89873 0.0
C1848 C 0.35202 0.64826 0.88323 0.0
H1849 H 0.34846 0.63271 0.80187 0.0
H1850 H 0.34383 0.64342 0.82682 0.0
H1851 H 0.35755 0.61526 0.86395 0.0
H1852 H 0.36216 0.65028 0.9349 0.0
H1853 H 0.36642 0.64117 0.90942 0.0
C1854 C 0.02937 0.73834 0.16858 0.0
C1855 C 0.0181 0.73478 0.17826 0.0
C1856 C 0.02866 0.73183 0.15396 0.0
C1857 C 0.0102 0.70179 0.12768 0.0
H1858 H 0.01395 0.73209 0.0987 0.0
C1859 C 0.00711 0.68979 0.06254 0.0
C1860 C 0.99798 0.69918 0.05448 0.0
C1861 C 0.01014 0.69253 0.07803 0.0
C1862 C 0.01288 0.7235 0.10666 0.0
H1863 H 0.99775 0.72086 0.18052 0.0
H1864 H 0.99655 0.70943 0.15494 0.0
H1865 H 0.01913 0.73918 0.12527 0.0
H1866 H 0.9845 0.71848 0.05645 0.0
H1867 H 0.9899 0.72328 0.08333 0.0
H1868 H 0.00367 0.68618 0.10887 0.0
C1869 C 0.00596 0.71723 0.1587 0.0
C1870 C 0.01601 0.72752 0.12186 0.0
C1871 C 0.00665 0.72378 0.17335 0.0
C1872 C 0.99165 0.71108 0.06228 0.0
C1873 C 0.99478 0.71388 0.07767 0.0
C1874 C 0.00722 0.69772 0.11238 0.0
C1875 C 0.01669 0.72158 0.14873 0.0
C1876 C 0.01454 0.71677 0.13256 0.0
C1877 C 0.00422 0.70479 0.08566 0.0
C1878 C 0.00829 0.70862 0.10177 0.0
H1879 H 0.03851 0.74653 0.17215 0.0
H1880 H 0.03724 0.73518 0.14659 0.0
H1881 H 0.00903 0.69328 0.1357 0.0
H1882 H 0.0121 0.68049 0.05685 0.0
H1883 H 0.01748 0.68538 0.08396 0.0
C1884 C 0.69416 0.22602 0.6692 0.0
C1885 C 0.69032 0.21046 0.66822 0.0
C1886 C 0.69251 0.23435 0.65656 0.0
C1887 C 0.68765 0.23167 0.61531 0.0
H1888 H 0.6612 0.26405 0.62053 0.0
C1889 C 0.65191 0.25176 0.56618 0.0
C1890 C 0.64828 0.26681 0.56622 0.0
C1891 C 0.65999 0.24655 0.5784 0.0
C1892 C 0.66888 0.2553 0.61887 0.0
H1893 H 0.68239 0.19145 0.6529 0.0
H1894 H 0.68 0.20591 0.63089 0.0
H1895 H 0.67095 0.25192 0.64235 0.0
H1896 H 0.65076 0.28837 0.57891 0.0
H1897 H 0.6652 0.27935 0.60018 0.0
H1898 H 0.68549 0.23488 0.59183 0.0
C1899 C 0.68425 0.21163 0.64145 0.0
C1900 C 0.67444 0.24833 0.6314 0.0
C1901 C 0.68568 0.20333 0.6541 0.0
C1902 C 0.65327 0.27667 0.57861 0.0
C1903 C 0.6615 0.27148 0.59081 0.0
C1904 C 0.68225 0.23875 0.60279 0.0
C1905 C 0.68726 0.22726 0.64264 0.0
C1906 C 0.68351 0.23616 0.62968 0.0
C1907 C 0.66481 0.2563 0.59093 0.0
C1908 C 0.67239 0.25033 0.60436 0.0
H1909 H 0.6981 0.23184 0.6798 0.0
H1910 H 0.69505 0.24638 0.65773 0.0
H1911 H 0.69478 0.22242 0.61372 0.0
H1912 H 0.6482 0.24386 0.55684 0.0
H1913 H 0.66204 0.23474 0.57818 0.0
C1914 C 0.01622 0.38419 0.34119 0.0
C1915 C 0.01617 0.39964 0.34529 0.0
C1916 C 0.01773 0.3738 0.35214 0.0
C1917 C 0.0306 0.37011 0.3915 0.0
H1918 H 0.00036 0.33701 0.39001 0.0
C1919 C 0.015 0.3403 0.44372 0.0
C1920 C 0.00957 0.32517 0.44235 0.0
C1921 C 0.0187 0.34774 0.43108 0.0
C1922 C 0.00913 0.34595 0.39047 0.0
H1923 H 0.01772 0.41619 0.3642 0.0
H1924 H 0.02066 0.3981 0.38321 0.0
H1925 H 0.00136 0.35322 0.36918 0.0
H1926 H 0.00472 0.3057 0.42674 0.0
H1927 H 0.0115 0.31864 0.40466 0.0
H1928 H 0.03828 0.363 0.41285 0.0
C1929 C 0.01964 0.39407 0.3715 0.0
C1930 C 0.00965 0.35528 0.37853 0.0
C1931 C 0.01798 0.40444 0.36059 0.0
C1932 C 0.00875 0.3174 0.42815 0.0
C1933 C 0.01255 0.32484 0.41549 0.0
C1934 C 0.03018 0.3607 0.40337 0.0
C1935 C 0.0194 0.37864 0.3674 0.0
C1936 C 0.02012 0.36768 0.37912 0.0
C1937 C 0.01718 0.34021 0.41675 0.0
C1938 C 0.01916 0.34876 0.4032 0.0
H1939 H 0.01515 0.3801 0.32951 0.0
H1940 H 0.01762 0.36197 0.34867 0.0
H1941 H 0.03895 0.37946 0.39212 0.0
H1942 H 0.01579 0.34662 0.45449 0.0
H1943 H 0.02204 0.35961 0.4325 0.0
C1944 C 0.29643 0.56708 0.48098 0.0
C1945 C 0.28727 0.57922 0.47976 0.0
C1946 C 0.29687 0.55906 0.49391 0.0
C1947 C 0.27571 0.55136 0.52712 0.0
H1948 H 0.31428 0.54193 0.54498 0.0
C1949 C 0.28415 0.53759 0.58865 0.0
C1950 C 0.29395 0.52657 0.59253 0.0
C1951 C 0.2828 0.54211 0.57404 0.0
C1952 C 0.30339 0.54424 0.54 0.0
H1953 H 0.27151 0.59254 0.49125 0.0
H1954 H 0.27225 0.57858 0.51374 0.0
H1955 H 0.31297 0.55353 0.52101 0.0
H1956 H 0.30985 0.51144 0.5839 0.0
H1957 H 0.30748 0.51932 0.55822 0.0
H1958 H 0.26615 0.54233 0.54622 0.0
C1959 C 0.27892 0.57508 0.50461 0.0
C1960 C 0.30265 0.55091 0.52627 0.0
C1961 C 0.27849 0.5831 0.49171 0.0
C1962 C 0.30222 0.51995 0.58131 0.0
C1963 C 0.30091 0.52454 0.56663 0.0
C1964 C 0.27645 0.5447 0.54082 0.0
C1965 C 0.28813 0.56299 0.50588 0.0
C1966 C 0.28882 0.5548 0.51982 0.0
C1967 C 0.29125 0.53574 0.56286 0.0
C1968 C 0.29033 0.54132 0.54756 0.0
H1969 H 0.30316 0.56366 0.47188 0.0
H1970 H 0.30395 0.5497 0.49448 0.0
H1971 H 0.26485 0.55394 0.52228 0.0
H1972 H 0.27758 0.54296 0.59701 0.0
H1973 H 0.27544 0.55092 0.57159 0.0
C1974 C 0.23245 0.37428 0.90008 0.0
C1975 C 0.24351 0.36684 0.89261 0.0
C1976 C 0.23648 0.38585 0.91112 0.0
C1977 C 0.26939 0.40316 0.93527 0.0
H1978 H 0.24543 0.43775 0.93734 0.0
C1979 C 0.28644 0.45314 0.97753 0.0
C1980 C 0.28392 0.46764 0.97323 0.0
C1981 C 0.28014 0.4405 0.96895 0.0
C1982 C 0.25236 0.42826 0.93682 0.0
H1983 H 0.26753 0.36539 0.89145 0.0
H1984 H 0.27449 0.38591 0.90989 0.0
H1985 H 0.23737 0.41637 0.92001 0.0
H1986 H 0.27325 0.48025 0.95613 0.0
H1987 H 0.26293 0.45823 0.94063 0.0
H1988 H 0.28492 0.41534 0.95122 0.0
C1989 C 0.26268 0.38269 0.90755 0.0
C1990 C 0.24758 0.41584 0.92704 0.0
C1991 C 0.25867 0.37104 0.89671 0.0
C1992 C 0.27521 0.46921 0.95989 0.0
C1993 C 0.26915 0.45655 0.95108 0.0
C1994 C 0.2743 0.41565 0.94481 0.0
C1995 C 0.25166 0.39034 0.91487 0.0
C1996 C 0.25612 0.40317 0.92601 0.0
C1997 C 0.27158 0.44199 0.95546 0.0
C1998 C 0.26592 0.42844 0.94568 0.0
H1999 H 0.22066 0.37143 0.89717 0.0
H2000 H 0.22767 0.39129 0.91667 0.0
H2001 H 0.27615 0.39353 0.93507 0.0
H2002 H 0.29383 0.45142 0.98715 0.0
H2003 H 0.28221 0.42955 0.97284 0.0
C2004 C 0.74722 0.00091 0.46161 0.0
C2005 C 0.7389 0.99176 0.47074 0.0
C2006 C 0.74286 0.00147 0.44639 0.0
C2007 C 0.70961 0.99451 0.41988 0.0
H2008 H 0.73858 0.99663 0.38951 0.0
C2009 C 0.69128 0.99311 0.35691 0.0
C2010 C 0.69904 0.00334 0.34841 0.0
C2011 C 0.69661 0.99075 0.37153 0.0
C2012 C 0.73036 0.99616 0.39789 0.0
H2013 H 0.71992 0.97551 0.47092 0.0
H2014 H 0.71236 0.97644 0.44441 0.0
H2015 H 0.74718 0.99428 0.41563 0.0
H2016 H 0.71834 0.01921 0.34854 0.0
H2017 H 0.72755 0.01523 0.37411 0.0
H2018 H 0.69281 0.99653 0.40222 0.0
C2019 C 0.72205 0.98344 0.44906 0.0
C2020 C 0.73529 0.99482 0.41285 0.0
C2021 C 0.72638 0.9829 0.46425 0.0
C2022 C 0.7122 0.01117 0.35481 0.0
C2023 C 0.71753 0.0088 0.36941 0.0
C2024 C 0.70469 0.99584 0.40495 0.0
C2025 C 0.73012 0.99287 0.43998 0.0
C2026 C 0.72496 0.99402 0.42402 0.0
C2027 C 0.70975 0.99864 0.37798 0.0
C2028 C 0.715 0.99673 0.39378 0.0
H2029 H 0.75683 0.00797 0.46632 0.0
H2030 H 0.74923 0.00897 0.43974 0.0
H2031 H 0.70137 0.99419 0.42825 0.0
H2032 H 0.68083 0.98732 0.3525 0.0
H2033 H 0.69037 0.98281 0.37782 0.0
C2034 C 0.70567 0.99056 0.13697 0.0
C2035 C 0.71177 0.00409 0.1443 0.0
C2036 C 0.70546 0.98836 0.1214 0.0
C2037 C 0.72328 0.00238 0.08828 0.0
H2038 H 0.68934 0.97989 0.06675 0.0
C2039 C 0.71617 0.99385 0.02327 0.0
C2040 C 0.71188 0.97912 0.0176 0.0
C2041 C 0.7161 0.99775 0.03865 0.0
C2042 C 0.69893 0.98613 0.07263 0.0
H2043 H 0.72226 0.02604 0.14108 0.0
H2044 H 0.72166 0.02233 0.11377 0.0
H2045 H 0.68905 0.98538 0.09371 0.0
H2046 H 0.70452 0.95684 0.02348 0.0
H2047 H 0.70432 0.96363 0.05029 0.0
H2048 H 0.73307 0.00316 0.06706 0.0
C2049 C 0.7173 0.01329 0.12009 0.0
C2050 C 0.69879 0.98924 0.08809 0.0
C2051 C 0.71761 0.01544 0.13572 0.0
C2052 C 0.70778 0.96831 0.02756 0.0
C2053 C 0.70757 0.97221 0.04287 0.0
C2054 C 0.72335 0.99936 0.07277 0.0
C2055 C 0.71123 0.9997 0.11274 0.0
C2056 C 0.71106 0.99721 0.09615 0.0
C2057 C 0.71165 0.98699 0.04857 0.0
C2058 C 0.71127 0.99102 0.06484 0.0
H2059 H 0.70133 0.98151 0.14332 0.0
H2060 H 0.701 0.97764 0.11617 0.0
H2061 H 0.73299 0.00839 0.09415 0.0
H2062 H 0.71983 0.00229 0.01589 0.0
H2063 H 0.71934 0.00921 0.04276 0.0
C2064 C 0.49714 0.29813 0.59274 0.0
C2065 C 0.48448 0.28841 0.58833 0.0
C2066 C 0.51013 0.29761 0.58487 0.0
C2067 C 0.52924 0.27327 0.55798 0.0
H2068 H 0.55042 0.31056 0.5493 0.0
C2069 C 0.57213 0.27599 0.51282 0.0
C2070 C 0.58553 0.28487 0.51625 0.0
C2071 C 0.56044 0.27645 0.52243 0.0
C2072 C 0.54473 0.30005 0.55179 0.0
H2073 H 0.47551 0.27064 0.57207 0.0
H2074 H 0.49807 0.26978 0.55831 0.0
H2075 H 0.52886 0.31119 0.5647 0.0
H2076 H 0.59691 0.30175 0.53209 0.0
H2077 H 0.57652 0.30243 0.54903 0.0
H2078 H 0.54494 0.26215 0.54484 0.0
C2079 C 0.49811 0.27761 0.56804 0.0
C2080 C 0.53239 0.3004 0.56063 0.0
C2081 C 0.48515 0.27811 0.57593 0.0
C2082 C 0.58689 0.29447 0.52936 0.0
C2083 C 0.57514 0.29501 0.53895 0.0
C2084 C 0.54152 0.27293 0.5491 0.0
C2085 C 0.51075 0.28738 0.57238 0.0
C2086 C 0.52439 0.28702 0.56369 0.0
C2087 C 0.56182 0.28591 0.53563 0.0
C2088 C 0.5493 0.28631 0.54576 0.0
H2089 H 0.49704 0.30608 0.60236 0.0
H2090 H 0.51974 0.30515 0.58864 0.0
H2091 H 0.52354 0.26274 0.56036 0.0
H2092 H 0.57072 0.26853 0.50275 0.0
H2093 H 0.55023 0.26949 0.51943 0.0
C2094 C 0.13667 0.71828 0.98685 0.0
C2095 C 0.14417 0.72613 0.99949 0.0
C2096 C 0.12104 0.71663 0.98548 0.0
C2097 C 0.08688 0.7323 0.99936 0.0
H2098 H 0.06829 0.6938 0.98352 0.0
C2099 C 0.02397 0.72324 0.97997 0.0
C2100 C 0.01639 0.7096 0.98284 0.0
C2101 C 0.03943 0.7256 0.98327 0.0
C2102 C 0.07327 0.70457 0.98813 0.0
H2103 H 0.14114 0.73853 0.02055 0.0
H2104 H 0.11376 0.73559 0.01818 0.0
H2105 H 0.09546 0.69725 0.9869 0.0
H2106 H 0.01919 0.68754 0.99094 0.0
H2107 H 0.04602 0.69182 0.99722 0.0
H2108 H 0.06462 0.73954 0.00076 0.0
C2109 C 0.12 0.73085 0.00925 0.0
C2110 C 0.08887 0.70662 0.98987 0.0
C2111 C 0.13567 0.73253 0.01061 0.0
C2112 C 0.02457 0.69838 0.98912 0.0
C2113 C 0.04003 0.70073 0.99244 0.0
C2114 C 0.07124 0.73025 0.99762 0.0
C2115 C 0.11251 0.72276 0.99672 0.0
C2116 C 0.09588 0.72054 0.99538 0.0
C2117 C 0.04767 0.7143 0.9894 0.0
C2118 C 0.06426 0.71638 0.9919 0.0
H2119 H 0.1429 0.71347 0.97795 0.0
H2120 H 0.11563 0.71062 0.97553 0.0
H2121 H 0.09193 0.74319 0.00354 0.0
H2122 H 0.01796 0.73205 0.97501 0.0
H2123 H 0.04499 0.7361 0.98058 0.0
C2124 C 0.88715 0.27075 0.36442 0.0
C2125 C 0.8874 0.2563 0.35736 0.0
C2126 C 0.89729 0.27547 0.37648 0.0
C2127 C 0.92051 0.2608 0.40678 0.0
H2128 H 0.93505 0.3026 0.41313 0.0
C2129 C 0.95452 0.2856 0.46121 0.0
C2130 C 0.94853 0.29846 0.46763 0.0
C2131 C 0.94959 0.27996 0.44667 0.0
C2132 C 0.93112 0.29088 0.41148 0.0
H2133 H 0.89882 0.23561 0.35722 0.0
H2134 H 0.91661 0.2439 0.37839 0.0
H2135 H 0.92222 0.29355 0.38917 0.0
H2136 H 0.93281 0.31554 0.46397 0.0
H2137 H 0.92433 0.30583 0.43863 0.0
H2138 H 0.92923 0.25827 0.42927 0.0
C2139 C 0.90843 0.25151 0.37463 0.0
C2140 C 0.92373 0.2857 0.39778 0.0
C2141 C 0.89824 0.24676 0.36251 0.0
C2142 C 0.93763 0.30562 0.45927 0.0
C2143 C 0.93288 0.30013 0.44473 0.0
C2144 C 0.92802 0.26597 0.42047 0.0
C2145 C 0.90797 0.26588 0.38184 0.0
C2146 C 0.91789 0.27072 0.39544 0.0
C2147 C 0.93875 0.28722 0.43829 0.0
C2148 C 0.93296 0.28117 0.4231 0.0
H2149 H 0.87875 0.27827 0.36099 0.0
H2150 H 0.89636 0.28648 0.38195 0.0
H2151 H 0.91607 0.24922 0.40539 0.0
H2152 H 0.96274 0.27971 0.46753 0.0
H2153 H 0.95425 0.26995 0.44198 0.0
C2154 C 0.46405 0.72436 0.97995 0.0
C2155 C 0.47077 0.73679 0.9888 0.0
C2156 C 0.44877 0.72037 0.98043 0.0
C2157 C 0.41297 0.73489 0.99157 0.0
H2158 H 0.40068 0.6927 0.99317 0.0
C2159 C 0.35435 0.71448 0.00826 0.0
C2160 C 0.34721 0.70169 0.00035 0.0
C2161 C 0.36917 0.71899 0.00589 0.0
C2162 C 0.40389 0.70451 0.99251 0.0
H2163 H 0.46669 0.75483 0.00504 0.0
H2164 H 0.44 0.74785 0.00593 0.0
H2165 H 0.42699 0.70027 0.99079 0.0
H2166 H 0.35024 0.68319 0.98427 0.0
H2167 H 0.37601 0.69129 0.97975 0.0
H2168 H 0.38987 0.73912 0.99346 0.0
C2169 C 0.44652 0.7413 0.99845 0.0
C2170 C 0.41897 0.70885 0.99116 0.0
C2171 C 0.46181 0.7453 0.99795 0.0
C2172 C 0.35524 0.69339 0.99012 0.0
C2173 C 0.37011 0.69789 0.98775 0.0
C2174 C 0.39788 0.73054 0.99293 0.0
C2175 C 0.43984 0.72871 0.98978 0.0
C2176 C 0.42371 0.7241 0.99076 0.0
C2177 C 0.37725 0.71073 0.99563 0.0
C2178 C 0.39318 0.71531 0.99352 0.0
H2179 H 0.4706 0.71773 0.97258 0.0
H2180 H 0.44392 0.71077 0.97342 0.0
H2181 H 0.41621 0.7467 0.99105 0.0
H2182 H 0.34845 0.72102 0.01631 0.0
H2183 H 0.37441 0.72878 0.01233 0.0
C2184 C 0.57462 0.49077 0.29827 0.0
C2185 C 0.58866 0.49089 0.29205 0.0
C2186 C 0.56637 0.50352 0.29841 0.0
C2187 C 0.56233 0.53888 0.27974 0.0
H2188 H 0.53952 0.54928 0.31391 0.0
C2189 C 0.5302 0.59283 0.28374 0.0
C2190 C 0.51555 0.59124 0.28847 0.0
C2191 C 0.53983 0.5812 0.285 0.0
C2192 C 0.54576 0.54646 0.30425 0.0
H2193 H 0.60514 0.50455 0.2813 0.0
H2194 H 0.59078 0.5269 0.28164 0.0
H2195 H 0.55514 0.5279 0.31454 0.0
H2196 H 0.49944 0.5762 0.29811 0.0
H2197 H 0.51625 0.55582 0.30029 0.0
H2198 H 0.5529 0.55742 0.26944 0.0
C2199 C 0.58604 0.51686 0.2862 0.0
C2200 C 0.55469 0.5342 0.30459 0.0
C2201 C 0.59428 0.50407 0.28601 0.0
C2202 C 0.51073 0.57778 0.29451 0.0
C2203 C 0.52038 0.56616 0.29584 0.0
C2204 C 0.55344 0.55118 0.27943 0.0
C2205 C 0.57196 0.51672 0.29237 0.0
C2206 C 0.56298 0.53017 0.29229 0.0
C2207 C 0.535 0.56769 0.29098 0.0
C2208 C 0.54496 0.55503 0.29163 0.0
H2209 H 0.56986 0.48071 0.30279 0.0
H2210 H 0.55545 0.50291 0.30299 0.0
H2211 H 0.56838 0.53598 0.26998 0.0
H2212 H 0.53406 0.60281 0.27853 0.0
H2213 H 0.55103 0.58273 0.28119 0.0
C2214 C 0.01582 0.1267 0.70466 0.0
C2215 C 0.01087 0.13596 0.71638 0.0
C2216 C 0.01343 0.11111 0.7045 0.0
C2217 C 0.00496 0.07992 0.72836 0.0
H2218 H 0.98846 0.05923 0.69108 0.0
C2219 C 0.97857 0.01914 0.72514 0.0
C2220 C 0.98084 0.00973 0.71246 0.0
C2221 C 0.98352 0.03431 0.72591 0.0
C2222 C 0.9933 0.06476 0.70152 0.0
H2223 H -0.00033 0.13603 0.7372 0.0
H2224 H 0.99569 0.10881 0.73698 0.0
H2225 H 0.99505 0.0861 0.69197 0.0
H2226 H 0.98947 0.00898 0.69035 0.0
H2227 H 0.99869 0.03524 0.69192 0.0
H2228 H 0.00319 0.05858 0.73792 0.0
C2229 C 0.00151 0.11363 0.72799 0.0
C2230 C 0.99705 0.08018 0.70203 0.0
C2231 C 0.00382 0.12923 0.72812 0.0
C2232 C 0.98809 0.01579 0.70052 0.0
C2233 C 0.99308 0.03094 0.7013 0.0
C2234 C 0.00129 0.06447 0.72783 0.0
C2235 C 0.00613 0.10442 0.71609 0.0
C2236 C 0.00282 0.08794 0.71547 0.0
C2237 C 0.99076 0.04042 0.71396 0.0
C2238 C 0.99531 0.05672 0.71443 0.0
H2239 H 0.02153 0.1315 0.69559 0.0
H2240 H 0.01731 0.10428 0.69529 0.0
H2241 H 0.00955 0.08558 0.73883 0.0
H2242 H 0.97285 0.01479 0.73444 0.0
H2243 H 0.9813 0.04133 0.73572 0.0
C2244 C 0.37142 0.88383 0.2675 0.0
C2245 C 0.36254 0.88418 0.25403 0.0
C2246 C 0.38319 0.89462 0.27124 0.0
C2247 C 0.40898 0.92171 0.25471 0.0
H2248 H 0.41645 0.93746 0.29601 0.0
C2249 C 0.45524 0.96858 0.27404 0.0
C2250 C 0.4634 0.96678 0.28765 0.0
C2251 C 0.44274 0.95887 0.26935 0.0
C2252 C 0.41459 0.93306 0.28445 0.0
H2253 H 0.359 0.89632 0.23401 0.0
H2254 H 0.37964 0.91523 0.24058 0.0
H2255 H 0.39461 0.92029 0.28904 0.0
H2256 H 0.46534 0.95302 0.30668 0.0
H2257 H 0.44371 0.93597 0.29844 0.0
H2258 H 0.42906 0.93447 0.25018 0.0
C2259 C 0.37754 0.90647 0.24816 0.0
C2260 C 0.40207 0.92323 0.28046 0.0
C2261 C 0.36571 0.89565 0.2444 0.0
C2262 C 0.4592 0.95475 0.29618 0.0
C2263 C 0.44672 0.94508 0.29154 0.0
C2264 C 0.42153 0.93158 0.25872 0.0
C2265 C 0.38643 0.90605 0.26161 0.0
C2266 C 0.39922 0.91728 0.26558 0.0
C2267 C 0.43821 0.94716 0.27819 0.0
C2268 C 0.42457 0.9372 0.27368 0.0
H2269 H 0.36952 0.87497 0.27502 0.0
H2270 H 0.38999 0.89379 0.28155 0.0
H2271 H 0.40719 0.9172 0.24319 0.0
H2272 H 0.4585 0.97747 0.267 0.0
H2273 H 0.43645 0.96073 0.25899 0.0
C2274 C 0.98206 0.46341 0.74493 0.0
C2275 C 0.99223 0.47446 0.74019 0.0
C2276 C 0.98303 0.44829 0.74031 0.0
C2277 C 0.99834 0.4243 0.71061 0.0
H2278 H 0.993 0.39275 0.73799 0.0
C2279 C 0.01489 0.36409 0.69701 0.0
C2280 C 0.00509 0.3522 0.70067 0.0
C2281 C 0.01246 0.37887 0.70166 0.0
C2282 C 0.99432 0.40142 0.73017 0.0
H2283 H 0.01181 0.47825 0.72748 0.0
H2284 H 0.01357 0.45195 0.71953 0.0
H2285 H 0.99052 0.41883 0.74675 0.0
H2286 H 0.98548 0.34639 0.71267 0.0
H2287 H 0.98103 0.37229 0.72056 0.0
H2288 H 0.00231 0.40694 0.69408 0.0
C2289 C 0.0046 0.45497 0.72649 0.0
C2290 C 0.99291 0.41636 0.73518 0.0
C2291 C 0.00362 0.47004 0.73107 0.0
C2292 C 0.99292 0.35536 0.70925 0.0
C2293 C 0.99052 0.37016 0.71398 0.0
C2294 C -0.00022 0.4094 0.70561 0.0
C2295 C 0.99422 0.44393 0.73089 0.0
C2296 C 0.99507 0.42798 0.7255 0.0
C2297 C 0.00026 0.38208 0.71022 0.0
C2298 C 0.99795 0.39781 0.71537 0.0
H2299 H 0.97309 0.4665 0.75185 0.0
H2300 H 0.9748 0.44006 0.74381 0.0
H2301 H -0.00025 0.43295 0.70277 0.0
H2302 H 0.02444 0.36196 0.69051 0.0
H2303 H 0.0203 0.38778 0.69878 0.0
C2304 C 0.70108 0.42644 0.51421 0.0
C2305 C 0.71474 0.42552 0.52262 0.0
C2306 C 0.70064 0.43346 0.5007 0.0
C2307 C 0.72234 0.46018 0.47901 0.0
H2308 H 0.69646 0.44227 0.44549 0.0
C2309 C 0.7264 0.47724 0.41804 0.0
C2310 C 0.71296 0.4778 0.40914 0.0
C2311 C 0.72625 0.4721 0.43246 0.0
C2312 C 0.70358 0.44753 0.4548 0.0
H2313 H 0.73866 0.43137 0.52342 0.0
H2314 H 0.73795 0.44326 0.49963 0.0
H2315 H 0.6971 0.43051 0.46931 0.0
H2316 H 0.68876 0.47394 0.4087 0.0
H2317 H 0.68852 0.46504 0.4339 0.0
H2318 H 0.72898 0.47708 0.46435 0.0
C2319 C 0.72754 0.43874 0.50361 0.0
C2320 C 0.70397 0.44079 0.46846 0.0
C2321 C 0.72797 0.43174 0.51715 0.0
C2322 C 0.69933 0.47361 0.41521 0.0
C2323 C 0.69919 0.46841 0.42961 0.0
C2324 C 0.72199 0.4669 0.46532 0.0
C2325 C 0.71386 0.43969 0.49521 0.0
C2326 C 0.71337 0.447 0.48073 0.0
C2327 C 0.71266 0.46735 0.43829 0.0
C2328 C 0.71264 0.46063 0.45305 0.0
H2329 H 0.6907 0.4216 0.51799 0.0
H2330 H 0.68989 0.43411 0.49461 0.0
H2331 H 0.72953 0.46539 0.4883 0.0
H2332 H 0.7371 0.4804 0.41372 0.0
H2333 H 0.73683 0.47132 0.43881 0.0
C2334 C 0.73677 0.6268 0.101 0.0
C2335 C 0.74886 0.63749 0.10031 0.0
C2336 C 0.73415 0.61499 0.09001 0.0
C2337 C 0.74352 0.60214 0.05167 0.0
H2338 H 0.73377 0.56256 0.0652 0.0
C2339 C 0.74832 0.54767 0.0147 0.0
C2340 C 0.73678 0.53634 0.01491 0.0
C2341 C 0.74882 0.56037 0.02467 0.0
C2342 C 0.7363 0.57356 0.06121 0.0
H2343 H 0.76734 0.64442 0.0872 0.0
H2344 H 0.763 0.62363 0.06824 0.0
H2345 H 0.73621 0.58424 0.08323 0.0
H2346 H 0.71715 0.52902 0.02619 0.0
H2347 H 0.71784 0.55134 0.04344 0.0
H2348 H 0.74388 0.59135 0.02967 0.0
C2349 C 0.75544 0.62445 0.07719 0.0
C2350 C 0.73767 0.58601 0.07154 0.0
C2351 C 0.75804 0.63628 0.08817 0.0
C2352 C 0.7259 0.53781 0.02546 0.0
C2353 C 0.72643 0.55048 0.03548 0.0
C2354 C 0.7422 0.58968 0.04134 0.0
C2355 C 0.74357 0.61355 0.07808 0.0
C2356 C 0.7414 0.60044 0.06692 0.0
C2357 C 0.73789 0.56191 0.03518 0.0
C2358 C 0.73868 0.57524 0.04602 0.0
H2359 H 0.72957 0.62729 0.11027 0.0
H2360 H 0.72479 0.6069 0.09093 0.0
H2361 H 0.74617 0.61312 0.04768 0.0
H2362 H 0.75691 0.54677 0.00674 0.0
H2363 H 0.75793 0.56887 0.02432 0.0
C2364 C 0.26665 0.01343 0.53915 0.0
C2365 C 0.27159 0.00206 0.52947 0.0
C2366 C 0.27045 0.01389 0.55455 0.0
C2367 C 0.29737 0.99979 0.58255 0.0
H2368 H 0.26704 0.0088 0.61026 0.0
C2369 C 0.3105 0.00425 0.64667 0.0
C2370 C 0.29977 0.99729 0.65521 0.0
C2371 C 0.30721 0.00621 0.63148 0.0
C2372 C 0.27562 0.00622 0.60267 0.0
H2373 H 0.28423 0.98216 0.52836 0.0
H2374 H 0.29077 0.98288 0.55524 0.0
H2375 H 0.26106 0.00917 0.58337 0.0
H2376 H 0.27723 0.98683 0.65456 0.0
H2377 H 0.27155 0.99001 0.62803 0.0
H2378 H 0.31176 0.99632 0.60181 0.0
C2379 C 0.2842 0.99162 0.5509 0.0
C2380 C 0.27225 0.00659 0.58726 0.0
C2381 C 0.28044 0.99118 0.53551 0.0
C2382 C 0.28569 0.99233 0.64827 0.0
C2383 C 0.2824 0.99427 0.6331 0.0
C2384 C 0.30073 0.9994 0.59795 0.0
C2385 C 0.27925 0.00297 0.56061 0.0
C2386 C 0.28304 0.00324 0.57701 0.0
C2387 C 0.29315 0.00115 0.6245 0.0
C2388 C 0.28985 0.00246 0.60819 0.0
H2389 H 0.26 0.02209 0.53479 0.0
H2390 H 0.26663 0.02291 0.56168 0.0
H2391 H 0.306 0.99735 0.57496 0.0
H2392 H 0.32162 0.0077 0.65154 0.0
H2393 H 0.31572 0.0116 0.62517 0.0
C2394 C 0.2932 0.00231 0.84902 0.0
C2395 C 0.28129 0.00892 0.84154 0.0
C2396 C 0.29432 0.00237 0.86464 0.0
C2397 C 0.2818 0.02231 0.89852 0.0
H2398 H 0.29691 0.98826 0.91805 0.0
C2399 C 0.28587 0.01799 0.96313 0.0
C2400 C 0.29941 0.01301 0.9692 0.0
C2401 C 0.2828 0.01749 0.94759 0.0
C2402 C 0.29275 0.99788 0.91274 0.0
H2403 H 0.2611 0.02065 0.84465 0.0
H2404 H 0.26282 0.02037 0.87193 0.0
H2405 H 0.29266 0.9869 0.89084 0.0
H2406 H 0.32041 0.00381 0.96368 0.0
H2407 H 0.31502 0.00294 0.93665 0.0
H2408 H 0.28187 0.03323 0.92053 0.0
C2409 C 0.27144 0.01535 0.8657 0.0
C2410 C 0.29034 0.99712 0.89716 0.0
C2411 C 0.27035 0.01535 0.85005 0.0
C2412 C 0.30986 0.00771 0.9594 0.0
C2413 C 0.30674 0.00711 0.94391 0.0
C2414 C 0.28411 0.02302 0.91414 0.0
C2415 C 0.2835 0.00895 0.87318 0.0
C2416 C 0.28505 0.00941 0.88983 0.0
C2417 C 0.29315 0.01189 0.93784 0.0
C2418 C 0.28983 0.01089 0.92138 0.0
H2419 H 0.30171 0.99708 0.84281 0.0
H2420 H 0.30385 0.9975 0.87002 0.0
H2421 H 0.27789 0.03204 0.89324 0.0
H2422 H 0.27758 0.02214 0.97038 0.0
H2423 H 0.2722 0.0212 0.9432 0.0
C2424 C 0.51746 0.71453 0.41794 0.0
C2425 C 0.53076 0.71101 0.42571 0.0
C2426 C 0.50413 0.71511 0.42522 0.0
C2427 C 0.48582 0.70218 0.45856 0.0
H2428 H 0.45803 0.73218 0.44866 0.0
C2429 C 0.42445 0.69932 0.47558 0.0
C2430 C 0.41784 0.71288 0.47893 0.0
C2431 C 0.4389 0.6994 0.47047 0.0
C2432 C 0.46573 0.72384 0.45173 0.0
H2433 H 0.54057 0.70563 0.44731 0.0
H2434 H 0.51734 0.70683 0.46009 0.0
H2435 H 0.48191 0.73211 0.43715 0.0
H2436 H 0.42155 0.73714 0.48031 0.0
H2437 H 0.44683 0.73726 0.47177 0.0
H2438 H 0.46973 0.6941 0.47337 0.0
C2439 C 0.51714 0.70885 0.44828 0.0
C2440 C 0.47935 0.72367 0.44494 0.0
C2441 C 0.53046 0.70819 0.44097 0.0
C2442 C 0.42625 0.72649 0.47769 0.0
C2443 C 0.44072 0.72656 0.47268 0.0
C2444 C 0.4722 0.7024 0.46541 0.0
C2445 C 0.50379 0.71227 0.44049 0.0
C2446 C 0.48952 0.71276 0.44816 0.0
C2447 C 0.44711 0.71303 0.46869 0.0
C2448 C 0.46194 0.71316 0.462 0.0
H2449 H 0.51728 0.71653 0.40612 0.0
H2450 H 0.49402 0.71751 0.41878 0.0
H2451 H 0.49332 0.69353 0.46121 0.0
H2452 H 0.41827 0.68864 0.47637 0.0
H2453 H 0.4434 0.68876 0.46737 0.0
C2454 C 0.85404 0.29904 0.98904 0.0
C2455 C 0.84667 0.28595 0.99365 0.0
C2456 C 0.86964 0.30037 0.98886 0.0
C2457 C 0.90355 0.285 0.0059 0.0
H2458 H 0.92335 0.30833 0.97685 0.0
C2459 C 0.96805 0.29543 0.00742 0.0
C2460 C 0.973 0.3106 0.00702 0.0
C2461 C 0.95297 0.2908 0.0039 0.0
C2462 C 0.91796 0.30178 0.98503 0.0
H2463 H 0.85 0.26379 0.00133 0.0
H2464 H 0.87721 0.26591 0.00057 0.0
H2465 H 0.89626 0.30281 0.97389 0.0
H2466 H 0.9662 0.33278 0.00244 0.0
H2467 H 0.93989 0.32468 0.99615 0.0
H2468 H 0.92531 0.28407 0.01705 0.0
C2469 C 0.87092 0.27529 0.99737 0.0
C2470 C 0.90244 0.29866 0.98338 0.0
C2471 C 0.85528 0.274 0.99763 0.0
C2472 C 0.96268 0.321 0.00277 0.0
C2473 C 0.94766 0.31635 0.99908 0.0
C2474 C 0.91909 0.288 0.00745 0.0
C2475 C 0.87831 0.28858 0.99317 0.0
C2476 C 0.89499 0.29052 0.99399 0.0
C2477 C 0.94261 0.30125 -0.00019 0.0
C2478 C 0.92641 0.29668 0.99721 0.0
H2479 H 0.84776 0.30838 0.98566 0.0
H2480 H 0.87491 0.31085 0.98574 0.0
H2481 H 0.89821 0.27888 0.01441 0.0
H2482 H 0.97569 0.28724 0.01101 0.0
H2483 H 0.94936 0.27909 0.00456 0.0
C2484 C 0.11071 0.73705 0.6183 0.0
C2485 C 0.11068 0.74808 0.63019 0.0
C2486 C 0.09882 0.73518 0.60734 0.0
C2487 C 0.06799 0.75532 0.59037 0.0
H2488 H 0.05272 0.71551 0.57483 0.0
C2489 C 0.01487 0.74523 0.54999 0.0
C2490 C 0.01504 0.73401 0.53833 0.0
C2491 C 0.02649 0.74703 0.56126 0.0
C2492 C 0.05696 0.72671 0.57893 0.0
H2493 H 0.09789 0.76552 0.64009 0.0
H2494 H 0.07714 0.76226 0.62096 0.0
H2495 H 0.07288 0.71827 0.59458 0.0
H2496 H 0.02801 0.71662 0.52871 0.0
H2497 H 0.04823 0.71965 0.5484 0.0
H2498 H 0.05213 0.76377 0.57468 0.0
C2499 C 0.08649 0.75522 0.61999 0.0
C2500 C 0.06851 0.72829 0.59026 0.0
C2501 C 0.09838 0.75708 0.63095 0.0
C2502 C 0.02728 0.72495 0.53788 0.0
C2503 C 0.0389 0.72675 0.54913 0.0
C2504 C 0.05645 0.75374 0.57903 0.0
C2505 C 0.08661 0.74431 0.608 0.0
C2506 C 0.07418 0.74261 0.5961 0.0
C2507 C 0.03858 0.73772 0.56103 0.0
C2508 C 0.05082 0.73942 0.57315 0.0
H2509 H 0.12011 0.73009 0.61725 0.0
H2510 H 0.09936 0.72682 0.59815 0.0
H2511 H 0.07225 0.76651 0.59446 0.0
H2512 H 0.00558 0.75241 0.55057 0.0
H2513 H 0.02583 0.75552 0.57032 0.0
C2514 C 0.52926 0.26447 0.98979 0.0
C2515 C 0.52384 0.25872 0.00282 0.0
C2516 C 0.5444 0.26916 0.98932 0.0
C2517 C 0.57821 0.28189 0.01327 0.0
H2518 H 0.59941 0.26883 0.97883 0.0
C2519 C 0.64281 0.28943 0.01221 0.0
C2520 C 0.64884 0.29252 0.99854 0.0
C2521 C 0.62739 0.28614 0.01286 0.0
C2522 C 0.59363 0.2728 0.98843 0.0
H2523 H 0.52996 0.25364 0.02567 0.0
H2524 H 0.55643 0.26182 0.02485 0.0
H2525 H 0.57282 0.26162 0.97964 0.0
H2526 H 0.64353 0.29483 0.9749 0.0
H2527 H 0.61662 0.28951 0.97606 0.0
H2528 H 0.59897 0.29319 0.02202 0.0
C2529 C 0.54896 0.26271 0.01501 0.0
C2530 C 0.57839 0.26862 0.9889 0.0
C2531 C 0.53385 0.25789 0.01543 0.0
C2532 C 0.63917 0.29246 0.98559 0.0
C2533 C 0.62376 0.28931 0.98625 0.0
C2534 C 0.59345 0.28619 0.01275 0.0
C2535 C 0.55441 0.26832 0.00193 0.0
C2536 C 0.57053 0.27306 0.00135 0.0
C2537 C 0.61768 0.28591 -0.00014 0.0
C2538 C 0.60137 0.28165 0.00034 0.0
H2539 H 0.52184 0.26515 0.97987 0.0
H2540 H 0.54826 0.27354 0.97912 0.0
H2541 H 0.57239 0.28562 0.02294 0.0
H2542 H 0.65004 0.28894 0.02228 0.0
H2543 H 0.62317 0.2833 0.02348 0.0
C2544 C 0.4143 0.51136 0.69015 0.0
C2545 C 0.41274 0.51928 0.70397 0.0
C2546 C 0.4203 0.49731 0.6896 0.0
C2547 C 0.44371 0.47306 0.71204 0.0
H2548 H 0.4287 0.44258 0.68116 0.0
C2549 C 0.46514 0.41304 0.7076 0.0
C2550 C 0.46862 0.40788 0.69316 0.0
C2551 C 0.4576 0.42619 0.70969 0.0
C2552 C 0.43304 0.45101 0.68981 0.0
H2553 H 0.41624 0.51848 0.7281 0.0
H2554 H 0.4263 0.49374 0.72715 0.0
H2555 H 0.41658 0.46619 0.68356 0.0
H2556 H 0.46706 0.41244 0.66964 0.0
H2557 H 0.45381 0.43529 0.67327 0.0
H2558 H 0.46015 0.45775 0.71827 0.0
C2559 C 0.4231 0.49854 0.71671 0.0
C2560 C 0.42613 0.46457 0.69116 0.0
C2561 C 0.41715 0.51266 0.71726 0.0
C2562 C 0.46447 0.41612 0.68089 0.0
C2563 C 0.45679 0.42913 0.68295 0.0
C2564 C 0.45054 0.45943 0.71075 0.0
C2565 C 0.42481 0.49071 0.70286 0.0
C2566 C 0.43152 0.47587 0.70214 0.0
C2567 C 0.45329 0.43433 0.69737 0.0
C2568 C 0.44542 0.44836 0.69947 0.0
H2569 H 0.41082 0.51599 0.67969 0.0
H2570 H 0.42162 0.49174 0.67872 0.0
H2571 H 0.44828 0.48156 0.7205 0.0
H2572 H 0.46855 0.40715 0.71731 0.0
H2573 H 0.45506 0.42994 0.72094 0.0
C2574 C 0.01541 0.86285 0.27639 0.0
C2575 C 0.00244 0.85379 0.27852 0.0
C2576 C 0.01531 0.87848 0.27791 0.0
C2577 C 0.99501 0.90831 0.2964 0.0
H2578 H 0.01938 0.9341 0.27294 0.0
C2579 C 0.01334 0.96941 0.31624 0.0
C2580 C 0.01431 0.98024 0.30557 0.0
C2581 C 0.01009 0.95428 0.31174 0.0
C2582 C 0.01233 0.9271 0.27946 0.0
H2583 H 0.97899 0.854 0.28321 0.0
H2584 H 0.97874 0.88131 0.28567 0.0
H2585 H 0.01673 0.90718 0.26642 0.0
H2586 H 0.01315 0.98357 0.28176 0.0
H2587 H 0.00689 0.95722 0.2739 0.0
H2588 H 0.99052 0.92823 0.30937 0.0
C2589 C 0.98909 0.87634 0.28315 0.0
C2590 C 0.01097 0.91163 0.27584 0.0
C2591 C 0.98922 0.8607 0.28171 0.0
C2592 C 0.01194 0.97561 0.29028 0.0
C2593 C 0.00864 0.96045 0.28577 0.0
C2594 C 0.99633 0.92378 0.29998 0.0
C2595 C 0.00221 0.88543 0.28152 0.0
C2596 C 0.00252 0.90201 0.28443 0.0
C2597 C 0.00778 0.94958 0.29645 0.0
C2598 C 0.00523 0.93333 0.29174 0.0
H2599 H 0.02582 0.85786 0.27412 0.0
H2600 H 0.02568 0.88509 0.27681 0.0
H2601 H 0.98852 0.90125 0.30335 0.0
H2602 H 0.01524 0.97263 0.3281 0.0
H2603 H 0.0098 0.94621 0.32027 0.0
C2604 C 0.61648 0.11143 0.76051 0.0
C2605 C 0.63027 0.10992 0.75406 0.0
C2606 C 0.60477 0.10039 0.75759 0.0
C2607 C 0.59701 0.06049 0.74605 0.0
H2608 H 0.55637 0.07191 0.73799 0.0
C2609 C 0.54759 0.01635 0.73139 0.0
C2610 C 0.53392 0.01909 0.73758 0.0
C2611 C 0.55933 0.02749 0.7324 0.0
C2612 C 0.56762 0.06853 0.74038 0.0
H2613 H 0.64261 0.09563 0.73952 0.0
H2614 H 0.6221 0.07627 0.73439 0.0
H2615 H 0.57692 0.09124 0.74161 0.0
H2616 H 0.52196 0.03543 0.75017 0.0
H2617 H 0.54255 0.05477 0.75232 0.0
H2618 H 0.58774 0.03781 0.74517 0.0
C2619 C 0.6204 0.08601 0.74175 0.0
C2620 C 0.5794 0.07961 0.74242 0.0
C2621 C 0.63209 0.09713 0.74459 0.0
C2622 C 0.53232 0.03307 0.74512 0.0
C2623 C 0.54408 0.04419 0.74623 0.0
C2624 C 0.58522 0.0494 0.74411 0.0
C2625 C 0.60661 0.08754 0.74821 0.0
C2626 C 0.5942 0.07572 0.74539 0.0
C2627 C 0.55774 0.04155 0.73986 0.0
C2628 C 0.57036 0.05329 0.74136 0.0
H2629 H 0.61467 0.12125 0.76772 0.0
H2630 H 0.59433 0.10182 0.76284 0.0
H2631 H 0.60828 0.05716 0.7485 0.0
H2632 H 0.54938 0.00546 0.72616 0.0
H2633 H 0.56967 0.02505 0.72735 0.0
C2634 C 0.01469 0.53689 0.27298 0.0
C2635 C 0.00142 0.5277 0.27001 0.0
C2636 C 0.01414 0.55235 0.2761 0.0
C2637 C 0.98881 0.58336 0.27195 0.0
H2638 H 0.01777 0.60474 0.30087 0.0
C2639 C 0.99317 0.64788 0.27919 0.0
C2640 C 0.996 0.65461 0.29376 0.0
C2641 C 0.99429 0.63247 0.27641 0.0
C2642 C 0.0095 0.59894 0.29287 0.0
H2643 H 0.97717 0.52738 0.26832 0.0
H2644 H 0.97614 0.55428 0.27409 0.0
H2645 H 0.01841 0.57769 0.29631 0.0
H2646 H 0.00168 0.65044 0.31693 0.0
H2647 H 0.00349 0.62349 0.31215 0.0
H2648 H 0.97955 0.60448 0.2689 0.0
C2649 C 0.98701 0.54966 0.27363 0.0
C2650 C 0.01 0.58343 0.29009 0.0
C2651 C 0.98758 0.53424 0.27037 0.0
C2652 C -9e-05 0.64563 0.30552 0.0
C2653 C 0.00088 0.63016 0.30277 0.0
C2654 C 0.98824 0.59883 0.27481 0.0
C2655 C 0.00029 0.55894 0.27645 0.0
C2656 C -0.00031 0.57544 0.27956 0.0
C2657 C 0.99802 0.62337 0.28818 0.0
C2658 C 0.99861 0.60685 0.28526 0.0
H2659 H 0.02553 0.53218 0.27261 0.0
H2660 H 0.0246 0.55915 0.27795 0.0
H2661 H 0.98081 0.57765 0.26363 0.0
H2662 H 0.99016 0.65456 0.26991 0.0
H2663 H 0.99227 0.62771 0.26499 0.0
C2664 C 0.32746 0.63455 0.3425 0.0
C2665 C 0.32769 0.64154 0.35702 0.0
C2666 C 0.34077 0.63304 0.33536 0.0
C2667 C 0.38015 0.64779 0.33569 0.0
H2668 H 0.38592 0.60901 0.31579 0.0
C2669 C 0.43704 0.63292 0.3137 0.0
C2670 C 0.43668 0.62488 0.29968 0.0
C2671 C 0.4238 0.63503 0.32081 0.0
C2672 C 0.38442 0.61996 0.32114 0.0
H2673 H 0.34198 0.65289 0.37522 0.0
H2674 H 0.36527 0.65016 0.36276 0.0
H2675 H 0.36261 0.61303 0.32765 0.0
H2676 H 0.42215 0.61269 0.28214 0.0
H2677 H 0.39906 0.61652 0.29445 0.0
H2678 H 0.40194 0.65475 0.32911 0.0
C2679 C 0.35478 0.64588 0.35691 0.0
C2680 C 0.37106 0.62226 0.32793 0.0
C2681 C 0.34147 0.64733 0.36408 0.0
C2682 C 0.42282 0.61889 0.29298 0.0
C2683 C 0.40958 0.62102 0.30007 0.0
C2684 C 0.39351 0.64551 0.32884 0.0
C2685 C 0.35459 0.63853 0.34255 0.0
C2686 C 0.36877 0.6362 0.33526 0.0
C2687 C 0.40991 0.62916 0.31405 0.0
C2688 C 0.39579 0.63157 0.32147 0.0
H2689 H 0.31705 0.62984 0.33682 0.0
H2690 H 0.34024 0.62748 0.32422 0.0
H2691 H 0.37863 0.65871 0.34111 0.0
H2692 H 0.44755 0.63765 0.31918 0.0
H2693 H 0.42446 0.64116 0.33168 0.0
C2694 C 0.17834 0.2824 0.75653 0.0
C2695 C 0.17861 0.27973 0.77185 0.0
C2696 C 0.16473 0.28286 0.74814 0.0
C2697 C 0.12415 0.27225 0.74751 0.0
H2698 H 0.1208 0.30557 0.72203 0.0
C2699 C 0.06735 0.28949 0.72195 0.0
C2700 C 0.06693 0.29464 0.70743 0.0
C2701 C 0.08097 0.28645 0.72925 0.0
C2702 C 0.12159 0.29606 0.72889 0.0
H2703 H 0.16479 0.2749 0.79024 0.0
H2704 H 0.14096 0.27586 0.77559 0.0
H2705 H 0.14456 0.30224 0.73571 0.0
H2706 H 0.08042 0.30017 0.68897 0.0
H2707 H 0.10413 0.29464 0.7016 0.0
H2708 H 0.10112 0.26612 0.74072 0.0
C2709 C 0.15131 0.27752 0.77007 0.0
C2710 C 0.13522 0.29417 0.73675 0.0
C2711 C 0.16494 0.27711 0.77849 0.0
C2712 C 0.08037 0.29632 0.70021 0.0
C2713 C 0.09397 0.29324 0.70748 0.0
C2714 C 0.11051 0.27412 0.73959 0.0
C2715 C 0.15106 0.28065 0.75486 0.0
C2716 C 0.13665 0.28228 0.74619 0.0
C2717 C 0.09447 0.28845 0.72216 0.0
C2718 C 0.10906 0.28609 0.73023 0.0
H2719 H 0.18865 0.28463 0.7511 0.0
H2720 H 0.16491 0.28512 0.7364 0.0
H2721 H 0.12496 0.26289 0.75457 0.0
H2722 H 0.05719 0.28808 0.72783 0.0
H2723 H 0.08096 0.28294 0.74061 0.0
C2724 C 0.81514 0.97535 0.60997 0.0
C2725 C 0.80277 0.98075 0.61707 0.0
C2726 C 0.82851 0.97333 0.61829 0.0
C2727 C 0.8431 0.96731 0.65659 0.0
H2728 H 0.88164 0.98014 0.64254 0.0
C2729 C 0.89772 0.96926 0.69436 0.0
C2730 C 0.91084 0.96512 0.68782 0.0
C2731 C 0.88458 0.97064 0.68546 0.0
C2732 C 0.87098 0.9763 0.64652 0.0
H2733 H 0.795 0.98877 0.63842 0.0
H2734 H 0.81825 0.98509 0.65292 0.0
H2735 H 0.8587 0.98377 0.62738 0.0
H2736 H 0.9204 0.95893 0.66681 0.0
H2737 H 0.89737 0.96107 0.65129 0.0
H2738 H 0.8553 0.95976 0.67567 0.0
C2739 C 0.81751 0.9822 0.64095 0.0
C2740 C 0.85785 0.97841 0.63785 0.0
C2741 C 0.80418 0.98429 0.63264 0.0
C2742 C 0.91048 0.96218 0.67219 0.0
C2743 C 0.89731 0.96351 0.66328 0.0
C2744 C 0.85622 0.96513 0.66522 0.0
C2745 C 0.82978 0.9766 0.63389 0.0
C2746 C 0.84377 0.97404 0.64285 0.0
C2747 C 0.88423 0.96785 0.66981 0.0
C2748 C 0.87031 0.96969 0.66035 0.0
H2749 H 0.81437 0.97234 0.59803 0.0
H2750 H 0.83775 0.96886 0.61256 0.0
H2751 H 0.83242 0.96359 0.66061 0.0
H2752 H 0.89764 0.97168 0.70636 0.0
H2753 H 0.87477 0.97422 0.69084 0.0
C2754 C 0.66797 0.99196 0.28982 0.0
C2755 C 0.67255 0.00381 0.28115 0.0
C2756 C 0.65316 0.99035 0.29394 0.0
C2757 C 0.61562 0.9993 0.28065 0.0
H2758 H 0.60392 0.99147 0.32055 0.0
C2759 C 0.55484 0.00308 0.29646 0.0
C2760 C 0.54899 0.9927 0.30607 0.0
C2761 C 0.57005 0.0038 0.29381 0.0
C2762 C 0.60701 0.99343 0.30929 0.0
H2763 H 0.66552 0.02388 0.27104 0.0
H2764 H 0.6397 0.02089 0.27797 0.0
H2765 H 0.63054 0.99406 0.31576 0.0
H2766 H 0.55448 0.97481 0.32034 0.0
H2767 H 0.58102 0.97583 0.31543 0.0
H2768 H 0.59226 0.99851 0.27403 0.0
C2769 C 0.64746 0.01271 0.28132 0.0
C2770 C 0.62223 0.99495 0.30659 0.0
C2771 C 0.66222 0.01438 0.27732 0.0
C2772 C 0.55866 0.98296 0.3129 0.0
C2773 C 0.57389 0.98361 0.31016 0.0
C2774 C 0.60046 0.99766 0.2833 0.0
C2775 C 0.64269 0.00051 0.28937 0.0
C2776 C 0.62666 0.99814 0.29229 0.0
C2777 C 0.57976 0.99406 0.3006 0.0
C2778 C 0.59595 0.99493 0.2977 0.0
H2779 H 0.67566 0.98363 0.29293 0.0
H2780 H 0.64975 0.98085 0.30016 0.0
H2781 H 0.61874 0.00144 0.26944 0.0
H2782 H 0.54772 0.01083 0.29112 0.0
H2783 H 0.57423 0.01218 0.2866 0.0
C2784 C 0.37144 0.35389 0.64485 0.0
C2785 C 0.3616 0.34109 0.64149 0.0
C2786 C 0.36608 0.36825 0.64525 0.0
C2787 C 0.33405 0.38896 0.63149 0.0
H2788 H 0.35092 0.41995 0.66102 0.0
C2789 C 0.31044 0.44764 0.63798 0.0
C2790 C 0.32101 0.46002 0.63982 0.0
C2791 C 0.31504 0.43301 0.63858 0.0
C2792 C 0.34618 0.41145 0.65262 0.0
H2793 H 0.33834 0.33341 0.63602 0.0
H2794 H 0.32893 0.35843 0.63711 0.0
H2795 H 0.35942 0.39461 0.66164 0.0
H2796 H 0.34469 0.46673 0.64377 0.0
H2797 H 0.35269 0.44122 0.6448 0.0
H2798 H 0.3208 0.40583 0.62251 0.0
C2799 C 0.34085 0.35737 0.63921 0.0
C2800 C 0.35106 0.39692 0.65297 0.0
C2801 C 0.34622 0.343 0.63878 0.0
C2802 C 0.33626 0.45745 0.64233 0.0
C2803 C 0.34084 0.44283 0.64301 0.0
C2804 C 0.32913 0.40348 0.63119 0.0
C2805 C 0.35073 0.37018 0.64236 0.0
C2806 C 0.34513 0.38551 0.64234 0.0
C2807 C 0.33029 0.43045 0.64112 0.0
C2808 C 0.33521 0.41491 0.64169 0.0
H2809 H 0.38332 0.35284 0.64718 0.0
H2810 H 0.37404 0.37785 0.64756 0.0
H2811 H 0.3294 0.38052 0.62299 0.0
H2812 H 0.2986 0.44923 0.63604 0.0
H2813 H 0.30662 0.42372 0.63723 0.0
C2814 C 0.28529 0.67696 0.98897 0.0
C2815 C 0.27667 0.68174 0.00075 0.0
C2816 C 0.28862 0.6619 0.98703 0.0
C2817 C 0.27418 0.62431 0.99593 0.0
H2818 H 0.31346 0.61185 0.98669 0.0
C2819 C 0.29 0.56336 -3e-05 0.0
C2820 C 0.299 0.55724 0.98915 0.0
C2821 C 0.28726 0.57857 0.00048 0.0
C2822 C 0.30237 0.61515 0.98905 0.0
H2823 H 0.26568 0.67471 0.02032 0.0
H2824 H 0.27137 0.64853 0.01688 0.0
H2825 H 0.30922 0.63859 0.98948 0.0
H2826 H 0.312 0.56225 0.9702 0.0
H2827 H 0.30703 0.58881 0.97095 0.0
H2828 H 0.26728 0.60098 0.99552 0.0
C2829 C 0.27524 0.6563 0.00892 0.0
C2830 C 0.29996 0.63046 0.99068 0.0
C2831 C 0.27196 0.67129 0.01087 0.0
C2832 C 0.30503 0.56663 0.9787 0.0
C2833 C 0.30227 0.58187 0.97919 0.0
C2834 C 0.27656 0.60906 0.99426 0.0
C2835 C 0.28336 0.65137 0.99683 0.0
C2836 C 0.28589 0.63519 0.99435 0.0
C2837 C 0.29342 0.58803 0.99014 0.0
C2838 C 0.29073 0.60428 0.991 0.0
H2839 H 0.28907 0.68475 0.98098 0.0
H2840 H 0.2949 0.65842 0.9776 0.0
H2841 H 0.26312 0.62761 0.99844 0.0
H2842 H 0.28524 0.55646 0.00824 0.0
H2843 H 0.28057 0.58298 0.0092 0.0
C2844 C 0.7713 0.17154 0.27863 0.0
C2845 C 0.76364 0.18412 0.28319 0.0
C2846 C 0.76431 0.15709 0.27827 0.0
C2847 C 0.72698 0.13657 0.27823 0.0
H2848 H 0.74974 0.10496 0.29417 0.0
C2849 C 0.69908 0.08126 0.29615 0.0
C2850 C 0.70605 0.06789 0.29292 0.0
C2851 C 0.70608 0.09513 0.29342 0.0
C2852 C 0.74329 0.1136 0.28948 0.0
H2853 H 0.74263 0.19135 0.29103 0.0
H2854 H 0.73048 0.16621 0.29046 0.0
H2855 H 0.76205 0.12976 0.29215 0.0
H2856 H 0.72572 0.05858 0.28401 0.0
H2857 H 0.73794 0.08282 0.27921 0.0
H2858 H 0.70814 0.12046 0.27585 0.0
C2859 C 0.74179 0.16751 0.28687 0.0
C2860 C 0.75034 0.12782 0.28831 0.0
C2861 C 0.74877 0.18193 0.28721 0.0
C2862 C 0.72008 0.06868 0.28667 0.0
C2863 C 0.72711 0.08256 0.28399 0.0
C2864 C 0.71992 0.12236 0.27944 0.0
C2865 C 0.7495 0.1549 0.2825 0.0
C2866 C 0.74223 0.13953 0.28283 0.0
C2867 C 0.72023 0.09595 0.28742 0.0
C2868 C 0.72795 0.11076 0.28524 0.0
H2869 H 0.7827 0.17287 0.27529 0.0
H2870 H 0.77049 0.14764 0.27464 0.0
H2871 H 0.72047 0.14525 0.27371 0.0
H2872 H 0.68828 0.08106 0.30098 0.0
H2873 H 0.70057 0.10524 0.29636 0.0
C2874 C 0.60952 0.81469 0.97794 0.0
C2875 C 0.61673 0.80245 0.98348 0.0
C2876 C 0.61762 0.8283 0.97632 0.0
C2877 C 0.65341 0.84978 0.98891 0.0
H2878 H 0.64537 0.87159 0.95347 0.0
C2879 C 0.69322 0.89831 0.97307 0.0
C2880 C 0.6866 0.91143 0.96899 0.0
C2881 C 0.68437 0.88514 0.9745 0.0
C2882 C 0.64764 0.86568 0.96348 0.0
H2883 H 0.63808 0.79508 0.99201 0.0
H2884 H 0.65224 0.81858 0.98876 0.0
H2885 H 0.63037 0.84848 0.95699 0.0
H2886 H 0.66554 0.9209 0.96279 0.0
H2887 H 0.65009 0.8978 0.96521 0.0
H2888 H 0.67082 0.86686 0.99528 0.0
C2889 C 0.64029 0.81776 0.98583 0.0
C2890 C 0.63903 0.85247 0.96553 0.0
C2891 C 0.6322 0.8042 0.9875 0.0
C2892 C 0.67098 0.91098 0.96595 0.0
C2893 C 0.66213 0.89775 0.96729 0.0
C2894 C 0.66206 0.86291 0.98681 0.0
C2895 C 0.63312 0.82998 0.98019 0.0
C2896 C 0.64188 0.84431 0.97823 0.0
C2897 C 0.66873 0.88476 0.97179 0.0
C2898 C 0.65934 0.87095 0.97404 0.0
H2899 H 0.59764 0.81368 0.97461 0.0
H2900 H 0.61171 0.83754 0.9721 0.0
H2901 H 0.65571 0.84396 0.99897 0.0
H2902 H 0.70522 0.89828 0.97546 0.0
H2903 H 0.68978 0.87523 0.97778 0.0
C2904 C 0.64876 0.35482 0.33927 0.0
C2905 C 0.63845 0.36502 0.33443 0.0
C2906 C 0.64682 0.3475 0.35245 0.0
C2907 C 0.61769 0.33627 0.37759 0.0
H2908 H 0.65144 0.33079 0.40555 0.0
C2909 C 0.61364 0.29663 0.42582 0.0
C2910 C 0.62081 0.30167 0.43979 0.0
C2911 C 0.61572 0.30474 0.41318 0.0
C2912 C 0.64188 0.33233 0.3979 0.0
H2913 H 0.61799 0.37547 0.3396 0.0
H2914 H 0.61476 0.36291 0.36266 0.0
H2915 H 0.6554 0.34448 0.3832 0.0
H2916 H 0.63568 0.31925 0.45148 0.0
H2917 H 0.63924 0.33344 0.42941 0.0
H2918 H 0.60415 0.32427 0.39234 0.0
C2919 C 0.62428 0.36048 0.35623 0.0
C2920 C 0.64419 0.34002 0.38503 0.0
C2921 C 0.62623 0.36782 0.3431 0.0
C2922 C 0.63001 0.31505 0.44087 0.0
C2923 C 0.63213 0.32314 0.42822 0.0
C2924 C 0.6154 0.32854 0.39042 0.0
C2925 C 0.63449 0.35018 0.36101 0.0
C2926 C 0.63211 0.34207 0.37473 0.0
C2927 C 0.62505 0.31804 0.41422 0.0
C2928 C 0.62747 0.32646 0.40071 0.0
H2929 H 0.65834 0.35251 0.33289 0.0
H2930 H 0.65482 0.33953 0.35577 0.0
H2931 H 0.60818 0.33752 0.36979 0.0
H2932 H 0.6065 0.28634 0.42459 0.0
H2933 H 0.61024 0.30043 0.40253 0.0
C2934 C 0.01655 0.27969 0.66081 0.0
C2935 C 0.00761 0.26821 0.6665 0.0
C2936 C 0.01389 0.28356 0.64602 0.0
C2937 C 0.99401 0.26936 0.6096 0.0
H2938 H 0.99632 0.31138 0.60106 0.0
C2939 C 0.96357 0.29258 0.55832 0.0
C2940 C 0.97135 0.30355 0.55068 0.0
C2941 C 0.97 0.28735 0.57145 0.0
C2942 C 0.99585 0.29959 0.60323 0.0
H2943 H 0.98885 0.25187 0.66143 0.0
H2944 H 0.98389 0.25884 0.63582 0.0
H2945 H 0.00363 0.30429 0.62621 0.0
H2946 H 0.99214 0.31734 0.55055 0.0
H2947 H 0.00328 0.30832 0.57369 0.0
H2948 H 0.98559 0.26479 0.58675 0.0
C2949 C 0.99322 0.26462 0.64252 0.0
C2950 C 6e-05 0.2955 0.61764 0.0
C2951 C 0.99598 0.26068 0.65722 0.0
C2952 C 0.98588 0.30887 0.55619 0.0
C2953 C 0.99223 0.30378 0.56945 0.0
C2954 C 0.98964 0.27347 0.59527 0.0
C2955 C 0.00217 0.27608 0.63669 0.0
C2956 C 0.99894 0.28036 0.62107 0.0
C2957 C 0.98426 0.29312 0.5773 0.0
C2958 C 0.99031 0.28863 0.59201 0.0
H2959 H 0.02575 0.28544 0.66771 0.0
H2960 H 0.02113 0.29229 0.64185 0.0
H2961 H 0.99335 0.25756 0.61174 0.0
H2962 H 0.95238 0.28825 0.55434 0.0
H2963 H 0.96357 0.27921 0.57734 0.0
C2964 C 0.27964 0.7481 0.1808 0.0
C2965 C 0.28403 0.7634 0.18397 0.0
C2966 C 0.27924 0.74167 0.16614 0.0
C2967 C 0.27698 0.74994 0.12649 0.0
H2968 H 0.29869 0.71408 0.1207 0.0
C2969 C 0.2912 0.7268 0.0677 0.0
C2970 C 0.29179 0.71121 0.06504 0.0
C2971 C 0.2891 0.73301 0.08207 0.0
C2972 C 0.29232 0.72391 0.12207 0.0
H2973 H 0.29114 0.78398 0.17399 0.0
H2974 H 0.29 0.7728 0.14837 0.0
H2975 H 0.29657 0.72513 0.14593 0.0
H2976 H 0.29007 0.68986 0.07522 0.0
H2977 H 0.28583 0.70059 0.10013 0.0
H2978 H 0.27249 0.74865 0.10268 0.0
C2979 C 0.2869 0.76582 0.1573 0.0
C2980 C 0.29117 0.73027 0.13656 0.0
C2981 C 0.28748 0.77222 0.17199 0.0
C2982 C 0.28982 0.70193 0.07695 0.0
C2983 C 0.2875 0.70812 0.09127 0.0
C2984 C 0.27794 0.74346 0.11198 0.0
C2985 C 0.28302 0.75044 0.15428 0.0
C2986 C 0.28359 0.74341 0.13891 0.0
C2987 C 0.28732 0.72377 0.09409 0.0
C2988 C 0.28573 0.73041 0.10956 0.0
H2989 H 0.27657 0.74102 0.18965 0.0
H2990 H 0.27602 0.72982 0.16407 0.0
H2991 H 0.27096 0.76001 0.12801 0.0
H2992 H 0.29274 0.73425 0.05874 0.0
H2993 H 0.28926 0.74511 0.0838 0.0
C2994 C 0.97432 0.6318 0.80692 0.0
C2995 C 0.97933 0.6172 0.80613 0.0
C2996 C 0.97193 0.63907 0.82074 0.0
C2997 C 0.98214 0.63833 0.86132 0.0
H2998 H 0.94884 0.66376 0.86507 0.0
C2999 C 0.96784 0.66578 0.91823 0.0
C3000 C 0.96537 0.68115 0.91839 0.0
C3001 C 0.96859 0.65737 0.90465 0.0
C3002 C 0.95823 0.65675 0.86416 0.0
H3003 H 0.98579 0.59881 0.81933 0.0
H3004 H 0.9812 0.61131 0.8434 0.0
H3005 H 0.952 0.6501 0.84115 0.0
H3006 H 0.96132 0.69966 0.90443 0.0
H3007 H 0.96256 0.68494 0.88073 0.0
H3008 H 0.98833 0.64498 0.88436 0.0
C3009 C 0.97933 0.61724 0.83333 0.0
C3010 C 0.96007 0.64896 0.85046 0.0
C3011 C 0.98178 0.61 0.8195 0.0
C3012 C 0.96326 0.68784 0.90469 0.0
C3013 C 0.96389 0.6794 0.89111 0.0
C3014 C 0.98024 0.64604 0.87504 0.0
C3015 C 0.97442 0.63189 0.83412 0.0
C3016 C 0.97213 0.63975 0.84884 0.0
C3017 C 0.96675 0.66413 0.89096 0.0
C3018 C 0.96833 0.65542 0.87657 0.0
H3019 H 0.97213 0.63761 0.79683 0.0
H3020 H 0.96834 0.65041 0.82093 0.0
H3021 H 0.99168 0.63153 0.86042 0.0
H3022 H 0.9695 0.66029 0.9286 0.0
H3023 H 0.97065 0.64557 0.90486 0.0
C3024 C 0.65973 0.38793 0.64669 0.0
C3025 C 0.66675 0.37437 0.64487 0.0
C3026 C 0.64502 0.388 0.651 0.0
C3027 C 0.61514 0.3653 0.66768 0.0
H3028 H 0.58886 0.39034 0.64572 0.0
C3029 C 0.55366 0.37231 0.68194 0.0
C3030 C 0.54298 0.37205 0.66972 0.0
C3031 C 0.56898 0.37292 0.67962 0.0
C3032 C 0.59603 0.38323 0.6519 0.0
H3033 H 0.66397 0.35029 0.64651 0.0
H3034 H 0.63821 0.3504 0.654 0.0
H3035 H 0.61527 0.3906 0.64068 0.0
H3036 H 0.54 0.37221 0.6455 0.0
H3037 H 0.56668 0.37316 0.64146 0.0
H3038 H 0.59575 0.35764 0.6786 0.0
C3039 C 0.64416 0.361 0.65225 0.0
C3040 C 0.61121 0.38352 0.64915 0.0
C3041 C 0.65891 0.36093 0.64795 0.0
C3042 C 0.54794 0.37246 0.65516 0.0
C3043 C 0.56324 0.37309 0.65285 0.0
C3044 C 0.59993 0.36503 0.67045 0.0
C3045 C 0.63697 0.37452 0.65357 0.0
C3046 C 0.62094 0.37451 0.65695 0.0
C3047 C 0.57393 0.37332 0.66505 0.0
C3048 C 0.59019 0.37392 0.66251 0.0
H3049 H 0.66559 0.3985 0.64467 0.0
H3050 H 0.63991 0.39864 0.65223 0.0
H3051 H 0.62237 0.35832 0.67396 0.0
H3052 H 0.5502 0.37202 0.6933 0.0
H3053 H 0.57695 0.37325 0.68926 0.0
C3054 C 0.83178 0.71392 0.21052 0.0
C3055 C 0.82011 0.71686 0.21988 0.0
C3056 C 0.8467 0.71513 0.21627 0.0
C3057 C 0.87163 0.7301 0.24939 0.0
H3058 H 0.89713 0.69938 0.23539 0.0
C3059 C 0.92698 0.71637 0.28086 0.0
C3060 C 0.93927 0.71396 0.27218 0.0
C3061 C 0.91287 0.71833 0.27396 0.0
C3062 C 0.8902 0.70814 0.23927 0.0
H3063 H 0.81513 0.72398 0.24255 0.0
H3064 H 0.84102 0.72543 0.25269 0.0
H3065 H 0.87167 0.69979 0.22429 0.0
H3066 H 0.94648 0.71199 0.24949 0.0
H3067 H 0.92177 0.71522 0.23745 0.0
H3068 H 0.89012 0.73805 0.26478 0.0
C3069 C 0.83869 0.72244 0.24084 0.0
C3070 C 0.87561 0.70842 0.23289 0.0
C3071 C 0.82379 0.72138 0.23506 0.0
C3072 C 0.93723 0.71382 0.25648 0.0
C3073 C 0.92309 0.7156 0.24958 0.0
C3074 C 0.88618 0.7297 0.25589 0.0
C3075 C 0.85033 0.71916 0.23155 0.0
C3076 C 0.8661 0.71935 0.23791 0.0
C3077 C 0.91075 0.71774 0.25825 0.0
C3078 C 0.89557 0.71867 0.25094 0.0
H3079 H 0.8294 0.71027 0.19881 0.0
H3080 H 0.85537 0.71276 0.20872 0.0
H3081 H 0.86472 0.73883 0.25336 0.0
H3082 H 0.9282 0.71657 0.29298 0.0
H3083 H 0.90352 0.71985 0.2809 0.0
C3084 C 0.18463 0.0033 0.40172 0.0
C3085 C 0.1969 0.00746 0.39346 0.0
C3086 C 0.17007 0.00596 0.39658 0.0
C3087 C 0.14899 0.0291 0.37087 0.0
H3088 H 0.1164 0.99946 0.37545 0.0
C3089 C 0.08963 0.03067 0.34183 0.0
C3090 C 0.07743 0.02713 0.35042 0.0
C3091 C 0.10429 0.02915 0.34752 0.0
C3092 C 0.12537 0.00791 0.37425 0.0
H3093 H 0.20345 0.0177 0.37329 0.0
H3094 H 0.17799 0.02188 0.36408 0.0
H3095 H 0.14185 0.9946 0.38415 0.0
H3096 H 0.07106 0.01964 0.37188 0.0
H3097 H 0.09668 0.01698 0.38178 0.0
H3098 H 0.13245 0.04227 0.36071 0.0
C3099 C 0.17966 0.0168 0.37467 0.0
C3100 C 0.13994 0.00514 0.37924 0.0
C3101 C 0.19424 0.0142 0.37985 0.0
C3102 C 0.08021 0.02243 0.36497 0.0
C3103 C 0.09486 0.02081 0.37061 0.0
C3104 C 0.13441 0.03182 0.36579 0.0
C3105 C 0.16741 0.01278 0.38302 0.0
C3106 C 0.15192 0.01571 0.37763 0.0
C3107 C 0.10702 0.02396 0.36186 0.0
C3108 C 0.12246 0.02126 0.36745 0.0
H3109 H 0.18627 0.99793 0.41216 0.0
H3110 H 0.1609 0.00287 0.40337 0.0
H3111 H 0.15792 0.03758 0.36968 0.0
H3112 H 0.08784 0.03433 0.33059 0.0
H3113 H 0.11345 0.03156 0.3405 0.0
C3114 C 0.33487 0.99955 0.71011 0.0
C3115 C 0.32754 0.01299 0.71046 0.0
C3116 C 0.35024 0.99965 0.70842 0.0
C3117 C 0.38389 0.02449 0.71701 0.0
H3118 H 0.40313 0.9909 0.69879 0.0
C3119 C 0.44638 0.99911 0.71374 0.0
C3120 C 0.45097 0.00095 0.72909 0.0
C3121 C 0.43207 0.00278 0.70864 0.0
C3122 C 0.398 0.00052 0.70373 0.0
H3123 H 0.33042 0.03699 0.70828 0.0
H3124 H 0.35737 0.03716 0.70516 0.0
H3125 H 0.37638 0.99316 0.69342 0.0
H3126 H 0.44431 0.00851 0.75104 0.0
H3127 H 0.41937 0.0147 0.74221 0.0
H3128 H 0.40546 0.03171 0.72752 0.0
C3129 C 0.3512 0.02656 0.70644 0.0
C3130 C 0.38264 0.00173 0.70076 0.0
C3131 C 0.33576 0.02645 0.70811 0.0
C3132 C 0.44112 0.00694 0.73915 0.0
C3133 C 0.42685 0.01062 0.73406 0.0
C3134 C 0.39926 0.0233 0.71996 0.0
C3135 C 0.35868 0.01321 0.707 0.0
C3136 C 0.37531 0.01345 0.70778 0.0
C3137 C 0.42208 0.00841 0.71878 0.0
C3138 C 0.40639 0.01102 0.71375 0.0
H3139 H 0.32879 0.98895 0.7116 0.0
H3140 H 0.35562 0.98917 0.70902 0.0
H3141 H 0.37861 0.03362 0.72268 0.0
H3142 H 0.45374 0.99459 0.70569 0.0
H3143 H 0.42878 0.00108 0.69679 0.0
C3144 C 0.65247 0.64796 0.35056 0.0
C3145 C 0.6475 0.65407 0.36409 0.0
C3146 C 0.65728 0.63337 0.34952 0.0
C3147 C 0.65424 0.59743 0.36774 0.0
H3148 H 0.689 0.5884 0.34588 0.0
C3149 C 0.67067 0.53665 0.35593 0.0
C3150 C 0.68599 0.53409 0.35779 0.0
C3151 C 0.66599 0.55128 0.35618 0.0
C3152 C 0.67932 0.59075 0.3521 0.0
H3153 H 0.64411 0.64974 0.38725 0.0
H3154 H 0.6525 0.62433 0.38545 0.0
H3155 H 0.68107 0.61403 0.34767 0.0
H3156 H 0.7084 0.54491 0.36123 0.0
H3157 H 0.70021 0.57042 0.36181 0.0
H3158 H 0.65265 0.57424 0.37244 0.0
C3159 C 0.65242 0.63072 0.37555 0.0
C3160 C 0.67468 0.60541 0.35299 0.0
C3161 C 0.64761 0.64529 0.37659 0.0
C3162 C 0.69652 0.54649 0.35973 0.0
C3163 C 0.69183 0.56112 0.35998 0.0
C3164 C 0.65886 0.58278 0.36683 0.0
C3165 C 0.65724 0.62455 0.36199 0.0
C3166 C 0.66211 0.60893 0.36087 0.0
C3167 C 0.6765 0.5637 0.3583 0.0
C3168 C 0.67147 0.57926 0.35903 0.0
H3169 H 0.65234 0.65435 0.34066 0.0
H3170 H 0.66075 0.6289 0.33886 0.0
H3171 H 0.64441 0.59971 0.37375 0.0
H3172 H 0.66227 0.52735 0.35435 0.0
H3173 H 0.65411 0.55286 0.35464 0.0
C3174 C 0.71125 0.33866 0.99303 0.0
C3175 C 0.71376 0.331 0.00609 0.0
C3176 C 0.70969 0.3541 0.99393 0.0
C3177 C 0.72203 0.38711 0.01889 0.0
H3178 H 0.70036 0.40769 0.98838 0.0
C3179 C 0.74228 0.44511 0.00156 0.0
C3180 C 0.7318 0.45513 0.99673 0.0
C3181 C 0.73756 0.43071 0.00524 0.0
C3182 C 0.70629 0.4022 0.99717 0.0
H3183 H 0.71544 0.33331 0.03039 0.0
H3184 H 0.71235 0.36029 0.032 0.0
H3185 H 0.695 0.38088 0.99026 0.0
H3186 H 0.70808 0.4581 0.99254 0.0
H3187 H 0.69981 0.43298 0.99915 0.0
H3188 H 0.73338 0.40839 0.02574 0.0
C3189 C 0.71193 0.35439 0.02104 0.0
C3190 C 0.70334 0.38677 0.99814 0.0
C3191 C 0.71354 0.33891 0.02012 0.0
C3192 C 0.71645 0.4506 0.99613 0.0
C3193 C 0.71171 0.43619 -0.00014 0.0
C3194 C 0.72492 0.40253 0.01798 0.0
C3195 C 0.7105 0.36225 0.00793 0.0
C3196 C 0.71154 0.37895 0.00867 0.0
C3197 C 0.72223 0.42599 0.00425 0.0
C3198 C 0.71746 0.41017 0.00678 0.0
H3199 H 0.71109 0.3328 0.98205 0.0
H3200 H 0.70871 0.35974 0.98359 0.0
H3201 H 0.72864 0.38147 0.02708 0.0
H3202 H 0.75419 0.44823 0.00213 0.0
H3203 H 0.746 0.4231 0.00832 0.0
C3204 C 0.24632 0.81604 0.7081 0.0
C3205 C 0.23094 0.81348 0.71004 0.0
C3206 C 0.25294 0.83064 0.70875 0.0
C3207 C 0.24761 0.86984 0.72197 0.0
H3208 H 0.27547 0.87948 0.69195 0.0
C3209 C 0.2683 0.93079 0.71199 0.0
C3210 C 0.2834 0.9334 0.70886 0.0
C3211 C 0.26213 0.91616 0.71292 0.0
C3212 C 0.26787 0.87694 0.70054 0.0
H3213 H 0.21052 0.82428 0.71458 0.0
H3214 H 0.22202 0.84981 0.71547 0.0
H3215 H 0.26431 0.85399 0.69221 0.0
H3216 H 0.30394 0.92269 0.70457 0.0
H3217 H 0.29323 0.89721 0.70636 0.0
H3218 H 0.25112 0.89286 0.73023 0.0
C3219 C 0.22899 0.84049 0.71356 0.0
C3220 C 0.26147 0.86232 0.70069 0.0
C3221 C 0.22237 0.82587 0.71289 0.0
C3222 C 0.29225 0.92107 0.70693 0.0
C3223 C 0.28609 0.90645 0.70786 0.0
C3224 C 0.25402 0.88449 0.72182 0.0
C3225 C 0.24433 0.84305 0.71136 0.0
C3226 C 0.25125 0.85859 0.71139 0.0
C3227 C 0.27092 0.90381 0.71074 0.0
C3228 C 0.26423 0.88821 0.71109 0.0
H3229 H 0.25322 0.80676 0.70573 0.0
H3230 H 0.26481 0.83222 0.70719 0.0
H3231 H 0.23992 0.86729 0.73048 0.0
H3232 H 0.26117 0.94004 0.71351 0.0
H3233 H 0.25038 0.91451 0.71499 0.0
C3234 C 0.37592 0.17404 0.02077 0.0
C3235 C 0.38974 0.17719 0.01459 0.0
C3236 C 0.37067 0.15924 0.02243 0.0
C3237 C 0.37551 0.12012 0.00847 0.0
H3238 H 0.35474 0.11013 0.04366 0.0
C3239 C 0.35869 0.05895 0.0201 0.0
C3240 C 0.34389 0.05608 0.02407 0.0
C3241 C 0.36481 0.07369 0.01991 0.0
C3242 C 0.36044 0.11278 0.03374 0.0
H3243 H 0.40883 0.16714 0.0052 0.0
H3244 H 0.3999 0.14137 0.00849 0.0
H3245 H 0.36442 0.13593 0.04128 0.0
H3246 H 0.32409 0.06642 0.03146 0.0
H3247 H 0.33482 0.09215 0.03117 0.0
H3248 H 0.37158 0.09695 0.00097 0.0
C3249 C 0.39299 0.15035 0.01187 0.0
C3250 C 0.36595 0.12756 0.03234 0.0
C3251 C 0.39821 0.16515 0.01015 0.0
C3252 C 0.33553 0.06825 0.02835 0.0
C3253 C 0.34169 0.08299 0.02824 0.0
C3254 C 0.37009 0.10534 0.00992 0.0
C3255 C 0.37915 0.1472 0.018 0.0
C3256 C 0.3735 0.13143 0.01966 0.0
C3257 C 0.35631 0.08587 0.02376 0.0
C3258 C 0.36245 0.10151 0.02254 0.0
H3259 H 0.36918 0.18303 0.02449 0.0
H3260 H 0.35988 0.15723 0.02702 0.0
H3261 H 0.38103 0.12272 0.99843 0.0
H3262 H 0.36545 0.04984 0.01678 0.0
H3263 H 0.37618 0.07555 0.01661 0.0
C3264 C 0.36745 0.6605 0.65354 0.0
C3265 C 0.36499 0.64508 0.65549 0.0
C3266 C 0.3669 0.66585 0.63917 0.0
C3267 C 0.35299 0.65547 0.59975 0.0
H3268 H 0.38306 0.68603 0.59057 0.0
C3269 C 0.36278 0.67048 0.5391 0.0
C3270 C 0.36553 0.68572 0.53654 0.0
C3271 C 0.36215 0.66588 0.55371 0.0
C3272 C 0.37447 0.67762 0.59299 0.0
H3273 H 0.35964 0.62326 0.64381 0.0
H3274 H 0.35902 0.63251 0.61879 0.0
H3275 H 0.3829 0.67741 0.61587 0.0
H3276 H 0.36966 0.70811 0.54734 0.0
H3277 H 0.36848 0.70009 0.57282 0.0
H3278 H 0.34467 0.65558 0.57682 0.0
C3279 C 0.36124 0.64051 0.62836 0.0
C3280 C 0.37437 0.67269 0.60751 0.0
C3281 C 0.36179 0.63518 0.64272 0.0
C3282 C 0.36756 0.69627 0.54892 0.0
C3283 C 0.36696 0.69167 0.56353 0.0
C3284 C 0.35312 0.66038 0.58523 0.0
C3285 C 0.36386 0.65591 0.62639 0.0
C3286 C 0.36367 0.6615 0.61106 0.0
C3287 C 0.36428 0.67642 0.56611 0.0
C3288 C 0.3639 0.67147 0.58165 0.0
H3289 H 0.37008 0.66844 0.66312 0.0
H3290 H 0.36881 0.67779 0.63808 0.0
H3291 H 0.34444 0.64702 0.60215 0.0
H3292 H 0.3612 0.66205 0.52983 0.0
H3293 H 0.36024 0.65403 0.55531 0.0
C3294 C 0.0019 0.74166 0.34442 0.0
C3295 C 0.00881 0.73046 0.33614 0.0
C3296 C -4e-05 0.7405 0.35962 0.0
C3297 C 0.99635 0.71496 0.38932 0.0
H3298 H 0.00913 0.75054 0.41501 0.0
C3299 C 0.99053 0.71861 0.45379 0.0
C3300 C 0.98565 0.7322 0.45989 0.0
C3301 C 0.99448 0.71729 0.4389 0.0
C3302 C 0.00539 0.74055 0.40799 0.0
H3303 H 0.01843 0.70885 0.33724 0.0
H3304 H 0.01471 0.70669 0.36399 0.0
H3305 H 0.01366 0.74991 0.38846 0.0
H3306 H 0.98089 0.75496 0.45508 0.0
H3307 H 0.98745 0.75258 0.42917 0.0
H3308 H 0.9876 0.7058 0.40881 0.0
C3309 C 0.011 0.71644 0.35859 0.0
C3310 C 0.00805 0.74017 0.39281 0.0
C3311 C 0.01309 0.71767 0.34331 0.0
C3312 C 0.98471 0.74437 0.45078 0.0
C3313 C 0.98858 0.74303 0.43593 0.0
C3314 C 0.99356 0.71538 0.40456 0.0
C3315 C 0.00471 0.72802 0.36692 0.0
C3316 C 0.00327 0.72752 0.38326 0.0
C3317 C 0.9936 0.72952 0.42982 0.0
C3318 C 0.99775 0.72833 0.41399 0.0
H3319 H 0.99802 0.75143 0.33917 0.0
H3320 H 0.99475 0.74941 0.3657 0.0
H3321 H 0.99253 0.70509 0.38215 0.0
H3322 H 0.9914 0.70902 0.46054 0.0
H3323 H 0.9984 0.70676 0.43457 0.0
C3324 C 0.71833 0.21848 0.83391 0.0
C3325 C 0.71643 0.22719 0.82147 0.0
C3326 C 0.71925 0.2252 0.84849 0.0
C3327 C 0.70792 0.25879 0.86956 0.0
H3328 H 0.7342 0.24582 0.90162 0.0
C3329 C 0.7105 0.28749 0.929 0.0
C3330 C 0.71021 0.27794 0.94087 0.0
C3331 C 0.71293 0.28187 0.91451 0.0
C3332 C 0.72673 0.24949 0.89279 0.0
H3333 H 0.71433 0.24985 0.8146 0.0
H3334 H 0.71628 0.26159 0.83997 0.0
H3335 H 0.73553 0.23494 0.87605 0.0
H3336 H 0.71273 0.25507 0.94695 0.0
H3337 H 0.7168 0.24523 0.92162 0.0
H3338 H 0.69895 0.27315 0.88625 0.0
C3339 C 0.71686 0.24953 0.83847 0.0
C3340 C 0.72749 0.24326 0.87816 0.0
C3341 C 0.71592 0.24282 0.82392 0.0
C3342 C 0.71286 0.26273 0.93803 0.0
C3343 C 0.71529 0.2571 0.92353 0.0
C3344 C 0.70716 0.265 0.88415 0.0
C3345 C 0.71828 0.24078 0.85093 0.0
C3346 C 0.71803 0.24779 0.86639 0.0
C3347 C 0.71512 0.26657 0.91156 0.0
C3348 C 0.71649 0.26038 0.89596 0.0
H3349 H 0.71893 0.20643 0.8324 0.0
H3350 H 0.72024 0.21812 0.85784 0.0
H3351 H 0.70027 0.26232 0.86081 0.0
H3352 H 0.70859 0.29929 0.93083 0.0
H3353 H 0.71297 0.2895 0.90557 0.0
C3354 C 0.99917 0.38177 0.188 0.0
C3355 C 0.00972 0.39246 0.19534 0.0
C3356 C 0.00064 0.37675 0.1731 0.0
C3357 C 0.01913 0.38734 0.13906 0.0
H3358 H 0.00881 0.34574 0.12566 0.0
C3359 C 0.0139 0.36723 0.07648 0.0
C3360 C 0.01885 0.35304 0.07238 0.0
C3361 C 0.01331 0.37196 0.09157 0.0
C3362 C 0.0119 0.35736 0.12925 0.0
H3363 H 0.0303 0.40595 0.19302 0.0
H3364 H 0.03301 0.39706 0.16713 0.0
H3365 H 0.00702 0.35388 0.15192 0.0
H3366 H 0.02735 0.3328 0.08087 0.0
H3367 H 0.02665 0.3412 0.10724 0.0
H3368 H 0.0244 0.39074 0.1165 0.0
C3369 C 0.02339 0.39281 0.17271 0.0
C3370 C 0.01067 0.36208 0.14427 0.0
C3371 C 0.02186 0.39789 0.18756 0.0
C3372 C 0.02342 0.34378 0.08368 0.0
C3373 C 0.02292 0.34855 0.09879 0.0
C3374 C 0.02044 0.38261 0.12407 0.0
C3375 C 0.01275 0.38225 0.16526 0.0
C3376 C 0.01422 0.37714 0.14934 0.0
C3377 C 0.01775 0.36265 0.10292 0.0
C3378 C 0.01677 0.36758 0.11896 0.0
H3379 H 0.98964 0.37749 0.1937 0.0
H3380 H 0.99212 0.36878 0.16764 0.0
H3381 H 0.02179 0.39907 0.14253 0.0
H3382 H 0.01022 0.3746 0.06803 0.0
H3383 H 0.00906 0.38279 0.09433 0.0
loop_
_geom_bond_atom_site_label_1
_geom_bond_atom_site_label_2
_geom_bond_distance
_geom_bond_site_symmetry_2
_ccdc_geom_bond_type
C0 C1 1.264 . S
C0 C5 1.479 . S
C0 C10 1.465 . S
C1 C0 1.264 . S
C1 C3 1.339 . S
C1 H28 0.931 . S
C2 C3 1.395 . S
C2 C4 1.320 . S
C3 C1 1.339 . S
C3 C2 1.395 . S
C3 H29 0.929 . S
C4 C2 1.320 . S
C4 C5 1.405 . S
C4 H30 0.930 . S
C5 C0 1.479 . S
C5 C4 1.405 . S
C5 H31 0.931 . S
U6 O7 2.454 . S
U6 O8 2.458 . S
U6 C9 2.984 . S
U6 C10 2.847 . S
U6 C23 2.882 . S
U6 O24 2.441 . S
U6 O25 2.420 . S
U6 O26 2.455 . S
U6 O27 2.449 . S
O7 U6 2.454 . S
O7 C9 1.353 . S
O8 U6 2.458 . S
O8 C9 1.286 . S
C9 U6 2.984 . S
C9 O7 1.353 . S
C9 O8 1.286 . S
C9 C11 1.363 . S
C10 C0 1.465 . S
C10 U6 2.847 . S
C10 O24 1.249 . S
C10 O25 1.202 . S
C11 C9 1.363 . S
C11 C13 1.408 . S
C11 C16 1.342 . S
C12 C13 1.310 . S
C12 C15 1.461 . S
C12 H32 0.932 . S
C13 C11 1.408 . S
C13 C12 1.310 . S
C13 H33 0.930 . S
C14 C15 1.474 . S
C14 C16 1.285 . S
C14 H34 0.929 . S
C15 C12 1.461 . S
C15 C14 1.474 . S
C16 C11 1.342 . S
C16 C14 1.285 . S
C16 H35 0.930 . S
C17 C20 1.424 . S
C17 C22 1.245 . S
C17 C23 1.428 . S
C18 C21 1.260 . S
C18 C22 1.477 . S
C18 H36 0.932 . S
C19 C20 1.384 . S
C19 C21 1.479 . S
C19 H37 0.929 . S
C20 C17 1.424 . S
C20 C19 1.384 . S
C20 H38 0.928 . S
C21 C18 1.260 . S
C21 C19 1.479 . S
C22 C17 1.245 . S
C22 C18 1.477 . S
C22 H39 0.932 . S
C23 U6 2.882 . S
C23 C17 1.428 . S
C23 O26 1.301 . S
C23 O27 1.282 . S
O24 U6 2.441 . S
O24 C10 1.249 . S
O25 U6 2.420 . S
O25 C10 1.202 . S
O26 U6 2.455 . S
O26 C23 1.301 . S
O27 U6 2.449 . S
O27 C23 1.282 . S
H28 C1 0.931 . S
H29 C3 0.929 . S
H30 C4 0.930 . S
H31 C5 0.931 . S
H32 C12 0.932 . S
H33 C13 0.930 . S
H34 C14 0.929 . S
H35 C16 0.930 . S
H36 C18 0.932 . S
H37 C19 0.929 . S
H38 C20 0.928 . S
H39 C22 0.932 . S
C40 C41 1.264 . S
C40 C45 1.479 . S
C40 C50 1.465 . S
C41 C40 1.264 . S
C41 C43 1.339 . S
C41 H68 0.931 . S
C42 C43 1.395 . S
C42 C44 1.320 . S
C43 C41 1.339 . S
C43 C42 1.395 . S
C43 H69 0.929 . S
C44 C42 1.320 . S
C44 C45 1.405 . S
C44 H70 0.930 . S
C45 C40 1.479 . S
C45 C44 1.405 . S
C45 H71 0.931 . S
U46 O47 2.454 . S
U46 O48 2.458 . S
U46 C49 2.984 . S
U46 C50 2.847 . S
U46 C63 2.882 . S
U46 O64 2.441 . S
U46 O65 2.420 . S
U46 O66 2.455 . S
U46 O67 2.449 . S
O47 U46 2.454 . S
O47 C49 1.353 . S
O48 U46 2.458 . S
O48 C49 1.286 . S
C49 U46 2.984 . S
C49 O47 1.353 . S
C49 O48 1.286 . S
C49 C51 1.363 . S
C50 C40 1.465 . S
C50 U46 2.847 . S
C50 O64 1.249 . S
C50 O65 1.202 . S
C51 C49 1.363 . S
C51 C53 1.408 . S
C51 C56 1.342 . S
C52 C53 1.310 . S
C52 C55 1.461 . S
C52 H72 0.932 . S
C53 C51 1.408 . S
C53 C52 1.310 . S
C53 H73 0.930 . S
C54 C55 1.474 . S
C54 C56 1.285 . S
C54 H74 0.929 . S
C55 C52 1.461 . S
C55 C54 1.474 . S
C56 C51 1.342 . S
C56 C54 1.285 . S
C56 H75 0.930 . S
C57 C60 1.424 . S
C57 C62 1.245 . S
C57 C63 1.428 . S
C58 C61 1.260 . S
C58 C62 1.477 . S
C58 H76 0.932 . S
C59 C60 1.384 . S
C59 C61 1.479 . S
C59 H77 0.929 . S
C60 C57 1.424 . S
C60 C59 1.384 . S
C60 H78 0.928 . S
C61 C58 1.260 . S
C61 C59 1.479 . S
C62 C57 1.245 . S
C62 C58 1.477 . S
C62 H79 0.932 . S
C63 U46 2.882 . S
C63 C57 1.428 . S
C63 O66 1.301 . S
C63 O67 1.282 . S
O64 U46 2.441 . S
O64 C50 1.249 . S
O65 U46 2.420 . S
O65 C50 1.202 . S
O66 U46 2.455 . S
O66 C63 1.301 . S
O67 U46 2.449 . S
O67 C63 1.282 . S
H68 C41 0.931 . S
H69 C43 0.929 . S
H70 C44 0.930 . S
H71 C45 0.931 . S
H72 C52 0.932 . S
H73 C53 0.930 . S
H74 C54 0.929 . S
H75 C56 0.930 . S
H76 C58 0.932 . S
H77 C59 0.929 . S
H78 C60 0.928 . S
H79 C62 0.932 . S
C80 C81 1.264 . S
C80 C85 1.479 . S
C80 C90 1.465 . S
C81 C80 1.264 . S
C81 C83 1.339 . S
C81 H108 0.931 . S
C82 C83 1.395 . S
C82 C84 1.320 . S
C83 C81 1.339 . S
C83 C82 1.395 . S
C83 H109 0.929 . S
C84 C82 1.320 . S
C84 C85 1.405 . S
C84 H110 0.924 1_565 S
C85 C80 1.479 . S
C85 C84 1.405 . S
C85 H111 0.931 . S
U86 O87 2.454 . S
U86 O88 2.458 . S
U86 C89 2.984 . S
U86 C90 2.847 . S
U86 C103 2.882 . S
U86 O104 2.441 . S
U86 O105 2.420 . S
U86 O106 2.455 . S
U86 O107 2.449 . S
O87 U86 2.454 . S
O87 C89 1.353 . S
O88 U86 2.458 . S
O88 C89 1.286 . S
C89 U86 2.984 . S
C89 O87 1.353 . S
C89 O88 1.286 . S
C89 C91 1.363 . S
C90 C80 1.465 . S
C90 U86 2.847 . S
C90 O104 1.249 . S
C90 O105 1.202 . S
C91 C89 1.363 . S
C91 C93 1.408 . S
C91 C96 1.359 . S
C92 C93 1.310 . S
C92 C95 1.460 . S
C92 H112 0.932 . S
C93 C91 1.408 . S
C93 C92 1.310 . S
C93 H113 0.930 . S
C94 C95 1.473 1_545 S
C94 C96 1.280 1_545 S
C94 H114 0.931 . S
C95 C92 1.460 . S
C95 C94 1.473 1_565 S
C96 C91 1.359 . S
C96 C94 1.280 1_565 S
C96 H115 0.927 . S
C97 C100 1.424 . S
C97 C102 1.245 . S
C97 C103 1.428 . S
C98 C101 1.260 . S
C98 C102 1.477 . S
C98 H116 0.932 . S
C99 C100 1.384 . S
C99 C101 1.479 . S
C99 H117 0.929 . S
C100 C97 1.424 . S
C100 C99 1.384 . S
C100 H118 0.928 . S
C101 C98 1.260 . S
C101 C99 1.479 . S
C102 C97 1.245 . S
C102 C98 1.477 . S
C102 H119 0.932 . S
C103 U86 2.882 . S
C103 C97 1.428 . S
C103 O106 1.301 . S
C103 O107 1.282 . S
O104 U86 2.441 . S
O104 C90 1.249 . S
O105 U86 2.420 . S
O105 C90 1.202 . S
O106 U86 2.455 . S
O106 C103 1.301 . S
O107 U86 2.449 . S
O107 C103 1.282 . S
H108 C81 0.931 . S
H109 C83 0.929 . S
H110 C84 0.924 1_545 S
H111 C85 0.931 . S
H112 C92 0.932 . S
H113 C93 0.930 . S
H114 C94 0.931 . S
H115 C96 0.927 . S
H116 C98 0.932 . S
H117 C99 0.929 . S
H118 C100 0.928 . S
H119 C102 0.932 . S
C120 C121 1.264 . S
C120 C125 1.479 . S
C120 C130 1.465 . S
C121 C120 1.264 . S
C121 C123 1.339 . S
C121 H148 0.931 . S
C122 C123 1.395 . S
C122 C124 1.320 . S
C123 C121 1.339 . S
C123 C122 1.395 . S
C123 H149 0.929 . S
C124 C122 1.320 . S
C124 C125 1.405 . S
C124 H150 0.930 . S
C125 C120 1.479 . S
C125 C124 1.405 . S
C125 H151 0.931 . S
U126 O127 2.454 . S
U126 O128 2.458 . S
U126 C129 2.984 . S
U126 C130 2.847 . S
U126 C143 2.882 . S
U126 O144 2.441 . S
U126 O145 2.420 . S
U126 O146 2.455 . S
U126 O147 2.449 . S
O127 U126 2.454 . S
O127 C129 1.353 . S
O128 U126 2.458 . S
O128 C129 1.286 . S
C129 U126 2.984 . S
C129 O127 1.353 . S
C129 O128 1.286 . S
C129 C131 1.363 . S
C130 C120 1.465 . S
C130 U126 2.847 . S
C130 O144 1.249 . S
C130 O145 1.202 . S
C131 C129 1.363 . S
C131 C133 1.408 . S
C131 C136 1.342 . S
C132 C133 1.310 . S
C132 C135 1.461 . S
C132 H152 0.932 . S
C133 C131 1.408 . S
C133 C132 1.310 . S
C133 H153 0.930 . S
C134 C135 1.474 . S
C134 C136 1.290 . S
C134 H154 0.922 1_545 S
C135 C132 1.461 . S
C135 C134 1.474 . S
C136 C131 1.342 . S
C136 C134 1.290 . S
C136 H155 0.931 . S
C137 C140 1.424 . S
C137 C142 1.245 . S
C137 C143 1.428 . S
C138 C141 1.256 1_545 S
C138 C142 1.477 . S
C138 H156 0.932 . S
C139 C140 1.384 . S
C139 C141 1.473 1_545 S
C139 H157 0.929 . S
C140 C137 1.424 . S
C140 C139 1.384 . S
C140 H158 0.928 . S
C141 C138 1.256 1_565 S
C141 C139 1.473 1_565 S
C142 C137 1.245 . S
C142 C138 1.477 . S
C142 H159 0.932 . S
C143 U126 2.882 . S
C143 C137 1.428 . S
C143 O146 1.301 . S
C143 O147 1.282 . S
O144 U126 2.441 . S
O144 C130 1.249 . S
O145 U126 2.420 . S
O145 C130 1.202 . S
O146 U126 2.455 . S
O146 C143 1.301 . S
O147 U126 2.449 . S
O147 C143 1.282 . S
H148 C121 0.931 . S
H149 C123 0.929 . S
H150 C124 0.930 . S
H151 C125 0.931 . S
H152 C132 0.932 . S
H153 C133 0.930 . S
H154 C134 0.922 1_565 S
H155 C136 0.931 . S
H156 C138 0.932 . S
H157 C139 0.929 . S
H158 C140 0.928 . S
H159 C142 0.932 . S
C160 C161 1.264 . S
C160 C165 1.479 . S
C160 C170 1.465 . S
C161 C160 1.264 . S
C161 C163 1.339 . S
C161 H188 0.931 . S
C162 C163 1.395 . S
C162 C164 1.320 . S
C163 C161 1.339 . S
C163 C162 1.395 . S
C163 H189 0.929 . S
C164 C162 1.320 . S
C164 C165 1.405 . S
C164 H190 0.930 . S
C165 C160 1.479 . S
C165 C164 1.405 . S
C165 H191 0.931 . S
U166 O167 2.454 . S
U166 O168 2.458 . S
U166 C169 2.984 . S
U166 C170 2.847 . S
U166 C183 2.882 . S
U166 O184 2.441 . S
U166 O185 2.420 . S
U166 O186 2.455 . S
U166 O187 2.449 . S
O167 U166 2.454 . S
O167 C169 1.353 . S
O168 U166 2.458 . S
O168 C169 1.286 . S
C169 U166 2.984 . S
C169 O167 1.353 . S
C169 O168 1.286 . S
C169 C171 1.363 . S
C170 C160 1.465 . S
C170 U166 2.847 . S
C170 O184 1.249 . S
C170 O185 1.202 . S
C171 C169 1.363 . S
C171 C173 1.408 . S
C171 C176 1.342 . S
C172 C173 1.310 . S
C172 C175 1.461 . S
C172 H192 0.932 . S
C173 C171 1.408 . S
C173 C172 1.310 . S
C173 H193 0.930 . S
C174 C175 1.474 . S
C174 C176 1.285 . S
C174 H194 0.929 . S
C175 C172 1.461 . S
C175 C174 1.474 . S
C176 C171 1.342 . S
C176 C174 1.285 . S
C176 H195 0.930 . S
C177 C180 1.424 . S
C177 C182 1.245 . S
C177 C183 1.428 . S
C178 C181 1.260 . S
C178 C182 1.477 . S
C178 H196 0.932 . S
C179 C180 1.384 . S
C179 C181 1.479 . S
C179 H197 0.929 . S
C180 C177 1.424 . S
C180 C179 1.384 . S
C180 H198 0.928 . S
C181 C178 1.260 . S
C181 C179 1.479 . S
C182 C177 1.245 . S
C182 C178 1.477 . S
C182 H199 0.932 . S
C183 U166 2.882 . S
C183 C177 1.428 . S
C183 O186 1.301 . S
C183 O187 1.282 . S
O184 U166 2.441 . S
O184 C170 1.249 . S
O185 U166 2.420 . S
O185 C170 1.202 . S
O186 U166 2.455 . S
O186 C183 1.301 . S
O187 U166 2.449 . S
O187 C183 1.282 . S
H188 C161 0.931 . S
H189 C163 0.929 . S
H190 C164 0.930 . S
H191 C165 0.931 . S
H192 C172 0.932 . S
H193 C173 0.930 . S
H194 C174 0.929 . S
H195 C176 0.930 . S
H196 C178 0.932 . S
H197 C179 0.929 . S
H198 C180 0.928 . S
H199 C182 0.932 . S
C200 C201 1.264 . S
C200 C205 1.479 . S
C200 C210 1.465 . S
C201 C200 1.264 . S
C201 C203 1.339 . S
C201 H228 0.931 . S
C202 C203 1.395 . S
C202 C204 1.320 . S
C203 C201 1.339 . S
C203 C202 1.395 . S
C203 H229 0.929 . S
C204 C202 1.320 . S
C204 C205 1.405 . S
C204 H230 0.930 . S
C205 C200 1.479 . S
C205 C204 1.405 . S
C205 H231 0.931 . S
U206 O207 2.454 . S
U206 O208 2.458 . S
U206 C209 2.984 . S
U206 C210 2.847 . S
U206 C223 2.882 . S
U206 O224 2.441 . S
U206 O225 2.420 . S
U206 O226 2.455 . S
U206 O227 2.449 . S
O207 U206 2.454 . S
O207 C209 1.353 . S
O208 U206 2.458 . S
O208 C209 1.286 . S
C209 U206 2.984 . S
C209 O207 1.353 . S
C209 O208 1.286 . S
C209 C211 1.363 . S
C210 C200 1.465 . S
C210 U206 2.847 . S
C210 O224 1.249 . S
C210 O225 1.202 . S
C211 C209 1.363 . S
C211 C213 1.408 . S
C211 C216 1.342 . S
C212 C213 1.310 . S
C212 C215 1.461 . S
C212 H232 0.932 . S
C213 C211 1.408 . S
C213 C212 1.310 . S
C213 H233 0.930 . S
C214 C215 1.474 . S
C214 C216 1.290 . S
C214 H234 0.922 1_554 S
C215 C212 1.461 . S
C215 C214 1.474 . S
C216 C211 1.342 . S
C216 C214 1.290 . S
C216 H235 0.931 . S
C217 C220 1.424 . S
C217 C222 1.245 . S
C217 C223 1.428 . S
C218 C221 1.256 1_554 S
C218 C222 1.477 . S
C218 H236 0.932 . S
C219 C220 1.384 . S
C219 C221 1.473 1_554 S
C219 H237 0.929 . S
C220 C217 1.424 . S
C220 C219 1.384 . S
C220 H238 0.928 . S
C221 C218 1.256 1_556 S
C221 C219 1.473 1_556 S
C222 C217 1.245 . S
C222 C218 1.477 . S
C222 H239 0.932 . S
C223 U206 2.882 . S
C223 C217 1.428 . S
C223 O226 1.301 . S
C223 O227 1.282 . S
O224 U206 2.441 . S
O224 C210 1.249 . S
O225 U206 2.420 . S
O225 C210 1.202 . S
O226 U206 2.455 . S
O226 C223 1.301 . S
O227 U206 2.449 . S
O227 C223 1.282 . S
H228 C201 0.931 . S
H229 C203 0.929 . S
H230 C204 0.930 . S
H231 C205 0.931 . S
H232 C212 0.932 . S
H233 C213 0.930 . S
H234 C214 0.922 1_556 S
H235 C216 0.931 . S
H236 C218 0.932 . S
H237 C219 0.929 . S
H238 C220 0.928 . S
H239 C222 0.932 . S
C240 C241 1.264 . S
C240 C245 1.479 . S
C240 C250 1.465 . S
C241 C240 1.264 . S
C241 C243 1.339 . S
C241 H268 0.931 . S
C242 C243 1.395 . S
C242 C244 1.320 . S
C243 C241 1.339 . S
C243 C242 1.395 . S
C243 H269 0.929 . S
C244 C242 1.320 . S
C244 C245 1.405 . S
C244 H270 0.930 . S
C245 C240 1.479 . S
C245 C244 1.405 . S
C245 H271 0.931 . S
U246 O247 2.454 . S
U246 O248 2.458 . S
U246 C249 2.984 . S
U246 C250 2.847 . S
U246 C263 2.882 . S
U246 O264 2.441 . S
U246 O265 2.420 . S
U246 O266 2.455 . S
U246 O267 2.449 . S
O247 U246 2.454 . S
O247 C249 1.353 . S
O248 U246 2.458 . S
O248 C249 1.286 . S
C249 U246 2.984 . S
C249 O247 1.353 . S
C249 O248 1.286 . S
C249 C251 1.363 . S
C250 C240 1.465 . S
C250 U246 2.847 . S
C250 O264 1.249 . S
C250 O265 1.202 . S
C251 C249 1.363 . S
C251 C253 1.408 . S
C251 C256 1.342 . S
C252 C253 1.310 . S
C252 C255 1.461 . S
C252 H272 0.932 . S
C253 C251 1.408 . S
C253 C252 1.310 . S
C253 H273 0.930 . S
C254 C255 1.474 . S
C254 C256 1.285 . S
C254 H274 0.929 . S
C255 C252 1.461 . S
C255 C254 1.474 . S
C256 C251 1.342 . S
C256 C254 1.285 . S
C256 H275 0.930 . S
C257 C260 1.424 . S
C257 C262 1.245 . S
C257 C263 1.428 . S
C258 C261 1.260 . S
C258 C262 1.477 . S
C258 H276 0.932 . S
C259 C260 1.384 . S
C259 C261 1.479 . S
C259 H277 0.929 . S
C260 C257 1.424 . S
C260 C259 1.384 . S
C260 H278 0.928 . S
C261 C258 1.260 . S
C261 C259 1.479 . S
C262 C257 1.245 . S
C262 C258 1.477 . S
C262 H279 0.932 . S
C263 U246 2.882 . S
C263 C257 1.428 . S
C263 O266 1.301 . S
C263 O267 1.282 . S
O264 U246 2.441 . S
O264 C250 1.249 . S
O265 U246 2.420 . S
O265 C250 1.202 . S
O266 U246 2.455 . S
O266 C263 1.301 . S
O267 U246 2.449 . S
O267 C263 1.282 . S
H268 C241 0.931 . S
H269 C243 0.929 . S
H270 C244 0.930 . S
H271 C245 0.931 . S
H272 C252 0.932 . S
H273 C253 0.930 . S
H274 C254 0.929 . S
H275 C256 0.930 . S
H276 C258 0.932 . S
H277 C259 0.929 . S
H278 C260 0.928 . S
H279 C262 0.932 . S
C280 C281 1.264 . S
C280 C285 1.479 . S
C280 C290 1.465 . S
C281 C280 1.264 . S
C281 C283 1.339 . S
C281 H308 0.931 . S
C282 C283 1.395 . S
C282 C284 1.320 . S
C283 C281 1.339 . S
C283 C282 1.395 . S
C283 H309 0.929 . S
C284 C282 1.320 . S
C284 C285 1.405 . S
C284 H310 0.924 1_556 S
C285 C280 1.479 . S
C285 C284 1.405 . S
C285 H311 0.931 . S
U286 O287 2.454 . S
U286 O288 2.458 . S
U286 C289 2.984 . S
U286 C290 2.847 . S
U286 C303 2.882 . S
U286 O304 2.441 . S
U286 O305 2.420 . S
U286 O306 2.455 . S
U286 O307 2.449 . S
O287 U286 2.454 . S
O287 C289 1.353 . S
O288 U286 2.458 . S
O288 C289 1.286 . S
C289 U286 2.984 . S
C289 O287 1.353 . S
C289 O288 1.286 . S
C289 C291 1.363 . S
C290 C280 1.465 . S
C290 U286 2.847 . S
C290 O304 1.249 . S
C290 O305 1.202 . S
C291 C289 1.363 . S
C291 C293 1.408 . S
C291 C296 1.359 . S
C292 C293 1.310 . S
C292 C295 1.460 . S
C292 H312 0.932 . S
C293 C291 1.408 . S
C293 C292 1.310 . S
C293 H313 0.930 . S
C294 C295 1.473 1_554 S
C294 C296 1.280 1_554 S
C294 H314 0.931 . S
C295 C292 1.460 . S
C295 C294 1.473 1_556 S
C296 C291 1.359 . S
C296 C294 1.280 1_556 S
C296 H315 0.927 . S
C297 C300 1.424 . S
C297 C302 1.245 . S
C297 C303 1.428 . S
C298 C301 1.260 . S
C298 C302 1.477 . S
C298 H316 0.932 . S
C299 C300 1.384 . S
C299 C301 1.479 . S
C299 H317 0.929 . S
C300 C297 1.424 . S
C300 C299 1.384 . S
C300 H318 0.928 . S
C301 C298 1.260 . S
C301 C299 1.479 . S
C302 C297 1.245 . S
C302 C298 1.477 . S
C302 H319 0.932 . S
C303 U286 2.882 . S
C303 C297 1.428 . S
C303 O306 1.301 . S
C303 O307 1.282 . S
O304 U286 2.441 . S
O304 C290 1.249 . S
O305 U286 2.420 . S
O305 C290 1.202 . S
O306 U286 2.455 . S
O306 C303 1.301 . S
O307 U286 2.449 . S
O307 C303 1.282 . S
H308 C281 0.931 . S
H309 C283 0.929 . S
H310 C284 0.924 1_554 S
H311 C285 0.931 . S
H312 C292 0.932 . S
H313 C293 0.930 . S
H314 C294 0.931 . S
H315 C296 0.927 . S
H316 C298 0.932 . S
H317 C299 0.929 . S
H318 C300 0.928 . S
H319 C302 0.932 . S
C320 C321 1.264 . S
C320 C325 1.479 . S
C320 C330 1.465 . S
C321 C320 1.264 . S
C321 C323 1.339 . S
C321 H348 0.931 . S
C322 C323 1.395 . S
C322 C324 1.320 . S
C323 C321 1.339 . S
C323 C322 1.395 . S
C323 H349 0.929 . S
C324 C322 1.320 . S
C324 C325 1.405 . S
C324 H350 0.930 . S
C325 C320 1.479 . S
C325 C324 1.405 . S
C325 H351 0.931 . S
U326 O327 2.454 . S
U326 O328 2.458 . S
U326 C329 2.984 . S
U326 C330 2.847 . S
U326 C343 2.882 . S
U326 O344 2.441 . S
U326 O345 2.420 . S
U326 O346 2.455 . S
U326 O347 2.449 . S
O327 U326 2.454 . S
O327 C329 1.353 . S
O328 U326 2.458 . S
O328 C329 1.286 . S
C329 U326 2.984 . S
C329 O327 1.353 . S
C329 O328 1.286 . S
C329 C331 1.363 . S
C330 C320 1.465 . S
C330 U326 2.847 . S
C330 O344 1.249 . S
C330 O345 1.202 . S
C331 C329 1.363 . S
C331 C333 1.408 . S
C331 C336 1.342 . S
C332 C333 1.310 . S
C332 C335 1.461 . S
C332 H352 0.932 . S
C333 C331 1.408 . S
C333 C332 1.310 . S
C333 H353 0.930 . S
C334 C335 1.474 . S
C334 C336 1.285 . S
C334 H354 0.929 . S
C335 C332 1.461 . S
C335 C334 1.474 . S
C336 C331 1.342 . S
C336 C334 1.285 . S
C336 H355 0.930 . S
C337 C340 1.424 . S
C337 C342 1.245 . S
C337 C343 1.428 . S
C338 C341 1.260 . S
C338 C342 1.477 . S
C338 H356 0.932 . S
C339 C340 1.384 . S
C339 C341 1.479 . S
C339 H357 0.929 . S
C340 C337 1.424 . S
C340 C339 1.384 . S
C340 H358 0.928 . S
C341 C338 1.260 . S
C341 C339 1.479 . S
C342 C337 1.245 . S
C342 C338 1.477 . S
C342 H359 0.932 . S
C343 U326 2.882 . S
C343 C337 1.428 . S
C343 O346 1.301 . S
C343 O347 1.282 . S
O344 U326 2.441 . S
O344 C330 1.249 . S
O345 U326 2.420 . S
O345 C330 1.202 . S
O346 U326 2.455 . S
O346 C343 1.301 . S
O347 U326 2.449 . S
O347 C343 1.282 . S
H348 C321 0.931 . S
H349 C323 0.929 . S
H350 C324 0.930 . S
H351 C325 0.931 . S
H352 C332 0.932 . S
H353 C333 0.930 . S
H354 C334 0.929 . S
H355 C336 0.930 . S
H356 C338 0.932 . S
H357 C339 0.929 . S
H358 C340 0.928 . S
H359 C342 0.932 . S
C360 C361 1.264 . S
C360 C365 1.479 . S
C360 C370 1.465 . S
C361 C360 1.264 . S
C361 C363 1.339 . S
C361 H388 0.931 . S
C362 C363 1.395 . S
C362 C364 1.320 . S
C363 C361 1.339 . S
C363 C362 1.395 . S
C363 H389 0.929 . S
C364 C362 1.320 . S
C364 C365 1.405 . S
C364 H390 0.930 . S
C365 C360 1.479 . S
C365 C364 1.405 . S
C365 H391 0.931 . S
U366 O367 2.454 . S
U366 O368 2.458 . S
U366 C369 2.984 . S
U366 C370 2.847 . S
U366 C383 2.882 . S
U366 O384 2.441 . S
U366 O385 2.420 . S
U366 O386 2.455 . S
U366 O387 2.449 . S
O367 U366 2.454 . S
O367 C369 1.353 . S
O368 U366 2.458 . S
O368 C369 1.286 . S
C369 U366 2.984 . S
C369 O367 1.353 . S
C369 O368 1.286 . S
C369 C371 1.363 . S
C370 C360 1.465 . S
C370 U366 2.847 . S
C370 O384 1.249 . S
C370 O385 1.202 . S
C371 C369 1.363 . S
C371 C373 1.408 . S
C371 C376 1.342 . S
C372 C373 1.310 . S
C372 C375 1.461 . S
C372 H392 0.932 . S
C373 C371 1.408 . S
C373 C372 1.310 . S
C373 H393 0.930 . S
C374 C375 1.474 . S
C374 C376 1.290 . S
C374 H394 0.922 1_455 S
C375 C372 1.461 . S
C375 C374 1.474 . S
C376 C371 1.342 . S
C376 C374 1.290 . S
C376 H395 0.931 . S
C377 C380 1.424 . S
C377 C382 1.245 . S
C377 C383 1.428 . S
C378 C381 1.256 1_455 S
C378 C382 1.477 . S
C378 H396 0.932 . S
C379 C380 1.384 . S
C379 C381 1.473 1_455 S
C379 H397 0.929 . S
C380 C377 1.424 . S
C380 C379 1.384 . S
C380 H398 0.928 . S
C381 C378 1.256 1_655 S
C381 C379 1.473 1_655 S
C382 C377 1.245 . S
C382 C378 1.477 . S
C382 H399 0.932 . S
C383 U366 2.882 . S
C383 C377 1.428 . S
C383 O386 1.301 . S
C383 O387 1.282 . S
O384 U366 2.441 . S
O384 C370 1.249 . S
O385 U366 2.420 . S
O385 C370 1.202 . S
O386 U366 2.455 . S
O386 C383 1.301 . S
O387 U366 2.449 . S
O387 C383 1.282 . S
H388 C361 0.931 . S
H389 C363 0.929 . S
H390 C364 0.930 . S
H391 C365 0.931 . S
H392 C372 0.932 . S
H393 C373 0.930 . S
H394 C374 0.922 1_655 S
H395 C376 0.931 . S
H396 C378 0.932 . S
H397 C379 0.929 . S
H398 C380 0.928 . S
H399 C382 0.932 . S
C400 C401 1.264 . S
C400 C405 1.479 . S
C400 C410 1.465 . S
C401 C400 1.264 . S
C401 C403 1.339 . S
C401 H428 0.931 . S
C402 C403 1.395 . S
C402 C404 1.320 . S
C403 C401 1.339 . S
C403 C402 1.395 . S
C403 H429 0.929 . S
C404 C402 1.320 . S
C404 C405 1.405 . S
C404 H430 0.930 . S
C405 C400 1.479 . S
C405 C404 1.405 . S
C405 H431 0.931 . S
U406 O407 2.454 . S
U406 O408 2.458 . S
U406 C409 2.984 . S
U406 C410 2.847 . S
U406 C423 2.882 . S
U406 O424 2.441 . S
U406 O425 2.420 . S
U406 O426 2.455 . S
U406 O427 2.449 . S
O407 U406 2.454 . S
O407 C409 1.353 . S
O408 U406 2.458 . S
O408 C409 1.286 . S
C409 U406 2.984 . S
C409 O407 1.353 . S
C409 O408 1.286 . S
C409 C411 1.363 . S
C410 C400 1.465 . S
C410 U406 2.847 . S
C410 O424 1.249 . S
C410 O425 1.202 . S
C411 C409 1.363 . S
C411 C413 1.408 . S
C411 C416 1.342 . S
C412 C413 1.310 . S
C412 C415 1.461 . S
C412 H432 0.932 . S
C413 C411 1.408 . S
C413 C412 1.310 . S
C413 H433 0.930 . S
C414 C415 1.474 . S
C414 C416 1.285 . S
C414 H434 0.929 . S
C415 C412 1.461 . S
C415 C414 1.474 . S
C416 C411 1.342 . S
C416 C414 1.285 . S
C416 H435 0.930 . S
C417 C420 1.424 . S
C417 C422 1.245 . S
C417 C423 1.428 . S
C418 C421 1.260 . S
C418 C422 1.477 . S
C418 H436 0.932 . S
C419 C420 1.384 . S
C419 C421 1.479 . S
C419 H437 0.929 . S
C420 C417 1.424 . S
C420 C419 1.384 . S
C420 H438 0.928 . S
C421 C418 1.260 . S
C421 C419 1.479 . S
C422 C417 1.245 . S
C422 C418 1.477 . S
C422 H439 0.932 . S
C423 U406 2.882 . S
C423 C417 1.428 . S
C423 O426 1.301 . S
C423 O427 1.282 . S
O424 U406 2.441 . S
O424 C410 1.249 . S
O425 U406 2.420 . S
O425 C410 1.202 . S
O426 U406 2.455 . S
O426 C423 1.301 . S
O427 U406 2.449 . S
O427 C423 1.282 . S
H428 C401 0.931 . S
H429 C403 0.929 . S
H430 C404 0.930 . S
H431 C405 0.931 . S
H432 C412 0.932 . S
H433 C413 0.930 . S
H434 C414 0.929 . S
H435 C416 0.930 . S
H436 C418 0.932 . S
H437 C419 0.929 . S
H438 C420 0.928 . S
H439 C422 0.932 . S
C440 C441 1.264 . S
C440 C445 1.479 . S
C440 C450 1.465 . S
C441 C440 1.264 . S
C441 C443 1.339 . S
C441 H468 0.931 . S
C442 C443 1.395 . S
C442 C444 1.320 . S
C443 C441 1.339 . S
C443 C442 1.395 . S
C443 H469 0.929 . S
C444 C442 1.320 . S
C444 C445 1.405 . S
C444 H470 0.924 1_655 S
C445 C440 1.479 . S
C445 C444 1.405 . S
C445 H471 0.931 . S
U446 O447 2.454 . S
U446 O448 2.458 . S
U446 C449 2.984 . S
U446 C450 2.847 . S
U446 C463 2.882 . S
U446 O464 2.441 . S
U446 O465 2.420 . S
U446 O466 2.455 . S
U446 O467 2.449 . S
O447 U446 2.454 . S
O447 C449 1.353 . S
O448 U446 2.458 . S
O448 C449 1.286 . S
C449 U446 2.984 . S
C449 O447 1.353 . S
C449 O448 1.286 . S
C449 C451 1.363 . S
C450 C440 1.465 . S
C450 U446 2.847 . S
C450 O464 1.249 . S
C450 O465 1.202 . S
C451 C449 1.363 . S
C451 C453 1.408 . S
C451 C456 1.359 . S
C452 C453 1.310 . S
C452 C455 1.460 . S
C452 H472 0.932 . S
C453 C451 1.408 . S
C453 C452 1.310 . S
C453 H473 0.930 . S
C454 C455 1.473 1_455 S
C454 C456 1.280 1_455 S
C454 H474 0.931 . S
C455 C452 1.460 . S
C455 C454 1.473 1_655 S
C456 C451 1.359 . S
C456 C454 1.280 1_655 S
C456 H475 0.927 . S
C457 C460 1.424 . S
C457 C462 1.245 . S
C457 C463 1.428 . S
C458 C461 1.260 . S
C458 C462 1.477 . S
C458 H476 0.932 . S
C459 C460 1.384 . S
C459 C461 1.479 . S
C459 H477 0.929 . S
C460 C457 1.424 . S
C460 C459 1.384 . S
C460 H478 0.928 . S
C461 C458 1.260 . S
C461 C459 1.479 . S
C462 C457 1.245 . S
C462 C458 1.477 . S
C462 H479 0.932 . S
C463 U446 2.882 . S
C463 C457 1.428 . S
C463 O466 1.301 . S
C463 O467 1.282 . S
O464 U446 2.441 . S
O464 C450 1.249 . S
O465 U446 2.420 . S
O465 C450 1.202 . S
O466 U446 2.455 . S
O466 C463 1.301 . S
O467 U446 2.449 . S
O467 C463 1.282 . S
H468 C441 0.931 . S
H469 C443 0.929 . S
H470 C444 0.924 1_455 S
H471 C445 0.931 . S
H472 C452 0.932 . S
H473 C453 0.930 . S
H474 C454 0.931 . S
H475 C456 0.927 . S
H476 C458 0.932 . S
H477 C459 0.929 . S
H478 C460 0.928 . S
H479 C462 0.932 . S
C480 C481 1.264 . S
C480 C485 1.479 . S
C480 C490 1.465 . S
C481 C480 1.264 . S
C481 C483 1.339 . S
C481 H508 0.931 . S
C482 C483 1.395 . S
C482 C484 1.320 . S
C483 C481 1.339 . S
C483 C482 1.395 . S
C483 H509 0.929 . S
C484 C482 1.320 . S
C484 C485 1.405 . S
C484 H510 0.930 . S
C485 C480 1.479 . S
C485 C484 1.405 . S
C485 H511 0.931 . S
U486 O487 2.454 . S
U486 O488 2.458 . S
U486 C489 2.984 . S
U486 C490 2.847 . S
U486 C503 2.882 . S
U486 O504 2.441 . S
U486 O505 2.420 . S
U486 O506 2.455 . S
U486 O507 2.449 . S
O487 U486 2.454 . S
O487 C489 1.353 . S
O488 U486 2.458 . S
O488 C489 1.286 . S
C489 U486 2.984 . S
C489 O487 1.353 . S
C489 O488 1.286 . S
C489 C491 1.363 . S
C490 C480 1.465 . S
C490 U486 2.847 . S
C490 O504 1.249 . S
C490 O505 1.202 . S
C491 C489 1.363 . S
C491 C493 1.408 . S
C491 C496 1.342 . S
C492 C493 1.310 . S
C492 C495 1.461 . S
C492 H512 0.932 . S
C493 C491 1.408 . S
C493 C492 1.310 . S
C493 H513 0.930 . S
C494 C495 1.474 . S
C494 C496 1.285 . S
C494 H514 0.929 . S
C495 C492 1.461 . S
C495 C494 1.474 . S
C496 C491 1.342 . S
C496 C494 1.285 . S
C496 H515 0.930 . S
C497 C500 1.424 . S
C497 C502 1.245 . S
C497 C503 1.428 . S
C498 C501 1.260 . S
C498 C502 1.477 . S
C498 H516 0.932 . S
C499 C500 1.384 . S
C499 C501 1.479 . S
C499 H517 0.929 . S
C500 C497 1.424 . S
C500 C499 1.384 . S
C500 H518 0.928 . S
C501 C498 1.260 . S
C501 C499 1.479 . S
C502 C497 1.245 . S
C502 C498 1.477 . S
C502 H519 0.932 . S
C503 U486 2.882 . S
C503 C497 1.428 . S
C503 O506 1.301 . S
C503 O507 1.282 . S
O504 U486 2.441 . S
O504 C490 1.249 . S
O505 U486 2.420 . S
O505 C490 1.202 . S
O506 U486 2.455 . S
O506 C503 1.301 . S
O507 U486 2.449 . S
O507 C503 1.282 . S
H508 C481 0.931 . S
H509 C483 0.929 . S
H510 C484 0.930 . S
H511 C485 0.931 . S
H512 C492 0.932 . S
H513 C493 0.930 . S
H514 C494 0.929 . S
H515 C496 0.930 . S
H516 C498 0.932 . S
H517 C499 0.929 . S
H518 C500 0.928 . S
H519 C502 0.932 . S
C520 C521 1.264 . S
C520 C525 1.479 . S
C520 C530 1.465 . S
C521 C520 1.264 . S
C521 C523 1.339 . S
C521 H548 0.931 . S
C522 C523 1.395 . S
C522 C524 1.320 . S
C523 C521 1.339 . S
C523 C522 1.395 . S
C523 H549 0.929 . S
C524 C522 1.320 . S
C524 C525 1.405 . S
C524 H550 0.930 . S
C525 C520 1.479 . S
C525 C524 1.405 . S
C525 H551 0.931 . S
U526 O527 2.454 . S
U526 O528 2.458 . S
U526 C529 2.984 . S
U526 C530 2.847 . S
U526 C543 2.882 . S
U526 O544 2.441 . S
U526 O545 2.420 . S
U526 O546 2.455 . S
U526 O547 2.449 . S
O527 U526 2.454 . S
O527 C529 1.353 . S
O528 U526 2.458 . S
O528 C529 1.286 . S
C529 U526 2.984 . S
C529 O527 1.353 . S
C529 O528 1.286 . S
C529 C531 1.363 . S
C530 C520 1.465 . S
C530 U526 2.847 . S
C530 O544 1.249 . S
C530 O545 1.202 . S
C531 C529 1.363 . S
C531 C533 1.408 . S
C531 C536 1.342 . S
C532 C533 1.310 . S
C532 C535 1.461 . S
C532 H552 0.932 . S
C533 C531 1.408 . S
C533 C532 1.310 . S
C533 H553 0.930 . S
C534 C535 1.474 . S
C534 C536 1.285 . S
C534 H554 0.929 . S
C535 C532 1.461 . S
C535 C534 1.474 . S
C536 C531 1.342 . S
C536 C534 1.285 . S
C536 H555 0.930 . S
C537 C540 1.424 . S
C537 C542 1.245 . S
C537 C543 1.428 . S
C538 C541 1.260 . S
C538 C542 1.477 . S
C538 H556 0.932 . S
C539 C540 1.384 . S
C539 C541 1.479 . S
C539 H557 0.929 . S
C540 C537 1.424 . S
C540 C539 1.384 . S
C540 H558 0.928 . S
C541 C538 1.260 . S
C541 C539 1.479 . S
C542 C537 1.245 . S
C542 C538 1.477 . S
C542 H559 0.932 . S
C543 U526 2.882 . S
C543 C537 1.428 . S
C543 O546 1.301 . S
C543 O547 1.282 . S
O544 U526 2.441 . S
O544 C530 1.249 . S
O545 U526 2.420 . S
O545 C530 1.202 . S
O546 U526 2.455 . S
O546 C543 1.301 . S
O547 U526 2.449 . S
O547 C543 1.282 . S
H548 C521 0.931 . S
H549 C523 0.929 . S
H550 C524 0.930 . S
H551 C525 0.931 . S
H552 C532 0.932 . S
H553 C533 0.930 . S
H554 C534 0.929 . S
H555 C536 0.930 . S
H556 C538 0.932 . S
H557 C539 0.929 . S
H558 C540 0.928 . S
H559 C542 0.932 . S
C560 C561 1.264 . S
C560 C565 1.479 . S
C560 C570 1.465 . S
C561 C560 1.264 . S
C561 C563 1.339 . S
C561 H588 0.931 . S
C562 C563 1.395 . S
C562 C564 1.320 . S
C563 C561 1.339 . S
C563 C562 1.395 . S
C563 H589 0.929 . S
C564 C562 1.320 . S
C564 C565 1.405 . S
C564 H590 0.922 1_565 S
C565 C560 1.479 . S
C565 C564 1.405 . S
C565 H591 0.931 . S
U566 O567 2.454 . S
U566 O568 2.458 . S
U566 C569 2.984 . S
U566 C570 2.847 . S
U566 C583 2.882 . S
U566 O584 2.441 . S
U566 O585 2.420 . S
U566 O586 2.455 . S
U566 O587 2.449 . S
O567 U566 2.454 . S
O567 C569 1.353 . S
O568 U566 2.458 . S
O568 C569 1.286 . S
C569 U566 2.984 . S
C569 O567 1.353 . S
C569 O568 1.286 . S
C569 C571 1.363 . S
C570 C560 1.465 . S
C570 U566 2.847 . S
C570 O584 1.249 . S
C570 O585 1.202 . S
C571 C569 1.363 . S
C571 C573 1.408 . S
C571 C576 1.342 . S
C572 C573 1.310 . S
C572 C575 1.460 . S
C572 H592 0.932 . S
C573 C571 1.408 . S
C573 C572 1.310 . S
C573 H593 0.930 . S
C574 C575 1.474 1_545 S
C574 C576 1.286 1_545 S
C574 H594 0.929 . S
C575 C572 1.460 . S
C575 C574 1.474 1_565 S
C576 C571 1.342 . S
C576 C574 1.286 1_565 S
C576 H595 0.930 . S
C577 C580 1.424 . S
C577 C582 1.245 . S
C577 C583 1.428 . S
C578 C581 1.260 . S
C578 C582 1.477 . S
C578 H596 0.932 . S
C579 C580 1.384 . S
C579 C581 1.479 . S
C579 H597 0.929 . S
C580 C577 1.424 . S
C580 C579 1.384 . S
C580 H598 0.928 . S
C581 C578 1.260 . S
C581 C579 1.479 . S
C582 C577 1.245 . S
C582 C578 1.477 . S
C582 H599 0.932 . S
C583 U566 2.882 . S
C583 C577 1.428 . S
C583 O586 1.301 . S
C583 O587 1.282 . S
O584 U566 2.441 . S
O584 C570 1.249 . S
O585 U566 2.420 . S
O585 C570 1.202 . S
O586 U566 2.455 . S
O586 C583 1.301 . S
O587 U566 2.449 . S
O587 C583 1.282 . S
H588 C561 0.931 . S
H589 C563 0.929 . S
H590 C564 0.922 1_545 S
H591 C565 0.931 . S
H592 C572 0.932 . S
H593 C573 0.930 . S
H594 C574 0.929 . S
H595 C576 0.930 . S
H596 C578 0.932 . S
H597 C579 0.929 . S
H598 C580 0.928 . S
H599 C582 0.932 . S
C600 C601 1.264 . S
C600 C605 1.479 . S
C600 C610 1.465 . S
C601 C600 1.264 . S
C601 C603 1.339 . S
C601 H628 0.931 . S
C602 C603 1.404 . S
C602 C604 1.323 . S
C603 C601 1.339 . S
C603 C602 1.404 . S
C603 H629 0.929 . S
C604 C602 1.323 . S
C604 C605 1.408 . S
C604 H630 0.928 1_545 S
C605 C600 1.479 . S
C605 C604 1.408 . S
C605 H631 0.931 . S
U606 O607 2.454 . S
U606 O608 2.458 . S
U606 C609 2.984 . S
U606 C610 2.847 . S
U606 C623 2.882 . S
U606 O624 2.441 . S
U606 O625 2.420 . S
U606 O626 2.455 . S
U606 O627 2.449 . S
O607 U606 2.454 . S
O607 C609 1.353 . S
O608 U606 2.458 . S
O608 C609 1.286 . S
C609 U606 2.984 . S
C609 O607 1.353 . S
C609 O608 1.286 . S
C609 C611 1.363 . S
C610 C600 1.465 . S
C610 U606 2.847 . S
C610 O624 1.249 . S
C610 O625 1.202 . S
C611 C609 1.363 . S
C611 C613 1.408 . S
C611 C616 1.347 . S
C612 C613 1.310 1_565 S
C612 C615 1.460 . S
C612 H632 0.934 . S
C613 C611 1.408 . S
C613 C612 1.310 1_545 S
C613 H633 0.930 . S
C614 C615 1.476 . S
C614 C616 1.288 1_565 S
C614 H634 0.934 . S
C615 C612 1.460 . S
C615 C614 1.476 . S
C616 C611 1.347 . S
C616 C614 1.288 1_545 S
C616 H635 0.930 . S
C617 C620 1.424 . S
C617 C622 1.245 . S
C617 C623 1.428 . S
C618 C621 1.260 . S
C618 C622 1.477 . S
C618 H636 0.932 . S
C619 C620 1.384 . S
C619 C621 1.479 . S
C619 H637 0.929 . S
C620 C617 1.424 . S
C620 C619 1.384 . S
C620 H638 0.928 . S
C621 C618 1.260 . S
C621 C619 1.479 . S
C622 C617 1.245 . S
C622 C618 1.477 . S
C622 H639 0.932 . S
C623 U606 2.882 . S
C623 C617 1.428 . S
C623 O626 1.301 . S
C623 O627 1.282 . S
O624 U606 2.441 . S
O624 C610 1.249 . S
O625 U606 2.420 . S
O625 C610 1.202 . S
O626 U606 2.455 . S
O626 C623 1.301 . S
O627 U606 2.449 . S
O627 C623 1.282 . S
H628 C601 0.931 . S
H629 C603 0.929 . S
H630 C604 0.928 1_565 S
H631 C605 0.931 . S
H632 C612 0.934 . S
H633 C613 0.930 . S
H634 C614 0.934 . S
H635 C616 0.930 . S
H636 C618 0.932 . S
H637 C619 0.929 . S
H638 C620 0.928 . S
H639 C622 0.932 . S
C640 C641 1.264 . S
C640 C645 1.479 . S
C640 C650 1.465 . S
C641 C640 1.264 . S
C641 C643 1.339 . S
C641 H668 0.931 . S
C642 C643 1.395 . S
C642 C644 1.320 . S
C643 C641 1.339 . S
C643 C642 1.395 . S
C643 H669 0.929 . S
C644 C642 1.320 . S
C644 C645 1.405 . S
C644 H670 0.930 . S
C645 C640 1.479 . S
C645 C644 1.405 . S
C645 H671 0.931 . S
U646 O647 2.454 . S
U646 O648 2.458 . S
U646 C649 2.984 . S
U646 C650 2.847 . S
U646 C663 2.882 . S
U646 O664 2.441 . S
U646 O665 2.420 . S
U646 O666 2.455 . S
U646 O667 2.449 . S
O647 U646 2.454 . S
O647 C649 1.353 . S
O648 U646 2.458 . S
O648 C649 1.286 . S
C649 U646 2.984 . S
C649 O647 1.353 . S
C649 O648 1.286 . S
C649 C651 1.363 . S
C650 C640 1.465 . S
C650 U646 2.847 . S
C650 O664 1.249 . S
C650 O665 1.202 . S
C651 C649 1.363 . S
C651 C653 1.408 . S
C651 C656 1.342 . S
C652 C653 1.310 . S
C652 C655 1.461 . S
C652 H672 0.932 . S
C653 C651 1.408 . S
C653 C652 1.310 . S
C653 H673 0.930 . S
C654 C655 1.474 . S
C654 C656 1.285 . S
C654 H674 0.929 . S
C655 C652 1.461 . S
C655 C654 1.474 . S
C656 C651 1.342 . S
C656 C654 1.285 . S
C656 H675 0.930 . S
C657 C660 1.424 . S
C657 C662 1.245 . S
C657 C663 1.428 . S
C658 C661 1.260 . S
C658 C662 1.477 . S
C658 H676 0.932 . S
C659 C660 1.384 . S
C659 C661 1.479 . S
C659 H677 0.929 . S
C660 C657 1.424 . S
C660 C659 1.384 . S
C660 H678 0.928 . S
C661 C658 1.260 . S
C661 C659 1.479 . S
C662 C657 1.245 . S
C662 C658 1.477 . S
C662 H679 0.932 . S
C663 U646 2.882 . S
C663 C657 1.428 . S
C663 O666 1.301 . S
C663 O667 1.282 . S
O664 U646 2.441 . S
O664 C650 1.249 . S
O665 U646 2.420 . S
O665 C650 1.202 . S
O666 U646 2.455 . S
O666 C663 1.301 . S
O667 U646 2.449 . S
O667 C663 1.282 . S
H668 C641 0.931 . S
H669 C643 0.929 . S
H670 C644 0.930 . S
H671 C645 0.931 . S
H672 C652 0.932 . S
H673 C653 0.930 . S
H674 C654 0.929 . S
H675 C656 0.930 . S
H676 C658 0.932 . S
H677 C659 0.929 . S
H678 C660 0.928 . S
H679 C662 0.932 . S
C680 C681 1.264 . S
C680 C685 1.479 . S
C680 C690 1.465 . S
C681 C680 1.264 . S
C681 C683 1.339 . S
C681 H708 0.931 . S
C682 C683 1.404 . S
C682 C684 1.323 . S
C683 C681 1.339 . S
C683 C682 1.404 . S
C683 H709 0.929 . S
C684 C682 1.323 . S
C684 C685 1.408 . S
C684 H710 0.928 1_554 S
C685 C680 1.479 . S
C685 C684 1.408 . S
C685 H711 0.931 . S
U686 O687 2.454 . S
U686 O688 2.458 . S
U686 C689 2.984 . S
U686 C690 2.847 . S
U686 C703 2.882 . S
U686 O704 2.441 . S
U686 O705 2.420 . S
U686 O706 2.455 . S
U686 O707 2.449 . S
O687 U686 2.454 . S
O687 C689 1.353 . S
O688 U686 2.458 . S
O688 C689 1.286 . S
C689 U686 2.984 . S
C689 O687 1.353 . S
C689 O688 1.286 . S
C689 C691 1.363 . S
C690 C680 1.465 . S
C690 U686 2.847 . S
C690 O704 1.249 . S
C690 O705 1.202 . S
C691 C689 1.363 . S
C691 C693 1.408 . S
C691 C696 1.347 . S
C692 C693 1.310 1_556 S
C692 C695 1.460 . S
C692 H712 0.934 . S
C693 C691 1.408 . S
C693 C692 1.310 1_554 S
C693 H713 0.930 . S
C694 C695 1.476 . S
C694 C696 1.288 1_556 S
C694 H714 0.934 . S
C695 C692 1.460 . S
C695 C694 1.476 . S
C696 C691 1.347 . S
C696 C694 1.288 1_554 S
C696 H715 0.930 . S
C697 C700 1.424 . S
C697 C702 1.245 . S
C697 C703 1.428 . S
C698 C701 1.260 . S
C698 C702 1.477 . S
C698 H716 0.932 . S
C699 C700 1.384 . S
C699 C701 1.479 . S
C699 H717 0.929 . S
C700 C697 1.424 . S
C700 C699 1.384 . S
C700 H718 0.928 . S
C701 C698 1.260 . S
C701 C699 1.479 . S
C702 C697 1.245 . S
C702 C698 1.477 . S
C702 H719 0.932 . S
C703 U686 2.882 . S
C703 C697 1.428 . S
C703 O706 1.301 . S
C703 O707 1.282 . S
O704 U686 2.441 . S
O704 C690 1.249 . S
O705 U686 2.420 . S
O705 C690 1.202 . S
O706 U686 2.455 . S
O706 C703 1.301 . S
O707 U686 2.449 . S
O707 C703 1.282 . S
H708 C681 0.931 . S
H709 C683 0.929 . S
H710 C684 0.928 1_556 S
H711 C685 0.931 . S
H712 C692 0.934 . S
H713 C693 0.930 . S
H714 C694 0.934 . S
H715 C696 0.930 . S
H716 C698 0.932 . S
H717 C699 0.929 . S
H718 C700 0.928 . S
H719 C702 0.932 . S
C720 C721 1.264 . S
C720 C725 1.479 . S
C720 C730 1.465 . S
C721 C720 1.264 . S
C721 C723 1.339 . S
C721 H748 0.931 . S
C722 C723 1.395 . S
C722 C724 1.320 . S
C723 C721 1.339 . S
C723 C722 1.395 . S
C723 H749 0.929 . S
C724 C722 1.320 . S
C724 C725 1.405 . S
C724 H750 0.930 . S
C725 C720 1.479 . S
C725 C724 1.405 . S
C725 H751 0.931 . S
U726 O727 2.454 . S
U726 O728 2.458 . S
U726 C729 2.984 . S
U726 C730 2.847 . S
U726 C743 2.882 . S
U726 O744 2.441 . S
U726 O745 2.420 . S
U726 O746 2.455 . S
U726 O747 2.449 . S
O727 U726 2.454 . S
O727 C729 1.353 . S
O728 U726 2.458 . S
O728 C729 1.286 . S
C729 U726 2.984 . S
C729 O727 1.353 . S
C729 O728 1.286 . S
C729 C731 1.363 . S
C730 C720 1.465 . S
C730 U726 2.847 . S
C730 O744 1.249 . S
C730 O745 1.202 . S
C731 C729 1.363 . S
C731 C733 1.408 . S
C731 C736 1.342 . S
C732 C733 1.310 . S
C732 C735 1.461 . S
C732 H752 0.932 . S
C733 C731 1.408 . S
C733 C732 1.310 . S
C733 H753 0.930 . S
C734 C735 1.474 . S
C734 C736 1.285 . S
C734 H754 0.929 . S
C735 C732 1.461 . S
C735 C734 1.474 . S
C736 C731 1.342 . S
C736 C734 1.285 . S
C736 H755 0.930 . S
C737 C740 1.424 . S
C737 C742 1.245 . S
C737 C743 1.428 . S
C738 C741 1.260 . S
C738 C742 1.477 . S
C738 H756 0.932 . S
C739 C740 1.384 . S
C739 C741 1.479 . S
C739 H757 0.929 . S
C740 C737 1.424 . S
C740 C739 1.384 . S
C740 H758 0.928 . S
C741 C738 1.260 . S
C741 C739 1.479 . S
C742 C737 1.245 . S
C742 C738 1.477 . S
C742 H759 0.932 . S
C743 U726 2.882 . S
C743 C737 1.428 . S
C743 O746 1.301 . S
C743 O747 1.282 . S
O744 U726 2.441 . S
O744 C730 1.249 . S
O745 U726 2.420 . S
O745 C730 1.202 . S
O746 U726 2.455 . S
O746 C743 1.301 . S
O747 U726 2.449 . S
O747 C743 1.282 . S
H748 C721 0.931 . S
H749 C723 0.929 . S
H750 C724 0.930 . S
H751 C725 0.931 . S
H752 C732 0.932 . S
H753 C733 0.930 . S
H754 C734 0.929 . S
H755 C736 0.930 . S
H756 C738 0.932 . S
H757 C739 0.929 . S
H758 C740 0.928 . S
H759 C742 0.932 . S
C760 C761 1.264 . S
C760 C765 1.479 . S
C760 C770 1.465 . S
C761 C760 1.264 . S
C761 C763 1.339 . S
C761 H788 0.931 . S
C762 C763 1.395 . S
C762 C764 1.320 . S
C763 C761 1.339 . S
C763 C762 1.395 . S
C763 H789 0.929 . S
C764 C762 1.320 . S
C764 C765 1.405 . S
C764 H790 0.922 1_556 S
C765 C760 1.479 . S
C765 C764 1.405 . S
C765 H791 0.931 . S
U766 O767 2.454 . S
U766 O768 2.458 . S
U766 C769 2.984 . S
U766 C770 2.847 . S
U766 C783 2.882 . S
U766 O784 2.441 . S
U766 O785 2.420 . S
U766 O786 2.455 . S
U766 O787 2.449 . S
O767 U766 2.454 . S
O767 C769 1.353 . S
O768 U766 2.458 . S
O768 C769 1.286 . S
C769 U766 2.984 . S
C769 O767 1.353 . S
C769 O768 1.286 . S
C769 C771 1.363 . S
C770 C760 1.465 . S
C770 U766 2.847 . S
C770 O784 1.249 . S
C770 O785 1.202 . S
C771 C769 1.363 . S
C771 C773 1.408 . S
C771 C776 1.342 . S
C772 C773 1.310 . S
C772 C775 1.460 . S
C772 H792 0.932 . S
C773 C771 1.408 . S
C773 C772 1.310 . S
C773 H793 0.930 . S
C774 C775 1.474 1_554 S
C774 C776 1.286 1_554 S
C774 H794 0.929 . S
C775 C772 1.460 . S
C775 C774 1.474 1_556 S
C776 C771 1.342 . S
C776 C774 1.286 1_556 S
C776 H795 0.930 . S
C777 C780 1.424 . S
C777 C782 1.245 . S
C777 C783 1.428 . S
C778 C781 1.260 . S
C778 C782 1.477 . S
C778 H796 0.932 . S
C779 C780 1.384 . S
C779 C781 1.479 . S
C779 H797 0.929 . S
C780 C777 1.424 . S
C780 C779 1.384 . S
C780 H798 0.928 . S
C781 C778 1.260 . S
C781 C779 1.479 . S
C782 C777 1.245 . S
C782 C778 1.477 . S
C782 H799 0.932 . S
C783 U766 2.882 . S
C783 C777 1.428 . S
C783 O786 1.301 . S
C783 O787 1.282 . S
O784 U766 2.441 . S
O784 C770 1.249 . S
O785 U766 2.420 . S
O785 C770 1.202 . S
O786 U766 2.455 . S
O786 C783 1.301 . S
O787 U766 2.449 . S
O787 C783 1.282 . S
H788 C761 0.931 . S
H789 C763 0.929 . S
H790 C764 0.922 1_554 S
H791 C765 0.931 . S
H792 C772 0.932 . S
H793 C773 0.930 . S
H794 C774 0.929 . S
H795 C776 0.930 . S
H796 C778 0.932 . S
H797 C779 0.929 . S
H798 C780 0.928 . S
H799 C782 0.932 . S
C800 C801 1.264 . S
C800 C805 1.479 . S
C800 C810 1.465 . S
C801 C800 1.264 . S
C801 C803 1.339 . S
C801 H828 0.931 . S
C802 C803 1.395 . S
C802 C804 1.320 . S
C803 C801 1.339 . S
C803 C802 1.395 . S
C803 H829 0.929 . S
C804 C802 1.320 . S
C804 C805 1.405 . S
C804 H830 0.930 . S
C805 C800 1.479 . S
C805 C804 1.405 . S
C805 H831 0.931 . S
U806 O807 2.454 . S
U806 O808 2.458 . S
U806 C809 2.984 . S
U806 C810 2.847 . S
U806 C823 2.882 . S
U806 O824 2.441 . S
U806 O825 2.420 . S
U806 O826 2.455 . S
U806 O827 2.449 . S
O807 U806 2.454 . S
O807 C809 1.353 . S
O808 U806 2.458 . S
O808 C809 1.286 . S
C809 U806 2.984 . S
C809 O807 1.353 . S
C809 O808 1.286 . S
C809 C811 1.363 . S
C810 C800 1.465 . S
C810 U806 2.847 . S
C810 O824 1.249 . S
C810 O825 1.202 . S
C811 C809 1.363 . S
C811 C813 1.408 . S
C811 C816 1.342 . S
C812 C813 1.310 . S
C812 C815 1.461 . S
C812 H832 0.932 . S
C813 C811 1.408 . S
C813 C812 1.310 . S
C813 H833 0.930 . S
C814 C815 1.474 . S
C814 C816 1.285 . S
C814 H834 0.929 . S
C815 C812 1.461 . S
C815 C814 1.474 . S
C816 C811 1.342 . S
C816 C814 1.285 . S
C816 H835 0.930 . S
C817 C820 1.424 . S
C817 C822 1.245 . S
C817 C823 1.428 . S
C818 C821 1.260 . S
C818 C822 1.477 . S
C818 H836 0.932 . S
C819 C820 1.384 . S
C819 C821 1.479 . S
C819 H837 0.929 . S
C820 C817 1.424 . S
C820 C819 1.384 . S
C820 H838 0.928 . S
C821 C818 1.260 . S
C821 C819 1.479 . S
C822 C817 1.245 . S
C822 C818 1.477 . S
C822 H839 0.932 . S
C823 U806 2.882 . S
C823 C817 1.428 . S
C823 O826 1.301 . S
C823 O827 1.282 . S
O824 U806 2.441 . S
O824 C810 1.249 . S
O825 U806 2.420 . S
O825 C810 1.202 . S
O826 U806 2.455 . S
O826 C823 1.301 . S
O827 U806 2.449 . S
O827 C823 1.282 . S
H828 C801 0.931 . S
H829 C803 0.929 . S
H830 C804 0.930 . S
H831 C805 0.931 . S
H832 C812 0.932 . S
H833 C813 0.930 . S
H834 C814 0.929 . S
H835 C816 0.930 . S
H836 C818 0.932 . S
H837 C819 0.929 . S
H838 C820 0.928 . S
H839 C822 0.932 . S
C840 C841 1.264 . S
C840 C845 1.479 . S
C840 C850 1.465 . S
C841 C840 1.264 . S
C841 C843 1.339 . S
C841 H868 0.931 . S
C842 C843 1.404 . S
C842 C844 1.323 . S
C843 C841 1.339 . S
C843 C842 1.404 . S
C843 H869 0.929 . S
C844 C842 1.323 . S
C844 C845 1.408 . S
C844 H870 0.928 1_455 S
C845 C840 1.479 . S
C845 C844 1.408 . S
C845 H871 0.931 . S
U846 O847 2.454 . S
U846 O848 2.458 . S
U846 C849 2.984 . S
U846 C850 2.847 . S
U846 C863 2.882 . S
U846 O864 2.441 . S
U846 O865 2.420 . S
U846 O866 2.455 . S
U846 O867 2.449 . S
O847 U846 2.454 . S
O847 C849 1.353 . S
O848 U846 2.458 . S
O848 C849 1.286 . S
C849 U846 2.984 . S
C849 O847 1.353 . S
C849 O848 1.286 . S
C849 C851 1.363 . S
C850 C840 1.465 . S
C850 U846 2.847 . S
C850 O864 1.249 . S
C850 O865 1.202 . S
C851 C849 1.363 . S
C851 C853 1.408 . S
C851 C856 1.347 . S
C852 C853 1.310 1_655 S
C852 C855 1.460 . S
C852 H872 0.934 . S
C853 C851 1.408 . S
C853 C852 1.310 1_455 S
C853 H873 0.930 . S
C854 C855 1.476 . S
C854 C856 1.288 1_655 S
C854 H874 0.934 . S
C855 C852 1.460 . S
C855 C854 1.476 . S
C856 C851 1.347 . S
C856 C854 1.288 1_455 S
C856 H875 0.930 . S
C857 C860 1.424 . S
C857 C862 1.245 . S
C857 C863 1.428 . S
C858 C861 1.260 . S
C858 C862 1.477 . S
C858 H876 0.932 . S
C859 C860 1.384 . S
C859 C861 1.479 . S
C859 H877 0.929 . S
C860 C857 1.424 . S
C860 C859 1.384 . S
C860 H878 0.928 . S
C861 C858 1.260 . S
C861 C859 1.479 . S
C862 C857 1.245 . S
C862 C858 1.477 . S
C862 H879 0.932 . S
C863 U846 2.882 . S
C863 C857 1.428 . S
C863 O866 1.301 . S
C863 O867 1.282 . S
O864 U846 2.441 . S
O864 C850 1.249 . S
O865 U846 2.420 . S
O865 C850 1.202 . S
O866 U846 2.455 . S
O866 C863 1.301 . S
O867 U846 2.449 . S
O867 C863 1.282 . S
H868 C841 0.931 . S
H869 C843 0.929 . S
H870 C844 0.928 1_655 S
H871 C845 0.931 . S
H872 C852 0.934 . S
H873 C853 0.930 . S
H874 C854 0.934 . S
H875 C856 0.930 . S
H876 C858 0.932 . S
H877 C859 0.929 . S
H878 C860 0.928 . S
H879 C862 0.932 . S
C880 C881 1.264 . S
C880 C885 1.479 . S
C880 C890 1.465 . S
C881 C880 1.264 . S
C881 C883 1.339 . S
C881 H908 0.931 . S
C882 C883 1.395 . S
C882 C884 1.320 . S
C883 C881 1.339 . S
C883 C882 1.395 . S
C883 H909 0.929 . S
C884 C882 1.320 . S
C884 C885 1.405 . S
C884 H910 0.930 . S
C885 C880 1.479 . S
C885 C884 1.405 . S
C885 H911 0.931 . S
U886 O887 2.454 . S
U886 O888 2.458 . S
U886 C889 2.984 . S
U886 C890 2.847 . S
U886 C903 2.882 . S
U886 O904 2.441 . S
U886 O905 2.420 . S
U886 O906 2.455 . S
U886 O907 2.449 . S
O887 U886 2.454 . S
O887 C889 1.353 . S
O888 U886 2.458 . S
O888 C889 1.286 . S
C889 U886 2.984 . S
C889 O887 1.353 . S
C889 O888 1.286 . S
C889 C891 1.363 . S
C890 C880 1.465 . S
C890 U886 2.847 . S
C890 O904 1.249 . S
C890 O905 1.202 . S
C891 C889 1.363 . S
C891 C893 1.408 . S
C891 C896 1.342 . S
C892 C893 1.310 . S
C892 C895 1.461 . S
C892 H912 0.932 . S
C893 C891 1.408 . S
C893 C892 1.310 . S
C893 H913 0.930 . S
C894 C895 1.474 . S
C894 C896 1.285 . S
C894 H914 0.929 . S
C895 C892 1.461 . S
C895 C894 1.474 . S
C896 C891 1.342 . S
C896 C894 1.285 . S
C896 H915 0.930 . S
C897 C900 1.424 . S
C897 C902 1.245 . S
C897 C903 1.428 . S
C898 C901 1.260 . S
C898 C902 1.477 . S
C898 H916 0.932 . S
C899 C900 1.384 . S
C899 C901 1.479 . S
C899 H917 0.929 . S
C900 C897 1.424 . S
C900 C899 1.384 . S
C900 H918 0.928 . S
C901 C898 1.260 . S
C901 C899 1.479 . S
C902 C897 1.245 . S
C902 C898 1.477 . S
C902 H919 0.932 . S
C903 U886 2.882 . S
C903 C897 1.428 . S
C903 O906 1.301 . S
C903 O907 1.282 . S
O904 U886 2.441 . S
O904 C890 1.249 . S
O905 U886 2.420 . S
O905 C890 1.202 . S
O906 U886 2.455 . S
O906 C903 1.301 . S
O907 U886 2.449 . S
O907 C903 1.282 . S
H908 C881 0.931 . S
H909 C883 0.929 . S
H910 C884 0.930 . S
H911 C885 0.931 . S
H912 C892 0.932 . S
H913 C893 0.930 . S
H914 C894 0.929 . S
H915 C896 0.930 . S
H916 C898 0.932 . S
H917 C899 0.929 . S
H918 C900 0.928 . S
H919 C902 0.932 . S
C920 C921 1.264 . S
C920 C925 1.479 . S
C920 C930 1.465 . S
C921 C920 1.264 . S
C921 C923 1.339 . S
C921 H948 0.931 . S
C922 C923 1.395 . S
C922 C924 1.320 . S
C923 C921 1.339 . S
C923 C922 1.395 . S
C923 H949 0.929 . S
C924 C922 1.320 . S
C924 C925 1.405 . S
C924 H950 0.922 1_655 S
C925 C920 1.479 . S
C925 C924 1.405 . S
C925 H951 0.931 . S
U926 O927 2.454 . S
U926 O928 2.458 . S
U926 C929 2.984 . S
U926 C930 2.847 . S
U926 C943 2.882 . S
U926 O944 2.441 . S
U926 O945 2.420 . S
U926 O946 2.455 . S
U926 O947 2.449 . S
O927 U926 2.454 . S
O927 C929 1.353 . S
O928 U926 2.458 . S
O928 C929 1.286 . S
C929 U926 2.984 . S
C929 O927 1.353 . S
C929 O928 1.286 . S
C929 C931 1.363 . S
C930 C920 1.465 . S
C930 U926 2.847 . S
C930 O944 1.249 . S
C930 O945 1.202 . S
C931 C929 1.363 . S
C931 C933 1.408 . S
C931 C936 1.342 . S
C932 C933 1.310 . S
C932 C935 1.460 . S
C932 H952 0.932 . S
C933 C931 1.408 . S
C933 C932 1.310 . S
C933 H953 0.930 . S
C934 C935 1.474 1_455 S
C934 C936 1.286 1_455 S
C934 H954 0.929 . S
C935 C932 1.460 . S
C935 C934 1.474 1_655 S
C936 C931 1.342 . S
C936 C934 1.286 1_655 S
C936 H955 0.930 . S
C937 C940 1.424 . S
C937 C942 1.245 . S
C937 C943 1.428 . S
C938 C941 1.260 . S
C938 C942 1.477 . S
C938 H956 0.932 . S
C939 C940 1.384 . S
C939 C941 1.479 . S
C939 H957 0.929 . S
C940 C937 1.424 . S
C940 C939 1.384 . S
C940 H958 0.928 . S
C941 C938 1.260 . S
C941 C939 1.479 . S
C942 C937 1.245 . S
C942 C938 1.477 . S
C942 H959 0.932 . S
C943 U926 2.882 . S
C943 C937 1.428 . S
C943 O946 1.301 . S
C943 O947 1.282 . S
O944 U926 2.441 . S
O944 C930 1.249 . S
O945 U926 2.420 . S
O945 C930 1.202 . S
O946 U926 2.455 . S
O946 C943 1.301 . S
O947 U926 2.449 . S
O947 C943 1.282 . S
H948 C921 0.931 . S
H949 C923 0.929 . S
H950 C924 0.922 1_455 S
H951 C925 0.931 . S
H952 C932 0.932 . S
H953 C933 0.930 . S
H954 C934 0.929 . S
H955 C936 0.930 . S
H956 C938 0.932 . S
H957 C939 0.929 . S
H958 C940 0.928 . S
H959 C942 0.932 . S
O960 Cd961 2.300 . S
O960 C967 1.275 . S
Cd961 O960 2.300 . S
Cd961 O969 2.381 . S
Cd961 O970 2.378 . S
O962 Cd963 2.385 . S
O962 C967 1.255 . S
Cd963 O962 2.385 . S
Cd963 O964 2.317 . S
O964 Cd963 2.317 . S
O964 C965 1.232 . S
C965 O964 1.232 . S
C965 O966 1.218 . S
O966 C965 1.218 . S
C967 O960 1.275 . S
C967 O962 1.255 . S
C968 O969 1.258 . S
C968 O970 1.256 . S
O969 Cd961 2.381 . S
O969 C968 1.258 . S
O970 Cd961 2.378 . S
O970 C968 1.256 . S
O971 Cd972 2.300 1_556 S
O971 C978 1.275 . S
Cd972 O971 2.300 1_554 S
Cd972 O980 2.381 1_554 S
Cd972 O981 2.378 . S
O973 Cd974 2.385 1_556 S
O973 C978 1.255 . S
Cd974 O973 2.385 1_554 S
Cd974 O975 2.317 . S
O975 Cd974 2.317 . S
O975 C976 1.232 . S
C976 O975 1.232 . S
C976 O977 1.218 . S
O977 C976 1.218 . S
C978 O971 1.275 . S
C978 O973 1.255 . S
C979 O980 1.258 1_554 S
C979 O981 1.256 . S
O980 Cd972 2.381 1_556 S
O980 C979 1.258 1_556 S
O981 Cd972 2.378 . S
O981 C979 1.256 . S
O982 Cd983 2.300 . S
O982 C989 1.338 . S
Cd983 O982 2.300 . S
Cd983 O991 2.381 . S
Cd983 O992 2.378 . S
O984 Cd985 2.385 . S
O984 C989 1.210 1_565 S
Cd985 O984 2.385 . S
Cd985 O986 2.317 . S
O986 Cd985 2.317 . S
O986 C987 1.232 . S
C987 O986 1.232 . S
C987 O988 1.218 . S
O988 C987 1.218 . S
C989 O982 1.338 . S
C989 O984 1.210 1_545 S
C990 O991 1.258 . S
C990 O992 1.256 . S
O991 Cd983 2.381 . S
O991 C990 1.258 . S
O992 Cd983 2.378 . S
O992 C990 1.256 . S
O993 Cd994 2.300 . S
O993 C1000 1.275 . S
Cd994 O993 2.300 . S
Cd994 O1002 2.381 1_554 S
Cd994 O1003 2.378 1_554 S
O995 Cd996 2.412 . S
O995 C1000 1.232 1_545 S
Cd996 O995 2.412 . S
Cd996 O997 2.317 1_554 S
O997 Cd996 2.317 1_556 S
O997 C998 1.232 . S
C998 O997 1.232 . S
C998 O999 1.218 1_556 S
O999 C998 1.218 1_554 S
C1000 O993 1.275 . S
C1000 O995 1.232 1_565 S
C1001 O1002 1.258 . S
C1001 O1003 1.256 . S
O1002 Cd994 2.381 1_556 S
O1002 C1001 1.258 . S
O1003 Cd994 2.378 1_556 S
O1003 C1001 1.256 . S
O1004 Cd1005 2.300 . S
O1004 C1011 1.275 . S
Cd1005 O1004 2.300 . S
Cd1005 O1013 2.381 . S
Cd1005 O1014 2.378 . S
O1006 Cd1007 2.385 . S
O1006 C1011 1.255 . S
Cd1007 O1006 2.385 . S
Cd1007 O1008 2.317 . S
O1008 Cd1007 2.317 . S
O1008 C1009 1.232 . S
C1009 O1008 1.232 . S
C1009 O1010 1.218 . S
O1010 C1009 1.218 . S
C1011 O1004 1.275 . S
C1011 O1006 1.255 . S
C1012 O1013 1.258 . S
C1012 O1014 1.256 . S
O1013 Cd1005 2.381 . S
O1013 C1012 1.258 . S
O1014 Cd1005 2.378 . S
O1014 C1012 1.256 . S
O1015 Cd1016 2.300 . S
O1015 C1022 1.275 . S
Cd1016 O1015 2.300 . S
Cd1016 O1024 2.381 1_455 S
Cd1016 O1025 2.378 1_455 S
O1017 Cd1018 2.412 . S
O1017 C1022 1.233 1_554 S
Cd1018 O1017 2.412 . S
Cd1018 O1019 2.317 1_455 S
O1019 Cd1018 2.317 1_655 S
O1019 C1020 1.232 . S
C1020 O1019 1.232 . S
C1020 O1021 1.218 1_655 S
O1021 C1020 1.218 1_455 S
C1022 O1015 1.275 . S
C1022 O1017 1.233 1_556 S
C1023 O1024 1.258 . S
C1023 O1025 1.256 . S
O1024 Cd1016 2.381 1_655 S
O1024 C1023 1.258 . S
O1025 Cd1016 2.378 1_655 S
O1025 C1023 1.256 . S
O1026 Cd1027 2.300 1_655 S
O1026 C1033 1.275 . S
Cd1027 O1026 2.300 1_455 S
Cd1027 O1035 2.381 1_455 S
Cd1027 O1036 2.378 . S
O1028 Cd1029 2.385 1_655 S
O1028 C1033 1.255 . S
Cd1029 O1028 2.385 1_455 S
Cd1029 O1030 2.317 . S
O1030 Cd1029 2.317 . S
O1030 C1031 1.232 . S
C1031 O1030 1.232 . S
C1031 O1032 1.218 . S
O1032 C1031 1.218 . S
C1033 O1026 1.275 . S
C1033 O1028 1.255 . S
C1034 O1035 1.258 1_455 S
C1034 O1036 1.256 . S
O1035 Cd1027 2.381 1_655 S
O1035 C1034 1.258 1_655 S
O1036 Cd1027 2.378 . S
O1036 C1034 1.256 . S
O1037 Cd1038 2.300 . S
O1037 C1044 1.338 . S
Cd1038 O1037 2.300 . S
Cd1038 O1046 2.381 . S
Cd1038 O1047 2.378 . S
O1039 Cd1040 2.385 . S
O1039 C1044 1.210 1_556 S
Cd1040 O1039 2.385 . S
Cd1040 O1041 2.317 . S
O1041 Cd1040 2.317 . S
O1041 C1042 1.232 . S
C1042 O1041 1.232 . S
C1042 O1043 1.218 . S
O1043 C1042 1.218 . S
C1044 O1037 1.338 . S
C1044 O1039 1.210 1_554 S
C1045 O1046 1.258 . S
C1045 O1047 1.256 . S
O1046 Cd1038 2.381 . S
O1046 C1045 1.258 . S
O1047 Cd1038 2.378 . S
O1047 C1045 1.256 . S
O1048 Cd1049 2.300 . S
O1048 C1055 1.275 . S
Cd1049 O1048 2.300 . S
Cd1049 O1057 2.381 . S
Cd1049 O1058 2.378 . S
O1050 Cd1051 2.385 . S
O1050 C1055 1.255 . S
Cd1051 O1050 2.385 . S
Cd1051 O1052 2.317 . S
O1052 Cd1051 2.317 . S
O1052 C1053 1.232 . S
C1053 O1052 1.232 . S
C1053 O1054 1.218 . S
O1054 C1053 1.218 . S
C1055 O1048 1.275 . S
C1055 O1050 1.255 . S
C1056 O1057 1.258 . S
C1056 O1058 1.256 . S
O1057 Cd1049 2.381 . S
O1057 C1056 1.258 . S
O1058 Cd1049 2.378 . S
O1058 C1056 1.256 . S
O1059 Cd1060 2.300 . S
O1059 C1066 1.275 . S
Cd1060 O1059 2.300 . S
Cd1060 O1068 2.381 1_545 S
Cd1060 O1069 2.378 1_545 S
O1061 Cd1062 2.412 . S
O1061 C1066 1.233 1_455 S
Cd1062 O1061 2.412 . S
Cd1062 O1063 2.317 1_545 S
O1063 Cd1062 2.317 1_565 S
O1063 C1064 1.232 . S
C1064 O1063 1.232 . S
C1064 O1065 1.218 1_565 S
O1065 C1064 1.218 1_545 S
C1066 O1059 1.275 . S
C1066 O1061 1.233 1_655 S
C1067 O1068 1.258 . S
C1067 O1069 1.256 . S
O1068 Cd1060 2.381 1_565 S
O1068 C1067 1.258 . S
O1069 Cd1060 2.378 1_565 S
O1069 C1067 1.256 . S
O1070 Cd1071 2.300 1_565 S
O1070 C1077 1.275 . S
Cd1071 O1070 2.300 1_545 S
Cd1071 O1079 2.381 1_545 S
Cd1071 O1080 2.378 . S
O1072 Cd1073 2.385 1_565 S
O1072 C1077 1.255 . S
Cd1073 O1072 2.385 1_545 S
Cd1073 O1074 2.317 . S
O1074 Cd1073 2.317 . S
O1074 C1075 1.232 . S
C1075 O1074 1.232 . S
C1075 O1076 1.218 . S
O1076 C1075 1.218 . S
C1077 O1070 1.275 . S
C1077 O1072 1.255 . S
C1078 O1079 1.258 1_545 S
C1078 O1080 1.256 . S
O1079 Cd1071 2.381 1_565 S
O1079 C1078 1.258 1_565 S
O1080 Cd1071 2.378 . S
O1080 C1078 1.256 . S
O1081 Cd1082 2.300 . S
O1081 C1088 1.338 . S
Cd1082 O1081 2.300 . S
Cd1082 O1090 2.381 . S
Cd1082 O1091 2.378 . S
O1083 Cd1084 2.385 . S
O1083 C1088 1.210 1_655 S
Cd1084 O1083 2.385 . S
Cd1084 O1085 2.317 . S
O1085 Cd1084 2.317 . S
O1085 C1086 1.232 . S
C1086 O1085 1.232 . S
C1086 O1087 1.218 . S
O1087 C1086 1.218 . S
C1088 O1081 1.338 . S
C1088 O1083 1.210 1_455 S
C1089 O1090 1.258 . S
C1089 O1091 1.256 . S
O1090 Cd1082 2.381 . S
O1090 C1089 1.258 . S
O1091 Cd1082 2.378 . S
O1091 C1089 1.256 . S
O1092 Cd1093 2.300 . S
O1092 C1099 1.275 . S
Cd1093 O1092 2.300 . S
Cd1093 O1101 2.381 . S
Cd1093 O1102 2.378 . S
O1094 Cd1095 2.385 . S
O1094 C1099 1.255 . S
Cd1095 O1094 2.385 . S
Cd1095 O1096 2.317 . S
O1096 Cd1095 2.317 . S
O1096 C1097 1.232 . S
C1097 O1096 1.232 . S
C1097 O1098 1.218 . S
O1098 C1097 1.218 . S
C1099 O1092 1.275 . S
C1099 O1094 1.255 . S
C1100 O1101 1.258 . S
C1100 O1102 1.256 . S
O1101 Cd1093 2.381 . S
O1101 C1100 1.258 . S
O1102 Cd1093 2.378 . S
O1102 C1100 1.256 . S
O1103 Cd1104 2.300 . S
O1103 C1110 1.275 . S
Cd1104 O1103 2.300 . S
Cd1104 O1112 2.373 1_554 S
Cd1104 O1113 2.378 1_554 S
O1105 Cd1106 2.385 . S
O1105 C1110 1.255 . S
Cd1106 O1105 2.385 . S
Cd1106 O1107 2.317 1_554 S
O1107 Cd1106 2.317 1_556 S
O1107 C1108 1.232 . S
C1108 O1107 1.232 . S
C1108 O1109 1.185 1_556 S
O1109 C1108 1.185 1_554 S
C1110 O1103 1.275 . S
C1110 O1105 1.255 . S
C1111 O1112 1.265 . S
C1111 O1113 1.256 . S
O1112 Cd1104 2.373 1_556 S
O1112 C1111 1.265 . S
O1113 Cd1104 2.378 1_556 S
O1113 C1111 1.256 . S
O1114 Cd1115 2.300 . S
O1114 C1121 1.275 . S
Cd1115 O1114 2.300 . S
Cd1115 O1123 2.381 . S
Cd1115 O1124 2.378 . S
O1116 Cd1117 2.390 . S
O1116 C1121 1.253 1_545 S
Cd1117 O1116 2.390 . S
Cd1117 O1118 2.317 . S
O1118 Cd1117 2.317 . S
O1118 C1119 1.232 . S
C1119 O1118 1.232 . S
C1119 O1120 1.218 . S
O1120 C1119 1.218 . S
C1121 O1114 1.275 . S
C1121 O1116 1.253 1_565 S
C1122 O1123 1.258 . S
C1122 O1124 1.256 . S
O1123 Cd1115 2.381 . S
O1123 C1122 1.258 . S
O1124 Cd1115 2.378 . S
O1124 C1122 1.256 . S
O1125 Cd1126 2.300 1_556 S
O1125 C1132 1.275 . S
Cd1126 O1125 2.300 1_554 S
Cd1126 O1134 2.381 . S
Cd1126 O1135 2.378 . S
O1127 Cd1128 2.385 1_546 S
O1127 C1132 1.255 . S
Cd1128 O1127 2.385 1_564 S
Cd1128 O1129 2.317 . S
O1129 Cd1128 2.317 . S
O1129 C1130 1.232 . S
C1130 O1129 1.232 . S
C1130 O1131 1.218 . S
O1131 C1130 1.218 . S
C1132 O1125 1.275 . S
C1132 O1127 1.255 . S
C1133 O1134 1.258 . S
C1133 O1135 1.256 . S
O1134 Cd1126 2.381 . S
O1134 C1133 1.258 . S
O1135 Cd1126 2.378 . S
O1135 C1133 1.256 . S
O1136 Cd1137 2.300 . S
O1136 C1143 1.275 . S
Cd1137 O1136 2.300 . S
Cd1137 O1145 2.381 . S
Cd1137 O1146 2.378 . S
O1138 Cd1139 2.385 . S
O1138 C1143 1.255 . S
Cd1139 O1138 2.385 . S
Cd1139 O1140 2.317 . S
O1140 Cd1139 2.317 . S
O1140 C1141 1.232 . S
C1141 O1140 1.232 . S
C1141 O1142 1.218 . S
O1142 C1141 1.218 . S
C1143 O1136 1.275 . S
C1143 O1138 1.255 . S
C1144 O1145 1.258 . S
C1144 O1146 1.256 . S
O1145 Cd1137 2.381 . S
O1145 C1144 1.258 . S
O1146 Cd1137 2.378 . S
O1146 C1144 1.256 . S
O1147 Cd1148 2.300 1_655 S
O1147 C1154 1.275 . S
Cd1148 O1147 2.300 1_455 S
Cd1148 O1156 2.381 . S
Cd1148 O1157 2.378 . S
O1149 Cd1150 2.385 1_654 S
O1149 C1154 1.255 . S
Cd1150 O1149 2.385 1_456 S
Cd1150 O1151 2.317 . S
O1151 Cd1150 2.317 . S
O1151 C1152 1.232 . S
C1152 O1151 1.232 . S
C1152 O1153 1.218 . S
O1153 C1152 1.218 . S
C1154 O1147 1.275 . S
C1154 O1149 1.255 . S
C1155 O1156 1.258 . S
C1155 O1157 1.256 . S
O1156 Cd1148 2.381 . S
O1156 C1155 1.258 . S
O1157 Cd1148 2.378 . S
O1157 C1155 1.256 . S
O1158 Cd1159 2.300 . S
O1158 C1165 1.275 . S
Cd1159 O1158 2.300 . S
Cd1159 O1167 2.373 1_455 S
Cd1159 O1168 2.378 1_455 S
O1160 Cd1161 2.385 . S
O1160 C1165 1.255 . S
Cd1161 O1160 2.385 . S
Cd1161 O1162 2.317 1_455 S
O1162 Cd1161 2.317 1_655 S
O1162 C1163 1.232 . S
C1163 O1162 1.232 . S
C1163 O1164 1.185 1_655 S
O1164 C1163 1.185 1_455 S
C1165 O1158 1.275 . S
C1165 O1160 1.255 . S
C1166 O1167 1.265 . S
C1166 O1168 1.256 . S
O1167 Cd1159 2.373 1_655 S
O1167 C1166 1.265 . S
O1168 Cd1159 2.378 1_655 S
O1168 C1166 1.256 . S
O1169 Cd1170 2.300 . S
O1169 C1176 1.275 . S
Cd1170 O1169 2.300 . S
Cd1170 O1178 2.381 . S
Cd1170 O1179 2.378 . S
O1171 Cd1172 2.390 . S
O1171 C1176 1.253 1_554 S
Cd1172 O1171 2.390 . S
Cd1172 O1173 2.317 . S
O1173 Cd1172 2.317 . S
O1173 C1174 1.232 . S
C1174 O1173 1.232 . S
C1174 O1175 1.218 . S
O1175 C1174 1.218 . S
C1176 O1169 1.275 . S
C1176 O1171 1.253 1_556 S
C1177 O1178 1.258 . S
C1177 O1179 1.256 . S
O1178 Cd1170 2.381 . S
O1178 C1177 1.258 . S
O1179 Cd1170 2.378 . S
O1179 C1177 1.256 . S
O1180 Cd1181 2.300 . S
O1180 C1187 1.275 . S
Cd1181 O1180 2.300 . S
Cd1181 O1189 2.381 . S
Cd1181 O1190 2.378 . S
O1182 Cd1183 2.385 . S
O1182 C1187 1.255 . S
Cd1183 O1182 2.385 . S
Cd1183 O1184 2.317 . S
O1184 Cd1183 2.317 . S
O1184 C1185 1.232 . S
C1185 O1184 1.232 . S
C1185 O1186 1.218 . S
O1186 C1185 1.218 . S
C1187 O1180 1.275 . S
C1187 O1182 1.255 . S
C1188 O1189 1.258 . S
C1188 O1190 1.256 . S
O1189 Cd1181 2.381 . S
O1189 C1188 1.258 . S
O1190 Cd1181 2.378 . S
O1190 C1188 1.256 . S
O1191 Cd1192 2.300 1_565 S
O1191 C1198 1.275 . S
Cd1192 O1191 2.300 1_545 S
Cd1192 O1200 2.381 . S
Cd1192 O1201 2.378 . S
O1193 Cd1194 2.385 1_465 S
O1193 C1198 1.255 . S
Cd1194 O1193 2.385 1_645 S
Cd1194 O1195 2.317 . S
O1195 Cd1194 2.317 . S
O1195 C1196 1.232 . S
C1196 O1195 1.232 . S
C1196 O1197 1.218 . S
O1197 C1196 1.218 . S
C1198 O1191 1.275 . S
C1198 O1193 1.255 . S
C1199 O1200 1.258 . S
C1199 O1201 1.256 . S
O1200 Cd1192 2.381 . S
O1200 C1199 1.258 . S
O1201 Cd1192 2.378 . S
O1201 C1199 1.256 . S
O1202 Cd1203 2.300 . S
O1202 C1209 1.275 . S
Cd1203 O1202 2.300 . S
Cd1203 O1211 2.373 1_545 S
Cd1203 O1212 2.378 1_545 S
O1204 Cd1205 2.385 . S
O1204 C1209 1.255 . S
Cd1205 O1204 2.385 . S
Cd1205 O1206 2.317 1_545 S
O1206 Cd1205 2.317 1_565 S
O1206 C1207 1.232 . S
C1207 O1206 1.232 . S
C1207 O1208 1.185 1_565 S
O1208 C1207 1.185 1_545 S
C1209 O1202 1.275 . S
C1209 O1204 1.255 . S
C1210 O1211 1.265 . S
C1210 O1212 1.256 . S
O1211 Cd1203 2.373 1_565 S
O1211 C1210 1.265 . S
O1212 Cd1203 2.378 1_565 S
O1212 C1210 1.256 . S
O1213 Cd1214 2.300 . S
O1213 C1220 1.275 . S
Cd1214 O1213 2.300 . S
Cd1214 O1222 2.381 . S
Cd1214 O1223 2.378 . S
O1215 Cd1216 2.390 . S
O1215 C1220 1.253 1_455 S
Cd1216 O1215 2.390 . S
Cd1216 O1217 2.317 . S
O1217 Cd1216 2.317 . S
O1217 C1218 1.232 . S
C1218 O1217 1.232 . S
C1218 O1219 1.218 . S
O1219 C1218 1.218 . S
C1220 O1213 1.275 . S
C1220 O1215 1.253 1_655 S
C1221 O1222 1.258 . S
C1221 O1223 1.256 . S
O1222 Cd1214 2.381 . S
O1222 C1221 1.258 . S
O1223 Cd1214 2.378 . S
O1223 C1221 1.256 . S
C1224 C1225 1.349 . S
C1224 C1226 1.327 . S
C1224 H1249 0.950 . S
C1225 C1224 1.349 . S
C1225 C1241 1.349 . S
C1226 C1224 1.327 . S
C1226 C1245 1.429 . S
C1226 H1250 0.950 . S
C1227 C1244 1.574 . S
C1227 C1246 1.368 . S
C1227 H1251 0.949 . S
H1228 C1232 0.949 . S
C1229 C1230 1.349 . S
C1229 C1231 1.327 . S
C1229 H1252 0.950 . S
C1230 C1229 1.349 . S
C1230 C1242 1.349 . S
C1231 C1229 1.327 . S
C1231 C1247 1.429 . S
C1231 H1253 0.950 . S
C1232 H1228 0.949 . S
C1232 C1240 1.574 . S
C1232 C1248 1.368 . S
H1233 C1241 0.950 . S
H1234 C1239 0.950 . S
H1235 C1240 0.949 . S
H1236 C1242 0.950 . S
H1237 C1243 0.950 . S
H1238 C1244 0.949 . S
C1239 H1234 0.950 . S
C1239 C1241 1.327 . S
C1239 C1245 1.429 . S
C1240 C1232 1.574 . S
C1240 H1235 0.949 . S
C1240 C1246 1.368 . S
C1241 C1225 1.349 . S
C1241 H1233 0.950 . S
C1241 C1239 1.327 . S
C1242 C1230 1.349 . S
C1242 H1236 0.950 . S
C1242 C1243 1.327 . S
C1243 H1237 0.950 . S
C1243 C1242 1.327 . S
C1243 C1247 1.429 . S
C1244 C1227 1.574 . S
C1244 H1238 0.949 . S
C1244 C1248 1.368 . S
C1245 C1226 1.429 . S
C1245 C1239 1.429 . S
C1245 C1246 1.523 . S
C1246 C1227 1.368 . S
C1246 C1240 1.368 . S
C1246 C1245 1.523 . S
C1247 C1231 1.429 . S
C1247 C1243 1.429 . S
C1247 C1248 1.523 . S
C1248 C1232 1.368 . S
C1248 C1244 1.368 . S
C1248 C1247 1.523 . S
H1249 C1224 0.950 . S
H1250 C1226 0.950 . S
H1251 C1227 0.949 . S
H1252 C1229 0.950 . S
H1253 C1231 0.950 . S
C1254 C1255 1.349 . S
C1254 C1256 1.327 . S
C1254 H1279 0.950 . S
C1255 C1254 1.349 . S
C1255 C1271 1.349 . S
C1256 C1254 1.327 . S
C1256 C1275 1.429 . S
C1256 H1280 0.950 . S
C1257 C1274 1.574 . S
C1257 C1276 1.368 . S
C1257 H1281 0.949 . S
H1258 C1262 0.949 . S
C1259 C1260 1.349 . S
C1259 C1261 1.327 . S
C1259 H1282 0.950 . S
C1260 C1259 1.349 . S
C1260 C1272 1.349 . S
C1261 C1259 1.327 . S
C1261 C1277 1.429 . S
C1261 H1283 0.950 . S
C1262 H1258 0.949 . S
C1262 C1270 1.574 . S
C1262 C1278 1.368 . S
H1263 C1271 0.950 . S
H1264 C1269 0.950 . S
H1265 C1270 0.949 . S
H1266 C1272 0.950 . S
H1267 C1273 0.950 . S
H1268 C1274 0.949 . S
C1269 H1264 0.950 . S
C1269 C1271 1.327 . S
C1269 C1275 1.429 . S
C1270 C1262 1.574 . S
C1270 H1265 0.949 . S
C1270 C1276 1.368 . S
C1271 C1255 1.349 . S
C1271 H1263 0.950 . S
C1271 C1269 1.327 . S
C1272 C1260 1.349 . S
C1272 H1266 0.950 . S
C1272 C1273 1.327 . S
C1273 H1267 0.950 . S
C1273 C1272 1.327 . S
C1273 C1277 1.429 . S
C1274 C1257 1.574 . S
C1274 H1268 0.949 . S
C1274 C1278 1.368 . S
C1275 C1256 1.429 . S
C1275 C1269 1.429 . S
C1275 C1276 1.523 . S
C1276 C1257 1.368 . S
C1276 C1270 1.368 . S
C1276 C1275 1.523 . S
C1277 C1261 1.429 . S
C1277 C1273 1.429 . S
C1277 C1278 1.523 . S
C1278 C1262 1.368 . S
C1278 C1274 1.368 . S
C1278 C1277 1.523 . S
H1279 C1254 0.950 . S
H1280 C1256 0.950 . S
H1281 C1257 0.949 . S
H1282 C1259 0.950 . S
H1283 C1261 0.950 . S
C1284 C1285 1.345 . S
C1284 C1286 1.327 . S
C1284 H1309 0.950 . S
C1285 C1284 1.345 . S
C1285 C1301 1.354 1_545 S
C1286 C1284 1.327 . S
C1286 C1305 1.429 1_545 S
C1286 H1310 0.950 . S
C1287 C1304 1.574 . S
C1287 C1306 1.368 . S
C1287 H1311 0.949 . S
H1288 C1292 0.986 . S
C1289 C1290 1.349 . S
C1289 C1291 1.327 . S
C1289 H1312 0.950 . S
C1290 C1289 1.349 . S
C1290 C1302 1.349 . S
C1291 C1289 1.327 . S
C1291 C1307 1.429 . S
C1291 H1313 0.950 . S
C1292 H1288 0.986 . S
C1292 C1300 1.582 . S
C1292 C1308 1.323 1_545 S
H1293 C1301 0.950 . S
H1294 C1299 0.950 . S
H1295 C1300 0.949 . S
H1296 C1302 0.952 . S
H1297 C1303 0.950 1_545 S
H1298 C1304 0.949 . S
C1299 H1294 0.950 . S
C1299 C1301 1.327 . S
C1299 C1305 1.429 . S
C1300 C1292 1.582 . S
C1300 H1295 0.949 . S
C1300 C1306 1.368 1_545 S
C1301 C1285 1.354 1_565 S
C1301 H1293 0.950 . S
C1301 C1299 1.327 . S
C1302 C1290 1.349 . S
C1302 H1296 0.952 . S
C1302 C1303 1.327 . S
C1303 H1297 0.950 1_565 S
C1303 C1302 1.327 . S
C1303 C1307 1.429 . S
C1304 C1287 1.574 . S
C1304 H1298 0.949 . S
C1304 C1308 1.368 . S
C1305 C1286 1.429 1_565 S
C1305 C1299 1.429 . S
C1305 C1306 1.523 . S
C1306 C1287 1.368 . S
C1306 C1300 1.368 1_565 S
C1306 C1305 1.523 . S
C1307 C1291 1.429 . S
C1307 C1303 1.429 . S
C1307 C1308 1.523 . S
C1308 C1292 1.323 1_565 S
C1308 C1304 1.368 . S
C1308 C1307 1.523 . S
H1309 C1284 0.950 . S
H1310 C1286 0.950 . S
H1311 C1287 0.949 . S
H1312 C1289 0.950 . S
H1313 C1291 0.950 . S
C1314 C1315 1.349 1_565 S
C1314 C1316 1.327 . S
C1314 H1339 0.950 . S
C1315 C1314 1.349 1_545 S
C1315 C1331 1.349 . S
C1316 C1314 1.327 . S
C1316 C1335 1.429 1_565 S
C1316 H1340 0.950 . S
C1317 C1334 1.574 . S
C1317 C1336 1.368 . S
C1317 H1341 0.949 . S
H1318 C1322 0.949 1_565 S
C1319 C1320 1.349 . S
C1319 C1321 1.327 . S
C1319 H1342 0.950 . S
C1320 C1319 1.349 . S
C1320 C1332 1.349 . S
C1321 C1319 1.327 . S
C1321 C1337 1.429 . S
C1321 H1343 0.950 . S
C1322 H1318 0.949 1_545 S
C1322 C1330 1.574 1_545 S
C1322 C1338 1.368 . S
H1323 C1331 0.950 . S
H1324 C1329 0.950 . S
H1325 C1330 0.954 . S
H1326 C1332 0.950 . S
H1327 C1333 0.929 1_565 S
H1328 C1334 0.949 . S
C1329 H1324 0.950 . S
C1329 C1331 1.327 . S
C1329 C1335 1.429 . S
C1330 C1322 1.574 1_565 S
C1330 H1325 0.954 . S
C1330 C1336 1.363 1_565 S
C1331 C1315 1.349 . S
C1331 H1323 0.950 . S
C1331 C1329 1.327 . S
C1332 C1320 1.349 . S
C1332 H1326 0.950 . S
C1332 C1333 1.327 . S
C1333 H1327 0.929 1_545 S
C1333 C1332 1.327 . S
C1333 C1337 1.429 . S
C1334 C1317 1.574 . S
C1334 H1328 0.949 . S
C1334 C1338 1.368 . S
C1335 C1316 1.429 1_545 S
C1335 C1329 1.429 . S
C1335 C1336 1.523 . S
C1336 C1317 1.368 . S
C1336 C1330 1.363 1_545 S
C1336 C1335 1.523 . S
C1337 C1321 1.429 . S
C1337 C1333 1.429 . S
C1337 C1338 1.523 . S
C1338 C1322 1.368 . S
C1338 C1334 1.368 . S
C1338 C1337 1.523 . S
H1339 C1314 0.950 . S
H1340 C1316 0.950 . S
H1341 C1317 0.949 . S
H1342 C1319 0.950 . S
H1343 C1321 0.950 . S
C1344 C1345 1.349 . S
C1344 C1346 1.327 . S
C1344 H1369 0.950 . S
C1345 C1344 1.349 . S
C1345 C1361 1.349 . S
C1346 C1344 1.327 . S
C1346 C1365 1.429 . S
C1346 H1370 0.950 . S
C1347 C1364 1.574 . S
C1347 C1366 1.368 . S
C1347 H1371 0.949 . S
H1348 C1352 0.949 . S
C1349 C1350 1.349 . S
C1349 C1351 1.327 . S
C1349 H1372 0.950 . S
C1350 C1349 1.349 . S
C1350 C1362 1.349 . S
C1351 C1349 1.327 . S
C1351 C1367 1.429 . S
C1351 H1373 0.950 . S
C1352 H1348 0.949 . S
C1352 C1360 1.574 . S
C1352 C1368 1.368 . S
H1353 C1361 0.950 . S
H1354 C1359 0.950 . S
H1355 C1360 0.949 . S
H1356 C1362 0.950 . S
H1357 C1363 0.950 . S
H1358 C1364 0.949 . S
C1359 H1354 0.950 . S
C1359 C1361 1.327 . S
C1359 C1365 1.429 . S
C1360 C1352 1.574 . S
C1360 H1355 0.949 . S
C1360 C1366 1.368 . S
C1361 C1345 1.349 . S
C1361 H1353 0.950 . S
C1361 C1359 1.327 . S
C1362 C1350 1.349 . S
C1362 H1356 0.950 . S
C1362 C1363 1.327 . S
C1363 H1357 0.950 . S
C1363 C1362 1.327 . S
C1363 C1367 1.429 . S
C1364 C1347 1.574 . S
C1364 H1358 0.949 . S
C1364 C1368 1.368 . S
C1365 C1346 1.429 . S
C1365 C1359 1.429 . S
C1365 C1366 1.523 . S
C1366 C1347 1.368 . S
C1366 C1360 1.368 . S
C1366 C1365 1.523 . S
C1367 C1351 1.429 . S
C1367 C1363 1.429 . S
C1367 C1368 1.523 . S
C1368 C1352 1.368 . S
C1368 C1364 1.368 . S
C1368 C1367 1.523 . S
H1369 C1344 0.950 . S
H1370 C1346 0.950 . S
H1371 C1347 0.949 . S
H1372 C1349 0.950 . S
H1373 C1351 0.950 . S
C1374 C1375 1.349 . S
C1374 C1376 1.327 . S
C1374 H1399 0.950 . S
C1375 C1374 1.349 . S
C1375 C1391 1.349 1_554 S
C1376 C1374 1.327 . S
C1376 C1395 1.429 . S
C1376 H1400 0.950 . S
C1377 C1394 1.574 . S
C1377 C1396 1.368 1_556 S
C1377 H1401 0.949 . S
H1378 C1382 0.949 . S
C1379 C1380 1.337 1_556 S
C1379 C1381 1.328 . S
C1379 H1402 0.961 . S
C1380 C1379 1.337 1_554 S
C1380 C1392 1.349 . S
C1381 C1379 1.328 . S
C1381 C1397 1.429 1_556 S
C1381 H1403 0.950 . S
C1382 H1378 0.949 . S
C1382 C1390 1.574 . S
C1382 C1398 1.368 . S
H1383 C1391 0.950 . S
H1384 C1389 0.950 . S
H1385 C1390 0.949 . S
H1386 C1392 0.950 . S
H1387 C1393 0.950 . S
H1388 C1394 0.949 . S
C1389 H1384 0.950 . S
C1389 C1391 1.327 . S
C1389 C1395 1.429 1_556 S
C1390 C1382 1.574 . S
C1390 H1385 0.949 . S
C1390 C1396 1.368 . S
C1391 C1375 1.349 1_556 S
C1391 H1383 0.950 . S
C1391 C1389 1.327 . S
C1392 C1380 1.349 . S
C1392 H1386 0.950 . S
C1392 C1393 1.327 . S
C1393 H1387 0.950 . S
C1393 C1392 1.327 . S
C1393 C1397 1.429 . S
C1394 C1377 1.574 . S
C1394 H1388 0.949 . S
C1394 C1398 1.368 1_556 S
C1395 C1376 1.429 . S
C1395 C1389 1.429 1_554 S
C1395 C1396 1.523 . S
C1396 C1377 1.368 1_554 S
C1396 C1390 1.368 . S
C1396 C1395 1.523 . S
C1397 C1381 1.429 1_554 S
C1397 C1393 1.429 . S
C1397 C1398 1.523 . S
C1398 C1382 1.368 . S
C1398 C1394 1.368 1_554 S
C1398 C1397 1.523 . S
H1399 C1374 0.950 . S
H1400 C1376 0.950 . S
H1401 C1377 0.949 . S
H1402 C1379 0.961 . S
H1403 C1381 0.950 . S
C1404 C1405 1.349 . S
C1404 C1406 1.327 . S
C1404 H1429 0.950 . S
C1405 C1404 1.349 . S
C1405 C1421 1.349 . S
C1406 C1404 1.327 . S
C1406 C1425 1.429 . S
C1406 H1430 0.950 . S
C1407 C1424 1.574 . S
C1407 C1426 1.368 . S
C1407 H1431 0.949 . S
H1408 C1412 0.949 . S
C1409 C1410 1.349 . S
C1409 C1411 1.327 . S
C1409 H1432 0.950 . S
C1410 C1409 1.349 . S
C1410 C1422 1.349 . S
C1411 C1409 1.327 . S
C1411 C1427 1.429 . S
C1411 H1433 0.950 . S
C1412 H1408 0.949 . S
C1412 C1420 1.574 . S
C1412 C1428 1.368 . S
H1413 C1421 0.950 . S
H1414 C1419 0.950 . S
H1415 C1420 0.949 . S
H1416 C1422 0.950 . S
H1417 C1423 0.950 . S
H1418 C1424 0.949 . S
C1419 H1414 0.950 . S
C1419 C1421 1.327 . S
C1419 C1425 1.429 . S
C1420 C1412 1.574 . S
C1420 H1415 0.949 . S
C1420 C1426 1.368 . S
C1421 C1405 1.349 . S
C1421 H1413 0.950 . S
C1421 C1419 1.327 . S
C1422 C1410 1.349 . S
C1422 H1416 0.950 . S
C1422 C1423 1.327 . S
C1423 H1417 0.950 . S
C1423 C1422 1.327 . S
C1423 C1427 1.429 . S
C1424 C1407 1.574 . S
C1424 H1418 0.949 . S
C1424 C1428 1.368 . S
C1425 C1406 1.429 . S
C1425 C1419 1.429 . S
C1425 C1426 1.523 . S
C1426 C1407 1.368 . S
C1426 C1420 1.368 . S
C1426 C1425 1.523 . S
C1427 C1411 1.429 . S
C1427 C1423 1.429 . S
C1427 C1428 1.523 . S
C1428 C1412 1.368 . S
C1428 C1424 1.368 . S
C1428 C1427 1.523 . S
H1429 C1404 0.950 . S
H1430 C1406 0.950 . S
H1431 C1407 0.949 . S
H1432 C1409 0.950 . S
H1433 C1411 0.950 . S
C1434 C1435 1.355 1_556 S
C1434 C1436 1.327 . S
C1434 H1459 0.950 . S
C1435 C1434 1.355 1_554 S
C1435 C1451 1.344 . S
C1436 C1434 1.327 . S
C1436 C1455 1.429 . S
C1436 H1460 0.950 . S
C1437 C1454 1.574 . S
C1437 C1456 1.368 1_554 S
C1437 H1461 0.949 . S
H1438 C1442 0.949 . S
C1439 C1440 1.349 . S
C1439 C1441 1.327 . S
C1439 H1462 0.950 1_556 S
C1440 C1439 1.349 . S
C1440 C1452 1.349 . S
C1441 C1439 1.327 . S
C1441 C1457 1.429 . S
C1441 H1463 0.950 1_556 S
C1442 H1438 0.949 . S
C1442 C1450 1.574 . S
C1442 C1458 1.368 . S
H1443 C1451 0.950 . S
H1444 C1449 0.950 . S
H1445 C1450 0.949 . S
H1446 C1452 0.950 . S
H1447 C1453 0.950 . S
H1448 C1454 0.949 . S
C1449 H1444 0.950 . S
C1449 C1451 1.327 . S
C1449 C1455 1.429 1_554 S
C1450 C1442 1.574 . S
C1450 H1445 0.949 . S
C1450 C1456 1.368 . S
C1451 C1435 1.344 . S
C1451 H1443 0.950 . S
C1451 C1449 1.327 . S
C1452 C1440 1.349 . S
C1452 H1446 0.950 . S
C1452 C1453 1.327 . S
C1453 H1447 0.950 . S
C1453 C1452 1.327 . S
C1453 C1457 1.429 . S
C1454 C1437 1.574 . S
C1454 H1448 0.949 . S
C1454 C1458 1.368 1_554 S
C1455 C1436 1.429 . S
C1455 C1449 1.429 1_556 S
C1455 C1456 1.523 . S
C1456 C1437 1.368 1_556 S
C1456 C1450 1.368 . S
C1456 C1455 1.523 . S
C1457 C1441 1.429 . S
C1457 C1453 1.429 . S
C1457 C1458 1.523 . S
C1458 C1442 1.368 . S
C1458 C1454 1.368 1_556 S
C1458 C1457 1.523 . S
H1459 C1434 0.950 . S
H1460 C1436 0.950 . S
H1461 C1437 0.949 . S
H1462 C1439 0.950 1_554 S
H1463 C1441 0.950 1_554 S
C1464 C1465 1.349 . S
C1464 C1466 1.327 . S
C1464 H1489 0.950 . S
C1465 C1464 1.349 . S
C1465 C1481 1.349 . S
C1466 C1464 1.327 . S
C1466 C1485 1.429 . S
C1466 H1490 0.950 . S
C1467 C1484 1.574 . S
C1467 C1486 1.368 . S
C1467 H1491 0.949 . S
H1468 C1472 0.949 . S
C1469 C1470 1.349 . S
C1469 C1471 1.327 . S
C1469 H1492 0.950 . S
C1470 C1469 1.349 . S
C1470 C1482 1.349 . S
C1471 C1469 1.327 . S
C1471 C1487 1.429 . S
C1471 H1493 0.950 . S
C1472 H1468 0.949 . S
C1472 C1480 1.574 . S
C1472 C1488 1.368 . S
H1473 C1481 0.950 . S
H1474 C1479 0.950 . S
H1475 C1480 0.949 . S
H1476 C1482 0.950 . S
H1477 C1483 0.950 . S
H1478 C1484 0.949 . S
C1479 H1474 0.950 . S
C1479 C1481 1.327 . S
C1479 C1485 1.429 . S
C1480 C1472 1.574 . S
C1480 H1475 0.949 . S
C1480 C1486 1.368 . S
C1481 C1465 1.349 . S
C1481 H1473 0.950 . S
C1481 C1479 1.327 . S
C1482 C1470 1.349 . S
C1482 H1476 0.950 . S
C1482 C1483 1.327 . S
C1483 H1477 0.950 . S
C1483 C1482 1.327 . S
C1483 C1487 1.429 . S
C1484 C1467 1.574 . S
C1484 H1478 0.949 . S
C1484 C1488 1.368 . S
C1485 C1466 1.429 . S
C1485 C1479 1.429 . S
C1485 C1486 1.523 . S
C1486 C1467 1.368 . S
C1486 C1480 1.368 . S
C1486 C1485 1.523 . S
C1487 C1471 1.429 . S
C1487 C1483 1.429 . S
C1487 C1488 1.523 . S
C1488 C1472 1.368 . S
C1488 C1484 1.368 . S
C1488 C1487 1.523 . S
H1489 C1464 0.950 . S
H1490 C1466 0.950 . S
H1491 C1467 0.949 . S
H1492 C1469 0.950 . S
H1493 C1471 0.950 . S
C1494 C1495 1.349 1_655 S
C1494 C1496 1.327 . S
C1494 H1519 0.950 . S
C1495 C1494 1.349 1_455 S
C1495 C1511 1.349 . S
C1496 C1494 1.327 . S
C1496 C1515 1.429 1_655 S
C1496 H1520 0.950 . S
C1497 C1514 1.574 . S
C1497 C1516 1.368 . S
C1497 H1521 0.949 . S
H1498 C1502 0.949 . S
C1499 C1500 1.349 . S
C1499 C1501 1.327 . S
C1499 H1522 0.950 . S
C1500 C1499 1.349 . S
C1500 C1512 1.349 . S
C1501 C1499 1.327 . S
C1501 C1517 1.429 . S
C1501 H1523 0.950 . S
C1502 H1498 0.949 . S
C1502 C1510 1.574 . S
C1502 C1518 1.368 1_655 S
H1503 C1511 0.950 . S
H1504 C1509 0.950 . S
H1505 C1510 0.949 . S
H1506 C1512 0.950 1_655 S
H1507 C1513 0.950 1_655 S
H1508 C1514 0.949 . S
C1509 H1504 0.950 . S
C1509 C1511 1.327 . S
C1509 C1515 1.429 . S
C1510 C1502 1.574 . S
C1510 H1505 0.949 . S
C1510 C1516 1.368 1_655 S
C1511 C1495 1.349 . S
C1511 H1503 0.950 . S
C1511 C1509 1.327 . S
C1512 C1500 1.349 . S
C1512 H1506 0.950 1_455 S
C1512 C1513 1.327 . S
C1513 H1507 0.950 1_455 S
C1513 C1512 1.327 . S
C1513 C1517 1.429 . S
C1514 C1497 1.574 . S
C1514 H1508 0.949 . S
C1514 C1518 1.368 . S
C1515 C1496 1.429 1_455 S
C1515 C1509 1.429 . S
C1515 C1516 1.523 . S
C1516 C1497 1.368 . S
C1516 C1510 1.368 1_455 S
C1516 C1515 1.523 . S
C1517 C1501 1.429 . S
C1517 C1513 1.429 . S
C1517 C1518 1.523 . S
C1518 C1502 1.368 1_455 S
C1518 C1514 1.368 . S
C1518 C1517 1.523 . S
H1519 C1494 0.950 . S
H1520 C1496 0.950 . S
H1521 C1497 0.949 . S
H1522 C1499 0.950 . S
H1523 C1501 0.950 . S
C1524 C1525 1.349 . S
C1524 C1526 1.327 . S
C1524 H1549 0.950 . S
C1525 C1524 1.349 . S
C1525 C1541 1.349 . S
C1526 C1524 1.327 . S
C1526 C1545 1.429 . S
C1526 H1550 0.950 . S
C1527 C1544 1.574 . S
C1527 C1546 1.368 . S
C1527 H1551 0.949 . S
H1528 C1532 0.949 . S
C1529 C1530 1.349 . S
C1529 C1531 1.327 . S
C1529 H1552 0.950 . S
C1530 C1529 1.349 . S
C1530 C1542 1.349 . S
C1531 C1529 1.327 . S
C1531 C1547 1.429 . S
C1531 H1553 0.950 . S
C1532 H1528 0.949 . S
C1532 C1540 1.574 . S
C1532 C1548 1.368 . S
H1533 C1541 0.950 . S
H1534 C1539 0.950 . S
H1535 C1540 0.949 . S
H1536 C1542 0.950 . S
H1537 C1543 0.950 . S
H1538 C1544 0.949 . S
C1539 H1534 0.950 . S
C1539 C1541 1.327 . S
C1539 C1545 1.429 . S
C1540 C1532 1.574 . S
C1540 H1535 0.949 . S
C1540 C1546 1.368 . S
C1541 C1525 1.349 . S
C1541 H1533 0.950 . S
C1541 C1539 1.327 . S
C1542 C1530 1.349 . S
C1542 H1536 0.950 . S
C1542 C1543 1.327 . S
C1543 H1537 0.950 . S
C1543 C1542 1.327 . S
C1543 C1547 1.429 . S
C1544 C1527 1.574 . S
C1544 H1538 0.949 . S
C1544 C1548 1.368 . S
C1545 C1526 1.429 . S
C1545 C1539 1.429 . S
C1545 C1546 1.523 . S
C1546 C1527 1.368 . S
C1546 C1540 1.368 . S
C1546 C1545 1.523 . S
C1547 C1531 1.429 . S
C1547 C1543 1.429 . S
C1547 C1548 1.523 . S
C1548 C1532 1.368 . S
C1548 C1544 1.368 . S
C1548 C1547 1.523 . S
H1549 C1524 0.950 . S
H1550 C1526 0.950 . S
H1551 C1527 0.949 . S
H1552 C1529 0.950 . S
H1553 C1531 0.950 . S
C1554 C1555 1.353 1_655 S
C1554 C1556 1.327 . S
C1554 H1579 0.950 . S
C1555 C1554 1.353 1_455 S
C1555 C1571 1.346 . S
C1556 C1554 1.327 . S
C1556 C1575 1.429 . S
C1556 H1580 0.950 . S
C1557 C1574 1.568 1_455 S
C1557 C1576 1.344 1_455 S
C1557 H1581 0.979 . S
H1558 C1562 0.949 . S
C1559 C1560 1.349 . S
C1559 C1561 1.327 . S
C1559 H1582 0.950 . S
C1560 C1559 1.349 . S
C1560 C1572 1.349 . S
C1561 C1559 1.327 . S
C1561 C1577 1.429 . S
C1561 H1583 0.957 . S
C1562 H1558 0.949 . S
C1562 C1570 1.574 . S
C1562 C1578 1.368 . S
H1563 C1571 0.950 . S
H1564 C1569 0.950 . S
H1565 C1570 0.949 . S
H1566 C1572 0.950 . S
H1567 C1573 0.950 . S
H1568 C1574 0.949 1_455 S
C1569 H1564 0.950 . S
C1569 C1571 1.327 . S
C1569 C1575 1.429 1_455 S
C1570 C1562 1.574 . S
C1570 H1565 0.949 . S
C1570 C1576 1.368 . S
C1571 C1555 1.346 . S
C1571 H1563 0.950 . S
C1571 C1569 1.327 . S
C1572 C1560 1.349 . S
C1572 H1566 0.950 . S
C1572 C1573 1.327 . S
C1573 H1567 0.950 . S
C1573 C1572 1.327 . S
C1573 C1577 1.429 . S
C1574 C1557 1.568 1_655 S
C1574 H1568 0.949 1_655 S
C1574 C1578 1.368 . S
C1575 C1556 1.429 . S
C1575 C1569 1.429 1_655 S
C1575 C1576 1.523 . S
C1576 C1557 1.344 1_655 S
C1576 C1570 1.368 . S
C1576 C1575 1.523 . S
C1577 C1561 1.429 . S
C1577 C1573 1.429 . S
C1577 C1578 1.523 . S
C1578 C1562 1.368 . S
C1578 C1574 1.368 . S
C1578 C1577 1.523 . S
H1579 C1554 0.950 . S
H1580 C1556 0.950 . S
H1581 C1557 0.979 . S
H1582 C1559 0.950 . S
H1583 C1561 0.957 . S
C1584 C1585 1.349 . S
C1584 C1586 1.327 . S
C1584 H1609 0.950 . S
C1585 C1584 1.349 . S
C1585 C1601 1.349 . S
C1586 C1584 1.327 . S
C1586 C1605 1.429 . S
C1586 H1610 0.950 . S
C1587 C1604 1.574 . S
C1587 C1606 1.368 . S
C1587 H1611 0.949 . S
H1588 C1592 0.949 . S
C1589 C1590 1.349 . S
C1589 C1591 1.327 . S
C1589 H1612 0.950 . S
C1590 C1589 1.349 . S
C1590 C1602 1.349 . S
C1591 C1589 1.327 . S
C1591 C1607 1.429 . S
C1591 H1613 0.950 . S
C1592 H1588 0.949 . S
C1592 C1600 1.574 . S
C1592 C1608 1.368 . S
H1593 C1601 0.950 . S
H1594 C1599 0.950 . S
H1595 C1600 0.949 . S
H1596 C1602 0.950 . S
H1597 C1603 0.950 . S
H1598 C1604 0.949 . S
C1599 H1594 0.950 . S
C1599 C1601 1.327 . S
C1599 C1605 1.429 . S
C1600 C1592 1.574 . S
C1600 H1595 0.949 . S
C1600 C1606 1.368 . S
C1601 C1585 1.349 . S
C1601 H1593 0.950 . S
C1601 C1599 1.327 . S
C1602 C1590 1.349 . S
C1602 H1596 0.950 . S
C1602 C1603 1.327 . S
C1603 H1597 0.950 . S
C1603 C1602 1.327 . S
C1603 C1607 1.429 . S
C1604 C1587 1.574 . S
C1604 H1598 0.949 . S
C1604 C1608 1.368 . S
C1605 C1586 1.429 . S
C1605 C1599 1.429 . S
C1605 C1606 1.523 . S
C1606 C1587 1.368 . S
C1606 C1600 1.368 . S
C1606 C1605 1.523 . S
C1607 C1591 1.429 . S
C1607 C1603 1.429 . S
C1607 C1608 1.523 . S
C1608 C1592 1.368 . S
C1608 C1604 1.368 . S
C1608 C1607 1.523 . S
H1609 C1584 0.950 . S
H1610 C1586 0.950 . S
H1611 C1587 0.949 . S
H1612 C1589 0.950 . S
H1613 C1591 0.950 . S
C1614 C1615 1.349 . S
C1614 C1616 1.327 . S
C1614 H1639 0.950 . S
C1615 C1614 1.349 . S
C1615 C1631 1.349 . S
C1616 C1614 1.327 . S
C1616 C1635 1.429 . S
C1616 H1640 0.950 . S
C1617 C1634 1.574 . S
C1617 C1636 1.368 . S
C1617 H1641 0.949 . S
H1618 C1622 0.949 . S
C1619 C1620 1.349 . S
C1619 C1621 1.327 . S
C1619 H1642 0.950 . S
C1620 C1619 1.349 . S
C1620 C1632 1.349 . S
C1621 C1619 1.327 . S
C1621 C1637 1.429 . S
C1621 H1643 0.950 . S
C1622 H1618 0.949 . S
C1622 C1630 1.574 . S
C1622 C1638 1.368 . S
H1623 C1631 0.950 . S
H1624 C1629 0.950 . S
H1625 C1630 0.949 . S
H1626 C1632 0.950 . S
H1627 C1633 0.950 . S
H1628 C1634 0.949 . S
C1629 H1624 0.950 . S
C1629 C1631 1.327 . S
C1629 C1635 1.429 . S
C1630 C1622 1.574 . S
C1630 H1625 0.949 . S
C1630 C1636 1.368 . S
C1631 C1615 1.349 . S
C1631 H1623 0.950 . S
C1631 C1629 1.327 . S
C1632 C1620 1.349 . S
C1632 H1626 0.950 . S
C1632 C1633 1.327 . S
C1633 H1627 0.950 . S
C1633 C1632 1.327 . S
C1633 C1637 1.429 . S
C1634 C1617 1.574 . S
C1634 H1628 0.949 . S
C1634 C1638 1.368 . S
C1635 C1616 1.429 . S
C1635 C1629 1.429 . S
C1635 C1636 1.523 . S
C1636 C1617 1.368 . S
C1636 C1630 1.368 . S
C1636 C1635 1.523 . S
C1637 C1621 1.429 . S
C1637 C1633 1.429 . S
C1637 C1638 1.523 . S
C1638 C1622 1.368 . S
C1638 C1634 1.368 . S
C1638 C1637 1.523 . S
H1639 C1614 0.950 . S
H1640 C1616 0.950 . S
H1641 C1617 0.949 . S
H1642 C1619 0.950 . S
H1643 C1621 0.950 . S
C1644 C1645 1.346 . S
C1644 C1646 1.327 . S
C1644 H1669 0.950 . S
C1645 C1644 1.346 . S
C1645 C1661 1.352 1_565 S
C1646 C1644 1.327 . S
C1646 C1665 1.429 1_565 S
C1646 H1670 0.950 . S
C1647 C1664 1.574 . S
C1647 C1666 1.368 . S
C1647 H1671 0.949 . S
H1648 C1652 0.949 1_565 S
C1649 C1650 1.349 . S
C1649 C1651 1.327 . S
C1649 H1672 0.950 . S
C1650 C1649 1.349 . S
C1650 C1662 1.349 . S
C1651 C1649 1.327 . S
C1651 C1667 1.429 . S
C1651 H1673 0.950 . S
C1652 H1648 0.949 1_545 S
C1652 C1660 1.571 1_545 S
C1652 C1668 1.368 . S
H1653 C1661 0.950 . S
H1654 C1659 0.950 . S
H1655 C1660 0.964 . S
H1656 C1662 0.950 . S
H1657 C1663 0.980 . S
H1658 C1664 0.949 . S
C1659 H1654 0.950 . S
C1659 C1661 1.327 . S
C1659 C1665 1.429 . S
C1660 C1652 1.571 1_565 S
C1660 H1655 0.964 . S
C1660 C1666 1.356 1_565 S
C1661 C1645 1.352 1_545 S
C1661 H1653 0.950 . S
C1661 C1659 1.327 . S
C1662 C1650 1.349 . S
C1662 H1656 0.950 . S
C1662 C1663 1.327 . S
C1663 H1657 0.980 . S
C1663 C1662 1.327 . S
C1663 C1667 1.429 . S
C1664 C1647 1.574 . S
C1664 H1658 0.949 . S
C1664 C1668 1.368 . S
C1665 C1646 1.429 1_545 S
C1665 C1659 1.429 . S
C1665 C1666 1.523 . S
C1666 C1647 1.368 . S
C1666 C1660 1.356 1_545 S
C1666 C1665 1.523 . S
C1667 C1651 1.429 . S
C1667 C1663 1.429 . S
C1667 C1668 1.523 . S
C1668 C1652 1.368 . S
C1668 C1664 1.368 . S
C1668 C1667 1.523 . S
H1669 C1644 0.950 . S
H1670 C1646 0.950 . S
H1671 C1647 0.949 . S
H1672 C1649 0.950 . S
H1673 C1651 0.950 . S
C1674 C1675 1.349 . S
C1674 C1676 1.327 . S
C1674 H1699 0.950 . S
C1675 C1674 1.349 . S
C1675 C1691 1.349 1_565 S
C1676 C1674 1.327 . S
C1676 C1695 1.429 . S
C1676 H1700 0.950 . S
C1677 C1694 1.574 . S
C1677 C1696 1.368 1_545 S
C1677 H1701 0.949 . S
H1678 C1682 0.949 . S
C1679 C1680 1.339 1_545 S
C1679 C1681 1.328 . S
C1679 H1702 0.960 . S
C1680 C1679 1.339 1_565 S
C1680 C1692 1.349 . S
C1681 C1679 1.328 . S
C1681 C1697 1.429 1_545 S
C1681 H1703 0.950 . S
C1682 H1678 0.949 . S
C1682 C1690 1.574 . S
C1682 C1698 1.368 . S
H1683 C1691 0.950 . S
H1684 C1689 0.950 . S
H1685 C1690 0.949 . S
H1686 C1692 0.950 . S
H1687 C1693 0.950 . S
H1688 C1694 0.949 . S
C1689 H1684 0.950 . S
C1689 C1691 1.327 . S
C1689 C1695 1.429 1_545 S
C1690 C1682 1.574 . S
C1690 H1685 0.949 . S
C1690 C1696 1.368 . S
C1691 C1675 1.349 1_545 S
C1691 H1683 0.950 . S
C1691 C1689 1.327 . S
C1692 C1680 1.349 . S
C1692 H1686 0.950 . S
C1692 C1693 1.327 . S
C1693 H1687 0.950 . S
C1693 C1692 1.327 . S
C1693 C1697 1.429 . S
C1694 C1677 1.574 . S
C1694 H1688 0.949 . S
C1694 C1698 1.368 1_545 S
C1695 C1676 1.429 . S
C1695 C1689 1.429 1_565 S
C1695 C1696 1.523 . S
C1696 C1677 1.368 1_565 S
C1696 C1690 1.368 . S
C1696 C1695 1.523 . S
C1697 C1681 1.429 1_565 S
C1697 C1693 1.429 . S
C1697 C1698 1.523 . S
C1698 C1682 1.368 . S
C1698 C1694 1.368 1_565 S
C1698 C1697 1.523 . S
H1699 C1674 0.950 . S
H1700 C1676 0.950 . S
H1701 C1677 0.949 . S
H1702 C1679 0.960 . S
H1703 C1681 0.950 . S
C1704 C1705 1.349 . S
C1704 C1706 1.327 . S
C1704 H1729 0.950 . S
C1705 C1704 1.349 . S
C1705 C1721 1.349 . S
C1706 C1704 1.327 . S
C1706 C1725 1.429 . S
C1706 H1730 0.950 . S
C1707 C1724 1.574 . S
C1707 C1726 1.368 . S
C1707 H1731 0.949 . S
H1708 C1712 0.949 . S
C1709 C1710 1.349 . S
C1709 C1711 1.327 . S
C1709 H1732 0.950 . S
C1710 C1709 1.349 . S
C1710 C1722 1.349 . S
C1711 C1709 1.327 . S
C1711 C1727 1.429 . S
C1711 H1733 0.950 . S
C1712 H1708 0.949 . S
C1712 C1720 1.574 . S
C1712 C1728 1.368 . S
H1713 C1721 0.950 . S
H1714 C1719 0.950 . S
H1715 C1720 0.949 . S
H1716 C1722 0.950 . S
H1717 C1723 0.950 . S
H1718 C1724 0.949 . S
C1719 H1714 0.950 . S
C1719 C1721 1.327 . S
C1719 C1725 1.429 . S
C1720 C1712 1.574 . S
C1720 H1715 0.949 . S
C1720 C1726 1.368 . S
C1721 C1705 1.349 . S
C1721 H1713 0.950 . S
C1721 C1719 1.327 . S
C1722 C1710 1.349 . S
C1722 H1716 0.950 . S
C1722 C1723 1.327 . S
C1723 H1717 0.950 . S
C1723 C1722 1.327 . S
C1723 C1727 1.429 . S
C1724 C1707 1.574 . S
C1724 H1718 0.949 . S
C1724 C1728 1.368 . S
C1725 C1706 1.429 . S
C1725 C1719 1.429 . S
C1725 C1726 1.523 . S
C1726 C1707 1.368 . S
C1726 C1720 1.368 . S
C1726 C1725 1.523 . S
C1727 C1711 1.429 . S
C1727 C1723 1.429 . S
C1727 C1728 1.523 . S
C1728 C1712 1.368 . S
C1728 C1724 1.368 . S
C1728 C1727 1.523 . S
H1729 C1704 0.950 . S
H1730 C1706 0.950 . S
H1731 C1707 0.949 . S
H1732 C1709 0.950 . S
H1733 C1711 0.950 . S
C1734 C1735 1.349 . S
C1734 C1736 1.327 . S
C1734 H1759 0.950 . S
C1735 C1734 1.349 . S
C1735 C1751 1.349 1_556 S
C1736 C1734 1.327 . S
C1736 C1755 1.429 . S
C1736 H1760 0.950 . S
C1737 C1754 1.574 . S
C1737 C1756 1.368 1_554 S
C1737 H1761 0.949 . S
H1738 C1742 0.949 . S
C1739 C1740 1.301 1_554 S
C1739 C1741 1.330 . S
C1739 H1762 0.998 . S
C1740 C1739 1.301 1_556 S
C1740 C1752 1.349 . S
C1741 C1739 1.330 . S
C1741 C1757 1.429 1_554 S
C1741 H1763 0.950 . S
C1742 H1738 0.949 . S
C1742 C1750 1.574 . S
C1742 C1758 1.368 . S
H1743 C1751 0.950 . S
H1744 C1749 0.950 . S
H1745 C1750 0.949 . S
H1746 C1752 0.950 . S
H1747 C1753 0.950 . S
H1748 C1754 0.949 . S
C1749 H1744 0.950 . S
C1749 C1751 1.327 . S
C1749 C1755 1.429 1_554 S
C1750 C1742 1.574 . S
C1750 H1745 0.949 . S
C1750 C1756 1.368 . S
C1751 C1735 1.349 1_554 S
C1751 H1743 0.950 . S
C1751 C1749 1.327 . S
C1752 C1740 1.349 . S
C1752 H1746 0.950 . S
C1752 C1753 1.327 . S
C1753 H1747 0.950 . S
C1753 C1752 1.327 . S
C1753 C1757 1.429 . S
C1754 C1737 1.574 . S
C1754 H1748 0.949 . S
C1754 C1758 1.368 1_554 S
C1755 C1736 1.429 . S
C1755 C1749 1.429 1_556 S
C1755 C1756 1.523 . S
C1756 C1737 1.368 1_556 S
C1756 C1750 1.368 . S
C1756 C1755 1.523 . S
C1757 C1741 1.429 1_556 S
C1757 C1753 1.429 . S
C1757 C1758 1.523 . S
C1758 C1742 1.368 . S
C1758 C1754 1.368 1_556 S
C1758 C1757 1.523 . S
H1759 C1734 0.950 . S
H1760 C1736 0.950 . S
H1761 C1737 0.949 . S
H1762 C1739 0.998 . S
H1763 C1741 0.950 . S
C1764 C1765 1.349 . S
C1764 C1766 1.327 . S
C1764 H1789 0.950 . S
C1765 C1764 1.349 . S
C1765 C1781 1.349 . S
C1766 C1764 1.327 . S
C1766 C1785 1.429 . S
C1766 H1790 0.950 . S
C1767 C1784 1.574 . S
C1767 C1786 1.368 . S
C1767 H1791 0.949 . S
H1768 C1772 0.949 . S
C1769 C1770 1.349 . S
C1769 C1771 1.327 . S
C1769 H1792 0.950 . S
C1770 C1769 1.349 . S
C1770 C1782 1.349 . S
C1771 C1769 1.327 . S
C1771 C1787 1.429 . S
C1771 H1793 0.950 . S
C1772 H1768 0.949 . S
C1772 C1780 1.574 . S
C1772 C1788 1.368 . S
H1773 C1781 0.950 . S
H1774 C1779 0.950 . S
H1775 C1780 0.949 . S
H1776 C1782 0.950 . S
H1777 C1783 0.950 . S
H1778 C1784 0.949 . S
C1779 H1774 0.950 . S
C1779 C1781 1.327 . S
C1779 C1785 1.429 . S
C1780 C1772 1.574 . S
C1780 H1775 0.949 . S
C1780 C1786 1.368 . S
C1781 C1765 1.349 . S
C1781 H1773 0.950 . S
C1781 C1779 1.327 . S
C1782 C1770 1.349 . S
C1782 H1776 0.950 . S
C1782 C1783 1.327 . S
C1783 H1777 0.950 . S
C1783 C1782 1.327 . S
C1783 C1787 1.429 . S
C1784 C1767 1.574 . S
C1784 H1778 0.949 . S
C1784 C1788 1.368 . S
C1785 C1766 1.429 . S
C1785 C1779 1.429 . S
C1785 C1786 1.523 . S
C1786 C1767 1.368 . S
C1786 C1780 1.368 . S
C1786 C1785 1.523 . S
C1787 C1771 1.429 . S
C1787 C1783 1.429 . S
C1787 C1788 1.523 . S
C1788 C1772 1.368 . S
C1788 C1784 1.368 . S
C1788 C1787 1.523 . S
H1789 C1764 0.950 . S
H1790 C1766 0.950 . S
H1791 C1767 0.949 . S
H1792 C1769 0.950 . S
H1793 C1771 0.950 . S
C1794 C1795 1.354 1_554 S
C1794 C1796 1.327 . S
C1794 H1819 0.950 . S
C1795 C1794 1.354 1_556 S
C1795 C1811 1.344 . S
C1796 C1794 1.327 . S
C1796 C1815 1.429 . S
C1796 H1820 0.950 . S
C1797 C1814 1.574 . S
C1797 C1816 1.368 1_556 S
C1797 H1821 0.949 . S
H1798 C1802 0.949 . S
C1799 C1800 1.349 . S
C1799 C1801 1.327 . S
C1799 H1822 0.950 1_554 S
C1800 C1799 1.349 . S
C1800 C1812 1.349 . S
C1801 C1799 1.327 . S
C1801 C1817 1.429 . S
C1801 H1823 0.950 1_554 S
C1802 H1798 0.949 . S
C1802 C1810 1.574 . S
C1802 C1818 1.368 . S
H1803 C1811 0.950 . S
H1804 C1809 0.950 . S
H1805 C1810 0.949 . S
H1806 C1812 0.950 . S
H1807 C1813 0.950 . S
H1808 C1814 0.949 . S
C1809 H1804 0.950 . S
C1809 C1811 1.327 . S
C1809 C1815 1.429 1_556 S
C1810 C1802 1.574 . S
C1810 H1805 0.949 . S
C1810 C1816 1.368 . S
C1811 C1795 1.344 . S
C1811 H1803 0.950 . S
C1811 C1809 1.327 . S
C1812 C1800 1.349 . S
C1812 H1806 0.950 . S
C1812 C1813 1.327 . S
C1813 H1807 0.950 . S
C1813 C1812 1.327 . S
C1813 C1817 1.429 . S
C1814 C1797 1.574 . S
C1814 H1808 0.949 . S
C1814 C1818 1.368 1_556 S
C1815 C1796 1.429 . S
C1815 C1809 1.429 1_554 S
C1815 C1816 1.523 . S
C1816 C1797 1.368 1_554 S
C1816 C1810 1.368 . S
C1816 C1815 1.523 . S
C1817 C1801 1.429 . S
C1817 C1813 1.429 . S
C1817 C1818 1.523 . S
C1818 C1802 1.368 . S
C1818 C1814 1.368 1_554 S
C1818 C1817 1.523 . S
H1819 C1794 0.950 . S
H1820 C1796 0.950 . S
H1821 C1797 0.949 . S
H1822 C1799 0.950 1_556 S
H1823 C1801 0.950 1_556 S
C1824 C1825 1.349 . S
C1824 C1826 1.327 . S
C1824 H1849 0.950 . S
C1825 C1824 1.349 . S
C1825 C1841 1.349 . S
C1826 C1824 1.327 . S
C1826 C1845 1.429 . S
C1826 H1850 0.950 . S
C1827 C1844 1.574 . S
C1827 C1846 1.368 . S
C1827 H1851 0.949 . S
H1828 C1832 0.949 . S
C1829 C1830 1.349 . S
C1829 C1831 1.327 . S
C1829 H1852 0.950 . S
C1830 C1829 1.349 . S
C1830 C1842 1.349 . S
C1831 C1829 1.327 . S
C1831 C1847 1.429 . S
C1831 H1853 0.950 . S
C1832 H1828 0.949 . S
C1832 C1840 1.574 . S
C1832 C1848 1.368 . S
H1833 C1841 0.950 . S
H1834 C1839 0.950 . S
H1835 C1840 0.949 . S
H1836 C1842 0.950 . S
H1837 C1843 0.950 . S
H1838 C1844 0.949 . S
C1839 H1834 0.950 . S
C1839 C1841 1.327 . S
C1839 C1845 1.429 . S
C1840 C1832 1.574 . S
C1840 H1835 0.949 . S
C1840 C1846 1.368 . S
C1841 C1825 1.349 . S
C1841 H1833 0.950 . S
C1841 C1839 1.327 . S
C1842 C1830 1.349 . S
C1842 H1836 0.950 . S
C1842 C1843 1.327 . S
C1843 H1837 0.950 . S
C1843 C1842 1.327 . S
C1843 C1847 1.429 . S
C1844 C1827 1.574 . S
C1844 H1838 0.949 . S
C1844 C1848 1.368 . S
C1845 C1826 1.429 . S
C1845 C1839 1.429 . S
C1845 C1846 1.523 . S
C1846 C1827 1.368 . S
C1846 C1840 1.368 . S
C1846 C1845 1.523 . S
C1847 C1831 1.429 . S
C1847 C1843 1.429 . S
C1847 C1848 1.523 . S
C1848 C1832 1.368 . S
C1848 C1844 1.368 . S
C1848 C1847 1.523 . S
H1849 C1824 0.950 . S
H1850 C1826 0.950 . S
H1851 C1827 0.949 . S
H1852 C1829 0.950 . S
H1853 C1831 0.950 . S
C1854 C1855 1.349 1_455 S
C1854 C1856 1.327 . S
C1854 H1879 0.950 . S
C1855 C1854 1.349 1_655 S
C1855 C1871 1.349 . S
C1856 C1854 1.327 . S
C1856 C1875 1.429 1_455 S
C1856 H1880 0.950 . S
C1857 C1874 1.574 . S
C1857 C1876 1.368 . S
C1857 H1881 0.949 . S
H1858 C1862 0.949 . S
C1859 C1860 1.349 . S
C1859 C1861 1.327 . S
C1859 H1882 0.950 . S
C1860 C1859 1.349 . S
C1860 C1872 1.349 . S
C1861 C1859 1.327 . S
C1861 C1877 1.429 . S
C1861 H1883 0.950 . S
C1862 H1858 0.949 . S
C1862 C1870 1.574 . S
C1862 C1878 1.368 1_455 S
H1863 C1871 0.950 . S
H1864 C1869 0.950 . S
H1865 C1870 0.949 . S
H1866 C1872 0.950 1_455 S
H1867 C1873 0.937 1_455 S
H1868 C1874 0.949 . S
C1869 H1864 0.950 . S
C1869 C1871 1.327 . S
C1869 C1875 1.429 . S
C1870 C1862 1.574 . S
C1870 H1865 0.949 . S
C1870 C1876 1.368 1_455 S
C1871 C1855 1.349 . S
C1871 H1863 0.950 . S
C1871 C1869 1.327 . S
C1872 C1860 1.349 . S
C1872 H1866 0.950 1_655 S
C1872 C1873 1.328 . S
C1873 H1867 0.937 1_655 S
C1873 C1872 1.328 . S
C1873 C1877 1.440 . S
C1874 C1857 1.574 . S
C1874 H1868 0.949 . S
C1874 C1878 1.368 . S
C1875 C1856 1.429 1_655 S
C1875 C1869 1.429 . S
C1875 C1876 1.523 . S
C1876 C1857 1.368 . S
C1876 C1870 1.368 1_655 S
C1876 C1875 1.523 . S
C1877 C1861 1.429 . S
C1877 C1873 1.440 . S
C1877 C1878 1.523 . S
C1878 C1862 1.368 1_655 S
C1878 C1874 1.368 . S
C1878 C1877 1.523 . S
H1879 C1854 0.950 . S
H1880 C1856 0.950 . S
H1881 C1857 0.949 . S
H1882 C1859 0.950 . S
H1883 C1861 0.950 . S
C1884 C1885 1.349 . S
C1884 C1886 1.327 . S
C1884 H1909 0.950 . S
C1885 C1884 1.349 . S
C1885 C1901 1.349 . S
C1886 C1884 1.327 . S
C1886 C1905 1.429 . S
C1886 H1910 0.950 . S
C1887 C1904 1.574 . S
C1887 C1906 1.368 . S
C1887 H1911 0.949 . S
H1888 C1892 0.949 . S
C1889 C1890 1.349 . S
C1889 C1891 1.327 . S
C1889 H1912 0.950 . S
C1890 C1889 1.349 . S
C1890 C1902 1.349 . S
C1891 C1889 1.327 . S
C1891 C1907 1.429 . S
C1891 H1913 0.950 . S
C1892 H1888 0.949 . S
C1892 C1900 1.574 . S
C1892 C1908 1.368 . S
H1893 C1901 0.950 . S
H1894 C1899 0.950 . S
H1895 C1900 0.949 . S
H1896 C1902 0.950 . S
H1897 C1903 0.950 . S
H1898 C1904 0.949 . S
C1899 H1894 0.950 . S
C1899 C1901 1.327 . S
C1899 C1905 1.429 . S
C1900 C1892 1.574 . S
C1900 H1895 0.949 . S
C1900 C1906 1.368 . S
C1901 C1885 1.349 . S
C1901 H1893 0.950 . S
C1901 C1899 1.327 . S
C1902 C1890 1.349 . S
C1902 H1896 0.950 . S
C1902 C1903 1.327 . S
C1903 H1897 0.950 . S
C1903 C1902 1.327 . S
C1903 C1907 1.429 . S
C1904 C1887 1.574 . S
C1904 H1898 0.949 . S
C1904 C1908 1.368 . S
C1905 C1886 1.429 . S
C1905 C1899 1.429 . S
C1905 C1906 1.523 . S
C1906 C1887 1.368 . S
C1906 C1900 1.368 . S
C1906 C1905 1.523 . S
C1907 C1891 1.429 . S
C1907 C1903 1.429 . S
C1907 C1908 1.523 . S
C1908 C1892 1.368 . S
C1908 C1904 1.368 . S
C1908 C1907 1.523 . S
H1909 C1884 0.950 . S
H1910 C1886 0.950 . S
H1911 C1887 0.949 . S
H1912 C1889 0.950 . S
H1913 C1891 0.950 . S
C1914 C1915 1.353 1_455 S
C1914 C1916 1.327 . S
C1914 H1939 0.950 . S
C1915 C1914 1.353 1_655 S
C1915 C1931 1.346 . S
C1916 C1914 1.327 . S
C1916 C1935 1.429 . S
C1916 H1940 0.950 . S
C1917 C1934 1.581 . S
C1917 C1936 1.396 . S
C1917 H1941 0.920 1_455 S
H1918 C1922 0.949 . S
C1919 C1920 1.349 . S
C1919 C1921 1.327 . S
C1919 H1942 0.950 . S
C1920 C1919 1.349 . S
C1920 C1932 1.349 . S
C1921 C1919 1.327 . S
C1921 C1937 1.429 . S
C1921 H1943 0.950 . S
C1922 H1918 0.949 . S
C1922 C1930 1.574 . S
C1922 C1938 1.368 . S
H1923 C1931 0.950 . S
H1924 C1929 0.950 . S
H1925 C1930 0.949 . S
H1926 C1932 0.950 . S
H1927 C1933 0.950 . S
H1928 C1934 0.946 1_655 S
C1929 H1924 0.950 . S
C1929 C1931 1.327 . S
C1929 C1935 1.429 1_655 S
C1930 C1922 1.574 . S
C1930 H1925 0.949 . S
C1930 C1936 1.368 . S
C1931 C1915 1.346 . S
C1931 H1923 0.950 . S
C1931 C1929 1.327 . S
C1932 C1920 1.349 . S
C1932 H1926 0.950 . S
C1932 C1933 1.327 . S
C1933 H1927 0.950 . S
C1933 C1932 1.327 . S
C1933 C1937 1.429 . S
C1934 C1917 1.581 . S
C1934 H1928 0.946 1_455 S
C1934 C1938 1.368 . S
C1935 C1916 1.429 . S
C1935 C1929 1.429 1_455 S
C1935 C1936 1.523 . S
C1936 C1917 1.396 . S
C1936 C1930 1.368 . S
C1936 C1935 1.523 . S
C1937 C1921 1.429 . S
C1937 C1933 1.429 . S
C1937 C1938 1.523 . S
C1938 C1922 1.368 . S
C1938 C1934 1.368 . S
C1938 C1937 1.523 . S
H1939 C1914 0.950 . S
H1940 C1916 0.950 . S
H1941 C1917 0.920 1_655 S
H1942 C1919 0.950 . S
H1943 C1921 0.950 . S
C1944 C1945 1.349 . S
C1944 C1946 1.327 . S
C1944 H1969 0.950 . S
C1945 C1944 1.349 . S
C1945 C1961 1.349 . S
C1946 C1944 1.327 . S
C1946 C1965 1.429 . S
C1946 H1970 0.950 . S
C1947 C1964 1.574 . S
C1947 C1966 1.368 . S
C1947 H1971 0.949 . S
H1948 C1952 0.949 . S
C1949 C1950 1.349 . S
C1949 C1951 1.327 . S
C1949 H1972 0.950 . S
C1950 C1949 1.349 . S
C1950 C1962 1.349 . S
C1951 C1949 1.327 . S
C1951 C1967 1.429 . S
C1951 H1973 0.950 . S
C1952 H1948 0.949 . S
C1952 C1960 1.574 . S
C1952 C1968 1.368 . S
H1953 C1961 0.950 . S
H1954 C1959 0.950 . S
H1955 C1960 0.949 . S
H1956 C1962 0.950 . S
H1957 C1963 0.950 . S
H1958 C1964 0.949 . S
C1959 H1954 0.950 . S
C1959 C1961 1.327 . S
C1959 C1965 1.429 . S
C1960 C1952 1.574 . S
C1960 H1955 0.949 . S
C1960 C1966 1.368 . S
C1961 C1945 1.349 . S
C1961 H1953 0.950 . S
C1961 C1959 1.327 . S
C1962 C1950 1.349 . S
C1962 H1956 0.950 . S
C1962 C1963 1.327 . S
C1963 H1957 0.950 . S
C1963 C1962 1.327 . S
C1963 C1967 1.429 . S
C1964 C1947 1.574 . S
C1964 H1958 0.949 . S
C1964 C1968 1.368 . S
C1965 C1946 1.429 . S
C1965 C1959 1.429 . S
C1965 C1966 1.523 . S
C1966 C1947 1.368 . S
C1966 C1960 1.368 . S
C1966 C1965 1.523 . S
C1967 C1951 1.429 . S
C1967 C1963 1.429 . S
C1967 C1968 1.523 . S
C1968 C1952 1.368 . S
C1968 C1964 1.368 . S
C1968 C1967 1.523 . S
H1969 C1944 0.950 . S
H1970 C1946 0.950 . S
H1971 C1947 0.949 . S
H1972 C1949 0.950 . S
H1973 C1951 0.950 . S
C1974 C1975 1.349 . S
C1974 C1976 1.327 . S
C1974 H1999 0.950 . S
C1975 C1974 1.349 . S
C1975 C1991 1.349 . S
C1976 C1974 1.327 . S
C1976 C1995 1.429 . S
C1976 H2000 0.950 . S
C1977 C1994 1.574 . S
C1977 C1996 1.368 . S
C1977 H2001 0.949 . S
H1978 C1982 0.949 . S
C1979 C1980 1.349 . S
C1979 C1981 1.327 . S
C1979 H2002 0.950 . S
C1980 C1979 1.349 . S
C1980 C1992 1.349 . S
C1981 C1979 1.327 . S
C1981 C1997 1.429 . S
C1981 H2003 0.950 . S
C1982 H1978 0.949 . S
C1982 C1990 1.574 . S
C1982 C1998 1.368 . S
H1983 C1991 0.950 . S
H1984 C1989 0.950 . S
H1985 C1990 0.949 . S
H1986 C1992 0.950 . S
H1987 C1993 0.950 . S
H1988 C1994 0.949 . S
C1989 H1984 0.950 . S
C1989 C1991 1.327 . S
C1989 C1995 1.429 . S
C1990 C1982 1.574 . S
C1990 H1985 0.949 . S
C1990 C1996 1.368 . S
C1991 C1975 1.349 . S
C1991 H1983 0.950 . S
C1991 C1989 1.327 . S
C1992 C1980 1.349 . S
C1992 H1986 0.950 . S
C1992 C1993 1.327 . S
C1993 H1987 0.950 . S
C1993 C1992 1.327 . S
C1993 C1997 1.429 . S
C1994 C1977 1.574 . S
C1994 H1988 0.949 . S
C1994 C1998 1.368 . S
C1995 C1976 1.429 . S
C1995 C1989 1.429 . S
C1995 C1996 1.523 . S
C1996 C1977 1.368 . S
C1996 C1990 1.368 . S
C1996 C1995 1.523 . S
C1997 C1981 1.429 . S
C1997 C1993 1.429 . S
C1997 C1998 1.523 . S
C1998 C1982 1.368 . S
C1998 C1994 1.368 . S
C1998 C1997 1.523 . S
H1999 C1974 0.950 . S
H2000 C1976 0.950 . S
H2001 C1977 0.949 . S
H2002 C1979 0.950 . S
H2003 C1981 0.950 . S
C2004 C2005 1.350 . S
C2004 C2006 1.327 . S
C2004 H2029 0.950 . S
C2005 C2004 1.350 . S
C2005 C2021 1.348 1_545 S
C2006 C2004 1.327 . S
C2006 C2025 1.426 1_545 S
C2006 H2030 0.950 . S
C2007 C2024 1.574 . S
C2007 C2026 1.380 . S
C2007 H2031 0.949 . S
H2008 C2012 0.949 . S
C2009 C2010 1.403 . S
C2009 C2011 1.327 . S
C2009 H2032 0.950 . S
C2010 C2009 1.403 . S
C2010 C2022 1.302 1_565 S
C2011 C2009 1.327 . S
C2011 C2027 1.461 . S
C2011 H2033 0.950 . S
C2012 H2008 0.949 . S
C2012 C2020 1.574 . S
C2012 C2028 1.342 1_545 S
H2013 C2021 0.950 . S
H2014 C2019 0.950 . S
H2015 C2020 0.949 . S
H2016 C2022 0.950 . S
H2017 C2023 0.950 . S
H2018 C2024 0.949 . S
C2019 H2014 0.950 . S
C2019 C2021 1.327 . S
C2019 C2025 1.431 . S
C2020 C2012 1.574 . S
C2020 H2015 0.949 . S
C2020 C2026 1.356 1_545 S
C2021 C2005 1.348 1_565 S
C2021 H2013 0.950 . S
C2021 C2019 1.327 . S
C2022 C2010 1.302 1_545 S
C2022 H2016 0.950 . S
C2022 C2023 1.327 . S
C2023 H2017 0.950 . S
C2023 C2022 1.327 . S
C2023 C2027 1.394 1_545 S
C2024 C2007 1.574 . S
C2024 H2018 0.949 . S
C2024 C2028 1.397 . S
C2025 C2006 1.426 1_565 S
C2025 C2019 1.431 . S
C2025 C2026 1.524 . S
C2026 C2007 1.380 . S
C2026 C2020 1.356 1_565 S
C2026 C2025 1.524 . S
C2027 C2011 1.461 . S
C2027 C2023 1.394 1_565 S
C2027 C2028 1.524 . S
C2028 C2012 1.342 1_565 S
C2028 C2024 1.397 . S
C2028 C2027 1.524 . S
H2029 C2004 0.950 . S
H2030 C2006 0.950 . S
H2031 C2007 0.949 . S
H2032 C2009 0.950 . S
H2033 C2011 0.950 . S
C2034 C2035 1.349 . S
C2034 C2036 1.327 . S
C2034 H2059 0.950 . S
C2035 C2034 1.349 . S
C2035 C2051 1.349 1_565 S
C2036 C2034 1.327 . S
C2036 C2055 1.429 . S
C2036 H2060 0.950 . S
C2037 C2054 1.574 . S
C2037 C2056 1.368 1_545 S
C2037 H2061 0.949 . S
H2038 C2042 0.949 . S
C2039 C2040 1.349 1_545 S
C2039 C2041 1.327 . S
C2039 H2062 0.950 . S
C2040 C2039 1.349 1_565 S
C2040 C2052 1.349 . S
C2041 C2039 1.327 . S
C2041 C2057 1.429 1_545 S
C2041 H2063 0.950 . S
C2042 H2038 0.949 . S
C2042 C2050 1.574 . S
C2042 C2058 1.368 . S
H2043 C2051 0.950 . S
H2044 C2049 0.950 . S
H2045 C2050 0.949 . S
H2046 C2052 0.950 . S
H2047 C2053 0.950 . S
H2048 C2054 0.949 . S
C2049 H2044 0.950 . S
C2049 C2051 1.327 . S
C2049 C2055 1.429 1_545 S
C2050 C2042 1.574 . S
C2050 H2045 0.949 . S
C2050 C2056 1.368 . S
C2051 C2035 1.349 1_545 S
C2051 H2043 0.950 . S
C2051 C2049 1.327 . S
C2052 C2040 1.349 . S
C2052 H2046 0.950 . S
C2052 C2053 1.327 . S
C2053 H2047 0.950 . S
C2053 C2052 1.327 . S
C2053 C2057 1.429 . S
C2054 C2037 1.574 . S
C2054 H2048 0.949 . S
C2054 C2058 1.368 1_545 S
C2055 C2036 1.429 . S
C2055 C2049 1.429 1_565 S
C2055 C2056 1.523 . S
C2056 C2037 1.368 1_565 S
C2056 C2050 1.368 . S
C2056 C2055 1.523 . S
C2057 C2041 1.429 1_565 S
C2057 C2053 1.429 . S
C2057 C2058 1.523 . S
C2058 C2042 1.368 . S
C2058 C2054 1.368 1_565 S
C2058 C2057 1.523 . S
H2059 C2034 0.950 . S
H2060 C2036 0.950 . S
H2061 C2037 0.949 . S
H2062 C2039 0.950 . S
H2063 C2041 0.950 . S
C2064 C2065 1.349 . S
C2064 C2066 1.327 . S
C2064 H2089 0.950 . S
C2065 C2064 1.349 . S
C2065 C2081 1.349 . S
C2066 C2064 1.327 . S
C2066 C2085 1.429 . S
C2066 H2090 0.950 . S
C2067 C2084 1.574 . S
C2067 C2086 1.368 . S
C2067 H2091 0.949 . S
H2068 C2072 0.949 . S
C2069 C2070 1.349 . S
C2069 C2071 1.327 . S
C2069 H2092 0.950 . S
C2070 C2069 1.349 . S
C2070 C2082 1.349 . S
C2071 C2069 1.327 . S
C2071 C2087 1.429 . S
C2071 H2093 0.950 . S
C2072 H2068 0.949 . S
C2072 C2080 1.574 . S
C2072 C2088 1.368 . S
H2073 C2081 0.950 . S
H2074 C2079 0.950 . S
H2075 C2080 0.949 . S
H2076 C2082 0.950 . S
H2077 C2083 0.950 . S
H2078 C2084 0.949 . S
C2079 H2074 0.950 . S
C2079 C2081 1.327 . S
C2079 C2085 1.429 . S
C2080 C2072 1.574 . S
C2080 H2075 0.949 . S
C2080 C2086 1.368 . S
C2081 C2065 1.349 . S
C2081 H2073 0.950 . S
C2081 C2079 1.327 . S
C2082 C2070 1.349 . S
C2082 H2076 0.950 . S
C2082 C2083 1.327 . S
C2083 H2077 0.950 . S
C2083 C2082 1.327 . S
C2083 C2087 1.429 . S
C2084 C2067 1.574 . S
C2084 H2078 0.949 . S
C2084 C2088 1.368 . S
C2085 C2066 1.429 . S
C2085 C2079 1.429 . S
C2085 C2086 1.523 . S
C2086 C2067 1.368 . S
C2086 C2080 1.368 . S
C2086 C2085 1.523 . S
C2087 C2071 1.429 . S
C2087 C2083 1.429 . S
C2087 C2088 1.523 . S
C2088 C2072 1.368 . S
C2088 C2084 1.368 . S
C2088 C2087 1.523 . S
H2089 C2064 0.950 . S
H2090 C2066 0.950 . S
H2091 C2067 0.949 . S
H2092 C2069 0.950 . S
H2093 C2071 0.950 . S
C2094 C2095 1.349 . S
C2094 C2096 1.327 . S
C2094 H2119 0.950 . S
C2095 C2094 1.349 . S
C2095 C2111 1.349 1_556 S
C2096 C2094 1.327 . S
C2096 C2115 1.429 . S
C2096 H2120 0.950 . S
C2097 C2114 1.574 . S
C2097 C2116 1.368 1_554 S
C2097 H2121 0.949 . S
H2098 C2102 0.949 . S
C2099 C2100 1.349 1_554 S
C2099 C2101 1.327 . S
C2099 H2122 0.950 . S
C2100 C2099 1.349 1_556 S
C2100 C2112 1.349 . S
C2101 C2099 1.327 . S
C2101 C2117 1.429 1_554 S
C2101 H2123 0.950 . S
C2102 H2098 0.949 . S
C2102 C2110 1.574 . S
C2102 C2118 1.368 . S
H2103 C2111 0.950 . S
H2104 C2109 0.950 . S
H2105 C2110 0.949 . S
H2106 C2112 0.950 . S
H2107 C2113 0.950 . S
H2108 C2114 0.949 . S
C2109 H2104 0.950 . S
C2109 C2111 1.327 . S
C2109 C2115 1.429 1_554 S
C2110 C2102 1.574 . S
C2110 H2105 0.949 . S
C2110 C2116 1.368 . S
C2111 C2095 1.349 1_554 S
C2111 H2103 0.950 . S
C2111 C2109 1.327 . S
C2112 C2100 1.349 . S
C2112 H2106 0.950 . S
C2112 C2113 1.327 . S
C2113 H2107 0.950 . S
C2113 C2112 1.327 . S
C2113 C2117 1.429 . S
C2114 C2097 1.574 . S
C2114 H2108 0.949 . S
C2114 C2118 1.368 1_554 S
C2115 C2096 1.429 . S
C2115 C2109 1.429 1_556 S
C2115 C2116 1.523 . S
C2116 C2097 1.368 1_556 S
C2116 C2110 1.368 . S
C2116 C2115 1.523 . S
C2117 C2101 1.429 1_556 S
C2117 C2113 1.429 . S
C2117 C2118 1.523 . S
C2118 C2102 1.368 . S
C2118 C2114 1.368 1_556 S
C2118 C2117 1.523 . S
H2119 C2094 0.950 . S
H2120 C2096 0.950 . S
H2121 C2097 0.949 . S
H2122 C2099 0.950 . S
H2123 C2101 0.950 . S
C2124 C2125 1.349 . S
C2124 C2126 1.327 . S
C2124 H2149 0.950 . S
C2125 C2124 1.349 . S
C2125 C2141 1.349 . S
C2126 C2124 1.327 . S
C2126 C2145 1.429 . S
C2126 H2150 0.950 . S
C2127 C2144 1.574 . S
C2127 C2146 1.368 . S
C2127 H2151 0.949 . S
H2128 C2132 0.949 . S
C2129 C2130 1.349 . S
C2129 C2131 1.327 . S
C2129 H2152 0.950 . S
C2130 C2129 1.349 . S
C2130 C2142 1.349 . S
C2131 C2129 1.327 . S
C2131 C2147 1.429 . S
C2131 H2153 0.950 . S
C2132 H2128 0.949 . S
C2132 C2140 1.574 . S
C2132 C2148 1.368 . S
H2133 C2141 0.950 . S
H2134 C2139 0.950 . S
H2135 C2140 0.949 . S
H2136 C2142 0.950 . S
H2137 C2143 0.950 . S
H2138 C2144 0.949 . S
C2139 H2134 0.950 . S
C2139 C2141 1.327 . S
C2139 C2145 1.429 . S
C2140 C2132 1.574 . S
C2140 H2135 0.949 . S
C2140 C2146 1.368 . S
C2141 C2125 1.349 . S
C2141 H2133 0.950 . S
C2141 C2139 1.327 . S
C2142 C2130 1.349 . S
C2142 H2136 0.950 . S
C2142 C2143 1.327 . S
C2143 H2137 0.950 . S
C2143 C2142 1.327 . S
C2143 C2147 1.429 . S
C2144 C2127 1.574 . S
C2144 H2138 0.949 . S
C2144 C2148 1.368 . S
C2145 C2126 1.429 . S
C2145 C2139 1.429 . S
C2145 C2146 1.523 . S
C2146 C2127 1.368 . S
C2146 C2140 1.368 . S
C2146 C2145 1.523 . S
C2147 C2131 1.429 . S
C2147 C2143 1.429 . S
C2147 C2148 1.523 . S
C2148 C2132 1.368 . S
C2148 C2144 1.368 . S
C2148 C2147 1.523 . S
H2149 C2124 0.950 . S
H2150 C2126 0.950 . S
H2151 C2127 0.949 . S
H2152 C2129 0.950 . S
H2153 C2131 0.950 . S
C2154 C2155 1.348 1_556 S
C2154 C2156 1.327 . S
C2154 H2179 0.950 . S
C2155 C2154 1.348 1_554 S
C2155 C2171 1.350 . S
C2156 C2154 1.327 . S
C2156 C2175 1.432 . S
C2156 H2180 0.950 . S
C2157 C2174 1.574 . S
C2157 C2176 1.355 1_554 S
C2157 H2181 0.949 . S
H2158 C2162 0.949 . S
C2159 C2160 1.300 1_554 S
C2159 C2161 1.327 . S
C2159 H2182 0.950 . S
C2160 C2159 1.300 1_556 S
C2160 C2172 1.405 . S
C2161 C2159 1.327 . S
C2161 C2177 1.392 1_554 S
C2161 H2183 0.950 . S
C2162 H2158 0.949 . S
C2162 C2170 1.574 . S
C2162 C2178 1.398 . S
H2163 C2171 0.950 . S
H2164 C2169 0.950 . S
H2165 C2170 0.949 . S
H2166 C2172 0.950 . S
H2167 C2173 0.950 . S
H2168 C2174 0.949 . S
C2169 H2164 0.950 . S
C2169 C2171 1.327 . S
C2169 C2175 1.426 1_554 S
C2170 C2162 1.574 . S
C2170 H2165 0.949 . S
C2170 C2176 1.381 . S
C2171 C2155 1.350 . S
C2171 H2163 0.950 . S
C2171 C2169 1.327 . S
C2172 C2160 1.405 . S
C2172 H2166 0.950 . S
C2172 C2173 1.327 . S
C2173 H2167 0.950 . S
C2173 C2172 1.327 . S
C2173 C2177 1.462 . S
C2174 C2157 1.574 . S
C2174 H2168 0.949 . S
C2174 C2178 1.341 1_554 S
C2175 C2156 1.432 . S
C2175 C2169 1.426 1_556 S
C2175 C2176 1.524 . S
C2176 C2157 1.355 1_556 S
C2176 C2170 1.381 . S
C2176 C2175 1.524 . S
C2177 C2161 1.392 1_556 S
C2177 C2173 1.462 . S
C2177 C2178 1.524 . S
C2178 C2162 1.398 . S
C2178 C2174 1.341 1_556 S
C2178 C2177 1.524 . S
H2179 C2154 0.950 . S
H2180 C2156 0.950 . S
H2181 C2157 0.949 . S
H2182 C2159 0.950 . S
H2183 C2161 0.950 . S
C2184 C2185 1.349 . S
C2184 C2186 1.327 . S
C2184 H2209 0.950 . S
C2185 C2184 1.349 . S
C2185 C2201 1.349 . S
C2186 C2184 1.327 . S
C2186 C2205 1.429 . S
C2186 H2210 0.950 . S
C2187 C2204 1.574 . S
C2187 C2206 1.368 . S
C2187 H2211 0.949 . S
H2188 C2192 0.949 . S
C2189 C2190 1.349 . S
C2189 C2191 1.327 . S
C2189 H2212 0.950 . S
C2190 C2189 1.349 . S
C2190 C2202 1.349 . S
C2191 C2189 1.327 . S
C2191 C2207 1.429 . S
C2191 H2213 0.950 . S
C2192 H2188 0.949 . S
C2192 C2200 1.574 . S
C2192 C2208 1.368 . S
H2193 C2201 0.950 . S
H2194 C2199 0.950 . S
H2195 C2200 0.949 . S
H2196 C2202 0.950 . S
H2197 C2203 0.950 . S
H2198 C2204 0.949 . S
C2199 H2194 0.950 . S
C2199 C2201 1.327 . S
C2199 C2205 1.429 . S
C2200 C2192 1.574 . S
C2200 H2195 0.949 . S
C2200 C2206 1.368 . S
C2201 C2185 1.349 . S
C2201 H2193 0.950 . S
C2201 C2199 1.327 . S
C2202 C2190 1.349 . S
C2202 H2196 0.950 . S
C2202 C2203 1.327 . S
C2203 H2197 0.950 . S
C2203 C2202 1.327 . S
C2203 C2207 1.429 . S
C2204 C2187 1.574 . S
C2204 H2198 0.949 . S
C2204 C2208 1.368 . S
C2205 C2186 1.429 . S
C2205 C2199 1.429 . S
C2205 C2206 1.523 . S
C2206 C2187 1.368 . S
C2206 C2200 1.368 . S
C2206 C2205 1.523 . S
C2207 C2191 1.429 . S
C2207 C2203 1.429 . S
C2207 C2208 1.523 . S
C2208 C2192 1.368 . S
C2208 C2204 1.368 . S
C2208 C2207 1.523 . S
H2209 C2184 0.950 . S
H2210 C2186 0.950 . S
H2211 C2187 0.949 . S
H2212 C2189 0.950 . S
H2213 C2191 0.950 . S
C2214 C2215 1.349 1_455 S
C2214 C2216 1.327 . S
C2214 H2239 0.950 . S
C2215 C2214 1.349 1_655 S
C2215 C2231 1.349 . S
C2216 C2214 1.327 . S
C2216 C2235 1.429 1_455 S
C2216 H2240 0.950 . S
C2217 C2234 1.574 . S
C2217 C2236 1.368 . S
C2217 H2241 0.949 . S
H2218 C2222 0.949 . S
C2219 C2220 1.349 . S
C2219 C2221 1.327 . S
C2219 H2242 0.950 . S
C2220 C2219 1.349 . S
C2220 C2232 1.349 1_655 S
C2221 C2219 1.327 . S
C2221 C2237 1.429 . S
C2221 H2243 0.950 . S
C2222 H2218 0.949 . S
C2222 C2230 1.574 . S
C2222 C2238 1.368 1_455 S
H2223 C2231 0.950 . S
H2224 C2229 0.950 . S
H2225 C2230 0.949 . S
H2226 C2232 0.950 . S
H2227 C2233 0.950 . S
H2228 C2234 0.949 . S
C2229 H2224 0.950 . S
C2229 C2231 1.327 . S
C2229 C2235 1.429 . S
C2230 C2222 1.574 . S
C2230 H2225 0.949 . S
C2230 C2236 1.368 1_455 S
C2231 C2215 1.349 . S
C2231 H2223 0.950 . S
C2231 C2229 1.327 . S
C2232 C2220 1.349 1_455 S
C2232 H2226 0.950 . S
C2232 C2233 1.327 . S
C2233 H2227 0.950 . S
C2233 C2232 1.327 . S
C2233 C2237 1.429 1_455 S
C2234 C2217 1.574 . S
C2234 H2228 0.949 . S
C2234 C2238 1.368 . S
C2235 C2216 1.429 1_655 S
C2235 C2229 1.429 . S
C2235 C2236 1.523 . S
C2236 C2217 1.368 . S
C2236 C2230 1.368 1_655 S
C2236 C2235 1.523 . S
C2237 C2221 1.429 . S
C2237 C2233 1.429 1_655 S
C2237 C2238 1.523 . S
C2238 C2222 1.368 1_655 S
C2238 C2234 1.368 . S
C2238 C2237 1.523 . S
H2239 C2214 0.950 . S
H2240 C2216 0.950 . S
H2241 C2217 0.949 . S
H2242 C2219 0.950 . S
H2243 C2221 0.950 . S
C2244 C2245 1.349 . S
C2244 C2246 1.327 . S
C2244 H2269 0.950 . S
C2245 C2244 1.349 . S
C2245 C2261 1.349 . S
C2246 C2244 1.327 . S
C2246 C2265 1.429 . S
C2246 H2270 0.950 . S
C2247 C2264 1.574 . S
C2247 C2266 1.368 . S
C2247 H2271 0.949 . S
H2248 C2252 0.949 . S
C2249 C2250 1.349 . S
C2249 C2251 1.327 . S
C2249 H2272 0.950 . S
C2250 C2249 1.349 . S
C2250 C2262 1.349 . S
C2251 C2249 1.327 . S
C2251 C2267 1.429 . S
C2251 H2273 0.950 . S
C2252 H2248 0.949 . S
C2252 C2260 1.574 . S
C2252 C2268 1.368 . S
H2253 C2261 0.950 . S
H2254 C2259 0.950 . S
H2255 C2260 0.949 . S
H2256 C2262 0.950 . S
H2257 C2263 0.950 . S
H2258 C2264 0.949 . S
C2259 H2254 0.950 . S
C2259 C2261 1.327 . S
C2259 C2265 1.429 . S
C2260 C2252 1.574 . S
C2260 H2255 0.949 . S
C2260 C2266 1.368 . S
C2261 C2245 1.349 . S
C2261 H2253 0.950 . S
C2261 C2259 1.327 . S
C2262 C2250 1.349 . S
C2262 H2256 0.950 . S
C2262 C2263 1.327 . S
C2263 H2257 0.950 . S
C2263 C2262 1.327 . S
C2263 C2267 1.429 . S
C2264 C2247 1.574 . S
C2264 H2258 0.949 . S
C2264 C2268 1.368 . S
C2265 C2246 1.429 . S
C2265 C2259 1.429 . S
C2265 C2266 1.523 . S
C2266 C2247 1.368 . S
C2266 C2260 1.368 . S
C2266 C2265 1.523 . S
C2267 C2251 1.429 . S
C2267 C2263 1.429 . S
C2267 C2268 1.523 . S
C2268 C2252 1.368 . S
C2268 C2264 1.368 . S
C2268 C2267 1.523 . S
H2269 C2244 0.950 . S
H2270 C2246 0.950 . S
H2271 C2247 0.949 . S
H2272 C2249 0.950 . S
H2273 C2251 0.950 . S
C2274 C2275 1.348 1_655 S
C2274 C2276 1.327 . S
C2274 H2299 0.950 . S
C2275 C2274 1.348 1_455 S
C2275 C2291 1.349 . S
C2276 C2274 1.327 . S
C2276 C2295 1.430 . S
C2276 H2300 0.950 . S
C2277 C2294 1.574 . S
C2277 C2296 1.360 1_455 S
C2277 H2301 0.949 . S
H2278 C2282 0.949 . S
C2279 C2280 1.322 1_455 S
C2279 C2281 1.327 . S
C2279 H2302 0.950 . S
C2280 C2279 1.322 1_655 S
C2280 C2292 1.384 . S
C2281 C2279 1.327 . S
C2281 C2297 1.407 1_455 S
C2281 H2303 0.950 . S
C2282 H2278 0.949 . S
C2282 C2290 1.574 . S
C2282 C2298 1.387 . S
H2283 C2291 0.950 . S
H2284 C2289 0.950 . S
H2285 C2290 0.949 . S
H2286 C2292 0.950 . S
H2287 C2293 0.950 . S
H2288 C2294 0.949 . S
C2289 H2284 0.950 . S
C2289 C2291 1.327 . S
C2289 C2295 1.427 1_455 S
C2290 C2282 1.574 . S
C2290 H2285 0.949 . S
C2290 C2296 1.375 . S
C2291 C2275 1.349 . S
C2291 H2283 0.950 . S
C2291 C2289 1.327 . S
C2292 C2280 1.384 . S
C2292 H2286 0.950 . S
C2292 C2293 1.327 . S
C2293 H2287 0.950 . S
C2293 C2292 1.327 . S
C2293 C2297 1.448 . S
C2294 C2277 1.574 . S
C2294 H2288 0.949 . S
C2294 C2298 1.353 1_455 S
C2295 C2276 1.430 . S
C2295 C2289 1.427 1_655 S
C2295 C2296 1.524 . S
C2296 C2277 1.360 1_655 S
C2296 C2290 1.375 . S
C2296 C2295 1.524 . S
C2297 C2281 1.407 1_655 S
C2297 C2293 1.448 . S
C2297 C2298 1.524 . S
C2298 C2282 1.387 . S
C2298 C2294 1.353 1_655 S
C2298 C2297 1.524 . S
H2299 C2274 0.950 . S
H2300 C2276 0.950 . S
H2301 C2277 0.949 . S
H2302 C2279 0.950 . S
H2303 C2281 0.950 . S
C2304 C2305 1.349 . S
C2304 C2306 1.327 . S
C2304 H2329 0.950 . S
C2305 C2304 1.349 . S
C2305 C2321 1.349 . S
C2306 C2304 1.327 . S
C2306 C2325 1.429 . S
C2306 H2330 0.950 . S
C2307 C2324 1.574 . S
C2307 C2326 1.368 . S
C2307 H2331 0.949 . S
H2308 C2312 0.949 . S
C2309 C2310 1.349 . S
C2309 C2311 1.327 . S
C2309 H2332 0.950 . S
C2310 C2309 1.349 . S
C2310 C2322 1.349 . S
C2311 C2309 1.327 . S
C2311 C2327 1.429 . S
C2311 H2333 0.950 . S
C2312 H2308 0.949 . S
C2312 C2320 1.574 . S
C2312 C2328 1.368 . S
H2313 C2321 0.950 . S
H2314 C2319 0.950 . S
H2315 C2320 0.949 . S
H2316 C2322 0.950 . S
H2317 C2323 0.950 . S
H2318 C2324 0.949 . S
C2319 H2314 0.950 . S
C2319 C2321 1.327 . S
C2319 C2325 1.429 . S
C2320 C2312 1.574 . S
C2320 H2315 0.949 . S
C2320 C2326 1.368 . S
C2321 C2305 1.349 . S
C2321 H2313 0.950 . S
C2321 C2319 1.327 . S
C2322 C2310 1.349 . S
C2322 H2316 0.950 . S
C2322 C2323 1.327 . S
C2323 H2317 0.950 . S
C2323 C2322 1.327 . S
C2323 C2327 1.429 . S
C2324 C2307 1.574 . S
C2324 H2318 0.949 . S
C2324 C2328 1.368 . S
C2325 C2306 1.429 . S
C2325 C2319 1.429 . S
C2325 C2326 1.523 . S
C2326 C2307 1.368 . S
C2326 C2320 1.368 . S
C2326 C2325 1.523 . S
C2327 C2311 1.429 . S
C2327 C2323 1.429 . S
C2327 C2328 1.523 . S
C2328 C2312 1.368 . S
C2328 C2324 1.368 . S
C2328 C2327 1.523 . S
H2329 C2304 0.950 . S
H2330 C2306 0.950 . S
H2331 C2307 0.949 . S
H2332 C2309 0.950 . S
H2333 C2311 0.950 . S
C2334 C2335 1.349 . S
C2334 C2336 1.327 . S
C2334 H2359 0.950 . S
C2335 C2334 1.349 . S
C2335 C2351 1.349 . S
C2336 C2334 1.327 . S
C2336 C2355 1.429 . S
C2336 H2360 0.950 . S
C2337 C2354 1.574 . S
C2337 C2356 1.368 . S
C2337 H2361 0.949 . S
H2338 C2342 0.949 . S
C2339 C2340 1.349 . S
C2339 C2341 1.327 . S
C2339 H2362 0.950 . S
C2340 C2339 1.349 . S
C2340 C2352 1.349 . S
C2341 C2339 1.327 . S
C2341 C2357 1.429 . S
C2341 H2363 0.950 . S
C2342 H2338 0.949 . S
C2342 C2350 1.574 . S
C2342 C2358 1.368 . S
H2343 C2351 0.950 . S
H2344 C2349 0.950 . S
H2345 C2350 0.949 . S
H2346 C2352 0.950 . S
H2347 C2353 0.950 . S
H2348 C2354 0.949 . S
C2349 H2344 0.950 . S
C2349 C2351 1.327 . S
C2349 C2355 1.429 . S
C2350 C2342 1.574 . S
C2350 H2345 0.949 . S
C2350 C2356 1.368 . S
C2351 C2335 1.349 . S
C2351 H2343 0.950 . S
C2351 C2349 1.327 . S
C2352 C2340 1.349 . S
C2352 H2346 0.950 . S
C2352 C2353 1.327 . S
C2353 H2347 0.950 . S
C2353 C2352 1.327 . S
C2353 C2357 1.429 . S
C2354 C2337 1.574 . S
C2354 H2348 0.949 . S
C2354 C2358 1.368 . S
C2355 C2336 1.429 . S
C2355 C2349 1.429 . S
C2355 C2356 1.523 . S
C2356 C2337 1.368 . S
C2356 C2350 1.368 . S
C2356 C2355 1.523 . S
C2357 C2341 1.429 . S
C2357 C2353 1.429 . S
C2357 C2358 1.523 . S
C2358 C2342 1.368 . S
C2358 C2354 1.368 . S
C2358 C2357 1.523 . S
H2359 C2334 0.950 . S
H2360 C2336 0.950 . S
H2361 C2337 0.949 . S
H2362 C2339 0.950 . S
H2363 C2341 0.950 . S
C2364 C2365 1.348 1_545 S
C2364 C2366 1.327 . S
C2364 H2389 0.950 . S
C2365 C2364 1.348 1_565 S
C2365 C2381 1.350 . S
C2366 C2364 1.327 . S
C2366 C2385 1.432 . S
C2366 H2390 0.950 . S
C2367 C2384 1.574 . S
C2367 C2386 1.355 1_565 S
C2367 H2391 0.949 . S
H2368 C2372 0.949 . S
C2369 C2370 1.298 1_565 S
C2369 C2371 1.327 . S
C2369 H2392 0.950 . S
C2370 C2369 1.298 1_545 S
C2370 C2382 1.407 . S
C2371 C2369 1.327 . S
C2371 C2387 1.391 1_565 S
C2371 H2393 0.950 . S
C2372 H2368 0.949 . S
C2372 C2380 1.574 . S
C2372 C2388 1.400 . S
H2373 C2381 0.950 . S
H2374 C2379 0.950 . S
H2375 C2380 0.949 . S
H2376 C2382 0.950 . S
H2377 C2383 0.950 . S
H2378 C2384 0.949 . S
C2379 H2374 0.950 . S
C2379 C2381 1.327 . S
C2379 C2385 1.426 1_565 S
C2380 C2372 1.574 . S
C2380 H2375 0.949 . S
C2380 C2386 1.381 . S
C2381 C2365 1.350 . S
C2381 H2373 0.950 . S
C2381 C2379 1.327 . S
C2382 C2370 1.407 . S
C2382 H2376 0.950 . S
C2382 C2383 1.327 . S
C2383 H2377 0.950 . S
C2383 C2382 1.327 . S
C2383 C2387 1.464 . S
C2384 C2367 1.574 . S
C2384 H2378 0.949 . S
C2384 C2388 1.339 1_565 S
C2385 C2366 1.432 . S
C2385 C2379 1.426 1_545 S
C2385 C2386 1.524 . S
C2386 C2367 1.355 1_545 S
C2386 C2380 1.381 . S
C2386 C2385 1.524 . S
C2387 C2371 1.391 1_545 S
C2387 C2383 1.464 . S
C2387 C2388 1.524 . S
C2388 C2372 1.400 . S
C2388 C2384 1.339 1_545 S
C2388 C2387 1.524 . S
H2389 C2364 0.950 . S
H2390 C2366 0.950 . S
H2391 C2367 0.949 . S
H2392 C2369 0.950 . S
H2393 C2371 0.950 . S
C2394 C2395 1.349 1_565 S
C2394 C2396 1.327 . S
C2394 H2419 0.950 . S
C2395 C2394 1.349 1_545 S
C2395 C2411 1.349 . S
C2396 C2394 1.327 . S
C2396 C2415 1.429 1_565 S
C2396 H2420 0.950 . S
C2397 C2414 1.574 . S
C2397 C2416 1.368 . S
C2397 H2421 0.949 . S
H2398 C2402 0.949 . S
C2399 C2400 1.349 . S
C2399 C2401 1.327 . S
C2399 H2422 0.950 . S
C2400 C2399 1.349 . S
C2400 C2412 1.349 1_545 S
C2401 C2399 1.327 . S
C2401 C2417 1.429 . S
C2401 H2423 0.950 . S
C2402 H2398 0.949 . S
C2402 C2410 1.574 . S
C2402 C2418 1.368 1_565 S
H2403 C2411 0.950 . S
H2404 C2409 0.950 . S
H2405 C2410 0.949 . S
H2406 C2412 0.950 . S
H2407 C2413 0.950 . S
H2408 C2414 0.949 . S
C2409 H2404 0.950 . S
C2409 C2411 1.327 . S
C2409 C2415 1.429 . S
C2410 C2402 1.574 . S
C2410 H2405 0.949 . S
C2410 C2416 1.368 1_565 S
C2411 C2395 1.349 . S
C2411 H2403 0.950 . S
C2411 C2409 1.327 . S
C2412 C2400 1.349 1_565 S
C2412 H2406 0.950 . S
C2412 C2413 1.327 . S
C2413 H2407 0.950 . S
C2413 C2412 1.327 . S
C2413 C2417 1.429 1_565 S
C2414 C2397 1.574 . S
C2414 H2408 0.949 . S
C2414 C2418 1.368 . S
C2415 C2396 1.429 1_545 S
C2415 C2409 1.429 . S
C2415 C2416 1.523 . S
C2416 C2397 1.368 . S
C2416 C2410 1.368 1_545 S
C2416 C2415 1.523 . S
C2417 C2401 1.429 . S
C2417 C2413 1.429 1_545 S
C2417 C2418 1.523 . S
C2418 C2402 1.368 1_545 S
C2418 C2414 1.368 . S
C2418 C2417 1.523 . S
H2419 C2394 0.950 . S
H2420 C2396 0.950 . S
H2421 C2397 0.949 . S
H2422 C2399 0.950 . S
H2423 C2401 0.950 . S
C2424 C2425 1.349 . S
C2424 C2426 1.327 . S
C2424 H2449 0.950 . S
C2425 C2424 1.349 . S
C2425 C2441 1.349 . S
C2426 C2424 1.327 . S
C2426 C2445 1.429 . S
C2426 H2450 0.950 . S
C2427 C2444 1.574 . S
C2427 C2446 1.368 . S
C2427 H2451 0.949 . S
H2428 C2432 0.949 . S
C2429 C2430 1.349 . S
C2429 C2431 1.327 . S
C2429 H2452 0.950 . S
C2430 C2429 1.349 . S
C2430 C2442 1.349 . S
C2431 C2429 1.327 . S
C2431 C2447 1.429 . S
C2431 H2453 0.950 . S
C2432 H2428 0.949 . S
C2432 C2440 1.574 . S
C2432 C2448 1.368 . S
H2433 C2441 0.950 . S
H2434 C2439 0.950 . S
H2435 C2440 0.949 . S
H2436 C2442 0.950 . S
H2437 C2443 0.950 . S
H2438 C2444 0.949 . S
C2439 H2434 0.950 . S
C2439 C2441 1.327 . S
C2439 C2445 1.429 . S
C2440 C2432 1.574 . S
C2440 H2435 0.949 . S
C2440 C2446 1.368 . S
C2441 C2425 1.349 . S
C2441 H2433 0.950 . S
C2441 C2439 1.327 . S
C2442 C2430 1.349 . S
C2442 H2436 0.950 . S
C2442 C2443 1.327 . S
C2443 H2437 0.950 . S
C2443 C2442 1.327 . S
C2443 C2447 1.429 . S
C2444 C2427 1.574 . S
C2444 H2438 0.949 . S
C2444 C2448 1.368 . S
C2445 C2426 1.429 . S
C2445 C2439 1.429 . S
C2445 C2446 1.523 . S
C2446 C2427 1.368 . S
C2446 C2440 1.368 . S
C2446 C2445 1.523 . S
C2447 C2431 1.429 . S
C2447 C2443 1.429 . S
C2447 C2448 1.523 . S
C2448 C2432 1.368 . S
C2448 C2444 1.368 . S
C2448 C2447 1.523 . S
H2449 C2424 0.950 . S
H2450 C2426 0.950 . S
H2451 C2427 0.949 . S
H2452 C2429 0.950 . S
H2453 C2431 0.950 . S
C2454 C2455 1.349 1_556 S
C2454 C2456 1.327 . S
C2454 H2479 0.950 . S
C2455 C2454 1.349 1_554 S
C2455 C2471 1.349 . S
C2456 C2454 1.327 . S
C2456 C2475 1.429 1_556 S
C2456 H2480 0.950 . S
C2457 C2474 1.574 . S
C2457 C2476 1.368 . S
C2457 H2481 0.949 . S
H2458 C2462 0.949 . S
C2459 C2460 1.349 . S
C2459 C2461 1.327 . S
C2459 H2482 0.950 . S
C2460 C2459 1.349 . S
C2460 C2472 1.349 1_554 S
C2461 C2459 1.327 . S
C2461 C2477 1.429 . S
C2461 H2483 0.950 . S
C2462 H2458 0.949 . S
C2462 C2470 1.574 . S
C2462 C2478 1.368 1_556 S
H2463 C2471 0.950 . S
H2464 C2469 0.950 . S
H2465 C2470 0.949 . S
H2466 C2472 0.950 . S
H2467 C2473 0.950 . S
H2468 C2474 0.949 . S
C2469 H2464 0.950 . S
C2469 C2471 1.327 . S
C2469 C2475 1.429 . S
C2470 C2462 1.574 . S
C2470 H2465 0.949 . S
C2470 C2476 1.368 1_556 S
C2471 C2455 1.349 . S
C2471 H2463 0.950 . S
C2471 C2469 1.327 . S
C2472 C2460 1.349 1_556 S
C2472 H2466 0.950 . S
C2472 C2473 1.327 . S
C2473 H2467 0.950 . S
C2473 C2472 1.327 . S
C2473 C2477 1.429 1_556 S
C2474 C2457 1.574 . S
C2474 H2468 0.949 . S
C2474 C2478 1.368 . S
C2475 C2456 1.429 1_554 S
C2475 C2469 1.429 . S
C2475 C2476 1.523 . S
C2476 C2457 1.368 . S
C2476 C2470 1.368 1_554 S
C2476 C2475 1.523 . S
C2477 C2461 1.429 . S
C2477 C2473 1.429 1_554 S
C2477 C2478 1.523 . S
C2478 C2462 1.368 1_554 S
C2478 C2474 1.368 . S
C2478 C2477 1.523 . S
H2479 C2454 0.950 . S
H2480 C2456 0.950 . S
H2481 C2457 0.949 . S
H2482 C2459 0.950 . S
H2483 C2461 0.950 . S
C2484 C2485 1.349 . S
C2484 C2486 1.327 . S
C2484 H2509 0.950 . S
C2485 C2484 1.349 . S
C2485 C2501 1.349 . S
C2486 C2484 1.327 . S
C2486 C2505 1.429 . S
C2486 H2510 0.950 . S
C2487 C2504 1.574 . S
C2487 C2506 1.368 . S
C2487 H2511 0.949 . S
H2488 C2492 0.949 . S
C2489 C2490 1.349 . S
C2489 C2491 1.327 . S
C2489 H2512 0.950 . S
C2490 C2489 1.349 . S
C2490 C2502 1.349 . S
C2491 C2489 1.327 . S
C2491 C2507 1.429 . S
C2491 H2513 0.950 . S
C2492 H2488 0.949 . S
C2492 C2500 1.574 . S
C2492 C2508 1.368 . S
H2493 C2501 0.950 . S
H2494 C2499 0.950 . S
H2495 C2500 0.949 . S
H2496 C2502 0.950 . S
H2497 C2503 0.950 . S
H2498 C2504 0.949 . S
C2499 H2494 0.950 . S
C2499 C2501 1.327 . S
C2499 C2505 1.429 . S
C2500 C2492 1.574 . S
C2500 H2495 0.949 . S
C2500 C2506 1.368 . S
C2501 C2485 1.349 . S
C2501 H2493 0.950 . S
C2501 C2499 1.327 . S
C2502 C2490 1.349 . S
C2502 H2496 0.950 . S
C2502 C2503 1.327 . S
C2503 H2497 0.950 . S
C2503 C2502 1.327 . S
C2503 C2507 1.429 . S
C2504 C2487 1.574 . S
C2504 H2498 0.949 . S
C2504 C2508 1.368 . S
C2505 C2486 1.429 . S
C2505 C2499 1.429 . S
C2505 C2506 1.523 . S
C2506 C2487 1.368 . S
C2506 C2500 1.368 . S
C2506 C2505 1.523 . S
C2507 C2491 1.429 . S
C2507 C2503 1.429 . S
C2507 C2508 1.523 . S
C2508 C2492 1.368 . S
C2508 C2504 1.368 . S
C2508 C2507 1.523 . S
H2509 C2484 0.950 . S
H2510 C2486 0.950 . S
H2511 C2487 0.949 . S
H2512 C2489 0.950 . S
H2513 C2491 0.950 . S
C2514 C2515 1.350 . S
C2514 C2516 1.327 . S
C2514 H2539 0.950 . S
C2515 C2514 1.350 . S
C2515 C2531 1.348 1_556 S
C2516 C2514 1.327 . S
C2516 C2535 1.425 1_556 S
C2516 H2540 0.950 . S
C2517 C2534 1.574 . S
C2517 C2536 1.383 . S
C2517 H2541 0.949 . S
H2518 C2522 0.949 . S
C2519 C2520 1.416 . S
C2519 C2521 1.327 . S
C2519 H2542 0.950 . S
C2520 C2519 1.416 . S
C2520 C2532 1.288 1_554 S
C2521 C2519 1.327 . S
C2521 C2537 1.470 . S
C2521 H2543 0.950 . S
C2522 H2518 0.949 . S
C2522 C2530 1.574 . S
C2522 C2538 1.334 1_556 S
H2523 C2531 0.950 . S
H2524 C2529 0.950 . S
H2525 C2530 0.949 . S
H2526 C2532 0.950 . S
H2527 C2533 0.950 . S
H2528 C2534 0.949 . S
C2529 H2524 0.950 . S
C2529 C2531 1.327 . S
C2529 C2535 1.432 . S
C2530 C2522 1.574 . S
C2530 H2525 0.949 . S
C2530 C2536 1.352 1_556 S
C2531 C2515 1.348 1_554 S
C2531 H2523 0.950 . S
C2531 C2529 1.327 . S
C2532 C2520 1.288 1_556 S
C2532 H2526 0.950 . S
C2532 C2533 1.327 . S
C2533 H2527 0.950 . S
C2533 C2532 1.327 . S
C2533 C2537 1.384 1_556 S
C2534 C2517 1.574 . S
C2534 H2528 0.949 . S
C2534 C2538 1.405 . S
C2535 C2516 1.425 1_554 S
C2535 C2529 1.432 . S
C2535 C2536 1.524 . S
C2536 C2517 1.383 . S
C2536 C2530 1.352 1_554 S
C2536 C2535 1.524 . S
C2537 C2521 1.470 . S
C2537 C2533 1.384 1_554 S
C2537 C2538 1.524 . S
C2538 C2522 1.334 1_554 S
C2538 C2534 1.405 . S
C2538 C2537 1.524 . S
H2539 C2514 0.950 . S
H2540 C2516 0.950 . S
H2541 C2517 0.949 . S
H2542 C2519 0.950 . S
H2543 C2521 0.950 . S
C2544 C2545 1.349 . S
C2544 C2546 1.327 . S
C2544 H2569 0.950 . S
C2545 C2544 1.349 . S
C2545 C2561 1.349 . S
C2546 C2544 1.327 . S
C2546 C2565 1.429 . S
C2546 H2570 0.950 . S
C2547 C2564 1.574 . S
C2547 C2566 1.368 . S
C2547 H2571 0.949 . S
H2548 C2552 0.949 . S
C2549 C2550 1.349 . S
C2549 C2551 1.327 . S
C2549 H2572 0.950 . S
C2550 C2549 1.349 . S
C2550 C2562 1.349 . S
C2551 C2549 1.327 . S
C2551 C2567 1.429 . S
C2551 H2573 0.950 . S
C2552 H2548 0.949 . S
C2552 C2560 1.574 . S
C2552 C2568 1.368 . S
H2553 C2561 0.950 . S
H2554 C2559 0.950 . S
H2555 C2560 0.949 . S
H2556 C2562 0.950 . S
H2557 C2563 0.950 . S
H2558 C2564 0.949 . S
C2559 H2554 0.950 . S
C2559 C2561 1.327 . S
C2559 C2565 1.429 . S
C2560 C2552 1.574 . S
C2560 H2555 0.949 . S
C2560 C2566 1.368 . S
C2561 C2545 1.349 . S
C2561 H2553 0.950 . S
C2561 C2559 1.327 . S
C2562 C2550 1.349 . S
C2562 H2556 0.950 . S
C2562 C2563 1.327 . S
C2563 H2557 0.950 . S
C2563 C2562 1.327 . S
C2563 C2567 1.429 . S
C2564 C2547 1.574 . S
C2564 H2558 0.949 . S
C2564 C2568 1.368 . S
C2565 C2546 1.429 . S
C2565 C2559 1.429 . S
C2565 C2566 1.523 . S
C2566 C2547 1.368 . S
C2566 C2560 1.368 . S
C2566 C2565 1.523 . S
C2567 C2551 1.429 . S
C2567 C2563 1.429 . S
C2567 C2568 1.523 . S
C2568 C2552 1.368 . S
C2568 C2564 1.368 . S
C2568 C2567 1.523 . S
H2569 C2544 0.950 . S
H2570 C2546 0.950 . S
H2571 C2547 0.949 . S
H2572 C2549 0.950 . S
H2573 C2551 0.950 . S
C2574 C2575 1.349 . S
C2574 C2576 1.327 . S
C2574 H2599 0.950 . S
C2575 C2574 1.349 . S
C2575 C2591 1.349 1_455 S
C2576 C2574 1.327 . S
C2576 C2595 1.429 . S
C2576 H2600 0.950 . S
C2577 C2594 1.574 . S
C2577 C2596 1.368 1_655 S
C2577 H2601 0.949 . S
H2578 C2582 0.949 . S
C2579 C2580 1.349 1_655 S
C2579 C2581 1.327 . S
C2579 H2602 0.950 . S
C2580 C2579 1.349 1_455 S
C2580 C2592 1.349 . S
C2581 C2579 1.327 . S
C2581 C2597 1.429 1_655 S
C2581 H2603 0.950 . S
C2582 H2578 0.949 . S
C2582 C2590 1.574 . S
C2582 C2598 1.368 . S
H2583 C2591 0.950 . S
H2584 C2589 0.950 . S
H2585 C2590 0.949 . S
H2586 C2592 0.950 . S
H2587 C2593 0.950 . S
H2588 C2594 0.949 . S
C2589 H2584 0.950 . S
C2589 C2591 1.327 . S
C2589 C2595 1.429 1_655 S
C2590 C2582 1.574 . S
C2590 H2585 0.949 . S
C2590 C2596 1.368 . S
C2591 C2575 1.349 1_655 S
C2591 H2583 0.950 . S
C2591 C2589 1.327 . S
C2592 C2580 1.349 . S
C2592 H2586 0.950 . S
C2592 C2593 1.327 . S
C2593 H2587 0.950 . S
C2593 C2592 1.327 . S
C2593 C2597 1.429 . S
C2594 C2577 1.574 . S
C2594 H2588 0.949 . S
C2594 C2598 1.368 1_655 S
C2595 C2576 1.429 . S
C2595 C2589 1.429 1_455 S
C2595 C2596 1.523 . S
C2596 C2577 1.368 1_455 S
C2596 C2590 1.368 . S
C2596 C2595 1.523 . S
C2597 C2581 1.429 1_455 S
C2597 C2593 1.429 . S
C2597 C2598 1.523 . S
C2598 C2582 1.368 . S
C2598 C2594 1.368 1_455 S
C2598 C2597 1.523 . S
H2599 C2574 0.950 . S
H2600 C2576 0.950 . S
H2601 C2577 0.949 . S
H2602 C2579 0.950 . S
H2603 C2581 0.950 . S
C2604 C2605 1.349 . S
C2604 C2606 1.327 . S
C2604 H2629 0.950 . S
C2605 C2604 1.349 . S
C2605 C2621 1.349 . S
C2606 C2604 1.327 . S
C2606 C2625 1.429 . S
C2606 H2630 0.950 . S
C2607 C2624 1.574 . S
C2607 C2626 1.368 . S
C2607 H2631 0.949 . S
H2608 C2612 0.949 . S
C2609 C2610 1.349 . S
C2609 C2611 1.327 . S
C2609 H2632 0.950 . S
C2610 C2609 1.349 . S
C2610 C2622 1.349 . S
C2611 C2609 1.327 . S
C2611 C2627 1.429 . S
C2611 H2633 0.950 . S
C2612 H2608 0.949 . S
C2612 C2620 1.574 . S
C2612 C2628 1.368 . S
H2613 C2621 0.950 . S
H2614 C2619 0.950 . S
H2615 C2620 0.949 . S
H2616 C2622 0.950 . S
H2617 C2623 0.950 . S
H2618 C2624 0.949 . S
C2619 H2614 0.950 . S
C2619 C2621 1.327 . S
C2619 C2625 1.429 . S
C2620 C2612 1.574 . S
C2620 H2615 0.949 . S
C2620 C2626 1.368 . S
C2621 C2605 1.349 . S
C2621 H2613 0.950 . S
C2621 C2619 1.327 . S
C2622 C2610 1.349 . S
C2622 H2616 0.950 . S
C2622 C2623 1.327 . S
C2623 H2617 0.950 . S
C2623 C2622 1.327 . S
C2623 C2627 1.429 . S
C2624 C2607 1.574 . S
C2624 H2618 0.949 . S
C2624 C2628 1.368 . S
C2625 C2606 1.429 . S
C2625 C2619 1.429 . S
C2625 C2626 1.523 . S
C2626 C2607 1.368 . S
C2626 C2620 1.368 . S
C2626 C2625 1.523 . S
C2627 C2611 1.429 . S
C2627 C2623 1.429 . S
C2627 C2628 1.523 . S
C2628 C2612 1.368 . S
C2628 C2624 1.368 . S
C2628 C2627 1.523 . S
H2629 C2604 0.950 . S
H2630 C2606 0.950 . S
H2631 C2607 0.949 . S
H2632 C2609 0.950 . S
H2633 C2611 0.950 . S
C2634 C2635 1.348 1_455 S
C2634 C2636 1.327 . S
C2634 H2659 0.950 . S
C2635 C2634 1.348 1_655 S
C2635 C2651 1.350 . S
C2636 C2634 1.327 . S
C2636 C2655 1.431 . S
C2636 H2660 0.950 . S
C2637 C2654 1.574 . S
C2637 C2656 1.358 1_655 S
C2637 H2661 0.949 . S
H2638 C2642 0.949 . S
C2639 C2640 1.314 1_655 S
C2639 C2641 1.327 . S
C2639 H2662 0.950 . S
C2640 C2639 1.314 1_455 S
C2640 C2652 1.392 . S
C2641 C2639 1.327 . S
C2641 C2657 1.401 1_655 S
C2641 H2663 0.950 . S
C2642 H2638 0.949 . S
C2642 C2650 1.574 . S
C2642 C2658 1.391 . S
H2643 C2651 0.950 . S
H2644 C2649 0.950 . S
H2645 C2650 0.949 . S
H2646 C2652 0.950 . S
H2647 C2653 0.950 . S
H2648 C2654 0.949 . S
C2649 H2644 0.950 . S
C2649 C2651 1.327 . S
C2649 C2655 1.427 1_655 S
C2650 C2642 1.574 . S
C2650 H2645 0.949 . S
C2650 C2656 1.377 . S
C2651 C2635 1.350 . S
C2651 H2643 0.950 . S
C2651 C2649 1.327 . S
C2652 C2640 1.392 . S
C2652 H2646 0.950 . S
C2652 C2653 1.327 . S
C2653 H2647 0.950 . S
C2653 C2652 1.327 . S
C2653 C2657 1.454 . S
C2654 C2637 1.574 . S
C2654 H2648 0.949 . S
C2654 C2658 1.348 1_655 S
C2655 C2636 1.431 . S
C2655 C2649 1.427 1_455 S
C2655 C2656 1.524 . S
C2656 C2637 1.358 1_455 S
C2656 C2650 1.377 . S
C2656 C2655 1.524 . S
C2657 C2641 1.401 1_455 S
C2657 C2653 1.454 . S
C2657 C2658 1.524 . S
C2658 C2642 1.391 . S
C2658 C2654 1.348 1_455 S
C2658 C2657 1.524 . S
H2659 C2634 0.950 . S
H2660 C2636 0.950 . S
H2661 C2637 0.949 . S
H2662 C2639 0.950 . S
H2663 C2641 0.950 . S
C2664 C2665 1.349 . S
C2664 C2666 1.327 . S
C2664 H2689 0.950 . S
C2665 C2664 1.349 . S
C2665 C2681 1.349 . S
C2666 C2664 1.327 . S
C2666 C2685 1.429 . S
C2666 H2690 0.950 . S
C2667 C2684 1.574 . S
C2667 C2686 1.368 . S
C2667 H2691 0.949 . S
H2668 C2672 0.949 . S
C2669 C2670 1.349 . S
C2669 C2671 1.327 . S
C2669 H2692 0.950 . S
C2670 C2669 1.349 . S
C2670 C2682 1.349 . S
C2671 C2669 1.327 . S
C2671 C2687 1.429 . S
C2671 H2693 0.950 . S
C2672 H2668 0.949 . S
C2672 C2680 1.574 . S
C2672 C2688 1.368 . S
H2673 C2681 0.950 . S
H2674 C2679 0.950 . S
H2675 C2680 0.949 . S
H2676 C2682 0.950 . S
H2677 C2683 0.950 . S
H2678 C2684 0.949 . S
C2679 H2674 0.950 . S
C2679 C2681 1.327 . S
C2679 C2685 1.429 . S
C2680 C2672 1.574 . S
C2680 H2675 0.949 . S
C2680 C2686 1.368 . S
C2681 C2665 1.349 . S
C2681 H2673 0.950 . S
C2681 C2679 1.327 . S
C2682 C2670 1.349 . S
C2682 H2676 0.950 . S
C2682 C2683 1.327 . S
C2683 H2677 0.950 . S
C2683 C2682 1.327 . S
C2683 C2687 1.429 . S
C2684 C2667 1.574 . S
C2684 H2678 0.949 . S
C2684 C2688 1.368 . S
C2685 C2666 1.429 . S
C2685 C2679 1.429 . S
C2685 C2686 1.523 . S
C2686 C2667 1.368 . S
C2686 C2680 1.368 . S
C2686 C2685 1.523 . S
C2687 C2671 1.429 . S
C2687 C2683 1.429 . S
C2687 C2688 1.523 . S
C2688 C2672 1.368 . S
C2688 C2684 1.368 . S
C2688 C2687 1.523 . S
H2689 C2664 0.950 . S
H2690 C2666 0.950 . S
H2691 C2667 0.949 . S
H2692 C2669 0.950 . S
H2693 C2671 0.950 . S
C2694 C2695 1.349 . S
C2694 C2696 1.327 . S
C2694 H2719 0.950 . S
C2695 C2694 1.349 . S
C2695 C2711 1.349 . S
C2696 C2694 1.327 . S
C2696 C2715 1.429 . S
C2696 H2720 0.950 . S
C2697 C2714 1.574 . S
C2697 C2716 1.368 . S
C2697 H2721 0.949 . S
H2698 C2702 0.949 . S
C2699 C2700 1.349 . S
C2699 C2701 1.327 . S
C2699 H2722 0.950 . S
C2700 C2699 1.349 . S
C2700 C2712 1.349 . S
C2701 C2699 1.327 . S
C2701 C2717 1.429 . S
C2701 H2723 0.950 . S
C2702 H2698 0.949 . S
C2702 C2710 1.574 . S
C2702 C2718 1.368 . S
H2703 C2711 0.950 . S
H2704 C2709 0.950 . S
H2705 C2710 0.949 . S
H2706 C2712 0.950 . S
H2707 C2713 0.950 . S
H2708 C2714 0.949 . S
C2709 H2704 0.950 . S
C2709 C2711 1.327 . S
C2709 C2715 1.429 . S
C2710 C2702 1.574 . S
C2710 H2705 0.949 . S
C2710 C2716 1.368 . S
C2711 C2695 1.349 . S
C2711 H2703 0.950 . S
C2711 C2709 1.327 . S
C2712 C2700 1.349 . S
C2712 H2706 0.950 . S
C2712 C2713 1.327 . S
C2713 H2707 0.950 . S
C2713 C2712 1.327 . S
C2713 C2717 1.429 . S
C2714 C2697 1.574 . S
C2714 H2708 0.949 . S
C2714 C2718 1.368 . S
C2715 C2696 1.429 . S
C2715 C2709 1.429 . S
C2715 C2716 1.523 . S
C2716 C2697 1.368 . S
C2716 C2710 1.368 . S
C2716 C2715 1.523 . S
C2717 C2701 1.429 . S
C2717 C2713 1.429 . S
C2717 C2718 1.523 . S
C2718 C2702 1.368 . S
C2718 C2714 1.368 . S
C2718 C2717 1.523 . S
H2719 C2694 0.950 . S
H2720 C2696 0.950 . S
H2721 C2697 0.949 . S
H2722 C2699 0.950 . S
H2723 C2701 0.950 . S
C2724 C2725 1.384 . S
C2724 C2726 1.327 . S
C2724 H2749 0.950 . S
C2725 C2724 1.384 . S
C2725 C2741 1.335 1_565 S
C2726 C2724 1.327 . S
C2726 C2745 1.429 . S
C2726 H2750 0.950 . S
C2727 C2744 1.574 . S
C2727 C2746 1.368 . S
C2727 H2751 0.949 1_565 S
H2728 C2732 0.949 . S
C2729 C2730 1.349 . S
C2729 C2731 1.327 . S
C2729 H2752 0.950 . S
C2730 C2729 1.349 . S
C2730 C2742 1.349 . S
C2731 C2729 1.327 . S
C2731 C2747 1.429 . S
C2731 H2753 0.950 . S
C2732 H2728 0.949 . S
C2732 C2740 1.574 . S
C2732 C2748 1.368 . S
H2733 C2741 0.950 . S
H2734 C2739 0.950 . S
H2735 C2740 0.949 . S
H2736 C2742 0.950 . S
H2737 C2743 0.950 . S
H2738 C2744 0.949 . S
C2739 H2734 0.950 . S
C2739 C2741 1.327 . S
C2739 C2745 1.429 1_545 S
C2740 C2732 1.574 . S
C2740 H2735 0.949 . S
C2740 C2746 1.368 . S
C2741 C2725 1.335 1_545 S
C2741 H2733 0.950 . S
C2741 C2739 1.327 . S
C2742 C2730 1.349 . S
C2742 H2736 0.950 . S
C2742 C2743 1.327 . S
C2743 H2737 0.950 . S
C2743 C2742 1.327 . S
C2743 C2747 1.429 . S
C2744 C2727 1.574 . S
C2744 H2738 0.949 . S
C2744 C2748 1.368 . S
C2745 C2726 1.429 . S
C2745 C2739 1.429 1_565 S
C2745 C2746 1.523 . S
C2746 C2727 1.368 . S
C2746 C2740 1.368 . S
C2746 C2745 1.523 . S
C2747 C2731 1.429 . S
C2747 C2743 1.429 . S
C2747 C2748 1.523 . S
C2748 C2732 1.368 . S
C2748 C2744 1.368 . S
C2748 C2747 1.523 . S
H2749 C2724 0.950 . S
H2750 C2726 0.950 . S
H2751 C2727 0.949 1_545 S
H2752 C2729 0.950 . S
H2753 C2731 0.950 . S
C2754 C2755 1.349 1_565 S
C2754 C2756 1.327 . S
C2754 H2779 0.950 . S
C2755 C2754 1.349 1_545 S
C2755 C2771 1.349 . S
C2756 C2754 1.327 . S
C2756 C2775 1.429 1_565 S
C2756 H2780 0.950 . S
C2757 C2774 1.574 . S
C2757 C2776 1.368 . S
C2757 H2781 0.949 . S
H2758 C2762 0.949 . S
C2759 C2760 1.349 . S
C2759 C2761 1.327 . S
C2759 H2782 0.950 . S
C2760 C2759 1.349 . S
C2760 C2772 1.349 1_545 S
C2761 C2759 1.327 . S
C2761 C2777 1.429 . S
C2761 H2783 0.950 . S
C2762 H2758 0.949 . S
C2762 C2770 1.574 . S
C2762 C2778 1.368 1_565 S
H2763 C2771 0.950 . S
H2764 C2769 0.950 . S
H2765 C2770 0.949 . S
H2766 C2772 0.950 . S
H2767 C2773 0.950 . S
H2768 C2774 0.949 . S
C2769 H2764 0.950 . S
C2769 C2771 1.327 . S
C2769 C2775 1.429 . S
C2770 C2762 1.574 . S
C2770 H2765 0.949 . S
C2770 C2776 1.368 1_565 S
C2771 C2755 1.349 . S
C2771 H2763 0.950 . S
C2771 C2769 1.327 . S
C2772 C2760 1.349 1_565 S
C2772 H2766 0.950 . S
C2772 C2773 1.327 . S
C2773 H2767 0.950 . S
C2773 C2772 1.327 . S
C2773 C2777 1.429 1_565 S
C2774 C2757 1.574 . S
C2774 H2768 0.949 . S
C2774 C2778 1.368 . S
C2775 C2756 1.429 1_545 S
C2775 C2769 1.429 . S
C2775 C2776 1.523 . S
C2776 C2757 1.368 . S
C2776 C2770 1.368 1_545 S
C2776 C2775 1.523 . S
C2777 C2761 1.429 . S
C2777 C2773 1.429 1_545 S
C2777 C2778 1.523 . S
C2778 C2762 1.368 1_545 S
C2778 C2774 1.368 . S
C2778 C2777 1.523 . S
H2779 C2754 0.950 . S
H2780 C2756 0.950 . S
H2781 C2757 0.949 . S
H2782 C2759 0.950 . S
H2783 C2761 0.950 . S
C2784 C2785 1.349 . S
C2784 C2786 1.327 . S
C2784 H2809 0.950 . S
C2785 C2784 1.349 . S
C2785 C2801 1.349 . S
C2786 C2784 1.327 . S
C2786 C2805 1.429 . S
C2786 H2810 0.950 . S
C2787 C2804 1.574 . S
C2787 C2806 1.368 . S
C2787 H2811 0.949 . S
H2788 C2792 0.949 . S
C2789 C2790 1.349 . S
C2789 C2791 1.327 . S
C2789 H2812 0.950 . S
C2790 C2789 1.349 . S
C2790 C2802 1.349 . S
C2791 C2789 1.327 . S
C2791 C2807 1.429 . S
C2791 H2813 0.950 . S
C2792 H2788 0.949 . S
C2792 C2800 1.574 . S
C2792 C2808 1.368 . S
H2793 C2801 0.950 . S
H2794 C2799 0.950 . S
H2795 C2800 0.949 . S
H2796 C2802 0.950 . S
H2797 C2803 0.950 . S
H2798 C2804 0.949 . S
C2799 H2794 0.950 . S
C2799 C2801 1.327 . S
C2799 C2805 1.429 . S
C2800 C2792 1.574 . S
C2800 H2795 0.949 . S
C2800 C2806 1.368 . S
C2801 C2785 1.349 . S
C2801 H2793 0.950 . S
C2801 C2799 1.327 . S
C2802 C2790 1.349 . S
C2802 H2796 0.950 . S
C2802 C2803 1.327 . S
C2803 H2797 0.950 . S
C2803 C2802 1.327 . S
C2803 C2807 1.429 . S
C2804 C2787 1.574 . S
C2804 H2798 0.949 . S
C2804 C2808 1.368 . S
C2805 C2786 1.429 . S
C2805 C2799 1.429 . S
C2805 C2806 1.523 . S
C2806 C2787 1.368 . S
C2806 C2800 1.368 . S
C2806 C2805 1.523 . S
C2807 C2791 1.429 . S
C2807 C2803 1.429 . S
C2807 C2808 1.523 . S
C2808 C2792 1.368 . S
C2808 C2804 1.368 . S
C2808 C2807 1.523 . S
H2809 C2784 0.950 . S
H2810 C2786 0.950 . S
H2811 C2787 0.949 . S
H2812 C2789 0.950 . S
H2813 C2791 0.950 . S
C2814 C2815 1.349 1_556 S
C2814 C2816 1.327 . S
C2814 H2839 0.950 . S
C2815 C2814 1.349 1_554 S
C2815 C2831 1.349 . S
C2816 C2814 1.327 . S
C2816 C2835 1.429 1_556 S
C2816 H2840 0.950 . S
C2817 C2834 1.574 . S
C2817 C2836 1.368 . S
C2817 H2841 0.949 . S
H2818 C2822 0.949 . S
C2819 C2820 1.349 . S
C2819 C2821 1.327 . S
C2819 H2842 0.950 . S
C2820 C2819 1.349 . S
C2820 C2832 1.349 1_554 S
C2821 C2819 1.327 . S
C2821 C2837 1.429 . S
C2821 H2843 0.950 . S
C2822 H2818 0.949 . S
C2822 C2830 1.574 . S
C2822 C2838 1.368 1_556 S
H2823 C2831 0.950 . S
H2824 C2829 0.950 . S
H2825 C2830 0.949 . S
H2826 C2832 0.950 . S
H2827 C2833 0.950 . S
H2828 C2834 0.949 . S
C2829 H2824 0.950 . S
C2829 C2831 1.327 . S
C2829 C2835 1.429 . S
C2830 C2822 1.574 . S
C2830 H2825 0.949 . S
C2830 C2836 1.368 1_556 S
C2831 C2815 1.349 . S
C2831 H2823 0.950 . S
C2831 C2829 1.327 . S
C2832 C2820 1.349 1_556 S
C2832 H2826 0.950 . S
C2832 C2833 1.327 . S
C2833 H2827 0.950 . S
C2833 C2832 1.327 . S
C2833 C2837 1.429 1_556 S
C2834 C2817 1.574 . S
C2834 H2828 0.949 . S
C2834 C2838 1.368 . S
C2835 C2816 1.429 1_554 S
C2835 C2829 1.429 . S
C2835 C2836 1.523 . S
C2836 C2817 1.368 . S
C2836 C2830 1.368 1_554 S
C2836 C2835 1.523 . S
C2837 C2821 1.429 . S
C2837 C2833 1.429 1_554 S
C2837 C2838 1.523 . S
C2838 C2822 1.368 1_554 S
C2838 C2834 1.368 . S
C2838 C2837 1.523 . S
H2839 C2814 0.950 . S
H2840 C2816 0.950 . S
H2841 C2817 0.949 . S
H2842 C2819 0.950 . S
H2843 C2821 0.950 . S
C2844 C2845 1.349 . S
C2844 C2846 1.327 . S
C2844 H2869 0.950 . S
C2845 C2844 1.349 . S
C2845 C2861 1.349 . S
C2846 C2844 1.327 . S
C2846 C2865 1.429 . S
C2846 H2870 0.950 . S
C2847 C2864 1.574 . S
C2847 C2866 1.368 . S
C2847 H2871 0.949 . S
H2848 C2852 0.949 . S
C2849 C2850 1.349 . S
C2849 C2851 1.327 . S
C2849 H2872 0.950 . S
C2850 C2849 1.349 . S
C2850 C2862 1.349 . S
C2851 C2849 1.327 . S
C2851 C2867 1.429 . S
C2851 H2873 0.950 . S
C2852 H2848 0.949 . S
C2852 C2860 1.574 . S
C2852 C2868 1.368 . S
H2853 C2861 0.950 . S
H2854 C2859 0.950 . S
H2855 C2860 0.949 . S
H2856 C2862 0.950 . S
H2857 C2863 0.950 . S
H2858 C2864 0.949 . S
C2859 H2854 0.950 . S
C2859 C2861 1.327 . S
C2859 C2865 1.429 . S
C2860 C2852 1.574 . S
C2860 H2855 0.949 . S
C2860 C2866 1.368 . S
C2861 C2845 1.349 . S
C2861 H2853 0.950 . S
C2861 C2859 1.327 . S
C2862 C2850 1.349 . S
C2862 H2856 0.950 . S
C2862 C2863 1.327 . S
C2863 H2857 0.950 . S
C2863 C2862 1.327 . S
C2863 C2867 1.429 . S
C2864 C2847 1.574 . S
C2864 H2858 0.949 . S
C2864 C2868 1.368 . S
C2865 C2846 1.429 . S
C2865 C2859 1.429 . S
C2865 C2866 1.523 . S
C2866 C2847 1.368 . S
C2866 C2860 1.368 . S
C2866 C2865 1.523 . S
C2867 C2851 1.429 . S
C2867 C2863 1.429 . S
C2867 C2868 1.523 . S
C2868 C2852 1.368 . S
C2868 C2864 1.368 . S
C2868 C2867 1.523 . S
H2869 C2844 0.950 . S
H2870 C2846 0.950 . S
H2871 C2847 0.949 . S
H2872 C2849 0.950 . S
H2873 C2851 0.950 . S
C2874 C2875 1.422 . S
C2874 C2876 1.327 . S
C2874 H2899 0.950 . S
C2875 C2874 1.422 . S
C2875 C2891 1.295 1_556 S
C2876 C2874 1.327 . S
C2876 C2895 1.429 . S
C2876 H2900 0.950 . S
C2877 C2894 1.574 . S
C2877 C2896 1.368 1_554 S
C2877 H2901 0.949 . S
H2878 C2882 0.949 . S
C2879 C2880 1.349 . S
C2879 C2881 1.327 . S
C2879 H2902 0.950 1_556 S
C2880 C2879 1.349 . S
C2880 C2892 1.349 . S
C2881 C2879 1.327 . S
C2881 C2897 1.429 . S
C2881 H2903 0.950 1_556 S
C2882 H2878 0.949 . S
C2882 C2890 1.574 . S
C2882 C2898 1.368 . S
H2883 C2891 0.950 . S
H2884 C2889 0.950 . S
H2885 C2890 0.949 . S
H2886 C2892 0.950 . S
H2887 C2893 0.950 . S
H2888 C2894 0.949 . S
C2889 H2884 0.950 . S
C2889 C2891 1.327 . S
C2889 C2895 1.429 1_554 S
C2890 C2882 1.574 . S
C2890 H2885 0.949 . S
C2890 C2896 1.368 . S
C2891 C2875 1.295 1_554 S
C2891 H2883 0.950 . S
C2891 C2889 1.327 . S
C2892 C2880 1.349 . S
C2892 H2886 0.950 . S
C2892 C2893 1.327 . S
C2893 H2887 0.950 . S
C2893 C2892 1.327 . S
C2893 C2897 1.429 . S
C2894 C2877 1.574 . S
C2894 H2888 0.949 . S
C2894 C2898 1.368 1_554 S
C2895 C2876 1.429 . S
C2895 C2889 1.429 1_556 S
C2895 C2896 1.523 . S
C2896 C2877 1.368 1_556 S
C2896 C2890 1.368 . S
C2896 C2895 1.523 . S
C2897 C2881 1.429 . S
C2897 C2893 1.429 . S
C2897 C2898 1.523 . S
C2898 C2882 1.368 . S
C2898 C2894 1.368 1_556 S
C2898 C2897 1.523 . S
H2899 C2874 0.950 . S
H2900 C2876 0.950 . S
H2901 C2877 0.949 . S
H2902 C2879 0.950 1_554 S
H2903 C2881 0.950 1_554 S
C2904 C2905 1.349 . S
C2904 C2906 1.327 . S
C2904 H2929 0.950 . S
C2905 C2904 1.349 . S
C2905 C2921 1.349 . S
C2906 C2904 1.327 . S
C2906 C2925 1.429 . S
C2906 H2930 0.950 . S
C2907 C2924 1.574 . S
C2907 C2926 1.368 . S
C2907 H2931 0.949 . S
H2908 C2912 0.949 . S
C2909 C2910 1.349 . S
C2909 C2911 1.327 . S
C2909 H2932 0.950 . S
C2910 C2909 1.349 . S
C2910 C2922 1.349 . S
C2911 C2909 1.327 . S
C2911 C2927 1.429 . S
C2911 H2933 0.950 . S
C2912 H2908 0.949 . S
C2912 C2920 1.574 . S
C2912 C2928 1.368 . S
H2913 C2921 0.950 . S
H2914 C2919 0.950 . S
H2915 C2920 0.949 . S
H2916 C2922 0.950 . S
H2917 C2923 0.950 . S
H2918 C2924 0.949 . S
C2919 H2914 0.950 . S
C2919 C2921 1.327 . S
C2919 C2925 1.429 . S
C2920 C2912 1.574 . S
C2920 H2915 0.949 . S
C2920 C2926 1.368 . S
C2921 C2905 1.349 . S
C2921 H2913 0.950 . S
C2921 C2919 1.327 . S
C2922 C2910 1.349 . S
C2922 H2916 0.950 . S
C2922 C2923 1.327 . S
C2923 H2917 0.950 . S
C2923 C2922 1.327 . S
C2923 C2927 1.429 . S
C2924 C2907 1.574 . S
C2924 H2918 0.949 . S
C2924 C2928 1.368 . S
C2925 C2906 1.429 . S
C2925 C2919 1.429 . S
C2925 C2926 1.523 . S
C2926 C2907 1.368 . S
C2926 C2920 1.368 . S
C2926 C2925 1.523 . S
C2927 C2911 1.429 . S
C2927 C2923 1.429 . S
C2927 C2928 1.523 . S
C2928 C2912 1.368 . S
C2928 C2924 1.368 . S
C2928 C2927 1.523 . S
H2929 C2904 0.950 . S
H2930 C2906 0.950 . S
H2931 C2907 0.949 . S
H2932 C2909 0.950 . S
H2933 C2911 0.950 . S
C2934 C2935 1.349 . S
C2934 C2936 1.327 . S
C2934 H2959 0.950 . S
C2935 C2934 1.349 . S
C2935 C2951 1.349 1_455 S
C2936 C2934 1.327 . S
C2936 C2955 1.429 . S
C2936 H2960 0.950 . S
C2937 C2954 1.574 . S
C2937 C2956 1.368 1_655 S
C2937 H2961 0.949 . S
H2938 C2942 0.949 . S
C2939 C2940 1.317 1_655 S
C2939 C2941 1.336 . S
C2939 H2962 0.978 . S
C2940 C2939 1.317 1_455 S
C2940 C2952 1.349 . S
C2941 C2939 1.336 . S
C2941 C2957 1.429 1_655 S
C2941 H2963 0.950 . S
C2942 H2938 0.949 . S
C2942 C2950 1.574 . S
C2942 C2958 1.368 . S
H2943 C2951 0.950 . S
H2944 C2949 0.950 . S
H2945 C2950 0.949 . S
H2946 C2952 0.950 . S
H2947 C2953 0.950 . S
H2948 C2954 0.949 . S
C2949 H2944 0.950 . S
C2949 C2951 1.327 . S
C2949 C2955 1.429 1_655 S
C2950 C2942 1.574 . S
C2950 H2945 0.949 . S
C2950 C2956 1.368 . S
C2951 C2935 1.349 1_655 S
C2951 H2943 0.950 . S
C2951 C2949 1.327 . S
C2952 C2940 1.349 . S
C2952 H2946 0.950 . S
C2952 C2953 1.327 . S
C2953 H2947 0.950 . S
C2953 C2952 1.327 . S
C2953 C2957 1.429 . S
C2954 C2937 1.574 . S
C2954 H2948 0.949 . S
C2954 C2958 1.368 1_655 S
C2955 C2936 1.429 . S
C2955 C2949 1.429 1_455 S
C2955 C2956 1.523 . S
C2956 C2937 1.368 1_455 S
C2956 C2950 1.368 . S
C2956 C2955 1.523 . S
C2957 C2941 1.429 1_455 S
C2957 C2953 1.429 . S
C2957 C2958 1.523 . S
C2958 C2942 1.368 . S
C2958 C2954 1.368 1_455 S
C2958 C2957 1.523 . S
H2959 C2934 0.950 . S
H2960 C2936 0.950 . S
H2961 C2937 0.949 . S
H2962 C2939 0.978 . S
H2963 C2941 0.950 . S
C2964 C2965 1.349 . S
C2964 C2966 1.327 . S
C2964 H2989 0.950 . S
C2965 C2964 1.349 . S
C2965 C2981 1.349 . S
C2966 C2964 1.327 . S
C2966 C2985 1.429 . S
C2966 H2990 0.950 . S
C2967 C2984 1.574 . S
C2967 C2986 1.368 . S
C2967 H2991 0.949 . S
H2968 C2972 0.949 . S
C2969 C2970 1.349 . S
C2969 C2971 1.327 . S
C2969 H2992 0.950 . S
C2970 C2969 1.349 . S
C2970 C2982 1.349 . S
C2971 C2969 1.327 . S
C2971 C2987 1.429 . S
C2971 H2993 0.950 . S
C2972 H2968 0.949 . S
C2972 C2980 1.574 . S
C2972 C2988 1.368 . S
H2973 C2981 0.950 . S
H2974 C2979 0.950 . S
H2975 C2980 0.949 . S
H2976 C2982 0.950 . S
H2977 C2983 0.950 . S
H2978 C2984 0.949 . S
C2979 H2974 0.950 . S
C2979 C2981 1.327 . S
C2979 C2985 1.429 . S
C2980 C2972 1.574 . S
C2980 H2975 0.949 . S
C2980 C2986 1.368 . S
C2981 C2965 1.349 . S
C2981 H2973 0.950 . S
C2981 C2979 1.327 . S
C2982 C2970 1.349 . S
C2982 H2976 0.950 . S
C2982 C2983 1.327 . S
C2983 H2977 0.950 . S
C2983 C2982 1.327 . S
C2983 C2987 1.429 . S
C2984 C2967 1.574 . S
C2984 H2978 0.949 . S
C2984 C2988 1.368 . S
C2985 C2966 1.429 . S
C2985 C2979 1.429 . S
C2985 C2986 1.523 . S
C2986 C2967 1.368 . S
C2986 C2980 1.368 . S
C2986 C2985 1.523 . S
C2987 C2971 1.429 . S
C2987 C2983 1.429 . S
C2987 C2988 1.523 . S
C2988 C2972 1.368 . S
C2988 C2984 1.368 . S
C2988 C2987 1.523 . S
H2989 C2964 0.950 . S
H2990 C2966 0.950 . S
H2991 C2967 0.949 . S
H2992 C2969 0.950 . S
H2993 C2971 0.950 . S
C2994 C2995 1.399 . S
C2994 C2996 1.327 . S
C2994 H3019 0.950 . S
C2995 C2994 1.399 . S
C2995 C3011 1.319 1_655 S
C2996 C2994 1.327 . S
C2996 C3015 1.429 . S
C2996 H3020 0.950 . S
C2997 C3014 1.579 . S
C2997 C3016 1.379 . S
C2997 H3021 0.935 1_655 S
H2998 C3002 0.949 . S
C2999 C3000 1.349 . S
C2999 C3001 1.327 . S
C2999 H3022 0.950 . S
C3000 C2999 1.349 . S
C3000 C3012 1.349 . S
C3001 C2999 1.327 . S
C3001 C3017 1.429 . S
C3001 H3023 0.950 . S
C3002 H2998 0.949 . S
C3002 C3010 1.574 . S
C3002 C3018 1.368 . S
H3003 C3011 0.950 . S
H3004 C3009 0.950 . S
H3005 C3010 0.949 . S
H3006 C3012 0.950 . S
H3007 C3013 0.950 . S
H3008 C3014 0.949 1_455 S
C3009 H3004 0.950 . S
C3009 C3011 1.327 . S
C3009 C3015 1.429 1_455 S
C3010 C3002 1.574 . S
C3010 H3005 0.949 . S
C3010 C3016 1.368 . S
C3011 C2995 1.319 1_455 S
C3011 H3003 0.950 . S
C3011 C3009 1.327 . S
C3012 C3000 1.349 . S
C3012 H3006 0.950 . S
C3012 C3013 1.327 . S
C3013 H3007 0.950 . S
C3013 C3012 1.327 . S
C3013 C3017 1.429 . S
C3014 C2997 1.579 . S
C3014 H3008 0.949 1_655 S
C3014 C3018 1.368 . S
C3015 C2996 1.429 . S
C3015 C3009 1.429 1_655 S
C3015 C3016 1.523 . S
C3016 C2997 1.379 . S
C3016 C3010 1.368 . S
C3016 C3015 1.523 . S
C3017 C3001 1.429 . S
C3017 C3013 1.429 . S
C3017 C3018 1.523 . S
C3018 C3002 1.368 . S
C3018 C3014 1.368 . S
C3018 C3017 1.523 . S
H3019 C2994 0.950 . S
H3020 C2996 0.950 . S
H3021 C2997 0.935 1_455 S
H3022 C2999 0.950 . S
H3023 C3001 0.950 . S
C3024 C3025 1.349 . S
C3024 C3026 1.327 . S
C3024 H3049 0.950 . S
C3025 C3024 1.349 . S
C3025 C3041 1.349 . S
C3026 C3024 1.327 . S
C3026 C3045 1.429 . S
C3026 H3050 0.950 . S
C3027 C3044 1.574 . S
C3027 C3046 1.368 . S
C3027 H3051 0.949 . S
H3028 C3032 0.949 . S
C3029 C3030 1.349 . S
C3029 C3031 1.327 . S
C3029 H3052 0.950 . S
C3030 C3029 1.349 . S
C3030 C3042 1.349 . S
C3031 C3029 1.327 . S
C3031 C3047 1.429 . S
C3031 H3053 0.950 . S
C3032 H3028 0.949 . S
C3032 C3040 1.574 . S
C3032 C3048 1.368 . S
H3033 C3041 0.950 . S
H3034 C3039 0.950 . S
H3035 C3040 0.949 . S
H3036 C3042 0.950 . S
H3037 C3043 0.950 . S
H3038 C3044 0.949 . S
C3039 H3034 0.950 . S
C3039 C3041 1.327 . S
C3039 C3045 1.429 . S
C3040 C3032 1.574 . S
C3040 H3035 0.949 . S
C3040 C3046 1.368 . S
C3041 C3025 1.349 . S
C3041 H3033 0.950 . S
C3041 C3039 1.327 . S
C3042 C3030 1.349 . S
C3042 H3036 0.950 . S
C3042 C3043 1.327 . S
C3043 H3037 0.950 . S
C3043 C3042 1.327 . S
C3043 C3047 1.429 . S
C3044 C3027 1.574 . S
C3044 H3038 0.949 . S
C3044 C3048 1.368 . S
C3045 C3026 1.429 . S
C3045 C3039 1.429 . S
C3045 C3046 1.523 . S
C3046 C3027 1.368 . S
C3046 C3040 1.368 . S
C3046 C3045 1.523 . S
C3047 C3031 1.429 . S
C3047 C3043 1.429 . S
C3047 C3048 1.523 . S
C3048 C3032 1.368 . S
C3048 C3044 1.368 . S
C3048 C3047 1.523 . S
H3049 C3024 0.950 . S
H3050 C3026 0.950 . S
H3051 C3027 0.949 . S
H3052 C3029 0.950 . S
H3053 C3031 0.950 . S
C3054 C3055 1.349 . S
C3054 C3056 1.327 . S
C3054 H3079 0.950 . S
C3055 C3054 1.349 . S
C3055 C3071 1.349 . S
C3056 C3054 1.327 . S
C3056 C3075 1.429 . S
C3056 H3080 0.950 . S
C3057 C3074 1.574 . S
C3057 C3076 1.368 . S
C3057 H3081 0.949 . S
H3058 C3062 0.949 . S
C3059 C3060 1.349 . S
C3059 C3061 1.327 . S
C3059 H3082 0.950 . S
C3060 C3059 1.349 . S
C3060 C3072 1.349 . S
C3061 C3059 1.327 . S
C3061 C3077 1.429 . S
C3061 H3083 0.950 . S
C3062 H3058 0.949 . S
C3062 C3070 1.574 . S
C3062 C3078 1.368 . S
H3063 C3071 0.950 . S
H3064 C3069 0.950 . S
H3065 C3070 0.949 . S
H3066 C3072 0.950 . S
H3067 C3073 0.950 . S
H3068 C3074 0.949 . S
C3069 H3064 0.950 . S
C3069 C3071 1.327 . S
C3069 C3075 1.429 . S
C3070 C3062 1.574 . S
C3070 H3065 0.949 . S
C3070 C3076 1.368 . S
C3071 C3055 1.349 . S
C3071 H3063 0.950 . S
C3071 C3069 1.327 . S
C3072 C3060 1.349 . S
C3072 H3066 0.950 . S
C3072 C3073 1.327 . S
C3073 H3067 0.950 . S
C3073 C3072 1.327 . S
C3073 C3077 1.429 . S
C3074 C3057 1.574 . S
C3074 H3068 0.949 . S
C3074 C3078 1.368 . S
C3075 C3056 1.429 . S
C3075 C3069 1.429 . S
C3075 C3076 1.523 . S
C3076 C3057 1.368 . S
C3076 C3070 1.368 . S
C3076 C3075 1.523 . S
C3077 C3061 1.429 . S
C3077 C3073 1.429 . S
C3077 C3078 1.523 . S
C3078 C3062 1.368 . S
C3078 C3074 1.368 . S
C3078 C3077 1.523 . S
H3079 C3054 0.950 . S
H3080 C3056 0.950 . S
H3081 C3057 0.949 . S
H3082 C3059 0.950 . S
H3083 C3061 0.950 . S
C3084 C3085 1.291 1_565 S
C3084 C3086 1.327 . S
C3084 H3109 0.950 . S
C3085 C3084 1.291 1_545 S
C3085 C3101 1.425 . S
C3086 C3084 1.327 . S
C3086 C3105 1.429 1_565 S
C3086 H3110 0.950 . S
C3087 C3104 1.574 . S
C3087 C3106 1.368 . S
C3087 H3111 0.949 . S
H3088 C3092 0.949 . S
C3089 C3090 1.349 . S
C3089 C3091 1.327 . S
C3089 H3112 0.950 . S
C3090 C3089 1.349 . S
C3090 C3102 1.349 . S
C3091 C3089 1.327 . S
C3091 C3107 1.429 . S
C3091 H3113 0.950 . S
C3092 H3088 0.949 . S
C3092 C3100 1.574 . S
C3092 C3108 1.368 1_565 S
H3093 C3101 0.950 . S
H3094 C3099 0.950 . S
H3095 C3100 0.949 . S
H3096 C3102 0.950 1_565 S
H3097 C3103 0.950 1_565 S
H3098 C3104 0.949 . S
C3099 H3094 0.950 . S
C3099 C3101 1.327 . S
C3099 C3105 1.429 . S
C3100 C3092 1.574 . S
C3100 H3095 0.949 . S
C3100 C3106 1.368 1_565 S
C3101 C3085 1.425 . S
C3101 H3093 0.950 . S
C3101 C3099 1.327 . S
C3102 C3090 1.349 . S
C3102 H3096 0.950 1_545 S
C3102 C3103 1.327 . S
C3103 H3097 0.950 1_545 S
C3103 C3102 1.327 . S
C3103 C3107 1.429 . S
C3104 C3087 1.574 . S
C3104 H3098 0.949 . S
C3104 C3108 1.368 . S
C3105 C3086 1.429 1_545 S
C3105 C3099 1.429 . S
C3105 C3106 1.523 . S
C3106 C3087 1.368 . S
C3106 C3100 1.368 1_545 S
C3106 C3105 1.523 . S
C3107 C3091 1.429 . S
C3107 C3103 1.429 . S
C3107 C3108 1.523 . S
C3108 C3092 1.368 1_545 S
C3108 C3104 1.368 . S
C3108 C3107 1.523 . S
H3109 C3084 0.950 . S
H3110 C3086 0.950 . S
H3111 C3087 0.949 . S
H3112 C3089 0.950 . S
H3113 C3091 0.950 . S
C3114 C3115 1.349 . S
C3114 C3116 1.327 . S
C3114 H3139 0.950 . S
C3115 C3114 1.349 . S
C3115 C3131 1.349 1_565 S
C3116 C3114 1.327 . S
C3116 C3135 1.429 . S
C3116 H3140 0.950 . S
C3117 C3134 1.574 . S
C3117 C3136 1.368 1_545 S
C3117 H3141 0.949 . S
H3118 C3122 0.949 . S
C3119 C3120 1.349 1_545 S
C3119 C3121 1.327 . S
C3119 H3142 0.950 . S
C3120 C3119 1.349 1_565 S
C3120 C3132 1.349 . S
C3121 C3119 1.327 . S
C3121 C3137 1.429 1_545 S
C3121 H3143 0.950 . S
C3122 H3118 0.949 . S
C3122 C3130 1.574 . S
C3122 C3138 1.368 . S
H3123 C3131 0.950 . S
H3124 C3129 0.950 . S
H3125 C3130 0.949 . S
H3126 C3132 0.950 . S
H3127 C3133 0.950 . S
H3128 C3134 0.949 . S
C3129 H3124 0.950 . S
C3129 C3131 1.327 . S
C3129 C3135 1.429 1_545 S
C3130 C3122 1.574 . S
C3130 H3125 0.949 . S
C3130 C3136 1.368 . S
C3131 C3115 1.349 1_545 S
C3131 H3123 0.950 . S
C3131 C3129 1.327 . S
C3132 C3120 1.349 . S
C3132 H3126 0.950 . S
C3132 C3133 1.327 . S
C3133 H3127 0.950 . S
C3133 C3132 1.327 . S
C3133 C3137 1.429 . S
C3134 C3117 1.574 . S
C3134 H3128 0.949 . S
C3134 C3138 1.368 1_545 S
C3135 C3116 1.429 . S
C3135 C3129 1.429 1_565 S
C3135 C3136 1.523 . S
C3136 C3117 1.368 1_565 S
C3136 C3130 1.368 . S
C3136 C3135 1.523 . S
C3137 C3121 1.429 1_565 S
C3137 C3133 1.429 . S
C3137 C3138 1.523 . S
C3138 C3122 1.368 . S
C3138 C3134 1.368 1_565 S
C3138 C3137 1.523 . S
H3139 C3114 0.950 . S
H3140 C3116 0.950 . S
H3141 C3117 0.949 . S
H3142 C3119 0.950 . S
H3143 C3121 0.950 . S
C3144 C3145 1.349 . S
C3144 C3146 1.327 . S
C3144 H3169 0.950 . S
C3145 C3144 1.349 . S
C3145 C3161 1.349 . S
C3146 C3144 1.327 . S
C3146 C3165 1.429 . S
C3146 H3170 0.950 . S
C3147 C3164 1.574 . S
C3147 C3166 1.368 . S
C3147 H3171 0.949 . S
H3148 C3152 0.949 . S
C3149 C3150 1.349 . S
C3149 C3151 1.327 . S
C3149 H3172 0.950 . S
C3150 C3149 1.349 . S
C3150 C3162 1.349 . S
C3151 C3149 1.327 . S
C3151 C3167 1.429 . S
C3151 H3173 0.950 . S
C3152 H3148 0.949 . S
C3152 C3160 1.574 . S
C3152 C3168 1.368 . S
H3153 C3161 0.950 . S
H3154 C3159 0.950 . S
H3155 C3160 0.949 . S
H3156 C3162 0.950 . S
H3157 C3163 0.950 . S
H3158 C3164 0.949 . S
C3159 H3154 0.950 . S
C3159 C3161 1.327 . S
C3159 C3165 1.429 . S
C3160 C3152 1.574 . S
C3160 H3155 0.949 . S
C3160 C3166 1.368 . S
C3161 C3145 1.349 . S
C3161 H3153 0.950 . S
C3161 C3159 1.327 . S
C3162 C3150 1.349 . S
C3162 H3156 0.950 . S
C3162 C3163 1.327 . S
C3163 H3157 0.950 . S
C3163 C3162 1.327 . S
C3163 C3167 1.429 . S
C3164 C3147 1.574 . S
C3164 H3158 0.949 . S
C3164 C3168 1.368 . S
C3165 C3146 1.429 . S
C3165 C3159 1.429 . S
C3165 C3166 1.523 . S
C3166 C3147 1.368 . S
C3166 C3160 1.368 . S
C3166 C3165 1.523 . S
C3167 C3151 1.429 . S
C3167 C3163 1.429 . S
C3167 C3168 1.523 . S
C3168 C3152 1.368 . S
C3168 C3164 1.368 . S
C3168 C3167 1.523 . S
H3169 C3144 0.950 . S
H3170 C3146 0.950 . S
H3171 C3147 0.949 . S
H3172 C3149 0.950 . S
H3173 C3151 0.950 . S
C3174 C3175 1.349 . S
C3174 C3176 1.327 . S
C3174 H3199 0.950 . S
C3175 C3174 1.349 . S
C3175 C3191 1.349 1_556 S
C3176 C3174 1.327 . S
C3176 C3195 1.429 . S
C3176 H3200 0.950 . S
C3177 C3194 1.574 . S
C3177 C3196 1.368 1_554 S
C3177 H3201 0.949 . S
H3178 C3182 0.949 . S
C3179 C3180 1.349 1_554 S
C3179 C3181 1.327 . S
C3179 H3202 0.950 . S
C3180 C3179 1.349 1_556 S
C3180 C3192 1.349 . S
C3181 C3179 1.327 . S
C3181 C3197 1.429 1_554 S
C3181 H3203 0.950 . S
C3182 H3178 0.949 . S
C3182 C3190 1.574 . S
C3182 C3198 1.368 . S
H3183 C3191 0.950 . S
H3184 C3189 0.950 . S
H3185 C3190 0.949 . S
H3186 C3192 0.950 . S
H3187 C3193 0.950 . S
H3188 C3194 0.949 . S
C3189 H3184 0.950 . S
C3189 C3191 1.327 . S
C3189 C3195 1.429 1_554 S
C3190 C3182 1.574 . S
C3190 H3185 0.949 . S
C3190 C3196 1.368 . S
C3191 C3175 1.349 1_554 S
C3191 H3183 0.950 . S
C3191 C3189 1.327 . S
C3192 C3180 1.349 . S
C3192 H3186 0.950 . S
C3192 C3193 1.327 . S
C3193 H3187 0.950 . S
C3193 C3192 1.327 . S
C3193 C3197 1.429 . S
C3194 C3177 1.574 . S
C3194 H3188 0.949 . S
C3194 C3198 1.368 1_554 S
C3195 C3176 1.429 . S
C3195 C3189 1.429 1_556 S
C3195 C3196 1.523 . S
C3196 C3177 1.368 1_556 S
C3196 C3190 1.368 . S
C3196 C3195 1.523 . S
C3197 C3181 1.429 1_556 S
C3197 C3193 1.429 . S
C3197 C3198 1.523 . S
C3198 C3182 1.368 . S
C3198 C3194 1.368 1_556 S
C3198 C3197 1.523 . S
H3199 C3174 0.950 . S
H3200 C3176 0.950 . S
H3201 C3177 0.949 . S
H3202 C3179 0.950 . S
H3203 C3181 0.950 . S
C3204 C3205 1.349 . S
C3204 C3206 1.327 . S
C3204 H3229 0.950 . S
C3205 C3204 1.349 . S
C3205 C3221 1.349 . S
C3206 C3204 1.327 . S
C3206 C3225 1.429 . S
C3206 H3230 0.950 . S
C3207 C3224 1.574 . S
C3207 C3226 1.368 . S
C3207 H3231 0.949 . S
H3208 C3212 0.949 . S
C3209 C3210 1.349 . S
C3209 C3211 1.327 . S
C3209 H3232 0.950 . S
C3210 C3209 1.349 . S
C3210 C3222 1.349 . S
C3211 C3209 1.327 . S
C3211 C3227 1.429 . S
C3211 H3233 0.950 . S
C3212 H3208 0.949 . S
C3212 C3220 1.574 . S
C3212 C3228 1.368 . S
H3213 C3221 0.950 . S
H3214 C3219 0.950 . S
H3215 C3220 0.949 . S
H3216 C3222 0.950 . S
H3217 C3223 0.950 . S
H3218 C3224 0.949 . S
C3219 H3214 0.950 . S
C3219 C3221 1.327 . S
C3219 C3225 1.429 . S
C3220 C3212 1.574 . S
C3220 H3215 0.949 . S
C3220 C3226 1.368 . S
C3221 C3205 1.349 . S
C3221 H3213 0.950 . S
C3221 C3219 1.327 . S
C3222 C3210 1.349 . S
C3222 H3216 0.950 . S
C3222 C3223 1.327 . S
C3223 H3217 0.950 . S
C3223 C3222 1.327 . S
C3223 C3227 1.429 . S
C3224 C3207 1.574 . S
C3224 H3218 0.949 . S
C3224 C3228 1.368 . S
C3225 C3206 1.429 . S
C3225 C3219 1.429 . S
C3225 C3226 1.523 . S
C3226 C3207 1.368 . S
C3226 C3220 1.368 . S
C3226 C3225 1.523 . S
C3227 C3211 1.429 . S
C3227 C3223 1.429 . S
C3227 C3228 1.523 . S
C3228 C3212 1.368 . S
C3228 C3224 1.368 . S
C3228 C3227 1.523 . S
H3229 C3204 0.950 . S
H3230 C3206 0.950 . S
H3231 C3207 0.949 . S
H3232 C3209 0.950 . S
H3233 C3211 0.950 . S
C3234 C3235 1.407 . S
C3234 C3236 1.327 . S
C3234 H3259 0.950 . S
C3235 C3234 1.407 . S
C3235 C3251 1.311 1_554 S
C3236 C3234 1.327 . S
C3236 C3255 1.429 . S
C3236 H3260 0.950 . S
C3237 C3254 1.559 1_556 S
C3237 C3256 1.368 1_556 S
C3237 H3261 0.949 . S
H3238 C3242 0.949 . S
C3239 C3240 1.349 . S
C3239 C3241 1.327 . S
C3239 H3262 0.950 . S
C3240 C3239 1.349 . S
C3240 C3252 1.349 . S
C3241 C3239 1.327 . S
C3241 C3257 1.429 . S
C3241 H3263 0.950 1_554 S
C3242 H3238 0.949 . S
C3242 C3250 1.574 . S
C3242 C3258 1.368 . S
H3243 C3251 0.950 . S
H3244 C3249 0.950 . S
H3245 C3250 0.949 . S
H3246 C3252 0.950 . S
H3247 C3253 0.950 . S
H3248 C3254 0.915 1_556 S
C3249 H3244 0.950 . S
C3249 C3251 1.327 . S
C3249 C3255 1.429 1_556 S
C3250 C3242 1.574 . S
C3250 H3245 0.949 . S
C3250 C3256 1.368 . S
C3251 C3235 1.311 1_556 S
C3251 H3243 0.950 . S
C3251 C3249 1.327 . S
C3252 C3240 1.349 . S
C3252 H3246 0.950 . S
C3252 C3253 1.327 . S
C3253 H3247 0.950 . S
C3253 C3252 1.327 . S
C3253 C3257 1.429 . S
C3254 C3237 1.559 1_554 S
C3254 H3248 0.915 1_554 S
C3254 C3258 1.427 . S
C3255 C3236 1.429 . S
C3255 C3249 1.429 1_554 S
C3255 C3256 1.523 . S
C3256 C3237 1.368 1_554 S
C3256 C3250 1.368 . S
C3256 C3255 1.523 . S
C3257 C3241 1.429 . S
C3257 C3253 1.429 . S
C3257 C3258 1.523 . S
C3258 C3242 1.368 . S
C3258 C3254 1.427 . S
C3258 C3257 1.523 . S
H3259 C3234 0.950 . S
H3260 C3236 0.950 . S
H3261 C3237 0.949 . S
H3262 C3239 0.950 . S
H3263 C3241 0.950 1_556 S
C3264 C3265 1.349 . S
C3264 C3266 1.327 . S
C3264 H3289 0.950 . S
C3265 C3264 1.349 . S
C3265 C3281 1.349 . S
C3266 C3264 1.327 . S
C3266 C3285 1.429 . S
C3266 H3290 0.950 . S
C3267 C3284 1.574 . S
C3267 C3286 1.368 . S
C3267 H3291 0.949 . S
H3268 C3272 0.949 . S
C3269 C3270 1.349 . S
C3269 C3271 1.327 . S
C3269 H3292 0.950 . S
C3270 C3269 1.349 . S
C3270 C3282 1.349 . S
C3271 C3269 1.327 . S
C3271 C3287 1.429 . S
C3271 H3293 0.950 . S
C3272 H3268 0.949 . S
C3272 C3280 1.574 . S
C3272 C3288 1.368 . S
H3273 C3281 0.950 . S
H3274 C3279 0.950 . S
H3275 C3280 0.949 . S
H3276 C3282 0.950 . S
H3277 C3283 0.950 . S
H3278 C3284 0.949 . S
C3279 H3274 0.950 . S
C3279 C3281 1.327 . S
C3279 C3285 1.429 . S
C3280 C3272 1.574 . S
C3280 H3275 0.949 . S
C3280 C3286 1.368 . S
C3281 C3265 1.349 . S
C3281 H3273 0.950 . S
C3281 C3279 1.327 . S
C3282 C3270 1.349 . S
C3282 H3276 0.950 . S
C3282 C3283 1.327 . S
C3283 H3277 0.950 . S
C3283 C3282 1.327 . S
C3283 C3287 1.429 . S
C3284 C3267 1.574 . S
C3284 H3278 0.949 . S
C3284 C3288 1.368 . S
C3285 C3266 1.429 . S
C3285 C3279 1.429 . S
C3285 C3286 1.523 . S
C3286 C3267 1.368 . S
C3286 C3280 1.368 . S
C3286 C3285 1.523 . S
C3287 C3271 1.429 . S
C3287 C3283 1.429 . S
C3287 C3288 1.523 . S
C3288 C3272 1.368 . S
C3288 C3284 1.368 . S
C3288 C3287 1.523 . S
H3289 C3264 0.950 . S
H3290 C3266 0.950 . S
H3291 C3267 0.949 . S
H3292 C3269 0.950 . S
H3293 C3271 0.950 . S
C3294 C3295 1.349 . S
C3294 C3296 1.327 . S
C3294 H3319 0.950 . S
C3295 C3294 1.349 . S
C3295 C3311 1.349 1_655 S
C3296 C3294 1.327 . S
C3296 C3315 1.429 . S
C3296 H3320 0.950 . S
C3297 C3314 1.574 . S
C3297 C3316 1.368 1_455 S
C3297 H3321 0.949 . S
H3298 C3302 0.949 . S
C3299 C3300 1.380 . S
C3299 C3301 1.322 1_655 S
C3299 H3322 0.927 1_655 S
C3300 C3299 1.380 . S
C3300 C3312 1.349 . S
C3301 C3299 1.322 1_455 S
C3301 C3317 1.430 1_455 S
C3301 H3323 0.947 . S
C3302 H3298 0.949 . S
C3302 C3310 1.574 . S
C3302 C3318 1.368 . S
H3303 C3311 0.950 . S
H3304 C3309 0.950 . S
H3305 C3310 0.949 . S
H3306 C3312 0.950 . S
H3307 C3313 0.950 . S
H3308 C3314 0.949 . S
C3309 H3304 0.950 . S
C3309 C3311 1.327 . S
C3309 C3315 1.429 1_455 S
C3310 C3302 1.574 . S
C3310 H3305 0.949 . S
C3310 C3316 1.368 . S
C3311 C3295 1.349 1_455 S
C3311 H3303 0.950 . S
C3311 C3309 1.327 . S
C3312 C3300 1.349 . S
C3312 H3306 0.950 . S
C3312 C3313 1.327 . S
C3313 H3307 0.950 . S
C3313 C3312 1.327 . S
C3313 C3317 1.429 . S
C3314 C3297 1.574 . S
C3314 H3308 0.949 . S
C3314 C3318 1.368 1_455 S
C3315 C3296 1.429 . S
C3315 C3309 1.429 1_655 S
C3315 C3316 1.523 . S
C3316 C3297 1.368 1_655 S
C3316 C3310 1.368 . S
C3316 C3315 1.523 . S
C3317 C3301 1.430 1_655 S
C3317 C3313 1.429 . S
C3317 C3318 1.523 . S
C3318 C3302 1.368 . S
C3318 C3314 1.368 1_655 S
C3318 C3317 1.523 . S
H3319 C3294 0.950 . S
H3320 C3296 0.950 . S
H3321 C3297 0.949 . S
H3322 C3299 0.927 1_455 S
H3323 C3301 0.947 . S
C3324 C3325 1.349 . S
C3324 C3326 1.327 . S
C3324 H3349 0.950 . S
C3325 C3324 1.349 . S
C3325 C3341 1.349 . S
C3326 C3324 1.327 . S
C3326 C3345 1.429 . S
C3326 H3350 0.950 . S
C3327 C3344 1.574 . S
C3327 C3346 1.368 . S
C3327 H3351 0.949 . S
H3328 C3332 0.949 . S
C3329 C3330 1.349 . S
C3329 C3331 1.327 . S
C3329 H3352 0.950 . S
C3330 C3329 1.349 . S
C3330 C3342 1.349 . S
C3331 C3329 1.327 . S
C3331 C3347 1.429 . S
C3331 H3353 0.950 . S
C3332 H3328 0.949 . S
C3332 C3340 1.574 . S
C3332 C3348 1.368 . S
H3333 C3341 0.950 . S
H3334 C3339 0.950 . S
H3335 C3340 0.949 . S
H3336 C3342 0.950 . S
H3337 C3343 0.950 . S
H3338 C3344 0.949 . S
C3339 H3334 0.950 . S
C3339 C3341 1.327 . S
C3339 C3345 1.429 . S
C3340 C3332 1.574 . S
C3340 H3335 0.949 . S
C3340 C3346 1.368 . S
C3341 C3325 1.349 . S
C3341 H3333 0.950 . S
C3341 C3339 1.327 . S
C3342 C3330 1.349 . S
C3342 H3336 0.950 . S
C3342 C3343 1.327 . S
C3343 H3337 0.950 . S
C3343 C3342 1.327 . S
C3343 C3347 1.429 . S
C3344 C3327 1.574 . S
C3344 H3338 0.949 . S
C3344 C3348 1.368 . S
C3345 C3326 1.429 . S
C3345 C3339 1.429 . S
C3345 C3346 1.523 . S
C3346 C3327 1.368 . S
C3346 C3340 1.368 . S
C3346 C3345 1.523 . S
C3347 C3331 1.429 . S
C3347 C3343 1.429 . S
C3347 C3348 1.523 . S
C3348 C3332 1.368 . S
C3348 C3344 1.368 . S
C3348 C3347 1.523 . S
H3349 C3324 0.950 . S
H3350 C3326 0.950 . S
H3351 C3327 0.949 . S
H3352 C3329 0.950 . S
H3353 C3331 0.950 . S
C3354 C3355 1.329 1_655 S
C3354 C3356 1.327 . S
C3354 H3379 0.950 . S
C3355 C3354 1.329 1_455 S
C3355 C3371 1.390 . S
C3356 C3354 1.327 . S
C3356 C3375 1.429 1_655 S
C3356 H3380 0.950 . S
C3357 C3374 1.574 . S
C3357 C3376 1.368 . S
C3357 H3381 0.949 . S
H3358 C3362 0.958 . S
C3359 C3360 1.349 . S
C3359 C3361 1.327 . S
C3359 H3382 0.950 . S
C3360 C3359 1.349 . S
C3360 C3372 1.349 . S
C3361 C3359 1.327 . S
C3361 C3377 1.429 . S
C3361 H3383 0.950 . S
C3362 H3358 0.958 . S
C3362 C3370 1.574 . S
C3362 C3378 1.368 . S
H3363 C3371 0.950 . S
H3364 C3369 0.950 . S
H3365 C3370 0.949 1_655 S
H3366 C3372 0.950 . S
H3367 C3373 0.950 . S
H3368 C3374 0.949 . S
C3369 H3364 0.950 . S
C3369 C3371 1.327 . S
C3369 C3375 1.429 . S
C3370 C3362 1.574 . S
C3370 H3365 0.949 1_455 S
C3370 C3376 1.368 . S
C3371 C3355 1.390 . S
C3371 H3363 0.950 . S
C3371 C3369 1.327 . S
C3372 C3360 1.349 . S
C3372 H3366 0.950 . S
C3372 C3373 1.327 . S
C3373 H3367 0.950 . S
C3373 C3372 1.327 . S
C3373 C3377 1.429 . S
C3374 C3357 1.574 . S
C3374 H3368 0.949 . S
C3374 C3378 1.368 . S
C3375 C3356 1.429 1_455 S
C3375 C3369 1.429 . S
C3375 C3376 1.523 . S
C3376 C3357 1.368 . S
C3376 C3370 1.368 . S
C3376 C3375 1.523 . S
C3377 C3361 1.429 . S
C3377 C3373 1.429 . S
C3377 C3378 1.523 . S
C3378 C3362 1.368 . S
C3378 C3374 1.368 . S
C3378 C3377 1.523 . S
H3379 C3354 0.950 . S
H3380 C3356 0.950 . S
H3381 C3357 0.949 . S
H3382 C3359 0.950 . S
H3383 C3361 0.950 . S
C1230 C1218 1.689 . S
C1225 C15 1.997 . S
C1260 C1185 1.220 . S
C1255 C55 1.345 . S
C1290 C1207 0.760 . S
C1285 C95 0.803 1_545 S
C1320 C1196 1.357 . S
C1315 C135 1.511 . S
C1350 C1119 1.689 . S
C1345 C175 1.997 . S
C1375 C215 1.510 . S
C1380 C1130 1.357 . S
C1410 C1097 1.220 . S
C1405 C255 1.345 . S
C1435 C295 0.803 1_554 S
C1440 C1108 0.760 . S
C1470 C1174 1.688 . S
C1465 C335 1.997 . S
C1495 C375 1.511 . S
C1500 C1152 1.357 . S
C1525 C415 1.345 . S
C1530 C1141 1.220 . S
C1560 C1163 0.760 . S
C1555 C455 0.803 1_455 S
C1590 C1086 1.628 . S
C1585 C495 1.997 . S
C1615 C535 1.339 . S
C1620 C1053 1.147 . S
C1650 C1075 0.770 . S
C1645 C575 0.804 . S
C1675 C615 1.512 . S
C1680 C1064 1.181 . S
C1710 C987 1.628 . S
C1705 C655 1.997 . S
C1740 C998 1.181 . S
C1735 C695 1.512 . S
C1765 C735 1.339 . S
C1770 C965 1.147 . S
C1795 C775 0.803 . S
C1800 C976 0.770 . S
C1825 C815 1.989 . S
C1830 C1042 1.635 . S
C1855 C855 1.512 . S
C1860 C1020 1.181 . S
C1890 C1009 1.146 . S
C1885 C895 1.339 . S
C1915 C935 0.804 . S
C1920 C1031 0.770 . S
C1950 C967 1.619 . S
C1945 C21 1.644 . S
C1980 C978 1.408 . S
C1975 C61 1.405 . S
C2005 C101 0.595 1_545 S
C2010 C989 0.595 1_565 S
C2035 C141 0.711 . S
C2040 C1000 0.699 . S
C2070 C1011 1.618 . S
C2065 C181 1.644 . S
C2095 C221 0.711 . S
C2100 C1022 0.699 . S
C2130 C1033 1.408 . S
C2125 C261 1.405 . S
C2160 C1044 0.595 1_556 S
C2155 C301 0.595 1_554 S
C2190 C1055 1.619 . S
C2185 C341 1.644 . S
C2215 C381 0.711 . S
C2220 C1066 0.699 . S
C2245 C421 1.411 . S
C2250 C1077 1.402 . S
C2275 C461 0.595 1_455 S
C2280 C1088 0.595 1_655 S
C2305 C501 1.618 . S
C2310 C1099 1.622 . S
C2335 C541 1.313 . S
C2340 C1110 1.412 . S
C2365 C581 0.595 . S
C2370 C1121 0.569 1_545 S
C2395 C621 0.699 . S
C2400 C1132 0.693 . S
C2425 C661 1.618 . S
C2430 C1143 1.621 . S
C2460 C1154 0.705 . S
C2455 C701 0.693 . S
C2490 C1165 1.416 . S
C2485 C741 1.306 . S
C2520 C1176 0.569 1_554 S
C2515 C781 0.595 . S
C2550 C1187 1.622 . S
C2545 C821 1.618 . S
C2575 C861 0.699 . S
C2580 C1198 0.693 . S
C2605 C901 1.313 . S
C2610 C1209 1.412 . S
C2635 C941 0.595 . S
C2640 C1220 0.569 1_455 S
C2665 C2 1.659 . S
C2670 C1056 1.649 . S
C2700 C1089 1.524 . S
C2695 C42 1.556 . S
C2725 C82 1.450 . S
C2730 C1067 1.394 . S
C2760 C1078 1.575 . S
C2755 C122 1.540 . S
C2785 C162 1.659 . S
C2790 C968 1.649 . S
C2815 C202 1.541 . S
C2820 C979 1.575 . S
C2845 C242 1.564 . S
C2850 C990 1.516 . S
C2875 C282 1.450 . S
C2880 C1001 1.394 . S
C2910 C1012 1.649 . S
C2905 C322 1.660 . S
C2940 C1034 1.575 . S
C2935 C362 1.540 . S
C2965 C402 1.564 . S
C2970 C1045 1.516 . S
C2995 C442 1.450 . S
C3000 C1023 1.394 . S
C3030 C1188 1.642 . S
C3025 C482 1.648 . S
C3060 C1221 1.532 . S
C3055 C522 1.490 . S
C3085 C562 1.454 1_545 S
C3090 C1199 1.412 . S
C3120 C1210 1.528 . S
C3115 C602 1.540 1_565 S
C3145 C642 1.648 . S
C3150 C1100 1.643 . S
C3175 C682 1.541 1_556 S
C3180 C1111 1.528 . S
C3205 C722 1.498 . S
C3210 C1122 1.525 . S
C3240 C1133 1.412 . S
C3235 C762 1.454 1_554 S
C3270 C1144 1.643 . S
C3265 C802 1.648 . S
C3300 C1166 1.528 . S
C3295 C842 1.540 1_655 S
C3325 C882 1.498 . S
C3330 C1177 1.525 . S
C3360 C1155 1.412 . S
C3355 C922 1.454 1_455 S
