# Generated by pormake.
# Topology wbl, (4,4)-cn, num edge types: 1
# Building blocks:
#     Node 0, Type 0, BuildingBlock: MUDLON_clean_sbu_0, # of connection points: 4
#     Node 1, Type 0, BuildingBlock: MUDLON_clean_sbu_0, # of connection points: 4
#     Node 2, Type 0, BuildingBlock: MUDLON_clean_sbu_0, # of connection points: 4
#     Node 3, Type 0, BuildingBlock: MUDLON_clean_sbu_0, # of connection points: 4
#     Node 4, Type 0, BuildingBlock: MUDLON_clean_sbu_0, # of connection points: 4
#     Node 5, Type 0, BuildingBlock: MUDLON_clean_sbu_0, # of connection points: 4
#     Node 6, Type 0, BuildingBlock: MUDLON_clean_sbu_0, # of connection points: 4
#     Node 7, Type 0, BuildingBlock: MUDLON_clean_sbu_0, # of connection points: 4
#     Node 8, Type 1, BuildingBlock: NAHDIM_clean_sbu_0, # of connection points: 4
#     Node 9, Type 1, BuildingBlock: NAHDIM_clean_sbu_0, # of connection points: 4
#     Node 10, Type 1, BuildingBlock: NAHDIM_clean_sbu_0, # of connection points: 4
#     Node 11, Type 1, BuildingBlock: NAHDIM_clean_sbu_0, # of connection points: 4
#     Node 12, Type 1, BuildingBlock: NAHDIM_clean_sbu_0, # of connection points: 4
#     Node 13, Type 1, BuildingBlock: NAHDIM_clean_sbu_0, # of connection points: 4
#     Node 14, Type 1, BuildingBlock: NAHDIM_clean_sbu_0, # of connection points: 4
#     Node 15, Type 1, BuildingBlock: NAHDIM_clean_sbu_0, # of connection points: 4
#     Edge 16, Type (0, 1), BuildingBlock: UVAHIK_clean_linker_0, # of connection points: 2
#     Edge 17, Type (0, 1), BuildingBlock: UVAHIK_clean_linker_0, # of connection points: 2
#     Edge 18, Type (0, 1), BuildingBlock: UVAHIK_clean_linker_0, # of connection points: 2
#     Edge 19, Type (0, 1), BuildingBlock: UVAHIK_clean_linker_0, # of connection points: 2
#     Edge 20, Type (0, 1), BuildingBlock: UVAHIK_clean_linker_0, # of connection points: 2
#     Edge 21, Type (0, 1), BuildingBlock: UVAHIK_clean_linker_0, # of connection points: 2
#     Edge 22, Type (0, 1), BuildingBlock: UVAHIK_clean_linker_0, # of connection points: 2
#     Edge 23, Type (0, 1), BuildingBlock: UVAHIK_clean_linker_0, # of connection points: 2
#     Edge 24, Type (0, 1), BuildingBlock: UVAHIK_clean_linker_0, # of connection points: 2
#     Edge 25, Type (0, 1), BuildingBlock: UVAHIK_clean_linker_0, # of connection points: 2
#     Edge 26, Type (0, 1), BuildingBlock: UVAHIK_clean_linker_0, # of connection points: 2
#     Edge 27, Type (0, 1), BuildingBlock: UVAHIK_clean_linker_0, # of connection points: 2
#     Edge 28, Type (0, 1), BuildingBlock: UVAHIK_clean_linker_0, # of connection points: 2
#     Edge 29, Type (0, 1), BuildingBlock: UVAHIK_clean_linker_0, # of connection points: 2
#     Edge 30, Type (0, 1), BuildingBlock: UVAHIK_clean_linker_0, # of connection points: 2
#     Edge 31, Type (0, 1), BuildingBlock: UVAHIK_clean_linker_0, # of connection points: 2
#     Edge 32, Type (0, 1), BuildingBlock: UVAHIK_clean_linker_0, # of connection points: 2
#     Edge 33, Type (0, 1), BuildingBlock: UVAHIK_clean_linker_0, # of connection points: 2
#     Edge 34, Type (0, 1), BuildingBlock: UVAHIK_clean_linker_0, # of connection points: 2
#     Edge 35, Type (0, 1), BuildingBlock: UVAHIK_clean_linker_0, # of connection points: 2
#     Edge 36, Type (0, 1), BuildingBlock: UVAHIK_clean_linker_0, # of connection points: 2
#     Edge 37, Type (0, 1), BuildingBlock: UVAHIK_clean_linker_0, # of connection points: 2
#     Edge 38, Type (0, 1), BuildingBlock: UVAHIK_clean_linker_0, # of connection points: 2
#     Edge 39, Type (0, 1), BuildingBlock: UVAHIK_clean_linker_0, # of connection points: 2
#     Edge 40, Type (0, 1), BuildingBlock: UVAHIK_clean_linker_0, # of connection points: 2
#     Edge 41, Type (0, 1), BuildingBlock: UVAHIK_clean_linker_0, # of connection points: 2
#     Edge 42, Type (0, 1), BuildingBlock: UVAHIK_clean_linker_0, # of connection points: 2
#     Edge 43, Type (0, 1), BuildingBlock: UVAHIK_clean_linker_0, # of connection points: 2
#     Edge 44, Type (0, 1), BuildingBlock: UVAHIK_clean_linker_0, # of connection points: 2
#     Edge 45, Type (0, 1), BuildingBlock: UVAHIK_clean_linker_0, # of connection points: 2
#     Edge 46, Type (0, 1), BuildingBlock: UVAHIK_clean_linker_0, # of connection points: 2
#     Edge 47, Type (0, 1), BuildingBlock: UVAHIK_clean_linker_0, # of connection points: 2
# Relax obj value: 0.235
# Max RMSD: 0.228
# Mean RMSD: 0.181
data_MOF--net-wbl--node1-MUDLON_clean_sbu_0--node2-NAHDIM_clean_sbu_0--edge1-UVAHIK_clean_linker_0
_symmetry_space_group_name_H-M    P1
_symmetry_Int_Tables_number       1
_symmetry_cell_setting            triclinic
loop_
_symmetry_equiv_pos_as_xyz
'x, y, z'
_cell_length_a     46.360151
_cell_length_b     44.709439
_cell_length_c     95.930067
_cell_angle_alpha  90.00658
_cell_angle_beta   90.00354
_cell_angle_gamma 90.077618
loop_
_atom_site_label
_atom_site_type_symbol
_atom_site_fract_x
_atom_site_fract_y
_atom_site_fract_z
_atom_type_partial_charge
Mg0 Mg 0.99028 0.00388 0.35265 0.0
C1 C 0.04913 0.98914 0.3659 0.0
O2 O 0.05695 0.98266 0.35309 0.0
C3 C 0.9958 0.0448 0.32773 0.0
O4 O 0.00835 0.02095 0.32253 0.0
C5 C 0.0046 0.94174 0.34145 0.0
O6 O 0.00898 0.93589 0.35471 0.0
O7 O 0.99458 0.96713 0.33802 0.0
O8 O 0.02447 1.00065 0.36804 0.0
O9 O 0.95088 0.00471 0.36484 0.0
C10 C 0.95121 0.99434 0.37718 0.0
O11 O 0.97361 0.97863 0.38124 0.0
O12 O 0.98875 0.04485 0.34054 0.0
Mg13 Mg 0.99976 0.50092 0.60283 0.0
C14 C 0.98517 0.53539 0.62887 0.0
O15 O 0.96927 0.51151 0.63108 0.0
C16 C 0.96418 0.49001 0.57719 0.0
O17 O 0.9887 0.49843 0.57155 0.0
C18 C 0.05791 0.52422 0.59246 0.0
O19 O 0.06238 0.52911 0.60579 0.0
O20 O 0.03504 0.51079 0.58868 0.0
O21 O 0.99695 0.53874 0.61699 0.0
O22 O 0.00528 0.46284 0.61664 0.0
C23 C 0.01905 0.46602 0.62802 0.0
O24 O 0.03535 0.48983 0.62963 0.0
O25 O 0.96157 0.49105 0.59039 0.0
Mg26 Mg 0.50513 0.50012 0.8441 0.0
C27 C 0.44775 0.50385 0.85919 0.0
O28 O 0.44024 0.51832 0.84785 0.0
C29 C 0.52485 0.4673 0.81886 0.0
O30 O 0.51976 0.49408 0.8138 0.0
C31 C 0.48276 0.56134 0.83329 0.0
O32 O 0.48717 0.5709 0.84607 0.0
O33 O 0.48951 0.53467 0.83011 0.0
O34 O 0.47201 0.49065 0.8595 0.0
O35 O 0.54186 0.51149 0.85707 0.0
C36 C 0.5371 0.52322 0.86893 0.0
O37 O 0.51121 0.53369 0.87158 0.0
O38 O 0.51898 0.46217 0.83159 0.0
Mg39 Mg 0.50172 0.99927 0.10419 0.0
C40 C 0.53982 0.98532 0.12918 0.0
O41 O 0.51745 0.96893 0.13274 0.0
C42 C 0.48556 0.96492 0.07865 0.0
O43 O 0.47939 0.99245 0.07492 0.0
C44 C 0.53079 0.03948 0.08458 0.0
O45 O 0.54882 0.01705 0.08611 0.0
O46 O 0.50704 0.0388 0.09123 0.0
O47 O 0.53974 0.99849 0.11743 0.0
O48 O 0.46499 1.00053 0.11838 0.0
C49 C 0.44437 0.98204 0.11679 0.0
O50 O 0.44423 0.96474 0.10572 0.0
O51 O 0.49681 0.96049 0.09058 0.0
Mg52 Mg 1.00051 0.50353 0.91436 0.0
C53 C 0.05943 0.50995 0.89993 0.0
O54 O 0.0681 0.52017 0.91207 0.0
C55 C 0.98494 0.46739 0.9396 0.0
O56 O 0.99274 0.49277 0.94538 0.0
C57 C 0.02479 0.56378 0.92539 0.0
O58 O 0.02705 0.5709 0.91214 0.0
O59 O 0.01295 0.53911 0.92872 0.0
O60 O 0.03454 0.49815 0.89896 0.0
O61 O 0.9645 0.51159 0.90034 0.0
C62 C 0.94199 0.49535 0.90109 0.0
O63 O 0.93745 0.47976 0.91249 0.0
O64 O 0.98847 0.46414 0.92653 0.0
Mg65 Mg 0.50105 0.49594 0.17349 0.0
C66 C 0.51322 0.52806 0.14684 0.0
O67 O 0.52875 0.50387 0.14486 0.0
C68 C 0.53865 0.48395 0.19853 0.0
O69 O 0.51471 0.49168 0.20491 0.0
C70 C 0.44297 0.51879 0.18244 0.0
O71 O 0.43982 0.51997 0.16884 0.0
O72 O 0.46576 0.50715 0.18742 0.0
O73 O 0.50283 0.53289 0.1589 0.0
O74 O 0.49457 0.45869 0.15925 0.0
C75 C 0.51338 0.43801 0.15883 0.0
O76 O 0.53147 0.43536 0.16929 0.0
O77 O 0.54 0.48637 0.18534 0.0
Mg78 Mg 0.49851 0.99489 0.40929 0.0
C79 C 0.55839 0.00298 0.3961 0.0
O80 O 0.56536 0.0139 0.40836 0.0
C81 C 0.49279 0.95582 0.43477 0.0
O82 O 0.50706 0.97837 0.44022 0.0
C83 C 0.51883 0.05618 0.42062 0.0
O84 O 0.52156 0.06341 0.40741 0.0
O85 O 0.5081 0.03092 0.42381 0.0
O86 O 0.53377 0.99091 0.39449 0.0
O87 O 0.46223 0.00148 0.3953 0.0
C88 C 0.4398 0.98524 0.39637 0.0
O89 O 0.43632 0.96898 0.40765 0.0
O90 O 0.48861 0.95535 0.42167 0.0
Mg91 Mg 0.99799 1.00027 0.66167 0.0
C92 C 0.0156 0.94004 0.64926 0.0
O93 O 0.02632 0.93564 0.66177 0.0
C94 C 0.96248 0.0013 0.68793 0.0
O95 O 0.98742 0.99297 0.69312 0.0
C96 C 0.06024 0.98988 0.67207 0.0
O97 O 0.06669 0.98841 0.65875 0.0
O98 O 0.03479 0.99713 0.67565 0.0
O99 O 1.00046 0.96324 0.64701 0.0
O100 O 0.99596 0.03944 0.64823 0.0
C101 C 0.97663 0.05908 0.65041 0.0
O102 O 0.96186 0.058 0.66208 0.0
O103 O 0.95961 0.00243 0.67475 0.0
C104 C 0.26003 0.64721 0.01077 0.0
O105 O 0.26877 0.62556 0.019 0.0
O106 O 0.33123 0.63518 0.02615 0.0
Zn107 Zn 0.32133 0.66068 0.00936 0.0
O108 O 0.33592 0.64029 0.99193 0.0
C109 C 0.34241 0.72457 0.00707 0.0
O110 O 0.32747 0.72809 0.99555 0.0
O111 O 0.2784 0.66604 0.00628 0.0
C112 C 0.35714 0.64832 0.98442 0.0
O113 O 0.37216 0.67208 0.98795 0.0
C114 C 0.35638 0.62382 0.02602 0.0
O115 O 0.37234 0.62697 0.0148 0.0
O116 O 0.34188 0.69957 0.01336 0.0
C117 C 0.22349 0.83524 0.25378 0.0
O118 O 0.22963 0.84827 0.24187 0.0
O119 O 0.29371 0.84548 0.23806 0.0
Zn120 Zn 0.28533 0.82004 0.25505 0.0
O121 O 0.30713 0.8353 0.27188 0.0
C122 C 0.31609 0.76225 0.25555 0.0
O123 O 0.33116 0.77389 0.26581 0.0
O124 O 0.24332 0.82182 0.26044 0.0
C125 C 0.33136 0.84867 0.27186 0.0
O126 O 0.34542 0.8519 0.26006 0.0
C127 C 0.29785 0.87361 0.23797 0.0
O128 O 0.29579 0.88874 0.24966 0.0
O129 O 0.29597 0.7775 0.25003 0.0
C130 C 0.25725 0.83523 0.50979 0.0
O131 O 0.24838 0.84808 0.52134 0.0
O132 O 0.18311 0.8329 0.52413 0.0
Zn133 Zn 0.19723 0.81323 0.50634 0.0
O134 O 0.17696 0.83186 0.48982 0.0
C135 C 0.16473 0.75738 0.50817 0.0
O136 O 0.14276 0.77397 0.50432 0.0
O137 O 0.23966 0.81961 0.50269 0.0
C138 C 0.1696 0.81905 0.47854 0.0
O139 O 0.17378 0.79017 0.47708 0.0
C140 C 0.15705 0.84179 0.52452 0.0
O141 O 0.14132 0.8399 0.51316 0.0
O142 O 0.1897 0.76907 0.50884 0.0
C143 C 0.24239 0.66404 0.75674 0.0
O144 O 0.22875 0.64223 0.75034 0.0
O145 O 0.16882 0.67216 0.74121 0.0
Zn146 Zn 0.18606 0.69468 0.75756 0.0
O147 O 0.16785 0.68147 0.77577 0.0
C148 C 0.159 0.7545 0.75639 0.0
O149 O 0.13816 0.74287 0.76393 0.0
O150 O 0.22871 0.68764 0.75997 0.0
C151 C 0.14226 0.67179 0.77738 0.0
O152 O 0.12429 0.67241 0.76679 0.0
C153 C 0.15929 0.64547 0.74139 0.0
O154 O 0.16225 0.62932 0.75274 0.0
O155 O 0.1807 0.73852 0.75326 0.0
C156 C 0.74268 0.16503 0.50774 0.0
O157 O 0.75507 0.1451 0.51582 0.0
O158 O 0.8125 0.17503 0.52612 0.0
Zn159 Zn 0.799 0.1947 0.50826 0.0
O160 O 0.82119 0.1763 0.49231 0.0
C161 C 0.82842 0.25269 0.50594 0.0
O162 O 0.84655 0.23853 0.49776 0.0
O163 O 0.75683 0.18806 0.50405 0.0
C164 C 0.81179 0.1764 0.47986 0.0
O165 O 0.78798 0.19106 0.47698 0.0
C166 C 0.83964 0.17118 0.52705 0.0
O167 O 0.856 0.17877 0.51644 0.0
O168 O 0.8067 0.23876 0.51078 0.0
C169 C 0.7654 0.33606 0.75389 0.0
O170 O 0.77853 0.3541 0.74514 0.0
O171 O 0.84066 0.32953 0.74184 0.0
Zn172 Zn 0.82243 0.30802 0.75822 0.0
O173 O 0.83937 0.32267 0.77647 0.0
C174 C 0.84825 0.2477 0.75995 0.0
O175 O 0.8664 0.25945 0.76894 0.0
O176 O 0.77966 0.31539 0.7598 0.0
C177 C 0.8646 0.33322 0.77821 0.0
O178 O 0.88301 0.33266 0.76781 0.0
C179 C 0.84896 0.35665 0.74177 0.0
O180 O 0.84409 0.3735 0.75274 0.0
O181 O 0.82839 0.2639 0.75483 0.0
C182 C 0.73789 0.35888 0.00828 0.0
O183 O 0.72767 0.38006 0.01638 0.0
O184 O 0.66781 0.35856 0.02626 0.0
Zn185 Zn 0.67789 0.33995 0.00758 0.0
O186 O 0.65992 0.36396 0.99198 0.0
C187 C 0.63388 0.29617 0.01012 0.0
O188 O 0.61823 0.32063 0.0096 0.0
O189 O 0.7209 0.33857 0.00393 0.0
C190 C 0.67032 0.36367 0.97972 0.0
O191 O 0.6924 0.34625 0.97697 0.0
C192 C 0.64647 0.37633 0.02723 0.0
O193 O 0.63333 0.38497 0.01579 0.0
O194 O 0.66104 0.2983 0.00849 0.0
C195 C 0.77049 0.16686 0.25147 0.0
O196 O 0.76383 0.15813 0.23879 0.0
O197 O 0.69887 0.14881 0.23894 0.0
Zn198 Zn 0.70807 0.17601 0.25523 0.0
O199 O 0.68825 0.1607 0.27262 0.0
C200 C 0.68431 0.23629 0.25888 0.0
O201 O 0.68129 0.22831 0.27198 0.0
O202 O 0.7506 0.17571 0.2596 0.0
C203 C 0.66409 0.14721 0.27282 0.0
O204 O 0.64952 0.14414 0.26116 0.0
C205 C 0.69791 0.12046 0.23999 0.0
O206 O 0.7041 0.10789 0.252 0.0
O207 O 0.69518 0.21787 0.25026 0.0
C208 C 0.01398 0.92954 0.31638 0.0
C209 C 0.01715 0.92221 0.33055 0.0
C210 C 0.03028 0.91487 0.30622 0.0
C211 C 0.07967 0.85062 0.29978 0.0
H212 H 0.11751 0.90656 0.27486 0.0
C213 C 0.18894 0.82675 0.27347 0.0
C214 C 0.19463 0.83885 0.26022 0.0
C215 C 0.16297 0.83282 0.28029 0.0
C216 C 0.10677 0.89044 0.28151 0.0
H217 H 0.03837 0.89216 0.34503 0.0
H218 H 0.06698 0.86682 0.32734 0.0
H219 H 0.07898 0.92392 0.28994 0.0
H220 H 0.17677 0.8655 0.24342 0.0
H221 H 0.13127 0.87582 0.25527 0.0
H222 H 0.10823 0.81733 0.29158 0.0
C223 C 0.05178 0.88377 0.32405 0.0
C224 C 0.0846 0.90042 0.29018 0.0
C225 C 0.03542 0.89841 0.33422 0.0
C226 C 0.17318 0.85601 0.25367 0.0
C227 C 0.14715 0.86206 0.26049 0.0
C228 C 0.10187 0.84061 0.29107 0.0
C229 C 0.05015 0.89257 0.30999 0.0
C230 C 0.07114 0.88079 0.29962 0.0
C231 C 0.142 0.85108 0.27401 0.0
C232 C 0.11609 0.86056 0.28203 0.0
H233 H 0.99989 0.94758 0.31317 0.0
H234 H 0.02807 0.92176 0.29544 0.0
H235 H 0.06949 0.83484 0.3068 0.0
H236 H 0.20495 0.81338 0.27882 0.0
H237 H 0.15993 0.82426 0.29074 0.0
C238 C 0.10282 0.55182 0.58553 0.0
C239 C 0.07607 0.53932 0.58187 0.0
C240 C 0.11781 0.56998 0.57609 0.0
C241 C 0.11725 0.59768 0.53901 0.0
H242 H 0.1526 0.66762 0.55576 0.0
C243 C 0.13324 0.71236 0.51173 0.0
C244 C 0.1598 0.72693 0.51378 0.0
C245 C 0.12726 0.68537 0.51853 0.0
C246 C 0.14317 0.64801 0.55092 0.0
H247 H 0.04469 0.53496 0.56521 0.0
H248 H 0.06996 0.56739 0.54909 0.0
H249 H 0.13486 0.62767 0.57062 0.0
H250 H 0.20133 0.72396 0.52413 0.0
H251 H 0.19055 0.6772 0.53622 0.0
H252 H 0.1241 0.61941 0.51932 0.0
C253 C 0.08 0.56272 0.55904 0.0
C254 C 0.13311 0.62491 0.55944 0.0
C255 C 0.06532 0.54415 0.56836 0.0
C256 C 0.18067 0.71332 0.52231 0.0
C257 C 0.17449 0.68663 0.52929 0.0
C258 C 0.12685 0.62111 0.53051 0.0
C259 C 0.10611 0.57655 0.56288 0.0
C260 C 0.11961 0.59956 0.55364 0.0
C261 C 0.14754 0.67271 0.52767 0.0
C262 C 0.13961 0.64662 0.53641 0.0
H263 H 0.11181 0.54827 0.59581 0.0
H264 H 0.13823 0.57949 0.57933 0.0
H265 H 0.10758 0.57832 0.5341 0.0
H266 H 0.11676 0.72223 0.50519 0.0
H267 H 0.10624 0.67516 0.51717 0.0
C268 C 0.45484 0.60756 0.82696 0.0
C269 C 0.46553 0.57923 0.82331 0.0
C270 C 0.43527 0.62236 0.81825 0.0
C271 C 0.40138 0.61973 0.78277 0.0
H272 H 0.33621 0.65482 0.80206 0.0
C273 C 0.28779 0.6337 0.75861 0.0
C274 C 0.27232 0.65984 0.7618 0.0
C275 C 0.31472 0.62836 0.7647 0.0
C276 C 0.35445 0.64554 0.79649 0.0
H277 H 0.4652 0.54499 0.80725 0.0
H278 H 0.43077 0.57021 0.79237 0.0
H279 H 0.37778 0.63805 0.81536 0.0
H280 H 0.27371 0.70153 0.77341 0.0
H281 H 0.32052 0.69203 0.78407 0.0
H282 H 0.37715 0.62602 0.76395 0.0
C283 C 0.4377 0.5814 0.8018 0.0
C284 C 0.3784 0.63601 0.80411 0.0
C285 C 0.45738 0.56676 0.81043 0.0
C286 C 0.28494 0.68107 0.77076 0.0
C287 C 0.31171 0.67561 0.77693 0.0
C288 C 0.37726 0.62899 0.77516 0.0
C289 C 0.42582 0.60906 0.80574 0.0
C290 C 0.402 0.62248 0.79739 0.0
C291 C 0.32663 0.64894 0.77418 0.0
C292 C 0.35337 0.64158 0.78197 0.0
H293 H 0.46084 0.6179 0.83675 0.0
H294 H 0.42702 0.64391 0.82149 0.0
H295 H 0.41936 0.60995 0.7772 0.0
H296 H 0.27873 0.61693 0.75173 0.0
H297 H 0.32564 0.6075 0.76246 0.0
C298 C 0.47681 0.91004 0.07473 0.0
C299 C 0.47625 0.93959 0.06974 0.0
C300 C 0.46508 0.88672 0.06679 0.0
C301 C 0.41161 0.8736 0.03891 0.0
H302 H 0.44499 0.7942 0.03791 0.0
C303 C 0.36105 0.77753 0.00647 0.0
C304 C 0.35976 0.74942 0.013 0.0
C305 C 0.37713 0.80088 0.01238 0.0
C306 C 0.43527 0.81621 0.03817 0.0
H307 H 0.46416 0.96757 0.05221 0.0
H308 H 0.44417 0.92695 0.03834 0.0
H309 H 0.47023 0.83437 0.05009 0.0
H310 H 0.37458 0.72384 0.03087 0.0
H311 H 0.40207 0.76442 0.04118 0.0
H312 H 0.37645 0.8554 0.02719 0.0
C313 C 0.45308 0.92184 0.0485 0.0
C314 C 0.44976 0.83923 0.04515 0.0
C315 C 0.46473 0.94511 0.05643 0.0
C316 C 0.37511 0.74515 0.0255 0.0
C317 C 0.3911 0.76841 0.03139 0.0
C318 C 0.39712 0.85059 0.03194 0.0
C319 C 0.4526 0.89244 0.05368 0.0
C320 C 0.43799 0.86816 0.04571 0.0
C321 C 0.39228 0.7966 0.02495 0.0
C322 C 0.40861 0.82153 0.0316 0.0
H323 H 0.48543 0.90504 0.08496 0.0
H324 H 0.46487 0.86438 0.07115 0.0
H325 H 0.40167 0.89549 0.03931 0.0
H326 H 0.34959 0.78155 0.99681 0.0
H327 H 0.37781 0.82224 0.00707 0.0
C328 C 0.04038 0.57148 0.95014 0.0
C329 C 0.04119 0.58064 0.93612 0.0
C330 C 0.05957 0.58356 0.95988 0.0
C331 C 0.11261 0.64429 0.96646 0.0
H332 H 0.15186 0.58303 0.98783 0.0
C333 C 0.22362 0.66296 0.99285 0.0
C334 C 0.23041 0.64652 0.0049 0.0
C335 C 0.19724 0.65866 0.98602 0.0
C336 C 0.14082 0.60063 0.98222 0.0
H337 H 0.06157 0.61123 0.92158 0.0
H338 H 0.0951 0.63227 0.93859 0.0
H339 H 0.1113 0.56944 0.97317 0.0
H340 H 0.21392 0.61434 0.01981 0.0
H341 H 0.16764 0.60757 0.00821 0.0
H342 H 0.14248 0.67546 0.97543 0.0
C343 C 0.07956 0.61576 0.94205 0.0
C344 C 0.1175 0.59277 0.97376 0.0
C345 C 0.06036 0.60363 0.93228 0.0
C346 C 0.20952 0.62711 0.01046 0.0
C347 C 0.18303 0.62306 0.00372 0.0
C348 C 0.13589 0.65224 0.97504 0.0
C349 C 0.08002 0.60513 0.95585 0.0
C350 C 0.1033 0.6144 0.96565 0.0
C351 C 0.17689 0.63804 0.99116 0.0
C352 C 0.15054 0.63042 0.98291 0.0
H353 H 0.02573 0.55403 0.95351 0.0
H354 H 0.05898 0.5753 0.97049 0.0
H355 H 0.10196 0.66153 0.96044 0.0
H356 H 0.23924 0.67806 0.98826 0.0
H357 H 0.19349 0.67045 0.97633 0.0
C358 C 0.43113 0.54261 0.20541 0.0
C359 C 0.42326 0.53597 0.19159 0.0
C360 C 0.41515 0.5631 0.21327 0.0
C361 C 0.36684 0.62761 0.2078 0.0
H362 H 0.35937 0.62505 0.24804 0.0
C363 C 0.30925 0.72143 0.23792 0.0
C364 C 0.32388 0.73266 0.24966 0.0
C365 C 0.31801 0.69476 0.23163 0.0
C366 C 0.36139 0.6261 0.23681 0.0
H367 H 0.39116 0.54388 0.17558 0.0
H368 H 0.36284 0.57889 0.1894 0.0
H369 H 0.37968 0.58218 0.23566 0.0
H370 H 0.35854 0.72394 0.26429 0.0
H371 H 0.37388 0.67739 0.25326 0.0
H372 H 0.34889 0.67156 0.20893 0.0
C373 C 0.38188 0.56902 0.19403 0.0
C374 C 0.37305 0.60156 0.2297 0.0
C375 C 0.39799 0.54874 0.18614 0.0
C376 C 0.34683 0.71598 0.25525 0.0
C377 C 0.35553 0.6892 0.24897 0.0
C378 C 0.35507 0.65201 0.21488 0.0
C379 C 0.39079 0.57725 0.20753 0.0
C380 C 0.37622 0.60213 0.21511 0.0
C381 C 0.34155 0.67857 0.23694 0.0
C382 C 0.35247 0.6517 0.22947 0.0
H383 H 0.4505 0.5332 0.20994 0.0
H384 H 0.42284 0.56898 0.22357 0.0
H385 H 0.3695 0.62924 0.19662 0.0
H386 H 0.29137 0.73357 0.23338 0.0
H387 H 0.30653 0.68695 0.22249 0.0
C388 C 0.47771 0.93873 0.45854 0.0
C389 C 0.4767 0.93504 0.44399 0.0
C390 C 0.45866 0.92309 0.46718 0.0
C391 C 0.40621 0.86044 0.46864 0.0
H392 H 0.36536 0.91238 0.49428 0.0
C393 C 0.29424 0.83105 0.49086 0.0
C394 C 0.28655 0.84122 0.50423 0.0
C395 C 0.32074 0.83892 0.48497 0.0
C396 C 0.37686 0.8973 0.48742 0.0
H397 H 0.4562 0.91038 0.4272 0.0
H398 H 0.42303 0.88306 0.44229 0.0
H399 H 0.40653 0.93161 0.48141 0.0
H400 H 0.30134 0.86651 0.52214 0.0
H401 H 0.34791 0.87974 0.51198 0.0
H402 H 0.37626 0.82622 0.47453 0.0
C403 C 0.43856 0.89807 0.44702 0.0
C404 C 0.4005 0.90838 0.48001 0.0
C405 C 0.45754 0.91381 0.43836 0.0
C406 C 0.30649 0.85849 0.51179 0.0
C407 C 0.33313 0.86622 0.50592 0.0
C408 C 0.38266 0.84926 0.47615 0.0
C409 C 0.43827 0.90328 0.46148 0.0
C410 C 0.41515 0.89026 0.47035 0.0
C411 C 0.34038 0.857 0.49232 0.0
C412 C 0.36732 0.86773 0.48544 0.0
H413 H 0.49232 0.95473 0.46325 0.0
H414 H 0.45929 0.92721 0.4783 0.0
H415 H 0.41727 0.84584 0.4614 0.0
H416 H 0.27941 0.81773 0.48472 0.0
H417 H 0.32529 0.83173 0.47442 0.0
C418 C 0.10565 0.96271 0.67863 0.0
C419 C 0.07937 0.97583 0.68259 0.0
C420 C 0.12067 0.9442 0.68789 0.0
C421 C 0.1219 0.9166 0.7249 0.0
H422 H 0.14884 0.84352 0.70751 0.0
C423 C 0.13206 0.80281 0.75339 0.0
C424 C 0.15584 0.78464 0.75012 0.0
C425 C 0.12761 0.82983 0.74633 0.0
C426 C 0.14185 0.86396 0.71253 0.0
H427 H 0.04948 0.98161 0.6998 0.0
H428 H 0.075 0.94895 0.71569 0.0
H429 H 0.13328 0.88496 0.693 0.0
H430 H 0.19428 0.78132 0.73728 0.0
H431 H 0.18631 0.82823 0.72494 0.0
H432 H 0.12919 0.89462 0.74447 0.0
C433 C 0.0844 0.95308 0.70554 0.0
C434 C 0.13303 0.88788 0.7042 0.0
C435 C 0.06958 0.97178 0.69634 0.0
C436 C 0.17565 0.79466 0.74003 0.0
C437 C 0.17106 0.8215 0.73291 0.0
C438 C 0.13043 0.89248 0.73324 0.0
C439 C 0.10962 0.93819 0.70129 0.0
C440 C 0.12246 0.91438 0.71025 0.0
C441 C 0.14671 0.8391 0.73579 0.0
C442 C 0.14009 0.86576 0.72713 0.0
H443 H 0.11396 0.96556 0.66816 0.0
H444 H 0.14042 0.93375 0.68437 0.0
H445 H 0.1144 0.9368 0.72995 0.0
H446 H 0.11643 0.7958 0.76112 0.0
H447 H 0.10853 0.84283 0.74872 0.0
C448 C 0.55037 0.45308 0.79691 0.0
C449 C 0.54139 0.44546 0.81045 0.0
C450 C 0.56966 0.4349 0.78965 0.0
C451 C 0.62722 0.38056 0.79674 0.0
H452 H 0.63027 0.37579 0.7564 0.0
C453 C 0.7224 0.32439 0.76875 0.0
C454 C 0.7352 0.34177 0.75819 0.0
C455 C 0.69527 0.33182 0.77404 0.0
C456 C 0.62968 0.37694 0.76767 0.0
H457 H 0.54404 0.41161 0.82658 0.0
H458 H 0.57732 0.37947 0.81377 0.0
H459 H 0.5878 0.39706 0.76773 0.0
H460 H 0.72877 0.37963 0.74441 0.0
H461 H 0.68137 0.39261 0.75367 0.0
H462 H 0.66925 0.36094 0.79668 0.0
C463 C 0.56997 0.39994 0.8089 0.0
C464 C 0.60538 0.38914 0.77418 0.0
C465 C 0.55072 0.41825 0.81621 0.0
C466 C 0.71959 0.36584 0.75257 0.0
C467 C 0.69235 0.37318 0.75782 0.0
C468 C 0.65137 0.36818 0.79025 0.0
C469 C 0.58035 0.40851 0.7957 0.0
C470 C 0.60414 0.39175 0.78879 0.0
C471 C 0.68022 0.35668 0.76885 0.0
C472 C 0.65314 0.36681 0.77564 0.0
H473 H 0.54353 0.47382 0.79211 0.0
H474 H 0.57734 0.44245 0.77958 0.0
H475 H 0.62733 0.38264 0.80799 0.0
H476 H 0.73371 0.30556 0.77327 0.0
H477 H 0.68631 0.31845 0.7824 0.0
C478 C 0.51925 0.08859 0.07304 0.0
C479 C 0.53855 0.06493 0.07542 0.0
C480 C 0.52716 0.11267 0.06451 0.0
C481 C 0.58067 0.13545 0.03752 0.0
H482 H 0.5612 0.21574 0.04946 0.0
C483 C 0.63742 0.24185 0.01662 0.0
C484 C 0.62054 0.26759 0.0146 0.0
C485 C 0.62534 0.21606 0.0225 0.0
C486 C 0.56646 0.19344 0.04586 0.0
H487 H 0.58128 0.04798 0.07063 0.0
H488 H 0.59517 0.08996 0.05606 0.0
H489 H 0.54375 0.17303 0.06278 0.0
H490 H 0.57739 0.2859 0.01659 0.0
H491 H 0.55641 0.24095 0.02677 0.0
H492 H 0.604 0.15603 0.02078 0.0
C493 C 0.57372 0.08979 0.06053 0.0
C494 C 0.55642 0.16893 0.05349 0.0
C495 C 0.5658 0.06576 0.069 0.0
C496 C 0.59107 0.26654 0.01806 0.0
C497 C 0.57906 0.24084 0.02399 0.0
C498 C 0.59083 0.15999 0.02992 0.0
C499 C 0.55457 0.1136 0.05818 0.0
C500 C 0.56365 0.13961 0.04951 0.0
C501 C 0.59617 0.21551 0.02654 0.0
C502 C 0.58406 0.18928 0.03407 0.0
H503 H 0.49804 0.08856 0.07778 0.0
H504 H 0.51175 0.13047 0.0628 0.0
H505 H 0.58622 0.11317 0.034 0.0
H506 H 0.66018 0.2419 0.01408 0.0
H507 H 0.63916 0.19699 0.02441 0.0
C508 C 0.96525 0.09008 0.32343 0.0
C509 C 0.98382 0.06785 0.31825 0.0
C510 C 0.94893 0.10761 0.3143 0.0
C511 C 0.91637 0.10054 0.27974 0.0
H512 H 0.88907 0.18085 0.28728 0.0
C513 C 0.82193 0.15042 0.2486 0.0
C514 C 0.80028 0.16349 0.25684 0.0
C515 C 0.8491 0.14422 0.25427 0.0
C516 C 0.8965 0.1584 0.28503 0.0
H517 H 0.00191 0.04867 0.29941 0.0
H518 H 0.97375 0.07956 0.28351 0.0
H519 H 0.92958 0.16076 0.3006 0.0
H520 H 0.79074 0.18175 0.2773 0.0
H521 H 0.83775 0.17059 0.28718 0.0
H522 H 0.8827 0.09761 0.2646 0.0
C523 C 0.97127 0.08291 0.29463 0.0
C524 C 0.91972 0.14692 0.29265 0.0
C525 C 0.98756 0.06533 0.30376 0.0
C526 C 0.80686 0.17155 0.27065 0.0
C527 C 0.83396 0.16536 0.2763 0.0
C528 C 0.8932 0.112 0.27214 0.0
C529 C 0.95091 0.10339 0.2998 0.0
C530 C 0.92946 0.11756 0.29034 0.0
C531 C 0.85521 0.151 0.26828 0.0
C532 C 0.88247 0.14077 0.27494 0.0
H533 H 0.96194 0.09274 0.33453 0.0
H534 H 0.93339 0.12305 0.31867 0.0
H535 H 0.92294 0.07768 0.27782 0.0
H536 H 0.81766 0.14412 0.2379 0.0
H537 H 0.86513 0.13352 0.24775 0.0
C538 C 0.91672 0.46337 0.57442 0.0
C539 C 0.94235 0.47442 0.56852 0.0
C540 C 0.89848 0.44467 0.5667 0.0
C541 C 0.88558 0.41383 0.53083 0.0
H542 H 0.85799 0.34487 0.55141 0.0
C543 C 0.85917 0.29898 0.50595 0.0
C544 C 0.83519 0.28317 0.51109 0.0
C545 C 0.86746 0.32616 0.51199 0.0
C546 C 0.86513 0.3642 0.54553 0.0
H547 H 0.96802 0.47588 0.54961 0.0
H548 H 0.93691 0.44282 0.53639 0.0
H549 H 0.88054 0.38602 0.56387 0.0
H550 H 0.80032 0.28429 0.5262 0.0
H551 H 0.81497 0.33151 0.53676 0.0
H552 H 0.87133 0.39096 0.51241 0.0
C553 C 0.93044 0.44885 0.54686 0.0
C554 C 0.87799 0.38794 0.55269 0.0
C555 C 0.94848 0.46774 0.55451 0.0
C556 C 0.81898 0.29578 0.52201 0.0
C557 C 0.82742 0.32278 0.52811 0.0
C558 C 0.873 0.38988 0.52366 0.0
C559 C 0.9056 0.43637 0.55296 0.0
C560 C 0.88884 0.41288 0.54543 0.0
C561 C 0.85207 0.33795 0.52336 0.0
C562 C 0.86302 0.36463 0.53092 0.0
H563 H 0.91123 0.46831 0.58515 0.0
H564 H 0.87919 0.43606 0.57165 0.0
H565 H 0.89317 0.43288 0.5249 0.0
H566 H 0.87208 0.28994 0.49754 0.0
H567 H 0.88667 0.33726 0.50817 0.0
C568 C 0.53396 0.06368 0.44544 0.0
C569 C 0.53361 0.07394 0.43157 0.0
C570 C 0.55197 0.07703 0.45532 0.0
C571 C 0.59726 0.143 0.4632 0.0
H572 H 0.64532 0.08528 0.48241 0.0
C573 C 0.70465 0.17534 0.48982 0.0
C574 C 0.71409 0.15885 0.50143 0.0
C575 C 0.67935 0.16739 0.48281 0.0
C576 C 0.63176 0.10181 0.47742 0.0
H577 H 0.55044 0.1077 0.41751 0.0
H578 H 0.58178 0.13116 0.43484 0.0
H579 H 0.60629 0.06794 0.46759 0.0
H580 H 0.70349 0.12212 0.51526 0.0
H581 H 0.65884 0.10882 0.50333 0.0
H582 H 0.62281 0.17692 0.47301 0.0
C583 C 0.56814 0.11269 0.43801 0.0
C584 C 0.60938 0.09181 0.46886 0.0
C585 C 0.55022 0.09919 0.42807 0.0
C586 C 0.69695 0.1351 0.50627 0.0
C587 C 0.67143 0.12736 0.49935 0.0
C588 C 0.61951 0.15307 0.4719 0.0
C589 C 0.5699 0.1011 0.45162 0.0
C590 C 0.5921 0.11224 0.46152 0.0
C591 C 0.66264 0.14293 0.48731 0.0
C592 C 0.63734 0.13258 0.47898 0.0
H593 H 0.52129 0.04443 0.44855 0.0
H594 H 0.55252 0.06793 0.46578 0.0
H595 H 0.58413 0.15926 0.45775 0.0
H596 H 0.71741 0.1937 0.48577 0.0
H597 H 0.6736 0.1797 0.4735 0.0
C598 C 0.91608 0.02925 0.69142 0.0
C599 C 0.94124 0.01653 0.69704 0.0
C600 C 0.89937 0.049 0.69934 0.0
C601 C 0.89036 0.08155 0.73517 0.0
H602 H 0.86905 0.15249 0.71436 0.0
C603 C 0.87482 0.19874 0.75985 0.0
C604 C 0.85258 0.21689 0.75461 0.0
C605 C 0.88058 0.17085 0.75383 0.0
C606 C 0.87441 0.13268 0.72031 0.0
H607 H 0.96721 0.01276 0.71578 0.0
H608 H 0.9387 0.04754 0.72939 0.0
H609 H 0.88714 0.10901 0.70202 0.0
H610 H 0.8181 0.2193 0.73933 0.0
H611 H 0.82829 0.17083 0.72884 0.0
H612 H 0.87882 0.10615 0.75354 0.0
C613 C 0.93152 0.04215 0.71895 0.0
C614 C 0.8847 0.10759 0.71322 0.0
C615 C 0.94804 0.02222 0.71108 0.0
C616 C 0.83552 0.20601 0.74359 0.0
C617 C 0.8414 0.17827 0.73752 0.0
C618 C 0.88031 0.10683 0.74228 0.0
C619 C 0.90757 0.05667 0.71302 0.0
C620 C 0.89326 0.08182 0.72055 0.0
C621 C 0.86433 0.16063 0.7424 0.0
C622 C 0.87262 0.13281 0.73493 0.0
H623 H 0.91005 0.02514 0.68068 0.0
H624 H 0.88064 0.05913 0.69455 0.0
H625 H 0.89629 0.06198 0.74115 0.0
H626 H 0.88832 0.2064 0.76835 0.0
H627 H 0.89854 0.15786 0.75775 0.0
C628 C 0.95327 0.42172 0.9411 0.0
C629 C 0.96713 0.4459 0.94768 0.0
C630 C 0.93257 0.40479 0.94826 0.0
C631 C 0.90043 0.39172 0.98365 0.0
H632 H 0.8306 0.37703 0.96248 0.0
C633 C 0.78731 0.38175 0.00841 0.0
C634 C 0.76779 0.36085 0.00284 0.0
C635 C 0.81443 0.38596 0.00232 0.0
C636 C 0.85008 0.38048 0.96851 0.0
H637 H 0.97142 0.46996 0.96722 0.0
H638 H 0.93522 0.44108 0.97952 0.0
H639 H 0.87362 0.39482 0.95057 0.0
H640 H 0.76191 0.32717 0.98679 0.0
H641 H 0.80919 0.33476 0.97611 0.0
H642 H 0.8762 0.37869 0.0017 0.0
C643 C 0.9404 0.43479 0.96891 0.0
C644 C 0.87486 0.39061 0.96167 0.0
C645 C 0.96112 0.45157 0.9618 0.0
C646 C 0.77642 0.34348 0.99135 0.0
C647 C 0.80344 0.34792 0.98517 0.0
C648 C 0.87554 0.38184 0.99051 0.0
C649 C 0.92522 0.41171 0.96214 0.0
C650 C 0.90022 0.39701 0.96918 0.0
C651 C 0.82255 0.36956 0.99045 0.0
C652 C 0.84992 0.37668 0.98306 0.0
H653 H 0.95748 0.41665 0.93025 0.0
H654 H 0.92175 0.38682 0.94279 0.0
H655 H 0.91969 0.3958 0.98975 0.0
H656 H 0.78138 0.39545 0.01727 0.0
H657 H 0.82856 0.403 0.00656 0.0
C658 C 0.55917 0.46359 0.22074 0.0
C659 C 0.56096 0.46682 0.20619 0.0
C660 C 0.57681 0.44316 0.22773 0.0
C661 C 0.64048 0.39283 0.22366 0.0
H662 H 0.59899 0.34373 0.2503 0.0
C663 C 0.67803 0.27477 0.24008 0.0
C664 C 0.67416 0.26598 0.25404 0.0
C665 C 0.66732 0.30215 0.23533 0.0
C666 C 0.6111 0.35749 0.24307 0.0
H667 H 0.58404 0.45245 0.18769 0.0
H668 H 0.61443 0.41655 0.19982 0.0
H669 H 0.5756 0.38726 0.24021 0.0
H670 H 0.65661 0.27954 0.27402 0.0
H671 H 0.63795 0.32735 0.26571 0.0
H672 H 0.6757 0.36231 0.22625 0.0
C673 C 0.59961 0.42997 0.20589 0.0
C674 C 0.59769 0.38255 0.23729 0.0
C675 C 0.58208 0.45055 0.19891 0.0
C676 C 0.65986 0.28553 0.26319 0.0
C677 C 0.64905 0.31288 0.25842 0.0
C678 C 0.65388 0.36764 0.22941 0.0
C679 C 0.59656 0.42534 0.22033 0.0
C680 C 0.61205 0.40036 0.22737 0.0
C681 C 0.65241 0.32139 0.2444 0.0
C682 C 0.63919 0.34946 0.23905 0.0
H683 H 0.54333 0.476 0.22668 0.0
H684 H 0.57435 0.4407 0.23889 0.0
H685 H 0.65234 0.40625 0.2162 0.0
H686 H 0.68898 0.26029 0.23274 0.0
H687 H 0.66999 0.30783 0.22443 0.0
C688 C 0.0531 0.97692 0.39128 0.0
C689 C 0.0656 0.97714 0.37791 0.0
C690 C 0.06604 0.96121 0.40218 0.0
C691 C 0.133 0.92904 0.41526 0.0
H692 H 0.08286 0.87188 0.43377 0.0
C693 C 0.16212 0.86832 0.46671 0.0
C694 C 0.15806 0.83713 0.46688 0.0
C695 C 0.15205 0.88549 0.45557 0.0
C696 C 0.09711 0.88766 0.42866 0.0
H697 H 0.10247 0.96252 0.36578 0.0
H698 H 0.12549 0.93564 0.38505 0.0
H699 H 0.06372 0.90332 0.41508 0.0
H700 H 0.13997 0.79957 0.45556 0.0
H701 H 0.1216 0.82985 0.43621 0.0
H702 H 0.16628 0.91368 0.42906 0.0
C703 C 0.10545 0.94739 0.38695 0.0
C704 C 0.08613 0.90578 0.41806 0.0
C705 C 0.09227 0.96278 0.37594 0.0
C706 C 0.14344 0.82353 0.45572 0.0
C707 C 0.13289 0.84083 0.44468 0.0
C708 C 0.14387 0.91127 0.42606 0.0
C709 C 0.09198 0.94576 0.40005 0.0
C710 C 0.10395 0.92666 0.41127 0.0
C711 C 0.13726 0.87195 0.44447 0.0
C712 C 0.12601 0.89039 0.43285 0.0
H713 H 0.03262 0.98778 0.39322 0.0
H714 H 0.05543 0.96062 0.41224 0.0
H715 H 0.14714 0.94499 0.4102 0.0
H716 H 0.17342 0.87947 0.47513 0.0
H717 H 0.15547 0.90947 0.45572 0.0
C718 C 0.99321 0.54165 0.65451 0.0
C719 C 0.99643 0.55272 0.64087 0.0
C720 C 0.00889 0.55409 0.66553 0.0
C721 C 0.07598 0.59721 0.67163 0.0
H722 H 0.04869 0.59902 0.70982 0.0
C723 C 0.14109 0.65019 0.71688 0.0
C724 C 0.14202 0.63419 0.72949 0.0
C725 C 0.12305 0.64093 0.70602 0.0
C726 C 0.05667 0.59841 0.69921 0.0
H727 H 0.01693 0.58703 0.62834 0.0
H728 H 0.04337 0.60951 0.64765 0.0
H729 H 0.01585 0.58407 0.69119 0.0
H730 H 0.125 0.59563 0.74049 0.0
H731 H 0.09344 0.57952 0.72152 0.0
H732 H 0.11673 0.61181 0.67969 0.0
C733 C 0.02953 0.59051 0.64976 0.0
C734 C 0.03785 0.58985 0.68852 0.0
C735 C 0.0141 0.57785 0.6387 0.0
C736 C 0.12486 0.60842 0.73091 0.0
C737 C 0.10659 0.59933 0.72009 0.0
C738 C 0.09469 0.60601 0.6823 0.0
C739 C 0.0279 0.57815 0.66323 0.0
C740 C 0.0473 0.58895 0.67459 0.0
C741 C 0.10531 0.61563 0.70757 0.0
C742 C 0.08531 0.60652 0.69622 0.0
H743 H 0.97993 0.52219 0.65656 0.0
H744 H 0.00719 0.54376 0.67571 0.0
H745 H 0.08429 0.59618 0.6611 0.0
H746 H 0.15401 0.67016 0.71545 0.0
H747 H 0.12243 0.65405 0.69653 0.0
C748 C 0.40855 0.52916 0.87273 0.0
C749 C 0.43232 0.50967 0.87245 0.0
C750 C 0.39781 0.53986 0.8854 0.0
C751 C 0.4236 0.55554 0.9208 0.0
H752 H 0.34335 0.5741 0.92809 0.0
C753 C 0.38907 0.63825 0.96383 0.0
C754 C 0.3649 0.63062 0.97192 0.0
C755 C 0.39635 0.62137 0.95207 0.0
C756 C 0.36583 0.56883 0.92627 0.0
H757 H 0.46194 0.48427 0.88536 0.0
H758 H 0.44291 0.50258 0.90743 0.0
H759 H 0.35626 0.54585 0.90721 0.0
H760 H 0.32939 0.59922 0.97397 0.0
H761 H 0.34218 0.56978 0.95353 0.0
H762 H 0.43321 0.57846 0.93983 0.0
C763 C 0.433 0.51012 0.89783 0.0
C764 C 0.37324 0.55286 0.91425 0.0
C765 C 0.44372 0.4994 0.88516 0.0
C766 C 0.34814 0.60577 0.96797 0.0
C767 C 0.35537 0.58896 0.9562 0.0
C768 C 0.41621 0.57157 0.93277 0.0
C769 C 0.41059 0.53127 0.89807 0.0
C770 C 0.40225 0.54621 0.91133 0.0
C771 C 0.37957 0.59652 0.94812 0.0
C772 C 0.38727 0.57864 0.93559 0.0
H773 H 0.39921 0.53751 0.86314 0.0
H774 H 0.3806 0.55621 0.8852 0.0
H775 H 0.4462 0.55119 0.91878 0.0
H776 H 0.40241 0.65728 0.96656 0.0
H777 H 0.41493 0.62803 0.94596 0.0
C778 C 0.42544 0.99216 0.14091 0.0
C779 C 0.42344 0.97657 0.1282 0.0
C780 C 0.40819 0.98396 0.15228 0.0
C781 C 0.37222 0.91772 0.16634 0.0
H782 H 0.33502 0.97284 0.19181 0.0
C783 C 0.30473 0.87375 0.2121 0.0
C784 C 0.30746 0.88846 0.22497 0.0
C785 C 0.31591 0.8865 0.19995 0.0
C786 C 0.34552 0.95715 0.18488 0.0
H787 H 0.40056 0.94126 0.11727 0.0
H788 H 0.37063 0.92706 0.13705 0.0
H789 H 0.35986 0.99212 0.17118 0.0
H790 H 0.32343 0.92851 0.23513 0.0
H791 H 0.34369 0.95043 0.21399 0.0
H792 H 0.35892 0.88284 0.1801 0.0
C793 C 0.38577 0.94535 0.13828 0.0
C794 C 0.35967 0.96822 0.17304 0.0
C795 C 0.40285 0.95362 0.12692 0.0
C796 C 0.32089 0.91666 0.22536 0.0
C797 C 0.3324 0.92928 0.21321 0.0
C798 C 0.35836 0.9067 0.17819 0.0
C799 C 0.38875 0.95991 0.15118 0.0
C800 C 0.37309 0.94858 0.16363 0.0
C801 C 0.33048 0.91412 0.20038 0.0
C802 C 0.34474 0.92621 0.18762 0.0
H803 H 0.44107 0.00996 0.14225 0.0
H804 H 0.41104 0.99553 0.16211 0.0
H805 H 0.38288 0.90205 0.15945 0.0
H806 H 0.2942 0.85215 0.21142 0.0
H807 H 0.31335 0.87448 0.19023 0.0
C808 C 0.09936 0.53733 0.88765 0.0
C809 C 0.07447 0.51938 0.88699 0.0
C810 C 0.11004 0.55137 0.87566 0.0
C811 C 0.10282 0.55427 0.83681 0.0
H812 H 0.12517 0.63716 0.84197 0.0
C813 C 0.10959 0.63796 0.79105 0.0
C814 C 0.13435 0.6561 0.79045 0.0
C815 C 0.10375 0.6207 0.80289 0.0
C816 C 0.11924 0.61397 0.84037 0.0
H817 H 0.04247 0.50055 0.87298 0.0
H818 H 0.06066 0.52526 0.85226 0.0
H819 H 0.11428 0.60629 0.86223 0.0
H820 H 0.17193 0.67101 0.80203 0.0
H821 H 0.16147 0.64122 0.82275 0.0
H822 H 0.10701 0.56238 0.81488 0.0
C823 C 0.07222 0.52839 0.86196 0.0
C824 C 0.11316 0.59615 0.85199 0.0
C825 C 0.06168 0.51422 0.87391 0.0
C826 C 0.15265 0.6573 0.80214 0.0
C827 C 0.14665 0.64028 0.81403 0.0
C828 C 0.10865 0.57217 0.82518 0.0
C829 C 0.096 0.5479 0.86274 0.0
C830 C 0.10465 0.5661 0.85038 0.0
C831 C 0.12238 0.62143 0.81445 0.0
C832 C 0.11671 0.60229 0.82683 0.0
H833 H 0.10987 0.54167 0.89753 0.0
H834 H 0.12882 0.56564 0.8766 0.0
H835 H 0.09682 0.53113 0.83514 0.0
H836 H 0.09508 0.63644 0.78222 0.0
H837 H 0.08466 0.60671 0.80298 0.0
C838 C 0.51037 0.53671 0.12111 0.0
C839 C 0.50124 0.54415 0.13464 0.0
C840 C 0.49515 0.54692 0.10947 0.0
C841 C 0.43844 0.60018 0.09766 0.0
H842 H 0.4264 0.5403 0.06898 0.0
C843 C 0.35816 0.61734 0.05203 0.0
C844 C 0.36942 0.61096 0.03876 0.0
C845 C 0.37309 0.6086 0.06406 0.0
C846 C 0.42968 0.55732 0.07686 0.0
H847 H 0.46996 0.56976 0.14649 0.0
H848 H 0.44331 0.58728 0.12623 0.0
H849 H 0.45652 0.52861 0.08903 0.0
H850 H 0.40438 0.58923 0.02768 0.0
H851 H 0.43011 0.57374 0.04857 0.0
H852 H 0.41127 0.62876 0.08545 0.0
C853 C 0.46234 0.57372 0.12458 0.0
C854 C 0.44712 0.55071 0.08832 0.0
C855 C 0.47766 0.56364 0.13622 0.0
C856 C 0.39515 0.59453 0.03775 0.0
C857 C 0.40987 0.58555 0.04973 0.0
C858 C 0.42084 0.60674 0.08621 0.0
C859 C 0.47034 0.56468 0.11108 0.0
C860 C 0.45195 0.57213 0.09882 0.0
C861 C 0.39934 0.59299 0.06302 0.0
C862 C 0.41645 0.58544 0.07563 0.0
H863 H 0.52854 0.5219 0.11949 0.0
H864 H 0.50239 0.54017 0.09921 0.0
H865 H 0.44185 0.61729 0.10548 0.0
H866 H 0.33844 0.63008 0.05314 0.0
H867 H 0.3643 0.61435 0.07417 0.0
C868 C 0.43157 0.98814 0.37057 0.0
C869 C 0.42224 0.97868 0.38381 0.0
C870 C 0.41879 0.97669 0.35849 0.0
C871 C 0.37915 0.90941 0.34697 0.0
H872 H 0.37264 0.95268 0.31209 0.0
C873 C 0.328 0.85768 0.29759 0.0
C874 C 0.34203 0.86293 0.28482 0.0
C875 C 0.33674 0.87255 0.30968 0.0
C876 C 0.37457 0.94026 0.32174 0.0
H877 H 0.39049 0.9518 0.39473 0.0
H878 H 0.36764 0.93256 0.37368 0.0
H879 H 0.3873 0.97923 0.33319 0.0
H880 H 0.37654 0.88774 0.27482 0.0
H881 H 0.39186 0.91368 0.29599 0.0
H882 H 0.36641 0.87048 0.33552 0.0
C883 C 0.38548 0.94805 0.37261 0.0
C884 C 0.38293 0.95547 0.33384 0.0
C885 C 0.39841 0.95932 0.38469 0.0
C886 C 0.36529 0.88313 0.28448 0.0
C887 C 0.37391 0.89819 0.29658 0.0
C888 C 0.37063 0.89428 0.33491 0.0
C889 C 0.39621 0.95571 0.35936 0.0
C890 C 0.38549 0.9402 0.34661 0.0
C891 C 0.35962 0.89319 0.3093 0.0
C892 C 0.36842 0.90947 0.32214 0.0
H893 H 0.44991 0.003 0.36949 0.0
H894 H 0.42774 0.98304 0.34849 0.0
H895 H 0.3815 0.89672 0.35652 0.0
H896 H 0.30997 0.84229 0.29823 0.0
H897 H 0.32515 0.86837 0.31929 0.0
C898 C 0.01466 0.92667 0.62389 0.0
C899 C 0.02636 0.92238 0.63726 0.0
C900 C 0.02792 0.91412 0.61218 0.0
C901 C 0.09935 0.8912 0.6001 0.0
H902 H 0.05749 0.85787 0.56875 0.0
C903 C 0.15713 0.84646 0.55064 0.0
C904 C 0.14352 0.85148 0.53776 0.0
C905 C 0.14299 0.85334 0.56314 0.0
C906 C 0.06951 0.86745 0.57734 0.0
H907 H 0.06036 0.90023 0.64887 0.0
H908 H 0.08346 0.87836 0.62841 0.0
H909 H 0.03154 0.87122 0.58996 0.0
H910 H 0.10484 0.86866 0.5279 0.0
H911 H 0.08065 0.88143 0.54957 0.0
H912 H 0.13719 0.88827 0.5874 0.0
C913 C 0.06417 0.89165 0.627 0.0
C914 C 0.05461 0.87495 0.58952 0.0
C915 C 0.05075 0.90397 0.63873 0.0
C916 C 0.11586 0.86429 0.53764 0.0
C917 C 0.10185 0.87136 0.5501 0.0
C918 C 0.11423 0.88391 0.58788 0.0
C919 C 0.0533 0.89719 0.61357 0.0
C920 C 0.06932 0.88714 0.60099 0.0
C921 C 0.11502 0.86559 0.56303 0.0
C922 C 0.09946 0.87223 0.57628 0.0
H923 H 0.99589 0.94071 0.62239 0.0
H924 H 0.01909 0.91891 0.60197 0.0
H925 H 0.11124 0.90097 0.60869 0.0
H926 H 0.17837 0.83645 0.55109 0.0
H927 H 0.15373 0.84835 0.57289 0.0
C928 C 0.54958 0.52543 0.89429 0.0
C929 C 0.55731 0.5175 0.8806 0.0
C930 C 0.56495 0.51416 0.90566 0.0
C931 C 0.63125 0.4733 0.91631 0.0
H932 H 0.58048 0.43853 0.94407 0.0
C933 C 0.6694 0.38283 0.95516 0.0
C934 C 0.65854 0.38373 0.96883 0.0
C935 C 0.65866 0.40213 0.94494 0.0
C936 C 0.59506 0.44849 0.93657 0.0
H937 H 0.58884 0.49365 0.86813 0.0
H938 H 0.61553 0.47395 0.88796 0.0
H939 H 0.56032 0.46905 0.92553 0.0
H940 H 0.62806 0.40589 0.98252 0.0
H941 H 0.60956 0.43974 0.96476 0.0
H942 H 0.66597 0.45226 0.92729 0.0
C943 C 0.59758 0.48885 0.88992 0.0
C944 C 0.58349 0.46607 0.92593 0.0
C945 C 0.58221 0.50012 0.87853 0.0
C946 C 0.63676 0.40445 0.97207 0.0
C947 C 0.62609 0.42381 0.96186 0.0
C948 C 0.64286 0.45574 0.927 0.0
C949 C 0.58842 0.49477 0.90362 0.0
C950 C 0.60138 0.47845 0.91558 0.0
C951 C 0.63685 0.42286 0.94815 0.0
C952 C 0.62485 0.44284 0.93718 0.0
H953 H 0.53068 0.53899 0.89628 0.0
H954 H 0.55773 0.51968 0.91609 0.0
H955 H 0.64564 0.48274 0.90858 0.0
H956 H 0.68616 0.36713 0.95231 0.0
H957 H 0.66713 0.40044 0.93445 0.0
C958 C 0.58149 0.01649 0.13735 0.0
C959 C 0.56247 0.99245 0.13958 0.0
C960 C 0.60007 0.02607 0.14792 0.0
C961 C 0.60695 0.02378 0.18641 0.0
H962 H 0.68028 0.06236 0.17887 0.0
C963 C 0.67851 0.07241 0.23027 0.0
C964 C 0.68742 0.10213 0.22816 0.0
C965 C 0.66639 0.05589 0.21935 0.0
C966 C 0.65983 0.05165 0.18111 0.0
H967 H 0.54939 0.95841 0.15439 0.0
H968 H 0.58252 0.97441 0.17267 0.0
H969 H 0.6542 0.0378 0.15994 0.0
H970 H 0.69158 0.13745 0.21278 0.0
H971 H 0.67075 0.10845 0.19369 0.0
H972 H 0.61271 0.03765 0.20759 0.0
C973 C 0.58244 0.98654 0.1629 0.0
C974 C 0.6448 0.03766 0.17027 0.0
C975 C 0.56359 0.97717 0.15237 0.0
C976 C 0.68486 0.11463 0.21477 0.0
C977 C 0.67308 0.09797 0.20381 0.0
C978 C 0.62216 0.03744 0.19727 0.0
C979 C 0.60039 0.01164 0.16096 0.0
C980 C 0.61788 0.02398 0.17271 0.0
C981 C 0.66329 0.0686 0.20604 0.0
C982 C 0.64851 0.05195 0.1947 0.0
H983 H 0.58113 0.02885 0.12764 0.0
H984 H 0.61323 0.04568 0.14604 0.0
H985 H 0.5861 0.01404 0.1887 0.0
H986 H 0.68015 0.06213 0.24047 0.0
H987 H 0.65921 0.03322 0.22135 0.0
C988 C 0.93518 1.0004 0.40192 0.0
C989 C 0.93063 0.00603 0.38767 0.0
C990 C 0.91978 0.0162 0.41203 0.0
C991 C 0.85676 0.06482 0.41841 0.0
H992 H 0.90625 0.10072 0.44641 0.0
C993 C 0.81635 0.15836 0.45519 0.0
C994 C 0.82583 0.15764 0.4691 0.0
C995 C 0.82837 0.13916 0.44525 0.0
C996 C 0.89198 0.09057 0.43883 0.0
H997 H 0.90465 0.03097 0.37288 0.0
H998 H 0.8776 0.05836 0.39058 0.0
H999 H 0.92662 0.06622 0.42949 0.0
H1000 H 0.85553 0.13627 0.48346 0.0
H1001 H 0.87602 0.10251 0.46626 0.0
H1002 H 0.82203 0.08905 0.42782 0.0
C1003 C 0.89323 0.04184 0.39391 0.0
C1004 C 0.90369 0.07076 0.42911 0.0
C1005 C 0.90877 0.02616 0.38377 0.0
C1006 C 0.84785 0.13758 0.47281 0.0
C1007 C 0.8597 0.11826 0.46291 0.0
C1008 C 0.84495 0.08449 0.42823 0.0
C1009 C 0.89933 0.0378 0.40813 0.0
C1010 C 0.88625 0.0577 0.41878 0.0
C1011 C 0.85003 0.11866 0.44901 0.0
C1012 C 0.86245 0.09769 0.43854 0.0
H1013 H 0.95171 0.98492 0.40531 0.0
H1014 H 0.92455 0.01221 0.42293 0.0
H1015 H 0.84277 0.05497 0.41062 0.0
H1016 H 0.79948 0.17361 0.45198 0.0
H1017 H 0.82074 0.14049 0.4346 0.0
C1018 C 0.01442 0.46041 0.65387 0.0
C1019 C 0.00945 0.44894 0.64042 0.0
C1020 C 0.99992 0.44853 0.66539 0.0
C1021 C 0.95759 0.38432 0.67831 0.0
H1022 H 0.91749 0.4442 0.70019 0.0
C1023 C 0.86853 0.35176 0.71752 0.0
C1024 C 0.86669 0.36796 0.73005 0.0
C1025 C 0.88683 0.36126 0.70681 0.0
C1026 C 0.92885 0.42714 0.69437 0.0
H1027 H 0.98709 0.41449 0.62871 0.0
H1028 H 0.96228 0.39334 0.6489 0.0
H1029 H 0.95021 0.4598 0.68171 0.0
H1030 H 0.88252 0.40695 0.74111 0.0
H1031 H 0.91492 0.42312 0.72262 0.0
H1032 H 0.93655 0.35161 0.69102 0.0
C1033 C 0.97716 0.41173 0.65048 0.0
C1034 C 0.94762 0.43612 0.68376 0.0
C1035 C 0.99138 0.42385 0.63892 0.0
C1036 C 0.88324 0.3941 0.73154 0.0
C1037 C 0.9018 0.40342 0.72089 0.0
C1038 C 0.93906 0.37531 0.68903 0.0
C1039 C 0.98049 0.42464 0.66375 0.0
C1040 C 0.96204 0.41482 0.67555 0.0
C1041 C 0.90401 0.38702 0.70841 0.0
C1042 C 0.92424 0.3966 0.69715 0.0
H1043 H 0.02815 0.47974 0.65542 0.0
H1044 H 0.0032 0.45867 0.67552 0.0
H1045 H 0.96857 0.36742 0.67221 0.0
H1046 H 0.85593 0.33161 0.71601 0.0
H1047 H 0.88741 0.34839 0.69725 0.0
C1048 C 0.56545 0.00358 0.37021 0.0
C1049 C 0.57555 0.01103 0.3836 0.0
C1050 C 0.57822 0.01594 0.35834 0.0
C1051 C 0.61985 0.0826 0.34785 0.0
H1052 H 0.62377 0.04183 0.31222 0.0
C1053 C 0.66901 0.13686 0.29841 0.0
C1054 C 0.6541 0.13249 0.2858 0.0
C1055 C 0.66082 0.12146 0.31046 0.0
C1056 C 0.62258 0.05358 0.32208 0.0
H1057 H 0.60843 0.03563 0.39491 0.0
H1058 H 0.63116 0.05661 0.37417 0.0
H1059 H 0.6093 0.01414 0.333 0.0
H1060 H 0.61854 0.10881 0.27606 0.0
H1061 H 0.60419 0.08202 0.29712 0.0
H1062 H 0.63308 0.12204 0.3369 0.0
C1063 C 0.61283 0.04183 0.37288 0.0
C1064 C 0.61433 0.0377 0.334 0.0
C1065 C 0.59997 0.02954 0.38477 0.0
C1066 C 0.6305 0.11272 0.28559 0.0
C1067 C 0.62242 0.09716 0.29763 0.0
C1068 C 0.62825 0.09842 0.33594 0.0
C1069 C 0.60154 0.03592 0.35953 0.0
C1070 C 0.61257 0.05208 0.34702 0.0
C1071 C 0.63762 0.10119 0.31018 0.0
C1072 C 0.62943 0.08417 0.3229 0.0
H1073 H 0.5467 0.98939 0.36889 0.0
H1074 H 0.56879 0.01099 0.34827 0.0
H1075 H 0.61821 0.09459 0.35762 0.0
H1076 H 0.68731 0.15191 0.29895 0.0
H1077 H 0.67308 0.12491 0.31994 0.0
C1078 C 0.94052 0.09437 0.64018 0.0
C1079 C 0.96635 0.07816 0.63879 0.0
C1080 C 0.92768 0.10778 0.62859 0.0
C1081 C 0.93966 0.13271 0.59243 0.0
H1082 H 0.85909 0.11183 0.58737 0.0
C1083 C 0.88217 0.15105 0.53995 0.0
C1084 C 0.85318 0.16018 0.54004 0.0
C1085 C 0.89584 0.14235 0.55227 0.0
C1086 C 0.88143 0.11834 0.58869 0.0
H1087 H 0.99997 0.06519 0.62427 0.0
H1088 H 0.97769 0.08903 0.60406 0.0
H1089 H 0.88406 0.09675 0.60857 0.0
H1090 H 0.8157 0.16714 0.55314 0.0
H1091 H 0.83974 0.15264 0.57475 0.0
H1092 H 0.93708 0.15455 0.57265 0.0
C1093 C 0.9673 0.09112 0.61413 0.0
C1094 C 0.89576 0.10964 0.60085 0.0
C1095 C 0.98005 0.07744 0.62571 0.0
C1096 C 0.83801 0.16003 0.55272 0.0
C1097 C 0.85181 0.15163 0.5651 0.0
C1098 C 0.92526 0.14171 0.58033 0.0
C1099 C 0.94052 0.1056 0.61537 0.0
C1100 C 0.92509 0.11651 0.6028 0.0
C1101 C 0.881 0.14289 0.56505 0.0
C1102 C 0.89602 0.13435 0.57822 0.0
H1103 H 0.92942 0.09552 0.6501 0.0
H1104 H 0.90727 0.11922 0.62989 0.0
H1105 H 0.96219 0.13856 0.59371 0.0
H1106 H 0.89441 0.15066 0.53034 0.0
H1107 H 0.91808 0.13507 0.55172 0.0
C1108 C 0.90245 0.46791 0.88868 0.0
C1109 C 0.92659 0.48692 0.88811 0.0
C1110 C 0.89194 0.45423 0.87659 0.0
C1111 C 0.89877 0.45281 0.83766 0.0
H1112 H 0.88005 0.36889 0.84257 0.0
C1113 C 0.89557 0.36886 0.79181 0.0
C1114 C 0.87159 0.34961 0.79122 0.0
C1115 C 0.90056 0.38654 0.80361 0.0
C1116 C 0.88495 0.39235 0.84104 0.0
H1117 H 0.95727 0.50817 0.87418 0.0
H1118 H 0.93942 0.48399 0.85322 0.0
H1119 H 0.88983 0.39985 0.8629 0.0
H1120 H 0.83452 0.33324 0.80273 0.0
H1121 H 0.84355 0.36372 0.8234 0.0
H1122 H 0.89476 0.44481 0.81571 0.0
C1123 C 0.92829 0.47978 0.86295 0.0
C1124 C 0.89038 0.41023 0.85271 0.0
C1125 C 0.9386 0.49369 0.87502 0.0
C1126 C 0.8532 0.34781 0.80285 0.0
C1127 C 0.85839 0.36523 0.8147 0.0
C1128 C 0.89361 0.43482 0.82598 0.0
C1129 C 0.90548 0.45902 0.86364 0.0
C1130 C 0.89755 0.44069 0.85119 0.0
C1131 C 0.88189 0.38509 0.81514 0.0
C1132 C 0.88683 0.40435 0.82754 0.0
H1133 H 0.89251 0.46242 0.89858 0.0
H1134 H 0.8738 0.43906 0.87748 0.0
H1135 H 0.90377 0.47622 0.83607 0.0
H1136 H 0.9101 0.37088 0.78302 0.0
H1137 H 0.91907 0.40135 0.80371 0.0
C1138 C 0.54397 0.404 0.14431 0.0
C1139 C 0.52065 0.42399 0.14526 0.0
C1140 C 0.55541 0.39617 0.13133 0.0
C1141 C 0.56232 0.42789 0.09621 0.0
H1142 H 0.59456 0.3505 0.08683 0.0
C1143 C 0.60916 0.40188 0.04182 0.0
C1144 C 0.6338 0.38366 0.041 0.0
C1145 C 0.59516 0.40637 0.05453 0.0
C1146 C 0.58598 0.37235 0.08937 0.0
H1147 H 0.4896 0.44949 0.13321 0.0
H1148 H 0.50932 0.43547 0.11059 0.0
H1149 H 0.56818 0.35675 0.10867 0.0
H1150 H 0.66355 0.35659 0.05304 0.0
H1151 H 0.63934 0.36487 0.07532 0.0
H1152 H 0.58034 0.44364 0.07704 0.0
C1153 C 0.51914 0.42636 0.11991 0.0
C1154 C 0.57074 0.37588 0.10186 0.0
C1155 C 0.50763 0.43412 0.13289 0.0
C1156 C 0.64461 0.37075 0.05329 0.0
C1157 C 0.63057 0.37525 0.06604 0.0
C1158 C 0.57757 0.42438 0.08376 0.0
C1159 C 0.5438 0.40816 0.119 0.0
C1160 C 0.55872 0.40371 0.10543 0.0
C1161 C 0.60544 0.39281 0.06678 0.0
C1162 C 0.58963 0.39659 0.08018 0.0
H1163 H 0.55448 0.39572 0.15362 0.0
H1164 H 0.57443 0.38214 0.13102 0.0
H1165 H 0.55393 0.44981 0.09877 0.0
H1166 H 0.60017 0.41211 0.03255 0.0
H1167 H 0.57573 0.41978 0.05467 0.0
loop_
_geom_bond_atom_site_label_1
_geom_bond_atom_site_label_2
_geom_bond_distance
_geom_bond_site_symmetry_2
_ccdc_geom_bond_type
Mg0 O7 2.141 1_545 S
Mg0 O8 2.048 1_545 S
Mg0 O9 2.048 1_455 S
Mg0 O12 2.141 1_455 S
C1 O2 1.313 . S
C1 O8 1.195 . S
O2 C1 1.313 . S
C3 O4 1.245 . S
C3 O12 1.289 . S
O4 C3 1.245 . S
C5 O6 1.245 . S
C5 O7 1.289 . S
O6 C5 1.245 . S
O7 Mg0 2.141 1_565 S
O7 C5 1.289 . S
O8 Mg0 2.048 1_565 S
O8 C1 1.195 . S
O9 Mg0 2.048 1_655 S
O9 C10 1.195 . S
C10 O9 1.195 . S
C10 O11 1.313 1_545 S
O11 C10 1.313 1_565 S
O12 Mg0 2.141 1_655 S
O12 C3 1.289 . S
Mg13 O20 2.141 1_655 S
Mg13 O21 2.048 1_655 S
Mg13 O22 2.048 . S
Mg13 O25 2.141 . S
C14 O15 1.313 . S
C14 O21 1.195 . S
O15 C14 1.313 . S
C16 O17 1.245 . S
C16 O25 1.289 . S
O17 C16 1.245 . S
C18 O19 1.245 . S
C18 O20 1.289 . S
O19 C18 1.245 . S
O20 Mg13 2.141 1_455 S
O20 C18 1.289 . S
O21 Mg13 2.048 1_455 S
O21 C14 1.195 . S
O22 Mg13 2.048 . S
O22 C23 1.195 . S
C23 O22 1.195 . S
C23 O24 1.313 1_655 S
O24 C23 1.313 1_455 S
O25 Mg13 2.141 . S
O25 C16 1.289 . S
Mg26 O33 2.141 . S
Mg26 O34 2.048 . S
Mg26 O35 2.048 . S
Mg26 O38 2.141 . S
C27 O28 1.313 . S
C27 O34 1.195 . S
O28 C27 1.313 . S
C29 O30 1.245 . S
C29 O38 1.289 . S
O30 C29 1.245 . S
C31 O32 1.245 . S
C31 O33 1.289 . S
O32 C31 1.245 . S
O33 Mg26 2.141 . S
O33 C31 1.289 . S
O34 Mg26 2.048 . S
O34 C27 1.195 . S
O35 Mg26 2.048 . S
O35 C36 1.195 . S
C36 O35 1.195 . S
C36 O37 1.313 . S
O37 C36 1.313 . S
O38 Mg26 2.141 . S
O38 C29 1.289 . S
Mg39 O46 2.141 . S
Mg39 O47 2.048 . S
Mg39 O48 2.048 1_545 S
Mg39 O51 2.141 1_545 S
C40 O41 1.313 . S
C40 O47 1.195 . S
O41 C40 1.313 . S
C42 O43 1.245 . S
C42 O51 1.289 . S
O43 C42 1.245 . S
C44 O45 1.245 . S
C44 O46 1.289 . S
O45 C44 1.245 . S
O46 Mg39 2.141 . S
O46 C44 1.289 . S
O47 Mg39 2.048 . S
O47 C40 1.195 . S
O48 Mg39 2.048 1_565 S
O48 C49 1.195 . S
C49 O48 1.195 . S
C49 O50 1.313 . S
O50 C49 1.313 . S
O51 Mg39 2.141 1_565 S
O51 C42 1.289 . S
Mg52 O59 2.141 . S
Mg52 O60 2.048 . S
Mg52 O61 2.048 1_455 S
Mg52 O64 2.141 1_455 S
C53 O54 1.313 . S
C53 O60 1.195 . S
O54 C53 1.313 . S
C55 O56 1.245 . S
C55 O64 1.289 . S
O56 C55 1.245 . S
C57 O58 1.245 . S
C57 O59 1.289 . S
O58 C57 1.245 . S
O59 Mg52 2.141 . S
O59 C57 1.289 . S
O60 Mg52 2.048 . S
O60 C53 1.195 . S
O61 Mg52 2.048 1_655 S
O61 C62 1.195 . S
C62 O61 1.195 . S
C62 O63 1.313 . S
O63 C62 1.313 . S
O64 Mg52 2.141 1_655 S
O64 C55 1.289 . S
Mg65 O72 2.141 . S
Mg65 O73 2.048 . S
Mg65 O74 2.048 . S
Mg65 O77 2.141 . S
C66 O67 1.313 . S
C66 O73 1.195 . S
O67 C66 1.313 . S
C68 O69 1.245 . S
C68 O77 1.289 . S
O69 C68 1.245 . S
C70 O71 1.245 . S
C70 O72 1.289 . S
O71 C70 1.245 . S
O72 Mg65 2.141 . S
O72 C70 1.289 . S
O73 Mg65 2.048 . S
O73 C66 1.195 . S
O74 Mg65 2.048 . S
O74 C75 1.195 . S
C75 O74 1.195 . S
C75 O76 1.313 . S
O76 C75 1.313 . S
O77 Mg65 2.141 . S
O77 C68 1.289 . S
Mg78 O85 2.141 1_565 S
Mg78 O86 2.048 1_565 S
Mg78 O87 2.048 . S
Mg78 O90 2.141 . S
C79 O80 1.313 . S
C79 O86 1.195 . S
O80 C79 1.313 . S
C81 O82 1.279 . S
C81 O90 1.289 . S
O82 C81 1.279 . S
C83 O84 1.245 . S
C83 O85 1.289 . S
O84 C83 1.245 . S
O85 Mg78 2.141 1_545 S
O85 C83 1.289 . S
O86 Mg78 2.048 1_545 S
O86 C79 1.195 . S
O87 Mg78 2.048 . S
O87 C88 1.195 . S
C88 O87 1.195 . S
C88 O89 1.313 1_565 S
O89 C88 1.313 1_545 S
O90 Mg78 2.141 . S
O90 C81 1.289 . S
Mg91 O98 2.141 1_655 S
Mg91 O99 2.048 1_655 S
Mg91 O100 2.048 1_565 S
Mg91 O103 2.141 1_565 S
C92 O93 1.313 . S
C92 O99 1.195 . S
O93 C92 1.313 . S
C94 O95 1.245 . S
C94 O103 1.289 . S
O95 C94 1.245 . S
C96 O97 1.245 . S
C96 O98 1.289 . S
O97 C96 1.245 . S
O98 Mg91 2.141 1_455 S
O98 C96 1.289 . S
O99 Mg91 2.048 1_455 S
O99 C92 1.195 . S
O100 Mg91 2.048 1_545 S
O100 C101 1.195 . S
C101 O100 1.195 . S
C101 O102 1.313 1_655 S
O102 C101 1.313 1_455 S
O103 Mg91 2.141 1_545 S
O103 C94 1.289 . S
C104 O105 1.160 . S
C104 O111 1.189 . S
O105 C104 1.160 . S
O106 Zn107 1.899 . S
O106 C114 1.284 . S
Zn107 O106 1.899 . S
Zn107 O108 2.032 1_554 S
Zn107 O111 2.114 . S
Zn107 O116 1.977 . S
O108 Zn107 2.032 1_556 S
O108 C112 1.278 . S
C109 O110 1.203 . S
C109 O116 1.267 . S
O110 C109 1.203 . S
O111 C104 1.189 . S
O111 Zn107 2.114 . S
C112 O108 1.278 . S
C112 O113 1.211 . S
O113 C112 1.211 . S
C114 O106 1.284 . S
C114 O115 1.273 . S
O115 C114 1.273 . S
O116 Zn107 1.977 . S
O116 C109 1.267 . S
C117 O118 1.160 . S
C117 O124 1.185 . S
O118 C117 1.160 . S
O119 Zn120 1.899 . S
O119 C127 1.284 . S
Zn120 O119 1.899 . S
Zn120 O121 2.032 . S
Zn120 O124 2.086 . S
Zn120 O129 1.977 . S
O121 Zn120 2.032 . S
O121 C125 1.278 . S
C122 O123 1.203 . S
C122 O129 1.267 . S
O123 C122 1.203 . S
O124 C117 1.185 . S
O124 Zn120 2.086 . S
C125 O121 1.278 . S
C125 O126 1.211 . S
O126 C125 1.211 . S
C127 O119 1.284 . S
C127 O128 1.273 . S
O128 C127 1.273 . S
O129 Zn120 1.977 . S
O129 C122 1.267 . S
C130 O131 1.160 . S
C130 O137 1.185 . S
O131 C130 1.160 . S
O132 Zn133 1.899 . S
O132 C140 1.284 . S
Zn133 O132 1.899 . S
Zn133 O134 2.032 . S
Zn133 O137 2.086 . S
Zn133 O142 1.977 . S
O134 Zn133 2.032 . S
O134 C138 1.278 . S
C135 O136 1.203 . S
C135 O142 1.267 . S
O136 C135 1.203 . S
O137 C130 1.185 . S
O137 Zn133 2.086 . S
C138 O134 1.278 . S
C138 O139 1.211 . S
O139 C138 1.211 . S
C140 O132 1.284 . S
C140 O141 1.273 . S
O141 C140 1.273 . S
O142 Zn133 1.977 . S
O142 C135 1.267 . S
C143 O144 1.160 . S
C143 O150 1.185 . S
O144 C143 1.160 . S
O145 Zn146 1.899 . S
O145 C153 1.284 . S
Zn146 O145 1.899 . S
Zn146 O147 2.032 . S
Zn146 O150 2.086 . S
Zn146 O155 1.977 . S
O147 Zn146 2.032 . S
O147 C151 1.278 . S
C148 O149 1.203 . S
C148 O155 1.267 . S
O149 C148 1.203 . S
O150 C143 1.185 . S
O150 Zn146 2.086 . S
C151 O147 1.278 . S
C151 O152 1.211 . S
O152 C151 1.211 . S
C153 O145 1.284 . S
C153 O154 1.273 . S
O154 C153 1.273 . S
O155 Zn146 1.977 . S
O155 C148 1.267 . S
C156 O157 1.160 . S
C156 O163 1.185 . S
O157 C156 1.160 . S
O158 Zn159 1.899 . S
O158 C166 1.284 . S
Zn159 O158 1.899 . S
Zn159 O160 2.032 . S
Zn159 O163 2.086 . S
Zn159 O168 1.977 . S
O160 Zn159 2.032 . S
O160 C164 1.278 . S
C161 O162 1.203 . S
C161 O168 1.267 . S
O162 C161 1.203 . S
O163 C156 1.185 . S
O163 Zn159 2.086 . S
C164 O160 1.278 . S
C164 O165 1.211 . S
O165 C164 1.211 . S
C166 O158 1.284 . S
C166 O167 1.273 . S
O167 C166 1.273 . S
O168 Zn159 1.977 . S
O168 C161 1.267 . S
C169 O170 1.160 . S
C169 O176 1.185 . S
O170 C169 1.160 . S
O171 Zn172 1.899 . S
O171 C179 1.284 . S
Zn172 O171 1.899 . S
Zn172 O173 2.032 . S
Zn172 O176 2.086 . S
Zn172 O181 1.977 . S
O173 Zn172 2.032 . S
O173 C177 1.278 . S
C174 O175 1.203 . S
C174 O181 1.267 . S
O175 C174 1.203 . S
O176 C169 1.185 . S
O176 Zn172 2.086 . S
C177 O173 1.278 . S
C177 O178 1.211 . S
O178 C177 1.211 . S
C179 O171 1.284 . S
C179 O180 1.273 . S
O180 C179 1.273 . S
O181 Zn172 1.977 . S
O181 C174 1.267 . S
C182 O183 1.160 . S
C182 O189 1.189 . S
O183 C182 1.160 . S
O184 Zn185 1.899 . S
O184 C192 1.284 . S
Zn185 O184 1.899 . S
Zn185 O186 2.032 1_554 S
Zn185 O189 2.114 . S
Zn185 O194 1.977 . S
O186 Zn185 2.032 1_556 S
O186 C190 1.278 . S
C187 O188 1.203 . S
C187 O194 1.267 . S
O188 C187 1.203 . S
O189 C182 1.189 . S
O189 Zn185 2.114 . S
C190 O186 1.278 . S
C190 O191 1.211 . S
O191 C190 1.211 . S
C192 O184 1.284 . S
C192 O193 1.273 . S
O193 C192 1.273 . S
O194 Zn185 1.977 . S
O194 C187 1.267 . S
C195 O196 1.160 . S
C195 O202 1.185 . S
O196 C195 1.160 . S
O197 Zn198 1.899 . S
O197 C205 1.284 . S
Zn198 O197 1.899 . S
Zn198 O199 2.032 . S
Zn198 O202 2.086 . S
Zn198 O207 1.977 . S
O199 Zn198 2.032 . S
O199 C203 1.278 . S
C200 O201 1.203 . S
C200 O207 1.267 . S
O201 C200 1.203 . S
O202 C195 1.185 . S
O202 Zn198 2.086 . S
C203 O199 1.278 . S
C203 O204 1.211 . S
O204 C203 1.211 . S
C205 O197 1.284 . S
C205 O206 1.273 . S
O206 C205 1.273 . S
O207 Zn198 1.977 . S
O207 C200 1.267 . S
C208 C209 1.349 . S
C208 C210 1.327 . S
C208 H233 0.950 . S
C209 C208 1.349 . S
C209 C225 1.349 . S
C210 C208 1.327 . S
C210 C229 1.429 . S
C210 H234 0.950 . S
C211 C228 1.574 . S
C211 C230 1.368 . S
C211 H235 0.949 . S
H212 C216 0.949 . S
C213 C214 1.349 . S
C213 C215 1.327 . S
C213 H236 0.950 . S
C214 C213 1.349 . S
C214 C226 1.349 . S
C215 C213 1.327 . S
C215 C231 1.429 . S
C215 H237 0.950 . S
C216 H212 0.949 . S
C216 C224 1.574 . S
C216 C232 1.368 . S
H217 C225 0.950 . S
H218 C223 0.950 . S
H219 C224 0.949 . S
H220 C226 0.950 . S
H221 C227 0.950 . S
H222 C228 0.949 . S
C223 H218 0.950 . S
C223 C225 1.327 . S
C223 C229 1.429 . S
C224 C216 1.574 . S
C224 H219 0.949 . S
C224 C230 1.368 . S
C225 C209 1.349 . S
C225 H217 0.950 . S
C225 C223 1.327 . S
C226 C214 1.349 . S
C226 H220 0.950 . S
C226 C227 1.327 . S
C227 H221 0.950 . S
C227 C226 1.327 . S
C227 C231 1.429 . S
C228 C211 1.574 . S
C228 H222 0.949 . S
C228 C232 1.368 . S
C229 C210 1.429 . S
C229 C223 1.429 . S
C229 C230 1.523 . S
C230 C211 1.368 . S
C230 C224 1.368 . S
C230 C229 1.523 . S
C231 C215 1.429 . S
C231 C227 1.429 . S
C231 C232 1.523 . S
C232 C216 1.368 . S
C232 C228 1.368 . S
C232 C231 1.523 . S
H233 C208 0.950 . S
H234 C210 0.950 . S
H235 C211 0.949 . S
H236 C213 0.950 . S
H237 C215 0.950 . S
C238 C239 1.349 . S
C238 C240 1.327 . S
C238 H263 0.950 . S
C239 C238 1.349 . S
C239 C255 1.349 . S
C240 C238 1.327 . S
C240 C259 1.429 . S
C240 H264 0.950 . S
C241 C258 1.574 . S
C241 C260 1.368 . S
C241 H265 0.949 . S
H242 C246 0.949 . S
C243 C244 1.349 . S
C243 C245 1.327 . S
C243 H266 0.950 . S
C244 C243 1.349 . S
C244 C256 1.349 . S
C245 C243 1.327 . S
C245 C261 1.429 . S
C245 H267 0.950 . S
C246 H242 0.949 . S
C246 C254 1.574 . S
C246 C262 1.368 . S
H247 C255 0.950 . S
H248 C253 0.950 . S
H249 C254 0.949 . S
H250 C256 0.950 . S
H251 C257 0.950 . S
H252 C258 0.949 . S
C253 H248 0.950 . S
C253 C255 1.327 . S
C253 C259 1.429 . S
C254 C246 1.574 . S
C254 H249 0.949 . S
C254 C260 1.368 . S
C255 C239 1.349 . S
C255 H247 0.950 . S
C255 C253 1.327 . S
C256 C244 1.349 . S
C256 H250 0.950 . S
C256 C257 1.327 . S
C257 H251 0.950 . S
C257 C256 1.327 . S
C257 C261 1.429 . S
C258 C241 1.574 . S
C258 H252 0.949 . S
C258 C262 1.368 . S
C259 C240 1.429 . S
C259 C253 1.429 . S
C259 C260 1.523 . S
C260 C241 1.368 . S
C260 C254 1.368 . S
C260 C259 1.523 . S
C261 C245 1.429 . S
C261 C257 1.429 . S
C261 C262 1.523 . S
C262 C246 1.368 . S
C262 C258 1.368 . S
C262 C261 1.523 . S
H263 C238 0.950 . S
H264 C240 0.950 . S
H265 C241 0.949 . S
H266 C243 0.950 . S
H267 C245 0.950 . S
C268 C269 1.349 . S
C268 C270 1.327 . S
C268 H293 0.950 . S
C269 C268 1.349 . S
C269 C285 1.349 . S
C270 C268 1.327 . S
C270 C289 1.429 . S
C270 H294 0.950 . S
C271 C288 1.574 . S
C271 C290 1.368 . S
C271 H295 0.949 . S
H272 C276 0.949 . S
C273 C274 1.349 . S
C273 C275 1.327 . S
C273 H296 0.950 . S
C274 C273 1.349 . S
C274 C286 1.349 . S
C275 C273 1.327 . S
C275 C291 1.429 . S
C275 H297 0.950 . S
C276 H272 0.949 . S
C276 C284 1.574 . S
C276 C292 1.368 . S
H277 C285 0.950 . S
H278 C283 0.950 . S
H279 C284 0.949 . S
H280 C286 0.950 . S
H281 C287 0.950 . S
H282 C288 0.949 . S
C283 H278 0.950 . S
C283 C285 1.327 . S
C283 C289 1.429 . S
C284 C276 1.574 . S
C284 H279 0.949 . S
C284 C290 1.368 . S
C285 C269 1.349 . S
C285 H277 0.950 . S
C285 C283 1.327 . S
C286 C274 1.349 . S
C286 H280 0.950 . S
C286 C287 1.327 . S
C287 H281 0.950 . S
C287 C286 1.327 . S
C287 C291 1.429 . S
C288 C271 1.574 . S
C288 H282 0.949 . S
C288 C292 1.368 . S
C289 C270 1.429 . S
C289 C283 1.429 . S
C289 C290 1.523 . S
C290 C271 1.368 . S
C290 C284 1.368 . S
C290 C289 1.523 . S
C291 C275 1.429 . S
C291 C287 1.429 . S
C291 C292 1.523 . S
C292 C276 1.368 . S
C292 C288 1.368 . S
C292 C291 1.523 . S
H293 C268 0.950 . S
H294 C270 0.950 . S
H295 C271 0.949 . S
H296 C273 0.950 . S
H297 C275 0.950 . S
C298 C299 1.349 . S
C298 C300 1.327 . S
C298 H323 0.950 . S
C299 C298 1.349 . S
C299 C315 1.349 . S
C300 C298 1.327 . S
C300 C319 1.429 . S
C300 H324 0.950 . S
C301 C318 1.574 . S
C301 C320 1.368 . S
C301 H325 0.949 . S
H302 C306 0.949 . S
C303 C304 1.349 . S
C303 C305 1.327 . S
C303 H326 0.950 . S
C304 C303 1.349 . S
C304 C316 1.349 . S
C305 C303 1.327 . S
C305 C321 1.429 . S
C305 H327 0.950 . S
C306 H302 0.949 . S
C306 C314 1.574 . S
C306 C322 1.368 . S
H307 C315 0.950 . S
H308 C313 0.950 . S
H309 C314 0.949 . S
H310 C316 0.950 . S
H311 C317 0.950 . S
H312 C318 0.949 . S
C313 H308 0.950 . S
C313 C315 1.327 . S
C313 C319 1.429 . S
C314 C306 1.574 . S
C314 H309 0.949 . S
C314 C320 1.368 . S
C315 C299 1.349 . S
C315 H307 0.950 . S
C315 C313 1.327 . S
C316 C304 1.349 . S
C316 H310 0.950 . S
C316 C317 1.327 . S
C317 H311 0.950 . S
C317 C316 1.327 . S
C317 C321 1.429 . S
C318 C301 1.574 . S
C318 H312 0.949 . S
C318 C322 1.368 . S
C319 C300 1.429 . S
C319 C313 1.429 . S
C319 C320 1.523 . S
C320 C301 1.368 . S
C320 C314 1.368 . S
C320 C319 1.523 . S
C321 C305 1.429 . S
C321 C317 1.429 . S
C321 C322 1.523 . S
C322 C306 1.368 . S
C322 C318 1.368 . S
C322 C321 1.523 . S
H323 C298 0.950 . S
H324 C300 0.950 . S
H325 C301 0.949 . S
H326 C303 0.950 . S
H327 C305 0.950 . S
C328 C329 1.349 . S
C328 C330 1.327 . S
C328 H353 0.950 . S
C329 C328 1.349 . S
C329 C345 1.349 . S
C330 C328 1.327 . S
C330 C349 1.429 . S
C330 H354 0.950 . S
C331 C348 1.574 . S
C331 C350 1.368 . S
C331 H355 0.949 . S
H332 C336 0.949 . S
C333 C334 1.349 . S
C333 C335 1.327 . S
C333 H356 0.950 . S
C334 C333 1.349 . S
C334 C346 1.349 . S
C335 C333 1.327 . S
C335 C351 1.429 . S
C335 H357 0.950 . S
C336 H332 0.949 . S
C336 C344 1.574 . S
C336 C352 1.368 . S
H337 C345 0.950 . S
H338 C343 0.950 . S
H339 C344 0.949 . S
H340 C346 0.950 1_554 S
H341 C347 0.950 . S
H342 C348 0.949 . S
C343 H338 0.950 . S
C343 C345 1.327 . S
C343 C349 1.429 . S
C344 C336 1.574 . S
C344 H339 0.949 . S
C344 C350 1.368 . S
C345 C329 1.349 . S
C345 H337 0.950 . S
C345 C343 1.327 . S
C346 C334 1.349 . S
C346 H340 0.950 1_556 S
C346 C347 1.327 . S
C347 H341 0.950 . S
C347 C346 1.327 . S
C347 C351 1.429 . S
C348 C331 1.574 . S
C348 H342 0.949 . S
C348 C352 1.368 . S
C349 C330 1.429 . S
C349 C343 1.429 . S
C349 C350 1.523 . S
C350 C331 1.368 . S
C350 C344 1.368 . S
C350 C349 1.523 . S
C351 C335 1.429 . S
C351 C347 1.429 . S
C351 C352 1.523 . S
C352 C336 1.368 . S
C352 C348 1.368 . S
C352 C351 1.523 . S
H353 C328 0.950 . S
H354 C330 0.950 . S
H355 C331 0.949 . S
H356 C333 0.950 . S
H357 C335 0.950 . S
C358 C359 1.349 . S
C358 C360 1.327 . S
C358 H383 0.950 . S
C359 C358 1.349 . S
C359 C375 1.349 . S
C360 C358 1.327 . S
C360 C379 1.429 . S
C360 H384 0.950 . S
C361 C378 1.574 . S
C361 C380 1.368 . S
C361 H385 0.949 . S
H362 C366 0.949 . S
C363 C364 1.349 . S
C363 C365 1.327 . S
C363 H386 0.950 . S
C364 C363 1.349 . S
C364 C376 1.349 . S
C365 C363 1.327 . S
C365 C381 1.429 . S
C365 H387 0.950 . S
C366 H362 0.949 . S
C366 C374 1.574 . S
C366 C382 1.368 . S
H367 C375 0.950 . S
H368 C373 0.950 . S
H369 C374 0.949 . S
H370 C376 0.950 . S
H371 C377 0.950 . S
H372 C378 0.949 . S
C373 H368 0.950 . S
C373 C375 1.327 . S
C373 C379 1.429 . S
C374 C366 1.574 . S
C374 H369 0.949 . S
C374 C380 1.368 . S
C375 C359 1.349 . S
C375 H367 0.950 . S
C375 C373 1.327 . S
C376 C364 1.349 . S
C376 H370 0.950 . S
C376 C377 1.327 . S
C377 H371 0.950 . S
C377 C376 1.327 . S
C377 C381 1.429 . S
C378 C361 1.574 . S
C378 H372 0.949 . S
C378 C382 1.368 . S
C379 C360 1.429 . S
C379 C373 1.429 . S
C379 C380 1.523 . S
C380 C361 1.368 . S
C380 C374 1.368 . S
C380 C379 1.523 . S
C381 C365 1.429 . S
C381 C377 1.429 . S
C381 C382 1.523 . S
C382 C366 1.368 . S
C382 C378 1.368 . S
C382 C381 1.523 . S
H383 C358 0.950 . S
H384 C360 0.950 . S
H385 C361 0.949 . S
H386 C363 0.950 . S
H387 C365 0.950 . S
C388 C389 1.349 . S
C388 C390 1.327 . S
C388 H413 0.950 . S
C389 C388 1.349 . S
C389 C405 1.349 . S
C390 C388 1.327 . S
C390 C409 1.429 . S
C390 H414 0.950 . S
C391 C408 1.574 . S
C391 C410 1.368 . S
C391 H415 0.949 . S
H392 C396 0.949 . S
C393 C394 1.349 . S
C393 C395 1.327 . S
C393 H416 0.950 . S
C394 C393 1.349 . S
C394 C406 1.349 . S
C395 C393 1.327 . S
C395 C411 1.429 . S
C395 H417 0.950 . S
C396 H392 0.949 . S
C396 C404 1.574 . S
C396 C412 1.368 . S
H397 C405 0.950 . S
H398 C403 0.950 . S
H399 C404 0.949 . S
H400 C406 0.950 . S
H401 C407 0.950 . S
H402 C408 0.949 . S
C403 H398 0.950 . S
C403 C405 1.327 . S
C403 C409 1.429 . S
C404 C396 1.574 . S
C404 H399 0.949 . S
C404 C410 1.368 . S
C405 C389 1.349 . S
C405 H397 0.950 . S
C405 C403 1.327 . S
C406 C394 1.349 . S
C406 H400 0.950 . S
C406 C407 1.327 . S
C407 H401 0.950 . S
C407 C406 1.327 . S
C407 C411 1.429 . S
C408 C391 1.574 . S
C408 H402 0.949 . S
C408 C412 1.368 . S
C409 C390 1.429 . S
C409 C403 1.429 . S
C409 C410 1.523 . S
C410 C391 1.368 . S
C410 C404 1.368 . S
C410 C409 1.523 . S
C411 C395 1.429 . S
C411 C407 1.429 . S
C411 C412 1.523 . S
C412 C396 1.368 . S
C412 C408 1.368 . S
C412 C411 1.523 . S
H413 C388 0.950 . S
H414 C390 0.950 . S
H415 C391 0.949 . S
H416 C393 0.950 . S
H417 C395 0.950 . S
C418 C419 1.349 . S
C418 C420 1.327 . S
C418 H443 0.950 . S
C419 C418 1.349 . S
C419 C435 1.349 . S
C420 C418 1.327 . S
C420 C439 1.429 . S
C420 H444 0.950 . S
C421 C438 1.574 . S
C421 C440 1.368 . S
C421 H445 0.949 . S
H422 C426 0.949 . S
C423 C424 1.349 . S
C423 C425 1.327 . S
C423 H446 0.950 . S
C424 C423 1.349 . S
C424 C436 1.349 . S
C425 C423 1.327 . S
C425 C441 1.429 . S
C425 H447 0.950 . S
C426 H422 0.949 . S
C426 C434 1.574 . S
C426 C442 1.368 . S
H427 C435 0.950 . S
H428 C433 0.950 . S
H429 C434 0.949 . S
H430 C436 0.950 . S
H431 C437 0.950 . S
H432 C438 0.949 . S
C433 H428 0.950 . S
C433 C435 1.327 . S
C433 C439 1.429 . S
C434 C426 1.574 . S
C434 H429 0.949 . S
C434 C440 1.368 . S
C435 C419 1.349 . S
C435 H427 0.950 . S
C435 C433 1.327 . S
C436 C424 1.349 . S
C436 H430 0.950 . S
C436 C437 1.327 . S
C437 H431 0.950 . S
C437 C436 1.327 . S
C437 C441 1.429 . S
C438 C421 1.574 . S
C438 H432 0.949 . S
C438 C442 1.368 . S
C439 C420 1.429 . S
C439 C433 1.429 . S
C439 C440 1.523 . S
C440 C421 1.368 . S
C440 C434 1.368 . S
C440 C439 1.523 . S
C441 C425 1.429 . S
C441 C437 1.429 . S
C441 C442 1.523 . S
C442 C426 1.368 . S
C442 C438 1.368 . S
C442 C441 1.523 . S
H443 C418 0.950 . S
H444 C420 0.950 . S
H445 C421 0.949 . S
H446 C423 0.950 . S
H447 C425 0.950 . S
C448 C449 1.349 . S
C448 C450 1.327 . S
C448 H473 0.950 . S
C449 C448 1.349 . S
C449 C465 1.349 . S
C450 C448 1.327 . S
C450 C469 1.429 . S
C450 H474 0.950 . S
C451 C468 1.574 . S
C451 C470 1.368 . S
C451 H475 0.949 . S
H452 C456 0.949 . S
C453 C454 1.349 . S
C453 C455 1.327 . S
C453 H476 0.950 . S
C454 C453 1.349 . S
C454 C466 1.349 . S
C455 C453 1.327 . S
C455 C471 1.429 . S
C455 H477 0.950 . S
C456 H452 0.949 . S
C456 C464 1.574 . S
C456 C472 1.368 . S
H457 C465 0.950 . S
H458 C463 0.950 . S
H459 C464 0.949 . S
H460 C466 0.950 . S
H461 C467 0.950 . S
H462 C468 0.949 . S
C463 H458 0.950 . S
C463 C465 1.327 . S
C463 C469 1.429 . S
C464 C456 1.574 . S
C464 H459 0.949 . S
C464 C470 1.368 . S
C465 C449 1.349 . S
C465 H457 0.950 . S
C465 C463 1.327 . S
C466 C454 1.349 . S
C466 H460 0.950 . S
C466 C467 1.327 . S
C467 H461 0.950 . S
C467 C466 1.327 . S
C467 C471 1.429 . S
C468 C451 1.574 . S
C468 H462 0.949 . S
C468 C472 1.368 . S
C469 C450 1.429 . S
C469 C463 1.429 . S
C469 C470 1.523 . S
C470 C451 1.368 . S
C470 C464 1.368 . S
C470 C469 1.523 . S
C471 C455 1.429 . S
C471 C467 1.429 . S
C471 C472 1.523 . S
C472 C456 1.368 . S
C472 C468 1.368 . S
C472 C471 1.523 . S
H473 C448 0.950 . S
H474 C450 0.950 . S
H475 C451 0.949 . S
H476 C453 0.950 . S
H477 C455 0.950 . S
C478 C479 1.349 . S
C478 C480 1.327 . S
C478 H503 0.950 . S
C479 C478 1.349 . S
C479 C495 1.349 . S
C480 C478 1.327 . S
C480 C499 1.429 . S
C480 H504 0.950 . S
C481 C498 1.574 . S
C481 C500 1.368 . S
C481 H505 0.949 . S
H482 C486 0.949 . S
C483 C484 1.349 . S
C483 C485 1.327 . S
C483 H506 0.950 . S
C484 C483 1.349 . S
C484 C496 1.349 . S
C485 C483 1.327 . S
C485 C501 1.429 . S
C485 H507 0.950 . S
C486 H482 0.949 . S
C486 C494 1.574 . S
C486 C502 1.368 . S
H487 C495 0.950 . S
H488 C493 0.950 . S
H489 C494 0.949 . S
H490 C496 0.950 . S
H491 C497 0.950 . S
H492 C498 0.949 . S
C493 H488 0.950 . S
C493 C495 1.327 . S
C493 C499 1.429 . S
C494 C486 1.574 . S
C494 H489 0.949 . S
C494 C500 1.368 . S
C495 C479 1.349 . S
C495 H487 0.950 . S
C495 C493 1.327 . S
C496 C484 1.349 . S
C496 H490 0.950 . S
C496 C497 1.327 . S
C497 H491 0.950 . S
C497 C496 1.327 . S
C497 C501 1.429 . S
C498 C481 1.574 . S
C498 H492 0.949 . S
C498 C502 1.368 . S
C499 C480 1.429 . S
C499 C493 1.429 . S
C499 C500 1.523 . S
C500 C481 1.368 . S
C500 C494 1.368 . S
C500 C499 1.523 . S
C501 C485 1.429 . S
C501 C497 1.429 . S
C501 C502 1.523 . S
C502 C486 1.368 . S
C502 C498 1.368 . S
C502 C501 1.523 . S
H503 C478 0.950 . S
H504 C480 0.950 . S
H505 C481 0.949 . S
H506 C483 0.950 . S
H507 C485 0.950 . S
C508 C509 1.349 . S
C508 C510 1.327 . S
C508 H533 0.950 . S
C509 C508 1.349 . S
C509 C525 1.349 . S
C510 C508 1.327 . S
C510 C529 1.429 . S
C510 H534 0.950 . S
C511 C528 1.574 . S
C511 C530 1.368 . S
C511 H535 0.949 . S
H512 C516 0.949 . S
C513 C514 1.349 . S
C513 C515 1.327 . S
C513 H536 0.950 . S
C514 C513 1.349 . S
C514 C526 1.349 . S
C515 C513 1.327 . S
C515 C531 1.429 . S
C515 H537 0.950 . S
C516 H512 0.949 . S
C516 C524 1.574 . S
C516 C532 1.368 . S
H517 C525 0.950 . S
H518 C523 0.950 . S
H519 C524 0.949 . S
H520 C526 0.950 . S
H521 C527 0.950 . S
H522 C528 0.949 . S
C523 H518 0.950 . S
C523 C525 1.327 . S
C523 C529 1.429 . S
C524 C516 1.574 . S
C524 H519 0.949 . S
C524 C530 1.368 . S
C525 C509 1.349 . S
C525 H517 0.950 . S
C525 C523 1.327 . S
C526 C514 1.349 . S
C526 H520 0.950 . S
C526 C527 1.327 . S
C527 H521 0.950 . S
C527 C526 1.327 . S
C527 C531 1.429 . S
C528 C511 1.574 . S
C528 H522 0.949 . S
C528 C532 1.368 . S
C529 C510 1.429 . S
C529 C523 1.429 . S
C529 C530 1.523 . S
C530 C511 1.368 . S
C530 C524 1.368 . S
C530 C529 1.523 . S
C531 C515 1.429 . S
C531 C527 1.429 . S
C531 C532 1.523 . S
C532 C516 1.368 . S
C532 C528 1.368 . S
C532 C531 1.523 . S
H533 C508 0.950 . S
H534 C510 0.950 . S
H535 C511 0.949 . S
H536 C513 0.950 . S
H537 C515 0.950 . S
C538 C539 1.349 . S
C538 C540 1.327 . S
C538 H563 0.950 . S
C539 C538 1.349 . S
C539 C555 1.349 . S
C540 C538 1.327 . S
C540 C559 1.429 . S
C540 H564 0.950 . S
C541 C558 1.574 . S
C541 C560 1.368 . S
C541 H565 0.949 . S
H542 C546 0.949 . S
C543 C544 1.349 . S
C543 C545 1.327 . S
C543 H566 0.950 . S
C544 C543 1.349 . S
C544 C556 1.349 . S
C545 C543 1.327 . S
C545 C561 1.429 . S
C545 H567 0.950 . S
C546 H542 0.949 . S
C546 C554 1.574 . S
C546 C562 1.368 . S
H547 C555 0.950 . S
H548 C553 0.950 . S
H549 C554 0.949 . S
H550 C556 0.950 . S
H551 C557 0.950 . S
H552 C558 0.949 . S
C553 H548 0.950 . S
C553 C555 1.327 . S
C553 C559 1.429 . S
C554 C546 1.574 . S
C554 H549 0.949 . S
C554 C560 1.368 . S
C555 C539 1.349 . S
C555 H547 0.950 . S
C555 C553 1.327 . S
C556 C544 1.349 . S
C556 H550 0.950 . S
C556 C557 1.327 . S
C557 H551 0.950 . S
C557 C556 1.327 . S
C557 C561 1.429 . S
C558 C541 1.574 . S
C558 H552 0.949 . S
C558 C562 1.368 . S
C559 C540 1.429 . S
C559 C553 1.429 . S
C559 C560 1.523 . S
C560 C541 1.368 . S
C560 C554 1.368 . S
C560 C559 1.523 . S
C561 C545 1.429 . S
C561 C557 1.429 . S
C561 C562 1.523 . S
C562 C546 1.368 . S
C562 C558 1.368 . S
C562 C561 1.523 . S
H563 C538 0.950 . S
H564 C540 0.950 . S
H565 C541 0.949 . S
H566 C543 0.950 . S
H567 C545 0.950 . S
C568 C569 1.349 . S
C568 C570 1.327 . S
C568 H593 0.950 . S
C569 C568 1.349 . S
C569 C585 1.349 . S
C570 C568 1.327 . S
C570 C589 1.429 . S
C570 H594 0.950 . S
C571 C588 1.574 . S
C571 C590 1.368 . S
C571 H595 0.949 . S
H572 C576 0.949 . S
C573 C574 1.349 . S
C573 C575 1.327 . S
C573 H596 0.950 . S
C574 C573 1.349 . S
C574 C586 1.349 . S
C575 C573 1.327 . S
C575 C591 1.429 . S
C575 H597 0.950 . S
C576 H572 0.949 . S
C576 C584 1.574 . S
C576 C592 1.368 . S
H577 C585 0.950 . S
H578 C583 0.950 . S
H579 C584 0.949 . S
H580 C586 0.950 . S
H581 C587 0.950 . S
H582 C588 0.949 . S
C583 H578 0.950 . S
C583 C585 1.327 . S
C583 C589 1.429 . S
C584 C576 1.574 . S
C584 H579 0.949 . S
C584 C590 1.368 . S
C585 C569 1.349 . S
C585 H577 0.950 . S
C585 C583 1.327 . S
C586 C574 1.349 . S
C586 H580 0.950 . S
C586 C587 1.327 . S
C587 H581 0.950 . S
C587 C586 1.327 . S
C587 C591 1.429 . S
C588 C571 1.574 . S
C588 H582 0.949 . S
C588 C592 1.368 . S
C589 C570 1.429 . S
C589 C583 1.429 . S
C589 C590 1.523 . S
C590 C571 1.368 . S
C590 C584 1.368 . S
C590 C589 1.523 . S
C591 C575 1.429 . S
C591 C587 1.429 . S
C591 C592 1.523 . S
C592 C576 1.368 . S
C592 C588 1.368 . S
C592 C591 1.523 . S
H593 C568 0.950 . S
H594 C570 0.950 . S
H595 C571 0.949 . S
H596 C573 0.950 . S
H597 C575 0.950 . S
C598 C599 1.349 . S
C598 C600 1.327 . S
C598 H623 0.950 . S
C599 C598 1.349 . S
C599 C615 1.349 . S
C600 C598 1.327 . S
C600 C619 1.429 . S
C600 H624 0.950 . S
C601 C618 1.574 . S
C601 C620 1.368 . S
C601 H625 0.949 . S
H602 C606 0.949 . S
C603 C604 1.349 . S
C603 C605 1.327 . S
C603 H626 0.950 . S
C604 C603 1.349 . S
C604 C616 1.349 . S
C605 C603 1.327 . S
C605 C621 1.429 . S
C605 H627 0.950 . S
C606 H602 0.949 . S
C606 C614 1.574 . S
C606 C622 1.368 . S
H607 C615 0.950 . S
H608 C613 0.950 . S
H609 C614 0.949 . S
H610 C616 0.950 . S
H611 C617 0.950 . S
H612 C618 0.949 . S
C613 H608 0.950 . S
C613 C615 1.327 . S
C613 C619 1.429 . S
C614 C606 1.574 . S
C614 H609 0.949 . S
C614 C620 1.368 . S
C615 C599 1.349 . S
C615 H607 0.950 . S
C615 C613 1.327 . S
C616 C604 1.349 . S
C616 H610 0.950 . S
C616 C617 1.327 . S
C617 H611 0.950 . S
C617 C616 1.327 . S
C617 C621 1.429 . S
C618 C601 1.574 . S
C618 H612 0.949 . S
C618 C622 1.368 . S
C619 C600 1.429 . S
C619 C613 1.429 . S
C619 C620 1.523 . S
C620 C601 1.368 . S
C620 C614 1.368 . S
C620 C619 1.523 . S
C621 C605 1.429 . S
C621 C617 1.429 . S
C621 C622 1.523 . S
C622 C606 1.368 . S
C622 C618 1.368 . S
C622 C621 1.523 . S
H623 C598 0.950 . S
H624 C600 0.950 . S
H625 C601 0.949 . S
H626 C603 0.950 . S
H627 C605 0.950 . S
C628 C629 1.349 . S
C628 C630 1.327 . S
C628 H653 0.950 . S
C629 C628 1.349 . S
C629 C645 1.349 . S
C630 C628 1.327 . S
C630 C649 1.429 . S
C630 H654 0.950 . S
C631 C648 1.574 . S
C631 C650 1.368 . S
C631 H655 0.949 . S
H632 C636 0.949 . S
C633 C634 1.349 . S
C633 C635 1.327 . S
C633 H656 0.950 . S
C634 C633 1.349 . S
C634 C646 1.349 . S
C635 C633 1.327 . S
C635 C651 1.429 . S
C635 H657 0.950 . S
C636 H632 0.949 . S
C636 C644 1.574 . S
C636 C652 1.368 . S
H637 C645 0.950 . S
H638 C643 0.950 . S
H639 C644 0.949 . S
H640 C646 0.950 . S
H641 C647 0.950 . S
H642 C648 0.949 . S
C643 H638 0.950 . S
C643 C645 1.327 . S
C643 C649 1.429 . S
C644 C636 1.574 . S
C644 H639 0.949 . S
C644 C650 1.368 . S
C645 C629 1.349 . S
C645 H637 0.950 . S
C645 C643 1.327 . S
C646 C634 1.349 . S
C646 H640 0.950 . S
C646 C647 1.327 . S
C647 H641 0.950 . S
C647 C646 1.327 . S
C647 C651 1.429 . S
C648 C631 1.574 . S
C648 H642 0.949 . S
C648 C652 1.368 . S
C649 C630 1.429 . S
C649 C643 1.429 . S
C649 C650 1.523 . S
C650 C631 1.368 . S
C650 C644 1.368 . S
C650 C649 1.523 . S
C651 C635 1.429 . S
C651 C647 1.429 . S
C651 C652 1.523 . S
C652 C636 1.368 . S
C652 C648 1.368 . S
C652 C651 1.523 . S
H653 C628 0.950 . S
H654 C630 0.950 . S
H655 C631 0.949 . S
H656 C633 0.950 . S
H657 C635 0.950 . S
C658 C659 1.349 . S
C658 C660 1.327 . S
C658 H683 0.950 . S
C659 C658 1.349 . S
C659 C675 1.349 . S
C660 C658 1.327 . S
C660 C679 1.429 . S
C660 H684 0.950 . S
C661 C678 1.574 . S
C661 C680 1.368 . S
C661 H685 0.949 . S
H662 C666 0.949 . S
C663 C664 1.349 . S
C663 C665 1.327 . S
C663 H686 0.950 . S
C664 C663 1.349 . S
C664 C676 1.349 . S
C665 C663 1.327 . S
C665 C681 1.429 . S
C665 H687 0.950 . S
C666 H662 0.949 . S
C666 C674 1.574 . S
C666 C682 1.368 . S
H667 C675 0.950 . S
H668 C673 0.950 . S
H669 C674 0.949 . S
H670 C676 0.950 . S
H671 C677 0.950 . S
H672 C678 0.949 . S
C673 H668 0.950 . S
C673 C675 1.327 . S
C673 C679 1.429 . S
C674 C666 1.574 . S
C674 H669 0.949 . S
C674 C680 1.368 . S
C675 C659 1.349 . S
C675 H667 0.950 . S
C675 C673 1.327 . S
C676 C664 1.349 . S
C676 H670 0.950 . S
C676 C677 1.327 . S
C677 H671 0.950 . S
C677 C676 1.327 . S
C677 C681 1.429 . S
C678 C661 1.574 . S
C678 H672 0.949 . S
C678 C682 1.368 . S
C679 C660 1.429 . S
C679 C673 1.429 . S
C679 C680 1.523 . S
C680 C661 1.368 . S
C680 C674 1.368 . S
C680 C679 1.523 . S
C681 C665 1.429 . S
C681 C677 1.429 . S
C681 C682 1.523 . S
C682 C666 1.368 . S
C682 C678 1.368 . S
C682 C681 1.523 . S
H683 C658 0.950 . S
H684 C660 0.950 . S
H685 C661 0.949 . S
H686 C663 0.950 . S
H687 C665 0.950 . S
C688 C689 1.349 . S
C688 C690 1.327 . S
C688 H713 0.950 . S
C689 C688 1.349 . S
C689 C705 1.349 . S
C690 C688 1.327 . S
C690 C709 1.429 . S
C690 H714 0.950 . S
C691 C708 1.574 . S
C691 C710 1.368 . S
C691 H715 0.949 . S
H692 C696 0.949 . S
C693 C694 1.349 . S
C693 C695 1.327 . S
C693 H716 0.950 . S
C694 C693 1.349 . S
C694 C706 1.349 . S
C695 C693 1.327 . S
C695 C711 1.429 . S
C695 H717 0.950 . S
C696 H692 0.949 . S
C696 C704 1.574 . S
C696 C712 1.368 . S
H697 C705 0.950 . S
H698 C703 0.950 . S
H699 C704 0.949 . S
H700 C706 0.950 . S
H701 C707 0.950 . S
H702 C708 0.949 . S
C703 H698 0.950 . S
C703 C705 1.327 . S
C703 C709 1.429 . S
C704 C696 1.574 . S
C704 H699 0.949 . S
C704 C710 1.368 . S
C705 C689 1.349 . S
C705 H697 0.950 . S
C705 C703 1.327 . S
C706 C694 1.349 . S
C706 H700 0.950 . S
C706 C707 1.327 . S
C707 H701 0.950 . S
C707 C706 1.327 . S
C707 C711 1.429 . S
C708 C691 1.574 . S
C708 H702 0.949 . S
C708 C712 1.368 . S
C709 C690 1.429 . S
C709 C703 1.429 . S
C709 C710 1.523 . S
C710 C691 1.368 . S
C710 C704 1.368 . S
C710 C709 1.523 . S
C711 C695 1.429 . S
C711 C707 1.429 . S
C711 C712 1.523 . S
C712 C696 1.368 . S
C712 C708 1.368 . S
C712 C711 1.523 . S
H713 C688 0.950 . S
H714 C690 0.950 . S
H715 C691 0.949 . S
H716 C693 0.950 . S
H717 C695 0.950 . S
C718 C719 1.349 . S
C718 C720 1.327 . S
C718 H743 0.950 . S
C719 C718 1.349 . S
C719 C735 1.349 . S
C720 C718 1.327 . S
C720 C739 1.429 . S
C720 H744 0.950 . S
C721 C738 1.574 . S
C721 C740 1.368 . S
C721 H745 0.949 . S
H722 C726 0.949 . S
C723 C724 1.349 . S
C723 C725 1.327 . S
C723 H746 0.950 . S
C724 C723 1.349 . S
C724 C736 1.349 . S
C725 C723 1.327 . S
C725 C741 1.429 . S
C725 H747 0.950 . S
C726 H722 0.949 . S
C726 C734 1.574 . S
C726 C742 1.368 . S
H727 C735 0.950 . S
H728 C733 0.950 . S
H729 C734 0.949 . S
H730 C736 0.950 . S
H731 C737 0.950 . S
H732 C738 0.949 . S
C733 H728 0.950 . S
C733 C735 1.327 . S
C733 C739 1.429 . S
C734 C726 1.574 . S
C734 H729 0.949 . S
C734 C740 1.368 . S
C735 C719 1.349 . S
C735 H727 0.950 . S
C735 C733 1.327 . S
C736 C724 1.349 . S
C736 H730 0.950 . S
C736 C737 1.327 . S
C737 H731 0.950 . S
C737 C736 1.327 . S
C737 C741 1.429 . S
C738 C721 1.574 . S
C738 H732 0.949 . S
C738 C742 1.368 . S
C739 C720 1.429 . S
C739 C733 1.429 . S
C739 C740 1.523 . S
C740 C721 1.368 . S
C740 C734 1.368 . S
C740 C739 1.523 . S
C741 C725 1.429 . S
C741 C737 1.429 . S
C741 C742 1.523 . S
C742 C726 1.368 . S
C742 C738 1.368 . S
C742 C741 1.523 . S
H743 C718 0.950 . S
H744 C720 0.950 . S
H745 C721 0.949 . S
H746 C723 0.950 . S
H747 C725 0.950 . S
C748 C749 1.349 . S
C748 C750 1.327 . S
C748 H773 0.950 . S
C749 C748 1.349 . S
C749 C765 1.349 . S
C750 C748 1.327 . S
C750 C769 1.429 . S
C750 H774 0.950 . S
C751 C768 1.574 . S
C751 C770 1.368 . S
C751 H775 0.949 . S
H752 C756 0.949 . S
C753 C754 1.349 . S
C753 C755 1.327 . S
C753 H776 0.950 . S
C754 C753 1.349 . S
C754 C766 1.349 . S
C755 C753 1.327 . S
C755 C771 1.429 . S
C755 H777 0.950 . S
C756 H752 0.949 . S
C756 C764 1.574 . S
C756 C772 1.368 . S
H757 C765 0.950 . S
H758 C763 0.950 . S
H759 C764 0.949 . S
H760 C766 0.950 . S
H761 C767 0.950 . S
H762 C768 0.949 . S
C763 H758 0.950 . S
C763 C765 1.327 . S
C763 C769 1.429 . S
C764 C756 1.574 . S
C764 H759 0.949 . S
C764 C770 1.368 . S
C765 C749 1.349 . S
C765 H757 0.950 . S
C765 C763 1.327 . S
C766 C754 1.349 . S
C766 H760 0.950 . S
C766 C767 1.327 . S
C767 H761 0.950 . S
C767 C766 1.327 . S
C767 C771 1.429 . S
C768 C751 1.574 . S
C768 H762 0.949 . S
C768 C772 1.368 . S
C769 C750 1.429 . S
C769 C763 1.429 . S
C769 C770 1.523 . S
C770 C751 1.368 . S
C770 C764 1.368 . S
C770 C769 1.523 . S
C771 C755 1.429 . S
C771 C767 1.429 . S
C771 C772 1.523 . S
C772 C756 1.368 . S
C772 C768 1.368 . S
C772 C771 1.523 . S
H773 C748 0.950 . S
H774 C750 0.950 . S
H775 C751 0.949 . S
H776 C753 0.950 . S
H777 C755 0.950 . S
C778 C779 1.349 . S
C778 C780 1.327 . S
C778 H803 0.950 . S
C779 C778 1.349 . S
C779 C795 1.349 . S
C780 C778 1.327 . S
C780 C799 1.429 . S
C780 H804 0.950 . S
C781 C798 1.574 . S
C781 C800 1.368 . S
C781 H805 0.949 . S
H782 C786 0.949 . S
C783 C784 1.349 . S
C783 C785 1.327 . S
C783 H806 0.950 . S
C784 C783 1.349 . S
C784 C796 1.349 . S
C785 C783 1.327 . S
C785 C801 1.429 . S
C785 H807 0.950 . S
C786 H782 0.949 . S
C786 C794 1.574 . S
C786 C802 1.368 . S
H787 C795 0.950 . S
H788 C793 0.950 . S
H789 C794 0.949 . S
H790 C796 0.950 . S
H791 C797 0.950 . S
H792 C798 0.949 . S
C793 H788 0.950 . S
C793 C795 1.327 . S
C793 C799 1.429 . S
C794 C786 1.574 . S
C794 H789 0.949 . S
C794 C800 1.368 . S
C795 C779 1.349 . S
C795 H787 0.950 . S
C795 C793 1.327 . S
C796 C784 1.349 . S
C796 H790 0.950 . S
C796 C797 1.327 . S
C797 H791 0.950 . S
C797 C796 1.327 . S
C797 C801 1.429 . S
C798 C781 1.574 . S
C798 H792 0.949 . S
C798 C802 1.368 . S
C799 C780 1.429 . S
C799 C793 1.429 . S
C799 C800 1.523 . S
C800 C781 1.368 . S
C800 C794 1.368 . S
C800 C799 1.523 . S
C801 C785 1.429 . S
C801 C797 1.429 . S
C801 C802 1.523 . S
C802 C786 1.368 . S
C802 C798 1.368 . S
C802 C801 1.523 . S
H803 C778 0.950 . S
H804 C780 0.950 . S
H805 C781 0.949 . S
H806 C783 0.950 . S
H807 C785 0.950 . S
C808 C809 1.349 . S
C808 C810 1.327 . S
C808 H833 0.950 . S
C809 C808 1.349 . S
C809 C825 1.349 . S
C810 C808 1.327 . S
C810 C829 1.429 . S
C810 H834 0.950 . S
C811 C828 1.574 . S
C811 C830 1.368 . S
C811 H835 0.949 . S
H812 C816 0.949 . S
C813 C814 1.349 . S
C813 C815 1.327 . S
C813 H836 0.950 . S
C814 C813 1.349 . S
C814 C826 1.349 . S
C815 C813 1.327 . S
C815 C831 1.429 . S
C815 H837 0.950 . S
C816 H812 0.949 . S
C816 C824 1.574 . S
C816 C832 1.368 . S
H817 C825 0.950 . S
H818 C823 0.950 . S
H819 C824 0.949 . S
H820 C826 0.950 . S
H821 C827 0.950 . S
H822 C828 0.949 . S
C823 H818 0.950 . S
C823 C825 1.327 . S
C823 C829 1.429 . S
C824 C816 1.574 . S
C824 H819 0.949 . S
C824 C830 1.368 . S
C825 C809 1.349 . S
C825 H817 0.950 . S
C825 C823 1.327 . S
C826 C814 1.349 . S
C826 H820 0.950 . S
C826 C827 1.327 . S
C827 H821 0.950 . S
C827 C826 1.327 . S
C827 C831 1.429 . S
C828 C811 1.574 . S
C828 H822 0.949 . S
C828 C832 1.368 . S
C829 C810 1.429 . S
C829 C823 1.429 . S
C829 C830 1.523 . S
C830 C811 1.368 . S
C830 C824 1.368 . S
C830 C829 1.523 . S
C831 C815 1.429 . S
C831 C827 1.429 . S
C831 C832 1.523 . S
C832 C816 1.368 . S
C832 C828 1.368 . S
C832 C831 1.523 . S
H833 C808 0.950 . S
H834 C810 0.950 . S
H835 C811 0.949 . S
H836 C813 0.950 . S
H837 C815 0.950 . S
C838 C839 1.349 . S
C838 C840 1.327 . S
C838 H863 0.950 . S
C839 C838 1.349 . S
C839 C855 1.349 . S
C840 C838 1.327 . S
C840 C859 1.429 . S
C840 H864 0.950 . S
C841 C858 1.574 . S
C841 C860 1.368 . S
C841 H865 0.949 . S
H842 C846 0.949 . S
C843 C844 1.349 . S
C843 C845 1.327 . S
C843 H866 0.950 . S
C844 C843 1.349 . S
C844 C856 1.349 . S
C845 C843 1.327 . S
C845 C861 1.429 . S
C845 H867 0.950 . S
C846 H842 0.949 . S
C846 C854 1.574 . S
C846 C862 1.368 . S
H847 C855 0.950 . S
H848 C853 0.950 . S
H849 C854 0.949 . S
H850 C856 0.950 . S
H851 C857 0.950 . S
H852 C858 0.949 . S
C853 H848 0.950 . S
C853 C855 1.327 . S
C853 C859 1.429 . S
C854 C846 1.574 . S
C854 H849 0.949 . S
C854 C860 1.368 . S
C855 C839 1.349 . S
C855 H847 0.950 . S
C855 C853 1.327 . S
C856 C844 1.349 . S
C856 H850 0.950 . S
C856 C857 1.327 . S
C857 H851 0.950 . S
C857 C856 1.327 . S
C857 C861 1.429 . S
C858 C841 1.574 . S
C858 H852 0.949 . S
C858 C862 1.368 . S
C859 C840 1.429 . S
C859 C853 1.429 . S
C859 C860 1.523 . S
C860 C841 1.368 . S
C860 C854 1.368 . S
C860 C859 1.523 . S
C861 C845 1.429 . S
C861 C857 1.429 . S
C861 C862 1.523 . S
C862 C846 1.368 . S
C862 C858 1.368 . S
C862 C861 1.523 . S
H863 C838 0.950 . S
H864 C840 0.950 . S
H865 C841 0.949 . S
H866 C843 0.950 . S
H867 C845 0.950 . S
C868 C869 1.349 . S
C868 C870 1.327 . S
C868 H893 0.950 . S
C869 C868 1.349 . S
C869 C885 1.349 . S
C870 C868 1.327 . S
C870 C889 1.429 . S
C870 H894 0.950 . S
C871 C888 1.574 . S
C871 C890 1.368 . S
C871 H895 0.949 . S
H872 C876 0.949 . S
C873 C874 1.349 . S
C873 C875 1.327 . S
C873 H896 0.950 . S
C874 C873 1.349 . S
C874 C886 1.349 . S
C875 C873 1.327 . S
C875 C891 1.429 . S
C875 H897 0.950 . S
C876 H872 0.949 . S
C876 C884 1.574 . S
C876 C892 1.368 . S
H877 C885 0.950 . S
H878 C883 0.950 . S
H879 C884 0.949 . S
H880 C886 0.950 . S
H881 C887 0.950 . S
H882 C888 0.949 . S
C883 H878 0.950 . S
C883 C885 1.327 . S
C883 C889 1.429 . S
C884 C876 1.574 . S
C884 H879 0.949 . S
C884 C890 1.368 . S
C885 C869 1.349 . S
C885 H877 0.950 . S
C885 C883 1.327 . S
C886 C874 1.349 . S
C886 H880 0.950 . S
C886 C887 1.327 . S
C887 H881 0.950 . S
C887 C886 1.327 . S
C887 C891 1.429 . S
C888 C871 1.574 . S
C888 H882 0.949 . S
C888 C892 1.368 . S
C889 C870 1.429 . S
C889 C883 1.429 . S
C889 C890 1.523 . S
C890 C871 1.368 . S
C890 C884 1.368 . S
C890 C889 1.523 . S
C891 C875 1.429 . S
C891 C887 1.429 . S
C891 C892 1.523 . S
C892 C876 1.368 . S
C892 C888 1.368 . S
C892 C891 1.523 . S
H893 C868 0.950 . S
H894 C870 0.950 . S
H895 C871 0.949 . S
H896 C873 0.950 . S
H897 C875 0.950 . S
C898 C899 1.349 . S
C898 C900 1.327 . S
C898 H923 0.950 . S
C899 C898 1.349 . S
C899 C915 1.349 . S
C900 C898 1.327 . S
C900 C919 1.429 . S
C900 H924 0.950 . S
C901 C918 1.574 . S
C901 C920 1.368 . S
C901 H925 0.949 . S
H902 C906 0.949 . S
C903 C904 1.349 . S
C903 C905 1.327 . S
C903 H926 0.950 . S
C904 C903 1.349 . S
C904 C916 1.349 . S
C905 C903 1.327 . S
C905 C921 1.429 . S
C905 H927 0.950 . S
C906 H902 0.949 . S
C906 C914 1.574 . S
C906 C922 1.368 . S
H907 C915 0.950 . S
H908 C913 0.950 . S
H909 C914 0.949 . S
H910 C916 0.950 . S
H911 C917 0.950 . S
H912 C918 0.949 . S
C913 H908 0.950 . S
C913 C915 1.327 . S
C913 C919 1.429 . S
C914 C906 1.574 . S
C914 H909 0.949 . S
C914 C920 1.368 . S
C915 C899 1.349 . S
C915 H907 0.950 . S
C915 C913 1.327 . S
C916 C904 1.349 . S
C916 H910 0.950 . S
C916 C917 1.327 . S
C917 H911 0.950 . S
C917 C916 1.327 . S
C917 C921 1.429 . S
C918 C901 1.574 . S
C918 H912 0.949 . S
C918 C922 1.368 . S
C919 C900 1.429 . S
C919 C913 1.429 . S
C919 C920 1.523 . S
C920 C901 1.368 . S
C920 C914 1.368 . S
C920 C919 1.523 . S
C921 C905 1.429 . S
C921 C917 1.429 . S
C921 C922 1.523 . S
C922 C906 1.368 . S
C922 C918 1.368 . S
C922 C921 1.523 . S
H923 C898 0.950 . S
H924 C900 0.950 . S
H925 C901 0.949 . S
H926 C903 0.950 . S
H927 C905 0.950 . S
C928 C929 1.349 . S
C928 C930 1.327 . S
C928 H953 0.950 . S
C929 C928 1.349 . S
C929 C945 1.349 . S
C930 C928 1.327 . S
C930 C949 1.429 . S
C930 H954 0.950 . S
C931 C948 1.574 . S
C931 C950 1.368 . S
C931 H955 0.949 . S
H932 C936 0.949 . S
C933 C934 1.349 . S
C933 C935 1.327 . S
C933 H956 0.950 . S
C934 C933 1.349 . S
C934 C946 1.349 . S
C935 C933 1.327 . S
C935 C951 1.429 . S
C935 H957 0.950 . S
C936 H932 0.949 . S
C936 C944 1.574 . S
C936 C952 1.368 . S
H937 C945 0.950 . S
H938 C943 0.950 . S
H939 C944 0.949 . S
H940 C946 0.950 . S
H941 C947 0.950 . S
H942 C948 0.949 . S
C943 H938 0.950 . S
C943 C945 1.327 . S
C943 C949 1.429 . S
C944 C936 1.574 . S
C944 H939 0.949 . S
C944 C950 1.368 . S
C945 C929 1.349 . S
C945 H937 0.950 . S
C945 C943 1.327 . S
C946 C934 1.349 . S
C946 H940 0.950 . S
C946 C947 1.327 . S
C947 H941 0.950 . S
C947 C946 1.327 . S
C947 C951 1.429 . S
C948 C931 1.574 . S
C948 H942 0.949 . S
C948 C952 1.368 . S
C949 C930 1.429 . S
C949 C943 1.429 . S
C949 C950 1.523 . S
C950 C931 1.368 . S
C950 C944 1.368 . S
C950 C949 1.523 . S
C951 C935 1.429 . S
C951 C947 1.429 . S
C951 C952 1.523 . S
C952 C936 1.368 . S
C952 C948 1.368 . S
C952 C951 1.523 . S
H953 C928 0.950 . S
H954 C930 0.950 . S
H955 C931 0.949 . S
H956 C933 0.950 . S
H957 C935 0.950 . S
C958 C959 1.349 . S
C958 C960 1.327 . S
C958 H983 0.950 . S
C959 C958 1.349 . S
C959 C975 1.349 . S
C960 C958 1.327 . S
C960 C979 1.429 . S
C960 H984 0.950 . S
C961 C978 1.574 . S
C961 C980 1.368 . S
C961 H985 0.949 . S
H962 C966 0.949 . S
C963 C964 1.349 . S
C963 C965 1.327 . S
C963 H986 0.950 . S
C964 C963 1.349 . S
C964 C976 1.349 . S
C965 C963 1.327 . S
C965 C981 1.429 . S
C965 H987 0.950 . S
C966 H962 0.949 . S
C966 C974 1.574 . S
C966 C982 1.368 . S
H967 C975 0.950 . S
H968 C973 0.950 . S
H969 C974 0.949 . S
H970 C976 0.950 . S
H971 C977 0.950 . S
H972 C978 0.949 . S
C973 H968 0.950 . S
C973 C975 1.327 . S
C973 C979 1.429 . S
C974 C966 1.574 . S
C974 H969 0.949 . S
C974 C980 1.368 . S
C975 C959 1.349 . S
C975 H967 0.950 . S
C975 C973 1.327 . S
C976 C964 1.349 . S
C976 H970 0.950 . S
C976 C977 1.327 . S
C977 H971 0.950 . S
C977 C976 1.327 . S
C977 C981 1.429 . S
C978 C961 1.574 . S
C978 H972 0.949 . S
C978 C982 1.368 . S
C979 C960 1.429 . S
C979 C973 1.429 . S
C979 C980 1.523 . S
C980 C961 1.368 . S
C980 C974 1.368 . S
C980 C979 1.523 . S
C981 C965 1.429 . S
C981 C977 1.429 . S
C981 C982 1.523 . S
C982 C966 1.368 . S
C982 C978 1.368 . S
C982 C981 1.523 . S
H983 C958 0.950 . S
H984 C960 0.950 . S
H985 C961 0.949 . S
H986 C963 0.950 . S
H987 C965 0.950 . S
C988 C989 1.349 . S
C988 C990 1.327 . S
C988 H1013 0.950 . S
C989 C988 1.349 . S
C989 C1005 1.349 . S
C990 C988 1.327 . S
C990 C1009 1.429 . S
C990 H1014 0.950 . S
C991 C1008 1.574 . S
C991 C1010 1.368 . S
C991 H1015 0.949 . S
H992 C996 0.949 . S
C993 C994 1.349 . S
C993 C995 1.327 . S
C993 H1016 0.950 . S
C994 C993 1.349 . S
C994 C1006 1.349 . S
C995 C993 1.327 . S
C995 C1011 1.429 . S
C995 H1017 0.950 . S
C996 H992 0.949 . S
C996 C1004 1.574 . S
C996 C1012 1.368 . S
H997 C1005 0.950 . S
H998 C1003 0.950 . S
H999 C1004 0.949 . S
H1000 C1006 0.950 . S
H1001 C1007 0.950 . S
H1002 C1008 0.949 . S
C1003 H998 0.950 . S
C1003 C1005 1.327 . S
C1003 C1009 1.429 . S
C1004 C996 1.574 . S
C1004 H999 0.949 . S
C1004 C1010 1.368 . S
C1005 C989 1.349 . S
C1005 H997 0.950 . S
C1005 C1003 1.327 . S
C1006 C994 1.349 . S
C1006 H1000 0.950 . S
C1006 C1007 1.327 . S
C1007 H1001 0.950 . S
C1007 C1006 1.327 . S
C1007 C1011 1.429 . S
C1008 C991 1.574 . S
C1008 H1002 0.949 . S
C1008 C1012 1.368 . S
C1009 C990 1.429 . S
C1009 C1003 1.429 . S
C1009 C1010 1.523 . S
C1010 C991 1.368 . S
C1010 C1004 1.368 . S
C1010 C1009 1.523 . S
C1011 C995 1.429 . S
C1011 C1007 1.429 . S
C1011 C1012 1.523 . S
C1012 C996 1.368 . S
C1012 C1008 1.368 . S
C1012 C1011 1.523 . S
H1013 C988 0.950 . S
H1014 C990 0.950 . S
H1015 C991 0.949 . S
H1016 C993 0.950 . S
H1017 C995 0.950 . S
C1018 C1019 1.349 . S
C1018 C1020 1.327 . S
C1018 H1043 0.950 . S
C1019 C1018 1.349 . S
C1019 C1035 1.349 . S
C1020 C1018 1.327 . S
C1020 C1039 1.429 . S
C1020 H1044 0.950 . S
C1021 C1038 1.574 . S
C1021 C1040 1.368 . S
C1021 H1045 0.949 . S
H1022 C1026 0.949 . S
C1023 C1024 1.349 . S
C1023 C1025 1.327 . S
C1023 H1046 0.950 . S
C1024 C1023 1.349 . S
C1024 C1036 1.349 . S
C1025 C1023 1.327 . S
C1025 C1041 1.429 . S
C1025 H1047 0.950 . S
C1026 H1022 0.949 . S
C1026 C1034 1.574 . S
C1026 C1042 1.368 . S
H1027 C1035 0.950 . S
H1028 C1033 0.950 . S
H1029 C1034 0.949 . S
H1030 C1036 0.950 . S
H1031 C1037 0.950 . S
H1032 C1038 0.949 . S
C1033 H1028 0.950 . S
C1033 C1035 1.327 . S
C1033 C1039 1.429 . S
C1034 C1026 1.574 . S
C1034 H1029 0.949 . S
C1034 C1040 1.368 . S
C1035 C1019 1.349 . S
C1035 H1027 0.950 . S
C1035 C1033 1.327 . S
C1036 C1024 1.349 . S
C1036 H1030 0.950 . S
C1036 C1037 1.327 . S
C1037 H1031 0.950 . S
C1037 C1036 1.327 . S
C1037 C1041 1.429 . S
C1038 C1021 1.574 . S
C1038 H1032 0.949 . S
C1038 C1042 1.368 . S
C1039 C1020 1.429 . S
C1039 C1033 1.429 . S
C1039 C1040 1.523 . S
C1040 C1021 1.368 . S
C1040 C1034 1.368 . S
C1040 C1039 1.523 . S
C1041 C1025 1.429 . S
C1041 C1037 1.429 . S
C1041 C1042 1.523 . S
C1042 C1026 1.368 . S
C1042 C1038 1.368 . S
C1042 C1041 1.523 . S
H1043 C1018 0.950 . S
H1044 C1020 0.950 . S
H1045 C1021 0.949 . S
H1046 C1023 0.950 . S
H1047 C1025 0.950 . S
C1048 C1049 1.349 . S
C1048 C1050 1.327 . S
C1048 H1073 0.950 . S
C1049 C1048 1.349 . S
C1049 C1065 1.349 . S
C1050 C1048 1.327 . S
C1050 C1069 1.429 . S
C1050 H1074 0.950 . S
C1051 C1068 1.574 . S
C1051 C1070 1.368 . S
C1051 H1075 0.949 . S
H1052 C1056 0.949 . S
C1053 C1054 1.349 . S
C1053 C1055 1.327 . S
C1053 H1076 0.950 . S
C1054 C1053 1.349 . S
C1054 C1066 1.349 . S
C1055 C1053 1.327 . S
C1055 C1071 1.429 . S
C1055 H1077 0.950 . S
C1056 H1052 0.949 . S
C1056 C1064 1.574 . S
C1056 C1072 1.368 . S
H1057 C1065 0.950 . S
H1058 C1063 0.950 . S
H1059 C1064 0.949 . S
H1060 C1066 0.950 . S
H1061 C1067 0.950 . S
H1062 C1068 0.949 . S
C1063 H1058 0.950 . S
C1063 C1065 1.327 . S
C1063 C1069 1.429 . S
C1064 C1056 1.574 . S
C1064 H1059 0.949 . S
C1064 C1070 1.368 . S
C1065 C1049 1.349 . S
C1065 H1057 0.950 . S
C1065 C1063 1.327 . S
C1066 C1054 1.349 . S
C1066 H1060 0.950 . S
C1066 C1067 1.327 . S
C1067 H1061 0.950 . S
C1067 C1066 1.327 . S
C1067 C1071 1.429 . S
C1068 C1051 1.574 . S
C1068 H1062 0.949 . S
C1068 C1072 1.368 . S
C1069 C1050 1.429 . S
C1069 C1063 1.429 . S
C1069 C1070 1.523 . S
C1070 C1051 1.368 . S
C1070 C1064 1.368 . S
C1070 C1069 1.523 . S
C1071 C1055 1.429 . S
C1071 C1067 1.429 . S
C1071 C1072 1.523 . S
C1072 C1056 1.368 . S
C1072 C1068 1.368 . S
C1072 C1071 1.523 . S
H1073 C1048 0.950 . S
H1074 C1050 0.950 . S
H1075 C1051 0.949 . S
H1076 C1053 0.950 . S
H1077 C1055 0.950 . S
C1078 C1079 1.349 . S
C1078 C1080 1.327 . S
C1078 H1103 0.950 . S
C1079 C1078 1.349 . S
C1079 C1095 1.349 . S
C1080 C1078 1.327 . S
C1080 C1099 1.429 . S
C1080 H1104 0.950 . S
C1081 C1098 1.574 . S
C1081 C1100 1.368 . S
C1081 H1105 0.949 . S
H1082 C1086 0.949 . S
C1083 C1084 1.349 . S
C1083 C1085 1.327 . S
C1083 H1106 0.950 . S
C1084 C1083 1.349 . S
C1084 C1096 1.349 . S
C1085 C1083 1.327 . S
C1085 C1101 1.429 . S
C1085 H1107 0.950 . S
C1086 H1082 0.949 . S
C1086 C1094 1.574 . S
C1086 C1102 1.368 . S
H1087 C1095 0.950 . S
H1088 C1093 0.950 . S
H1089 C1094 0.949 . S
H1090 C1096 0.950 . S
H1091 C1097 0.950 . S
H1092 C1098 0.949 . S
C1093 H1088 0.950 . S
C1093 C1095 1.327 . S
C1093 C1099 1.429 . S
C1094 C1086 1.574 . S
C1094 H1089 0.949 . S
C1094 C1100 1.368 . S
C1095 C1079 1.349 . S
C1095 H1087 0.950 . S
C1095 C1093 1.327 . S
C1096 C1084 1.349 . S
C1096 H1090 0.950 . S
C1096 C1097 1.327 . S
C1097 H1091 0.950 . S
C1097 C1096 1.327 . S
C1097 C1101 1.429 . S
C1098 C1081 1.574 . S
C1098 H1092 0.949 . S
C1098 C1102 1.368 . S
C1099 C1080 1.429 . S
C1099 C1093 1.429 . S
C1099 C1100 1.523 . S
C1100 C1081 1.368 . S
C1100 C1094 1.368 . S
C1100 C1099 1.523 . S
C1101 C1085 1.429 . S
C1101 C1097 1.429 . S
C1101 C1102 1.523 . S
C1102 C1086 1.368 . S
C1102 C1098 1.368 . S
C1102 C1101 1.523 . S
H1103 C1078 0.950 . S
H1104 C1080 0.950 . S
H1105 C1081 0.949 . S
H1106 C1083 0.950 . S
H1107 C1085 0.950 . S
C1108 C1109 1.349 . S
C1108 C1110 1.327 . S
C1108 H1133 0.950 . S
C1109 C1108 1.349 . S
C1109 C1125 1.349 . S
C1110 C1108 1.327 . S
C1110 C1129 1.429 . S
C1110 H1134 0.950 . S
C1111 C1128 1.574 . S
C1111 C1130 1.368 . S
C1111 H1135 0.949 . S
H1112 C1116 0.949 . S
C1113 C1114 1.349 . S
C1113 C1115 1.327 . S
C1113 H1136 0.950 . S
C1114 C1113 1.349 . S
C1114 C1126 1.349 . S
C1115 C1113 1.327 . S
C1115 C1131 1.429 . S
C1115 H1137 0.950 . S
C1116 H1112 0.949 . S
C1116 C1124 1.574 . S
C1116 C1132 1.368 . S
H1117 C1125 0.950 . S
H1118 C1123 0.950 . S
H1119 C1124 0.949 . S
H1120 C1126 0.950 . S
H1121 C1127 0.950 . S
H1122 C1128 0.949 . S
C1123 H1118 0.950 . S
C1123 C1125 1.327 . S
C1123 C1129 1.429 . S
C1124 C1116 1.574 . S
C1124 H1119 0.949 . S
C1124 C1130 1.368 . S
C1125 C1109 1.349 . S
C1125 H1117 0.950 . S
C1125 C1123 1.327 . S
C1126 C1114 1.349 . S
C1126 H1120 0.950 . S
C1126 C1127 1.327 . S
C1127 H1121 0.950 . S
C1127 C1126 1.327 . S
C1127 C1131 1.429 . S
C1128 C1111 1.574 . S
C1128 H1122 0.949 . S
C1128 C1132 1.368 . S
C1129 C1110 1.429 . S
C1129 C1123 1.429 . S
C1129 C1130 1.523 . S
C1130 C1111 1.368 . S
C1130 C1124 1.368 . S
C1130 C1129 1.523 . S
C1131 C1115 1.429 . S
C1131 C1127 1.429 . S
C1131 C1132 1.523 . S
C1132 C1116 1.368 . S
C1132 C1128 1.368 . S
C1132 C1131 1.523 . S
H1133 C1108 0.950 . S
H1134 C1110 0.950 . S
H1135 C1111 0.949 . S
H1136 C1113 0.950 . S
H1137 C1115 0.950 . S
C1138 C1139 1.349 . S
C1138 C1140 1.327 . S
C1138 H1163 0.950 . S
C1139 C1138 1.349 . S
C1139 C1155 1.349 . S
C1140 C1138 1.327 . S
C1140 C1159 1.429 . S
C1140 H1164 0.950 . S
C1141 C1158 1.574 . S
C1141 C1160 1.368 . S
C1141 H1165 0.949 . S
H1142 C1146 0.949 . S
C1143 C1144 1.349 . S
C1143 C1145 1.327 . S
C1143 H1166 0.950 . S
C1144 C1143 1.349 . S
C1144 C1156 1.349 . S
C1145 C1143 1.327 . S
C1145 C1161 1.429 . S
C1145 H1167 0.950 . S
C1146 H1142 0.949 . S
C1146 C1154 1.574 . S
C1146 C1162 1.368 . S
H1147 C1155 0.950 . S
H1148 C1153 0.950 . S
H1149 C1154 0.949 . S
H1150 C1156 0.950 . S
H1151 C1157 0.950 . S
H1152 C1158 0.949 . S
C1153 H1148 0.950 . S
C1153 C1155 1.327 . S
C1153 C1159 1.429 . S
C1154 C1146 1.574 . S
C1154 H1149 0.949 . S
C1154 C1160 1.368 . S
C1155 C1139 1.349 . S
C1155 H1147 0.950 . S
C1155 C1153 1.327 . S
C1156 C1144 1.349 . S
C1156 H1150 0.950 . S
C1156 C1157 1.327 . S
C1157 H1151 0.950 . S
C1157 C1156 1.327 . S
C1157 C1161 1.429 . S
C1158 C1141 1.574 . S
C1158 H1152 0.949 . S
C1158 C1162 1.368 . S
C1159 C1140 1.429 . S
C1159 C1153 1.429 . S
C1159 C1160 1.523 . S
C1160 C1141 1.368 . S
C1160 C1154 1.368 . S
C1160 C1159 1.523 . S
C1161 C1145 1.429 . S
C1161 C1157 1.429 . S
C1161 C1162 1.523 . S
C1162 C1146 1.368 . S
C1162 C1158 1.368 . S
C1162 C1161 1.523 . S
H1163 C1138 0.950 . S
H1164 C1140 0.950 . S
H1165 C1141 0.949 . S
H1166 C1143 0.950 . S
H1167 C1145 0.950 . S
C214 C117 1.145 . S
C209 C5 1.172 . S
C244 C135 1.089 . S
C239 C18 1.157 . S
C274 C143 1.145 . S
C269 C31 1.174 . S
C299 C42 1.152 . S
C304 C109 1.094 . S
C329 C57 1.173 . S
C334 C104 1.141 1_556 S
C359 C70 1.159 . S
C364 C122 1.090 . S
C394 C130 1.144 . S
C389 C81 1.171 . S
C424 C148 1.090 . S
C419 C96 1.161 . S
C449 C29 1.169 . S
C454 C169 1.145 . S
C484 C187 1.090 . S
C479 C44 1.155 . S
C509 C3 1.169 . S
C514 C195 1.148 . S
C544 C161 1.089 . S
C539 C16 1.155 . S
C569 C83 1.173 . S
C574 C156 1.144 . S
C599 C94 1.152 . S
C604 C174 1.086 . S
C634 C182 1.144 1_556 S
C629 C55 1.171 . S
C659 C68 1.152 . S
C664 C200 1.090 . S
C694 C138 1.274 . S
C689 C1 1.251 . S
C724 C153 1.251 . S
C719 C14 1.256 . S
C749 C27 1.252 . S
C754 C112 1.274 . S
C779 C49 1.277 . S
C784 C127 1.253 . S
C809 C53 1.252 . S
C814 C151 1.273 . S
C844 C114 1.251 . S
C839 C66 1.258 . S
C874 C125 1.274 . S
C869 C88 1.272 . S
C904 C140 1.251 . S
C899 C92 1.259 . S
C934 C190 1.274 . S
C929 C36 1.270 . S
C964 C205 1.251 . S
C959 C40 1.256 . S
C989 C10 1.270 . S
C994 C164 1.273 . S
C1024 C179 1.251 . S
C1019 C23 1.280 . S
C1054 C203 1.274 . S
C1049 C79 1.250 . S
C1079 C101 1.277 . S
C1084 C166 1.250 . S
C1114 C177 1.274 . S
C1109 C62 1.272 . S
C1144 C192 1.251 . S
C1139 C75 1.277 . S
